# Generated by pormake.
# Topology ofo, (3)-cn, num edge types: 1
# Building blocks:
#     Node 0, Type 0, BuildingBlock: WUSLED_clean_sbu_0, # of connection points: 3
#     Node 1, Type 0, BuildingBlock: WUSLED_clean_sbu_0, # of connection points: 3
#     Node 2, Type 0, BuildingBlock: WUSLED_clean_sbu_0, # of connection points: 3
#     Node 3, Type 0, BuildingBlock: WUSLED_clean_sbu_0, # of connection points: 3
#     Node 4, Type 0, BuildingBlock: WUSLED_clean_sbu_0, # of connection points: 3
#     Node 5, Type 0, BuildingBlock: WUSLED_clean_sbu_0, # of connection points: 3
#     Node 6, Type 0, BuildingBlock: WUSLED_clean_sbu_0, # of connection points: 3
#     Node 7, Type 0, BuildingBlock: WUSLED_clean_sbu_0, # of connection points: 3
#     Node 8, Type 0, BuildingBlock: WUSLED_clean_sbu_0, # of connection points: 3
#     Node 9, Type 0, BuildingBlock: WUSLED_clean_sbu_0, # of connection points: 3
#     Node 10, Type 0, BuildingBlock: WUSLED_clean_sbu_0, # of connection points: 3
#     Node 11, Type 0, BuildingBlock: WUSLED_clean_sbu_0, # of connection points: 3
#     Edge 12, Type (0, 0), BuildingBlock: CIFDUS_clean_linker_0, # of connection points: 2
#     Edge 13, Type (0, 0), BuildingBlock: CIFDUS_clean_linker_0, # of connection points: 2
#     Edge 14, Type (0, 0), BuildingBlock: CIFDUS_clean_linker_0, # of connection points: 2
#     Edge 15, Type (0, 0), BuildingBlock: CIFDUS_clean_linker_0, # of connection points: 2
#     Edge 16, Type (0, 0), BuildingBlock: CIFDUS_clean_linker_0, # of connection points: 2
#     Edge 17, Type (0, 0), BuildingBlock: CIFDUS_clean_linker_0, # of connection points: 2
#     Edge 18, Type (0, 0), BuildingBlock: CIFDUS_clean_linker_0, # of connection points: 2
#     Edge 19, Type (0, 0), BuildingBlock: CIFDUS_clean_linker_0, # of connection points: 2
#     Edge 20, Type (0, 0), BuildingBlock: CIFDUS_clean_linker_0, # of connection points: 2
#     Edge 21, Type (0, 0), BuildingBlock: CIFDUS_clean_linker_0, # of connection points: 2
#     Edge 22, Type (0, 0), BuildingBlock: CIFDUS_clean_linker_0, # of connection points: 2
#     Edge 23, Type (0, 0), BuildingBlock: CIFDUS_clean_linker_0, # of connection points: 2
#     Edge 24, Type (0, 0), BuildingBlock: CIFDUS_clean_linker_0, # of connection points: 2
#     Edge 25, Type (0, 0), BuildingBlock: CIFDUS_clean_linker_0, # of connection points: 2
#     Edge 26, Type (0, 0), BuildingBlock: CIFDUS_clean_linker_0, # of connection points: 2
#     Edge 27, Type (0, 0), BuildingBlock: CIFDUS_clean_linker_0, # of connection points: 2
#     Edge 28, Type (0, 0), BuildingBlock: CIFDUS_clean_linker_0, # of connection points: 2
#     Edge 29, Type (0, 0), BuildingBlock: CIFDUS_clean_linker_0, # of connection points: 2
# Relax obj value: 0.053
# Max RMSD: 0.062
# Mean RMSD: 0.062
data_MOF--net-ofo--node1-WUSLED_clean_sbu_0--edge1-CIFDUS_clean_linker_0
_symmetry_space_group_name_H-M    P1
_symmetry_Int_Tables_number       1
_symmetry_cell_setting            triclinic
loop_
_symmetry_equiv_pos_as_xyz
'x, y, z'
_cell_length_a     33.177975
_cell_length_b     33.147264
_cell_length_c     83.299271
_cell_angle_alpha  90.008263
_cell_angle_beta   89.960137
_cell_angle_gamma 120.05924
loop_
_atom_site_label
_atom_site_type_symbol
_atom_site_fract_x
_atom_site_fract_y
_atom_site_fract_z
_atom_type_partial_charge
C0 C 0.41825 0.346 0.11688 0.0
C1 C 0.46615 0.36255 0.11872 0.0
C2 C 0.46662 0.39954 0.14407 0.0
C3 C 0.49011 0.38927 0.13212 0.0
C4 C 0.41872 0.38302 0.14219 0.0
C5 C 0.39486 0.35668 0.1287 0.0
U6 U 0.38909 0.24606 0.08776 0.0
O7 O 0.32164 0.19235 0.078 0.0
O8 O 0.37682 0.24041 0.06168 0.0
C9 C 0.33332 0.20678 0.06312 0.0
C10 C 0.39201 0.31688 0.10298 0.0
C11 C 0.29878 0.21228 0.05371 0.0
C12 C 0.25445 0.25106 0.04809 0.0
C13 C 0.2873 0.24664 0.0574 0.0
C14 C 0.24437 0.18684 0.03139 0.0
C15 C 0.2327 0.22129 0.03491 0.0
C16 C 0.27704 0.18246 0.04069 0.0
C17 C 0.45402 0.17749 0.09413 0.0
C18 C 0.43769 0.10629 0.08025 0.0
C19 C 0.50022 0.14084 0.0997 0.0
C20 C 0.4904 0.17667 0.10237 0.0
C21 C 0.47381 0.10492 0.08869 0.0
C22 C 0.42789 0.1423 0.08294 0.0
C23 C 0.44326 0.2145 0.09791 0.0
O24 O 0.41629 0.32149 0.08992 0.0
O25 O 0.36146 0.27324 0.1063 0.0
O26 O 0.40145 0.2005 0.10371 0.0
O27 O 0.45652 0.24811 0.08728 0.0
H28 H 0.48505 0.3545 0.10988 0.0
H29 H 0.52686 0.40097 0.13333 0.0
H30 H 0.39975 0.39062 0.15114 0.0
H31 H 0.35795 0.3443 0.12754 0.0
H32 H 0.2466 0.27819 0.05107 0.0
H33 H 0.30383 0.27007 0.06742 0.0
H34 H 0.22782 0.16278 0.02154 0.0
H35 H 0.28531 0.15561 0.03769 0.0
H36 H 0.41695 0.07952 0.07157 0.0
H37 H 0.52773 0.14062 0.10662 0.0
H38 H 0.51081 0.20344 0.11111 0.0
H39 H 0.39967 0.14242 0.07644 0.0
C40 C 0.08769 0.42711 0.78414 0.0
C41 C 0.11892 0.43853 0.79701 0.0
C42 C 0.08519 0.48043 0.81021 0.0
C43 C 0.11748 0.46471 0.80997 0.0
C44 C 0.05402 0.46892 0.7973 0.0
C45 C 0.05521 0.44242 0.78441 0.0
U46 U 0.1536 0.3934 0.7543 0.0
O47 O 0.13617 0.3251 0.74432 0.0
O48 O 0.14383 0.38093 0.72821 0.0
C49 C 0.13167 0.33676 0.72961 0.0
C50 C 0.08875 0.39989 0.77026 0.0
C51 C 0.0896 0.30316 0.72062 0.0
C52 C 1.01051 0.23693 0.71952 0.0
C53 C 0.04879 0.26983 0.72844 0.0
C54 C 0.05281 0.27084 0.69488 0.0
C55 C 1.01214 0.2369 0.70262 0.0
C56 C 0.09108 0.30346 0.70379 0.0
C57 C 0.28862 0.45565 0.75881 0.0
C58 C 0.35058 0.43642 0.75954 0.0
C59 C 0.36766 0.51293 0.75072 0.0
C60 C 0.32099 0.50021 0.75306 0.0
C61 C 0.38325 0.4815 0.75421 0.0
C62 C 0.30382 0.42363 0.76183 0.0
C63 C 0.24099 0.44534 0.76318 0.0
O64 O 0.10847 0.42409 0.75721 0.0
O65 O 0.10045 0.36818 0.77332 0.0
O66 O 0.21256 0.40414 0.76939 0.0
O67 O 0.22023 0.45969 0.75314 0.0
H68 H 0.1446 0.42746 0.79701 0.0
H69 H 0.14227 0.47345 0.81966 0.0
H70 H 0.02845 0.48014 0.79721 0.0
H71 H 0.03081 0.434 0.77461 0.0
H72 H 0.97955 0.21162 0.72585 0.0
H73 H 0.04656 0.2689 0.74142 0.0
H74 H 0.05552 0.27153 0.68192 0.0
H75 H 0.12222 0.32866 0.6975 0.0
H76 H 0.36129 0.41117 0.76216 0.0
H77 H 0.39191 0.54809 0.74679 0.0
H78 H 0.31052 0.52587 0.75085 0.0
H79 H 0.27995 0.38906 0.76635 0.0
C80 C 0.68865 0.07588 0.4527 0.0
C81 C 0.67166 0.10696 0.45423 0.0
C82 C 0.63464 0.07123 0.47969 0.0
C83 C 0.64471 0.10446 0.46754 0.0
C84 C 0.65162 0.04015 0.47811 0.0
C85 C 0.67818 0.04236 0.46472 0.0
U86 U 0.78888 0.14449 0.42324 0.0
O87 O 0.84183 0.12913 0.41394 0.0
O88 O 0.79388 0.13497 0.39727 0.0
C89 C 0.82678 0.12427 0.39908 0.0
C90 C 0.71767 0.07812 0.43886 0.0
C91 C 0.81935 0.08185 0.39073 0.0
C92 C 0.78321 0.99748 0.38893 0.0
C93 C 0.78836 0.03726 0.39675 0.0
C94 C 0.83936 0.04643 0.36887 0.0
C95 C 0.80889 1.00156 0.37493 0.0
C96 C 0.84452 0.0861 0.3767 0.0
C97 C 0.85977 0.27914 0.42906 0.0
C98 C 0.91496 0.35653 0.43901 0.0
C99 C 0.90751 0.34176 0.4104 0.0
C100 C 0.87347 0.29515 0.41327 0.0
C101 C 0.92835 0.37316 0.42325 0.0
C102 C 0.88107 0.31014 0.44185 0.0
C103 C 0.82225 0.23121 0.43269 0.0
O104 O 0.71333 0.09746 0.42567 0.0
O105 O 0.76115 0.09089 0.44221 0.0
O106 O 0.83537 0.20315 0.43889 0.0
O107 O 0.78859 0.21069 0.42209 0.0
H108 H 0.67947 0.13344 0.44522 0.0
H109 H 0.63263 0.12926 0.46851 0.0
H110 H 0.64415 0.01395 0.4872 0.0
H111 H 0.69083 0.01799 0.46379 0.0
H112 H 0.75904 0.96352 0.39384 0.0
H113 H 0.76847 0.03328 0.40755 0.0
H114 H 0.86016 0.05101 0.35827 0.0
H115 H 0.8687 0.12024 0.3719 0.0
H116 H 0.93085 0.37937 0.44921 0.0
H117 H 0.91679 0.35342 0.39811 0.0
H118 H 0.85753 0.27187 0.40318 0.0
H119 H 0.87113 0.29852 0.45413 0.0
C120 C 0.60919 0.67082 0.11296 0.0
C121 C 0.56087 0.65335 0.11323 0.0
C122 C 0.55335 0.60925 0.13758 0.0
C123 C 0.53324 0.6227 0.12536 0.0
C124 C 0.60174 0.62698 0.13734 0.0
C125 C 0.62933 0.6573 0.12511 0.0
U126 U 0.64605 0.77799 0.08656 0.0
O127 O 0.71583 0.83345 0.07913 0.0
O128 O 0.66453 0.78993 0.06095 0.0
C129 C 0.70762 0.82278 0.06383 0.0
C130 C 0.63908 0.7034 0.10028 0.0
C131 C 0.74412 0.81932 0.05488 0.0
C132 C 0.78443 0.77781 0.04724 0.0
C133 C 0.75028 0.78056 0.05636 0.0
C134 C 0.8067 0.85267 0.03524 0.0
C135 C 0.81282 0.81371 0.03645 0.0
C136 C 0.77273 0.85538 0.04435 0.0
C137 C 0.57999 0.84546 0.09284 0.0
C138 C 0.59991 0.91983 0.08061 0.0
C139 C 0.53243 0.8809 0.09795 0.0
C140 C 0.54154 0.84444 0.10022 0.0
C141 C 0.56164 0.9193 0.08821 0.0
C142 C 0.60899 0.88319 0.0829 0.0
C143 C 0.58969 0.8075 0.09617 0.0
O144 O 0.61839 0.70226 0.08668 0.0
O145 O 0.66864 0.74598 0.10508 0.0
O146 O 0.62991 0.81987 0.10302 0.0
O147 O 0.57901 0.77644 0.08474 0.0
H148 H 0.54438 0.66351 0.10413 0.0
H149 H 0.49618 0.61018 0.12533 0.0
H150 H 0.61822 0.61708 0.14653 0.0
H151 H 0.6665 0.67034 0.12516 0.0
H152 H 0.78796 0.74718 0.04839 0.0
H153 H 0.72843 0.75231 0.06443 0.0
H154 H 0.82841 0.88134 0.0273 0.0
H155 H 0.76862 0.88566 0.04309 0.0
H156 H 0.62286 0.94857 0.0729 0.0
H157 H 0.50316 0.87956 0.10421 0.0
H158 H 0.51888 0.81567 0.10799 0.0
H159 H 0.63883 0.88451 0.07707 0.0
C160 C 0.95071 0.61438 0.78609 0.0
C161 C 0.92067 0.60571 0.79916 0.0
C162 C 0.95611 0.5674 0.81363 0.0
C163 C 0.92351 0.58269 0.81281 0.0
C164 C 0.98555 0.57539 0.80039 0.0
C165 C 0.98299 0.59885 0.78678 0.0
U166 U 0.88105 0.64484 0.7573 0.0
O167 O 0.89653 0.71163 0.74657 0.0
O168 O 0.88483 0.65335 0.73095 0.0
C169 C 0.8972 0.69769 0.73184 0.0
C170 C 0.94845 0.63922 0.77171 0.0
C171 C 0.9366 0.73021 0.72158 0.0
C172 C 1.0155 0.79554 0.71812 0.0
C173 C 0.98046 0.76195 0.728 0.0
C174 C 0.96392 0.76492 0.69523 0.0
C175 C 1.00731 0.79804 0.70166 0.0
C176 C 0.92901 0.73151 0.70509 0.0
C177 C 0.74827 0.58656 0.76726 0.0
C178 C 0.67696 0.55704 0.75156 0.0
C179 C 0.6765 0.57328 0.77987 0.0
C180 C 0.7239 0.58792 0.78081 0.0
C181 C 0.65213 0.55668 0.76533 0.0
C182 C 0.72461 0.57171 0.75252 0.0
C183 C 0.79672 0.59666 0.7694 0.0
O184 O 0.92509 0.61265 0.7595 0.0
O185 O 0.93931 0.67293 0.77439 0.0
O186 O 0.82727 0.63883 0.77427 0.0
O187 O 0.81346 0.5799 0.75863 0.0
H188 H 0.895 0.61679 0.79883 0.0
H189 H 0.89977 0.57639 0.82268 0.0
H190 H 1.01105 0.56416 0.80064 0.0
H191 H 1.00633 0.60497 0.7768 0.0
H192 H 0.04834 0.82061 0.7235 0.0
H193 H 0.98726 0.76162 0.7407 0.0
H194 H 0.95664 0.76519 0.68257 0.0
H195 H 0.89554 0.70729 0.69986 0.0
H196 H 0.65921 0.54432 0.7402 0.0
H197 H 0.65872 0.57433 0.79064 0.0
H198 H 0.74132 0.59915 0.79231 0.0
H199 H 0.74253 0.57022 0.74186 0.0
C200 C 0.36621 0.9428 0.44445 0.0
C201 C 0.38343 0.91174 0.44495 0.0
C202 C 0.4259 0.94787 0.4696 0.0
C203 C 0.41313 0.91443 0.45735 0.0
C204 C 0.40842 0.97872 0.46913 0.0
C205 C 0.37905 0.97632 0.45663 0.0
U206 U 0.25901 0.87551 0.41762 0.0
O207 O 0.20761 0.8942 0.4092 0.0
O208 O 0.24969 0.88169 0.39173 0.0
C209 C 0.21916 0.89535 0.39403 0.0
C210 C 0.33506 0.94092 0.43138 0.0
C211 C 0.22654 0.93626 0.38463 0.0
C212 C 0.25618 0.01958 0.38168 0.0
C213 C 0.25086 0.98171 0.39086 0.0
C214 C 0.21358 0.96704 0.35989 0.0
C215 C 0.23753 1.01269 0.36606 0.0
C216 C 0.20816 0.92933 0.36907 0.0
C217 C 0.1834 0.74177 0.42485 0.0
C218 C 0.15496 0.65859 0.4221 0.0
C219 C 0.10008 0.68614 0.42449 0.0
C220 C 0.13706 0.73219 0.42529 0.0
C221 C 0.10857 0.64867 0.4232 0.0
C222 C 0.1919 0.70459 0.42298 0.0
C223 C 0.22322 0.78916 0.42784 0.0
O224 O 0.33529 0.91946 0.41812 0.0
O225 O 0.29302 0.93094 0.4358 0.0
O226 O 0.21376 0.81968 0.43432 0.0
O227 O 0.25538 0.80719 0.41663 0.0
H228 H 0.37389 0.88525 0.43581 0.0
H229 H 0.42551 0.88977 0.4575 0.0
H230 H 0.41788 1.00506 0.47833 0.0
H231 H 0.3663 1.00069 0.45649 0.0
H232 H 0.27521 0.05428 0.38675 0.0
H233 H 0.26556 0.98788 0.40283 0.0
H234 H 0.19815 0.96025 0.34803 0.0
H235 H 0.18919 0.89454 0.36405 0.0
H236 H 0.16287 0.63067 0.42128 0.0
H237 H 0.06477 0.67982 0.42514 0.0
H238 H 0.12931 0.76009 0.42669 0.0
H239 H 0.22729 0.711 0.42272 0.0
C240 C 0.69132 0.60983 0.24088 0.0
C241 C 0.71243 0.6001 0.22798 0.0
C242 C 0.63856 0.56149 0.21357 0.0
C243 C 0.68637 0.5764 0.21444 0.0
C244 C 0.61736 0.57047 0.22665 0.0
C245 C 0.64356 0.59459 0.24014 0.0
U246 U 0.78895 0.64044 0.27105 0.0
O247 O 0.84156 0.70818 0.28089 0.0
O248 O 0.79211 0.65362 0.2971 0.0
C249 C 0.82542 0.69728 0.29562 0.0
C250 C 0.71859 0.63593 0.25507 0.0
C251 C 0.81793 0.73216 0.304 0.0
C252 C 0.78365 0.78201 0.30546 0.0
C253 C 0.78848 0.74717 0.29766 0.0
C254 C 0.83694 0.78649 0.32617 0.0
C255 C 0.80811 0.80239 0.31977 0.0
C256 C 0.84179 0.75178 0.31835 0.0
C257 C 0.85951 0.57686 0.26549 0.0
C258 C 0.93373 0.59692 0.27779 0.0
C259 C 0.89369 0.52777 0.26125 0.0
C260 C 0.85766 0.5373 0.2587 0.0
C261 C 0.93249 0.55768 0.27069 0.0
C262 C 0.89751 0.60642 0.27522 0.0
C263 C 0.82238 0.58726 0.26156 0.0
O264 O 0.71324 0.61086 0.26797 0.0
O265 O 0.76226 0.66765 0.25235 0.0
O266 O 0.83602 0.6289 0.25563 0.0
O267 O 0.7884 0.57369 0.27205 0.0
H268 H 0.74913 0.61097 0.22833 0.0
H269 H 0.7036 0.56938 0.20469 0.0
H270 H 0.58071 0.55959 0.22635 0.0
H271 H 0.62655 0.60159 0.24998 0.0
H272 H 0.76074 0.79297 0.30029 0.0
H273 H 0.76964 0.7323 0.28661 0.0
H274 H 0.8568 0.80175 0.33702 0.0
H275 H 0.8648 0.74074 0.3234 0.0
H276 H 0.9628 0.62041 0.28526 0.0
H277 H 0.89179 0.49772 0.25538 0.0
H278 H 0.82868 0.5142 0.2511 0.0
H279 H 0.89948 0.63711 0.2806 0.0
C280 C 0.09305 0.67104 0.91667 0.0
C281 C 0.1237 0.65335 0.91613 0.0
C282 C 0.08784 0.61175 0.89133 0.0
C283 C 0.12094 0.62384 0.90364 0.0
C284 C 0.05742 0.62973 0.89183 0.0
C285 C 0.0599 0.65891 0.90442 0.0
U286 U 0.16142 0.77625 0.9442 0.0
O287 O 0.14497 0.8291 0.95282 0.0
O288 O 0.15438 0.78456 0.97013 0.0
C289 C 0.14217 0.81625 0.96791 0.0
C290 C 0.09512 0.70204 0.92984 0.0
C291 C 0.10097 0.80943 0.97702 0.0
C292 C 1.01912 0.78731 0.97869 0.0
C293 C 0.05708 0.79184 0.96978 0.0
C294 C 0.06822 0.81698 1.00222 0.0
C295 C 0.02426 0.79996 0.99503 0.0
C296 C 0.10609 0.8217 0.99331 0.0
C297 C 0.29517 0.84747 0.93765 0.0
C298 C 0.34926 0.9221 0.94981 0.0
C299 C 0.37822 0.88372 0.93241 0.0
C300 C 0.33277 0.84691 0.93021 0.0
C301 C 0.38714 0.92203 0.94214 0.0
C302 C 0.30364 0.8851 0.94759 0.0
C303 C 0.24764 0.8092 0.93428 0.0
O304 O 0.11522 0.70026 0.94322 0.0
O305 O 0.10688 0.74477 0.92562 0.0
O306 O 0.21893 0.82131 0.92799 0.0
O307 O 0.22811 0.77686 0.94537 0.0
H308 H 0.14994 0.6624 0.92532 0.0
H309 H 0.14528 0.61109 0.90347 0.0
H310 H 0.03139 0.62085 0.88257 0.0
H311 H 0.03588 0.67208 0.90459 0.0
H312 H 0.98567 0.7736 0.97282 0.0
H313 H 0.05218 0.78184 0.95724 0.0
H314 H 0.07366 0.82764 0.01469 0.0
H315 H 0.13965 0.83543 0.99912 0.0
H316 H 0.35485 0.95077 0.95751 0.0
H317 H 0.40624 0.88271 0.92609 0.0
H318 H 0.32687 0.81825 0.92243 0.0
H319 H 0.275 0.88609 0.95346 0.0
C320 C 0.41963 0.08294 0.57534 0.0
C321 C 0.42959 0.11387 0.56245 0.0
C322 C 0.46967 0.07961 0.54836 0.0
C323 C 0.45413 0.11204 0.54907 0.0
C324 C 0.46054 0.04942 0.56146 0.0
C325 C 0.43558 0.05096 0.57479 0.0
U326 U 0.38245 0.14763 0.60421 0.0
O327 O 0.3128 0.12894 0.61327 0.0
O328 O 0.36787 0.139 0.63015 0.0
C329 C 0.32363 0.12592 0.62822 0.0
C330 C 0.39218 0.08325 0.58926 0.0
C331 C 0.28963 0.0839 0.63708 0.0
C332 C 0.26269 1.00592 0.64761 0.0
C333 C 0.29526 0.04485 0.63884 0.0
C334 C 0.21825 0.04437 0.65275 0.0
C335 C 0.22373 1.0052 0.65468 0.0
C336 C 0.25085 0.08322 0.64406 0.0
C337 C 0.4396 0.28185 0.59751 0.0
C338 C 0.49442 0.36363 0.60325 0.0
C339 C 0.41587 0.34025 0.59493 0.0
C340 C 0.40536 0.29378 0.59408 0.0
C341 C 0.46083 0.37591 0.59918 0.0
C342 C 0.48396 0.31719 0.60235 0.0
C343 C 0.43177 0.23441 0.59427 0.0
O344 O 0.4162 0.10494 0.60213 0.0
O345 O 0.35883 0.09244 0.58601 0.0
O346 O 0.39151 0.20385 0.58799 0.0
O347 O 0.44677 0.21623 0.60512 0.0
H348 H 0.41812 0.13925 0.56267 0.0
H349 H 0.46123 0.13628 0.5393 0.0
H350 H 0.47189 0.02398 0.56127 0.0
H351 H 0.42837 0.02687 0.58462 0.0
H352 H 0.26774 0.97619 0.64871 0.0
H353 H 0.32482 0.04449 0.63346 0.0
H354 H 0.18911 0.04537 0.6582 0.0
H355 H 0.2459 0.11302 0.64288 0.0
H356 H 0.52951 0.39018 0.60641 0.0
H357 H 0.38897 0.34839 0.59192 0.0
H358 H 0.37083 0.26753 0.59026 0.0
H359 H 0.5112 0.30915 0.60488 0.0
C360 C 0.3609 0.41757 0.24273 0.0
C361 C 0.34245 0.43056 0.22985 0.0
C362 C 0.41894 0.47186 0.21719 0.0
C363 C 0.37114 0.4572 0.21716 0.0
C364 C 0.43725 0.45874 0.2301 0.0
C365 C 0.40845 0.43175 0.24271 0.0
U366 U 0.25865 0.38501 0.27094 0.0
O367 O 0.20529 0.31692 0.28043 0.0
O368 O 0.25172 0.37223 0.29701 0.0
C369 C 0.21864 0.32854 0.29539 0.0
C370 C 0.33135 0.39025 0.25637 0.0
C371 C 0.22388 0.2941 0.305 0.0
C372 C 0.26284 0.25029 0.31123 0.0
C373 C 0.25891 0.28323 0.30178 0.0
C374 C 0.19682 0.23893 0.32714 0.0
C375 C 0.2319 0.22785 0.32409 0.0
C376 C 0.19293 0.27168 0.3177 0.0
C377 C 0.18889 0.44844 0.26411 0.0
C378 C 0.11877 0.43301 0.27851 0.0
C379 C 0.15132 0.49361 0.25828 0.0
C380 C 0.18706 0.48377 0.2555 0.0
C381 C 0.11655 0.46828 0.26977 0.0
C382 C 0.1547 0.4232 0.27572 0.0
C383 C 0.22641 0.43835 0.26051 0.0
O384 O 0.33463 0.41443 0.26931 0.0
O385 O 0.28817 0.35878 0.25285 0.0
O386 O 0.21327 0.39673 0.25468 0.0
O387 O 0.2595 0.45186 0.27133 0.0
H388 H 0.30592 0.42044 0.22966 0.0
H389 H 0.35613 0.4672 0.20748 0.0
H390 H 0.47384 0.46915 0.23039 0.0
H391 H 0.42339 0.42216 0.25253 0.0
H392 H 0.29046 0.24288 0.30862 0.0
H393 H 0.2832 0.30027 0.29201 0.0
H394 H 0.17187 0.22183 0.33672 0.0
H395 H 0.16553 0.27945 0.32032 0.0
H396 H 0.09284 0.4131 0.28755 0.0
H397 H 0.15036 0.5204 0.25112 0.0
H398 H 0.21309 0.5035 0.24646 0.0
H399 H 0.15566 0.39584 0.28251 0.0
C400 C 0.95663 0.35156 0.91098 0.0
C401 C 0.92595 0.36885 0.90899 0.0
C402 C 0.9632 0.40515 0.88362 0.0
C403 C 0.9294 0.39558 0.8955 0.0
C404 C 0.99386 0.38784 0.88564 0.0
C405 C 0.9907 0.36148 0.89922 0.0
U406 U 0.88568 0.25252 0.94059 0.0
O407 O 0.89981 0.1996 0.95077 0.0
O408 O 0.89275 0.24834 0.96675 0.0
C409 C 0.9029 0.21489 0.96554 0.0
C410 C 0.9534 0.32282 0.92505 0.0
C411 C 0.94327 0.22118 0.97497 0.0
C412 C 0.02633 0.25038 0.97813 0.0
C413 C 0.98889 0.24604 0.96895 0.0
C414 C 0.97293 0.20559 0.99946 0.0
C415 C 1.01879 0.23014 0.99351 0.0
C416 C 0.93566 0.20119 0.99029 0.0
C417 C 0.75208 0.18283 0.93461 0.0
C418 C 0.69813 0.1118 0.9488 0.0
C419 C 0.66891 0.14552 0.92949 0.0
C420 C 0.71437 0.18154 0.92658 0.0
C421 C 0.66012 0.1099 0.94054 0.0
C422 C 0.74373 0.14797 0.94586 0.0
C423 C 0.79965 0.21992 0.93057 0.0
O424 O 0.93363 0.3279 0.938 0.0
O425 O 0.9403 0.27906 0.92197 0.0
O426 O 0.82756 0.20593 0.92488 0.0
O427 O 0.82008 0.25417 0.94096 0.0
H428 H 0.89905 0.36145 0.91778 0.0
H429 H 0.90488 0.40791 0.89418 0.0
H430 H 0.02046 0.39488 0.87676 0.0
H431 H 1.01476 0.34857 0.9005 0.0
H432 H 0.0612 0.2699 0.97323 0.0
H433 H 0.99551 0.26191 0.95716 0.0
H434 H 0.96564 0.18894 1.01113 0.0
H435 H 0.90069 0.18175 0.99513 0.0
H436 H 0.69265 0.08527 0.95751 0.0
H437 H 0.64077 0.14491 0.92271 0.0
H438 H 0.72018 0.20805 0.9178 0.0
H439 H 0.77246 0.14847 0.95222 0.0
C440 C 0.61262 0.94822 0.57613 0.0
C441 C 0.60067 0.91684 0.56327 0.0
C442 C 0.55903 0.95107 0.55025 0.0
C443 C 0.57436 0.91845 0.5504 0.0
C444 C 0.57109 0.98241 0.56316 0.0
C445 C 0.59772 0.98105 0.57595 0.0
U446 U 0.64698 0.88076 0.60484 0.0
O447 O 0.71513 0.89785 0.61476 0.0
O448 O 0.65866 0.88765 0.63102 0.0
C449 C 0.70298 0.90054 0.62958 0.0
C450 C 0.63971 0.94667 0.58994 0.0
C451 C 0.73622 0.94152 0.63917 0.0
C452 C 0.80745 0.01684 0.64168 0.0
C453 C 0.77423 0.98064 0.6321 0.0
C454 C 0.7645 0.97623 0.6655 0.0
C455 C 0.80341 0.01479 0.65854 0.0
C456 C 0.73148 0.94004 0.65594 0.0
C457 C 0.58756 0.7468 0.5978 0.0
C458 C 0.57403 0.67258 0.58723 0.0
C459 C 0.56321 0.68013 0.61558 0.0
C460 C 0.57614 0.72701 0.61323 0.0
C461 C 0.56131 0.65214 0.60255 0.0
C462 C 0.58689 0.71927 0.58489 0.0
C463 C 0.59691 0.79457 0.59445 0.0
O464 O 0.61522 0.92514 0.60275 0.0
O465 O 0.67221 0.93625 0.58664 0.0
O466 O 0.63833 0.82416 0.58872 0.0
O467 O 0.58166 0.81339 0.60498 0.0
H468 H 0.61139 0.89088 0.56322 0.0
H469 H 0.56519 0.89352 0.54073 0.0
H470 H 0.56017 1.00822 0.56332 0.0
H471 H 0.60653 1.00553 0.58576 0.0
H472 H 0.83709 0.04568 0.63588 0.0
H473 H 0.77896 0.98285 0.6192 0.0
H474 H 0.75968 0.97375 0.67839 0.0
H475 H 0.70255 0.91031 0.6617 0.0
H476 H 0.57386 0.6524 0.57698 0.0
H477 H 0.55337 0.66547 0.62752 0.0
H478 H 0.57626 0.74738 0.62341 0.0
H479 H 0.59552 0.73372 0.57288 0.0
H480 H 0.55104 0.47906 0.14556 0.0
H481 H 0.43854 0.37979 0.17534 0.0
H482 H 0.4813 0.42122 0.19944 0.0
H483 H 0.55185 0.48435 0.2121 0.0
H484 H 0.66374 0.58424 0.18223 0.0
H485 H 0.62034 0.54357 0.15817 0.0
C486 C 0.53603 0.46637 0.15734 0.0
C487 C 0.49184 0.42618 0.15865 0.0
C488 C 0.56085 0.49029 0.17114 0.0
C489 C 0.47242 0.41073 0.17398 0.0
C490 C 0.497 0.4342 0.18778 0.0
C491 C 0.56662 0.49734 0.20033 0.0
C492 C 0.61121 0.53707 0.19899 0.0
C493 C 0.54136 0.47388 0.18651 0.0
C494 C 0.62986 0.55333 0.18362 0.0
C495 C 0.60496 0.53023 0.16985 0.0
H496 H 0.08888 0.46632 0.84231 0.0
H497 H 0.08027 0.55995 0.80839 0.0
H498 H 0.07819 0.60764 0.8304 0.0
H499 H 0.08072 0.62382 0.85932 0.0
H500 H 0.09012 0.53063 0.89327 0.0
H501 H 0.09039 0.48197 0.87126 0.0
C502 C 0.08699 0.49741 0.83975 0.0
C503 C 0.08452 0.50946 0.82372 0.0
C504 C 0.08612 0.52485 0.85248 0.0
C505 C 0.08146 0.54953 0.82062 0.0
C506 C 0.08065 0.57701 0.8332 0.0
C507 C 0.0825 0.59268 0.8619 0.0
C508 C 0.08574 0.58109 0.87791 0.0
C509 C 0.08296 0.56502 0.84918 0.0
C510 C 0.0883 0.54073 0.88104 0.0
C511 C 0.08835 0.51283 0.86847 0.0
H512 H 0.55464 0.07517 0.48077 0.0
H513 H 0.654 0.06414 0.51109 0.0
H514 H 0.6117 0.06522 0.53497 0.0
H515 H 0.54763 0.07162 0.5473 0.0
H516 H 0.44764 0.08139 0.5169 0.0
H517 H 0.48928 0.07906 0.49305 0.0
C518 C 0.56718 0.07332 0.49261 0.0
C519 C 0.60763 0.06996 0.49414 0.0
C520 C 0.54273 0.07405 0.5063 0.0
C521 C 0.62287 0.06657 0.50957 0.0
C522 C 0.59888 0.06752 0.52324 0.0
C523 C 0.53485 0.07301 0.53545 0.0
C524 C 0.49478 0.0771 0.53391 0.0
C525 C 0.55889 0.07148 0.52176 0.0
C526 C 0.47879 0.07902 0.51845 0.0
C527 C 0.50247 0.07748 0.5048 0.0
H528 H 0.40307 0.46054 0.18494 0.0
H529 H 0.50401 0.5503 0.21992 0.0
H530 H 0.55538 0.59957 0.19845 0.0
H531 H 0.57081 0.61824 0.16973 0.0
H532 H 0.46959 0.52881 0.13473 0.0
H533 H 0.41907 0.47856 0.15617 0.0
C534 C 0.43615 0.49111 0.18785 0.0
C535 C 0.4498 0.50164 0.20401 0.0
C536 C 0.46541 0.51943 0.17543 0.0
C537 C 0.49304 0.54105 0.20757 0.0
C538 C 0.52225 0.56944 0.19531 0.0
C539 C 0.53785 0.58756 0.16679 0.0
C540 C 0.52387 0.57751 0.15065 0.0
C541 C 0.50881 0.55897 0.17919 0.0
C542 C 0.48088 0.53774 0.14706 0.0
C543 C 0.45201 0.50892 0.15932 0.0
H544 H 0.96511 0.48996 0.81535 0.0
H545 H 0.95463 0.59121 0.84492 0.0
H546 H 0.9567 0.55062 0.86909 0.0
H547 H 0.96 0.48554 0.88189 0.0
H548 H 0.97176 0.38493 0.85243 0.0
H549 H 0.97163 0.42656 0.82822 0.0
C550 C 0.96359 0.50332 0.82709 0.0
C551 C 0.95923 0.54334 0.82829 0.0
C552 C 0.96498 0.47988 0.84097 0.0
C553 C 0.95717 0.56004 0.84362 0.0
C554 C 0.95857 0.53698 0.85746 0.0
C555 C 0.96226 0.4726 0.87016 0.0
C556 C 0.96544 0.43195 0.86898 0.0
C557 C 0.96204 0.49664 0.85629 0.0
C558 C 0.96941 0.41621 0.85369 0.0
C559 C 0.96899 0.4398 0.83983 0.0
H560 H 0.57203 0.94659 0.51811 0.0
H561 H 0.48021 0.95715 0.55235 0.0
H562 H 0.4321 0.95912 0.5305 0.0
H563 H 0.41502 0.95595 0.50164 0.0
H564 H 0.50638 0.94459 0.46739 0.0
H565 H 0.55548 0.94442 0.48922 0.0
C566 C 0.54124 0.94887 0.52078 0.0
C567 C 0.5298 0.95185 0.53684 0.0
C568 C 0.51356 0.94971 0.50814 0.0
C569 C 0.49014 0.95546 0.54009 0.0
C570 C 0.46242 0.95625 0.5276 0.0
C571 C 0.44585 0.95377 0.49896 0.0
C572 C 0.45681 0.94996 0.48291 0.0
C573 C 0.47377 0.95337 0.51158 0.0
C574 C 0.49678 0.94688 0.47964 0.0
C575 C 0.52494 0.94689 0.49212 0.0
H576 H 0.55789 0.10841 0.08742 0.0
H577 H 0.40988 1.01207 0.0855 0.0
H578 H 0.42405 0.94666 0.08411 0.0
H579 H 0.47819 0.91636 0.08491 0.0
H580 H 0.62603 1.01255 0.08807 0.0
H581 H 0.61214 0.07821 0.08742 0.0
C582 C 0.52868 0.07311 0.08674 0.0
C583 C 0.48284 0.06537 0.08665 0.0
C584 C 0.53703 0.03549 0.08619 0.0
C585 C 0.44553 0.01931 0.08543 0.0
C586 C 0.45359 0.98176 0.08476 0.0
C587 C 0.50741 0.95167 0.0855 0.0
C588 C 0.55312 0.95929 0.08662 0.0
C589 C 0.49915 0.98938 0.08536 0.0
C590 C 0.59053 1.00545 0.08704 0.0
C591 C 0.5826 0.04311 0.08679 0.0
H592 H 0.4347 0.46399 0.77553 0.0
H593 H 0.44569 0.5339 0.73069 0.0
H594 H 0.52947 0.5626 0.72991 0.0
H595 H 0.60032 0.56979 0.74246 0.0
H596 H 0.58811 0.49908 0.78725 0.0
H597 H 0.50433 0.4687 0.78748 0.0
C598 C 0.45523 0.48489 0.76544 0.0
C599 C 0.43378 0.49666 0.75318 0.0
C600 C 0.50339 0.50147 0.76511 0.0
C601 C 0.46128 0.52462 0.74038 0.0
C602 C 0.50922 0.54095 0.73989 0.0
C603 C 0.57924 0.54739 0.75218 0.0
C604 C 0.60071 0.53719 0.7649 0.0
C605 C 0.53077 0.52993 0.75227 0.0
C606 C 0.57278 0.50831 0.77746 0.0
C607 C 0.52474 0.49064 0.77757 0.0
H608 H 0.09634 0.57352 0.40554 0.0
H609 H 0.03312 0.61283 0.44313 0.0
H610 H 0.97126 0.53194 0.44596 0.0
H611 H 0.93635 0.44961 0.4385 0.0
H612 H 1.00012 0.40923 0.40145 0.0
H613 H 0.06011 0.49079 0.39761 0.0
C614 C 0.06906 0.56437 0.41436 0.0
C615 C 0.06951 0.59944 0.42409 0.0
C616 C 0.0336 0.51751 0.41605 0.0
C617 C 0.03343 0.58689 0.43531 0.0
C618 C 0.99815 0.54049 0.43703 0.0
C619 C 0.96352 0.45854 0.42964 0.0
C620 C 0.9638 0.42311 0.42038 0.0
C621 C 0.99811 0.50546 0.42758 0.0
C622 C 0.99876 0.43565 0.4087 0.0
C623 C 0.03329 0.48232 0.40656 0.0
H624 H 0.92922 0.47422 0.27488 0.0
H625 H 0.02571 0.62171 0.27003 0.0
H626 H 0.09101 0.60737 0.27046 0.0
H627 H 0.12068 0.55269 0.27056 0.0
H628 H 0.02403 0.40492 0.27412 0.0
H629 H 0.9591 0.41971 0.27592 0.0
C630 C 0.96452 0.50327 0.27388 0.0
C631 C 0.97233 0.549 0.27234 0.0
C632 C 1.00201 0.49472 0.27387 0.0
C633 C 1.01848 0.58621 0.27141 0.0
C634 C 0.05593 0.57801 0.27151 0.0
C635 C 0.08541 0.52367 0.27169 0.0
C636 C 0.0774 0.47771 0.2721 0.0
C637 C 0.04808 0.53236 0.27247 0.0
C638 C 0.03144 0.44066 0.27392 0.0
C639 C 0.99417 0.44907 0.27482 0.0
H640 H 0.57902 0.11242 0.94219 0.0
H641 H 0.63216 0.01733 0.94385 0.0
H642 H 0.55292 0.95139 0.94561 0.0
H643 H 0.46831 0.92022 0.94519 0.0
H644 H 0.41507 0.01508 0.94226 0.0
H645 H 0.49437 0.08134 0.9426 0.0
C646 C 0.57332 0.07728 0.9429 0.0
C647 C 0.61175 0.07005 0.94281 0.0
C648 C 0.52751 0.03932 0.94367 0.0
C649 C 0.6035 0.02419 0.94406 0.0
C650 C 0.55808 0.98633 0.94495 0.0
C651 C 0.47399 0.95537 0.94458 0.0
C652 C 0.43553 0.96243 0.94361 0.0
C653 C 0.5198 0.99342 0.94452 0.0
C654 C 0.44377 1.0084 0.94318 0.0
C655 C 0.48921 0.0464 0.94324 0.0
H656 H 0.50352 0.58011 0.58313 0.0
H657 H 0.58241 0.61034 0.62703 0.0
H658 H 0.55708 0.52763 0.63023 0.0
H659 H 0.51406 0.44671 0.62012 0.0
H660 H 0.43686 0.41774 0.57585 0.0
H661 H 0.46003 0.49979 0.57327 0.0
C662 C 0.51555 0.56874 0.59334 0.0
C663 C 0.54518 0.60161 0.60475 0.0
C664 C 0.50104 0.5212 0.59507 0.0
C665 C 0.55942 0.5859 0.6181 0.0
C666 C 0.54512 0.53858 0.6199 0.0
C667 C 0.50239 0.45839 0.6099 0.0
C668 C 0.47356 0.42587 0.59824 0.0
C669 C 0.51617 0.50592 0.6084 0.0
C670 C 0.45837 0.44166 0.58516 0.0
C671 C 0.47192 0.48873 0.58359 0.0
H672 H 0.09282 0.22209 0.98334 0.0
H673 H 0.03326 0.24604 0.02583 0.0
H674 H 0.0945 0.24677 0.04226 0.0
H675 H 0.16334 0.23745 0.04479 0.0
H676 H 0.2236 0.21487 1.00222 0.0
H677 H 0.16401 0.21697 0.98569 0.0
C678 C 0.09358 0.22815 0.99616 0.0
C679 C 0.05815 0.23369 1.0033 0.0
C680 C 0.12897 0.2285 1.00559 0.0
C681 C 0.05954 0.24091 0.02 0.0
C682 C 0.09473 0.24155 0.02942 0.0
C683 C 0.16386 0.23363 0.03188 0.0
C684 C 0.19784 0.22563 0.02483 0.0
C685 C 0.12937 0.23489 0.02238 0.0
C686 C 0.19748 0.22024 1.00805 0.0
C687 C 0.1635 0.22168 0.99855 0.0
H688 H 0.85264 0.1093 0.65356 0.0
H689 H 0.83826 1.00296 0.68681 0.0
H690 H 0.89946 0.06201 0.70362 0.0
H691 H 0.95929 0.14359 0.70851 0.0
H692 H 0.9752 0.24991 0.67504 0.0
H693 H 0.91204 0.19116 0.65862 0.0
C694 C 0.86304 0.09894 0.66442 0.0
C695 C 0.84047 0.05154 0.66887 0.0
C696 C 0.89887 0.13314 0.674 0.0
C697 C 0.85422 0.03911 0.68316 0.0
C698 C 0.88957 0.07288 0.69276 0.0
C699 C 0.94858 0.15401 0.69773 0.0
C700 C 0.97212 0.20118 0.69304 0.0
C701 C 0.91228 0.11998 0.68828 0.0
C702 C 0.95813 0.21384 0.67887 0.0
C703 C 0.92185 0.18026 0.66948 0.0
H704 H 0.80599 0.98359 0.34277 0.0
H705 H 0.80378 0.92471 0.38919 0.0
H706 H 0.8013 0.85733 0.37632 0.0
H707 H 0.8025 0.8162 0.35189 0.0
H708 H 0.80709 0.87625 0.30548 0.0
H709 H 0.80573 0.94174 0.31833 0.0
C710 C 0.80518 0.95613 0.35008 0.0
C711 C 0.8052 0.95947 0.36696 0.0
C712 C 0.80417 0.91755 0.3426 0.0
C713 C 0.80326 0.923 0.3762 0.0
C714 C 0.80217 0.88452 0.36884 0.0
C715 C 0.8034 0.8437 0.34457 0.0
C716 C 0.80501 0.84116 0.32771 0.0
C717 C 0.80304 0.88161 0.35205 0.0
C718 C 0.80531 0.87683 0.31846 0.0
C719 C 0.80486 0.91456 0.32581 0.0
H720 H 0.87279 0.78339 0.04516 0.0
H721 H 0.833 0.83746 1.00483 0.0
H722 H 0.89362 0.83683 0.98844 0.0
H723 H 0.9598 0.82348 0.98571 0.0
H724 H 0.99926 0.76857 0.02587 0.0
H725 H 0.93697 0.76678 0.04206 0.0
C726 C 0.87699 0.7945 0.03273 0.0
C727 C 0.84846 0.81079 0.02633 0.0
C728 C 0.91208 0.79408 0.02331 0.0
C729 C 0.85488 0.82551 1.01021 0.0
C730 C 0.88943 0.82494 1.00077 0.0
C731 C 0.9544 0.81051 0.99793 0.0
C732 C 0.98443 0.79637 1.00454 0.0
C733 C 0.91852 0.80968 1.00722 0.0
C734 C 0.97718 0.7803 0.02051 0.0
C735 C 0.94139 0.77908 0.02977 0.0
H736 H 0.12916 0.96474 0.65423 0.0
H737 H 0.24028 0.95325 0.67653 0.0
H738 H 0.18358 0.88786 0.69279 0.0
H739 H 0.10215 0.8348 0.70114 0.0
H740 H 0.99182 0.84831 0.67905 0.0
H741 H 0.04838 0.91182 0.66234 0.0
C742 C 0.14107 0.94816 0.66271 0.0
C743 C 0.18904 0.96416 0.66417 0.0
C744 C 0.10831 0.91076 0.6721 0.0
C745 C 0.20362 0.9415 0.67502 0.0
C746 C 0.17119 0.90423 0.68441 0.0
C747 C 0.09051 0.85178 0.69272 0.0
C748 C 0.0426 0.83644 0.69136 0.0
C749 C 0.12341 0.88872 0.68313 0.0
C750 C 0.02826 0.85867 0.68022 0.0
C751 C 0.06066 0.89531 0.6707 0.0
H752 H 0.22824 0.08626 0.37596 0.0
H753 H 0.25696 0.02861 0.33396 0.0
H754 H 0.25924 0.0905 0.31741 0.0
H755 H 0.24978 0.15926 0.3146 0.0
H756 H 0.22228 0.21753 0.3567 0.0
H757 H 0.22305 0.15744 0.37339 0.0
C758 C 0.23569 0.08758 0.36323 0.0
C759 C 0.2421 0.05249 0.35625 0.0
C760 C 0.23688 0.12333 0.35374 0.0
C761 C 0.25112 0.05461 0.33966 0.0
C762 C 0.25265 0.09017 0.33017 0.0
C763 C 0.24461 0.15924 0.32745 0.0
C764 C 0.2356 0.1928 0.33431 0.0
C765 C 0.24506 0.12445 0.33704 0.0
C766 C 0.22847 0.19175 0.35101 0.0
C767 C 0.22913 0.15748 0.3606 0.0
loop_
_geom_bond_atom_site_label_1
_geom_bond_atom_site_label_2
_geom_bond_distance
_geom_bond_site_symmetry_2
_ccdc_geom_bond_type
C0 C1 1.264 . S
C0 C5 1.479 . S
C0 C10 1.465 . S
C1 C0 1.264 . S
C1 C3 1.339 . S
C1 H28 0.931 . S
C2 C3 1.395 . S
C2 C4 1.320 . S
C3 C1 1.339 . S
C3 C2 1.395 . S
C3 H29 0.929 . S
C4 C2 1.320 . S
C4 C5 1.405 . S
C4 H30 0.930 . S
C5 C0 1.479 . S
C5 C4 1.405 . S
C5 H31 0.931 . S
U6 O7 2.454 . S
U6 O8 2.458 . S
U6 C9 2.984 . S
U6 C10 2.847 . S
U6 C23 2.882 . S
U6 O24 2.441 . S
U6 O25 2.420 . S
U6 O26 2.455 . S
U6 O27 2.449 . S
O7 U6 2.454 . S
O7 C9 1.353 . S
O8 U6 2.458 . S
O8 C9 1.286 . S
C9 U6 2.984 . S
C9 O7 1.353 . S
C9 O8 1.286 . S
C9 C11 1.363 . S
C10 C0 1.465 . S
C10 U6 2.847 . S
C10 O24 1.249 . S
C10 O25 1.202 . S
C11 C9 1.363 . S
C11 C13 1.408 . S
C11 C16 1.342 . S
C12 C13 1.310 . S
C12 C15 1.461 . S
C12 H32 0.932 . S
C13 C11 1.408 . S
C13 C12 1.310 . S
C13 H33 0.930 . S
C14 C15 1.473 . S
C14 C16 1.283 . S
C14 H34 0.932 1_554 S
C15 C12 1.461 . S
C15 C14 1.473 . S
C16 C11 1.342 . S
C16 C14 1.283 . S
C16 H35 0.930 . S
C17 C20 1.424 . S
C17 C22 1.245 . S
C17 C23 1.428 . S
C18 C21 1.260 . S
C18 C22 1.477 . S
C18 H36 0.932 . S
C19 C20 1.384 . S
C19 C21 1.479 . S
C19 H37 0.929 . S
C20 C17 1.424 . S
C20 C19 1.384 . S
C20 H38 0.928 . S
C21 C18 1.260 . S
C21 C19 1.479 . S
C22 C17 1.245 . S
C22 C18 1.477 . S
C22 H39 0.932 . S
C23 U6 2.882 . S
C23 C17 1.428 . S
C23 O26 1.301 . S
C23 O27 1.282 . S
O24 U6 2.441 . S
O24 C10 1.249 . S
O25 U6 2.420 . S
O25 C10 1.202 . S
O26 U6 2.455 . S
O26 C23 1.301 . S
O27 U6 2.449 . S
O27 C23 1.282 . S
H28 C1 0.931 . S
H29 C3 0.929 . S
H30 C4 0.930 . S
H31 C5 0.931 . S
H32 C12 0.932 . S
H33 C13 0.930 . S
H34 C14 0.932 1_556 S
H35 C16 0.930 . S
H36 C18 0.932 . S
H37 C19 0.929 . S
H38 C20 0.928 . S
H39 C22 0.932 . S
C40 C41 1.264 . S
C40 C45 1.479 . S
C40 C50 1.465 . S
C41 C40 1.264 . S
C41 C43 1.339 . S
C41 H68 0.931 . S
C42 C43 1.395 . S
C42 C44 1.320 . S
C43 C41 1.339 . S
C43 C42 1.395 . S
C43 H69 0.929 . S
C44 C42 1.320 . S
C44 C45 1.405 . S
C44 H70 0.930 . S
C45 C40 1.479 . S
C45 C44 1.405 . S
C45 H71 0.931 . S
U46 O47 2.454 . S
U46 O48 2.458 . S
U46 C49 2.984 . S
U46 C50 2.847 . S
U46 C63 2.882 . S
U46 O64 2.441 . S
U46 O65 2.420 . S
U46 O66 2.455 . S
U46 O67 2.449 . S
O47 U46 2.454 . S
O47 C49 1.353 . S
O48 U46 2.458 . S
O48 C49 1.286 . S
C49 U46 2.984 . S
C49 O47 1.353 . S
C49 O48 1.286 . S
C49 C51 1.363 . S
C50 C40 1.465 . S
C50 U46 2.847 . S
C50 O64 1.249 . S
C50 O65 1.202 . S
C51 C49 1.363 . S
C51 C53 1.408 1_455 S
C51 C56 1.342 . S
C52 C53 1.310 . S
C52 C55 1.461 . S
C52 H72 0.932 . S
C53 C51 1.408 1_655 S
C53 C52 1.310 . S
C53 H73 0.930 . S
C54 C55 1.474 1_455 S
C54 C56 1.285 . S
C54 H74 0.929 . S
C55 C52 1.461 . S
C55 C54 1.474 1_655 S
C56 C51 1.342 . S
C56 C54 1.285 . S
C56 H75 0.930 . S
C57 C60 1.424 . S
C57 C62 1.245 . S
C57 C63 1.428 . S
C58 C61 1.260 . S
C58 C62 1.477 . S
C58 H76 0.932 . S
C59 C60 1.384 . S
C59 C61 1.479 . S
C59 H77 0.929 . S
C60 C57 1.424 . S
C60 C59 1.384 . S
C60 H78 0.928 . S
C61 C58 1.260 . S
C61 C59 1.479 . S
C62 C57 1.245 . S
C62 C58 1.477 . S
C62 H79 0.932 . S
C63 U46 2.882 . S
C63 C57 1.428 . S
C63 O66 1.301 . S
C63 O67 1.282 . S
O64 U46 2.441 . S
O64 C50 1.249 . S
O65 U46 2.420 . S
O65 C50 1.202 . S
O66 U46 2.455 . S
O66 C63 1.301 . S
O67 U46 2.449 . S
O67 C63 1.282 . S
H68 C41 0.931 . S
H69 C43 0.929 . S
H70 C44 0.930 . S
H71 C45 0.931 . S
H72 C52 0.932 . S
H73 C53 0.930 . S
H74 C54 0.929 . S
H75 C56 0.930 . S
H76 C58 0.932 . S
H77 C59 0.929 . S
H78 C60 0.928 . S
H79 C62 0.932 . S
C80 C81 1.264 . S
C80 C85 1.479 . S
C80 C90 1.465 . S
C81 C80 1.264 . S
C81 C83 1.339 . S
C81 H108 0.931 . S
C82 C83 1.395 . S
C82 C84 1.320 . S
C83 C81 1.339 . S
C83 C82 1.395 . S
C83 H109 0.929 . S
C84 C82 1.320 . S
C84 C85 1.405 . S
C84 H110 0.930 . S
C85 C80 1.479 . S
C85 C84 1.405 . S
C85 H111 0.931 . S
U86 O87 2.454 . S
U86 O88 2.458 . S
U86 C89 2.984 . S
U86 C90 2.847 . S
U86 C103 2.882 . S
U86 O104 2.441 . S
U86 O105 2.420 . S
U86 O106 2.455 . S
U86 O107 2.449 . S
O87 U86 2.454 . S
O87 C89 1.353 . S
O88 U86 2.458 . S
O88 C89 1.286 . S
C89 U86 2.984 . S
C89 O87 1.353 . S
C89 O88 1.286 . S
C89 C91 1.363 . S
C90 C80 1.465 . S
C90 U86 2.847 . S
C90 O104 1.249 . S
C90 O105 1.202 . S
C91 C89 1.363 . S
C91 C93 1.408 1_545 S
C91 C96 1.342 . S
C92 C93 1.310 . S
C92 C95 1.461 . S
C92 H112 0.932 . S
C93 C91 1.408 1_565 S
C93 C92 1.310 . S
C93 H113 0.930 . S
C94 C95 1.474 1_545 S
C94 C96 1.285 . S
C94 H114 0.929 . S
C95 C92 1.461 . S
C95 C94 1.474 1_565 S
C96 C91 1.342 . S
C96 C94 1.285 . S
C96 H115 0.930 . S
C97 C100 1.424 . S
C97 C102 1.245 . S
C97 C103 1.428 . S
C98 C101 1.260 . S
C98 C102 1.477 . S
C98 H116 0.932 . S
C99 C100 1.384 . S
C99 C101 1.479 . S
C99 H117 0.929 . S
C100 C97 1.424 . S
C100 C99 1.384 . S
C100 H118 0.928 . S
C101 C98 1.260 . S
C101 C99 1.479 . S
C102 C97 1.245 . S
C102 C98 1.477 . S
C102 H119 0.932 . S
C103 U86 2.882 . S
C103 C97 1.428 . S
C103 O106 1.301 . S
C103 O107 1.282 . S
O104 U86 2.441 . S
O104 C90 1.249 . S
O105 U86 2.420 . S
O105 C90 1.202 . S
O106 U86 2.455 . S
O106 C103 1.301 . S
O107 U86 2.449 . S
O107 C103 1.282 . S
H108 C81 0.931 . S
H109 C83 0.929 . S
H110 C84 0.930 . S
H111 C85 0.931 . S
H112 C92 0.932 . S
H113 C93 0.930 . S
H114 C94 0.929 . S
H115 C96 0.930 . S
H116 C98 0.932 . S
H117 C99 0.929 . S
H118 C100 0.928 . S
H119 C102 0.932 . S
C120 C121 1.264 . S
C120 C125 1.479 . S
C120 C130 1.465 . S
C121 C120 1.264 . S
C121 C123 1.339 . S
C121 H148 0.931 . S
C122 C123 1.395 . S
C122 C124 1.320 . S
C123 C121 1.339 . S
C123 C122 1.395 . S
C123 H149 0.929 . S
C124 C122 1.320 . S
C124 C125 1.405 . S
C124 H150 0.930 . S
C125 C120 1.479 . S
C125 C124 1.405 . S
C125 H151 0.931 . S
U126 O127 2.454 . S
U126 O128 2.458 . S
U126 C129 2.984 . S
U126 C130 2.847 . S
U126 C143 2.882 . S
U126 O144 2.441 . S
U126 O145 2.420 . S
U126 O146 2.455 . S
U126 O147 2.449 . S
O127 U126 2.454 . S
O127 C129 1.353 . S
O128 U126 2.458 . S
O128 C129 1.286 . S
C129 U126 2.984 . S
C129 O127 1.353 . S
C129 O128 1.286 . S
C129 C131 1.363 . S
C130 C120 1.465 . S
C130 U126 2.847 . S
C130 O144 1.249 . S
C130 O145 1.202 . S
C131 C129 1.363 . S
C131 C133 1.408 . S
C131 C136 1.342 . S
C132 C133 1.310 . S
C132 C135 1.461 . S
C132 H152 0.932 . S
C133 C131 1.408 . S
C133 C132 1.310 . S
C133 H153 0.930 . S
C134 C135 1.473 . S
C134 C136 1.283 . S
C134 H154 0.933 1_554 S
C135 C132 1.461 . S
C135 C134 1.473 . S
C136 C131 1.342 . S
C136 C134 1.283 . S
C136 H155 0.930 . S
C137 C140 1.424 . S
C137 C142 1.245 . S
C137 C143 1.428 . S
C138 C141 1.260 . S
C138 C142 1.477 . S
C138 H156 0.932 . S
C139 C140 1.384 . S
C139 C141 1.479 . S
C139 H157 0.929 . S
C140 C137 1.424 . S
C140 C139 1.384 . S
C140 H158 0.928 . S
C141 C138 1.260 . S
C141 C139 1.479 . S
C142 C137 1.245 . S
C142 C138 1.477 . S
C142 H159 0.932 . S
C143 U126 2.882 . S
C143 C137 1.428 . S
C143 O146 1.301 . S
C143 O147 1.282 . S
O144 U126 2.441 . S
O144 C130 1.249 . S
O145 U126 2.420 . S
O145 C130 1.202 . S
O146 U126 2.455 . S
O146 C143 1.301 . S
O147 U126 2.449 . S
O147 C143 1.282 . S
H148 C121 0.931 . S
H149 C123 0.929 . S
H150 C124 0.930 . S
H151 C125 0.931 . S
H152 C132 0.932 . S
H153 C133 0.930 . S
H154 C134 0.933 1_556 S
H155 C136 0.930 . S
H156 C138 0.932 . S
H157 C139 0.929 . S
H158 C140 0.928 . S
H159 C142 0.932 . S
C160 C161 1.264 . S
C160 C165 1.479 . S
C160 C170 1.465 . S
C161 C160 1.264 . S
C161 C163 1.339 . S
C161 H188 0.931 . S
C162 C163 1.395 . S
C162 C164 1.320 . S
C163 C161 1.339 . S
C163 C162 1.395 . S
C163 H189 0.929 . S
C164 C162 1.320 . S
C164 C165 1.405 . S
C164 H190 0.930 . S
C165 C160 1.479 . S
C165 C164 1.405 . S
C165 H191 0.931 . S
U166 O167 2.454 . S
U166 O168 2.458 . S
U166 C169 2.984 . S
U166 C170 2.847 . S
U166 C183 2.882 . S
U166 O184 2.441 . S
U166 O185 2.420 . S
U166 O186 2.455 . S
U166 O187 2.449 . S
O167 U166 2.454 . S
O167 C169 1.353 . S
O168 U166 2.458 . S
O168 C169 1.286 . S
C169 U166 2.984 . S
C169 O167 1.353 . S
C169 O168 1.286 . S
C169 C171 1.363 . S
C170 C160 1.465 . S
C170 U166 2.847 . S
C170 O184 1.249 . S
C170 O185 1.202 . S
C171 C169 1.363 . S
C171 C173 1.408 1_655 S
C171 C176 1.342 . S
C172 C173 1.310 . S
C172 C175 1.461 . S
C172 H192 0.932 . S
C173 C171 1.408 1_455 S
C173 C172 1.310 . S
C173 H193 0.930 . S
C174 C175 1.474 1_655 S
C174 C176 1.285 . S
C174 H194 0.929 . S
C175 C172 1.461 . S
C175 C174 1.474 1_455 S
C176 C171 1.342 . S
C176 C174 1.285 . S
C176 H195 0.930 . S
C177 C180 1.424 . S
C177 C182 1.245 . S
C177 C183 1.428 . S
C178 C181 1.260 . S
C178 C182 1.477 . S
C178 H196 0.932 . S
C179 C180 1.384 . S
C179 C181 1.479 . S
C179 H197 0.929 . S
C180 C177 1.424 . S
C180 C179 1.384 . S
C180 H198 0.928 . S
C181 C178 1.260 . S
C181 C179 1.479 . S
C182 C177 1.245 . S
C182 C178 1.477 . S
C182 H199 0.932 . S
C183 U166 2.882 . S
C183 C177 1.428 . S
C183 O186 1.301 . S
C183 O187 1.282 . S
O184 U166 2.441 . S
O184 C170 1.249 . S
O185 U166 2.420 . S
O185 C170 1.202 . S
O186 U166 2.455 . S
O186 C183 1.301 . S
O187 U166 2.449 . S
O187 C183 1.282 . S
H188 C161 0.931 . S
H189 C163 0.929 . S
H190 C164 0.930 . S
H191 C165 0.931 . S
H192 C172 0.932 . S
H193 C173 0.930 . S
H194 C174 0.929 . S
H195 C176 0.930 . S
H196 C178 0.932 . S
H197 C179 0.929 . S
H198 C180 0.928 . S
H199 C182 0.932 . S
C200 C201 1.264 . S
C200 C205 1.479 . S
C200 C210 1.465 . S
C201 C200 1.264 . S
C201 C203 1.339 . S
C201 H228 0.931 . S
C202 C203 1.395 . S
C202 C204 1.320 . S
C203 C201 1.339 . S
C203 C202 1.395 . S
C203 H229 0.929 . S
C204 C202 1.320 . S
C204 C205 1.405 . S
C204 H230 0.930 . S
C205 C200 1.479 . S
C205 C204 1.405 . S
C205 H231 0.931 . S
U206 O207 2.454 . S
U206 O208 2.458 . S
U206 C209 2.984 . S
U206 C210 2.847 . S
U206 C223 2.882 . S
U206 O224 2.441 . S
U206 O225 2.420 . S
U206 O226 2.455 . S
U206 O227 2.449 . S
O207 U206 2.454 . S
O207 C209 1.353 . S
O208 U206 2.458 . S
O208 C209 1.286 . S
C209 U206 2.984 . S
C209 O207 1.353 . S
C209 O208 1.286 . S
C209 C211 1.363 . S
C210 C200 1.465 . S
C210 U206 2.847 . S
C210 O224 1.249 . S
C210 O225 1.202 . S
C211 C209 1.363 . S
C211 C213 1.408 1_565 S
C211 C216 1.342 . S
C212 C213 1.310 . S
C212 C215 1.461 . S
C212 H232 0.932 . S
C213 C211 1.408 1_545 S
C213 C212 1.310 . S
C213 H233 0.930 . S
C214 C215 1.474 1_565 S
C214 C216 1.285 . S
C214 H234 0.929 . S
C215 C212 1.461 . S
C215 C214 1.474 1_545 S
C216 C211 1.342 . S
C216 C214 1.285 . S
C216 H235 0.930 . S
C217 C220 1.424 . S
C217 C222 1.245 . S
C217 C223 1.428 . S
C218 C221 1.260 . S
C218 C222 1.477 . S
C218 H236 0.932 . S
C219 C220 1.384 . S
C219 C221 1.479 . S
C219 H237 0.929 . S
C220 C217 1.424 . S
C220 C219 1.384 . S
C220 H238 0.928 . S
C221 C218 1.260 . S
C221 C219 1.479 . S
C222 C217 1.245 . S
C222 C218 1.477 . S
C222 H239 0.932 . S
C223 U206 2.882 . S
C223 C217 1.428 . S
C223 O226 1.301 . S
C223 O227 1.282 . S
O224 U206 2.441 . S
O224 C210 1.249 . S
O225 U206 2.420 . S
O225 C210 1.202 . S
O226 U206 2.455 . S
O226 C223 1.301 . S
O227 U206 2.449 . S
O227 C223 1.282 . S
H228 C201 0.931 . S
H229 C203 0.929 . S
H230 C204 0.930 . S
H231 C205 0.931 . S
H232 C212 0.932 . S
H233 C213 0.930 . S
H234 C214 0.929 . S
H235 C216 0.930 . S
H236 C218 0.932 . S
H237 C219 0.929 . S
H238 C220 0.928 . S
H239 C222 0.932 . S
C240 C241 1.264 . S
C240 C245 1.479 . S
C240 C250 1.465 . S
C241 C240 1.264 . S
C241 C243 1.339 . S
C241 H268 0.931 . S
C242 C243 1.395 . S
C242 C244 1.320 . S
C243 C241 1.339 . S
C243 C242 1.395 . S
C243 H269 0.929 . S
C244 C242 1.320 . S
C244 C245 1.405 . S
C244 H270 0.930 . S
C245 C240 1.479 . S
C245 C244 1.405 . S
C245 H271 0.931 . S
U246 O247 2.454 . S
U246 O248 2.458 . S
U246 C249 2.984 . S
U246 C250 2.847 . S
U246 C263 2.882 . S
U246 O264 2.441 . S
U246 O265 2.420 . S
U246 O266 2.455 . S
U246 O267 2.449 . S
O247 U246 2.454 . S
O247 C249 1.353 . S
O248 U246 2.458 . S
O248 C249 1.286 . S
C249 U246 2.984 . S
C249 O247 1.353 . S
C249 O248 1.286 . S
C249 C251 1.363 . S
C250 C240 1.465 . S
C250 U246 2.847 . S
C250 O264 1.249 . S
C250 O265 1.202 . S
C251 C249 1.363 . S
C251 C253 1.408 . S
C251 C256 1.342 . S
C252 C253 1.310 . S
C252 C255 1.461 . S
C252 H272 0.932 . S
C253 C251 1.408 . S
C253 C252 1.310 . S
C253 H273 0.930 . S
C254 C255 1.474 . S
C254 C256 1.285 . S
C254 H274 0.929 . S
C255 C252 1.461 . S
C255 C254 1.474 . S
C256 C251 1.342 . S
C256 C254 1.285 . S
C256 H275 0.930 . S
C257 C260 1.424 . S
C257 C262 1.245 . S
C257 C263 1.428 . S
C258 C261 1.260 . S
C258 C262 1.477 . S
C258 H276 0.932 . S
C259 C260 1.384 . S
C259 C261 1.479 . S
C259 H277 0.929 . S
C260 C257 1.424 . S
C260 C259 1.384 . S
C260 H278 0.928 . S
C261 C258 1.260 . S
C261 C259 1.479 . S
C262 C257 1.245 . S
C262 C258 1.477 . S
C262 H279 0.932 . S
C263 U246 2.882 . S
C263 C257 1.428 . S
C263 O266 1.301 . S
C263 O267 1.282 . S
O264 U246 2.441 . S
O264 C250 1.249 . S
O265 U246 2.420 . S
O265 C250 1.202 . S
O266 U246 2.455 . S
O266 C263 1.301 . S
O267 U246 2.449 . S
O267 C263 1.282 . S
H268 C241 0.931 . S
H269 C243 0.929 . S
H270 C244 0.930 . S
H271 C245 0.931 . S
H272 C252 0.932 . S
H273 C253 0.930 . S
H274 C254 0.929 . S
H275 C256 0.930 . S
H276 C258 0.932 . S
H277 C259 0.929 . S
H278 C260 0.928 . S
H279 C262 0.932 . S
C280 C281 1.264 . S
C280 C285 1.479 . S
C280 C290 1.465 . S
C281 C280 1.264 . S
C281 C283 1.339 . S
C281 H308 0.931 . S
C282 C283 1.395 . S
C282 C284 1.320 . S
C283 C281 1.339 . S
C283 C282 1.395 . S
C283 H309 0.929 . S
C284 C282 1.320 . S
C284 C285 1.405 . S
C284 H310 0.930 . S
C285 C280 1.479 . S
C285 C284 1.405 . S
C285 H311 0.931 . S
U286 O287 2.454 . S
U286 O288 2.458 . S
U286 C289 2.984 . S
U286 C290 2.847 . S
U286 C303 2.882 . S
U286 O304 2.441 . S
U286 O305 2.420 . S
U286 O306 2.455 . S
U286 O307 2.449 . S
O287 U286 2.454 . S
O287 C289 1.353 . S
O288 U286 2.458 . S
O288 C289 1.286 . S
C289 U286 2.984 . S
C289 O287 1.353 . S
C289 O288 1.286 . S
C289 C291 1.363 . S
C290 C280 1.465 . S
C290 U286 2.847 . S
C290 O304 1.249 . S
C290 O305 1.202 . S
C291 C289 1.363 . S
C291 C293 1.408 1_455 S
C291 C296 1.342 . S
C292 C293 1.310 . S
C292 C295 1.461 . S
C292 H312 0.932 . S
C293 C291 1.408 1_655 S
C293 C292 1.310 . S
C293 H313 0.930 . S
C294 C295 1.473 1_455 S
C294 C296 1.283 . S
C294 H314 0.932 1_556 S
C295 C292 1.461 . S
C295 C294 1.473 1_655 S
C296 C291 1.342 . S
C296 C294 1.283 . S
C296 H315 0.930 . S
C297 C300 1.424 . S
C297 C302 1.245 . S
C297 C303 1.428 . S
C298 C301 1.260 . S
C298 C302 1.477 . S
C298 H316 0.932 . S
C299 C300 1.384 . S
C299 C301 1.479 . S
C299 H317 0.929 . S
C300 C297 1.424 . S
C300 C299 1.384 . S
C300 H318 0.928 . S
C301 C298 1.260 . S
C301 C299 1.479 . S
C302 C297 1.245 . S
C302 C298 1.477 . S
C302 H319 0.932 . S
C303 U286 2.882 . S
C303 C297 1.428 . S
C303 O306 1.301 . S
C303 O307 1.282 . S
O304 U286 2.441 . S
O304 C290 1.249 . S
O305 U286 2.420 . S
O305 C290 1.202 . S
O306 U286 2.455 . S
O306 C303 1.301 . S
O307 U286 2.449 . S
O307 C303 1.282 . S
H308 C281 0.931 . S
H309 C283 0.929 . S
H310 C284 0.930 . S
H311 C285 0.931 . S
H312 C292 0.932 . S
H313 C293 0.930 . S
H314 C294 0.932 1_554 S
H315 C296 0.930 . S
H316 C298 0.932 . S
H317 C299 0.929 . S
H318 C300 0.928 . S
H319 C302 0.932 . S
C320 C321 1.264 . S
C320 C325 1.479 . S
C320 C330 1.465 . S
C321 C320 1.264 . S
C321 C323 1.339 . S
C321 H348 0.931 . S
C322 C323 1.395 . S
C322 C324 1.320 . S
C323 C321 1.339 . S
C323 C322 1.395 . S
C323 H349 0.929 . S
C324 C322 1.320 . S
C324 C325 1.405 . S
C324 H350 0.930 . S
C325 C320 1.479 . S
C325 C324 1.405 . S
C325 H351 0.931 . S
U326 O327 2.454 . S
U326 O328 2.458 . S
U326 C329 2.984 . S
U326 C330 2.847 . S
U326 C343 2.882 . S
U326 O344 2.441 . S
U326 O345 2.420 . S
U326 O346 2.455 . S
U326 O347 2.449 . S
O327 U326 2.454 . S
O327 C329 1.353 . S
O328 U326 2.458 . S
O328 C329 1.286 . S
C329 U326 2.984 . S
C329 O327 1.353 . S
C329 O328 1.286 . S
C329 C331 1.363 . S
C330 C320 1.465 . S
C330 U326 2.847 . S
C330 O344 1.249 . S
C330 O345 1.202 . S
C331 C329 1.363 . S
C331 C333 1.408 1_545 S
C331 C336 1.342 . S
C332 C333 1.310 . S
C332 C335 1.461 . S
C332 H352 0.932 . S
C333 C331 1.408 1_565 S
C333 C332 1.310 . S
C333 H353 0.930 . S
C334 C335 1.474 1_545 S
C334 C336 1.285 . S
C334 H354 0.929 . S
C335 C332 1.461 . S
C335 C334 1.474 1_565 S
C336 C331 1.342 . S
C336 C334 1.285 . S
C336 H355 0.930 . S
C337 C340 1.424 . S
C337 C342 1.245 . S
C337 C343 1.428 . S
C338 C341 1.260 . S
C338 C342 1.477 . S
C338 H356 0.932 . S
C339 C340 1.384 . S
C339 C341 1.479 . S
C339 H357 0.929 . S
C340 C337 1.424 . S
C340 C339 1.384 . S
C340 H358 0.928 . S
C341 C338 1.260 . S
C341 C339 1.479 . S
C342 C337 1.245 . S
C342 C338 1.477 . S
C342 H359 0.932 . S
C343 U326 2.882 . S
C343 C337 1.428 . S
C343 O346 1.301 . S
C343 O347 1.282 . S
O344 U326 2.441 . S
O344 C330 1.249 . S
O345 U326 2.420 . S
O345 C330 1.202 . S
O346 U326 2.455 . S
O346 C343 1.301 . S
O347 U326 2.449 . S
O347 C343 1.282 . S
H348 C321 0.931 . S
H349 C323 0.929 . S
H350 C324 0.930 . S
H351 C325 0.931 . S
H352 C332 0.932 . S
H353 C333 0.930 . S
H354 C334 0.929 . S
H355 C336 0.930 . S
H356 C338 0.932 . S
H357 C339 0.929 . S
H358 C340 0.928 . S
H359 C342 0.932 . S
C360 C361 1.264 . S
C360 C365 1.479 . S
C360 C370 1.465 . S
C361 C360 1.264 . S
C361 C363 1.339 . S
C361 H388 0.931 . S
C362 C363 1.395 . S
C362 C364 1.320 . S
C363 C361 1.339 . S
C363 C362 1.395 . S
C363 H389 0.929 . S
C364 C362 1.320 . S
C364 C365 1.405 . S
C364 H390 0.930 . S
C365 C360 1.479 . S
C365 C364 1.405 . S
C365 H391 0.931 . S
U366 O367 2.454 . S
U366 O368 2.458 . S
U366 C369 2.984 . S
U366 C370 2.847 . S
U366 C383 2.882 . S
U366 O384 2.441 . S
U366 O385 2.420 . S
U366 O386 2.455 . S
U366 O387 2.449 . S
O367 U366 2.454 . S
O367 C369 1.353 . S
O368 U366 2.458 . S
O368 C369 1.286 . S
C369 U366 2.984 . S
C369 O367 1.353 . S
C369 O368 1.286 . S
C369 C371 1.363 . S
C370 C360 1.465 . S
C370 U366 2.847 . S
C370 O384 1.249 . S
C370 O385 1.202 . S
C371 C369 1.363 . S
C371 C373 1.408 . S
C371 C376 1.342 . S
C372 C373 1.310 . S
C372 C375 1.461 . S
C372 H392 0.932 . S
C373 C371 1.408 . S
C373 C372 1.310 . S
C373 H393 0.930 . S
C374 C375 1.474 . S
C374 C376 1.285 . S
C374 H394 0.929 . S
C375 C372 1.461 . S
C375 C374 1.474 . S
C376 C371 1.342 . S
C376 C374 1.285 . S
C376 H395 0.930 . S
C377 C380 1.424 . S
C377 C382 1.245 . S
C377 C383 1.428 . S
C378 C381 1.260 . S
C378 C382 1.477 . S
C378 H396 0.932 . S
C379 C380 1.384 . S
C379 C381 1.479 . S
C379 H397 0.929 . S
C380 C377 1.424 . S
C380 C379 1.384 . S
C380 H398 0.928 . S
C381 C378 1.260 . S
C381 C379 1.479 . S
C382 C377 1.245 . S
C382 C378 1.477 . S
C382 H399 0.932 . S
C383 U366 2.882 . S
C383 C377 1.428 . S
C383 O386 1.301 . S
C383 O387 1.282 . S
O384 U366 2.441 . S
O384 C370 1.249 . S
O385 U366 2.420 . S
O385 C370 1.202 . S
O386 U366 2.455 . S
O386 C383 1.301 . S
O387 U366 2.449 . S
O387 C383 1.282 . S
H388 C361 0.931 . S
H389 C363 0.929 . S
H390 C364 0.930 . S
H391 C365 0.931 . S
H392 C372 0.932 . S
H393 C373 0.930 . S
H394 C374 0.929 . S
H395 C376 0.930 . S
H396 C378 0.932 . S
H397 C379 0.929 . S
H398 C380 0.928 . S
H399 C382 0.932 . S
C400 C401 1.264 . S
C400 C405 1.479 . S
C400 C410 1.465 . S
C401 C400 1.264 . S
C401 C403 1.339 . S
C401 H428 0.931 . S
C402 C403 1.395 . S
C402 C404 1.320 . S
C403 C401 1.339 . S
C403 C402 1.395 . S
C403 H429 0.929 . S
C404 C402 1.320 . S
C404 C405 1.405 . S
C404 H430 0.930 . S
C405 C400 1.479 . S
C405 C404 1.405 . S
C405 H431 0.931 . S
U406 O407 2.454 . S
U406 O408 2.458 . S
U406 C409 2.984 . S
U406 C410 2.847 . S
U406 C423 2.882 . S
U406 O424 2.441 . S
U406 O425 2.420 . S
U406 O426 2.455 . S
U406 O427 2.449 . S
O407 U406 2.454 . S
O407 C409 1.353 . S
O408 U406 2.458 . S
O408 C409 1.286 . S
C409 U406 2.984 . S
C409 O407 1.353 . S
C409 O408 1.286 . S
C409 C411 1.363 . S
C410 C400 1.465 . S
C410 U406 2.847 . S
C410 O424 1.249 . S
C410 O425 1.202 . S
C411 C409 1.363 . S
C411 C413 1.408 1_655 S
C411 C416 1.342 . S
C412 C413 1.310 . S
C412 C415 1.461 . S
C412 H432 0.932 . S
C413 C411 1.408 1_455 S
C413 C412 1.310 . S
C413 H433 0.930 . S
C414 C415 1.473 1_655 S
C414 C416 1.283 . S
C414 H434 0.932 1_556 S
C415 C412 1.461 . S
C415 C414 1.473 1_455 S
C416 C411 1.342 . S
C416 C414 1.283 . S
C416 H435 0.930 . S
C417 C420 1.424 . S
C417 C422 1.245 . S
C417 C423 1.428 . S
C418 C421 1.260 . S
C418 C422 1.477 . S
C418 H436 0.932 . S
C419 C420 1.384 . S
C419 C421 1.479 . S
C419 H437 0.929 . S
C420 C417 1.424 . S
C420 C419 1.384 . S
C420 H438 0.928 . S
C421 C418 1.260 . S
C421 C419 1.479 . S
C422 C417 1.245 . S
C422 C418 1.477 . S
C422 H439 0.932 . S
C423 U406 2.882 . S
C423 C417 1.428 . S
C423 O426 1.301 . S
C423 O427 1.282 . S
O424 U406 2.441 . S
O424 C410 1.249 . S
O425 U406 2.420 . S
O425 C410 1.202 . S
O426 U406 2.455 . S
O426 C423 1.301 . S
O427 U406 2.449 . S
O427 C423 1.282 . S
H428 C401 0.931 . S
H429 C403 0.929 . S
H430 C404 0.930 . S
H431 C405 0.931 . S
H432 C412 0.932 . S
H433 C413 0.930 . S
H434 C414 0.932 1_554 S
H435 C416 0.930 . S
H436 C418 0.932 . S
H437 C419 0.929 . S
H438 C420 0.928 . S
H439 C422 0.932 . S
C440 C441 1.264 . S
C440 C445 1.479 . S
C440 C450 1.465 . S
C441 C440 1.264 . S
C441 C443 1.339 . S
C441 H468 0.931 . S
C442 C443 1.395 . S
C442 C444 1.320 . S
C443 C441 1.339 . S
C443 C442 1.395 . S
C443 H469 0.929 . S
C444 C442 1.320 . S
C444 C445 1.405 . S
C444 H470 0.930 . S
C445 C440 1.479 . S
C445 C444 1.405 . S
C445 H471 0.931 . S
U446 O447 2.454 . S
U446 O448 2.458 . S
U446 C449 2.984 . S
U446 C450 2.847 . S
U446 C463 2.882 . S
U446 O464 2.441 . S
U446 O465 2.420 . S
U446 O466 2.455 . S
U446 O467 2.449 . S
O447 U446 2.454 . S
O447 C449 1.353 . S
O448 U446 2.458 . S
O448 C449 1.286 . S
C449 U446 2.984 . S
C449 O447 1.353 . S
C449 O448 1.286 . S
C449 C451 1.363 . S
C450 C440 1.465 . S
C450 U446 2.847 . S
C450 O464 1.249 . S
C450 O465 1.202 . S
C451 C449 1.363 . S
C451 C453 1.408 1_565 S
C451 C456 1.342 . S
C452 C453 1.310 . S
C452 C455 1.461 . S
C452 H472 0.932 . S
C453 C451 1.408 1_545 S
C453 C452 1.310 . S
C453 H473 0.930 . S
C454 C455 1.474 1_565 S
C454 C456 1.285 . S
C454 H474 0.929 . S
C455 C452 1.461 . S
C455 C454 1.474 1_545 S
C456 C451 1.342 . S
C456 C454 1.285 . S
C456 H475 0.930 . S
C457 C460 1.424 . S
C457 C462 1.245 . S
C457 C463 1.428 . S
C458 C461 1.260 . S
C458 C462 1.477 . S
C458 H476 0.932 . S
C459 C460 1.384 . S
C459 C461 1.479 . S
C459 H477 0.929 . S
C460 C457 1.424 . S
C460 C459 1.384 . S
C460 H478 0.928 . S
C461 C458 1.260 . S
C461 C459 1.479 . S
C462 C457 1.245 . S
C462 C458 1.477 . S
C462 H479 0.932 . S
C463 U446 2.882 . S
C463 C457 1.428 . S
C463 O466 1.301 . S
C463 O467 1.282 . S
O464 U446 2.441 . S
O464 C450 1.249 . S
O465 U446 2.420 . S
O465 C450 1.202 . S
O466 U446 2.455 . S
O466 C463 1.301 . S
O467 U446 2.449 . S
O467 C463 1.282 . S
H468 C441 0.931 . S
H469 C443 0.929 . S
H470 C444 0.930 . S
H471 C445 0.931 . S
H472 C452 0.932 . S
H473 C453 0.930 . S
H474 C454 0.929 . S
H475 C456 0.930 . S
H476 C458 0.932 . S
H477 C459 0.929 . S
H478 C460 0.928 . S
H479 C462 0.932 . S
H480 C486 0.930 . S
H481 C489 0.930 . S
H482 C490 0.930 . S
H483 C491 0.930 . S
H484 C494 0.930 . S
H485 C495 0.930 . S
C486 H480 0.930 . S
C486 C487 1.355 . S
C486 C488 1.415 . S
C487 C486 1.355 . S
C487 C489 1.419 . S
C488 C486 1.415 . S
C488 C493 1.425 . S
C488 C495 1.409 . S
C489 H481 0.930 . S
C489 C487 1.419 . S
C489 C490 1.362 . S
C490 H482 0.930 . S
C490 C489 1.362 . S
C490 C493 1.409 . S
C491 H483 0.930 . S
C491 C492 1.355 . S
C491 C493 1.415 . S
C492 C491 1.355 . S
C492 C494 1.419 . S
C493 C488 1.425 . S
C493 C490 1.409 . S
C493 C491 1.415 . S
C494 H484 0.930 . S
C494 C492 1.419 . S
C494 C495 1.362 . S
C495 H485 0.930 . S
C495 C488 1.409 . S
C495 C494 1.362 . S
H496 C502 0.930 . S
H497 C505 0.930 . S
H498 C506 0.930 . S
H499 C507 0.930 . S
H500 C510 0.930 . S
H501 C511 0.930 . S
C502 H496 0.930 . S
C502 C503 1.355 . S
C502 C504 1.415 . S
C503 C502 1.355 . S
C503 C505 1.419 . S
C504 C502 1.415 . S
C504 C509 1.425 . S
C504 C511 1.409 . S
C505 H497 0.930 . S
C505 C503 1.419 . S
C505 C506 1.362 . S
C506 H498 0.930 . S
C506 C505 1.362 . S
C506 C509 1.409 . S
C507 H499 0.930 . S
C507 C508 1.355 . S
C507 C509 1.415 . S
C508 C507 1.355 . S
C508 C510 1.419 . S
C509 C504 1.425 . S
C509 C506 1.409 . S
C509 C507 1.415 . S
C510 H500 0.930 . S
C510 C508 1.419 . S
C510 C511 1.362 . S
C511 H501 0.930 . S
C511 C504 1.409 . S
C511 C510 1.362 . S
H512 C518 0.930 . S
H513 C521 0.930 . S
H514 C522 0.930 . S
H515 C523 0.930 . S
H516 C526 0.930 . S
H517 C527 0.930 . S
C518 H512 0.930 . S
C518 C519 1.355 . S
C518 C520 1.415 . S
C519 C518 1.355 . S
C519 C521 1.419 . S
C520 C518 1.415 . S
C520 C525 1.425 . S
C520 C527 1.409 . S
C521 H513 0.930 . S
C521 C519 1.419 . S
C521 C522 1.362 . S
C522 H514 0.930 . S
C522 C521 1.362 . S
C522 C525 1.409 . S
C523 H515 0.930 . S
C523 C524 1.355 . S
C523 C525 1.415 . S
C524 C523 1.355 . S
C524 C526 1.419 . S
C525 C520 1.425 . S
C525 C522 1.409 . S
C525 C523 1.415 . S
C526 H516 0.930 . S
C526 C524 1.419 . S
C526 C527 1.362 . S
C527 H517 0.930 . S
C527 C520 1.409 . S
C527 C526 1.362 . S
H528 C534 0.930 . S
H529 C537 0.930 . S
H530 C538 0.930 . S
H531 C539 0.930 . S
H532 C542 0.930 . S
H533 C543 0.930 . S
C534 H528 0.930 . S
C534 C535 1.355 . S
C534 C536 1.415 . S
C535 C534 1.355 . S
C535 C537 1.419 . S
C536 C534 1.415 . S
C536 C541 1.425 . S
C536 C543 1.409 . S
C537 H529 0.930 . S
C537 C535 1.419 . S
C537 C538 1.362 . S
C538 H530 0.930 . S
C538 C537 1.362 . S
C538 C541 1.409 . S
C539 H531 0.930 . S
C539 C540 1.355 . S
C539 C541 1.415 . S
C540 C539 1.355 . S
C540 C542 1.419 . S
C541 C536 1.425 . S
C541 C538 1.409 . S
C541 C539 1.415 . S
C542 H532 0.930 . S
C542 C540 1.419 . S
C542 C543 1.362 . S
C543 H533 0.930 . S
C543 C536 1.409 . S
C543 C542 1.362 . S
H544 C550 0.930 . S
H545 C553 0.930 . S
H546 C554 0.930 . S
H547 C555 0.930 . S
H548 C558 0.930 . S
H549 C559 0.930 . S
C550 H544 0.930 . S
C550 C551 1.355 . S
C550 C552 1.415 . S
C551 C550 1.355 . S
C551 C553 1.419 . S
C552 C550 1.415 . S
C552 C557 1.425 . S
C552 C559 1.409 . S
C553 H545 0.930 . S
C553 C551 1.419 . S
C553 C554 1.362 . S
C554 H546 0.930 . S
C554 C553 1.362 . S
C554 C557 1.409 . S
C555 H547 0.930 . S
C555 C556 1.355 . S
C555 C557 1.415 . S
C556 C555 1.355 . S
C556 C558 1.419 . S
C557 C552 1.425 . S
C557 C554 1.409 . S
C557 C555 1.415 . S
C558 H548 0.930 . S
C558 C556 1.419 . S
C558 C559 1.362 . S
C559 H549 0.930 . S
C559 C552 1.409 . S
C559 C558 1.362 . S
H560 C566 0.930 . S
H561 C569 0.930 . S
H562 C570 0.930 . S
H563 C571 0.930 . S
H564 C574 0.930 . S
H565 C575 0.930 . S
C566 H560 0.930 . S
C566 C567 1.355 . S
C566 C568 1.415 . S
C567 C566 1.355 . S
C567 C569 1.419 . S
C568 C566 1.415 . S
C568 C573 1.425 . S
C568 C575 1.409 . S
C569 H561 0.930 . S
C569 C567 1.419 . S
C569 C570 1.362 . S
C570 H562 0.930 . S
C570 C569 1.362 . S
C570 C573 1.409 . S
C571 H563 0.930 . S
C571 C572 1.355 . S
C571 C573 1.415 . S
C572 C571 1.355 . S
C572 C574 1.419 . S
C573 C568 1.425 . S
C573 C570 1.409 . S
C573 C571 1.415 . S
C574 H564 0.930 . S
C574 C572 1.419 . S
C574 C575 1.362 . S
C575 H565 0.930 . S
C575 C568 1.409 . S
C575 C574 1.362 . S
H576 C582 0.930 . S
H577 C585 0.930 . S
H578 C586 0.930 . S
H579 C587 0.930 . S
H580 C590 0.930 . S
H581 C591 0.930 . S
C582 H576 0.930 . S
C582 C583 1.355 . S
C582 C584 1.415 . S
C583 C582 1.355 . S
C583 C585 1.419 . S
C584 C582 1.415 . S
C584 C589 1.425 1_545 S
C584 C591 1.409 . S
C585 H577 0.930 . S
C585 C583 1.419 . S
C585 C586 1.362 1_545 S
C586 H578 0.930 . S
C586 C585 1.362 1_565 S
C586 C589 1.409 . S
C587 H579 0.930 . S
C587 C588 1.355 . S
C587 C589 1.415 . S
C588 C587 1.355 . S
C588 C590 1.419 . S
C589 C584 1.425 1_565 S
C589 C586 1.409 . S
C589 C587 1.415 . S
C590 H580 0.930 . S
C590 C588 1.419 . S
C590 C591 1.362 1_565 S
C591 H581 0.930 . S
C591 C584 1.409 . S
C591 C590 1.362 1_545 S
H592 C598 0.930 . S
H593 C601 0.930 . S
H594 C602 0.930 . S
H595 C603 0.930 . S
H596 C606 0.930 . S
H597 C607 0.930 . S
C598 H592 0.930 . S
C598 C599 1.355 . S
C598 C600 1.415 . S
C599 C598 1.355 . S
C599 C601 1.419 . S
C600 C598 1.415 . S
C600 C605 1.425 . S
C600 C607 1.409 . S
C601 H593 0.930 . S
C601 C599 1.419 . S
C601 C602 1.362 . S
C602 H594 0.930 . S
C602 C601 1.362 . S
C602 C605 1.409 . S
C603 H595 0.930 . S
C603 C604 1.355 . S
C603 C605 1.415 . S
C604 C603 1.355 . S
C604 C606 1.419 . S
C605 C600 1.425 . S
C605 C602 1.409 . S
C605 C603 1.415 . S
C606 H596 0.930 . S
C606 C604 1.419 . S
C606 C607 1.362 . S
C607 H597 0.930 . S
C607 C600 1.409 . S
C607 C606 1.362 . S
H608 C614 0.930 . S
H609 C617 0.930 . S
H610 C618 0.930 . S
H611 C619 0.930 . S
H612 C622 0.930 . S
H613 C623 0.930 . S
C614 H608 0.930 . S
C614 C615 1.355 . S
C614 C616 1.410 1_455 S
C615 C614 1.355 . S
C615 C617 1.419 . S
C616 C614 1.410 1_655 S
C616 C621 1.416 1_655 S
C616 C623 1.419 . S
C617 H609 0.930 . S
C617 C615 1.419 . S
C617 C618 1.362 . S
C618 H610 0.930 . S
C618 C617 1.362 . S
C618 C621 1.419 . S
C619 H611 0.930 . S
C619 C620 1.355 . S
C619 C621 1.410 1_655 S
C620 C619 1.355 . S
C620 C622 1.419 . S
C621 C616 1.416 1_455 S
C621 C618 1.419 . S
C621 C619 1.410 1_455 S
C622 H612 0.930 . S
C622 C620 1.419 . S
C622 C623 1.362 . S
C623 H613 0.930 . S
C623 C616 1.419 . S
C623 C622 1.362 . S
H624 C630 0.930 . S
H625 C633 0.930 . S
H626 C634 0.930 . S
H627 C635 0.930 . S
H628 C638 0.930 . S
H629 C639 0.930 . S
C630 H624 0.930 . S
C630 C631 1.355 . S
C630 C632 1.415 . S
C631 C630 1.355 . S
C631 C633 1.419 . S
C632 C630 1.415 . S
C632 C637 1.425 1_655 S
C632 C639 1.409 . S
C633 H625 0.930 . S
C633 C631 1.419 . S
C633 C634 1.362 1_655 S
C634 H626 0.930 . S
C634 C633 1.362 1_455 S
C634 C637 1.409 . S
C635 H627 0.930 . S
C635 C636 1.355 . S
C635 C637 1.415 . S
C636 C635 1.355 . S
C636 C638 1.419 . S
C637 C632 1.425 1_455 S
C637 C634 1.409 . S
C637 C635 1.415 . S
C638 H628 0.930 . S
C638 C636 1.419 . S
C638 C639 1.362 1_455 S
C639 H629 0.930 . S
C639 C632 1.409 . S
C639 C638 1.362 1_655 S
H640 C646 0.930 . S
H641 C649 0.930 . S
H642 C650 0.930 . S
H643 C651 0.930 . S
H644 C654 0.930 . S
H645 C655 0.930 . S
C646 H640 0.930 . S
C646 C647 1.355 . S
C646 C648 1.415 . S
C647 C646 1.355 . S
C647 C649 1.419 . S
C648 C646 1.415 . S
C648 C653 1.425 1_545 S
C648 C655 1.409 . S
C649 H641 0.930 . S
C649 C647 1.419 . S
C649 C650 1.362 1_545 S
C650 H642 0.930 . S
C650 C649 1.362 1_565 S
C650 C653 1.409 . S
C651 H643 0.930 . S
C651 C652 1.355 . S
C651 C653 1.415 . S
C652 C651 1.355 . S
C652 C654 1.419 . S
C653 C648 1.425 1_565 S
C653 C650 1.409 . S
C653 C651 1.415 . S
C654 H644 0.930 . S
C654 C652 1.419 . S
C654 C655 1.362 1_565 S
C655 H645 0.930 . S
C655 C648 1.409 . S
C655 C654 1.362 1_545 S
H656 C662 0.930 . S
H657 C665 0.930 . S
H658 C666 0.930 . S
H659 C667 0.930 . S
H660 C670 0.930 . S
H661 C671 0.930 . S
C662 H656 0.930 . S
C662 C663 1.355 . S
C662 C664 1.415 . S
C663 C662 1.355 . S
C663 C665 1.419 . S
C664 C662 1.415 . S
C664 C669 1.425 . S
C664 C671 1.409 . S
C665 H657 0.930 . S
C665 C663 1.419 . S
C665 C666 1.362 . S
C666 H658 0.930 . S
C666 C665 1.362 . S
C666 C669 1.409 . S
C667 H659 0.930 . S
C667 C668 1.355 . S
C667 C669 1.415 . S
C668 C667 1.355 . S
C668 C670 1.419 . S
C669 C664 1.425 . S
C669 C666 1.409 . S
C669 C667 1.415 . S
C670 H660 0.930 . S
C670 C668 1.419 . S
C670 C671 1.362 . S
C671 H661 0.930 . S
C671 C664 1.409 . S
C671 C670 1.362 . S
H672 C678 0.930 . S
H673 C681 0.930 . S
H674 C682 0.930 . S
H675 C683 0.930 . S
H676 C686 0.930 . S
H677 C687 0.930 . S
C678 H672 0.930 . S
C678 C679 1.355 1_556 S
C678 C680 1.415 . S
C679 C678 1.355 1_554 S
C679 C681 1.419 . S
C680 C678 1.415 . S
C680 C685 1.425 1_556 S
C680 C687 1.409 . S
C681 H673 0.930 . S
C681 C679 1.419 . S
C681 C682 1.362 . S
C682 H674 0.930 . S
C682 C681 1.362 . S
C682 C685 1.409 . S
C683 H675 0.930 . S
C683 C684 1.355 1_554 S
C683 C685 1.415 . S
C684 C683 1.355 1_556 S
C684 C686 1.419 . S
C685 C680 1.425 1_554 S
C685 C682 1.409 . S
C685 C683 1.415 . S
C686 H676 0.930 . S
C686 C684 1.419 . S
C686 C687 1.362 . S
C687 H677 0.930 . S
C687 C680 1.409 . S
C687 C686 1.362 . S
H688 C694 0.930 . S
H689 C697 0.930 . S
H690 C698 0.930 . S
H691 C699 0.930 . S
H692 C702 0.930 . S
H693 C703 0.930 . S
C694 H688 0.930 . S
C694 C695 1.355 . S
C694 C696 1.415 . S
C695 C694 1.355 . S
C695 C697 1.419 . S
C696 C694 1.415 . S
C696 C701 1.425 . S
C696 C703 1.409 . S
C697 H689 0.930 . S
C697 C695 1.419 . S
C697 C698 1.362 . S
C698 H690 0.930 . S
C698 C697 1.362 . S
C698 C701 1.409 . S
C699 H691 0.930 . S
C699 C700 1.355 . S
C699 C701 1.415 . S
C700 C699 1.355 . S
C700 C702 1.419 . S
C701 C696 1.425 . S
C701 C698 1.409 . S
C701 C699 1.415 . S
C702 H692 0.930 . S
C702 C700 1.419 . S
C702 C703 1.362 . S
C703 H693 0.930 . S
C703 C696 1.409 . S
C703 C702 1.362 . S
H704 C710 0.930 . S
H705 C713 0.930 . S
H706 C714 0.930 . S
H707 C715 0.930 . S
H708 C718 0.930 . S
H709 C719 0.930 . S
C710 H704 0.930 . S
C710 C711 1.355 . S
C710 C712 1.415 . S
C711 C710 1.355 . S
C711 C713 1.419 . S
C712 C710 1.415 . S
C712 C717 1.425 . S
C712 C719 1.409 . S
C713 H705 0.930 . S
C713 C711 1.419 . S
C713 C714 1.362 . S
C714 H706 0.930 . S
C714 C713 1.362 . S
C714 C717 1.409 . S
C715 H707 0.930 . S
C715 C716 1.355 . S
C715 C717 1.415 . S
C716 C715 1.355 . S
C716 C718 1.419 . S
C717 C712 1.425 . S
C717 C714 1.409 . S
C717 C715 1.415 . S
C718 H708 0.930 . S
C718 C716 1.419 . S
C718 C719 1.362 . S
C719 H709 0.930 . S
C719 C712 1.409 . S
C719 C718 1.362 . S
H720 C726 0.930 . S
H721 C729 0.930 . S
H722 C730 0.930 . S
H723 C731 0.930 . S
H724 C734 0.930 . S
H725 C735 0.930 . S
C726 H720 0.930 . S
C726 C727 1.355 1_554 S
C726 C728 1.415 . S
C727 C726 1.355 1_556 S
C727 C729 1.419 . S
C728 C726 1.415 . S
C728 C733 1.425 1_554 S
C728 C735 1.409 . S
C729 H721 0.930 . S
C729 C727 1.419 . S
C729 C730 1.362 . S
C730 H722 0.930 . S
C730 C729 1.362 . S
C730 C733 1.409 . S
C731 H723 0.930 . S
C731 C732 1.355 1_556 S
C731 C733 1.415 . S
C732 C731 1.355 1_554 S
C732 C734 1.419 . S
C733 C728 1.425 1_556 S
C733 C730 1.409 . S
C733 C731 1.415 . S
C734 H724 0.930 . S
C734 C732 1.419 . S
C734 C735 1.362 . S
C735 H725 0.930 . S
C735 C728 1.409 . S
C735 C734 1.362 . S
H736 C742 0.930 . S
H737 C745 0.930 . S
H738 C746 0.930 . S
H739 C747 0.930 . S
H740 C750 0.930 . S
H741 C751 0.930 . S
C742 H736 0.930 . S
C742 C743 1.355 . S
C742 C744 1.415 . S
C743 C742 1.355 . S
C743 C745 1.419 . S
C744 C742 1.415 . S
C744 C749 1.425 . S
C744 C751 1.409 . S
C745 H737 0.930 . S
C745 C743 1.419 . S
C745 C746 1.362 . S
C746 H738 0.930 . S
C746 C745 1.362 . S
C746 C749 1.409 . S
C747 H739 0.930 . S
C747 C748 1.355 . S
C747 C749 1.415 . S
C748 C747 1.355 . S
C748 C750 1.419 . S
C749 C744 1.425 . S
C749 C746 1.409 . S
C749 C747 1.415 . S
C750 H740 0.930 . S
C750 C748 1.419 . S
C750 C751 1.362 . S
C751 H741 0.930 . S
C751 C744 1.409 . S
C751 C750 1.362 . S
H752 C758 0.930 . S
H753 C761 0.930 . S
H754 C762 0.930 . S
H755 C763 0.930 . S
H756 C766 0.930 . S
H757 C767 0.930 . S
C758 H752 0.930 . S
C758 C759 1.355 . S
C758 C760 1.415 . S
C759 C758 1.355 . S
C759 C761 1.419 . S
C760 C758 1.415 . S
C760 C765 1.425 . S
C760 C767 1.409 . S
C761 H753 0.930 . S
C761 C759 1.419 . S
C761 C762 1.362 . S
C762 H754 0.930 . S
C762 C761 1.362 . S
C762 C765 1.409 . S
C763 H755 0.930 . S
C763 C764 1.355 . S
C763 C765 1.415 . S
C764 C763 1.355 . S
C764 C766 1.419 . S
C765 C760 1.425 . S
C765 C762 1.409 . S
C765 C763 1.415 . S
C766 H756 0.930 . S
C766 C764 1.419 . S
C766 C767 1.362 . S
C767 H757 0.930 . S
C767 C760 1.409 . S
C767 C766 1.362 . S
C487 C2 1.972 . S
C492 C242 1.973 . S
C503 C42 2.032 . S
C508 C282 2.037 . S
C519 C82 1.970 . S
C524 C322 1.970 . S
C535 C362 2.027 . S
C540 C122 2.032 . S
C551 C162 1.994 . S
C556 C402 1.989 . S
C567 C442 2.037 . S
C572 C202 2.041 . S
C583 C21 1.746 . S
C588 C141 1.741 . S
C599 C61 1.792 . S
C604 C181 1.791 . S
C615 C221 1.759 . S
C620 C101 1.800 . S
C631 C261 1.758 . S
C636 C381 1.735 . S
C647 C421 1.740 . S
C652 C301 1.747 . S
C663 C461 1.799 . S
C668 C341 1.782 . S
C679 C415 2.014 1_554 S
C684 C15 2.017 1_556 S
C695 C455 1.992 . S
C700 C55 2.005 . S
C711 C95 1.969 . S
C716 C255 1.960 . S
C727 C135 2.007 1_556 S
C732 C295 2.015 1_554 S
C743 C335 2.011 . S
C748 C175 2.001 . S
C759 C215 2.014 . S
C764 C375 2.017 . S
