# Generated by pormake.
# Topology unu, (4)-cn, num edge types: 1
# Building blocks:
#     Node 0, Type 0, BuildingBlock: TATPOV_clean_sbu_0, # of connection points: 4
#     Node 1, Type 0, BuildingBlock: TATPOV_clean_sbu_0, # of connection points: 4
#     Node 2, Type 0, BuildingBlock: TATPOV_clean_sbu_0, # of connection points: 4
#     Node 3, Type 0, BuildingBlock: TATPOV_clean_sbu_0, # of connection points: 4
#     Node 4, Type 0, BuildingBlock: TATPOV_clean_sbu_0, # of connection points: 4
#     Node 5, Type 0, BuildingBlock: TATPOV_clean_sbu_0, # of connection points: 4
#     Node 6, Type 0, BuildingBlock: TATPOV_clean_sbu_0, # of connection points: 4
#     Node 7, Type 0, BuildingBlock: TATPOV_clean_sbu_0, # of connection points: 4
#     Node 8, Type 0, BuildingBlock: TATPOV_clean_sbu_0, # of connection points: 4
#     Node 9, Type 0, BuildingBlock: TATPOV_clean_sbu_0, # of connection points: 4
#     Node 10, Type 0, BuildingBlock: TATPOV_clean_sbu_0, # of connection points: 4
#     Node 11, Type 0, BuildingBlock: TATPOV_clean_sbu_0, # of connection points: 4
#     Node 12, Type 0, BuildingBlock: TATPOV_clean_sbu_0, # of connection points: 4
#     Node 13, Type 0, BuildingBlock: TATPOV_clean_sbu_0, # of connection points: 4
#     Node 14, Type 0, BuildingBlock: TATPOV_clean_sbu_0, # of connection points: 4
#     Node 15, Type 0, BuildingBlock: TATPOV_clean_sbu_0, # of connection points: 4
#     Node 16, Type 0, BuildingBlock: TATPOV_clean_sbu_0, # of connection points: 4
#     Node 17, Type 0, BuildingBlock: TATPOV_clean_sbu_0, # of connection points: 4
#     Node 18, Type 0, BuildingBlock: TATPOV_clean_sbu_0, # of connection points: 4
#     Node 19, Type 0, BuildingBlock: TATPOV_clean_sbu_0, # of connection points: 4
#     Node 20, Type 0, BuildingBlock: TATPOV_clean_sbu_0, # of connection points: 4
#     Node 21, Type 0, BuildingBlock: TATPOV_clean_sbu_0, # of connection points: 4
#     Node 22, Type 0, BuildingBlock: TATPOV_clean_sbu_0, # of connection points: 4
#     Node 23, Type 0, BuildingBlock: TATPOV_clean_sbu_0, # of connection points: 4
#     Node 24, Type 0, BuildingBlock: TATPOV_clean_sbu_0, # of connection points: 4
#     Node 25, Type 0, BuildingBlock: TATPOV_clean_sbu_0, # of connection points: 4
#     Node 26, Type 0, BuildingBlock: TATPOV_clean_sbu_0, # of connection points: 4
#     Node 27, Type 0, BuildingBlock: TATPOV_clean_sbu_0, # of connection points: 4
#     Node 28, Type 0, BuildingBlock: TATPOV_clean_sbu_0, # of connection points: 4
#     Node 29, Type 0, BuildingBlock: TATPOV_clean_sbu_0, # of connection points: 4
#     Node 30, Type 0, BuildingBlock: TATPOV_clean_sbu_0, # of connection points: 4
#     Node 31, Type 0, BuildingBlock: TATPOV_clean_sbu_0, # of connection points: 4
#     Node 32, Type 0, BuildingBlock: TATPOV_clean_sbu_0, # of connection points: 4
#     Node 33, Type 0, BuildingBlock: TATPOV_clean_sbu_0, # of connection points: 4
#     Node 34, Type 0, BuildingBlock: TATPOV_clean_sbu_0, # of connection points: 4
#     Node 35, Type 0, BuildingBlock: TATPOV_clean_sbu_0, # of connection points: 4
#     Edge 36, Type (0, 0), BuildingBlock: OJICUG_clean_linker_0, # of connection points: 2
#     Edge 37, Type (0, 0), BuildingBlock: OJICUG_clean_linker_0, # of connection points: 2
#     Edge 38, Type (0, 0), BuildingBlock: OJICUG_clean_linker_0, # of connection points: 2
#     Edge 39, Type (0, 0), BuildingBlock: OJICUG_clean_linker_0, # of connection points: 2
#     Edge 40, Type (0, 0), BuildingBlock: OJICUG_clean_linker_0, # of connection points: 2
#     Edge 41, Type (0, 0), BuildingBlock: OJICUG_clean_linker_0, # of connection points: 2
#     Edge 42, Type (0, 0), BuildingBlock: OJICUG_clean_linker_0, # of connection points: 2
#     Edge 43, Type (0, 0), BuildingBlock: OJICUG_clean_linker_0, # of connection points: 2
#     Edge 44, Type (0, 0), BuildingBlock: OJICUG_clean_linker_0, # of connection points: 2
#     Edge 45, Type (0, 0), BuildingBlock: OJICUG_clean_linker_0, # of connection points: 2
#     Edge 46, Type (0, 0), BuildingBlock: OJICUG_clean_linker_0, # of connection points: 2
#     Edge 47, Type (0, 0), BuildingBlock: OJICUG_clean_linker_0, # of connection points: 2
#     Edge 48, Type (0, 0), BuildingBlock: OJICUG_clean_linker_0, # of connection points: 2
#     Edge 49, Type (0, 0), BuildingBlock: OJICUG_clean_linker_0, # of connection points: 2
#     Edge 50, Type (0, 0), BuildingBlock: OJICUG_clean_linker_0, # of connection points: 2
#     Edge 51, Type (0, 0), BuildingBlock: OJICUG_clean_linker_0, # of connection points: 2
#     Edge 52, Type (0, 0), BuildingBlock: OJICUG_clean_linker_0, # of connection points: 2
#     Edge 53, Type (0, 0), BuildingBlock: OJICUG_clean_linker_0, # of connection points: 2
#     Edge 54, Type (0, 0), BuildingBlock: OJICUG_clean_linker_0, # of connection points: 2
#     Edge 55, Type (0, 0), BuildingBlock: OJICUG_clean_linker_0, # of connection points: 2
#     Edge 56, Type (0, 0), BuildingBlock: OJICUG_clean_linker_0, # of connection points: 2
#     Edge 57, Type (0, 0), BuildingBlock: OJICUG_clean_linker_0, # of connection points: 2
#     Edge 58, Type (0, 0), BuildingBlock: OJICUG_clean_linker_0, # of connection points: 2
#     Edge 59, Type (0, 0), BuildingBlock: OJICUG_clean_linker_0, # of connection points: 2
#     Edge 60, Type (0, 0), BuildingBlock: OJICUG_clean_linker_0, # of connection points: 2
#     Edge 61, Type (0, 0), BuildingBlock: OJICUG_clean_linker_0, # of connection points: 2
#     Edge 62, Type (0, 0), BuildingBlock: OJICUG_clean_linker_0, # of connection points: 2
#     Edge 63, Type (0, 0), BuildingBlock: OJICUG_clean_linker_0, # of connection points: 2
#     Edge 64, Type (0, 0), BuildingBlock: OJICUG_clean_linker_0, # of connection points: 2
#     Edge 65, Type (0, 0), BuildingBlock: OJICUG_clean_linker_0, # of connection points: 2
#     Edge 66, Type (0, 0), BuildingBlock: OJICUG_clean_linker_0, # of connection points: 2
#     Edge 67, Type (0, 0), BuildingBlock: OJICUG_clean_linker_0, # of connection points: 2
#     Edge 68, Type (0, 0), BuildingBlock: OJICUG_clean_linker_0, # of connection points: 2
#     Edge 69, Type (0, 0), BuildingBlock: OJICUG_clean_linker_0, # of connection points: 2
#     Edge 70, Type (0, 0), BuildingBlock: OJICUG_clean_linker_0, # of connection points: 2
#     Edge 71, Type (0, 0), BuildingBlock: OJICUG_clean_linker_0, # of connection points: 2
#     Edge 72, Type (0, 0), BuildingBlock: OJICUG_clean_linker_0, # of connection points: 2
#     Edge 73, Type (0, 0), BuildingBlock: OJICUG_clean_linker_0, # of connection points: 2
#     Edge 74, Type (0, 0), BuildingBlock: OJICUG_clean_linker_0, # of connection points: 2
#     Edge 75, Type (0, 0), BuildingBlock: OJICUG_clean_linker_0, # of connection points: 2
#     Edge 76, Type (0, 0), BuildingBlock: OJICUG_clean_linker_0, # of connection points: 2
#     Edge 77, Type (0, 0), BuildingBlock: OJICUG_clean_linker_0, # of connection points: 2
#     Edge 78, Type (0, 0), BuildingBlock: OJICUG_clean_linker_0, # of connection points: 2
#     Edge 79, Type (0, 0), BuildingBlock: OJICUG_clean_linker_0, # of connection points: 2
#     Edge 80, Type (0, 0), BuildingBlock: OJICUG_clean_linker_0, # of connection points: 2
#     Edge 81, Type (0, 0), BuildingBlock: OJICUG_clean_linker_0, # of connection points: 2
#     Edge 82, Type (0, 0), BuildingBlock: OJICUG_clean_linker_0, # of connection points: 2
#     Edge 83, Type (0, 0), BuildingBlock: OJICUG_clean_linker_0, # of connection points: 2
#     Edge 84, Type (0, 0), BuildingBlock: OJICUG_clean_linker_0, # of connection points: 2
#     Edge 85, Type (0, 0), BuildingBlock: OJICUG_clean_linker_0, # of connection points: 2
#     Edge 86, Type (0, 0), BuildingBlock: OJICUG_clean_linker_0, # of connection points: 2
#     Edge 87, Type (0, 0), BuildingBlock: OJICUG_clean_linker_0, # of connection points: 2
#     Edge 88, Type (0, 0), BuildingBlock: OJICUG_clean_linker_0, # of connection points: 2
#     Edge 89, Type (0, 0), BuildingBlock: OJICUG_clean_linker_0, # of connection points: 2
#     Edge 90, Type (0, 0), BuildingBlock: OJICUG_clean_linker_0, # of connection points: 2
#     Edge 91, Type (0, 0), BuildingBlock: OJICUG_clean_linker_0, # of connection points: 2
#     Edge 92, Type (0, 0), BuildingBlock: OJICUG_clean_linker_0, # of connection points: 2
#     Edge 93, Type (0, 0), BuildingBlock: OJICUG_clean_linker_0, # of connection points: 2
#     Edge 94, Type (0, 0), BuildingBlock: OJICUG_clean_linker_0, # of connection points: 2
#     Edge 95, Type (0, 0), BuildingBlock: OJICUG_clean_linker_0, # of connection points: 2
#     Edge 96, Type (0, 0), BuildingBlock: OJICUG_clean_linker_0, # of connection points: 2
#     Edge 97, Type (0, 0), BuildingBlock: OJICUG_clean_linker_0, # of connection points: 2
#     Edge 98, Type (0, 0), BuildingBlock: OJICUG_clean_linker_0, # of connection points: 2
#     Edge 99, Type (0, 0), BuildingBlock: OJICUG_clean_linker_0, # of connection points: 2
#     Edge 100, Type (0, 0), BuildingBlock: OJICUG_clean_linker_0, # of connection points: 2
#     Edge 101, Type (0, 0), BuildingBlock: OJICUG_clean_linker_0, # of connection points: 2
#     Edge 102, Type (0, 0), BuildingBlock: OJICUG_clean_linker_0, # of connection points: 2
#     Edge 103, Type (0, 0), BuildingBlock: OJICUG_clean_linker_0, # of connection points: 2
#     Edge 104, Type (0, 0), BuildingBlock: OJICUG_clean_linker_0, # of connection points: 2
#     Edge 105, Type (0, 0), BuildingBlock: OJICUG_clean_linker_0, # of connection points: 2
#     Edge 106, Type (0, 0), BuildingBlock: OJICUG_clean_linker_0, # of connection points: 2
#     Edge 107, Type (0, 0), BuildingBlock: OJICUG_clean_linker_0, # of connection points: 2
# Relax obj value: 0.227
# Max RMSD: 0.265
# Mean RMSD: 0.265
data_MOF--net-unu--node1-TATPOV_clean_sbu_0--edge1-OJICUG_clean_linker_0
_symmetry_space_group_name_H-M    P1
_symmetry_Int_Tables_number       1
_symmetry_cell_setting            triclinic
loop_
_symmetry_equiv_pos_as_xyz
'x, y, z'
_cell_length_a     30.422607
_cell_length_b     30.241063
_cell_length_c     97.910093
_cell_angle_alpha  89.649709
_cell_angle_beta   90.14767
_cell_angle_gamma 119.9084
loop_
_atom_site_label
_atom_site_type_symbol
_atom_site_fract_x
_atom_site_fract_y
_atom_site_fract_z
_atom_type_partial_charge
Zn0 Zn 0.14411 0.0543 0.1057 0.0
Zn1 Zn 0.19946 0.04994 0.08901 0.0
O2 O 0.13945 0.97693 0.08815 0.0
O3 O 0.08375 -0.0044 0.09633 0.0
O4 O 0.25168 0.04035 0.07879 0.0
O5 O 0.17581 0.04953 0.12318 0.0
O6 O 0.23552 0.0782 0.10756 0.0
C7 C 0.09362 0.96549 0.08988 0.0
C8 C 0.16994 0.12897 0.08622 0.0
O9 O 0.17726 0.09743 0.07935 0.0
O10 O 0.16941 0.12591 0.09909 0.0
C11 C 0.26639 0.04693 0.06645 0.0
O12 O 0.2488 0.06751 0.05773 0.0
C13 C 0.22242 0.07307 0.12011 0.0
Zn14 Zn 0.92489 0.10425 0.10887 0.0
Zn15 Zn 0.90255 0.14666 0.08962 0.0
O16 O -0.02413 0.15991 0.08626 0.0
O17 O -0.00361 0.127 0.10348 0.0
O18 O 0.90401 0.20251 0.07756 0.0
O19 O 0.90743 0.13129 0.125 0.0
O20 O 0.87554 0.15621 0.10847 0.0
C21 C 0.00768 0.15074 0.09222 0.0
C22 C 0.84364 0.03596 0.08966 0.0
O23 O 0.85305 0.07514 0.08253 0.0
O24 O 0.86789 0.04038 0.10059 0.0
C25 C 0.93023 0.21352 0.06668 0.0
O26 O 0.94553 0.18226 0.06245 0.0
C27 C 0.87997 0.14951 0.12122 0.0
Zn28 Zn 0.86281 0.80718 0.10767 0.0
Zn29 Zn 0.80201 0.7468 0.09177 0.0
O30 O 0.77889 0.79975 0.09113 0.0
O31 O 0.85255 0.86127 0.09822 0.0
O32 O 0.74651 0.68944 0.08121 0.0
O33 O 0.8315 0.77468 0.12546 0.0
O34 O 0.80093 0.71314 0.11033 0.0
C35 C 0.81023 0.84696 0.09251 0.0
C36 C 0.91192 0.78877 0.08737 0.0
O37 O 0.87038 0.77773 0.08144 0.0
O38 O 0.91245 0.78752 0.10024 0.0
C39 C 0.73699 0.69611 0.06899 0.0
O40 O 0.76813 0.73895 0.06268 0.0
C41 C 0.81091 0.72772 0.12273 0.0
Zn42 Zn 0.01759 0.15299 0.33716 0.0
Zn43 Zn 0.03991 0.21561 0.35664 0.0
O44 O 0.96494 0.15822 0.35969 0.0
O45 O 0.94397 0.1103 0.34139 0.0
O46 O 0.0404 0.27251 0.36736 0.0
O47 O 0.04181 0.19875 0.32112 0.0
O48 O 0.07187 0.25256 0.3382 0.0
C49 C 0.93206 0.12067 0.35278 0.0
C50 C 0.09384 0.16003 0.35781 0.0
O51 O 0.08647 0.19154 0.36462 0.0
O52 O 0.06975 0.14096 0.34682 0.0
C53 C 0.0234 0.26663 0.37947 0.0
O54 O 0.0124 0.22461 0.38618 0.0
C55 C 0.07026 0.24345 0.32543 0.0
Zn56 Zn 0.78936 0.87314 0.33946 0.0
Zn57 Zn 0.73543 0.82277 0.35738 0.0
O58 O 0.794 0.80627 0.3579 0.0
O59 O 0.8513 0.87617 0.34783 0.0
O60 O 0.68564 0.7681 0.37047 0.0
O61 O 0.7522 0.8311 0.32334 0.0
O62 O 0.69446 0.8108 0.33924 0.0
C63 C 0.84018 0.83754 0.35517 0.0
C64 C 0.77139 0.93365 0.35691 0.0
O65 O 0.76163 0.89632 0.36491 0.0
O66 O 0.77372 0.92791 0.34422 0.0
C67 C 0.70491 0.75643 0.38044 0.0
O68 O 0.75317 0.78636 0.38324 0.0
C69 C 0.70625 0.81357 0.32661 0.0
Zn70 Zn 0.08052 0.91475 0.34071 0.0
Zn71 Zn 0.13512 0.912 0.35793 0.0
O72 O 0.15924 -0.01119 0.35748 0.0
O73 O 0.0873 0.97813 0.34947 0.0
O74 O 0.18847 0.91161 0.37038 0.0
O75 O 0.11797 0.91572 0.32401 0.0
O76 O 0.14049 0.87915 0.33984 0.0
C77 C 0.12898 0.00561 0.35549 0.0
C78 C 0.02333 0.84537 0.35994 0.0
O79 O 0.06325 0.87455 0.36672 0.0
O80 O 0.02645 0.84536 0.3471 0.0
C81 C 0.20434 0.94402 0.37999 0.0
O82 O 0.17896 0.96737 0.38292 0.0
C83 C 0.13535 0.88686 0.32723 0.0
Zn84 Zn 0.81413 0.95271 0.8336 0.0
Zn85 Zn 0.75701 0.93463 0.85402 0.0
O86 O 0.81816 0.00861 0.85603 0.0
O87 O 0.85947 0.02721 0.83661 0.0
O88 O 0.70358 0.94 0.8649 0.0
O89 O 0.76622 0.92691 0.81812 0.0
O90 O 0.71692 0.90061 0.83618 0.0
C91 C 0.85399 0.04049 0.84839 0.0
C92 C 0.80812 0.87691 0.85483 0.0
O93 O 0.77854 0.8859 0.862 0.0
O94 O 0.82581 0.9001 0.84358 0.0
C95 C 0.69194 0.9345 0.87749 0.0
O96 O 0.7151 0.91911 0.88599 0.0
C97 C 0.7228 0.89975 0.82329 0.0
Zn98 Zn 0.04199 0.87119 0.83841 0.0
Zn99 Zn 0.04761 0.82374 0.85694 0.0
O100 O 0.97041 0.79823 0.85647 0.0
O101 O -0.02208 0.86534 0.84568 0.0
O102 O 0.04862 0.77359 0.87074 0.0
O103 O 0.04139 0.82947 0.82296 0.0
O104 O 0.08353 0.81716 0.83934 0.0
C105 C 0.95186 0.82597 0.85286 0.0
C106 C 0.10894 0.93666 0.85665 0.0
O107 O 0.08154 0.89811 0.86423 0.0
O108 O 0.11049 0.92914 0.84405 0.0
C109 C 0.01726 0.76124 0.88056 0.0
O110 O -0.00404 0.78914 0.88278 0.0
C111 C 0.07418 0.81781 0.82661 0.0
Zn112 Zn 0.04362 0.12878 0.83413 0.0
Zn113 Zn 0.14709 0.23366 0.8582 0.0
O114 O 0.16139 0.17403 0.86213 0.0
O115 O 0.09976 0.14043 0.84789 0.0
O116 O 0.21068 0.29556 0.86472 0.0
O117 O 0.07747 0.19169 0.82183 0.0
O118 O 0.13413 0.24522 0.83724 0.0
C119 C 0.12977 0.13471 0.85575 0.0
C120 C 0.0488 0.18369 0.86076 0.0
O121 O 0.08054 0.21847 0.86853 0.0
O122 O 0.06699 0.16789 0.85172 0.0
C123 C 0.22053 0.30228 0.8774 0.0
O124 O 0.18523 0.27303 0.8862 0.0
C125 C 0.11415 0.23572 0.82518 0.0
Zn126 Zn 0.92378 0.80962 0.61013 0.0
Zn127 Zn 0.90185 0.74561 0.59121 0.0
O128 O -0.02439 0.80375 0.58746 0.0
O129 O -0.00389 0.85607 0.60482 0.0
O130 O 0.90169 0.68873 0.5805 0.0
O131 O 0.90366 0.76574 0.62663 0.0
O132 O 0.87225 0.70996 0.61002 0.0
C133 C 0.00763 0.84408 0.59359 0.0
C134 C 0.84627 0.80012 0.58991 0.0
O135 O 0.85508 0.76945 0.58316 0.0
O136 O 0.86917 0.8189 0.60106 0.0
C137 C 0.91595 0.69398 0.56813 0.0
O138 O 0.92365 0.73481 0.56132 0.0
C139 C 0.87539 0.72038 0.62274 0.0
Zn140 Zn 0.15046 0.0864 0.60523 0.0
Zn141 Zn 0.20554 0.14102 0.58811 0.0
O142 O 0.14806 0.15877 0.58802 0.0
O143 O 0.09011 0.08454 0.59589 0.0
O144 O 0.25757 0.19739 0.57576 0.0
O145 O 0.18464 0.12634 0.62194 0.0
O146 O 0.24427 0.14952 0.60644 0.0
C147 C 0.10164 0.12549 0.58959 0.0
C148 C 0.16991 0.03038 0.58718 0.0
O149 O 0.1777 0.06839 0.5797 0.0
O150 O 0.17078 0.03524 0.59998 0.0
C151 C 0.24041 0.21342 0.56625 0.0
O152 O 0.19196 0.18692 0.56321 0.0
C153 C 0.23101 0.14469 0.61899 0.0
Zn154 Zn 0.87193 0.0554 0.60573 0.0
Zn155 Zn 0.8113 0.0535 0.58923 0.0
O156 O 0.79057 0.97796 0.58899 0.0
O157 O 0.86446 -0.00802 0.59645 0.0
O158 O 0.75309 0.05126 0.57887 0.0
O159 O 0.8376 0.05481 0.62317 0.0
O160 O 0.80751 0.08498 0.60755 0.0
C161 C 0.82262 0.96316 0.59062 0.0
C162 C 0.92146 0.12389 0.58545 0.0
O163 O 0.88063 0.0931 0.57924 0.0
O164 O 0.92039 0.12559 0.5983 0.0
C165 C 0.74458 0.04721 0.56612 0.0
O166 O 0.77985 0.05094 0.5577 0.0
C167 C 0.81602 0.08001 0.62008 0.0
Zn168 Zn 0.81204 0.37751 0.44053 0.0
Zn169 Zn 0.86984 0.38461 0.42262 0.0
O170 O 0.81727 0.30823 0.42147 0.0
O171 O 0.75667 0.31146 0.43274 0.0
O172 O 0.92617 0.38559 0.41157 0.0
O173 O 0.851 0.38212 0.45733 0.0
O174 O 0.90697 0.41695 0.44085 0.0
C175 C 0.77111 0.28771 0.42505 0.0
C176 C 0.8217 0.44873 0.4209 0.0
O177 O 0.83706 0.4238 0.41379 0.0
O178 O 0.82014 0.44401 0.43374 0.0
C179 C 0.92338 0.37256 0.39915 0.0
O180 O 0.88443 0.3658 0.39177 0.0
C181 C 0.8963 0.41114 0.45358 0.0
Zn182 Zn 0.55198 0.41063 0.43862 0.0
Zn183 Zn 0.56159 0.47524 0.42253 0.0
O184 O 0.63534 0.49081 0.42428 0.0
O185 O 0.61182 0.41128 0.42898 0.0
O186 O 0.5704 0.53412 0.41034 0.0
O187 O 0.55686 0.44849 0.45574 0.0
O188 O 0.52779 0.48084 0.44045 0.0
C189 C 0.64501 0.45453 0.4245 0.0
C190 C 0.48646 0.36548 0.41863 0.0
O191 O 0.52122 0.40523 0.41268 0.0
O192 O 0.48084 0.36797 0.43129 0.0
C193 C 0.60541 0.54974 0.40141 0.0
O194 O 0.62714 0.52237 0.39903 0.0
C195 C 0.53271 0.47141 0.45294 0.0
Zn196 Zn 0.52168 0.13641 0.44063 0.0
Zn197 Zn 0.47471 0.07974 0.42217 0.0
O198 O 0.45567 0.13671 0.42071 0.0
O199 O 0.51659 0.19561 0.43312 0.0
O200 O 0.42185 0.0273 0.40951 0.0
O201 O 0.48322 0.09465 0.45673 0.0
O202 O 0.46494 0.03921 0.44028 0.0
C203 C 0.481 0.18276 0.42463 0.0
C204 C 0.5858 0.1232 0.42244 0.0
O205 O 0.54739 0.10773 0.41458 0.0
O206 O 0.58126 0.12973 0.43498 0.0
C207 C 0.4114 0.04459 0.39888 0.0
O208 O 0.44195 0.09236 0.39534 0.0
C209 C 0.46765 0.04926 0.45301 0.0
Zn210 Zn 0.67765 0.48169 0.67347 0.0
Zn211 Zn 0.70625 0.54804 0.69236 0.0
O212 O 0.63142 0.49203 0.69659 0.0
O213 O 0.60388 0.44558 0.67807 0.0
O214 O 0.71005 0.60625 0.7033 0.0
O215 O 0.70476 0.52647 0.65715 0.0
O216 O 0.73428 0.58333 0.67352 0.0
C217 C 0.59549 0.4564 0.68986 0.0
C218 C 0.75593 0.48753 0.69323 0.0
O219 O 0.75486 0.52435 0.69919 0.0
O220 O 0.72692 0.46513 0.68318 0.0
C221 C 0.69315 0.59932 0.71544 0.0
O222 O 0.68148 0.55632 0.72172 0.0
C223 C 0.73233 0.57212 0.66089 0.0
Zn224 Zn 0.45847 0.21254 0.67388 0.0
Zn225 Zn 0.39996 0.16136 0.6918 0.0
O226 O 0.46072 0.14763 0.69287 0.0
O227 O 0.51734 0.20493 0.67902 0.0
O228 O 0.34876 0.10242 0.70367 0.0
O229 O 0.41881 0.18034 0.65737 0.0
O230 O 0.36052 0.15302 0.67337 0.0
C231 C 0.50516 0.17013 0.68782 0.0
C232 C 0.44128 0.27262 0.69338 0.0
O233 O 0.42184 0.23185 0.70059 0.0
O234 O 0.45437 0.27178 0.68118 0.0
C235 C 0.36662 0.08844 0.71349 0.0
O236 O 0.41407 0.11819 0.71711 0.0
C237 C 0.37275 0.16045 0.66071 0.0
Zn238 Zn 0.77198 0.27444 0.67046 0.0
Zn239 Zn 0.80321 0.24528 0.68986 0.0
O240 O 0.82055 0.32068 0.69313 0.0
O241 O 0.81146 0.34943 0.67337 0.0
O242 O 0.85579 0.24094 0.70143 0.0
O243 O 0.78502 0.2434 0.65461 0.0
O244 O 0.80969 0.21317 0.67157 0.0
C245 C 0.82434 0.35736 0.68577 0.0
C246 C 0.6956 0.20296 0.69066 0.0
O247 O 0.73122 0.20086 0.69696 0.0
O248 O 0.70484 0.2312 0.68019 0.0
C249 C 0.86489 0.25341 0.71392 0.0
O250 O 0.83418 0.26406 0.72072 0.0
C251 C 0.80096 0.21448 0.65885 0.0
Zn252 Zn 0.46345 0.26752 0.16985 0.0
Zn253 Zn 0.40396 0.24556 0.18887 0.0
O254 O 0.46529 0.3197 0.19122 0.0
O255 O 0.50201 0.34326 0.17123 0.0
O256 O 0.35011 0.25058 0.19955 0.0
O257 O 0.4193 0.23368 0.15414 0.0
O258 O 0.36431 0.21013 0.1709 0.0
C259 C 0.49859 0.35401 0.18347 0.0
C260 C 0.46437 0.19831 0.19181 0.0
O261 O 0.42696 0.19883 0.19748 0.0
O262 O 0.48459 0.2245 0.1811 0.0
C263 C 0.34962 0.25759 0.2123 0.0
O264 O 0.38382 0.25578 0.22013 0.0
C265 C 0.37426 0.20764 0.15835 0.0
Zn266 Zn 0.70005 0.2079 0.17322 0.0
Zn267 Zn 0.71954 0.16244 0.19209 0.0
O268 O 0.6458 0.15011 0.19487 0.0
O269 O 0.62677 0.18013 0.17673 0.0
O270 O 0.71637 0.10511 0.20377 0.0
O271 O 0.72304 0.1867 0.15707 0.0
O272 O 0.74814 0.15393 0.17334 0.0
C273 C 0.61404 0.15714 0.18807 0.0
C274 C 0.77805 0.27273 0.19376 0.0
O275 O 0.7706 0.23226 0.19987 0.0
O276 O 0.75295 0.27037 0.18315 0.0
C277 C 0.68837 0.09193 0.21434 0.0
O278 O 0.67067 0.12122 0.21854 0.0
C279 C 0.74722 0.16476 0.16072 0.0
Zn280 Zn 0.7779 0.49267 0.17331 0.0
Zn281 Zn 0.80766 0.55347 0.19269 0.0
O282 O 0.82727 0.49669 0.19577 0.0
O283 O 0.81755 0.45771 0.1763 0.0
O284 O 0.85775 0.60751 0.2056 0.0
O285 O 0.79361 0.53907 0.15781 0.0
O286 O 0.81776 0.59445 0.17453 0.0
C287 C 0.83225 0.46455 0.18855 0.0
C288 C 0.69828 0.48799 0.19175 0.0
O289 O 0.73339 0.52541 0.19826 0.0
O290 O 0.70882 0.46797 0.18186 0.0
C291 C 0.86833 0.59181 0.21652 0.0
O292 O 0.83827 0.54434 0.22039 0.0
C293 C 0.80949 0.58406 0.16183 0.0
Zn294 Zn 0.59504 0.15211 0.93961 0.0
Zn295 Zn 0.57101 0.0856 0.92117 0.0
O296 O 0.64427 0.14512 0.91709 0.0
O297 O 0.66911 0.19103 0.93573 0.0
O298 O 0.5718 0.02854 0.91074 0.0
O299 O 0.5687 0.10947 0.95624 0.0
O300 O 0.54312 0.05137 0.9402 0.0
C301 C 0.67881 0.18167 0.92392 0.0
C302 C 0.51818 0.14225 0.91869 0.0
O303 O 0.52085 0.10541 0.91329 0.0
O304 O 0.54562 0.16584 0.92888 0.0
C305 C 0.58756 0.03485 0.89849 0.0
O306 O 0.5959 0.07625 0.89187 0.0
C307 C 0.5437 0.06329 0.95273 0.0
Zn308 Zn 0.82036 0.43927 0.94171 0.0
Zn309 Zn 0.88255 0.48303 0.92336 0.0
O310 O 0.82165 0.49753 0.92219 0.0
O311 O 0.78284 0.47713 0.94194 0.0
O312 O 0.93453 0.5413 0.91147 0.0
O313 O 0.86408 0.44563 0.95704 0.0
O314 O 0.92258 0.48665 0.94145 0.0
C315 C 0.78812 0.49641 0.93018 0.0
C316 C 0.8201 0.37403 0.91933 0.0
O317 O 0.85912 0.41328 0.91459 0.0
O318 O 0.79744 0.37733 0.92979 0.0
C319 C 0.91716 0.55432 0.90133 0.0
O320 O 0.86969 0.52452 0.89773 0.0
C321 C 0.91016 0.46895 0.95362 0.0
Zn322 Zn 0.51161 0.35842 0.94172 0.0
Zn323 Zn 0.48199 0.39073 0.9222 0.0
O324 O 0.46357 0.31571 0.91762 0.0
O325 O 0.47623 0.28529 0.93667 0.0
O326 O 0.4326 0.39945 0.91037 0.0
O327 O 0.48936 0.381 0.9577 0.0
O328 O 0.46981 0.41626 0.94087 0.0
C329 C 0.46104 0.2785 0.92446 0.0
C330 C 0.59107 0.43954 0.92394 0.0
O331 O 0.55577 0.43918 0.91681 0.0
O332 O 0.58074 0.40931 0.93401 0.0
C333 C 0.42302 0.386 0.89796 0.0
O334 O 0.45184 0.37207 0.89145 0.0
C335 C 0.47406 0.41068 0.95365 0.0
Zn336 Zn 0.47232 0.68669 0.78052 0.0
Zn337 Zn 0.52901 0.70461 0.76016 0.0
O338 O 0.46889 0.63009 0.75873 0.0
O339 O 0.42824 0.61146 0.77823 0.0
O340 O 0.58211 0.69889 0.74922 0.0
O341 O 0.52076 0.7159 0.79578 0.0
O342 O 0.56984 0.74171 0.77767 0.0
C343 C 0.43355 0.59802 0.76645 0.0
C344 C 0.47312 0.75749 0.75857 0.0
O345 O 0.50403 0.74968 0.75165 0.0
O346 O 0.45671 0.73568 0.77005 0.0
C347 C 0.59303 0.70353 0.73659 0.0
O348 O 0.56943 0.71844 0.72809 0.0
C349 C 0.56394 0.74353 0.79053 0.0
Zn350 Zn 0.22683 0.75473 0.77301 0.0
Zn351 Zn 0.23174 0.81107 0.75498 0.0
O352 O 0.30674 0.83068 0.75666 0.0
O353 O 0.28439 0.75269 0.76298 0.0
O354 O 0.23516 0.86426 0.74152 0.0
O355 O 0.23893 0.80179 0.78852 0.0
O356 O 0.19937 0.82049 0.77274 0.0
C357 C 0.31697 0.79494 0.75784 0.0
C358 C 0.16004 0.70201 0.75493 0.0
O359 O 0.19374 0.73656 0.74735 0.0
O360 O 0.15337 0.71634 0.76639 0.0
C361 C 0.26923 0.87917 0.73235 0.0
O362 O 0.29229 0.8528 0.73038 0.0
C363 C 0.20941 0.81835 0.78534 0.0
Zn364 Zn 0.24288 0.50976 0.77867 0.0
Zn365 Zn 0.14151 0.40901 0.75419 0.0
O366 O 0.12843 0.46957 0.751 0.0
O367 O 0.18926 0.50975 0.76562 0.0
O368 O 0.07784 0.34823 0.74712 0.0
O369 O 0.20803 0.44657 0.79055 0.0
O370 O 0.15172 0.39403 0.77499 0.0
C371 C 0.15643 0.50992 0.75762 0.0
C372 C 0.23892 0.45939 0.75211 0.0
O373 O 0.20837 0.42459 0.74416 0.0
O374 O 0.21956 0.47548 0.7607 0.0
C375 C 0.06824 0.34152 0.73443 0.0
O376 O 0.10373 0.37065 0.72566 0.0
C377 C 0.17133 0.40289 0.78708 0.0
Zn378 Zn 0.35028 0.82366 0.00327 0.0
Zn379 Zn 0.37605 0.8862 0.02265 0.0
O380 O 0.30084 0.82948 0.02606 0.0
O381 O 0.27636 0.78346 0.00743 0.0
O382 O 0.37899 0.94303 0.0341 0.0
O383 O 0.37599 0.86902 -0.01275 0.0
O384 O 0.40695 0.92393 0.00407 0.0
C385 C 0.26631 0.79317 0.01916 0.0
C386 C 0.42497 0.82524 0.02339 0.0
O387 O 0.42111 0.85917 0.03009 0.0
O388 O 0.39944 0.80654 0.01258 0.0
C389 C 0.35928 0.93443 0.04594 0.0
O390 O 0.3444 0.88983 0.05172 0.0
C391 C 0.40455 0.91402 -0.00868 0.0
Zn392 Zn 0.13871 0.54208 0.00739 0.0
Zn393 Zn 0.07895 0.49247 0.02536 0.0
O394 O 0.13758 0.47683 0.0278 0.0
O395 O 0.19744 0.53987 0.016 0.0
O396 O 0.02513 0.43698 0.03757 0.0
O397 O 0.10207 0.50331 -0.00919 0.0
O398 O 0.04276 0.47963 0.00645 0.0
C399 C 0.18397 0.50383 0.0245 0.0
C400 C 0.11693 0.60385 0.02443 0.0
O401 O 0.10107 0.5656 0.03253 0.0
O402 O 0.12804 0.59984 0.01224 0.0
C403 C 0.04052 0.42265 0.04788 0.0
O404 O 0.08804 0.45041 0.05169 0.0
C405 C 0.0557 0.48361 -0.00611 0.0
Zn406 Zn 0.40698 0.57079 0.00754 0.0
Zn407 Zn 0.47015 0.57686 0.02347 0.0
O408 O 0.48881 0.652 0.02293 0.0
O409 O 0.41294 0.63429 0.01624 0.0
O410 O 0.52975 0.58263 0.03378 0.0
O411 O 0.43978 0.57024 -0.01007 0.0
O412 O 0.47146 0.54163 0.00552 0.0
C413 C 0.4553 0.665 0.02153 0.0
C414 C 0.3617 0.50513 0.02867 0.0
O415 O 0.40306 0.53773 0.03431 0.0
O416 O 0.36087 0.50141 0.01584 0.0
C417 C 0.53601 0.58431 0.04662 0.0
O418 O 0.49816 0.57565 0.05472 0.0
C419 C 0.46122 0.54491 -0.00698 0.0
Zn420 Zn 0.13345 0.60468 0.50397 0.0
Zn421 Zn 0.07281 0.58159 0.52301 0.0
O422 O 0.13377 0.65541 0.52599 0.0
O423 O 0.17374 0.67962 0.50642 0.0
O424 O 0.01796 0.58501 0.53371 0.0
O425 O 0.09029 0.57625 0.48785 0.0
O426 O 0.03494 0.54913 0.50459 0.0
C427 C 0.16841 0.68984 0.51856 0.0
C428 C 0.13079 0.53119 0.5252 0.0
O429 O 0.09494 0.53357 0.53123 0.0
O430 O 0.15113 0.55747 0.51451 0.0
C431 C 0.01759 0.59217 0.54647 0.0
O432 O 0.05251 0.59153 0.55425 0.0
C433 C 0.04518 0.54939 0.49192 0.0
Zn434 Zn 0.36747 0.5415 0.50731 0.0
Zn435 Zn 0.3854 0.49383 0.52586 0.0
O436 O 0.31167 0.4819 0.5285 0.0
O437 O 0.29477 0.51599 0.51085 0.0
O438 O 0.38053 0.43578 0.53766 0.0
O439 O 0.38874 0.51884 0.49119 0.0
O440 O 0.41258 0.48342 0.50704 0.0
C441 C 0.28094 0.49101 0.52188 0.0
C442 C 0.44607 0.60512 0.52752 0.0
O443 O 0.43764 0.56413 0.53356 0.0
O444 O 0.42121 0.60357 0.51695 0.0
C445 C 0.35236 0.42354 0.5482 0.0
O446 O 0.33657 0.45447 0.55237 0.0
C447 C 0.41137 0.49498 0.4945 0.0
Zn448 Zn 0.4397 0.81825 0.50517 0.0
Zn449 Zn 0.47494 0.88446 0.52356 0.0
O450 O 0.49473 0.82884 0.52802 0.0
O451 O 0.48092 0.78513 0.50919 0.0
O452 O 0.52896 0.94385 0.53402 0.0
O453 O 0.4522 0.86034 0.48854 0.0
O454 O 0.47858 0.91816 0.50464 0.0
C455 C 0.49794 0.79478 0.52123 0.0
C456 C 0.36676 0.82137 0.52528 0.0
O457 O 0.40378 0.86018 0.53079 0.0
O458 O 0.37404 0.79872 0.51541 0.0
C459 C 0.53969 0.93938 0.5463 0.0
O460 O 0.50941 0.89753 0.55312 0.0
C461 C 0.46837 0.90592 0.49209 0.0
Zn462 Zn 0.27544 0.48162 0.27662 0.0
Zn463 Zn 0.24482 0.41884 0.25715 0.0
O464 O 0.31868 0.47579 0.25291 0.0
O465 O 0.34918 0.51732 0.27201 0.0
O466 O 0.24071 0.36081 0.24624 0.0
O467 O 0.24885 0.43696 0.2929 0.0
O468 O 0.21578 0.38339 0.27587 0.0
C469 C 0.35579 0.50967 0.25971 0.0
C470 C 0.19788 0.48023 0.25686 0.0
O471 O 0.19806 0.44407 0.25031 0.0
O472 O 0.2265 0.49998 0.26716 0.0
C473 C 0.25367 0.36495 0.23378 0.0
O474 O 0.26261 0.40609 0.22692 0.0
C475 C 0.2188 0.39256 0.28865 0.0
Zn476 Zn 0.47608 0.77074 0.27241 0.0
Zn477 Zn 0.54388 0.8137 0.25441 0.0
O478 O 0.48565 0.8309 0.25109 0.0
O479 O 0.43806 0.80759 0.26943 0.0
O480 O 0.59964 0.86966 0.24299 0.0
O481 O 0.51857 0.78379 0.28878 0.0
O482 O 0.57885 0.81889 0.27333 0.0
C483 C 0.44917 0.82912 0.25788 0.0
C484 C 0.48488 0.7038 0.25171 0.0
O485 O 0.52299 0.74325 0.24673 0.0
O486 O 0.46008 0.70751 0.2616 0.0
C487 C 0.5857 0.88175 0.23201 0.0
O488 O 0.53956 0.85157 0.22746 0.0
C489 C 0.56497 0.80499 0.28568 0.0
Zn490 Zn 0.19657 0.7135 0.27419 0.0
Zn491 Zn 0.1518 0.73052 0.25535 0.0
O492 O 0.13873 0.65548 0.25356 0.0
O493 O 0.17046 0.64012 0.27194 0.0
O494 O 0.09418 0.72648 0.24369 0.0
O495 O 0.17593 0.7365 0.29012 0.0
O496 O 0.14284 0.76099 0.27383 0.0
C497 C 0.14652 0.62498 0.26085 0.0
C498 C 0.26232 0.78864 0.25346 0.0
O499 O 0.22213 0.78033 0.24718 0.0
O500 O 0.25961 0.76504 0.26445 0.0
C501 C 0.0772 0.69471 0.23393 0.0
O502 O 0.10271 0.67238 0.23014 0.0
C503 C 0.15356 0.76018 0.28645 0.0
C504 C 0.24691 0.1095 0.14372 0.0
C505 C 0.26105 0.10223 0.1306 0.0
H506 H 0.27153 0.14919 0.16277 0.0
C507 C 0.31252 0.1286 0.12696 0.0
H508 H 0.20746 0.09004 0.1468 0.0
C509 C 0.34885 0.16285 0.13598 0.0
C510 C 0.33475 0.17149 0.14892 0.0
H511 H 0.32475 0.12389 0.11696 0.0
H512 H 0.38811 0.18278 0.13273 0.0
C513 C 0.28349 0.1438 0.15281 0.0
C514 C 0.81448 0.14339 0.15464 0.0
C515 C 0.77944 0.15821 0.15055 0.0
H516 H 0.87451 0.13025 0.14868 0.0
C517 C 0.77883 0.17168 0.13678 0.0
H518 H 0.81634 0.13333 0.16518 0.0
C519 C 0.81255 0.1705 0.12734 0.0
C520 C 0.8477 0.15583 0.13143 0.0
H521 H 0.75255 0.18365 0.13329 0.0
H522 H 0.81064 0.18057 0.1168 0.0
C523 C 0.84828 0.14229 0.14519 0.0
C524 C 0.83223 0.67356 0.15543 0.0
C525 C 0.81086 0.62187 0.152 0.0
H526 H 0.84849 0.74792 0.14887 0.0
C527 C 0.78656 0.60508 0.13931 0.0
H528 H 0.85068 0.68744 0.1652 0.0
C529 C 0.78433 0.63918 0.13014 0.0
C530 C 0.80674 0.69107 0.13336 0.0
H531 H 0.76868 0.56529 0.13644 0.0
H532 H 0.76588 0.62491 0.12038 0.0
C533 C 0.83034 0.70797 0.14615 0.0
C534 C 0.1453 0.32973 0.32092 0.0
C535 C 0.10666 0.28282 0.31595 0.0
H536 H 0.21181 0.40073 0.31627 0.0
C537 C 0.10623 0.27175 0.30201 0.0
H538 H 0.14709 0.33916 0.33164 0.0
C539 C 0.14367 0.30671 0.29324 0.0
C540 C 0.18234 0.35359 0.2982 0.0
H541 H 0.07723 0.23578 0.29786 0.0
H542 H 0.14186 0.29716 0.28253 0.0
C543 C 0.18277 0.36474 0.31214 0.0
C544 C 0.68466 0.8208 0.30227 0.0
C545 C 0.6689 0.80661 0.31589 0.0
H546 H 0.66474 0.83266 0.28213 0.0
C547 C 0.61881 0.79216 0.31945 0.0
H548 H 0.72315 0.83259 0.29919 0.0
C549 C 0.58555 0.79274 0.30969 0.0
C550 C 0.60158 0.80789 0.29613 0.0
H551 H 0.60551 0.78141 0.32985 0.0
H552 H 0.5472 0.78137 0.31281 0.0
C553 C 0.65142 0.82157 0.29251 0.0
C554 C 0.15317 0.81821 0.32038 0.0
C555 C 0.14188 0.85623 0.31659 0.0
H556 H 0.16404 0.75724 0.31392 0.0
C557 C 0.13213 0.86115 0.30276 0.0
H558 H 0.16012 0.81284 0.33095 0.0
C559 C 0.13399 0.82878 0.29291 0.0
C560 C 0.14566 0.79101 0.29674 0.0
H561 H 0.12273 0.88977 0.29954 0.0
H562 H 0.12723 0.83395 0.28231 0.0
C563 C 0.15489 0.78595 0.31059 0.0
C564 C 0.65107 0.81907 0.79291 0.0
C565 C 0.60541 0.78235 0.79897 0.0
H566 H 0.72349 0.88573 0.79575 0.0
C567 C 0.59793 0.78587 0.813 0.0
H568 H 0.65779 0.81783 0.78209 0.0
C569 C 0.63531 0.82516 0.8208 0.0
C570 C 0.68106 0.86176 0.81475 0.0
H571 H 0.563 0.75844 0.81798 0.0
H572 H 0.6286 0.82628 0.83162 0.0
C573 C 0.68849 0.85837 0.80071 0.0
C574 C 0.14881 0.80903 0.81975 0.0
C575 C 0.1078 0.81565 0.81609 0.0
H576 H 0.21407 0.80613 0.81295 0.0
C577 C 0.10247 0.82622 0.80236 0.0
H578 H 0.1544 0.80156 0.83026 0.0
C579 C 0.13714 0.8299 0.7925 0.0
C580 C 0.1778 0.82266 0.7961 0.0
H581 H 0.07173 0.83228 0.79919 0.0
H582 H 0.13132 0.83728 0.78201 0.0
C583 C 0.18344 0.81246 0.80985 0.0
C584 C 0.10673 0.26963 0.80234 0.0
C585 C 0.12987 0.27827 0.81528 0.0
H586 H 0.10097 0.30199 0.78338 0.0
C587 C 0.16577 0.32838 0.81893 0.0
H588 H 0.07866 0.23155 0.79919 0.0
C589 C 0.17821 0.36882 0.80989 0.0
C590 C 0.15518 0.36019 0.79694 0.0
H591 H 0.18408 0.33657 0.82883 0.0
H592 H 0.20628 0.40687 0.81306 0.0
C593 C 0.11921 0.3101 0.79328 0.0
C594 C 0.80212 0.66039 0.65527 0.0
C595 C 0.76744 0.61067 0.65098 0.0
H596 H 0.86408 0.73357 0.64983 0.0
C597 C 0.76998 0.59674 0.63744 0.0
H598 H 0.80161 0.67224 0.66566 0.0
C599 C 0.80621 0.63178 0.62839 0.0
C600 C 0.84075 0.68155 0.63266 0.0
H601 H 0.74427 0.55854 0.63384 0.0
H602 H 0.80674 0.61998 0.61799 0.0
C603 C 0.83838 0.69538 0.64622 0.0
C604 C 0.28496 0.13866 0.65348 0.0
C605 C 0.33533 0.15373 0.65007 0.0
H606 H 0.21266 0.12506 0.6464 0.0
C607 C 0.3514 0.16764 0.63646 0.0
H608 H 0.27153 0.12823 0.66388 0.0
C609 C 0.31806 0.16667 0.62651 0.0
C610 C 0.26767 0.15154 0.62988 0.0
H611 H 0.39008 0.17994 0.63347 0.0
H612 H 0.33171 0.17717 0.61613 0.0
C613 C 0.25146 0.13756 0.64348 0.0
C614 C 0.82548 0.14876 0.65311 0.0
C615 C 0.8045 0.17907 0.64919 0.0
H616 H 0.84508 0.09286 0.647 0.0
C617 C 0.78413 0.17355 0.63599 0.0
H618 H 0.84098 0.1518 0.66326 0.0
C619 C 0.78569 0.13943 0.62681 0.0
C620 C 0.80797 0.11017 0.63055 0.0
H621 H 0.76684 0.19563 0.6327 0.0
H622 H 0.7704 0.13691 0.61666 0.0
C623 C 0.82732 0.11465 0.64385 0.0
C624 C 0.01889 0.51518 0.46837 0.0
C625 C 0.00614 0.51467 0.48219 0.0
H626 H -0.00522 0.48228 0.44863 0.0
C627 C 0.95738 0.47827 0.48667 0.0
H628 H 0.05623 0.54249 0.46458 0.0
C629 C 0.92209 0.44325 0.47748 0.0
C630 C 0.93492 0.44402 0.46365 0.0
H631 H 0.94658 0.47655 0.49728 0.0
H632 H 0.88456 0.41609 0.48119 0.0
C633 C -0.01623 0.48026 0.45923 0.0
C634 C 0.44028 0.50174 0.47034 0.0
C635 C 0.441 0.48645 0.48392 0.0
H636 H 0.46933 0.51018 0.45008 0.0
C637 C 0.47344 0.46753 0.48732 0.0
H638 H 0.41596 0.51678 0.46734 0.0
C639 C 0.50453 0.46411 0.47735 0.0
C640 C 0.5038 0.47961 0.4638 0.0
H641 H 0.47526 0.45589 0.49769 0.0
H642 H 0.52874 0.44885 0.48026 0.0
C643 C 0.47133 0.49848 0.46043 0.0
C644 C 0.47485 0.02461 0.47702 0.0
C645 C 0.46287 0.01088 0.46323 0.0
H646 H 0.48723 0.00283 0.49686 0.0
C647 C 0.45301 0.96243 0.45904 0.0
H648 H 0.48308 0.0618 0.48058 0.0
C649 C 0.456 0.92886 0.46835 0.0
C650 C 0.46893 0.94296 0.48207 0.0
H651 H 0.44411 0.95078 0.44848 0.0
H652 H 0.44818 0.89182 0.46476 0.0
C653 C 0.47796 -0.00893 0.48632 0.0
C654 C 0.47492 0.00235 -0.01421 0.0
C655 C 0.43919 0.95308 -0.01855 0.0
H656 H 0.53665 0.0756 -0.01983 0.0
C657 C 0.43953 0.93988 0.96771 0.0
H658 H 0.47605 0.01356 -0.00367 0.0
C659 C 0.47467 0.97509 0.95851 0.0
C660 C 0.51016 0.02446 0.9628 0.0
H661 H 0.41285 0.90209 0.96403 0.0
H662 H 0.47338 0.96377 0.94797 0.0
C663 C 0.50999 0.03771 -0.02345 0.0
C664 C 0.93219 0.4519 -0.02312 0.0
C665 C 0.94805 0.47185 0.96363 0.0
H666 H 0.9533 0.43872 -0.00334 0.0
C667 C -0.00082 0.49173 0.96005 0.0
H668 H 0.89294 0.43563 -0.02003 0.0
C669 C 0.03388 0.49291 0.96968 0.0
C670 C 0.0181 0.47442 -0.01694 0.0
H671 H 0.01244 0.50669 0.94989 0.0
H672 H 0.07336 0.50989 0.96675 0.0
C673 C 0.96673 0.45318 -0.01354 0.0
C674 C 0.48086 0.44239 -0.02257 0.0
C675 C 0.46818 0.44369 0.96367 0.0
H676 H 0.49003 0.47413 -0.00268 0.0
C677 C 0.45468 0.47988 0.9595 0.0
H678 H 0.49188 0.41533 -0.01902 0.0
C679 C 0.45381 0.51399 0.96894 0.0
C680 C 0.46678 0.51271 -0.01732 0.0
H681 H 0.44517 0.48215 0.94895 0.0
H682 H 0.44264 0.54106 0.96549 0.0
C683 C 0.48041 0.47662 -0.01321 0.0
C684 C 0.31661 0.03252 0.04838 0.0
C685 C 0.29691 0.02399 0.06171 0.0
H686 H 0.35299 0.0118 0.03302 0.0
C687 C 0.30323 -0.01009 0.07025 0.0
H688 H 0.31263 0.05866 0.04157 0.0
C689 C 0.32585 0.9627 0.06532 0.0
C690 C 0.34342 0.96942 0.05181 0.0
H691 H 0.28865 0.9824 0.08059 0.0
H692 H 0.32801 0.9351 0.07198 0.0
C693 C 0.33998 0.0058 0.04351 0.0
C694 C 0.03584 0.34182 0.05523 0.0
C695 C 0.01077 0.36957 0.05294 0.0
H696 H 0.02953 0.27058 0.06092 0.0
C697 C 0.95801 0.34529 0.05494 0.0
H698 H 0.07637 0.35929 0.0536 0.0
C699 C 0.93112 0.29433 0.05951 0.0
C700 C 0.95644 0.26659 0.06153 0.0
H701 H 0.93784 0.36587 0.05316 0.0
H702 H 0.89068 0.27645 0.06128 0.0
C703 C 0.00892 0.29081 0.05926 0.0
C704 C 0.62994 0.63539 0.04352 0.0
C705 C 0.58807 0.60605 0.05208 0.0
H706 H 0.70989 0.68709 0.04218 0.0
C707 C 0.59651 0.60218 0.06603 0.0
H708 H 0.62478 0.63932 0.03272 0.0
C709 C 0.6456 0.62895 0.0714 0.0
C710 C 0.68697 0.6609 0.06296 0.0
H711 H 0.56503 0.57977 0.07285 0.0
H712 H 0.65069 0.62671 0.08228 0.0
C713 C 0.67878 0.66292 0.04893 0.0
C714 C 0.97383 0.32924 0.40347 0.0
C715 C 0.9565 0.35308 0.39425 0.0
H716 H 0.00814 0.28263 0.406 0.0
C717 C 0.96627 0.35275 0.38026 0.0
H718 H 0.96638 0.32838 0.41431 0.0
C719 C -0.00862 0.3276 0.37555 0.0
C720 C 0.00579 0.30098 0.3847 0.0
H721 H 0.95324 0.3707 0.37294 0.0
H722 H -0.00317 0.32654 0.36465 0.0
C723 C -0.0024 0.30287 0.39873 0.0
C724 C 0.60096 0.62681 0.3932 0.0
C725 C 0.62917 0.60248 0.39599 0.0
H726 H 0.60274 0.69489 0.38573 0.0
C727 C 0.68191 0.62972 0.39403 0.0
H728 H 0.56027 0.60667 0.39469 0.0
C729 C 0.70611 0.68014 0.38946 0.0
C730 C 0.67811 0.70434 0.38634 0.0
H731 H 0.7048 0.61227 0.39625 0.0
H732 H 0.74685 0.69978 0.38802 0.0
C733 C 0.62519 0.67714 0.38814 0.0
C734 C 0.33963 0.04451 0.38663 0.0
C735 C 0.3599 0.01666 0.39288 0.0
H736 H 0.27426 0.04312 0.37806 0.0
C737 C 0.32874 0.96351 0.39448 0.0
H738 H 0.36229 0.08549 0.38533 0.0
C739 C 0.2781 0.93896 0.39001 0.0
C740 C 0.25769 0.96758 0.38435 0.0
H741 H 0.34332 0.94114 0.39932 0.0
H742 H 0.25457 0.89809 0.39135 0.0
C743 C 0.28901 0.02036 0.38259 0.0
C744 C 0.64349 0.98054 0.87381 0.0
C745 C 0.65827 0.95326 0.88261 0.0
H746 H 0.60944 0.02747 0.87192 0.0
C747 C 0.64401 0.94803 0.89643 0.0
H748 H 0.65352 -0.01481 0.86309 0.0
C749 C 0.61792 0.97182 0.90145 0.0
C750 C 0.60621 0.00189 0.8928 0.0
H751 H 0.6545 0.92706 0.90346 0.0
H752 H 0.60936 0.96884 0.91226 0.0
C753 C 0.61813 0.00485 0.87887 0.0
C754 C 0.91717 0.63262 0.8937 0.0
C755 C 0.94457 0.60729 0.89606 0.0
H756 H 0.91901 0.70121 0.88743 0.0
C757 C -0.00275 0.63363 0.8938 0.0
H758 H 0.87665 0.61354 0.89553 0.0
C759 C 0.02164 0.68408 0.8888 0.0
C760 C -0.00606 0.70935 0.88657 0.0
H761 H 0.01921 0.61494 0.89562 0.0
H762 H 0.06199 0.70337 0.88675 0.0
C763 C 0.9416 0.68314 0.88922 0.0
C764 C 0.36344 0.3642 0.87813 0.0
C765 C 0.37355 0.37471 0.8921 0.0
H766 H 0.30708 0.33426 0.86241 0.0
C767 C 0.33383 0.36799 0.90079 0.0
H768 H 0.39325 0.3692 0.87118 0.0
C769 C 0.28435 0.34719 0.89582 0.0
C770 C 0.27368 0.33365 0.88203 0.0
H771 H 0.34025 0.37572 0.91161 0.0
H772 H 0.25409 0.33961 0.90292 0.0
C773 C 0.31405 0.34433 0.87311 0.0
C774 C 0.9402 0.6586 0.54833 0.0
C775 C 0.93406 0.66058 0.56247 0.0
H776 H 0.97023 0.63426 0.53216 0.0
C777 C 0.95093 0.63506 0.57125 0.0
H778 H 0.9276 0.67787 0.54132 0.0
C779 C -0.02363 0.61094 0.56604 0.0
C780 C -0.0156 0.61084 0.55193 0.0
H781 H 0.94703 0.63613 0.58222 0.0
H782 H -0.00892 0.59374 0.57309 0.0
C783 C 0.96457 0.63349 0.5431 0.0
C784 C 0.32329 0.29077 0.55936 0.0
C785 C 0.27044 0.26658 0.56121 0.0
H786 H 0.39112 0.3598 0.5534 0.0
C787 C 0.24569 0.29465 0.55892 0.0
H788 H 0.34327 0.27 0.56113 0.0
C789 C 0.27299 0.34586 0.55508 0.0
C790 C 0.3256 0.37004 0.55303 0.0
H791 H 0.20512 0.27734 0.56042 0.0
H792 H 0.25262 0.36634 0.55344 0.0
C793 C 0.35059 0.34197 0.55501 0.0
C794 C 0.6511 0.00186 0.57043 0.0
C795 C 0.69192 0.02752 0.56127 0.0
H796 H 0.57086 0.95365 0.57285 0.0
C797 C 0.68149 0.02921 0.54737 0.0
H798 H 0.65775 -0.0003 0.58122 0.0
C799 C 0.63142 0.00358 0.54263 0.0
C800 C 0.59094 0.97483 0.55166 0.0
H801 H 0.71208 0.04882 0.54009 0.0
H802 H 0.62478 0.00383 0.53176 0.0
C803 C 0.60121 0.97535 0.56565 0.0
C804 C 0.66536 0.66435 0.71258 0.0
C805 C 0.67607 0.63345 0.7212 0.0
H806 H 0.63033 0.71057 0.71063 0.0
C807 C 0.66419 0.63057 0.73513 0.0
H808 H 0.67385 0.66721 0.70176 0.0
C809 C 0.63984 0.65583 0.74022 0.0
C810 C 0.62595 0.68393 0.73145 0.0
H811 H 0.67208 0.60724 0.74203 0.0
H812 H 0.62975 0.6512 0.75094 0.0
C813 C 0.64019 0.68903 0.71764 0.0
C814 C 0.28725 0.00736 0.72039 0.0
C815 C 0.33993 0.03476 0.71821 0.0
H816 H 0.22313 0.93623 0.7269 0.0
C817 C 0.36803 0.00986 0.72008 0.0
H818 H 0.26475 0.02568 0.71891 0.0
C819 C 0.34426 0.9588 0.72408 0.0
C820 C 0.29192 0.93156 0.7267 0.0
H821 H 0.40857 0.02975 0.71827 0.0
H822 H 0.36739 0.94113 0.72552 0.0
C823 C 0.26351 0.95631 0.72488 0.0
C824 C 0.92497 0.27653 0.73369 0.0
C825 C 0.91501 0.26646 0.71969 0.0
H826 H -0.01875 0.307 0.74942 0.0
C827 C 0.95516 0.27485 0.71095 0.0
H828 H 0.89485 0.27022 0.74069 0.0
C829 C 0.00476 0.29665 0.7159 0.0
C830 C 0.01519 0.30964 0.72973 0.0
H831 H 0.94886 0.26744 0.70011 0.0
H832 H 0.03522 0.30528 0.70877 0.0
C833 C -0.02549 0.29747 0.73868 0.0
C834 C 0.29876 0.30114 0.20881 0.0
C835 C 0.31744 0.27751 0.21769 0.0
H836 H 0.2641 0.34766 0.20697 0.0
C837 C 0.30938 0.27787 0.23178 0.0
H838 H 0.30442 0.30167 0.19788 0.0
C839 C 0.28526 0.30335 0.23695 0.0
C840 C 0.26979 0.32998 0.22813 0.0
H841 H 0.32317 0.25988 0.23886 0.0
H842 H 0.28145 0.30462 0.24791 0.0
C843 C 0.2757 0.3276 0.214 0.0
C844 C 0.58627 0.96068 0.22492 0.0
C845 C 0.61346 0.93505 0.22714 0.0
H846 H 0.58918 0.03068 0.21958 0.0
C847 C 0.66639 0.96167 0.22543 0.0
H848 H 0.54554 0.94125 0.22637 0.0
C849 C 0.69144 0.01298 0.22117 0.0
C850 C 0.66401 0.03862 0.21921 0.0
H851 H 0.68809 0.94267 0.22719 0.0
H852 H 0.73209 0.03276 0.2196 0.0
C853 C 0.61133 0.01203 0.2212 0.0
C854 C 0.95106 0.67361 0.22031 0.0
C855 C 0.92015 0.62062 0.22232 0.0
H856 H 0.02551 0.73941 0.22271 0.0
C857 C 0.9411 0.59357 0.22868 0.0
H858 H 0.93599 0.69536 0.21536 0.0
C859 C -0.00789 0.61824 0.23238 0.0
C860 C 0.02319 0.6708 0.23017 0.0
H861 H 0.91869 0.55272 0.23028 0.0
H862 H 0.00744 0.59604 0.23694 0.0
C863 C 0.00214 0.69873 0.22443 0.0
C864 C 0.10144 0.19787 0.09021 0.0
C865 C 0.05435 0.16025 0.08528 0.0
H866 H 0.17944 0.22013 0.09302 0.0
C867 C 0.05224 0.12346 0.0762 0.0
H868 H 0.10377 0.22652 0.09722 0.0
C869 C 0.09561 0.11971 0.07377 0.0
C870 C 0.14102 0.15215 0.08065 0.0
H871 H 0.01603 0.09387 0.07235 0.0
H872 H 0.09123 0.08648 0.06841 0.0
C873 C 0.14488 0.19454 0.08762 0.0
C874 C 0.77533 0.94818 0.0934 0.0
C875 C 0.81279 0.98393 0.08458 0.0
H876 H 0.7446 0.87435 0.10281 0.0
C877 C 0.83653 0.96731 0.07534 0.0
H878 H 0.75698 0.96044 0.10072 0.0
C879 C 0.83066 0.91871 0.07684 0.0
C880 C 0.79948 0.88594 0.08721 0.0
H881 H 0.86603 -0.00564 0.06859 0.0
H882 H 0.85483 0.90904 0.07097 0.0
C883 C 0.7687 0.89915 0.09473 0.0
C884 C 0.00448 0.82515 0.08547 0.0
C885 C 0.96055 0.8256 0.08117 0.0
H886 H 0.08232 0.87034 0.0916 0.0
C887 C 0.96484 0.87162 0.07653 0.0
H888 H 0.00191 0.79018 0.08925 0.0
C889 C 0.00985 0.91746 0.07856 0.0
C890 C 0.05172 0.9175 0.08461 0.0
H891 H 0.93153 0.87324 0.07332 0.0
H892 H 0.01073 0.95306 0.07635 0.0
C893 C 0.05015 0.87102 0.08707 0.0
C894 C 0.10181 0.09861 0.37232 0.0
C895 C 0.12474 0.13882 0.36289 0.0
H896 H 0.08529 0.02266 0.37714 0.0
C897 C 0.16222 0.1411 0.35406 0.0
H898 H 0.07236 0.09578 0.37909 0.0
C899 C 0.16963 0.09924 0.35292 0.0
C900 C 0.13975 0.05528 0.36067 0.0
H901 H 0.17997 0.17166 0.3466 0.0
H902 H 0.19356 0.09878 0.34481 0.0
C903 C 0.10875 0.05651 0.37108 0.0
C904 C 0.88026 0.05177 0.3693 0.0
C905 C 0.88249 0.08406 0.35861 0.0
H906 H 0.83954 0.97621 0.37769 0.0
C907 C 0.83868 0.0711 0.35103 0.0
H908 H 0.91391 0.06103 0.37521 0.0
C909 C 0.79557 0.02325 0.35274 0.0
C910 C 0.79681 -0.01298 0.36159 0.0
H911 H 0.83967 0.09547 0.34274 0.0
H912 H 0.76462 0.0118 0.34556 0.0
C913 C 0.83737 0.00327 0.37081 0.0
C914 C 0.93036 0.78792 0.35995 0.0
C915 C 0.97286 0.83174 0.36514 0.0
H916 H 0.85361 0.75518 0.35277 0.0
C917 C 0.96667 0.87183 0.37005 0.0
H918 H 0.93445 0.75686 0.35592 0.0
C919 C 0.92145 0.87185 0.36764 0.0
C920 C 0.88121 0.83084 0.36087 0.0
H921 H -0.00112 0.9064 0.37388 0.0
H922 H 0.91932 0.90562 0.37012 0.0
C923 C 0.88445 0.78729 0.35793 0.0
C924 C 0.86469 0.86067 0.86938 0.0
C925 C 0.82661 0.84285 0.85941 0.0
H926 H 0.93582 0.86757 0.87515 0.0
C927 C 0.82231 0.80543 0.85019 0.0
H928 H 0.86924 0.89019 0.87641 0.0
C929 C 0.8605 0.79271 0.8494 0.0
C930 C 0.90285 0.81695 0.85794 0.0
H931 H 0.79346 0.79167 0.84231 0.0
H932 H 0.86015 0.76935 0.84101 0.0
C933 C 0.90292 0.84788 0.8686 0.0
C934 C 0.07308 -0.00741 0.85494 0.0
C935 C 0.11265 -0.01428 0.85981 0.0
H936 H 0.04818 0.04476 0.84954 0.0
C937 C 0.15772 0.02814 0.86431 0.0
H938 H 0.0385 0.96065 0.85109 0.0
C939 C 0.16323 0.07715 0.86358 0.0
C940 C 0.12438 0.08392 0.85788 0.0
H941 H 0.18912 0.02369 0.86779 0.0
H942 H 0.19849 0.10976 0.86684 0.0
C943 C 0.079 0.04099 0.85385 0.0
C944 C 0.96334 0.12815 0.8705 0.0
C945 C -0.00599 0.16446 0.8607 0.0
H946 H 0.89266 0.05966 0.87428 0.0
C947 C 0.97242 0.16715 0.84826 0.0
H948 H -0.02041 0.12475 0.88004 0.0
C949 C 0.92334 0.12957 0.84484 0.0
C950 C 0.89496 0.08903 0.85388 0.0
H951 H -0.00433 0.19449 0.84048 0.0
H952 H 0.90966 0.12934 0.8346 0.0
C953 C 0.91371 0.09067 0.86714 0.0
C954 C 0.84616 0.91093 0.57644 0.0
C955 C 0.81247 0.91319 0.58579 0.0
H956 H 0.87975 0.86782 0.56939 0.0
C957 C 0.77705 0.86874 0.59259 0.0
H958 H 0.87373 0.94502 0.57108 0.0
C959 C 0.78093 0.82465 0.59174 0.0
C960 C 0.8199 0.82493 0.58398 0.0
H961 H 0.75079 0.8699 0.59984 0.0
H962 H 0.75849 0.79321 0.59864 0.0
C963 C 0.84898 0.86644 0.57529 0.0
C964 C 0.09611 0.96318 0.57492 0.0
C965 C 0.14084 0.97738 0.58231 0.0
H966 H 0.01717 0.90778 0.57291 0.0
C967 C 0.14459 0.93983 0.58997 0.0
H968 H 0.09184 -0.00864 0.56908 0.0
C969 C 0.10147 0.89255 0.59246 0.0
C970 C 0.05481 0.88157 0.58684 0.0
H971 H 0.17864 0.94985 0.59577 0.0
H972 H 0.10347 0.86695 0.59991 0.0
C973 C 0.05309 0.91545 0.57726 0.0
C974 C 0.05978 0.17814 0.58669 0.0
C975 C 0.061 0.13327 0.58405 0.0
H976 H 0.01221 0.2114 0.58857 0.0
C977 C 0.01964 0.09265 0.57749 0.0
H978 H 0.09158 0.2101 0.59162 0.0
C979 C -0.02471 0.09437 0.5751 0.0
C980 C 0.97099 0.13579 0.57984 0.0
H981 H 0.02027 0.05799 0.57513 0.0
H982 H 0.94222 0.06012 0.57146 0.0
C983 C 0.01471 0.17923 0.5847 0.0
C984 C 0.69465 0.42201 0.41233 0.0
C985 C 0.69374 0.46168 0.41947 0.0
H986 H 0.73937 0.38954 0.40586 0.0
C987 C 0.73968 0.50538 0.42279 0.0
H988 H 0.65959 0.38837 0.4094 0.0
C989 C 0.78553 0.50586 0.42086 0.0
C990 C 0.78576 0.46313 0.41532 0.0
H991 H 0.73984 0.53674 0.42812 0.0
H992 H 0.81985 0.53671 0.42522 0.0
C993 C 0.74051 0.42329 0.40998 0.0
C994 C 0.51315 0.26253 0.41126 0.0
C995 C 0.47304 0.22256 0.41845 0.0
H996 H 0.54692 0.33989 0.40451 0.0
C997 C 0.42987 0.22585 0.42155 0.0
H998 H 0.54666 0.26036 0.40869 0.0
C999 C 0.43001 0.27166 0.4192 0.0
C1000 C 0.4733 0.31432 0.41373 0.0
H1001 H 0.39849 0.19522 0.42704 0.0
H1002 H 0.39914 0.27575 0.42327 0.0
C1003 C 0.51286 0.30782 0.40866 0.0
C1004 C 0.69817 0.23637 0.40999 0.0
C1005 C 0.73301 0.23808 0.41969 0.0
H1006 H 0.6224 0.19408 0.40237 0.0
C1007 C 0.72328 0.19342 0.42657 0.0
H1008 H 0.70513 0.27076 0.40464 0.0
C1009 C 0.67591 0.14941 0.42525 0.0
C1010 C 0.63793 0.15021 0.41718 0.0
H1011 H 0.74972 0.19423 0.43414 0.0
H1012 H 0.66653 0.11755 0.43207 0.0
C1013 C 0.65104 0.19218 0.40854 0.0
C1014 C 0.83081 0.48284 0.68656 0.0
C1015 C 0.79358 0.47228 0.69649 0.0
H1016 H 0.87116 0.45368 0.67539 0.0
C1017 C 0.78042 0.43179 0.70566 0.0
H1018 H 0.84101 0.51356 0.67926 0.0
C1019 C 0.7984 0.39776 0.70358 0.0
C1020 C 0.82851 0.40345 0.69209 0.0
H1021 H 0.75113 0.42246 0.71324 0.0
H1022 H 0.78263 0.36326 0.70971 0.0
C1023 C 0.84793 0.44841 0.68429 0.0
C1024 C 0.50293 0.33981 0.7083 0.0
C1025 C 0.4618 0.32375 0.69929 0.0
H1026 H 0.57984 0.39736 0.71229 0.0
C1027 C 0.45903 0.36049 0.69103 0.0
H1028 H 0.5061 0.31225 0.71474 0.0
C1029 C 0.50179 0.40864 0.68931 0.0
C1030 C 0.54665 0.42113 0.69633 0.0
H1031 H 0.42754 0.34909 0.68404 0.0
H1032 H 0.50177 0.43335 0.68125 0.0
C1033 C 0.54552 0.38851 0.70677 0.0
C1034 C 0.62678 0.20032 0.70422 0.0
C1035 C 0.64287 0.17525 0.69525 0.0
H1036 H 0.56804 0.21737 0.70887 0.0
C1037 C 0.60737 0.13746 0.68657 0.0
H1038 H 0.65392 0.23059 0.71071 0.0
C1039 C 0.55846 0.13026 0.6854 0.0
C1040 C 0.5447 0.16046 0.69303 0.0
H1041 H 0.61943 0.11856 0.67936 0.0
H1042 H 0.53361 0.10552 0.67747 0.0
C1043 C 0.57781 0.19306 0.70307 0.0
C1044 C 0.52112 0.11894 0.18661 0.0
C1045 C 0.56584 0.14738 0.19408 0.0
H1046 H 0.44961 0.11085 0.18095 0.0
C1047 C 0.56694 0.17966 0.2045 0.0
H1048 H 0.51971 0.09419 0.17845 0.0
C1049 C 0.52694 0.18977 0.20581 0.0
C1050 C 0.4856 0.16714 0.19681 0.0
H1051 H 0.60143 0.2025 0.21025 0.0
H1052 H 0.5319 0.22062 0.21239 0.0
C1053 C 0.48083 0.12824 0.18812 0.0
C1054 C 0.85307 0.35465 0.18899 0.0
C1055 C 0.81515 0.32397 0.19841 0.0
H1056 H 0.88912 0.42617 0.17837 0.0
C1057 C 0.79904 0.34732 0.20795 0.0
H1058 H 0.86597 0.33732 0.18151 0.0
C1059 C 0.81286 0.39867 0.20626 0.0
C1060 C 0.84213 0.42617 0.19491 0.0
H1061 H 0.76956 0.32429 0.21525 0.0
H1062 H 0.79405 0.41389 0.21245 0.0
C1063 C 0.86608 0.4055 0.18712 0.0
C1064 C 0.61686 0.431 0.20343 0.0
C1065 C 0.64434 0.47026 0.19398 0.0
H1066 H 0.54632 0.36317 0.2077 0.0
C1067 C 0.61837 0.47872 0.18333 0.0
H1068 H 0.63637 0.42324 0.21155 0.0
C1069 C 0.56734 0.44387 0.18091 0.0
C1070 C 0.5415 0.40048 0.18925 0.0
H1071 H 0.63908 0.50844 0.17582 0.0
H1072 H 0.54986 0.44775 0.17167 0.0
C1073 C 0.56531 0.39653 0.20117 0.0
C1074 C 0.49951 0.19944 0.90504 0.0
C1075 C 0.4821 0.15801 0.91413 0.0
H1076 H 0.50395 0.27123 0.90095 0.0
C1077 C 0.44284 0.14873 0.92325 0.0
H1078 H 0.53025 0.20765 0.89805 0.0
C1079 C 0.42866 0.18562 0.92515 0.0
C1080 C 0.45297 0.23158 0.91775 0.0
H1081 H 0.42919 0.11723 0.93044 0.0
H1082 H 0.40412 0.18133 0.93367 0.0
C1083 C 0.48455 0.23602 0.90676 0.0
C1084 C 0.75981 0.30174 0.90539 0.0
C1085 C 0.80199 0.32251 0.91411 0.0
H1086 H 0.68653 0.2373 0.90143 0.0
C1087 C 0.81 0.28966 0.92263 0.0
H1088 H 0.75246 0.32653 0.89891 0.0
C1089 C 0.77159 0.23914 0.92444 0.0
C1090 C 0.72569 0.2207 0.91736 0.0
H1091 H 0.84202 0.30505 0.92957 0.0
H1092 H 0.7752 0.21674 0.93258 0.0
C1093 C 0.72187 0.25066 0.90692 0.0
C1094 C 0.72351 0.52176 0.93409 0.0
C1095 C 0.74712 0.50443 0.92502 0.0
H1096 H 0.65351 0.51583 0.94032 0.0
C1097 C 0.72179 0.47989 0.91293 0.0
H1098 H 0.74231 0.54078 0.94346 0.0
C1099 C 0.6705 0.46502 0.91121 0.0
C1100 C 0.6449 0.47557 0.92143 0.0
H1101 H 0.73917 0.46585 0.90582 0.0
H1102 H 0.64956 0.43973 0.90289 0.0
C1103 C 0.67271 0.50761 0.93226 0.0
C1104 C 0.36677 0.76635 0.74443 0.0
C1105 C 0.36605 0.80138 0.75364 0.0
H1106 H 0.40554 0.72729 0.73806 0.0
C1107 C 0.4098 0.83338 0.7611 0.0
H1108 H 0.33314 0.74128 0.73862 0.0
C1109 C 0.45103 0.82498 0.76087 0.0
C1110 C 0.44889 0.78513 0.75304 0.0
H1111 H 0.40974 0.86037 0.76831 0.0
H1112 H 0.48158 0.84512 0.76811 0.0
C1113 C 0.40843 0.7588 0.74398 0.0
C1114 C 0.13786 0.61767 0.74381 0.0
C1115 C 0.15565 0.65111 0.75497 0.0
H1116 H 0.12244 0.54475 0.73595 0.0
C1117 C 0.17138 0.63644 0.76683 0.0
H1118 H 0.1257 0.62825 0.73455 0.0
C1119 C 0.17008 0.59014 0.76757 0.0
C1120 C 0.15258 0.55649 0.75654 0.0
H1121 H 0.18589 0.66137 0.7756 0.0
H1122 H 0.18337 0.58092 0.77686 0.0
C1123 C 0.13571 0.57006 0.74465 0.0
C1124 C 0.37618 0.548 0.74728 0.0
C1125 C 0.39222 0.5498 0.76088 0.0
H1126 H 0.3127 0.51538 0.73354 0.0
C1127 C 0.36104 0.51031 0.7699 0.0
H1128 H 0.39942 0.57809 0.74012 0.0
C1129 C 0.31199 0.47402 0.76602 0.0
C1130 C 0.29328 0.47698 0.75313 0.0
H1131 H 0.37258 0.51054 0.78039 0.0
H1132 H 0.28671 0.4476 0.77368 0.0
C1133 C 0.32663 0.51186 0.74345 0.0
C1134 C 0.49104 0.80215 0.02044 0.0
C1135 C 0.45218 0.80022 0.02862 0.0
H1136 H 0.52319 0.75937 0.01187 0.0
C1137 C 0.4249 0.75823 0.0373 0.0
H1138 H 0.51195 0.83394 0.01351 0.0
C1139 C 0.43001 0.71508 0.03599 0.0
C1140 C 0.46373 0.7144 0.02636 0.0
H1141 H 0.39419 0.75558 0.04349 0.0
H1142 H 0.40406 0.68061 0.0415 0.0
C1143 C 0.49701 0.75932 0.01936 0.0
C1144 C 0.13208 0.69014 0.02008 0.0
C1145 C 0.1366 0.65647 0.02918 0.0
H1146 H 0.17182 0.76166 0.00949 0.0
C1147 C 0.17759 0.67627 0.03834 0.0
H1148 H 0.10077 0.67578 0.01292 0.0
C1149 C 0.2183 0.72594 0.03645 0.0
C1150 C 0.21785 0.75581 0.02545 0.0
H1151 H 0.18225 0.6511 0.04538 0.0
H1152 H 0.25273 0.73789 0.04227 0.0
C1153 C 0.17299 0.73922 0.01801 0.0
C1154 C 0.30849 0.53406 0.03966 0.0
C1155 C 0.31279 0.49276 0.03479 0.0
H1156 H 0.26361 0.57056 0.03953 0.0
C1157 C 0.26887 0.449 0.03016 0.0
H1158 H 0.34166 0.56845 0.04318 0.0
C1159 C 0.22385 0.45012 0.02818 0.0
C1160 C 0.22281 0.49508 0.03077 0.0
H1161 H 0.27133 0.41684 0.02627 0.0
H1162 H 0.19211 0.41828 0.02319 0.0
C1163 C 0.26408 0.53571 0.03733 0.0
C1164 C 0.14775 0.46153 0.52122 0.0
C1165 C 0.15153 0.49948 0.53013 0.0
H1166 H 0.18768 0.42852 0.51161 0.0
C1167 C 0.19185 0.52111 0.53946 0.0
H1168 H 0.11727 0.44486 0.51381 0.0
C1169 C 0.23211 0.51135 0.53828 0.0
C1170 C 0.23215 0.48021 0.5277 0.0
H1171 H 0.19601 0.55119 0.54623 0.0
H1172 H 0.26602 0.53372 0.5443 0.0
C1173 C 0.1882 0.45239 0.51989 0.0
C1174 C 0.5216 0.68665 0.52285 0.0
C1175 C 0.48352 0.65617 0.53227 0.0
H1176 H 0.55653 0.7572 0.51174 0.0
C1177 C 0.46682 0.67988 0.54153 0.0
H1178 H 0.53508 0.66915 0.51559 0.0
C1179 C 0.47968 0.73083 0.53944 0.0
C1180 C 0.50883 0.75768 0.52801 0.0
H1181 H 0.43728 0.65713 0.54885 0.0
H1182 H 0.46021 0.746 0.54537 0.0
C1183 C 0.53359 0.73705 0.52055 0.0
C1184 C 0.28782 0.76439 0.53782 0.0
C1185 C 0.31388 0.80493 0.52861 0.0
H1186 H 0.21807 0.6958 0.54212 0.0
C1187 C 0.28633 0.81516 0.51881 0.0
H1188 H 0.30857 0.75532 0.54527 0.0
C1189 C 0.23499 0.78055 0.51675 0.0
C1190 C 0.21055 0.73586 0.52466 0.0
H1191 H 0.30593 0.84585 0.51147 0.0
H1192 H 0.21619 0.78554 0.50795 0.0
C1193 C 0.236 0.73026 0.53596 0.0
C1194 C 0.17813 0.53709 0.24312 0.0
C1195 C 0.16383 0.49981 0.25338 0.0
H1196 H 0.18125 0.60704 0.23724 0.0
C1197 C 0.12948 0.49599 0.26349 0.0
H1198 H 0.20532 0.54117 0.23538 0.0
C1199 C 0.11634 0.53384 0.26467 0.0
C1200 C 0.13703 0.57557 0.25566 0.0
H1201 H 0.1185 0.46782 0.27159 0.0
H1202 H 0.09551 0.53393 0.27362 0.0
C1203 C 0.16436 0.5748 0.24421 0.0
C1204 C 0.4298 0.62567 0.23894 0.0
C1205 C 0.4713 0.65199 0.24771 0.0
H1206 H 0.35987 0.55638 0.23567 0.0
C1207 C 0.48271 0.62422 0.25721 0.0
H1208 H 0.42003 0.64647 0.23164 0.0
C1209 C 0.44748 0.57315 0.25987 0.0
C1210 C 0.40142 0.54924 0.25273 0.0
H1211 H 0.5144 0.64394 0.26415 0.0
H1212 H 0.45322 0.55467 0.26867 0.0
C1213 C 0.39515 0.57405 0.24133 0.0
C1214 C 0.38349 0.81227 0.24054 0.0
C1215 C 0.41291 0.84181 0.25157 0.0
H1216 H 0.30884 0.77312 0.23191 0.0
C1217 C 0.39595 0.86947 0.25919 0.0
H1218 H 0.39581 0.79039 0.23456 0.0
C1219 C 0.34674 0.86079 0.25736 0.0
C1220 C 0.31361 0.8229 0.24829 0.0
H1221 H 0.41808 0.89252 0.26773 0.0
H1222 H 0.33205 0.87682 0.26472 0.0
C1223 C 0.33371 0.80272 0.23892 0.0
loop_
_geom_bond_atom_site_label_1
_geom_bond_atom_site_label_2
_geom_bond_distance
_geom_bond_site_symmetry_2
_ccdc_geom_bond_type
Zn0 O3 2.031 . S
Zn0 O5 2.049 . S
Zn0 O10 2.067 . S
Zn1 O2 1.962 1_545 S
Zn1 O4 1.986 . S
Zn1 O6 1.996 . S
Zn1 O9 1.943 . S
O2 Zn1 1.962 1_565 S
O2 C7 1.254 . S
O3 Zn0 2.031 . S
O3 C7 1.269 1_545 S
O4 Zn1 1.986 . S
O4 C11 1.262 . S
O5 Zn0 2.049 . S
O5 C13 1.260 . S
O6 Zn1 1.996 . S
O6 C13 1.257 . S
C7 O2 1.254 . S
C7 O3 1.269 1_565 S
C8 O9 1.249 . S
C8 O10 1.270 . S
O9 Zn1 1.943 . S
O9 C8 1.249 . S
O10 Zn0 2.067 . S
O10 C8 1.270 . S
C11 O4 1.262 . S
C11 O12 1.232 . S
O12 C11 1.232 . S
C13 O5 1.260 . S
C13 O6 1.257 . S
Zn14 O17 2.031 . S
Zn14 O19 2.049 . S
Zn14 O24 2.067 . S
Zn15 O16 1.962 1_655 S
Zn15 O18 1.986 . S
Zn15 O20 1.996 . S
Zn15 O23 1.943 . S
O16 Zn15 1.962 1_455 S
O16 C21 1.254 . S
O17 Zn14 2.031 . S
O17 C21 1.269 1_655 S
O18 Zn15 1.986 . S
O18 C25 1.262 . S
O19 Zn14 2.049 . S
O19 C27 1.260 . S
O20 Zn15 1.996 . S
O20 C27 1.257 . S
C21 O16 1.254 . S
C21 O17 1.269 1_455 S
C22 O23 1.249 . S
C22 O24 1.270 . S
O23 Zn15 1.943 . S
O23 C22 1.249 . S
O24 Zn14 2.067 . S
O24 C22 1.270 . S
C25 O18 1.262 . S
C25 O26 1.232 . S
O26 C25 1.232 . S
C27 O19 1.260 . S
C27 O20 1.257 . S
Zn28 O31 2.031 . S
Zn28 O33 2.049 . S
Zn28 O38 2.067 . S
Zn29 O30 1.962 . S
Zn29 O32 1.986 . S
Zn29 O34 1.996 . S
Zn29 O37 1.943 . S
O30 Zn29 1.962 . S
O30 C35 1.254 . S
O31 Zn28 2.031 . S
O31 C35 1.269 . S
O32 Zn29 1.986 . S
O32 C39 1.262 . S
O33 Zn28 2.049 . S
O33 C41 1.260 . S
O34 Zn29 1.996 . S
O34 C41 1.257 . S
C35 O30 1.254 . S
C35 O31 1.269 . S
C36 O37 1.249 . S
C36 O38 1.270 . S
O37 Zn29 1.943 . S
O37 C36 1.249 . S
O38 Zn28 2.067 . S
O38 C36 1.270 . S
C39 O32 1.262 . S
C39 O40 1.232 . S
O40 C39 1.232 . S
C41 O33 1.260 . S
C41 O34 1.257 . S
Zn42 O45 2.031 . S
Zn42 O47 2.049 . S
Zn42 O52 2.067 . S
Zn43 O44 1.962 1_455 S
Zn43 O46 1.986 . S
Zn43 O48 1.996 . S
Zn43 O51 1.943 . S
O44 Zn43 1.962 1_655 S
O44 C49 1.254 . S
O45 Zn42 2.031 . S
O45 C49 1.269 1_455 S
O46 Zn43 1.986 . S
O46 C53 1.262 . S
O47 Zn42 2.049 . S
O47 C55 1.260 . S
O48 Zn43 1.996 . S
O48 C55 1.257 . S
C49 O44 1.254 . S
C49 O45 1.269 1_655 S
C50 O51 1.249 . S
C50 O52 1.270 . S
O51 Zn43 1.943 . S
O51 C50 1.249 . S
O52 Zn42 2.067 . S
O52 C50 1.270 . S
C53 O46 1.262 . S
C53 O54 1.232 . S
O54 C53 1.232 . S
C55 O47 1.260 . S
C55 O48 1.257 . S
Zn56 O59 2.031 . S
Zn56 O61 2.049 . S
Zn56 O66 2.067 . S
Zn57 O58 1.962 . S
Zn57 O60 1.986 . S
Zn57 O62 1.996 . S
Zn57 O65 1.943 . S
O58 Zn57 1.962 . S
O58 C63 1.254 . S
O59 Zn56 2.031 . S
O59 C63 1.269 . S
O60 Zn57 1.986 . S
O60 C67 1.262 . S
O61 Zn56 2.049 . S
O61 C69 1.260 . S
O62 Zn57 1.996 . S
O62 C69 1.257 . S
C63 O58 1.254 . S
C63 O59 1.269 . S
C64 O65 1.249 . S
C64 O66 1.270 . S
O65 Zn57 1.943 . S
O65 C64 1.249 . S
O66 Zn56 2.067 . S
O66 C64 1.270 . S
C67 O60 1.262 . S
C67 O68 1.232 . S
O68 C67 1.232 . S
C69 O61 1.260 . S
C69 O62 1.257 . S
Zn70 O73 2.031 . S
Zn70 O75 2.049 . S
Zn70 O80 2.067 . S
Zn71 O72 1.962 1_565 S
Zn71 O74 1.986 . S
Zn71 O76 1.996 . S
Zn71 O79 1.943 . S
O72 Zn71 1.962 1_545 S
O72 C77 1.254 . S
O73 Zn70 2.031 . S
O73 C77 1.269 1_565 S
O74 Zn71 1.986 . S
O74 C81 1.262 . S
O75 Zn70 2.049 . S
O75 C83 1.260 . S
O76 Zn71 1.996 . S
O76 C83 1.257 . S
C77 O72 1.254 . S
C77 O73 1.269 1_545 S
C78 O79 1.249 . S
C78 O80 1.270 . S
O79 Zn71 1.943 . S
O79 C78 1.249 . S
O80 Zn70 2.067 . S
O80 C78 1.270 . S
C81 O74 1.262 . S
C81 O82 1.232 . S
O82 C81 1.232 . S
C83 O75 1.260 . S
C83 O76 1.257 . S
Zn84 O87 2.031 . S
Zn84 O89 2.049 . S
Zn84 O94 2.067 . S
Zn85 O86 1.962 1_565 S
Zn85 O88 1.986 . S
Zn85 O90 1.996 . S
Zn85 O93 1.943 . S
O86 Zn85 1.962 1_545 S
O86 C91 1.254 . S
O87 Zn84 2.031 . S
O87 C91 1.269 1_565 S
O88 Zn85 1.986 . S
O88 C95 1.262 . S
O89 Zn84 2.049 . S
O89 C97 1.260 . S
O90 Zn85 1.996 . S
O90 C97 1.257 . S
C91 O86 1.254 . S
C91 O87 1.269 1_545 S
C92 O93 1.249 . S
C92 O94 1.270 . S
O93 Zn85 1.943 . S
O93 C92 1.249 . S
O94 Zn84 2.067 . S
O94 C92 1.270 . S
C95 O88 1.262 . S
C95 O96 1.232 . S
O96 C95 1.232 . S
C97 O89 1.260 . S
C97 O90 1.257 . S
Zn98 O101 2.031 . S
Zn98 O103 2.049 . S
Zn98 O108 2.067 . S
Zn99 O100 1.962 1_455 S
Zn99 O102 1.986 . S
Zn99 O104 1.996 . S
Zn99 O107 1.943 . S
O100 Zn99 1.962 1_655 S
O100 C105 1.254 . S
O101 Zn98 2.031 . S
O101 C105 1.269 1_455 S
O102 Zn99 1.986 . S
O102 C109 1.262 . S
O103 Zn98 2.049 . S
O103 C111 1.260 . S
O104 Zn99 1.996 . S
O104 C111 1.257 . S
C105 O100 1.254 . S
C105 O101 1.269 1_655 S
C106 O107 1.249 . S
C106 O108 1.270 . S
O107 Zn99 1.943 . S
O107 C106 1.249 . S
O108 Zn98 2.067 . S
O108 C106 1.270 . S
C109 O102 1.262 . S
C109 O110 1.232 . S
O110 C109 1.232 . S
C111 O103 1.260 . S
C111 O104 1.257 . S
Zn112 O115 2.031 . S
Zn112 O117 2.049 . S
Zn112 O122 2.067 . S
Zn113 O114 1.962 . S
Zn113 O116 1.986 . S
Zn113 O118 1.996 . S
Zn113 O121 1.943 . S
O114 Zn113 1.962 . S
O114 C119 1.254 . S
O115 Zn112 2.031 . S
O115 C119 1.269 . S
O116 Zn113 1.986 . S
O116 C123 1.262 . S
O117 Zn112 2.049 . S
O117 C125 1.260 . S
O118 Zn113 1.996 . S
O118 C125 1.257 . S
C119 O114 1.254 . S
C119 O115 1.269 . S
C120 O121 1.249 . S
C120 O122 1.270 . S
O121 Zn113 1.943 . S
O121 C120 1.249 . S
O122 Zn112 2.067 . S
O122 C120 1.270 . S
C123 O116 1.262 . S
C123 O124 1.232 . S
O124 C123 1.232 . S
C125 O117 1.260 . S
C125 O118 1.257 . S
Zn126 O129 2.031 . S
Zn126 O131 2.049 . S
Zn126 O136 2.067 . S
Zn127 O128 1.962 1_655 S
Zn127 O130 1.986 . S
Zn127 O132 1.996 . S
Zn127 O135 1.943 . S
O128 Zn127 1.962 1_455 S
O128 C133 1.254 . S
O129 Zn126 2.031 . S
O129 C133 1.269 1_655 S
O130 Zn127 1.986 . S
O130 C137 1.262 . S
O131 Zn126 2.049 . S
O131 C139 1.260 . S
O132 Zn127 1.996 . S
O132 C139 1.257 . S
C133 O128 1.254 . S
C133 O129 1.269 1_455 S
C134 O135 1.249 . S
C134 O136 1.270 . S
O135 Zn127 1.943 . S
O135 C134 1.249 . S
O136 Zn126 2.067 . S
O136 C134 1.270 . S
C137 O130 1.262 . S
C137 O138 1.232 . S
O138 C137 1.232 . S
C139 O131 1.260 . S
C139 O132 1.257 . S
Zn140 O143 2.031 . S
Zn140 O145 2.049 . S
Zn140 O150 2.067 . S
Zn141 O142 1.962 . S
Zn141 O144 1.986 . S
Zn141 O146 1.996 . S
Zn141 O149 1.943 . S
O142 Zn141 1.962 . S
O142 C147 1.254 . S
O143 Zn140 2.031 . S
O143 C147 1.269 . S
O144 Zn141 1.986 . S
O144 C151 1.262 . S
O145 Zn140 2.049 . S
O145 C153 1.260 . S
O146 Zn141 1.996 . S
O146 C153 1.257 . S
C147 O142 1.254 . S
C147 O143 1.269 . S
C148 O149 1.249 . S
C148 O150 1.270 . S
O149 Zn141 1.943 . S
O149 C148 1.249 . S
O150 Zn140 2.067 . S
O150 C148 1.270 . S
C151 O144 1.262 . S
C151 O152 1.232 . S
O152 C151 1.232 . S
C153 O145 1.260 . S
C153 O146 1.257 . S
Zn154 O157 2.031 . S
Zn154 O159 2.049 . S
Zn154 O164 2.067 . S
Zn155 O156 1.962 1_545 S
Zn155 O158 1.986 . S
Zn155 O160 1.996 . S
Zn155 O163 1.943 . S
O156 Zn155 1.962 1_565 S
O156 C161 1.254 . S
O157 Zn154 2.031 . S
O157 C161 1.269 1_545 S
O158 Zn155 1.986 . S
O158 C165 1.262 . S
O159 Zn154 2.049 . S
O159 C167 1.260 . S
O160 Zn155 1.996 . S
O160 C167 1.257 . S
C161 O156 1.254 . S
C161 O157 1.269 1_565 S
C162 O163 1.249 . S
C162 O164 1.270 . S
O163 Zn155 1.943 . S
O163 C162 1.249 . S
O164 Zn154 2.067 . S
O164 C162 1.270 . S
C165 O158 1.262 . S
C165 O166 1.232 . S
O166 C165 1.232 . S
C167 O159 1.260 . S
C167 O160 1.257 . S
Zn168 O171 2.031 . S
Zn168 O173 2.049 . S
Zn168 O178 2.067 . S
Zn169 O170 1.962 . S
Zn169 O172 1.986 . S
Zn169 O174 1.996 . S
Zn169 O177 1.943 . S
O170 Zn169 1.962 . S
O170 C175 1.254 . S
O171 Zn168 2.031 . S
O171 C175 1.269 . S
O172 Zn169 1.986 . S
O172 C179 1.262 . S
O173 Zn168 2.049 . S
O173 C181 1.260 . S
O174 Zn169 1.996 . S
O174 C181 1.257 . S
C175 O170 1.254 . S
C175 O171 1.269 . S
C176 O177 1.249 . S
C176 O178 1.270 . S
O177 Zn169 1.943 . S
O177 C176 1.249 . S
O178 Zn168 2.067 . S
O178 C176 1.270 . S
C179 O172 1.262 . S
C179 O180 1.232 . S
O180 C179 1.232 . S
C181 O173 1.260 . S
C181 O174 1.257 . S
Zn182 O185 2.031 . S
Zn182 O187 2.049 . S
Zn182 O192 2.067 . S
Zn183 O184 1.962 . S
Zn183 O186 1.986 . S
Zn183 O188 1.996 . S
Zn183 O191 1.943 . S
O184 Zn183 1.962 . S
O184 C189 1.254 . S
O185 Zn182 2.031 . S
O185 C189 1.269 . S
O186 Zn183 1.986 . S
O186 C193 1.262 . S
O187 Zn182 2.049 . S
O187 C195 1.260 . S
O188 Zn183 1.996 . S
O188 C195 1.257 . S
C189 O184 1.254 . S
C189 O185 1.269 . S
C190 O191 1.249 . S
C190 O192 1.270 . S
O191 Zn183 1.943 . S
O191 C190 1.249 . S
O192 Zn182 2.067 . S
O192 C190 1.270 . S
C193 O186 1.262 . S
C193 O194 1.232 . S
O194 C193 1.232 . S
C195 O187 1.260 . S
C195 O188 1.257 . S
Zn196 O199 2.031 . S
Zn196 O201 2.049 . S
Zn196 O206 2.067 . S
Zn197 O198 1.962 . S
Zn197 O200 1.986 . S
Zn197 O202 1.996 . S
Zn197 O205 1.943 . S
O198 Zn197 1.962 . S
O198 C203 1.254 . S
O199 Zn196 2.031 . S
O199 C203 1.269 . S
O200 Zn197 1.986 . S
O200 C207 1.262 . S
O201 Zn196 2.049 . S
O201 C209 1.260 . S
O202 Zn197 1.996 . S
O202 C209 1.257 . S
C203 O198 1.254 . S
C203 O199 1.269 . S
C204 O205 1.249 . S
C204 O206 1.270 . S
O205 Zn197 1.943 . S
O205 C204 1.249 . S
O206 Zn196 2.067 . S
O206 C204 1.270 . S
C207 O200 1.262 . S
C207 O208 1.232 . S
O208 C207 1.232 . S
C209 O201 1.260 . S
C209 O202 1.257 . S
Zn210 O213 2.031 . S
Zn210 O215 2.049 . S
Zn210 O220 2.067 . S
Zn211 O212 1.962 . S
Zn211 O214 1.986 . S
Zn211 O216 1.996 . S
Zn211 O219 1.943 . S
O212 Zn211 1.962 . S
O212 C217 1.254 . S
O213 Zn210 2.031 . S
O213 C217 1.269 . S
O214 Zn211 1.986 . S
O214 C221 1.262 . S
O215 Zn210 2.049 . S
O215 C223 1.260 . S
O216 Zn211 1.996 . S
O216 C223 1.257 . S
C217 O212 1.254 . S
C217 O213 1.269 . S
C218 O219 1.249 . S
C218 O220 1.270 . S
O219 Zn211 1.943 . S
O219 C218 1.249 . S
O220 Zn210 2.067 . S
O220 C218 1.270 . S
C221 O214 1.262 . S
C221 O222 1.232 . S
O222 C221 1.232 . S
C223 O215 1.260 . S
C223 O216 1.257 . S
Zn224 O227 2.031 . S
Zn224 O229 2.049 . S
Zn224 O234 2.067 . S
Zn225 O226 1.962 . S
Zn225 O228 1.986 . S
Zn225 O230 1.996 . S
Zn225 O233 1.943 . S
O226 Zn225 1.962 . S
O226 C231 1.254 . S
O227 Zn224 2.031 . S
O227 C231 1.269 . S
O228 Zn225 1.986 . S
O228 C235 1.262 . S
O229 Zn224 2.049 . S
O229 C237 1.260 . S
O230 Zn225 1.996 . S
O230 C237 1.257 . S
C231 O226 1.254 . S
C231 O227 1.269 . S
C232 O233 1.249 . S
C232 O234 1.270 . S
O233 Zn225 1.943 . S
O233 C232 1.249 . S
O234 Zn224 2.067 . S
O234 C232 1.270 . S
C235 O228 1.262 . S
C235 O236 1.232 . S
O236 C235 1.232 . S
C237 O229 1.260 . S
C237 O230 1.257 . S
Zn238 O241 2.031 . S
Zn238 O243 2.049 . S
Zn238 O248 2.067 . S
Zn239 O240 1.962 . S
Zn239 O242 1.986 . S
Zn239 O244 1.996 . S
Zn239 O247 1.943 . S
O240 Zn239 1.962 . S
O240 C245 1.254 . S
O241 Zn238 2.031 . S
O241 C245 1.269 . S
O242 Zn239 1.986 . S
O242 C249 1.262 . S
O243 Zn238 2.049 . S
O243 C251 1.260 . S
O244 Zn239 1.996 . S
O244 C251 1.257 . S
C245 O240 1.254 . S
C245 O241 1.269 . S
C246 O247 1.249 . S
C246 O248 1.270 . S
O247 Zn239 1.943 . S
O247 C246 1.249 . S
O248 Zn238 2.067 . S
O248 C246 1.270 . S
C249 O242 1.262 . S
C249 O250 1.232 . S
O250 C249 1.232 . S
C251 O243 1.260 . S
C251 O244 1.257 . S
Zn252 O255 2.031 . S
Zn252 O257 2.049 . S
Zn252 O262 2.067 . S
Zn253 O254 1.962 . S
Zn253 O256 1.986 . S
Zn253 O258 1.996 . S
Zn253 O261 1.943 . S
O254 Zn253 1.962 . S
O254 C259 1.254 . S
O255 Zn252 2.031 . S
O255 C259 1.269 . S
O256 Zn253 1.986 . S
O256 C263 1.262 . S
O257 Zn252 2.049 . S
O257 C265 1.260 . S
O258 Zn253 1.996 . S
O258 C265 1.257 . S
C259 O254 1.254 . S
C259 O255 1.269 . S
C260 O261 1.249 . S
C260 O262 1.270 . S
O261 Zn253 1.943 . S
O261 C260 1.249 . S
O262 Zn252 2.067 . S
O262 C260 1.270 . S
C263 O256 1.262 . S
C263 O264 1.232 . S
O264 C263 1.232 . S
C265 O257 1.260 . S
C265 O258 1.257 . S
Zn266 O269 2.031 . S
Zn266 O271 2.049 . S
Zn266 O276 2.067 . S
Zn267 O268 1.962 . S
Zn267 O270 1.986 . S
Zn267 O272 1.996 . S
Zn267 O275 1.943 . S
O268 Zn267 1.962 . S
O268 C273 1.254 . S
O269 Zn266 2.031 . S
O269 C273 1.269 . S
O270 Zn267 1.986 . S
O270 C277 1.262 . S
O271 Zn266 2.049 . S
O271 C279 1.260 . S
O272 Zn267 1.996 . S
O272 C279 1.257 . S
C273 O268 1.254 . S
C273 O269 1.269 . S
C274 O275 1.249 . S
C274 O276 1.270 . S
O275 Zn267 1.943 . S
O275 C274 1.249 . S
O276 Zn266 2.067 . S
O276 C274 1.270 . S
C277 O270 1.262 . S
C277 O278 1.232 . S
O278 C277 1.232 . S
C279 O271 1.260 . S
C279 O272 1.257 . S
Zn280 O283 2.031 . S
Zn280 O285 2.049 . S
Zn280 O290 2.067 . S
Zn281 O282 1.962 . S
Zn281 O284 1.986 . S
Zn281 O286 1.996 . S
Zn281 O289 1.943 . S
O282 Zn281 1.962 . S
O282 C287 1.254 . S
O283 Zn280 2.031 . S
O283 C287 1.269 . S
O284 Zn281 1.986 . S
O284 C291 1.262 . S
O285 Zn280 2.049 . S
O285 C293 1.260 . S
O286 Zn281 1.996 . S
O286 C293 1.257 . S
C287 O282 1.254 . S
C287 O283 1.269 . S
C288 O289 1.249 . S
C288 O290 1.270 . S
O289 Zn281 1.943 . S
O289 C288 1.249 . S
O290 Zn280 2.067 . S
O290 C288 1.270 . S
C291 O284 1.262 . S
C291 O292 1.232 . S
O292 C291 1.232 . S
C293 O285 1.260 . S
C293 O286 1.257 . S
Zn294 O297 2.031 . S
Zn294 O299 2.049 . S
Zn294 O304 2.067 . S
Zn295 O296 1.962 . S
Zn295 O298 1.986 . S
Zn295 O300 1.996 . S
Zn295 O303 1.943 . S
O296 Zn295 1.962 . S
O296 C301 1.254 . S
O297 Zn294 2.031 . S
O297 C301 1.269 . S
O298 Zn295 1.986 . S
O298 C305 1.262 . S
O299 Zn294 2.049 . S
O299 C307 1.260 . S
O300 Zn295 1.996 . S
O300 C307 1.257 . S
C301 O296 1.254 . S
C301 O297 1.269 . S
C302 O303 1.249 . S
C302 O304 1.270 . S
O303 Zn295 1.943 . S
O303 C302 1.249 . S
O304 Zn294 2.067 . S
O304 C302 1.270 . S
C305 O298 1.262 . S
C305 O306 1.232 . S
O306 C305 1.232 . S
C307 O299 1.260 . S
C307 O300 1.257 . S
Zn308 O311 2.031 . S
Zn308 O313 2.049 . S
Zn308 O318 2.067 . S
Zn309 O310 1.962 . S
Zn309 O312 1.986 . S
Zn309 O314 1.996 . S
Zn309 O317 1.943 . S
O310 Zn309 1.962 . S
O310 C315 1.254 . S
O311 Zn308 2.031 . S
O311 C315 1.269 . S
O312 Zn309 1.986 . S
O312 C319 1.262 . S
O313 Zn308 2.049 . S
O313 C321 1.260 . S
O314 Zn309 1.996 . S
O314 C321 1.257 . S
C315 O310 1.254 . S
C315 O311 1.269 . S
C316 O317 1.249 . S
C316 O318 1.270 . S
O317 Zn309 1.943 . S
O317 C316 1.249 . S
O318 Zn308 2.067 . S
O318 C316 1.270 . S
C319 O312 1.262 . S
C319 O320 1.232 . S
O320 C319 1.232 . S
C321 O313 1.260 . S
C321 O314 1.257 . S
Zn322 O325 2.031 . S
Zn322 O327 2.049 . S
Zn322 O332 2.067 . S
Zn323 O324 1.962 . S
Zn323 O326 1.986 . S
Zn323 O328 1.996 . S
Zn323 O331 1.943 . S
O324 Zn323 1.962 . S
O324 C329 1.254 . S
O325 Zn322 2.031 . S
O325 C329 1.269 . S
O326 Zn323 1.986 . S
O326 C333 1.262 . S
O327 Zn322 2.049 . S
O327 C335 1.260 . S
O328 Zn323 1.996 . S
O328 C335 1.257 . S
C329 O324 1.254 . S
C329 O325 1.269 . S
C330 O331 1.249 . S
C330 O332 1.270 . S
O331 Zn323 1.943 . S
O331 C330 1.249 . S
O332 Zn322 2.067 . S
O332 C330 1.270 . S
C333 O326 1.262 . S
C333 O334 1.232 . S
O334 C333 1.232 . S
C335 O327 1.260 . S
C335 O328 1.257 . S
Zn336 O339 2.031 . S
Zn336 O341 2.049 . S
Zn336 O346 2.067 . S
Zn337 O338 1.962 . S
Zn337 O340 1.986 . S
Zn337 O342 1.996 . S
Zn337 O345 1.943 . S
O338 Zn337 1.962 . S
O338 C343 1.254 . S
O339 Zn336 2.031 . S
O339 C343 1.269 . S
O340 Zn337 1.986 . S
O340 C347 1.262 . S
O341 Zn336 2.049 . S
O341 C349 1.260 . S
O342 Zn337 1.996 . S
O342 C349 1.257 . S
C343 O338 1.254 . S
C343 O339 1.269 . S
C344 O345 1.249 . S
C344 O346 1.270 . S
O345 Zn337 1.943 . S
O345 C344 1.249 . S
O346 Zn336 2.067 . S
O346 C344 1.270 . S
C347 O340 1.262 . S
C347 O348 1.232 . S
O348 C347 1.232 . S
C349 O341 1.260 . S
C349 O342 1.257 . S
Zn350 O353 2.031 . S
Zn350 O355 2.049 . S
Zn350 O360 2.067 . S
Zn351 O352 1.962 . S
Zn351 O354 1.986 . S
Zn351 O356 1.996 . S
Zn351 O359 1.943 . S
O352 Zn351 1.962 . S
O352 C357 1.254 . S
O353 Zn350 2.031 . S
O353 C357 1.269 . S
O354 Zn351 1.986 . S
O354 C361 1.262 . S
O355 Zn350 2.049 . S
O355 C363 1.260 . S
O356 Zn351 1.996 . S
O356 C363 1.257 . S
C357 O352 1.254 . S
C357 O353 1.269 . S
C358 O359 1.249 . S
C358 O360 1.270 . S
O359 Zn351 1.943 . S
O359 C358 1.249 . S
O360 Zn350 2.067 . S
O360 C358 1.270 . S
C361 O354 1.262 . S
C361 O362 1.232 . S
O362 C361 1.232 . S
C363 O355 1.260 . S
C363 O356 1.257 . S
Zn364 O367 2.031 . S
Zn364 O369 2.049 . S
Zn364 O374 2.067 . S
Zn365 O366 1.962 . S
Zn365 O368 1.986 . S
Zn365 O370 1.996 . S
Zn365 O373 1.943 . S
O366 Zn365 1.962 . S
O366 C371 1.254 . S
O367 Zn364 2.031 . S
O367 C371 1.269 . S
O368 Zn365 1.986 . S
O368 C375 1.262 . S
O369 Zn364 2.049 . S
O369 C377 1.260 . S
O370 Zn365 1.996 . S
O370 C377 1.257 . S
C371 O366 1.254 . S
C371 O367 1.269 . S
C372 O373 1.249 . S
C372 O374 1.270 . S
O373 Zn365 1.943 . S
O373 C372 1.249 . S
O374 Zn364 2.067 . S
O374 C372 1.270 . S
C375 O368 1.262 . S
C375 O376 1.232 . S
O376 C375 1.232 . S
C377 O369 1.260 . S
C377 O370 1.257 . S
Zn378 O381 2.031 . S
Zn378 O383 2.049 . S
Zn378 O388 2.067 . S
Zn379 O380 1.962 . S
Zn379 O382 1.986 . S
Zn379 O384 1.996 . S
Zn379 O387 1.943 . S
O380 Zn379 1.962 . S
O380 C385 1.254 . S
O381 Zn378 2.031 . S
O381 C385 1.269 . S
O382 Zn379 1.986 . S
O382 C389 1.262 . S
O383 Zn378 2.049 . S
O383 C391 1.260 . S
O384 Zn379 1.996 . S
O384 C391 1.257 . S
C385 O380 1.254 . S
C385 O381 1.269 . S
C386 O387 1.249 . S
C386 O388 1.270 . S
O387 Zn379 1.943 . S
O387 C386 1.249 . S
O388 Zn378 2.067 . S
O388 C386 1.270 . S
C389 O382 1.262 . S
C389 O390 1.232 . S
O390 C389 1.232 . S
C391 O383 1.260 . S
C391 O384 1.257 . S
Zn392 O395 2.031 . S
Zn392 O397 2.049 . S
Zn392 O402 2.067 . S
Zn393 O394 1.962 . S
Zn393 O396 1.986 . S
Zn393 O398 1.996 . S
Zn393 O401 1.943 . S
O394 Zn393 1.962 . S
O394 C399 1.254 . S
O395 Zn392 2.031 . S
O395 C399 1.269 . S
O396 Zn393 1.986 . S
O396 C403 1.262 . S
O397 Zn392 2.049 . S
O397 C405 1.260 . S
O398 Zn393 1.996 . S
O398 C405 1.257 . S
C399 O394 1.254 . S
C399 O395 1.269 . S
C400 O401 1.249 . S
C400 O402 1.270 . S
O401 Zn393 1.943 . S
O401 C400 1.249 . S
O402 Zn392 2.067 . S
O402 C400 1.270 . S
C403 O396 1.262 . S
C403 O404 1.232 . S
O404 C403 1.232 . S
C405 O397 1.260 . S
C405 O398 1.257 . S
Zn406 O409 2.031 . S
Zn406 O411 2.049 . S
Zn406 O416 2.067 . S
Zn407 O408 1.962 . S
Zn407 O410 1.986 . S
Zn407 O412 1.996 . S
Zn407 O415 1.943 . S
O408 Zn407 1.962 . S
O408 C413 1.254 . S
O409 Zn406 2.031 . S
O409 C413 1.269 . S
O410 Zn407 1.986 . S
O410 C417 1.262 . S
O411 Zn406 2.049 . S
O411 C419 1.260 . S
O412 Zn407 1.996 . S
O412 C419 1.257 . S
C413 O408 1.254 . S
C413 O409 1.269 . S
C414 O415 1.249 . S
C414 O416 1.270 . S
O415 Zn407 1.943 . S
O415 C414 1.249 . S
O416 Zn406 2.067 . S
O416 C414 1.270 . S
C417 O410 1.262 . S
C417 O418 1.232 . S
O418 C417 1.232 . S
C419 O411 1.260 . S
C419 O412 1.257 . S
Zn420 O423 2.031 . S
Zn420 O425 2.049 . S
Zn420 O430 2.067 . S
Zn421 O422 1.962 . S
Zn421 O424 1.986 . S
Zn421 O426 1.996 . S
Zn421 O429 1.943 . S
O422 Zn421 1.962 . S
O422 C427 1.254 . S
O423 Zn420 2.031 . S
O423 C427 1.269 . S
O424 Zn421 1.986 . S
O424 C431 1.262 . S
O425 Zn420 2.049 . S
O425 C433 1.260 . S
O426 Zn421 1.996 . S
O426 C433 1.257 . S
C427 O422 1.254 . S
C427 O423 1.269 . S
C428 O429 1.249 . S
C428 O430 1.270 . S
O429 Zn421 1.943 . S
O429 C428 1.249 . S
O430 Zn420 2.067 . S
O430 C428 1.270 . S
C431 O424 1.262 . S
C431 O432 1.232 . S
O432 C431 1.232 . S
C433 O425 1.260 . S
C433 O426 1.257 . S
Zn434 O437 2.031 . S
Zn434 O439 2.049 . S
Zn434 O444 2.067 . S
Zn435 O436 1.962 . S
Zn435 O438 1.986 . S
Zn435 O440 1.996 . S
Zn435 O443 1.943 . S
O436 Zn435 1.962 . S
O436 C441 1.254 . S
O437 Zn434 2.031 . S
O437 C441 1.269 . S
O438 Zn435 1.986 . S
O438 C445 1.262 . S
O439 Zn434 2.049 . S
O439 C447 1.260 . S
O440 Zn435 1.996 . S
O440 C447 1.257 . S
C441 O436 1.254 . S
C441 O437 1.269 . S
C442 O443 1.249 . S
C442 O444 1.270 . S
O443 Zn435 1.943 . S
O443 C442 1.249 . S
O444 Zn434 2.067 . S
O444 C442 1.270 . S
C445 O438 1.262 . S
C445 O446 1.232 . S
O446 C445 1.232 . S
C447 O439 1.260 . S
C447 O440 1.257 . S
Zn448 O451 2.031 . S
Zn448 O453 2.049 . S
Zn448 O458 2.067 . S
Zn449 O450 1.962 . S
Zn449 O452 1.986 . S
Zn449 O454 1.996 . S
Zn449 O457 1.943 . S
O450 Zn449 1.962 . S
O450 C455 1.254 . S
O451 Zn448 2.031 . S
O451 C455 1.269 . S
O452 Zn449 1.986 . S
O452 C459 1.262 . S
O453 Zn448 2.049 . S
O453 C461 1.260 . S
O454 Zn449 1.996 . S
O454 C461 1.257 . S
C455 O450 1.254 . S
C455 O451 1.269 . S
C456 O457 1.249 . S
C456 O458 1.270 . S
O457 Zn449 1.943 . S
O457 C456 1.249 . S
O458 Zn448 2.067 . S
O458 C456 1.270 . S
C459 O452 1.262 . S
C459 O460 1.232 . S
O460 C459 1.232 . S
C461 O453 1.260 . S
C461 O454 1.257 . S
Zn462 O465 2.031 . S
Zn462 O467 2.049 . S
Zn462 O472 2.067 . S
Zn463 O464 1.962 . S
Zn463 O466 1.986 . S
Zn463 O468 1.996 . S
Zn463 O471 1.943 . S
O464 Zn463 1.962 . S
O464 C469 1.254 . S
O465 Zn462 2.031 . S
O465 C469 1.269 . S
O466 Zn463 1.986 . S
O466 C473 1.262 . S
O467 Zn462 2.049 . S
O467 C475 1.260 . S
O468 Zn463 1.996 . S
O468 C475 1.257 . S
C469 O464 1.254 . S
C469 O465 1.269 . S
C470 O471 1.249 . S
C470 O472 1.270 . S
O471 Zn463 1.943 . S
O471 C470 1.249 . S
O472 Zn462 2.067 . S
O472 C470 1.270 . S
C473 O466 1.262 . S
C473 O474 1.232 . S
O474 C473 1.232 . S
C475 O467 1.260 . S
C475 O468 1.257 . S
Zn476 O479 2.031 . S
Zn476 O481 2.049 . S
Zn476 O486 2.067 . S
Zn477 O478 1.962 . S
Zn477 O480 1.986 . S
Zn477 O482 1.996 . S
Zn477 O485 1.943 . S
O478 Zn477 1.962 . S
O478 C483 1.254 . S
O479 Zn476 2.031 . S
O479 C483 1.269 . S
O480 Zn477 1.986 . S
O480 C487 1.262 . S
O481 Zn476 2.049 . S
O481 C489 1.260 . S
O482 Zn477 1.996 . S
O482 C489 1.257 . S
C483 O478 1.254 . S
C483 O479 1.269 . S
C484 O485 1.249 . S
C484 O486 1.270 . S
O485 Zn477 1.943 . S
O485 C484 1.249 . S
O486 Zn476 2.067 . S
O486 C484 1.270 . S
C487 O480 1.262 . S
C487 O488 1.232 . S
O488 C487 1.232 . S
C489 O481 1.260 . S
C489 O482 1.257 . S
Zn490 O493 2.031 . S
Zn490 O495 2.049 . S
Zn490 O500 2.067 . S
Zn491 O492 1.962 . S
Zn491 O494 1.986 . S
Zn491 O496 1.996 . S
Zn491 O499 1.943 . S
O492 Zn491 1.962 . S
O492 C497 1.254 . S
O493 Zn490 2.031 . S
O493 C497 1.269 . S
O494 Zn491 1.986 . S
O494 C501 1.262 . S
O495 Zn490 2.049 . S
O495 C503 1.260 . S
O496 Zn491 1.996 . S
O496 C503 1.257 . S
C497 O492 1.254 . S
C497 O493 1.269 . S
C498 O499 1.249 . S
C498 O500 1.270 . S
O499 Zn491 1.943 . S
O499 C498 1.249 . S
O500 Zn490 2.067 . S
O500 C498 1.270 . S
C501 O494 1.262 . S
C501 O502 1.232 . S
O502 C501 1.232 . S
C503 O495 1.260 . S
C503 O496 1.257 . S
C504 C505 1.387 . S
C504 H508 0.950 . S
C504 C513 1.390 . S
C505 C504 1.387 . S
C505 C507 1.387 . S
H506 C513 0.950 . S
C507 C505 1.387 . S
C507 C509 1.390 . S
C507 H511 0.950 . S
H508 C504 0.950 . S
C509 C507 1.390 . S
C509 C510 1.387 . S
C509 H512 0.950 . S
C510 C509 1.387 . S
C510 C513 1.387 . S
H511 C507 0.950 . S
H512 C509 0.950 . S
C513 C504 1.390 . S
C513 H506 0.950 . S
C513 C510 1.387 . S
C514 C515 1.387 . S
C514 H518 0.950 . S
C514 C523 1.390 . S
C515 C514 1.387 . S
C515 C517 1.387 . S
H516 C523 0.950 . S
C517 C515 1.387 . S
C517 C519 1.390 . S
C517 H521 0.950 . S
H518 C514 0.950 . S
C519 C517 1.390 . S
C519 C520 1.387 . S
C519 H522 0.950 . S
C520 C519 1.387 . S
C520 C523 1.387 . S
H521 C517 0.950 . S
H522 C519 0.950 . S
C523 C514 1.390 . S
C523 H516 0.950 . S
C523 C520 1.387 . S
C524 C525 1.387 . S
C524 H528 0.950 . S
C524 C533 1.390 . S
C525 C524 1.387 . S
C525 C527 1.387 . S
H526 C533 0.950 . S
C527 C525 1.387 . S
C527 C529 1.390 . S
C527 H531 0.950 . S
H528 C524 0.950 . S
C529 C527 1.390 . S
C529 C530 1.387 . S
C529 H532 0.950 . S
C530 C529 1.387 . S
C530 C533 1.387 . S
H531 C527 0.950 . S
H532 C529 0.950 . S
C533 C524 1.390 . S
C533 H526 0.950 . S
C533 C530 1.387 . S
C534 C535 1.387 . S
C534 H538 0.950 . S
C534 C543 1.390 . S
C535 C534 1.387 . S
C535 C537 1.387 . S
H536 C543 0.950 . S
C537 C535 1.387 . S
C537 C539 1.390 . S
C537 H541 0.950 . S
H538 C534 0.950 . S
C539 C537 1.390 . S
C539 C540 1.387 . S
C539 H542 0.950 . S
C540 C539 1.387 . S
C540 C543 1.387 . S
H541 C537 0.950 . S
H542 C539 0.950 . S
C543 C534 1.390 . S
C543 H536 0.950 . S
C543 C540 1.387 . S
C544 C545 1.387 . S
C544 H548 0.950 . S
C544 C553 1.390 . S
C545 C544 1.387 . S
C545 C547 1.387 . S
H546 C553 0.950 . S
C547 C545 1.387 . S
C547 C549 1.390 . S
C547 H551 0.950 . S
H548 C544 0.950 . S
C549 C547 1.390 . S
C549 C550 1.387 . S
C549 H552 0.950 . S
C550 C549 1.387 . S
C550 C553 1.387 . S
H551 C547 0.950 . S
H552 C549 0.950 . S
C553 C544 1.390 . S
C553 H546 0.950 . S
C553 C550 1.387 . S
C554 C555 1.387 . S
C554 H558 0.950 . S
C554 C563 1.390 . S
C555 C554 1.387 . S
C555 C557 1.387 . S
H556 C563 0.950 . S
C557 C555 1.387 . S
C557 C559 1.390 . S
C557 H561 0.950 . S
H558 C554 0.950 . S
C559 C557 1.390 . S
C559 C560 1.387 . S
C559 H562 0.950 . S
C560 C559 1.387 . S
C560 C563 1.387 . S
H561 C557 0.950 . S
H562 C559 0.950 . S
C563 C554 1.390 . S
C563 H556 0.950 . S
C563 C560 1.387 . S
C564 C565 1.387 . S
C564 H568 0.950 . S
C564 C573 1.390 . S
C565 C564 1.387 . S
C565 C567 1.387 . S
H566 C573 0.950 . S
C567 C565 1.387 . S
C567 C569 1.390 . S
C567 H571 0.950 . S
H568 C564 0.950 . S
C569 C567 1.390 . S
C569 C570 1.387 . S
C569 H572 0.950 . S
C570 C569 1.387 . S
C570 C573 1.387 . S
H571 C567 0.950 . S
H572 C569 0.950 . S
C573 C564 1.390 . S
C573 H566 0.950 . S
C573 C570 1.387 . S
C574 C575 1.387 . S
C574 H578 0.950 . S
C574 C583 1.390 . S
C575 C574 1.387 . S
C575 C577 1.387 . S
H576 C583 0.950 . S
C577 C575 1.387 . S
C577 C579 1.390 . S
C577 H581 0.950 . S
H578 C574 0.950 . S
C579 C577 1.390 . S
C579 C580 1.387 . S
C579 H582 0.950 . S
C580 C579 1.387 . S
C580 C583 1.387 . S
H581 C577 0.950 . S
H582 C579 0.950 . S
C583 C574 1.390 . S
C583 H576 0.950 . S
C583 C580 1.387 . S
C584 C585 1.387 . S
C584 H588 0.950 . S
C584 C593 1.390 . S
C585 C584 1.387 . S
C585 C587 1.387 . S
H586 C593 0.950 . S
C587 C585 1.387 . S
C587 C589 1.390 . S
C587 H591 0.950 . S
H588 C584 0.950 . S
C589 C587 1.390 . S
C589 C590 1.387 . S
C589 H592 0.950 . S
C590 C589 1.387 . S
C590 C593 1.387 . S
H591 C587 0.950 . S
H592 C589 0.950 . S
C593 C584 1.390 . S
C593 H586 0.950 . S
C593 C590 1.387 . S
C594 C595 1.387 . S
C594 H598 0.950 . S
C594 C603 1.390 . S
C595 C594 1.387 . S
C595 C597 1.387 . S
H596 C603 0.950 . S
C597 C595 1.387 . S
C597 C599 1.390 . S
C597 H601 0.950 . S
H598 C594 0.950 . S
C599 C597 1.390 . S
C599 C600 1.387 . S
C599 H602 0.950 . S
C600 C599 1.387 . S
C600 C603 1.387 . S
H601 C597 0.950 . S
H602 C599 0.950 . S
C603 C594 1.390 . S
C603 H596 0.950 . S
C603 C600 1.387 . S
C604 C605 1.387 . S
C604 H608 0.950 . S
C604 C613 1.390 . S
C605 C604 1.387 . S
C605 C607 1.387 . S
H606 C613 0.950 . S
C607 C605 1.387 . S
C607 C609 1.390 . S
C607 H611 0.950 . S
H608 C604 0.950 . S
C609 C607 1.390 . S
C609 C610 1.387 . S
C609 H612 0.950 . S
C610 C609 1.387 . S
C610 C613 1.387 . S
H611 C607 0.950 . S
H612 C609 0.950 . S
C613 C604 1.390 . S
C613 H606 0.950 . S
C613 C610 1.387 . S
C614 C615 1.387 . S
C614 H618 0.950 . S
C614 C623 1.390 . S
C615 C614 1.387 . S
C615 C617 1.387 . S
H616 C623 0.950 . S
C617 C615 1.387 . S
C617 C619 1.390 . S
C617 H621 0.950 . S
H618 C614 0.950 . S
C619 C617 1.390 . S
C619 C620 1.387 . S
C619 H622 0.950 . S
C620 C619 1.387 . S
C620 C623 1.387 . S
H621 C617 0.950 . S
H622 C619 0.950 . S
C623 C614 1.390 . S
C623 H616 0.950 . S
C623 C620 1.387 . S
C624 C625 1.387 . S
C624 H628 0.950 . S
C624 C633 1.390 . S
C625 C624 1.387 . S
C625 C627 1.387 1_455 S
H626 C633 0.950 . S
C627 C625 1.387 1_655 S
C627 C629 1.390 . S
C627 H631 0.950 . S
H628 C624 0.950 . S
C629 C627 1.390 . S
C629 C630 1.387 . S
C629 H632 0.950 . S
C630 C629 1.387 . S
C630 C633 1.387 1_655 S
H631 C627 0.950 . S
H632 C629 0.950 . S
C633 C624 1.390 . S
C633 H626 0.950 . S
C633 C630 1.387 1_455 S
C634 C635 1.387 . S
C634 H638 0.950 . S
C634 C643 1.390 . S
C635 C634 1.387 . S
C635 C637 1.387 . S
H636 C643 0.950 . S
C637 C635 1.387 . S
C637 C639 1.390 . S
C637 H641 0.950 . S
H638 C634 0.950 . S
C639 C637 1.390 . S
C639 C640 1.387 . S
C639 H642 0.950 . S
C640 C639 1.387 . S
C640 C643 1.387 . S
H641 C637 0.950 . S
H642 C639 0.950 . S
C643 C634 1.390 . S
C643 H636 0.950 . S
C643 C640 1.387 . S
C644 C645 1.387 . S
C644 H648 0.950 . S
C644 C653 1.390 . S
C645 C644 1.387 . S
C645 C647 1.387 1_545 S
H646 C653 0.950 . S
C647 C645 1.387 1_565 S
C647 C649 1.390 . S
C647 H651 0.950 . S
H648 C644 0.950 . S
C649 C647 1.390 . S
C649 C650 1.387 . S
C649 H652 0.950 . S
C650 C649 1.387 . S
C650 C653 1.387 1_565 S
H651 C647 0.950 . S
H652 C649 0.950 . S
C653 C644 1.390 . S
C653 H646 0.950 . S
C653 C650 1.387 1_545 S
C654 C655 1.387 1_545 S
C654 H658 0.950 . S
C654 C663 1.390 . S
C655 C654 1.387 1_565 S
C655 C657 1.387 1_554 S
H656 C663 0.950 . S
C657 C655 1.387 1_556 S
C657 C659 1.390 . S
C657 H661 0.950 . S
H658 C654 0.950 . S
C659 C657 1.390 . S
C659 C660 1.387 1_565 S
C659 H662 0.950 . S
C660 C659 1.387 1_545 S
C660 C663 1.387 1_556 S
H661 C657 0.950 . S
H662 C659 0.950 . S
C663 C654 1.390 . S
C663 H656 0.950 . S
C663 C660 1.387 1_554 S
C664 C665 1.387 . S
C664 H668 0.950 . S
C664 C673 1.390 1_556 S
C665 C664 1.387 . S
C665 C667 1.387 1_655 S
H666 C673 0.950 . S
C667 C665 1.387 1_455 S
C667 C669 1.390 1_556 S
C667 H671 0.950 . S
H668 C664 0.950 . S
C669 C667 1.390 1_554 S
C669 C670 1.387 . S
C669 H672 0.950 . S
C670 C669 1.387 . S
C670 C673 1.387 1_455 S
H671 C667 0.950 . S
H672 C669 0.950 . S
C673 C664 1.390 1_554 S
C673 H666 0.950 . S
C673 C670 1.387 1_655 S
C674 C675 1.387 1_554 S
C674 H678 0.950 . S
C674 C683 1.390 . S
C675 C674 1.387 1_556 S
C675 C677 1.387 . S
H676 C683 0.950 . S
C677 C675 1.387 . S
C677 C679 1.390 . S
C677 H681 0.950 . S
H678 C674 0.950 . S
C679 C677 1.390 . S
C679 C680 1.387 1_556 S
C679 H682 0.950 . S
C680 C679 1.387 1_554 S
C680 C683 1.387 . S
H681 C677 0.950 . S
H682 C679 0.950 . S
C683 C674 1.390 . S
C683 H676 0.950 . S
C683 C680 1.387 . S
C684 C685 1.387 . S
C684 H688 0.950 . S
C684 C693 1.390 . S
C685 C684 1.387 . S
C685 C687 1.387 1_545 S
H686 C693 0.950 . S
C687 C685 1.387 1_565 S
C687 C689 1.390 . S
C687 H691 0.950 . S
H688 C684 0.950 . S
C689 C687 1.390 . S
C689 C690 1.387 . S
C689 H692 0.950 . S
C690 C689 1.387 . S
C690 C693 1.387 1_565 S
H691 C687 0.950 . S
H692 C689 0.950 . S
C693 C684 1.390 . S
C693 H686 0.950 . S
C693 C690 1.387 1_545 S
C694 C695 1.387 . S
C694 H698 0.950 . S
C694 C703 1.390 . S
C695 C694 1.387 . S
C695 C697 1.387 1_455 S
H696 C703 0.950 . S
C697 C695 1.387 1_655 S
C697 C699 1.390 . S
C697 H701 0.950 . S
H698 C694 0.950 . S
C699 C697 1.390 . S
C699 C700 1.387 . S
C699 H702 0.950 . S
C700 C699 1.387 . S
C700 C703 1.387 1_655 S
H701 C697 0.950 . S
H702 C699 0.950 . S
C703 C694 1.390 . S
C703 H696 0.950 . S
C703 C700 1.387 1_455 S
C704 C705 1.387 . S
C704 H708 0.950 . S
C704 C713 1.390 . S
C705 C704 1.387 . S
C705 C707 1.387 . S
H706 C713 0.950 . S
C707 C705 1.387 . S
C707 C709 1.390 . S
C707 H711 0.950 . S
H708 C704 0.950 . S
C709 C707 1.390 . S
C709 C710 1.387 . S
C709 H712 0.950 . S
C710 C709 1.387 . S
C710 C713 1.387 . S
H711 C707 0.950 . S
H712 C709 0.950 . S
C713 C704 1.390 . S
C713 H706 0.950 . S
C713 C710 1.387 . S
C714 C715 1.387 . S
C714 H718 0.950 . S
C714 C723 1.390 . S
C715 C714 1.387 . S
C715 C717 1.387 1_655 S
H716 C723 0.950 . S
C717 C715 1.387 1_455 S
C717 C719 1.390 . S
C717 H721 0.950 . S
H718 C714 0.950 . S
C719 C717 1.390 . S
C719 C720 1.387 . S
C719 H722 0.950 . S
C720 C719 1.387 . S
C720 C723 1.387 1_455 S
H721 C717 0.950 . S
H722 C719 0.950 . S
C723 C714 1.390 . S
C723 H716 0.950 . S
C723 C720 1.387 1_655 S
C724 C725 1.387 . S
C724 H728 0.950 . S
C724 C733 1.390 . S
C725 C724 1.387 . S
C725 C727 1.387 . S
H726 C733 0.950 . S
C727 C725 1.387 . S
C727 C729 1.390 . S
C727 H731 0.950 . S
H728 C724 0.950 . S
C729 C727 1.390 . S
C729 C730 1.387 . S
C729 H732 0.950 . S
C730 C729 1.387 . S
C730 C733 1.387 . S
H731 C727 0.950 . S
H732 C729 0.950 . S
C733 C724 1.390 . S
C733 H726 0.950 . S
C733 C730 1.387 . S
C734 C735 1.387 . S
C734 H738 0.950 . S
C734 C743 1.390 . S
C735 C734 1.387 . S
C735 C737 1.387 1_545 S
H736 C743 0.950 . S
C737 C735 1.387 1_565 S
C737 C739 1.390 . S
C737 H741 0.950 . S
H738 C734 0.950 . S
C739 C737 1.390 . S
C739 C740 1.387 . S
C739 H742 0.950 . S
C740 C739 1.387 . S
C740 C743 1.387 1_565 S
H741 C737 0.950 . S
H742 C739 0.950 . S
C743 C734 1.390 . S
C743 H736 0.950 . S
C743 C740 1.387 1_545 S
C744 C745 1.387 1_545 S
C744 H748 0.950 . S
C744 C753 1.390 . S
C745 C744 1.387 1_565 S
C745 C747 1.387 . S
H746 C753 0.950 . S
C747 C745 1.387 . S
C747 C749 1.390 . S
C747 H751 0.950 . S
H748 C744 0.950 . S
C749 C747 1.390 . S
C749 C750 1.387 1_565 S
C749 H752 0.950 . S
C750 C749 1.387 1_545 S
C750 C753 1.387 . S
H751 C747 0.950 . S
H752 C749 0.950 . S
C753 C744 1.390 . S
C753 H746 0.950 . S
C753 C750 1.387 . S
C754 C755 1.387 . S
C754 H758 0.950 . S
C754 C763 1.390 . S
C755 C754 1.387 . S
C755 C757 1.387 1_655 S
H756 C763 0.950 . S
C757 C755 1.387 1_455 S
C757 C759 1.390 . S
C757 H761 0.950 . S
H758 C754 0.950 . S
C759 C757 1.390 . S
C759 C760 1.387 . S
C759 H762 0.950 . S
C760 C759 1.387 . S
C760 C763 1.387 1_455 S
H761 C757 0.950 . S
H762 C759 0.950 . S
C763 C754 1.390 . S
C763 H756 0.950 . S
C763 C760 1.387 1_655 S
C764 C765 1.387 . S
C764 H768 0.950 . S
C764 C773 1.390 . S
C765 C764 1.387 . S
C765 C767 1.387 . S
H766 C773 0.950 . S
C767 C765 1.387 . S
C767 C769 1.390 . S
C767 H771 0.950 . S
H768 C764 0.950 . S
C769 C767 1.390 . S
C769 C770 1.387 . S
C769 H772 0.950 . S
C770 C769 1.387 . S
C770 C773 1.387 . S
H771 C767 0.950 . S
H772 C769 0.950 . S
C773 C764 1.390 . S
C773 H766 0.950 . S
C773 C770 1.387 . S
C774 C775 1.387 . S
C774 H778 0.950 . S
C774 C783 1.390 1_655 S
C775 C774 1.387 . S
C775 C777 1.387 . S
H776 C783 0.950 . S
C777 C775 1.387 . S
C777 C779 1.390 1_655 S
C777 H781 0.950 . S
H778 C774 0.950 . S
C779 C777 1.390 1_455 S
C779 C780 1.387 . S
C779 H782 0.950 . S
C780 C779 1.387 . S
C780 C783 1.387 . S
H781 C777 0.950 . S
H782 C779 0.950 . S
C783 C774 1.390 1_455 S
C783 H776 0.950 . S
C783 C780 1.387 . S
C784 C785 1.387 . S
C784 H788 0.950 . S
C784 C793 1.390 . S
C785 C784 1.387 . S
C785 C787 1.387 . S
H786 C793 0.950 . S
C787 C785 1.387 . S
C787 C789 1.390 . S
C787 H791 0.950 . S
H788 C784 0.950 . S
C789 C787 1.390 . S
C789 C790 1.387 . S
C789 H792 0.950 . S
C790 C789 1.387 . S
C790 C793 1.387 . S
H791 C787 0.950 . S
H792 C789 0.950 . S
C793 C784 1.390 . S
C793 H786 0.950 . S
C793 C790 1.387 . S
C794 C795 1.387 1_565 S
C794 H798 0.950 . S
C794 C803 1.390 . S
C795 C794 1.387 1_545 S
C795 C797 1.387 . S
H796 C803 0.950 . S
C797 C795 1.387 . S
C797 C799 1.390 . S
C797 H801 0.950 . S
H798 C794 0.950 . S
C799 C797 1.390 . S
C799 C800 1.387 1_545 S
C799 H802 0.950 . S
C800 C799 1.387 1_565 S
C800 C803 1.387 . S
H801 C797 0.950 . S
H802 C799 0.950 . S
C803 C794 1.390 . S
C803 H796 0.950 . S
C803 C800 1.387 . S
C804 C805 1.387 . S
C804 H808 0.950 . S
C804 C813 1.390 . S
C805 C804 1.387 . S
C805 C807 1.387 . S
H806 C813 0.950 . S
C807 C805 1.387 . S
C807 C809 1.390 . S
C807 H811 0.950 . S
H808 C804 0.950 . S
C809 C807 1.390 . S
C809 C810 1.387 . S
C809 H812 0.950 . S
C810 C809 1.387 . S
C810 C813 1.387 . S
H811 C807 0.950 . S
H812 C809 0.950 . S
C813 C804 1.390 . S
C813 H806 0.950 . S
C813 C810 1.387 . S
C814 C815 1.387 . S
C814 H818 0.950 . S
C814 C823 1.390 1_545 S
C815 C814 1.387 . S
C815 C817 1.387 . S
H816 C823 0.950 . S
C817 C815 1.387 . S
C817 C819 1.390 1_545 S
C817 H821 0.950 . S
H818 C814 0.950 . S
C819 C817 1.390 1_565 S
C819 C820 1.387 . S
C819 H822 0.950 . S
C820 C819 1.387 . S
C820 C823 1.387 . S
H821 C817 0.950 . S
H822 C819 0.950 . S
C823 C814 1.390 1_565 S
C823 H816 0.950 . S
C823 C820 1.387 . S
C824 C825 1.387 . S
C824 H828 0.950 . S
C824 C833 1.390 1_655 S
C825 C824 1.387 . S
C825 C827 1.387 . S
H826 C833 0.950 . S
C827 C825 1.387 . S
C827 C829 1.390 1_655 S
C827 H831 0.950 . S
H828 C824 0.950 . S
C829 C827 1.390 1_455 S
C829 C830 1.387 . S
C829 H832 0.950 . S
C830 C829 1.387 . S
C830 C833 1.387 . S
H831 C827 0.950 . S
H832 C829 0.950 . S
C833 C824 1.390 1_455 S
C833 H826 0.950 . S
C833 C830 1.387 . S
C834 C835 1.387 . S
C834 H838 0.950 . S
C834 C843 1.390 . S
C835 C834 1.387 . S
C835 C837 1.387 . S
H836 C843 0.950 . S
C837 C835 1.387 . S
C837 C839 1.390 . S
C837 H841 0.950 . S
H838 C834 0.950 . S
C839 C837 1.390 . S
C839 C840 1.387 . S
C839 H842 0.950 . S
C840 C839 1.387 . S
C840 C843 1.387 . S
H841 C837 0.950 . S
H842 C839 0.950 . S
C843 C834 1.390 . S
C843 H836 0.950 . S
C843 C840 1.387 . S
C844 C845 1.387 . S
C844 H848 0.950 . S
C844 C853 1.390 1_565 S
C845 C844 1.387 . S
C845 C847 1.387 . S
H846 C853 0.950 . S
C847 C845 1.387 . S
C847 C849 1.390 1_565 S
C847 H851 0.950 . S
H848 C844 0.950 . S
C849 C847 1.390 1_545 S
C849 C850 1.387 . S
C849 H852 0.950 . S
C850 C849 1.387 . S
C850 C853 1.387 . S
H851 C847 0.950 . S
H852 C849 0.950 . S
C853 C844 1.390 1_545 S
C853 H846 0.950 . S
C853 C850 1.387 . S
C854 C855 1.387 . S
C854 H858 0.950 . S
C854 C863 1.390 1_655 S
C855 C854 1.387 . S
C855 C857 1.387 . S
H856 C863 0.950 . S
C857 C855 1.387 . S
C857 C859 1.390 1_655 S
C857 H861 0.950 . S
H858 C854 0.950 . S
C859 C857 1.390 1_455 S
C859 C860 1.387 . S
C859 H862 0.950 . S
C860 C859 1.387 . S
C860 C863 1.387 . S
H861 C857 0.950 . S
H862 C859 0.950 . S
C863 C854 1.390 1_455 S
C863 H856 0.950 . S
C863 C860 1.387 . S
C864 C865 1.387 . S
C864 H868 0.950 . S
C864 C873 1.390 . S
C865 C864 1.387 . S
C865 C867 1.387 . S
H866 C873 0.950 . S
C867 C865 1.387 . S
C867 C869 1.390 . S
C867 H871 0.950 . S
H868 C864 0.950 . S
C869 C867 1.390 . S
C869 C870 1.387 . S
C869 H872 0.950 . S
C870 C869 1.387 . S
C870 C873 1.387 . S
H871 C867 0.950 . S
H872 C869 0.950 . S
C873 C864 1.390 . S
C873 H866 0.950 . S
C873 C870 1.387 . S
C874 C875 1.387 . S
C874 H878 0.950 . S
C874 C883 1.390 1_545 S
C875 C874 1.387 . S
C875 C877 1.387 1_545 S
H876 C883 0.950 . S
C877 C875 1.387 1_565 S
C877 C879 1.390 . S
C877 H881 0.950 1_565 S
H878 C874 0.950 . S
C879 C877 1.390 . S
C879 C880 1.387 . S
C879 H882 0.950 . S
C880 C879 1.387 . S
C880 C883 1.387 . S
H881 C877 0.950 1_545 S
H882 C879 0.950 . S
C883 C874 1.390 1_565 S
C883 H876 0.950 . S
C883 C880 1.387 . S
C884 C885 1.387 1_455 S
C884 H888 0.950 . S
C884 C893 1.390 . S
C885 C884 1.387 1_655 S
C885 C887 1.387 . S
H886 C893 0.950 . S
C887 C885 1.387 . S
C887 C889 1.390 1_655 S
C887 H891 0.950 . S
H888 C884 0.950 . S
C889 C887 1.390 1_455 S
C889 C890 1.387 . S
C889 H892 0.950 . S
C890 C889 1.387 . S
C890 C893 1.387 . S
H891 C887 0.950 . S
H892 C889 0.950 . S
C893 C884 1.390 . S
C893 H886 0.950 . S
C893 C890 1.387 . S
C894 C895 1.387 . S
C894 H898 0.950 . S
C894 C903 1.390 . S
C895 C894 1.387 . S
C895 C897 1.387 . S
H896 C903 0.950 . S
C897 C895 1.387 . S
C897 C899 1.390 . S
C897 H901 0.950 . S
H898 C894 0.950 . S
C899 C897 1.390 . S
C899 C900 1.387 . S
C899 H902 0.950 . S
C900 C899 1.387 . S
C900 C903 1.387 . S
H901 C897 0.950 . S
H902 C899 0.950 . S
C903 C894 1.390 . S
C903 H896 0.950 . S
C903 C900 1.387 . S
C904 C905 1.387 . S
C904 H908 0.950 . S
C904 C913 1.390 . S
C905 C904 1.387 . S
C905 C907 1.387 . S
H906 C913 0.950 . S
C907 C905 1.387 . S
C907 C909 1.390 1_545 S
C907 H911 0.950 . S
H908 C904 0.950 . S
C909 C907 1.390 1_565 S
C909 C910 1.387 . S
C909 H912 0.950 . S
C910 C909 1.387 . S
C910 C913 1.387 1_565 S
H911 C907 0.950 . S
H912 C909 0.950 . S
C913 C904 1.390 . S
C913 H906 0.950 . S
C913 C910 1.387 1_545 S
C914 C915 1.387 1_655 S
C914 H918 0.950 . S
C914 C923 1.390 . S
C915 C914 1.387 1_455 S
C915 C917 1.387 . S
H916 C923 0.950 . S
C917 C915 1.387 . S
C917 C919 1.390 1_455 S
C917 H921 0.950 . S
H918 C914 0.950 . S
C919 C917 1.390 1_655 S
C919 C920 1.387 . S
C919 H922 0.950 . S
C920 C919 1.387 . S
C920 C923 1.387 . S
H921 C917 0.950 . S
H922 C919 0.950 . S
C923 C914 1.390 . S
C923 H916 0.950 . S
C923 C920 1.387 . S
C924 C925 1.387 . S
C924 H928 0.950 . S
C924 C933 1.390 . S
C925 C924 1.387 . S
C925 C927 1.387 . S
H926 C933 0.950 . S
C927 C925 1.387 . S
C927 C929 1.390 . S
C927 H931 0.950 . S
H928 C924 0.950 . S
C929 C927 1.390 . S
C929 C930 1.387 . S
C929 H932 0.950 . S
C930 C929 1.387 . S
C930 C933 1.387 . S
H931 C927 0.950 . S
H932 C929 0.950 . S
C933 C924 1.390 . S
C933 H926 0.950 . S
C933 C930 1.387 . S
C934 C935 1.387 . S
C934 H938 0.950 . S
C934 C943 1.390 1_565 S
C935 C934 1.387 . S
C935 C937 1.387 1_565 S
H936 C943 0.950 . S
C937 C935 1.387 1_545 S
C937 C939 1.390 . S
C937 H941 0.950 . S
H938 C934 0.950 . S
C939 C937 1.390 . S
C939 C940 1.387 . S
C939 H942 0.950 . S
C940 C939 1.387 . S
C940 C943 1.387 . S
H941 C937 0.950 . S
H942 C939 0.950 . S
C943 C934 1.390 1_545 S
C943 H936 0.950 . S
C943 C940 1.387 . S
C944 C945 1.387 1_655 S
C944 H948 0.940 1_655 S
C944 C953 1.390 . S
C945 C944 1.387 1_455 S
C945 C947 1.387 . S
H946 C953 0.950 . S
C947 C945 1.387 . S
C947 C949 1.390 1_455 S
C947 H951 0.950 . S
H948 C944 0.940 1_455 S
C949 C947 1.390 1_655 S
C949 C950 1.387 . S
C949 H952 0.950 . S
C950 C949 1.387 . S
C950 C953 1.387 . S
H951 C947 0.950 . S
H952 C949 0.950 . S
C953 C944 1.390 . S
C953 H946 0.950 . S
C953 C950 1.387 . S
C954 C955 1.387 . S
C954 H958 0.950 . S
C954 C963 1.390 . S
C955 C954 1.387 . S
C955 C957 1.387 . S
H956 C963 0.950 . S
C957 C955 1.387 . S
C957 C959 1.390 . S
C957 H961 0.950 . S
H958 C954 0.950 . S
C959 C957 1.390 . S
C959 C960 1.387 . S
C959 H962 0.950 . S
C960 C959 1.387 . S
C960 C963 1.387 . S
H961 C957 0.950 . S
H962 C959 0.950 . S
C963 C954 1.390 . S
C963 H956 0.950 . S
C963 C960 1.387 . S
C964 C965 1.387 1_565 S
C964 H968 0.950 . S
C964 C973 1.390 . S
C965 C964 1.387 1_545 S
C965 C967 1.387 . S
H966 C973 0.950 . S
C967 C965 1.387 . S
C967 C969 1.390 1_545 S
C967 H971 0.950 . S
H968 C964 0.950 . S
C969 C967 1.390 1_565 S
C969 C970 1.387 . S
C969 H972 0.950 . S
C970 C969 1.387 . S
C970 C973 1.387 . S
H971 C967 0.950 . S
H972 C969 0.950 . S
C973 C964 1.390 . S
C973 H966 0.950 . S
C973 C970 1.387 . S
C974 C975 1.387 . S
C974 H978 0.950 . S
C974 C983 1.390 . S
C975 C974 1.387 . S
C975 C977 1.387 . S
H976 C983 0.950 . S
C977 C975 1.387 . S
C977 C979 1.390 1_455 S
C977 H981 0.950 . S
H978 C974 0.950 . S
C979 C977 1.390 1_655 S
C979 C980 1.387 . S
C979 H982 0.950 . S
C980 C979 1.387 . S
C980 C983 1.387 1_655 S
H981 C977 0.950 . S
H982 C979 0.950 . S
C983 C974 1.390 . S
C983 H976 0.950 . S
C983 C980 1.387 1_455 S
C984 C985 1.387 . S
C984 H988 0.950 . S
C984 C993 1.390 . S
C985 C984 1.387 . S
C985 C987 1.387 . S
H986 C993 0.950 . S
C987 C985 1.387 . S
C987 C989 1.390 . S
C987 H991 0.950 . S
H988 C984 0.950 . S
C989 C987 1.390 . S
C989 C990 1.387 . S
C989 H992 0.950 . S
C990 C989 1.387 . S
C990 C993 1.387 . S
H991 C987 0.950 . S
H992 C989 0.950 . S
C993 C984 1.390 . S
C993 H986 0.950 . S
C993 C990 1.387 . S
C994 C995 1.387 . S
C994 H998 0.950 . S
C994 C1003 1.390 . S
C995 C994 1.387 . S
C995 C997 1.387 . S
H996 C1003 0.950 . S
C997 C995 1.387 . S
C997 C999 1.390 . S
C997 H1001 0.950 . S
H998 C994 0.950 . S
C999 C997 1.390 . S
C999 C1000 1.387 . S
C999 H1002 0.950 . S
C1000 C999 1.387 . S
C1000 C1003 1.387 . S
H1001 C997 0.950 . S
H1002 C999 0.950 . S
C1003 C994 1.390 . S
C1003 H996 0.950 . S
C1003 C1000 1.387 . S
C1004 C1005 1.387 . S
C1004 H1008 0.950 . S
C1004 C1013 1.390 . S
C1005 C1004 1.387 . S
C1005 C1007 1.387 . S
H1006 C1013 0.950 . S
C1007 C1005 1.387 . S
C1007 C1009 1.390 . S
C1007 H1011 0.950 . S
H1008 C1004 0.950 . S
C1009 C1007 1.390 . S
C1009 C1010 1.387 . S
C1009 H1012 0.950 . S
C1010 C1009 1.387 . S
C1010 C1013 1.387 . S
H1011 C1007 0.950 . S
H1012 C1009 0.950 . S
C1013 C1004 1.390 . S
C1013 H1006 0.950 . S
C1013 C1010 1.387 . S
C1014 C1015 1.387 . S
C1014 H1018 0.950 . S
C1014 C1023 1.390 . S
C1015 C1014 1.387 . S
C1015 C1017 1.387 . S
H1016 C1023 0.950 . S
C1017 C1015 1.387 . S
C1017 C1019 1.390 . S
C1017 H1021 0.950 . S
H1018 C1014 0.950 . S
C1019 C1017 1.390 . S
C1019 C1020 1.387 . S
C1019 H1022 0.950 . S
C1020 C1019 1.387 . S
C1020 C1023 1.387 . S
H1021 C1017 0.950 . S
H1022 C1019 0.950 . S
C1023 C1014 1.390 . S
C1023 H1016 0.950 . S
C1023 C1020 1.387 . S
C1024 C1025 1.387 . S
C1024 H1028 0.950 . S
C1024 C1033 1.390 . S
C1025 C1024 1.387 . S
C1025 C1027 1.387 . S
H1026 C1033 0.950 . S
C1027 C1025 1.387 . S
C1027 C1029 1.390 . S
C1027 H1031 0.950 . S
H1028 C1024 0.950 . S
C1029 C1027 1.390 . S
C1029 C1030 1.387 . S
C1029 H1032 0.950 . S
C1030 C1029 1.387 . S
C1030 C1033 1.387 . S
H1031 C1027 0.950 . S
H1032 C1029 0.950 . S
C1033 C1024 1.390 . S
C1033 H1026 0.950 . S
C1033 C1030 1.387 . S
C1034 C1035 1.387 . S
C1034 H1038 0.950 . S
C1034 C1043 1.390 . S
C1035 C1034 1.387 . S
C1035 C1037 1.387 . S
H1036 C1043 0.950 . S
C1037 C1035 1.387 . S
C1037 C1039 1.390 . S
C1037 H1041 0.950 . S
H1038 C1034 0.950 . S
C1039 C1037 1.390 . S
C1039 C1040 1.387 . S
C1039 H1042 0.950 . S
C1040 C1039 1.387 . S
C1040 C1043 1.387 . S
H1041 C1037 0.950 . S
H1042 C1039 0.950 . S
C1043 C1034 1.390 . S
C1043 H1036 0.950 . S
C1043 C1040 1.387 . S
C1044 C1045 1.387 . S
C1044 H1048 0.950 . S
C1044 C1053 1.390 . S
C1045 C1044 1.387 . S
C1045 C1047 1.387 . S
H1046 C1053 0.950 . S
C1047 C1045 1.387 . S
C1047 C1049 1.390 . S
C1047 H1051 0.950 . S
H1048 C1044 0.950 . S
C1049 C1047 1.390 . S
C1049 C1050 1.387 . S
C1049 H1052 0.950 . S
C1050 C1049 1.387 . S
C1050 C1053 1.387 . S
H1051 C1047 0.950 . S
H1052 C1049 0.950 . S
C1053 C1044 1.390 . S
C1053 H1046 0.950 . S
C1053 C1050 1.387 . S
C1054 C1055 1.387 . S
C1054 H1058 0.950 . S
C1054 C1063 1.390 . S
C1055 C1054 1.387 . S
C1055 C1057 1.387 . S
H1056 C1063 0.950 . S
C1057 C1055 1.387 . S
C1057 C1059 1.390 . S
C1057 H1061 0.950 . S
H1058 C1054 0.950 . S
C1059 C1057 1.390 . S
C1059 C1060 1.387 . S
C1059 H1062 0.950 . S
C1060 C1059 1.387 . S
C1060 C1063 1.387 . S
H1061 C1057 0.950 . S
H1062 C1059 0.950 . S
C1063 C1054 1.390 . S
C1063 H1056 0.950 . S
C1063 C1060 1.387 . S
C1064 C1065 1.387 . S
C1064 H1068 0.950 . S
C1064 C1073 1.390 . S
C1065 C1064 1.387 . S
C1065 C1067 1.387 . S
H1066 C1073 0.950 . S
C1067 C1065 1.387 . S
C1067 C1069 1.390 . S
C1067 H1071 0.950 . S
H1068 C1064 0.950 . S
C1069 C1067 1.390 . S
C1069 C1070 1.387 . S
C1069 H1072 0.950 . S
C1070 C1069 1.387 . S
C1070 C1073 1.387 . S
H1071 C1067 0.950 . S
H1072 C1069 0.950 . S
C1073 C1064 1.390 . S
C1073 H1066 0.950 . S
C1073 C1070 1.387 . S
C1074 C1075 1.387 . S
C1074 H1078 0.950 . S
C1074 C1083 1.390 . S
C1075 C1074 1.387 . S
C1075 C1077 1.387 . S
H1076 C1083 0.950 . S
C1077 C1075 1.387 . S
C1077 C1079 1.390 . S
C1077 H1081 0.950 . S
H1078 C1074 0.950 . S
C1079 C1077 1.390 . S
C1079 C1080 1.387 . S
C1079 H1082 0.950 . S
C1080 C1079 1.387 . S
C1080 C1083 1.387 . S
H1081 C1077 0.950 . S
H1082 C1079 0.950 . S
C1083 C1074 1.390 . S
C1083 H1076 0.950 . S
C1083 C1080 1.387 . S
C1084 C1085 1.387 . S
C1084 H1088 0.950 . S
C1084 C1093 1.390 . S
C1085 C1084 1.387 . S
C1085 C1087 1.387 . S
H1086 C1093 0.950 . S
C1087 C1085 1.387 . S
C1087 C1089 1.390 . S
C1087 H1091 0.950 . S
H1088 C1084 0.950 . S
C1089 C1087 1.390 . S
C1089 C1090 1.387 . S
C1089 H1092 0.950 . S
C1090 C1089 1.387 . S
C1090 C1093 1.387 . S
H1091 C1087 0.950 . S
H1092 C1089 0.950 . S
C1093 C1084 1.390 . S
C1093 H1086 0.950 . S
C1093 C1090 1.387 . S
C1094 C1095 1.387 . S
C1094 H1098 0.950 . S
C1094 C1103 1.390 . S
C1095 C1094 1.387 . S
C1095 C1097 1.387 . S
H1096 C1103 0.950 . S
C1097 C1095 1.387 . S
C1097 C1099 1.390 . S
C1097 H1101 0.950 . S
H1098 C1094 0.950 . S
C1099 C1097 1.390 . S
C1099 C1100 1.387 . S
C1099 H1102 0.950 . S
C1100 C1099 1.387 . S
C1100 C1103 1.387 . S
H1101 C1097 0.950 . S
H1102 C1099 0.950 . S
C1103 C1094 1.390 . S
C1103 H1096 0.950 . S
C1103 C1100 1.387 . S
C1104 C1105 1.387 . S
C1104 H1108 0.950 . S
C1104 C1113 1.390 . S
C1105 C1104 1.387 . S
C1105 C1107 1.387 . S
H1106 C1113 0.950 . S
C1107 C1105 1.387 . S
C1107 C1109 1.390 . S
C1107 H1111 0.950 . S
H1108 C1104 0.950 . S
C1109 C1107 1.390 . S
C1109 C1110 1.387 . S
C1109 H1112 0.950 . S
C1110 C1109 1.387 . S
C1110 C1113 1.387 . S
H1111 C1107 0.950 . S
H1112 C1109 0.950 . S
C1113 C1104 1.390 . S
C1113 H1106 0.950 . S
C1113 C1110 1.387 . S
C1114 C1115 1.387 . S
C1114 H1118 0.950 . S
C1114 C1123 1.390 . S
C1115 C1114 1.387 . S
C1115 C1117 1.387 . S
H1116 C1123 0.950 . S
C1117 C1115 1.387 . S
C1117 C1119 1.390 . S
C1117 H1121 0.950 . S
H1118 C1114 0.950 . S
C1119 C1117 1.390 . S
C1119 C1120 1.387 . S
C1119 H1122 0.950 . S
C1120 C1119 1.387 . S
C1120 C1123 1.387 . S
H1121 C1117 0.950 . S
H1122 C1119 0.950 . S
C1123 C1114 1.390 . S
C1123 H1116 0.950 . S
C1123 C1120 1.387 . S
C1124 C1125 1.387 . S
C1124 H1128 0.950 . S
C1124 C1133 1.390 . S
C1125 C1124 1.387 . S
C1125 C1127 1.387 . S
H1126 C1133 0.950 . S
C1127 C1125 1.387 . S
C1127 C1129 1.390 . S
C1127 H1131 0.950 . S
H1128 C1124 0.950 . S
C1129 C1127 1.390 . S
C1129 C1130 1.387 . S
C1129 H1132 0.950 . S
C1130 C1129 1.387 . S
C1130 C1133 1.387 . S
H1131 C1127 0.950 . S
H1132 C1129 0.950 . S
C1133 C1124 1.390 . S
C1133 H1126 0.950 . S
C1133 C1130 1.387 . S
C1134 C1135 1.387 . S
C1134 H1138 0.950 . S
C1134 C1143 1.390 . S
C1135 C1134 1.387 . S
C1135 C1137 1.387 . S
H1136 C1143 0.950 . S
C1137 C1135 1.387 . S
C1137 C1139 1.390 . S
C1137 H1141 0.950 . S
H1138 C1134 0.950 . S
C1139 C1137 1.390 . S
C1139 C1140 1.387 . S
C1139 H1142 0.950 . S
C1140 C1139 1.387 . S
C1140 C1143 1.387 . S
H1141 C1137 0.950 . S
H1142 C1139 0.950 . S
C1143 C1134 1.390 . S
C1143 H1136 0.950 . S
C1143 C1140 1.387 . S
C1144 C1145 1.387 . S
C1144 H1148 0.950 . S
C1144 C1153 1.390 . S
C1145 C1144 1.387 . S
C1145 C1147 1.387 . S
H1146 C1153 0.950 . S
C1147 C1145 1.387 . S
C1147 C1149 1.390 . S
C1147 H1151 0.950 . S
H1148 C1144 0.950 . S
C1149 C1147 1.390 . S
C1149 C1150 1.387 . S
C1149 H1152 0.950 . S
C1150 C1149 1.387 . S
C1150 C1153 1.387 . S
H1151 C1147 0.950 . S
H1152 C1149 0.950 . S
C1153 C1144 1.390 . S
C1153 H1146 0.950 . S
C1153 C1150 1.387 . S
C1154 C1155 1.387 . S
C1154 H1158 0.950 . S
C1154 C1163 1.390 . S
C1155 C1154 1.387 . S
C1155 C1157 1.387 . S
H1156 C1163 0.950 . S
C1157 C1155 1.387 . S
C1157 C1159 1.390 . S
C1157 H1161 0.950 . S
H1158 C1154 0.950 . S
C1159 C1157 1.390 . S
C1159 C1160 1.387 . S
C1159 H1162 0.950 . S
C1160 C1159 1.387 . S
C1160 C1163 1.387 . S
H1161 C1157 0.950 . S
H1162 C1159 0.950 . S
C1163 C1154 1.390 . S
C1163 H1156 0.950 . S
C1163 C1160 1.387 . S
C1164 C1165 1.387 . S
C1164 H1168 0.950 . S
C1164 C1173 1.390 . S
C1165 C1164 1.387 . S
C1165 C1167 1.387 . S
H1166 C1173 0.950 . S
C1167 C1165 1.387 . S
C1167 C1169 1.390 . S
C1167 H1171 0.950 . S
H1168 C1164 0.950 . S
C1169 C1167 1.390 . S
C1169 C1170 1.387 . S
C1169 H1172 0.950 . S
C1170 C1169 1.387 . S
C1170 C1173 1.387 . S
H1171 C1167 0.950 . S
H1172 C1169 0.950 . S
C1173 C1164 1.390 . S
C1173 H1166 0.950 . S
C1173 C1170 1.387 . S
C1174 C1175 1.387 . S
C1174 H1178 0.950 . S
C1174 C1183 1.390 . S
C1175 C1174 1.387 . S
C1175 C1177 1.387 . S
H1176 C1183 0.950 . S
C1177 C1175 1.387 . S
C1177 C1179 1.390 . S
C1177 H1181 0.950 . S
H1178 C1174 0.950 . S
C1179 C1177 1.390 . S
C1179 C1180 1.387 . S
C1179 H1182 0.950 . S
C1180 C1179 1.387 . S
C1180 C1183 1.387 . S
H1181 C1177 0.950 . S
H1182 C1179 0.950 . S
C1183 C1174 1.390 . S
C1183 H1176 0.950 . S
C1183 C1180 1.387 . S
C1184 C1185 1.387 . S
C1184 H1188 0.950 . S
C1184 C1193 1.390 . S
C1185 C1184 1.387 . S
C1185 C1187 1.387 . S
H1186 C1193 0.950 . S
C1187 C1185 1.387 . S
C1187 C1189 1.390 . S
C1187 H1191 0.950 . S
H1188 C1184 0.950 . S
C1189 C1187 1.390 . S
C1189 C1190 1.387 . S
C1189 H1192 0.950 . S
C1190 C1189 1.387 . S
C1190 C1193 1.387 . S
H1191 C1187 0.950 . S
H1192 C1189 0.950 . S
C1193 C1184 1.390 . S
C1193 H1186 0.950 . S
C1193 C1190 1.387 . S
C1194 C1195 1.387 . S
C1194 H1198 0.950 . S
C1194 C1203 1.390 . S
C1195 C1194 1.387 . S
C1195 C1197 1.387 . S
H1196 C1203 0.950 . S
C1197 C1195 1.387 . S
C1197 C1199 1.390 . S
C1197 H1201 0.950 . S
H1198 C1194 0.950 . S
C1199 C1197 1.390 . S
C1199 C1200 1.387 . S
C1199 H1202 0.950 . S
C1200 C1199 1.387 . S
C1200 C1203 1.387 . S
H1201 C1197 0.950 . S
H1202 C1199 0.950 . S
C1203 C1194 1.390 . S
C1203 H1196 0.950 . S
C1203 C1200 1.387 . S
C1204 C1205 1.387 . S
C1204 H1208 0.950 . S
C1204 C1213 1.390 . S
C1205 C1204 1.387 . S
C1205 C1207 1.387 . S
H1206 C1213 0.950 . S
C1207 C1205 1.387 . S
C1207 C1209 1.390 . S
C1207 H1211 0.950 . S
H1208 C1204 0.950 . S
C1209 C1207 1.390 . S
C1209 C1210 1.387 . S
C1209 H1212 0.950 . S
C1210 C1209 1.387 . S
C1210 C1213 1.387 . S
H1211 C1207 0.950 . S
H1212 C1209 0.950 . S
C1213 C1204 1.390 . S
C1213 H1206 0.950 . S
C1213 C1210 1.387 . S
C1214 C1215 1.387 . S
C1214 H1218 0.950 . S
C1214 C1223 1.390 . S
C1215 C1214 1.387 . S
C1215 C1217 1.387 . S
H1216 C1223 0.950 . S
C1217 C1215 1.387 . S
C1217 C1219 1.390 . S
C1217 H1221 0.950 . S
H1218 C1214 0.950 . S
C1219 C1217 1.390 . S
C1219 C1220 1.387 . S
C1219 H1222 0.950 . S
C1220 C1219 1.387 . S
C1220 C1223 1.387 . S
H1221 C1217 0.950 . S
H1222 C1219 0.950 . S
C1223 C1214 1.390 . S
C1223 H1216 0.950 . S
C1223 C1220 1.387 . S
C505 C13 1.311 . S
C510 C265 1.311 . S
C515 C279 1.311 . S
C520 C27 1.311 . S
C525 C293 1.312 . S
C530 C41 1.312 . S
C535 C55 1.312 . S
C540 C475 1.312 . S
C545 C69 1.310 . S
C550 C489 1.310 . S
C555 C83 1.311 . S
C560 C503 1.311 . S
C565 C349 1.312 . S
C570 C97 1.312 . S
C575 C111 1.311 . S
C580 C363 1.311 . S
C585 C125 1.309 . S
C590 C377 1.309 . S
C595 C223 1.308 . S
C600 C139 1.308 . S
C605 C237 1.307 . S
C610 C153 1.307 . S
C615 C251 1.308 . S
C620 C167 1.308 . S
C625 C433 1.312 . S
C630 C181 1.312 . S
C635 C447 1.308 . S
C640 C195 1.308 . S
C645 C209 1.308 . S
C650 C461 1.308 . S
C655 C391 1.312 . S
C660 C307 1.312 . S
C665 C321 1.308 . S
C670 C405 1.308 . S
C675 C335 1.311 . S
C680 C419 1.311 . S
C685 C11 1.492 . S
C690 C389 1.494 . S
C695 C403 1.491 . S
C700 C25 1.491 . S
C705 C417 1.492 . S
C710 C39 1.491 . S
C715 C179 1.493 . S
C720 C53 1.491 . S
C725 C193 1.494 . S
C730 C67 1.494 . S
C735 C207 1.490 . S
C740 C81 1.492 . S
C745 C95 1.492 . S
C750 C305 1.494 . S
C755 C319 1.493 . S
C760 C109 1.493 . S
C765 C333 1.493 . S
C770 C123 1.491 . S
C775 C137 1.494 . S
C780 C431 1.492 . S
C785 C151 1.491 . S
C790 C445 1.491 . S
C795 C165 1.492 . S
C800 C459 1.494 . S
C805 C221 1.494 . S
C810 C347 1.492 . S
C815 C235 1.494 . S
C820 C361 1.493 . S
C825 C249 1.491 . S
C830 C375 1.493 . S
C835 C263 1.491 . S
C840 C473 1.494 . S
C845 C487 1.494 . S
C850 C277 1.493 . S
C855 C291 1.491 . S
C860 C501 1.492 . S
C865 C21 1.281 . S
C870 C8 1.111 . S
C875 C22 1.112 . S
C880 C35 1.282 . S
C885 C36 1.111 . S
C890 C7 1.281 . S
C895 C50 1.117 . S
C900 C77 1.282 . S
C905 C49 1.281 . S
C910 C64 1.114 . S
C915 C78 1.111 . S
C920 C63 1.281 . S
C925 C92 1.111 . S
C930 C105 1.281 . S
C935 C106 1.113 . S
C940 C119 1.281 . S
C945 C120 1.112 . S
C950 C91 1.282 . S
C955 C161 1.283 . S
C960 C134 1.113 . S
C965 C148 1.113 . S
C970 C133 1.283 . S
C975 C147 1.283 . S
C980 C162 1.118 . S
C985 C189 1.283 . S
C990 C176 1.117 . S
C995 C203 1.283 . S
C1000 C190 1.118 . S
C1005 C175 1.281 . S
C1010 C204 1.115 . S
C1015 C218 1.113 . S
C1020 C245 1.283 . S
C1025 C232 1.118 . S
C1030 C217 1.283 . S
C1035 C246 1.117 . S
C1040 C231 1.284 . S
C1045 C273 1.283 . S
C1050 C260 1.118 . S
C1055 C274 1.118 . S
C1060 C287 1.283 . S
C1065 C288 1.113 . S
C1070 C259 1.283 . S
C1075 C302 1.111 . S
C1080 C329 1.281 . S
C1085 C316 1.113 . S
C1090 C301 1.281 . S
C1095 C315 1.281 . S
C1100 C330 1.115 . S
C1105 C357 1.284 . S
C1110 C344 1.117 . S
C1115 C358 1.114 . S
C1120 C371 1.281 . S
C1125 C343 1.282 . S
C1130 C372 1.116 . S
C1135 C386 1.111 . S
C1140 C413 1.281 . S
C1145 C400 1.114 . S
C1150 C385 1.283 . S
C1155 C414 1.118 . S
C1160 C399 1.283 . S
C1165 C428 1.117 . S
C1170 C441 1.283 . S
C1175 C442 1.118 . S
C1180 C455 1.283 . S
C1185 C456 1.112 . S
C1190 C427 1.282 . S
C1195 C470 1.113 . S
C1200 C497 1.283 . S
C1205 C484 1.113 . S
C1210 C469 1.283 . S
C1215 C483 1.281 . S
C1220 C498 1.111 . S
