# Generated by pormake.
# Topology rho, (4)-cn, num edge types: 1
# Building blocks:
#     Node 0, Type 0, BuildingBlock: TATPOV_clean_sbu_0, # of connection points: 4
#     Node 1, Type 0, BuildingBlock: TATPOV_clean_sbu_0, # of connection points: 4
#     Node 2, Type 0, BuildingBlock: TATPOV_clean_sbu_0, # of connection points: 4
#     Node 3, Type 0, BuildingBlock: TATPOV_clean_sbu_0, # of connection points: 4
#     Node 4, Type 0, BuildingBlock: TATPOV_clean_sbu_0, # of connection points: 4
#     Node 5, Type 0, BuildingBlock: TATPOV_clean_sbu_0, # of connection points: 4
#     Node 6, Type 0, BuildingBlock: TATPOV_clean_sbu_0, # of connection points: 4
#     Node 7, Type 0, BuildingBlock: TATPOV_clean_sbu_0, # of connection points: 4
#     Node 8, Type 0, BuildingBlock: TATPOV_clean_sbu_0, # of connection points: 4
#     Node 9, Type 0, BuildingBlock: TATPOV_clean_sbu_0, # of connection points: 4
#     Node 10, Type 0, BuildingBlock: TATPOV_clean_sbu_0, # of connection points: 4
#     Node 11, Type 0, BuildingBlock: TATPOV_clean_sbu_0, # of connection points: 4
#     Node 12, Type 0, BuildingBlock: TATPOV_clean_sbu_0, # of connection points: 4
#     Node 13, Type 0, BuildingBlock: TATPOV_clean_sbu_0, # of connection points: 4
#     Node 14, Type 0, BuildingBlock: TATPOV_clean_sbu_0, # of connection points: 4
#     Node 15, Type 0, BuildingBlock: TATPOV_clean_sbu_0, # of connection points: 4
#     Node 16, Type 0, BuildingBlock: TATPOV_clean_sbu_0, # of connection points: 4
#     Node 17, Type 0, BuildingBlock: TATPOV_clean_sbu_0, # of connection points: 4
#     Node 18, Type 0, BuildingBlock: TATPOV_clean_sbu_0, # of connection points: 4
#     Node 19, Type 0, BuildingBlock: TATPOV_clean_sbu_0, # of connection points: 4
#     Node 20, Type 0, BuildingBlock: TATPOV_clean_sbu_0, # of connection points: 4
#     Node 21, Type 0, BuildingBlock: TATPOV_clean_sbu_0, # of connection points: 4
#     Node 22, Type 0, BuildingBlock: TATPOV_clean_sbu_0, # of connection points: 4
#     Node 23, Type 0, BuildingBlock: TATPOV_clean_sbu_0, # of connection points: 4
#     Node 24, Type 0, BuildingBlock: TATPOV_clean_sbu_0, # of connection points: 4
#     Node 25, Type 0, BuildingBlock: TATPOV_clean_sbu_0, # of connection points: 4
#     Node 26, Type 0, BuildingBlock: TATPOV_clean_sbu_0, # of connection points: 4
#     Node 27, Type 0, BuildingBlock: TATPOV_clean_sbu_0, # of connection points: 4
#     Node 28, Type 0, BuildingBlock: TATPOV_clean_sbu_0, # of connection points: 4
#     Node 29, Type 0, BuildingBlock: TATPOV_clean_sbu_0, # of connection points: 4
#     Node 30, Type 0, BuildingBlock: TATPOV_clean_sbu_0, # of connection points: 4
#     Node 31, Type 0, BuildingBlock: TATPOV_clean_sbu_0, # of connection points: 4
#     Node 32, Type 0, BuildingBlock: TATPOV_clean_sbu_0, # of connection points: 4
#     Node 33, Type 0, BuildingBlock: TATPOV_clean_sbu_0, # of connection points: 4
#     Node 34, Type 0, BuildingBlock: TATPOV_clean_sbu_0, # of connection points: 4
#     Node 35, Type 0, BuildingBlock: TATPOV_clean_sbu_0, # of connection points: 4
#     Node 36, Type 0, BuildingBlock: TATPOV_clean_sbu_0, # of connection points: 4
#     Node 37, Type 0, BuildingBlock: TATPOV_clean_sbu_0, # of connection points: 4
#     Node 38, Type 0, BuildingBlock: TATPOV_clean_sbu_0, # of connection points: 4
#     Node 39, Type 0, BuildingBlock: TATPOV_clean_sbu_0, # of connection points: 4
#     Node 40, Type 0, BuildingBlock: TATPOV_clean_sbu_0, # of connection points: 4
#     Node 41, Type 0, BuildingBlock: TATPOV_clean_sbu_0, # of connection points: 4
#     Node 42, Type 0, BuildingBlock: TATPOV_clean_sbu_0, # of connection points: 4
#     Node 43, Type 0, BuildingBlock: TATPOV_clean_sbu_0, # of connection points: 4
#     Node 44, Type 0, BuildingBlock: TATPOV_clean_sbu_0, # of connection points: 4
#     Node 45, Type 0, BuildingBlock: TATPOV_clean_sbu_0, # of connection points: 4
#     Node 46, Type 0, BuildingBlock: TATPOV_clean_sbu_0, # of connection points: 4
#     Node 47, Type 0, BuildingBlock: TATPOV_clean_sbu_0, # of connection points: 4
#     Edge 48, Type (0, 0), None
#     Edge 49, Type (0, 0), None
#     Edge 50, Type (0, 0), None
#     Edge 51, Type (0, 0), None
#     Edge 52, Type (0, 0), None
#     Edge 53, Type (0, 0), None
#     Edge 54, Type (0, 0), None
#     Edge 55, Type (0, 0), None
#     Edge 56, Type (0, 0), None
#     Edge 57, Type (0, 0), None
#     Edge 58, Type (0, 0), None
#     Edge 59, Type (0, 0), None
#     Edge 60, Type (0, 0), None
#     Edge 61, Type (0, 0), None
#     Edge 62, Type (0, 0), None
#     Edge 63, Type (0, 0), None
#     Edge 64, Type (0, 0), None
#     Edge 65, Type (0, 0), None
#     Edge 66, Type (0, 0), None
#     Edge 67, Type (0, 0), None
#     Edge 68, Type (0, 0), None
#     Edge 69, Type (0, 0), None
#     Edge 70, Type (0, 0), None
#     Edge 71, Type (0, 0), None
#     Edge 72, Type (0, 0), None
#     Edge 73, Type (0, 0), None
#     Edge 74, Type (0, 0), None
#     Edge 75, Type (0, 0), None
#     Edge 76, Type (0, 0), None
#     Edge 77, Type (0, 0), None
#     Edge 78, Type (0, 0), None
#     Edge 79, Type (0, 0), None
#     Edge 80, Type (0, 0), None
#     Edge 81, Type (0, 0), None
#     Edge 82, Type (0, 0), None
#     Edge 83, Type (0, 0), None
#     Edge 84, Type (0, 0), None
#     Edge 85, Type (0, 0), None
#     Edge 86, Type (0, 0), None
#     Edge 87, Type (0, 0), None
#     Edge 88, Type (0, 0), None
#     Edge 89, Type (0, 0), None
#     Edge 90, Type (0, 0), None
#     Edge 91, Type (0, 0), None
#     Edge 92, Type (0, 0), None
#     Edge 93, Type (0, 0), None
#     Edge 94, Type (0, 0), None
#     Edge 95, Type (0, 0), None
#     Edge 96, Type (0, 0), None
#     Edge 97, Type (0, 0), None
#     Edge 98, Type (0, 0), None
#     Edge 99, Type (0, 0), None
#     Edge 100, Type (0, 0), None
#     Edge 101, Type (0, 0), None
#     Edge 102, Type (0, 0), None
#     Edge 103, Type (0, 0), None
#     Edge 104, Type (0, 0), None
#     Edge 105, Type (0, 0), None
#     Edge 106, Type (0, 0), None
#     Edge 107, Type (0, 0), None
#     Edge 108, Type (0, 0), None
#     Edge 109, Type (0, 0), None
#     Edge 110, Type (0, 0), None
#     Edge 111, Type (0, 0), None
#     Edge 112, Type (0, 0), None
#     Edge 113, Type (0, 0), None
#     Edge 114, Type (0, 0), None
#     Edge 115, Type (0, 0), None
#     Edge 116, Type (0, 0), None
#     Edge 117, Type (0, 0), None
#     Edge 118, Type (0, 0), None
#     Edge 119, Type (0, 0), None
#     Edge 120, Type (0, 0), None
#     Edge 121, Type (0, 0), None
#     Edge 122, Type (0, 0), None
#     Edge 123, Type (0, 0), None
#     Edge 124, Type (0, 0), None
#     Edge 125, Type (0, 0), None
#     Edge 126, Type (0, 0), None
#     Edge 127, Type (0, 0), None
#     Edge 128, Type (0, 0), None
#     Edge 129, Type (0, 0), None
#     Edge 130, Type (0, 0), None
#     Edge 131, Type (0, 0), None
#     Edge 132, Type (0, 0), None
#     Edge 133, Type (0, 0), None
#     Edge 134, Type (0, 0), None
#     Edge 135, Type (0, 0), None
#     Edge 136, Type (0, 0), None
#     Edge 137, Type (0, 0), None
#     Edge 138, Type (0, 0), None
#     Edge 139, Type (0, 0), None
#     Edge 140, Type (0, 0), None
#     Edge 141, Type (0, 0), None
#     Edge 142, Type (0, 0), None
#     Edge 143, Type (0, 0), None
# Relax obj value: 0.163
# Max RMSD: 0.205
# Mean RMSD: 0.193
data_MOF--net-rho--node1-TATPOV_clean_sbu_0--edge1-none
_symmetry_space_group_name_H-M    P1
_symmetry_Int_Tables_number       1
_symmetry_cell_setting            triclinic
loop_
_symmetry_equiv_pos_as_xyz
'x, y, z'
_cell_length_a     32.425234
_cell_length_b     32.480635
_cell_length_c     32.154269
_cell_angle_alpha  89.426917
_cell_angle_beta   91.192762
_cell_angle_gamma 91.1293
loop_
_atom_site_label
_atom_site_type_symbol
_atom_site_fract_x
_atom_site_fract_y
_atom_site_fract_z
_atom_type_partial_charge
Zn0 Zn 0.04024 0.27841 0.3738 0.0
Zn1 Zn 0.09455 0.22597 0.39053 0.0
O2 O 0.11897 0.28071 0.36823 0.0
O3 O 0.07515 0.26415 0.32197 0.0
O4 O 0.13945 0.18554 0.38813 0.0
O5 O 0.05758 0.29546 0.43476 0.0
O6 O 0.08684 0.23638 0.44984 0.0
C7 C 0.10429 0.28776 0.33248 0.0
C8 C 0.00215 0.20765 0.36158 0.0
O9 O 0.04016 0.19758 0.36521 0.0
O10 O -0.00891 0.24367 0.36981 0.0
C11 C 0.14852 0.16774 0.35473 0.0
O12 O 0.12747 0.17524 0.32025 0.0
C13 C 0.07319 0.27065 0.46133 0.0
Zn14 Zn 0.8393 0.03762 0.41286 0.0
Zn15 Zn 0.75467 0.08037 0.39804 0.0
O16 O 0.78822 0.13383 0.39816 0.0
O17 O 0.84716 0.09964 0.40246 0.0
O18 O 0.69721 0.08992 0.37381 0.0
O19 O 0.8323 -0.00443 0.36417 0.0
O20 O 0.78905 0.04463 0.36211 0.0
C21 C 0.82759 0.13316 0.39866 0.0
C22 C 0.77529 0.04007 0.48201 0.0
O23 O 0.75061 0.06112 0.45925 0.0
O24 O 0.80897 0.02698 0.46775 0.0
C25 C 0.68859 0.10926 0.34019 0.0
O26 O 0.71847 0.12425 0.31724 0.0
C27 C 0.7954 0.00635 0.35871 0.0
Zn28 Zn 0.95282 0.68125 0.40884 0.0
Zn29 Zn 0.88604 0.7332 0.39479 0.0
O30 O 0.87361 0.68568 0.3543 0.0
O31 O 0.92648 0.64468 0.36524 0.0
O32 O 0.8388 0.77326 0.38954 0.0
O33 O 0.93819 0.67672 0.46972 0.0
O34 O 0.88865 0.721 0.45698 0.0
C35 C 0.89334 0.65333 0.34583 0.0
C36 C 0.97431 0.7625 0.37694 0.0
O37 O 0.93555 0.76784 0.37741 0.0
O38 O -0.01028 0.7288 0.38909 0.0
C39 C 0.83253 0.79475 0.35684 0.0
O40 O 0.85535 0.78919 0.32419 0.0
C41 C 0.90954 0.69902 0.48237 0.0
Zn42 Zn 0.12987 0.94633 0.39026 0.0
Zn43 Zn 0.2352 0.90015 0.38177 0.0
O44 O 0.20322 0.84364 0.39002 0.0
O45 O 0.16448 0.8955 0.39647 0.0
O46 O 0.28739 0.89466 0.34822 0.0
O47 O 0.15453 0.98751 0.347 0.0
O48 O 0.19734 0.93715 0.34569 0.0
C49 C 0.16755 0.85711 0.39691 0.0
C50 C 0.20684 0.93628 0.46051 0.0
O51 O 0.23874 0.92299 0.44216 0.0
O52 O 0.17282 0.94173 0.44051 0.0
C53 C 0.30088 0.85998 0.33725 0.0
O54 O 0.28464 0.82599 0.3528 0.0
C55 C 0.19169 0.97569 0.34658 0.0
Zn56 Zn 0.04454 0.85496 0.58891 0.0
Zn57 Zn 0.07849 0.74248 0.60688 0.0
O58 O 0.13735 0.77062 0.59932 0.0
O59 O 0.08786 0.81044 0.58144 0.0
O60 O 0.07991 0.68956 0.64204 0.0
O61 O 0.00157 0.83747 0.6337 0.0
O62 O 0.04646 0.7885 0.63843 0.0
C63 C 0.1259 0.80647 0.58853 0.0
C64 C 0.04332 0.76885 0.52936 0.0
O65 O 0.05483 0.73512 0.54626 0.0
O66 O 0.04379 0.80107 0.55175 0.0
C67 C 0.11077 0.66596 0.64472 0.0
O68 O 0.14345 0.67437 0.6225 0.0
C69 C 0.00889 0.79929 0.63879 0.0
Zn70 Zn 0.288 0.03429 0.60301 0.0
Zn71 Zn 0.2366 0.09356 0.59721 0.0
O72 O 0.28828 0.11765 0.6264 0.0
O73 O 0.29636 0.0601 0.65961 0.0
O74 O 0.19436 0.13893 0.59853 0.0
O75 O 0.30764 0.05377 0.54596 0.0
O76 O 0.24924 0.08664 0.53704 0.0
C77 C 0.30474 0.09785 0.65624 0.0
C78 C 0.21561 0.00066 0.61826 0.0
O79 O 0.20845 0.03934 0.62005 0.0
O80 O 0.24924 0.98792 0.60478 0.0
C81 C 0.17765 0.1498 0.63202 0.0
O82 O 0.18696 0.13062 0.66701 0.0
C83 C 0.28172 0.07171 0.52232 0.0
Zn84 Zn 0.94462 0.13411 0.5717 0.0
Zn85 Zn 0.90157 0.21777 0.58805 0.0
O86 O 0.84859 0.18424 0.5885 0.0
O87 O 0.88266 0.12525 0.58491 0.0
O88 O 0.89742 0.27276 0.61504 0.0
O89 O -0.00912 0.1442 0.61761 0.0
O90 O 0.93909 0.18333 0.62187 0.0
C91 C 0.84927 0.14496 0.5888 0.0
C92 C 0.93836 0.20152 0.50395 0.0
O93 O 0.91928 0.22542 0.52784 0.0
O94 O 0.95061 0.16637 0.51652 0.0
C95 C 0.873 0.28643 0.64188 0.0
O96 O 0.84292 0.26294 0.65608 0.0
C97 C 0.97788 0.18003 0.6234 0.0
Zn98 Zn 0.6779 0.94935 0.58708 0.0
Zn99 Zn 0.73308 0.88605 0.59581 0.0
O100 O 0.68866 0.86419 0.63364 0.0
O101 O 0.64685 0.91705 0.62958 0.0
O102 O 0.77642 0.84383 0.59936 0.0
O103 O 0.67191 0.9361 0.52584 0.0
O104 O 0.71909 0.88856 0.53417 0.0
C105 C 0.65649 0.88235 0.64471 0.0
C106 C 0.75589 0.97418 0.62308 0.0
O107 O 0.7634 0.9362 0.6192 0.0
O108 O 0.72199 -0.01128 0.61007 0.0
C109 C 0.79714 0.83844 0.63282 0.0
O110 O 0.78904 0.85983 0.666 0.0
C111 C 0.69433 0.90865 0.51093 0.0
Zn112 Zn 0.45009 0.09023 0.18081 0.0
Zn113 Zn 0.39354 0.08795 0.2376 0.0
O114 O 0.37092 0.13481 0.20329 0.0
O115 O 0.41268 0.13047 0.15075 0.0
O116 O 0.35523 0.08081 0.28241 0.0
O117 O 0.44186 0.02934 0.17009 0.0
O118 O 0.39162 0.02956 0.21485 0.0
C119 C 0.38223 0.14692 0.16769 0.0
C120 C 0.48121 0.11416 0.2626 0.0
O121 O 0.44425 0.10505 0.27176 0.0
O122 O 0.49271 0.11125 0.22529 0.0
C123 C 0.34456 0.10841 0.30721 0.0
O124 O 0.35568 0.1471 0.30151 0.0
C125 C 0.41323 0.01053 0.1891 0.0
Zn126 Zn 0.92561 0.38678 0.13778 0.0
Zn127 Zn 0.8963 0.38035 0.23207 0.0
O128 O 0.84081 0.37332 0.20257 0.0
O129 O 0.86253 0.36874 0.13709 0.0
O130 O 0.89796 0.35118 0.28882 0.0
O131 O 0.97927 0.353 0.15486 0.0
O132 O 0.9306 0.34793 0.19779 0.0
C133 C 0.83363 0.36799 0.16368 0.0
C134 C 0.92447 0.46285 0.19533 0.0
O135 O 0.91351 0.44217 0.22768 0.0
O136 O 0.92944 0.4457 0.16035 0.0
C137 C 0.86653 0.34317 0.31075 0.0
O138 O 0.83083 0.35882 0.29988 0.0
C139 C 0.96892 0.34957 0.19237 0.0
Zn140 Zn 0.54972 0.88871 0.3471 0.0
Zn141 Zn 0.56981 0.88794 0.25427 0.0
O142 O 0.62513 0.88261 0.27954 0.0
O143 O 0.60647 0.85879 0.34159 0.0
O144 O 0.56866 0.86888 0.19534 0.0
O145 O 0.49173 0.86058 0.33461 0.0
O146 O 0.53688 0.84977 0.28858 0.0
C147 C 0.63426 0.86725 0.31505 0.0
C148 C 0.55304 0.96869 0.29272 0.0
O149 O 0.55672 0.94881 0.25903 0.0
O150 O 0.55166 0.95015 0.3279 0.0
C151 C 0.5964 0.84696 0.17983 0.0
O152 O 0.62957 0.83811 0.20202 0.0
C153 C 0.49938 0.85333 0.29709 0.0
Zn154 Zn 0.03455 0.58904 0.30656 0.0
Zn155 Zn 0.09611 0.59179 0.25206 0.0
O156 O 0.11171 0.63946 0.29325 0.0
O157 O 0.06222 0.63334 0.33919 0.0
O158 O 0.14123 0.58985 0.20883 0.0
O159 O 0.04118 0.52986 0.32046 0.0
O160 O 0.09035 0.53133 0.274 0.0
C161 C 0.09425 0.65163 0.32611 0.0
C162 C 0.00891 0.61153 0.22369 0.0
O163 O 0.04672 0.60709 0.21554 0.0
O164 O -0.0041 0.60546 0.26009 0.0
C165 C 0.14659 0.6193 0.1829 0.0
O166 O 0.12501 0.65286 0.18613 0.0
C167 C 0.06784 0.51148 0.29986 0.0
Zn168 Zn 0.42561 0.88678 0.63778 0.0
Zn169 Zn 0.3963 0.88035 0.73207 0.0
O170 O 0.34081 0.87332 0.70256 0.0
O171 O 0.36253 0.86874 0.63709 0.0
O172 O 0.39796 0.85117 0.78882 0.0
O173 O 0.47927 0.853 0.65486 0.0
O174 O 0.4306 0.84793 0.69779 0.0
C175 C 0.33363 0.86799 0.66367 0.0
C176 C 0.42447 0.96285 0.69533 0.0
O177 O 0.41351 0.94216 0.72768 0.0
O178 O 0.42944 0.9457 0.66035 0.0
C179 C 0.36653 0.84317 0.81075 0.0
O180 O 0.33083 0.85881 0.79988 0.0
C181 C 0.46892 0.84957 0.69237 0.0
Zn182 Zn 0.04972 0.38871 0.8471 0.0
Zn183 Zn 0.06981 0.38794 0.75427 0.0
O184 O 0.12513 0.38261 0.77955 0.0
O185 O 0.10647 0.35878 0.84159 0.0
O186 O 0.06866 0.36888 0.69534 0.0
O187 O -0.00827 0.36059 0.83461 0.0
O188 O 0.03688 0.34977 0.78858 0.0
C189 C 0.13426 0.36725 0.81505 0.0
C190 C 0.05304 0.46869 0.79272 0.0
O191 O 0.05672 0.44881 0.75903 0.0
O192 O 0.05166 0.45015 0.82791 0.0
C193 C 0.0964 0.34696 0.67984 0.0
O194 O 0.12957 0.33811 0.70202 0.0
C195 C -0.00062 0.35333 0.79709 0.0
Zn196 Zn 0.53454 0.08904 0.80656 0.0
Zn197 Zn 0.59611 0.09179 0.75207 0.0
O198 O 0.61171 0.13946 0.79326 0.0
O199 O 0.56221 0.13334 0.8392 0.0
O200 O 0.64122 0.08986 0.70885 0.0
O201 O 0.54118 0.02986 0.82047 0.0
O202 O 0.59035 0.03133 0.77401 0.0
C203 C 0.59425 0.15163 0.82612 0.0
C204 C 0.50891 0.11153 0.7237 0.0
O205 O 0.54672 0.10709 0.71555 0.0
O206 O 0.4959 0.10546 0.76009 0.0
C207 C 0.64658 0.11931 0.68292 0.0
O208 O 0.625 0.15287 0.68615 0.0
C209 C 0.56783 0.01148 0.79986 0.0
Zn210 Zn 0.95008 0.59023 0.6808 0.0
Zn211 Zn 0.89354 0.58794 0.7376 0.0
O212 O 0.87092 0.63481 0.70329 0.0
O213 O 0.91267 0.63047 0.65074 0.0
O214 O 0.85523 0.58081 0.7824 0.0
O215 O 0.94186 0.52934 0.67008 0.0
O216 O 0.89162 0.52956 0.71485 0.0
C217 C 0.88223 0.64692 0.66769 0.0
C218 C 0.9812 0.61416 0.7626 0.0
O219 O 0.94425 0.60505 0.77176 0.0
O220 O -0.0073 0.61125 0.72529 0.0
C221 C 0.84456 0.6084 0.80721 0.0
O222 O 0.85568 0.64709 0.80151 0.0
C223 C 0.91323 0.51053 0.68909 0.0
Zn224 Zn 0.1779 0.44936 0.08708 0.0
Zn225 Zn 0.23308 0.38606 0.09581 0.0
O226 O 0.18866 0.36419 0.13364 0.0
O227 O 0.14685 0.41705 0.12958 0.0
O228 O 0.27642 0.34384 0.09936 0.0
O229 O 0.17192 0.4361 0.02585 0.0
O230 O 0.2191 0.38857 0.03417 0.0
C231 C 0.15649 0.38236 0.14471 0.0
C232 C 0.25588 0.47419 0.12309 0.0
O233 O 0.26339 0.4362 0.11921 0.0
O234 O 0.22198 0.48873 0.11008 0.0
C235 C 0.29714 0.33844 0.13282 0.0
O236 O 0.28904 0.35983 0.166 0.0
C237 C 0.19434 0.40866 0.01094 0.0
Zn238 Zn 0.33929 0.53761 0.9128 0.0
Zn239 Zn 0.25467 0.58037 0.89804 0.0
O240 O 0.28823 0.63383 0.89816 0.0
O241 O 0.34716 0.59963 0.90242 0.0
O242 O 0.1972 0.58993 0.87382 0.0
O243 O 0.33228 0.49558 0.86409 0.0
O244 O 0.28902 0.54464 0.86207 0.0
C245 C 0.32759 0.63315 0.89864 0.0
C246 C 0.27533 0.54004 0.98198 0.0
O247 O 0.25063 0.5611 0.95924 0.0
O248 O 0.309 0.52695 0.9677 0.0
C249 C 0.18858 0.60926 0.8402 0.0
O250 O 0.21846 0.62423 0.81724 0.0
C251 C 0.29537 0.50636 0.85866 0.0
Zn252 Zn 0.45282 0.18126 0.90884 0.0
Zn253 Zn 0.38604 0.2332 0.89479 0.0
O254 O 0.37361 0.18568 0.8543 0.0
O255 O 0.42648 0.14468 0.86524 0.0
O256 O 0.3388 0.27327 0.88954 0.0
O257 O 0.43819 0.17673 0.96972 0.0
O258 O 0.38865 0.221 0.95698 0.0
C259 C 0.39333 0.15333 0.84583 0.0
C260 C 0.47431 0.2625 0.87694 0.0
O261 O 0.43555 0.26785 0.87741 0.0
O262 O 0.48972 0.2288 0.88909 0.0
C263 C 0.33253 0.29476 0.85684 0.0
O264 O 0.35534 0.28919 0.82418 0.0
C265 C 0.40954 0.19902 0.98237 0.0
Zn266 Zn 0.62985 0.44631 0.89028 0.0
Zn267 Zn 0.73521 0.40014 0.88178 0.0
O268 O 0.70322 0.34363 0.89003 0.0
O269 O 0.6645 0.3955 0.89652 0.0
O270 O 0.78739 0.39465 0.84821 0.0
O271 O 0.65451 0.4875 0.84702 0.0
O272 O 0.69733 0.43714 0.84571 0.0
C273 C 0.66756 0.35711 0.89693 0.0
C274 C 0.70686 0.43627 0.96052 0.0
O275 O 0.73876 0.42299 0.94216 0.0
O276 O 0.67284 0.44171 0.9405 0.0
C277 C 0.80088 0.35998 0.83725 0.0
O278 O 0.78465 0.32599 0.85281 0.0
C279 C 0.69168 0.47567 0.8466 0.0
Zn280 Zn 0.54024 0.77841 0.8738 0.0
Zn281 Zn 0.59455 0.72597 0.89053 0.0
O282 O 0.61897 0.78071 0.86823 0.0
O283 O 0.57515 0.76415 0.82197 0.0
O284 O 0.63945 0.68553 0.88813 0.0
O285 O 0.55758 0.79546 0.93476 0.0
O286 O 0.58684 0.73638 0.94984 0.0
C287 C 0.60429 0.78776 0.83248 0.0
C288 C 0.50215 0.70765 0.86158 0.0
O289 O 0.54016 0.69758 0.86521 0.0
O290 O 0.49109 0.74367 0.86981 0.0
C291 C 0.64851 0.66774 0.85473 0.0
O292 O 0.62747 0.67524 0.82025 0.0
C293 C 0.57319 0.77065 0.96133 0.0
Zn294 Zn 0.788 0.53429 0.10301 0.0
Zn295 Zn 0.7366 0.59356 0.09721 0.0
O296 O 0.78828 0.61765 0.1264 0.0
O297 O 0.79636 0.5601 0.15961 0.0
O298 O 0.69436 0.63893 0.09853 0.0
O299 O 0.80764 0.55377 0.04596 0.0
O300 O 0.74924 0.58665 0.03704 0.0
C301 C 0.80474 0.59786 0.15624 0.0
C302 C 0.7156 0.50066 0.11825 0.0
O303 O 0.70845 0.53934 0.12005 0.0
O304 O 0.74924 0.48792 0.10478 0.0
C305 C 0.67765 0.6498 0.13202 0.0
O306 O 0.68696 0.63062 0.16701 0.0
C307 C 0.78172 0.57171 0.02231 0.0
Zn308 Zn 0.44462 0.63411 0.0717 0.0
Zn309 Zn 0.40157 0.71777 0.08806 0.0
O310 O 0.34859 0.68425 0.0885 0.0
O311 O 0.38267 0.62526 0.08492 0.0
O312 O 0.39742 0.77276 0.11504 0.0
O313 O 0.49089 0.6442 0.11761 0.0
O314 O 0.43909 0.68333 0.12187 0.0
C315 C 0.34927 0.64497 0.0888 0.0
C316 C 0.43832 0.70151 0.00396 0.0
O317 O 0.41925 0.72541 0.02785 0.0
O318 O 0.45058 0.66637 0.01652 0.0
C319 C 0.37301 0.78643 0.14188 0.0
O320 O 0.34292 0.76294 0.15608 0.0
C321 C 0.47789 0.68003 0.1234 0.0
Zn322 Zn 0.54453 0.35496 0.08891 0.0
Zn323 Zn 0.57849 0.24249 0.10688 0.0
O324 O 0.63735 0.27062 0.09932 0.0
O325 O 0.58786 0.31044 0.08144 0.0
O326 O 0.57991 0.18956 0.14204 0.0
O327 O 0.50157 0.33747 0.13371 0.0
O328 O 0.54646 0.2885 0.13844 0.0
C329 C 0.6259 0.30647 0.08853 0.0
C330 C 0.54332 0.26885 0.02937 0.0
O331 O 0.55483 0.23512 0.04626 0.0
O332 O 0.54379 0.30107 0.05176 0.0
C333 C 0.61077 0.16596 0.14472 0.0
O334 O 0.64345 0.17437 0.12249 0.0
C335 C 0.50889 0.29929 0.13879 0.0
Zn336 Zn 0.93896 0.69854 0.61434 0.0
Zn337 Zn 0.8846 0.75094 0.59767 0.0
O338 O 0.86022 0.69622 0.62006 0.0
O339 O 0.90416 0.71285 0.66625 0.0
O340 O 0.8397 0.79137 0.6001 0.0
O341 O 0.92155 0.68145 0.55341 0.0
O342 O 0.89223 0.7405 0.53835 0.0
C343 C 0.87498 0.68926 0.65579 0.0
C344 C 0.97703 0.76931 0.6265 0.0
O345 O 0.93901 0.77936 0.62291 0.0
O346 O 0.9881 0.7333 0.61826 0.0
C347 C 0.83068 0.80919 0.6335 0.0
O348 O 0.85177 0.80172 0.66796 0.0
C349 C 0.90588 0.70625 0.52686 0.0
Zn350 Zn 0.14001 0.93935 0.57541 0.0
Zn351 Zn 0.22461 0.89658 0.59021 0.0
O352 O 0.19102 0.84314 0.59009 0.0
O353 O 0.13208 0.87733 0.58582 0.0
O354 O 0.28206 0.88699 0.61444 0.0
O355 O 0.14701 0.98142 0.62408 0.0
O356 O 0.19028 0.93234 0.62616 0.0
C357 C 0.15166 0.84381 0.5896 0.0
C358 C 0.204 0.93688 0.50626 0.0
O359 O 0.22869 0.91582 0.52902 0.0
O360 O 0.17032 0.94997 0.52052 0.0
C361 C 0.29068 0.86759 0.64801 0.0
O362 O 0.26082 0.85254 0.67094 0.0
C363 C 0.1839 0.97062 0.62954 0.0
Zn364 Zn 0.02625 0.29569 0.57932 0.0
Zn365 Zn 0.09307 0.24377 0.59339 0.0
O366 O 0.10552 0.29132 0.63383 0.0
O367 O 0.0526 0.33228 0.6229 0.0
O368 O 0.14031 0.20372 0.59865 0.0
O369 O 0.04087 0.30018 0.51844 0.0
O370 O 0.09043 0.25592 0.5312 0.0
C371 C 0.08577 0.32366 0.64229 0.0
C372 C 0.00482 0.21446 0.6113 0.0
O373 O 0.04358 0.20913 0.61083 0.0
O374 O 0.98939 0.24814 0.59911 0.0
C375 C 0.1466 0.18225 0.63137 0.0
O376 O 0.12379 0.18783 0.66402 0.0
C377 C 0.06953 0.27788 0.50581 0.0
Zn378 Zn 0.8493 0.03054 0.59808 0.0
Zn379 Zn 0.744 0.07676 0.60649 0.0
O380 O 0.77597 0.13328 0.59821 0.0
O381 O 0.81478 0.08143 0.59194 0.0
O382 O 0.69176 0.08228 0.63997 0.0
O383 O 0.82463 -0.01061 0.64136 0.0
O384 O 0.78181 0.03978 0.64264 0.0
C385 C 0.81166 0.11982 0.59139 0.0
C386 C 0.77244 0.04062 0.52776 0.0
O387 O 0.74053 0.05391 0.54611 0.0
O388 O 0.80646 0.03514 0.54776 0.0
C389 C 0.67829 0.11696 0.65094 0.0
O390 O 0.69458 0.15094 0.63543 0.0
C391 C 0.78747 0.00124 0.64175 0.0
Zn392 Zn 0.93474 0.12197 0.39925 0.0
Zn393 Zn 0.90075 0.23451 0.38135 0.0
O394 O 0.84189 0.20636 0.38893 0.0
O395 O 0.8914 0.16651 0.40669 0.0
O396 O 0.89931 0.28745 0.34621 0.0
O397 O 0.97761 0.13951 0.35436 0.0
O398 O 0.93272 0.18851 0.34967 0.0
C399 C 0.85336 0.17049 0.39966 0.0
C400 C 0.93592 0.2081 0.45877 0.0
O401 O 0.92443 0.24189 0.44198 0.0
O402 O 0.93542 0.17598 0.43625 0.0
C403 C 0.86843 0.31102 0.3435 0.0
O404 O 0.83572 0.30257 0.36567 0.0
C405 C 0.97028 0.17769 0.34927 0.0
Zn406 Zn 0.69139 0.9427 0.38545 0.0
Zn407 Zn 0.74256 0.88348 0.39101 0.0
O408 O 0.69092 0.85946 0.36165 0.0
O409 O 0.68235 0.91722 0.32885 0.0
O410 O 0.78476 0.83806 0.38969 0.0
O411 O 0.67153 0.92333 0.44239 0.0
O412 O 0.72987 0.89033 0.45121 0.0
C413 C 0.67427 0.87938 0.332 0.0
C414 C 0.76371 0.97633 0.37004 0.0
O415 O 0.77081 0.93764 0.36818 0.0
O416 O 0.73013 -0.01092 0.38364 0.0
C417 C 0.80149 0.82722 0.35619 0.0
O418 O 0.79222 0.84644 0.32122 0.0
C419 C 0.69742 0.90529 0.46598 0.0
Zn420 Zn 0.03457 0.84282 0.41651 0.0
Zn421 Zn 0.07761 0.75915 0.40013 0.0
O422 O 0.13057 0.79271 0.39969 0.0
O423 O 0.09652 0.85172 0.40329 0.0
O424 O 0.08177 0.70418 0.37311 0.0
O425 O 0.98826 0.83276 0.37066 0.0
O426 O 0.04005 0.79359 0.36637 0.0
C427 C 0.12991 0.832 0.3994 0.0
C428 C 0.04084 0.77531 0.48418 0.0
O429 O 0.05996 0.7514 0.46033 0.0
O430 O 0.02862 0.81045 0.4716 0.0
C431 C 0.10617 0.69052 0.34627 0.0
O432 O 0.13625 0.714 0.33205 0.0
C433 C 0.00126 0.79693 0.36487 0.0
Zn434 Zn 0.3013 0.02759 0.40124 0.0
Zn435 Zn 0.24611 0.09089 0.39246 0.0
O436 O 0.29054 0.11273 0.35463 0.0
O437 O 0.33237 0.05989 0.35873 0.0
O438 O 0.20277 0.13311 0.3889 0.0
O439 O 0.30727 0.04087 0.46248 0.0
O440 O 0.2601 0.0884 0.45411 0.0
C441 C 0.32273 0.09458 0.3436 0.0
C442 C 0.22329 0.00276 0.36523 0.0
O443 O 0.21578 0.04075 0.36909 0.0
O444 O 0.2572 0.98823 0.37823 0.0
C445 C 0.18207 0.13851 0.35543 0.0
O446 O 0.1902 0.11712 0.32225 0.0
C447 C 0.28485 0.06833 0.47737 0.0
Zn448 Zn 0.52912 0.8867 0.8075 0.0
Zn449 Zn 0.58567 0.88901 0.75067 0.0
O450 O 0.60833 0.84218 0.785 0.0
O451 O 0.5666 0.84653 0.83758 0.0
O452 O 0.62397 0.89614 0.70588 0.0
O453 O 0.53728 0.94762 0.81813 0.0
O454 O 0.58754 0.94741 0.77338 0.0
C455 C 0.59705 0.83011 0.82062 0.0
C456 C 0.49803 0.86272 0.72569 0.0
O457 O 0.53498 0.87186 0.71653 0.0
O458 O 0.48653 0.8656 0.76301 0.0
C459 C 0.63466 0.86853 0.68109 0.0
O460 O 0.62356 0.82984 0.68681 0.0
C461 C 0.5659 0.96644 0.79911 0.0
Zn462 Zn 0.05365 0.59011 0.85047 0.0
Zn463 Zn 0.08294 0.59659 0.75615 0.0
O464 O 0.13844 0.60357 0.78566 0.0
O465 O 0.11674 0.60813 0.85114 0.0
O466 O 0.08127 0.62583 0.69944 0.0
O467 O -2e-05 0.6239 0.83344 0.0
O468 O 0.04865 0.62895 0.79048 0.0
C469 C 0.14563 0.60888 0.82455 0.0
C470 C 0.05472 0.51409 0.79281 0.0
O471 O 0.0657 0.53478 0.76046 0.0
O472 O 0.04978 0.53124 0.82781 0.0
C473 C 0.11267 0.63379 0.67746 0.0
O474 O 0.14837 0.61809 0.68826 0.0
C475 C 0.01033 0.62727 0.79593 0.0
Zn476 Zn 0.42942 0.08825 0.64105 0.0
Zn477 Zn 0.40926 0.089 0.73388 0.0
O478 O 0.35395 0.09441 0.70861 0.0
O479 O 0.37261 0.11808 0.64647 0.0
O480 O 0.4104 0.10804 0.79283 0.0
O481 O 0.48738 0.11644 0.65357 0.0
O482 O 0.4422 0.1272 0.6996 0.0
C483 C 0.34485 0.10979 0.67309 0.0
C484 C 0.42612 0.00826 0.69541 0.0
O485 O 0.42236 0.02813 0.72909 0.0
O486 O 0.42753 0.0268 0.66023 0.0
C487 C 0.3827 0.13006 0.80827 0.0
O488 O 0.3496 0.13901 0.78603 0.0
C489 C 0.4797 0.12365 0.69108 0.0
Zn490 Zn 0.94457 0.38793 0.68159 0.0
Zn491 Zn 0.88299 0.38517 0.73607 0.0
O492 O 0.86742 0.3375 0.69488 0.0
O493 O 0.91694 0.34361 0.64896 0.0
O494 O 0.83787 0.38708 0.77929 0.0
O495 O 0.93791 0.44711 0.66768 0.0
O496 O 0.88875 0.44563 0.71416 0.0
C497 C 0.8849 0.32533 0.66203 0.0
C498 C 0.97018 0.36547 0.76448 0.0
O499 O 0.93237 0.36989 0.77262 0.0
O500 O 0.9832 0.37155 0.72809 0.0
C501 C 0.83256 0.35764 0.80523 0.0
O502 O 0.85418 0.32411 0.80202 0.0
C503 C 0.91126 0.46548 0.6883 0.0
Zn504 Zn 0.55366 0.09011 0.35047 0.0
Zn505 Zn 0.58294 0.09658 0.25614 0.0
O506 O 0.63845 0.10356 0.28565 0.0
O507 O 0.61674 0.10813 0.35114 0.0
O508 O 0.58127 0.12583 0.19943 0.0
O509 O 0.49999 0.1239 0.33344 0.0
O510 O 0.54865 0.12895 0.29047 0.0
C511 C 0.64563 0.10888 0.32454 0.0
C512 C 0.55472 0.01409 0.29281 0.0
O513 O 0.5657 0.03478 0.26046 0.0
O514 O 0.54979 0.03124 0.32781 0.0
C515 C 0.61267 0.1338 0.17746 0.0
O516 O 0.64837 0.11809 0.18825 0.0
C517 C 0.51034 0.12727 0.29593 0.0
Zn518 Zn 0.92942 0.58825 0.14105 0.0
Zn519 Zn 0.90927 0.589 0.23388 0.0
O520 O 0.85395 0.59441 0.2086 0.0
O521 O 0.87261 0.61809 0.14647 0.0
O522 O 0.9104 0.60804 0.29282 0.0
O523 O 0.98738 0.61644 0.15356 0.0
O524 O 0.9422 0.6272 0.1996 0.0
C525 C 0.84485 0.60979 0.17309 0.0
C526 C 0.92612 0.50826 0.19541 0.0
O527 O 0.92237 0.52814 0.22909 0.0
O528 O 0.92753 0.5268 0.16022 0.0
C529 C 0.8827 0.63005 0.30827 0.0
O530 O 0.8496 0.63901 0.28602 0.0
C531 C 0.9797 0.62365 0.19108 0.0
Zn532 Zn 0.44457 0.88794 0.18159 0.0
Zn533 Zn 0.38299 0.88517 0.23607 0.0
O534 O 0.36742 0.8375 0.19488 0.0
O535 O 0.41694 0.84361 0.14896 0.0
O536 O 0.33787 0.88708 0.27929 0.0
O537 O 0.43791 0.94711 0.16768 0.0
O538 O 0.38875 0.94564 0.21416 0.0
C539 C 0.3849 0.82533 0.16204 0.0
C540 C 0.47018 0.86547 0.26448 0.0
O541 O 0.43237 0.86989 0.27262 0.0
O542 O 0.4832 0.87155 0.22809 0.0
C543 C 0.33256 0.85764 0.30524 0.0
O544 O 0.35418 0.82411 0.30202 0.0
C545 C 0.41126 0.96548 0.1883 0.0
Zn546 Zn 0.02912 0.3867 0.3075 0.0
Zn547 Zn 0.08567 0.38901 0.25067 0.0
O548 O 0.10833 0.34218 0.28499 0.0
O549 O 0.0666 0.34653 0.33758 0.0
O550 O 0.12397 0.39614 0.20588 0.0
O551 O 0.03729 0.44762 0.31813 0.0
O552 O 0.08754 0.44741 0.27338 0.0
C553 C 0.09706 0.33011 0.32061 0.0
C554 C -0.00197 0.36271 0.22569 0.0
O555 O 0.03498 0.37186 0.21653 0.0
O556 O 0.98653 0.3656 0.26301 0.0
C557 C 0.13466 0.36853 0.18109 0.0
O558 O 0.12356 0.32984 0.18681 0.0
C559 C 0.06591 0.46644 0.29911 0.0
Zn560 Zn 0.80129 0.52759 0.90124 0.0
Zn561 Zn 0.7461 0.59088 0.89246 0.0
O562 O 0.79053 0.61272 0.85463 0.0
O563 O 0.83237 0.55989 0.85873 0.0
O564 O 0.70277 0.63311 0.8889 0.0
O565 O 0.80727 0.54086 0.96248 0.0
O566 O 0.76009 0.5884 0.95411 0.0
C567 C 0.82272 0.59458 0.84359 0.0
C568 C 0.72327 0.50275 0.86523 0.0
O569 O 0.71576 0.54074 0.8691 0.0
O570 O 0.75718 0.48822 0.87823 0.0
C571 C 0.68206 0.63851 0.85543 0.0
O572 O 0.6902 0.61712 0.82225 0.0
C573 C 0.78485 0.56833 0.97736 0.0
Zn574 Zn 0.64001 0.43935 0.07541 0.0
Zn575 Zn 0.72462 0.39658 0.09022 0.0
O576 O 0.69102 0.34314 0.09009 0.0
O577 O 0.63209 0.37733 0.08581 0.0
O578 O 0.78206 0.38699 0.11444 0.0
O579 O 0.64701 0.48142 0.12407 0.0
O580 O 0.69028 0.43235 0.12616 0.0
C581 C 0.65166 0.34382 0.0896 0.0
C582 C 0.70401 0.43688 0.00626 0.0
O583 O 0.7287 0.41582 0.02903 0.0
O584 O 0.67033 0.44997 0.02051 0.0
C585 C 0.79068 0.36759 0.14802 0.0
O586 O 0.76082 0.35254 0.17094 0.0
C587 C 0.6839 0.47062 0.12954 0.0
Zn588 Zn 0.52625 0.79569 0.07932 0.0
Zn589 Zn 0.59307 0.74377 0.09339 0.0
O590 O 0.60552 0.79132 0.13383 0.0
O591 O 0.55261 0.83228 0.1229 0.0
O592 O 0.64031 0.70373 0.09865 0.0
O593 O 0.54087 0.80018 0.01844 0.0
O594 O 0.59043 0.75592 0.0312 0.0
C595 C 0.58577 0.82366 0.14228 0.0
C596 C 0.50482 0.71446 0.1113 0.0
O597 O 0.54358 0.70913 0.11083 0.0
O598 O 0.48939 0.74814 0.09911 0.0
C599 C 0.6466 0.68225 0.13137 0.0
O600 O 0.62379 0.68783 0.16402 0.0
C601 C 0.56953 0.77788 0.00581 0.0
Zn602 Zn 0.34928 0.53052 0.09811 0.0
Zn603 Zn 0.24402 0.57675 0.10648 0.0
O604 O 0.27597 0.63327 0.09821 0.0
O605 O 0.31482 0.58144 0.09201 0.0
O606 O 0.19176 0.58226 0.13993 0.0
O607 O 0.32461 0.48938 0.14139 0.0
O608 O 0.28181 0.53977 0.14267 0.0
C609 C 0.31167 0.61982 0.09141 0.0
C610 C 0.2725 0.54058 0.02774 0.0
O611 O 0.24061 0.55388 0.0461 0.0
O612 O 0.30653 0.5351 0.04772 0.0
C613 C 0.1783 0.61694 0.15092 0.0
O614 O 0.19461 0.65093 0.13544 0.0
C615 C 0.28746 0.50124 0.14178 0.0
Zn616 Zn 0.43896 0.19854 0.11435 0.0
Zn617 Zn 0.3846 0.25094 0.09767 0.0
O618 O 0.36022 0.19622 0.12006 0.0
O619 O 0.40416 0.21285 0.16625 0.0
O620 O 0.3397 0.29138 0.1001 0.0
O621 O 0.42155 0.18146 0.05341 0.0
O622 O 0.39222 0.24051 0.03835 0.0
C623 C 0.37498 0.18926 0.15579 0.0
C624 C 0.47703 0.26931 0.1265 0.0
O625 O 0.43901 0.27936 0.12291 0.0
O626 O 0.4881 0.2333 0.11826 0.0
C627 C 0.33068 0.3092 0.1335 0.0
O628 O 0.35177 0.30172 0.16796 0.0
C629 C 0.40588 0.20625 0.02686 0.0
Zn630 Zn 0.1914 0.4427 0.88545 0.0
Zn631 Zn 0.24256 0.38348 0.891 0.0
O632 O 0.19092 0.35946 0.86165 0.0
O633 O 0.18234 0.41722 0.82886 0.0
O634 O 0.28476 0.33807 0.88968 0.0
O635 O 0.17153 0.42333 0.94239 0.0
O636 O 0.22987 0.39035 0.95121 0.0
C637 C 0.17426 0.37938 0.83201 0.0
C638 C 0.26369 0.47634 0.87002 0.0
O639 O 0.27079 0.43765 0.86816 0.0
O640 O 0.23013 0.48909 0.88364 0.0
C641 C 0.30149 0.32722 0.85619 0.0
O642 O 0.29222 0.34644 0.82122 0.0
C643 C 0.19743 0.4053 0.96598 0.0
Zn644 Zn 0.53458 0.34282 0.91651 0.0
Zn645 Zn 0.57761 0.25915 0.90013 0.0
O646 O 0.63057 0.29271 0.89969 0.0
O647 O 0.59653 0.35173 0.90329 0.0
O648 O 0.58176 0.20418 0.87312 0.0
O649 O 0.48826 0.33276 0.87066 0.0
O650 O 0.54005 0.2936 0.86637 0.0
C651 C 0.62991 0.332 0.8994 0.0
C652 C 0.54085 0.27531 0.98418 0.0
O653 O 0.55996 0.25141 0.96033 0.0
O654 O 0.52862 0.31046 0.9716 0.0
C655 C 0.60617 0.19052 0.84627 0.0
O656 O 0.63625 0.214 0.83206 0.0
C657 C 0.50126 0.29693 0.86487 0.0
Zn658 Zn 0.43482 0.62198 0.89926 0.0
Zn659 Zn 0.40075 0.73451 0.88135 0.0
O660 O 0.3419 0.70635 0.88894 0.0
O661 O 0.39142 0.66649 0.90667 0.0
O662 O 0.39931 0.78744 0.84621 0.0
O663 O 0.47763 0.63951 0.85432 0.0
O664 O 0.43273 0.68851 0.84966 0.0
C665 C 0.35337 0.67048 0.89966 0.0
C666 C 0.4359 0.7081 0.95877 0.0
O667 O 0.42443 0.7419 0.94199 0.0
O668 O 0.43544 0.67599 0.93624 0.0
C669 C 0.36843 0.81101 0.8435 0.0
O670 O 0.33572 0.80257 0.86567 0.0
C671 C 0.47029 0.67769 0.84926 0.0
loop_
_geom_bond_atom_site_label_1
_geom_bond_atom_site_label_2
_geom_bond_distance
_geom_bond_site_symmetry_2
_ccdc_geom_bond_type
Zn0 O3 2.031 . S
Zn0 O5 2.049 . S
Zn0 O10 2.067 . S
Zn1 O2 1.962 . S
Zn1 O4 1.986 . S
Zn1 O6 1.996 . S
Zn1 O9 1.943 . S
O2 Zn1 1.962 . S
O2 C7 1.254 . S
O3 Zn0 2.031 . S
O3 C7 1.269 . S
O4 Zn1 1.986 . S
O4 C11 1.262 . S
O5 Zn0 2.049 . S
O5 C13 1.260 . S
O6 Zn1 1.996 . S
O6 C13 1.257 . S
C7 O2 1.254 . S
C7 O3 1.269 . S
C8 O9 1.249 . S
C8 O10 1.270 . S
O9 Zn1 1.943 . S
O9 C8 1.249 . S
O10 Zn0 2.067 . S
O10 C8 1.270 . S
C11 O4 1.262 . S
C11 O12 1.232 . S
O12 C11 1.232 . S
C13 O5 1.260 . S
C13 O6 1.257 . S
Zn14 O17 2.031 . S
Zn14 O19 2.049 . S
Zn14 O24 2.067 . S
Zn15 O16 1.962 . S
Zn15 O18 1.986 . S
Zn15 O20 1.996 . S
Zn15 O23 1.943 . S
O16 Zn15 1.962 . S
O16 C21 1.254 . S
O17 Zn14 2.031 . S
O17 C21 1.269 . S
O18 Zn15 1.986 . S
O18 C25 1.262 . S
O19 Zn14 2.049 . S
O19 C27 1.260 . S
O20 Zn15 1.996 . S
O20 C27 1.257 . S
C21 O16 1.254 . S
C21 O17 1.269 . S
C22 O23 1.249 . S
C22 O24 1.270 . S
O23 Zn15 1.943 . S
O23 C22 1.249 . S
O24 Zn14 2.067 . S
O24 C22 1.270 . S
C25 O18 1.262 . S
C25 O26 1.232 . S
O26 C25 1.232 . S
C27 O19 1.260 . S
C27 O20 1.257 . S
Zn28 O31 2.031 . S
Zn28 O33 2.049 . S
Zn28 O38 2.067 . S
Zn29 O30 1.962 . S
Zn29 O32 1.986 . S
Zn29 O34 1.996 . S
Zn29 O37 1.943 . S
O30 Zn29 1.962 . S
O30 C35 1.254 . S
O31 Zn28 2.031 . S
O31 C35 1.269 . S
O32 Zn29 1.986 . S
O32 C39 1.262 . S
O33 Zn28 2.049 . S
O33 C41 1.260 . S
O34 Zn29 1.996 . S
O34 C41 1.257 . S
C35 O30 1.254 . S
C35 O31 1.269 . S
C36 O37 1.249 . S
C36 O38 1.270 . S
O37 Zn29 1.943 . S
O37 C36 1.249 . S
O38 Zn28 2.067 . S
O38 C36 1.270 . S
C39 O32 1.262 . S
C39 O40 1.232 . S
O40 C39 1.232 . S
C41 O33 1.260 . S
C41 O34 1.257 . S
Zn42 O45 2.031 . S
Zn42 O47 2.049 . S
Zn42 O52 2.067 . S
Zn43 O44 1.962 . S
Zn43 O46 1.986 . S
Zn43 O48 1.996 . S
Zn43 O51 1.943 . S
O44 Zn43 1.962 . S
O44 C49 1.254 . S
O45 Zn42 2.031 . S
O45 C49 1.269 . S
O46 Zn43 1.986 . S
O46 C53 1.262 . S
O47 Zn42 2.049 . S
O47 C55 1.260 . S
O48 Zn43 1.996 . S
O48 C55 1.257 . S
C49 O44 1.254 . S
C49 O45 1.269 . S
C50 O51 1.249 . S
C50 O52 1.270 . S
O51 Zn43 1.943 . S
O51 C50 1.249 . S
O52 Zn42 2.067 . S
O52 C50 1.270 . S
C53 O46 1.262 . S
C53 O54 1.232 . S
O54 C53 1.232 . S
C55 O47 1.260 . S
C55 O48 1.257 . S
Zn56 O59 2.031 . S
Zn56 O61 2.049 . S
Zn56 O66 2.067 . S
Zn57 O58 1.962 . S
Zn57 O60 1.986 . S
Zn57 O62 1.996 . S
Zn57 O65 1.943 . S
O58 Zn57 1.962 . S
O58 C63 1.254 . S
O59 Zn56 2.031 . S
O59 C63 1.269 . S
O60 Zn57 1.986 . S
O60 C67 1.262 . S
O61 Zn56 2.049 . S
O61 C69 1.260 . S
O62 Zn57 1.996 . S
O62 C69 1.257 . S
C63 O58 1.254 . S
C63 O59 1.269 . S
C64 O65 1.249 . S
C64 O66 1.270 . S
O65 Zn57 1.943 . S
O65 C64 1.249 . S
O66 Zn56 2.067 . S
O66 C64 1.270 . S
C67 O60 1.262 . S
C67 O68 1.232 . S
O68 C67 1.232 . S
C69 O61 1.260 . S
C69 O62 1.257 . S
Zn70 O73 2.031 . S
Zn70 O75 2.049 . S
Zn70 O80 2.067 . S
Zn71 O72 1.962 . S
Zn71 O74 1.986 . S
Zn71 O76 1.996 . S
Zn71 O79 1.943 . S
O72 Zn71 1.962 . S
O72 C77 1.254 . S
O73 Zn70 2.031 . S
O73 C77 1.269 . S
O74 Zn71 1.986 . S
O74 C81 1.262 . S
O75 Zn70 2.049 . S
O75 C83 1.260 . S
O76 Zn71 1.996 . S
O76 C83 1.257 . S
C77 O72 1.254 . S
C77 O73 1.269 . S
C78 O79 1.249 . S
C78 O80 1.270 . S
O79 Zn71 1.943 . S
O79 C78 1.249 . S
O80 Zn70 2.067 . S
O80 C78 1.270 . S
C81 O74 1.262 . S
C81 O82 1.232 . S
O82 C81 1.232 . S
C83 O75 1.260 . S
C83 O76 1.257 . S
Zn84 O87 2.031 . S
Zn84 O89 2.049 . S
Zn84 O94 2.067 . S
Zn85 O86 1.962 . S
Zn85 O88 1.986 . S
Zn85 O90 1.996 . S
Zn85 O93 1.943 . S
O86 Zn85 1.962 . S
O86 C91 1.254 . S
O87 Zn84 2.031 . S
O87 C91 1.269 . S
O88 Zn85 1.986 . S
O88 C95 1.262 . S
O89 Zn84 2.049 . S
O89 C97 1.260 . S
O90 Zn85 1.996 . S
O90 C97 1.257 . S
C91 O86 1.254 . S
C91 O87 1.269 . S
C92 O93 1.249 . S
C92 O94 1.270 . S
O93 Zn85 1.943 . S
O93 C92 1.249 . S
O94 Zn84 2.067 . S
O94 C92 1.270 . S
C95 O88 1.262 . S
C95 O96 1.232 . S
O96 C95 1.232 . S
C97 O89 1.260 . S
C97 O90 1.257 . S
Zn98 O101 2.031 . S
Zn98 O103 2.049 . S
Zn98 O108 2.067 . S
Zn99 O100 1.962 . S
Zn99 O102 1.986 . S
Zn99 O104 1.996 . S
Zn99 O107 1.943 . S
O100 Zn99 1.962 . S
O100 C105 1.254 . S
O101 Zn98 2.031 . S
O101 C105 1.269 . S
O102 Zn99 1.986 . S
O102 C109 1.262 . S
O103 Zn98 2.049 . S
O103 C111 1.260 . S
O104 Zn99 1.996 . S
O104 C111 1.257 . S
C105 O100 1.254 . S
C105 O101 1.269 . S
C106 O107 1.249 . S
C106 O108 1.270 . S
O107 Zn99 1.943 . S
O107 C106 1.249 . S
O108 Zn98 2.067 . S
O108 C106 1.270 . S
C109 O102 1.262 . S
C109 O110 1.232 . S
O110 C109 1.232 . S
C111 O103 1.260 . S
C111 O104 1.257 . S
Zn112 O115 2.031 . S
Zn112 O117 2.049 . S
Zn112 O122 2.067 . S
Zn113 O114 1.962 . S
Zn113 O116 1.986 . S
Zn113 O118 1.996 . S
Zn113 O121 1.943 . S
O114 Zn113 1.962 . S
O114 C119 1.254 . S
O115 Zn112 2.031 . S
O115 C119 1.269 . S
O116 Zn113 1.986 . S
O116 C123 1.262 . S
O117 Zn112 2.049 . S
O117 C125 1.260 . S
O118 Zn113 1.996 . S
O118 C125 1.257 . S
C119 O114 1.254 . S
C119 O115 1.269 . S
C120 O121 1.249 . S
C120 O122 1.270 . S
O121 Zn113 1.943 . S
O121 C120 1.249 . S
O122 Zn112 2.067 . S
O122 C120 1.270 . S
C123 O116 1.262 . S
C123 O124 1.232 . S
O124 C123 1.232 . S
C125 O117 1.260 . S
C125 O118 1.257 . S
Zn126 O129 2.031 . S
Zn126 O131 2.049 . S
Zn126 O136 2.067 . S
Zn127 O128 1.962 . S
Zn127 O130 1.986 . S
Zn127 O132 1.996 . S
Zn127 O135 1.943 . S
O128 Zn127 1.962 . S
O128 C133 1.254 . S
O129 Zn126 2.031 . S
O129 C133 1.269 . S
O130 Zn127 1.986 . S
O130 C137 1.262 . S
O131 Zn126 2.049 . S
O131 C139 1.260 . S
O132 Zn127 1.996 . S
O132 C139 1.257 . S
C133 O128 1.254 . S
C133 O129 1.269 . S
C134 O135 1.249 . S
C134 O136 1.270 . S
O135 Zn127 1.943 . S
O135 C134 1.249 . S
O136 Zn126 2.067 . S
O136 C134 1.270 . S
C137 O130 1.262 . S
C137 O138 1.232 . S
O138 C137 1.232 . S
C139 O131 1.260 . S
C139 O132 1.257 . S
Zn140 O143 2.031 . S
Zn140 O145 2.049 . S
Zn140 O150 2.067 . S
Zn141 O142 1.962 . S
Zn141 O144 1.986 . S
Zn141 O146 1.996 . S
Zn141 O149 1.943 . S
O142 Zn141 1.962 . S
O142 C147 1.254 . S
O143 Zn140 2.031 . S
O143 C147 1.269 . S
O144 Zn141 1.986 . S
O144 C151 1.262 . S
O145 Zn140 2.049 . S
O145 C153 1.260 . S
O146 Zn141 1.996 . S
O146 C153 1.257 . S
C147 O142 1.254 . S
C147 O143 1.269 . S
C148 O149 1.249 . S
C148 O150 1.270 . S
O149 Zn141 1.943 . S
O149 C148 1.249 . S
O150 Zn140 2.067 . S
O150 C148 1.270 . S
C151 O144 1.262 . S
C151 O152 1.232 . S
O152 C151 1.232 . S
C153 O145 1.260 . S
C153 O146 1.257 . S
Zn154 O157 2.031 . S
Zn154 O159 2.049 . S
Zn154 O164 2.067 . S
Zn155 O156 1.962 . S
Zn155 O158 1.986 . S
Zn155 O160 1.996 . S
Zn155 O163 1.943 . S
O156 Zn155 1.962 . S
O156 C161 1.254 . S
O157 Zn154 2.031 . S
O157 C161 1.269 . S
O158 Zn155 1.986 . S
O158 C165 1.262 . S
O159 Zn154 2.049 . S
O159 C167 1.260 . S
O160 Zn155 1.996 . S
O160 C167 1.257 . S
C161 O156 1.254 . S
C161 O157 1.269 . S
C162 O163 1.249 . S
C162 O164 1.270 . S
O163 Zn155 1.943 . S
O163 C162 1.249 . S
O164 Zn154 2.067 . S
O164 C162 1.270 . S
C165 O158 1.262 . S
C165 O166 1.232 . S
O166 C165 1.232 . S
C167 O159 1.260 . S
C167 O160 1.257 . S
Zn168 O171 2.031 . S
Zn168 O173 2.049 . S
Zn168 O178 2.067 . S
Zn169 O170 1.962 . S
Zn169 O172 1.986 . S
Zn169 O174 1.996 . S
Zn169 O177 1.943 . S
O170 Zn169 1.962 . S
O170 C175 1.254 . S
O171 Zn168 2.031 . S
O171 C175 1.269 . S
O172 Zn169 1.986 . S
O172 C179 1.262 . S
O173 Zn168 2.049 . S
O173 C181 1.260 . S
O174 Zn169 1.996 . S
O174 C181 1.257 . S
C175 O170 1.254 . S
C175 O171 1.269 . S
C176 O177 1.249 . S
C176 O178 1.270 . S
O177 Zn169 1.943 . S
O177 C176 1.249 . S
O178 Zn168 2.067 . S
O178 C176 1.270 . S
C179 O172 1.262 . S
C179 O180 1.232 . S
O180 C179 1.232 . S
C181 O173 1.260 . S
C181 O174 1.257 . S
Zn182 O185 2.031 . S
Zn182 O187 2.049 . S
Zn182 O192 2.067 . S
Zn183 O184 1.962 . S
Zn183 O186 1.986 . S
Zn183 O188 1.996 . S
Zn183 O191 1.943 . S
O184 Zn183 1.962 . S
O184 C189 1.254 . S
O185 Zn182 2.031 . S
O185 C189 1.269 . S
O186 Zn183 1.986 . S
O186 C193 1.262 . S
O187 Zn182 2.049 . S
O187 C195 1.260 . S
O188 Zn183 1.996 . S
O188 C195 1.257 . S
C189 O184 1.254 . S
C189 O185 1.269 . S
C190 O191 1.249 . S
C190 O192 1.270 . S
O191 Zn183 1.943 . S
O191 C190 1.249 . S
O192 Zn182 2.067 . S
O192 C190 1.270 . S
C193 O186 1.262 . S
C193 O194 1.232 . S
O194 C193 1.232 . S
C195 O187 1.260 . S
C195 O188 1.257 . S
Zn196 O199 2.031 . S
Zn196 O201 2.049 . S
Zn196 O206 2.067 . S
Zn197 O198 1.962 . S
Zn197 O200 1.986 . S
Zn197 O202 1.996 . S
Zn197 O205 1.943 . S
O198 Zn197 1.962 . S
O198 C203 1.254 . S
O199 Zn196 2.031 . S
O199 C203 1.269 . S
O200 Zn197 1.986 . S
O200 C207 1.262 . S
O201 Zn196 2.049 . S
O201 C209 1.260 . S
O202 Zn197 1.996 . S
O202 C209 1.257 . S
C203 O198 1.254 . S
C203 O199 1.269 . S
C204 O205 1.249 . S
C204 O206 1.270 . S
O205 Zn197 1.943 . S
O205 C204 1.249 . S
O206 Zn196 2.067 . S
O206 C204 1.270 . S
C207 O200 1.262 . S
C207 O208 1.232 . S
O208 C207 1.232 . S
C209 O201 1.260 . S
C209 O202 1.257 . S
Zn210 O213 2.031 . S
Zn210 O215 2.049 . S
Zn210 O220 2.067 . S
Zn211 O212 1.962 . S
Zn211 O214 1.986 . S
Zn211 O216 1.996 . S
Zn211 O219 1.943 . S
O212 Zn211 1.962 . S
O212 C217 1.254 . S
O213 Zn210 2.031 . S
O213 C217 1.269 . S
O214 Zn211 1.986 . S
O214 C221 1.262 . S
O215 Zn210 2.049 . S
O215 C223 1.260 . S
O216 Zn211 1.996 . S
O216 C223 1.257 . S
C217 O212 1.254 . S
C217 O213 1.269 . S
C218 O219 1.249 . S
C218 O220 1.270 . S
O219 Zn211 1.943 . S
O219 C218 1.249 . S
O220 Zn210 2.067 . S
O220 C218 1.270 . S
C221 O214 1.262 . S
C221 O222 1.232 . S
O222 C221 1.232 . S
C223 O215 1.260 . S
C223 O216 1.257 . S
Zn224 O227 2.031 . S
Zn224 O229 2.049 . S
Zn224 O234 2.067 . S
Zn225 O226 1.962 . S
Zn225 O228 1.986 . S
Zn225 O230 1.996 . S
Zn225 O233 1.943 . S
O226 Zn225 1.962 . S
O226 C231 1.254 . S
O227 Zn224 2.031 . S
O227 C231 1.269 . S
O228 Zn225 1.986 . S
O228 C235 1.262 . S
O229 Zn224 2.049 . S
O229 C237 1.260 . S
O230 Zn225 1.996 . S
O230 C237 1.257 . S
C231 O226 1.254 . S
C231 O227 1.269 . S
C232 O233 1.249 . S
C232 O234 1.270 . S
O233 Zn225 1.943 . S
O233 C232 1.249 . S
O234 Zn224 2.067 . S
O234 C232 1.270 . S
C235 O228 1.262 . S
C235 O236 1.232 . S
O236 C235 1.232 . S
C237 O229 1.260 . S
C237 O230 1.257 . S
Zn238 O241 2.031 . S
Zn238 O243 2.049 . S
Zn238 O248 2.067 . S
Zn239 O240 1.962 . S
Zn239 O242 1.986 . S
Zn239 O244 1.996 . S
Zn239 O247 1.943 . S
O240 Zn239 1.962 . S
O240 C245 1.254 . S
O241 Zn238 2.031 . S
O241 C245 1.269 . S
O242 Zn239 1.986 . S
O242 C249 1.262 . S
O243 Zn238 2.049 . S
O243 C251 1.260 . S
O244 Zn239 1.996 . S
O244 C251 1.257 . S
C245 O240 1.254 . S
C245 O241 1.269 . S
C246 O247 1.249 . S
C246 O248 1.270 . S
O247 Zn239 1.943 . S
O247 C246 1.249 . S
O248 Zn238 2.067 . S
O248 C246 1.270 . S
C249 O242 1.262 . S
C249 O250 1.232 . S
O250 C249 1.232 . S
C251 O243 1.260 . S
C251 O244 1.257 . S
Zn252 O255 2.031 . S
Zn252 O257 2.049 . S
Zn252 O262 2.067 . S
Zn253 O254 1.962 . S
Zn253 O256 1.986 . S
Zn253 O258 1.996 . S
Zn253 O261 1.943 . S
O254 Zn253 1.962 . S
O254 C259 1.254 . S
O255 Zn252 2.031 . S
O255 C259 1.269 . S
O256 Zn253 1.986 . S
O256 C263 1.262 . S
O257 Zn252 2.049 . S
O257 C265 1.260 . S
O258 Zn253 1.996 . S
O258 C265 1.257 . S
C259 O254 1.254 . S
C259 O255 1.269 . S
C260 O261 1.249 . S
C260 O262 1.270 . S
O261 Zn253 1.943 . S
O261 C260 1.249 . S
O262 Zn252 2.067 . S
O262 C260 1.270 . S
C263 O256 1.262 . S
C263 O264 1.232 . S
O264 C263 1.232 . S
C265 O257 1.260 . S
C265 O258 1.257 . S
Zn266 O269 2.031 . S
Zn266 O271 2.049 . S
Zn266 O276 2.067 . S
Zn267 O268 1.962 . S
Zn267 O270 1.986 . S
Zn267 O272 1.996 . S
Zn267 O275 1.943 . S
O268 Zn267 1.962 . S
O268 C273 1.254 . S
O269 Zn266 2.031 . S
O269 C273 1.269 . S
O270 Zn267 1.986 . S
O270 C277 1.262 . S
O271 Zn266 2.049 . S
O271 C279 1.260 . S
O272 Zn267 1.996 . S
O272 C279 1.257 . S
C273 O268 1.254 . S
C273 O269 1.269 . S
C274 O275 1.249 . S
C274 O276 1.270 . S
O275 Zn267 1.943 . S
O275 C274 1.249 . S
O276 Zn266 2.067 . S
O276 C274 1.270 . S
C277 O270 1.262 . S
C277 O278 1.232 . S
O278 C277 1.232 . S
C279 O271 1.260 . S
C279 O272 1.257 . S
Zn280 O283 2.031 . S
Zn280 O285 2.049 . S
Zn280 O290 2.067 . S
Zn281 O282 1.962 . S
Zn281 O284 1.986 . S
Zn281 O286 1.996 . S
Zn281 O289 1.943 . S
O282 Zn281 1.962 . S
O282 C287 1.254 . S
O283 Zn280 2.031 . S
O283 C287 1.269 . S
O284 Zn281 1.986 . S
O284 C291 1.262 . S
O285 Zn280 2.049 . S
O285 C293 1.260 . S
O286 Zn281 1.996 . S
O286 C293 1.257 . S
C287 O282 1.254 . S
C287 O283 1.269 . S
C288 O289 1.249 . S
C288 O290 1.270 . S
O289 Zn281 1.943 . S
O289 C288 1.249 . S
O290 Zn280 2.067 . S
O290 C288 1.270 . S
C291 O284 1.262 . S
C291 O292 1.232 . S
O292 C291 1.232 . S
C293 O285 1.260 . S
C293 O286 1.257 . S
Zn294 O297 2.031 . S
Zn294 O299 2.049 . S
Zn294 O304 2.067 . S
Zn295 O296 1.962 . S
Zn295 O298 1.986 . S
Zn295 O300 1.996 . S
Zn295 O303 1.943 . S
O296 Zn295 1.962 . S
O296 C301 1.254 . S
O297 Zn294 2.031 . S
O297 C301 1.269 . S
O298 Zn295 1.986 . S
O298 C305 1.262 . S
O299 Zn294 2.049 . S
O299 C307 1.260 . S
O300 Zn295 1.996 . S
O300 C307 1.257 . S
C301 O296 1.254 . S
C301 O297 1.269 . S
C302 O303 1.249 . S
C302 O304 1.270 . S
O303 Zn295 1.943 . S
O303 C302 1.249 . S
O304 Zn294 2.067 . S
O304 C302 1.270 . S
C305 O298 1.262 . S
C305 O306 1.232 . S
O306 C305 1.232 . S
C307 O299 1.260 . S
C307 O300 1.257 . S
Zn308 O311 2.031 . S
Zn308 O313 2.049 . S
Zn308 O318 2.067 . S
Zn309 O310 1.962 . S
Zn309 O312 1.986 . S
Zn309 O314 1.996 . S
Zn309 O317 1.943 . S
O310 Zn309 1.962 . S
O310 C315 1.254 . S
O311 Zn308 2.031 . S
O311 C315 1.269 . S
O312 Zn309 1.986 . S
O312 C319 1.262 . S
O313 Zn308 2.049 . S
O313 C321 1.260 . S
O314 Zn309 1.996 . S
O314 C321 1.257 . S
C315 O310 1.254 . S
C315 O311 1.269 . S
C316 O317 1.249 . S
C316 O318 1.270 . S
O317 Zn309 1.943 . S
O317 C316 1.249 . S
O318 Zn308 2.067 . S
O318 C316 1.270 . S
C319 O312 1.262 . S
C319 O320 1.232 . S
O320 C319 1.232 . S
C321 O313 1.260 . S
C321 O314 1.257 . S
Zn322 O325 2.031 . S
Zn322 O327 2.049 . S
Zn322 O332 2.067 . S
Zn323 O324 1.962 . S
Zn323 O326 1.986 . S
Zn323 O328 1.996 . S
Zn323 O331 1.943 . S
O324 Zn323 1.962 . S
O324 C329 1.254 . S
O325 Zn322 2.031 . S
O325 C329 1.269 . S
O326 Zn323 1.986 . S
O326 C333 1.262 . S
O327 Zn322 2.049 . S
O327 C335 1.260 . S
O328 Zn323 1.996 . S
O328 C335 1.257 . S
C329 O324 1.254 . S
C329 O325 1.269 . S
C330 O331 1.249 . S
C330 O332 1.270 . S
O331 Zn323 1.943 . S
O331 C330 1.249 . S
O332 Zn322 2.067 . S
O332 C330 1.270 . S
C333 O326 1.262 . S
C333 O334 1.232 . S
O334 C333 1.232 . S
C335 O327 1.260 . S
C335 O328 1.257 . S
Zn336 O339 2.031 . S
Zn336 O341 2.049 . S
Zn336 O346 2.067 . S
Zn337 O338 1.962 . S
Zn337 O340 1.986 . S
Zn337 O342 1.996 . S
Zn337 O345 1.943 . S
O338 Zn337 1.962 . S
O338 C343 1.254 . S
O339 Zn336 2.031 . S
O339 C343 1.269 . S
O340 Zn337 1.986 . S
O340 C347 1.262 . S
O341 Zn336 2.049 . S
O341 C349 1.260 . S
O342 Zn337 1.996 . S
O342 C349 1.257 . S
C343 O338 1.254 . S
C343 O339 1.269 . S
C344 O345 1.249 . S
C344 O346 1.270 . S
O345 Zn337 1.943 . S
O345 C344 1.249 . S
O346 Zn336 2.067 . S
O346 C344 1.270 . S
C347 O340 1.262 . S
C347 O348 1.232 . S
O348 C347 1.232 . S
C349 O341 1.260 . S
C349 O342 1.257 . S
Zn350 O353 2.031 . S
Zn350 O355 2.049 . S
Zn350 O360 2.067 . S
Zn351 O352 1.962 . S
Zn351 O354 1.986 . S
Zn351 O356 1.996 . S
Zn351 O359 1.943 . S
O352 Zn351 1.962 . S
O352 C357 1.254 . S
O353 Zn350 2.031 . S
O353 C357 1.269 . S
O354 Zn351 1.986 . S
O354 C361 1.262 . S
O355 Zn350 2.049 . S
O355 C363 1.260 . S
O356 Zn351 1.996 . S
O356 C363 1.257 . S
C357 O352 1.254 . S
C357 O353 1.269 . S
C358 O359 1.249 . S
C358 O360 1.270 . S
O359 Zn351 1.943 . S
O359 C358 1.249 . S
O360 Zn350 2.067 . S
O360 C358 1.270 . S
C361 O354 1.262 . S
C361 O362 1.232 . S
O362 C361 1.232 . S
C363 O355 1.260 . S
C363 O356 1.257 . S
Zn364 O367 2.031 . S
Zn364 O369 2.049 . S
Zn364 O374 2.067 . S
Zn365 O366 1.962 . S
Zn365 O368 1.986 . S
Zn365 O370 1.996 . S
Zn365 O373 1.943 . S
O366 Zn365 1.962 . S
O366 C371 1.254 . S
O367 Zn364 2.031 . S
O367 C371 1.269 . S
O368 Zn365 1.986 . S
O368 C375 1.262 . S
O369 Zn364 2.049 . S
O369 C377 1.260 . S
O370 Zn365 1.996 . S
O370 C377 1.257 . S
C371 O366 1.254 . S
C371 O367 1.269 . S
C372 O373 1.249 . S
C372 O374 1.270 . S
O373 Zn365 1.943 . S
O373 C372 1.249 . S
O374 Zn364 2.067 . S
O374 C372 1.270 . S
C375 O368 1.262 . S
C375 O376 1.232 . S
O376 C375 1.232 . S
C377 O369 1.260 . S
C377 O370 1.257 . S
Zn378 O381 2.031 . S
Zn378 O383 2.049 . S
Zn378 O388 2.067 . S
Zn379 O380 1.962 . S
Zn379 O382 1.986 . S
Zn379 O384 1.996 . S
Zn379 O387 1.943 . S
O380 Zn379 1.962 . S
O380 C385 1.254 . S
O381 Zn378 2.031 . S
O381 C385 1.269 . S
O382 Zn379 1.986 . S
O382 C389 1.262 . S
O383 Zn378 2.049 . S
O383 C391 1.260 . S
O384 Zn379 1.996 . S
O384 C391 1.257 . S
C385 O380 1.254 . S
C385 O381 1.269 . S
C386 O387 1.249 . S
C386 O388 1.270 . S
O387 Zn379 1.943 . S
O387 C386 1.249 . S
O388 Zn378 2.067 . S
O388 C386 1.270 . S
C389 O382 1.262 . S
C389 O390 1.232 . S
O390 C389 1.232 . S
C391 O383 1.260 . S
C391 O384 1.257 . S
Zn392 O395 2.031 . S
Zn392 O397 2.049 . S
Zn392 O402 2.067 . S
Zn393 O394 1.962 . S
Zn393 O396 1.986 . S
Zn393 O398 1.996 . S
Zn393 O401 1.943 . S
O394 Zn393 1.962 . S
O394 C399 1.254 . S
O395 Zn392 2.031 . S
O395 C399 1.269 . S
O396 Zn393 1.986 . S
O396 C403 1.262 . S
O397 Zn392 2.049 . S
O397 C405 1.260 . S
O398 Zn393 1.996 . S
O398 C405 1.257 . S
C399 O394 1.254 . S
C399 O395 1.269 . S
C400 O401 1.249 . S
C400 O402 1.270 . S
O401 Zn393 1.943 . S
O401 C400 1.249 . S
O402 Zn392 2.067 . S
O402 C400 1.270 . S
C403 O396 1.262 . S
C403 O404 1.232 . S
O404 C403 1.232 . S
C405 O397 1.260 . S
C405 O398 1.257 . S
Zn406 O409 2.031 . S
Zn406 O411 2.049 . S
Zn406 O416 2.067 . S
Zn407 O408 1.962 . S
Zn407 O410 1.986 . S
Zn407 O412 1.996 . S
Zn407 O415 1.943 . S
O408 Zn407 1.962 . S
O408 C413 1.254 . S
O409 Zn406 2.031 . S
O409 C413 1.269 . S
O410 Zn407 1.986 . S
O410 C417 1.262 . S
O411 Zn406 2.049 . S
O411 C419 1.260 . S
O412 Zn407 1.996 . S
O412 C419 1.257 . S
C413 O408 1.254 . S
C413 O409 1.269 . S
C414 O415 1.249 . S
C414 O416 1.270 . S
O415 Zn407 1.943 . S
O415 C414 1.249 . S
O416 Zn406 2.067 . S
O416 C414 1.270 . S
C417 O410 1.262 . S
C417 O418 1.232 . S
O418 C417 1.232 . S
C419 O411 1.260 . S
C419 O412 1.257 . S
Zn420 O423 2.031 . S
Zn420 O425 2.049 . S
Zn420 O430 2.067 . S
Zn421 O422 1.962 . S
Zn421 O424 1.986 . S
Zn421 O426 1.996 . S
Zn421 O429 1.943 . S
O422 Zn421 1.962 . S
O422 C427 1.254 . S
O423 Zn420 2.031 . S
O423 C427 1.269 . S
O424 Zn421 1.986 . S
O424 C431 1.262 . S
O425 Zn420 2.049 . S
O425 C433 1.260 . S
O426 Zn421 1.996 . S
O426 C433 1.257 . S
C427 O422 1.254 . S
C427 O423 1.269 . S
C428 O429 1.249 . S
C428 O430 1.270 . S
O429 Zn421 1.943 . S
O429 C428 1.249 . S
O430 Zn420 2.067 . S
O430 C428 1.270 . S
C431 O424 1.262 . S
C431 O432 1.232 . S
O432 C431 1.232 . S
C433 O425 1.260 . S
C433 O426 1.257 . S
Zn434 O437 2.031 . S
Zn434 O439 2.049 . S
Zn434 O444 2.067 . S
Zn435 O436 1.962 . S
Zn435 O438 1.986 . S
Zn435 O440 1.996 . S
Zn435 O443 1.943 . S
O436 Zn435 1.962 . S
O436 C441 1.254 . S
O437 Zn434 2.031 . S
O437 C441 1.269 . S
O438 Zn435 1.986 . S
O438 C445 1.262 . S
O439 Zn434 2.049 . S
O439 C447 1.260 . S
O440 Zn435 1.996 . S
O440 C447 1.257 . S
C441 O436 1.254 . S
C441 O437 1.269 . S
C442 O443 1.249 . S
C442 O444 1.270 . S
O443 Zn435 1.943 . S
O443 C442 1.249 . S
O444 Zn434 2.067 . S
O444 C442 1.270 . S
C445 O438 1.262 . S
C445 O446 1.232 . S
O446 C445 1.232 . S
C447 O439 1.260 . S
C447 O440 1.257 . S
Zn448 O451 2.031 . S
Zn448 O453 2.049 . S
Zn448 O458 2.067 . S
Zn449 O450 1.962 . S
Zn449 O452 1.986 . S
Zn449 O454 1.996 . S
Zn449 O457 1.943 . S
O450 Zn449 1.962 . S
O450 C455 1.254 . S
O451 Zn448 2.031 . S
O451 C455 1.269 . S
O452 Zn449 1.986 . S
O452 C459 1.262 . S
O453 Zn448 2.049 . S
O453 C461 1.260 . S
O454 Zn449 1.996 . S
O454 C461 1.257 . S
C455 O450 1.254 . S
C455 O451 1.269 . S
C456 O457 1.249 . S
C456 O458 1.270 . S
O457 Zn449 1.943 . S
O457 C456 1.249 . S
O458 Zn448 2.067 . S
O458 C456 1.270 . S
C459 O452 1.262 . S
C459 O460 1.232 . S
O460 C459 1.232 . S
C461 O453 1.260 . S
C461 O454 1.257 . S
Zn462 O465 2.031 . S
Zn462 O467 2.049 . S
Zn462 O472 2.067 . S
Zn463 O464 1.962 . S
Zn463 O466 1.986 . S
Zn463 O468 1.996 . S
Zn463 O471 1.943 . S
O464 Zn463 1.962 . S
O464 C469 1.254 . S
O465 Zn462 2.031 . S
O465 C469 1.269 . S
O466 Zn463 1.986 . S
O466 C473 1.262 . S
O467 Zn462 2.049 . S
O467 C475 1.260 . S
O468 Zn463 1.996 . S
O468 C475 1.257 . S
C469 O464 1.254 . S
C469 O465 1.269 . S
C470 O471 1.249 . S
C470 O472 1.270 . S
O471 Zn463 1.943 . S
O471 C470 1.249 . S
O472 Zn462 2.067 . S
O472 C470 1.270 . S
C473 O466 1.262 . S
C473 O474 1.232 . S
O474 C473 1.232 . S
C475 O467 1.260 . S
C475 O468 1.257 . S
Zn476 O479 2.031 . S
Zn476 O481 2.049 . S
Zn476 O486 2.067 . S
Zn477 O478 1.962 . S
Zn477 O480 1.986 . S
Zn477 O482 1.996 . S
Zn477 O485 1.943 . S
O478 Zn477 1.962 . S
O478 C483 1.254 . S
O479 Zn476 2.031 . S
O479 C483 1.269 . S
O480 Zn477 1.986 . S
O480 C487 1.262 . S
O481 Zn476 2.049 . S
O481 C489 1.260 . S
O482 Zn477 1.996 . S
O482 C489 1.257 . S
C483 O478 1.254 . S
C483 O479 1.269 . S
C484 O485 1.249 . S
C484 O486 1.270 . S
O485 Zn477 1.943 . S
O485 C484 1.249 . S
O486 Zn476 2.067 . S
O486 C484 1.270 . S
C487 O480 1.262 . S
C487 O488 1.232 . S
O488 C487 1.232 . S
C489 O481 1.260 . S
C489 O482 1.257 . S
Zn490 O493 2.031 . S
Zn490 O495 2.049 . S
Zn490 O500 2.067 . S
Zn491 O492 1.962 . S
Zn491 O494 1.986 . S
Zn491 O496 1.996 . S
Zn491 O499 1.943 . S
O492 Zn491 1.962 . S
O492 C497 1.254 . S
O493 Zn490 2.031 . S
O493 C497 1.269 . S
O494 Zn491 1.986 . S
O494 C501 1.262 . S
O495 Zn490 2.049 . S
O495 C503 1.260 . S
O496 Zn491 1.996 . S
O496 C503 1.257 . S
C497 O492 1.254 . S
C497 O493 1.269 . S
C498 O499 1.249 . S
C498 O500 1.270 . S
O499 Zn491 1.943 . S
O499 C498 1.249 . S
O500 Zn490 2.067 . S
O500 C498 1.270 . S
C501 O494 1.262 . S
C501 O502 1.232 . S
O502 C501 1.232 . S
C503 O495 1.260 . S
C503 O496 1.257 . S
Zn504 O507 2.031 . S
Zn504 O509 2.049 . S
Zn504 O514 2.067 . S
Zn505 O506 1.962 . S
Zn505 O508 1.986 . S
Zn505 O510 1.996 . S
Zn505 O513 1.943 . S
O506 Zn505 1.962 . S
O506 C511 1.254 . S
O507 Zn504 2.031 . S
O507 C511 1.269 . S
O508 Zn505 1.986 . S
O508 C515 1.262 . S
O509 Zn504 2.049 . S
O509 C517 1.260 . S
O510 Zn505 1.996 . S
O510 C517 1.257 . S
C511 O506 1.254 . S
C511 O507 1.269 . S
C512 O513 1.249 . S
C512 O514 1.270 . S
O513 Zn505 1.943 . S
O513 C512 1.249 . S
O514 Zn504 2.067 . S
O514 C512 1.270 . S
C515 O508 1.262 . S
C515 O516 1.232 . S
O516 C515 1.232 . S
C517 O509 1.260 . S
C517 O510 1.257 . S
Zn518 O521 2.031 . S
Zn518 O523 2.049 . S
Zn518 O528 2.067 . S
Zn519 O520 1.962 . S
Zn519 O522 1.986 . S
Zn519 O524 1.996 . S
Zn519 O527 1.943 . S
O520 Zn519 1.962 . S
O520 C525 1.254 . S
O521 Zn518 2.031 . S
O521 C525 1.269 . S
O522 Zn519 1.986 . S
O522 C529 1.262 . S
O523 Zn518 2.049 . S
O523 C531 1.260 . S
O524 Zn519 1.996 . S
O524 C531 1.257 . S
C525 O520 1.254 . S
C525 O521 1.269 . S
C526 O527 1.249 . S
C526 O528 1.270 . S
O527 Zn519 1.943 . S
O527 C526 1.249 . S
O528 Zn518 2.067 . S
O528 C526 1.270 . S
C529 O522 1.262 . S
C529 O530 1.232 . S
O530 C529 1.232 . S
C531 O523 1.260 . S
C531 O524 1.257 . S
Zn532 O535 2.031 . S
Zn532 O537 2.049 . S
Zn532 O542 2.067 . S
Zn533 O534 1.962 . S
Zn533 O536 1.986 . S
Zn533 O538 1.996 . S
Zn533 O541 1.943 . S
O534 Zn533 1.962 . S
O534 C539 1.254 . S
O535 Zn532 2.031 . S
O535 C539 1.269 . S
O536 Zn533 1.986 . S
O536 C543 1.262 . S
O537 Zn532 2.049 . S
O537 C545 1.260 . S
O538 Zn533 1.996 . S
O538 C545 1.257 . S
C539 O534 1.254 . S
C539 O535 1.269 . S
C540 O541 1.249 . S
C540 O542 1.270 . S
O541 Zn533 1.943 . S
O541 C540 1.249 . S
O542 Zn532 2.067 . S
O542 C540 1.270 . S
C543 O536 1.262 . S
C543 O544 1.232 . S
O544 C543 1.232 . S
C545 O537 1.260 . S
C545 O538 1.257 . S
Zn546 O549 2.031 . S
Zn546 O551 2.049 . S
Zn546 O556 2.067 . S
Zn547 O548 1.962 . S
Zn547 O550 1.986 . S
Zn547 O552 1.996 . S
Zn547 O555 1.943 . S
O548 Zn547 1.962 . S
O548 C553 1.254 . S
O549 Zn546 2.031 . S
O549 C553 1.269 . S
O550 Zn547 1.986 . S
O550 C557 1.262 . S
O551 Zn546 2.049 . S
O551 C559 1.260 . S
O552 Zn547 1.996 . S
O552 C559 1.257 . S
C553 O548 1.254 . S
C553 O549 1.269 . S
C554 O555 1.249 . S
C554 O556 1.270 . S
O555 Zn547 1.943 . S
O555 C554 1.249 . S
O556 Zn546 2.067 . S
O556 C554 1.270 . S
C557 O550 1.262 . S
C557 O558 1.232 . S
O558 C557 1.232 . S
C559 O551 1.260 . S
C559 O552 1.257 . S
Zn560 O563 2.031 . S
Zn560 O565 2.049 . S
Zn560 O570 2.067 . S
Zn561 O562 1.962 . S
Zn561 O564 1.986 . S
Zn561 O566 1.996 . S
Zn561 O569 1.943 . S
O562 Zn561 1.962 . S
O562 C567 1.254 . S
O563 Zn560 2.031 . S
O563 C567 1.269 . S
O564 Zn561 1.986 . S
O564 C571 1.262 . S
O565 Zn560 2.049 . S
O565 C573 1.260 . S
O566 Zn561 1.996 . S
O566 C573 1.257 . S
C567 O562 1.254 . S
C567 O563 1.269 . S
C568 O569 1.249 . S
C568 O570 1.270 . S
O569 Zn561 1.943 . S
O569 C568 1.249 . S
O570 Zn560 2.067 . S
O570 C568 1.270 . S
C571 O564 1.262 . S
C571 O572 1.232 . S
O572 C571 1.232 . S
C573 O565 1.260 . S
C573 O566 1.257 . S
Zn574 O577 2.031 . S
Zn574 O579 2.049 . S
Zn574 O584 2.067 . S
Zn575 O576 1.962 . S
Zn575 O578 1.986 . S
Zn575 O580 1.996 . S
Zn575 O583 1.943 . S
O576 Zn575 1.962 . S
O576 C581 1.254 . S
O577 Zn574 2.031 . S
O577 C581 1.269 . S
O578 Zn575 1.986 . S
O578 C585 1.262 . S
O579 Zn574 2.049 . S
O579 C587 1.260 . S
O580 Zn575 1.996 . S
O580 C587 1.257 . S
C581 O576 1.254 . S
C581 O577 1.269 . S
C582 O583 1.249 . S
C582 O584 1.270 . S
O583 Zn575 1.943 . S
O583 C582 1.249 . S
O584 Zn574 2.067 . S
O584 C582 1.270 . S
C585 O578 1.262 . S
C585 O586 1.232 . S
O586 C585 1.232 . S
C587 O579 1.260 . S
C587 O580 1.257 . S
Zn588 O591 2.031 . S
Zn588 O593 2.049 . S
Zn588 O598 2.067 . S
Zn589 O590 1.962 . S
Zn589 O592 1.986 . S
Zn589 O594 1.996 . S
Zn589 O597 1.943 . S
O590 Zn589 1.962 . S
O590 C595 1.254 . S
O591 Zn588 2.031 . S
O591 C595 1.269 . S
O592 Zn589 1.986 . S
O592 C599 1.262 . S
O593 Zn588 2.049 . S
O593 C601 1.260 . S
O594 Zn589 1.996 . S
O594 C601 1.257 . S
C595 O590 1.254 . S
C595 O591 1.269 . S
C596 O597 1.249 . S
C596 O598 1.270 . S
O597 Zn589 1.943 . S
O597 C596 1.249 . S
O598 Zn588 2.067 . S
O598 C596 1.270 . S
C599 O592 1.262 . S
C599 O600 1.232 . S
O600 C599 1.232 . S
C601 O593 1.260 . S
C601 O594 1.257 . S
Zn602 O605 2.031 . S
Zn602 O607 2.049 . S
Zn602 O612 2.067 . S
Zn603 O604 1.962 . S
Zn603 O606 1.986 . S
Zn603 O608 1.996 . S
Zn603 O611 1.943 . S
O604 Zn603 1.962 . S
O604 C609 1.254 . S
O605 Zn602 2.031 . S
O605 C609 1.269 . S
O606 Zn603 1.986 . S
O606 C613 1.262 . S
O607 Zn602 2.049 . S
O607 C615 1.260 . S
O608 Zn603 1.996 . S
O608 C615 1.257 . S
C609 O604 1.254 . S
C609 O605 1.269 . S
C610 O611 1.249 . S
C610 O612 1.270 . S
O611 Zn603 1.943 . S
O611 C610 1.249 . S
O612 Zn602 2.067 . S
O612 C610 1.270 . S
C613 O606 1.262 . S
C613 O614 1.232 . S
O614 C613 1.232 . S
C615 O607 1.260 . S
C615 O608 1.257 . S
Zn616 O619 2.031 . S
Zn616 O621 2.049 . S
Zn616 O626 2.067 . S
Zn617 O618 1.962 . S
Zn617 O620 1.986 . S
Zn617 O622 1.996 . S
Zn617 O625 1.943 . S
O618 Zn617 1.962 . S
O618 C623 1.254 . S
O619 Zn616 2.031 . S
O619 C623 1.269 . S
O620 Zn617 1.986 . S
O620 C627 1.262 . S
O621 Zn616 2.049 . S
O621 C629 1.260 . S
O622 Zn617 1.996 . S
O622 C629 1.257 . S
C623 O618 1.254 . S
C623 O619 1.269 . S
C624 O625 1.249 . S
C624 O626 1.270 . S
O625 Zn617 1.943 . S
O625 C624 1.249 . S
O626 Zn616 2.067 . S
O626 C624 1.270 . S
C627 O620 1.262 . S
C627 O628 1.232 . S
O628 C627 1.232 . S
C629 O621 1.260 . S
C629 O622 1.257 . S
Zn630 O633 2.031 . S
Zn630 O635 2.049 . S
Zn630 O640 2.067 . S
Zn631 O632 1.962 . S
Zn631 O634 1.986 . S
Zn631 O636 1.996 . S
Zn631 O639 1.943 . S
O632 Zn631 1.962 . S
O632 C637 1.254 . S
O633 Zn630 2.031 . S
O633 C637 1.269 . S
O634 Zn631 1.986 . S
O634 C641 1.262 . S
O635 Zn630 2.049 . S
O635 C643 1.260 . S
O636 Zn631 1.996 . S
O636 C643 1.257 . S
C637 O632 1.254 . S
C637 O633 1.269 . S
C638 O639 1.249 . S
C638 O640 1.270 . S
O639 Zn631 1.943 . S
O639 C638 1.249 . S
O640 Zn630 2.067 . S
O640 C638 1.270 . S
C641 O634 1.262 . S
C641 O642 1.232 . S
O642 C641 1.232 . S
C643 O635 1.260 . S
C643 O636 1.257 . S
Zn644 O647 2.031 . S
Zn644 O649 2.049 . S
Zn644 O654 2.067 . S
Zn645 O646 1.962 . S
Zn645 O648 1.986 . S
Zn645 O650 1.996 . S
Zn645 O653 1.943 . S
O646 Zn645 1.962 . S
O646 C651 1.254 . S
O647 Zn644 2.031 . S
O647 C651 1.269 . S
O648 Zn645 1.986 . S
O648 C655 1.262 . S
O649 Zn644 2.049 . S
O649 C657 1.260 . S
O650 Zn645 1.996 . S
O650 C657 1.257 . S
C651 O646 1.254 . S
C651 O647 1.269 . S
C652 O653 1.249 . S
C652 O654 1.270 . S
O653 Zn645 1.943 . S
O653 C652 1.249 . S
O654 Zn644 2.067 . S
O654 C652 1.270 . S
C655 O648 1.262 . S
C655 O656 1.232 . S
O656 C655 1.232 . S
C657 O649 1.260 . S
C657 O650 1.257 . S
Zn658 O661 2.031 . S
Zn658 O663 2.049 . S
Zn658 O668 2.067 . S
Zn659 O660 1.962 . S
Zn659 O662 1.986 . S
Zn659 O664 1.996 . S
Zn659 O667 1.943 . S
O660 Zn659 1.962 . S
O660 C665 1.254 . S
O661 Zn658 2.031 . S
O661 C665 1.269 . S
O662 Zn659 1.986 . S
O662 C669 1.262 . S
O663 Zn658 2.049 . S
O663 C671 1.260 . S
O664 Zn659 1.996 . S
O664 C671 1.257 . S
C665 O660 1.254 . S
C665 O661 1.269 . S
C666 O667 1.249 . S
C666 O668 1.270 . S
O667 Zn659 1.943 . S
O667 C666 1.249 . S
O668 Zn658 2.067 . S
O668 C666 1.270 . S
C669 O662 1.262 . S
C669 O670 1.232 . S
O670 C669 1.232 . S
C671 O663 1.260 . S
C671 O664 1.257 . S
C553 C7 1.372 . S
C25 C511 1.304 . S
C35 C529 1.309 . S
C543 C53 1.316 . S
C473 C67 1.256 . S
C77 C483 1.318 . S
C95 C497 1.301 . S
C105 C459 1.420 . S
C123 C441 1.420 . S
C403 C137 1.256 . S
C413 C147 1.318 . S
C161 C431 1.301 . S
C175 C361 1.304 . S
C193 C371 1.309 . S
C389 C207 1.316 . S
C343 C217 1.372 . S
C235 C627 1.374 . S
C665 C245 1.255 . S
C641 C263 1.368 . S
C651 C273 1.260 . S
C571 C291 1.374 . S
C599 C305 1.368 . S
C315 C609 1.260 . S
C581 C329 1.255 . S
C455 C287 1.372 . S
C249 C469 1.304 . S
C487 C259 1.309 . S
C501 C277 1.316 . S
C333 C515 1.256 . S
C525 C301 1.318 . S
C319 C539 1.301 . S
C231 C557 1.420 . S
C567 C221 1.420 . S
C179 C669 1.256 . S
C637 C189 1.318 . S
C203 C655 1.301 . S
C133 C585 1.304 . S
C151 C595 1.309 . S
C165 C613 1.316 . S
C623 C119 1.372 . S
C347 C109 1.374 . S
C399 C21 1.255 . S
C417 C39 1.368 . S
C427 C49 1.260 . S
C445 C11 1.374 . S
C81 C375 1.368 . S
C385 C91 1.260 . S
C357 C63 1.255 . S
C13 C377 0.976 . S
C386 C22 1.240 . S
C41 C349 0.976 . S
C50 C358 1.240 . S
C64 C428 1.239 . S
C447 C83 0.975 . S
C92 C400 1.239 . S
C419 C111 0.975 . S
C120 C517 1.347 . S
C526 C134 1.300 . S
C153 C540 1.309 . S
C167 C559 0.914 . S
C181 C456 1.347 . S
C190 C470 1.300 . S
C489 C204 1.309 . S
C223 C503 0.914 . S
C615 C232 1.413 . S
C251 C638 1.325 . S
C260 C657 1.347 . S
C568 C279 1.413 . S
C671 C288 1.395 . S
C302 C587 1.325 . S
C596 C321 1.347 . S
C335 C624 1.395 . S
C601 C293 0.976 1_554 S
C246 C610 1.240 1_556 S
C629 C265 0.976 1_554 S
C582 C274 1.240 1_554 S
C652 C330 1.239 1_556 S
C307 C573 0.975 1_554 S
C666 C316 1.239 1_556 S
C237 C643 0.975 1_554 S
C475 C218 1.347 1_455 S
C176 C484 1.300 1_565 S
C195 C498 1.309 1_455 S
C461 C209 0.914 1_565 S
C139 C554 1.347 1_655 S
C512 C148 1.300 1_545 S
C162 C531 1.309 1_455 S
C125 C545 0.914 1_545 S
C391 C106 1.413 1_545 S
C27 C414 1.325 1_545 S
C36 C433 1.347 1_655 S
C442 C55 1.413 1_545 S
C8 C405 1.395 1_455 S
C78 C363 1.325 1_545 S
C97 C372 1.347 1_655 S
C69 C344 1.395 1_455 S
