# Generated by pormake.
# Topology uoh, (4)-cn, num edge types: 1
# Building blocks:
#     Node 0, Type 0, BuildingBlock: CEKHIL_clean_sbu_0, # of connection points: 4
#     Node 1, Type 0, BuildingBlock: CEKHIL_clean_sbu_0, # of connection points: 4
#     Node 2, Type 0, BuildingBlock: CEKHIL_clean_sbu_0, # of connection points: 4
#     Node 3, Type 0, BuildingBlock: CEKHIL_clean_sbu_0, # of connection points: 4
#     Node 4, Type 0, BuildingBlock: CEKHIL_clean_sbu_0, # of connection points: 4
#     Node 5, Type 0, BuildingBlock: CEKHIL_clean_sbu_0, # of connection points: 4
#     Node 6, Type 0, BuildingBlock: CEKHIL_clean_sbu_0, # of connection points: 4
#     Node 7, Type 0, BuildingBlock: CEKHIL_clean_sbu_0, # of connection points: 4
#     Node 8, Type 0, BuildingBlock: CEKHIL_clean_sbu_0, # of connection points: 4
#     Node 9, Type 0, BuildingBlock: CEKHIL_clean_sbu_0, # of connection points: 4
#     Node 10, Type 0, BuildingBlock: CEKHIL_clean_sbu_0, # of connection points: 4
#     Node 11, Type 0, BuildingBlock: CEKHIL_clean_sbu_0, # of connection points: 4
#     Node 12, Type 0, BuildingBlock: CEKHIL_clean_sbu_0, # of connection points: 4
#     Node 13, Type 0, BuildingBlock: CEKHIL_clean_sbu_0, # of connection points: 4
#     Node 14, Type 0, BuildingBlock: CEKHIL_clean_sbu_0, # of connection points: 4
#     Node 15, Type 0, BuildingBlock: CEKHIL_clean_sbu_0, # of connection points: 4
#     Node 16, Type 0, BuildingBlock: CEKHIL_clean_sbu_0, # of connection points: 4
#     Node 17, Type 0, BuildingBlock: CEKHIL_clean_sbu_0, # of connection points: 4
#     Node 18, Type 0, BuildingBlock: CEKHIL_clean_sbu_0, # of connection points: 4
#     Node 19, Type 0, BuildingBlock: CEKHIL_clean_sbu_0, # of connection points: 4
#     Node 20, Type 0, BuildingBlock: CEKHIL_clean_sbu_0, # of connection points: 4
#     Node 21, Type 0, BuildingBlock: CEKHIL_clean_sbu_0, # of connection points: 4
#     Node 22, Type 0, BuildingBlock: CEKHIL_clean_sbu_0, # of connection points: 4
#     Node 23, Type 0, BuildingBlock: CEKHIL_clean_sbu_0, # of connection points: 4
#     Node 24, Type 0, BuildingBlock: CEKHIL_clean_sbu_0, # of connection points: 4
#     Node 25, Type 0, BuildingBlock: CEKHIL_clean_sbu_0, # of connection points: 4
#     Node 26, Type 0, BuildingBlock: CEKHIL_clean_sbu_0, # of connection points: 4
#     Node 27, Type 0, BuildingBlock: CEKHIL_clean_sbu_0, # of connection points: 4
#     Node 28, Type 0, BuildingBlock: CEKHIL_clean_sbu_0, # of connection points: 4
#     Node 29, Type 0, BuildingBlock: CEKHIL_clean_sbu_0, # of connection points: 4
#     Node 30, Type 0, BuildingBlock: CEKHIL_clean_sbu_0, # of connection points: 4
#     Node 31, Type 0, BuildingBlock: CEKHIL_clean_sbu_0, # of connection points: 4
#     Node 32, Type 0, BuildingBlock: CEKHIL_clean_sbu_0, # of connection points: 4
#     Node 33, Type 0, BuildingBlock: CEKHIL_clean_sbu_0, # of connection points: 4
#     Node 34, Type 0, BuildingBlock: CEKHIL_clean_sbu_0, # of connection points: 4
#     Node 35, Type 0, BuildingBlock: CEKHIL_clean_sbu_0, # of connection points: 4
#     Edge 36, Type (0, 0), BuildingBlock: CIFDUS_clean_linker_0, # of connection points: 2
#     Edge 37, Type (0, 0), BuildingBlock: CIFDUS_clean_linker_0, # of connection points: 2
#     Edge 38, Type (0, 0), BuildingBlock: CIFDUS_clean_linker_0, # of connection points: 2
#     Edge 39, Type (0, 0), BuildingBlock: CIFDUS_clean_linker_0, # of connection points: 2
#     Edge 40, Type (0, 0), BuildingBlock: CIFDUS_clean_linker_0, # of connection points: 2
#     Edge 41, Type (0, 0), BuildingBlock: CIFDUS_clean_linker_0, # of connection points: 2
#     Edge 42, Type (0, 0), BuildingBlock: CIFDUS_clean_linker_0, # of connection points: 2
#     Edge 43, Type (0, 0), BuildingBlock: CIFDUS_clean_linker_0, # of connection points: 2
#     Edge 44, Type (0, 0), BuildingBlock: CIFDUS_clean_linker_0, # of connection points: 2
#     Edge 45, Type (0, 0), BuildingBlock: CIFDUS_clean_linker_0, # of connection points: 2
#     Edge 46, Type (0, 0), BuildingBlock: CIFDUS_clean_linker_0, # of connection points: 2
#     Edge 47, Type (0, 0), BuildingBlock: CIFDUS_clean_linker_0, # of connection points: 2
#     Edge 48, Type (0, 0), BuildingBlock: CIFDUS_clean_linker_0, # of connection points: 2
#     Edge 49, Type (0, 0), BuildingBlock: CIFDUS_clean_linker_0, # of connection points: 2
#     Edge 50, Type (0, 0), BuildingBlock: CIFDUS_clean_linker_0, # of connection points: 2
#     Edge 51, Type (0, 0), BuildingBlock: CIFDUS_clean_linker_0, # of connection points: 2
#     Edge 52, Type (0, 0), BuildingBlock: CIFDUS_clean_linker_0, # of connection points: 2
#     Edge 53, Type (0, 0), BuildingBlock: CIFDUS_clean_linker_0, # of connection points: 2
#     Edge 54, Type (0, 0), BuildingBlock: CIFDUS_clean_linker_0, # of connection points: 2
#     Edge 55, Type (0, 0), BuildingBlock: CIFDUS_clean_linker_0, # of connection points: 2
#     Edge 56, Type (0, 0), BuildingBlock: CIFDUS_clean_linker_0, # of connection points: 2
#     Edge 57, Type (0, 0), BuildingBlock: CIFDUS_clean_linker_0, # of connection points: 2
#     Edge 58, Type (0, 0), BuildingBlock: CIFDUS_clean_linker_0, # of connection points: 2
#     Edge 59, Type (0, 0), BuildingBlock: CIFDUS_clean_linker_0, # of connection points: 2
#     Edge 60, Type (0, 0), BuildingBlock: CIFDUS_clean_linker_0, # of connection points: 2
#     Edge 61, Type (0, 0), BuildingBlock: CIFDUS_clean_linker_0, # of connection points: 2
#     Edge 62, Type (0, 0), BuildingBlock: CIFDUS_clean_linker_0, # of connection points: 2
#     Edge 63, Type (0, 0), BuildingBlock: CIFDUS_clean_linker_0, # of connection points: 2
#     Edge 64, Type (0, 0), BuildingBlock: CIFDUS_clean_linker_0, # of connection points: 2
#     Edge 65, Type (0, 0), BuildingBlock: CIFDUS_clean_linker_0, # of connection points: 2
#     Edge 66, Type (0, 0), BuildingBlock: CIFDUS_clean_linker_0, # of connection points: 2
#     Edge 67, Type (0, 0), BuildingBlock: CIFDUS_clean_linker_0, # of connection points: 2
#     Edge 68, Type (0, 0), BuildingBlock: CIFDUS_clean_linker_0, # of connection points: 2
#     Edge 69, Type (0, 0), BuildingBlock: CIFDUS_clean_linker_0, # of connection points: 2
#     Edge 70, Type (0, 0), BuildingBlock: CIFDUS_clean_linker_0, # of connection points: 2
#     Edge 71, Type (0, 0), BuildingBlock: CIFDUS_clean_linker_0, # of connection points: 2
#     Edge 72, Type (0, 0), BuildingBlock: CIFDUS_clean_linker_0, # of connection points: 2
#     Edge 73, Type (0, 0), BuildingBlock: CIFDUS_clean_linker_0, # of connection points: 2
#     Edge 74, Type (0, 0), BuildingBlock: CIFDUS_clean_linker_0, # of connection points: 2
#     Edge 75, Type (0, 0), BuildingBlock: CIFDUS_clean_linker_0, # of connection points: 2
#     Edge 76, Type (0, 0), BuildingBlock: CIFDUS_clean_linker_0, # of connection points: 2
#     Edge 77, Type (0, 0), BuildingBlock: CIFDUS_clean_linker_0, # of connection points: 2
#     Edge 78, Type (0, 0), BuildingBlock: CIFDUS_clean_linker_0, # of connection points: 2
#     Edge 79, Type (0, 0), BuildingBlock: CIFDUS_clean_linker_0, # of connection points: 2
#     Edge 80, Type (0, 0), BuildingBlock: CIFDUS_clean_linker_0, # of connection points: 2
#     Edge 81, Type (0, 0), BuildingBlock: CIFDUS_clean_linker_0, # of connection points: 2
#     Edge 82, Type (0, 0), BuildingBlock: CIFDUS_clean_linker_0, # of connection points: 2
#     Edge 83, Type (0, 0), BuildingBlock: CIFDUS_clean_linker_0, # of connection points: 2
#     Edge 84, Type (0, 0), BuildingBlock: CIFDUS_clean_linker_0, # of connection points: 2
#     Edge 85, Type (0, 0), BuildingBlock: CIFDUS_clean_linker_0, # of connection points: 2
#     Edge 86, Type (0, 0), BuildingBlock: CIFDUS_clean_linker_0, # of connection points: 2
#     Edge 87, Type (0, 0), BuildingBlock: CIFDUS_clean_linker_0, # of connection points: 2
#     Edge 88, Type (0, 0), BuildingBlock: CIFDUS_clean_linker_0, # of connection points: 2
#     Edge 89, Type (0, 0), BuildingBlock: CIFDUS_clean_linker_0, # of connection points: 2
#     Edge 90, Type (0, 0), BuildingBlock: CIFDUS_clean_linker_0, # of connection points: 2
#     Edge 91, Type (0, 0), BuildingBlock: CIFDUS_clean_linker_0, # of connection points: 2
#     Edge 92, Type (0, 0), BuildingBlock: CIFDUS_clean_linker_0, # of connection points: 2
#     Edge 93, Type (0, 0), BuildingBlock: CIFDUS_clean_linker_0, # of connection points: 2
#     Edge 94, Type (0, 0), BuildingBlock: CIFDUS_clean_linker_0, # of connection points: 2
#     Edge 95, Type (0, 0), BuildingBlock: CIFDUS_clean_linker_0, # of connection points: 2
#     Edge 96, Type (0, 0), BuildingBlock: CIFDUS_clean_linker_0, # of connection points: 2
#     Edge 97, Type (0, 0), BuildingBlock: CIFDUS_clean_linker_0, # of connection points: 2
#     Edge 98, Type (0, 0), BuildingBlock: CIFDUS_clean_linker_0, # of connection points: 2
#     Edge 99, Type (0, 0), BuildingBlock: CIFDUS_clean_linker_0, # of connection points: 2
#     Edge 100, Type (0, 0), BuildingBlock: CIFDUS_clean_linker_0, # of connection points: 2
#     Edge 101, Type (0, 0), BuildingBlock: CIFDUS_clean_linker_0, # of connection points: 2
#     Edge 102, Type (0, 0), BuildingBlock: CIFDUS_clean_linker_0, # of connection points: 2
#     Edge 103, Type (0, 0), BuildingBlock: CIFDUS_clean_linker_0, # of connection points: 2
#     Edge 104, Type (0, 0), BuildingBlock: CIFDUS_clean_linker_0, # of connection points: 2
#     Edge 105, Type (0, 0), BuildingBlock: CIFDUS_clean_linker_0, # of connection points: 2
#     Edge 106, Type (0, 0), BuildingBlock: CIFDUS_clean_linker_0, # of connection points: 2
#     Edge 107, Type (0, 0), BuildingBlock: CIFDUS_clean_linker_0, # of connection points: 2
# Relax obj value: 0.089
# Max RMSD: 0.138
# Mean RMSD: 0.138
data_MOF--net-uoh--node1-CEKHIL_clean_sbu_0--edge1-CIFDUS_clean_linker_0
_symmetry_space_group_name_H-M    P1
_symmetry_Int_Tables_number       1
_symmetry_cell_setting            triclinic
loop_
_symmetry_equiv_pos_as_xyz
'x, y, z'
_cell_length_a     77.475276
_cell_length_b     77.438952
_cell_length_c     23.902105
_cell_angle_alpha  90.093358
_cell_angle_beta   89.99773
_cell_angle_gamma 120.01445
loop_
_atom_site_label
_atom_site_type_symbol
_atom_site_fract_x
_atom_site_fract_y
_atom_site_fract_z
_atom_type_partial_charge
Co0 Co 0.23584 0.14176 0.15725 0.0
O1 O 0.21092 0.14085 0.16952 0.0
O2 O 0.24037 0.1667 0.19052 0.0
C3 C 0.2292 0.1299 0.06897 0.0
O4 O 0.2647 0.14761 0.149 0.0
Co5 Co 0.23563 0.10198 0.13689 0.0
O6 O 0.26345 0.12009 0.11294 0.0
C7 C 0.23186 0.11353 0.25208 0.0
C8 C 0.22105 0.15875 0.18952 0.0
C9 C 0.27317 0.13834 0.12779 0.0
O10 O 0.23407 0.13011 0.23371 0.0
O11 O 0.23101 0.09985 0.22004 0.0
O12 O 0.23567 0.14863 0.07908 0.0
O13 O 0.22506 0.11866 0.11261 0.0
Co14 Co 0.86083 0.09467 0.18258 0.0
O15 O 0.86064 0.06995 0.19639 0.0
O16 O 0.83638 0.07566 0.2199 0.0
C17 C 0.87101 0.09771 0.09325 0.0
O18 O 0.85499 0.11757 0.17362 0.0
Co19 Co 0.89919 0.13413 0.14787 0.0
O20 O 0.88098 0.14476 0.13608 0.0
C21 C 0.89253 0.12103 0.26635 0.0
C22 C 0.84292 0.06315 0.21713 0.0
C23 C 0.86314 0.13552 0.15425 0.0
O24 O 0.87494 0.10633 0.25566 0.0
O25 O 0.90461 0.13241 0.22873 0.0
O26 O 0.85232 0.08617 0.10567 0.0
O27 O 0.88293 0.10585 0.13488 0.0
Co28 Co 0.92031 0.77114 0.16647 0.0
O29 O 0.94432 0.79642 0.17407 0.0
O30 O 0.94129 0.76767 0.20041 0.0
C31 C 0.9139 0.77558 0.07712 0.0
O32 O 0.89746 0.74207 0.16363 0.0
Co33 Co 0.88045 0.77082 0.14656 0.0
O34 O 0.86967 0.74191 0.13497 0.0
C35 C 0.8973 0.77759 0.26049 0.0
C36 C 0.95248 0.78695 0.19597 0.0
C37 C 0.87888 0.7328 0.14903 0.0
O38 O 0.91127 0.77461 0.24267 0.0
O39 O 0.88432 0.778 0.22819 0.0
O40 O 0.92638 0.76949 0.08815 0.0
O41 O 0.90733 0.78069 0.12009 0.0
Co42 Co 0.15702 0.24037 0.31342 0.0
O43 O 0.15725 0.21582 0.30271 0.0
O44 O 0.1797 0.24498 0.26805 0.0
C45 C 0.15154 0.23695 0.40668 0.0
O46 O 0.16222 0.26894 0.31716 0.0
Co47 Co 0.11917 0.24048 0.35525 0.0
O48 O 0.13667 0.26982 0.35897 0.0
C49 C 0.1221 0.23162 0.23633 0.0
C50 C 0.17361 0.22612 0.27461 0.0
C51 C 0.15392 0.27855 0.33671 0.0
O52 O 0.13999 0.23509 0.24446 0.0
O53 O 0.11095 0.23162 0.2759 0.0
O54 O 0.16934 0.24375 0.38653 0.0
O55 O 0.13738 0.23075 0.37003 0.0
Co56 Co 0.77105 0.91447 0.31378 0.0
O57 O 0.79735 0.93731 0.30504 0.0
O58 O 0.7699 0.93513 0.27019 0.0
C59 C 0.77343 0.91114 0.40713 0.0
O60 O 0.74133 0.89339 0.31584 0.0
Co61 Co 0.76618 0.87407 0.35377 0.0
O62 O 0.73746 0.86546 0.35652 0.0
C63 C 0.77594 0.886 0.23516 0.0
C64 C 0.78908 0.94577 0.27792 0.0
C65 C 0.73025 0.87547 0.33448 0.0
O66 O 0.77455 0.90169 0.24392 0.0
O67 O 0.77461 0.87413 0.27435 0.0
O68 O 0.76879 0.92389 0.38747 0.0
O69 O 0.77833 0.90219 0.37005 0.0
Co70 Co 0.09847 0.85618 0.31923 0.0
O71 O 0.07324 0.85465 0.30629 0.0
O72 O 0.08069 0.83192 0.27844 0.0
C73 C 0.10062 0.86477 0.40966 0.0
O74 O 0.12276 0.85245 0.32653 0.0
Co75 Co 0.13589 0.89612 0.35628 0.0
O76 O 0.14776 0.87903 0.36994 0.0
C77 C 0.12251 0.88995 0.23841 0.0
C78 C 0.06753 0.83764 0.28199 0.0
C79 C 0.14026 0.86159 0.34904 0.0
O80 O 0.10941 0.87162 0.24813 0.0
O81 O 0.13328 0.90231 0.27651 0.0
O82 O 0.09015 0.84614 0.39502 0.0
O83 O 0.10807 0.87745 0.36944 0.0
Co84 Co 0.76283 0.84839 0.82062 0.0
O85 O 0.78709 0.84738 0.8131 0.0
O86 O 0.75719 0.82291 0.78945 0.0
C87 C 0.76888 0.86072 0.90881 0.0
O88 O 0.73433 0.84358 0.8242 0.0
Co89 Co 0.7636 0.88849 0.8383 0.0
O90 O 0.73462 0.87149 0.8518 0.0
C91 C 0.77011 0.87736 0.72494 0.0
C92 C 0.7762 0.82939 0.79395 0.0
C93 C 0.72528 0.85306 0.83873 0.0
O94 O 0.76648 0.86021 0.74312 0.0
O95 O 0.771 0.89105 0.75701 0.0
O96 O 0.76152 0.84177 0.89981 0.0
O97 O 0.77386 0.87176 0.8646 0.0
Co98 Co 0.14198 0.91044 0.82011 0.0
O99 O 0.13961 0.93359 0.80513 0.0
O100 O 0.16522 0.93008 0.77997 0.0
C101 C 0.13306 0.90741 0.91028 0.0
O102 O 0.15001 0.8892 0.82908 0.0
Co103 Co 0.10523 0.87006 0.85679 0.0
O104 O 0.12505 0.86128 0.867 0.0
C105 C 0.11042 0.88226 0.73818 0.0
C106 C 0.15706 0.94122 0.78196 0.0
C107 C 0.1428 0.87138 0.84842 0.0
O108 O 0.1276 0.89753 0.74877 0.0
O109 O 0.09872 0.87056 0.77596 0.0
O110 O 0.15124 0.92003 0.89554 0.0
O111 O 0.12062 0.89844 0.87009 0.0
Co112 Co 0.09734 0.24125 0.8216 0.0
O113 O 0.07202 0.21728 0.81178 0.0
O114 O 0.07776 0.24737 0.78993 0.0
C115 C 0.10254 0.23429 0.90966 0.0
O116 O 0.12185 0.26946 0.82828 0.0
Co117 Co 0.13545 0.23815 0.84026 0.0
O118 O 0.14703 0.26629 0.86416 0.0
C119 C 0.11936 0.2343 0.72577 0.0
C120 C 0.0651 0.2283 0.79301 0.0
C121 C 0.13956 0.27697 0.84942 0.0
O122 O 0.10596 0.23804 0.7443 0.0
O123 O 0.1317 0.23257 0.7577 0.0
O124 O 0.09137 0.24209 0.90046 0.0
O125 O 0.10863 0.22927 0.8655 0.0
Co126 Co 0.85871 0.76643 0.67242 0.0
O127 O 0.85919 0.79104 0.68713 0.0
O128 O 0.83592 0.76164 0.71842 0.0
C129 C 0.86436 0.77145 0.57963 0.0
O130 O 0.85362 0.73785 0.66375 0.0
Co131 Co 0.89723 0.76797 0.6288 0.0
O132 O 0.87896 0.73929 0.61368 0.0
C133 C 0.89345 0.77422 0.7492 0.0
C134 C 0.84282 0.78078 0.71494 0.0
C135 C 0.86199 0.72941 0.63718 0.0
O136 O 0.87549 0.7705 0.74104 0.0
O137 O 0.90498 0.77516 0.70939 0.0
O138 O 0.84653 0.76436 0.59973 0.0
O139 O 0.87841 0.77705 0.61643 0.0
Co140 Co 0.24262 0.08685 0.66566 0.0
O141 O 0.21778 0.06221 0.67228 0.0
O142 O 0.24614 0.0682 0.71141 0.0
C143 C 0.24082 0.08968 0.57219 0.0
O144 O 0.27127 0.11015 0.66654 0.0
Co145 Co 0.24354 0.1252 0.62494 0.0
O146 O 0.27288 0.1371 0.62605 0.0
C147 C 0.23222 0.11203 0.74176 0.0
C148 C 0.22736 0.05573 0.702 0.0
C149 C 0.28121 0.12831 0.6491 0.0
O150 O 0.23609 0.09788 0.73378 0.0
O151 O 0.2329 0.12361 0.70258 0.0
O152 O 0.24734 0.07858 0.59324 0.0
O153 O 0.23404 0.0974 0.60792 0.0
Co154 Co 0.91753 0.14418 0.68435 0.0
O155 O 0.94145 0.14296 0.69668 0.0
O156 O 0.93733 0.16791 0.72423 0.0
C157 C 0.91394 0.13527 0.59368 0.0
O158 O 0.89494 0.15064 0.67752 0.0
Co159 Co 0.87804 0.10573 0.6485 0.0
O160 O 0.868 0.12454 0.63865 0.0
C161 C 0.89145 0.11141 0.76624 0.0
C162 C 0.94893 0.16029 0.7205 0.0
C163 C 0.87701 0.14231 0.65777 0.0
O164 O 0.90568 0.12929 0.75611 0.0
O165 O 0.88024 0.09935 0.72822 0.0
O166 O 0.92604 0.15366 0.60814 0.0
O167 O 0.90602 0.12283 0.63421 0.0
Co168 Co 0.90569 0.48952 0.51027 0.0
O169 O 0.8815 0.49075 0.51642 0.0
O170 O 0.9113 0.51487 0.54226 0.0
C171 C 0.90065 0.47788 0.42134 0.0
O172 O 0.93409 0.49412 0.50828 0.0
Co173 Co 0.90456 0.44924 0.49182 0.0
O174 O 0.93367 0.46616 0.48044 0.0
C175 C 0.89817 0.4602 0.6055 0.0
C176 C 0.89238 0.50863 0.53636 0.0
C177 C 0.94306 0.48453 0.49416 0.0
O178 O 0.90149 0.47727 0.58742 0.0
O179 O 0.89743 0.44661 0.5733 0.0
O180 O 0.90784 0.49673 0.43141 0.0
O181 O 0.89498 0.46647 0.46488 0.0
Co182 Co 0.51509 0.42342 0.51469 0.0
O183 O 0.51487 0.39868 0.52454 0.0
O184 O 0.4925 0.40527 0.56051 0.0
C185 C 0.52016 0.42527 0.42133 0.0
O186 O 0.51029 0.44713 0.51156 0.0
Co187 Co 0.55331 0.46087 0.47261 0.0
O188 O 0.53598 0.47284 0.46778 0.0
C189 C 0.55048 0.449 0.5912 0.0
C190 C 0.49866 0.39256 0.55329 0.0
C191 C 0.51887 0.4649 0.4908 0.0
O192 O 0.53239 0.43497 0.58322 0.0
O193 O 0.56172 0.46003 0.5516 0.0
O194 O 0.50241 0.41452 0.44197 0.0
O195 O 0.53447 0.4331 0.45757 0.0
Co196 Co 0.57914 0.09704 0.50264 0.0
O197 O 0.60321 0.12212 0.5139 0.0
O198 O 0.59774 0.0933 0.54846 0.0
C199 C 0.57723 0.1003 0.40929 0.0
O200 O 0.55623 0.06818 0.4985 0.0
Co201 Co 0.54101 0.09653 0.46018 0.0
O202 O 0.52976 0.06729 0.45668 0.0
C203 C 0.55229 0.10504 0.57934 0.0
C204 C 0.60977 0.11237 0.54247 0.0
C205 C 0.53831 0.05857 0.47889 0.0
O206 O 0.56684 0.10178 0.57122 0.0
O207 O 0.54119 0.10508 0.53968 0.0
O208 O 0.58859 0.09402 0.42993 0.0
O209 O 0.56893 0.10625 0.44559 0.0
Co210 Co 0.81159 0.57419 0.6491 0.0
O211 O 0.81023 0.54924 0.63282 0.0
O212 O 0.8344 0.57856 0.60388 0.0
C213 C 0.80539 0.56856 0.74153 0.0
O214 O 0.81764 0.60303 0.65972 0.0
Co215 Co 0.77352 0.57372 0.69234 0.0
O216 O 0.79251 0.60205 0.7098 0.0
C217 C 0.77791 0.5689 0.57129 0.0
C218 C 0.82692 0.55931 0.60626 0.0
C219 C 0.80962 0.61168 0.68692 0.0
O220 O 0.79543 0.57144 0.57999 0.0
O221 O 0.76637 0.5681 0.61087 0.0
O222 O 0.82321 0.57515 0.72192 0.0
O223 O 0.79157 0.5637 0.70435 0.0
Co224 Co 0.43739 0.24532 0.66025 0.0
O225 O 0.46279 0.26922 0.65131 0.0
O226 O 0.43381 0.26633 0.62801 0.0
C227 C 0.44243 0.23876 0.74893 0.0
O228 O 0.4082 0.22313 0.66461 0.0
Co229 Co 0.4353 0.2046 0.67942 0.0
O230 O 0.40668 0.19472 0.69322 0.0
C231 C 0.44125 0.22105 0.56493 0.0
C232 C 0.45309 0.2775 0.6315 0.0
C233 C 0.39826 0.20465 0.6796 0.0
O234 O 0.43975 0.23588 0.58329 0.0
O235 O 0.44106 0.2077 0.59695 0.0
O236 O 0.43671 0.2516 0.73887 0.0
O237 O 0.44682 0.23182 0.70532 0.0
Co238 Co 0.75657 0.17688 0.65397 0.0
O239 O 0.73132 0.17594 0.64904 0.0
O240 O 0.73713 0.15263 0.61624 0.0
C241 C 0.76178 0.18526 0.74608 0.0
O242 O 0.7804 0.17225 0.65335 0.0
Co243 Co 0.79487 0.21606 0.67818 0.0
O244 O 0.80756 0.19947 0.68605 0.0
C245 C 0.77882 0.20844 0.56336 0.0
C246 C 0.72451 0.15883 0.62433 0.0
C247 C 0.79883 0.18149 0.66886 0.0
O248 O 0.76498 0.19118 0.57955 0.0
O249 O 0.79177 0.22121 0.59715 0.0
O250 O 0.75071 0.16693 0.72985 0.0
O251 O 0.76808 0.19845 0.70633 0.0
Co252 Co 0.42534 0.18025 0.15275 0.0
O253 O 0.4485 0.1776 0.14223 0.0
O254 O 0.41883 0.15684 0.10707 0.0
C255 C 0.42947 0.18564 0.24608 0.0
O256 O 0.39788 0.17819 0.157 0.0
Co257 Co 0.43031 0.22042 0.19525 0.0
O258 O 0.40106 0.20457 0.20561 0.0
C259 C 0.43779 0.21611 0.07601 0.0
C260 C 0.43737 0.16153 0.11381 0.0
C261 C 0.39036 0.18785 0.18134 0.0
O262 O 0.43222 0.1976 0.08395 0.0
O263 O 0.43929 0.22792 0.1157 0.0
O264 O 0.42089 0.16767 0.22591 0.0
O265 O 0.43679 0.19976 0.20936 0.0
Co266 Co 0.81915 0.24969 0.15391 0.0
O267 O 0.81619 0.27283 0.14786 0.0
O268 O 0.84208 0.27113 0.11582 0.0
C269 C 0.81132 0.24405 0.24624 0.0
O270 O 0.82726 0.22818 0.15427 0.0
Co271 Co 0.78211 0.20921 0.17932 0.0
O272 O 0.80147 0.19984 0.18749 0.0
C273 C 0.78892 0.22396 0.06325 0.0
C274 C 0.83335 0.28162 0.12312 0.0
C275 C 0.81938 0.20983 0.17015 0.0
O276 O 0.80512 0.2394 0.07958 0.0
O277 O 0.77697 0.21047 0.09718 0.0
O278 O 0.8291 0.25698 0.22966 0.0
O279 O 0.79808 0.23634 0.2067 0.0
Co280 Co 0.75497 0.5794 0.15423 0.0
O281 O 0.72951 0.55535 0.14855 0.0
O282 O 0.73542 0.58503 0.1208 0.0
C283 C 0.76122 0.57457 0.24342 0.0
O284 O 0.77924 0.60763 0.15507 0.0
Co285 Co 0.79351 0.57731 0.17309 0.0
O286 O 0.80656 0.60662 0.18186 0.0
C287 C 0.77553 0.56971 0.06035 0.0
C288 C 0.72271 0.56609 0.12669 0.0
C289 C 0.79793 0.61631 0.16799 0.0
O290 O 0.76264 0.57431 0.07794 0.0
O291 O 0.78818 0.56868 0.09261 0.0
O292 O 0.74994 0.58215 0.23274 0.0
O293 O 0.76687 0.56856 0.20034 0.0
Co294 Co 0.51864 0.0958 0.99494 0.0
O295 O 0.51933 0.12069 0.00572 0.0
O296 O 0.49366 0.09136 0.02808 0.0
C297 C 0.53044 0.10208 0.90649 0.0
O298 O 0.5131 0.06695 0.98824 0.0
Co299 Co 0.5586 0.09634 0.97506 0.0
O300 O 0.54066 0.06829 0.95229 0.0
C301 C 0.54757 0.1015 0.08968 0.0
C302 C 0.50152 0.11067 0.02618 0.0
C303 C 0.52247 0.05851 0.96745 0.0
O304 O 0.53058 0.09834 0.0716 0.0
O305 O 0.56125 0.1025 0.05743 0.0
O306 O 0.51166 0.09539 0.91635 0.0
O307 O 0.54165 0.1065 0.95029 0.0
Co308 Co 0.90889 0.42904 0.01532 0.0
O309 O 0.88445 0.40426 0.02863 0.0
O310 O 0.91423 0.4111 0.05846 0.0
C311 C 0.90373 0.43069 0.92274 0.0
O312 O 0.93751 0.45196 0.00835 0.0
Co313 Co 0.90986 0.46743 0.97426 0.0
O314 O 0.93897 0.4785 0.96592 0.0
C315 C 0.90257 0.45639 0.09434 0.0
C316 C 0.89533 0.39822 0.05384 0.0
C317 C 0.94743 0.4696 0.98741 0.0
O318 O 0.90506 0.44133 0.08577 0.0
O319 O 0.90261 0.46757 0.05483 0.0
O320 O 0.91073 0.41966 0.94124 0.0
O321 O 0.89855 0.43914 0.9607 0.0
Co322 Co 0.57652 0.48 0.00707 0.0
O323 O 0.60087 0.47976 0.01954 0.0
O324 O 0.59647 0.50511 0.04074 0.0
C325 C 0.57152 0.46819 0.9186 0.0
O326 O 0.55312 0.48521 -0.00147 0.0
Co327 Co 0.53757 0.43959 0.98671 0.0
O328 O 0.52696 0.45713 0.96461 0.0
C329 C 0.55294 0.45118 0.1017 0.0
C330 C 0.60821 0.49758 0.03995 0.0
C331 C 0.53524 0.47547 0.97843 0.0
O332 O 0.56676 0.46813 0.08352 0.0
O333 O 0.54049 0.43727 0.06948 0.0
O334 O 0.5835 0.48698 0.92877 0.0
O335 O 0.56467 0.45693 0.96226 0.0
Co336 Co 0.57057 0.8195 0.84581 0.0
O337 O 0.54635 0.82061 0.85363 0.0
O338 O 0.57578 0.84361 0.88531 0.0
C339 C 0.56627 0.811 0.75495 0.0
O340 O 0.59897 0.82399 0.84358 0.0
Co341 Co 0.56977 0.78006 0.81171 0.0
O342 O 0.59908 0.79734 0.80625 0.0
C343 C 0.56009 0.7857 0.92751 0.0
C344 C 0.557 0.83777 0.87791 0.0
C345 C 0.6082 0.81501 0.82597 0.0
O346 O 0.56511 0.80399 0.91752 0.0
O347 O 0.55923 0.77355 0.88976 0.0
O348 O 0.57364 0.82955 0.76956 0.0
O349 O 0.56034 0.79828 0.79516 0.0
Co350 Co 0.18829 0.7595 0.83753 0.0
O351 O 0.18865 0.73492 0.84549 0.0
O352 O 0.16494 0.74026 0.87792 0.0
C353 C 0.19618 0.76359 0.74657 0.0
O354 O 0.18213 0.78219 0.83601 0.0
Co355 Co 0.22585 0.79937 0.80267 0.0
O356 O 0.20743 0.81013 0.79944 0.0
C357 C 0.22197 0.78424 0.91808 0.0
C358 C 0.17158 0.72796 0.87059 0.0
C359 C 0.18987 0.8004 0.81951 0.0
O360 O 0.20399 0.77023 0.90846 0.0
O361 O 0.23348 0.79616 0.88036 0.0
O362 O 0.17785 0.7518 0.76197 0.0
O363 O 0.20918 0.7713 0.78612 0.0
Co364 Co 0.25056 0.43117 0.84669 0.0
O365 O 0.27485 0.45563 0.86109 0.0
O366 O 0.26848 0.42628 0.89325 0.0
C367 C 0.25003 0.43601 0.75376 0.0
O368 O 0.2265 0.40276 0.83791 0.0
Co369 Co 0.21441 0.43439 0.80321 0.0
O370 O 0.20321 0.40557 0.78857 0.0
C371 C 0.2244 0.44022 0.92342 0.0
C372 C 0.28082 0.44541 0.8895 0.0
C373 C 0.20966 0.39502 0.81142 0.0
O374 O 0.23806 0.43568 0.91514 0.0
O375 O 0.2142 0.44184 0.88367 0.0
O376 O 0.26054 0.42871 0.77414 0.0
O377 O 0.24192 0.44204 0.79039 0.0
Co378 Co 0.47609 0.90406 0.9843 0.0
O379 O 0.47546 0.87932 0.97017 0.0
O380 O 0.49905 0.90859 0.93922 0.0
C381 C 0.47018 0.89907 0.07706 0.0
O382 O 0.48123 0.93272 0.9926 0.0
Co383 Co 0.4374 0.90247 0.02715 0.0
O384 O 0.45567 0.93117 0.04191 0.0
C385 C 0.44169 0.89672 0.90661 0.0
C386 C 0.49202 0.88944 0.94315 0.0
C387 C 0.47269 0.94111 0.01866 0.0
O388 O 0.45954 0.90013 0.91513 0.0
O389 O 0.43008 0.89575 0.9462 0.0
O390 O 0.48804 0.90607 0.05735 0.0
O391 O 0.45624 0.89351 0.03994 0.0
Co392 Co 0.10554 0.58147 0.97766 0.0
O393 O 0.1314 0.60445 0.96575 0.0
O394 O 0.1031 0.60091 0.93255 0.0
C395 C 0.10892 0.57938 0.07076 0.0
O396 O 0.07611 0.56012 0.98279 0.0
Co397 Co 0.10209 0.54197 0.01959 0.0
O398 O 0.07333 0.53302 0.02576 0.0
C399 C 0.11036 0.55272 0.90013 0.0
C400 C 0.12232 0.61199 0.9382 0.0
C401 C 0.06557 0.5425 0.00362 0.0
O402 O 0.10865 0.56821 0.9087 0.0
O403 O 0.10963 0.54119 0.93958 0.0
O404 O 0.10378 0.59167 0.05042 0.0
O405 O 0.1138 0.5702 0.03424 0.0
Co406 Co 0.429 0.52281 0.98887 0.0
O407 O 0.40268 0.51939 0.98103 0.0
O408 O 0.41064 0.49665 0.9578 0.0
C409 C 0.43429 0.5352 0.07699 0.0
O410 O 0.4543 0.52064 0.99324 0.0
Co411 Co 0.46617 0.56477 0.0069 0.0
O412 O 0.47963 0.54952 0.02585 0.0
C413 C 0.44936 0.55218 0.89295 0.0
C414 C 0.39692 0.50158 0.9623 0.0
C415 C 0.47235 0.53135 0.01137 0.0
O416 O 0.43657 0.53473 0.91125 0.0
O417 O 0.46145 0.56641 0.92498 0.0
O418 O 0.42395 0.51611 0.06818 0.0
O419 O 0.43957 0.54618 0.03265 0.0
Co420 Co 0.09739 0.51773 0.48436 0.0
O421 O 0.12155 0.51673 0.47585 0.0
O422 O 0.09155 0.49242 0.45177 0.0
C423 C 0.10343 0.52952 0.57284 0.0
O424 O 0.06902 0.51309 0.48853 0.0
Co425 Co 0.09865 0.55795 0.50308 0.0
O426 O 0.06959 0.54117 0.51581 0.0
C427 C 0.10526 0.54716 0.38972 0.0
C428 C 0.11059 0.49893 0.45551 0.0
C429 C 0.06012 0.52273 0.50292 0.0
O430 O 0.10112 0.52985 0.4076 0.0
O431 O 0.1064 0.56093 0.42194 0.0
O432 O 0.096 0.51061 0.56298 0.0
O433 O 0.10856 0.54086 0.52917 0.0
Co434 Co 0.4869 0.58725 0.48197 0.0
O435 O 0.48717 0.61211 0.47163 0.0
O436 O 0.50993 0.60572 0.43797 0.0
C437 C 0.48097 0.58498 0.57518 0.0
O438 O 0.49196 0.5637 0.48608 0.0
Co439 Co 0.44854 0.54939 0.52284 0.0
O440 O 0.46622 0.53787 0.52938 0.0
C441 C 0.45251 0.56079 0.40321 0.0
C442 C 0.50383 0.61849 0.44491 0.0
C443 C 0.48344 0.54595 0.50697 0.0
O444 O 0.47025 0.5755 0.41201 0.0
O445 O 0.44115 0.54971 0.44254 0.0
O446 O 0.49884 0.59605 0.55568 0.0
O447 O 0.46701 0.57718 0.53795 0.0
Co448 Co 0.41654 0.90441 0.49002 0.0
O449 O 0.39139 0.88002 0.48393 0.0
O450 O 0.39668 0.90959 0.45699 0.0
C451 C 0.42297 0.89963 0.57902 0.0
O452 O 0.44026 0.9329 0.49136 0.0
Co453 Co 0.45576 0.90357 0.50904 0.0
O454 O 0.46792 0.93275 0.51914 0.0
C455 C 0.43815 0.89628 0.39573 0.0
C456 C 0.38427 0.89058 0.46272 0.0
C457 C 0.45888 0.94202 0.50499 0.0
O458 O 0.42461 0.89992 0.41353 0.0
O459 O 0.45107 0.89571 0.42793 0.0
O460 O 0.41129 0.90676 0.56856 0.0
O461 O 0.42891 0.89398 0.53581 0.0
Co462 Co 0.19338 0.43508 0.3402 0.0
O463 O 0.19505 0.4605 0.34929 0.0
O464 O 0.16902 0.43163 0.3738 0.0
C465 C 0.20459 0.43996 0.25127 0.0
O466 O 0.18638 0.40588 0.33581 0.0
Co467 Co 0.23205 0.43324 0.32034 0.0
O468 O 0.21332 0.40457 0.3066 0.0
C469 C 0.22231 0.44032 0.43438 0.0
C470 C 0.17729 0.45094 0.37048 0.0
C471 C 0.19498 0.39604 0.32033 0.0
O472 O 0.20554 0.4378 0.41654 0.0
O473 O 0.23552 0.44038 0.40205 0.0
O474 O 0.18605 0.43417 0.26186 0.0
O475 O 0.21609 0.44446 0.29453 0.0
Co476 Co 0.57117 0.76672 0.34328 0.0
O477 O 0.54532 0.74398 0.35872 0.0
O478 O 0.57394 0.7459 0.38062 0.0
C479 C 0.56431 0.77043 0.25422 0.0
O480 O 0.60076 0.78753 0.33296 0.0
Co481 Co 0.57602 0.80792 0.30844 0.0
O482 O 0.60421 0.81575 0.29553 0.0
C483 C 0.56927 0.79513 0.42705 0.0
C484 C 0.55456 0.73538 0.37947 0.0
C485 C 0.61161 0.80534 0.31332 0.0
O486 O 0.57073 0.77959 0.41621 0.0
O487 O 0.56931 0.80691 0.38946 0.0
O488 O 0.56966 0.75744 0.26646 0.0
O489 O 0.56196 0.77956 0.29596 0.0
Co490 Co 0.23962 0.80552 0.3356 0.0
O491 O 0.26313 0.80436 0.35432 0.0
O492 O 0.25833 0.82943 0.37631 0.0
C493 C 0.2381 0.79612 0.24619 0.0
O494 O 0.21722 0.81181 0.32218 0.0
Co495 Co 0.20092 0.76686 0.29786 0.0
O496 O 0.19163 0.78575 0.27865 0.0
C497 C 0.2118 0.7738 0.41747 0.0
C498 C 0.26993 0.82175 0.37727 0.0
C499 C 0.20002 0.8035 0.29782 0.0
O500 O 0.22646 0.7913 0.40659 0.0
O501 O 0.20084 0.76136 0.37978 0.0
O502 O 0.24982 0.8146 0.26052 0.0
O503 O 0.22919 0.78383 0.2866 0.0
H504 H 0.22822 0.09061 0.83671 0.0
H505 H 0.2283 0.1434 0.77776 0.0
H506 H 0.22672 0.15305 0.87365 0.0
H507 H 0.22763 0.14788 0.97422 0.0
H508 H 0.22687 0.09506 0.03452 0.0
H509 H 0.22641 0.08406 0.93807 0.0
C510 C 0.22769 0.10412 0.84472 0.0
C511 C 0.22859 0.11633 0.79979 0.0
C512 C 0.22685 0.1097 0.90024 0.0
C513 C 0.2277 0.1337 0.81123 0.0
C514 C 0.22688 0.13932 0.86618 0.0
C515 C 0.22729 0.13392 0.96625 0.0
C516 C 0.22753 0.12241 0.01127 0.0
C517 C 0.22686 0.12766 0.91095 0.0
C518 C 0.22677 0.10421 0.00046 0.0
C519 C 0.22653 0.09794 0.94535 0.0
H520 H 0.91194 0.13074 0.86031 0.0
H521 H 0.85918 0.07731 0.80425 0.0
H522 H 0.84826 0.06838 0.90043 0.0
H523 H 0.8526 0.0766 0.00032 0.0
H524 H 0.9058 0.12924 0.05692 0.0
H525 H 0.91749 0.13765 0.96078 0.0
C526 C 0.89815 0.11706 0.8691 0.0
C527 C 0.88635 0.10489 0.82495 0.0
C528 C 0.89186 0.11195 0.92463 0.0
C529 C 0.86859 0.08707 0.83726 0.0
C530 C 0.86223 0.08194 0.89233 0.0
C531 C 0.86673 0.0899 0.99147 0.0
C532 C 0.87816 0.10242 0.03533 0.0
C533 C 0.87355 0.09446 0.93623 0.0
C534 C 0.89663 0.11943 0.02368 0.0
C535 C 0.90336 0.12425 0.96874 0.0
H536 H 0.93227 0.77489 0.98184 0.0
H537 H 0.88181 0.77857 0.04275 0.0
H538 H 0.87131 0.77916 0.94647 0.0
H539 H 0.87603 0.77765 0.84496 0.0
H540 H 0.92727 0.77494 0.78518 0.0
H541 H 0.93798 0.7752 0.88104 0.0
C542 C 0.91897 0.77582 0.97404 0.0
C543 C 0.90773 0.77651 0.01924 0.0
C544 C 0.9132 0.77641 0.91877 0.0
C545 C 0.89069 0.77798 0.00858 0.0
C546 C 0.88468 0.77831 0.95356 0.0
C547 C 0.8896 0.77723 0.85282 0.0
C548 C 0.90073 0.77616 0.80763 0.0
C549 C 0.89576 0.77741 0.90829 0.0
C550 C 0.91837 0.77579 0.81886 0.0
C551 C 0.9245 0.77585 0.87379 0.0
H552 H 0.11789 0.23105 0.46068 0.0
H553 H 0.17735 0.24145 0.48947 0.0
H554 H 0.17221 0.24054 0.5902 0.0
H555 H 0.15132 0.23753 0.67005 0.0
H556 H 0.09235 0.22871 0.64322 0.0
H557 H 0.09679 0.22822 0.54193 0.0
C558 C 0.12967 0.23306 0.48909 0.0
C559 C 0.14797 0.23631 0.46761 0.0
C560 C 0.12672 0.2328 0.54731 0.0
C561 C 0.16316 0.23901 0.50488 0.0
C562 C 0.16022 0.23845 0.56255 0.0
C563 C 0.13933 0.23532 0.64221 0.0
C564 C 0.12148 0.23304 0.66438 0.0
C565 C 0.14212 0.23543 0.58421 0.0
C566 C 0.10625 0.23049 0.62739 0.0
C567 C 0.10878 0.23022 0.56942 0.0
H568 H 0.7767 0.88154 0.46011 0.0
H569 H 0.76925 0.93239 0.49072 0.0
H570 H 0.76845 0.92686 0.5911 0.0
H571 H 0.76923 0.9075 0.67003 0.0
H572 H 0.77541 0.85578 0.6418 0.0
H573 H 0.7774 0.86179 0.5408 0.0
C574 C 0.77495 0.8914 0.48885 0.0
C575 C 0.77304 0.90736 0.4679 0.0
C576 C 0.77429 0.88801 0.54694 0.0
C577 C 0.77068 0.91997 0.50562 0.0
C578 C 0.77026 0.91685 0.56313 0.0
C579 C 0.77117 0.89757 0.64203 0.0
C580 C 0.77226 0.88126 0.66374 0.0
C581 C 0.77199 0.90091 0.58421 0.0
C582 C 0.77454 0.86847 0.62639 0.0
C583 C 0.77567 0.87189 0.56858 0.0
H584 H 0.12853 0.90454 0.6462 0.0
H585 H 0.07919 0.84771 0.69754 0.0
H586 H 0.07185 0.83724 0.60018 0.0
H587 H 0.08043 0.84357 0.50064 0.0
H588 H 0.12921 0.90067 0.44959 0.0
H589 H 0.13589 0.91157 0.5468 0.0
C590 C 0.11608 0.88992 0.63617 0.0
C591 C 0.10457 0.87691 0.67917 0.0
C592 C 0.11197 0.88392 0.58019 0.0
C593 C 0.08835 0.85807 0.66531 0.0
C594 C 0.08417 0.85199 0.60963 0.0
C595 C 0.09253 0.85837 0.51095 0.0
C596 C 0.10445 0.8712 0.46832 0.0
C597 C 0.09609 0.86467 0.56683 0.0
C598 C 0.1199 0.89047 0.48186 0.0
C599 C 0.12371 0.89674 0.53738 0.0
H600 H 0.77767 0.90555 0.13762 0.0
H601 H 0.77669 0.85276 0.20057 0.0
H602 H 0.77438 0.84049 0.10577 0.0
H603 H 0.77089 0.84363 0.00516 0.0
H604 H 0.77304 0.89659 0.94034 0.0
H605 H 0.77655 0.90979 0.03546 0.0
C606 C 0.77718 0.89147 0.13065 0.0
C607 C 0.7772 0.8801 0.17665 0.0
C608 C 0.77583 0.88437 0.07559 0.0
C609 C 0.77664 0.8619 0.16639 0.0
C610 C 0.77523 0.85476 0.11202 0.0
C611 C 0.77212 0.85806 0.01187 0.0
C612 C 0.77148 0.86901 0.96595 0.0
C613 C 0.77446 0.86567 0.06642 0.0
C614 C 0.77342 0.88784 0.97512 0.0
C615 C 0.77543 0.89539 0.02949 0.0
H616 H 0.0994 0.87167 0.14755 0.0
H617 H 0.1542 0.924 0.19808 0.0
H618 H 0.16197 0.93426 0.10087 0.0
H619 H 0.15414 0.92754 0.00132 0.0
H620 H 0.09909 0.87573 0.95059 0.0
H621 H 0.09053 0.86609 0.04821 0.0
C622 C 0.113 0.88536 0.13734 0.0
C623 C 0.12625 0.89692 0.17997 0.0
C624 C 0.11742 0.89122 0.08137 0.0
C625 C 0.1437 0.91477 0.16609 0.0
C626 C 0.14823 0.92065 0.11049 0.0
C627 C 0.14025 0.91418 0.01172 0.0
C628 C 0.12739 0.90223 0.96906 0.0
C629 C 0.13535 0.90883 0.0678 0.0
C630 C 0.10931 0.8851 0.98286 0.0
C631 C 0.10439 0.87957 0.03862 0.0
H632 H 0.08342 0.23274 0.0054 0.0
H633 H 0.13424 0.23027 0.94202 0.0
H634 H 0.14435 0.22811 0.03769 0.0
H635 H 0.1395 0.22859 0.13968 0.0
H636 H 0.08772 0.2299 0.20142 0.0
H637 H 0.07714 0.23052 0.10613 0.0
C638 C 0.09669 0.23168 0.01255 0.0
C639 C 0.10821 0.23191 0.9669 0.0
C640 C 0.10221 0.23015 0.06741 0.0
C641 C 0.12517 0.2302 0.9766 0.0
C642 C 0.13096 0.22898 0.03127 0.0
C643 C 0.1258 0.22881 0.13235 0.0
C644 C 0.11458 0.22938 0.17803 0.0
C645 C 0.11969 0.22916 0.07709 0.0
C646 C 0.09676 0.22949 0.16742 0.0
C647 C 0.09068 0.22994 0.11279 0.0
H648 H 0.8646 0.77244 0.31634 0.0
H649 H 0.92512 0.78559 0.34245 0.0
H650 H 0.92055 0.78542 0.44375 0.0
H651 H 0.89883 0.78032 0.52517 0.0
H652 H 0.83796 0.76575 0.49733 0.0
H653 H 0.84323 0.76768 0.39655 0.0
C654 C 0.8769 0.77551 0.34405 0.0
C655 C 0.89519 0.77909 0.3217 0.0
C656 C 0.87405 0.77498 0.40209 0.0
C657 C 0.91086 0.78277 0.35846 0.0
C658 C 0.90825 0.78265 0.41643 0.0
C659 C 0.88677 0.77764 0.49697 0.0
C660 C 0.86803 0.77288 0.51871 0.0
C661 C 0.88983 0.77855 0.43876 0.0
C662 C 0.85251 0.76936 0.4817 0.0
C663 C 0.85551 0.7705 0.42401 0.0
H664 H 0.23044 0.11389 0.51664 0.0
H665 H 0.24957 0.07084 0.49062 0.0
H666 H 0.24752 0.07371 0.38964 0.0
H667 H 0.24059 0.08852 0.30864 0.0
H668 H 0.22269 0.13256 0.33341 0.0
H669 H 0.22384 0.12912 0.43481 0.0
C670 C 0.23417 0.10517 0.48881 0.0
C671 C 0.24012 0.09217 0.51111 0.0
C672 C 0.23309 0.10698 0.43055 0.0
C673 C 0.24499 0.08101 0.47456 0.0
C674 C 0.24377 0.08258 0.41676 0.0
C675 C 0.23674 0.09723 0.33615 0.0
C676 C 0.23143 0.11067 0.31342 0.0
C677 C 0.23781 0.09548 0.39429 0.0
C678 C 0.22681 0.12208 0.34979 0.0
C679 C 0.22749 0.12015 0.4078 0.0
H680 H 0.9294 0.15783 0.50115 0.0
H681 H 0.88505 0.09899 0.5556 0.0
H682 H 0.87434 0.08921 0.45906 0.0
H683 H 0.87733 0.09757 0.35892 0.0
H684 H 0.92251 0.15633 0.30544 0.0
H685 H 0.93311 0.16581 0.40162 0.0
C686 C 0.91741 0.14287 0.49184 0.0
C687 C 0.90795 0.12923 0.5353 0.0
C688 C 0.91146 0.13727 0.43634 0.0
C689 C 0.89253 0.10983 0.52275 0.0
C690 C 0.88638 0.1042 0.46757 0.0
C691 C 0.8895 0.11242 0.36838 0.0
C692 C 0.89909 0.12615 0.32501 0.0
C693 C 0.89569 0.11783 0.424 0.0
C694 C 0.91493 0.14534 0.33791 0.0
C695 C 0.921 0.15086 0.39299 0.0
H696 H 0.89685 0.43517 0.19158 0.0
H697 H 0.90532 0.49121 0.12881 0.0
H698 H 0.90552 0.50255 0.22359 0.0
H699 H 0.90426 0.4973 0.32448 0.0
H700 H 0.89465 0.44125 0.38935 0.0
H701 H 0.89393 0.42926 0.29393 0.0
C702 C 0.89861 0.4498 0.19862 0.0
C703 C 0.90108 0.46225 0.1527 0.0
C704 C 0.89862 0.45634 0.25376 0.0
C705 C 0.90327 0.48117 0.16292 0.0
C706 C 0.90349 0.48778 0.21731 0.0
C707 C 0.902 0.48244 0.31779 0.0
C708 C 0.89966 0.47025 0.36389 0.0
C709 C 0.90134 0.47559 0.263 0.0
C710 C 0.89652 0.45096 0.3545 0.0
C711 C 0.89613 0.4441 0.29994 0.0
H712 H 0.51986 0.42441 0.1578 0.0
H713 H 0.58068 0.47124 0.18347 0.0
H714 H 0.57612 0.4672 0.28482 0.0
H715 H 0.5545 0.45078 0.3664 0.0
H716 H 0.49332 0.40503 0.33929 0.0
H717 H 0.4984 0.40828 0.2384 0.0
C718 C 0.53221 0.43362 0.18548 0.0
C719 C 0.55061 0.44804 0.16301 0.0
C720 C 0.52937 0.4315 0.24358 0.0
C721 C 0.56634 0.46003 0.19963 0.0
C722 C 0.56374 0.45774 0.25762 0.0
C723 C 0.54231 0.44153 0.33834 0.0
C724 C 0.52357 0.42769 0.36031 0.0
C725 C 0.54527 0.44362 0.2801 0.0
C726 C 0.50788 0.41586 0.32348 0.0
C727 C 0.51077 0.41766 0.26572 0.0
H728 H 0.54989 0.10654 0.35435 0.0
H729 H 0.59815 0.09477 0.32726 0.0
H730 H 0.59382 0.09506 0.2264 0.0
H731 H 0.57603 0.0979 0.14592 0.0
H732 H 0.52684 0.10834 0.17145 0.0
H733 H 0.53188 0.10938 0.27268 0.0
C734 C 0.55946 0.10409 0.32628 0.0
C735 C 0.57431 0.10064 0.34828 0.0
C736 C 0.55675 0.10404 0.26803 0.0
C737 C 0.58655 0.09739 0.31145 0.0
C738 C 0.58412 0.09759 0.25371 0.0
C739 C 0.56649 0.10057 0.17348 0.0
C740 C 0.55113 0.1031 0.15095 0.0
C741 C 0.56924 0.10082 0.23154 0.0
C742 C 0.53878 0.10632 0.18756 0.0
C743 C 0.54164 0.10691 0.24551 0.0
H744 H 0.77229 0.56396 0.79593 0.0
H745 H 0.83036 0.57059 0.82368 0.0
H746 H 0.82556 0.57004 0.92446 0.0
H747 H 0.80578 0.56927 0.00455 0.0
H748 H 0.7483 0.56427 0.97869 0.0
H749 H 0.75192 0.56246 0.87752 0.0
C750 C 0.7838 0.56515 0.82414 0.0
C751 C 0.80167 0.56737 0.80238 0.0
C752 C 0.78109 0.56515 0.88238 0.0
C753 C 0.81652 0.56899 0.83935 0.0
C754 C 0.81379 0.56864 0.89704 0.0
C755 C 0.7939 0.56755 0.97699 0.0
C756 C 0.7768 0.5669 -0.00063 0.0
C757 C 0.79624 0.56694 0.919 0.0
C758 C 0.76167 0.56486 0.9627 0.0
C759 C 0.76373 0.56385 0.90478 0.0
H760 H 0.44419 0.25798 0.84477 0.0
H761 H 0.44231 0.20484 0.78198 0.0
H762 H 0.44156 0.19336 0.87792 0.0
H763 H 0.43994 0.19789 0.9798 0.0
H764 H 0.44296 0.2519 0.04096 0.0
H765 H 0.445 0.2636 0.94562 0.0
C766 C 0.44367 0.2439 0.85209 0.0
C767 C 0.4431 0.23217 0.80647 0.0
C768 C 0.44349 0.23756 0.90713 0.0
C769 C 0.44272 0.21411 0.81649 0.0
C770 C 0.44226 0.20754 0.87133 0.0
C771 C 0.4412 0.21229 0.97233 0.0
C772 C 0.44113 0.22387 0.01783 0.0
C773 C 0.44243 0.21906 0.91703 0.0
C774 C 0.44295 0.24259 0.0071 0.0
C775 C 0.44404 0.24931 0.95243 0.0
H776 H 0.78573 0.2217 0.79714 0.0
H777 H 0.74427 0.15971 0.83211 0.0
H778 H 0.7479 0.16647 0.93187 0.0
H779 H 0.76326 0.18943 0.00999 0.0
H780 H 0.80592 0.25126 0.97808 0.0
H781 H 0.80127 0.24515 0.87718 0.0
C782 C 0.77751 0.20972 0.82667 0.0
C783 C 0.76477 0.19022 0.80679 0.0
C784 C 0.77979 0.21366 0.88486 0.0
C785 C 0.75425 0.17486 0.84582 0.0
C786 C 0.75626 0.17869 0.90316 0.0
C787 C 0.7714 0.20168 0.98114 0.0
C788 C 0.78484 0.2208 0.00197 0.0
C789 C 0.76901 0.19798 0.92323 0.0
C790 C 0.79542 0.23636 0.96349 0.0
C791 C 0.79282 0.23287 0.90563 0.0
H792 H 0.43156 0.18682 0.50951 0.0
H793 H 0.45127 0.24905 0.48229 0.0
H794 H 0.44971 0.24376 0.38097 0.0
H795 H 0.4419 0.2211 0.29996 0.0
H796 H 0.42071 0.15865 0.32906 0.0
H797 H 0.42365 0.16441 0.42974 0.0
C798 C 0.43575 0.19932 0.48154 0.0
C799 C 0.44167 0.21834 0.50358 0.0
C800 C 0.43439 0.19608 0.42355 0.0
C801 C 0.4467 0.23426 0.4665 0.0
C802 C 0.44577 0.23123 0.40855 0.0
C803 C 0.43796 0.20878 0.32841 0.0
C804 C 0.4311 0.18948 0.30702 0.0
C805 C 0.43948 0.21216 0.38657 0.0
C806 C 0.42596 0.17364 0.34438 0.0
C807 C 0.42769 0.17692 0.40201 0.0
H808 H 0.80984 0.23947 0.5099 0.0
H809 H 0.75217 0.18784 0.47884 0.0
H810 H 0.75653 0.19436 0.37819 0.0
H811 H 0.77753 0.21426 0.29779 0.0
H812 H 0.8356 0.265 0.33177 0.0
H813 H 0.8302 0.25925 0.43161 0.0
C814 C 0.79808 0.2297 0.48136 0.0
C815 C 0.78069 0.2132 0.50237 0.0
C816 C 0.80081 0.23331 0.42348 0.0
C817 C 0.76575 0.20068 0.46418 0.0
C818 C 0.76824 0.20437 0.40642 0.0
C819 C 0.78892 0.22406 0.32715 0.0
C820 C 0.80696 0.24001 0.30697 0.0
C821 C 0.78583 0.22055 0.38538 0.0
C822 C 0.8216 0.25254 0.34574 0.0
C823 C 0.81854 0.24931 0.40313 0.0
H824 H 0.79535 0.56579 0.47508 0.0
H825 H 0.74565 0.57119 0.53526 0.0
H826 H 0.73638 0.57358 0.43954 0.0
H827 H 0.7429 0.57538 0.33883 0.0
H828 H 0.79166 0.56882 0.27742 0.0
H829 H 0.80081 0.56577 0.37347 0.0
C830 C 0.78241 0.56736 0.46732 0.0
C831 C 0.77131 0.56839 0.51263 0.0
C832 C 0.77707 0.5687 0.4119 0.0
C833 C 0.7545 0.5703 0.50148 0.0
C834 C 0.7492 0.57178 0.44664 0.0
C835 C 0.75556 0.57331 0.34649 0.0
C836 C 0.76671 0.57251 0.30123 0.0
C837 C 0.7605 0.57124 0.40161 0.0
C838 C 0.78288 0.56954 0.31166 0.0
C839 C 0.78811 0.56779 0.36654 0.0
H840 H 0.57257 0.1076 0.67572 0.0
H841 H 0.51961 0.1067 0.6147 0.0
H842 H 0.50846 0.10593 0.71024 0.0
H843 H 0.51265 0.10364 0.81098 0.0
H844 H 0.56578 0.10547 0.87326 0.0
H845 H 0.57788 0.10766 0.77742 0.0
C846 C 0.55868 0.10742 0.68323 0.0
C847 C 0.54692 0.10705 0.63772 0.0
C848 C 0.55225 0.10694 0.73856 0.0
C849 C 0.52902 0.10697 0.64859 0.0
C850 C 0.52254 0.10643 0.70335 0.0
C851 C 0.5269 0.10454 0.80356 0.0
C852 C 0.53821 0.10417 0.84898 0.0
C853 C 0.53385 0.10606 0.74856 0.0
C854 C 0.55677 0.10566 0.83889 0.0
C855 C 0.56368 0.1069 0.78412 0.0
H856 H 0.90064 0.43077 0.65966 0.0
H857 H 0.89311 0.4816 0.68968 0.0
H858 H 0.89346 0.47663 0.79077 0.0
H859 H 0.89721 0.45844 0.87086 0.0
H860 H 0.90639 0.40876 0.83835 0.0
H861 H 0.90408 0.41274 0.73806 0.0
C862 C 0.89885 0.4407 0.68809 0.0
C863 C 0.89676 0.45651 0.66682 0.0
C864 C 0.89951 0.43803 0.74591 0.0
C865 C 0.89471 0.46929 0.70471 0.0
C866 C 0.89496 0.46648 0.76258 0.0
C867 C 0.89863 0.44846 0.84174 0.0
C868 C 0.90201 0.43334 0.86208 0.0
C869 C 0.89757 0.45101 0.7837 0.0
C870 C 0.90391 0.42059 0.82386 0.0
C871 C 0.90254 0.42281 0.76644 0.0
H872 H 0.53327 0.4279 0.68688 0.0
H873 H 0.58515 0.48123 0.62684 0.0
H874 H 0.59629 0.49143 0.72251 0.0
H875 H 0.59049 0.48641 0.82327 0.0
H876 H 0.5394 0.43294 0.88471 0.0
H877 H 0.52879 0.42164 0.78851 0.0
C878 C 0.5471 0.44167 0.69464 0.0
C879 C 0.55822 0.45381 0.6494 0.0
C880 C 0.55351 0.44754 0.75007 0.0
C881 C 0.57621 0.47153 0.66052 0.0
C882 C 0.5826 0.47747 0.71537 0.0
C883 C 0.57706 0.47224 0.81561 0.0
C884 C 0.56562 0.46063 0.86091 0.0
C885 C 0.57121 0.46578 0.76041 0.0
C886 C 0.54842 0.44218 0.85045 0.0
C887 C 0.54235 0.43573 0.79547 0.0
H888 H 0.57308 0.83343 0.66236 0.0
H889 H 0.55828 0.77453 0.71711 0.0
H890 H 0.55779 0.76423 0.62035 0.0
H891 H 0.56179 0.77208 0.52001 0.0
H892 H 0.57558 0.83087 0.46604 0.0
H893 H 0.57608 0.84095 0.56251 0.0
C894 C 0.56978 0.81836 0.65305 0.0
C895 C 0.56587 0.80483 0.69661 0.0
C896 C 0.56925 0.81245 0.59743 0.0
C897 C 0.56142 0.78527 0.68414 0.0
C898 C 0.56112 0.77935 0.62885 0.0
C899 C 0.56487 0.78707 0.52938 0.0
C900 C 0.56863 0.80064 0.48581 0.0
C901 C 0.56504 0.79283 0.58512 0.0
C902 C 0.57249 0.82001 0.49867 0.0
C903 C 0.57287 0.82588 0.5539 0.0
H904 H 0.23361 0.79335 0.50885 0.0
H905 H 0.17804 0.74184 0.45891 0.0
H906 H 0.16816 0.73435 0.55663 0.0
H907 H 0.17486 0.743 0.65611 0.0
H908 H 0.23074 0.79401 0.70564 0.0
H909 H 0.24083 0.80125 0.60793 0.0
C910 C 0.21936 0.78043 0.51923 0.0
C911 C 0.20657 0.76826 0.4766 0.0
C912 C 0.21373 0.77623 0.57535 0.0
C913 C 0.18823 0.75147 0.4909 0.0
C914 C 0.18249 0.74721 0.54676 0.0
C915 C 0.18919 0.75574 0.64536 0.0
C916 C 0.20197 0.76805 0.68767 0.0
C917 C 0.19503 0.75962 0.58924 0.0
C918 C 0.22063 0.78435 0.67357 0.0
C919 C 0.22642 0.78849 0.6178 0.0
H920 H 0.24997 0.43538 0.49049 0.0
H921 H 0.20257 0.44854 0.51607 0.0
H922 H 0.20729 0.44899 0.61733 0.0
H923 H 0.22424 0.44451 0.69895 0.0
H924 H 0.2706 0.42998 0.67177 0.0
H925 H 0.2669 0.43122 0.57092 0.0
C926 C 0.24078 0.43856 0.51806 0.0
C927 C 0.22598 0.44198 0.49557 0.0
C928 C 0.2433 0.43842 0.57612 0.0
C929 C 0.21407 0.44583 0.53218 0.0
C930 C 0.21674 0.44607 0.59013 0.0
C931 C 0.23355 0.44169 0.67087 0.0
C932 C 0.24765 0.43714 0.6928 0.0
C933 C 0.23119 0.44219 0.61263 0.0
C934 C 0.25957 0.43343 0.65597 0.0
C935 C 0.2575 0.43417 0.59824 0.0
H936 H 0.43622 0.89224 0.13104 0.0
H937 H 0.49585 0.90307 0.1596 0.0
H938 H 0.49062 0.90175 0.26031 0.0
H939 H 0.46982 0.89881 0.34014 0.0
H940 H 0.41067 0.88958 0.31359 0.0
H941 H 0.41497 0.88885 0.21235 0.0
C942 C 0.448 0.89422 0.1594 0.0
C943 C 0.4664 0.89779 0.13789 0.0
C944 C 0.445 0.89372 0.2176 0.0
C945 C 0.48158 0.90041 0.17507 0.0
C946 C 0.4786 0.89962 0.23271 0.0
C947 C 0.45773 0.8964 0.3124 0.0
C948 C 0.43992 0.89419 0.33461 0.0
C949 C 0.46045 0.89643 0.25442 0.0
C950 C 0.42455 0.89133 0.29772 0.0
C951 C 0.42701 0.89095 0.23978 0.0
H952 H 0.1124 0.55027 0.12548 0.0
H953 H 0.10533 0.60151 0.1528 0.0
H954 H 0.10461 0.59662 0.25352 0.0
H955 H 0.10502 0.57747 0.33369 0.0
H956 H 0.11078 0.52537 0.30816 0.0
H957 H 0.11306 0.53099 0.20709 0.0
C958 C 0.11079 0.56038 0.15358 0.0
C959 C 0.10891 0.57621 0.13168 0.0
C960 C 0.11014 0.55735 0.21178 0.0
C961 C 0.10673 0.58915 0.16853 0.0
C962 C 0.10634 0.5864 0.22621 0.0
C963 C 0.10695 0.5674 0.30621 0.0
C964 C 0.10777 0.55105 0.32867 0.0
C965 C 0.10792 0.57051 0.24826 0.0
C966 C 0.11007 0.53807 0.29211 0.0
C967 C 0.11136 0.54126 0.23425 0.0
H968 H 0.41519 0.51827 0.17334 0.0
H969 H 0.46582 0.57125 0.10813 0.0
H970 H 0.47562 0.58452 0.20318 0.0
H971 H 0.47041 0.58028 0.30552 0.0
H972 H 0.41851 0.52763 0.36865 0.0
H973 H 0.40852 0.51528 0.27397 0.0
C974 C 0.42836 0.53273 0.17998 0.0
C975 C 0.43989 0.54366 0.13398 0.0
C976 C 0.43364 0.5404 0.23448 0.0
C977 C 0.45673 0.56253 0.14299 0.0
C978 C 0.46234 0.57011 0.19733 0.0
C979 C 0.45681 0.56622 0.29859 0.0
C980 C 0.44539 0.55491 0.34464 0.0
C981 C 0.45098 0.5591 0.24354 0.0
C982 C 0.42771 0.53674 0.33445 0.0
C983 C 0.42197 0.52955 0.28013 0.0
H984 H 0.11331 0.57318 0.80394 0.0
H985 H 0.10941 0.51874 0.86412 0.0
H986 H 0.10702 0.50699 0.76847 0.0
H987 H 0.10427 0.51121 0.668 0.0
H988 H 0.10904 0.56574 0.60648 0.0
H989 H 0.11275 0.57834 0.70237 0.0
C990 C 0.11213 0.55882 0.79621 0.0
C991 C 0.1114 0.54685 0.84154 0.0
C992 C 0.11069 0.55205 0.74083 0.0
C993 C 0.10999 0.52833 0.83038 0.0
C994 C 0.10851 0.5215 0.77557 0.0
C995 C 0.10612 0.52585 0.6756 0.0
C996 C 0.10616 0.53744 0.6304 0.0
C997 C 0.10851 0.53307 0.73059 0.0
C998 C 0.10889 0.55651 0.6407 0.0
C999 C 0.11101 0.56372 0.69549 0.0
H1000 H 0.48051 0.58215 0.8382 0.0
H1001 H 0.42273 0.53034 0.80955 0.0
H1002 H 0.427 0.53619 0.70843 0.0
H1003 H 0.4477 0.55582 0.62783 0.0
H1004 H 0.50607 0.60647 0.65895 0.0
H1005 H 0.50095 0.60127 0.7594 0.0
C1006 C 0.46871 0.57218 0.81006 0.0
C1007 C 0.45126 0.5559 0.83166 0.0
C1008 C 0.47142 0.5754 0.75224 0.0
C1009 C 0.43631 0.54301 0.79419 0.0
C1010 C 0.43875 0.54635 0.73633 0.0
C1011 C 0.45923 0.56573 0.65671 0.0
C1012 C 0.47724 0.58153 0.63593 0.0
C1013 C 0.45631 0.56245 0.71481 0.0
C1014 C 0.49211 0.59416 0.67379 0.0
C1015 C 0.48919 0.59123 0.7313 0.0
H1016 H 0.45934 0.89398 0.81026 0.0
H1017 H 0.40829 0.89687 0.87095 0.0
H1018 H 0.39822 0.89809 0.77536 0.0
H1019 H 0.40443 0.89969 0.6746 0.0
H1020 H 0.45453 0.89561 0.61251 0.0
H1021 H 0.46447 0.8936 0.70849 0.0
C1022 C 0.44593 0.89473 0.80263 0.0
C1023 C 0.4347 0.89544 0.84806 0.0
C1024 C 0.44012 0.8954 0.74726 0.0
C1025 C 0.41728 0.89628 0.8371 0.0
C1026 C 0.41151 0.89708 0.78232 0.0
C1027 C 0.41754 0.89838 0.6821 0.0
C1028 C 0.42885 0.898 0.63669 0.0
C1029 C 0.42294 0.89691 0.73716 0.0
C1030 C 0.44561 0.89598 0.64689 0.0
C1031 C 0.45129 0.89484 0.70173 0.0
H1032 H 0.18652 0.44129 0.15613 0.0
H1033 H 0.23905 0.44157 0.21702 0.0
H1034 H 0.25033 0.44249 0.12076 0.0
H1035 H 0.24457 0.44206 0.01924 0.0
H1036 H 0.19227 0.44276 0.95949 0.0
H1037 H 0.18178 0.44289 0.05539 0.0
C1038 C 0.20044 0.44156 0.14832 0.0
C1039 C 0.21185 0.44117 0.19348 0.0
C1040 C 0.20692 0.44235 0.09308 0.0
C1041 C 0.22999 0.44182 0.18285 0.0
C1042 C 0.23643 0.44233 0.12786 0.0
C1043 C 0.23094 0.44237 0.02712 0.0
C1044 C 0.21919 0.44226 0.98192 0.0
C1045 C 0.22493 0.44245 0.0826 0.0
C1046 C 0.20166 0.44284 0.99319 0.0
C1047 C 0.19556 0.44282 0.04813 0.0
H1048 H 0.56052 0.80594 0.02137 0.0
H1049 H 0.55347 0.74964 0.96549 0.0
H1050 H 0.55395 0.7399 0.06174 0.0
H1051 H 0.55879 0.74824 0.16154 0.0
H1052 H 0.56471 0.80391 0.21788 0.0
H1053 H 0.56241 0.81302 0.12177 0.0
C1054 C 0.55885 0.79145 0.03019 0.0
C1055 C 0.55725 0.77873 0.98608 0.0
C1056 C 0.55923 0.7859 0.08574 0.0
C1057 C 0.55488 0.75987 -0.00153 0.0
C1058 C 0.55524 0.75427 0.05358 0.0
C1059 C 0.55957 0.76235 0.15264 0.0
C1060 C 0.56226 0.77552 0.19639 0.0
C1061 C 0.55789 0.76735 0.09742 0.0
C1062 C 0.56284 0.79359 0.18471 0.0
C1063 C 0.56148 0.79881 0.12979 0.0
H1064 H 0.25837 0.81721 0.15549 0.0
H1065 H 0.20813 0.76093 0.20556 0.0
H1066 H 0.19942 0.7516 0.10773 0.0
H1067 H 0.20488 0.7604 0.00842 0.0
H1068 H 0.25553 0.81659 0.95864 0.0
H1069 H 0.26544 0.82479 0.05599 0.0
C1070 C 0.24558 0.80287 0.1449 0.0
C1071 C 0.23374 0.78991 0.18741 0.0
C1072 C 0.24074 0.79756 0.08872 0.0
C1073 C 0.21738 0.77124 0.17339 0.0
C1074 C 0.21239 0.76589 0.11752 0.0
C1075 C 0.21818 0.77437 0.01878 0.0
C1076 C 0.22927 0.78793 0.97631 0.0
C1077 C 0.22378 0.77908 0.07488 0.0
C1078 C 0.24663 0.80586 0.99045 0.0
C1079 C 0.2523 0.81064 0.04617 0.0
H1080 H 0.16218 0.1869 0.27485 0.0
H1081 H 0.21127 0.24456 0.22968 0.0
H1082 H 0.23096 0.22913 0.20211 0.0
H1083 H 0.23416 0.1989 0.19099 0.0
H1084 H 0.18405 0.14146 0.23318 0.0
H1085 H 0.16501 0.15714 0.2624 0.0
C1086 C 0.17717 0.19613 0.25881 0.0
C1087 C 0.18522 0.21685 0.25437 0.0
C1088 C 0.18832 0.18717 0.24294 0.0
C1089 C 0.20466 0.22855 0.23331 0.0
C1090 C 0.21597 0.21974 0.2178 0.0
C1091 C 0.21914 0.18992 0.20708 0.0
C1092 C 0.21056 0.16906 0.21018 0.0
C1093 C 0.20799 0.19904 0.22266 0.0
C1094 C 0.19099 0.15753 0.2303 0.0
C1095 C 0.18005 0.16648 0.24696 0.0
H1096 H 0.77727 0.97357 0.27016 0.0
H1097 H 0.82816 0.96564 0.24953 0.0
H1098 H 0.84932 1.00114 0.22979 0.0
H1099 H 0.85366 0.03465 0.22036 0.0
H1100 H 0.80336 0.04328 0.2455 0.0
H1101 H 0.78183 0.00754 0.26227 0.0
C1102 C 0.79293 0.97962 0.26056 0.0
C1103 C 0.80109 0.96694 0.26066 0.0
C1104 C 0.80521 1.00027 0.25093 0.0
C1105 C 0.8215 0.97505 0.2494 0.0
C1106 C 0.83364 0.99538 0.23835 0.0
C1107 C 0.83801 0.02875 0.22981 0.0
C1108 C 0.83019 0.0417 0.23176 0.0
C1109 C 0.82572 0.00818 0.23955 0.0
C1110 C 0.80985 0.03373 0.24406 0.0
C1111 C 0.79747 0.01324 0.25334 0.0
H1112 H 0.97971 0.77412 0.20474 0.0
H1113 H 0.97234 0.82526 0.22986 0.0
H1114 H 0.0071 0.8453 0.25763 0.0
H1115 H 0.03964 0.84868 0.27397 0.0
H1116 H 0.04844 0.79858 0.24643 0.0
H1117 H 0.01328 0.77788 0.21978 0.0
C1118 C 0.98575 0.7896 0.21672 0.0
C1119 C 0.97343 0.79817 0.21541 0.0
C1120 C 0.00606 0.8013 0.23165 0.0
C1121 C 0.9815 0.81832 0.23034 0.0
C1122 C 1.0014 0.82982 0.24621 0.0
C1123 C 0.03393 0.83324 0.26201 0.0
C1124 C 0.04667 0.8252 0.26226 0.0
C1125 C 0.01383 0.82153 0.2467 0.0
C1126 C 0.03898 0.80518 0.24636 0.0
C1127 C 0.01885 0.79331 0.23139 0.0
H1128 H 0.8027 0.76695 0.72307 0.0
H1129 H 0.8604 0.81777 0.75888 0.0
H1130 H 0.84486 0.83703 0.78776 0.0
H1131 H 0.81525 0.84022 0.79785 0.0
H1132 H 0.75729 0.79039 0.75838 0.0
H1133 H 0.77247 0.77005 0.73552 0.0
C1134 C 0.81176 0.78211 0.73817 0.0
C1135 C 0.83266 0.79091 0.7392 0.0
C1136 C 0.80271 0.79339 0.75317 0.0
C1137 C 0.84429 0.81069 0.75781 0.0
C1138 C 0.83542 0.82174 0.77412 0.0
C1139 C 0.80588 0.8249 0.78433 0.0
C1140 C 0.78517 0.8169 0.7796 0.0
C1141 C 0.8147 0.81339 0.77099 0.0
C1142 C 0.7733 0.79698 0.76209 0.0
C1143 C 0.78197 0.78531 0.74918 0.0
H1144 H 0.18774 0.02947 0.70354 0.0
H1145 H 0.24459 0.03486 0.74265 0.0
H1146 H 0.22793 0.99946 0.76765 0.0
H1147 H 0.19704 0.96687 0.77795 0.0
H1148 H 0.14029 0.96239 0.74366 0.0
H1149 H 0.15707 0.99748 0.71643 0.0
C1150 C 0.1965 0.02293 0.71769 0.0
C1151 C 0.21737 0.03475 0.72112 0.0
C1152 C 0.18684 0.00268 0.7323 0.0
C1153 C 0.22849 0.02609 0.7399 0.0
C1154 C 0.21899 0.00583 0.75388 0.0
C1155 C 0.18842 0.97357 0.76393 0.0
C1156 C 0.16749 0.96206 0.76217 0.0
C1157 C 0.19816 0.99395 0.74993 0.0
C1158 C 0.15642 0.97097 0.7451 0.0
C1159 C 0.166 0.99103 0.7297 0.0
H1160 H 0.97512 0.20066 0.72925 0.0
H1161 H 0.97009 0.14314 0.75417 0.0
H1162 H 0.00528 0.15911 0.77867 0.0
H1163 H 0.03765 0.18905 0.79029 0.0
H1164 H 0.04411 0.24701 0.76273 0.0
H1165 H 0.00837 0.23131 0.74148 0.0
C1166 C 0.98173 0.1917 0.74075 0.0
C1167 C 0.96994 0.17071 0.74015 0.0
C1168 C 1.00229 0.20105 0.75361 0.0
C1169 C 0.97879 0.15928 0.75427 0.0
C1170 C 0.99895 0.16841 0.76817 0.0
C1171 C 0.03132 0.19833 0.77962 0.0
C1172 C 0.04362 0.21921 0.77806 0.0
C1173 C 0.01088 0.18923 0.76736 0.0
C1174 C 0.03505 0.23091 0.76402 0.0
C1175 C 0.01457 0.22192 0.75207 0.0
H1176 H 0.86689 0.57222 0.60262 0.0
H1177 H 0.80916 0.52255 0.56045 0.0
H1178 H 0.82434 0.50271 0.534 0.0
H1179 H 0.85359 0.49866 0.52789 0.0
H1180 H 0.91145 0.54738 0.57384 0.0
H1181 H 0.89673 0.56828 0.59425 0.0
C1182 C 0.85776 0.55719 0.58661 0.0
C1183 C 0.83695 0.54889 0.58305 0.0
C1184 C 0.86657 0.54556 0.57311 0.0
C1185 C 0.8252 0.52926 0.56338 0.0
C1186 C 0.83386 0.51787 0.5485 0.0
C1187 C 0.86303 0.51386 0.54234 0.0
C1188 C 0.88359 0.52138 0.54958 0.0
C1189 C 0.85446 0.52572 0.5542 0.0
C1190 C 0.89556 0.54114 0.5682 0.0
C1191 C 0.88715 0.55314 0.57969 0.0
H1192 H 0.43892 0.30355 0.6275 0.0
H1193 H 0.49157 0.29914 0.59882 0.0
H1194 H 0.5103 0.33433 0.57368 0.0
H1195 H 0.51187 0.36628 0.55942 0.0
H1196 H 0.46008 0.37185 0.59144 0.0
H1197 H 0.44096 0.33643 0.61651 0.0
C1198 C 0.45446 0.31032 0.6154 0.0
C1199 C 0.46381 0.29872 0.61459 0.0
C1200 C 0.46534 0.3308 0.60215 0.0
C1201 C 0.48403 0.30773 0.59971 0.0
C1202 C 0.49477 0.32787 0.58539 0.0
C1203 C 0.49641 0.3598 0.57213 0.0
C1204 C 0.4874 0.37168 0.57339 0.0
C1205 C 0.48561 0.33954 0.58657 0.0
C1206 C 0.4674 0.36305 0.59035 0.0
C1207 C 0.45644 0.34277 0.60436 0.0
H1208 H 0.63538 0.09797 0.55271 0.0
H1209 H 0.63039 0.15037 0.57967 0.0
H1210 H 0.66531 0.1692 0.6082 0.0
H1211 H 0.69749 0.17121 0.62221 0.0
H1212 H 0.70369 0.11976 0.59008 0.0
H1213 H 0.6682 0.10017 0.56624 0.0
C1214 C 0.64193 0.11342 0.56561 0.0
C1215 C 0.63033 0.12276 0.56463 0.0
C1216 C 0.66228 0.12438 0.58025 0.0
C1217 C 0.63904 0.14289 0.58028 0.0
C1218 C 0.65901 0.15367 0.59641 0.0
C1219 C 0.69111 0.1557 0.61003 0.0
C1220 C 0.70323 0.14696 0.60795 0.0
C1221 C 0.67082 0.14465 0.59589 0.0
C1222 C 0.69471 0.12688 0.59177 0.0
C1223 C 0.67439 0.11565 0.57838 0.0
H1224 H 0.47593 0.17112 0.11435 0.0
H1225 H 0.41747 0.12381 0.06731 0.0
H1226 H 0.43176 0.10308 0.03871 0.0
H1227 H 0.4614 0.09861 0.02706 0.0
H1228 H 0.51948 0.14723 0.07217 0.0
H1229 H 0.50478 0.16704 0.10226 0.0
C1230 C 0.46623 0.15628 0.09775 0.0
C1231 C 0.44564 0.14905 0.09302 0.0
C1232 C 0.47452 0.14458 0.08146 0.0
C1233 C 0.43339 0.1298 0.07118 0.0
C1234 C 0.44156 0.11791 0.05508 0.0
C1235 C 0.47072 0.11346 0.044 0.0
C1236 C 0.49151 0.12141 0.04754 0.0
C1237 C 0.46215 0.12512 0.06022 0.0
C1238 C 0.50347 0.14078 0.06883 0.0
C1239 C 0.49509 0.15216 0.08601 0.0
H1240 H 0.85631 0.36936 0.05699 0.0
H1241 H 0.91551 0.37959 0.08889 0.0
H1242 H 0.90183 0.34419 0.10975 0.0
H1243 H 0.87284 0.31001 0.11832 0.0
H1244 H 0.81372 0.30059 0.09083 0.0
H1245 H 0.82755 0.33579 0.06814 0.0
C1246 C 0.86623 0.36389 0.06884 0.0
C1247 C 0.8869 0.37714 0.07138 0.0
C1248 C 0.85827 0.34354 0.08096 0.0
C1249 C 0.89952 0.36976 0.08691 0.0
C1250 C 0.89172 0.34947 0.09852 0.0
C1251 C 0.86306 0.31569 0.10678 0.0
C1252 C 0.84231 0.30271 0.10572 0.0
C1253 C 0.87111 0.33616 0.09531 0.0
C1254 C 0.82975 0.31029 0.09178 0.0
C1255 C 0.83764 0.33043 0.07895 0.0
H1256 H 0.6953 0.52686 0.12591 0.0
H1257 H 0.70236 0.58457 0.08946 0.0
H1258 H 0.66712 0.56873 0.06236 0.0
H1259 H 0.63422 0.538 0.04712 0.0
H1260 H 0.62869 0.4807 0.0807 0.0
H1261 H 0.66326 0.49685 0.11131 0.0
C1262 C 0.68918 0.53605 0.11216 0.0
C1263 C 0.70148 0.55688 0.10975 0.0
C1264 C 0.66907 0.52686 0.09626 0.0
C1265 C 0.69324 0.56848 0.09159 0.0
C1266 C 0.67307 0.55942 0.0762 0.0
C1267 C 0.6406 0.52914 0.06165 0.0
C1268 C 0.62889 0.50818 0.06165 0.0
C1269 C 0.66081 0.53857 0.07821 0.0
C1270 C 0.63739 0.49685 0.08 0.0
C1271 C 0.65718 0.50606 0.09753 0.0
H1272 H 0.53183 0.90146 0.94681 0.0
H1273 H 0.47475 0.85366 0.89199 0.0
H1274 H 0.4898 0.83357 0.86678 0.0
H1275 H 0.51863 0.82875 0.86467 0.0
H1276 H 0.57576 0.87551 0.92306 0.0
H1277 H 0.56129 0.89667 0.94322 0.0
C1278 C 0.52285 0.88681 0.92828 0.0
C1279 C 0.50225 0.87912 0.92059 0.0
C1280 C 0.53153 0.87499 0.91559 0.0
C1281 C 0.49065 0.85993 0.89789 0.0
C1282 C 0.49922 0.84838 0.88381 0.0
C1283 C 0.52796 0.84356 0.88193 0.0
C1284 C 0.54825 0.85045 0.8926 0.0
C1285 C 0.51955 0.85559 0.8934 0.0
C1286 C 0.56007 0.86974 0.91477 0.0
C1287 C 0.55181 0.8819 0.92605 0.0
H1288 H 0.10923 0.63857 0.93242 0.0
H1289 H 0.16062 0.63214 0.90258 0.0
H1290 H 0.18046 0.66752 0.87907 0.0
H1291 H 0.18349 0.70045 0.86979 0.0
H1292 H 0.13277 0.70755 0.90513 0.0
H1293 H 0.11247 0.67186 0.92455 0.0
C1294 C 0.12469 0.64491 0.91994 0.0
C1295 C 0.13344 0.6328 0.91852 0.0
C1296 C 0.1362 0.66543 0.90841 0.0
C1297 C 0.15358 0.64121 0.90361 0.0
C1298 C 0.16494 0.66144 0.89044 0.0
C1299 C 0.16801 0.69421 0.88192 0.0
C1300 C 0.15967 0.70665 0.88606 0.0
C1301 C 0.15648 0.67373 0.89335 0.0
C1302 C 0.1396 0.69833 0.90197 0.0
C1303 C 0.12794 0.67789 0.91276 0.0
H1304 H 0.30982 0.43486 0.88779 0.0
H1305 H 0.29697 0.47993 0.94619 0.0
H1306 H 0.33155 0.50096 0.97527 0.0
H1307 H 0.36583 0.50776 0.97802 0.0
H1308 H 0.37995 0.46384 0.91706 0.0
H1309 H 0.3447 0.44128 0.89469 0.0
C1310 C 0.31458 0.44908 0.90808 0.0
C1311 C 0.30085 0.45579 0.91537 0.0
C1312 C 0.33481 0.46149 0.92318 0.0
C1313 C 0.30726 0.47444 0.94048 0.0
C1314 C 0.32706 0.48653 0.95679 0.0
C1315 C 0.36126 0.49325 0.95989 0.0
C1316 C 0.3756 0.48761 0.94881 0.0
C1317 C 0.34105 0.48043 0.94716 0.0
C1318 C 0.36927 0.46864 0.92573 0.0
C1319 C 0.34908 0.4557 0.91306 0.0
H1320 H 0.1498 0.51127 0.44647 0.0
H1321 H 0.09159 0.45931 0.4263 0.0
H1322 H 0.10697 0.4394 0.40057 0.0
H1323 H 0.13729 0.43696 0.38314 0.0
H1324 H 0.19512 0.48978 0.40024 0.0
H1325 H 0.17957 0.50906 0.4283 0.0
C1326 C 0.14043 0.49558 0.43649 0.0
C1327 C 0.11958 0.48678 0.43841 0.0
C1328 C 0.14934 0.48434 0.42139 0.0
C1329 C 0.10769 0.46646 0.42501 0.0
C1330 C 0.11648 0.45506 0.41046 0.0
C1331 C 0.14643 0.45265 0.3934 0.0
C1332 C 0.16732 0.46192 0.38972 0.0
C1333 C 0.13733 0.46384 0.40853 0.0
C1334 C 0.179 0.48231 0.40254 0.0
C1335 C 0.17013 0.49337 0.4186 0.0
H1336 H 0.4929 0.64676 0.44825 0.0
H1337 H 0.54212 0.63821 0.4044 0.0
H1338 H 0.5627 0.67385 0.38374 0.0
H1339 H 0.56673 0.7077 0.37842 0.0
H1340 H 0.5167 0.71537 0.41856 0.0
H1341 H 0.49659 0.67999 0.44116 0.0
C1342 C 0.5081 0.65263 0.4339 0.0
C1343 C 0.51591 0.63976 0.42786 0.0
C1344 C 0.51981 0.67311 0.42205 0.0
C1345 C 0.53565 0.64771 0.40912 0.0
C1346 C 0.54748 0.66814 0.39762 0.0
C1347 C 0.5515 0.70163 0.39276 0.0
C1348 C 0.54328 0.71421 0.39736 0.0
C1349 C 0.53977 0.68104 0.40425 0.0
C1350 C 0.5234 0.70605 0.41489 0.0
C1351 C 0.51186 0.68579 0.42764 0.0
H1352 H 0.35683 0.8513 0.46491 0.0
H1353 H 0.36375 0.90872 0.42489 0.0
H1354 H 0.32842 0.89272 0.39904 0.0
H1355 H 0.29565 0.86199 0.38486 0.0
H1356 H 0.28999 0.80485 0.42143 0.0
H1357 H 0.32461 0.82116 0.45232 0.0
C1358 C 0.35065 0.86038 0.45065 0.0
C1359 C 0.36294 0.88118 0.44673 0.0
C1360 C 0.33046 0.85109 0.43551 0.0
C1361 C 0.35464 0.89266 0.42809 0.0
C1362 C 0.33442 0.88352 0.41344 0.0
C1363 C 0.30198 0.8532 0.40035 0.0
C1364 C 0.29028 0.83225 0.40107 0.0
C1365 C 0.32218 0.8627 0.41673 0.0
C1366 C 0.29871 0.82099 0.42041 0.0
C1367 C 0.31852 0.83029 0.43796 0.0
H1368 H 0.3004 0.16712 0.19712 0.0
H1369 H 0.29532 0.13056 0.05475 0.0
H1370 H 0.33091 0.14205 0.05945 0.0
H1371 H 0.36336 0.16138 0.10649 0.0
H1372 H 0.36839 0.19772 0.2495 0.0
H1373 H 0.33311 0.18726 0.24244 0.0
C1374 C 0.30718 0.162 0.16648 0.0
C1375 C 0.29521 0.14806 0.12557 0.0
C1376 C 0.32765 0.16832 0.17017 0.0
C1377 C 0.30419 0.1413 0.08672 0.0
C1378 C 0.32454 0.14777 0.08954 0.0
C1379 C 0.3567 0.16687 0.13638 0.0
C1380 C 0.36855 0.18021 0.17864 0.0
C1381 C 0.33636 0.16098 0.13175 0.0
C1382 C 0.35968 0.18741 0.21651 0.0
C1383 C 0.33947 0.1815 0.21245 0.0
H1384 H 0.80585 0.17054 0.18981 0.0
H1385 H 0.85848 0.22476 0.13827 0.0
H1386 H 0.87635 0.20637 0.12684 0.0
H1387 H 0.877 0.17493 0.13189 0.0
H1388 H 0.82411 0.12093 0.18351 0.0
H1389 H 0.80634 0.13932 0.19385 0.0
C1390 C 0.82128 0.17848 0.17628 0.0
C1391 C 0.83079 0.19912 0.16519 0.0
C1392 C 0.83138 0.16781 0.16939 0.0
C1393 C 0.85076 0.20895 0.14734 0.0
C1394 C 0.86097 0.19841 0.14064 0.0
C1395 C 0.86153 0.1671 0.14504 0.0
C1396 C 0.85194 0.14648 0.15685 0.0
C1397 C 0.85141 0.17782 0.15143 0.0
C1398 C 0.83192 0.13672 0.1741 0.0
C1399 C 0.82174 0.14726 0.18019 0.0
H1400 H 0.83814 0.63946 0.18417 0.0
H1401 H 0.78585 0.64301 0.14083 0.0
H1402 H 0.80647 0.67902 0.12921 0.0
H1403 H 0.83904 0.70932 0.13123 0.0
H1404 H 0.8915 0.70625 0.17536 0.0
H1405 H 0.87099 0.67005 0.18613 0.0
C1406 C 0.83117 0.64806 0.17241 0.0
C1407 C 0.81036 0.6384 0.16355 0.0
C1408 C 0.84315 0.66881 0.16549 0.0
C1409 C 0.80174 0.64993 0.1481 0.0
C1410 C 0.81355 0.67056 0.14127 0.0
C1411 C 0.84613 0.70083 0.14292 0.0
C1412 C 0.86691 0.71064 0.15231 0.0
C1413 C 0.83425 0.68012 0.14968 0.0
C1414 C 0.87563 0.69919 0.16768 0.0
C1415 C 0.86387 0.67848 0.17404 0.0
H1416 H 0.20885 0.3709 0.29494 0.0
H1417 H 0.15603 0.37118 0.3516 0.0
H1418 H 0.13883 0.33493 0.36218 0.0
H1419 H 0.1391 0.30335 0.35763 0.0
H1420 H 0.19213 0.30342 0.30133 0.0
H1421 H 0.20896 0.33948 0.28887 0.0
C1422 C 0.19352 0.36311 0.30932 0.0
C1423 C 0.1838 0.37388 0.32251 0.0
C1424 C 0.1838 0.34234 0.3159 0.0
C1425 C 0.16392 0.36336 0.34103 0.0
C1426 C 0.15409 0.34262 0.34733 0.0
C1427 C 0.15437 0.31122 0.34285 0.0
C1428 C 0.16434 0.30059 0.33075 0.0
C1429 C 0.16396 0.33199 0.33542 0.0
C1430 C 0.18408 0.31112 0.31114 0.0
C1431 C 0.19372 0.33178 0.30388 0.0
H1432 H 0.63891 0.84381 0.28689 0.0
H1433 H 0.63429 0.78908 0.34727 0.0
H1434 H 0.67041 0.80609 0.35969 0.0
H1435 H 0.70307 0.83655 0.35585 0.0
H1436 H 0.70773 0.89134 0.296 0.0
H1437 H 0.67166 0.87415 0.2815 0.0
C1438 C 0.64574 0.83547 0.30236 0.0
C1439 C 0.63374 0.81509 0.31608 0.0
C1440 C 0.6665 0.8454 0.3101 0.0
C1441 C 0.64303 0.8047 0.33624 0.0
C1442 C 0.66371 0.81446 0.3436 0.0
C1443 C 0.69627 0.84485 0.33984 0.0
C1444 C 0.70822 0.86534 0.32739 0.0
C1445 C 0.67555 0.83484 0.33123 0.0
C1446 C 0.699 0.87564 0.30621 0.0
C1447 C 0.67835 0.86579 0.29774 0.0
H1448 H 0.20491 0.83465 0.36294 0.0
H1449 H 0.16819 0.79514 0.23115 0.0
H1450 H 0.14608 0.80898 0.23679 0.0
H1451 H 0.1365 0.83165 0.28073 0.0
H1452 H 0.17321 0.87123 0.41238 0.0
H1453 H 0.19573 0.85787 0.40551 0.0
C1454 C 0.19225 0.82927 0.33488 0.0
C1455 C 0.18829 0.81387 0.29669 0.0
C1456 C 0.17934 0.83709 0.33885 0.0
C1457 C 0.17163 0.80695 0.26109 0.0
C1458 C 0.15889 0.8148 0.2644 0.0
C1459 C 0.14932 0.83723 0.30828 0.0
C1460 C 0.15303 0.85234 0.34722 0.0
C1461 C 0.16242 0.82967 0.30366 0.0
C1462 C 0.16992 0.85958 0.38202 0.0
C1463 C 0.18289 0.852 0.37803 0.0
H1464 H 0.7013 0.86867 0.86145 0.0
H1465 H 0.69921 0.81408 0.81077 0.0
H1466 H 0.66301 0.79774 0.80184 0.0
H1467 H 0.63208 0.79908 0.80665 0.0
H1468 H 0.63415 0.85365 0.8574 0.0
H1469 H 0.67031 0.86986 0.86766 0.0
C1470 C 0.69298 0.85316 0.84871 0.0
C1471 C 0.70311 0.84267 0.83678 0.0
C1472 C 0.67216 0.84387 0.84324 0.0
C1473 C 0.69193 0.82257 0.82031 0.0
C1474 C 0.67119 0.81321 0.815 0.0
C1475 C 0.64038 0.81455 0.81977 0.0
C1476 C 0.63029 0.82512 0.83094 0.0
C1477 C 0.66118 0.82376 0.82594 0.0
C1478 C 0.64142 0.84512 0.84835 0.0
C1479 C 0.66213 0.85441 0.85433 0.0
H1480 H 0.20266 0.83989 0.8033 0.0
H1481 H 0.15116 0.78449 0.85375 0.0
H1482 H 0.13259 0.80179 0.8699 0.0
H1483 H 0.13076 0.83239 0.86886 0.0
H1484 H 0.18202 0.88783 0.81764 0.0
H1485 H 0.20093 0.8707 0.80336 0.0
C1486 C 0.18734 0.83153 0.81758 0.0
C1487 C 0.17835 0.81085 0.82703 0.0
C1488 C 0.17673 0.84159 0.82713 0.0
C1489 C 0.15851 0.80038 0.84595 0.0
C1490 C 0.14786 0.81027 0.85537 0.0
C1491 C 0.14612 0.84084 0.85504 0.0
C1492 C 0.15491 0.86143 0.84444 0.0
C1493 C 0.15683 0.83087 0.84617 0.0
C1494 C 0.17483 0.872 0.82622 0.0
C1495 C 0.18565 0.86219 0.81782 0.0
H1496 H 0.20841 0.36646 0.88215 0.0
H1497 H 0.17967 0.37411 0.73724 0.0
H1498 H 0.15457 0.3389 0.73879 0.0
H1499 H 0.14042 0.3056 0.78103 0.0
H1500 H 0.16938 0.29751 0.92444 0.0
H1501 H 0.19431 0.33296 0.92417 0.0
C1502 C 0.19682 0.36036 0.85052 0.0
C1503 C 0.19605 0.37303 0.80968 0.0
C1504 C 0.18215 0.33995 0.85182 0.0
C1505 C 0.1807 0.36481 0.76938 0.0
C1506 C 0.16621 0.34462 0.77026 0.0
C1507 C 0.152 0.31167 0.81273 0.0
C1508 C 0.15291 0.29892 0.85289 0.0
C1509 C 0.16664 0.33205 0.81156 0.0
C1510 C 0.16828 0.307 0.89306 0.0
C1511 C 0.18264 0.32728 0.8928 0.0
H1512 H 0.83594 0.70282 0.71314 0.0
H1513 H 0.86788 0.70653 0.5616 0.0
H1514 H 0.85579 0.67081 0.56549 0.0
H1515 H 0.83616 0.63831 0.61195 0.0
H1516 H 0.80425 0.63461 0.76354 0.0
H1517 H 0.81654 0.67037 0.76004 0.0
C1518 C 0.84003 0.69576 0.6806 0.0
C1519 C 0.85271 0.70736 0.63704 0.0
C1520 C 0.83329 0.67519 0.68353 0.0
C1521 C 0.85812 0.69798 0.59566 0.0
C1522 C 0.85129 0.67754 0.59793 0.0
C1523 C 0.83216 0.64539 0.64465 0.0
C1524 C 0.81937 0.63377 0.688 0.0
C1525 C 0.83901 0.66599 0.64193 0.0
C1526 C 0.81408 0.64318 0.72961 0.0
C1527 C 0.82102 0.66364 0.72755 0.0
H1528 H 0.30619 0.16818 0.63318 0.0
H1529 H 0.30555 0.11464 0.68713 0.0
H1530 H 0.34138 0.13382 0.7044 0.0
H1531 H 0.37285 0.16545 0.70239 0.0
H1532 H 0.37374 0.21905 0.64786 0.0
H1533 H 0.33769 0.2001 0.63345 0.0
C1534 C 0.31384 0.16063 0.64852 0.0
C1535 C 0.3031 0.13989 0.65843 0.0
C1536 C 0.33446 0.17177 0.65869 0.0
C1537 C 0.31336 0.13051 0.67888 0.0
C1538 C 0.33387 0.14149 0.68891 0.0
C1539 C 0.36523 0.17311 0.68774 0.0
C1540 C 0.37613 0.19372 0.67613 0.0
C1541 C 0.34456 0.1621 0.67883 0.0
C1542 C 0.36583 0.20326 0.65722 0.0
C1543 C 0.34519 0.1924 0.6487 0.0
H1544 H 0.83793 0.12773 0.63135 0.0
H1545 H 0.89003 0.18091 0.69138 0.0
H1546 H 0.87038 0.19753 0.7006 0.0
H1547 H 0.83834 0.19677 0.69291 0.0
H1548 H 0.78632 0.1433 0.6338 0.0
H1549 H 0.80612 0.12697 0.62343 0.0
C1550 C 0.84513 0.14301 0.64618 0.0
C1551 C 0.86555 0.15303 0.66051 0.0
C1552 C 0.83371 0.15239 0.65197 0.0
C1553 C 0.87441 0.1728 0.6799 0.0
C1554 C 0.86315 0.18231 0.68535 0.0
C1555 C 0.83125 0.18152 0.67787 0.0
C1556 C 0.81076 0.17131 0.66427 0.0
C1557 C 0.84276 0.17219 0.67182 0.0
C1558 C 0.80198 0.15156 0.64473 0.0
C1559 C 0.81332 0.1422 0.63864 0.0
H1560 H 0.03642 0.53899 0.52037 0.0
H1561 H 0.03387 0.48327 0.48113 0.0
H1562 H 0.99762 0.46681 0.47393 0.0
H1563 H 0.96677 0.46824 0.47787 0.0
H1564 H 0.96928 0.52394 0.51704 0.0
H1565 H 0.00552 0.54038 0.52472 0.0
C1566 C 0.02799 0.52321 0.51051 0.0
C1567 C 0.03798 0.51242 0.50138 0.0
C1568 C 0.00714 0.51384 0.50602 0.0
C1569 C 0.02668 0.49199 0.48844 0.0
C1570 C 0.00592 0.48255 0.48417 0.0
C1571 C 0.97518 0.48401 0.48787 0.0
C1572 C 0.96519 0.49481 0.49669 0.0
C1573 C 0.99602 0.49336 0.49258 0.0
C1574 C 0.97648 0.51522 0.5099 0.0
C1575 C 0.99723 0.52464 0.51444 0.0
H1576 H 0.4684 0.5071 0.53739 0.0
H1577 H 0.52047 0.55698 0.46437 0.0
H1578 H 0.53565 0.53615 0.45195 0.0
H1579 H 0.53407 0.50385 0.46106 0.0
H1580 H 0.48196 0.45399 0.53395 0.0
H1581 H 0.46684 0.47485 0.54665 0.0
C1582 C 0.48313 0.51354 0.51898 0.0
C1583 C 0.49326 0.53369 0.50197 0.0
C1584 C 0.49172 0.50144 0.51153 0.0
C1585 C 0.5123 0.54159 0.47799 0.0
C1586 C 0.52098 0.52966 0.47072 0.0
C1587 C 0.51935 0.49744 0.47954 0.0
C1588 C 0.50918 0.47726 0.49638 0.0
C1589 C 0.51079 0.50955 0.48708 0.0
C1590 C 0.49016 0.46939 0.52046 0.0
C1591 C 0.48151 0.48134 0.52788 0.0
H1592 H 0.49852 0.03455 0.461 0.0
H1593 H 0.55115 0.03299 0.51268 0.0
H1594 H 0.53107 0.99698 0.52706 0.0
H1595 H 0.49868 0.96605 0.52479 0.0
H1596 H 0.44608 0.96781 0.47368 0.0
H1597 H 0.46616 0.00379 0.45988 0.0
C1598 C 0.50571 0.02638 0.47509 0.0
C1599 C 0.52642 0.03655 0.4854 0.0
C1600 C 0.49405 0.00574 0.48384 0.0
C1601 C 0.5353 0.02562 0.50423 0.0
C1602 C 0.5238 0.00502 0.5126 0.0
C1603 C 0.49151 0.97426 0.51092 0.0
C1604 C 0.47081 0.96411 0.50032 0.0
C1605 C 0.50317 0.99495 0.50267 0.0
C1606 C 0.46192 0.97513 0.4823 0.0
C1607 C 0.47342 0.99572 0.47418 0.0
H1608 H 0.49597 0.03161 0.04155 0.0
H1609 H 0.5286 0.03613 0.89098 0.0
H1610 H 0.51718 1.00048 0.89479 0.0
H1611 H 0.49844 0.96794 0.9422 0.0
H1612 H 0.46638 0.96373 0.09391 0.0
H1613 H 0.47731 0.99917 0.08892 0.0
C1614 C 0.50025 0.02469 0.00905 0.0
C1615 C 0.51293 0.03647 0.96577 0.0
C1616 C 0.49407 0.00424 0.01233 0.0
C1617 C 0.51873 0.02736 0.92462 0.0
C1618 C 0.51233 0.00699 0.92697 0.0
C1619 C 0.4941 0.97485 0.97456 0.0
C1620 C 0.48168 0.96315 0.01844 0.0
C1621 C 0.50022 0.9953 0.97109 0.0
C1622 C 0.47595 0.97234 0.05959 0.0
C1623 C 0.4821 0.99262 0.05668 0.0
H1624 H 0.9735 0.50857 0.96138 0.0
H1625 H 0.97117 0.45505 0.02341 0.0
H1626 H 0.00724 0.47308 0.03514 0.0
H1627 H 0.03928 0.50382 0.02873 0.0
H1628 H 0.04211 0.55749 0.9663 0.0
H1629 H 0.00591 0.53954 0.95428 0.0
C1630 C 0.98085 0.50078 0.97717 0.0
C1631 C 0.96952 0.48042 0.99146 0.0
C1632 C 1.00167 0.51127 0.98421 0.0
C1633 C 0.97941 0.47068 0.01208 0.0
C1634 C 1.00007 0.48099 0.01895 0.0
C1635 C 0.03206 0.51172 0.01277 0.0
C1636 C 0.0435 0.53207 -0.00131 0.0
C1637 C 0.01131 0.50129 0.00547 0.0
C1638 C 0.03374 0.54188 0.97765 0.0
C1639 C 0.01302 0.5316 0.97062 0.0
H1640 H 0.54008 0.50866 0.03372 0.0
H1641 H 0.50176 0.46329 0.91576 0.0
H1642 H 0.47863 0.47591 0.91717 0.0
H1643 H 0.46863 0.49927 0.95338 0.0
H1644 H 0.50692 0.54493 0.07055 0.0
H1645 H 0.53043 0.53267 0.06823 0.0
C1646 C 0.52682 0.50172 0.00775 0.0
C1647 C 0.52273 0.48501 0.97482 0.0
C1648 C 0.51334 0.50892 0.00913 0.0
C1649 C 0.50532 0.47611 0.9418 0.0
C1650 C 0.49199 0.48327 0.94264 0.0
C1651 C 0.48202 0.50644 0.97878 0.0
C1652 C 0.48588 0.52293 0.0123 0.0
C1653 C 0.49568 0.4995 0.9767 0.0
C1654 C 0.50351 0.53219 0.04433 0.0
C1655 C 0.51703 0.52523 0.04295 0.0
loop_
_geom_bond_atom_site_label_1
_geom_bond_atom_site_label_2
_geom_bond_distance
_geom_bond_site_symmetry_2
_ccdc_geom_bond_type
Co0 O1 2.216 . S
Co0 O2 2.091 . S
Co0 O4 2.004 . S
Co0 O10 2.021 . S
Co0 O12 2.137 . S
Co0 O13 2.244 . S
O1 Co0 2.216 . S
O1 C8 1.247 . S
O2 Co0 2.091 . S
O2 C8 1.261 . S
C3 O12 1.247 . S
C3 O13 1.272 . S
O4 Co0 2.004 . S
O4 C9 1.259 . S
Co5 O6 2.061 . S
Co5 O11 2.052 . S
Co5 O13 2.135 . S
O6 Co5 2.061 . S
O6 C9 1.235 . S
C7 O10 1.238 . S
C7 O11 1.241 . S
C8 O1 1.247 . S
C8 O2 1.261 . S
C9 O4 1.259 . S
C9 O6 1.235 . S
O10 Co0 2.021 . S
O10 C7 1.238 . S
O11 Co5 2.052 . S
O11 C7 1.241 . S
O12 Co0 2.137 . S
O12 C3 1.247 . S
O13 Co0 2.244 . S
O13 C3 1.272 . S
O13 Co5 2.135 . S
Co14 O15 2.216 . S
Co14 O16 2.091 . S
Co14 O18 2.004 . S
Co14 O24 2.021 . S
Co14 O26 2.137 . S
Co14 O27 2.244 . S
O15 Co14 2.216 . S
O15 C22 1.247 . S
O16 Co14 2.091 . S
O16 C22 1.261 . S
C17 O26 1.247 . S
C17 O27 1.272 . S
O18 Co14 2.004 . S
O18 C23 1.259 . S
Co19 O20 2.061 . S
Co19 O25 2.052 . S
Co19 O27 2.135 . S
O20 Co19 2.061 . S
O20 C23 1.235 . S
C21 O24 1.238 . S
C21 O25 1.241 . S
C22 O15 1.247 . S
C22 O16 1.261 . S
C23 O18 1.259 . S
C23 O20 1.235 . S
O24 Co14 2.021 . S
O24 C21 1.238 . S
O25 Co19 2.052 . S
O25 C21 1.241 . S
O26 Co14 2.137 . S
O26 C17 1.247 . S
O27 Co14 2.244 . S
O27 C17 1.272 . S
O27 Co19 2.135 . S
Co28 O29 2.216 . S
Co28 O30 2.091 . S
Co28 O32 2.004 . S
Co28 O38 2.021 . S
Co28 O40 2.137 . S
Co28 O41 2.244 . S
O29 Co28 2.216 . S
O29 C36 1.247 . S
O30 Co28 2.091 . S
O30 C36 1.261 . S
C31 O40 1.247 . S
C31 O41 1.272 . S
O32 Co28 2.004 . S
O32 C37 1.259 . S
Co33 O34 2.061 . S
Co33 O39 2.052 . S
Co33 O41 2.135 . S
O34 Co33 2.061 . S
O34 C37 1.235 . S
C35 O38 1.238 . S
C35 O39 1.241 . S
C36 O29 1.247 . S
C36 O30 1.261 . S
C37 O32 1.259 . S
C37 O34 1.235 . S
O38 Co28 2.021 . S
O38 C35 1.238 . S
O39 Co33 2.052 . S
O39 C35 1.241 . S
O40 Co28 2.137 . S
O40 C31 1.247 . S
O41 Co28 2.244 . S
O41 C31 1.272 . S
O41 Co33 2.135 . S
Co42 O43 2.216 . S
Co42 O44 2.091 . S
Co42 O46 2.004 . S
Co42 O52 2.021 . S
Co42 O54 2.137 . S
Co42 O55 2.244 . S
O43 Co42 2.216 . S
O43 C50 1.247 . S
O44 Co42 2.091 . S
O44 C50 1.261 . S
C45 O54 1.247 . S
C45 O55 1.272 . S
O46 Co42 2.004 . S
O46 C51 1.259 . S
Co47 O48 2.061 . S
Co47 O53 2.052 . S
Co47 O55 2.135 . S
O48 Co47 2.061 . S
O48 C51 1.235 . S
C49 O52 1.238 . S
C49 O53 1.241 . S
C50 O43 1.247 . S
C50 O44 1.261 . S
C51 O46 1.259 . S
C51 O48 1.235 . S
O52 Co42 2.021 . S
O52 C49 1.238 . S
O53 Co47 2.052 . S
O53 C49 1.241 . S
O54 Co42 2.137 . S
O54 C45 1.247 . S
O55 Co42 2.244 . S
O55 C45 1.272 . S
O55 Co47 2.135 . S
Co56 O57 2.216 . S
Co56 O58 2.091 . S
Co56 O60 2.004 . S
Co56 O66 2.021 . S
Co56 O68 2.137 . S
Co56 O69 2.244 . S
O57 Co56 2.216 . S
O57 C64 1.247 . S
O58 Co56 2.091 . S
O58 C64 1.261 . S
C59 O68 1.247 . S
C59 O69 1.272 . S
O60 Co56 2.004 . S
O60 C65 1.259 . S
Co61 O62 2.061 . S
Co61 O67 2.052 . S
Co61 O69 2.135 . S
O62 Co61 2.061 . S
O62 C65 1.235 . S
C63 O66 1.238 . S
C63 O67 1.241 . S
C64 O57 1.247 . S
C64 O58 1.261 . S
C65 O60 1.259 . S
C65 O62 1.235 . S
O66 Co56 2.021 . S
O66 C63 1.238 . S
O67 Co61 2.052 . S
O67 C63 1.241 . S
O68 Co56 2.137 . S
O68 C59 1.247 . S
O69 Co56 2.244 . S
O69 C59 1.272 . S
O69 Co61 2.135 . S
Co70 O71 2.216 . S
Co70 O72 2.091 . S
Co70 O74 2.004 . S
Co70 O80 2.021 . S
Co70 O82 2.137 . S
Co70 O83 2.244 . S
O71 Co70 2.216 . S
O71 C78 1.247 . S
O72 Co70 2.091 . S
O72 C78 1.261 . S
C73 O82 1.247 . S
C73 O83 1.272 . S
O74 Co70 2.004 . S
O74 C79 1.259 . S
Co75 O76 2.061 . S
Co75 O81 2.052 . S
Co75 O83 2.135 . S
O76 Co75 2.061 . S
O76 C79 1.235 . S
C77 O80 1.238 . S
C77 O81 1.241 . S
C78 O71 1.247 . S
C78 O72 1.261 . S
C79 O74 1.259 . S
C79 O76 1.235 . S
O80 Co70 2.021 . S
O80 C77 1.238 . S
O81 Co75 2.052 . S
O81 C77 1.241 . S
O82 Co70 2.137 . S
O82 C73 1.247 . S
O83 Co70 2.244 . S
O83 C73 1.272 . S
O83 Co75 2.135 . S
Co84 O85 2.216 . S
Co84 O86 2.091 . S
Co84 O88 2.004 . S
Co84 O94 2.021 . S
Co84 O96 2.137 . S
Co84 O97 2.244 . S
O85 Co84 2.216 . S
O85 C92 1.247 . S
O86 Co84 2.091 . S
O86 C92 1.261 . S
C87 O96 1.247 . S
C87 O97 1.272 . S
O88 Co84 2.004 . S
O88 C93 1.259 . S
Co89 O90 2.061 . S
Co89 O95 2.052 . S
Co89 O97 2.135 . S
O90 Co89 2.061 . S
O90 C93 1.235 . S
C91 O94 1.238 . S
C91 O95 1.241 . S
C92 O85 1.247 . S
C92 O86 1.261 . S
C93 O88 1.259 . S
C93 O90 1.235 . S
O94 Co84 2.021 . S
O94 C91 1.238 . S
O95 Co89 2.052 . S
O95 C91 1.241 . S
O96 Co84 2.137 . S
O96 C87 1.247 . S
O97 Co84 2.244 . S
O97 C87 1.272 . S
O97 Co89 2.135 . S
Co98 O99 2.216 . S
Co98 O100 2.091 . S
Co98 O102 2.004 . S
Co98 O108 2.021 . S
Co98 O110 2.137 . S
Co98 O111 2.244 . S
O99 Co98 2.216 . S
O99 C106 1.247 . S
O100 Co98 2.091 . S
O100 C106 1.261 . S
C101 O110 1.247 . S
C101 O111 1.272 . S
O102 Co98 2.004 . S
O102 C107 1.259 . S
Co103 O104 2.061 . S
Co103 O109 2.052 . S
Co103 O111 2.135 . S
O104 Co103 2.061 . S
O104 C107 1.235 . S
C105 O108 1.238 . S
C105 O109 1.241 . S
C106 O99 1.247 . S
C106 O100 1.261 . S
C107 O102 1.259 . S
C107 O104 1.235 . S
O108 Co98 2.021 . S
O108 C105 1.238 . S
O109 Co103 2.052 . S
O109 C105 1.241 . S
O110 Co98 2.137 . S
O110 C101 1.247 . S
O111 Co98 2.244 . S
O111 C101 1.272 . S
O111 Co103 2.135 . S
Co112 O113 2.216 . S
Co112 O114 2.091 . S
Co112 O116 2.004 . S
Co112 O122 2.021 . S
Co112 O124 2.137 . S
Co112 O125 2.244 . S
O113 Co112 2.216 . S
O113 C120 1.247 . S
O114 Co112 2.091 . S
O114 C120 1.261 . S
C115 O124 1.247 . S
C115 O125 1.272 . S
O116 Co112 2.004 . S
O116 C121 1.259 . S
Co117 O118 2.061 . S
Co117 O123 2.052 . S
Co117 O125 2.135 . S
O118 Co117 2.061 . S
O118 C121 1.235 . S
C119 O122 1.238 . S
C119 O123 1.241 . S
C120 O113 1.247 . S
C120 O114 1.261 . S
C121 O116 1.259 . S
C121 O118 1.235 . S
O122 Co112 2.021 . S
O122 C119 1.238 . S
O123 Co117 2.052 . S
O123 C119 1.241 . S
O124 Co112 2.137 . S
O124 C115 1.247 . S
O125 Co112 2.244 . S
O125 C115 1.272 . S
O125 Co117 2.135 . S
Co126 O127 2.216 . S
Co126 O128 2.091 . S
Co126 O130 2.004 . S
Co126 O136 2.021 . S
Co126 O138 2.137 . S
Co126 O139 2.244 . S
O127 Co126 2.216 . S
O127 C134 1.247 . S
O128 Co126 2.091 . S
O128 C134 1.261 . S
C129 O138 1.247 . S
C129 O139 1.272 . S
O130 Co126 2.004 . S
O130 C135 1.259 . S
Co131 O132 2.061 . S
Co131 O137 2.052 . S
Co131 O139 2.135 . S
O132 Co131 2.061 . S
O132 C135 1.235 . S
C133 O136 1.238 . S
C133 O137 1.241 . S
C134 O127 1.247 . S
C134 O128 1.261 . S
C135 O130 1.259 . S
C135 O132 1.235 . S
O136 Co126 2.021 . S
O136 C133 1.238 . S
O137 Co131 2.052 . S
O137 C133 1.241 . S
O138 Co126 2.137 . S
O138 C129 1.247 . S
O139 Co126 2.244 . S
O139 C129 1.272 . S
O139 Co131 2.135 . S
Co140 O141 2.216 . S
Co140 O142 2.091 . S
Co140 O144 2.004 . S
Co140 O150 2.021 . S
Co140 O152 2.137 . S
Co140 O153 2.244 . S
O141 Co140 2.216 . S
O141 C148 1.247 . S
O142 Co140 2.091 . S
O142 C148 1.261 . S
C143 O152 1.247 . S
C143 O153 1.272 . S
O144 Co140 2.004 . S
O144 C149 1.259 . S
Co145 O146 2.061 . S
Co145 O151 2.052 . S
Co145 O153 2.135 . S
O146 Co145 2.061 . S
O146 C149 1.235 . S
C147 O150 1.238 . S
C147 O151 1.241 . S
C148 O141 1.247 . S
C148 O142 1.261 . S
C149 O144 1.259 . S
C149 O146 1.235 . S
O150 Co140 2.021 . S
O150 C147 1.238 . S
O151 Co145 2.052 . S
O151 C147 1.241 . S
O152 Co140 2.137 . S
O152 C143 1.247 . S
O153 Co140 2.244 . S
O153 C143 1.272 . S
O153 Co145 2.135 . S
Co154 O155 2.216 . S
Co154 O156 2.091 . S
Co154 O158 2.004 . S
Co154 O164 2.021 . S
Co154 O166 2.137 . S
Co154 O167 2.244 . S
O155 Co154 2.216 . S
O155 C162 1.247 . S
O156 Co154 2.091 . S
O156 C162 1.261 . S
C157 O166 1.247 . S
C157 O167 1.272 . S
O158 Co154 2.004 . S
O158 C163 1.259 . S
Co159 O160 2.061 . S
Co159 O165 2.052 . S
Co159 O167 2.135 . S
O160 Co159 2.061 . S
O160 C163 1.235 . S
C161 O164 1.238 . S
C161 O165 1.241 . S
C162 O155 1.247 . S
C162 O156 1.261 . S
C163 O158 1.259 . S
C163 O160 1.235 . S
O164 Co154 2.021 . S
O164 C161 1.238 . S
O165 Co159 2.052 . S
O165 C161 1.241 . S
O166 Co154 2.137 . S
O166 C157 1.247 . S
O167 Co154 2.244 . S
O167 C157 1.272 . S
O167 Co159 2.135 . S
Co168 O169 2.216 . S
Co168 O170 2.091 . S
Co168 O172 2.004 . S
Co168 O178 2.021 . S
Co168 O180 2.137 . S
Co168 O181 2.244 . S
O169 Co168 2.216 . S
O169 C176 1.247 . S
O170 Co168 2.091 . S
O170 C176 1.261 . S
C171 O180 1.247 . S
C171 O181 1.272 . S
O172 Co168 2.004 . S
O172 C177 1.259 . S
Co173 O174 2.061 . S
Co173 O179 2.052 . S
Co173 O181 2.135 . S
O174 Co173 2.061 . S
O174 C177 1.235 . S
C175 O178 1.238 . S
C175 O179 1.241 . S
C176 O169 1.247 . S
C176 O170 1.261 . S
C177 O172 1.259 . S
C177 O174 1.235 . S
O178 Co168 2.021 . S
O178 C175 1.238 . S
O179 Co173 2.052 . S
O179 C175 1.241 . S
O180 Co168 2.137 . S
O180 C171 1.247 . S
O181 Co168 2.244 . S
O181 C171 1.272 . S
O181 Co173 2.135 . S
Co182 O183 2.216 . S
Co182 O184 2.091 . S
Co182 O186 2.004 . S
Co182 O192 2.021 . S
Co182 O194 2.137 . S
Co182 O195 2.244 . S
O183 Co182 2.216 . S
O183 C190 1.247 . S
O184 Co182 2.091 . S
O184 C190 1.261 . S
C185 O194 1.247 . S
C185 O195 1.272 . S
O186 Co182 2.004 . S
O186 C191 1.259 . S
Co187 O188 2.061 . S
Co187 O193 2.052 . S
Co187 O195 2.135 . S
O188 Co187 2.061 . S
O188 C191 1.235 . S
C189 O192 1.238 . S
C189 O193 1.241 . S
C190 O183 1.247 . S
C190 O184 1.261 . S
C191 O186 1.259 . S
C191 O188 1.235 . S
O192 Co182 2.021 . S
O192 C189 1.238 . S
O193 Co187 2.052 . S
O193 C189 1.241 . S
O194 Co182 2.137 . S
O194 C185 1.247 . S
O195 Co182 2.244 . S
O195 C185 1.272 . S
O195 Co187 2.135 . S
Co196 O197 2.216 . S
Co196 O198 2.091 . S
Co196 O200 2.004 . S
Co196 O206 2.021 . S
Co196 O208 2.137 . S
Co196 O209 2.244 . S
O197 Co196 2.216 . S
O197 C204 1.247 . S
O198 Co196 2.091 . S
O198 C204 1.261 . S
C199 O208 1.247 . S
C199 O209 1.272 . S
O200 Co196 2.004 . S
O200 C205 1.259 . S
Co201 O202 2.061 . S
Co201 O207 2.052 . S
Co201 O209 2.135 . S
O202 Co201 2.061 . S
O202 C205 1.235 . S
C203 O206 1.238 . S
C203 O207 1.241 . S
C204 O197 1.247 . S
C204 O198 1.261 . S
C205 O200 1.259 . S
C205 O202 1.235 . S
O206 Co196 2.021 . S
O206 C203 1.238 . S
O207 Co201 2.052 . S
O207 C203 1.241 . S
O208 Co196 2.137 . S
O208 C199 1.247 . S
O209 Co196 2.244 . S
O209 C199 1.272 . S
O209 Co201 2.135 . S
Co210 O211 2.216 . S
Co210 O212 2.091 . S
Co210 O214 2.004 . S
Co210 O220 2.021 . S
Co210 O222 2.137 . S
Co210 O223 2.244 . S
O211 Co210 2.216 . S
O211 C218 1.247 . S
O212 Co210 2.091 . S
O212 C218 1.261 . S
C213 O222 1.247 . S
C213 O223 1.272 . S
O214 Co210 2.004 . S
O214 C219 1.259 . S
Co215 O216 2.061 . S
Co215 O221 2.052 . S
Co215 O223 2.135 . S
O216 Co215 2.061 . S
O216 C219 1.235 . S
C217 O220 1.238 . S
C217 O221 1.241 . S
C218 O211 1.247 . S
C218 O212 1.261 . S
C219 O214 1.259 . S
C219 O216 1.235 . S
O220 Co210 2.021 . S
O220 C217 1.238 . S
O221 Co215 2.052 . S
O221 C217 1.241 . S
O222 Co210 2.137 . S
O222 C213 1.247 . S
O223 Co210 2.244 . S
O223 C213 1.272 . S
O223 Co215 2.135 . S
Co224 O225 2.216 . S
Co224 O226 2.091 . S
Co224 O228 2.004 . S
Co224 O234 2.021 . S
Co224 O236 2.137 . S
Co224 O237 2.244 . S
O225 Co224 2.216 . S
O225 C232 1.247 . S
O226 Co224 2.091 . S
O226 C232 1.261 . S
C227 O236 1.247 . S
C227 O237 1.272 . S
O228 Co224 2.004 . S
O228 C233 1.259 . S
Co229 O230 2.061 . S
Co229 O235 2.052 . S
Co229 O237 2.135 . S
O230 Co229 2.061 . S
O230 C233 1.235 . S
C231 O234 1.238 . S
C231 O235 1.241 . S
C232 O225 1.247 . S
C232 O226 1.261 . S
C233 O228 1.259 . S
C233 O230 1.235 . S
O234 Co224 2.021 . S
O234 C231 1.238 . S
O235 Co229 2.052 . S
O235 C231 1.241 . S
O236 Co224 2.137 . S
O236 C227 1.247 . S
O237 Co224 2.244 . S
O237 C227 1.272 . S
O237 Co229 2.135 . S
Co238 O239 2.216 . S
Co238 O240 2.091 . S
Co238 O242 2.004 . S
Co238 O248 2.021 . S
Co238 O250 2.137 . S
Co238 O251 2.244 . S
O239 Co238 2.216 . S
O239 C246 1.247 . S
O240 Co238 2.091 . S
O240 C246 1.261 . S
C241 O250 1.247 . S
C241 O251 1.272 . S
O242 Co238 2.004 . S
O242 C247 1.259 . S
Co243 O244 2.061 . S
Co243 O249 2.052 . S
Co243 O251 2.135 . S
O244 Co243 2.061 . S
O244 C247 1.235 . S
C245 O248 1.238 . S
C245 O249 1.241 . S
C246 O239 1.247 . S
C246 O240 1.261 . S
C247 O242 1.259 . S
C247 O244 1.235 . S
O248 Co238 2.021 . S
O248 C245 1.238 . S
O249 Co243 2.052 . S
O249 C245 1.241 . S
O250 Co238 2.137 . S
O250 C241 1.247 . S
O251 Co238 2.244 . S
O251 C241 1.272 . S
O251 Co243 2.135 . S
Co252 O253 2.216 . S
Co252 O254 2.091 . S
Co252 O256 2.004 . S
Co252 O262 2.021 . S
Co252 O264 2.137 . S
Co252 O265 2.244 . S
O253 Co252 2.216 . S
O253 C260 1.247 . S
O254 Co252 2.091 . S
O254 C260 1.261 . S
C255 O264 1.247 . S
C255 O265 1.272 . S
O256 Co252 2.004 . S
O256 C261 1.259 . S
Co257 O258 2.061 . S
Co257 O263 2.052 . S
Co257 O265 2.135 . S
O258 Co257 2.061 . S
O258 C261 1.235 . S
C259 O262 1.238 . S
C259 O263 1.241 . S
C260 O253 1.247 . S
C260 O254 1.261 . S
C261 O256 1.259 . S
C261 O258 1.235 . S
O262 Co252 2.021 . S
O262 C259 1.238 . S
O263 Co257 2.052 . S
O263 C259 1.241 . S
O264 Co252 2.137 . S
O264 C255 1.247 . S
O265 Co252 2.244 . S
O265 C255 1.272 . S
O265 Co257 2.135 . S
Co266 O267 2.216 . S
Co266 O268 2.091 . S
Co266 O270 2.004 . S
Co266 O276 2.021 . S
Co266 O278 2.137 . S
Co266 O279 2.244 . S
O267 Co266 2.216 . S
O267 C274 1.247 . S
O268 Co266 2.091 . S
O268 C274 1.261 . S
C269 O278 1.247 . S
C269 O279 1.272 . S
O270 Co266 2.004 . S
O270 C275 1.259 . S
Co271 O272 2.061 . S
Co271 O277 2.052 . S
Co271 O279 2.135 . S
O272 Co271 2.061 . S
O272 C275 1.235 . S
C273 O276 1.238 . S
C273 O277 1.241 . S
C274 O267 1.247 . S
C274 O268 1.261 . S
C275 O270 1.259 . S
C275 O272 1.235 . S
O276 Co266 2.021 . S
O276 C273 1.238 . S
O277 Co271 2.052 . S
O277 C273 1.241 . S
O278 Co266 2.137 . S
O278 C269 1.247 . S
O279 Co266 2.244 . S
O279 C269 1.272 . S
O279 Co271 2.135 . S
Co280 O281 2.216 . S
Co280 O282 2.091 . S
Co280 O284 2.004 . S
Co280 O290 2.021 . S
Co280 O292 2.137 . S
Co280 O293 2.244 . S
O281 Co280 2.216 . S
O281 C288 1.247 . S
O282 Co280 2.091 . S
O282 C288 1.261 . S
C283 O292 1.247 . S
C283 O293 1.272 . S
O284 Co280 2.004 . S
O284 C289 1.259 . S
Co285 O286 2.061 . S
Co285 O291 2.052 . S
Co285 O293 2.135 . S
O286 Co285 2.061 . S
O286 C289 1.235 . S
C287 O290 1.238 . S
C287 O291 1.241 . S
C288 O281 1.247 . S
C288 O282 1.261 . S
C289 O284 1.259 . S
C289 O286 1.235 . S
O290 Co280 2.021 . S
O290 C287 1.238 . S
O291 Co285 2.052 . S
O291 C287 1.241 . S
O292 Co280 2.137 . S
O292 C283 1.247 . S
O293 Co280 2.244 . S
O293 C283 1.272 . S
O293 Co285 2.135 . S
Co294 O295 2.216 . S
Co294 O296 2.091 . S
Co294 O298 2.004 . S
Co294 O304 2.021 . S
Co294 O306 2.137 1_554 S
Co294 O307 2.244 1_554 S
O295 Co294 2.216 . S
O295 C302 1.247 . S
O296 Co294 2.091 . S
O296 C302 1.261 . S
C297 O306 1.247 . S
C297 O307 1.272 . S
O298 Co294 2.004 . S
O298 C303 1.259 . S
Co299 O300 2.061 . S
Co299 O305 2.052 . S
Co299 O307 2.135 1_554 S
O300 Co299 2.061 . S
O300 C303 1.235 . S
C301 O304 1.238 . S
C301 O305 1.241 . S
C302 O295 1.247 . S
C302 O296 1.261 . S
C303 O298 1.259 . S
C303 O300 1.235 . S
O304 Co294 2.021 . S
O304 C301 1.238 . S
O305 Co299 2.052 . S
O305 C301 1.241 . S
O306 Co294 2.137 1_556 S
O306 C297 1.247 . S
O307 Co294 2.244 1_556 S
O307 C297 1.272 . S
O307 Co299 2.135 1_556 S
Co308 O309 2.216 . S
Co308 O310 2.091 . S
Co308 O312 2.004 . S
Co308 O318 2.021 . S
Co308 O320 2.137 1_554 S
Co308 O321 2.244 1_554 S
O309 Co308 2.216 . S
O309 C316 1.247 . S
O310 Co308 2.091 . S
O310 C316 1.261 . S
C311 O320 1.247 . S
C311 O321 1.272 . S
O312 Co308 2.004 . S
O312 C317 1.259 . S
Co313 O314 2.061 . S
Co313 O319 2.052 . S
Co313 O321 2.135 1_554 S
O314 Co313 2.061 . S
O314 C317 1.235 . S
C315 O318 1.238 . S
C315 O319 1.241 . S
C316 O309 1.247 . S
C316 O310 1.261 . S
C317 O312 1.259 . S
C317 O314 1.235 . S
O318 Co308 2.021 . S
O318 C315 1.238 . S
O319 Co313 2.052 . S
O319 C315 1.241 . S
O320 Co308 2.137 1_556 S
O320 C311 1.247 . S
O321 Co308 2.244 1_556 S
O321 C311 1.272 . S
O321 Co313 2.135 1_556 S
Co322 O323 2.216 . S
Co322 O324 2.091 . S
Co322 O326 2.004 . S
Co322 O332 2.021 . S
Co322 O334 2.137 1_554 S
Co322 O335 2.244 1_554 S
O323 Co322 2.216 . S
O323 C330 1.247 . S
O324 Co322 2.091 . S
O324 C330 1.261 . S
C325 O334 1.247 . S
C325 O335 1.272 . S
O326 Co322 2.004 . S
O326 C331 1.259 . S
Co327 O328 2.061 . S
Co327 O333 2.052 . S
Co327 O335 2.135 1_554 S
O328 Co327 2.061 . S
O328 C331 1.235 . S
C329 O332 1.238 . S
C329 O333 1.241 . S
C330 O323 1.247 . S
C330 O324 1.261 . S
C331 O326 1.259 . S
C331 O328 1.235 . S
O332 Co322 2.021 . S
O332 C329 1.238 . S
O333 Co327 2.052 . S
O333 C329 1.241 . S
O334 Co322 2.137 1_556 S
O334 C325 1.247 . S
O335 Co322 2.244 1_556 S
O335 C325 1.272 . S
O335 Co327 2.135 1_556 S
Co336 O337 2.216 . S
Co336 O338 2.091 . S
Co336 O340 2.004 . S
Co336 O346 2.021 . S
Co336 O348 2.137 . S
Co336 O349 2.244 . S
O337 Co336 2.216 . S
O337 C344 1.247 . S
O338 Co336 2.091 . S
O338 C344 1.261 . S
C339 O348 1.247 . S
C339 O349 1.272 . S
O340 Co336 2.004 . S
O340 C345 1.259 . S
Co341 O342 2.061 . S
Co341 O347 2.052 . S
Co341 O349 2.135 . S
O342 Co341 2.061 . S
O342 C345 1.235 . S
C343 O346 1.238 . S
C343 O347 1.241 . S
C344 O337 1.247 . S
C344 O338 1.261 . S
C345 O340 1.259 . S
C345 O342 1.235 . S
O346 Co336 2.021 . S
O346 C343 1.238 . S
O347 Co341 2.052 . S
O347 C343 1.241 . S
O348 Co336 2.137 . S
O348 C339 1.247 . S
O349 Co336 2.244 . S
O349 C339 1.272 . S
O349 Co341 2.135 . S
Co350 O351 2.216 . S
Co350 O352 2.091 . S
Co350 O354 2.004 . S
Co350 O360 2.021 . S
Co350 O362 2.137 . S
Co350 O363 2.244 . S
O351 Co350 2.216 . S
O351 C358 1.247 . S
O352 Co350 2.091 . S
O352 C358 1.261 . S
C353 O362 1.247 . S
C353 O363 1.272 . S
O354 Co350 2.004 . S
O354 C359 1.259 . S
Co355 O356 2.061 . S
Co355 O361 2.052 . S
Co355 O363 2.135 . S
O356 Co355 2.061 . S
O356 C359 1.235 . S
C357 O360 1.238 . S
C357 O361 1.241 . S
C358 O351 1.247 . S
C358 O352 1.261 . S
C359 O354 1.259 . S
C359 O356 1.235 . S
O360 Co350 2.021 . S
O360 C357 1.238 . S
O361 Co355 2.052 . S
O361 C357 1.241 . S
O362 Co350 2.137 . S
O362 C353 1.247 . S
O363 Co350 2.244 . S
O363 C353 1.272 . S
O363 Co355 2.135 . S
Co364 O365 2.216 . S
Co364 O366 2.091 . S
Co364 O368 2.004 . S
Co364 O374 2.021 . S
Co364 O376 2.137 . S
Co364 O377 2.244 . S
O365 Co364 2.216 . S
O365 C372 1.247 . S
O366 Co364 2.091 . S
O366 C372 1.261 . S
C367 O376 1.247 . S
C367 O377 1.272 . S
O368 Co364 2.004 . S
O368 C373 1.259 . S
Co369 O370 2.061 . S
Co369 O375 2.052 . S
Co369 O377 2.135 . S
O370 Co369 2.061 . S
O370 C373 1.235 . S
C371 O374 1.238 . S
C371 O375 1.241 . S
C372 O365 1.247 . S
C372 O366 1.261 . S
C373 O368 1.259 . S
C373 O370 1.235 . S
O374 Co364 2.021 . S
O374 C371 1.238 . S
O375 Co369 2.052 . S
O375 C371 1.241 . S
O376 Co364 2.137 . S
O376 C367 1.247 . S
O377 Co364 2.244 . S
O377 C367 1.272 . S
O377 Co369 2.135 . S
Co378 O379 2.216 . S
Co378 O380 2.091 . S
Co378 O382 2.004 . S
Co378 O388 2.021 . S
Co378 O390 2.137 1_556 S
Co378 O391 2.244 1_556 S
O379 Co378 2.216 . S
O379 C386 1.247 . S
O380 Co378 2.091 . S
O380 C386 1.261 . S
C381 O390 1.247 . S
C381 O391 1.272 . S
O382 Co378 2.004 . S
O382 C387 1.259 . S
Co383 O384 2.061 . S
Co383 O389 2.052 . S
Co383 O391 2.135 1_556 S
O384 Co383 2.061 . S
O384 C387 1.235 . S
C385 O388 1.238 . S
C385 O389 1.241 . S
C386 O379 1.247 . S
C386 O380 1.261 . S
C387 O382 1.259 . S
C387 O384 1.235 . S
O388 Co378 2.021 . S
O388 C385 1.238 . S
O389 Co383 2.052 . S
O389 C385 1.241 . S
O390 Co378 2.137 1_554 S
O390 C381 1.247 . S
O391 Co378 2.244 1_554 S
O391 C381 1.272 . S
O391 Co383 2.135 1_554 S
Co392 O393 2.216 . S
Co392 O394 2.091 . S
Co392 O396 2.004 . S
Co392 O402 2.021 . S
Co392 O404 2.137 1_556 S
Co392 O405 2.244 1_556 S
O393 Co392 2.216 . S
O393 C400 1.247 . S
O394 Co392 2.091 . S
O394 C400 1.261 . S
C395 O404 1.247 . S
C395 O405 1.272 . S
O396 Co392 2.004 . S
O396 C401 1.259 . S
Co397 O398 2.061 . S
Co397 O403 2.052 . S
Co397 O405 2.135 1_556 S
O398 Co397 2.061 . S
O398 C401 1.235 . S
C399 O402 1.238 . S
C399 O403 1.241 . S
C400 O393 1.247 . S
C400 O394 1.261 . S
C401 O396 1.259 . S
C401 O398 1.235 . S
O402 Co392 2.021 . S
O402 C399 1.238 . S
O403 Co397 2.052 . S
O403 C399 1.241 . S
O404 Co392 2.137 1_554 S
O404 C395 1.247 . S
O405 Co392 2.244 1_554 S
O405 C395 1.272 . S
O405 Co397 2.135 1_554 S
Co406 O407 2.216 . S
Co406 O408 2.091 . S
Co406 O410 2.004 . S
Co406 O416 2.021 . S
Co406 O418 2.137 1_556 S
Co406 O419 2.244 1_556 S
O407 Co406 2.216 . S
O407 C414 1.247 . S
O408 Co406 2.091 . S
O408 C414 1.261 . S
C409 O418 1.247 . S
C409 O419 1.272 . S
O410 Co406 2.004 . S
O410 C415 1.259 . S
Co411 O412 2.061 . S
Co411 O417 2.052 . S
Co411 O419 2.135 1_556 S
O412 Co411 2.061 . S
O412 C415 1.235 . S
C413 O416 1.238 . S
C413 O417 1.241 . S
C414 O407 1.247 . S
C414 O408 1.261 . S
C415 O410 1.259 . S
C415 O412 1.235 . S
O416 Co406 2.021 . S
O416 C413 1.238 . S
O417 Co411 2.052 . S
O417 C413 1.241 . S
O418 Co406 2.137 1_554 S
O418 C409 1.247 . S
O419 Co406 2.244 1_554 S
O419 C409 1.272 . S
O419 Co411 2.135 1_554 S
Co420 O421 2.216 . S
Co420 O422 2.091 . S
Co420 O424 2.004 . S
Co420 O430 2.021 . S
Co420 O432 2.137 . S
Co420 O433 2.244 . S
O421 Co420 2.216 . S
O421 C428 1.247 . S
O422 Co420 2.091 . S
O422 C428 1.261 . S
C423 O432 1.247 . S
C423 O433 1.272 . S
O424 Co420 2.004 . S
O424 C429 1.259 . S
Co425 O426 2.061 . S
Co425 O431 2.052 . S
Co425 O433 2.135 . S
O426 Co425 2.061 . S
O426 C429 1.235 . S
C427 O430 1.238 . S
C427 O431 1.241 . S
C428 O421 1.247 . S
C428 O422 1.261 . S
C429 O424 1.259 . S
C429 O426 1.235 . S
O430 Co420 2.021 . S
O430 C427 1.238 . S
O431 Co425 2.052 . S
O431 C427 1.241 . S
O432 Co420 2.137 . S
O432 C423 1.247 . S
O433 Co420 2.244 . S
O433 C423 1.272 . S
O433 Co425 2.135 . S
Co434 O435 2.216 . S
Co434 O436 2.091 . S
Co434 O438 2.004 . S
Co434 O444 2.021 . S
Co434 O446 2.137 . S
Co434 O447 2.244 . S
O435 Co434 2.216 . S
O435 C442 1.247 . S
O436 Co434 2.091 . S
O436 C442 1.261 . S
C437 O446 1.247 . S
C437 O447 1.272 . S
O438 Co434 2.004 . S
O438 C443 1.259 . S
Co439 O440 2.061 . S
Co439 O445 2.052 . S
Co439 O447 2.135 . S
O440 Co439 2.061 . S
O440 C443 1.235 . S
C441 O444 1.238 . S
C441 O445 1.241 . S
C442 O435 1.247 . S
C442 O436 1.261 . S
C443 O438 1.259 . S
C443 O440 1.235 . S
O444 Co434 2.021 . S
O444 C441 1.238 . S
O445 Co439 2.052 . S
O445 C441 1.241 . S
O446 Co434 2.137 . S
O446 C437 1.247 . S
O447 Co434 2.244 . S
O447 C437 1.272 . S
O447 Co439 2.135 . S
Co448 O449 2.216 . S
Co448 O450 2.091 . S
Co448 O452 2.004 . S
Co448 O458 2.021 . S
Co448 O460 2.137 . S
Co448 O461 2.244 . S
O449 Co448 2.216 . S
O449 C456 1.247 . S
O450 Co448 2.091 . S
O450 C456 1.261 . S
C451 O460 1.247 . S
C451 O461 1.272 . S
O452 Co448 2.004 . S
O452 C457 1.259 . S
Co453 O454 2.061 . S
Co453 O459 2.052 . S
Co453 O461 2.135 . S
O454 Co453 2.061 . S
O454 C457 1.235 . S
C455 O458 1.238 . S
C455 O459 1.241 . S
C456 O449 1.247 . S
C456 O450 1.261 . S
C457 O452 1.259 . S
C457 O454 1.235 . S
O458 Co448 2.021 . S
O458 C455 1.238 . S
O459 Co453 2.052 . S
O459 C455 1.241 . S
O460 Co448 2.137 . S
O460 C451 1.247 . S
O461 Co448 2.244 . S
O461 C451 1.272 . S
O461 Co453 2.135 . S
Co462 O463 2.216 . S
Co462 O464 2.091 . S
Co462 O466 2.004 . S
Co462 O472 2.021 . S
Co462 O474 2.137 . S
Co462 O475 2.244 . S
O463 Co462 2.216 . S
O463 C470 1.247 . S
O464 Co462 2.091 . S
O464 C470 1.261 . S
C465 O474 1.247 . S
C465 O475 1.272 . S
O466 Co462 2.004 . S
O466 C471 1.259 . S
Co467 O468 2.061 . S
Co467 O473 2.052 . S
Co467 O475 2.135 . S
O468 Co467 2.061 . S
O468 C471 1.235 . S
C469 O472 1.238 . S
C469 O473 1.241 . S
C470 O463 1.247 . S
C470 O464 1.261 . S
C471 O466 1.259 . S
C471 O468 1.235 . S
O472 Co462 2.021 . S
O472 C469 1.238 . S
O473 Co467 2.052 . S
O473 C469 1.241 . S
O474 Co462 2.137 . S
O474 C465 1.247 . S
O475 Co462 2.244 . S
O475 C465 1.272 . S
O475 Co467 2.135 . S
Co476 O477 2.216 . S
Co476 O478 2.091 . S
Co476 O480 2.004 . S
Co476 O486 2.021 . S
Co476 O488 2.137 . S
Co476 O489 2.244 . S
O477 Co476 2.216 . S
O477 C484 1.247 . S
O478 Co476 2.091 . S
O478 C484 1.261 . S
C479 O488 1.247 . S
C479 O489 1.272 . S
O480 Co476 2.004 . S
O480 C485 1.259 . S
Co481 O482 2.061 . S
Co481 O487 2.052 . S
Co481 O489 2.135 . S
O482 Co481 2.061 . S
O482 C485 1.235 . S
C483 O486 1.238 . S
C483 O487 1.241 . S
C484 O477 1.247 . S
C484 O478 1.261 . S
C485 O480 1.259 . S
C485 O482 1.235 . S
O486 Co476 2.021 . S
O486 C483 1.238 . S
O487 Co481 2.052 . S
O487 C483 1.241 . S
O488 Co476 2.137 . S
O488 C479 1.247 . S
O489 Co476 2.244 . S
O489 C479 1.272 . S
O489 Co481 2.135 . S
Co490 O491 2.216 . S
Co490 O492 2.091 . S
Co490 O494 2.004 . S
Co490 O500 2.021 . S
Co490 O502 2.137 . S
Co490 O503 2.244 . S
O491 Co490 2.216 . S
O491 C498 1.247 . S
O492 Co490 2.091 . S
O492 C498 1.261 . S
C493 O502 1.247 . S
C493 O503 1.272 . S
O494 Co490 2.004 . S
O494 C499 1.259 . S
Co495 O496 2.061 . S
Co495 O501 2.052 . S
Co495 O503 2.135 . S
O496 Co495 2.061 . S
O496 C499 1.235 . S
C497 O500 1.238 . S
C497 O501 1.241 . S
C498 O491 1.247 . S
C498 O492 1.261 . S
C499 O494 1.259 . S
C499 O496 1.235 . S
O500 Co490 2.021 . S
O500 C497 1.238 . S
O501 Co495 2.052 . S
O501 C497 1.241 . S
O502 Co490 2.137 . S
O502 C493 1.247 . S
O503 Co490 2.244 . S
O503 C493 1.272 . S
O503 Co495 2.135 . S
H504 C510 0.930 . S
H505 C513 0.930 . S
H506 C514 0.930 . S
H507 C515 0.930 . S
H508 C518 0.930 . S
H509 C519 0.930 . S
C510 H504 0.930 . S
C510 C511 1.355 . S
C510 C512 1.415 . S
C511 C510 1.355 . S
C511 C513 1.419 . S
C512 C510 1.415 . S
C512 C517 1.425 . S
C512 C519 1.409 . S
C513 H505 0.930 . S
C513 C511 1.419 . S
C513 C514 1.362 . S
C514 H506 0.930 . S
C514 C513 1.362 . S
C514 C517 1.409 . S
C515 H507 0.930 . S
C515 C516 1.355 . S
C515 C517 1.415 1_554 S
C516 C515 1.355 . S
C516 C518 1.419 . S
C517 C512 1.425 . S
C517 C514 1.409 . S
C517 C515 1.415 1_556 S
C518 H508 0.930 . S
C518 C516 1.419 . S
C518 C519 1.362 1_554 S
C519 H509 0.930 . S
C519 C512 1.409 . S
C519 C518 1.362 1_556 S
H520 C526 0.930 . S
H521 C529 0.930 . S
H522 C530 0.930 . S
H523 C531 0.930 . S
H524 C534 0.930 . S
H525 C535 0.930 . S
C526 H520 0.930 . S
C526 C527 1.355 . S
C526 C528 1.415 . S
C527 C526 1.355 . S
C527 C529 1.419 . S
C528 C526 1.415 . S
C528 C533 1.425 . S
C528 C535 1.409 . S
C529 H521 0.930 . S
C529 C527 1.419 . S
C529 C530 1.362 . S
C530 H522 0.930 . S
C530 C529 1.362 . S
C530 C533 1.409 . S
C531 H523 0.930 . S
C531 C532 1.355 . S
C531 C533 1.415 1_554 S
C532 C531 1.355 . S
C532 C534 1.419 . S
C533 C528 1.425 . S
C533 C530 1.409 . S
C533 C531 1.415 1_556 S
C534 H524 0.930 . S
C534 C532 1.419 . S
C534 C535 1.362 1_554 S
C535 H525 0.930 . S
C535 C528 1.409 . S
C535 C534 1.362 1_556 S
H536 C542 0.930 . S
H537 C545 0.930 . S
H538 C546 0.930 . S
H539 C547 0.930 . S
H540 C550 0.930 . S
H541 C551 0.930 . S
C542 H536 0.930 . S
C542 C543 1.355 . S
C542 C544 1.415 1_554 S
C543 C542 1.355 . S
C543 C545 1.419 . S
C544 C542 1.415 1_556 S
C544 C549 1.425 . S
C544 C551 1.409 . S
C545 H537 0.930 . S
C545 C543 1.419 . S
C545 C546 1.362 1_554 S
C546 H538 0.930 . S
C546 C545 1.362 1_556 S
C546 C549 1.409 . S
C547 H539 0.930 . S
C547 C548 1.355 . S
C547 C549 1.415 . S
C548 C547 1.355 . S
C548 C550 1.419 . S
C549 C544 1.425 . S
C549 C546 1.409 . S
C549 C547 1.415 . S
C550 H540 0.930 . S
C550 C548 1.419 . S
C550 C551 1.362 . S
C551 H541 0.930 . S
C551 C544 1.409 . S
C551 C550 1.362 . S
H552 C558 0.930 . S
H553 C561 0.930 . S
H554 C562 0.930 . S
H555 C563 0.930 . S
H556 C566 0.930 . S
H557 C567 0.930 . S
C558 H552 0.930 . S
C558 C559 1.355 . S
C558 C560 1.415 . S
C559 C558 1.355 . S
C559 C561 1.419 . S
C560 C558 1.415 . S
C560 C565 1.425 . S
C560 C567 1.409 . S
C561 H553 0.930 . S
C561 C559 1.419 . S
C561 C562 1.362 . S
C562 H554 0.930 . S
C562 C561 1.362 . S
C562 C565 1.409 . S
C563 H555 0.930 . S
C563 C564 1.355 . S
C563 C565 1.415 . S
C564 C563 1.355 . S
C564 C566 1.419 . S
C565 C560 1.425 . S
C565 C562 1.409 . S
C565 C563 1.415 . S
C566 H556 0.930 . S
C566 C564 1.419 . S
C566 C567 1.362 . S
C567 H557 0.930 . S
C567 C560 1.409 . S
C567 C566 1.362 . S
H568 C574 0.930 . S
H569 C577 0.930 . S
H570 C578 0.930 . S
H571 C579 0.930 . S
H572 C582 0.930 . S
H573 C583 0.930 . S
C574 H568 0.930 . S
C574 C575 1.355 . S
C574 C576 1.415 . S
C575 C574 1.355 . S
C575 C577 1.419 . S
C576 C574 1.415 . S
C576 C581 1.425 . S
C576 C583 1.409 . S
C577 H569 0.930 . S
C577 C575 1.419 . S
C577 C578 1.362 . S
C578 H570 0.930 . S
C578 C577 1.362 . S
C578 C581 1.409 . S
C579 H571 0.930 . S
C579 C580 1.355 . S
C579 C581 1.415 . S
C580 C579 1.355 . S
C580 C582 1.419 . S
C581 C576 1.425 . S
C581 C578 1.409 . S
C581 C579 1.415 . S
C582 H572 0.930 . S
C582 C580 1.419 . S
C582 C583 1.362 . S
C583 H573 0.930 . S
C583 C576 1.409 . S
C583 C582 1.362 . S
H584 C590 0.930 . S
H585 C593 0.930 . S
H586 C594 0.930 . S
H587 C595 0.930 . S
H588 C598 0.930 . S
H589 C599 0.930 . S
C590 H584 0.930 . S
C590 C591 1.355 . S
C590 C592 1.415 . S
C591 C590 1.355 . S
C591 C593 1.419 . S
C592 C590 1.415 . S
C592 C597 1.425 . S
C592 C599 1.409 . S
C593 H585 0.930 . S
C593 C591 1.419 . S
C593 C594 1.362 . S
C594 H586 0.930 . S
C594 C593 1.362 . S
C594 C597 1.409 . S
C595 H587 0.930 . S
C595 C596 1.355 . S
C595 C597 1.415 . S
C596 C595 1.355 . S
C596 C598 1.419 . S
C597 C592 1.425 . S
C597 C594 1.409 . S
C597 C595 1.415 . S
C598 H588 0.930 . S
C598 C596 1.419 . S
C598 C599 1.362 . S
C599 H589 0.930 . S
C599 C592 1.409 . S
C599 C598 1.362 . S
H600 C606 0.930 . S
H601 C609 0.930 . S
H602 C610 0.930 . S
H603 C611 0.930 . S
H604 C614 0.930 . S
H605 C615 0.930 . S
C606 H600 0.930 . S
C606 C607 1.355 . S
C606 C608 1.415 . S
C607 C606 1.355 . S
C607 C609 1.419 . S
C608 C606 1.415 . S
C608 C613 1.425 . S
C608 C615 1.409 . S
C609 H601 0.930 . S
C609 C607 1.419 . S
C609 C610 1.362 . S
C610 H602 0.930 . S
C610 C609 1.362 . S
C610 C613 1.409 . S
C611 H603 0.930 . S
C611 C612 1.355 . S
C611 C613 1.415 1_556 S
C612 C611 1.355 . S
C612 C614 1.419 . S
C613 C608 1.425 . S
C613 C610 1.409 . S
C613 C611 1.415 1_554 S
C614 H604 0.930 . S
C614 C612 1.419 . S
C614 C615 1.362 1_556 S
C615 H605 0.930 . S
C615 C608 1.409 . S
C615 C614 1.362 1_554 S
H616 C622 0.930 . S
H617 C625 0.930 . S
H618 C626 0.930 . S
H619 C627 0.930 . S
H620 C630 0.930 . S
H621 C631 0.930 . S
C622 H616 0.930 . S
C622 C623 1.355 . S
C622 C624 1.415 . S
C623 C622 1.355 . S
C623 C625 1.419 . S
C624 C622 1.415 . S
C624 C629 1.425 . S
C624 C631 1.409 . S
C625 H617 0.930 . S
C625 C623 1.419 . S
C625 C626 1.362 . S
C626 H618 0.930 . S
C626 C625 1.362 . S
C626 C629 1.409 . S
C627 H619 0.930 . S
C627 C628 1.355 . S
C627 C629 1.415 1_556 S
C628 C627 1.355 . S
C628 C630 1.419 . S
C629 C624 1.425 . S
C629 C626 1.409 . S
C629 C627 1.415 1_554 S
C630 H620 0.930 . S
C630 C628 1.419 . S
C630 C631 1.362 1_556 S
C631 H621 0.930 . S
C631 C624 1.409 . S
C631 C630 1.362 1_554 S
H632 C638 0.930 . S
H633 C641 0.930 . S
H634 C642 0.930 . S
H635 C643 0.930 . S
H636 C646 0.930 . S
H637 C647 0.930 . S
C638 H632 0.930 . S
C638 C639 1.355 . S
C638 C640 1.415 1_556 S
C639 C638 1.355 . S
C639 C641 1.419 . S
C640 C638 1.415 1_554 S
C640 C645 1.425 . S
C640 C647 1.409 . S
C641 H633 0.930 . S
C641 C639 1.419 . S
C641 C642 1.362 1_556 S
C642 H634 0.930 . S
C642 C641 1.362 1_554 S
C642 C645 1.409 . S
C643 H635 0.930 . S
C643 C644 1.355 . S
C643 C645 1.415 . S
C644 C643 1.355 . S
C644 C646 1.419 . S
C645 C640 1.425 . S
C645 C642 1.409 . S
C645 C643 1.415 . S
C646 H636 0.930 . S
C646 C644 1.419 . S
C646 C647 1.362 . S
C647 H637 0.930 . S
C647 C640 1.409 . S
C647 C646 1.362 . S
H648 C654 0.930 . S
H649 C657 0.930 . S
H650 C658 0.930 . S
H651 C659 0.930 . S
H652 C662 0.930 . S
H653 C663 0.930 . S
C654 H648 0.930 . S
C654 C655 1.355 . S
C654 C656 1.415 . S
C655 C654 1.355 . S
C655 C657 1.419 . S
C656 C654 1.415 . S
C656 C661 1.425 . S
C656 C663 1.409 . S
C657 H649 0.930 . S
C657 C655 1.419 . S
C657 C658 1.362 . S
C658 H650 0.930 . S
C658 C657 1.362 . S
C658 C661 1.409 . S
C659 H651 0.930 . S
C659 C660 1.355 . S
C659 C661 1.415 . S
C660 C659 1.355 . S
C660 C662 1.419 . S
C661 C656 1.425 . S
C661 C658 1.409 . S
C661 C659 1.415 . S
C662 H652 0.930 . S
C662 C660 1.419 . S
C662 C663 1.362 . S
C663 H653 0.930 . S
C663 C656 1.409 . S
C663 C662 1.362 . S
H664 C670 0.930 . S
H665 C673 0.930 . S
H666 C674 0.930 . S
H667 C675 0.930 . S
H668 C678 0.930 . S
H669 C679 0.930 . S
C670 H664 0.930 . S
C670 C671 1.355 . S
C670 C672 1.415 . S
C671 C670 1.355 . S
C671 C673 1.419 . S
C672 C670 1.415 . S
C672 C677 1.425 . S
C672 C679 1.409 . S
C673 H665 0.930 . S
C673 C671 1.419 . S
C673 C674 1.362 . S
C674 H666 0.930 . S
C674 C673 1.362 . S
C674 C677 1.409 . S
C675 H667 0.930 . S
C675 C676 1.355 . S
C675 C677 1.415 . S
C676 C675 1.355 . S
C676 C678 1.419 . S
C677 C672 1.425 . S
C677 C674 1.409 . S
C677 C675 1.415 . S
C678 H668 0.930 . S
C678 C676 1.419 . S
C678 C679 1.362 . S
C679 H669 0.930 . S
C679 C672 1.409 . S
C679 C678 1.362 . S
H680 C686 0.930 . S
H681 C689 0.930 . S
H682 C690 0.930 . S
H683 C691 0.930 . S
H684 C694 0.930 . S
H685 C695 0.930 . S
C686 H680 0.930 . S
C686 C687 1.355 . S
C686 C688 1.415 . S
C687 C686 1.355 . S
C687 C689 1.419 . S
C688 C686 1.415 . S
C688 C693 1.425 . S
C688 C695 1.409 . S
C689 H681 0.930 . S
C689 C687 1.419 . S
C689 C690 1.362 . S
C690 H682 0.930 . S
C690 C689 1.362 . S
C690 C693 1.409 . S
C691 H683 0.930 . S
C691 C692 1.355 . S
C691 C693 1.415 . S
C692 C691 1.355 . S
C692 C694 1.419 . S
C693 C688 1.425 . S
C693 C690 1.409 . S
C693 C691 1.415 . S
C694 H684 0.930 . S
C694 C692 1.419 . S
C694 C695 1.362 . S
C695 H685 0.930 . S
C695 C688 1.409 . S
C695 C694 1.362 . S
H696 C702 0.930 . S
H697 C705 0.930 . S
H698 C706 0.930 . S
H699 C707 0.930 . S
H700 C710 0.930 . S
H701 C711 0.930 . S
C702 H696 0.930 . S
C702 C703 1.355 . S
C702 C704 1.415 . S
C703 C702 1.355 . S
C703 C705 1.419 . S
C704 C702 1.415 . S
C704 C709 1.425 . S
C704 C711 1.409 . S
C705 H697 0.930 . S
C705 C703 1.419 . S
C705 C706 1.362 . S
C706 H698 0.930 . S
C706 C705 1.362 . S
C706 C709 1.409 . S
C707 H699 0.930 . S
C707 C708 1.355 . S
C707 C709 1.415 . S
C708 C707 1.355 . S
C708 C710 1.419 . S
C709 C704 1.425 . S
C709 C706 1.409 . S
C709 C707 1.415 . S
C710 H700 0.930 . S
C710 C708 1.419 . S
C710 C711 1.362 . S
C711 H701 0.930 . S
C711 C704 1.409 . S
C711 C710 1.362 . S
H712 C718 0.930 . S
H713 C721 0.930 . S
H714 C722 0.930 . S
H715 C723 0.930 . S
H716 C726 0.930 . S
H717 C727 0.930 . S
C718 H712 0.930 . S
C718 C719 1.355 . S
C718 C720 1.415 . S
C719 C718 1.355 . S
C719 C721 1.419 . S
C720 C718 1.415 . S
C720 C725 1.425 . S
C720 C727 1.409 . S
C721 H713 0.930 . S
C721 C719 1.419 . S
C721 C722 1.362 . S
C722 H714 0.930 . S
C722 C721 1.362 . S
C722 C725 1.409 . S
C723 H715 0.930 . S
C723 C724 1.355 . S
C723 C725 1.415 . S
C724 C723 1.355 . S
C724 C726 1.419 . S
C725 C720 1.425 . S
C725 C722 1.409 . S
C725 C723 1.415 . S
C726 H716 0.930 . S
C726 C724 1.419 . S
C726 C727 1.362 . S
C727 H717 0.930 . S
C727 C720 1.409 . S
C727 C726 1.362 . S
H728 C734 0.930 . S
H729 C737 0.930 . S
H730 C738 0.930 . S
H731 C739 0.930 . S
H732 C742 0.930 . S
H733 C743 0.930 . S
C734 H728 0.930 . S
C734 C735 1.355 . S
C734 C736 1.415 . S
C735 C734 1.355 . S
C735 C737 1.419 . S
C736 C734 1.415 . S
C736 C741 1.425 . S
C736 C743 1.409 . S
C737 H729 0.930 . S
C737 C735 1.419 . S
C737 C738 1.362 . S
C738 H730 0.930 . S
C738 C737 1.362 . S
C738 C741 1.409 . S
C739 H731 0.930 . S
C739 C740 1.355 . S
C739 C741 1.415 . S
C740 C739 1.355 . S
C740 C742 1.419 . S
C741 C736 1.425 . S
C741 C738 1.409 . S
C741 C739 1.415 . S
C742 H732 0.930 . S
C742 C740 1.419 . S
C742 C743 1.362 . S
C743 H733 0.930 . S
C743 C736 1.409 . S
C743 C742 1.362 . S
H744 C750 0.930 . S
H745 C753 0.930 . S
H746 C754 0.930 . S
H747 C755 0.930 . S
H748 C758 0.930 . S
H749 C759 0.930 . S
C750 H744 0.930 . S
C750 C751 1.355 . S
C750 C752 1.415 . S
C751 C750 1.355 . S
C751 C753 1.419 . S
C752 C750 1.415 . S
C752 C757 1.425 . S
C752 C759 1.409 . S
C753 H745 0.930 . S
C753 C751 1.419 . S
C753 C754 1.362 . S
C754 H746 0.930 . S
C754 C753 1.362 . S
C754 C757 1.409 . S
C755 H747 0.930 . S
C755 C756 1.355 . S
C755 C757 1.415 . S
C756 C755 1.355 . S
C756 C758 1.419 . S
C757 C752 1.425 . S
C757 C754 1.409 . S
C757 C755 1.415 . S
C758 H748 0.930 . S
C758 C756 1.419 . S
C758 C759 1.362 . S
C759 H749 0.930 . S
C759 C752 1.409 . S
C759 C758 1.362 . S
H760 C766 0.930 . S
H761 C769 0.930 . S
H762 C770 0.930 . S
H763 C771 0.930 . S
H764 C774 0.930 . S
H765 C775 0.930 . S
C766 H760 0.930 . S
C766 C767 1.355 . S
C766 C768 1.415 . S
C767 C766 1.355 . S
C767 C769 1.419 . S
C768 C766 1.415 . S
C768 C773 1.425 . S
C768 C775 1.409 . S
C769 H761 0.930 . S
C769 C767 1.419 . S
C769 C770 1.362 . S
C770 H762 0.930 . S
C770 C769 1.362 . S
C770 C773 1.409 . S
C771 H763 0.930 . S
C771 C772 1.355 . S
C771 C773 1.415 . S
C772 C771 1.355 . S
C772 C774 1.419 . S
C773 C768 1.425 . S
C773 C770 1.409 . S
C773 C771 1.415 . S
C774 H764 0.930 . S
C774 C772 1.419 . S
C774 C775 1.362 . S
C775 H765 0.930 . S
C775 C768 1.409 . S
C775 C774 1.362 . S
H776 C782 0.930 . S
H777 C785 0.930 . S
H778 C786 0.930 . S
H779 C787 0.930 . S
H780 C790 0.930 . S
H781 C791 0.930 . S
C782 H776 0.930 . S
C782 C783 1.355 . S
C782 C784 1.415 . S
C783 C782 1.355 . S
C783 C785 1.419 . S
C784 C782 1.415 . S
C784 C789 1.425 . S
C784 C791 1.409 . S
C785 H777 0.930 . S
C785 C783 1.419 . S
C785 C786 1.362 . S
C786 H778 0.930 . S
C786 C785 1.362 . S
C786 C789 1.409 . S
C787 H779 0.930 . S
C787 C788 1.355 . S
C787 C789 1.415 . S
C788 C787 1.355 . S
C788 C790 1.419 . S
C789 C784 1.425 . S
C789 C786 1.409 . S
C789 C787 1.415 . S
C790 H780 0.930 . S
C790 C788 1.419 . S
C790 C791 1.362 . S
C791 H781 0.930 . S
C791 C784 1.409 . S
C791 C790 1.362 . S
H792 C798 0.930 . S
H793 C801 0.930 . S
H794 C802 0.930 . S
H795 C803 0.930 . S
H796 C806 0.930 . S
H797 C807 0.930 . S
C798 H792 0.930 . S
C798 C799 1.355 . S
C798 C800 1.415 . S
C799 C798 1.355 . S
C799 C801 1.419 . S
C800 C798 1.415 . S
C800 C805 1.425 . S
C800 C807 1.409 . S
C801 H793 0.930 . S
C801 C799 1.419 . S
C801 C802 1.362 . S
C802 H794 0.930 . S
C802 C801 1.362 . S
C802 C805 1.409 . S
C803 H795 0.930 . S
C803 C804 1.355 . S
C803 C805 1.415 . S
C804 C803 1.355 . S
C804 C806 1.419 . S
C805 C800 1.425 . S
C805 C802 1.409 . S
C805 C803 1.415 . S
C806 H796 0.930 . S
C806 C804 1.419 . S
C806 C807 1.362 . S
C807 H797 0.930 . S
C807 C800 1.409 . S
C807 C806 1.362 . S
H808 C814 0.930 . S
H809 C817 0.930 . S
H810 C818 0.930 . S
H811 C819 0.930 . S
H812 C822 0.930 . S
H813 C823 0.930 . S
C814 H808 0.930 . S
C814 C815 1.355 . S
C814 C816 1.415 . S
C815 C814 1.355 . S
C815 C817 1.419 . S
C816 C814 1.415 . S
C816 C821 1.425 . S
C816 C823 1.409 . S
C817 H809 0.930 . S
C817 C815 1.419 . S
C817 C818 1.362 . S
C818 H810 0.930 . S
C818 C817 1.362 . S
C818 C821 1.409 . S
C819 H811 0.930 . S
C819 C820 1.355 . S
C819 C821 1.415 . S
C820 C819 1.355 . S
C820 C822 1.419 . S
C821 C816 1.425 . S
C821 C818 1.409 . S
C821 C819 1.415 . S
C822 H812 0.930 . S
C822 C820 1.419 . S
C822 C823 1.362 . S
C823 H813 0.930 . S
C823 C816 1.409 . S
C823 C822 1.362 . S
H824 C830 0.930 . S
H825 C833 0.930 . S
H826 C834 0.930 . S
H827 C835 0.930 . S
H828 C838 0.930 . S
H829 C839 0.930 . S
C830 H824 0.930 . S
C830 C831 1.355 . S
C830 C832 1.415 . S
C831 C830 1.355 . S
C831 C833 1.419 . S
C832 C830 1.415 . S
C832 C837 1.425 . S
C832 C839 1.409 . S
C833 H825 0.930 . S
C833 C831 1.419 . S
C833 C834 1.362 . S
C834 H826 0.930 . S
C834 C833 1.362 . S
C834 C837 1.409 . S
C835 H827 0.930 . S
C835 C836 1.355 . S
C835 C837 1.415 . S
C836 C835 1.355 . S
C836 C838 1.419 . S
C837 C832 1.425 . S
C837 C834 1.409 . S
C837 C835 1.415 . S
C838 H828 0.930 . S
C838 C836 1.419 . S
C838 C839 1.362 . S
C839 H829 0.930 . S
C839 C832 1.409 . S
C839 C838 1.362 . S
H840 C846 0.930 . S
H841 C849 0.930 . S
H842 C850 0.930 . S
H843 C851 0.930 . S
H844 C854 0.930 . S
H845 C855 0.930 . S
C846 H840 0.930 . S
C846 C847 1.355 . S
C846 C848 1.415 . S
C847 C846 1.355 . S
C847 C849 1.419 . S
C848 C846 1.415 . S
C848 C853 1.425 . S
C848 C855 1.409 . S
C849 H841 0.930 . S
C849 C847 1.419 . S
C849 C850 1.362 . S
C850 H842 0.930 . S
C850 C849 1.362 . S
C850 C853 1.409 . S
C851 H843 0.930 . S
C851 C852 1.355 . S
C851 C853 1.415 . S
C852 C851 1.355 . S
C852 C854 1.419 . S
C853 C848 1.425 . S
C853 C850 1.409 . S
C853 C851 1.415 . S
C854 H844 0.930 . S
C854 C852 1.419 . S
C854 C855 1.362 . S
C855 H845 0.930 . S
C855 C848 1.409 . S
C855 C854 1.362 . S
H856 C862 0.930 . S
H857 C865 0.930 . S
H858 C866 0.930 . S
H859 C867 0.930 . S
H860 C870 0.930 . S
H861 C871 0.930 . S
C862 H856 0.930 . S
C862 C863 1.355 . S
C862 C864 1.415 . S
C863 C862 1.355 . S
C863 C865 1.419 . S
C864 C862 1.415 . S
C864 C869 1.425 . S
C864 C871 1.409 . S
C865 H857 0.930 . S
C865 C863 1.419 . S
C865 C866 1.362 . S
C866 H858 0.930 . S
C866 C865 1.362 . S
C866 C869 1.409 . S
C867 H859 0.930 . S
C867 C868 1.355 . S
C867 C869 1.415 . S
C868 C867 1.355 . S
C868 C870 1.419 . S
C869 C864 1.425 . S
C869 C866 1.409 . S
C869 C867 1.415 . S
C870 H860 0.930 . S
C870 C868 1.419 . S
C870 C871 1.362 . S
C871 H861 0.930 . S
C871 C864 1.409 . S
C871 C870 1.362 . S
H872 C878 0.930 . S
H873 C881 0.930 . S
H874 C882 0.930 . S
H875 C883 0.930 . S
H876 C886 0.930 . S
H877 C887 0.930 . S
C878 H872 0.930 . S
C878 C879 1.355 . S
C878 C880 1.415 . S
C879 C878 1.355 . S
C879 C881 1.419 . S
C880 C878 1.415 . S
C880 C885 1.425 . S
C880 C887 1.409 . S
C881 H873 0.930 . S
C881 C879 1.419 . S
C881 C882 1.362 . S
C882 H874 0.930 . S
C882 C881 1.362 . S
C882 C885 1.409 . S
C883 H875 0.930 . S
C883 C884 1.355 . S
C883 C885 1.415 . S
C884 C883 1.355 . S
C884 C886 1.419 . S
C885 C880 1.425 . S
C885 C882 1.409 . S
C885 C883 1.415 . S
C886 H876 0.930 . S
C886 C884 1.419 . S
C886 C887 1.362 . S
C887 H877 0.930 . S
C887 C880 1.409 . S
C887 C886 1.362 . S
H888 C894 0.930 . S
H889 C897 0.930 . S
H890 C898 0.930 . S
H891 C899 0.930 . S
H892 C902 0.930 . S
H893 C903 0.930 . S
C894 H888 0.930 . S
C894 C895 1.355 . S
C894 C896 1.415 . S
C895 C894 1.355 . S
C895 C897 1.419 . S
C896 C894 1.415 . S
C896 C901 1.425 . S
C896 C903 1.409 . S
C897 H889 0.930 . S
C897 C895 1.419 . S
C897 C898 1.362 . S
C898 H890 0.930 . S
C898 C897 1.362 . S
C898 C901 1.409 . S
C899 H891 0.930 . S
C899 C900 1.355 . S
C899 C901 1.415 . S
C900 C899 1.355 . S
C900 C902 1.419 . S
C901 C896 1.425 . S
C901 C898 1.409 . S
C901 C899 1.415 . S
C902 H892 0.930 . S
C902 C900 1.419 . S
C902 C903 1.362 . S
C903 H893 0.930 . S
C903 C896 1.409 . S
C903 C902 1.362 . S
H904 C910 0.930 . S
H905 C913 0.930 . S
H906 C914 0.930 . S
H907 C915 0.930 . S
H908 C918 0.930 . S
H909 C919 0.930 . S
C910 H904 0.930 . S
C910 C911 1.355 . S
C910 C912 1.415 . S
C911 C910 1.355 . S
C911 C913 1.419 . S
C912 C910 1.415 . S
C912 C917 1.425 . S
C912 C919 1.409 . S
C913 H905 0.930 . S
C913 C911 1.419 . S
C913 C914 1.362 . S
C914 H906 0.930 . S
C914 C913 1.362 . S
C914 C917 1.409 . S
C915 H907 0.930 . S
C915 C916 1.355 . S
C915 C917 1.415 . S
C916 C915 1.355 . S
C916 C918 1.419 . S
C917 C912 1.425 . S
C917 C914 1.409 . S
C917 C915 1.415 . S
C918 H908 0.930 . S
C918 C916 1.419 . S
C918 C919 1.362 . S
C919 H909 0.930 . S
C919 C912 1.409 . S
C919 C918 1.362 . S
H920 C926 0.930 . S
H921 C929 0.930 . S
H922 C930 0.930 . S
H923 C931 0.930 . S
H924 C934 0.930 . S
H925 C935 0.930 . S
C926 H920 0.930 . S
C926 C927 1.355 . S
C926 C928 1.415 . S
C927 C926 1.355 . S
C927 C929 1.419 . S
C928 C926 1.415 . S
C928 C933 1.425 . S
C928 C935 1.409 . S
C929 H921 0.930 . S
C929 C927 1.419 . S
C929 C930 1.362 . S
C930 H922 0.930 . S
C930 C929 1.362 . S
C930 C933 1.409 . S
C931 H923 0.930 . S
C931 C932 1.355 . S
C931 C933 1.415 . S
C932 C931 1.355 . S
C932 C934 1.419 . S
C933 C928 1.425 . S
C933 C930 1.409 . S
C933 C931 1.415 . S
C934 H924 0.930 . S
C934 C932 1.419 . S
C934 C935 1.362 . S
C935 H925 0.930 . S
C935 C928 1.409 . S
C935 C934 1.362 . S
H936 C942 0.930 . S
H937 C945 0.930 . S
H938 C946 0.930 . S
H939 C947 0.930 . S
H940 C950 0.930 . S
H941 C951 0.930 . S
C942 H936 0.930 . S
C942 C943 1.355 . S
C942 C944 1.415 . S
C943 C942 1.355 . S
C943 C945 1.419 . S
C944 C942 1.415 . S
C944 C949 1.425 . S
C944 C951 1.409 . S
C945 H937 0.930 . S
C945 C943 1.419 . S
C945 C946 1.362 . S
C946 H938 0.930 . S
C946 C945 1.362 . S
C946 C949 1.409 . S
C947 H939 0.930 . S
C947 C948 1.355 . S
C947 C949 1.415 . S
C948 C947 1.355 . S
C948 C950 1.419 . S
C949 C944 1.425 . S
C949 C946 1.409 . S
C949 C947 1.415 . S
C950 H940 0.930 . S
C950 C948 1.419 . S
C950 C951 1.362 . S
C951 H941 0.930 . S
C951 C944 1.409 . S
C951 C950 1.362 . S
H952 C958 0.930 . S
H953 C961 0.930 . S
H954 C962 0.930 . S
H955 C963 0.930 . S
H956 C966 0.930 . S
H957 C967 0.930 . S
C958 H952 0.930 . S
C958 C959 1.355 . S
C958 C960 1.415 . S
C959 C958 1.355 . S
C959 C961 1.419 . S
C960 C958 1.415 . S
C960 C965 1.425 . S
C960 C967 1.409 . S
C961 H953 0.930 . S
C961 C959 1.419 . S
C961 C962 1.362 . S
C962 H954 0.930 . S
C962 C961 1.362 . S
C962 C965 1.409 . S
C963 H955 0.930 . S
C963 C964 1.355 . S
C963 C965 1.415 . S
C964 C963 1.355 . S
C964 C966 1.419 . S
C965 C960 1.425 . S
C965 C962 1.409 . S
C965 C963 1.415 . S
C966 H956 0.930 . S
C966 C964 1.419 . S
C966 C967 1.362 . S
C967 H957 0.930 . S
C967 C960 1.409 . S
C967 C966 1.362 . S
H968 C974 0.930 . S
H969 C977 0.930 . S
H970 C978 0.930 . S
H971 C979 0.930 . S
H972 C982 0.930 . S
H973 C983 0.930 . S
C974 H968 0.930 . S
C974 C975 1.355 . S
C974 C976 1.415 . S
C975 C974 1.355 . S
C975 C977 1.419 . S
C976 C974 1.415 . S
C976 C981 1.425 . S
C976 C983 1.409 . S
C977 H969 0.930 . S
C977 C975 1.419 . S
C977 C978 1.362 . S
C978 H970 0.930 . S
C978 C977 1.362 . S
C978 C981 1.409 . S
C979 H971 0.930 . S
C979 C980 1.355 . S
C979 C981 1.415 . S
C980 C979 1.355 . S
C980 C982 1.419 . S
C981 C976 1.425 . S
C981 C978 1.409 . S
C981 C979 1.415 . S
C982 H972 0.930 . S
C982 C980 1.419 . S
C982 C983 1.362 . S
C983 H973 0.930 . S
C983 C976 1.409 . S
C983 C982 1.362 . S
H984 C990 0.930 . S
H985 C993 0.930 . S
H986 C994 0.930 . S
H987 C995 0.930 . S
H988 C998 0.930 . S
H989 C999 0.930 . S
C990 H984 0.930 . S
C990 C991 1.355 . S
C990 C992 1.415 . S
C991 C990 1.355 . S
C991 C993 1.419 . S
C992 C990 1.415 . S
C992 C997 1.425 . S
C992 C999 1.409 . S
C993 H985 0.930 . S
C993 C991 1.419 . S
C993 C994 1.362 . S
C994 H986 0.930 . S
C994 C993 1.362 . S
C994 C997 1.409 . S
C995 H987 0.930 . S
C995 C996 1.355 . S
C995 C997 1.415 . S
C996 C995 1.355 . S
C996 C998 1.419 . S
C997 C992 1.425 . S
C997 C994 1.409 . S
C997 C995 1.415 . S
C998 H988 0.930 . S
C998 C996 1.419 . S
C998 C999 1.362 . S
C999 H989 0.930 . S
C999 C992 1.409 . S
C999 C998 1.362 . S
H1000 C1006 0.930 . S
H1001 C1009 0.930 . S
H1002 C1010 0.930 . S
H1003 C1011 0.930 . S
H1004 C1014 0.930 . S
H1005 C1015 0.930 . S
C1006 H1000 0.930 . S
C1006 C1007 1.355 . S
C1006 C1008 1.415 . S
C1007 C1006 1.355 . S
C1007 C1009 1.419 . S
C1008 C1006 1.415 . S
C1008 C1013 1.425 . S
C1008 C1015 1.409 . S
C1009 H1001 0.930 . S
C1009 C1007 1.419 . S
C1009 C1010 1.362 . S
C1010 H1002 0.930 . S
C1010 C1009 1.362 . S
C1010 C1013 1.409 . S
C1011 H1003 0.930 . S
C1011 C1012 1.355 . S
C1011 C1013 1.415 . S
C1012 C1011 1.355 . S
C1012 C1014 1.419 . S
C1013 C1008 1.425 . S
C1013 C1010 1.409 . S
C1013 C1011 1.415 . S
C1014 H1004 0.930 . S
C1014 C1012 1.419 . S
C1014 C1015 1.362 . S
C1015 H1005 0.930 . S
C1015 C1008 1.409 . S
C1015 C1014 1.362 . S
H1016 C1022 0.930 . S
H1017 C1025 0.930 . S
H1018 C1026 0.930 . S
H1019 C1027 0.930 . S
H1020 C1030 0.930 . S
H1021 C1031 0.930 . S
C1022 H1016 0.930 . S
C1022 C1023 1.355 . S
C1022 C1024 1.415 . S
C1023 C1022 1.355 . S
C1023 C1025 1.419 . S
C1024 C1022 1.415 . S
C1024 C1029 1.425 . S
C1024 C1031 1.409 . S
C1025 H1017 0.930 . S
C1025 C1023 1.419 . S
C1025 C1026 1.362 . S
C1026 H1018 0.930 . S
C1026 C1025 1.362 . S
C1026 C1029 1.409 . S
C1027 H1019 0.930 . S
C1027 C1028 1.355 . S
C1027 C1029 1.415 . S
C1028 C1027 1.355 . S
C1028 C1030 1.419 . S
C1029 C1024 1.425 . S
C1029 C1026 1.409 . S
C1029 C1027 1.415 . S
C1030 H1020 0.930 . S
C1030 C1028 1.419 . S
C1030 C1031 1.362 . S
C1031 H1021 0.930 . S
C1031 C1024 1.409 . S
C1031 C1030 1.362 . S
H1032 C1038 0.930 . S
H1033 C1041 0.930 . S
H1034 C1042 0.930 . S
H1035 C1043 0.930 . S
H1036 C1046 0.930 . S
H1037 C1047 0.930 . S
C1038 H1032 0.930 . S
C1038 C1039 1.355 . S
C1038 C1040 1.415 . S
C1039 C1038 1.355 . S
C1039 C1041 1.419 . S
C1040 C1038 1.415 . S
C1040 C1045 1.425 . S
C1040 C1047 1.409 . S
C1041 H1033 0.930 . S
C1041 C1039 1.419 . S
C1041 C1042 1.362 . S
C1042 H1034 0.930 . S
C1042 C1041 1.362 . S
C1042 C1045 1.409 . S
C1043 H1035 0.930 . S
C1043 C1044 1.355 . S
C1043 C1045 1.415 . S
C1044 C1043 1.355 . S
C1044 C1046 1.419 . S
C1045 C1040 1.425 . S
C1045 C1042 1.409 . S
C1045 C1043 1.415 . S
C1046 H1036 0.930 . S
C1046 C1044 1.419 . S
C1046 C1047 1.362 . S
C1047 H1037 0.930 . S
C1047 C1040 1.409 . S
C1047 C1046 1.362 . S
H1048 C1054 0.930 . S
H1049 C1057 0.930 . S
H1050 C1058 0.930 . S
H1051 C1059 0.930 . S
H1052 C1062 0.930 . S
H1053 C1063 0.930 . S
C1054 H1048 0.930 . S
C1054 C1055 1.355 . S
C1054 C1056 1.415 . S
C1055 C1054 1.355 . S
C1055 C1057 1.419 . S
C1056 C1054 1.415 . S
C1056 C1061 1.425 . S
C1056 C1063 1.409 . S
C1057 H1049 0.930 . S
C1057 C1055 1.419 . S
C1057 C1058 1.362 . S
C1058 H1050 0.930 . S
C1058 C1057 1.362 . S
C1058 C1061 1.409 . S
C1059 H1051 0.930 . S
C1059 C1060 1.355 . S
C1059 C1061 1.415 . S
C1060 C1059 1.355 . S
C1060 C1062 1.419 . S
C1061 C1056 1.425 . S
C1061 C1058 1.409 . S
C1061 C1059 1.415 . S
C1062 H1052 0.930 . S
C1062 C1060 1.419 . S
C1062 C1063 1.362 . S
C1063 H1053 0.930 . S
C1063 C1056 1.409 . S
C1063 C1062 1.362 . S
H1064 C1070 0.930 . S
H1065 C1073 0.930 . S
H1066 C1074 0.930 . S
H1067 C1075 0.930 . S
H1068 C1078 0.930 . S
H1069 C1079 0.930 . S
C1070 H1064 0.930 . S
C1070 C1071 1.355 . S
C1070 C1072 1.415 . S
C1071 C1070 1.355 . S
C1071 C1073 1.419 . S
C1072 C1070 1.415 . S
C1072 C1077 1.425 . S
C1072 C1079 1.409 . S
C1073 H1065 0.930 . S
C1073 C1071 1.419 . S
C1073 C1074 1.362 . S
C1074 H1066 0.930 . S
C1074 C1073 1.362 . S
C1074 C1077 1.409 . S
C1075 H1067 0.930 . S
C1075 C1076 1.355 . S
C1075 C1077 1.415 . S
C1076 C1075 1.355 . S
C1076 C1078 1.419 . S
C1077 C1072 1.425 . S
C1077 C1074 1.409 . S
C1077 C1075 1.415 . S
C1078 H1068 0.930 . S
C1078 C1076 1.419 . S
C1078 C1079 1.362 . S
C1079 H1069 0.930 . S
C1079 C1072 1.409 . S
C1079 C1078 1.362 . S
H1080 C1086 0.930 . S
H1081 C1089 0.930 . S
H1082 C1090 0.930 . S
H1083 C1091 0.930 . S
H1084 C1094 0.930 . S
H1085 C1095 0.930 . S
C1086 H1080 0.930 . S
C1086 C1087 1.355 . S
C1086 C1088 1.415 . S
C1087 C1086 1.355 . S
C1087 C1089 1.419 . S
C1088 C1086 1.415 . S
C1088 C1093 1.425 . S
C1088 C1095 1.409 . S
C1089 H1081 0.930 . S
C1089 C1087 1.419 . S
C1089 C1090 1.362 . S
C1090 H1082 0.930 . S
C1090 C1089 1.362 . S
C1090 C1093 1.409 . S
C1091 H1083 0.930 . S
C1091 C1092 1.355 . S
C1091 C1093 1.415 . S
C1092 C1091 1.355 . S
C1092 C1094 1.419 . S
C1093 C1088 1.425 . S
C1093 C1090 1.409 . S
C1093 C1091 1.415 . S
C1094 H1084 0.930 . S
C1094 C1092 1.419 . S
C1094 C1095 1.362 . S
C1095 H1085 0.930 . S
C1095 C1088 1.409 . S
C1095 C1094 1.362 . S
H1096 C1102 0.930 . S
H1097 C1105 0.930 . S
H1098 C1106 0.930 1_545 S
H1099 C1107 0.930 . S
H1100 C1110 0.930 . S
H1101 C1111 0.930 1_565 S
C1102 H1096 0.930 . S
C1102 C1103 1.355 . S
C1102 C1104 1.415 . S
C1103 C1102 1.355 . S
C1103 C1105 1.419 . S
C1104 C1102 1.415 . S
C1104 C1109 1.425 1_565 S
C1104 C1111 1.409 1_565 S
C1105 H1097 0.930 . S
C1105 C1103 1.419 . S
C1105 C1106 1.362 . S
C1106 H1098 0.930 1_565 S
C1106 C1105 1.362 . S
C1106 C1109 1.409 1_565 S
C1107 H1099 0.930 . S
C1107 C1108 1.355 . S
C1107 C1109 1.415 . S
C1108 C1107 1.355 . S
C1108 C1110 1.419 . S
C1109 C1104 1.425 1_545 S
C1109 C1106 1.409 1_545 S
C1109 C1107 1.415 . S
C1110 H1100 0.930 . S
C1110 C1108 1.419 . S
C1110 C1111 1.362 . S
C1111 H1101 0.930 1_545 S
C1111 C1104 1.409 1_545 S
C1111 C1110 1.362 . S
H1112 C1118 0.930 . S
H1113 C1121 0.930 . S
H1114 C1122 0.930 . S
H1115 C1123 0.930 . S
H1116 C1126 0.930 . S
H1117 C1127 0.930 . S
C1118 H1112 0.930 . S
C1118 C1119 1.355 . S
C1118 C1120 1.415 . S
C1119 C1118 1.355 . S
C1119 C1121 1.419 . S
C1120 C1118 1.415 . S
C1120 C1125 1.425 1_655 S
C1120 C1127 1.409 1_655 S
C1121 H1113 0.930 . S
C1121 C1119 1.419 . S
C1121 C1122 1.362 . S
C1122 H1114 0.930 . S
C1122 C1121 1.362 . S
C1122 C1125 1.409 1_655 S
C1123 H1115 0.930 . S
C1123 C1124 1.355 . S
C1123 C1125 1.415 . S
C1124 C1123 1.355 . S
C1124 C1126 1.419 . S
C1125 C1120 1.425 1_455 S
C1125 C1122 1.409 1_455 S
C1125 C1123 1.415 . S
C1126 H1116 0.930 . S
C1126 C1124 1.419 . S
C1126 C1127 1.362 . S
C1127 H1117 0.930 . S
C1127 C1120 1.409 1_455 S
C1127 C1126 1.362 . S
H1128 C1134 0.930 . S
H1129 C1137 0.930 . S
H1130 C1138 0.930 . S
H1131 C1139 0.930 . S
H1132 C1142 0.930 . S
H1133 C1143 0.930 . S
C1134 H1128 0.930 . S
C1134 C1135 1.355 . S
C1134 C1136 1.415 . S
C1135 C1134 1.355 . S
C1135 C1137 1.419 . S
C1136 C1134 1.415 . S
C1136 C1141 1.425 . S
C1136 C1143 1.409 . S
C1137 H1129 0.930 . S
C1137 C1135 1.419 . S
C1137 C1138 1.362 . S
C1138 H1130 0.930 . S
C1138 C1137 1.362 . S
C1138 C1141 1.409 . S
C1139 H1131 0.930 . S
C1139 C1140 1.355 . S
C1139 C1141 1.415 . S
C1140 C1139 1.355 . S
C1140 C1142 1.419 . S
C1141 C1136 1.425 . S
C1141 C1138 1.409 . S
C1141 C1139 1.415 . S
C1142 H1132 0.930 . S
C1142 C1140 1.419 . S
C1142 C1143 1.362 . S
C1143 H1133 0.930 . S
C1143 C1136 1.409 . S
C1143 C1142 1.362 . S
H1144 C1150 0.930 . S
H1145 C1153 0.930 . S
H1146 C1154 0.930 . S
H1147 C1155 0.930 . S
H1148 C1158 0.930 . S
H1149 C1159 0.930 . S
C1150 H1144 0.930 . S
C1150 C1151 1.355 . S
C1150 C1152 1.415 . S
C1151 C1150 1.355 . S
C1151 C1153 1.419 . S
C1152 C1150 1.415 . S
C1152 C1157 1.425 1_545 S
C1152 C1159 1.409 1_545 S
C1153 H1145 0.930 . S
C1153 C1151 1.419 . S
C1153 C1154 1.362 . S
C1154 H1146 0.930 . S
C1154 C1153 1.362 . S
C1154 C1157 1.409 1_545 S
C1155 H1147 0.930 . S
C1155 C1156 1.355 . S
C1155 C1157 1.415 . S
C1156 C1155 1.355 . S
C1156 C1158 1.419 . S
C1157 C1152 1.425 1_565 S
C1157 C1154 1.409 1_565 S
C1157 C1155 1.415 . S
C1158 H1148 0.930 . S
C1158 C1156 1.419 . S
C1158 C1159 1.362 . S
C1159 H1149 0.930 . S
C1159 C1152 1.409 1_565 S
C1159 C1158 1.362 . S
H1160 C1166 0.930 . S
H1161 C1169 0.930 . S
H1162 C1170 0.930 . S
H1163 C1171 0.930 . S
H1164 C1174 0.930 . S
H1165 C1175 0.930 . S
C1166 H1160 0.930 . S
C1166 C1167 1.355 . S
C1166 C1168 1.415 . S
C1167 C1166 1.355 . S
C1167 C1169 1.419 . S
C1168 C1166 1.415 . S
C1168 C1173 1.425 1_655 S
C1168 C1175 1.409 1_655 S
C1169 H1161 0.930 . S
C1169 C1167 1.419 . S
C1169 C1170 1.362 . S
C1170 H1162 0.930 . S
C1170 C1169 1.362 . S
C1170 C1173 1.409 1_655 S
C1171 H1163 0.930 . S
C1171 C1172 1.355 . S
C1171 C1173 1.415 . S
C1172 C1171 1.355 . S
C1172 C1174 1.419 . S
C1173 C1168 1.425 1_455 S
C1173 C1170 1.409 1_455 S
C1173 C1171 1.415 . S
C1174 H1164 0.930 . S
C1174 C1172 1.419 . S
C1174 C1175 1.362 . S
C1175 H1165 0.930 . S
C1175 C1168 1.409 1_455 S
C1175 C1174 1.362 . S
H1176 C1182 0.930 . S
H1177 C1185 0.930 . S
H1178 C1186 0.930 . S
H1179 C1187 0.930 . S
H1180 C1190 0.930 . S
H1181 C1191 0.930 . S
C1182 H1176 0.930 . S
C1182 C1183 1.355 . S
C1182 C1184 1.415 . S
C1183 C1182 1.355 . S
C1183 C1185 1.419 . S
C1184 C1182 1.415 . S
C1184 C1189 1.425 . S
C1184 C1191 1.409 . S
C1185 H1177 0.930 . S
C1185 C1183 1.419 . S
C1185 C1186 1.362 . S
C1186 H1178 0.930 . S
C1186 C1185 1.362 . S
C1186 C1189 1.409 . S
C1187 H1179 0.930 . S
C1187 C1188 1.355 . S
C1187 C1189 1.415 . S
C1188 C1187 1.355 . S
C1188 C1190 1.419 . S
C1189 C1184 1.425 . S
C1189 C1186 1.409 . S
C1189 C1187 1.415 . S
C1190 H1180 0.930 . S
C1190 C1188 1.419 . S
C1190 C1191 1.362 . S
C1191 H1181 0.930 . S
C1191 C1184 1.409 . S
C1191 C1190 1.362 . S
H1192 C1198 0.930 . S
H1193 C1201 0.930 . S
H1194 C1202 0.930 . S
H1195 C1203 0.930 . S
H1196 C1206 0.930 . S
H1197 C1207 0.930 . S
C1198 H1192 0.930 . S
C1198 C1199 1.355 . S
C1198 C1200 1.415 . S
C1199 C1198 1.355 . S
C1199 C1201 1.419 . S
C1200 C1198 1.415 . S
C1200 C1205 1.425 . S
C1200 C1207 1.409 . S
C1201 H1193 0.930 . S
C1201 C1199 1.419 . S
C1201 C1202 1.362 . S
C1202 H1194 0.930 . S
C1202 C1201 1.362 . S
C1202 C1205 1.409 . S
C1203 H1195 0.930 . S
C1203 C1204 1.355 . S
C1203 C1205 1.415 . S
C1204 C1203 1.355 . S
C1204 C1206 1.419 . S
C1205 C1200 1.425 . S
C1205 C1202 1.409 . S
C1205 C1203 1.415 . S
C1206 H1196 0.930 . S
C1206 C1204 1.419 . S
C1206 C1207 1.362 . S
C1207 H1197 0.930 . S
C1207 C1200 1.409 . S
C1207 C1206 1.362 . S
H1208 C1214 0.930 . S
H1209 C1217 0.930 . S
H1210 C1218 0.930 . S
H1211 C1219 0.930 . S
H1212 C1222 0.930 . S
H1213 C1223 0.930 . S
C1214 H1208 0.930 . S
C1214 C1215 1.355 . S
C1214 C1216 1.415 . S
C1215 C1214 1.355 . S
C1215 C1217 1.419 . S
C1216 C1214 1.415 . S
C1216 C1221 1.425 . S
C1216 C1223 1.409 . S
C1217 H1209 0.930 . S
C1217 C1215 1.419 . S
C1217 C1218 1.362 . S
C1218 H1210 0.930 . S
C1218 C1217 1.362 . S
C1218 C1221 1.409 . S
C1219 H1211 0.930 . S
C1219 C1220 1.355 . S
C1219 C1221 1.415 . S
C1220 C1219 1.355 . S
C1220 C1222 1.419 . S
C1221 C1216 1.425 . S
C1221 C1218 1.409 . S
C1221 C1219 1.415 . S
C1222 H1212 0.930 . S
C1222 C1220 1.419 . S
C1222 C1223 1.362 . S
C1223 H1213 0.930 . S
C1223 C1216 1.409 . S
C1223 C1222 1.362 . S
H1224 C1230 0.930 . S
H1225 C1233 0.930 . S
H1226 C1234 0.930 . S
H1227 C1235 0.930 . S
H1228 C1238 0.930 . S
H1229 C1239 0.930 . S
C1230 H1224 0.930 . S
C1230 C1231 1.355 . S
C1230 C1232 1.415 . S
C1231 C1230 1.355 . S
C1231 C1233 1.419 . S
C1232 C1230 1.415 . S
C1232 C1237 1.425 . S
C1232 C1239 1.409 . S
C1233 H1225 0.930 . S
C1233 C1231 1.419 . S
C1233 C1234 1.362 . S
C1234 H1226 0.930 . S
C1234 C1233 1.362 . S
C1234 C1237 1.409 . S
C1235 H1227 0.930 . S
C1235 C1236 1.355 . S
C1235 C1237 1.415 . S
C1236 C1235 1.355 . S
C1236 C1238 1.419 . S
C1237 C1232 1.425 . S
C1237 C1234 1.409 . S
C1237 C1235 1.415 . S
C1238 H1228 0.930 . S
C1238 C1236 1.419 . S
C1238 C1239 1.362 . S
C1239 H1229 0.930 . S
C1239 C1232 1.409 . S
C1239 C1238 1.362 . S
H1240 C1246 0.930 . S
H1241 C1249 0.930 . S
H1242 C1250 0.930 . S
H1243 C1251 0.930 . S
H1244 C1254 0.930 . S
H1245 C1255 0.930 . S
C1246 H1240 0.930 . S
C1246 C1247 1.355 . S
C1246 C1248 1.415 . S
C1247 C1246 1.355 . S
C1247 C1249 1.419 . S
C1248 C1246 1.415 . S
C1248 C1253 1.425 . S
C1248 C1255 1.409 . S
C1249 H1241 0.930 . S
C1249 C1247 1.419 . S
C1249 C1250 1.362 . S
C1250 H1242 0.930 . S
C1250 C1249 1.362 . S
C1250 C1253 1.409 . S
C1251 H1243 0.930 . S
C1251 C1252 1.355 . S
C1251 C1253 1.415 . S
C1252 C1251 1.355 . S
C1252 C1254 1.419 . S
C1253 C1248 1.425 . S
C1253 C1250 1.409 . S
C1253 C1251 1.415 . S
C1254 H1244 0.930 . S
C1254 C1252 1.419 . S
C1254 C1255 1.362 . S
C1255 H1245 0.930 . S
C1255 C1248 1.409 . S
C1255 C1254 1.362 . S
H1256 C1262 0.930 . S
H1257 C1265 0.930 . S
H1258 C1266 0.930 1_556 S
H1259 C1267 0.930 . S
H1260 C1270 0.930 . S
H1261 C1271 0.930 . S
C1262 H1256 0.930 . S
C1262 C1263 1.355 . S
C1262 C1264 1.415 . S
C1263 C1262 1.355 . S
C1263 C1265 1.419 . S
C1264 C1262 1.415 . S
C1264 C1269 1.425 . S
C1264 C1271 1.409 . S
C1265 H1257 0.930 . S
C1265 C1263 1.419 . S
C1265 C1266 1.362 . S
C1266 H1258 0.930 1_554 S
C1266 C1265 1.362 . S
C1266 C1269 1.409 . S
C1267 H1259 0.930 . S
C1267 C1268 1.355 . S
C1267 C1269 1.415 . S
C1268 C1267 1.355 . S
C1268 C1270 1.419 . S
C1269 C1264 1.425 . S
C1269 C1266 1.409 . S
C1269 C1267 1.415 . S
C1270 H1260 0.930 . S
C1270 C1268 1.419 . S
C1270 C1271 1.362 . S
C1271 H1261 0.930 . S
C1271 C1264 1.409 . S
C1271 C1270 1.362 . S
H1272 C1278 0.930 . S
H1273 C1281 0.930 . S
H1274 C1282 0.930 . S
H1275 C1283 0.930 . S
H1276 C1286 0.930 . S
H1277 C1287 0.930 1_554 S
C1278 H1272 0.930 . S
C1278 C1279 1.355 . S
C1278 C1280 1.415 . S
C1279 C1278 1.355 . S
C1279 C1281 1.419 . S
C1280 C1278 1.415 . S
C1280 C1285 1.425 . S
C1280 C1287 1.409 . S
C1281 H1273 0.930 . S
C1281 C1279 1.419 . S
C1281 C1282 1.362 . S
C1282 H1274 0.930 . S
C1282 C1281 1.362 . S
C1282 C1285 1.409 . S
C1283 H1275 0.930 . S
C1283 C1284 1.355 . S
C1283 C1285 1.415 . S
C1284 C1283 1.355 . S
C1284 C1286 1.419 . S
C1285 C1280 1.425 . S
C1285 C1282 1.409 . S
C1285 C1283 1.415 . S
C1286 H1276 0.930 . S
C1286 C1284 1.419 . S
C1286 C1287 1.362 . S
C1287 H1277 0.930 1_556 S
C1287 C1280 1.409 . S
C1287 C1286 1.362 . S
H1288 C1294 0.930 . S
H1289 C1297 0.930 . S
H1290 C1298 0.930 . S
H1291 C1299 0.930 . S
H1292 C1302 0.930 . S
H1293 C1303 0.930 . S
C1294 H1288 0.930 . S
C1294 C1295 1.355 . S
C1294 C1296 1.415 . S
C1295 C1294 1.355 . S
C1295 C1297 1.419 . S
C1296 C1294 1.415 . S
C1296 C1301 1.425 . S
C1296 C1303 1.409 . S
C1297 H1289 0.930 . S
C1297 C1295 1.419 . S
C1297 C1298 1.362 . S
C1298 H1290 0.930 . S
C1298 C1297 1.362 . S
C1298 C1301 1.409 . S
C1299 H1291 0.930 . S
C1299 C1300 1.355 . S
C1299 C1301 1.415 . S
C1300 C1299 1.355 . S
C1300 C1302 1.419 . S
C1301 C1296 1.425 . S
C1301 C1298 1.409 . S
C1301 C1299 1.415 . S
C1302 H1292 0.930 . S
C1302 C1300 1.419 . S
C1302 C1303 1.362 . S
C1303 H1293 0.930 . S
C1303 C1296 1.409 . S
C1303 C1302 1.362 . S
H1304 C1310 0.930 . S
H1305 C1313 0.930 . S
H1306 C1314 0.930 . S
H1307 C1315 0.930 . S
H1308 C1318 0.930 . S
H1309 C1319 0.930 . S
C1310 H1304 0.930 . S
C1310 C1311 1.355 . S
C1310 C1312 1.415 . S
C1311 C1310 1.355 . S
C1311 C1313 1.419 . S
C1312 C1310 1.415 . S
C1312 C1317 1.425 . S
C1312 C1319 1.409 . S
C1313 H1305 0.930 . S
C1313 C1311 1.419 . S
C1313 C1314 1.362 . S
C1314 H1306 0.930 . S
C1314 C1313 1.362 . S
C1314 C1317 1.409 . S
C1315 H1307 0.930 . S
C1315 C1316 1.355 . S
C1315 C1317 1.415 . S
C1316 C1315 1.355 . S
C1316 C1318 1.419 . S
C1317 C1312 1.425 . S
C1317 C1314 1.409 . S
C1317 C1315 1.415 . S
C1318 H1308 0.930 . S
C1318 C1316 1.419 . S
C1318 C1319 1.362 . S
C1319 H1309 0.930 . S
C1319 C1312 1.409 . S
C1319 C1318 1.362 . S
H1320 C1326 0.930 . S
H1321 C1329 0.930 . S
H1322 C1330 0.930 . S
H1323 C1331 0.930 . S
H1324 C1334 0.930 . S
H1325 C1335 0.930 . S
C1326 H1320 0.930 . S
C1326 C1327 1.355 . S
C1326 C1328 1.415 . S
C1327 C1326 1.355 . S
C1327 C1329 1.419 . S
C1328 C1326 1.415 . S
C1328 C1333 1.425 . S
C1328 C1335 1.409 . S
C1329 H1321 0.930 . S
C1329 C1327 1.419 . S
C1329 C1330 1.362 . S
C1330 H1322 0.930 . S
C1330 C1329 1.362 . S
C1330 C1333 1.409 . S
C1331 H1323 0.930 . S
C1331 C1332 1.355 . S
C1331 C1333 1.415 . S
C1332 C1331 1.355 . S
C1332 C1334 1.419 . S
C1333 C1328 1.425 . S
C1333 C1330 1.409 . S
C1333 C1331 1.415 . S
C1334 H1324 0.930 . S
C1334 C1332 1.419 . S
C1334 C1335 1.362 . S
C1335 H1325 0.930 . S
C1335 C1328 1.409 . S
C1335 C1334 1.362 . S
H1336 C1342 0.930 . S
H1337 C1345 0.930 . S
H1338 C1346 0.930 . S
H1339 C1347 0.930 . S
H1340 C1350 0.930 . S
H1341 C1351 0.930 . S
C1342 H1336 0.930 . S
C1342 C1343 1.355 . S
C1342 C1344 1.415 . S
C1343 C1342 1.355 . S
C1343 C1345 1.419 . S
C1344 C1342 1.415 . S
C1344 C1349 1.425 . S
C1344 C1351 1.409 . S
C1345 H1337 0.930 . S
C1345 C1343 1.419 . S
C1345 C1346 1.362 . S
C1346 H1338 0.930 . S
C1346 C1345 1.362 . S
C1346 C1349 1.409 . S
C1347 H1339 0.930 . S
C1347 C1348 1.355 . S
C1347 C1349 1.415 . S
C1348 C1347 1.355 . S
C1348 C1350 1.419 . S
C1349 C1344 1.425 . S
C1349 C1346 1.409 . S
C1349 C1347 1.415 . S
C1350 H1340 0.930 . S
C1350 C1348 1.419 . S
C1350 C1351 1.362 . S
C1351 H1341 0.930 . S
C1351 C1344 1.409 . S
C1351 C1350 1.362 . S
H1352 C1358 0.930 . S
H1353 C1361 0.930 . S
H1354 C1362 0.930 . S
H1355 C1363 0.930 . S
H1356 C1366 0.930 . S
H1357 C1367 0.930 . S
C1358 H1352 0.930 . S
C1358 C1359 1.355 . S
C1358 C1360 1.415 . S
C1359 C1358 1.355 . S
C1359 C1361 1.419 . S
C1360 C1358 1.415 . S
C1360 C1365 1.425 . S
C1360 C1367 1.409 . S
C1361 H1353 0.930 . S
C1361 C1359 1.419 . S
C1361 C1362 1.362 . S
C1362 H1354 0.930 . S
C1362 C1361 1.362 . S
C1362 C1365 1.409 . S
C1363 H1355 0.930 . S
C1363 C1364 1.355 . S
C1363 C1365 1.415 . S
C1364 C1363 1.355 . S
C1364 C1366 1.419 . S
C1365 C1360 1.425 . S
C1365 C1362 1.409 . S
C1365 C1363 1.415 . S
C1366 H1356 0.930 . S
C1366 C1364 1.419 . S
C1366 C1367 1.362 . S
C1367 H1357 0.930 . S
C1367 C1360 1.409 . S
C1367 C1366 1.362 . S
H1368 C1374 0.930 . S
H1369 C1377 0.930 . S
H1370 C1378 0.930 . S
H1371 C1379 0.930 . S
H1372 C1382 0.930 . S
H1373 C1383 0.930 . S
C1374 H1368 0.930 . S
C1374 C1375 1.355 . S
C1374 C1376 1.415 . S
C1375 C1374 1.355 . S
C1375 C1377 1.419 . S
C1376 C1374 1.415 . S
C1376 C1381 1.425 . S
C1376 C1383 1.409 . S
C1377 H1369 0.930 . S
C1377 C1375 1.419 . S
C1377 C1378 1.362 . S
C1378 H1370 0.930 . S
C1378 C1377 1.362 . S
C1378 C1381 1.409 . S
C1379 H1371 0.930 . S
C1379 C1380 1.355 . S
C1379 C1381 1.415 . S
C1380 C1379 1.355 . S
C1380 C1382 1.419 . S
C1381 C1376 1.425 . S
C1381 C1378 1.409 . S
C1381 C1379 1.415 . S
C1382 H1372 0.930 . S
C1382 C1380 1.419 . S
C1382 C1383 1.362 . S
C1383 H1373 0.930 . S
C1383 C1376 1.409 . S
C1383 C1382 1.362 . S
H1384 C1390 0.930 . S
H1385 C1393 0.930 . S
H1386 C1394 0.930 . S
H1387 C1395 0.930 . S
H1388 C1398 0.930 . S
H1389 C1399 0.930 . S
C1390 H1384 0.930 . S
C1390 C1391 1.355 . S
C1390 C1392 1.415 . S
C1391 C1390 1.355 . S
C1391 C1393 1.419 . S
C1392 C1390 1.415 . S
C1392 C1397 1.425 . S
C1392 C1399 1.409 . S
C1393 H1385 0.930 . S
C1393 C1391 1.419 . S
C1393 C1394 1.362 . S
C1394 H1386 0.930 . S
C1394 C1393 1.362 . S
C1394 C1397 1.409 . S
C1395 H1387 0.930 . S
C1395 C1396 1.355 . S
C1395 C1397 1.415 . S
C1396 C1395 1.355 . S
C1396 C1398 1.419 . S
C1397 C1392 1.425 . S
C1397 C1394 1.409 . S
C1397 C1395 1.415 . S
C1398 H1388 0.930 . S
C1398 C1396 1.419 . S
C1398 C1399 1.362 . S
C1399 H1389 0.930 . S
C1399 C1392 1.409 . S
C1399 C1398 1.362 . S
H1400 C1406 0.930 . S
H1401 C1409 0.930 . S
H1402 C1410 0.930 . S
H1403 C1411 0.930 . S
H1404 C1414 0.930 . S
H1405 C1415 0.930 . S
C1406 H1400 0.930 . S
C1406 C1407 1.355 . S
C1406 C1408 1.415 . S
C1407 C1406 1.355 . S
C1407 C1409 1.419 . S
C1408 C1406 1.415 . S
C1408 C1413 1.425 . S
C1408 C1415 1.409 . S
C1409 H1401 0.930 . S
C1409 C1407 1.419 . S
C1409 C1410 1.362 . S
C1410 H1402 0.930 . S
C1410 C1409 1.362 . S
C1410 C1413 1.409 . S
C1411 H1403 0.930 . S
C1411 C1412 1.355 . S
C1411 C1413 1.415 . S
C1412 C1411 1.355 . S
C1412 C1414 1.419 . S
C1413 C1408 1.425 . S
C1413 C1410 1.409 . S
C1413 C1411 1.415 . S
C1414 H1404 0.930 . S
C1414 C1412 1.419 . S
C1414 C1415 1.362 . S
C1415 H1405 0.930 . S
C1415 C1408 1.409 . S
C1415 C1414 1.362 . S
H1416 C1422 0.930 . S
H1417 C1425 0.930 . S
H1418 C1426 0.930 . S
H1419 C1427 0.930 . S
H1420 C1430 0.930 . S
H1421 C1431 0.930 . S
C1422 H1416 0.930 . S
C1422 C1423 1.355 . S
C1422 C1424 1.415 . S
C1423 C1422 1.355 . S
C1423 C1425 1.419 . S
C1424 C1422 1.415 . S
C1424 C1429 1.425 . S
C1424 C1431 1.409 . S
C1425 H1417 0.930 . S
C1425 C1423 1.419 . S
C1425 C1426 1.362 . S
C1426 H1418 0.930 . S
C1426 C1425 1.362 . S
C1426 C1429 1.409 . S
C1427 H1419 0.930 . S
C1427 C1428 1.355 . S
C1427 C1429 1.415 . S
C1428 C1427 1.355 . S
C1428 C1430 1.419 . S
C1429 C1424 1.425 . S
C1429 C1426 1.409 . S
C1429 C1427 1.415 . S
C1430 H1420 0.930 . S
C1430 C1428 1.419 . S
C1430 C1431 1.362 . S
C1431 H1421 0.930 . S
C1431 C1424 1.409 . S
C1431 C1430 1.362 . S
H1432 C1438 0.930 . S
H1433 C1441 0.930 . S
H1434 C1442 0.930 . S
H1435 C1443 0.930 . S
H1436 C1446 0.930 . S
H1437 C1447 0.930 . S
C1438 H1432 0.930 . S
C1438 C1439 1.355 . S
C1438 C1440 1.415 . S
C1439 C1438 1.355 . S
C1439 C1441 1.419 . S
C1440 C1438 1.415 . S
C1440 C1445 1.425 . S
C1440 C1447 1.409 . S
C1441 H1433 0.930 . S
C1441 C1439 1.419 . S
C1441 C1442 1.362 . S
C1442 H1434 0.930 . S
C1442 C1441 1.362 . S
C1442 C1445 1.409 . S
C1443 H1435 0.930 . S
C1443 C1444 1.355 . S
C1443 C1445 1.415 . S
C1444 C1443 1.355 . S
C1444 C1446 1.419 . S
C1445 C1440 1.425 . S
C1445 C1442 1.409 . S
C1445 C1443 1.415 . S
C1446 H1436 0.930 . S
C1446 C1444 1.419 . S
C1446 C1447 1.362 . S
C1447 H1437 0.930 . S
C1447 C1440 1.409 . S
C1447 C1446 1.362 . S
H1448 C1454 0.930 . S
H1449 C1457 0.930 . S
H1450 C1458 0.930 . S
H1451 C1459 0.930 . S
H1452 C1462 0.930 . S
H1453 C1463 0.930 . S
C1454 H1448 0.930 . S
C1454 C1455 1.355 . S
C1454 C1456 1.415 . S
C1455 C1454 1.355 . S
C1455 C1457 1.419 . S
C1456 C1454 1.415 . S
C1456 C1461 1.425 . S
C1456 C1463 1.409 . S
C1457 H1449 0.930 . S
C1457 C1455 1.419 . S
C1457 C1458 1.362 . S
C1458 H1450 0.930 . S
C1458 C1457 1.362 . S
C1458 C1461 1.409 . S
C1459 H1451 0.930 . S
C1459 C1460 1.355 . S
C1459 C1461 1.415 . S
C1460 C1459 1.355 . S
C1460 C1462 1.419 . S
C1461 C1456 1.425 . S
C1461 C1458 1.409 . S
C1461 C1459 1.415 . S
C1462 H1452 0.930 . S
C1462 C1460 1.419 . S
C1462 C1463 1.362 . S
C1463 H1453 0.930 . S
C1463 C1456 1.409 . S
C1463 C1462 1.362 . S
H1464 C1470 0.930 . S
H1465 C1473 0.930 . S
H1466 C1474 0.930 . S
H1467 C1475 0.930 . S
H1468 C1478 0.930 . S
H1469 C1479 0.930 . S
C1470 H1464 0.930 . S
C1470 C1471 1.355 . S
C1470 C1472 1.415 . S
C1471 C1470 1.355 . S
C1471 C1473 1.419 . S
C1472 C1470 1.415 . S
C1472 C1477 1.425 . S
C1472 C1479 1.409 . S
C1473 H1465 0.930 . S
C1473 C1471 1.419 . S
C1473 C1474 1.362 . S
C1474 H1466 0.930 . S
C1474 C1473 1.362 . S
C1474 C1477 1.409 . S
C1475 H1467 0.930 . S
C1475 C1476 1.355 . S
C1475 C1477 1.415 . S
C1476 C1475 1.355 . S
C1476 C1478 1.419 . S
C1477 C1472 1.425 . S
C1477 C1474 1.409 . S
C1477 C1475 1.415 . S
C1478 H1468 0.930 . S
C1478 C1476 1.419 . S
C1478 C1479 1.362 . S
C1479 H1469 0.930 . S
C1479 C1472 1.409 . S
C1479 C1478 1.362 . S
H1480 C1486 0.930 . S
H1481 C1489 0.930 . S
H1482 C1490 0.930 . S
H1483 C1491 0.930 . S
H1484 C1494 0.930 . S
H1485 C1495 0.930 . S
C1486 H1480 0.930 . S
C1486 C1487 1.355 . S
C1486 C1488 1.415 . S
C1487 C1486 1.355 . S
C1487 C1489 1.419 . S
C1488 C1486 1.415 . S
C1488 C1493 1.425 . S
C1488 C1495 1.409 . S
C1489 H1481 0.930 . S
C1489 C1487 1.419 . S
C1489 C1490 1.362 . S
C1490 H1482 0.930 . S
C1490 C1489 1.362 . S
C1490 C1493 1.409 . S
C1491 H1483 0.930 . S
C1491 C1492 1.355 . S
C1491 C1493 1.415 . S
C1492 C1491 1.355 . S
C1492 C1494 1.419 . S
C1493 C1488 1.425 . S
C1493 C1490 1.409 . S
C1493 C1491 1.415 . S
C1494 H1484 0.930 . S
C1494 C1492 1.419 . S
C1494 C1495 1.362 . S
C1495 H1485 0.930 . S
C1495 C1488 1.409 . S
C1495 C1494 1.362 . S
H1496 C1502 0.930 . S
H1497 C1505 0.930 . S
H1498 C1506 0.930 . S
H1499 C1507 0.930 . S
H1500 C1510 0.930 . S
H1501 C1511 0.930 . S
C1502 H1496 0.930 . S
C1502 C1503 1.355 . S
C1502 C1504 1.415 . S
C1503 C1502 1.355 . S
C1503 C1505 1.419 . S
C1504 C1502 1.415 . S
C1504 C1509 1.425 . S
C1504 C1511 1.409 . S
C1505 H1497 0.930 . S
C1505 C1503 1.419 . S
C1505 C1506 1.362 . S
C1506 H1498 0.930 . S
C1506 C1505 1.362 . S
C1506 C1509 1.409 . S
C1507 H1499 0.930 . S
C1507 C1508 1.355 . S
C1507 C1509 1.415 . S
C1508 C1507 1.355 . S
C1508 C1510 1.419 . S
C1509 C1504 1.425 . S
C1509 C1506 1.409 . S
C1509 C1507 1.415 . S
C1510 H1500 0.930 . S
C1510 C1508 1.419 . S
C1510 C1511 1.362 . S
C1511 H1501 0.930 . S
C1511 C1504 1.409 . S
C1511 C1510 1.362 . S
H1512 C1518 0.930 . S
H1513 C1521 0.930 . S
H1514 C1522 0.930 . S
H1515 C1523 0.930 . S
H1516 C1526 0.930 . S
H1517 C1527 0.930 . S
C1518 H1512 0.930 . S
C1518 C1519 1.355 . S
C1518 C1520 1.415 . S
C1519 C1518 1.355 . S
C1519 C1521 1.419 . S
C1520 C1518 1.415 . S
C1520 C1525 1.425 . S
C1520 C1527 1.409 . S
C1521 H1513 0.930 . S
C1521 C1519 1.419 . S
C1521 C1522 1.362 . S
C1522 H1514 0.930 . S
C1522 C1521 1.362 . S
C1522 C1525 1.409 . S
C1523 H1515 0.930 . S
C1523 C1524 1.355 . S
C1523 C1525 1.415 . S
C1524 C1523 1.355 . S
C1524 C1526 1.419 . S
C1525 C1520 1.425 . S
C1525 C1522 1.409 . S
C1525 C1523 1.415 . S
C1526 H1516 0.930 . S
C1526 C1524 1.419 . S
C1526 C1527 1.362 . S
C1527 H1517 0.930 . S
C1527 C1520 1.409 . S
C1527 C1526 1.362 . S
H1528 C1534 0.930 . S
H1529 C1537 0.930 . S
H1530 C1538 0.930 . S
H1531 C1539 0.930 . S
H1532 C1542 0.930 . S
H1533 C1543 0.930 . S
C1534 H1528 0.930 . S
C1534 C1535 1.355 . S
C1534 C1536 1.415 . S
C1535 C1534 1.355 . S
C1535 C1537 1.419 . S
C1536 C1534 1.415 . S
C1536 C1541 1.425 . S
C1536 C1543 1.409 . S
C1537 H1529 0.930 . S
C1537 C1535 1.419 . S
C1537 C1538 1.362 . S
C1538 H1530 0.930 . S
C1538 C1537 1.362 . S
C1538 C1541 1.409 . S
C1539 H1531 0.930 . S
C1539 C1540 1.355 . S
C1539 C1541 1.415 . S
C1540 C1539 1.355 . S
C1540 C1542 1.419 . S
C1541 C1536 1.425 . S
C1541 C1538 1.409 . S
C1541 C1539 1.415 . S
C1542 H1532 0.930 . S
C1542 C1540 1.419 . S
C1542 C1543 1.362 . S
C1543 H1533 0.930 . S
C1543 C1536 1.409 . S
C1543 C1542 1.362 . S
H1544 C1550 0.930 . S
H1545 C1553 0.930 . S
H1546 C1554 0.930 . S
H1547 C1555 0.930 . S
H1548 C1558 0.930 . S
H1549 C1559 0.930 . S
C1550 H1544 0.930 . S
C1550 C1551 1.355 . S
C1550 C1552 1.415 . S
C1551 C1550 1.355 . S
C1551 C1553 1.419 . S
C1552 C1550 1.415 . S
C1552 C1557 1.425 . S
C1552 C1559 1.409 . S
C1553 H1545 0.930 . S
C1553 C1551 1.419 . S
C1553 C1554 1.362 . S
C1554 H1546 0.930 . S
C1554 C1553 1.362 . S
C1554 C1557 1.409 . S
C1555 H1547 0.930 . S
C1555 C1556 1.355 . S
C1555 C1557 1.415 . S
C1556 C1555 1.355 . S
C1556 C1558 1.419 . S
C1557 C1552 1.425 . S
C1557 C1554 1.409 . S
C1557 C1555 1.415 . S
C1558 H1548 0.930 . S
C1558 C1556 1.419 . S
C1558 C1559 1.362 . S
C1559 H1549 0.930 . S
C1559 C1552 1.409 . S
C1559 C1558 1.362 . S
H1560 C1566 0.930 . S
H1561 C1569 0.930 . S
H1562 C1570 0.930 . S
H1563 C1571 0.930 . S
H1564 C1574 0.930 . S
H1565 C1575 0.930 . S
C1566 H1560 0.930 . S
C1566 C1567 1.355 . S
C1566 C1568 1.415 . S
C1567 C1566 1.355 . S
C1567 C1569 1.419 . S
C1568 C1566 1.415 . S
C1568 C1573 1.425 1_455 S
C1568 C1575 1.409 1_455 S
C1569 H1561 0.930 . S
C1569 C1567 1.419 . S
C1569 C1570 1.362 . S
C1570 H1562 0.930 . S
C1570 C1569 1.362 . S
C1570 C1573 1.409 1_455 S
C1571 H1563 0.930 . S
C1571 C1572 1.355 . S
C1571 C1573 1.415 . S
C1572 C1571 1.355 . S
C1572 C1574 1.419 . S
C1573 C1568 1.425 1_655 S
C1573 C1570 1.409 1_655 S
C1573 C1571 1.415 . S
C1574 H1564 0.930 . S
C1574 C1572 1.419 . S
C1574 C1575 1.362 . S
C1575 H1565 0.930 . S
C1575 C1568 1.409 1_655 S
C1575 C1574 1.362 . S
H1576 C1582 0.930 . S
H1577 C1585 0.930 . S
H1578 C1586 0.930 . S
H1579 C1587 0.930 . S
H1580 C1590 0.930 . S
H1581 C1591 0.930 . S
C1582 H1576 0.930 . S
C1582 C1583 1.355 . S
C1582 C1584 1.415 . S
C1583 C1582 1.355 . S
C1583 C1585 1.419 . S
C1584 C1582 1.415 . S
C1584 C1589 1.425 . S
C1584 C1591 1.409 . S
C1585 H1577 0.930 . S
C1585 C1583 1.419 . S
C1585 C1586 1.362 . S
C1586 H1578 0.930 . S
C1586 C1585 1.362 . S
C1586 C1589 1.409 . S
C1587 H1579 0.930 . S
C1587 C1588 1.355 . S
C1587 C1589 1.415 . S
C1588 C1587 1.355 . S
C1588 C1590 1.419 . S
C1589 C1584 1.425 . S
C1589 C1586 1.409 . S
C1589 C1587 1.415 . S
C1590 H1580 0.930 . S
C1590 C1588 1.419 . S
C1590 C1591 1.362 . S
C1591 H1581 0.930 . S
C1591 C1584 1.409 . S
C1591 C1590 1.362 . S
H1592 C1598 0.930 . S
H1593 C1601 0.930 . S
H1594 C1602 0.930 1_565 S
H1595 C1603 0.930 . S
H1596 C1606 0.930 . S
H1597 C1607 0.930 1_545 S
C1598 H1592 0.930 . S
C1598 C1599 1.355 . S
C1598 C1600 1.415 . S
C1599 C1598 1.355 . S
C1599 C1601 1.419 . S
C1600 C1598 1.415 . S
C1600 C1605 1.425 1_545 S
C1600 C1607 1.409 1_545 S
C1601 H1593 0.930 . S
C1601 C1599 1.419 . S
C1601 C1602 1.362 . S
C1602 H1594 0.930 1_545 S
C1602 C1601 1.362 . S
C1602 C1605 1.409 1_545 S
C1603 H1595 0.930 . S
C1603 C1604 1.355 . S
C1603 C1605 1.415 . S
C1604 C1603 1.355 . S
C1604 C1606 1.419 . S
C1605 C1600 1.425 1_565 S
C1605 C1602 1.409 1_565 S
C1605 C1603 1.415 . S
C1606 H1596 0.930 . S
C1606 C1604 1.419 . S
C1606 C1607 1.362 . S
C1607 H1597 0.930 1_565 S
C1607 C1600 1.409 1_565 S
C1607 C1606 1.362 . S
H1608 C1614 0.930 . S
H1609 C1617 0.930 . S
H1610 C1618 0.930 . S
H1611 C1619 0.930 . S
H1612 C1622 0.930 . S
H1613 C1623 0.930 . S
C1614 H1608 0.930 . S
C1614 C1615 1.355 . S
C1614 C1616 1.428 . S
C1615 C1614 1.355 . S
C1615 C1617 1.419 1_554 S
C1616 C1614 1.428 . S
C1616 C1621 1.413 1_544 S
C1616 C1623 1.402 1_545 S
C1617 H1609 0.930 . S
C1617 C1615 1.419 1_556 S
C1617 C1618 1.362 . S
C1618 H1610 0.930 . S
C1618 C1617 1.362 . S
C1618 C1621 1.402 1_545 S
C1619 H1611 0.930 . S
C1619 C1620 1.355 . S
C1619 C1621 1.428 . S
C1620 C1619 1.355 . S
C1620 C1622 1.419 1_556 S
C1621 C1616 1.413 1_566 S
C1621 C1618 1.402 1_565 S
C1621 C1619 1.428 . S
C1622 H1612 0.930 . S
C1622 C1620 1.419 1_554 S
C1622 C1623 1.362 . S
C1623 H1613 0.930 . S
C1623 C1616 1.402 1_565 S
C1623 C1622 1.362 . S
H1624 C1630 0.930 . S
H1625 C1633 0.930 . S
H1626 C1634 0.930 1_455 S
H1627 C1635 0.930 . S
H1628 C1638 0.930 . S
H1629 C1639 0.930 1_655 S
C1630 H1624 0.930 . S
C1630 C1631 1.355 1_556 S
C1630 C1632 1.415 . S
C1631 C1630 1.355 1_554 S
C1631 C1633 1.419 . S
C1632 C1630 1.415 . S
C1632 C1637 1.425 1_656 S
C1632 C1639 1.409 1_655 S
C1633 H1625 0.930 . S
C1633 C1631 1.419 . S
C1633 C1634 1.362 . S
C1634 H1626 0.930 1_655 S
C1634 C1633 1.362 . S
C1634 C1637 1.409 1_655 S
C1635 H1627 0.930 . S
C1635 C1636 1.355 1_554 S
C1635 C1637 1.415 . S
C1636 C1635 1.355 1_556 S
C1636 C1638 1.419 . S
C1637 C1632 1.425 1_454 S
C1637 C1634 1.409 1_455 S
C1637 C1635 1.415 . S
C1638 H1628 0.930 . S
C1638 C1636 1.419 . S
C1638 C1639 1.362 . S
C1639 H1629 0.930 1_455 S
C1639 C1632 1.409 1_455 S
C1639 C1638 1.362 . S
H1640 C1646 0.930 . S
H1641 C1649 0.930 . S
H1642 C1650 0.930 . S
H1643 C1651 0.930 . S
H1644 C1654 0.930 . S
H1645 C1655 0.930 . S
C1646 H1640 0.930 . S
C1646 C1647 1.355 . S
C1646 C1648 1.415 1_554 S
C1647 C1646 1.355 . S
C1647 C1649 1.419 . S
C1648 C1646 1.415 1_556 S
C1648 C1653 1.425 1_556 S
C1648 C1655 1.409 . S
C1649 H1641 0.930 . S
C1649 C1647 1.419 . S
C1649 C1650 1.362 . S
C1650 H1642 0.930 . S
C1650 C1649 1.362 . S
C1650 C1653 1.409 . S
C1651 H1643 0.930 . S
C1651 C1652 1.355 . S
C1651 C1653 1.415 1_556 S
C1652 C1651 1.355 . S
C1652 C1654 1.419 . S
C1653 C1648 1.425 1_554 S
C1653 C1650 1.409 . S
C1653 C1651 1.415 1_554 S
C1654 H1644 0.930 . S
C1654 C1652 1.419 . S
C1654 C1655 1.362 . S
C1655 H1645 0.930 . S
C1655 C1648 1.409 . S
C1655 C1654 1.362 . S
C511 C147 1.265 . S
C516 C3 1.250 . S
C527 C161 1.281 . S
C532 C17 1.199 . S
C543 C31 1.227 . S
C548 C133 1.274 . S
C559 C45 1.244 . S
C564 C119 1.245 . S
C575 C59 1.210 . S
C580 C91 1.256 . S
C591 C105 1.260 . S
C596 C73 1.258 . S
C607 C63 1.243 . S
C612 C87 1.253 . S
C623 C77 1.278 . S
C628 C101 1.212 . S
C639 C115 1.263 . S
C644 C49 1.256 . S
C655 C35 1.280 . S
C660 C129 1.200 . S
C671 C143 1.184 . S
C676 C7 1.273 . S
C687 C157 1.266 . S
C692 C21 1.244 . S
C703 C315 1.243 . S
C708 C171 1.262 . S
C719 C329 1.256 . S
C724 C185 1.210 . S
C735 C199 1.216 . S
C740 C301 1.254 . S
C751 C213 1.202 . S
C756 C287 1.260 1_556 S
C767 C227 1.268 . S
C772 C259 1.248 1_556 S
C783 C241 1.225 . S
C788 C273 1.250 1_556 S
C799 C231 1.280 . S
C804 C255 1.185 . S
C815 C245 1.265 . S
C820 C269 1.193 . S
C831 C217 1.280 . S
C836 C283 1.204 . S
C847 C203 1.281 . S
C852 C297 1.197 . S
C863 C175 1.246 . S
C868 C311 1.241 . S
C879 C189 1.276 . S
C884 C325 1.220 . S
C895 C339 1.265 . S
C900 C483 1.244 . S
C911 C497 1.281 . S
C916 C353 1.194 . S
C927 C469 1.244 . S
C932 C367 1.251 . S
C943 C381 1.214 . S
C948 C455 1.254 . S
C959 C395 1.183 . S
C964 C427 1.278 . S
C975 C409 1.211 . S
C980 C441 1.279 . S
C991 C399 1.244 . S
C996 C423 1.247 . S
C1007 C413 1.247 . S
C1012 C437 1.235 . S
C1023 C385 1.272 . S
C1028 C451 1.232 . S
C1039 C465 1.190 . S
C1044 C371 1.281 1_554 S
C1055 C343 1.274 1_554 S
C1060 C479 1.229 . S
C1071 C493 1.236 . S
C1076 C357 1.271 1_554 S
C1087 C50 1.509 . S
C1092 C8 1.515 . S
C1103 C64 1.523 . S
C1108 C22 1.516 . S
C1119 C36 1.522 . S
C1124 C78 1.509 . S
C1135 C134 1.524 . S
C1140 C92 1.516 . S
C1151 C148 1.511 . S
C1156 C106 1.523 . S
C1167 C162 1.521 . S
C1172 C120 1.509 . S
C1183 C218 1.519 . S
C1188 C176 1.509 . S
C1199 C232 1.523 . S
C1204 C190 1.510 . S
C1215 C204 1.521 . S
C1220 C246 1.509 . S
C1231 C260 1.509 . S
C1236 C302 1.518 . S
C1247 C316 1.510 . S
C1252 C274 1.515 . S
C1263 C288 1.511 . S
C1268 C330 1.513 . S
C1279 C386 1.513 . S
C1284 C344 1.512 . S
C1295 C400 1.520 . S
C1300 C358 1.508 . S
C1311 C372 1.523 . S
C1316 C414 1.511 . S
C1327 C428 1.512 . S
C1332 C470 1.512 . S
C1343 C442 1.508 . S
C1348 C484 1.518 . S
C1359 C456 1.509 . S
C1364 C498 1.522 . S
C1375 C9 1.471 . S
C1380 C261 1.471 . S
C1391 C275 1.480 . S
C1396 C23 1.480 . S
C1407 C289 1.501 . S
C1412 C37 1.501 . S
C1423 C471 1.493 . S
C1428 C51 1.493 . S
C1439 C485 1.496 . S
C1444 C65 1.496 . S
C1455 C499 1.473 . S
C1460 C79 1.473 . S
C1471 C93 1.489 . S
C1476 C345 1.489 . S
C1487 C359 1.493 . S
C1492 C107 1.493 . S
C1503 C373 1.464 . S
C1508 C121 1.464 . S
C1519 C135 1.461 . S
C1524 C219 1.461 . S
C1535 C149 1.499 . S
C1540 C233 1.499 . S
C1551 C163 1.507 . S
C1556 C247 1.507 . S
C1567 C429 1.478 . S
C1572 C177 1.478 . S
C1583 C443 1.502 . S
C1588 C191 1.502 . S
C1599 C205 1.512 . S
C1604 C457 1.512 . S
C1615 C303 1.462 . S
C1620 C387 1.462 . S
C1631 C317 1.512 . S
C1636 C401 1.512 . S
C1647 C331 1.474 . S
C1652 C415 1.474 . S
