# Generated by pormake.
# Topology ato, (4)-cn, num edge types: 1
# Building blocks:
#     Node 0, Type 0, BuildingBlock: GALJAG_clean_sbu_0, # of connection points: 4
#     Node 1, Type 0, BuildingBlock: GALJAG_clean_sbu_0, # of connection points: 4
#     Node 2, Type 0, BuildingBlock: GALJAG_clean_sbu_0, # of connection points: 4
#     Node 3, Type 0, BuildingBlock: GALJAG_clean_sbu_0, # of connection points: 4
#     Node 4, Type 0, BuildingBlock: GALJAG_clean_sbu_0, # of connection points: 4
#     Node 5, Type 0, BuildingBlock: GALJAG_clean_sbu_0, # of connection points: 4
#     Node 6, Type 0, BuildingBlock: GALJAG_clean_sbu_0, # of connection points: 4
#     Node 7, Type 0, BuildingBlock: GALJAG_clean_sbu_0, # of connection points: 4
#     Node 8, Type 0, BuildingBlock: GALJAG_clean_sbu_0, # of connection points: 4
#     Node 9, Type 0, BuildingBlock: GALJAG_clean_sbu_0, # of connection points: 4
#     Node 10, Type 0, BuildingBlock: GALJAG_clean_sbu_0, # of connection points: 4
#     Node 11, Type 0, BuildingBlock: GALJAG_clean_sbu_0, # of connection points: 4
#     Node 12, Type 0, BuildingBlock: GALJAG_clean_sbu_0, # of connection points: 4
#     Node 13, Type 0, BuildingBlock: GALJAG_clean_sbu_0, # of connection points: 4
#     Node 14, Type 0, BuildingBlock: GALJAG_clean_sbu_0, # of connection points: 4
#     Node 15, Type 0, BuildingBlock: GALJAG_clean_sbu_0, # of connection points: 4
#     Node 16, Type 0, BuildingBlock: GALJAG_clean_sbu_0, # of connection points: 4
#     Node 17, Type 0, BuildingBlock: GALJAG_clean_sbu_0, # of connection points: 4
#     Node 18, Type 0, BuildingBlock: GALJAG_clean_sbu_0, # of connection points: 4
#     Node 19, Type 0, BuildingBlock: GALJAG_clean_sbu_0, # of connection points: 4
#     Node 20, Type 0, BuildingBlock: GALJAG_clean_sbu_0, # of connection points: 4
#     Node 21, Type 0, BuildingBlock: GALJAG_clean_sbu_0, # of connection points: 4
#     Node 22, Type 0, BuildingBlock: GALJAG_clean_sbu_0, # of connection points: 4
#     Node 23, Type 0, BuildingBlock: GALJAG_clean_sbu_0, # of connection points: 4
#     Node 24, Type 0, BuildingBlock: GALJAG_clean_sbu_0, # of connection points: 4
#     Node 25, Type 0, BuildingBlock: GALJAG_clean_sbu_0, # of connection points: 4
#     Node 26, Type 0, BuildingBlock: GALJAG_clean_sbu_0, # of connection points: 4
#     Node 27, Type 0, BuildingBlock: GALJAG_clean_sbu_0, # of connection points: 4
#     Node 28, Type 0, BuildingBlock: GALJAG_clean_sbu_0, # of connection points: 4
#     Node 29, Type 0, BuildingBlock: GALJAG_clean_sbu_0, # of connection points: 4
#     Node 30, Type 0, BuildingBlock: GALJAG_clean_sbu_0, # of connection points: 4
#     Node 31, Type 0, BuildingBlock: GALJAG_clean_sbu_0, # of connection points: 4
#     Node 32, Type 0, BuildingBlock: GALJAG_clean_sbu_0, # of connection points: 4
#     Node 33, Type 0, BuildingBlock: GALJAG_clean_sbu_0, # of connection points: 4
#     Node 34, Type 0, BuildingBlock: GALJAG_clean_sbu_0, # of connection points: 4
#     Node 35, Type 0, BuildingBlock: GALJAG_clean_sbu_0, # of connection points: 4
#     Edge 36, Type (0, 0), BuildingBlock: UVAHIK_clean_linker_0, # of connection points: 2
#     Edge 37, Type (0, 0), BuildingBlock: UVAHIK_clean_linker_0, # of connection points: 2
#     Edge 38, Type (0, 0), BuildingBlock: UVAHIK_clean_linker_0, # of connection points: 2
#     Edge 39, Type (0, 0), BuildingBlock: UVAHIK_clean_linker_0, # of connection points: 2
#     Edge 40, Type (0, 0), BuildingBlock: UVAHIK_clean_linker_0, # of connection points: 2
#     Edge 41, Type (0, 0), BuildingBlock: UVAHIK_clean_linker_0, # of connection points: 2
#     Edge 42, Type (0, 0), BuildingBlock: UVAHIK_clean_linker_0, # of connection points: 2
#     Edge 43, Type (0, 0), BuildingBlock: UVAHIK_clean_linker_0, # of connection points: 2
#     Edge 44, Type (0, 0), BuildingBlock: UVAHIK_clean_linker_0, # of connection points: 2
#     Edge 45, Type (0, 0), BuildingBlock: UVAHIK_clean_linker_0, # of connection points: 2
#     Edge 46, Type (0, 0), BuildingBlock: UVAHIK_clean_linker_0, # of connection points: 2
#     Edge 47, Type (0, 0), BuildingBlock: UVAHIK_clean_linker_0, # of connection points: 2
#     Edge 48, Type (0, 0), BuildingBlock: UVAHIK_clean_linker_0, # of connection points: 2
#     Edge 49, Type (0, 0), BuildingBlock: UVAHIK_clean_linker_0, # of connection points: 2
#     Edge 50, Type (0, 0), BuildingBlock: UVAHIK_clean_linker_0, # of connection points: 2
#     Edge 51, Type (0, 0), BuildingBlock: UVAHIK_clean_linker_0, # of connection points: 2
#     Edge 52, Type (0, 0), BuildingBlock: UVAHIK_clean_linker_0, # of connection points: 2
#     Edge 53, Type (0, 0), BuildingBlock: UVAHIK_clean_linker_0, # of connection points: 2
#     Edge 54, Type (0, 0), BuildingBlock: UVAHIK_clean_linker_0, # of connection points: 2
#     Edge 55, Type (0, 0), BuildingBlock: UVAHIK_clean_linker_0, # of connection points: 2
#     Edge 56, Type (0, 0), BuildingBlock: UVAHIK_clean_linker_0, # of connection points: 2
#     Edge 57, Type (0, 0), BuildingBlock: UVAHIK_clean_linker_0, # of connection points: 2
#     Edge 58, Type (0, 0), BuildingBlock: UVAHIK_clean_linker_0, # of connection points: 2
#     Edge 59, Type (0, 0), BuildingBlock: UVAHIK_clean_linker_0, # of connection points: 2
#     Edge 60, Type (0, 0), BuildingBlock: UVAHIK_clean_linker_0, # of connection points: 2
#     Edge 61, Type (0, 0), BuildingBlock: UVAHIK_clean_linker_0, # of connection points: 2
#     Edge 62, Type (0, 0), BuildingBlock: UVAHIK_clean_linker_0, # of connection points: 2
#     Edge 63, Type (0, 0), BuildingBlock: UVAHIK_clean_linker_0, # of connection points: 2
#     Edge 64, Type (0, 0), BuildingBlock: UVAHIK_clean_linker_0, # of connection points: 2
#     Edge 65, Type (0, 0), BuildingBlock: UVAHIK_clean_linker_0, # of connection points: 2
#     Edge 66, Type (0, 0), BuildingBlock: UVAHIK_clean_linker_0, # of connection points: 2
#     Edge 67, Type (0, 0), BuildingBlock: UVAHIK_clean_linker_0, # of connection points: 2
#     Edge 68, Type (0, 0), BuildingBlock: UVAHIK_clean_linker_0, # of connection points: 2
#     Edge 69, Type (0, 0), BuildingBlock: UVAHIK_clean_linker_0, # of connection points: 2
#     Edge 70, Type (0, 0), BuildingBlock: UVAHIK_clean_linker_0, # of connection points: 2
#     Edge 71, Type (0, 0), BuildingBlock: UVAHIK_clean_linker_0, # of connection points: 2
#     Edge 72, Type (0, 0), BuildingBlock: UVAHIK_clean_linker_0, # of connection points: 2
#     Edge 73, Type (0, 0), BuildingBlock: UVAHIK_clean_linker_0, # of connection points: 2
#     Edge 74, Type (0, 0), BuildingBlock: UVAHIK_clean_linker_0, # of connection points: 2
#     Edge 75, Type (0, 0), BuildingBlock: UVAHIK_clean_linker_0, # of connection points: 2
#     Edge 76, Type (0, 0), BuildingBlock: UVAHIK_clean_linker_0, # of connection points: 2
#     Edge 77, Type (0, 0), BuildingBlock: UVAHIK_clean_linker_0, # of connection points: 2
#     Edge 78, Type (0, 0), BuildingBlock: UVAHIK_clean_linker_0, # of connection points: 2
#     Edge 79, Type (0, 0), BuildingBlock: UVAHIK_clean_linker_0, # of connection points: 2
#     Edge 80, Type (0, 0), BuildingBlock: UVAHIK_clean_linker_0, # of connection points: 2
#     Edge 81, Type (0, 0), BuildingBlock: UVAHIK_clean_linker_0, # of connection points: 2
#     Edge 82, Type (0, 0), BuildingBlock: UVAHIK_clean_linker_0, # of connection points: 2
#     Edge 83, Type (0, 0), BuildingBlock: UVAHIK_clean_linker_0, # of connection points: 2
#     Edge 84, Type (0, 0), BuildingBlock: UVAHIK_clean_linker_0, # of connection points: 2
#     Edge 85, Type (0, 0), BuildingBlock: UVAHIK_clean_linker_0, # of connection points: 2
#     Edge 86, Type (0, 0), BuildingBlock: UVAHIK_clean_linker_0, # of connection points: 2
#     Edge 87, Type (0, 0), BuildingBlock: UVAHIK_clean_linker_0, # of connection points: 2
#     Edge 88, Type (0, 0), BuildingBlock: UVAHIK_clean_linker_0, # of connection points: 2
#     Edge 89, Type (0, 0), BuildingBlock: UVAHIK_clean_linker_0, # of connection points: 2
#     Edge 90, Type (0, 0), BuildingBlock: UVAHIK_clean_linker_0, # of connection points: 2
#     Edge 91, Type (0, 0), BuildingBlock: UVAHIK_clean_linker_0, # of connection points: 2
#     Edge 92, Type (0, 0), BuildingBlock: UVAHIK_clean_linker_0, # of connection points: 2
#     Edge 93, Type (0, 0), BuildingBlock: UVAHIK_clean_linker_0, # of connection points: 2
#     Edge 94, Type (0, 0), BuildingBlock: UVAHIK_clean_linker_0, # of connection points: 2
#     Edge 95, Type (0, 0), BuildingBlock: UVAHIK_clean_linker_0, # of connection points: 2
#     Edge 96, Type (0, 0), BuildingBlock: UVAHIK_clean_linker_0, # of connection points: 2
#     Edge 97, Type (0, 0), BuildingBlock: UVAHIK_clean_linker_0, # of connection points: 2
#     Edge 98, Type (0, 0), BuildingBlock: UVAHIK_clean_linker_0, # of connection points: 2
#     Edge 99, Type (0, 0), BuildingBlock: UVAHIK_clean_linker_0, # of connection points: 2
#     Edge 100, Type (0, 0), BuildingBlock: UVAHIK_clean_linker_0, # of connection points: 2
#     Edge 101, Type (0, 0), BuildingBlock: UVAHIK_clean_linker_0, # of connection points: 2
#     Edge 102, Type (0, 0), BuildingBlock: UVAHIK_clean_linker_0, # of connection points: 2
#     Edge 103, Type (0, 0), BuildingBlock: UVAHIK_clean_linker_0, # of connection points: 2
#     Edge 104, Type (0, 0), BuildingBlock: UVAHIK_clean_linker_0, # of connection points: 2
#     Edge 105, Type (0, 0), BuildingBlock: UVAHIK_clean_linker_0, # of connection points: 2
#     Edge 106, Type (0, 0), BuildingBlock: UVAHIK_clean_linker_0, # of connection points: 2
#     Edge 107, Type (0, 0), BuildingBlock: UVAHIK_clean_linker_0, # of connection points: 2
# Relax obj value: 0.074
# Max RMSD: 0.099
# Mean RMSD: 0.099
data_MOF--net-ato--node1-GALJAG_clean_sbu_0--edge1-UVAHIK_clean_linker_0
_symmetry_space_group_name_H-M    P1
_symmetry_Int_Tables_number       1
_symmetry_cell_setting            triclinic
loop_
_symmetry_equiv_pos_as_xyz
'x, y, z'
_cell_length_a     139.96148
_cell_length_b     139.9627
_cell_length_c     27.522317
_cell_angle_alpha  89.997599
_cell_angle_beta   90.022703
_cell_angle_gamma 120.00764
loop_
_atom_site_label
_atom_site_type_symbol
_atom_site_fract_x
_atom_site_fract_y
_atom_site_fract_z
_atom_type_partial_charge
In0 In 0.2525 0.05654 0.25686 0.0
O1 O 0.25467 0.04931 0.3276 0.0
O2 O 0.23836 0.04362 0.30252 0.0
C3 C 0.27414 0.06888 0.23505 0.0
C4 C 0.24455 0.04171 0.18372 0.0
C5 C 0.24673 0.072 0.2717 0.0
O6 O 0.2706 0.06194 0.2692 0.0
O7 O 0.26677 0.06966 0.21197 0.0
O8 O 0.24401 0.06602 0.23427 0.0
O9 O 0.25239 0.07019 0.30213 0.0
C10 C 0.24448 0.04291 0.33415 0.0
O11 O 0.24027 0.04743 0.1957 0.0
O12 O 0.25293 0.04358 0.20814 0.0
In13 In 0.93853 0.19346 0.25091 0.0
O14 O 0.94626 0.2031 0.32087 0.0
O15 O 0.95215 0.19284 0.2932 0.0
C16 C 0.92543 0.20191 0.22951 0.0
C17 C 0.95344 0.20152 0.17868 0.0
C18 C 0.92349 0.17194 0.26388 0.0
O19 O 0.93006 0.20329 0.27034 0.0
O20 O 0.92736 0.19622 0.19977 0.0
O21 O 0.92939 0.17551 0.22636 0.0
O22 O 0.92522 0.17921 0.29519 0.0
C23 C 0.95295 0.1996 0.32538 0.0
O24 O 0.94815 0.19139 0.18928 0.0
O25 O 0.95112 0.20757 0.20424 0.0
In26 In 0.80122 0.7443 0.24217 0.0
O27 O 0.80445 0.75953 0.19847 0.0
O28 O 0.79318 0.74378 0.16964 0.0
C29 C 0.82224 0.74978 0.2605 0.0
C30 C 0.79263 0.75084 0.3137 0.0
C31 C 0.7919 0.72232 0.22943 0.0
O32 O 0.8194 0.75253 0.2218 0.0
O33 O 0.81448 0.74432 0.28999 0.0
O34 O 0.78898 0.72645 0.26306 0.0
O35 O 0.79955 0.72926 0.20277 0.0
C36 C 0.79786 0.75409 0.16474 0.0
O37 O 0.78671 0.7438 0.28226 0.0
O38 O 0.80283 0.75439 0.30964 0.0
In39 In 0.05502 0.25199 0.75032 0.0
O40 O 0.04486 0.23983 0.80968 0.0
O41 O 0.04254 0.25356 0.79764 0.0
C42 C 0.07031 0.24574 0.7413 0.0
C43 C 0.04067 0.24371 0.67564 0.0
C44 C 0.06811 0.2737 0.76841 0.0
O45 O 0.06489 0.24435 0.77974 0.0
O46 O 0.06794 0.25016 0.70706 0.0
O47 O 0.06411 0.27007 0.72687 0.0
O48 O 0.06552 0.2664 0.80058 0.0
C49 C 0.03982 0.24486 0.82143 0.0
O50 O 0.04692 0.25394 0.68172 0.0
O51 O 0.04187 0.23771 0.70632 0.0
In52 In 0.74306 0.80174 0.74368 0.0
O53 O 0.74078 0.79322 0.67041 0.0
O54 O 0.75711 0.80315 0.6969 0.0
C55 C 0.72165 0.7916 0.77065 0.0
C56 C 0.75184 0.79518 0.81437 0.0
C57 C 0.74849 0.82285 0.7274 0.0
O58 O 0.72504 0.78844 0.73509 0.0
O59 O 0.72905 0.79994 0.79261 0.0
O60 O 0.75268 0.82005 0.76113 0.0
O61 O 0.74154 0.81498 0.70156 0.0
C62 C 0.75094 0.79683 0.6639 0.0
O63 O 0.75427 0.80509 0.80932 0.0
O64 O 0.74484 0.78857 0.78441 0.0
In65 In 0.19402 0.94016 0.75576 0.0
O66 O 0.20765 0.9515 0.70336 0.0
O67 O 0.19177 0.94965 0.69377 0.0
C68 C 0.20214 0.92665 0.77372 0.0
C69 C 0.20026 0.95527 0.82722 0.0
C70 C 0.17253 0.9248 0.74752 0.0
O71 O 0.20219 0.93031 0.73171 0.0
O72 O 0.1979 0.92971 0.80621 0.0
O73 O 0.17642 0.93086 0.78456 0.0
O74 O 0.17948 0.92653 0.71456 0.0
C75 C 0.20165 0.95423 0.67982 0.0
O76 O 0.19118 0.95162 0.80529 0.0
O77 O 0.20608 0.95123 0.81331 0.0
In78 In 0.74288 0.93954 0.74648 0.0
O79 O 0.75332 0.947 0.81462 0.0
O80 O 0.74555 0.95523 0.78291 0.0
C81 C 0.74876 0.92421 0.7299 0.0
C82 C 0.75015 0.95292 0.66844 0.0
C83 C 0.72153 0.92699 0.77291 0.0
O84 O 0.75327 0.93152 0.76227 0.0
O85 O 0.74136 0.92471 0.70575 0.0
O86 O 0.72442 0.93013 0.72975 0.0
O87 O 0.72938 0.93019 0.80268 0.0
C88 C 0.75169 0.95509 0.8161 0.0
O89 O 0.74044 0.94888 0.68446 0.0
O90 O 0.75611 0.95 0.69111 0.0
In91 In 0.055 0.80256 0.75116 0.0
O92 O 0.04506 0.78968 0.69333 0.0
O93 O 0.04472 0.80467 0.69241 0.0
C94 C 0.06839 0.79446 0.77246 0.0
C95 C 0.03942 0.79584 0.82073 0.0
C96 C 0.07041 0.82404 0.7429 0.0
O97 O 0.06505 0.79444 0.72981 0.0
O98 O 0.06506 0.79866 0.80402 0.0
O99 O 0.0644 0.82014 0.78 0.0
O100 O 0.0686 0.81711 0.70971 0.0
C101 C 0.04134 0.7953 0.67374 0.0
O102 O 0.04393 0.80543 0.80298 0.0
O103 O 0.04281 0.78972 0.80354 0.0
In104 In 0.19417 0.25306 0.75019 0.0
O105 O 0.20363 0.25481 0.67996 0.0
O106 O 0.19245 0.23866 0.70542 0.0
C107 C 0.20344 0.27479 0.76964 0.0
C108 C 0.20218 0.24543 0.81958 0.0
C109 C 0.17271 0.24725 0.74228 0.0
O110 O 0.20396 0.27121 0.72818 0.0
O111 O 0.19821 0.26741 0.801 0.0
O112 O 0.17675 0.24568 0.78031 0.0
O113 O 0.17948 0.25172 0.70798 0.0
C114 C 0.19945 0.24455 0.67384 0.0
O115 O 0.19207 0.24069 0.80871 0.0
O116 O 0.20824 0.25411 0.7958 0.0
In117 In 0.9385 0.74329 0.25154 0.0
O118 O 0.94825 0.75655 0.19477 0.0
O119 O 0.95116 0.74307 0.2008 0.0
C120 C 0.92304 0.74904 0.26716 0.0
C121 C 0.9529 0.75044 0.32621 0.0
C122 C 0.92525 0.72179 0.22974 0.0
O123 O 0.92832 0.75104 0.22779 0.0
O124 O 0.92561 0.74418 0.29876 0.0
O125 O 0.92906 0.72503 0.27189 0.0
O126 O 0.92806 0.7294 0.19888 0.0
C127 C 0.95355 0.75201 0.17989 0.0
O128 O 0.94842 0.74067 0.31055 0.0
O129 O 0.94992 0.7565 0.30494 0.0
In130 In 0.25147 0.19403 0.25155 0.0
O131 O 0.25294 0.20365 0.32093 0.0
O132 O 0.23698 0.19358 0.29094 0.0
C133 C 0.27317 0.20279 0.23293 0.0
C134 C 0.24481 0.20162 0.17671 0.0
C135 C 0.24528 0.17267 0.2673 0.0
O136 O 0.26962 0.2044 0.27247 0.0
O137 O 0.26577 0.19672 0.20301 0.0
O138 O 0.243 0.17597 0.22877 0.0
O139 O 0.2506 0.18012 0.29819 0.0
C140 C 0.24274 0.20026 0.32375 0.0
O141 O 0.23997 0.19155 0.18842 0.0
O142 O 0.25308 0.20784 0.20246 0.0
In143 In 0.80055 0.05578 0.24788 0.0
O144 O 0.8036 0.04828 0.18019 0.0
O145 O 0.78732 0.04059 0.20887 0.0
C146 C 0.82197 0.07089 0.26172 0.0
C147 C 0.79433 0.0418 0.3239 0.0
C148 C 0.79176 0.06864 0.22655 0.0
O149 O 0.81868 0.06423 0.22651 0.0
O150 O 0.81447 0.06987 0.29025 0.0
O151 O 0.79217 0.06559 0.26922 0.0
O152 O 0.7958 0.06523 0.19467 0.0
C153 C 0.79374 0.04053 0.17688 0.0
O154 O 0.7887 0.04596 0.30884 0.0
O155 O 0.80326 0.04492 0.30142 0.0
In156 In 0.91802 0.3906 0.59021 0.0
O157 O 0.90502 0.38074 0.53266 0.0
O158 O 0.91841 0.37777 0.54109 0.0
C159 C 0.91194 0.40588 0.60368 0.0
C160 C 0.91118 0.37649 0.66605 0.0
C161 C 0.93943 0.40402 0.5674 0.0
O162 O 0.90916 0.39975 0.56669 0.0
O163 O 0.91772 0.40425 0.63409 0.0
O164 O 0.93627 0.4006 0.61008 0.0
O165 O 0.93179 0.40073 0.53639 0.0
C166 C 0.90958 0.37537 0.51912 0.0
O167 O 0.92089 0.38095 0.64973 0.0
O168 O 0.90502 0.37936 0.64497 0.0
In169 In 0.60551 0.52726 0.59019 0.0
O170 O 0.61342 0.52589 0.52018 0.0
O171 O 0.6202 0.54167 0.55365 0.0
C172 C 0.59044 0.50571 0.60123 0.0
C173 C 0.61953 0.53196 0.66522 0.0
C174 C 0.59281 0.53632 0.57155 0.0
O175 O 0.59716 0.50926 0.56631 0.0
O176 O 0.59137 0.51302 0.63077 0.0
O177 O 0.5969 0.53677 0.61292 0.0
O178 O 0.59508 0.53126 0.53984 0.0
C179 C 0.62069 0.53599 0.51921 0.0
O180 O 0.61373 0.53648 0.66004 0.0
O181 O 0.61803 0.52488 0.63333 0.0
In182 In 0.46714 0.07709 0.57885 0.0
O183 O 0.45538 0.07536 0.63968 0.0
O184 O 0.47014 0.09082 0.63178 0.0
C185 C 0.45764 0.05548 0.55566 0.0
C186 C 0.46095 0.08638 0.50927 0.0
C187 C 0.48816 0.08218 0.59498 0.0
O188 O 0.45799 0.05878 0.5986 0.0
O189 O 0.46212 0.06306 0.52455 0.0
O190 O 0.4852 0.08491 0.55657 0.0
O191 O 0.48052 0.07693 0.62523 0.0
C192 C 0.46118 0.08517 0.65437 0.0
O193 O 0.47089 0.08888 0.51499 0.0
O194 O 0.45422 0.07914 0.53807 0.0
In195 In 0.72168 0.5853 0.08825 0.0
O196 O 0.71431 0.57625 0.15945 0.0
O197 O 0.70742 0.58529 0.12754 0.0
C198 C 0.73659 0.57876 0.07402 0.0
C199 C 0.70793 0.57575 0.01258 0.0
C200 C 0.73402 0.60707 0.10746 0.0
O201 O 0.72994 0.57541 0.10927 0.0
O202 O 0.73566 0.58535 0.04576 0.0
O203 O 0.7271 0.60336 0.07322 0.0
O204 O 0.73479 0.59983 0.13156 0.0
C205 C 0.70714 0.57919 0.16186 0.0
O206 O 0.71512 0.58587 0.01297 0.0
O207 O 0.70789 0.57046 0.04972 0.0
In208 In 0.41026 0.13622 0.07705 0.0
O209 O 0.40812 0.12557 0.01101 0.0
O210 O 0.42414 0.13912 0.02504 0.0
C211 C 0.38865 0.12658 0.10025 0.0
C212 C 0.41862 0.12946 0.14897 0.0
C213 C 0.4161 0.15737 0.05914 0.0
O214 O 0.39203 0.12455 0.06129 0.0
O215 O 0.39616 0.1335 0.12754 0.0
O216 O 0.42095 0.15468 0.0902 0.0
O217 O 0.40835 0.14939 0.03675 0.0
C218 C 0.41812 0.13091 0.99854 0.0
O219 O 0.41941 0.13884 0.1491 0.0
O220 O 0.41349 0.12349 0.11315 0.0
In221 In 0.86074 0.27407 0.08943 0.0
O222 O 0.85765 0.28501 0.14107 0.0
O223 O 0.87339 0.28618 0.1427 0.0
C224 C 0.83927 0.25856 0.08198 0.0
C225 C 0.86802 0.28792 0.01269 0.0
C226 C 0.86896 0.26068 0.10854 0.0
O227 O 0.84332 0.26426 0.11983 0.0
O228 O 0.84604 0.26074 0.04772 0.0
O229 O 0.86838 0.26369 0.06593 0.0
O230 O 0.86537 0.26438 0.14119 0.0
C231 C 0.86719 0.28951 0.15947 0.0
O232 O 0.87373 0.28433 0.03252 0.0
O233 O 0.85857 0.28431 0.03082 0.0
In234 In 0.40943 0.27332 0.07833 0.0
O235 O 0.40697 0.28285 0.01725 0.0
O236 O 0.42252 0.28369 0.02228 0.0
C237 C 0.38802 0.26098 0.10436 0.0
C238 C 0.41842 0.28876 0.14831 0.0
C239 C 0.41542 0.25805 0.06219 0.0
O240 O 0.39101 0.26358 0.06085 0.0
O241 O 0.39581 0.26458 0.13465 0.0
O242 O 0.42005 0.26553 0.09377 0.0
O243 O 0.40783 0.25833 0.03868 0.0
C244 C 0.4166 0.28678 0.00051 0.0
O245 O 0.4196 0.28038 0.14748 0.0
O246 O 0.41263 0.28924 0.11429 0.0
In247 In 0.72194 0.13554 0.08114 0.0
O248 O 0.71254 0.12297 0.02152 0.0
O249 O 0.71215 0.13794 0.02093 0.0
C250 C 0.73494 0.12705 0.10378 0.0
C251 C 0.70562 0.12883 0.14718 0.0
C252 C 0.73758 0.157 0.07576 0.0
O253 O 0.73222 0.12762 0.06061 0.0
O254 O 0.73116 0.13082 0.13532 0.0
O255 O 0.73165 0.15283 0.11291 0.0
O256 O 0.73556 0.15035 0.04112 0.0
C257 C 0.70896 0.12867 0.00151 0.0
O258 O 0.71069 0.13857 0.13108 0.0
O259 O 0.70885 0.12256 0.13031 0.0
In260 In 0.85921 0.58529 0.07917 0.0
O261 O 0.85681 0.57478 0.14645 0.0
O262 O 0.87281 0.58341 0.11488 0.0
C263 C 0.8377 0.57885 0.06785 0.0
C264 C 0.865 0.5778 0.00081 0.0
C265 C 0.86794 0.60684 0.10216 0.0
O266 O 0.84115 0.57524 0.10158 0.0
O267 O 0.8451 0.58562 0.03968 0.0
O268 O 0.86735 0.60353 0.05907 0.0
O269 O 0.8641 0.59929 0.1336 0.0
C270 C 0.86672 0.57696 0.14773 0.0
O271 O 0.87071 0.58754 0.01634 0.0
O272 O 0.85621 0.57189 0.0241 0.0
In273 In 0.60573 0.07803 0.58092 0.0
O274 O 0.61618 0.07541 0.63717 0.0
O275 O 0.61753 0.0912 0.63369 0.0
C276 C 0.59236 0.05649 0.56048 0.0
C277 C 0.62004 0.08656 0.50643 0.0
C278 C 0.59021 0.08362 0.59848 0.0
O279 O 0.59648 0.05981 0.60214 0.0
O280 O 0.59493 0.06403 0.5295 0.0
O281 O 0.5954 0.08573 0.55884 0.0
O282 O 0.59294 0.07879 0.62954 0.0
C283 C 0.62073 0.08514 0.65328 0.0
O284 O 0.61531 0.09142 0.52434 0.0
O285 O 0.6175 0.07745 0.52594 0.0
In286 In 0.91888 0.52877 0.58154 0.0
O287 O 0.90967 0.52622 0.50976 0.0
O288 O 0.91696 0.54204 0.5426 0.0
C289 C 0.91273 0.50753 0.59917 0.0
C290 C 0.91032 0.53418 0.65721 0.0
C291 C 0.94061 0.53796 0.56172 0.0
O292 O 0.90861 0.51042 0.56543 0.0
O293 O 0.9199 0.51536 0.62445 0.0
O294 O 0.93706 0.53988 0.6004 0.0
O295 O 0.93322 0.53134 0.5331 0.0
C296 C 0.91135 0.53594 0.50789 0.0
O297 O 0.92044 0.53949 0.64651 0.0
O298 O 0.90456 0.52593 0.63052 0.0
In299 In 0.46782 0.3895 0.57961 0.0
O300 O 0.45594 0.3799 0.64082 0.0
O301 O 0.47045 0.37874 0.634 0.0
C302 C 0.45899 0.40226 0.55707 0.0
C303 C 0.46106 0.37407 0.50945 0.0
C304 C 0.48924 0.40462 0.59343 0.0
O305 O 0.45951 0.39943 0.6 0.0
O306 O 0.46296 0.39871 0.5255 0.0
O307 O 0.48597 0.39791 0.55842 0.0
O308 O 0.48171 0.40366 0.62168 0.0
C309 C 0.46153 0.37574 0.65641 0.0
O310 O 0.47092 0.38184 0.51262 0.0
O311 O 0.45463 0.3742 0.54118 0.0
In312 In 0.58483 0.72318 0.91902 0.0
O313 O 0.58036 0.71891 0.83896 0.0
O314 O 0.57265 0.70606 0.89114 0.0
C315 C 0.57816 0.7382 0.9251 0.0
C316 C 0.57935 0.71045 -0.0009 0.0
C317 C 0.60684 0.73378 0.90243 0.0
O318 O 0.5765 0.7323 0.88796 0.0
O319 O 0.58315 0.73651 0.95916 0.0
O320 O 0.60022 0.72463 0.88338 0.0
O321 O 0.60239 0.73756 0.93031 0.0
C322 C 0.57374 0.70881 0.847 0.0
O323 O 0.58838 0.71374 0.97718 0.0
O324 O 0.57325 0.7138 0.98125 0.0
In325 In 0.2724 0.85986 0.91445 0.0
O326 O 0.28029 0.8686 0.98575 0.0
O327 O 0.28527 0.85776 0.95579 0.0
C328 C 0.25995 0.86908 0.89347 0.0
C329 C 0.28744 0.86849 0.84302 0.0
C330 C 0.25716 0.83844 0.9274 0.0
O331 O 0.26427 0.87 0.93474 0.0
O332 O 0.26187 0.8635 0.8632 0.0
O333 O 0.264 0.84171 0.8929 0.0
O334 O 0.25807 0.84596 0.95553 0.0
C335 C 0.28643 0.86441 0.98926 0.0
O336 O 0.28004 0.85843 0.84381 0.0
O337 O 0.28716 0.87418 0.87799 0.0
In338 In 0.13429 0.41053 0.90873 0.0
O339 O 0.12148 0.40748 0.96706 0.0
O340 O 0.13609 0.42314 0.9657 0.0
C341 C 0.12634 0.38909 0.88673 0.0
C342 C 0.12755 0.41915 0.83823 0.0
C343 C 0.15575 0.41665 0.9192 0.0
O344 O 0.1263 0.39233 0.92951 0.0
O345 O 0.13047 0.39667 0.85536 0.0
O346 O 0.15204 0.41891 0.88184 0.0
O347 O 0.14865 0.41138 0.95152 0.0
C348 C 0.12686 0.417 0.98529 0.0
O349 O 0.13725 0.42416 0.8549 0.0
O350 O 0.12133 0.40984 0.85697 0.0
In351 In 0.38823 0.91839 0.41188 0.0
O352 O 0.38035 0.90907 0.48171 0.0
O353 O 0.37329 0.91776 0.44758 0.0
C354 C 0.40377 0.91248 0.40233 0.0
C355 C 0.37443 0.90863 0.33658 0.0
C356 C 0.40025 0.94019 0.43137 0.0
O357 O 0.39711 0.90938 0.43745 0.0
O358 O 0.40253 0.91848 0.37173 0.0
O359 O 0.39616 0.93656 0.38997 0.0
O360 O 0.39833 0.93285 0.46251 0.0
C361 C 0.37292 0.91168 0.48228 0.0
O362 O 0.38052 0.91897 0.33966 0.0
O363 O 0.37553 0.90325 0.37072 0.0
In364 In 0.07513 0.46788 0.40766 0.0
O365 O 0.08849 0.47106 0.46335 0.0
O366 O 0.07485 0.45476 0.45722 0.0
C367 C 0.08124 0.48927 0.39511 0.0
C368 C 0.08179 0.46068 0.3309 0.0
C369 C 0.05382 0.46004 0.43183 0.0
O370 O 0.08408 0.48584 0.43167 0.0
O371 O 0.07536 0.4819 0.36467 0.0
O372 O 0.05679 0.4596 0.38898 0.0
O373 O 0.06159 0.46448 0.4622 0.0
C374 C 0.08388 0.46119 0.47782 0.0
O375 O 0.07225 0.4552 0.3488 0.0
O376 O 0.08783 0.46989 0.35084 0.0
In377 In 0.52797 0.60781 0.41977 0.0
O378 O 0.52388 0.61772 0.47301 0.0
O379 O 0.54053 0.62135 0.46869 0.0
C380 C 0.50675 0.5921 0.40659 0.0
C381 C 0.53531 0.6215 0.34263 0.0
C382 C 0.53645 0.59497 0.44555 0.0
O383 O 0.51005 0.59808 0.44408 0.0
O384 O 0.51416 0.59406 0.37564 0.0
O385 O 0.53627 0.59775 0.40211 0.0
O386 O 0.53233 0.59863 0.47592 0.0
C387 C 0.53368 0.62359 0.48769 0.0
O388 O 0.54087 0.61768 0.36194 0.0
O389 O 0.52595 0.61816 0.36132 0.0
In390 In 0.07719 0.60685 0.41267 0.0
O391 O 0.07545 0.61422 0.34189 0.0
O392 O 0.09166 0.61885 0.36562 0.0
C393 C 0.05551 0.59489 0.43464 0.0
C394 C 0.0848 0.62191 0.4849 0.0
C395 C 0.08303 0.59149 0.3963 0.0
O396 O 0.05911 0.60145 0.39916 0.0
O397 O 0.06283 0.5943 0.45899 0.0
O398 O 0.08721 0.59854 0.42985 0.0
O399 O 0.07597 0.59225 0.37059 0.0
C400 C 0.08569 0.61996 0.33433 0.0
O401 O 0.08651 0.61388 0.48398 0.0
O402 O 0.07917 0.62223 0.4499 0.0
In403 In 0.38967 0.4698 0.41051 0.0
O404 O 0.37987 0.45812 0.34902 0.0
O405 O 0.37907 0.47281 0.35662 0.0
C406 C 0.40204 0.46053 0.43296 0.0
C407 C 0.37452 0.46313 0.48191 0.0
C408 C 0.40498 0.49113 0.39635 0.0
O409 O 0.399 0.46084 0.39014 0.0
O410 O 0.39887 0.46491 0.4643 0.0
O411 O 0.39774 0.48806 0.42909 0.0
O412 O 0.40443 0.48345 0.37037 0.0
C413 C 0.37587 0.46389 0.33391 0.0
O414 O 0.38282 0.47273 0.48067 0.0
O415 O 0.37397 0.45691 0.44756 0.0
In416 In 0.52746 0.91992 0.41374 0.0
O417 O 0.53979 0.92277 0.3534 0.0
O418 O 0.52525 0.90708 0.3573 0.0
C419 C 0.53576 0.94142 0.43563 0.0
C420 C 0.53433 0.91098 0.48216 0.0
C421 C 0.50599 0.91389 0.40531 0.0
O422 O 0.53516 0.93806 0.39257 0.0
O423 O 0.53214 0.93394 0.46745 0.0
O424 O 0.50991 0.91195 0.44286 0.0
O425 O 0.5129 0.91882 0.37185 0.0
C426 C 0.53431 0.91316 0.33622 0.0
O427 O 0.5244 0.90646 0.46852 0.0
O428 O 0.54072 0.92003 0.46164 0.0
In429 In 0.27352 0.41198 0.91188 0.0
O430 O 0.28287 0.40993 0.97487 0.0
O431 O 0.2839 0.42551 0.96654 0.0
C432 C 0.2613 0.39033 0.8892 0.0
C433 C 0.28942 0.42105 0.84387 0.0
C434 C 0.25781 0.41762 0.92167 0.0
O435 O 0.2636 0.39373 0.93236 0.0
O436 O 0.26512 0.39782 0.85751 0.0
O437 O 0.26432 0.42062 0.88596 0.0
O438 O 0.25929 0.41185 0.95269 0.0
C439 C 0.28686 0.41969 0.99006 0.0
O440 O 0.28181 0.42336 0.84725 0.0
O441 O 0.28892 0.41409 0.8744 0.0
In442 In 0.585 0.86103 0.91448 0.0
O443 O 0.57121 0.85818 0.86191 0.0
O444 O 0.5861 0.87362 0.85932 0.0
C445 C 0.5784 0.83943 0.92246 0.0
C446 C 0.57843 0.86868 0.98986 0.0
C447 C 0.60662 0.8688 0.89756 0.0
O448 O 0.57687 0.84356 0.88461 0.0
O449 O 0.58325 0.8462 0.9565 0.0
O450 O 0.60291 0.86862 0.93956 0.0
O451 O 0.59943 0.86499 0.86446 0.0
C452 C 0.57653 0.86758 0.84251 0.0
O453 O 0.58771 0.87431 0.96981 0.0
O454 O 0.57259 0.85912 0.97265 0.0
In455 In 0.1337 0.72289 0.91585 0.0
O456 O 0.12193 0.71271 0.9765 0.0
O457 O 0.13708 0.71275 0.9708 0.0
C458 C 0.12485 0.7357 0.89479 0.0
C459 C 0.12665 0.70747 0.84553 0.0
C460 C 0.15513 0.73806 0.9279 0.0
O461 O 0.12536 0.73273 0.93752 0.0
O462 O 0.1288 0.73222 0.86281 0.0
O463 O 0.15177 0.73109 0.89386 0.0
O464 O 0.14768 0.73733 0.95607 0.0
C465 C 0.12799 0.70913 0.99255 0.0
O466 O 0.1365 0.71529 0.84783 0.0
O467 O 0.12038 0.70755 0.8782 0.0
C468 C 0.21743 0.96894 0.63284 0.0
C469 C 0.20603 0.96271 0.6414 0.0
C470 C 0.22164 0.97759 0.59932 0.0
C471 C 0.21411 0.98858 0.49391 0.0
H472 H 0.23903 0.01661 0.53348 0.0
C473 C 0.22868 0.02779 0.37921 0.0
C474 C 0.24011 0.03462 0.3733 0.0
C475 C 0.22451 0.01926 0.41327 0.0
C476 C 0.23215 0.00881 0.52165 0.0
H477 H 0.19005 0.9604 0.6208 0.0
H478 H 0.19741 0.97547 0.56197 0.0
H479 H 0.23189 0.00085 0.58846 0.0
H480 H 0.25617 0.03806 0.39908 0.0
H481 H 0.24891 0.02306 0.45806 0.0
H482 H 0.21442 0.99647 0.42694 0.0
C483 C 0.20309 0.97366 0.5811 0.0
C484 C 0.22807 -0.00021 0.55313 0.0
C485 C 0.19888 0.96507 0.61488 0.0
C486 C 0.24731 0.03295 0.403 0.0
C487 C 0.24315 0.02438 0.43691 0.0
C488 C 0.21823 0.99758 0.46232 0.0
C489 C 0.21452 0.9801 0.57348 0.0
C490 C 0.219 0.98959 0.5396 0.0
C491 C 0.2317 0.01733 0.44195 0.0
C492 C 0.22728 0.00781 0.47586 0.0
H493 H 0.22313 0.9673 0.6528 0.0
H494 H 0.23048 0.98234 0.59371 0.0
H495 H 0.20719 0.98079 0.48231 0.0
H496 H 0.22293 0.02892 0.35694 0.0
H497 H 0.21565 0.01412 0.41689 0.0
C498 C 0.03192 0.24577 0.60005 0.0
C499 C 0.03208 0.23908 0.63771 0.0
C500 C 0.02341 0.24146 0.56574 0.0
C501 C 0.99464 0.22021 0.55049 0.0
H502 H 0.00075 0.22397 0.4122 0.0
C503 C 0.96135 0.20996 0.40236 0.0
C504 C 0.96155 0.20361 0.36329 0.0
C505 C 0.96985 0.2142 0.43674 0.0
C506 C -0.00106 0.22286 0.45074 0.0
H507 H 0.02355 0.22266 0.669 0.0
H508 H 0.0086 0.2152 0.60945 0.0
H509 H 0.01607 0.23169 0.47024 0.0
H510 H 0.9707 0.19664 0.32957 0.0
H511 H 0.98561 0.20419 0.38925 0.0
H512 H 0.97751 0.21145 0.531 0.0
C513 C 0.01506 0.22375 0.60645 0.0
C514 C 0.00768 0.22733 0.48383 0.0
C515 C 0.02365 0.228 0.64026 0.0
C516 C 0.97032 0.20149 0.3594 0.0
C517 C 0.97889 0.20586 0.3933 0.0
C518 C 0.9859 0.21589 0.51742 0.0
C519 C 0.01484 0.23045 0.56905 0.0
C520 C 0.0056 0.22596 0.53397 0.0
C521 C 0.97875 0.2123 0.43211 0.0
C522 C 0.98798 0.21711 0.46726 0.0
H523 H 0.03832 0.25435 0.59731 0.0
H524 H 0.02339 0.2468 0.5373 0.0
H525 H 0.99284 0.21913 0.58904 0.0
H526 H 0.95468 0.21172 0.40616 0.0
H527 H 0.96959 0.21918 0.4663 0.0
C528 C 0.79511 0.76314 0.38396 0.0
C529 C 0.78807 0.75508 0.35069 0.0
C530 C 0.79092 0.76764 0.41724 0.0
C531 C 0.7674 0.77204 0.43729 0.0
H532 H 0.77813 0.7777 0.57002 0.0
C533 C 0.74796 0.78532 0.58984 0.0
C534 C 0.75522 0.79317 0.62334 0.0
C535 C 0.75194 0.78099 0.55463 0.0
C536 C 0.77516 0.7763 0.53291 0.0
H537 H 0.77111 0.74524 0.32655 0.0
H538 H 0.76375 0.75301 0.38515 0.0
H539 H 0.78495 0.76906 0.51365 0.0
H540 H 0.77235 0.803 0.64512 0.0
H541 H 0.77931 0.79555 0.58335 0.0
H542 H 0.75758 0.77926 0.45675 0.0
C543 C 0.77253 0.75596 0.38506 0.0
C544 C 0.77904 0.77133 0.50065 0.0
C545 C 0.77673 0.75146 0.35178 0.0
C546 C 0.76656 0.79692 0.6199 0.0
C547 C 0.77053 0.79259 0.58478 0.0
C548 C 0.7635 0.777 0.46962 0.0
C549 C 0.7796 0.76415 0.41793 0.0
C550 C 0.77524 0.76918 0.45245 0.0
C551 C 0.76324 0.78443 0.55236 0.0
C552 C 0.76737 0.77923 0.51771 0.0
H553 H 0.80389 0.76612 0.38383 0.0
H554 H 0.79659 0.77402 0.44171 0.0
H555 H 0.76442 0.77062 0.40018 0.0
H556 H 0.73917 0.78227 0.59171 0.0
H557 H 0.74611 0.77467 0.53035 0.0
C558 C 0.76535 0.96541 0.61244 0.0
C559 C 0.75447 0.96112 0.62889 0.0
C560 C 0.76975 0.97386 0.57796 0.0
C561 C 0.76199 0.98814 0.48609 0.0
H562 H 0.79183 0.01221 0.50709 0.0
C563 C 0.77971 0.0291 0.38152 0.0
C564 C 0.79034 0.03328 0.36209 0.0
C565 C 0.77552 0.02035 0.41447 0.0
C566 C 0.78352 0.0055 0.50054 0.0
H567 H 0.73956 0.9621 0.62149 0.0
H568 H 0.74726 0.97695 0.56187 0.0
H569 H 0.78402 0.99643 0.56205 0.0
H570 H 0.80505 0.03182 0.36284 0.0
H571 H 0.79774 0.01655 0.42071 0.0
H572 H 0.76146 0.99731 0.42493 0.0
C573 C 0.75237 0.9737 0.575 0.0
C574 C 0.77906 0.99644 0.53188 0.0
C575 C 0.74797 0.96522 0.60932 0.0
C576 C 0.79683 0.02877 0.37731 0.0
C577 C 0.79266 0.02005 0.4105 0.0
C578 C 0.76644 0.99722 0.45492 0.0
C579 C 0.76336 0.97822 0.55939 0.0
C580 C 0.76822 0.98767 0.52509 0.0
C581 C 0.7819 0.01565 0.42884 0.0
C582 C 0.77723 0.00601 0.46193 0.0
H583 H 0.77054 0.96237 0.62678 0.0
H584 H 0.77818 0.97703 0.56607 0.0
H585 H 0.75369 0.98145 0.47938 0.0
H586 H 0.77452 0.03242 0.37048 0.0
H587 H 0.76726 0.01722 0.42858 0.0
C588 C 0.02865 0.78001 0.61844 0.0
C589 C 0.03305 0.79094 0.63452 0.0
C590 C 0.02012 0.77559 0.58431 0.0
C591 C -0.00225 0.77955 0.53652 0.0
H592 H 0.99657 0.76011 0.4334 0.0
C593 C 0.96625 0.76567 0.37983 0.0
C594 C 0.96144 0.75466 0.36439 0.0
C595 C 0.97483 0.7699 0.41369 0.0
C596 C 0.99672 0.76542 0.46238 0.0
H597 H 0.03225 0.80593 0.62643 0.0
H598 H 0.01748 0.79828 0.56628 0.0
H599 H 0.01226 0.76812 0.48901 0.0
H600 H 0.96166 0.73937 0.37285 0.0
H601 H 0.97661 0.74675 0.43241 0.0
H602 H 0.98224 0.77687 0.50981 0.0
C603 C 0.02047 0.79306 0.58068 0.0
C604 C 0.00571 0.77002 0.49417 0.0
C605 C 0.02899 0.79747 0.61484 0.0
C606 C 0.96523 0.74789 0.38408 0.0
C607 C 0.97383 0.75214 0.41788 0.0
C608 C 0.98878 0.77496 0.50471 0.0
C609 C 0.01583 0.78202 0.56558 0.0
C610 C 0.00634 0.77716 0.53151 0.0
C611 C 0.97878 0.76322 0.43274 0.0
C612 C 0.98818 0.76787 0.46724 0.0
H613 H 0.0316 0.77478 0.63312 0.0
H614 H 0.01665 0.76704 0.57374 0.0
H615 H -0.00213 0.78484 0.5655 0.0
H616 H 0.96352 0.77109 0.36514 0.0
H617 H 0.97855 0.7785 0.42403 0.0
C618 C 0.24425 0.21034 0.40096 0.0
C619 C 0.23797 0.20425 0.36078 0.0
C620 C 0.23982 0.2145 0.43482 0.0
C621 C 0.21956 0.22343 0.44693 0.0
H622 H 0.22112 0.21896 0.58516 0.0
C623 C 0.20991 0.24642 0.59736 0.0
C624 C 0.20301 0.23977 0.63498 0.0
C625 C 0.21383 0.24197 0.56248 0.0
C626 C 0.22061 0.22024 0.54664 0.0
H627 H 0.22216 0.1977 0.32444 0.0
H628 H 0.2145 0.20511 0.38331 0.0
H629 H 0.2288 0.21131 0.52734 0.0
H630 H 0.19467 0.22326 0.66535 0.0
H631 H 0.20166 0.21554 0.60478 0.0
H632 H 0.21146 0.23246 0.4663 0.0
C633 C 0.22281 0.20663 0.38861 0.0
C634 C 0.22506 0.21594 0.51369 0.0
C635 C 0.22718 0.20234 0.35517 0.0
C636 C 0.19997 0.22857 0.6367 0.0
C637 C 0.20401 0.22417 0.60229 0.0
C638 C 0.21526 0.22788 0.47994 0.0
C639 C 0.22911 0.21277 0.42862 0.0
C640 C 0.22452 0.21745 0.46356 0.0
C641 C 0.21105 0.23085 0.56513 0.0
C642 C 0.21569 0.22626 0.53005 0.0
H643 H 0.2526 0.21194 0.40609 0.0
H644 H 0.24485 0.21926 0.46531 0.0
H645 H 0.21912 0.22477 0.40842 0.0
H646 H 0.21238 0.25508 0.59522 0.0
H647 H 0.21929 0.24729 0.53424 0.0
C648 C 0.89608 0.36293 0.71967 0.0
C649 C 0.90712 0.36797 0.70433 0.0
C650 C 0.89198 0.35427 0.75308 0.0
C651 C 0.90046 0.34092 0.84594 0.0
H652 H 0.8715 0.31567 0.82147 0.0
C653 C 0.88329 0.30083 0.95783 0.0
C654 C 0.87231 0.29623 0.97358 0.0
C655 C 0.88758 0.30932 0.9235 0.0
C656 C 0.87956 0.3227 0.829 0.0
H657 H 0.92258 0.3681 0.71259 0.0
H658 H 0.91541 0.35291 0.77076 0.0
H659 H 0.87899 0.33134 0.76597 0.0
H660 H 0.85715 0.2967 0.96502 0.0
H661 H 0.86466 0.31153 0.90519 0.0
H662 H 0.90102 0.33227 0.90902 0.0
C663 C 0.90995 0.35571 0.75732 0.0
C664 C 0.88384 0.33168 0.7973 0.0
C665 C 0.91405 0.36438 0.7239 0.0
C666 C 0.86564 0.30008 0.95347 0.0
C667 C 0.86992 0.30854 0.91907 0.0
C668 C 0.89618 0.33193 0.87763 0.0
C669 C 0.89883 0.35047 0.77182 0.0
C670 C 0.89432 0.34092 0.80553 0.0
C671 C 0.88098 0.31335 0.90415 0.0
C672 C 0.88567 0.32273 0.86959 0.0
H673 H 0.89056 0.36555 0.70528 0.0
H674 H 0.88343 0.35052 0.76416 0.0
H675 H 0.9085 0.34797 0.8536 0.0
H676 H 0.88862 0.29801 0.97268 0.0
H677 H 0.89609 0.31276 0.91221 0.0
C678 C 0.62913 0.5429 0.73927 0.0
C679 C 0.62805 0.53533 0.70321 0.0
C680 C 0.63777 0.54678 0.77279 0.0
C681 C 0.65899 0.54113 0.82394 0.0
H682 H 0.67338 0.57213 0.85827 0.0
C683 C 0.69085 0.5598 0.97893 0.0
C684 C 0.69966 0.57063 0.97359 0.0
C685 C 0.68245 0.55523 0.94429 0.0
C686 C 0.66956 0.56348 0.84862 0.0
H687 H 0.63502 0.52572 0.67434 0.0
H688 H 0.65021 0.53264 0.73215 0.0
H689 H 0.65792 0.56456 0.80202 0.0
H690 H 0.70685 0.58505 0.92701 0.0
H691 H 0.69231 0.57697 0.86574 0.0
H692 H 0.67085 0.54013 0.86947 0.0
C693 C 0.6443 0.53545 0.73521 0.0
C694 C 0.66056 0.5591 0.81696 0.0
C695 C 0.63561 0.53152 0.70194 0.0
C696 C 0.70012 0.57669 0.93216 0.0
C697 C 0.69175 0.57209 0.89729 0.0
C698 C 0.66804 0.54553 0.85539 0.0
C699 C 0.64556 0.54323 0.77068 0.0
C700 C 0.65512 0.54786 0.80445 0.0
C701 C 0.68272 0.56137 0.90336 0.0
C702 C 0.6734 0.55675 0.86829 0.0
H703 H 0.62338 0.54594 0.74122 0.0
H704 H 0.63836 0.55259 0.80024 0.0
H705 H 0.65494 0.53241 0.81539 0.0
H706 H 0.69026 0.55494 0.01063 0.0
H707 H 0.67556 0.54701 0.95049 0.0
C708 C 0.44655 0.08391 0.71019 0.0
C709 C 0.45737 0.08994 0.69227 0.0
C710 C 0.44259 0.08876 0.74273 0.0
C711 C 0.4511 0.11112 0.83132 0.0
H712 H 0.42237 0.10779 0.80453 0.0
C713 C 0.43377 0.13352 0.94565 0.0
C714 C 0.42259 0.12729 0.95864 0.0
C715 C 0.43819 0.12957 0.91078 0.0
C716 C 0.43035 0.10871 0.81283 0.0
H717 H 0.47265 0.10562 0.69535 0.0
H718 H 0.46573 0.11406 0.75276 0.0
H719 H 0.42982 0.09934 0.75039 0.0
H720 H 0.40721 0.11217 0.94472 0.0
H721 H 0.41494 0.10518 0.88468 0.0
H722 H 0.45155 0.12029 0.8943 0.0
C723 C 0.46033 0.1056 0.74153 0.0
C724 C 0.43461 0.10387 0.7818 0.0
C725 C 0.46427 0.10078 0.70863 0.0
C726 C 0.41585 0.11718 0.93526 0.0
C727 C 0.42028 0.1132 0.90066 0.0
C728 C 0.4468 0.11589 0.8626 0.0
C729 C 0.4494 0.09969 0.75826 0.0
C730 C 0.44499 0.10498 0.79092 0.0
C731 C 0.43153 0.11928 0.88843 0.0
C732 C 0.43634 0.11469 0.85387 0.0
H733 H 0.44105 0.07553 0.6982 0.0
H734 H 0.43417 0.08397 0.7556 0.0
H735 H 0.45908 0.11203 0.83938 0.0
H736 H 0.43914 0.14137 0.96299 0.0
H737 H 0.44685 0.13455 0.9016 0.0
C738 C 0.44694 0.36339 0.71497 0.0
C739 C 0.45751 0.36736 0.69522 0.0
C740 C 0.44273 0.35479 0.74867 0.0
C741 C 0.44606 0.33154 0.78969 0.0
H742 H 0.42818 0.33103 0.89834 0.0
C743 C 0.43177 0.29935 0.94457 0.0
C744 C 0.42092 0.29509 0.9614 0.0
C745 C 0.4362 0.30795 0.91079 0.0
C746 C 0.43306 0.331 0.86785 0.0
H747 H 0.47211 0.36571 0.69624 0.0
H748 H 0.46484 0.35081 0.75589 0.0
H749 H 0.43638 0.34693 0.84417 0.0
H750 H 0.40607 0.29623 0.95514 0.0
H751 H 0.4138 0.31122 0.89595 0.0
H752 H 0.44278 0.31563 0.81374 0.0
C753 C 0.45972 0.3542 0.74463 0.0
C754 C 0.43776 0.34011 0.83685 0.0
C755 C 0.46392 0.36278 0.71078 0.0
C756 C 0.41447 0.29936 0.94285 0.0
C757 C 0.41892 0.30799 0.90927 0.0
C758 C 0.44138 0.32245 0.82084 0.0
C759 C 0.44902 0.35 0.76346 0.0
C760 C 0.44429 0.34047 0.79731 0.0
C761 C 0.42988 0.31247 0.89343 0.0
C762 C 0.4348 0.32207 0.86011 0.0
H763 H 0.4418 0.36673 0.70348 0.0
H764 H 0.43441 0.35167 0.76203 0.0
H765 H 0.45088 0.33147 0.75909 0.0
H766 H 0.43693 0.29622 0.95832 0.0
H767 H 0.4447 0.31129 0.89946 0.0
C768 C 0.69686 0.11368 0.94371 0.0
C769 C 0.701 0.12449 0.96096 0.0
C770 C 0.6886 0.10938 0.90832 0.0
C771 C 0.67498 0.11726 0.81428 0.0
H772 H 0.65021 0.08787 0.83629 0.0
C773 C 0.63453 0.10031 0.70596 0.0
C774 C 0.62958 0.08932 0.69011 0.0
C775 C 0.64335 0.10448 0.7386 0.0
C776 C 0.65712 0.09603 0.82929 0.0
H777 H 0.7 0.13939 0.9538 0.0
H778 H 0.68556 0.13189 0.89212 0.0
H779 H 0.66583 0.09546 0.89214 0.0
H780 H 0.62984 0.07401 0.69635 0.0
H781 H 0.6453 0.0813 0.75312 0.0
H782 H 0.66627 0.11785 0.75154 0.0
C783 C 0.68874 0.12675 0.90565 0.0
C784 C 0.66608 0.10037 0.86124 0.0
C785 C 0.69698 0.13103 0.94112 0.0
C786 C 0.63348 0.08251 0.70811 0.0
C787 C 0.64231 0.08668 0.74074 0.0
C788 C 0.66604 0.11291 0.78228 0.0
C789 C 0.68435 0.11583 0.8894 0.0
C790 C 0.67507 0.11106 0.85423 0.0
C791 C 0.6474 0.09774 0.75601 0.0
C792 C 0.65698 0.10227 0.7896 0.0
H793 H 0.69983 0.10845 0.95829 0.0
H794 H 0.68549 0.10099 0.896 0.0
H795 H 0.68187 0.12546 0.80756 0.0
H796 H 0.63168 0.10574 0.69278 0.0
H797 H 0.64697 0.11298 0.7503 0.0
C798 C 0.89424 0.53155 0.70699 0.0
C799 C 0.90549 0.53789 0.6952 0.0
C800 C 0.88948 0.53554 0.73992 0.0
C801 C 0.89303 0.56148 0.78771 0.0
H802 H 0.87364 0.54347 0.89142 0.0
C803 C 0.87943 0.5798 0.94192 0.0
C804 C 0.86877 0.57342 0.96109 0.0
C805 C 0.88341 0.57535 0.90746 0.0
C806 C 0.87888 0.54856 0.86215 0.0
H807 H 0.92063 0.55323 0.70939 0.0
H808 H 0.9123 0.56022 0.76675 0.0
H809 H 0.88167 0.53569 0.83653 0.0
H810 H 0.85376 0.55751 0.95813 0.0
H811 H 0.8606 0.5498 0.89692 0.0
H812 H 0.8902 0.57431 0.81272 0.0
C813 C 0.90716 0.5522 0.75031 0.0
C814 C 0.88351 0.54411 0.8309 0.0
C815 C 0.91194 0.54817 0.71777 0.0
C816 C 0.86203 0.5626 0.94408 0.0
C817 C 0.86599 0.55816 0.90932 0.0
C818 C 0.88833 0.56591 0.81864 0.0
C819 C 0.89586 0.54599 0.76122 0.0
C820 C 0.89072 0.55057 0.79372 0.0
C821 C 0.87679 0.56443 0.89113 0.0
C822 C 0.88129 0.55953 0.85655 0.0
H823 H 0.88908 0.52359 0.69008 0.0
H824 H 0.88074 0.53062 0.74756 0.0
H825 H 0.8984 0.56659 0.75877 0.0
H826 H 0.88483 0.58815 0.95457 0.0
H827 H 0.89182 0.58037 0.89478 0.0
C828 C 0.5334 0.63436 0.286 0.0
C829 C 0.53973 0.6299 0.3039 0.0
C830 C 0.53789 0.64299 0.25246 0.0
C831 C 0.56457 0.66558 0.20937 0.0
H832 H 0.54698 0.66682 0.10332 0.0
C833 C 0.58227 0.69808 0.05515 0.0
C834 C 0.57565 0.70237 0.0391 0.0
C835 C 0.57821 0.68952 0.08912 0.0
C836 C 0.55195 0.66665 0.13311 0.0
H837 H 0.5556 0.63073 0.29987 0.0
H838 H 0.56341 0.64573 0.24064 0.0
H839 H 0.53916 0.65084 0.15699 0.0
H840 H 0.55979 0.70144 0.04743 0.0
H841 H 0.55275 0.68657 0.107 0.0
H842 H 0.57738 0.6814 0.18525 0.0
C843 C 0.55503 0.64267 0.25312 0.0
C844 C 0.54748 0.65749 0.16378 0.0
C845 C 0.55054 0.63403 0.2867 0.0
C846 C 0.56506 0.69825 0.05897 0.0
C847 C 0.561 0.68969 0.09279 0.0
C848 C 0.56906 0.67474 0.17858 0.0
C849 C 0.5488 0.64733 0.23609 0.0
C850 C 0.55371 0.65688 0.2024 0.0
C851 C 0.56745 0.68508 0.10749 0.0
C852 C 0.56276 0.6754 0.14032 0.0
H853 H 0.52506 0.63137 0.29875 0.0
H854 H 0.53291 0.64648 0.24047 0.0
H855 H 0.56952 0.66542 0.23926 0.0
H856 H 0.59046 0.7011 0.04038 0.0
H857 H 0.58334 0.68609 0.09961 0.0
C858 C 0.36583 0.90934 0.25798 0.0
C859 C 0.36602 0.90329 0.2983 0.0
C860 C 0.35734 0.90445 0.22376 0.0
C861 C 0.32855 0.88314 0.21284 0.0
H862 H 0.33405 0.88573 0.07401 0.0
C863 C 0.29519 0.87408 0.06705 0.0
C864 C 0.29491 0.86764 0.02735 0.0
C865 C 0.3037 0.87775 0.10122 0.0
C866 C 0.33241 0.8849 0.11271 0.0
H867 H 0.35761 0.88735 0.33413 0.0
H868 H 0.3427 0.87888 0.27462 0.0
H869 H 0.34962 0.89351 0.1307 0.0
H870 H 0.30316 0.85984 0.99253 0.0
H871 H 0.3181 0.86639 0.0519 0.0
H872 H 0.31134 0.8747 0.19485 0.0
C873 C 0.34912 0.88738 0.26952 0.0
C874 C 0.3413 0.88941 0.14502 0.0
C875 C 0.35769 0.89221 0.30333 0.0
C876 C 0.30316 0.86478 0.02283 0.0
C877 C 0.31174 0.86858 0.05658 0.0
C878 C 0.31966 0.87878 0.18052 0.0
C879 C 0.34882 0.89349 0.2297 0.0
C880 C 0.33944 0.88855 0.19536 0.0
C881 C 0.31214 0.87517 0.09582 0.0
C882 C 0.32152 0.87962 0.13018 0.0
H883 H 0.37215 0.91789 0.25326 0.0
H884 H 0.35725 0.90935 0.19346 0.0
H885 H 0.32691 0.88246 0.25153 0.0
H886 H 0.28893 0.8764 0.07136 0.0
H887 H 0.30386 0.88287 0.13106 0.0
C888 C 0.09669 0.46274 0.27468 0.0
C889 C 0.08588 0.45634 0.29229 0.0
C890 C 0.10093 0.45833 0.24124 0.0
C891 C 0.09296 0.43579 0.1525 0.0
H892 H 0.1229 0.44183 0.17323 0.0
C893 C 0.11166 0.41409 0.04182 0.0
C894 C 0.1224 0.4209 0.0242 0.0
C895 C 0.10714 0.4181 0.07595 0.0
C896 C 0.11456 0.44014 0.16673 0.0
H897 H 0.07093 0.4404 0.28793 0.0
H898 H 0.07837 0.43265 0.2297 0.0
H899 H 0.11498 0.44964 0.22839 0.0
H900 H 0.13695 0.43715 0.02915 0.0
H901 H 0.12907 0.44416 0.0886 0.0
H902 H 0.09256 0.42629 0.09078 0.0
C903 C 0.08354 0.44111 0.2414 0.0
C904 C 0.11003 0.44463 0.19824 0.0
C905 C 0.07929 0.44554 0.27484 0.0
C906 C 0.12865 0.4317 0.04219 0.0
C907 C 0.12415 0.4357 0.07638 0.0
C908 C 0.09749 0.43128 0.12099 0.0
C909 C 0.09446 0.44742 0.22477 0.0
C910 C 0.09921 0.44256 0.19133 0.0
C911 C 0.1133 0.42899 0.09321 0.0
C912 C 0.10836 0.43345 0.12765 0.0
H913 H 0.10195 0.47111 0.28736 0.0
H914 H 0.10931 0.46347 0.22845 0.0
H915 H 0.08464 0.43413 0.14589 0.0
H916 H 0.10666 0.40572 0.02862 0.0
H917 H 0.09882 0.41269 0.08874 0.0
C918 C 0.10176 0.634 0.28634 0.0
C919 C 0.09033 0.62807 0.29455 0.0
C920 C 0.10623 0.64243 0.25173 0.0
C921 C 0.09866 0.65418 0.14716 0.0
H922 H 0.12554 0.68105 0.18182 0.0
C923 C 0.11325 0.69509 0.04585 0.0
C924 C 0.12431 0.70062 0.03066 0.0
C925 C 0.10945 0.68625 0.0782 0.0
C926 C 0.11808 0.67356 0.17156 0.0
H927 H 0.07458 0.6261 0.27238 0.0
H928 H 0.08235 0.64093 0.21295 0.0
H929 H 0.11823 0.66516 0.23618 0.0
H930 H 0.14017 0.70154 0.03858 0.0
H931 H 0.13354 0.68617 0.09594 0.0
H932 H 0.09839 0.66274 0.08317 0.0
C933 C 0.08788 0.63898 0.23237 0.0
C934 C 0.11391 0.66444 0.2025 0.0
C935 C 0.08342 0.6305 0.26664 0.0
C936 C 0.1316 0.69741 0.04972 0.0
C937 C 0.12782 0.68865 0.08256 0.0
C938 C 0.10277 0.66334 0.11654 0.0
C939 C 0.09936 0.64515 0.22493 0.0
C940 C 0.10411 0.65465 0.19081 0.0
C941 C 0.11667 0.68286 0.09637 0.0
C942 C 0.11247 0.67313 0.12861 0.0
H943 H 0.10728 0.63227 0.30723 0.0
H944 H 0.11508 0.64688 0.24629 0.0
H945 H 0.09122 0.64672 0.13654 0.0
H946 H 0.10745 0.69737 0.0317 0.0
H947 H 0.10085 0.68201 0.0888 0.0
C948 C 0.36304 0.46668 0.28028 0.0
C949 C 0.36737 0.46003 0.29563 0.0
C950 C 0.35429 0.46261 0.24726 0.0
C951 C 0.33102 0.43652 0.20446 0.0
H952 H 0.33046 0.45386 0.09576 0.0
C953 C 0.29904 0.41771 0.0505 0.0
C954 C 0.29504 0.42418 0.02967 0.0
C955 C 0.3075 0.42222 0.0849 0.0
C956 C 0.33041 0.44897 0.12639 0.0
H957 H 0.36616 0.44405 0.28755 0.0
H958 H 0.35089 0.43696 0.22982 0.0
H959 H 0.34631 0.46165 0.15048 0.0
H960 H 0.29647 0.44034 0.02956 0.0
H961 H 0.31111 0.44818 0.09048 0.0
H962 H 0.31513 0.42387 0.18075 0.0
C963 C 0.35419 0.44526 0.24368 0.0
C964 C 0.33951 0.45343 0.15758 0.0
C965 C 0.36298 0.44935 0.27642 0.0
C966 C 0.29943 0.43517 0.04492 0.0
C967 C 0.30786 0.43967 0.07951 0.0
C968 C 0.32191 0.43209 0.17349 0.0
C969 C 0.34966 0.45179 0.22928 0.0
C970 C 0.33995 0.4472 0.19664 0.0
C971 C 0.3121 0.43329 0.09939 0.0
C972 C 0.32153 0.43823 0.13383 0.0
H973 H 0.36626 0.47494 0.29457 0.0
H974 H 0.35092 0.4678 0.23696 0.0
H975 H 0.33105 0.43161 0.23484 0.0
H976 H 0.29585 0.40923 0.03928 0.0
H977 H 0.31065 0.41711 0.09898 0.0
C978 C 0.53228 0.8981 0.28104 0.0
C979 C 0.53852 0.90906 0.2971 0.0
C980 C 0.53664 0.8939 0.24714 0.0
C981 C 0.55843 0.90199 0.15452 0.0
H982 H 0.55409 0.87278 0.17894 0.0
C983 C 0.58088 0.88414 0.04362 0.0
C984 C 0.57442 0.87315 0.02824 0.0
C985 C 0.57674 0.8886 0.07744 0.0
C986 C 0.55529 0.8809 0.17139 0.0
H987 H 0.5541 0.92432 0.28943 0.0
H988 H 0.56175 0.91696 0.23035 0.0
H989 H 0.54613 0.88052 0.23425 0.0
H990 H 0.55866 0.85813 0.03675 0.0
H991 H 0.55141 0.8659 0.09561 0.0
H992 H 0.56759 0.90236 0.09159 0.0
C993 C 0.55345 0.91164 0.24366 0.0
C994 C 0.55071 0.88533 0.203 0.0
C995 C 0.54909 0.91584 0.2776 0.0
C996 C 0.56384 0.86662 0.04806 0.0
C997 C 0.55971 0.87106 0.08192 0.0
C998 C 0.56301 0.89756 0.12289 0.0
C999 C 0.54734 0.90057 0.22862 0.0
C1000 C 0.5522 0.8959 0.19482 0.0
C1001 C 0.56607 0.88213 0.09659 0.0
C1002 C 0.56146 0.88696 0.13091 0.0
H1003 H 0.52409 0.89269 0.29534 0.0
H1004 H 0.53165 0.8854 0.23563 0.0
H1005 H 0.55962 0.91011 0.14696 0.0
H1006 H 0.58907 0.88937 0.02897 0.0
H1007 H 0.58189 0.89711 0.08856 0.0
C1008 C 0.21383 0.96684 0.89072 0.0
C1009 C 0.20399 0.96375 0.86548 0.0
C1010 C 0.2176 0.97506 0.92608 0.0
C1011 C 0.2159 -0.00077 0.96428 0.0
H1012 H 0.22808 0.99558 0.08486 0.0
C1013 C 0.23008 0.03088 0.12163 0.0
C1014 C 0.23984 0.03316 0.1457 0.0
C1015 C 0.22533 0.02239 0.08741 0.0
C1016 C 0.22481 0.99677 0.05116 0.0
H1017 H 0.19032 0.96678 0.85752 0.0
H1018 H 0.19694 0.98123 0.91959 0.0
H1019 H 0.22018 0.98056 0.02603 0.0
H1020 H 0.25244 0.02854 0.15222 0.0
H1021 H 0.24426 0.01383 0.09202 0.0
H1022 H 0.22066 0.0155 0.9892 0.0
C1023 C 0.20175 0.9773 0.91174 0.0
C1024 C 0.22027 0.98816 0.01755 0.0
C1025 C 0.19794 0.96901 0.87647 0.0
C1026 C 0.24488 0.02693 0.13436 0.0
C1027 C 0.24015 0.01846 0.10015 0.0
C1028 C 0.22048 0.00787 0.9979 0.0
C1029 C 0.21163 0.98042 0.93683 0.0
C1030 C 0.21587 0.98934 0.97357 0.0
C1031 C 0.23026 0.01602 0.07664 0.0
C1032 C 0.22508 0.00676 0.04148 0.0
H1033 H 0.21868 0.96294 0.88296 0.0
H1034 H 0.22531 0.97738 0.94437 0.0
H1035 H 0.21268 0.00041 0.93043 0.0
H1036 H 0.226 0.03554 0.12977 0.0
H1037 H 0.21766 0.02065 0.0702 0.0
C1038 C 0.96672 0.21707 0.12615 0.0
C1039 C 0.96192 0.20598 0.14033 0.0
C1040 C 0.97498 0.22137 0.0908 0.0
C1041 C 0.98738 0.21299 0.99238 0.0
H1042 H 0.01219 0.24258 0.00938 0.0
C1043 C 0.02717 0.23011 0.87872 0.0
C1044 C 0.03117 0.2407 0.85904 0.0
C1045 C 0.01867 0.22598 0.91295 0.0
C1046 C 0.00527 0.23434 0.00402 0.0
H1047 H 0.96195 0.19068 0.12885 0.0
H1048 H 0.97655 0.19822 0.06809 0.0
H1049 H 0.99731 0.23509 0.06902 0.0
H1050 H 0.02961 0.25534 0.86017 0.0
H1051 H 0.01482 0.24815 0.92053 0.0
H1052 H 0.99549 0.2122 0.92785 0.0
C1053 C 0.97379 0.20356 0.08336 0.0
C1054 C 0.99672 0.23006 0.03803 0.0
C1055 C 0.96547 0.19925 0.11838 0.0
C1056 C 0.02666 0.24715 0.87476 0.0
C1057 C 0.01825 0.24306 0.90939 0.0
C1058 C 0.99597 0.21724 0.95865 0.0
C1059 C 0.97867 0.21469 0.06923 0.0
C1060 C 0.98768 0.21932 0.03265 0.0
C1061 C 0.01412 0.23241 0.92849 0.0
C1062 C 0.005 0.22795 0.96419 0.0
H1063 H 0.96409 0.22244 0.14233 0.0
H1064 H 0.97842 0.22992 0.08021 0.0
H1065 H 0.98045 0.20477 0.98661 0.0
H1066 H 0.03049 0.22496 0.86723 0.0
H1067 H 0.01571 0.21778 0.92751 0.0
C1068 C 0.76525 0.79936 0.88226 0.0
C1069 C 0.75719 0.79165 0.8507 0.0
C1070 C 0.7707 0.79607 0.91496 0.0
C1071 C 0.77747 0.77409 0.93527 0.0
H1072 H 0.78201 0.78416 0.06899 0.0
C1073 C 0.78781 0.75276 0.08798 0.0
C1074 C 0.79519 0.75931 0.12451 0.0
C1075 C 0.78446 0.75752 0.05221 0.0
C1076 C 0.78097 0.78143 0.03156 0.0
H1077 H 0.74838 0.77445 0.829 0.0
H1078 H 0.75778 0.76869 0.88637 0.0
H1079 H 0.77339 0.79089 0.01183 0.0
H1080 H 0.80514 0.77602 0.15151 0.0
H1081 H 0.7993 0.78437 0.08866 0.0
H1082 H 0.7849 0.7645 0.95514 0.0
C1083 C 0.76002 0.7773 0.88539 0.0
C1084 C 0.77602 0.78526 -0.00113 0.0
C1085 C 0.75457 0.78058 0.85283 0.0
C1086 C 0.79942 0.77077 0.12379 0.0
C1087 C 0.79603 0.77554 0.08804 0.0
C1088 C 0.78243 0.77027 0.96792 0.0
C1089 C 0.7682 0.78503 0.91655 0.0
C1090 C 0.77406 0.7815 0.95058 0.0
C1091 C 0.7884 0.76893 0.05228 0.0
C1092 C 0.78408 0.77376 0.01658 0.0
H1093 H 0.76745 0.80796 0.88129 0.0
H1094 H 0.77701 0.80222 0.93831 0.0
H1095 H 0.77628 0.77122 0.89802 0.0
H1096 H 0.78441 0.7439 0.08766 0.0
H1097 H 0.77848 0.75219 0.0255 0.0
C1098 C 0.7557 0.97332 0.84909 0.0
C1099 C 0.75666 0.96383 0.85324 0.0
C1100 C 0.76044 0.98167 0.88384 0.0
C1101 C 0.76931 0.98677 0.01055 0.0
H1102 H 0.78532 0.01746 0.97054 0.0
C1103 C 0.77931 0.0227 0.1413 0.0
C1104 C 0.79001 0.03188 0.13934 0.0
C1105 C 0.7758 0.01436 0.10653 0.0
C1106 C 0.78095 0.00893 0.98222 0.0
H1107 H 0.7633 0.95561 0.89688 0.0
H1108 H 0.77152 0.97022 0.95812 0.0
H1109 H 0.77833 0.00291 0.90911 0.0
H1110 H 0.80543 0.03958 0.09945 0.0
H1111 H 0.79925 0.025 0.03824 0.0
H1112 H 0.77184 0.9928 0.08365 0.0
C1113 C 0.76709 0.97116 0.92792 0.0
C1114 C 0.77687 0.00061 0.94712 0.0
C1115 C 0.76243 0.96283 0.89286 0.0
C1116 C 0.79713 0.0326 0.10177 0.0
C1117 C 0.79359 0.02429 0.06671 0.0
C1118 C 0.7733 0.99509 0.04564 0.0
C1119 C 0.76616 0.98067 0.92365 0.0
C1120 C 0.77094 0.98946 0.96094 0.0
C1121 C 0.7829 0.01507 0.0689 0.0
C1122 C 0.77909 0.00625 0.03179 0.0
H1123 H 0.75131 0.97431 0.8189 0.0
H1124 H 0.75948 0.98885 0.87997 0.0
H1125 H 0.7647 0.97825 0.02219 0.0
H1126 H 0.77364 0.02193 0.16988 0.0
H1127 H 0.76748 0.00741 0.10873 0.0
C1128 C 0.02667 0.78148 0.87898 0.0
C1129 C 0.03081 0.792 0.85845 0.0
C1130 C 0.01848 0.77774 0.9145 0.0
C1131 C 0.99623 0.78168 0.96207 0.0
H1132 H -0.00141 0.7663 0.07458 0.0
C1133 C 0.96528 0.76732 0.12247 0.0
C1134 C 0.96213 0.75689 0.14204 0.0
C1135 C 0.97374 0.77207 0.08805 0.0
C1136 C -0.00225 0.77047 0.04313 0.0
H1137 H 0.02964 0.80687 0.85877 0.0
H1138 H 0.01526 0.80031 0.92109 0.0
H1139 H 0.01334 0.77384 0.0145 0.0
H1140 H 0.96514 0.74313 0.14028 0.0
H1141 H 0.97974 0.75131 0.07977 0.0
H1142 H 0.98056 0.77816 0.99044 0.0
C1143 C 0.01834 0.79495 0.90945 0.0
C1144 C 0.00621 0.77481 0.0088 0.0
C1145 C 0.02659 0.79872 0.87403 0.0
C1146 C 0.96744 0.75121 0.12604 0.0
C1147 C 0.97586 0.75593 0.09162 0.0
C1148 C 0.98774 0.77729 0.99639 0.0
C1149 C 0.01423 0.78443 0.93011 0.0
C1150 C 0.00549 0.78035 0.96767 0.0
C1151 C 0.97918 0.76646 0.07257 0.0
C1152 C 0.98836 0.77154 0.03702 0.0
H1153 H 0.02974 0.7761 0.86758 0.0
H1154 H 0.01536 0.76954 0.92929 0.0
H1155 H 0.99542 0.78583 0.93046 0.0
H1156 H 0.96132 0.77188 0.13426 0.0
H1157 H 0.97616 0.78022 0.07433 0.0
C1158 C 0.23054 0.19901 0.11542 0.0
C1159 C 0.24083 0.20586 0.13724 0.0
C1160 C 0.22649 0.20318 0.07991 0.0
C1161 C 0.2348 0.22531 0.99037 0.0
H1162 H 0.20483 0.2196 0.00469 0.0
C1163 C 0.21762 0.24722 0.8716 0.0
C1164 C 0.2066 0.24101 0.85629 0.0
C1165 C 0.22185 0.24293 0.90572 0.0
C1166 C 0.21316 0.22115 -0.00031 0.0
H1167 H 0.25508 0.22235 0.13834 0.0
H1168 H 0.24804 0.22962 0.0758 0.0
H1169 H 0.21218 0.21186 0.06316 0.0
H1170 H 0.19138 0.22542 0.86422 0.0
H1171 H 0.19882 0.21779 0.92277 0.0
H1172 H 0.23577 0.23445 0.92651 0.0
C1173 C 0.24311 0.22104 0.08624 0.0
C1174 C 0.21736 0.21673 0.03327 0.0
C1175 C 0.24712 0.21689 0.12213 0.0
C1176 C 0.19989 0.23042 0.87566 0.0
C1177 C 0.20414 0.22608 0.90941 0.0
C1178 C 0.23056 0.22965 0.95647 0.0
C1179 C 0.23271 0.21425 0.06523 0.0
C1180 C 0.22823 0.21879 0.02899 0.0
C1181 C 0.21518 0.23228 0.92489 0.0
C1182 C 0.2197 0.22764 0.9608 0.0
H1183 H 0.22553 0.19046 0.12636 0.0
H1184 H 0.21849 0.19776 0.0639 0.0
H1185 H 0.24318 0.22693 0.986 0.0
H1186 H 0.22297 0.25543 0.85738 0.0
H1187 H 0.23033 0.248 0.91741 0.0
C1188 C 0.89456 0.36364 0.46046 0.0
C1189 C 0.90486 0.36673 0.48145 0.0
C1190 C 0.88997 0.35516 0.42605 0.0
C1191 C 0.89163 0.33103 0.38313 0.0
H1192 H 0.877 0.33353 0.26814 0.0
C1193 C 0.88128 0.30212 0.21908 0.0
C1194 C 0.87088 0.29807 0.19741 0.0
C1195 C 0.88489 0.31029 0.25471 0.0
C1196 C 0.88095 0.33266 0.30038 0.0
H1197 H 0.91852 0.36356 0.48235 0.0
H1198 H 0.91061 0.34893 0.42185 0.0
H1199 H 0.88442 0.34837 0.3282 0.0
H1200 H 0.85608 0.29937 0.19584 0.0
H1201 H 0.86242 0.31371 0.25828 0.0
H1202 H 0.8883 0.31541 0.35502 0.0
C1203 C 0.90597 0.35287 0.43256 0.0
C1204 C 0.88519 0.34115 0.33477 0.0
C1205 C 0.91054 0.36131 0.46697 0.0
C1206 C 0.86414 0.30235 0.21199 0.0
C1207 C 0.86778 0.31058 0.24749 0.0
C1208 C 0.88743 0.32258 0.34873 0.0
C1209 C 0.89559 0.34964 0.412 0.0
C1210 C 0.89068 0.34047 0.37628 0.0
C1211 C 0.87819 0.31461 0.26925 0.0
C1212 C 0.88214 0.32336 0.30678 0.0
H1213 H 0.88999 0.36767 0.47106 0.0
H1214 H 0.88192 0.3528 0.41118 0.0
H1215 H 0.8956 0.33014 0.41523 0.0
H1216 H 0.88666 0.299 0.20848 0.0
H1217 H 0.893 0.31333 0.27039 0.0
C1218 C 0.69029 0.57803 0.19844 0.0
C1219 C 0.69875 0.57542 0.20055 0.0
C1220 C 0.68202 0.57405 0.2337 0.0
C1221 C 0.66859 0.55203 0.32531 0.0
H1222 H 0.65687 0.57024 0.37213 0.0
C1223 C 0.62933 0.53423 0.44279 0.0
C1224 C 0.62937 0.54072 0.48175 0.0
C1225 C 0.63778 0.53862 0.40834 0.0
C1226 C 0.66011 0.56507 0.35974 0.0
H1227 H 0.70536 0.56681 0.24163 0.0
H1228 H 0.69102 0.56003 0.30388 0.0
H1229 H 0.67209 0.57786 0.3144 0.0
H1230 H 0.63822 0.55689 0.51523 0.0
H1231 H 0.65307 0.56451 0.45563 0.0
H1232 H 0.65681 0.53933 0.37159 0.0
C1233 C 0.69065 0.56497 0.27446 0.0
C1234 C 0.66875 0.5694 0.32622 0.0
C1235 C 0.6989 0.56891 0.23902 0.0
C1236 C 0.63795 0.55171 0.48542 0.0
C1237 C 0.64643 0.55609 0.45113 0.0
C1238 C 0.65998 0.54771 0.35897 0.0
C1239 C 0.68207 0.56743 0.27196 0.0
C1240 C 0.67307 0.56292 0.30851 0.0
C1241 C 0.64647 0.54958 0.41232 0.0
C1242 C 0.65562 0.55417 0.37647 0.0
H1243 H 0.68994 0.58299 0.16905 0.0
H1244 H 0.67545 0.57597 0.2303 0.0
H1245 H 0.67164 0.54677 0.31196 0.0
H1246 H 0.62278 0.52573 0.43898 0.0
H1247 H 0.63747 0.53344 0.37845 0.0
C1248 C 0.42359 0.11587 0.18128 0.0
C1249 C 0.42356 0.12583 0.18683 0.0
C1250 C 0.42847 0.11248 0.21637 0.0
C1251 C 0.43599 0.1155 0.34478 0.0
H1252 H 0.45432 0.1033 0.30548 0.0
C1253 C 0.44649 0.08951 0.47227 0.0
C1254 C 0.45742 0.09164 0.47251 0.0
C1255 C 0.44308 0.09453 0.43806 0.0
C1256 C 0.44931 0.10678 0.317 0.0
H1257 H 0.42856 0.14005 0.23339 0.0
H1258 H 0.43702 0.13405 0.29519 0.0
H1259 H 0.44712 0.11065 0.24404 0.0
H1260 H 0.47336 0.10068 0.43721 0.0
H1261 H 0.46733 0.10941 0.37683 0.0
H1262 H 0.43807 0.11152 0.41769 0.0
C1263 C 0.43326 0.12888 0.26364 0.0
C1264 C 0.44511 0.11089 0.28186 0.0
C1265 C 0.42845 0.13232 0.22827 0.0
C1266 C 0.46488 0.09888 0.43778 0.0
C1267 C 0.46143 0.10384 0.40321 0.0
C1268 C 0.44011 0.11131 0.37988 0.0
C1269 C 0.43334 0.11895 0.25789 0.0
C1270 C 0.43832 0.11519 0.29538 0.0
C1271 C 0.4505 0.10173 0.40315 0.0
C1272 C 0.44671 0.10681 0.36628 0.0
H1273 H 0.41989 0.1107 0.14967 0.0
H1274 H 0.42828 0.10472 0.21133 0.0
H1275 H 0.43072 0.11871 0.35618 0.0
H1276 H 0.44056 0.08397 0.49864 0.0
H1277 H 0.43456 0.09264 0.43845 0.0
C1278 C 0.42897 0.29617 0.22576 0.0
C1279 C 0.42349 0.29743 0.18567 0.0
C1280 C 0.43374 0.30444 0.261 0.0
C1281 C 0.44428 0.33406 0.28031 0.0
H1282 H 0.43874 0.32619 0.41664 0.0
C1283 C 0.46452 0.36595 0.43515 0.0
C1284 C 0.45735 0.36535 0.47226 0.0
C1285 C 0.46097 0.3576 0.40027 0.0
C1286 C 0.44034 0.3285 0.37869 0.0
H1287 H 0.41874 0.30833 0.15074 0.0
H1288 H 0.42708 0.32277 0.21215 0.0
H1289 H 0.43146 0.31167 0.35499 0.0
H1290 H 0.4409 0.35556 0.50224 0.0
H1291 H 0.43472 0.34099 0.44137 0.0
H1292 H 0.45299 0.35089 0.30394 0.0
C1293 C 0.42775 0.31543 0.21623 0.0
C1294 C 0.43627 0.3202 0.34349 0.0
C1295 C 0.42292 0.30713 0.18127 0.0
C1296 C 0.4466 0.35624 0.47401 0.0
C1297 C 0.44309 0.34787 0.4394 0.0
C1298 C 0.44842 0.34235 0.31552 0.0
C1299 C 0.43319 0.31416 0.25648 0.0
C1300 C 0.43808 0.32291 0.29393 0.0
C1301 C 0.45023 0.34847 0.40217 0.0
C1302 C 0.44638 0.33965 0.36502 0.0
H1303 H 0.42954 0.28878 0.22999 0.0
H1304 H 0.43794 0.3033 0.29154 0.0
H1305 H 0.44589 0.33637 0.24236 0.0
H1306 H 0.47286 0.37287 0.43302 0.0
H1307 H 0.46667 0.35823 0.37213 0.0
C1308 C 0.69276 0.13205 0.19864 0.0
C1309 C 0.69649 0.12497 0.18238 0.0
C1310 C 0.68397 0.12826 0.23138 0.0
C1311 C 0.66034 0.10254 0.27843 0.0
H1312 H 0.66192 0.1208 0.38761 0.0
C1313 C 0.63244 0.08503 0.44593 0.0
C1314 C 0.62805 0.0912 0.46627 0.0
C1315 C 0.64023 0.08943 0.40873 0.0
C1316 C 0.66129 0.11567 0.35691 0.0
H1317 H 0.69406 0.10844 0.18779 0.0
H1318 H 0.67887 0.10189 0.24534 0.0
H1319 H 0.67673 0.12805 0.32752 0.0
H1320 H 0.62826 0.10679 0.46351 0.0
H1321 H 0.64193 0.11453 0.39827 0.0
H1322 H 0.64501 0.0901 0.30831 0.0
C1323 C 0.68257 0.1103 0.23226 0.0
C1324 C 0.66977 0.11982 0.32251 0.0
C1325 C 0.69133 0.11407 0.19956 0.0
C1326 C 0.63152 0.10185 0.44848 0.0
C1327 C 0.63937 0.10629 0.41136 0.0
C1328 C 0.65189 0.0984 0.31285 0.0
C1329 C 0.67876 0.11733 0.24841 0.0
C1330 C 0.66945 0.11324 0.28328 0.0
C1331 C 0.64381 0.10013 0.3912 0.0
C1332 C 0.65236 0.10486 0.35281 0.0
H1333 H 0.69657 0.14049 0.18586 0.0
H1334 H 0.68116 0.13385 0.24284 0.0
H1335 H 0.65974 0.09735 0.24806 0.0
H1336 H 0.62993 0.0768 0.45897 0.0
H1337 H 0.64361 0.08454 0.39437 0.0
C1338 C 0.90118 0.53302 0.42952 0.0
C1339 C 0.90679 0.53981 0.46933 0.0
C1340 C 0.89656 0.53662 0.39396 0.0
C1341 C 0.88626 0.55583 0.37509 0.0
H1342 H 0.89054 0.55256 0.23818 0.0
C1343 C 0.86417 0.56591 0.22302 0.0
C1344 C 0.87089 0.57225 0.18432 0.0
C1345 C 0.86819 0.56148 0.25755 0.0
C1346 C 0.8893 0.55354 0.2763 0.0
H1347 H 0.91204 0.55568 0.5031 0.0
H1348 H 0.90396 0.56194 0.4411 0.0
H1349 H 0.89843 0.5458 0.29917 0.0
H1350 H 0.88703 0.57886 0.15108 0.0
H1351 H 0.89402 0.5711 0.21131 0.0
H1352 H 0.87725 0.5637 0.35229 0.0
C1353 C 0.90307 0.55382 0.43753 0.0
C1354 C 0.89373 0.54959 0.31113 0.0
C1355 C 0.90776 0.55027 0.47281 0.0
C1356 C 0.88166 0.57401 0.18056 0.0
C1357 C 0.88564 0.56951 0.21483 0.0
C1358 C 0.88175 0.5597 0.34028 0.0
C1359 C 0.89739 0.54702 0.39788 0.0
C1360 C 0.89234 0.5508 0.36085 0.0
C1361 C 0.87896 0.56323 0.25371 0.0
C1362 C 0.88331 0.55868 0.29056 0.0
H1363 H 0.9003 0.52491 0.42599 0.0
H1364 H 0.89217 0.53119 0.36389 0.0
H1365 H 0.88497 0.55677 0.4132 0.0
H1366 H 0.85582 0.56441 0.22672 0.0
H1367 H 0.86283 0.55659 0.28699 0.0
C1368 C 0.52922 0.63527 0.54118 0.0
C1369 C 0.53697 0.63258 0.52323 0.0
C1370 C 0.53244 0.64399 0.57387 0.0
C1371 C 0.55714 0.66916 0.61882 0.0
H1372 H 0.53862 0.66563 0.72989 0.0
C1373 C 0.56946 0.70398 0.75907 0.0
C1374 C 0.56812 0.70068 0.80794 0.0
C1375 C 0.56471 0.69612 0.72214 0.0
C1376 C 0.5439 0.66673 0.6991 0.0
H1377 H 0.55413 0.63681 0.52555 0.0
H1378 H 0.55972 0.65188 0.5832 0.0
H1379 H 0.53243 0.65089 0.66996 0.0
H1380 H 0.56056 0.68663 0.85666 0.0
H1381 H 0.55246 0.67294 0.79243 0.0
H1382 H 0.56882 0.68479 0.64897 0.0
C1383 C 0.5512 0.64742 0.57142 0.0
C1384 C 0.54029 0.65834 0.66448 0.0
C1385 C 0.54798 0.63872 0.5387 0.0
C1386 C 0.56172 0.68942 0.81929 0.0
C1387 C 0.55701 0.68157 0.78245 0.0
C1388 C 0.56076 0.67753 0.6535 0.0
C1389 C 0.54348 0.65018 0.58925 0.0
C1390 C 0.54695 0.65939 0.62434 0.0
C1391 C 0.55855 0.68481 0.73342 0.0
C1392 C 0.55425 0.67635 0.69442 0.0
H1393 H 0.52067 0.6307 0.52968 0.0
H1394 H 0.52632 0.64598 0.5866 0.0
H1395 H 0.56239 0.6703 0.58788 0.0
H1396 H 0.57432 0.71262 0.74932 0.0
H1397 H 0.56592 0.69889 0.68474 0.0
C1398 C 0.30482 0.88404 0.80927 0.0
C1399 C 0.29595 0.87321 0.8049 0.0
C1400 C 0.3131 0.88842 0.7741 0.0
C1401 C 0.31901 0.88538 0.64717 0.0
H1402 H 0.34957 0.90077 0.68921 0.0
C1403 C 0.35537 0.90959 0.51537 0.0
C1404 C 0.36429 0.90771 0.51994 0.0
C1405 C 0.34701 0.90555 0.55025 0.0
C1406 C 0.34108 0.89646 0.67699 0.0
H1407 H 0.28869 0.85849 0.76011 0.0
H1408 H 0.30317 0.86618 0.69834 0.0
H1409 H 0.33483 0.89326 0.74973 0.0
H1410 H 0.37156 0.90026 0.56469 0.0
H1411 H 0.35697 0.89325 0.62589 0.0
H1412 H 0.32526 0.88852 0.57441 0.0
C1413 C 0.30368 0.87128 0.72895 0.0
C1414 C 0.33265 0.89225 0.71156 0.0
C1415 C 0.29544 0.86687 0.76436 0.0
C1416 C 0.36478 0.90183 0.56029 0.0
C1417 C 0.35647 0.89787 0.59539 0.0
C1418 C 0.32744 0.88967 0.61259 0.0
C1419 C 0.31263 0.88207 0.7337 0.0
C1420 C 0.32154 0.88664 0.69697 0.0
C1421 C 0.34747 0.89963 0.59053 0.0
C1422 C 0.33855 0.89522 0.62719 0.0
H1423 H 0.30542 0.88912 0.84015 0.0
H1424 H 0.31986 0.8968 0.77837 0.0
H1425 H 0.31051 0.88115 0.63497 0.0
H1426 H 0.35478 0.9141 0.4846 0.0
H1427 H 0.34022 0.90711 0.5459 0.0
C1428 C 0.11306 0.41747 0.78049 0.0
C1429 C 0.1237 0.42381 0.8 0.0
C1430 C 0.10931 0.42184 0.74459 0.0
C1431 C 0.11358 0.44794 0.69461 0.0
H1432 H 0.09751 0.42982 0.58403 0.0
C1433 C 0.09928 0.4645 0.5341 0.0
C1434 C 0.08875 0.45735 0.51513 0.0
C1435 C 0.10399 0.46071 0.56836 0.0
C1436 C 0.10188 0.43495 0.61495 0.0
H1437 H 0.13877 0.43967 0.79739 0.0
H1438 H 0.13219 0.44733 0.73447 0.0
H1439 H 0.105 0.42264 0.64449 0.0
H1440 H 0.07479 0.44069 0.5176 0.0
H1441 H 0.08288 0.43412 0.57791 0.0
H1442 H 0.1103 0.4602 0.66544 0.0
C1443 C 0.12675 0.439 0.74718 0.0
C1444 C 0.10619 0.43084 0.64949 0.0
C1445 C 0.13053 0.43461 0.78295 0.0
C1446 C 0.08295 0.44638 0.5314 0.0
C1447 C 0.08763 0.4426 0.56571 0.0
C1448 C 0.10922 0.45204 0.66012 0.0
C1449 C 0.1161 0.43265 0.72761 0.0
C1450 C 0.11199 0.43725 0.68988 0.0
C1451 C 0.09823 0.44969 0.58433 0.0
C1452 C 0.10323 0.44555 0.62014 0.0
H1453 H 0.1076 0.40913 0.79301 0.0
H1454 H 0.10101 0.4168 0.73062 0.0
H1455 H 0.11792 0.45302 0.72566 0.0
H1456 H 0.10395 0.473 0.52206 0.0
H1457 H 0.11221 0.46635 0.58165 0.0
C1458 C 0.12975 0.69934 0.77033 0.0
C1459 C 0.12277 0.69874 0.80831 0.0
C1460 C 0.12605 0.69097 0.73553 0.0
C1461 C 0.10549 0.66179 0.71563 0.0
H1462 H 0.11047 0.6694 0.5789 0.0
C1463 C 0.09483 0.62944 0.56336 0.0
C1464 C 0.08929 0.63047 0.52293 0.0
C1465 C 0.09926 0.63771 0.59872 0.0
C1466 C 0.10901 0.66716 0.61696 0.0
H1467 H 0.10648 0.68893 0.83985 0.0
H1468 H 0.10004 0.67431 0.77912 0.0
H1469 H 0.11759 0.68404 0.6399 0.0
H1470 H 0.08399 0.64091 0.48772 0.0
H1471 H 0.09174 0.65534 0.54937 0.0
H1472 H 0.09678 0.64491 0.69263 0.0
C1473 C 0.10838 0.68121 0.77641 0.0
C1474 C 0.11316 0.67553 0.65184 0.0
C1475 C 0.11204 0.68961 0.81095 0.0
C1476 C 0.08823 0.63989 0.51851 0.0
C1477 C 0.09272 0.64819 0.5536 0.0
C1478 C 0.10141 0.65342 0.68076 0.0
C1479 C 0.11534 0.6818 0.73836 0.0
C1480 C 0.11135 0.67292 0.70148 0.0
C1481 C 0.0983 0.64719 0.59398 0.0
C1482 C 0.10303 0.65603 0.63108 0.0
H1483 H 0.13807 0.70628 0.7675 0.0
H1484 H 0.13161 0.69159 0.70675 0.0
H1485 H 0.10407 0.65955 0.7537 0.0
H1486 H 0.09577 0.62226 0.56761 0.0
H1487 H 0.10358 0.63677 0.62937 0.0
C1488 C 0.30723 0.42422 0.80907 0.0
C1489 C 0.29829 0.42612 0.8074 0.0
C1490 C 0.31567 0.42902 0.77471 0.0
C1491 C 0.32136 0.43996 0.65111 0.0
H1492 H 0.35203 0.45306 0.69007 0.0
C1493 C 0.35627 0.44922 0.51579 0.0
C1494 C 0.36599 0.45947 0.51994 0.0
C1495 C 0.34806 0.44577 0.55117 0.0
C1496 C 0.34351 0.44951 0.67873 0.0
H1497 H 0.29115 0.43455 0.7687 0.0
H1498 H 0.30589 0.44288 0.70822 0.0
H1499 H 0.33757 0.44606 0.75197 0.0
H1500 H 0.37482 0.47414 0.56437 0.0
H1501 H 0.36047 0.46804 0.62667 0.0
H1502 H 0.32729 0.44332 0.57787 0.0
C1503 C 0.30634 0.43766 0.73611 0.0
C1504 C 0.33524 0.44542 0.71406 0.0
C1505 C 0.29794 0.43293 0.77076 0.0
C1506 C 0.3674 0.46619 0.56031 0.0
C1507 C 0.35923 0.46269 0.59599 0.0
C1508 C 0.32962 0.44395 0.61577 0.0
C1509 C 0.31528 0.43575 0.73779 0.0
C1510 C 0.32408 0.44054 0.70055 0.0
C1511 C 0.34946 0.45246 0.5916 0.0
C1512 C 0.34076 0.44869 0.62923 0.0
H1513 H 0.30772 0.41902 0.83695 0.0
H1514 H 0.3224 0.42731 0.77652 0.0
H1515 H 0.31283 0.43617 0.63966 0.0
H1516 H 0.35495 0.44386 0.48504 0.0
H1517 H 0.34068 0.43778 0.5472 0.0
C1518 C 0.56094 0.86463 0.78836 0.0
C1519 C 0.57192 0.87129 0.80354 0.0
C1520 C 0.55655 0.8683 0.75206 0.0
C1521 C 0.56462 0.88798 0.6506 0.0
H1522 H 0.53586 0.88516 0.66992 0.0
C1523 C 0.54935 0.91157 0.53313 0.0
C1524 C 0.53825 0.906 0.51859 0.0
C1525 C 0.55317 0.90682 0.56688 0.0
C1526 C 0.54384 0.88587 0.66366 0.0
H1527 H 0.58696 0.88692 0.79257 0.0
H1528 H 0.5793 0.89332 0.72933 0.0
H1529 H 0.54307 0.87761 0.73028 0.0
H1530 H 0.52241 0.89112 0.52788 0.0
H1531 H 0.52912 0.88274 0.58661 0.0
H1532 H 0.56542 0.89626 0.58414 0.0
C1533 C 0.5741 0.88525 0.74513 0.0
C1534 C 0.54796 0.88155 0.69823 0.0
C1535 C 0.57847 0.88161 0.78153 0.0
C1536 C 0.53101 0.89561 0.53859 0.0
C1537 C 0.53484 0.89084 0.57234 0.0
C1538 C 0.56048 0.89226 0.61601 0.0
C1539 C 0.56309 0.87865 0.73014 0.0
C1540 C 0.55844 0.88268 0.69228 0.0
C1541 C 0.54597 0.89638 0.58671 0.0
C1542 C 0.5501 0.89137 0.62242 0.0
H1543 H 0.55571 0.85663 0.80469 0.0
H1544 H 0.54806 0.863 0.7409 0.0
H1545 H 0.57265 0.8888 0.64468 0.0
H1546 H 0.55511 0.91962 0.51845 0.0
H1547 H 0.56175 0.91139 0.57782 0.0
C1548 C 0.37333 0.12466 0.1537 0.0
C1549 C 0.37685 0.12113 0.11317 0.0
C1550 C 0.36217 0.11935 0.16633 0.0
C1551 C 0.33664 0.09287 0.15538 0.0
H1552 H 0.3221 0.10945 0.18793 0.0
C1553 C 0.29353 0.07278 0.24347 0.0
C1554 C 0.28595 0.07533 0.2223 0.0
C1555 C 0.30465 0.0786 0.23023 0.0
C1556 C 0.32606 0.10473 0.17877 0.0
H1557 H 0.37147 0.10935 0.05392 0.0
H1558 H 0.35198 0.1 0.07636 0.0
H1559 H 0.34154 0.11926 0.16368 0.0
H1560 H 0.28405 0.08609 0.1714 0.0
H1561 H 0.30356 0.09638 0.14867 0.0
H1562 H 0.3212 0.07835 0.17061 0.0
C1563 C 0.35786 0.10686 0.09832 0.0
C1564 C 0.33718 0.11033 0.16527 0.0
C1565 C 0.36899 0.11224 0.08538 0.0
C1566 C 0.28972 0.08394 0.18825 0.0
C1567 C 0.30087 0.08985 0.17542 0.0
C1568 C 0.32557 0.08728 0.16943 0.0
C1569 C 0.35434 0.11034 0.13899 0.0
C1570 C 0.34256 0.10445 0.15332 0.0
C1571 C 0.30842 0.08717 0.19598 0.0
C1572 C 0.32017 0.09315 0.1812 0.0
H1573 H 0.37921 0.1315 0.17573 0.0
H1574 H 0.35968 0.12215 0.19806 0.0
H1575 H 0.34061 0.08814 0.14673 0.0
H1576 H 0.29086 0.06618 0.26984 0.0
H1577 H 0.31032 0.07643 0.24699 0.0
C1578 C 0.87552 0.25178 0.16817 0.0
C1579 C 0.87374 0.25361 0.11972 0.0
C1580 C 0.88037 0.24541 0.17901 0.0
C1581 C 0.8977 0.23517 0.12438 0.0
H1582 H 0.88867 0.21631 0.23823 0.0
C1583 C 0.915 0.2064 0.16878 0.0
C1584 C 0.91859 0.20684 0.21683 0.0
C1585 C 0.90891 0.21146 0.15619 0.0
C1586 C 0.89131 0.22159 0.20647 0.0
H1587 H 0.87539 0.25005 0.04457 0.0
H1588 H 0.88364 0.2387 0.06344 0.0
H1589 H 0.87896 0.22614 0.21684 0.0
H1590 H 0.91845 0.21271 0.28958 0.0
H1591 H 0.90773 0.22149 0.2676 0.0
H1592 H 0.91 0.23053 0.11396 0.0
C1593 C 0.88151 0.24237 0.09311 0.0
C1594 C 0.88578 0.22725 0.19425 0.0
C1595 C 0.87673 0.24882 0.08227 0.0
C1596 C 0.9158 0.21225 0.25225 0.0
C1597 C 0.90961 0.21722 0.23974 0.0
C1598 C 0.90317 0.22944 0.13639 0.0
C1599 C 0.88347 0.24066 0.14163 0.0
C1600 C 0.88898 0.2342 0.15331 0.0
C1601 C 0.9062 0.21696 0.19149 0.0
C1602 C 0.90009 0.22267 0.17778 0.0
H1603 H 0.87333 0.25541 0.19781 0.0
H1604 H 0.88191 0.24443 0.21673 0.0
H1605 H 0.90052 0.24059 0.0931 0.0
H1606 H 0.91702 0.20228 0.14071 0.0
H1607 H 0.90629 0.21104 0.11882 0.0
C1608 C 0.74862 0.62268 0.15567 0.0
C1609 C 0.74046 0.61892 0.11948 0.0
C1610 C 0.75448 0.63384 0.16828 0.0
C1611 C 0.75246 0.65896 0.16661 0.0
H1612 H 0.78419 0.67407 0.18453 0.0
C1613 C 0.77692 0.70297 0.24599 0.0
C1614 C 0.7865 0.71034 0.22048 0.0
C1615 C 0.77147 0.69169 0.23536 0.0
C1616 C 0.77533 0.66996 0.17956 0.0
H1617 H 0.73206 0.62388 0.06777 0.0
H1618 H 0.74228 0.6434 0.08991 0.0
H1619 H 0.77434 0.65463 0.16087 0.0
H1620 H 0.79806 0.71169 0.16471 0.0
H1621 H 0.78859 0.692 0.14638 0.0
H1622 H 0.75345 0.6743 0.18486 0.0
C1623 C 0.7441 0.63769 0.1087 0.0
C1624 C 0.76969 0.65883 0.16638 0.0
C1625 C 0.73831 0.62655 0.09583 0.0
C1626 C 0.79068 0.7062 0.18496 0.0
C1627 C 0.7853 0.69492 0.17462 0.0
C1628 C 0.75808 0.67007 0.18017 0.0
C1629 C 0.75221 0.64145 0.14519 0.0
C1630 C 0.7582 0.65323 0.15952 0.0
C1631 C 0.77557 0.68757 0.19934 0.0
C1632 C 0.76958 0.67569 0.18656 0.0
H1633 H 0.75045 0.61699 0.17454 0.0
H1634 H 0.76062 0.63648 0.1968 0.0
H1635 H 0.74358 0.65483 0.16205 0.0
H1636 H 0.77351 0.70593 0.27358 0.0
H1637 H 0.76406 0.68619 0.25532 0.0
C1638 C 0.07814 0.28921 0.82703 0.0
C1639 C 0.07506 0.28558 0.779 0.0
C1640 C 0.08443 0.30045 0.83746 0.0
C1641 C 0.09206 0.3278 0.78652 0.0
H1642 H 0.1142 0.33841 0.8883 0.0
C1643 C 0.12058 0.37414 0.82494 0.0
C1644 C 0.12157 0.37734 0.87389 0.0
C1645 C 0.11557 0.36299 0.81244 0.0
C1646 C 0.108 0.33555 0.85998 0.0
H1647 H 0.07635 0.29083 0.70404 0.0
H1648 H 0.08755 0.31048 0.72203 0.0
H1649 H 0.10435 0.31884 0.86739 0.0
H1650 H 0.11832 0.37144 0.94823 0.0
H1651 H 0.10959 0.35192 0.92636 0.0
H1652 H 0.09576 0.34453 0.77903 0.0
C1653 C 0.08491 0.30466 0.75183 0.0
C1654 C 0.10233 0.32434 0.84804 0.0
C1655 C 0.07854 0.2934 0.74146 0.0
C1656 C 0.11767 0.3692 0.91019 0.0
C1657 C 0.11272 0.35805 0.8977 0.0
C1658 C 0.09778 0.33901 0.79822 0.0
C1659 C 0.08785 0.30833 0.80002 0.0
C1660 C 0.09423 0.32031 0.81141 0.0
C1661 C 0.11152 0.35483 0.84867 0.0
C1662 C 0.10575 0.34298 0.83528 0.0
H1663 H 0.07553 0.28336 0.85676 0.0
H1664 H 0.08639 0.30298 0.87503 0.0
H1665 H 0.08574 0.32497 0.75873 0.0
H1666 H 0.12353 0.38023 0.79617 0.0
H1667 H 0.11485 0.36075 0.77439 0.0
C1668 C 0.70636 0.79021 0.82282 0.0
C1669 C 0.70996 0.78587 0.78571 0.0
C1670 C 0.6953 0.78469 0.83727 0.0
C1671 C 0.67038 0.75724 0.8372 0.0
H1672 H 0.65482 0.77339 0.85576 0.0
C1673 C 0.62317 0.73528 0.8587 0.0
C1674 C 0.61878 0.73967 0.89199 0.0
C1675 C 0.63441 0.74096 0.84773 0.0
C1676 C 0.65908 0.76878 0.85142 0.0
H1677 H 0.70486 0.7724 0.73456 0.0
H1678 H 0.68558 0.76275 0.75984 0.0
H1679 H 0.67427 0.7833 0.83292 0.0
H1680 H 0.62272 0.75339 0.94031 0.0
H1681 H 0.64242 0.76326 0.9217 0.0
H1682 H 0.65525 0.74273 0.85581 0.0
C1683 C 0.6913 0.77038 0.77797 0.0
C1684 C 0.67022 0.77446 0.83826 0.0
C1685 C 0.70232 0.77593 0.76331 0.0
C1686 C 0.62587 0.74982 0.91441 0.0
C1687 C 0.63714 0.7555 0.90352 0.0
C1688 C 0.65927 0.75157 0.85057 0.0
C1689 C 0.68767 0.77469 0.81513 0.0
C1690 C 0.67595 0.76873 0.83063 0.0
C1691 C 0.64153 0.75115 0.86991 0.0
C1692 C 0.65346 0.75726 0.85746 0.0
H1693 H 0.71208 0.79787 0.84073 0.0
H1694 H 0.69275 0.78816 0.86626 0.0
H1695 H 0.67464 0.75263 0.83235 0.0
H1696 H 0.61789 0.72749 0.84069 0.0
H1697 H 0.63748 0.73745 0.82114 0.0
C1698 C 0.20829 0.91736 0.83312 0.0
C1699 C 0.20706 0.91971 0.78469 0.0
C1700 C 0.21341 0.91125 0.84398 0.0
C1701 C 0.2324 0.90284 0.79117 0.0
H1702 H 0.22272 0.88267 0.90058 0.0
C1703 C 0.2502 0.87438 0.83259 0.0
C1704 C 0.25332 0.87427 0.88102 0.0
C1705 C 0.24415 0.87949 0.8203 0.0
C1706 C 0.22554 0.88833 0.87011 0.0
H1707 H 0.20995 0.91729 0.70953 0.0
H1708 H 0.21865 0.90635 0.72833 0.0
H1709 H 0.21258 0.89206 0.87909 0.0
H1710 H 0.25246 0.87927 0.95466 0.0
H1711 H 0.24176 0.88814 0.93318 0.0
H1712 H 0.24528 0.89897 0.78199 0.0
C1713 C 0.21589 0.90944 0.75805 0.0
C1714 C 0.21976 0.89373 0.85783 0.0
C1715 C 0.21084 0.91565 0.74722 0.0
C1716 C 0.25016 0.87924 0.91705 0.0
C1717 C 0.24401 0.88426 0.90481 0.0
C1718 C 0.23811 0.89735 0.80319 0.0
C1719 C 0.21734 0.90726 0.80661 0.0
C1720 C 0.22317 0.90112 0.81842 0.0
C1721 C 0.24101 0.8845 0.85626 0.0
C1722 C 0.23478 0.8901 0.84296 0.0
H1723 H 0.20549 0.92043 0.8628 0.0
H1724 H 0.21453 0.90989 0.88177 0.0
H1725 H 0.23539 0.90861 0.76118 0.0
H1726 H 0.25251 0.8706 0.80405 0.0
H1727 H 0.24186 0.87947 0.78267 0.0
C1728 C 0.70147 0.91595 0.75239 0.0
C1729 C 0.70987 0.92017 0.78752 0.0
C1730 C 0.69043 0.90958 0.76629 0.0
C1731 C 0.67185 0.90449 0.86902 0.0
H1732 H 0.65184 0.87805 0.79756 0.0
C1733 C 0.62625 0.87736 0.92525 0.0
C1734 C 0.61849 0.8735 0.88736 0.0
C1735 C 0.63752 0.88226 0.9151 0.0
C1736 C 0.6573 0.88546 0.81764 0.0
H1737 H 0.71335 0.92098 0.86468 0.0
H1738 H 0.69404 0.90988 0.88898 0.0
H1739 H 0.67133 0.88823 0.77559 0.0
H1740 H 0.6164 0.87158 0.80923 0.0
H1741 H 0.63601 0.88031 0.79143 0.0
H1742 H 0.65782 0.90191 0.9103 0.0
C1743 C 0.69599 0.91155 0.85074 0.0
C1744 C 0.66846 0.89128 0.80507 0.0
C1745 C 0.70704 0.91785 0.8368 0.0
C1746 C 0.62219 0.87446 0.83923 0.0
C1747 C 0.63344 0.8794 0.82906 0.0
C1748 C 0.66068 0.89871 0.88141 0.0
C1749 C 0.68757 0.90736 0.81562 0.0
C1750 C 0.67583 0.9009 0.83036 0.0
C1751 C 0.64125 0.88344 0.86682 0.0
C1752 C 0.65325 0.88919 0.85556 0.0
H1753 H 0.70341 0.91761 0.71413 0.0
H1754 H 0.6841 0.90656 0.73847 0.0
H1755 H 0.67733 0.91195 0.8888 0.0
H1756 H 0.62363 0.87668 0.96273 0.0
H1757 H 0.64331 0.88514 0.94508 0.0
C1758 C 0.07903 0.78519 0.74872 0.0
C1759 C 0.07529 0.78958 0.785 0.0
C1760 C 0.08513 0.78011 0.76107 0.0
C1761 C 0.0898 0.76593 0.86248 0.0
H1762 H 0.11538 0.77076 0.78825 0.0
C1763 C 0.11626 0.74686 0.92008 0.0
C1764 C 0.11989 0.74256 0.88297 0.0
C1765 C 0.11137 0.75319 0.90875 0.0
C1766 C 0.10819 0.76924 0.80904 0.0
H1767 H 0.07517 0.79233 0.86251 0.0
H1768 H 0.08581 0.78347 0.88403 0.0
H1769 H 0.10586 0.78079 0.76689 0.0
H1770 H 0.12134 0.74154 0.80496 0.0
H1771 H 0.11263 0.75238 0.78511 0.0
H1772 H 0.09196 0.75425 0.90409 0.0
C1773 C 0.08395 0.78386 0.84611 0.0
C1774 C 0.10275 0.77499 0.79683 0.0
C1775 C 0.07792 0.78898 0.83375 0.0
C1776 C 0.11864 0.74478 0.83434 0.0
C1777 C 0.11371 0.75105 0.82299 0.0
C1778 C 0.09519 0.76014 0.87453 0.0
C1779 C 0.08754 0.77928 0.80995 0.0
C1780 C 0.09349 0.77338 0.82338 0.0
C1781 C 0.10998 0.7553 0.86005 0.0
C1782 C 0.10443 0.76169 0.84789 0.0
H1783 H 0.07713 0.78554 0.71083 0.0
H1784 H 0.0877 0.77657 0.73245 0.0
H1785 H 0.08258 0.76439 0.88314 0.0
H1786 H 0.11717 0.74534 0.95791 0.0
H1787 H 0.10874 0.75647 0.9382 0.0
C1788 C 0.20887 0.29014 0.82909 0.0
C1789 C 0.20877 0.28666 0.78112 0.0
C1790 C 0.21422 0.30136 0.84046 0.0
C1791 C 0.22428 0.32887 0.78743 0.0
H1792 H 0.24335 0.33896 0.90061 0.0
C1793 C 0.25347 0.3751 0.82796 0.0
C1794 C 0.25482 0.3785 0.87669 0.0
C1795 C 0.24758 0.36389 0.81614 0.0
C1796 C 0.23793 0.33627 0.86929 0.0
H1797 H 0.21404 0.29218 0.70728 0.0
H1798 H 0.22336 0.31184 0.72717 0.0
H1799 H 0.23347 0.3194 0.88021 0.0
H1800 H 0.2509 0.3729 0.95126 0.0
H1801 H 0.24041 0.35335 0.93069 0.0
H1802 H 0.22867 0.34571 0.77667 0.0
C1803 C 0.21927 0.30587 0.75591 0.0
C1804 C 0.2323 0.32506 0.85756 0.0
C1805 C 0.21398 0.29463 0.74458 0.0
C1806 C 0.25004 0.37051 0.91338 0.0
C1807 C 0.24409 0.35931 0.90157 0.0
C1808 C 0.22987 0.34008 0.79932 0.0
C1809 C 0.21951 0.30934 0.80405 0.0
C1810 C 0.22542 0.32124 0.81649 0.0
C1811 C 0.24285 0.35585 0.85283 0.0
C1812 C 0.23678 0.34392 0.84037 0.0
H1813 H 0.20491 0.28418 0.858 0.0
H1814 H 0.21416 0.30379 0.87777 0.0
H1815 H 0.21894 0.32614 0.75588 0.0
H1816 H 0.2571 0.38108 0.79891 0.0
H1817 H 0.24691 0.36153 0.77829 0.0
C1818 C 0.91527 0.70688 0.16843 0.0
C1819 C 0.91834 0.71002 0.21696 0.0
C1820 C 0.90916 0.69574 0.15579 0.0
C1821 C 0.89084 0.668 0.2052 0.0
H1822 H 0.9007 0.65825 0.09386 0.0
C1823 C 0.87447 0.62194 0.16377 0.0
C1824 C 0.8729 0.61862 0.1149 0.0
C1825 C 0.87949 0.63312 0.17587 0.0
C1826 C 0.89772 0.66085 0.12459 0.0
H1827 H 0.91725 0.70401 0.2905 0.0
H1828 H 0.90654 0.68451 0.26839 0.0
H1829 H 0.91028 0.67772 0.11565 0.0
H1830 H 0.87513 0.62433 0.04033 0.0
H1831 H 0.88369 0.64382 0.06137 0.0
H1832 H 0.87824 0.65113 0.21407 0.0
C1833 C 0.90882 0.69067 0.24018 0.0
C1834 C 0.90323 0.67201 0.13712 0.0
C1835 C 0.915 0.70182 0.25279 0.0
C1836 C 0.87629 0.62666 0.07833 0.0
C1837 C 0.88125 0.63783 0.09041 0.0
C1838 C 0.88527 0.65683 0.19249 0.0
C1839 C 0.90595 0.68752 0.19147 0.0
C1840 C 0.89988 0.6757 0.17766 0.0
C1841 C 0.883 0.6412 0.13933 0.0
C1842 C 0.88868 0.65311 0.15216 0.0
H1843 H 0.9177 0.71303 0.14004 0.0
H1844 H 0.90695 0.69356 0.11805 0.0
H1845 H 0.88799 0.67063 0.23629 0.0
H1846 H 0.87197 0.61592 0.19273 0.0
H1847 H 0.88084 0.63542 0.21387 0.0
C1848 C 0.36804 0.24927 0.08355 0.0
C1849 C 0.37634 0.25435 0.11884 0.0
C1850 C 0.35697 0.2431 0.09733 0.0
C1851 C 0.33807 0.24028 0.19499 0.0
H1852 H 0.31867 0.21163 0.13778 0.0
C1853 C 0.29298 0.21357 0.25794 0.0
C1854 C 0.28504 0.20789 0.22184 0.0
C1855 C 0.30422 0.2187 0.24691 0.0
C1856 C 0.32394 0.21967 0.1537 0.0
H1857 H 0.37962 0.25695 0.19616 0.0
H1858 H 0.36025 0.24627 0.22019 0.0
H1859 H 0.33811 0.22171 0.11497 0.0
H1860 H 0.28258 0.20304 0.14601 0.0
H1861 H 0.30215 0.21223 0.12637 0.0
H1862 H 0.32391 0.23845 0.23273 0.0
C1863 C 0.36231 0.24707 0.18192 0.0
C1864 C 0.33508 0.22542 0.14071 0.0
C1865 C 0.37338 0.25313 0.16817 0.0
C1866 C 0.28853 0.20733 0.17464 0.0
C1867 C 0.29976 0.21254 0.16349 0.0
C1868 C 0.32691 0.23459 0.20764 0.0
C1869 C 0.354 0.24201 0.14663 0.0
C1870 C 0.34224 0.23579 0.16114 0.0
C1871 C 0.30775 0.21835 0.19942 0.0
C1872 C 0.31969 0.22423 0.18704 0.0
H1873 H 0.37009 0.25006 0.04526 0.0
H1874 H 0.35072 0.23936 0.06938 0.0
H1875 H 0.34339 0.24832 0.21084 0.0
H1876 H 0.29051 0.21407 0.29473 0.0
H1877 H 0.31013 0.22293 0.27569 0.0
C1878 C 0.74592 0.11812 0.08039 0.0
C1879 C 0.74173 0.12207 0.1167 0.0
C1880 C 0.752 0.11304 0.09288 0.0
C1881 C 0.75609 0.09816 0.19324 0.0
H1882 H 0.78238 0.10401 0.12209 0.0
C1883 C 0.78283 0.07949 0.25179 0.0
C1884 C 0.78678 0.07548 0.21471 0.0
C1885 C 0.77787 0.08574 0.24049 0.0
C1886 C 0.77499 0.10221 0.142 0.0
H1887 H 0.74075 0.12397 0.19443 0.0
H1888 H 0.75138 0.11512 0.2162 0.0
H1889 H 0.77275 0.11393 0.10086 0.0
H1890 H 0.78872 0.07493 0.13679 0.0
H1891 H 0.77989 0.08567 0.11696 0.0
H1892 H 0.7582 0.08633 0.23391 0.0
C1893 C 0.74989 0.11586 0.17814 0.0
C1894 C 0.76949 0.1079 0.12986 0.0
C1895 C 0.74385 0.12098 0.16566 0.0
C1896 C 0.78578 0.07794 0.16615 0.0
C1897 C 0.78078 0.08415 0.15482 0.0
C1898 C 0.76157 0.09244 0.20525 0.0
C1899 C 0.75395 0.11176 0.14191 0.0
C1900 C 0.75997 0.10591 0.1553 0.0
C1901 C 0.77671 0.08808 0.19185 0.0
C1902 C 0.77107 0.09437 0.17971 0.0
H1903 H 0.7444 0.11885 0.04235 0.0
H1904 H 0.75494 0.10987 0.06417 0.0
H1905 H 0.74868 0.09632 0.213 0.0
H1906 H 0.78355 0.07778 0.28958 0.0
H1907 H 0.77498 0.08878 0.26992 0.0
C1908 C 0.03927 0.4551 0.49494 0.0
C1909 C 0.04215 0.45544 0.44583 0.0
C1910 C 0.02821 0.45033 0.50862 0.0
C1911 C 0.00049 0.44232 0.46294 0.0
H1912 H 0.99055 0.42167 0.57052 0.0
C1913 C 0.95435 0.4133 0.50546 0.0
C1914 C 0.95118 0.41098 0.55438 0.0
C1915 C 0.9655 0.41942 0.4929 0.0
C1916 C 0.99321 0.42755 0.54093 0.0
H1917 H 0.03576 0.45128 0.3724 0.0
H1918 H 0.0164 0.44295 0.39636 0.0
H1919 H 0.00993 0.43118 0.54729 0.0
H1920 H 0.95712 0.41348 0.62863 0.0
H1921 H 0.97658 0.42438 0.60686 0.0
H1922 H 0.98378 0.43874 0.45664 0.0
C1923 C 0.02271 0.44641 0.42421 0.0
C1924 C 0.00431 0.43297 0.52755 0.0
C1925 C 0.03378 0.45112 0.41054 0.0
C1926 C 0.95934 0.41509 0.59058 0.0
C1927 C 0.97049 0.42127 0.57806 0.0
C1928 C 0.98938 0.43695 0.47652 0.0
C1929 C 0.01982 0.44587 0.47345 0.0
C1930 C 0.00806 0.44037 0.48828 0.0
C1931 C 0.97371 0.4234 0.52902 0.0
C1932 C 0.98559 0.42945 0.51553 0.0
H1933 H 0.04555 0.45839 0.52294 0.0
H1934 H 0.02623 0.45014 0.54678 0.0
H1935 H 0.00318 0.44809 0.43287 0.0
H1936 H 0.94824 0.4102 0.47676 0.0
H1937 H 0.96768 0.42077 0.45477 0.0
C1938 C 0.58307 0.54634 0.59775 0.0
C1939 C 0.5861 0.5415 0.56064 0.0
C1940 C 0.57695 0.55149 0.58702 0.0
C1941 C 0.55933 0.55359 0.49144 0.0
H1942 H 0.56717 0.58119 0.55591 0.0
C1943 C 0.54488 0.58342 0.42446 0.0
C1944 C 0.54131 0.58815 0.45991 0.0
C1945 C 0.54971 0.57717 0.4381 0.0
C1946 C 0.5648 0.57343 0.53801 0.0
H1947 H 0.58508 0.53817 0.48331 0.0
H1948 H 0.57464 0.54734 0.46439 0.0
H1949 H 0.57678 0.5713 0.57736 0.0
H1950 H 0.53987 0.58998 0.53736 0.0
H1951 H 0.54837 0.57911 0.56118 0.0
H1952 H 0.54752 0.5559 0.4513 0.0
C1953 C 0.57677 0.547 0.50193 0.0
C1954 C 0.57029 0.56774 0.55037 0.0
C1955 C 0.58282 0.5418 0.51271 0.0
C1956 C 0.54257 0.58645 0.50925 0.0
C1957 C 0.54747 0.58028 0.52289 0.0
C1958 C 0.5539 0.55932 0.47885 0.0
C1959 C 0.5738 0.55194 0.53891 0.0
C1960 C 0.56766 0.55778 0.52705 0.0
C1961 C 0.55113 0.57561 0.48745 0.0
C1962 C 0.55662 0.56933 0.50184 0.0
H1963 H 0.58543 0.54618 0.63508 0.0
H1964 H 0.57466 0.55507 0.61649 0.0
H1965 H 0.55696 0.54584 0.47337 0.0
H1966 H 0.54401 0.58459 0.38615 0.0
H1967 H 0.55254 0.57376 0.41001 0.0
C1968 C 0.44831 0.03556 0.57893 0.0
C1969 C 0.45222 0.04368 0.54261 0.0
C1970 C 0.44299 0.02438 0.56649 0.0
C1971 C 0.43891 0.00538 0.46429 0.0
H1972 H 0.41361 0.98473 0.54035 0.0
C1973 C 0.40951 0.96005 0.40647 0.0
C1974 C 0.40657 0.95206 0.44306 0.0
C1975 C 0.41534 0.97128 0.41805 0.0
C1976 C 0.42072 0.99039 0.51903 0.0
H1977 H 0.45369 0.04653 0.46485 0.0
H1978 H 0.44419 0.02705 0.44307 0.0
H1979 H 0.42328 0.00424 0.56166 0.0
H1980 H 0.40746 0.94953 0.52031 0.0
H1981 H 0.41757 0.96913 0.54049 0.0
H1982 H 0.43616 0.99147 0.42119 0.0
C1983 C 0.4454 0.02927 0.48117 0.0
C1984 C 0.42629 0.00157 0.53131 0.0
C1985 C 0.45079 0.04044 0.49363 0.0
C1986 C 0.4096 0.95551 0.49134 0.0
C1987 C 0.41533 0.96671 0.50295 0.0
C1988 C 0.43327 0.9942 0.45178 0.0
C1989 C 0.4414 0.0211 0.51745 0.0
C1990 C 0.43548 0.0092 0.50422 0.0
C1991 C 0.41823 0.97471 0.46647 0.0
C1992 C 0.42415 0.9866 0.47916 0.0
H1993 H 0.44936 0.03782 0.617 0.0
H1994 H 0.44019 0.01833 0.59538 0.0
H1995 H 0.44605 0.01099 0.44307 0.0
H1996 H 0.40727 0.95762 0.36894 0.0
H1997 H 0.4174 0.97728 0.38926 0.0
C1998 C 0.58208 0.04148 0.49998 0.0
C1999 C 0.58545 0.04469 0.5482 0.0
C2000 C 0.57601 0.03032 0.48765 0.0
C2001 C 0.55825 0.00257 0.53801 0.0
H2002 H 0.56778 0.99295 0.42513 0.0
C2003 C 0.54229 0.9566 0.49682 0.0
C2004 C 0.54058 0.9532 0.44804 0.0
C2005 C 0.54721 0.96777 0.50868 0.0
C2006 C 0.56488 0.9955 0.45629 0.0
H2007 H 0.58489 0.03879 0.62155 0.0
H2008 H 0.57422 0.01925 0.59998 0.0
H2009 H 0.57724 0.01243 0.44662 0.0
H2010 H 0.5424 0.95879 0.37339 0.0
H2011 H 0.55076 0.97829 0.39402 0.0
H2012 H 0.54586 0.98565 0.54761 0.0
C2013 C 0.57626 0.02537 0.57179 0.0
C2014 C 0.57033 0.00667 0.46866 0.0
C2015 C 0.58241 0.03654 0.58408 0.0
C2016 C 0.54369 0.96118 0.41132 0.0
C2017 C 0.54854 0.97235 0.42317 0.0
C2018 C 0.55275 0.99139 0.52546 0.0
C2019 C 0.57311 0.02215 0.52334 0.0
C2020 C 0.56711 0.01031 0.50975 0.0
C2021 C 0.55045 0.9758 0.47199 0.0
C2022 C 0.55604 0.98772 0.48458 0.0
H2023 H 0.58428 0.04758 0.47155 0.0
H2024 H 0.57358 0.02808 0.45013 0.0
H2025 H 0.55551 0.00517 0.56956 0.0
H2026 H 0.54001 0.95063 0.52591 0.0
H2027 H 0.54869 0.97013 0.5466 0.0
C2028 C 0.96025 0.552 0.57896 0.0
C2029 C 0.95248 0.54324 0.55033 0.0
C2030 C 0.97145 0.55731 0.56711 0.0
C2031 C 0.99232 0.5538 0.50223 0.0
H2032 H 0.00839 0.58579 0.49648 0.0
C2033 C 0.03984 0.58011 0.48204 0.0
C2034 C 0.04369 0.58857 0.4472 0.0
C2035 C 0.02866 0.57427 0.49445 0.0
C2036 C 0.00399 0.57685 0.49783 0.0
H2037 H 0.95032 0.533 0.48751 0.0
H2038 H 0.96995 0.54221 0.46717 0.0
H2039 H 0.9889 0.57605 0.51929 0.0
H2040 H 0.03892 0.59754 0.3979 0.0
H2041 H 0.01941 0.58742 0.42012 0.0
H2042 H 0.00744 0.55463 0.48087 0.0
C2043 C 0.96736 0.54497 0.49867 0.0
C2044 C 0.99288 0.5713 0.51124 0.0
C2045 C 0.95614 0.53975 0.51017 0.0
C2046 C 0.03617 0.59106 0.42489 0.0
C2047 C 0.02503 0.58532 0.43774 0.0
C2048 C 0.00348 0.55937 0.48942 0.0
C2049 C 0.9751 0.55387 0.52676 0.0
C2050 C 0.98693 0.55972 0.51338 0.0
C2051 C 0.02118 0.57688 0.47269 0.0
C2052 C 0.00939 0.57095 0.48685 0.0
H2053 H 0.95767 0.55487 0.61014 0.0
H2054 H 0.97727 0.56409 0.5896 0.0
H2055 H 0.98792 0.54487 0.50387 0.0
H2056 H 0.04546 0.57801 0.49976 0.0
H2057 H 0.0259 0.56785 0.52173 0.0
C2058 C 0.41107 0.4545 0.49443 0.0
C2059 C 0.4086 0.45529 0.44564 0.0
C2060 C 0.41701 0.44927 0.50671 0.0
C2061 C 0.43597 0.44065 0.45712 0.0
H2062 H 0.42542 0.41994 0.56447 0.0
C2063 C 0.45262 0.41107 0.49587 0.0
C2064 C 0.45393 0.40901 0.54465 0.0
C2065 C 0.44751 0.41716 0.48408 0.0
C2066 C 0.42858 0.42581 0.53485 0.0
H2067 H 0.41053 0.45137 0.37136 0.0
H2068 H 0.42091 0.44221 0.39284 0.0
H2069 H 0.4158 0.42983 0.54338 0.0
H2070 H 0.45115 0.41187 0.61938 0.0
H2071 H 0.4424 0.42266 0.59889 0.0
H2072 H 0.44878 0.43667 0.44865 0.0
C2073 C 0.41831 0.44569 0.42155 0.0
C2074 C 0.42305 0.43146 0.52273 0.0
C2075 C 0.41232 0.45088 0.40928 0.0
C2076 C 0.45019 0.41328 0.58144 0.0
C2077 C 0.44512 0.41941 0.56967 0.0
C2078 C 0.44154 0.43503 0.46938 0.0
C2079 C 0.42065 0.44476 0.47043 0.0
C2080 C 0.42666 0.43892 0.48366 0.0
C2081 C 0.44364 0.42135 0.52084 0.0
C2082 C 0.43789 0.42752 0.50831 0.0
H2083 H 0.40834 0.45785 0.52323 0.0
H2084 H 0.4188 0.44879 0.54463 0.0
H2085 H 0.43903 0.44646 0.4272 0.0
H2086 H 0.4554 0.40785 0.46674 0.0
H2087 H 0.44637 0.41837 0.44611 0.0
C2088 C 0.24836 0.08832 0.31644 0.0
C2089 C 0.24394 0.08079 0.27782 0.0
C2090 C 0.24647 0.09722 0.31942 0.0
C2091 C 0.24032 0.11441 0.23977 0.0
H2092 H 0.23606 0.12615 0.36029 0.0
C2093 C 0.23619 0.15309 0.23951 0.0
C2094 C 0.24256 0.16113 0.27421 0.0
C2095 C 0.23452 0.14242 0.2434 0.0
C2096 C 0.23729 0.12298 0.32639 0.0
H2097 H 0.23362 0.07628 0.21351 0.0
H2098 H 0.23022 0.09169 0.21901 0.0
H2099 H 0.2365 0.1089 0.36114 0.0
H2100 H 0.25179 0.16424 0.34128 0.0
H2101 H 0.24906 0.14565 0.34759 0.0
H2102 H 0.24141 0.12856 0.20505 0.0
C2103 C 0.23531 0.09087 0.24646 0.0
C2104 C 0.23754 0.11312 0.32689 0.0
C2105 C 0.23722 0.08202 0.24343 0.0
C2106 C 0.24685 0.15819 0.31397 0.0
C2107 C 0.24522 0.14753 0.31774 0.0
C2108 C 0.24009 0.12425 0.23927 0.0
C2109 C 0.24011 0.0987 0.28384 0.0
C2110 C 0.23914 0.10878 0.28359 0.0
C2111 C 0.23924 0.13959 0.28189 0.0
C2112 C 0.23866 0.12871 0.28258 0.0
H2113 H 0.25355 0.08755 0.3435 0.0
H2114 H 0.25035 0.10316 0.34843 0.0
H2115 H 0.24179 0.11142 0.20591 0.0
H2116 H 0.2327 0.1551 0.20872 0.0
H2117 H 0.22969 0.13643 0.2157 0.0
C2118 C 0.83677 0.08721 0.3058 0.0
C2119 C 0.8336 0.07958 0.26752 0.0
C2120 C 0.84759 0.09601 0.30885 0.0
C2121 C 0.87109 0.11307 0.23019 0.0
H2122 H 0.88666 0.12473 0.35175 0.0
C2123 C 0.91345 0.15251 0.2339 0.0
C2124 C 0.91478 0.16031 0.26925 0.0
C2125 C 0.90461 0.14172 0.23652 0.0
C2126 C 0.88239 0.12159 0.31754 0.0
H2127 H 0.83935 0.07487 0.20366 0.0
H2128 H 0.85827 0.09021 0.20914 0.0
H2129 H 0.86911 0.10734 0.35141 0.0
H2130 H 0.90817 0.16287 0.33607 0.0
H2131 H 0.89259 0.14409 0.34021 0.0
H2132 H 0.88411 0.12742 0.1964 0.0
C2133 C 0.85236 0.08947 0.23641 0.0
C2134 C 0.87236 0.11164 0.31736 0.0
C2135 C 0.84155 0.08067 0.23339 0.0
C2136 C 0.90734 0.15702 0.30829 0.0
C2137 C 0.89846 0.14624 0.31081 0.0
C2138 C 0.88108 0.12301 0.23038 0.0
C2139 C 0.85544 0.09735 0.27363 0.0
C2140 C 0.86654 0.10736 0.27374 0.0
C2141 C 0.89687 0.13852 0.27442 0.0
C2142 C 0.88678 0.12747 0.27412 0.0
H2143 H 0.83082 0.08656 0.33266 0.0
H2144 H 0.84968 0.102 0.33767 0.0
H2145 H 0.86672 0.1101 0.19609 0.0
H2146 H 0.91912 0.1548 0.2036 0.0
H2147 H 0.90373 0.13592 0.20839 0.0
C2148 C 0.90819 0.74879 0.31844 0.0
C2149 C 0.91418 0.75166 0.27476 0.0
C2150 C 0.89922 0.75046 0.32412 0.0
C2151 C 0.88544 0.76487 0.27192 0.0
H2152 H 0.85887 0.73958 0.3212 0.0
C2153 C 0.84175 0.75737 0.23354 0.0
C2154 C 0.83364 0.75226 0.26953 0.0
C2155 C 0.8523 0.75888 0.24048 0.0
C2156 C 0.86625 0.74682 0.30826 0.0
H2157 H 0.91577 0.75892 0.20351 0.0
H2158 H 0.90003 0.76172 0.21318 0.0
H2159 H 0.87618 0.73948 0.32241 0.0
H2160 H 0.83031 0.7452 0.34191 0.0
H2161 H 0.84878 0.74796 0.35431 0.0
H2162 H 0.8754 0.77209 0.25669 0.0
C2163 C 0.90232 0.75828 0.24324 0.0
C2164 C 0.87618 0.74675 0.30893 0.0
C2165 C 0.91129 0.75661 0.23755 0.0
C2166 C 0.83638 0.74908 0.31336 0.0
C2167 C 0.84694 0.75062 0.32037 0.0
C2168 C 0.87549 0.76495 0.27132 0.0
C2169 C 0.89607 0.75504 0.28624 0.0
C2170 C 0.88584 0.75569 0.29001 0.0
C2171 C 0.85496 0.75533 0.28363 0.0
C2172 C 0.86575 0.75583 0.2887 0.0
H2173 H 0.91029 0.74502 0.34787 0.0
H2174 H 0.89465 0.74801 0.35791 0.0
H2175 H 0.89279 0.77195 0.25771 0.0
H2176 H 0.83987 0.75991 0.19938 0.0
H2177 H 0.85824 0.76242 0.21123 0.0
C2178 C 0.08591 0.24592 0.69631 0.0
C2179 C 0.07922 0.24304 0.73786 0.0
C2180 C 0.095 0.24433 0.69503 0.0
C2181 C 0.11446 0.24241 0.77807 0.0
H2182 H 0.12418 0.23397 0.66214 0.0
C2183 C 0.15393 0.2395 0.77847 0.0
C2184 C 0.1611 0.24453 0.73909 0.0
C2185 C 0.14315 0.23762 0.77698 0.0
C2186 C 0.12159 0.23638 0.69471 0.0
H2187 H 0.07642 0.23576 0.80969 0.0
H2188 H 0.0922 0.23285 0.80723 0.0
H2189 H 0.10651 0.23355 0.66179 0.0
H2190 H 0.16255 0.25121 0.66665 0.0
H2191 H 0.14376 0.24807 0.66428 0.0
H2192 H 0.12957 0.24547 0.81074 0.0
C2193 C 0.09056 0.23652 0.77599 0.0
C2194 C 0.11148 0.23614 0.69452 0.0
C2195 C 0.0815 0.23813 0.77731 0.0
C2196 C 0.15719 0.24732 0.69755 0.0
C2197 C 0.14641 0.24546 0.69609 0.0
C2198 C 0.12454 0.24265 0.77827 0.0
C2199 C 0.09755 0.23982 0.73526 0.0
C2200 C 0.10786 0.23926 0.73608 0.0
C2201 C 0.13934 0.24075 0.73612 0.0
C2202 C 0.12827 0.23975 0.73647 0.0
H2203 H 0.08434 0.24972 0.66536 0.0
H2204 H 0.10028 0.24705 0.66329 0.0
H2205 H 0.11202 0.24506 0.81039 0.0
H2206 H 0.15669 0.23719 0.81084 0.0
H2207 H 0.13785 0.23382 0.80809 0.0
C2208 C 0.74545 0.83699 0.68579 0.0
C2209 C 0.75114 0.83436 0.72043 0.0
C2210 C 0.74736 0.84776 0.68205 0.0
C2211 C 0.75673 0.87258 0.75652 0.0
H2212 H 0.75595 0.88601 0.63448 0.0
C2213 C 0.75945 0.9149 0.75166 0.0
C2214 C 0.75149 0.91541 0.72251 0.0
C2215 C 0.76135 0.90604 0.74737 0.0
C2216 C 0.75616 0.88235 0.66883 0.0
H2217 H 0.76365 0.84101 0.77676 0.0
H2218 H 0.76707 0.85983 0.76987 0.0
H2219 H 0.75578 0.86847 0.63404 0.0
H2220 H 0.73956 0.90732 0.66475 0.0
H2221 H 0.74275 0.89179 0.65769 0.0
H2222 H 0.75681 0.88624 0.79143 0.0
C2223 C 0.761 0.85354 0.74618 0.0
C2224 C 0.75606 0.87231 0.66857 0.0
C2225 C 0.75907 0.84277 0.74999 0.0
C2226 C 0.74575 0.90713 0.68776 0.0
C2227 C 0.74763 0.89828 0.68347 0.0
C2228 C 0.75684 0.88259 0.75677 0.0
C2229 C 0.75501 0.85611 0.71282 0.0
C2230 C 0.75616 0.86723 0.71247 0.0
C2231 C 0.7553 0.89752 0.71386 0.0
C2232 C 0.75636 0.8875 0.71299 0.0
H2233 H 0.73929 0.83066 0.66251 0.0
H2234 H 0.74252 0.84944 0.65634 0.0
H2235 H 0.75664 0.8688 0.791 0.0
H2236 H 0.76405 0.92121 0.77855 0.0
H2237 H 0.76742 0.90576 0.77083 0.0
C2238 C 0.15348 0.91437 0.78179 0.0
C2239 C 0.16087 0.91606 0.74389 0.0
C2240 C 0.14263 0.9056 0.77988 0.0
C2241 C 0.1215 0.88477 0.69741 0.0
H2242 H 0.11098 0.86726 0.81497 0.0
C2243 C 0.08643 0.83939 0.69967 0.0
C2244 C 0.07927 0.83566 0.73977 0.0
C2245 C 0.09538 0.85015 0.69866 0.0
C2246 C 0.11368 0.87215 0.78206 0.0
H2247 H 0.16266 0.91014 0.67356 0.0
H2248 H 0.14378 0.89473 0.67053 0.0
H2249 H 0.12848 0.88448 0.81597 0.0
H2250 H 0.07555 0.84036 0.80923 0.0
H2251 H 0.09112 0.85918 0.80725 0.0
H2252 H 0.10678 0.87224 0.66327 0.0
C2253 C 0.1463 0.90025 0.70145 0.0
C2254 C 0.12373 0.88203 0.78264 0.0
C2255 C 0.15713 0.90903 0.70334 0.0
C2256 C 0.08099 0.84299 0.778 0.0
C2257 C 0.08993 0.85375 0.77696 0.0
C2258 C 0.11143 0.87486 0.69683 0.0
C2259 C 0.13898 0.89833 0.74006 0.0
C2260 C 0.12783 0.88837 0.74017 0.0
C2261 C 0.09734 0.85738 0.73772 0.0
C2262 C 0.1075 0.86837 0.739 0.0
H2263 H 0.15612 0.91971 0.81335 0.0
H2264 H 0.13714 0.90442 0.80988 0.0
H2265 H 0.12438 0.88955 0.66427 0.0
H2266 H 0.0853 0.83392 0.66967 0.0
H2267 H 0.10101 0.85265 0.66814 0.0
C2268 C 0.90219 0.41576 0.57607 0.0
C2269 C 0.90917 0.41469 0.60954 0.0
C2270 C 0.9003 0.42464 0.57919 0.0
C2271 C 0.90379 0.44758 0.65943 0.0
H2272 H 0.90577 0.46213 0.53687 0.0
C2273 C 0.91505 0.49317 0.64294 0.0
C2274 C 0.90984 0.49595 0.60654 0.0
C2275 C 0.91304 0.48236 0.64697 0.0
C2276 C 0.905 0.45807 0.57136 0.0
H2277 H 0.91933 0.42181 0.67354 0.0
H2278 H 0.91626 0.43745 0.67839 0.0
H2279 H 0.90567 0.44473 0.53724 0.0
H2280 H 0.89804 0.48955 0.5473 0.0
H2281 H 0.8945 0.47068 0.55446 0.0
H2282 H 0.90351 0.46121 0.69349 0.0
C2283 C 0.91208 0.43135 0.65019 0.0
C2284 C 0.90493 0.44808 0.57159 0.0
C2285 C 0.91391 0.42243 0.64723 0.0
C2286 C 0.90224 0.48765 0.5755 0.0
C2287 C 0.90025 0.47686 0.57947 0.0
C2288 C 0.90391 0.45763 0.6592 0.0
C2289 C 0.90542 0.43267 0.61566 0.0
C2290 C 0.90448 0.44278 0.61564 0.0
C2291 C 0.90579 0.47415 0.61462 0.0
C2292 C 0.90466 0.46305 0.61516 0.0
H2293 H 0.89834 0.40985 0.54688 0.0
H2294 H 0.89497 0.4253 0.55255 0.0
H2295 H 0.90327 0.44363 0.69394 0.0
H2296 H 0.92093 0.49939 0.66742 0.0
H2297 H 0.91751 0.48055 0.67413 0.0
C2298 C 0.50889 0.41426 0.56598 0.0
C2299 C 0.50088 0.41328 0.59946 0.0
C2300 C 0.51973 0.42299 0.56941 0.0
C2301 C 0.53952 0.44517 0.65114 0.0
H2302 H 0.55193 0.46082 0.53051 0.0
C2303 C 0.57394 0.49068 0.64319 0.0
C2304 C 0.58177 0.49404 0.60572 0.0
C2305 C 0.56518 0.47984 0.6451 0.0
C2306 C 0.54871 0.45645 0.56442 0.0
H2307 H 0.49799 0.42041 0.66384 0.0
H2308 H 0.51687 0.43573 0.66952 0.0
H2309 H 0.53455 0.44348 0.52918 0.0
H2310 H 0.58689 0.4886 0.54213 0.0
H2311 H 0.57163 0.46961 0.54571 0.0
H2312 H 0.55358 0.45835 0.68645 0.0
C2313 C 0.51483 0.4297 0.64092 0.0
C2314 C 0.53873 0.4465 0.56365 0.0
C2315 C 0.50399 0.42096 0.63748 0.0
C2316 C 0.58092 0.48626 0.57124 0.0
C2317 C 0.57216 0.4754 0.57318 0.0
C2318 C 0.54952 0.45514 0.6519 0.0
C2319 C 0.52277 0.43092 0.60641 0.0
C2320 C 0.53392 0.44085 0.60707 0.0
C2321 C 0.56408 0.47213 0.6096 0.0
C2322 C 0.55412 0.46099 0.60862 0.0
H2323 H 0.50673 0.40841 0.53647 0.0
H2324 H 0.5257 0.42363 0.54268 0.0
H2325 H 0.53609 0.44092 0.68511 0.0
H2326 H 0.5744 0.49651 0.67029 0.0
H2327 H 0.55903 0.47762 0.67329 0.0
C2328 C 0.57818 0.09095 0.56998 0.0
C2329 C 0.5812 0.086 0.60669 0.0
C2330 C 0.56902 0.09231 0.5759 0.0
C2331 C 0.54272 0.07988 0.64083 0.0
H2332 H 0.54123 0.10497 0.59017 0.0
C2333 C 0.50239 0.08132 0.64657 0.0
C2334 C 0.49956 0.08457 0.60316 0.0
C2335 C 0.51299 0.08293 0.65308 0.0
C2336 C 0.54152 0.09789 0.60433 0.0
H2337 H 0.57734 0.07904 0.67923 0.0
H2338 H 0.56136 0.08147 0.68972 0.0
H2339 H 0.55888 0.10537 0.59124 0.0
H2340 H 0.50565 0.09236 0.53316 0.0
H2341 H 0.52411 0.09503 0.54418 0.0
H2342 H 0.52535 0.07227 0.65269 0.0
C2343 C 0.56598 0.08417 0.65611 0.0
C2344 C 0.55162 0.09813 0.60498 0.0
C2345 C 0.57515 0.08282 0.65019 0.0
C2346 C 0.50761 0.08977 0.56699 0.0
C2347 C 0.51821 0.09136 0.57347 0.0
C2348 C 0.53264 0.07965 0.64014 0.0
C2349 C 0.5627 0.08874 0.61865 0.0
C2350 C 0.55228 0.08905 0.6225 0.0
C2351 C 0.52097 0.08781 0.61629 0.0
C2352 C 0.53188 0.08857 0.62114 0.0
H2353 H 0.5827 0.09349 0.53606 0.0
H2354 H 0.56664 0.09574 0.54614 0.0
H2355 H 0.54292 0.07268 0.65386 0.0
H2356 H 0.49637 0.07736 0.67523 0.0
H2357 H 0.51491 0.08024 0.68676 0.0
C2358 C 0.7461 0.56861 0.10124 0.0
C2359 C 0.74519 0.57571 0.06791 0.0
C2360 C 0.75481 0.56647 0.09786 0.0
C2361 C 0.77716 0.56906 0.01658 0.0
H2362 H 0.79255 0.57193 0.13768 0.0
C2363 C 0.82273 0.58048 0.02622 0.0
C2364 C 0.82602 0.57581 0.06315 0.0
C2365 C 0.81187 0.57833 0.02404 0.0
C2366 C 0.78825 0.57089 0.10364 0.0
H2367 H 0.75241 0.58581 0.00384 0.0
H2368 H 0.7677 0.58222 0.99831 0.0
H2369 H 0.77517 0.57191 0.13868 0.0
H2370 H 0.82046 0.56488 0.12551 0.0
H2371 H 0.80144 0.56107 0.12152 0.0
H2372 H 0.79046 0.56837 0.98148 0.0
C2373 C 0.76163 0.57818 0.02672 0.0
C2374 C 0.77827 0.57087 0.1042 0.0
C2375 C 0.75291 0.58031 0.03008 0.0
C2376 C 0.81816 0.56865 0.09682 0.0
C2377 C 0.80729 0.5665 0.09465 0.0
C2378 C 0.78715 0.56908 0.01601 0.0
C2379 C 0.76279 0.5714 0.06111 0.0
C2380 C 0.77272 0.57017 0.06062 0.0
C2381 C 0.80408 0.57147 0.05875 0.0
C2382 C 0.7929 0.5702 0.05947 0.0
H2383 H 0.74022 0.56489 0.1306 0.0
H2384 H 0.7554 0.56109 0.12449 0.0
H2385 H 0.77299 0.56834 0.98247 0.0
H2386 H 0.82861 0.58603 -0.00026 0.0
H2387 H 0.80969 0.58239 0.99629 0.0
C2388 C 0.42724 0.17743 0.07917 0.0
C2389 C 0.41887 0.16891 0.05161 0.0
C2390 C 0.42921 0.18822 0.07517 0.0
C2391 C 0.42346 0.2067 -0.0005 0.0
H2392 H 0.42519 0.22101 0.12245 0.0
C2393 C 0.4124 0.24089 0.02095 0.0
C2394 C 0.41828 0.24935 0.05475 0.0
C2395 C 0.41451 0.23218 0.0164 0.0
C2396 C 0.42494 0.21725 0.08772 0.0
H2397 H 0.4063 0.16502 0.99685 0.0
H2398 H 0.40966 0.18382 0.99023 0.0
H2399 H 0.42532 0.20371 0.12157 0.0
H2400 H 0.43128 0.25562 0.10887 0.0
H2401 H 0.43504 0.24043 0.10063 0.0
H2402 H 0.42278 0.22014 0.9658 0.0
C2403 C 0.41478 0.18222 0.01457 0.0
C2404 C 0.42502 0.20732 0.08722 0.0
C2405 C 0.4128 0.17143 0.0186 0.0
C2406 C 0.42658 0.24916 0.08273 0.0
C2407 C 0.42869 0.24045 0.07815 0.0
C2408 C 0.42341 0.21665 -1e-05 0.0
C2409 C 0.42286 0.19068 0.04349 0.0
C2410 C 0.42406 0.20183 0.0432 0.0
C2411 C 0.42255 0.23177 0.04551 0.0
C2412 C 0.42392 0.22192 0.04421 0.0
H2413 H 0.43209 0.17573 0.1047 0.0
H2414 H 0.4356 0.1946 0.09745 0.0
H2415 H 0.42288 0.20273 0.96496 0.0
H2416 H 0.40596 0.24082 -0.00113 0.0
H2417 H 0.40953 0.22555 0.99137 0.0
C2418 C 0.75341 0.17267 0.03306 0.0
C2419 C 0.74651 0.16861 0.07391 0.0
C2420 C 0.76237 0.18342 0.03281 0.0
C2421 C 0.78122 0.20484 0.11721 0.0
H2422 H 0.79081 0.22323 0.00191 0.0
C2423 C 0.82049 0.24748 0.11836 0.0
C2424 C 0.82766 0.24967 0.0789 0.0
C2425 C 0.80973 0.23855 0.1169 0.0
C2426 C 0.78825 0.21816 0.03433 0.0
H2427 H 0.74328 0.17272 0.14572 0.0
H2428 H 0.75888 0.19154 0.14512 0.0
H2429 H 0.77336 0.20577 0.00081 0.0
H2430 H 0.8291 0.24448 0.00636 0.0
H2431 H 0.81036 0.22879 0.00403 0.0
H2432 H 0.79619 0.21705 0.15043 0.0
C2433 C 0.75747 0.18636 0.11359 0.0
C2434 C 0.77827 0.20818 0.0337 0.0
C2435 C 0.74851 0.17561 0.11385 0.0
C2436 C 0.82375 0.24299 0.03733 0.0
C2437 C 0.813 0.23404 0.03588 0.0
C2438 C 0.79119 0.21481 0.11784 0.0
C2439 C 0.76461 0.19032 0.0734 0.0
C2440 C 0.77472 0.20134 0.07496 0.0
C2441 C 0.80593 0.23162 0.07597 0.0
C2442 C 0.79489 0.22151 0.07622 0.0
H2443 H 0.75206 0.16745 0.00175 0.0
H2444 H 0.76779 0.18619 0.0015 0.0
H2445 H 0.77882 0.19969 0.14935 0.0
H2446 H 0.82326 0.25255 0.15077 0.0
H2447 H 0.80443 0.23699 0.14807 0.0
C2448 C 0.5778 0.75368 0.96845 0.0
C2449 C 0.57501 0.74679 0.92759 0.0
C2450 C 0.57563 0.76239 0.96924 0.0
C2451 C 0.57227 0.7808 0.88549 0.0
H2452 H 0.56418 0.79059 0.00227 0.0
C2453 C 0.56985 0.82054 0.88665 0.0
C2454 C 0.57525 0.8277 0.92567 0.0
C2455 C 0.56763 0.80965 0.88798 0.0
C2456 C 0.56647 0.78796 0.96942 0.0
H2457 H 0.56732 0.74324 0.85647 0.0
H2458 H 0.56344 0.75842 0.858 0.0
H2459 H 0.56408 0.77308 0.0026 0.0
H2460 H 0.5822 0.82902 0.99743 0.0
H2461 H 0.5785 0.81005 -0.00052 0.0
H2462 H 0.57496 0.79577 0.85263 0.0
C2463 C 0.56745 0.7572 0.88911 0.0
C2464 C 0.56641 0.77795 0.9696 0.0
C2465 C 0.56963 0.74849 0.8883 0.0
C2466 C 0.57804 0.82367 0.9668 0.0
C2467 C 0.57584 0.81278 0.9681 0.0
C2468 C 0.57233 0.79079 0.8853 0.0
C2469 C 0.57062 0.76437 0.9292 0.0
C2470 C 0.5695 0.77436 0.92787 0.0
C2471 C 0.5708 0.80571 0.92832 0.0
C2472 C 0.56961 0.79458 0.92748 0.0
H2473 H 0.58194 0.75255 -0.0007 0.0
H2474 H 0.5783 0.76784 0.00043 0.0
H2475 H 0.57487 0.77837 0.85297 0.0
H2476 H 0.56752 0.8234 0.85462 0.0
H2477 H 0.56359 0.80435 0.85708 0.0
C2478 C 0.17002 0.75464 0.97005 0.0
C2479 C 0.1668 0.74671 0.93305 0.0
C2480 C 0.1809 0.76332 0.97274 0.0
C2481 C 0.20483 0.77945 0.89453 0.0
H2482 H 0.21983 0.7918 0.01656 0.0
C2483 C 0.2474 0.81881 0.89947 0.0
C2484 C 0.24837 0.82684 0.93288 0.0
C2485 C 0.23852 0.80804 0.90227 0.0
C2486 C 0.21573 0.78845 0.98222 0.0
H2487 H 0.17248 0.74137 0.87102 0.0
H2488 H 0.19151 0.7565 0.87592 0.0
H2489 H 0.20219 0.77454 0.01655 0.0
H2490 H 0.24109 0.82982 0.99646 0.0
H2491 H 0.22552 0.81107 0.00098 0.0
H2492 H 0.21816 0.79347 0.86025 0.0
C2493 C 0.1856 0.75609 0.90245 0.0
C2494 C 0.20564 0.77858 0.98221 0.0
C2495 C 0.17472 0.74741 0.89976 0.0
C2496 C 0.24054 0.8238 0.97019 0.0
C2497 C 0.23166 0.81303 0.97297 0.0
C2498 C 0.2149 0.78931 0.89454 0.0
C2499 C 0.18876 0.76424 0.93848 0.0
C2500 C 0.19999 0.77408 0.93842 0.0
C2501 C 0.23044 0.80508 0.93852 0.0
C2502 C 0.22037 0.79402 0.93843 0.0
H2503 H 0.16408 0.7543 0.99623 0.0
H2504 H 0.18304 0.76954 0.00058 0.0
H2505 H 0.20061 0.77629 0.86024 0.0
H2506 H 0.25336 0.82091 0.8705 0.0
H2507 H 0.23788 0.80205 0.87561 0.0
C2508 C 0.17496 0.42545 0.8867 0.0
C2509 C 0.16737 0.41945 0.92356 0.0
C2510 C 0.18574 0.42735 0.88889 0.0
C2511 C 0.20634 0.42645 0.97099 0.0
H2512 H 0.21735 0.42081 0.85148 0.0
C2513 C 0.2414 0.41613 0.96467 0.0
C2514 C 0.24883 0.42019 0.92557 0.0
C2515 C 0.23239 0.41783 0.96638 0.0
C2516 C 0.2145 0.42261 0.88499 0.0
H2517 H 0.16517 0.41107 0.9924 0.0
H2518 H 0.18394 0.41423 0.99589 0.0
H2519 H 0.1999 0.42063 0.85102 0.0
H2520 H 0.25294 0.4296 0.85864 0.0
H2521 H 0.23724 0.43265 0.8618 0.0
H2522 H 0.22086 0.42813 0.00512 0.0
C2523 C 0.18163 0.41759 0.9656 0.0
C2524 C 0.20449 0.42251 0.88473 0.0
C2525 C 0.17085 0.41572 0.96346 0.0
C2526 C 0.2473 0.42631 0.88907 0.0
C2527 C 0.23829 0.42801 0.89077 0.0
C2528 C 0.21636 0.42652 0.97126 0.0
C2529 C 0.18914 0.42327 0.92792 0.0
C2530 C 0.20022 0.42429 0.92782 0.0
C2531 C 0.23063 0.42363 0.92901 0.0
C2532 C 0.22048 0.42447 0.92836 0.0
H2533 H 0.17252 0.4285 0.85567 0.0
H2534 H 0.19139 0.4319 0.85968 0.0
H2535 H 0.20334 0.428 0.00465 0.0
H2536 H 0.24238 0.41138 0.99334 0.0
H2537 H 0.22658 0.41425 0.99606 0.0
C2538 C 0.41423 0.90382 0.43583 0.0
C2539 C 0.41271 0.90983 0.3988 0.0
C2540 C 0.42324 0.90211 0.43459 0.0
C2541 C 0.44507 0.90323 0.35481 0.0
H2542 H 0.46187 0.91008 0.47448 0.0
C2543 C 0.49066 0.91443 0.36129 0.0
C2544 C 0.49436 0.91107 0.40173 0.0
C2545 C 0.47986 0.91247 0.35953 0.0
C2546 C 0.45719 0.90793 0.44098 0.0
H2547 H 0.41913 0.91841 0.33052 0.0
H2548 H 0.43491 0.91549 0.3285 0.0
H2549 H 0.44433 0.90973 0.47369 0.0
H2550 H 0.48956 0.90262 0.47109 0.0
H2551 H 0.47064 0.89904 0.46773 0.0
H2552 H 0.45806 0.90164 0.32192 0.0
C2553 C 0.42911 0.91202 0.35829 0.0
C2554 C 0.44713 0.90773 0.44053 0.0
C2555 C 0.42011 0.91375 0.3596 0.0
C2556 C 0.48695 0.90538 0.43962 0.0
C2557 C 0.47614 0.90338 0.43779 0.0
C2558 C 0.45513 0.90339 0.35529 0.0
C2559 C 0.43088 0.90636 0.39622 0.0
C2560 C 0.44104 0.90555 0.39731 0.0
C2561 C 0.47252 0.90707 0.3981 0.0
C2562 C 0.46138 0.90591 0.39823 0.0
H2563 H 0.40862 0.90065 0.46638 0.0
H2564 H 0.42432 0.8976 0.46401 0.0
H2565 H 0.44048 0.90138 0.32111 0.0
H2566 H 0.4962 0.91884 0.33156 0.0
H2567 H 0.47738 0.91554 0.32871 0.0
C2568 C 0.08047 0.57465 0.35314 0.0
C2569 C 0.08568 0.58261 0.38969 0.0
C2570 C 0.08221 0.56568 0.34979 0.0
C2571 C 0.08932 0.54893 0.42697 0.0
H2572 H 0.09111 0.53602 0.30507 0.0
C2573 C 0.0911 0.50884 0.42345 0.0
C2574 C 0.08413 0.50089 0.38961 0.0
C2575 C 0.09319 0.51967 0.42039 0.0
C2576 C 0.09057 0.53951 0.33939 0.0
H2577 H 0.09719 0.58773 0.44998 0.0
H2578 H 0.10025 0.57207 0.44401 0.0
H2579 H 0.09142 0.55364 0.30483 0.0
H2580 H 0.07416 0.49808 0.32515 0.0
H2581 H 0.0776 0.51693 0.32035 0.0
H2582 H 0.08809 0.53471 0.46155 0.0
C2583 C 0.09472 0.57269 0.41834 0.0
C2584 C 0.09076 0.54959 0.33923 0.0
C2585 C 0.093 0.58167 0.42162 0.0
C2586 C 0.07957 0.50404 0.35174 0.0
C2587 C 0.08161 0.51487 0.34881 0.0
C2588 C 0.08908 0.53885 0.42713 0.0
C2589 C 0.08918 0.56449 0.38299 0.0
C2590 C 0.08999 0.55433 0.383 0.0
C2591 C 0.0883 0.52276 0.38359 0.0
C2592 C 0.08955 0.53394 0.38332 0.0
H2593 H 0.07479 0.57518 0.32799 0.0
H2594 H 0.07774 0.55944 0.32245 0.0
H2595 H 0.08853 0.55228 0.46125 0.0
H2596 H 0.09481 0.50665 0.45281 0.0
H2597 H 0.09853 0.5256 0.44726 0.0
C2598 C 0.48712 0.58194 0.434 0.0
C2599 C 0.49522 0.58323 0.40032 0.0
C2600 C 0.47635 0.57313 0.42987 0.0
C2601 C 0.45695 0.55106 0.34606 0.0
H2602 H 0.4437 0.53559 0.46615 0.0
C2603 C 0.42196 0.50566 0.35504 0.0
C2604 C 0.41382 0.50271 0.3909 0.0
C2605 C 0.43089 0.51642 0.35281 0.0
C2606 C 0.44719 0.53991 0.43236 0.0
H2607 H 0.49835 0.57654 0.33515 0.0
H2608 H 0.47961 0.561 0.32855 0.0
H2609 H 0.46123 0.55277 0.46861 0.0
H2610 H 0.40835 0.50878 0.45109 0.0
H2611 H 0.42396 0.52758 0.44712 0.0
H2612 H 0.44301 0.53792 0.30983 0.0
C2613 C 0.4815 0.56688 0.35767 0.0
C2614 C 0.45724 0.54978 0.43375 0.0
C2615 C 0.49227 0.57574 0.36163 0.0
C2616 C 0.41454 0.51081 0.42326 0.0
C2617 C 0.42349 0.52155 0.42111 0.0
C2618 C 0.4469 0.54114 0.34467 0.0
C2619 C 0.47346 0.56538 0.39218 0.0
C2620 C 0.46232 0.5554 0.3906 0.0
C2621 C 0.43187 0.52441 0.38648 0.0
C2622 C 0.44199 0.5354 0.38779 0.0
H2623 H 0.48915 0.58766 0.46395 0.0
H2624 H 0.4703 0.57232 0.45656 0.0
H2625 H 0.46057 0.55527 0.31223 0.0
H2626 H 0.4216 0.49959 0.32957 0.0
H2627 H 0.43727 0.51834 0.32601 0.0
loop_
_geom_bond_atom_site_label_1
_geom_bond_atom_site_label_2
_geom_bond_distance
_geom_bond_site_symmetry_2
_ccdc_geom_bond_type
In0 O1 2.294 . S
In0 O2 2.326 . S
In0 O6 2.266 . S
In0 O7 2.326 . S
In0 O8 2.266 . S
In0 O9 2.326 . S
In0 O11 2.294 . S
In0 O12 2.326 . S
O1 In0 2.294 . S
O1 C10 1.240 . S
O2 In0 2.326 . S
O2 C10 1.252 . S
C3 O6 1.252 . S
C3 O7 1.260 . S
C4 O11 1.240 . S
C4 O12 1.252 . S
C5 O8 1.252 . S
C5 O9 1.260 . S
O6 In0 2.266 . S
O6 C3 1.252 . S
O7 In0 2.326 . S
O7 C3 1.260 . S
O8 In0 2.266 . S
O8 C5 1.252 . S
O9 In0 2.326 . S
O9 C5 1.260 . S
C10 O1 1.240 . S
C10 O2 1.252 . S
O11 In0 2.294 . S
O11 C4 1.240 . S
O12 In0 2.326 . S
O12 C4 1.252 . S
In13 O14 2.294 . S
In13 O15 2.326 . S
In13 O19 2.266 . S
In13 O20 2.326 . S
In13 O21 2.266 . S
In13 O22 2.326 . S
In13 O24 2.294 . S
In13 O25 2.326 . S
O14 In13 2.294 . S
O14 C23 1.240 . S
O15 In13 2.326 . S
O15 C23 1.252 . S
C16 O19 1.252 . S
C16 O20 1.260 . S
C17 O24 1.240 . S
C17 O25 1.252 . S
C18 O21 1.252 . S
C18 O22 1.260 . S
O19 In13 2.266 . S
O19 C16 1.252 . S
O20 In13 2.326 . S
O20 C16 1.260 . S
O21 In13 2.266 . S
O21 C18 1.252 . S
O22 In13 2.326 . S
O22 C18 1.260 . S
C23 O14 1.240 . S
C23 O15 1.252 . S
O24 In13 2.294 . S
O24 C17 1.240 . S
O25 In13 2.326 . S
O25 C17 1.252 . S
In26 O27 2.294 . S
In26 O28 2.326 . S
In26 O32 2.266 . S
In26 O33 2.326 . S
In26 O34 2.266 . S
In26 O35 2.326 . S
In26 O37 2.294 . S
In26 O38 2.326 . S
O27 In26 2.294 . S
O27 C36 1.240 . S
O28 In26 2.326 . S
O28 C36 1.252 . S
C29 O32 1.252 . S
C29 O33 1.260 . S
C30 O37 1.240 . S
C30 O38 1.252 . S
C31 O34 1.252 . S
C31 O35 1.260 . S
O32 In26 2.266 . S
O32 C29 1.252 . S
O33 In26 2.326 . S
O33 C29 1.260 . S
O34 In26 2.266 . S
O34 C31 1.252 . S
O35 In26 2.326 . S
O35 C31 1.260 . S
C36 O27 1.240 . S
C36 O28 1.252 . S
O37 In26 2.294 . S
O37 C30 1.240 . S
O38 In26 2.326 . S
O38 C30 1.252 . S
In39 O40 2.294 . S
In39 O41 2.326 . S
In39 O45 2.266 . S
In39 O46 2.326 . S
In39 O47 2.266 . S
In39 O48 2.326 . S
In39 O50 2.294 . S
In39 O51 2.326 . S
O40 In39 2.294 . S
O40 C49 1.240 . S
O41 In39 2.326 . S
O41 C49 1.252 . S
C42 O45 1.252 . S
C42 O46 1.260 . S
C43 O50 1.240 . S
C43 O51 1.252 . S
C44 O47 1.252 . S
C44 O48 1.260 . S
O45 In39 2.266 . S
O45 C42 1.252 . S
O46 In39 2.326 . S
O46 C42 1.260 . S
O47 In39 2.266 . S
O47 C44 1.252 . S
O48 In39 2.326 . S
O48 C44 1.260 . S
C49 O40 1.240 . S
C49 O41 1.252 . S
O50 In39 2.294 . S
O50 C43 1.240 . S
O51 In39 2.326 . S
O51 C43 1.252 . S
In52 O53 2.294 . S
In52 O54 2.326 . S
In52 O58 2.266 . S
In52 O59 2.326 . S
In52 O60 2.266 . S
In52 O61 2.326 . S
In52 O63 2.294 . S
In52 O64 2.326 . S
O53 In52 2.294 . S
O53 C62 1.240 . S
O54 In52 2.326 . S
O54 C62 1.252 . S
C55 O58 1.252 . S
C55 O59 1.260 . S
C56 O63 1.240 . S
C56 O64 1.252 . S
C57 O60 1.252 . S
C57 O61 1.260 . S
O58 In52 2.266 . S
O58 C55 1.252 . S
O59 In52 2.326 . S
O59 C55 1.260 . S
O60 In52 2.266 . S
O60 C57 1.252 . S
O61 In52 2.326 . S
O61 C57 1.260 . S
C62 O53 1.240 . S
C62 O54 1.252 . S
O63 In52 2.294 . S
O63 C56 1.240 . S
O64 In52 2.326 . S
O64 C56 1.252 . S
In65 O66 2.294 . S
In65 O67 2.326 . S
In65 O71 2.266 . S
In65 O72 2.326 . S
In65 O73 2.266 . S
In65 O74 2.326 . S
In65 O76 2.294 . S
In65 O77 2.326 . S
O66 In65 2.294 . S
O66 C75 1.240 . S
O67 In65 2.326 . S
O67 C75 1.252 . S
C68 O71 1.252 . S
C68 O72 1.260 . S
C69 O76 1.240 . S
C69 O77 1.252 . S
C70 O73 1.252 . S
C70 O74 1.260 . S
O71 In65 2.266 . S
O71 C68 1.252 . S
O72 In65 2.326 . S
O72 C68 1.260 . S
O73 In65 2.266 . S
O73 C70 1.252 . S
O74 In65 2.326 . S
O74 C70 1.260 . S
C75 O66 1.240 . S
C75 O67 1.252 . S
O76 In65 2.294 . S
O76 C69 1.240 . S
O77 In65 2.326 . S
O77 C69 1.252 . S
In78 O79 2.294 . S
In78 O80 2.326 . S
In78 O84 2.266 . S
In78 O85 2.326 . S
In78 O86 2.266 . S
In78 O87 2.326 . S
In78 O89 2.294 . S
In78 O90 2.326 . S
O79 In78 2.294 . S
O79 C88 1.240 . S
O80 In78 2.326 . S
O80 C88 1.252 . S
C81 O84 1.252 . S
C81 O85 1.260 . S
C82 O89 1.240 . S
C82 O90 1.252 . S
C83 O86 1.252 . S
C83 O87 1.260 . S
O84 In78 2.266 . S
O84 C81 1.252 . S
O85 In78 2.326 . S
O85 C81 1.260 . S
O86 In78 2.266 . S
O86 C83 1.252 . S
O87 In78 2.326 . S
O87 C83 1.260 . S
C88 O79 1.240 . S
C88 O80 1.252 . S
O89 In78 2.294 . S
O89 C82 1.240 . S
O90 In78 2.326 . S
O90 C82 1.252 . S
In91 O92 2.294 . S
In91 O93 2.326 . S
In91 O97 2.266 . S
In91 O98 2.326 . S
In91 O99 2.266 . S
In91 O100 2.326 . S
In91 O102 2.294 . S
In91 O103 2.326 . S
O92 In91 2.294 . S
O92 C101 1.240 . S
O93 In91 2.326 . S
O93 C101 1.252 . S
C94 O97 1.252 . S
C94 O98 1.260 . S
C95 O102 1.240 . S
C95 O103 1.252 . S
C96 O99 1.252 . S
C96 O100 1.260 . S
O97 In91 2.266 . S
O97 C94 1.252 . S
O98 In91 2.326 . S
O98 C94 1.260 . S
O99 In91 2.266 . S
O99 C96 1.252 . S
O100 In91 2.326 . S
O100 C96 1.260 . S
C101 O92 1.240 . S
C101 O93 1.252 . S
O102 In91 2.294 . S
O102 C95 1.240 . S
O103 In91 2.326 . S
O103 C95 1.252 . S
In104 O105 2.294 . S
In104 O106 2.326 . S
In104 O110 2.266 . S
In104 O111 2.326 . S
In104 O112 2.266 . S
In104 O113 2.326 . S
In104 O115 2.294 . S
In104 O116 2.326 . S
O105 In104 2.294 . S
O105 C114 1.240 . S
O106 In104 2.326 . S
O106 C114 1.252 . S
C107 O110 1.252 . S
C107 O111 1.260 . S
C108 O115 1.240 . S
C108 O116 1.252 . S
C109 O112 1.252 . S
C109 O113 1.260 . S
O110 In104 2.266 . S
O110 C107 1.252 . S
O111 In104 2.326 . S
O111 C107 1.260 . S
O112 In104 2.266 . S
O112 C109 1.252 . S
O113 In104 2.326 . S
O113 C109 1.260 . S
C114 O105 1.240 . S
C114 O106 1.252 . S
O115 In104 2.294 . S
O115 C108 1.240 . S
O116 In104 2.326 . S
O116 C108 1.252 . S
In117 O118 2.294 . S
In117 O119 2.326 . S
In117 O123 2.266 . S
In117 O124 2.326 . S
In117 O125 2.266 . S
In117 O126 2.326 . S
In117 O128 2.294 . S
In117 O129 2.326 . S
O118 In117 2.294 . S
O118 C127 1.240 . S
O119 In117 2.326 . S
O119 C127 1.252 . S
C120 O123 1.252 . S
C120 O124 1.260 . S
C121 O128 1.240 . S
C121 O129 1.252 . S
C122 O125 1.252 . S
C122 O126 1.260 . S
O123 In117 2.266 . S
O123 C120 1.252 . S
O124 In117 2.326 . S
O124 C120 1.260 . S
O125 In117 2.266 . S
O125 C122 1.252 . S
O126 In117 2.326 . S
O126 C122 1.260 . S
C127 O118 1.240 . S
C127 O119 1.252 . S
O128 In117 2.294 . S
O128 C121 1.240 . S
O129 In117 2.326 . S
O129 C121 1.252 . S
In130 O131 2.294 . S
In130 O132 2.326 . S
In130 O136 2.266 . S
In130 O137 2.326 . S
In130 O138 2.266 . S
In130 O139 2.326 . S
In130 O141 2.294 . S
In130 O142 2.326 . S
O131 In130 2.294 . S
O131 C140 1.240 . S
O132 In130 2.326 . S
O132 C140 1.252 . S
C133 O136 1.252 . S
C133 O137 1.260 . S
C134 O141 1.240 . S
C134 O142 1.252 . S
C135 O138 1.252 . S
C135 O139 1.260 . S
O136 In130 2.266 . S
O136 C133 1.252 . S
O137 In130 2.326 . S
O137 C133 1.260 . S
O138 In130 2.266 . S
O138 C135 1.252 . S
O139 In130 2.326 . S
O139 C135 1.260 . S
C140 O131 1.240 . S
C140 O132 1.252 . S
O141 In130 2.294 . S
O141 C134 1.240 . S
O142 In130 2.326 . S
O142 C134 1.252 . S
In143 O144 2.294 . S
In143 O145 2.326 . S
In143 O149 2.266 . S
In143 O150 2.326 . S
In143 O151 2.266 . S
In143 O152 2.326 . S
In143 O154 2.294 . S
In143 O155 2.326 . S
O144 In143 2.294 . S
O144 C153 1.240 . S
O145 In143 2.326 . S
O145 C153 1.252 . S
C146 O149 1.252 . S
C146 O150 1.260 . S
C147 O154 1.240 . S
C147 O155 1.252 . S
C148 O151 1.252 . S
C148 O152 1.260 . S
O149 In143 2.266 . S
O149 C146 1.252 . S
O150 In143 2.326 . S
O150 C146 1.260 . S
O151 In143 2.266 . S
O151 C148 1.252 . S
O152 In143 2.326 . S
O152 C148 1.260 . S
C153 O144 1.240 . S
C153 O145 1.252 . S
O154 In143 2.294 . S
O154 C147 1.240 . S
O155 In143 2.326 . S
O155 C147 1.252 . S
In156 O157 2.294 . S
In156 O158 2.326 . S
In156 O162 2.266 . S
In156 O163 2.326 . S
In156 O164 2.266 . S
In156 O165 2.326 . S
In156 O167 2.294 . S
In156 O168 2.326 . S
O157 In156 2.294 . S
O157 C166 1.240 . S
O158 In156 2.326 . S
O158 C166 1.252 . S
C159 O162 1.252 . S
C159 O163 1.260 . S
C160 O167 1.240 . S
C160 O168 1.252 . S
C161 O164 1.252 . S
C161 O165 1.260 . S
O162 In156 2.266 . S
O162 C159 1.252 . S
O163 In156 2.326 . S
O163 C159 1.260 . S
O164 In156 2.266 . S
O164 C161 1.252 . S
O165 In156 2.326 . S
O165 C161 1.260 . S
C166 O157 1.240 . S
C166 O158 1.252 . S
O167 In156 2.294 . S
O167 C160 1.240 . S
O168 In156 2.326 . S
O168 C160 1.252 . S
In169 O170 2.294 . S
In169 O171 2.326 . S
In169 O175 2.266 . S
In169 O176 2.326 . S
In169 O177 2.266 . S
In169 O178 2.326 . S
In169 O180 2.294 . S
In169 O181 2.326 . S
O170 In169 2.294 . S
O170 C179 1.240 . S
O171 In169 2.326 . S
O171 C179 1.252 . S
C172 O175 1.252 . S
C172 O176 1.260 . S
C173 O180 1.240 . S
C173 O181 1.252 . S
C174 O177 1.252 . S
C174 O178 1.260 . S
O175 In169 2.266 . S
O175 C172 1.252 . S
O176 In169 2.326 . S
O176 C172 1.260 . S
O177 In169 2.266 . S
O177 C174 1.252 . S
O178 In169 2.326 . S
O178 C174 1.260 . S
C179 O170 1.240 . S
C179 O171 1.252 . S
O180 In169 2.294 . S
O180 C173 1.240 . S
O181 In169 2.326 . S
O181 C173 1.252 . S
In182 O183 2.294 . S
In182 O184 2.326 . S
In182 O188 2.266 . S
In182 O189 2.326 . S
In182 O190 2.266 . S
In182 O191 2.326 . S
In182 O193 2.294 . S
In182 O194 2.326 . S
O183 In182 2.294 . S
O183 C192 1.240 . S
O184 In182 2.326 . S
O184 C192 1.252 . S
C185 O188 1.252 . S
C185 O189 1.260 . S
C186 O193 1.240 . S
C186 O194 1.252 . S
C187 O190 1.252 . S
C187 O191 1.260 . S
O188 In182 2.266 . S
O188 C185 1.252 . S
O189 In182 2.326 . S
O189 C185 1.260 . S
O190 In182 2.266 . S
O190 C187 1.252 . S
O191 In182 2.326 . S
O191 C187 1.260 . S
C192 O183 1.240 . S
C192 O184 1.252 . S
O193 In182 2.294 . S
O193 C186 1.240 . S
O194 In182 2.326 . S
O194 C186 1.252 . S
In195 O196 2.294 . S
In195 O197 2.326 . S
In195 O201 2.266 . S
In195 O202 2.326 . S
In195 O203 2.266 . S
In195 O204 2.326 . S
In195 O206 2.294 . S
In195 O207 2.326 . S
O196 In195 2.294 . S
O196 C205 1.240 . S
O197 In195 2.326 . S
O197 C205 1.252 . S
C198 O201 1.252 . S
C198 O202 1.260 . S
C199 O206 1.240 . S
C199 O207 1.252 . S
C200 O203 1.252 . S
C200 O204 1.260 . S
O201 In195 2.266 . S
O201 C198 1.252 . S
O202 In195 2.326 . S
O202 C198 1.260 . S
O203 In195 2.266 . S
O203 C200 1.252 . S
O204 In195 2.326 . S
O204 C200 1.260 . S
C205 O196 1.240 . S
C205 O197 1.252 . S
O206 In195 2.294 . S
O206 C199 1.240 . S
O207 In195 2.326 . S
O207 C199 1.252 . S
In208 O209 2.294 . S
In208 O210 2.326 . S
In208 O214 2.266 . S
In208 O215 2.326 . S
In208 O216 2.266 . S
In208 O217 2.326 . S
In208 O219 2.294 . S
In208 O220 2.326 . S
O209 In208 2.294 . S
O209 C218 1.240 . S
O210 In208 2.326 . S
O210 C218 1.252 . S
C211 O214 1.252 . S
C211 O215 1.260 . S
C212 O219 1.240 . S
C212 O220 1.252 . S
C213 O216 1.252 . S
C213 O217 1.260 . S
O214 In208 2.266 . S
O214 C211 1.252 . S
O215 In208 2.326 . S
O215 C211 1.260 . S
O216 In208 2.266 . S
O216 C213 1.252 . S
O217 In208 2.326 . S
O217 C213 1.260 . S
C218 O209 1.240 . S
C218 O210 1.252 . S
O219 In208 2.294 . S
O219 C212 1.240 . S
O220 In208 2.326 . S
O220 C212 1.252 . S
In221 O222 2.294 . S
In221 O223 2.326 . S
In221 O227 2.266 . S
In221 O228 2.326 . S
In221 O229 2.266 . S
In221 O230 2.326 . S
In221 O232 2.294 . S
In221 O233 2.326 . S
O222 In221 2.294 . S
O222 C231 1.240 . S
O223 In221 2.326 . S
O223 C231 1.252 . S
C224 O227 1.252 . S
C224 O228 1.260 . S
C225 O232 1.240 . S
C225 O233 1.252 . S
C226 O229 1.252 . S
C226 O230 1.260 . S
O227 In221 2.266 . S
O227 C224 1.252 . S
O228 In221 2.326 . S
O228 C224 1.260 . S
O229 In221 2.266 . S
O229 C226 1.252 . S
O230 In221 2.326 . S
O230 C226 1.260 . S
C231 O222 1.240 . S
C231 O223 1.252 . S
O232 In221 2.294 . S
O232 C225 1.240 . S
O233 In221 2.326 . S
O233 C225 1.252 . S
In234 O235 2.294 . S
In234 O236 2.326 . S
In234 O240 2.266 . S
In234 O241 2.326 . S
In234 O242 2.266 . S
In234 O243 2.326 . S
In234 O245 2.294 . S
In234 O246 2.326 . S
O235 In234 2.294 . S
O235 C244 1.240 . S
O236 In234 2.326 . S
O236 C244 1.252 . S
C237 O240 1.252 . S
C237 O241 1.260 . S
C238 O245 1.240 . S
C238 O246 1.252 . S
C239 O242 1.252 . S
C239 O243 1.260 . S
O240 In234 2.266 . S
O240 C237 1.252 . S
O241 In234 2.326 . S
O241 C237 1.260 . S
O242 In234 2.266 . S
O242 C239 1.252 . S
O243 In234 2.326 . S
O243 C239 1.260 . S
C244 O235 1.240 . S
C244 O236 1.252 . S
O245 In234 2.294 . S
O245 C238 1.240 . S
O246 In234 2.326 . S
O246 C238 1.252 . S
In247 O248 2.294 . S
In247 O249 2.326 . S
In247 O253 2.266 . S
In247 O254 2.326 . S
In247 O255 2.266 . S
In247 O256 2.326 . S
In247 O258 2.294 . S
In247 O259 2.326 . S
O248 In247 2.294 . S
O248 C257 1.240 . S
O249 In247 2.326 . S
O249 C257 1.252 . S
C250 O253 1.252 . S
C250 O254 1.260 . S
C251 O258 1.240 . S
C251 O259 1.252 . S
C252 O255 1.252 . S
C252 O256 1.260 . S
O253 In247 2.266 . S
O253 C250 1.252 . S
O254 In247 2.326 . S
O254 C250 1.260 . S
O255 In247 2.266 . S
O255 C252 1.252 . S
O256 In247 2.326 . S
O256 C252 1.260 . S
C257 O248 1.240 . S
C257 O249 1.252 . S
O258 In247 2.294 . S
O258 C251 1.240 . S
O259 In247 2.326 . S
O259 C251 1.252 . S
In260 O261 2.294 . S
In260 O262 2.326 . S
In260 O266 2.266 . S
In260 O267 2.326 . S
In260 O268 2.266 . S
In260 O269 2.326 . S
In260 O271 2.294 . S
In260 O272 2.326 . S
O261 In260 2.294 . S
O261 C270 1.240 . S
O262 In260 2.326 . S
O262 C270 1.252 . S
C263 O266 1.252 . S
C263 O267 1.260 . S
C264 O271 1.240 . S
C264 O272 1.252 . S
C265 O268 1.252 . S
C265 O269 1.260 . S
O266 In260 2.266 . S
O266 C263 1.252 . S
O267 In260 2.326 . S
O267 C263 1.260 . S
O268 In260 2.266 . S
O268 C265 1.252 . S
O269 In260 2.326 . S
O269 C265 1.260 . S
C270 O261 1.240 . S
C270 O262 1.252 . S
O271 In260 2.294 . S
O271 C264 1.240 . S
O272 In260 2.326 . S
O272 C264 1.252 . S
In273 O274 2.294 . S
In273 O275 2.326 . S
In273 O279 2.266 . S
In273 O280 2.326 . S
In273 O281 2.266 . S
In273 O282 2.326 . S
In273 O284 2.294 . S
In273 O285 2.326 . S
O274 In273 2.294 . S
O274 C283 1.240 . S
O275 In273 2.326 . S
O275 C283 1.252 . S
C276 O279 1.252 . S
C276 O280 1.260 . S
C277 O284 1.240 . S
C277 O285 1.252 . S
C278 O281 1.252 . S
C278 O282 1.260 . S
O279 In273 2.266 . S
O279 C276 1.252 . S
O280 In273 2.326 . S
O280 C276 1.260 . S
O281 In273 2.266 . S
O281 C278 1.252 . S
O282 In273 2.326 . S
O282 C278 1.260 . S
C283 O274 1.240 . S
C283 O275 1.252 . S
O284 In273 2.294 . S
O284 C277 1.240 . S
O285 In273 2.326 . S
O285 C277 1.252 . S
In286 O287 2.294 . S
In286 O288 2.326 . S
In286 O292 2.266 . S
In286 O293 2.326 . S
In286 O294 2.266 . S
In286 O295 2.326 . S
In286 O297 2.294 . S
In286 O298 2.326 . S
O287 In286 2.294 . S
O287 C296 1.240 . S
O288 In286 2.326 . S
O288 C296 1.252 . S
C289 O292 1.252 . S
C289 O293 1.260 . S
C290 O297 1.240 . S
C290 O298 1.252 . S
C291 O294 1.252 . S
C291 O295 1.260 . S
O292 In286 2.266 . S
O292 C289 1.252 . S
O293 In286 2.326 . S
O293 C289 1.260 . S
O294 In286 2.266 . S
O294 C291 1.252 . S
O295 In286 2.326 . S
O295 C291 1.260 . S
C296 O287 1.240 . S
C296 O288 1.252 . S
O297 In286 2.294 . S
O297 C290 1.240 . S
O298 In286 2.326 . S
O298 C290 1.252 . S
In299 O300 2.294 . S
In299 O301 2.326 . S
In299 O305 2.266 . S
In299 O306 2.326 . S
In299 O307 2.266 . S
In299 O308 2.326 . S
In299 O310 2.294 . S
In299 O311 2.326 . S
O300 In299 2.294 . S
O300 C309 1.240 . S
O301 In299 2.326 . S
O301 C309 1.252 . S
C302 O305 1.252 . S
C302 O306 1.260 . S
C303 O310 1.240 . S
C303 O311 1.252 . S
C304 O307 1.252 . S
C304 O308 1.260 . S
O305 In299 2.266 . S
O305 C302 1.252 . S
O306 In299 2.326 . S
O306 C302 1.260 . S
O307 In299 2.266 . S
O307 C304 1.252 . S
O308 In299 2.326 . S
O308 C304 1.260 . S
C309 O300 1.240 . S
C309 O301 1.252 . S
O310 In299 2.294 . S
O310 C303 1.240 . S
O311 In299 2.326 . S
O311 C303 1.252 . S
In312 O313 2.294 . S
In312 O314 2.326 . S
In312 O318 2.266 . S
In312 O319 2.326 . S
In312 O320 2.266 . S
In312 O321 2.326 . S
In312 O323 2.294 . S
In312 O324 2.326 . S
O313 In312 2.294 . S
O313 C322 1.240 . S
O314 In312 2.326 . S
O314 C322 1.252 . S
C315 O318 1.252 . S
C315 O319 1.260 . S
C316 O323 1.240 . S
C316 O324 1.252 . S
C317 O320 1.252 . S
C317 O321 1.260 . S
O318 In312 2.266 . S
O318 C315 1.252 . S
O319 In312 2.326 . S
O319 C315 1.260 . S
O320 In312 2.266 . S
O320 C317 1.252 . S
O321 In312 2.326 . S
O321 C317 1.260 . S
C322 O313 1.240 . S
C322 O314 1.252 . S
O323 In312 2.294 . S
O323 C316 1.240 . S
O324 In312 2.326 . S
O324 C316 1.252 . S
In325 O326 2.294 . S
In325 O327 2.326 . S
In325 O331 2.266 . S
In325 O332 2.326 . S
In325 O333 2.266 . S
In325 O334 2.326 . S
In325 O336 2.294 . S
In325 O337 2.326 . S
O326 In325 2.294 . S
O326 C335 1.240 . S
O327 In325 2.326 . S
O327 C335 1.252 . S
C328 O331 1.252 . S
C328 O332 1.260 . S
C329 O336 1.240 . S
C329 O337 1.252 . S
C330 O333 1.252 . S
C330 O334 1.260 . S
O331 In325 2.266 . S
O331 C328 1.252 . S
O332 In325 2.326 . S
O332 C328 1.260 . S
O333 In325 2.266 . S
O333 C330 1.252 . S
O334 In325 2.326 . S
O334 C330 1.260 . S
C335 O326 1.240 . S
C335 O327 1.252 . S
O336 In325 2.294 . S
O336 C329 1.240 . S
O337 In325 2.326 . S
O337 C329 1.252 . S
In338 O339 2.294 . S
In338 O340 2.326 . S
In338 O344 2.266 . S
In338 O345 2.326 . S
In338 O346 2.266 . S
In338 O347 2.326 . S
In338 O349 2.294 . S
In338 O350 2.326 . S
O339 In338 2.294 . S
O339 C348 1.240 . S
O340 In338 2.326 . S
O340 C348 1.252 . S
C341 O344 1.252 . S
C341 O345 1.260 . S
C342 O349 1.240 . S
C342 O350 1.252 . S
C343 O346 1.252 . S
C343 O347 1.260 . S
O344 In338 2.266 . S
O344 C341 1.252 . S
O345 In338 2.326 . S
O345 C341 1.260 . S
O346 In338 2.266 . S
O346 C343 1.252 . S
O347 In338 2.326 . S
O347 C343 1.260 . S
C348 O339 1.240 . S
C348 O340 1.252 . S
O349 In338 2.294 . S
O349 C342 1.240 . S
O350 In338 2.326 . S
O350 C342 1.252 . S
In351 O352 2.294 . S
In351 O353 2.326 . S
In351 O357 2.266 . S
In351 O358 2.326 . S
In351 O359 2.266 . S
In351 O360 2.326 . S
In351 O362 2.294 . S
In351 O363 2.326 . S
O352 In351 2.294 . S
O352 C361 1.240 . S
O353 In351 2.326 . S
O353 C361 1.252 . S
C354 O357 1.252 . S
C354 O358 1.260 . S
C355 O362 1.240 . S
C355 O363 1.252 . S
C356 O359 1.252 . S
C356 O360 1.260 . S
O357 In351 2.266 . S
O357 C354 1.252 . S
O358 In351 2.326 . S
O358 C354 1.260 . S
O359 In351 2.266 . S
O359 C356 1.252 . S
O360 In351 2.326 . S
O360 C356 1.260 . S
C361 O352 1.240 . S
C361 O353 1.252 . S
O362 In351 2.294 . S
O362 C355 1.240 . S
O363 In351 2.326 . S
O363 C355 1.252 . S
In364 O365 2.294 . S
In364 O366 2.326 . S
In364 O370 2.266 . S
In364 O371 2.326 . S
In364 O372 2.266 . S
In364 O373 2.326 . S
In364 O375 2.294 . S
In364 O376 2.326 . S
O365 In364 2.294 . S
O365 C374 1.240 . S
O366 In364 2.326 . S
O366 C374 1.252 . S
C367 O370 1.252 . S
C367 O371 1.260 . S
C368 O375 1.240 . S
C368 O376 1.252 . S
C369 O372 1.252 . S
C369 O373 1.260 . S
O370 In364 2.266 . S
O370 C367 1.252 . S
O371 In364 2.326 . S
O371 C367 1.260 . S
O372 In364 2.266 . S
O372 C369 1.252 . S
O373 In364 2.326 . S
O373 C369 1.260 . S
C374 O365 1.240 . S
C374 O366 1.252 . S
O375 In364 2.294 . S
O375 C368 1.240 . S
O376 In364 2.326 . S
O376 C368 1.252 . S
In377 O378 2.294 . S
In377 O379 2.326 . S
In377 O383 2.266 . S
In377 O384 2.326 . S
In377 O385 2.266 . S
In377 O386 2.326 . S
In377 O388 2.294 . S
In377 O389 2.326 . S
O378 In377 2.294 . S
O378 C387 1.240 . S
O379 In377 2.326 . S
O379 C387 1.252 . S
C380 O383 1.252 . S
C380 O384 1.260 . S
C381 O388 1.240 . S
C381 O389 1.252 . S
C382 O385 1.252 . S
C382 O386 1.260 . S
O383 In377 2.266 . S
O383 C380 1.252 . S
O384 In377 2.326 . S
O384 C380 1.260 . S
O385 In377 2.266 . S
O385 C382 1.252 . S
O386 In377 2.326 . S
O386 C382 1.260 . S
C387 O378 1.240 . S
C387 O379 1.252 . S
O388 In377 2.294 . S
O388 C381 1.240 . S
O389 In377 2.326 . S
O389 C381 1.252 . S
In390 O391 2.294 . S
In390 O392 2.326 . S
In390 O396 2.266 . S
In390 O397 2.326 . S
In390 O398 2.266 . S
In390 O399 2.326 . S
In390 O401 2.294 . S
In390 O402 2.326 . S
O391 In390 2.294 . S
O391 C400 1.240 . S
O392 In390 2.326 . S
O392 C400 1.252 . S
C393 O396 1.252 . S
C393 O397 1.260 . S
C394 O401 1.240 . S
C394 O402 1.252 . S
C395 O398 1.252 . S
C395 O399 1.260 . S
O396 In390 2.266 . S
O396 C393 1.252 . S
O397 In390 2.326 . S
O397 C393 1.260 . S
O398 In390 2.266 . S
O398 C395 1.252 . S
O399 In390 2.326 . S
O399 C395 1.260 . S
C400 O391 1.240 . S
C400 O392 1.252 . S
O401 In390 2.294 . S
O401 C394 1.240 . S
O402 In390 2.326 . S
O402 C394 1.252 . S
In403 O404 2.294 . S
In403 O405 2.326 . S
In403 O409 2.266 . S
In403 O410 2.326 . S
In403 O411 2.266 . S
In403 O412 2.326 . S
In403 O414 2.294 . S
In403 O415 2.326 . S
O404 In403 2.294 . S
O404 C413 1.240 . S
O405 In403 2.326 . S
O405 C413 1.252 . S
C406 O409 1.252 . S
C406 O410 1.260 . S
C407 O414 1.240 . S
C407 O415 1.252 . S
C408 O411 1.252 . S
C408 O412 1.260 . S
O409 In403 2.266 . S
O409 C406 1.252 . S
O410 In403 2.326 . S
O410 C406 1.260 . S
O411 In403 2.266 . S
O411 C408 1.252 . S
O412 In403 2.326 . S
O412 C408 1.260 . S
C413 O404 1.240 . S
C413 O405 1.252 . S
O414 In403 2.294 . S
O414 C407 1.240 . S
O415 In403 2.326 . S
O415 C407 1.252 . S
In416 O417 2.294 . S
In416 O418 2.326 . S
In416 O422 2.266 . S
In416 O423 2.326 . S
In416 O424 2.266 . S
In416 O425 2.326 . S
In416 O427 2.294 . S
In416 O428 2.326 . S
O417 In416 2.294 . S
O417 C426 1.240 . S
O418 In416 2.326 . S
O418 C426 1.252 . S
C419 O422 1.252 . S
C419 O423 1.260 . S
C420 O427 1.240 . S
C420 O428 1.252 . S
C421 O424 1.252 . S
C421 O425 1.260 . S
O422 In416 2.266 . S
O422 C419 1.252 . S
O423 In416 2.326 . S
O423 C419 1.260 . S
O424 In416 2.266 . S
O424 C421 1.252 . S
O425 In416 2.326 . S
O425 C421 1.260 . S
C426 O417 1.240 . S
C426 O418 1.252 . S
O427 In416 2.294 . S
O427 C420 1.240 . S
O428 In416 2.326 . S
O428 C420 1.252 . S
In429 O430 2.294 . S
In429 O431 2.326 . S
In429 O435 2.266 . S
In429 O436 2.326 . S
In429 O437 2.266 . S
In429 O438 2.326 . S
In429 O440 2.294 . S
In429 O441 2.326 . S
O430 In429 2.294 . S
O430 C439 1.240 . S
O431 In429 2.326 . S
O431 C439 1.252 . S
C432 O435 1.252 . S
C432 O436 1.260 . S
C433 O440 1.240 . S
C433 O441 1.252 . S
C434 O437 1.252 . S
C434 O438 1.260 . S
O435 In429 2.266 . S
O435 C432 1.252 . S
O436 In429 2.326 . S
O436 C432 1.260 . S
O437 In429 2.266 . S
O437 C434 1.252 . S
O438 In429 2.326 . S
O438 C434 1.260 . S
C439 O430 1.240 . S
C439 O431 1.252 . S
O440 In429 2.294 . S
O440 C433 1.240 . S
O441 In429 2.326 . S
O441 C433 1.252 . S
In442 O443 2.294 . S
In442 O444 2.326 . S
In442 O448 2.266 . S
In442 O449 2.326 . S
In442 O450 2.266 . S
In442 O451 2.326 . S
In442 O453 2.294 . S
In442 O454 2.326 . S
O443 In442 2.294 . S
O443 C452 1.240 . S
O444 In442 2.326 . S
O444 C452 1.252 . S
C445 O448 1.252 . S
C445 O449 1.260 . S
C446 O453 1.240 . S
C446 O454 1.252 . S
C447 O450 1.252 . S
C447 O451 1.260 . S
O448 In442 2.266 . S
O448 C445 1.252 . S
O449 In442 2.326 . S
O449 C445 1.260 . S
O450 In442 2.266 . S
O450 C447 1.252 . S
O451 In442 2.326 . S
O451 C447 1.260 . S
C452 O443 1.240 . S
C452 O444 1.252 . S
O453 In442 2.294 . S
O453 C446 1.240 . S
O454 In442 2.326 . S
O454 C446 1.252 . S
In455 O456 2.294 . S
In455 O457 2.326 . S
In455 O461 2.266 . S
In455 O462 2.326 . S
In455 O463 2.266 . S
In455 O464 2.326 . S
In455 O466 2.294 . S
In455 O467 2.326 . S
O456 In455 2.294 . S
O456 C465 1.240 . S
O457 In455 2.326 . S
O457 C465 1.252 . S
C458 O461 1.252 . S
C458 O462 1.260 . S
C459 O466 1.240 . S
C459 O467 1.252 . S
C460 O463 1.252 . S
C460 O464 1.260 . S
O461 In455 2.266 . S
O461 C458 1.252 . S
O462 In455 2.326 . S
O462 C458 1.260 . S
O463 In455 2.266 . S
O463 C460 1.252 . S
O464 In455 2.326 . S
O464 C460 1.260 . S
C465 O456 1.240 . S
C465 O457 1.252 . S
O466 In455 2.294 . S
O466 C459 1.240 . S
O467 In455 2.326 . S
O467 C459 1.252 . S
C468 C469 1.349 . S
C468 C470 1.327 . S
C468 H493 0.950 . S
C469 C468 1.349 . S
C469 C485 1.349 . S
C470 C468 1.327 . S
C470 C489 1.429 . S
C470 H494 0.950 . S
C471 C488 1.548 1_565 S
C471 C490 1.368 . S
C471 H495 0.949 . S
H472 C476 0.949 . S
C473 C474 1.349 . S
C473 C475 1.327 . S
C473 H496 0.950 . S
C474 C473 1.349 . S
C474 C486 1.349 . S
C475 C473 1.327 . S
C475 C491 1.429 . S
C475 H497 0.950 . S
C476 H472 0.949 . S
C476 C484 1.547 1_545 S
C476 C492 1.368 . S
H477 C485 0.950 . S
H478 C483 0.950 . S
H479 C484 0.928 . S
H480 C486 0.950 . S
H481 C487 0.950 . S
H482 C488 0.928 . S
C483 H478 0.950 . S
C483 C485 1.327 . S
C483 C489 1.429 . S
C484 C476 1.547 1_565 S
C484 H479 0.928 . S
C484 C490 1.378 . S
C485 C469 1.349 . S
C485 H477 0.950 . S
C485 C483 1.327 . S
C486 C474 1.349 . S
C486 H480 0.950 . S
C486 C487 1.327 . S
C487 H481 0.950 . S
C487 C486 1.327 . S
C487 C491 1.429 . S
C488 C471 1.548 1_545 S
C488 H482 0.928 . S
C488 C492 1.378 . S
C489 C470 1.429 . S
C489 C483 1.429 . S
C489 C490 1.523 . S
C490 C471 1.368 . S
C490 C484 1.378 . S
C490 C489 1.523 . S
C491 C475 1.429 . S
C491 C487 1.429 . S
C491 C492 1.523 . S
C492 C476 1.368 . S
C492 C488 1.378 . S
C492 C491 1.523 . S
H493 C468 0.950 . S
H494 C470 0.950 . S
H495 C471 0.949 . S
H496 C473 0.950 . S
H497 C475 0.950 . S
C498 C499 1.349 . S
C498 C500 1.327 . S
C498 H523 0.950 . S
C499 C498 1.349 . S
C499 C515 1.349 . S
C500 C498 1.327 . S
C500 C519 1.429 . S
C500 H524 0.950 . S
C501 C518 1.574 . S
C501 C520 1.368 1_655 S
C501 H525 0.949 . S
H502 C506 0.949 . S
C503 C504 1.349 . S
C503 C505 1.327 . S
C503 H526 0.950 . S
C504 C503 1.349 . S
C504 C516 1.349 . S
C505 C503 1.327 . S
C505 C521 1.429 . S
C505 H527 0.950 . S
C506 H502 0.949 . S
C506 C514 1.574 . S
C506 C522 1.368 1_455 S
H507 C515 0.950 . S
H508 C513 0.950 . S
H509 C514 0.949 . S
H510 C516 0.950 . S
H511 C517 0.950 . S
H512 C518 0.949 . S
C513 H508 0.950 . S
C513 C515 1.327 . S
C513 C519 1.429 . S
C514 C506 1.574 . S
C514 H509 0.949 . S
C514 C520 1.368 . S
C515 C499 1.349 . S
C515 H507 0.950 . S
C515 C513 1.327 . S
C516 C504 1.349 . S
C516 H510 0.950 . S
C516 C517 1.327 . S
C517 H511 0.950 . S
C517 C516 1.327 . S
C517 C521 1.429 . S
C518 C501 1.574 . S
C518 H512 0.949 . S
C518 C522 1.368 . S
C519 C500 1.429 . S
C519 C513 1.429 . S
C519 C520 1.523 . S
C520 C501 1.368 1_455 S
C520 C514 1.368 . S
C520 C519 1.523 . S
C521 C505 1.429 . S
C521 C517 1.429 . S
C521 C522 1.523 . S
C522 C506 1.368 1_655 S
C522 C518 1.368 . S
C522 C521 1.523 . S
H523 C498 0.950 . S
H524 C500 0.950 . S
H525 C501 0.949 . S
H526 C503 0.950 . S
H527 C505 0.950 . S
C528 C529 1.349 . S
C528 C530 1.327 . S
C528 H553 0.950 . S
C529 C528 1.349 . S
C529 C545 1.349 . S
C530 C528 1.327 . S
C530 C549 1.429 . S
C530 H554 0.950 . S
C531 C548 1.574 . S
C531 C550 1.368 . S
C531 H555 0.949 . S
H532 C536 0.949 . S
C533 C534 1.349 . S
C533 C535 1.327 . S
C533 H556 0.950 . S
C534 C533 1.349 . S
C534 C546 1.349 . S
C535 C533 1.327 . S
C535 C551 1.429 . S
C535 H557 0.950 . S
C536 H532 0.949 . S
C536 C544 1.574 . S
C536 C552 1.368 . S
H537 C545 0.950 . S
H538 C543 0.950 . S
H539 C544 0.949 . S
H540 C546 0.950 . S
H541 C547 0.950 . S
H542 C548 0.949 . S
C543 H538 0.950 . S
C543 C545 1.327 . S
C543 C549 1.429 . S
C544 C536 1.574 . S
C544 H539 0.949 . S
C544 C550 1.368 . S
C545 C529 1.349 . S
C545 H537 0.950 . S
C545 C543 1.327 . S
C546 C534 1.349 . S
C546 H540 0.950 . S
C546 C547 1.327 . S
C547 H541 0.950 . S
C547 C546 1.327 . S
C547 C551 1.429 . S
C548 C531 1.574 . S
C548 H542 0.949 . S
C548 C552 1.368 . S
C549 C530 1.429 . S
C549 C543 1.429 . S
C549 C550 1.523 . S
C550 C531 1.368 . S
C550 C544 1.368 . S
C550 C549 1.523 . S
C551 C535 1.429 . S
C551 C547 1.429 . S
C551 C552 1.523 . S
C552 C536 1.368 . S
C552 C548 1.368 . S
C552 C551 1.523 . S
H553 C528 0.950 . S
H554 C530 0.950 . S
H555 C531 0.949 . S
H556 C533 0.950 . S
H557 C535 0.950 . S
C558 C559 1.349 . S
C558 C560 1.327 . S
C558 H583 0.950 . S
C559 C558 1.349 . S
C559 C575 1.349 . S
C560 C558 1.327 . S
C560 C579 1.429 . S
C560 H584 0.950 . S
C561 C578 1.574 . S
C561 C580 1.368 . S
C561 H585 0.949 . S
H562 C566 0.949 . S
C563 C564 1.349 . S
C563 C565 1.327 . S
C563 H586 0.950 . S
C564 C563 1.349 . S
C564 C576 1.349 . S
C565 C563 1.327 . S
C565 C581 1.429 . S
C565 H587 0.950 . S
C566 H562 0.949 . S
C566 C574 1.574 . S
C566 C582 1.368 . S
H567 C575 0.950 . S
H568 C573 0.950 . S
H569 C574 0.949 . S
H570 C576 0.950 . S
H571 C577 0.950 . S
H572 C578 0.949 . S
C573 H568 0.950 . S
C573 C575 1.327 . S
C573 C579 1.429 . S
C574 C566 1.574 . S
C574 H569 0.949 . S
C574 C580 1.368 1_545 S
C575 C559 1.349 . S
C575 H567 0.950 . S
C575 C573 1.327 . S
C576 C564 1.349 . S
C576 H570 0.950 . S
C576 C577 1.327 . S
C577 H571 0.950 . S
C577 C576 1.327 . S
C577 C581 1.429 . S
C578 C561 1.574 . S
C578 H572 0.949 . S
C578 C582 1.368 1_565 S
C579 C560 1.429 . S
C579 C573 1.429 . S
C579 C580 1.523 . S
C580 C561 1.368 . S
C580 C574 1.368 1_565 S
C580 C579 1.523 . S
C581 C565 1.429 . S
C581 C577 1.429 . S
C581 C582 1.523 . S
C582 C566 1.368 . S
C582 C578 1.368 1_545 S
C582 C581 1.523 . S
H583 C558 0.950 . S
H584 C560 0.950 . S
H585 C561 0.949 . S
H586 C563 0.950 . S
H587 C565 0.950 . S
C588 C589 1.349 . S
C588 C590 1.327 . S
C588 H613 0.950 . S
C589 C588 1.349 . S
C589 C605 1.349 . S
C590 C588 1.327 . S
C590 C609 1.429 . S
C590 H614 0.950 . S
C591 C608 1.574 1_455 S
C591 C610 1.368 . S
C591 H615 0.949 . S
H592 C596 0.949 . S
C593 C594 1.349 . S
C593 C595 1.327 . S
C593 H616 0.950 . S
C594 C593 1.349 . S
C594 C606 1.349 . S
C595 C593 1.327 . S
C595 C611 1.429 . S
C595 H617 0.950 . S
C596 H592 0.949 . S
C596 C604 1.574 1_655 S
C596 C612 1.368 . S
H597 C605 0.950 . S
H598 C603 0.950 . S
H599 C604 0.949 . S
H600 C606 0.950 . S
H601 C607 0.950 . S
H602 C608 0.949 . S
C603 H598 0.950 . S
C603 C605 1.327 . S
C603 C609 1.429 . S
C604 C596 1.574 1_455 S
C604 H599 0.949 . S
C604 C610 1.368 . S
C605 C589 1.349 . S
C605 H597 0.950 . S
C605 C603 1.327 . S
C606 C594 1.349 . S
C606 H600 0.950 . S
C606 C607 1.327 . S
C607 H601 0.950 . S
C607 C606 1.327 . S
C607 C611 1.429 . S
C608 C591 1.574 1_655 S
C608 H602 0.949 . S
C608 C612 1.368 . S
C609 C590 1.429 . S
C609 C603 1.429 . S
C609 C610 1.523 . S
C610 C591 1.368 . S
C610 C604 1.368 . S
C610 C609 1.523 . S
C611 C595 1.429 . S
C611 C607 1.429 . S
C611 C612 1.523 . S
C612 C596 1.368 . S
C612 C608 1.368 . S
C612 C611 1.523 . S
H613 C588 0.950 . S
H614 C590 0.950 . S
H615 C591 0.949 . S
H616 C593 0.950 . S
H617 C595 0.950 . S
C618 C619 1.349 . S
C618 C620 1.327 . S
C618 H643 0.950 . S
C619 C618 1.349 . S
C619 C635 1.349 . S
C620 C618 1.327 . S
C620 C639 1.429 . S
C620 H644 0.950 . S
C621 C638 1.574 . S
C621 C640 1.368 . S
C621 H645 0.949 . S
H622 C626 0.949 . S
C623 C624 1.349 . S
C623 C625 1.327 . S
C623 H646 0.950 . S
C624 C623 1.349 . S
C624 C636 1.349 . S
C625 C623 1.327 . S
C625 C641 1.429 . S
C625 H647 0.950 . S
C626 H622 0.949 . S
C626 C634 1.574 . S
C626 C642 1.368 . S
H627 C635 0.950 . S
H628 C633 0.950 . S
H629 C634 0.949 . S
H630 C636 0.950 . S
H631 C637 0.950 . S
H632 C638 0.949 . S
C633 H628 0.950 . S
C633 C635 1.327 . S
C633 C639 1.429 . S
C634 C626 1.574 . S
C634 H629 0.949 . S
C634 C640 1.368 . S
C635 C619 1.349 . S
C635 H627 0.950 . S
C635 C633 1.327 . S
C636 C624 1.349 . S
C636 H630 0.950 . S
C636 C637 1.327 . S
C637 H631 0.950 . S
C637 C636 1.327 . S
C637 C641 1.429 . S
C638 C621 1.574 . S
C638 H632 0.949 . S
C638 C642 1.368 . S
C639 C620 1.429 . S
C639 C633 1.429 . S
C639 C640 1.523 . S
C640 C621 1.368 . S
C640 C634 1.368 . S
C640 C639 1.523 . S
C641 C625 1.429 . S
C641 C637 1.429 . S
C641 C642 1.523 . S
C642 C626 1.368 . S
C642 C638 1.368 . S
C642 C641 1.523 . S
H643 C618 0.950 . S
H644 C620 0.950 . S
H645 C621 0.949 . S
H646 C623 0.950 . S
H647 C625 0.950 . S
C648 C649 1.349 . S
C648 C650 1.327 . S
C648 H673 0.950 . S
C649 C648 1.349 . S
C649 C665 1.349 . S
C650 C648 1.327 . S
C650 C669 1.429 . S
C650 H674 0.950 . S
C651 C668 1.574 . S
C651 C670 1.368 . S
C651 H675 0.949 . S
H652 C656 0.949 . S
C653 C654 1.349 . S
C653 C655 1.327 . S
C653 H676 0.950 1_556 S
C654 C653 1.349 . S
C654 C666 1.349 . S
C655 C653 1.327 . S
C655 C671 1.429 . S
C655 H677 0.950 . S
C656 H652 0.949 . S
C656 C664 1.574 . S
C656 C672 1.368 . S
H657 C665 0.950 . S
H658 C663 0.950 . S
H659 C664 0.949 . S
H660 C666 0.950 . S
H661 C667 0.950 . S
H662 C668 0.949 . S
C663 H658 0.950 . S
C663 C665 1.327 . S
C663 C669 1.429 . S
C664 C656 1.574 . S
C664 H659 0.949 . S
C664 C670 1.368 . S
C665 C649 1.349 . S
C665 H657 0.950 . S
C665 C663 1.327 . S
C666 C654 1.349 . S
C666 H660 0.950 . S
C666 C667 1.327 . S
C667 H661 0.950 . S
C667 C666 1.327 . S
C667 C671 1.429 . S
C668 C651 1.574 . S
C668 H662 0.949 . S
C668 C672 1.368 . S
C669 C650 1.429 . S
C669 C663 1.429 . S
C669 C670 1.523 . S
C670 C651 1.368 . S
C670 C664 1.368 . S
C670 C669 1.523 . S
C671 C655 1.429 . S
C671 C667 1.429 . S
C671 C672 1.523 . S
C672 C656 1.368 . S
C672 C668 1.368 . S
C672 C671 1.523 . S
H673 C648 0.950 . S
H674 C650 0.950 . S
H675 C651 0.949 . S
H676 C653 0.950 1_554 S
H677 C655 0.950 . S
C678 C679 1.349 . S
C678 C680 1.327 . S
C678 H703 0.950 . S
C679 C678 1.349 . S
C679 C695 1.349 . S
C680 C678 1.327 . S
C680 C699 1.429 . S
C680 H704 0.950 . S
C681 C698 1.574 . S
C681 C700 1.368 . S
C681 H705 0.949 . S
H682 C686 0.949 . S
C683 C684 1.349 . S
C683 C685 1.327 . S
C683 H706 0.950 . S
C684 C683 1.349 . S
C684 C696 1.349 . S
C685 C683 1.327 . S
C685 C701 1.429 . S
C685 H707 0.950 . S
C686 H682 0.949 . S
C686 C694 1.574 . S
C686 C702 1.368 . S
H687 C695 0.950 . S
H688 C693 0.950 . S
H689 C694 0.949 . S
H690 C696 0.950 . S
H691 C697 0.950 . S
H692 C698 0.949 . S
C693 H688 0.950 . S
C693 C695 1.327 . S
C693 C699 1.429 . S
C694 C686 1.574 . S
C694 H689 0.949 . S
C694 C700 1.368 . S
C695 C679 1.349 . S
C695 H687 0.950 . S
C695 C693 1.327 . S
C696 C684 1.349 . S
C696 H690 0.950 . S
C696 C697 1.327 . S
C697 H691 0.950 . S
C697 C696 1.327 . S
C697 C701 1.429 . S
C698 C681 1.574 . S
C698 H692 0.949 . S
C698 C702 1.368 . S
C699 C680 1.429 . S
C699 C693 1.429 . S
C699 C700 1.523 . S
C700 C681 1.368 . S
C700 C694 1.368 . S
C700 C699 1.523 . S
C701 C685 1.429 . S
C701 C697 1.429 . S
C701 C702 1.523 . S
C702 C686 1.368 . S
C702 C698 1.368 . S
C702 C701 1.523 . S
H703 C678 0.950 . S
H704 C680 0.950 . S
H705 C681 0.949 . S
H706 C683 0.950 . S
H707 C685 0.950 . S
C708 C709 1.349 . S
C708 C710 1.327 . S
C708 H733 0.950 . S
C709 C708 1.349 . S
C709 C725 1.349 . S
C710 C708 1.327 . S
C710 C729 1.429 . S
C710 H734 0.950 . S
C711 C728 1.574 . S
C711 C730 1.368 . S
C711 H735 0.949 . S
H712 C716 0.949 . S
C713 C714 1.349 . S
C713 C715 1.327 . S
C713 H736 0.950 1_556 S
C714 C713 1.349 . S
C714 C726 1.349 . S
C715 C713 1.327 . S
C715 C731 1.429 . S
C715 H737 0.950 . S
C716 H712 0.949 . S
C716 C724 1.574 . S
C716 C732 1.368 . S
H717 C725 0.950 . S
H718 C723 0.950 . S
H719 C724 0.949 . S
H720 C726 0.950 . S
H721 C727 0.950 . S
H722 C728 0.949 . S
C723 H718 0.950 . S
C723 C725 1.327 . S
C723 C729 1.429 . S
C724 C716 1.574 . S
C724 H719 0.949 . S
C724 C730 1.368 . S
C725 C709 1.349 . S
C725 H717 0.950 . S
C725 C723 1.327 . S
C726 C714 1.349 . S
C726 H720 0.950 . S
C726 C727 1.327 . S
C727 H721 0.950 . S
C727 C726 1.327 . S
C727 C731 1.429 . S
C728 C711 1.574 . S
C728 H722 0.949 . S
C728 C732 1.368 . S
C729 C710 1.429 . S
C729 C723 1.429 . S
C729 C730 1.523 . S
C730 C711 1.368 . S
C730 C724 1.368 . S
C730 C729 1.523 . S
C731 C715 1.429 . S
C731 C727 1.429 . S
C731 C732 1.523 . S
C732 C716 1.368 . S
C732 C728 1.368 . S
C732 C731 1.523 . S
H733 C708 0.950 . S
H734 C710 0.950 . S
H735 C711 0.949 . S
H736 C713 0.950 1_554 S
H737 C715 0.950 . S
C738 C739 1.349 . S
C738 C740 1.327 . S
C738 H763 0.950 . S
C739 C738 1.349 . S
C739 C755 1.349 . S
C740 C738 1.327 . S
C740 C759 1.429 . S
C740 H764 0.950 . S
C741 C758 1.574 . S
C741 C760 1.368 . S
C741 H765 0.949 . S
H742 C746 0.949 . S
C743 C744 1.349 . S
C743 C745 1.327 . S
C743 H766 0.950 . S
C744 C743 1.349 . S
C744 C756 1.349 . S
C745 C743 1.327 . S
C745 C761 1.429 . S
C745 H767 0.950 . S
C746 H742 0.949 . S
C746 C754 1.574 . S
C746 C762 1.368 . S
H747 C755 0.950 . S
H748 C753 0.950 . S
H749 C754 0.949 . S
H750 C756 0.950 . S
H751 C757 0.950 . S
H752 C758 0.949 . S
C753 H748 0.950 . S
C753 C755 1.327 . S
C753 C759 1.429 . S
C754 C746 1.574 . S
C754 H749 0.949 . S
C754 C760 1.368 . S
C755 C739 1.349 . S
C755 H747 0.950 . S
C755 C753 1.327 . S
C756 C744 1.349 . S
C756 H750 0.950 . S
C756 C757 1.327 . S
C757 H751 0.950 . S
C757 C756 1.327 . S
C757 C761 1.429 . S
C758 C741 1.574 . S
C758 H752 0.949 . S
C758 C762 1.368 . S
C759 C740 1.429 . S
C759 C753 1.429 . S
C759 C760 1.523 . S
C760 C741 1.368 . S
C760 C754 1.368 . S
C760 C759 1.523 . S
C761 C745 1.429 . S
C761 C757 1.429 . S
C761 C762 1.523 . S
C762 C746 1.368 . S
C762 C758 1.368 . S
C762 C761 1.523 . S
H763 C738 0.950 . S
H764 C740 0.950 . S
H765 C741 0.949 . S
H766 C743 0.950 . S
H767 C745 0.950 . S
C768 C769 1.349 . S
C768 C770 1.327 . S
C768 H793 0.950 1_556 S
C769 C768 1.349 . S
C769 C785 1.349 . S
C770 C768 1.327 . S
C770 C789 1.429 . S
C770 H794 0.950 . S
C771 C788 1.574 . S
C771 C790 1.368 . S
C771 H795 0.949 . S
H772 C776 0.949 . S
C773 C774 1.349 . S
C773 C775 1.327 . S
C773 H796 0.950 . S
C774 C773 1.349 . S
C774 C786 1.349 . S
C775 C773 1.327 . S
C775 C791 1.429 . S
C775 H797 0.950 . S
C776 H772 0.949 . S
C776 C784 1.574 . S
C776 C792 1.368 . S
H777 C785 0.950 . S
H778 C783 0.950 . S
H779 C784 0.949 . S
H780 C786 0.950 . S
H781 C787 0.950 . S
H782 C788 0.949 . S
C783 H778 0.950 . S
C783 C785 1.327 . S
C783 C789 1.429 . S
C784 C776 1.574 . S
C784 H779 0.949 . S
C784 C790 1.368 . S
C785 C769 1.349 . S
C785 H777 0.950 . S
C785 C783 1.327 . S
C786 C774 1.349 . S
C786 H780 0.950 . S
C786 C787 1.327 . S
C787 H781 0.950 . S
C787 C786 1.327 . S
C787 C791 1.429 . S
C788 C771 1.574 . S
C788 H782 0.949 . S
C788 C792 1.368 . S
C789 C770 1.429 . S
C789 C783 1.429 . S
C789 C790 1.523 . S
C790 C771 1.368 . S
C790 C784 1.368 . S
C790 C789 1.523 . S
C791 C775 1.429 . S
C791 C787 1.429 . S
C791 C792 1.523 . S
C792 C776 1.368 . S
C792 C788 1.368 . S
C792 C791 1.523 . S
H793 C768 0.950 1_554 S
H794 C770 0.950 . S
H795 C771 0.949 . S
H796 C773 0.950 . S
H797 C775 0.950 . S
C798 C799 1.349 . S
C798 C800 1.327 . S
C798 H823 0.950 . S
C799 C798 1.349 . S
C799 C815 1.349 . S
C800 C798 1.327 . S
C800 C819 1.429 . S
C800 H824 0.950 . S
C801 C818 1.574 . S
C801 C820 1.368 . S
C801 H825 0.949 . S
H802 C806 0.949 . S
C803 C804 1.349 . S
C803 C805 1.327 . S
C803 H826 0.950 . S
C804 C803 1.349 . S
C804 C816 1.349 . S
C805 C803 1.327 . S
C805 C821 1.429 . S
C805 H827 0.950 . S
C806 H802 0.949 . S
C806 C814 1.574 . S
C806 C822 1.368 . S
H807 C815 0.950 . S
H808 C813 0.950 . S
H809 C814 0.949 . S
H810 C816 0.950 1_554 S
H811 C817 0.950 . S
H812 C818 0.949 . S
C813 H808 0.950 . S
C813 C815 1.327 . S
C813 C819 1.429 . S
C814 C806 1.574 . S
C814 H809 0.949 . S
C814 C820 1.368 . S
C815 C799 1.349 . S
C815 H807 0.950 . S
C815 C813 1.327 . S
C816 C804 1.349 . S
C816 H810 0.950 1_556 S
C816 C817 1.327 . S
C817 H811 0.950 . S
C817 C816 1.327 . S
C817 C821 1.429 . S
C818 C801 1.574 . S
C818 H812 0.949 . S
C818 C822 1.368 . S
C819 C800 1.429 . S
C819 C813 1.429 . S
C819 C820 1.523 . S
C820 C801 1.368 . S
C820 C814 1.368 . S
C820 C819 1.523 . S
C821 C805 1.429 . S
C821 C817 1.429 . S
C821 C822 1.523 . S
C822 C806 1.368 . S
C822 C818 1.368 . S
C822 C821 1.523 . S
H823 C798 0.950 . S
H824 C800 0.950 . S
H825 C801 0.949 . S
H826 C803 0.950 . S
H827 C805 0.950 . S
C828 C829 1.349 . S
C828 C830 1.327 . S
C828 H853 0.950 . S
C829 C828 1.349 . S
C829 C845 1.349 . S
C830 C828 1.327 . S
C830 C849 1.429 . S
C830 H854 0.950 . S
C831 C848 1.574 . S
C831 C850 1.368 . S
C831 H855 0.949 . S
H832 C836 0.949 . S
C833 C834 1.349 . S
C833 C835 1.327 . S
C833 H856 0.950 . S
C834 C833 1.349 . S
C834 C846 1.349 . S
C835 C833 1.327 . S
C835 C851 1.429 . S
C835 H857 0.950 . S
C836 H832 0.949 . S
C836 C844 1.574 . S
C836 C852 1.368 . S
H837 C845 0.950 . S
H838 C843 0.950 . S
H839 C844 0.949 . S
H840 C846 0.950 1_556 S
H841 C847 0.950 . S
H842 C848 0.949 . S
C843 H838 0.950 . S
C843 C845 1.327 . S
C843 C849 1.429 . S
C844 C836 1.574 . S
C844 H839 0.949 . S
C844 C850 1.368 . S
C845 C829 1.349 . S
C845 H837 0.950 . S
C845 C843 1.327 . S
C846 C834 1.349 . S
C846 H840 0.950 1_554 S
C846 C847 1.327 . S
C847 H841 0.950 . S
C847 C846 1.327 . S
C847 C851 1.429 . S
C848 C831 1.574 . S
C848 H842 0.949 . S
C848 C852 1.368 . S
C849 C830 1.429 . S
C849 C843 1.429 . S
C849 C850 1.523 . S
C850 C831 1.368 . S
C850 C844 1.368 . S
C850 C849 1.523 . S
C851 C835 1.429 . S
C851 C847 1.429 . S
C851 C852 1.523 . S
C852 C836 1.368 . S
C852 C848 1.368 . S
C852 C851 1.523 . S
H853 C828 0.950 . S
H854 C830 0.950 . S
H855 C831 0.949 . S
H856 C833 0.950 . S
H857 C835 0.950 . S
C858 C859 1.349 . S
C858 C860 1.327 . S
C858 H883 0.950 . S
C859 C858 1.349 . S
C859 C875 1.349 . S
C860 C858 1.327 . S
C860 C879 1.429 . S
C860 H884 0.950 . S
C861 C878 1.574 . S
C861 C880 1.368 . S
C861 H885 0.949 . S
H862 C866 0.949 . S
C863 C864 1.349 . S
C863 C865 1.327 . S
C863 H886 0.950 . S
C864 C863 1.349 . S
C864 C876 1.349 . S
C865 C863 1.327 . S
C865 C881 1.429 . S
C865 H887 0.950 . S
C866 H862 0.949 . S
C866 C874 1.574 . S
C866 C882 1.368 . S
H867 C875 0.950 . S
H868 C873 0.950 . S
H869 C874 0.949 . S
H870 C876 0.950 1_556 S
H871 C877 0.950 . S
H872 C878 0.949 . S
C873 H868 0.950 . S
C873 C875 1.327 . S
C873 C879 1.429 . S
C874 C866 1.574 . S
C874 H869 0.949 . S
C874 C880 1.368 . S
C875 C859 1.349 . S
C875 H867 0.950 . S
C875 C873 1.327 . S
C876 C864 1.349 . S
C876 H870 0.950 1_554 S
C876 C877 1.327 . S
C877 H871 0.950 . S
C877 C876 1.327 . S
C877 C881 1.429 . S
C878 C861 1.574 . S
C878 H872 0.949 . S
C878 C882 1.368 . S
C879 C860 1.429 . S
C879 C873 1.429 . S
C879 C880 1.523 . S
C880 C861 1.368 . S
C880 C874 1.368 . S
C880 C879 1.523 . S
C881 C865 1.429 . S
C881 C877 1.429 . S
C881 C882 1.523 . S
C882 C866 1.368 . S
C882 C878 1.368 . S
C882 C881 1.523 . S
H883 C858 0.950 . S
H884 C860 0.950 . S
H885 C861 0.949 . S
H886 C863 0.950 . S
H887 C865 0.950 . S
C888 C889 1.349 . S
C888 C890 1.327 . S
C888 H913 0.950 . S
C889 C888 1.349 . S
C889 C905 1.349 . S
C890 C888 1.327 . S
C890 C909 1.429 . S
C890 H914 0.950 . S
C891 C908 1.574 . S
C891 C910 1.368 . S
C891 H915 0.949 . S
H892 C896 0.949 . S
C893 C894 1.349 . S
C893 C895 1.327 . S
C893 H916 0.950 . S
C894 C893 1.349 . S
C894 C906 1.349 . S
C895 C893 1.327 . S
C895 C911 1.429 . S
C895 H917 0.950 . S
C896 H892 0.949 . S
C896 C904 1.574 . S
C896 C912 1.368 . S
H897 C905 0.950 . S
H898 C903 0.950 . S
H899 C904 0.949 . S
H900 C906 0.950 . S
H901 C907 0.950 . S
H902 C908 0.949 . S
C903 H898 0.950 . S
C903 C905 1.327 . S
C903 C909 1.429 . S
C904 C896 1.574 . S
C904 H899 0.949 . S
C904 C910 1.368 . S
C905 C889 1.349 . S
C905 H897 0.950 . S
C905 C903 1.327 . S
C906 C894 1.349 . S
C906 H900 0.950 . S
C906 C907 1.327 . S
C907 H901 0.950 . S
C907 C906 1.327 . S
C907 C911 1.429 . S
C908 C891 1.574 . S
C908 H902 0.949 . S
C908 C912 1.368 . S
C909 C890 1.429 . S
C909 C903 1.429 . S
C909 C910 1.523 . S
C910 C891 1.368 . S
C910 C904 1.368 . S
C910 C909 1.523 . S
C911 C895 1.429 . S
C911 C907 1.429 . S
C911 C912 1.523 . S
C912 C896 1.368 . S
C912 C908 1.368 . S
C912 C911 1.523 . S
H913 C888 0.950 . S
H914 C890 0.950 . S
H915 C891 0.949 . S
H916 C893 0.950 . S
H917 C895 0.950 . S
C918 C919 1.349 . S
C918 C920 1.327 . S
C918 H943 0.950 . S
C919 C918 1.349 . S
C919 C935 1.349 . S
C920 C918 1.327 . S
C920 C939 1.429 . S
C920 H944 0.950 . S
C921 C938 1.574 . S
C921 C940 1.368 . S
C921 H945 0.949 . S
H922 C926 0.949 . S
C923 C924 1.349 . S
C923 C925 1.327 . S
C923 H946 0.950 1_554 S
C924 C923 1.349 . S
C924 C936 1.349 . S
C925 C923 1.327 . S
C925 C941 1.429 . S
C925 H947 0.950 . S
C926 H922 0.949 . S
C926 C934 1.574 . S
C926 C942 1.368 . S
H927 C935 0.950 . S
H928 C933 0.950 . S
H929 C934 0.949 . S
H930 C936 0.950 . S
H931 C937 0.950 . S
H932 C938 0.949 . S
C933 H928 0.950 . S
C933 C935 1.327 . S
C933 C939 1.429 . S
C934 C926 1.574 . S
C934 H929 0.949 . S
C934 C940 1.368 . S
C935 C919 1.349 . S
C935 H927 0.950 . S
C935 C933 1.327 . S
C936 C924 1.349 . S
C936 H930 0.950 . S
C936 C937 1.327 . S
C937 H931 0.950 . S
C937 C936 1.327 . S
C937 C941 1.429 . S
C938 C921 1.574 . S
C938 H932 0.949 . S
C938 C942 1.368 . S
C939 C920 1.429 . S
C939 C933 1.429 . S
C939 C940 1.523 . S
C940 C921 1.368 . S
C940 C934 1.368 . S
C940 C939 1.523 . S
C941 C925 1.429 . S
C941 C937 1.429 . S
C941 C942 1.523 . S
C942 C926 1.368 . S
C942 C938 1.368 . S
C942 C941 1.523 . S
H943 C918 0.950 . S
H944 C920 0.950 . S
H945 C921 0.949 . S
H946 C923 0.950 1_556 S
H947 C925 0.950 . S
C948 C949 1.349 . S
C948 C950 1.327 . S
C948 H973 0.950 . S
C949 C948 1.349 . S
C949 C965 1.349 . S
C950 C948 1.327 . S
C950 C969 1.429 . S
C950 H974 0.950 . S
C951 C968 1.574 . S
C951 C970 1.368 . S
C951 H975 0.949 . S
H952 C956 0.949 . S
C953 C954 1.349 . S
C953 C955 1.327 . S
C953 H976 0.950 . S
C954 C953 1.349 . S
C954 C966 1.349 . S
C955 C953 1.327 . S
C955 C971 1.429 . S
C955 H977 0.950 . S
C956 H952 0.949 . S
C956 C964 1.574 . S
C956 C972 1.368 . S
H957 C965 0.950 . S
H958 C963 0.950 . S
H959 C964 0.949 . S
H960 C966 0.950 1_556 S
H961 C967 0.950 . S
H962 C968 0.949 . S
C963 H958 0.950 . S
C963 C965 1.327 . S
C963 C969 1.429 . S
C964 C956 1.574 . S
C964 H959 0.949 . S
C964 C970 1.368 . S
C965 C949 1.349 . S
C965 H957 0.950 . S
C965 C963 1.327 . S
C966 C954 1.349 . S
C966 H960 0.950 1_554 S
C966 C967 1.327 . S
C967 H961 0.950 . S
C967 C966 1.327 . S
C967 C971 1.429 . S
C968 C951 1.574 . S
C968 H962 0.949 . S
C968 C972 1.368 . S
C969 C950 1.429 . S
C969 C963 1.429 . S
C969 C970 1.523 . S
C970 C951 1.368 . S
C970 C964 1.368 . S
C970 C969 1.523 . S
C971 C955 1.429 . S
C971 C967 1.429 . S
C971 C972 1.523 . S
C972 C956 1.368 . S
C972 C968 1.368 . S
C972 C971 1.523 . S
H973 C948 0.950 . S
H974 C950 0.950 . S
H975 C951 0.949 . S
H976 C953 0.950 . S
H977 C955 0.950 . S
C978 C979 1.349 . S
C978 C980 1.327 . S
C978 H1003 0.950 . S
C979 C978 1.349 . S
C979 C995 1.349 . S
C980 C978 1.327 . S
C980 C999 1.429 . S
C980 H1004 0.950 . S
C981 C998 1.574 . S
C981 C1000 1.368 . S
C981 H1005 0.949 . S
H982 C986 0.949 . S
C983 C984 1.349 . S
C983 C985 1.327 . S
C983 H1006 0.950 1_554 S
C984 C983 1.349 . S
C984 C996 1.349 . S
C985 C983 1.327 . S
C985 C1001 1.429 . S
C985 H1007 0.950 . S
C986 H982 0.949 . S
C986 C994 1.574 . S
C986 C1002 1.368 . S
H987 C995 0.950 . S
H988 C993 0.950 . S
H989 C994 0.949 . S
H990 C996 0.950 . S
H991 C997 0.950 . S
H992 C998 0.949 . S
C993 H988 0.950 . S
C993 C995 1.327 . S
C993 C999 1.429 . S
C994 C986 1.574 . S
C994 H989 0.949 . S
C994 C1000 1.368 . S
C995 C979 1.349 . S
C995 H987 0.950 . S
C995 C993 1.327 . S
C996 C984 1.349 . S
C996 H990 0.950 . S
C996 C997 1.327 . S
C997 H991 0.950 . S
C997 C996 1.327 . S
C997 C1001 1.429 . S
C998 C981 1.574 . S
C998 H992 0.949 . S
C998 C1002 1.368 . S
C999 C980 1.429 . S
C999 C993 1.429 . S
C999 C1000 1.523 . S
C1000 C981 1.368 . S
C1000 C994 1.368 . S
C1000 C999 1.523 . S
C1001 C985 1.429 . S
C1001 C997 1.429 . S
C1001 C1002 1.523 . S
C1002 C986 1.368 . S
C1002 C998 1.368 . S
C1002 C1001 1.523 . S
H1003 C978 0.950 . S
H1004 C980 0.950 . S
H1005 C981 0.949 . S
H1006 C983 0.950 1_556 S
H1007 C985 0.950 . S
C1008 C1009 1.349 . S
C1008 C1010 1.327 . S
C1008 H1033 0.950 . S
C1009 C1008 1.349 . S
C1009 C1025 1.349 . S
C1010 C1008 1.327 . S
C1010 C1029 1.429 . S
C1010 H1034 0.950 . S
C1011 C1028 1.643 . S
C1011 C1030 1.261 1_545 S
C1011 H1035 0.992 . S
H1012 C1016 0.992 . S
C1013 C1014 1.349 . S
C1013 C1015 1.327 . S
C1013 H1036 0.950 . S
C1014 C1013 1.349 . S
C1014 C1026 1.349 . S
C1015 C1013 1.327 . S
C1015 C1031 1.429 . S
C1015 H1037 0.950 . S
C1016 H1012 0.992 . S
C1016 C1024 1.644 . S
C1016 C1032 1.260 1_565 S
H1017 C1025 0.950 . S
H1018 C1023 0.950 . S
H1019 C1024 0.949 . S
H1020 C1026 0.950 . S
H1021 C1027 0.950 . S
H1022 C1028 0.949 . S
C1023 H1018 0.950 . S
C1023 C1025 1.327 . S
C1023 C1029 1.429 . S
C1024 C1016 1.644 . S
C1024 H1019 0.949 . S
C1024 C1030 1.368 1_554 S
C1025 C1009 1.349 . S
C1025 H1017 0.950 . S
C1025 C1023 1.327 . S
C1026 C1014 1.349 . S
C1026 H1020 0.950 . S
C1026 C1027 1.327 . S
C1027 H1021 0.950 . S
C1027 C1026 1.327 . S
C1027 C1031 1.429 . S
C1028 C1011 1.643 . S
C1028 H1022 0.949 . S
C1028 C1032 1.368 1_556 S
C1029 C1010 1.429 . S
C1029 C1023 1.429 . S
C1029 C1030 1.523 . S
C1030 C1011 1.261 1_565 S
C1030 C1024 1.368 1_556 S
C1030 C1029 1.523 . S
C1031 C1015 1.429 . S
C1031 C1027 1.429 . S
C1031 C1032 1.523 . S
C1032 C1016 1.260 1_545 S
C1032 C1028 1.368 1_554 S
C1032 C1031 1.523 . S
H1033 C1008 0.950 . S
H1034 C1010 0.950 . S
H1035 C1011 0.992 . S
H1036 C1013 0.950 . S
H1037 C1015 0.950 . S
C1038 C1039 1.349 . S
C1038 C1040 1.327 . S
C1038 H1063 0.950 . S
C1039 C1038 1.349 . S
C1039 C1055 1.349 . S
C1040 C1038 1.327 . S
C1040 C1059 1.429 . S
C1040 H1064 0.950 . S
C1041 C1058 1.581 1_654 S
C1041 C1060 1.368 . S
C1041 H1065 0.949 . S
H1042 C1046 0.949 . S
C1043 C1044 1.349 . S
C1043 C1045 1.327 . S
C1043 H1066 0.950 . S
C1044 C1043 1.349 . S
C1044 C1056 1.349 . S
C1045 C1043 1.327 . S
C1045 C1061 1.429 . S
C1045 H1067 0.950 . S
C1046 H1042 0.949 . S
C1046 C1054 1.579 1_456 S
C1046 C1062 1.368 . S
H1047 C1055 0.950 . S
H1048 C1053 0.950 . S
H1049 C1054 0.940 . S
H1050 C1056 0.950 . S
H1051 C1057 0.950 . S
H1052 C1058 0.940 . S
C1053 H1048 0.950 . S
C1053 C1055 1.327 . S
C1053 C1059 1.429 . S
C1054 C1046 1.579 1_654 S
C1054 H1049 0.940 . S
C1054 C1060 1.366 . S
C1055 C1039 1.349 . S
C1055 H1047 0.950 . S
C1055 C1053 1.327 . S
C1056 C1044 1.349 . S
C1056 H1050 0.950 . S
C1056 C1057 1.327 . S
C1057 H1051 0.950 . S
C1057 C1056 1.327 . S
C1057 C1061 1.429 . S
C1058 C1041 1.581 1_456 S
C1058 H1052 0.940 . S
C1058 C1062 1.366 . S
C1059 C1040 1.429 . S
C1059 C1053 1.429 . S
C1059 C1060 1.523 . S
C1060 C1041 1.368 . S
C1060 C1054 1.366 . S
C1060 C1059 1.523 . S
C1061 C1045 1.429 . S
C1061 C1057 1.429 . S
C1061 C1062 1.523 . S
C1062 C1046 1.368 . S
C1062 C1058 1.366 . S
C1062 C1061 1.523 . S
H1063 C1038 0.950 . S
H1064 C1040 0.950 . S
H1065 C1041 0.949 . S
H1066 C1043 0.950 . S
H1067 C1045 0.950 . S
C1068 C1069 1.349 . S
C1068 C1070 1.327 . S
C1068 H1093 0.950 . S
C1069 C1068 1.349 . S
C1069 C1085 1.349 . S
C1070 C1068 1.327 . S
C1070 C1089 1.429 . S
C1070 H1094 0.950 . S
C1071 C1088 1.566 1_556 S
C1071 C1090 1.368 . S
C1071 H1095 0.949 . S
H1072 C1076 0.949 . S
C1073 C1074 1.349 . S
C1073 C1075 1.327 . S
C1073 H1096 0.950 . S
C1074 C1073 1.349 . S
C1074 C1086 1.349 . S
C1075 C1073 1.327 . S
C1075 C1091 1.429 . S
C1075 H1097 0.950 . S
C1076 H1072 0.949 . S
C1076 C1084 1.566 1_554 S
C1076 C1092 1.368 . S
H1077 C1085 0.950 . S
H1078 C1083 0.950 . S
H1079 C1084 0.949 . S
H1080 C1086 0.950 . S
H1081 C1087 0.950 . S
H1082 C1088 0.949 . S
C1083 H1078 0.950 . S
C1083 C1085 1.327 . S
C1083 C1089 1.429 . S
C1084 C1076 1.566 1_556 S
C1084 H1079 0.949 . S
C1084 C1090 1.375 . S
C1085 C1069 1.349 . S
C1085 H1077 0.950 . S
C1085 C1083 1.327 . S
C1086 C1074 1.349 . S
C1086 H1080 0.950 . S
C1086 C1087 1.327 . S
C1087 H1081 0.950 . S
C1087 C1086 1.327 . S
C1087 C1091 1.429 . S
C1088 C1071 1.566 1_554 S
C1088 H1082 0.949 . S
C1088 C1092 1.375 . S
C1089 C1070 1.429 . S
C1089 C1083 1.429 . S
C1089 C1090 1.523 . S
C1090 C1071 1.368 . S
C1090 C1084 1.375 . S
C1090 C1089 1.523 . S
C1091 C1075 1.429 . S
C1091 C1087 1.429 . S
C1091 C1092 1.523 . S
C1092 C1076 1.368 . S
C1092 C1088 1.375 . S
C1092 C1091 1.523 . S
H1093 C1068 0.950 . S
H1094 C1070 0.950 . S
H1095 C1071 0.949 . S
H1096 C1073 0.950 . S
H1097 C1075 0.950 . S
C1098 C1099 1.349 . S
C1098 C1100 1.327 . S
C1098 H1123 0.950 . S
C1099 C1098 1.349 . S
C1099 C1115 1.349 . S
C1100 C1098 1.327 . S
C1100 C1119 1.429 . S
C1100 H1124 0.950 . S
C1101 C1118 1.574 . S
C1101 C1120 1.368 1_554 S
C1101 H1125 0.949 . S
H1102 C1106 0.949 . S
C1103 C1104 1.349 . S
C1103 C1105 1.327 . S
C1103 H1126 0.950 . S
C1104 C1103 1.349 . S
C1104 C1116 1.349 . S
C1105 C1103 1.327 . S
C1105 C1121 1.429 . S
C1105 H1127 0.950 . S
C1106 H1102 0.949 . S
C1106 C1114 1.574 . S
C1106 C1122 1.368 1_556 S
H1107 C1115 0.950 . S
H1108 C1113 0.950 . S
H1109 C1114 0.949 . S
H1110 C1116 0.950 . S
H1111 C1117 0.950 . S
H1112 C1118 0.949 . S
C1113 H1108 0.950 . S
C1113 C1115 1.327 . S
C1113 C1119 1.429 . S
C1114 C1106 1.574 . S
C1114 H1109 0.949 . S
C1114 C1120 1.368 1_545 S
C1115 C1099 1.349 . S
C1115 H1107 0.950 . S
C1115 C1113 1.327 . S
C1116 C1104 1.349 . S
C1116 H1110 0.950 . S
C1116 C1117 1.327 . S
C1117 H1111 0.950 . S
C1117 C1116 1.327 . S
C1117 C1121 1.429 . S
C1118 C1101 1.574 . S
C1118 H1112 0.949 . S
C1118 C1122 1.368 1_565 S
C1119 C1100 1.429 . S
C1119 C1113 1.429 . S
C1119 C1120 1.523 . S
C1120 C1101 1.368 1_556 S
C1120 C1114 1.368 1_565 S
C1120 C1119 1.523 . S
C1121 C1105 1.429 . S
C1121 C1117 1.429 . S
C1121 C1122 1.523 . S
C1122 C1106 1.368 1_554 S
C1122 C1118 1.368 1_545 S
C1122 C1121 1.523 . S
H1123 C1098 0.950 . S
H1124 C1100 0.950 . S
H1125 C1101 0.949 . S
H1126 C1103 0.950 . S
H1127 C1105 0.950 . S
C1128 C1129 1.349 . S
C1128 C1130 1.327 . S
C1128 H1153 0.950 . S
C1129 C1128 1.349 . S
C1129 C1145 1.349 . S
C1130 C1128 1.327 . S
C1130 C1149 1.429 . S
C1130 H1154 0.950 . S
C1131 C1148 1.574 1_456 S
C1131 C1150 1.368 . S
C1131 H1155 0.949 . S
H1132 C1136 0.949 . S
C1133 C1134 1.349 . S
C1133 C1135 1.327 . S
C1133 H1156 0.950 . S
C1134 C1133 1.349 . S
C1134 C1146 1.349 . S
C1135 C1133 1.327 . S
C1135 C1151 1.429 . S
C1135 H1157 0.950 . S
C1136 H1132 0.949 . S
C1136 C1144 1.574 1_654 S
C1136 C1152 1.368 . S
H1137 C1145 0.950 . S
H1138 C1143 0.950 . S
H1139 C1144 0.949 . S
H1140 C1146 0.950 . S
H1141 C1147 0.950 . S
H1142 C1148 0.949 . S
C1143 H1138 0.950 . S
C1143 C1145 1.327 . S
C1143 C1149 1.429 . S
C1144 C1136 1.574 1_456 S
C1144 H1139 0.949 . S
C1144 C1150 1.368 . S
C1145 C1129 1.349 . S
C1145 H1137 0.950 . S
C1145 C1143 1.327 . S
C1146 C1134 1.349 . S
C1146 H1140 0.950 . S
C1146 C1147 1.327 . S
C1147 H1141 0.950 . S
C1147 C1146 1.327 . S
C1147 C1151 1.429 . S
C1148 C1131 1.574 1_654 S
C1148 H1142 0.949 . S
C1148 C1152 1.368 . S
C1149 C1130 1.429 . S
C1149 C1143 1.429 . S
C1149 C1150 1.523 . S
C1150 C1131 1.368 . S
C1150 C1144 1.368 . S
C1150 C1149 1.523 . S
C1151 C1135 1.429 . S
C1151 C1147 1.429 . S
C1151 C1152 1.523 . S
C1152 C1136 1.368 . S
C1152 C1148 1.368 . S
C1152 C1151 1.523 . S
H1153 C1128 0.950 . S
H1154 C1130 0.950 . S
H1155 C1131 0.949 . S
H1156 C1133 0.950 . S
H1157 C1135 0.950 . S
C1158 C1159 1.349 . S
C1158 C1160 1.327 . S
C1158 H1183 0.950 . S
C1159 C1158 1.349 . S
C1159 C1175 1.349 . S
C1160 C1158 1.327 . S
C1160 C1179 1.429 . S
C1160 H1184 0.950 . S
C1161 C1178 1.574 1_554 S
C1161 C1180 1.368 . S
C1161 H1185 0.949 . S
H1162 C1166 0.949 . S
C1163 C1164 1.349 . S
C1163 C1165 1.327 . S
C1163 H1186 0.950 . S
C1164 C1163 1.349 . S
C1164 C1176 1.349 . S
C1165 C1163 1.327 . S
C1165 C1181 1.429 . S
C1165 H1187 0.950 . S
C1166 H1162 0.949 . S
C1166 C1174 1.574 1_556 S
C1166 C1182 1.368 . S
H1167 C1175 0.950 . S
H1168 C1173 0.950 . S
H1169 C1174 0.949 . S
H1170 C1176 0.950 . S
H1171 C1177 0.950 . S
H1172 C1178 0.949 . S
C1173 H1168 0.950 . S
C1173 C1175 1.327 . S
C1173 C1179 1.429 . S
C1174 C1166 1.574 1_554 S
C1174 H1169 0.949 . S
C1174 C1180 1.368 . S
C1175 C1159 1.349 . S
C1175 H1167 0.950 . S
C1175 C1173 1.327 . S
C1176 C1164 1.349 . S
C1176 H1170 0.950 . S
C1176 C1177 1.327 . S
C1177 H1171 0.950 . S
C1177 C1176 1.327 . S
C1177 C1181 1.429 . S
C1178 C1161 1.574 1_556 S
C1178 H1172 0.949 . S
C1178 C1182 1.368 . S
C1179 C1160 1.429 . S
C1179 C1173 1.429 . S
C1179 C1180 1.523 . S
C1180 C1161 1.368 . S
C1180 C1174 1.368 . S
C1180 C1179 1.523 . S
C1181 C1165 1.429 . S
C1181 C1177 1.429 . S
C1181 C1182 1.523 . S
C1182 C1166 1.368 . S
C1182 C1178 1.368 . S
C1182 C1181 1.523 . S
H1183 C1158 0.950 . S
H1184 C1160 0.950 . S
H1185 C1161 0.949 . S
H1186 C1163 0.950 . S
H1187 C1165 0.950 . S
C1188 C1189 1.349 . S
C1188 C1190 1.327 . S
C1188 H1213 0.950 . S
C1189 C1188 1.349 . S
C1189 C1205 1.349 . S
C1190 C1188 1.327 . S
C1190 C1209 1.429 . S
C1190 H1214 0.950 . S
C1191 C1208 1.574 . S
C1191 C1210 1.368 . S
C1191 H1215 0.949 . S
H1192 C1196 0.949 . S
C1193 C1194 1.349 . S
C1193 C1195 1.327 . S
C1193 H1216 0.950 . S
C1194 C1193 1.349 . S
C1194 C1206 1.349 . S
C1195 C1193 1.327 . S
C1195 C1211 1.429 . S
C1195 H1217 0.950 . S
C1196 H1192 0.949 . S
C1196 C1204 1.574 . S
C1196 C1212 1.368 . S
H1197 C1205 0.950 . S
H1198 C1203 0.950 . S
H1199 C1204 0.949 . S
H1200 C1206 0.950 . S
H1201 C1207 0.950 . S
H1202 C1208 0.949 . S
C1203 H1198 0.950 . S
C1203 C1205 1.327 . S
C1203 C1209 1.429 . S
C1204 C1196 1.574 . S
C1204 H1199 0.949 . S
C1204 C1210 1.368 . S
C1205 C1189 1.349 . S
C1205 H1197 0.950 . S
C1205 C1203 1.327 . S
C1206 C1194 1.349 . S
C1206 H1200 0.950 . S
C1206 C1207 1.327 . S
C1207 H1201 0.950 . S
C1207 C1206 1.327 . S
C1207 C1211 1.429 . S
C1208 C1191 1.574 . S
C1208 H1202 0.949 . S
C1208 C1212 1.368 . S
C1209 C1190 1.429 . S
C1209 C1203 1.429 . S
C1209 C1210 1.523 . S
C1210 C1191 1.368 . S
C1210 C1204 1.368 . S
C1210 C1209 1.523 . S
C1211 C1195 1.429 . S
C1211 C1207 1.429 . S
C1211 C1212 1.523 . S
C1212 C1196 1.368 . S
C1212 C1208 1.368 . S
C1212 C1211 1.523 . S
H1213 C1188 0.950 . S
H1214 C1190 0.950 . S
H1215 C1191 0.949 . S
H1216 C1193 0.950 . S
H1217 C1195 0.950 . S
C1218 C1219 1.349 . S
C1218 C1220 1.327 . S
C1218 H1243 0.950 . S
C1219 C1218 1.349 . S
C1219 C1235 1.349 . S
C1220 C1218 1.327 . S
C1220 C1239 1.429 . S
C1220 H1244 0.950 . S
C1221 C1238 1.574 . S
C1221 C1240 1.368 . S
C1221 H1245 0.949 . S
H1222 C1226 0.949 . S
C1223 C1224 1.349 . S
C1223 C1225 1.327 . S
C1223 H1246 0.950 . S
C1224 C1223 1.349 . S
C1224 C1236 1.349 . S
C1225 C1223 1.327 . S
C1225 C1241 1.429 . S
C1225 H1247 0.950 . S
C1226 H1222 0.949 . S
C1226 C1234 1.574 . S
C1226 C1242 1.368 . S
H1227 C1235 0.950 . S
H1228 C1233 0.950 . S
H1229 C1234 0.949 . S
H1230 C1236 0.950 . S
H1231 C1237 0.950 . S
H1232 C1238 0.949 . S
C1233 H1228 0.950 . S
C1233 C1235 1.327 . S
C1233 C1239 1.429 . S
C1234 C1226 1.574 . S
C1234 H1229 0.949 . S
C1234 C1240 1.368 . S
C1235 C1219 1.349 . S
C1235 H1227 0.950 . S
C1235 C1233 1.327 . S
C1236 C1224 1.349 . S
C1236 H1230 0.950 . S
C1236 C1237 1.327 . S
C1237 H1231 0.950 . S
C1237 C1236 1.327 . S
C1237 C1241 1.429 . S
C1238 C1221 1.574 . S
C1238 H1232 0.949 . S
C1238 C1242 1.368 . S
C1239 C1220 1.429 . S
C1239 C1233 1.429 . S
C1239 C1240 1.523 . S
C1240 C1221 1.368 . S
C1240 C1234 1.368 . S
C1240 C1239 1.523 . S
C1241 C1225 1.429 . S
C1241 C1237 1.429 . S
C1241 C1242 1.523 . S
C1242 C1226 1.368 . S
C1242 C1238 1.368 . S
C1242 C1241 1.523 . S
H1243 C1218 0.950 . S
H1244 C1220 0.950 . S
H1245 C1221 0.949 . S
H1246 C1223 0.950 . S
H1247 C1225 0.950 . S
C1248 C1249 1.349 . S
C1248 C1250 1.327 . S
C1248 H1273 0.950 . S
C1249 C1248 1.349 . S
C1249 C1265 1.349 . S
C1250 C1248 1.327 . S
C1250 C1269 1.429 . S
C1250 H1274 0.950 . S
C1251 C1268 1.574 . S
C1251 C1270 1.368 . S
C1251 H1275 0.949 . S
H1252 C1256 0.949 . S
C1253 C1254 1.349 . S
C1253 C1255 1.327 . S
C1253 H1276 0.950 . S
C1254 C1253 1.349 . S
C1254 C1266 1.349 . S
C1255 C1253 1.327 . S
C1255 C1271 1.429 . S
C1255 H1277 0.950 . S
C1256 H1252 0.949 . S
C1256 C1264 1.574 . S
C1256 C1272 1.368 . S
H1257 C1265 0.950 . S
H1258 C1263 0.950 . S
H1259 C1264 0.949 . S
H1260 C1266 0.950 . S
H1261 C1267 0.950 . S
H1262 C1268 0.949 . S
C1263 H1258 0.950 . S
C1263 C1265 1.327 . S
C1263 C1269 1.429 . S
C1264 C1256 1.574 . S
C1264 H1259 0.949 . S
C1264 C1270 1.368 . S
C1265 C1249 1.349 . S
C1265 H1257 0.950 . S
C1265 C1263 1.327 . S
C1266 C1254 1.349 . S
C1266 H1260 0.950 . S
C1266 C1267 1.327 . S
C1267 H1261 0.950 . S
C1267 C1266 1.327 . S
C1267 C1271 1.429 . S
C1268 C1251 1.574 . S
C1268 H1262 0.949 . S
C1268 C1272 1.368 . S
C1269 C1250 1.429 . S
C1269 C1263 1.429 . S
C1269 C1270 1.523 . S
C1270 C1251 1.368 . S
C1270 C1264 1.368 . S
C1270 C1269 1.523 . S
C1271 C1255 1.429 . S
C1271 C1267 1.429 . S
C1271 C1272 1.523 . S
C1272 C1256 1.368 . S
C1272 C1268 1.368 . S
C1272 C1271 1.523 . S
H1273 C1248 0.950 . S
H1274 C1250 0.950 . S
H1275 C1251 0.949 . S
H1276 C1253 0.950 . S
H1277 C1255 0.950 . S
C1278 C1279 1.349 . S
C1278 C1280 1.327 . S
C1278 H1303 0.950 . S
C1279 C1278 1.349 . S
C1279 C1295 1.349 . S
C1280 C1278 1.327 . S
C1280 C1299 1.429 . S
C1280 H1304 0.950 . S
C1281 C1298 1.574 . S
C1281 C1300 1.368 . S
C1281 H1305 0.949 . S
H1282 C1286 0.949 . S
C1283 C1284 1.349 . S
C1283 C1285 1.327 . S
C1283 H1306 0.950 . S
C1284 C1283 1.349 . S
C1284 C1296 1.349 . S
C1285 C1283 1.327 . S
C1285 C1301 1.429 . S
C1285 H1307 0.950 . S
C1286 H1282 0.949 . S
C1286 C1294 1.574 . S
C1286 C1302 1.368 . S
H1287 C1295 0.950 . S
H1288 C1293 0.950 . S
H1289 C1294 0.949 . S
H1290 C1296 0.950 . S
H1291 C1297 0.950 . S
H1292 C1298 0.949 . S
C1293 H1288 0.950 . S
C1293 C1295 1.327 . S
C1293 C1299 1.429 . S
C1294 C1286 1.574 . S
C1294 H1289 0.949 . S
C1294 C1300 1.368 . S
C1295 C1279 1.349 . S
C1295 H1287 0.950 . S
C1295 C1293 1.327 . S
C1296 C1284 1.349 . S
C1296 H1290 0.950 . S
C1296 C1297 1.327 . S
C1297 H1291 0.950 . S
C1297 C1296 1.327 . S
C1297 C1301 1.429 . S
C1298 C1281 1.574 . S
C1298 H1292 0.949 . S
C1298 C1302 1.368 . S
C1299 C1280 1.429 . S
C1299 C1293 1.429 . S
C1299 C1300 1.523 . S
C1300 C1281 1.368 . S
C1300 C1294 1.368 . S
C1300 C1299 1.523 . S
C1301 C1285 1.429 . S
C1301 C1297 1.429 . S
C1301 C1302 1.523 . S
C1302 C1286 1.368 . S
C1302 C1298 1.368 . S
C1302 C1301 1.523 . S
H1303 C1278 0.950 . S
H1304 C1280 0.950 . S
H1305 C1281 0.949 . S
H1306 C1283 0.950 . S
H1307 C1285 0.950 . S
C1308 C1309 1.349 . S
C1308 C1310 1.327 . S
C1308 H1333 0.950 . S
C1309 C1308 1.349 . S
C1309 C1325 1.349 . S
C1310 C1308 1.327 . S
C1310 C1329 1.429 . S
C1310 H1334 0.950 . S
C1311 C1328 1.574 . S
C1311 C1330 1.368 . S
C1311 H1335 0.949 . S
H1312 C1316 0.949 . S
C1313 C1314 1.349 . S
C1313 C1315 1.327 . S
C1313 H1336 0.950 . S
C1314 C1313 1.349 . S
C1314 C1326 1.349 . S
C1315 C1313 1.327 . S
C1315 C1331 1.429 . S
C1315 H1337 0.950 . S
C1316 H1312 0.949 . S
C1316 C1324 1.574 . S
C1316 C1332 1.368 . S
H1317 C1325 0.950 . S
H1318 C1323 0.950 . S
H1319 C1324 0.949 . S
H1320 C1326 0.950 . S
H1321 C1327 0.950 . S
H1322 C1328 0.949 . S
C1323 H1318 0.950 . S
C1323 C1325 1.327 . S
C1323 C1329 1.429 . S
C1324 C1316 1.574 . S
C1324 H1319 0.949 . S
C1324 C1330 1.368 . S
C1325 C1309 1.349 . S
C1325 H1317 0.950 . S
C1325 C1323 1.327 . S
C1326 C1314 1.349 . S
C1326 H1320 0.950 . S
C1326 C1327 1.327 . S
C1327 H1321 0.950 . S
C1327 C1326 1.327 . S
C1327 C1331 1.429 . S
C1328 C1311 1.574 . S
C1328 H1322 0.949 . S
C1328 C1332 1.368 . S
C1329 C1310 1.429 . S
C1329 C1323 1.429 . S
C1329 C1330 1.523 . S
C1330 C1311 1.368 . S
C1330 C1324 1.368 . S
C1330 C1329 1.523 . S
C1331 C1315 1.429 . S
C1331 C1327 1.429 . S
C1331 C1332 1.523 . S
C1332 C1316 1.368 . S
C1332 C1328 1.368 . S
C1332 C1331 1.523 . S
H1333 C1308 0.950 . S
H1334 C1310 0.950 . S
H1335 C1311 0.949 . S
H1336 C1313 0.950 . S
H1337 C1315 0.950 . S
C1338 C1339 1.349 . S
C1338 C1340 1.327 . S
C1338 H1363 0.950 . S
C1339 C1338 1.349 . S
C1339 C1355 1.349 . S
C1340 C1338 1.327 . S
C1340 C1359 1.429 . S
C1340 H1364 0.950 . S
C1341 C1358 1.574 . S
C1341 C1360 1.368 . S
C1341 H1365 0.949 . S
H1342 C1346 0.949 . S
C1343 C1344 1.349 . S
C1343 C1345 1.327 . S
C1343 H1366 0.950 . S
C1344 C1343 1.349 . S
C1344 C1356 1.349 . S
C1345 C1343 1.327 . S
C1345 C1361 1.429 . S
C1345 H1367 0.950 . S
C1346 H1342 0.949 . S
C1346 C1354 1.574 . S
C1346 C1362 1.368 . S
H1347 C1355 0.950 . S
H1348 C1353 0.950 . S
H1349 C1354 0.949 . S
H1350 C1356 0.950 . S
H1351 C1357 0.950 . S
H1352 C1358 0.949 . S
C1353 H1348 0.950 . S
C1353 C1355 1.327 . S
C1353 C1359 1.429 . S
C1354 C1346 1.574 . S
C1354 H1349 0.949 . S
C1354 C1360 1.368 . S
C1355 C1339 1.349 . S
C1355 H1347 0.950 . S
C1355 C1353 1.327 . S
C1356 C1344 1.349 . S
C1356 H1350 0.950 . S
C1356 C1357 1.327 . S
C1357 H1351 0.950 . S
C1357 C1356 1.327 . S
C1357 C1361 1.429 . S
C1358 C1341 1.574 . S
C1358 H1352 0.949 . S
C1358 C1362 1.368 . S
C1359 C1340 1.429 . S
C1359 C1353 1.429 . S
C1359 C1360 1.523 . S
C1360 C1341 1.368 . S
C1360 C1354 1.368 . S
C1360 C1359 1.523 . S
C1361 C1345 1.429 . S
C1361 C1357 1.429 . S
C1361 C1362 1.523 . S
C1362 C1346 1.368 . S
C1362 C1358 1.368 . S
C1362 C1361 1.523 . S
H1363 C1338 0.950 . S
H1364 C1340 0.950 . S
H1365 C1341 0.949 . S
H1366 C1343 0.950 . S
H1367 C1345 0.950 . S
C1368 C1369 1.349 . S
C1368 C1370 1.327 . S
C1368 H1393 0.950 . S
C1369 C1368 1.349 . S
C1369 C1385 1.349 . S
C1370 C1368 1.327 . S
C1370 C1389 1.429 . S
C1370 H1394 0.950 . S
C1371 C1388 1.574 . S
C1371 C1390 1.368 . S
C1371 H1395 0.949 . S
H1372 C1376 0.949 . S
C1373 C1374 1.349 . S
C1373 C1375 1.327 . S
C1373 H1396 0.950 . S
C1374 C1373 1.349 . S
C1374 C1386 1.349 . S
C1375 C1373 1.327 . S
C1375 C1391 1.429 . S
C1375 H1397 0.950 . S
C1376 H1372 0.949 . S
C1376 C1384 1.574 . S
C1376 C1392 1.368 . S
H1377 C1385 0.950 . S
H1378 C1383 0.950 . S
H1379 C1384 0.949 . S
H1380 C1386 0.950 . S
H1381 C1387 0.950 . S
H1382 C1388 0.949 . S
C1383 H1378 0.950 . S
C1383 C1385 1.327 . S
C1383 C1389 1.429 . S
C1384 C1376 1.574 . S
C1384 H1379 0.949 . S
C1384 C1390 1.368 . S
C1385 C1369 1.349 . S
C1385 H1377 0.950 . S
C1385 C1383 1.327 . S
C1386 C1374 1.349 . S
C1386 H1380 0.950 . S
C1386 C1387 1.327 . S
C1387 H1381 0.950 . S
C1387 C1386 1.327 . S
C1387 C1391 1.429 . S
C1388 C1371 1.574 . S
C1388 H1382 0.949 . S
C1388 C1392 1.368 . S
C1389 C1370 1.429 . S
C1389 C1383 1.429 . S
C1389 C1390 1.523 . S
C1390 C1371 1.368 . S
C1390 C1384 1.368 . S
C1390 C1389 1.523 . S
C1391 C1375 1.429 . S
C1391 C1387 1.429 . S
C1391 C1392 1.523 . S
C1392 C1376 1.368 . S
C1392 C1388 1.368 . S
C1392 C1391 1.523 . S
H1393 C1368 0.950 . S
H1394 C1370 0.950 . S
H1395 C1371 0.949 . S
H1396 C1373 0.950 . S
H1397 C1375 0.950 . S
C1398 C1399 1.349 . S
C1398 C1400 1.327 . S
C1398 H1423 0.950 . S
C1399 C1398 1.349 . S
C1399 C1415 1.349 . S
C1400 C1398 1.327 . S
C1400 C1419 1.429 . S
C1400 H1424 0.950 . S
C1401 C1418 1.574 . S
C1401 C1420 1.368 . S
C1401 H1425 0.949 . S
H1402 C1406 0.949 . S
C1403 C1404 1.349 . S
C1403 C1405 1.327 . S
C1403 H1426 0.950 . S
C1404 C1403 1.349 . S
C1404 C1416 1.349 . S
C1405 C1403 1.327 . S
C1405 C1421 1.429 . S
C1405 H1427 0.950 . S
C1406 H1402 0.949 . S
C1406 C1414 1.574 . S
C1406 C1422 1.368 . S
H1407 C1415 0.950 . S
H1408 C1413 0.950 . S
H1409 C1414 0.949 . S
H1410 C1416 0.950 . S
H1411 C1417 0.950 . S
H1412 C1418 0.949 . S
C1413 H1408 0.950 . S
C1413 C1415 1.327 . S
C1413 C1419 1.429 . S
C1414 C1406 1.574 . S
C1414 H1409 0.949 . S
C1414 C1420 1.368 . S
C1415 C1399 1.349 . S
C1415 H1407 0.950 . S
C1415 C1413 1.327 . S
C1416 C1404 1.349 . S
C1416 H1410 0.950 . S
C1416 C1417 1.327 . S
C1417 H1411 0.950 . S
C1417 C1416 1.327 . S
C1417 C1421 1.429 . S
C1418 C1401 1.574 . S
C1418 H1412 0.949 . S
C1418 C1422 1.368 . S
C1419 C1400 1.429 . S
C1419 C1413 1.429 . S
C1419 C1420 1.523 . S
C1420 C1401 1.368 . S
C1420 C1414 1.368 . S
C1420 C1419 1.523 . S
C1421 C1405 1.429 . S
C1421 C1417 1.429 . S
C1421 C1422 1.523 . S
C1422 C1406 1.368 . S
C1422 C1418 1.368 . S
C1422 C1421 1.523 . S
H1423 C1398 0.950 . S
H1424 C1400 0.950 . S
H1425 C1401 0.949 . S
H1426 C1403 0.950 . S
H1427 C1405 0.950 . S
C1428 C1429 1.349 . S
C1428 C1430 1.327 . S
C1428 H1453 0.950 . S
C1429 C1428 1.349 . S
C1429 C1445 1.349 . S
C1430 C1428 1.327 . S
C1430 C1449 1.429 . S
C1430 H1454 0.950 . S
C1431 C1448 1.574 . S
C1431 C1450 1.368 . S
C1431 H1455 0.949 . S
H1432 C1436 0.949 . S
C1433 C1434 1.349 . S
C1433 C1435 1.327 . S
C1433 H1456 0.950 . S
C1434 C1433 1.349 . S
C1434 C1446 1.349 . S
C1435 C1433 1.327 . S
C1435 C1451 1.429 . S
C1435 H1457 0.950 . S
C1436 H1432 0.949 . S
C1436 C1444 1.574 . S
C1436 C1452 1.368 . S
H1437 C1445 0.950 . S
H1438 C1443 0.950 . S
H1439 C1444 0.949 . S
H1440 C1446 0.950 . S
H1441 C1447 0.950 . S
H1442 C1448 0.949 . S
C1443 H1438 0.950 . S
C1443 C1445 1.327 . S
C1443 C1449 1.429 . S
C1444 C1436 1.574 . S
C1444 H1439 0.949 . S
C1444 C1450 1.368 . S
C1445 C1429 1.349 . S
C1445 H1437 0.950 . S
C1445 C1443 1.327 . S
C1446 C1434 1.349 . S
C1446 H1440 0.950 . S
C1446 C1447 1.327 . S
C1447 H1441 0.950 . S
C1447 C1446 1.327 . S
C1447 C1451 1.429 . S
C1448 C1431 1.574 . S
C1448 H1442 0.949 . S
C1448 C1452 1.368 . S
C1449 C1430 1.429 . S
C1449 C1443 1.429 . S
C1449 C1450 1.523 . S
C1450 C1431 1.368 . S
C1450 C1444 1.368 . S
C1450 C1449 1.523 . S
C1451 C1435 1.429 . S
C1451 C1447 1.429 . S
C1451 C1452 1.523 . S
C1452 C1436 1.368 . S
C1452 C1448 1.368 . S
C1452 C1451 1.523 . S
H1453 C1428 0.950 . S
H1454 C1430 0.950 . S
H1455 C1431 0.949 . S
H1456 C1433 0.950 . S
H1457 C1435 0.950 . S
C1458 C1459 1.349 . S
C1458 C1460 1.327 . S
C1458 H1483 0.950 . S
C1459 C1458 1.349 . S
C1459 C1475 1.349 . S
C1460 C1458 1.327 . S
C1460 C1479 1.429 . S
C1460 H1484 0.950 . S
C1461 C1478 1.574 . S
C1461 C1480 1.368 . S
C1461 H1485 0.949 . S
H1462 C1466 0.949 . S
C1463 C1464 1.349 . S
C1463 C1465 1.327 . S
C1463 H1486 0.950 . S
C1464 C1463 1.349 . S
C1464 C1476 1.349 . S
C1465 C1463 1.327 . S
C1465 C1481 1.429 . S
C1465 H1487 0.950 . S
C1466 H1462 0.949 . S
C1466 C1474 1.574 . S
C1466 C1482 1.368 . S
H1467 C1475 0.950 . S
H1468 C1473 0.950 . S
H1469 C1474 0.949 . S
H1470 C1476 0.950 . S
H1471 C1477 0.950 . S
H1472 C1478 0.949 . S
C1473 H1468 0.950 . S
C1473 C1475 1.327 . S
C1473 C1479 1.429 . S
C1474 C1466 1.574 . S
C1474 H1469 0.949 . S
C1474 C1480 1.368 . S
C1475 C1459 1.349 . S
C1475 H1467 0.950 . S
C1475 C1473 1.327 . S
C1476 C1464 1.349 . S
C1476 H1470 0.950 . S
C1476 C1477 1.327 . S
C1477 H1471 0.950 . S
C1477 C1476 1.327 . S
C1477 C1481 1.429 . S
C1478 C1461 1.574 . S
C1478 H1472 0.949 . S
C1478 C1482 1.368 . S
C1479 C1460 1.429 . S
C1479 C1473 1.429 . S
C1479 C1480 1.523 . S
C1480 C1461 1.368 . S
C1480 C1474 1.368 . S
C1480 C1479 1.523 . S
C1481 C1465 1.429 . S
C1481 C1477 1.429 . S
C1481 C1482 1.523 . S
C1482 C1466 1.368 . S
C1482 C1478 1.368 . S
C1482 C1481 1.523 . S
H1483 C1458 0.950 . S
H1484 C1460 0.950 . S
H1485 C1461 0.949 . S
H1486 C1463 0.950 . S
H1487 C1465 0.950 . S
C1488 C1489 1.349 . S
C1488 C1490 1.327 . S
C1488 H1513 0.950 . S
C1489 C1488 1.349 . S
C1489 C1505 1.349 . S
C1490 C1488 1.327 . S
C1490 C1509 1.429 . S
C1490 H1514 0.950 . S
C1491 C1508 1.574 . S
C1491 C1510 1.368 . S
C1491 H1515 0.949 . S
H1492 C1496 0.949 . S
C1493 C1494 1.349 . S
C1493 C1495 1.327 . S
C1493 H1516 0.950 . S
C1494 C1493 1.349 . S
C1494 C1506 1.349 . S
C1495 C1493 1.327 . S
C1495 C1511 1.429 . S
C1495 H1517 0.950 . S
C1496 H1492 0.949 . S
C1496 C1504 1.574 . S
C1496 C1512 1.368 . S
H1497 C1505 0.950 . S
H1498 C1503 0.950 . S
H1499 C1504 0.949 . S
H1500 C1506 0.950 . S
H1501 C1507 0.950 . S
H1502 C1508 0.949 . S
C1503 H1498 0.950 . S
C1503 C1505 1.327 . S
C1503 C1509 1.429 . S
C1504 C1496 1.574 . S
C1504 H1499 0.949 . S
C1504 C1510 1.368 . S
C1505 C1489 1.349 . S
C1505 H1497 0.950 . S
C1505 C1503 1.327 . S
C1506 C1494 1.349 . S
C1506 H1500 0.950 . S
C1506 C1507 1.327 . S
C1507 H1501 0.950 . S
C1507 C1506 1.327 . S
C1507 C1511 1.429 . S
C1508 C1491 1.574 . S
C1508 H1502 0.949 . S
C1508 C1512 1.368 . S
C1509 C1490 1.429 . S
C1509 C1503 1.429 . S
C1509 C1510 1.523 . S
C1510 C1491 1.368 . S
C1510 C1504 1.368 . S
C1510 C1509 1.523 . S
C1511 C1495 1.429 . S
C1511 C1507 1.429 . S
C1511 C1512 1.523 . S
C1512 C1496 1.368 . S
C1512 C1508 1.368 . S
C1512 C1511 1.523 . S
H1513 C1488 0.950 . S
H1514 C1490 0.950 . S
H1515 C1491 0.949 . S
H1516 C1493 0.950 . S
H1517 C1495 0.950 . S
C1518 C1519 1.349 . S
C1518 C1520 1.327 . S
C1518 H1543 0.950 . S
C1519 C1518 1.349 . S
C1519 C1535 1.349 . S
C1520 C1518 1.327 . S
C1520 C1539 1.429 . S
C1520 H1544 0.950 . S
C1521 C1538 1.574 . S
C1521 C1540 1.368 . S
C1521 H1545 0.949 . S
H1522 C1526 0.949 . S
C1523 C1524 1.349 . S
C1523 C1525 1.327 . S
C1523 H1546 0.950 . S
C1524 C1523 1.349 . S
C1524 C1536 1.349 . S
C1525 C1523 1.327 . S
C1525 C1541 1.429 . S
C1525 H1547 0.950 . S
C1526 H1522 0.949 . S
C1526 C1534 1.574 . S
C1526 C1542 1.368 . S
H1527 C1535 0.950 . S
H1528 C1533 0.950 . S
H1529 C1534 0.949 . S
H1530 C1536 0.950 . S
H1531 C1537 0.950 . S
H1532 C1538 0.949 . S
C1533 H1528 0.950 . S
C1533 C1535 1.327 . S
C1533 C1539 1.429 . S
C1534 C1526 1.574 . S
C1534 H1529 0.949 . S
C1534 C1540 1.368 . S
C1535 C1519 1.349 . S
C1535 H1527 0.950 . S
C1535 C1533 1.327 . S
C1536 C1524 1.349 . S
C1536 H1530 0.950 . S
C1536 C1537 1.327 . S
C1537 H1531 0.950 . S
C1537 C1536 1.327 . S
C1537 C1541 1.429 . S
C1538 C1521 1.574 . S
C1538 H1532 0.949 . S
C1538 C1542 1.368 . S
C1539 C1520 1.429 . S
C1539 C1533 1.429 . S
C1539 C1540 1.523 . S
C1540 C1521 1.368 . S
C1540 C1534 1.368 . S
C1540 C1539 1.523 . S
C1541 C1525 1.429 . S
C1541 C1537 1.429 . S
C1541 C1542 1.523 . S
C1542 C1526 1.368 . S
C1542 C1538 1.368 . S
C1542 C1541 1.523 . S
H1543 C1518 0.950 . S
H1544 C1520 0.950 . S
H1545 C1521 0.949 . S
H1546 C1523 0.950 . S
H1547 C1525 0.950 . S
C1548 C1549 1.349 . S
C1548 C1550 1.327 . S
C1548 H1573 0.950 . S
C1549 C1548 1.349 . S
C1549 C1565 1.349 . S
C1550 C1548 1.327 . S
C1550 C1569 1.429 . S
C1550 H1574 0.950 . S
C1551 C1568 1.574 . S
C1551 C1570 1.368 . S
C1551 H1575 0.949 . S
H1552 C1556 0.949 . S
C1553 C1554 1.349 . S
C1553 C1555 1.327 . S
C1553 H1576 0.950 . S
C1554 C1553 1.349 . S
C1554 C1566 1.349 . S
C1555 C1553 1.327 . S
C1555 C1571 1.429 . S
C1555 H1577 0.950 . S
C1556 H1552 0.949 . S
C1556 C1564 1.574 . S
C1556 C1572 1.368 . S
H1557 C1565 0.950 . S
H1558 C1563 0.950 . S
H1559 C1564 0.949 . S
H1560 C1566 0.950 . S
H1561 C1567 0.950 . S
H1562 C1568 0.949 . S
C1563 H1558 0.950 . S
C1563 C1565 1.327 . S
C1563 C1569 1.429 . S
C1564 C1556 1.574 . S
C1564 H1559 0.949 . S
C1564 C1570 1.368 . S
C1565 C1549 1.349 . S
C1565 H1557 0.950 . S
C1565 C1563 1.327 . S
C1566 C1554 1.349 . S
C1566 H1560 0.950 . S
C1566 C1567 1.327 . S
C1567 H1561 0.950 . S
C1567 C1566 1.327 . S
C1567 C1571 1.429 . S
C1568 C1551 1.574 . S
C1568 H1562 0.949 . S
C1568 C1572 1.368 . S
C1569 C1550 1.429 . S
C1569 C1563 1.429 . S
C1569 C1570 1.523 . S
C1570 C1551 1.368 . S
C1570 C1564 1.368 . S
C1570 C1569 1.523 . S
C1571 C1555 1.429 . S
C1571 C1567 1.429 . S
C1571 C1572 1.523 . S
C1572 C1556 1.368 . S
C1572 C1568 1.368 . S
C1572 C1571 1.523 . S
H1573 C1548 0.950 . S
H1574 C1550 0.950 . S
H1575 C1551 0.949 . S
H1576 C1553 0.950 . S
H1577 C1555 0.950 . S
C1578 C1579 1.349 . S
C1578 C1580 1.327 . S
C1578 H1603 0.950 . S
C1579 C1578 1.349 . S
C1579 C1595 1.349 . S
C1580 C1578 1.327 . S
C1580 C1599 1.429 . S
C1580 H1604 0.950 . S
C1581 C1598 1.574 . S
C1581 C1600 1.368 . S
C1581 H1605 0.949 . S
H1582 C1586 0.949 . S
C1583 C1584 1.349 . S
C1583 C1585 1.327 . S
C1583 H1606 0.950 . S
C1584 C1583 1.349 . S
C1584 C1596 1.349 . S
C1585 C1583 1.327 . S
C1585 C1601 1.429 . S
C1585 H1607 0.950 . S
C1586 H1582 0.949 . S
C1586 C1594 1.574 . S
C1586 C1602 1.368 . S
H1587 C1595 0.950 . S
H1588 C1593 0.950 . S
H1589 C1594 0.949 . S
H1590 C1596 0.950 . S
H1591 C1597 0.950 . S
H1592 C1598 0.949 . S
C1593 H1588 0.950 . S
C1593 C1595 1.327 . S
C1593 C1599 1.429 . S
C1594 C1586 1.574 . S
C1594 H1589 0.949 . S
C1594 C1600 1.368 . S
C1595 C1579 1.349 . S
C1595 H1587 0.950 . S
C1595 C1593 1.327 . S
C1596 C1584 1.349 . S
C1596 H1590 0.950 . S
C1596 C1597 1.327 . S
C1597 H1591 0.950 . S
C1597 C1596 1.327 . S
C1597 C1601 1.429 . S
C1598 C1581 1.574 . S
C1598 H1592 0.949 . S
C1598 C1602 1.368 . S
C1599 C1580 1.429 . S
C1599 C1593 1.429 . S
C1599 C1600 1.523 . S
C1600 C1581 1.368 . S
C1600 C1594 1.368 . S
C1600 C1599 1.523 . S
C1601 C1585 1.429 . S
C1601 C1597 1.429 . S
C1601 C1602 1.523 . S
C1602 C1586 1.368 . S
C1602 C1598 1.368 . S
C1602 C1601 1.523 . S
H1603 C1578 0.950 . S
H1604 C1580 0.950 . S
H1605 C1581 0.949 . S
H1606 C1583 0.950 . S
H1607 C1585 0.950 . S
C1608 C1609 1.349 . S
C1608 C1610 1.327 . S
C1608 H1633 0.950 . S
C1609 C1608 1.349 . S
C1609 C1625 1.349 . S
C1610 C1608 1.327 . S
C1610 C1629 1.429 . S
C1610 H1634 0.950 . S
C1611 C1628 1.574 . S
C1611 C1630 1.368 . S
C1611 H1635 0.949 . S
H1612 C1616 0.949 . S
C1613 C1614 1.349 . S
C1613 C1615 1.327 . S
C1613 H1636 0.950 . S
C1614 C1613 1.349 . S
C1614 C1626 1.349 . S
C1615 C1613 1.327 . S
C1615 C1631 1.429 . S
C1615 H1637 0.950 . S
C1616 H1612 0.949 . S
C1616 C1624 1.574 . S
C1616 C1632 1.368 . S
H1617 C1625 0.950 . S
H1618 C1623 0.950 . S
H1619 C1624 0.949 . S
H1620 C1626 0.950 . S
H1621 C1627 0.950 . S
H1622 C1628 0.949 . S
C1623 H1618 0.950 . S
C1623 C1625 1.327 . S
C1623 C1629 1.429 . S
C1624 C1616 1.574 . S
C1624 H1619 0.949 . S
C1624 C1630 1.368 . S
C1625 C1609 1.349 . S
C1625 H1617 0.950 . S
C1625 C1623 1.327 . S
C1626 C1614 1.349 . S
C1626 H1620 0.950 . S
C1626 C1627 1.327 . S
C1627 H1621 0.950 . S
C1627 C1626 1.327 . S
C1627 C1631 1.429 . S
C1628 C1611 1.574 . S
C1628 H1622 0.949 . S
C1628 C1632 1.368 . S
C1629 C1610 1.429 . S
C1629 C1623 1.429 . S
C1629 C1630 1.523 . S
C1630 C1611 1.368 . S
C1630 C1624 1.368 . S
C1630 C1629 1.523 . S
C1631 C1615 1.429 . S
C1631 C1627 1.429 . S
C1631 C1632 1.523 . S
C1632 C1616 1.368 . S
C1632 C1628 1.368 . S
C1632 C1631 1.523 . S
H1633 C1608 0.950 . S
H1634 C1610 0.950 . S
H1635 C1611 0.949 . S
H1636 C1613 0.950 . S
H1637 C1615 0.950 . S
C1638 C1639 1.349 . S
C1638 C1640 1.327 . S
C1638 H1663 0.950 . S
C1639 C1638 1.349 . S
C1639 C1655 1.349 . S
C1640 C1638 1.327 . S
C1640 C1659 1.429 . S
C1640 H1664 0.950 . S
C1641 C1658 1.574 . S
C1641 C1660 1.368 . S
C1641 H1665 0.949 . S
H1642 C1646 0.949 . S
C1643 C1644 1.349 . S
C1643 C1645 1.327 . S
C1643 H1666 0.950 . S
C1644 C1643 1.349 . S
C1644 C1656 1.349 . S
C1645 C1643 1.327 . S
C1645 C1661 1.429 . S
C1645 H1667 0.950 . S
C1646 H1642 0.949 . S
C1646 C1654 1.574 . S
C1646 C1662 1.368 . S
H1647 C1655 0.950 . S
H1648 C1653 0.950 . S
H1649 C1654 0.949 . S
H1650 C1656 0.950 . S
H1651 C1657 0.950 . S
H1652 C1658 0.949 . S
C1653 H1648 0.950 . S
C1653 C1655 1.327 . S
C1653 C1659 1.429 . S
C1654 C1646 1.574 . S
C1654 H1649 0.949 . S
C1654 C1660 1.368 . S
C1655 C1639 1.349 . S
C1655 H1647 0.950 . S
C1655 C1653 1.327 . S
C1656 C1644 1.349 . S
C1656 H1650 0.950 . S
C1656 C1657 1.327 . S
C1657 H1651 0.950 . S
C1657 C1656 1.327 . S
C1657 C1661 1.429 . S
C1658 C1641 1.574 . S
C1658 H1652 0.949 . S
C1658 C1662 1.368 . S
C1659 C1640 1.429 . S
C1659 C1653 1.429 . S
C1659 C1660 1.523 . S
C1660 C1641 1.368 . S
C1660 C1654 1.368 . S
C1660 C1659 1.523 . S
C1661 C1645 1.429 . S
C1661 C1657 1.429 . S
C1661 C1662 1.523 . S
C1662 C1646 1.368 . S
C1662 C1658 1.368 . S
C1662 C1661 1.523 . S
H1663 C1638 0.950 . S
H1664 C1640 0.950 . S
H1665 C1641 0.949 . S
H1666 C1643 0.950 . S
H1667 C1645 0.950 . S
C1668 C1669 1.349 . S
C1668 C1670 1.327 . S
C1668 H1693 0.950 . S
C1669 C1668 1.349 . S
C1669 C1685 1.349 . S
C1670 C1668 1.327 . S
C1670 C1689 1.429 . S
C1670 H1694 0.950 . S
C1671 C1688 1.574 . S
C1671 C1690 1.368 . S
C1671 H1695 0.949 . S
H1672 C1676 0.949 . S
C1673 C1674 1.349 . S
C1673 C1675 1.327 . S
C1673 H1696 0.950 . S
C1674 C1673 1.349 . S
C1674 C1686 1.349 . S
C1675 C1673 1.327 . S
C1675 C1691 1.429 . S
C1675 H1697 0.950 . S
C1676 H1672 0.949 . S
C1676 C1684 1.574 . S
C1676 C1692 1.368 . S
H1677 C1685 0.950 . S
H1678 C1683 0.950 . S
H1679 C1684 0.949 . S
H1680 C1686 0.950 . S
H1681 C1687 0.950 . S
H1682 C1688 0.949 . S
C1683 H1678 0.950 . S
C1683 C1685 1.327 . S
C1683 C1689 1.429 . S
C1684 C1676 1.574 . S
C1684 H1679 0.949 . S
C1684 C1690 1.368 . S
C1685 C1669 1.349 . S
C1685 H1677 0.950 . S
C1685 C1683 1.327 . S
C1686 C1674 1.349 . S
C1686 H1680 0.950 . S
C1686 C1687 1.327 . S
C1687 H1681 0.950 . S
C1687 C1686 1.327 . S
C1687 C1691 1.429 . S
C1688 C1671 1.574 . S
C1688 H1682 0.949 . S
C1688 C1692 1.368 . S
C1689 C1670 1.429 . S
C1689 C1683 1.429 . S
C1689 C1690 1.523 . S
C1690 C1671 1.368 . S
C1690 C1684 1.368 . S
C1690 C1689 1.523 . S
C1691 C1675 1.429 . S
C1691 C1687 1.429 . S
C1691 C1692 1.523 . S
C1692 C1676 1.368 . S
C1692 C1688 1.368 . S
C1692 C1691 1.523 . S
H1693 C1668 0.950 . S
H1694 C1670 0.950 . S
H1695 C1671 0.949 . S
H1696 C1673 0.950 . S
H1697 C1675 0.950 . S
C1698 C1699 1.349 . S
C1698 C1700 1.327 . S
C1698 H1723 0.950 . S
C1699 C1698 1.349 . S
C1699 C1715 1.349 . S
C1700 C1698 1.327 . S
C1700 C1719 1.429 . S
C1700 H1724 0.950 . S
C1701 C1718 1.574 . S
C1701 C1720 1.368 . S
C1701 H1725 0.949 . S
H1702 C1706 0.949 . S
C1703 C1704 1.349 . S
C1703 C1705 1.327 . S
C1703 H1726 0.950 . S
C1704 C1703 1.349 . S
C1704 C1716 1.349 . S
C1705 C1703 1.327 . S
C1705 C1721 1.429 . S
C1705 H1727 0.950 . S
C1706 H1702 0.949 . S
C1706 C1714 1.574 . S
C1706 C1722 1.368 . S
H1707 C1715 0.950 . S
H1708 C1713 0.950 . S
H1709 C1714 0.949 . S
H1710 C1716 0.950 . S
H1711 C1717 0.950 . S
H1712 C1718 0.949 . S
C1713 H1708 0.950 . S
C1713 C1715 1.327 . S
C1713 C1719 1.429 . S
C1714 C1706 1.574 . S
C1714 H1709 0.949 . S
C1714 C1720 1.368 . S
C1715 C1699 1.349 . S
C1715 H1707 0.950 . S
C1715 C1713 1.327 . S
C1716 C1704 1.349 . S
C1716 H1710 0.950 . S
C1716 C1717 1.327 . S
C1717 H1711 0.950 . S
C1717 C1716 1.327 . S
C1717 C1721 1.429 . S
C1718 C1701 1.574 . S
C1718 H1712 0.949 . S
C1718 C1722 1.368 . S
C1719 C1700 1.429 . S
C1719 C1713 1.429 . S
C1719 C1720 1.523 . S
C1720 C1701 1.368 . S
C1720 C1714 1.368 . S
C1720 C1719 1.523 . S
C1721 C1705 1.429 . S
C1721 C1717 1.429 . S
C1721 C1722 1.523 . S
C1722 C1706 1.368 . S
C1722 C1718 1.368 . S
C1722 C1721 1.523 . S
H1723 C1698 0.950 . S
H1724 C1700 0.950 . S
H1725 C1701 0.949 . S
H1726 C1703 0.950 . S
H1727 C1705 0.950 . S
C1728 C1729 1.349 . S
C1728 C1730 1.327 . S
C1728 H1753 0.950 . S
C1729 C1728 1.349 . S
C1729 C1745 1.349 . S
C1730 C1728 1.327 . S
C1730 C1749 1.429 . S
C1730 H1754 0.950 . S
C1731 C1748 1.574 . S
C1731 C1750 1.368 . S
C1731 H1755 0.949 . S
H1732 C1736 0.949 . S
C1733 C1734 1.349 . S
C1733 C1735 1.327 . S
C1733 H1756 0.950 . S
C1734 C1733 1.349 . S
C1734 C1746 1.349 . S
C1735 C1733 1.327 . S
C1735 C1751 1.429 . S
C1735 H1757 0.950 . S
C1736 H1732 0.949 . S
C1736 C1744 1.574 . S
C1736 C1752 1.368 . S
H1737 C1745 0.950 . S
H1738 C1743 0.950 . S
H1739 C1744 0.949 . S
H1740 C1746 0.950 . S
H1741 C1747 0.950 . S
H1742 C1748 0.949 . S
C1743 H1738 0.950 . S
C1743 C1745 1.327 . S
C1743 C1749 1.429 . S
C1744 C1736 1.574 . S
C1744 H1739 0.949 . S
C1744 C1750 1.368 . S
C1745 C1729 1.349 . S
C1745 H1737 0.950 . S
C1745 C1743 1.327 . S
C1746 C1734 1.349 . S
C1746 H1740 0.950 . S
C1746 C1747 1.327 . S
C1747 H1741 0.950 . S
C1747 C1746 1.327 . S
C1747 C1751 1.429 . S
C1748 C1731 1.574 . S
C1748 H1742 0.949 . S
C1748 C1752 1.368 . S
C1749 C1730 1.429 . S
C1749 C1743 1.429 . S
C1749 C1750 1.523 . S
C1750 C1731 1.368 . S
C1750 C1744 1.368 . S
C1750 C1749 1.523 . S
C1751 C1735 1.429 . S
C1751 C1747 1.429 . S
C1751 C1752 1.523 . S
C1752 C1736 1.368 . S
C1752 C1748 1.368 . S
C1752 C1751 1.523 . S
H1753 C1728 0.950 . S
H1754 C1730 0.950 . S
H1755 C1731 0.949 . S
H1756 C1733 0.950 . S
H1757 C1735 0.950 . S
C1758 C1759 1.349 . S
C1758 C1760 1.327 . S
C1758 H1783 0.950 . S
C1759 C1758 1.349 . S
C1759 C1775 1.349 . S
C1760 C1758 1.327 . S
C1760 C1779 1.429 . S
C1760 H1784 0.950 . S
C1761 C1778 1.574 . S
C1761 C1780 1.368 . S
C1761 H1785 0.949 . S
H1762 C1766 0.949 . S
C1763 C1764 1.349 . S
C1763 C1765 1.327 . S
C1763 H1786 0.950 . S
C1764 C1763 1.349 . S
C1764 C1776 1.349 . S
C1765 C1763 1.327 . S
C1765 C1781 1.429 . S
C1765 H1787 0.950 . S
C1766 H1762 0.949 . S
C1766 C1774 1.574 . S
C1766 C1782 1.368 . S
H1767 C1775 0.950 . S
H1768 C1773 0.950 . S
H1769 C1774 0.949 . S
H1770 C1776 0.950 . S
H1771 C1777 0.950 . S
H1772 C1778 0.949 . S
C1773 H1768 0.950 . S
C1773 C1775 1.327 . S
C1773 C1779 1.429 . S
C1774 C1766 1.574 . S
C1774 H1769 0.949 . S
C1774 C1780 1.368 . S
C1775 C1759 1.349 . S
C1775 H1767 0.950 . S
C1775 C1773 1.327 . S
C1776 C1764 1.349 . S
C1776 H1770 0.950 . S
C1776 C1777 1.327 . S
C1777 H1771 0.950 . S
C1777 C1776 1.327 . S
C1777 C1781 1.429 . S
C1778 C1761 1.574 . S
C1778 H1772 0.949 . S
C1778 C1782 1.368 . S
C1779 C1760 1.429 . S
C1779 C1773 1.429 . S
C1779 C1780 1.523 . S
C1780 C1761 1.368 . S
C1780 C1774 1.368 . S
C1780 C1779 1.523 . S
C1781 C1765 1.429 . S
C1781 C1777 1.429 . S
C1781 C1782 1.523 . S
C1782 C1766 1.368 . S
C1782 C1778 1.368 . S
C1782 C1781 1.523 . S
H1783 C1758 0.950 . S
H1784 C1760 0.950 . S
H1785 C1761 0.949 . S
H1786 C1763 0.950 . S
H1787 C1765 0.950 . S
C1788 C1789 1.349 . S
C1788 C1790 1.327 . S
C1788 H1813 0.950 . S
C1789 C1788 1.349 . S
C1789 C1805 1.349 . S
C1790 C1788 1.327 . S
C1790 C1809 1.429 . S
C1790 H1814 0.950 . S
C1791 C1808 1.574 . S
C1791 C1810 1.368 . S
C1791 H1815 0.949 . S
H1792 C1796 0.949 . S
C1793 C1794 1.349 . S
C1793 C1795 1.327 . S
C1793 H1816 0.950 . S
C1794 C1793 1.349 . S
C1794 C1806 1.349 . S
C1795 C1793 1.327 . S
C1795 C1811 1.429 . S
C1795 H1817 0.950 . S
C1796 H1792 0.949 . S
C1796 C1804 1.574 . S
C1796 C1812 1.368 . S
H1797 C1805 0.950 . S
H1798 C1803 0.950 . S
H1799 C1804 0.949 . S
H1800 C1806 0.950 . S
H1801 C1807 0.950 . S
H1802 C1808 0.949 . S
C1803 H1798 0.950 . S
C1803 C1805 1.327 . S
C1803 C1809 1.429 . S
C1804 C1796 1.574 . S
C1804 H1799 0.949 . S
C1804 C1810 1.368 . S
C1805 C1789 1.349 . S
C1805 H1797 0.950 . S
C1805 C1803 1.327 . S
C1806 C1794 1.349 . S
C1806 H1800 0.950 . S
C1806 C1807 1.327 . S
C1807 H1801 0.950 . S
C1807 C1806 1.327 . S
C1807 C1811 1.429 . S
C1808 C1791 1.574 . S
C1808 H1802 0.949 . S
C1808 C1812 1.368 . S
C1809 C1790 1.429 . S
C1809 C1803 1.429 . S
C1809 C1810 1.523 . S
C1810 C1791 1.368 . S
C1810 C1804 1.368 . S
C1810 C1809 1.523 . S
C1811 C1795 1.429 . S
C1811 C1807 1.429 . S
C1811 C1812 1.523 . S
C1812 C1796 1.368 . S
C1812 C1808 1.368 . S
C1812 C1811 1.523 . S
H1813 C1788 0.950 . S
H1814 C1790 0.950 . S
H1815 C1791 0.949 . S
H1816 C1793 0.950 . S
H1817 C1795 0.950 . S
C1818 C1819 1.349 . S
C1818 C1820 1.327 . S
C1818 H1843 0.950 . S
C1819 C1818 1.349 . S
C1819 C1835 1.349 . S
C1820 C1818 1.327 . S
C1820 C1839 1.429 . S
C1820 H1844 0.950 . S
C1821 C1838 1.574 . S
C1821 C1840 1.368 . S
C1821 H1845 0.949 . S
H1822 C1826 0.949 . S
C1823 C1824 1.349 . S
C1823 C1825 1.327 . S
C1823 H1846 0.950 . S
C1824 C1823 1.349 . S
C1824 C1836 1.349 . S
C1825 C1823 1.327 . S
C1825 C1841 1.429 . S
C1825 H1847 0.950 . S
C1826 H1822 0.949 . S
C1826 C1834 1.574 . S
C1826 C1842 1.368 . S
H1827 C1835 0.950 . S
H1828 C1833 0.950 . S
H1829 C1834 0.949 . S
H1830 C1836 0.950 . S
H1831 C1837 0.950 . S
H1832 C1838 0.949 . S
C1833 H1828 0.950 . S
C1833 C1835 1.327 . S
C1833 C1839 1.429 . S
C1834 C1826 1.574 . S
C1834 H1829 0.949 . S
C1834 C1840 1.368 . S
C1835 C1819 1.349 . S
C1835 H1827 0.950 . S
C1835 C1833 1.327 . S
C1836 C1824 1.349 . S
C1836 H1830 0.950 . S
C1836 C1837 1.327 . S
C1837 H1831 0.950 . S
C1837 C1836 1.327 . S
C1837 C1841 1.429 . S
C1838 C1821 1.574 . S
C1838 H1832 0.949 . S
C1838 C1842 1.368 . S
C1839 C1820 1.429 . S
C1839 C1833 1.429 . S
C1839 C1840 1.523 . S
C1840 C1821 1.368 . S
C1840 C1834 1.368 . S
C1840 C1839 1.523 . S
C1841 C1825 1.429 . S
C1841 C1837 1.429 . S
C1841 C1842 1.523 . S
C1842 C1826 1.368 . S
C1842 C1838 1.368 . S
C1842 C1841 1.523 . S
H1843 C1818 0.950 . S
H1844 C1820 0.950 . S
H1845 C1821 0.949 . S
H1846 C1823 0.950 . S
H1847 C1825 0.950 . S
C1848 C1849 1.349 . S
C1848 C1850 1.327 . S
C1848 H1873 0.950 . S
C1849 C1848 1.349 . S
C1849 C1865 1.349 . S
C1850 C1848 1.327 . S
C1850 C1869 1.429 . S
C1850 H1874 0.950 . S
C1851 C1868 1.574 . S
C1851 C1870 1.368 . S
C1851 H1875 0.949 . S
H1852 C1856 0.949 . S
C1853 C1854 1.349 . S
C1853 C1855 1.327 . S
C1853 H1876 0.950 . S
C1854 C1853 1.349 . S
C1854 C1866 1.349 . S
C1855 C1853 1.327 . S
C1855 C1871 1.429 . S
C1855 H1877 0.950 . S
C1856 H1852 0.949 . S
C1856 C1864 1.574 . S
C1856 C1872 1.368 . S
H1857 C1865 0.950 . S
H1858 C1863 0.950 . S
H1859 C1864 0.949 . S
H1860 C1866 0.950 . S
H1861 C1867 0.950 . S
H1862 C1868 0.949 . S
C1863 H1858 0.950 . S
C1863 C1865 1.327 . S
C1863 C1869 1.429 . S
C1864 C1856 1.574 . S
C1864 H1859 0.949 . S
C1864 C1870 1.368 . S
C1865 C1849 1.349 . S
C1865 H1857 0.950 . S
C1865 C1863 1.327 . S
C1866 C1854 1.349 . S
C1866 H1860 0.950 . S
C1866 C1867 1.327 . S
C1867 H1861 0.950 . S
C1867 C1866 1.327 . S
C1867 C1871 1.429 . S
C1868 C1851 1.574 . S
C1868 H1862 0.949 . S
C1868 C1872 1.368 . S
C1869 C1850 1.429 . S
C1869 C1863 1.429 . S
C1869 C1870 1.523 . S
C1870 C1851 1.368 . S
C1870 C1864 1.368 . S
C1870 C1869 1.523 . S
C1871 C1855 1.429 . S
C1871 C1867 1.429 . S
C1871 C1872 1.523 . S
C1872 C1856 1.368 . S
C1872 C1868 1.368 . S
C1872 C1871 1.523 . S
H1873 C1848 0.950 . S
H1874 C1850 0.950 . S
H1875 C1851 0.949 . S
H1876 C1853 0.950 . S
H1877 C1855 0.950 . S
C1878 C1879 1.349 . S
C1878 C1880 1.327 . S
C1878 H1903 0.950 . S
C1879 C1878 1.349 . S
C1879 C1895 1.349 . S
C1880 C1878 1.327 . S
C1880 C1899 1.429 . S
C1880 H1904 0.950 . S
C1881 C1898 1.574 . S
C1881 C1900 1.368 . S
C1881 H1905 0.949 . S
H1882 C1886 0.949 . S
C1883 C1884 1.349 . S
C1883 C1885 1.327 . S
C1883 H1906 0.950 . S
C1884 C1883 1.349 . S
C1884 C1896 1.349 . S
C1885 C1883 1.327 . S
C1885 C1901 1.429 . S
C1885 H1907 0.950 . S
C1886 H1882 0.949 . S
C1886 C1894 1.574 . S
C1886 C1902 1.368 . S
H1887 C1895 0.950 . S
H1888 C1893 0.950 . S
H1889 C1894 0.949 . S
H1890 C1896 0.950 . S
H1891 C1897 0.950 . S
H1892 C1898 0.949 . S
C1893 H1888 0.950 . S
C1893 C1895 1.327 . S
C1893 C1899 1.429 . S
C1894 C1886 1.574 . S
C1894 H1889 0.949 . S
C1894 C1900 1.368 . S
C1895 C1879 1.349 . S
C1895 H1887 0.950 . S
C1895 C1893 1.327 . S
C1896 C1884 1.349 . S
C1896 H1890 0.950 . S
C1896 C1897 1.327 . S
C1897 H1891 0.950 . S
C1897 C1896 1.327 . S
C1897 C1901 1.429 . S
C1898 C1881 1.574 . S
C1898 H1892 0.949 . S
C1898 C1902 1.368 . S
C1899 C1880 1.429 . S
C1899 C1893 1.429 . S
C1899 C1900 1.523 . S
C1900 C1881 1.368 . S
C1900 C1894 1.368 . S
C1900 C1899 1.523 . S
C1901 C1885 1.429 . S
C1901 C1897 1.429 . S
C1901 C1902 1.523 . S
C1902 C1886 1.368 . S
C1902 C1898 1.368 . S
C1902 C1901 1.523 . S
H1903 C1878 0.950 . S
H1904 C1880 0.950 . S
H1905 C1881 0.949 . S
H1906 C1883 0.950 . S
H1907 C1885 0.950 . S
C1908 C1909 1.349 . S
C1908 C1910 1.327 . S
C1908 H1933 0.950 . S
C1909 C1908 1.349 . S
C1909 C1925 1.349 . S
C1910 C1908 1.327 . S
C1910 C1929 1.429 . S
C1910 H1934 0.950 . S
C1911 C1928 1.574 1_455 S
C1911 C1930 1.368 . S
C1911 H1935 0.949 . S
H1912 C1916 0.949 . S
C1913 C1914 1.349 . S
C1913 C1915 1.327 . S
C1913 H1936 0.950 . S
C1914 C1913 1.349 . S
C1914 C1926 1.349 . S
C1915 C1913 1.327 . S
C1915 C1931 1.429 . S
C1915 H1937 0.950 . S
C1916 H1912 0.949 . S
C1916 C1924 1.574 1_655 S
C1916 C1932 1.368 . S
H1917 C1925 0.950 . S
H1918 C1923 0.950 . S
H1919 C1924 0.949 . S
H1920 C1926 0.950 . S
H1921 C1927 0.950 . S
H1922 C1928 0.949 . S
C1923 H1918 0.950 . S
C1923 C1925 1.327 . S
C1923 C1929 1.429 . S
C1924 C1916 1.574 1_455 S
C1924 H1919 0.949 . S
C1924 C1930 1.368 . S
C1925 C1909 1.349 . S
C1925 H1917 0.950 . S
C1925 C1923 1.327 . S
C1926 C1914 1.349 . S
C1926 H1920 0.950 . S
C1926 C1927 1.327 . S
C1927 H1921 0.950 . S
C1927 C1926 1.327 . S
C1927 C1931 1.429 . S
C1928 C1911 1.574 1_655 S
C1928 H1922 0.949 . S
C1928 C1932 1.368 . S
C1929 C1910 1.429 . S
C1929 C1923 1.429 . S
C1929 C1930 1.523 . S
C1930 C1911 1.368 . S
C1930 C1924 1.368 . S
C1930 C1929 1.523 . S
C1931 C1915 1.429 . S
C1931 C1927 1.429 . S
C1931 C1932 1.523 . S
C1932 C1916 1.368 . S
C1932 C1928 1.368 . S
C1932 C1931 1.523 . S
H1933 C1908 0.950 . S
H1934 C1910 0.950 . S
H1935 C1911 0.949 . S
H1936 C1913 0.950 . S
H1937 C1915 0.950 . S
C1938 C1939 1.349 . S
C1938 C1940 1.327 . S
C1938 H1963 0.950 . S
C1939 C1938 1.349 . S
C1939 C1955 1.349 . S
C1940 C1938 1.327 . S
C1940 C1959 1.429 . S
C1940 H1964 0.950 . S
C1941 C1958 1.574 . S
C1941 C1960 1.368 . S
C1941 H1965 0.949 . S
H1942 C1946 0.949 . S
C1943 C1944 1.349 . S
C1943 C1945 1.327 . S
C1943 H1966 0.950 . S
C1944 C1943 1.349 . S
C1944 C1956 1.349 . S
C1945 C1943 1.327 . S
C1945 C1961 1.429 . S
C1945 H1967 0.950 . S
C1946 H1942 0.949 . S
C1946 C1954 1.574 . S
C1946 C1962 1.368 . S
H1947 C1955 0.950 . S
H1948 C1953 0.950 . S
H1949 C1954 0.949 . S
H1950 C1956 0.950 . S
H1951 C1957 0.950 . S
H1952 C1958 0.949 . S
C1953 H1948 0.950 . S
C1953 C1955 1.327 . S
C1953 C1959 1.429 . S
C1954 C1946 1.574 . S
C1954 H1949 0.949 . S
C1954 C1960 1.368 . S
C1955 C1939 1.349 . S
C1955 H1947 0.950 . S
C1955 C1953 1.327 . S
C1956 C1944 1.349 . S
C1956 H1950 0.950 . S
C1956 C1957 1.327 . S
C1957 H1951 0.950 . S
C1957 C1956 1.327 . S
C1957 C1961 1.429 . S
C1958 C1941 1.574 . S
C1958 H1952 0.949 . S
C1958 C1962 1.368 . S
C1959 C1940 1.429 . S
C1959 C1953 1.429 . S
C1959 C1960 1.523 . S
C1960 C1941 1.368 . S
C1960 C1954 1.368 . S
C1960 C1959 1.523 . S
C1961 C1945 1.429 . S
C1961 C1957 1.429 . S
C1961 C1962 1.523 . S
C1962 C1946 1.368 . S
C1962 C1958 1.368 . S
C1962 C1961 1.523 . S
H1963 C1938 0.950 . S
H1964 C1940 0.950 . S
H1965 C1941 0.949 . S
H1966 C1943 0.950 . S
H1967 C1945 0.950 . S
C1968 C1969 1.349 . S
C1968 C1970 1.327 . S
C1968 H1993 0.950 . S
C1969 C1968 1.349 . S
C1969 C1985 1.349 . S
C1970 C1968 1.327 . S
C1970 C1989 1.429 . S
C1970 H1994 0.950 . S
C1971 C1988 1.574 1_545 S
C1971 C1990 1.368 . S
C1971 H1995 0.949 . S
H1972 C1976 0.949 . S
C1973 C1974 1.349 . S
C1973 C1975 1.327 . S
C1973 H1996 0.950 . S
C1974 C1973 1.349 . S
C1974 C1986 1.349 . S
C1975 C1973 1.327 . S
C1975 C1991 1.429 . S
C1975 H1997 0.950 . S
C1976 H1972 0.949 . S
C1976 C1984 1.574 1_565 S
C1976 C1992 1.368 . S
H1977 C1985 0.950 . S
H1978 C1983 0.950 . S
H1979 C1984 0.949 . S
H1980 C1986 0.950 . S
H1981 C1987 0.950 . S
H1982 C1988 0.949 . S
C1983 H1978 0.950 . S
C1983 C1985 1.327 . S
C1983 C1989 1.429 . S
C1984 C1976 1.574 1_545 S
C1984 H1979 0.949 . S
C1984 C1990 1.368 . S
C1985 C1969 1.349 . S
C1985 H1977 0.950 . S
C1985 C1983 1.327 . S
C1986 C1974 1.349 . S
C1986 H1980 0.950 . S
C1986 C1987 1.327 . S
C1987 H1981 0.950 . S
C1987 C1986 1.327 . S
C1987 C1991 1.429 . S
C1988 C1971 1.574 1_565 S
C1988 H1982 0.949 . S
C1988 C1992 1.368 . S
C1989 C1970 1.429 . S
C1989 C1983 1.429 . S
C1989 C1990 1.523 . S
C1990 C1971 1.368 . S
C1990 C1984 1.368 . S
C1990 C1989 1.523 . S
C1991 C1975 1.429 . S
C1991 C1987 1.429 . S
C1991 C1992 1.523 . S
C1992 C1976 1.368 . S
C1992 C1988 1.368 . S
C1992 C1991 1.523 . S
H1993 C1968 0.950 . S
H1994 C1970 0.950 . S
H1995 C1971 0.949 . S
H1996 C1973 0.950 . S
H1997 C1975 0.950 . S
C1998 C1999 1.349 . S
C1998 C2000 1.327 . S
C1998 H2023 0.950 . S
C1999 C1998 1.349 . S
C1999 C2015 1.349 . S
C2000 C1998 1.327 . S
C2000 C2019 1.429 . S
C2000 H2024 0.950 . S
C2001 C2018 1.574 1_545 S
C2001 C2020 1.368 . S
C2001 H2025 0.949 . S
H2002 C2006 0.949 . S
C2003 C2004 1.349 . S
C2003 C2005 1.327 . S
C2003 H2026 0.950 . S
C2004 C2003 1.349 . S
C2004 C2016 1.349 . S
C2005 C2003 1.327 . S
C2005 C2021 1.429 . S
C2005 H2027 0.950 . S
C2006 H2002 0.949 . S
C2006 C2014 1.574 1_565 S
C2006 C2022 1.368 . S
H2007 C2015 0.950 . S
H2008 C2013 0.950 . S
H2009 C2014 0.949 . S
H2010 C2016 0.950 . S
H2011 C2017 0.950 . S
H2012 C2018 0.949 . S
C2013 H2008 0.950 . S
C2013 C2015 1.327 . S
C2013 C2019 1.429 . S
C2014 C2006 1.574 1_545 S
C2014 H2009 0.949 . S
C2014 C2020 1.368 . S
C2015 C1999 1.349 . S
C2015 H2007 0.950 . S
C2015 C2013 1.327 . S
C2016 C2004 1.349 . S
C2016 H2010 0.950 . S
C2016 C2017 1.327 . S
C2017 H2011 0.950 . S
C2017 C2016 1.327 . S
C2017 C2021 1.429 . S
C2018 C2001 1.574 1_565 S
C2018 H2012 0.949 . S
C2018 C2022 1.368 . S
C2019 C2000 1.429 . S
C2019 C2013 1.429 . S
C2019 C2020 1.523 . S
C2020 C2001 1.368 . S
C2020 C2014 1.368 . S
C2020 C2019 1.523 . S
C2021 C2005 1.429 . S
C2021 C2017 1.429 . S
C2021 C2022 1.523 . S
C2022 C2006 1.368 . S
C2022 C2018 1.368 . S
C2022 C2021 1.523 . S
H2023 C1998 0.950 . S
H2024 C2000 0.950 . S
H2025 C2001 0.949 . S
H2026 C2003 0.950 . S
H2027 C2005 0.950 . S
C2028 C2029 1.349 . S
C2028 C2030 1.327 . S
C2028 H2053 0.950 . S
C2029 C2028 1.349 . S
C2029 C2045 1.349 . S
C2030 C2028 1.327 . S
C2030 C2049 1.429 . S
C2030 H2054 0.950 . S
C2031 C2048 1.574 1_655 S
C2031 C2050 1.368 . S
C2031 H2055 0.949 . S
H2032 C2036 0.949 . S
C2033 C2034 1.349 . S
C2033 C2035 1.327 . S
C2033 H2056 0.950 . S
C2034 C2033 1.349 . S
C2034 C2046 1.349 . S
C2035 C2033 1.327 . S
C2035 C2051 1.429 . S
C2035 H2057 0.950 . S
C2036 H2032 0.949 . S
C2036 C2044 1.574 1_455 S
C2036 C2052 1.368 . S
H2037 C2045 0.950 . S
H2038 C2043 0.950 . S
H2039 C2044 0.949 . S
H2040 C2046 0.950 . S
H2041 C2047 0.950 . S
H2042 C2048 0.949 . S
C2043 H2038 0.950 . S
C2043 C2045 1.327 . S
C2043 C2049 1.429 . S
C2044 C2036 1.574 1_655 S
C2044 H2039 0.949 . S
C2044 C2050 1.368 . S
C2045 C2029 1.349 . S
C2045 H2037 0.950 . S
C2045 C2043 1.327 . S
C2046 C2034 1.349 . S
C2046 H2040 0.950 . S
C2046 C2047 1.327 . S
C2047 H2041 0.950 . S
C2047 C2046 1.327 . S
C2047 C2051 1.429 . S
C2048 C2031 1.574 1_455 S
C2048 H2042 0.949 . S
C2048 C2052 1.368 . S
C2049 C2030 1.429 . S
C2049 C2043 1.429 . S
C2049 C2050 1.523 . S
C2050 C2031 1.368 . S
C2050 C2044 1.368 . S
C2050 C2049 1.523 . S
C2051 C2035 1.429 . S
C2051 C2047 1.429 . S
C2051 C2052 1.523 . S
C2052 C2036 1.368 . S
C2052 C2048 1.368 . S
C2052 C2051 1.523 . S
H2053 C2028 0.950 . S
H2054 C2030 0.950 . S
H2055 C2031 0.949 . S
H2056 C2033 0.950 . S
H2057 C2035 0.950 . S
C2058 C2059 1.349 . S
C2058 C2060 1.327 . S
C2058 H2083 0.950 . S
C2059 C2058 1.349 . S
C2059 C2075 1.349 . S
C2060 C2058 1.327 . S
C2060 C2079 1.429 . S
C2060 H2084 0.950 . S
C2061 C2078 1.574 . S
C2061 C2080 1.368 . S
C2061 H2085 0.949 . S
H2062 C2066 0.949 . S
C2063 C2064 1.349 . S
C2063 C2065 1.327 . S
C2063 H2086 0.950 . S
C2064 C2063 1.349 . S
C2064 C2076 1.349 . S
C2065 C2063 1.327 . S
C2065 C2081 1.429 . S
C2065 H2087 0.950 . S
C2066 H2062 0.949 . S
C2066 C2074 1.574 . S
C2066 C2082 1.368 . S
H2067 C2075 0.950 . S
H2068 C2073 0.950 . S
H2069 C2074 0.949 . S
H2070 C2076 0.950 . S
H2071 C2077 0.950 . S
H2072 C2078 0.949 . S
C2073 H2068 0.950 . S
C2073 C2075 1.327 . S
C2073 C2079 1.429 . S
C2074 C2066 1.574 . S
C2074 H2069 0.949 . S
C2074 C2080 1.368 . S
C2075 C2059 1.349 . S
C2075 H2067 0.950 . S
C2075 C2073 1.327 . S
C2076 C2064 1.349 . S
C2076 H2070 0.950 . S
C2076 C2077 1.327 . S
C2077 H2071 0.950 . S
C2077 C2076 1.327 . S
C2077 C2081 1.429 . S
C2078 C2061 1.574 . S
C2078 H2072 0.949 . S
C2078 C2082 1.368 . S
C2079 C2060 1.429 . S
C2079 C2073 1.429 . S
C2079 C2080 1.523 . S
C2080 C2061 1.368 . S
C2080 C2074 1.368 . S
C2080 C2079 1.523 . S
C2081 C2065 1.429 . S
C2081 C2077 1.429 . S
C2081 C2082 1.523 . S
C2082 C2066 1.368 . S
C2082 C2078 1.368 . S
C2082 C2081 1.523 . S
H2083 C2058 0.950 . S
H2084 C2060 0.950 . S
H2085 C2061 0.949 . S
H2086 C2063 0.950 . S
H2087 C2065 0.950 . S
C2088 C2089 1.349 . S
C2088 C2090 1.327 . S
C2088 H2113 0.950 . S
C2089 C2088 1.349 . S
C2089 C2105 1.349 . S
C2090 C2088 1.327 . S
C2090 C2109 1.429 . S
C2090 H2114 0.950 . S
C2091 C2108 1.574 . S
C2091 C2110 1.368 . S
C2091 H2115 0.949 . S
H2092 C2096 0.949 . S
C2093 C2094 1.349 . S
C2093 C2095 1.327 . S
C2093 H2116 0.950 . S
C2094 C2093 1.349 . S
C2094 C2106 1.349 . S
C2095 C2093 1.327 . S
C2095 C2111 1.429 . S
C2095 H2117 0.950 . S
C2096 H2092 0.949 . S
C2096 C2104 1.574 . S
C2096 C2112 1.368 . S
H2097 C2105 0.950 . S
H2098 C2103 0.950 . S
H2099 C2104 0.949 . S
H2100 C2106 0.950 . S
H2101 C2107 0.950 . S
H2102 C2108 0.949 . S
C2103 H2098 0.950 . S
C2103 C2105 1.327 . S
C2103 C2109 1.429 . S
C2104 C2096 1.574 . S
C2104 H2099 0.949 . S
C2104 C2110 1.368 . S
C2105 C2089 1.349 . S
C2105 H2097 0.950 . S
C2105 C2103 1.327 . S
C2106 C2094 1.349 . S
C2106 H2100 0.950 . S
C2106 C2107 1.327 . S
C2107 H2101 0.950 . S
C2107 C2106 1.327 . S
C2107 C2111 1.429 . S
C2108 C2091 1.574 . S
C2108 H2102 0.949 . S
C2108 C2112 1.368 . S
C2109 C2090 1.429 . S
C2109 C2103 1.429 . S
C2109 C2110 1.523 . S
C2110 C2091 1.368 . S
C2110 C2104 1.368 . S
C2110 C2109 1.523 . S
C2111 C2095 1.429 . S
C2111 C2107 1.429 . S
C2111 C2112 1.523 . S
C2112 C2096 1.368 . S
C2112 C2108 1.368 . S
C2112 C2111 1.523 . S
H2113 C2088 0.950 . S
H2114 C2090 0.950 . S
H2115 C2091 0.949 . S
H2116 C2093 0.950 . S
H2117 C2095 0.950 . S
C2118 C2119 1.349 . S
C2118 C2120 1.327 . S
C2118 H2143 0.950 . S
C2119 C2118 1.349 . S
C2119 C2135 1.349 . S
C2120 C2118 1.327 . S
C2120 C2139 1.429 . S
C2120 H2144 0.950 . S
C2121 C2138 1.574 . S
C2121 C2140 1.368 . S
C2121 H2145 0.949 . S
H2122 C2126 0.949 . S
C2123 C2124 1.349 . S
C2123 C2125 1.327 . S
C2123 H2146 0.950 . S
C2124 C2123 1.349 . S
C2124 C2136 1.349 . S
C2125 C2123 1.327 . S
C2125 C2141 1.429 . S
C2125 H2147 0.950 . S
C2126 H2122 0.949 . S
C2126 C2134 1.574 . S
C2126 C2142 1.368 . S
H2127 C2135 0.950 . S
H2128 C2133 0.950 . S
H2129 C2134 0.949 . S
H2130 C2136 0.950 . S
H2131 C2137 0.950 . S
H2132 C2138 0.949 . S
C2133 H2128 0.950 . S
C2133 C2135 1.327 . S
C2133 C2139 1.429 . S
C2134 C2126 1.574 . S
C2134 H2129 0.949 . S
C2134 C2140 1.368 . S
C2135 C2119 1.349 . S
C2135 H2127 0.950 . S
C2135 C2133 1.327 . S
C2136 C2124 1.349 . S
C2136 H2130 0.950 . S
C2136 C2137 1.327 . S
C2137 H2131 0.950 . S
C2137 C2136 1.327 . S
C2137 C2141 1.429 . S
C2138 C2121 1.574 . S
C2138 H2132 0.949 . S
C2138 C2142 1.368 . S
C2139 C2120 1.429 . S
C2139 C2133 1.429 . S
C2139 C2140 1.523 . S
C2140 C2121 1.368 . S
C2140 C2134 1.368 . S
C2140 C2139 1.523 . S
C2141 C2125 1.429 . S
C2141 C2137 1.429 . S
C2141 C2142 1.523 . S
C2142 C2126 1.368 . S
C2142 C2138 1.368 . S
C2142 C2141 1.523 . S
H2143 C2118 0.950 . S
H2144 C2120 0.950 . S
H2145 C2121 0.949 . S
H2146 C2123 0.950 . S
H2147 C2125 0.950 . S
C2148 C2149 1.349 . S
C2148 C2150 1.327 . S
C2148 H2173 0.950 . S
C2149 C2148 1.349 . S
C2149 C2165 1.349 . S
C2150 C2148 1.327 . S
C2150 C2169 1.429 . S
C2150 H2174 0.950 . S
C2151 C2168 1.574 . S
C2151 C2170 1.368 . S
C2151 H2175 0.949 . S
H2152 C2156 0.949 . S
C2153 C2154 1.349 . S
C2153 C2155 1.327 . S
C2153 H2176 0.950 . S
C2154 C2153 1.349 . S
C2154 C2166 1.349 . S
C2155 C2153 1.327 . S
C2155 C2171 1.429 . S
C2155 H2177 0.950 . S
C2156 H2152 0.949 . S
C2156 C2164 1.574 . S
C2156 C2172 1.368 . S
H2157 C2165 0.950 . S
H2158 C2163 0.950 . S
H2159 C2164 0.949 . S
H2160 C2166 0.950 . S
H2161 C2167 0.950 . S
H2162 C2168 0.949 . S
C2163 H2158 0.950 . S
C2163 C2165 1.327 . S
C2163 C2169 1.429 . S
C2164 C2156 1.574 . S
C2164 H2159 0.949 . S
C2164 C2170 1.368 . S
C2165 C2149 1.349 . S
C2165 H2157 0.950 . S
C2165 C2163 1.327 . S
C2166 C2154 1.349 . S
C2166 H2160 0.950 . S
C2166 C2167 1.327 . S
C2167 H2161 0.950 . S
C2167 C2166 1.327 . S
C2167 C2171 1.429 . S
C2168 C2151 1.574 . S
C2168 H2162 0.949 . S
C2168 C2172 1.368 . S
C2169 C2150 1.429 . S
C2169 C2163 1.429 . S
C2169 C2170 1.523 . S
C2170 C2151 1.368 . S
C2170 C2164 1.368 . S
C2170 C2169 1.523 . S
C2171 C2155 1.429 . S
C2171 C2167 1.429 . S
C2171 C2172 1.523 . S
C2172 C2156 1.368 . S
C2172 C2168 1.368 . S
C2172 C2171 1.523 . S
H2173 C2148 0.950 . S
H2174 C2150 0.950 . S
H2175 C2151 0.949 . S
H2176 C2153 0.950 . S
H2177 C2155 0.950 . S
C2178 C2179 1.349 . S
C2178 C2180 1.327 . S
C2178 H2203 0.950 . S
C2179 C2178 1.349 . S
C2179 C2195 1.349 . S
C2180 C2178 1.327 . S
C2180 C2199 1.429 . S
C2180 H2204 0.950 . S
C2181 C2198 1.574 . S
C2181 C2200 1.368 . S
C2181 H2205 0.949 . S
H2182 C2186 0.949 . S
C2183 C2184 1.349 . S
C2183 C2185 1.327 . S
C2183 H2206 0.950 . S
C2184 C2183 1.349 . S
C2184 C2196 1.349 . S
C2185 C2183 1.327 . S
C2185 C2201 1.429 . S
C2185 H2207 0.950 . S
C2186 H2182 0.949 . S
C2186 C2194 1.574 . S
C2186 C2202 1.368 . S
H2187 C2195 0.950 . S
H2188 C2193 0.950 . S
H2189 C2194 0.949 . S
H2190 C2196 0.950 . S
H2191 C2197 0.950 . S
H2192 C2198 0.949 . S
C2193 H2188 0.950 . S
C2193 C2195 1.327 . S
C2193 C2199 1.429 . S
C2194 C2186 1.574 . S
C2194 H2189 0.949 . S
C2194 C2200 1.368 . S
C2195 C2179 1.349 . S
C2195 H2187 0.950 . S
C2195 C2193 1.327 . S
C2196 C2184 1.349 . S
C2196 H2190 0.950 . S
C2196 C2197 1.327 . S
C2197 H2191 0.950 . S
C2197 C2196 1.327 . S
C2197 C2201 1.429 . S
C2198 C2181 1.574 . S
C2198 H2192 0.949 . S
C2198 C2202 1.368 . S
C2199 C2180 1.429 . S
C2199 C2193 1.429 . S
C2199 C2200 1.523 . S
C2200 C2181 1.368 . S
C2200 C2194 1.368 . S
C2200 C2199 1.523 . S
C2201 C2185 1.429 . S
C2201 C2197 1.429 . S
C2201 C2202 1.523 . S
C2202 C2186 1.368 . S
C2202 C2198 1.368 . S
C2202 C2201 1.523 . S
H2203 C2178 0.950 . S
H2204 C2180 0.950 . S
H2205 C2181 0.949 . S
H2206 C2183 0.950 . S
H2207 C2185 0.950 . S
C2208 C2209 1.349 . S
C2208 C2210 1.327 . S
C2208 H2233 0.950 . S
C2209 C2208 1.349 . S
C2209 C2225 1.349 . S
C2210 C2208 1.327 . S
C2210 C2229 1.429 . S
C2210 H2234 0.950 . S
C2211 C2228 1.574 . S
C2211 C2230 1.368 . S
C2211 H2235 0.949 . S
H2212 C2216 0.949 . S
C2213 C2214 1.349 . S
C2213 C2215 1.327 . S
C2213 H2236 0.950 . S
C2214 C2213 1.349 . S
C2214 C2226 1.349 . S
C2215 C2213 1.327 . S
C2215 C2231 1.429 . S
C2215 H2237 0.950 . S
C2216 H2212 0.949 . S
C2216 C2224 1.574 . S
C2216 C2232 1.368 . S
H2217 C2225 0.950 . S
H2218 C2223 0.950 . S
H2219 C2224 0.949 . S
H2220 C2226 0.950 . S
H2221 C2227 0.950 . S
H2222 C2228 0.949 . S
C2223 H2218 0.950 . S
C2223 C2225 1.327 . S
C2223 C2229 1.429 . S
C2224 C2216 1.574 . S
C2224 H2219 0.949 . S
C2224 C2230 1.368 . S
C2225 C2209 1.349 . S
C2225 H2217 0.950 . S
C2225 C2223 1.327 . S
C2226 C2214 1.349 . S
C2226 H2220 0.950 . S
C2226 C2227 1.327 . S
C2227 H2221 0.950 . S
C2227 C2226 1.327 . S
C2227 C2231 1.429 . S
C2228 C2211 1.574 . S
C2228 H2222 0.949 . S
C2228 C2232 1.368 . S
C2229 C2210 1.429 . S
C2229 C2223 1.429 . S
C2229 C2230 1.523 . S
C2230 C2211 1.368 . S
C2230 C2224 1.368 . S
C2230 C2229 1.523 . S
C2231 C2215 1.429 . S
C2231 C2227 1.429 . S
C2231 C2232 1.523 . S
C2232 C2216 1.368 . S
C2232 C2228 1.368 . S
C2232 C2231 1.523 . S
H2233 C2208 0.950 . S
H2234 C2210 0.950 . S
H2235 C2211 0.949 . S
H2236 C2213 0.950 . S
H2237 C2215 0.950 . S
C2238 C2239 1.349 . S
C2238 C2240 1.327 . S
C2238 H2263 0.950 . S
C2239 C2238 1.349 . S
C2239 C2255 1.349 . S
C2240 C2238 1.327 . S
C2240 C2259 1.429 . S
C2240 H2264 0.950 . S
C2241 C2258 1.574 . S
C2241 C2260 1.368 . S
C2241 H2265 0.949 . S
H2242 C2246 0.949 . S
C2243 C2244 1.349 . S
C2243 C2245 1.327 . S
C2243 H2266 0.950 . S
C2244 C2243 1.349 . S
C2244 C2256 1.349 . S
C2245 C2243 1.327 . S
C2245 C2261 1.429 . S
C2245 H2267 0.950 . S
C2246 H2242 0.949 . S
C2246 C2254 1.574 . S
C2246 C2262 1.368 . S
H2247 C2255 0.950 . S
H2248 C2253 0.950 . S
H2249 C2254 0.949 . S
H2250 C2256 0.950 . S
H2251 C2257 0.950 . S
H2252 C2258 0.949 . S
C2253 H2248 0.950 . S
C2253 C2255 1.327 . S
C2253 C2259 1.429 . S
C2254 C2246 1.574 . S
C2254 H2249 0.949 . S
C2254 C2260 1.368 . S
C2255 C2239 1.349 . S
C2255 H2247 0.950 . S
C2255 C2253 1.327 . S
C2256 C2244 1.349 . S
C2256 H2250 0.950 . S
C2256 C2257 1.327 . S
C2257 H2251 0.950 . S
C2257 C2256 1.327 . S
C2257 C2261 1.429 . S
C2258 C2241 1.574 . S
C2258 H2252 0.949 . S
C2258 C2262 1.368 . S
C2259 C2240 1.429 . S
C2259 C2253 1.429 . S
C2259 C2260 1.523 . S
C2260 C2241 1.368 . S
C2260 C2254 1.368 . S
C2260 C2259 1.523 . S
C2261 C2245 1.429 . S
C2261 C2257 1.429 . S
C2261 C2262 1.523 . S
C2262 C2246 1.368 . S
C2262 C2258 1.368 . S
C2262 C2261 1.523 . S
H2263 C2238 0.950 . S
H2264 C2240 0.950 . S
H2265 C2241 0.949 . S
H2266 C2243 0.950 . S
H2267 C2245 0.950 . S
C2268 C2269 1.349 . S
C2268 C2270 1.327 . S
C2268 H2293 0.950 . S
C2269 C2268 1.349 . S
C2269 C2285 1.349 . S
C2270 C2268 1.327 . S
C2270 C2289 1.429 . S
C2270 H2294 0.950 . S
C2271 C2288 1.574 . S
C2271 C2290 1.368 . S
C2271 H2295 0.949 . S
H2272 C2276 0.949 . S
C2273 C2274 1.349 . S
C2273 C2275 1.327 . S
C2273 H2296 0.950 . S
C2274 C2273 1.349 . S
C2274 C2286 1.349 . S
C2275 C2273 1.327 . S
C2275 C2291 1.429 . S
C2275 H2297 0.950 . S
C2276 H2272 0.949 . S
C2276 C2284 1.574 . S
C2276 C2292 1.368 . S
H2277 C2285 0.950 . S
H2278 C2283 0.950 . S
H2279 C2284 0.949 . S
H2280 C2286 0.950 . S
H2281 C2287 0.950 . S
H2282 C2288 0.949 . S
C2283 H2278 0.950 . S
C2283 C2285 1.327 . S
C2283 C2289 1.429 . S
C2284 C2276 1.574 . S
C2284 H2279 0.949 . S
C2284 C2290 1.368 . S
C2285 C2269 1.349 . S
C2285 H2277 0.950 . S
C2285 C2283 1.327 . S
C2286 C2274 1.349 . S
C2286 H2280 0.950 . S
C2286 C2287 1.327 . S
C2287 H2281 0.950 . S
C2287 C2286 1.327 . S
C2287 C2291 1.429 . S
C2288 C2271 1.574 . S
C2288 H2282 0.949 . S
C2288 C2292 1.368 . S
C2289 C2270 1.429 . S
C2289 C2283 1.429 . S
C2289 C2290 1.523 . S
C2290 C2271 1.368 . S
C2290 C2284 1.368 . S
C2290 C2289 1.523 . S
C2291 C2275 1.429 . S
C2291 C2287 1.429 . S
C2291 C2292 1.523 . S
C2292 C2276 1.368 . S
C2292 C2288 1.368 . S
C2292 C2291 1.523 . S
H2293 C2268 0.950 . S
H2294 C2270 0.950 . S
H2295 C2271 0.949 . S
H2296 C2273 0.950 . S
H2297 C2275 0.950 . S
C2298 C2299 1.349 . S
C2298 C2300 1.327 . S
C2298 H2323 0.950 . S
C2299 C2298 1.349 . S
C2299 C2315 1.349 . S
C2300 C2298 1.327 . S
C2300 C2319 1.429 . S
C2300 H2324 0.950 . S
C2301 C2318 1.574 . S
C2301 C2320 1.368 . S
C2301 H2325 0.949 . S
H2302 C2306 0.949 . S
C2303 C2304 1.349 . S
C2303 C2305 1.327 . S
C2303 H2326 0.950 . S
C2304 C2303 1.349 . S
C2304 C2316 1.349 . S
C2305 C2303 1.327 . S
C2305 C2321 1.429 . S
C2305 H2327 0.950 . S
C2306 H2302 0.949 . S
C2306 C2314 1.574 . S
C2306 C2322 1.368 . S
H2307 C2315 0.950 . S
H2308 C2313 0.950 . S
H2309 C2314 0.949 . S
H2310 C2316 0.950 . S
H2311 C2317 0.950 . S
H2312 C2318 0.949 . S
C2313 H2308 0.950 . S
C2313 C2315 1.327 . S
C2313 C2319 1.429 . S
C2314 C2306 1.574 . S
C2314 H2309 0.949 . S
C2314 C2320 1.368 . S
C2315 C2299 1.349 . S
C2315 H2307 0.950 . S
C2315 C2313 1.327 . S
C2316 C2304 1.349 . S
C2316 H2310 0.950 . S
C2316 C2317 1.327 . S
C2317 H2311 0.950 . S
C2317 C2316 1.327 . S
C2317 C2321 1.429 . S
C2318 C2301 1.574 . S
C2318 H2312 0.949 . S
C2318 C2322 1.368 . S
C2319 C2300 1.429 . S
C2319 C2313 1.429 . S
C2319 C2320 1.523 . S
C2320 C2301 1.368 . S
C2320 C2314 1.368 . S
C2320 C2319 1.523 . S
C2321 C2305 1.429 . S
C2321 C2317 1.429 . S
C2321 C2322 1.523 . S
C2322 C2306 1.368 . S
C2322 C2318 1.368 . S
C2322 C2321 1.523 . S
H2323 C2298 0.950 . S
H2324 C2300 0.950 . S
H2325 C2301 0.949 . S
H2326 C2303 0.950 . S
H2327 C2305 0.950 . S
C2328 C2329 1.349 . S
C2328 C2330 1.327 . S
C2328 H2353 0.950 . S
C2329 C2328 1.349 . S
C2329 C2345 1.349 . S
C2330 C2328 1.327 . S
C2330 C2349 1.429 . S
C2330 H2354 0.950 . S
C2331 C2348 1.574 . S
C2331 C2350 1.368 . S
C2331 H2355 0.949 . S
H2332 C2336 0.949 . S
C2333 C2334 1.349 . S
C2333 C2335 1.327 . S
C2333 H2356 0.950 . S
C2334 C2333 1.349 . S
C2334 C2346 1.349 . S
C2335 C2333 1.327 . S
C2335 C2351 1.429 . S
C2335 H2357 0.950 . S
C2336 H2332 0.949 . S
C2336 C2344 1.574 . S
C2336 C2352 1.368 . S
H2337 C2345 0.950 . S
H2338 C2343 0.950 . S
H2339 C2344 0.949 . S
H2340 C2346 0.950 . S
H2341 C2347 0.950 . S
H2342 C2348 0.949 . S
C2343 H2338 0.950 . S
C2343 C2345 1.327 . S
C2343 C2349 1.429 . S
C2344 C2336 1.574 . S
C2344 H2339 0.949 . S
C2344 C2350 1.368 . S
C2345 C2329 1.349 . S
C2345 H2337 0.950 . S
C2345 C2343 1.327 . S
C2346 C2334 1.349 . S
C2346 H2340 0.950 . S
C2346 C2347 1.327 . S
C2347 H2341 0.950 . S
C2347 C2346 1.327 . S
C2347 C2351 1.429 . S
C2348 C2331 1.574 . S
C2348 H2342 0.949 . S
C2348 C2352 1.368 . S
C2349 C2330 1.429 . S
C2349 C2343 1.429 . S
C2349 C2350 1.523 . S
C2350 C2331 1.368 . S
C2350 C2344 1.368 . S
C2350 C2349 1.523 . S
C2351 C2335 1.429 . S
C2351 C2347 1.429 . S
C2351 C2352 1.523 . S
C2352 C2336 1.368 . S
C2352 C2348 1.368 . S
C2352 C2351 1.523 . S
H2353 C2328 0.950 . S
H2354 C2330 0.950 . S
H2355 C2331 0.949 . S
H2356 C2333 0.950 . S
H2357 C2335 0.950 . S
C2358 C2359 1.349 . S
C2358 C2360 1.327 . S
C2358 H2383 0.950 . S
C2359 C2358 1.349 . S
C2359 C2375 1.349 . S
C2360 C2358 1.327 . S
C2360 C2379 1.429 . S
C2360 H2384 0.950 . S
C2361 C2378 1.574 . S
C2361 C2380 1.368 . S
C2361 H2385 0.949 . S
H2362 C2366 0.949 . S
C2363 C2364 1.349 . S
C2363 C2365 1.327 . S
C2363 H2386 0.950 . S
C2364 C2363 1.349 . S
C2364 C2376 1.349 . S
C2365 C2363 1.327 . S
C2365 C2381 1.429 . S
C2365 H2387 0.950 . S
C2366 H2362 0.949 . S
C2366 C2374 1.574 . S
C2366 C2382 1.368 . S
H2367 C2375 0.950 . S
H2368 C2373 0.950 . S
H2369 C2374 0.949 . S
H2370 C2376 0.950 . S
H2371 C2377 0.950 . S
H2372 C2378 0.949 . S
C2373 H2368 0.950 . S
C2373 C2375 1.327 . S
C2373 C2379 1.429 . S
C2374 C2366 1.574 . S
C2374 H2369 0.949 . S
C2374 C2380 1.368 . S
C2375 C2359 1.349 . S
C2375 H2367 0.950 . S
C2375 C2373 1.327 . S
C2376 C2364 1.349 . S
C2376 H2370 0.950 . S
C2376 C2377 1.327 . S
C2377 H2371 0.950 . S
C2377 C2376 1.327 . S
C2377 C2381 1.429 . S
C2378 C2361 1.574 . S
C2378 H2372 0.949 . S
C2378 C2382 1.368 . S
C2379 C2360 1.429 . S
C2379 C2373 1.429 . S
C2379 C2380 1.523 . S
C2380 C2361 1.368 . S
C2380 C2374 1.368 . S
C2380 C2379 1.523 . S
C2381 C2365 1.429 . S
C2381 C2377 1.429 . S
C2381 C2382 1.523 . S
C2382 C2366 1.368 . S
C2382 C2378 1.368 . S
C2382 C2381 1.523 . S
H2383 C2358 0.950 . S
H2384 C2360 0.950 . S
H2385 C2361 0.949 . S
H2386 C2363 0.950 . S
H2387 C2365 0.950 . S
C2388 C2389 1.349 . S
C2388 C2390 1.327 . S
C2388 H2413 0.950 . S
C2389 C2388 1.349 . S
C2389 C2405 1.349 . S
C2390 C2388 1.327 . S
C2390 C2409 1.429 . S
C2390 H2414 0.950 . S
C2391 C2408 1.574 . S
C2391 C2410 1.368 . S
C2391 H2415 0.949 . S
H2392 C2396 0.949 . S
C2393 C2394 1.349 . S
C2393 C2395 1.327 . S
C2393 H2416 0.950 . S
C2394 C2393 1.349 . S
C2394 C2406 1.349 . S
C2395 C2393 1.327 . S
C2395 C2411 1.429 . S
C2395 H2417 0.950 . S
C2396 H2392 0.949 . S
C2396 C2404 1.574 . S
C2396 C2412 1.368 . S
H2397 C2405 0.950 . S
H2398 C2403 0.950 . S
H2399 C2404 0.949 . S
H2400 C2406 0.950 . S
H2401 C2407 0.950 . S
H2402 C2408 0.949 . S
C2403 H2398 0.950 . S
C2403 C2405 1.327 . S
C2403 C2409 1.429 . S
C2404 C2396 1.574 . S
C2404 H2399 0.949 . S
C2404 C2410 1.368 . S
C2405 C2389 1.349 . S
C2405 H2397 0.950 . S
C2405 C2403 1.327 . S
C2406 C2394 1.349 . S
C2406 H2400 0.950 . S
C2406 C2407 1.327 . S
C2407 H2401 0.950 . S
C2407 C2406 1.327 . S
C2407 C2411 1.429 . S
C2408 C2391 1.574 . S
C2408 H2402 0.949 . S
C2408 C2412 1.368 . S
C2409 C2390 1.429 . S
C2409 C2403 1.429 . S
C2409 C2410 1.523 . S
C2410 C2391 1.368 . S
C2410 C2404 1.368 . S
C2410 C2409 1.523 . S
C2411 C2395 1.429 . S
C2411 C2407 1.429 . S
C2411 C2412 1.523 . S
C2412 C2396 1.368 . S
C2412 C2408 1.368 . S
C2412 C2411 1.523 . S
H2413 C2388 0.950 . S
H2414 C2390 0.950 . S
H2415 C2391 0.949 . S
H2416 C2393 0.950 . S
H2417 C2395 0.950 . S
C2418 C2419 1.349 . S
C2418 C2420 1.327 . S
C2418 H2443 0.950 . S
C2419 C2418 1.349 . S
C2419 C2435 1.349 . S
C2420 C2418 1.327 . S
C2420 C2439 1.429 . S
C2420 H2444 0.950 . S
C2421 C2438 1.574 . S
C2421 C2440 1.368 . S
C2421 H2445 0.949 . S
H2422 C2426 0.949 . S
C2423 C2424 1.349 . S
C2423 C2425 1.327 . S
C2423 H2446 0.950 . S
C2424 C2423 1.349 . S
C2424 C2436 1.349 . S
C2425 C2423 1.327 . S
C2425 C2441 1.429 . S
C2425 H2447 0.950 . S
C2426 H2422 0.949 . S
C2426 C2434 1.574 . S
C2426 C2442 1.368 . S
H2427 C2435 0.950 . S
H2428 C2433 0.950 . S
H2429 C2434 0.949 . S
H2430 C2436 0.950 . S
H2431 C2437 0.950 . S
H2432 C2438 0.949 . S
C2433 H2428 0.950 . S
C2433 C2435 1.327 . S
C2433 C2439 1.429 . S
C2434 C2426 1.574 . S
C2434 H2429 0.949 . S
C2434 C2440 1.368 . S
C2435 C2419 1.349 . S
C2435 H2427 0.950 . S
C2435 C2433 1.327 . S
C2436 C2424 1.349 . S
C2436 H2430 0.950 . S
C2436 C2437 1.327 . S
C2437 H2431 0.950 . S
C2437 C2436 1.327 . S
C2437 C2441 1.429 . S
C2438 C2421 1.574 . S
C2438 H2432 0.949 . S
C2438 C2442 1.368 . S
C2439 C2420 1.429 . S
C2439 C2433 1.429 . S
C2439 C2440 1.523 . S
C2440 C2421 1.368 . S
C2440 C2434 1.368 . S
C2440 C2439 1.523 . S
C2441 C2425 1.429 . S
C2441 C2437 1.429 . S
C2441 C2442 1.523 . S
C2442 C2426 1.368 . S
C2442 C2438 1.368 . S
C2442 C2441 1.523 . S
H2443 C2418 0.950 . S
H2444 C2420 0.950 . S
H2445 C2421 0.949 . S
H2446 C2423 0.950 . S
H2447 C2425 0.950 . S
C2448 C2449 1.349 . S
C2448 C2450 1.327 . S
C2448 H2473 0.950 . S
C2449 C2448 1.349 . S
C2449 C2465 1.349 . S
C2450 C2448 1.327 . S
C2450 C2469 1.429 . S
C2450 H2474 0.950 . S
C2451 C2468 1.574 . S
C2451 C2470 1.368 . S
C2451 H2475 0.949 . S
H2452 C2456 0.949 . S
C2453 C2454 1.349 . S
C2453 C2455 1.327 . S
C2453 H2476 0.950 . S
C2454 C2453 1.349 . S
C2454 C2466 1.349 . S
C2455 C2453 1.327 . S
C2455 C2471 1.429 . S
C2455 H2477 0.950 . S
C2456 H2452 0.949 . S
C2456 C2464 1.574 . S
C2456 C2472 1.368 . S
H2457 C2465 0.950 . S
H2458 C2463 0.950 . S
H2459 C2464 0.949 . S
H2460 C2466 0.950 . S
H2461 C2467 0.950 . S
H2462 C2468 0.949 . S
C2463 H2458 0.950 . S
C2463 C2465 1.327 . S
C2463 C2469 1.429 . S
C2464 C2456 1.574 . S
C2464 H2459 0.949 . S
C2464 C2470 1.368 . S
C2465 C2449 1.349 . S
C2465 H2457 0.950 . S
C2465 C2463 1.327 . S
C2466 C2454 1.349 . S
C2466 H2460 0.950 . S
C2466 C2467 1.327 . S
C2467 H2461 0.950 . S
C2467 C2466 1.327 . S
C2467 C2471 1.429 . S
C2468 C2451 1.574 . S
C2468 H2462 0.949 . S
C2468 C2472 1.368 . S
C2469 C2450 1.429 . S
C2469 C2463 1.429 . S
C2469 C2470 1.523 . S
C2470 C2451 1.368 . S
C2470 C2464 1.368 . S
C2470 C2469 1.523 . S
C2471 C2455 1.429 . S
C2471 C2467 1.429 . S
C2471 C2472 1.523 . S
C2472 C2456 1.368 . S
C2472 C2468 1.368 . S
C2472 C2471 1.523 . S
H2473 C2448 0.950 . S
H2474 C2450 0.950 . S
H2475 C2451 0.949 . S
H2476 C2453 0.950 . S
H2477 C2455 0.950 . S
C2478 C2479 1.349 . S
C2478 C2480 1.327 . S
C2478 H2503 0.950 . S
C2479 C2478 1.349 . S
C2479 C2495 1.349 . S
C2480 C2478 1.327 . S
C2480 C2499 1.429 . S
C2480 H2504 0.950 . S
C2481 C2498 1.574 . S
C2481 C2500 1.368 . S
C2481 H2505 0.949 . S
H2482 C2486 0.949 . S
C2483 C2484 1.349 . S
C2483 C2485 1.327 . S
C2483 H2506 0.950 . S
C2484 C2483 1.349 . S
C2484 C2496 1.349 . S
C2485 C2483 1.327 . S
C2485 C2501 1.429 . S
C2485 H2507 0.950 . S
C2486 H2482 0.949 . S
C2486 C2494 1.574 . S
C2486 C2502 1.368 . S
H2487 C2495 0.950 . S
H2488 C2493 0.950 . S
H2489 C2494 0.949 . S
H2490 C2496 0.950 . S
H2491 C2497 0.950 . S
H2492 C2498 0.949 . S
C2493 H2488 0.950 . S
C2493 C2495 1.327 . S
C2493 C2499 1.429 . S
C2494 C2486 1.574 . S
C2494 H2489 0.949 . S
C2494 C2500 1.368 . S
C2495 C2479 1.349 . S
C2495 H2487 0.950 . S
C2495 C2493 1.327 . S
C2496 C2484 1.349 . S
C2496 H2490 0.950 . S
C2496 C2497 1.327 . S
C2497 H2491 0.950 . S
C2497 C2496 1.327 . S
C2497 C2501 1.429 . S
C2498 C2481 1.574 . S
C2498 H2492 0.949 . S
C2498 C2502 1.368 . S
C2499 C2480 1.429 . S
C2499 C2493 1.429 . S
C2499 C2500 1.523 . S
C2500 C2481 1.368 . S
C2500 C2494 1.368 . S
C2500 C2499 1.523 . S
C2501 C2485 1.429 . S
C2501 C2497 1.429 . S
C2501 C2502 1.523 . S
C2502 C2486 1.368 . S
C2502 C2498 1.368 . S
C2502 C2501 1.523 . S
H2503 C2478 0.950 . S
H2504 C2480 0.950 . S
H2505 C2481 0.949 . S
H2506 C2483 0.950 . S
H2507 C2485 0.950 . S
C2508 C2509 1.349 . S
C2508 C2510 1.327 . S
C2508 H2533 0.950 . S
C2509 C2508 1.349 . S
C2509 C2525 1.349 . S
C2510 C2508 1.327 . S
C2510 C2529 1.429 . S
C2510 H2534 0.950 . S
C2511 C2528 1.574 . S
C2511 C2530 1.368 . S
C2511 H2535 0.949 . S
H2512 C2516 0.949 . S
C2513 C2514 1.349 . S
C2513 C2515 1.327 . S
C2513 H2536 0.950 . S
C2514 C2513 1.349 . S
C2514 C2526 1.349 . S
C2515 C2513 1.327 . S
C2515 C2531 1.429 . S
C2515 H2537 0.950 . S
C2516 H2512 0.949 . S
C2516 C2524 1.574 . S
C2516 C2532 1.368 . S
H2517 C2525 0.950 . S
H2518 C2523 0.950 . S
H2519 C2524 0.949 . S
H2520 C2526 0.950 . S
H2521 C2527 0.950 . S
H2522 C2528 0.949 . S
C2523 H2518 0.950 . S
C2523 C2525 1.327 . S
C2523 C2529 1.429 . S
C2524 C2516 1.574 . S
C2524 H2519 0.949 . S
C2524 C2530 1.368 . S
C2525 C2509 1.349 . S
C2525 H2517 0.950 . S
C2525 C2523 1.327 . S
C2526 C2514 1.349 . S
C2526 H2520 0.950 . S
C2526 C2527 1.327 . S
C2527 H2521 0.950 . S
C2527 C2526 1.327 . S
C2527 C2531 1.429 . S
C2528 C2511 1.574 . S
C2528 H2522 0.949 . S
C2528 C2532 1.368 . S
C2529 C2510 1.429 . S
C2529 C2523 1.429 . S
C2529 C2530 1.523 . S
C2530 C2511 1.368 . S
C2530 C2524 1.368 . S
C2530 C2529 1.523 . S
C2531 C2515 1.429 . S
C2531 C2527 1.429 . S
C2531 C2532 1.523 . S
C2532 C2516 1.368 . S
C2532 C2528 1.368 . S
C2532 C2531 1.523 . S
H2533 C2508 0.950 . S
H2534 C2510 0.950 . S
H2535 C2511 0.949 . S
H2536 C2513 0.950 . S
H2537 C2515 0.950 . S
C2538 C2539 1.349 . S
C2538 C2540 1.327 . S
C2538 H2563 0.950 . S
C2539 C2538 1.349 . S
C2539 C2555 1.349 . S
C2540 C2538 1.327 . S
C2540 C2559 1.429 . S
C2540 H2564 0.950 . S
C2541 C2558 1.574 . S
C2541 C2560 1.368 . S
C2541 H2565 0.949 . S
H2542 C2546 0.949 . S
C2543 C2544 1.349 . S
C2543 C2545 1.327 . S
C2543 H2566 0.950 . S
C2544 C2543 1.349 . S
C2544 C2556 1.349 . S
C2545 C2543 1.327 . S
C2545 C2561 1.429 . S
C2545 H2567 0.950 . S
C2546 H2542 0.949 . S
C2546 C2554 1.574 . S
C2546 C2562 1.368 . S
H2547 C2555 0.950 . S
H2548 C2553 0.950 . S
H2549 C2554 0.949 . S
H2550 C2556 0.950 . S
H2551 C2557 0.950 . S
H2552 C2558 0.949 . S
C2553 H2548 0.950 . S
C2553 C2555 1.327 . S
C2553 C2559 1.429 . S
C2554 C2546 1.574 . S
C2554 H2549 0.949 . S
C2554 C2560 1.368 . S
C2555 C2539 1.349 . S
C2555 H2547 0.950 . S
C2555 C2553 1.327 . S
C2556 C2544 1.349 . S
C2556 H2550 0.950 . S
C2556 C2557 1.327 . S
C2557 H2551 0.950 . S
C2557 C2556 1.327 . S
C2557 C2561 1.429 . S
C2558 C2541 1.574 . S
C2558 H2552 0.949 . S
C2558 C2562 1.368 . S
C2559 C2540 1.429 . S
C2559 C2553 1.429 . S
C2559 C2560 1.523 . S
C2560 C2541 1.368 . S
C2560 C2554 1.368 . S
C2560 C2559 1.523 . S
C2561 C2545 1.429 . S
C2561 C2557 1.429 . S
C2561 C2562 1.523 . S
C2562 C2546 1.368 . S
C2562 C2558 1.368 . S
C2562 C2561 1.523 . S
H2563 C2538 0.950 . S
H2564 C2540 0.950 . S
H2565 C2541 0.949 . S
H2566 C2543 0.950 . S
H2567 C2545 0.950 . S
C2568 C2569 1.349 . S
C2568 C2570 1.327 . S
C2568 H2593 0.950 . S
C2569 C2568 1.349 . S
C2569 C2585 1.349 . S
C2570 C2568 1.327 . S
C2570 C2589 1.429 . S
C2570 H2594 0.950 . S
C2571 C2588 1.574 . S
C2571 C2590 1.368 . S
C2571 H2595 0.949 . S
H2572 C2576 0.949 . S
C2573 C2574 1.349 . S
C2573 C2575 1.327 . S
C2573 H2596 0.950 . S
C2574 C2573 1.349 . S
C2574 C2586 1.349 . S
C2575 C2573 1.327 . S
C2575 C2591 1.429 . S
C2575 H2597 0.950 . S
C2576 H2572 0.949 . S
C2576 C2584 1.574 . S
C2576 C2592 1.368 . S
H2577 C2585 0.950 . S
H2578 C2583 0.950 . S
H2579 C2584 0.949 . S
H2580 C2586 0.950 . S
H2581 C2587 0.950 . S
H2582 C2588 0.949 . S
C2583 H2578 0.950 . S
C2583 C2585 1.327 . S
C2583 C2589 1.429 . S
C2584 C2576 1.574 . S
C2584 H2579 0.949 . S
C2584 C2590 1.368 . S
C2585 C2569 1.349 . S
C2585 H2577 0.950 . S
C2585 C2583 1.327 . S
C2586 C2574 1.349 . S
C2586 H2580 0.950 . S
C2586 C2587 1.327 . S
C2587 H2581 0.950 . S
C2587 C2586 1.327 . S
C2587 C2591 1.429 . S
C2588 C2571 1.574 . S
C2588 H2582 0.949 . S
C2588 C2592 1.368 . S
C2589 C2570 1.429 . S
C2589 C2583 1.429 . S
C2589 C2590 1.523 . S
C2590 C2571 1.368 . S
C2590 C2584 1.368 . S
C2590 C2589 1.523 . S
C2591 C2575 1.429 . S
C2591 C2587 1.429 . S
C2591 C2592 1.523 . S
C2592 C2576 1.368 . S
C2592 C2588 1.368 . S
C2592 C2591 1.523 . S
H2593 C2568 0.950 . S
H2594 C2570 0.950 . S
H2595 C2571 0.949 . S
H2596 C2573 0.950 . S
H2597 C2575 0.950 . S
C2598 C2599 1.349 . S
C2598 C2600 1.327 . S
C2598 H2623 0.950 . S
C2599 C2598 1.349 . S
C2599 C2615 1.349 . S
C2600 C2598 1.327 . S
C2600 C2619 1.429 . S
C2600 H2624 0.950 . S
C2601 C2618 1.574 . S
C2601 C2620 1.368 . S
C2601 H2625 0.949 . S
H2602 C2606 0.949 . S
C2603 C2604 1.349 . S
C2603 C2605 1.327 . S
C2603 H2626 0.950 . S
C2604 C2603 1.349 . S
C2604 C2616 1.349 . S
C2605 C2603 1.327 . S
C2605 C2621 1.429 . S
C2605 H2627 0.950 . S
C2606 H2602 0.949 . S
C2606 C2614 1.574 . S
C2606 C2622 1.368 . S
H2607 C2615 0.950 . S
H2608 C2613 0.950 . S
H2609 C2614 0.949 . S
H2610 C2616 0.950 . S
H2611 C2617 0.950 . S
H2612 C2618 0.949 . S
C2613 H2608 0.950 . S
C2613 C2615 1.327 . S
C2613 C2619 1.429 . S
C2614 C2606 1.574 . S
C2614 H2609 0.949 . S
C2614 C2620 1.368 . S
C2615 C2599 1.349 . S
C2615 H2607 0.950 . S
C2615 C2613 1.327 . S
C2616 C2604 1.349 . S
C2616 H2610 0.950 . S
C2616 C2617 1.327 . S
C2617 H2611 0.950 . S
C2617 C2616 1.327 . S
C2617 C2621 1.429 . S
C2618 C2601 1.574 . S
C2618 H2612 0.949 . S
C2618 C2622 1.368 . S
C2619 C2600 1.429 . S
C2619 C2613 1.429 . S
C2619 C2620 1.523 . S
C2620 C2601 1.368 . S
C2620 C2614 1.368 . S
C2620 C2619 1.523 . S
C2621 C2605 1.429 . S
C2621 C2617 1.429 . S
C2621 C2622 1.523 . S
C2622 C2606 1.368 . S
C2622 C2618 1.368 . S
C2622 C2621 1.523 . S
H2623 C2598 0.950 . S
H2624 C2600 0.950 . S
H2625 C2601 0.949 . S
H2626 C2603 0.950 . S
H2627 C2605 0.950 . S
C469 C75 1.663 . S
C474 C10 1.663 . S
C499 C43 1.663 . S
C504 C23 1.663 . S
C529 C30 1.662 . S
C534 C62 1.662 . S
C559 C82 1.663 . S
C564 C147 1.663 . S
C589 C101 1.663 . S
C594 C121 1.663 . S
C619 C140 1.662 . S
C624 C114 1.662 . S
C649 C160 1.663 . S
C654 C225 1.663 1_556 S
C679 C173 1.663 . S
C684 C199 1.663 1_556 S
C709 C192 1.663 . S
C714 C218 1.663 1_556 S
C739 C309 1.663 . S
C744 C244 1.663 1_556 S
C769 C257 1.663 1_556 S
C774 C283 1.663 . S
C799 C290 1.662 . S
C804 C264 1.663 1_556 S
C829 C381 1.663 . S
C834 C316 1.663 1_554 S
C859 C355 1.663 . S
C864 C335 1.663 1_554 S
C889 C368 1.663 . S
C894 C348 1.663 1_554 S
C919 C400 1.663 . S
C924 C465 1.663 1_554 S
C949 C413 1.663 . S
C954 C439 1.663 1_554 S
C979 C426 1.662 . S
C984 C446 1.662 1_554 S
C1009 C69 1.497 . S
C1014 C4 1.497 . S
C1039 C17 1.497 . S
C1044 C49 1.497 . S
C1069 C56 1.497 . S
C1074 C36 1.497 . S
C1099 C88 1.497 . S
C1104 C153 1.497 . S
C1129 C95 1.497 . S
C1134 C127 1.497 . S
C1159 C134 1.497 . S
C1164 C108 1.497 . S
C1189 C166 1.497 . S
C1194 C231 1.497 . S
C1219 C205 1.497 . S
C1224 C179 1.497 . S
C1249 C212 1.497 . S
C1254 C186 1.497 . S
C1279 C238 1.497 . S
C1284 C303 1.497 . S
C1309 C251 1.497 . S
C1314 C277 1.497 . S
C1339 C296 1.497 . S
C1344 C270 1.497 . S
C1369 C387 1.497 . S
C1374 C322 1.497 . S
C1399 C329 1.497 . S
C1404 C361 1.497 . S
C1429 C342 1.497 . S
C1434 C374 1.497 . S
C1459 C459 1.497 . S
C1464 C394 1.497 . S
C1489 C433 1.497 . S
C1494 C407 1.497 . S
C1519 C452 1.497 . S
C1524 C420 1.497 . S
C1549 C211 1.798 . S
C1554 C3 1.798 . S
C1579 C226 1.798 . S
C1584 C16 1.798 . S
C1609 C200 1.798 . S
C1614 C31 1.798 . S
C1639 C44 1.798 . S
C1644 C341 1.798 . S
C1669 C55 1.798 . S
C1674 C317 1.798 . S
C1699 C68 1.798 . S
C1704 C328 1.798 . S
C1729 C83 1.798 . S
C1734 C447 1.798 . S
C1759 C94 1.798 . S
C1764 C458 1.798 . S
C1789 C107 1.798 . S
C1794 C432 1.798 . S
C1819 C122 1.798 . S
C1824 C265 1.798 . S
C1849 C237 1.798 . S
C1854 C133 1.798 . S
C1879 C250 1.798 . S
C1884 C148 1.798 . S
C1909 C369 1.798 . S
C1914 C161 1.798 . S
C1939 C174 1.798 . S
C1944 C382 1.798 . S
C1969 C185 1.798 . S
C1974 C356 1.798 . S
C1999 C276 1.798 . S
C2004 C419 1.798 . S
C2029 C291 1.798 . S
C2034 C393 1.798 . S
C2059 C406 1.798 . S
C2064 C302 1.798 . S
C2089 C5 1.269 . S
C2094 C135 1.269 . S
C2119 C146 1.269 . S
C2124 C18 1.269 . S
C2149 C120 1.269 . S
C2154 C29 1.269 . S
C2179 C42 1.269 . S
C2184 C109 1.269 . S
C2209 C57 1.269 . S
C2214 C81 1.269 . S
C2239 C70 1.269 . S
C2244 C96 1.269 . S
C2269 C159 1.269 . S
C2274 C289 1.269 . S
C2299 C304 1.270 . S
C2304 C172 1.270 . S
C2329 C278 1.269 . S
C2334 C187 1.269 . S
C2359 C198 1.269 . S
C2364 C263 1.269 . S
C2389 C213 1.269 . S
C2394 C239 1.269 . S
C2419 C252 1.269 . S
C2424 C224 1.269 . S
C2449 C315 1.269 . S
C2454 C445 1.269 . S
C2479 C460 1.269 . S
C2484 C330 1.269 . S
C2509 C343 1.269 . S
C2514 C434 1.269 . S
C2539 C354 1.269 . S
C2544 C421 1.269 . S
C2569 C395 1.269 . S
C2574 C367 1.269 . S
C2599 C380 1.270 . S
C2604 C408 1.270 . S
