# Generated by pormake.
# Topology uoh, (4)-cn, num edge types: 1
# Building blocks:
#     Node 0, Type 0, BuildingBlock: QUQFOY_clean_sbu_3, # of connection points: 4
#     Node 1, Type 0, BuildingBlock: QUQFOY_clean_sbu_3, # of connection points: 4
#     Node 2, Type 0, BuildingBlock: QUQFOY_clean_sbu_3, # of connection points: 4
#     Node 3, Type 0, BuildingBlock: QUQFOY_clean_sbu_3, # of connection points: 4
#     Node 4, Type 0, BuildingBlock: QUQFOY_clean_sbu_3, # of connection points: 4
#     Node 5, Type 0, BuildingBlock: QUQFOY_clean_sbu_3, # of connection points: 4
#     Node 6, Type 0, BuildingBlock: QUQFOY_clean_sbu_3, # of connection points: 4
#     Node 7, Type 0, BuildingBlock: QUQFOY_clean_sbu_3, # of connection points: 4
#     Node 8, Type 0, BuildingBlock: QUQFOY_clean_sbu_3, # of connection points: 4
#     Node 9, Type 0, BuildingBlock: QUQFOY_clean_sbu_3, # of connection points: 4
#     Node 10, Type 0, BuildingBlock: QUQFOY_clean_sbu_3, # of connection points: 4
#     Node 11, Type 0, BuildingBlock: QUQFOY_clean_sbu_3, # of connection points: 4
#     Node 12, Type 0, BuildingBlock: QUQFOY_clean_sbu_3, # of connection points: 4
#     Node 13, Type 0, BuildingBlock: QUQFOY_clean_sbu_3, # of connection points: 4
#     Node 14, Type 0, BuildingBlock: QUQFOY_clean_sbu_3, # of connection points: 4
#     Node 15, Type 0, BuildingBlock: QUQFOY_clean_sbu_3, # of connection points: 4
#     Node 16, Type 0, BuildingBlock: QUQFOY_clean_sbu_3, # of connection points: 4
#     Node 17, Type 0, BuildingBlock: QUQFOY_clean_sbu_3, # of connection points: 4
#     Node 18, Type 0, BuildingBlock: QUQFOY_clean_sbu_3, # of connection points: 4
#     Node 19, Type 0, BuildingBlock: QUQFOY_clean_sbu_3, # of connection points: 4
#     Node 20, Type 0, BuildingBlock: QUQFOY_clean_sbu_3, # of connection points: 4
#     Node 21, Type 0, BuildingBlock: QUQFOY_clean_sbu_3, # of connection points: 4
#     Node 22, Type 0, BuildingBlock: QUQFOY_clean_sbu_3, # of connection points: 4
#     Node 23, Type 0, BuildingBlock: QUQFOY_clean_sbu_3, # of connection points: 4
#     Node 24, Type 0, BuildingBlock: QUQFOY_clean_sbu_3, # of connection points: 4
#     Node 25, Type 0, BuildingBlock: QUQFOY_clean_sbu_3, # of connection points: 4
#     Node 26, Type 0, BuildingBlock: QUQFOY_clean_sbu_3, # of connection points: 4
#     Node 27, Type 0, BuildingBlock: QUQFOY_clean_sbu_3, # of connection points: 4
#     Node 28, Type 0, BuildingBlock: QUQFOY_clean_sbu_3, # of connection points: 4
#     Node 29, Type 0, BuildingBlock: QUQFOY_clean_sbu_3, # of connection points: 4
#     Node 30, Type 0, BuildingBlock: QUQFOY_clean_sbu_3, # of connection points: 4
#     Node 31, Type 0, BuildingBlock: QUQFOY_clean_sbu_3, # of connection points: 4
#     Node 32, Type 0, BuildingBlock: QUQFOY_clean_sbu_3, # of connection points: 4
#     Node 33, Type 0, BuildingBlock: QUQFOY_clean_sbu_3, # of connection points: 4
#     Node 34, Type 0, BuildingBlock: QUQFOY_clean_sbu_3, # of connection points: 4
#     Node 35, Type 0, BuildingBlock: QUQFOY_clean_sbu_3, # of connection points: 4
#     Edge 36, Type (0, 0), BuildingBlock: UVAHIK_clean_linker_0, # of connection points: 2
#     Edge 37, Type (0, 0), BuildingBlock: UVAHIK_clean_linker_0, # of connection points: 2
#     Edge 38, Type (0, 0), BuildingBlock: UVAHIK_clean_linker_0, # of connection points: 2
#     Edge 39, Type (0, 0), BuildingBlock: UVAHIK_clean_linker_0, # of connection points: 2
#     Edge 40, Type (0, 0), BuildingBlock: UVAHIK_clean_linker_0, # of connection points: 2
#     Edge 41, Type (0, 0), BuildingBlock: UVAHIK_clean_linker_0, # of connection points: 2
#     Edge 42, Type (0, 0), BuildingBlock: UVAHIK_clean_linker_0, # of connection points: 2
#     Edge 43, Type (0, 0), BuildingBlock: UVAHIK_clean_linker_0, # of connection points: 2
#     Edge 44, Type (0, 0), BuildingBlock: UVAHIK_clean_linker_0, # of connection points: 2
#     Edge 45, Type (0, 0), BuildingBlock: UVAHIK_clean_linker_0, # of connection points: 2
#     Edge 46, Type (0, 0), BuildingBlock: UVAHIK_clean_linker_0, # of connection points: 2
#     Edge 47, Type (0, 0), BuildingBlock: UVAHIK_clean_linker_0, # of connection points: 2
#     Edge 48, Type (0, 0), BuildingBlock: UVAHIK_clean_linker_0, # of connection points: 2
#     Edge 49, Type (0, 0), BuildingBlock: UVAHIK_clean_linker_0, # of connection points: 2
#     Edge 50, Type (0, 0), BuildingBlock: UVAHIK_clean_linker_0, # of connection points: 2
#     Edge 51, Type (0, 0), BuildingBlock: UVAHIK_clean_linker_0, # of connection points: 2
#     Edge 52, Type (0, 0), BuildingBlock: UVAHIK_clean_linker_0, # of connection points: 2
#     Edge 53, Type (0, 0), BuildingBlock: UVAHIK_clean_linker_0, # of connection points: 2
#     Edge 54, Type (0, 0), BuildingBlock: UVAHIK_clean_linker_0, # of connection points: 2
#     Edge 55, Type (0, 0), BuildingBlock: UVAHIK_clean_linker_0, # of connection points: 2
#     Edge 56, Type (0, 0), BuildingBlock: UVAHIK_clean_linker_0, # of connection points: 2
#     Edge 57, Type (0, 0), BuildingBlock: UVAHIK_clean_linker_0, # of connection points: 2
#     Edge 58, Type (0, 0), BuildingBlock: UVAHIK_clean_linker_0, # of connection points: 2
#     Edge 59, Type (0, 0), BuildingBlock: UVAHIK_clean_linker_0, # of connection points: 2
#     Edge 60, Type (0, 0), BuildingBlock: UVAHIK_clean_linker_0, # of connection points: 2
#     Edge 61, Type (0, 0), BuildingBlock: UVAHIK_clean_linker_0, # of connection points: 2
#     Edge 62, Type (0, 0), BuildingBlock: UVAHIK_clean_linker_0, # of connection points: 2
#     Edge 63, Type (0, 0), BuildingBlock: UVAHIK_clean_linker_0, # of connection points: 2
#     Edge 64, Type (0, 0), BuildingBlock: UVAHIK_clean_linker_0, # of connection points: 2
#     Edge 65, Type (0, 0), BuildingBlock: UVAHIK_clean_linker_0, # of connection points: 2
#     Edge 66, Type (0, 0), BuildingBlock: UVAHIK_clean_linker_0, # of connection points: 2
#     Edge 67, Type (0, 0), BuildingBlock: UVAHIK_clean_linker_0, # of connection points: 2
#     Edge 68, Type (0, 0), BuildingBlock: UVAHIK_clean_linker_0, # of connection points: 2
#     Edge 69, Type (0, 0), BuildingBlock: UVAHIK_clean_linker_0, # of connection points: 2
#     Edge 70, Type (0, 0), BuildingBlock: UVAHIK_clean_linker_0, # of connection points: 2
#     Edge 71, Type (0, 0), BuildingBlock: UVAHIK_clean_linker_0, # of connection points: 2
#     Edge 72, Type (0, 0), BuildingBlock: UVAHIK_clean_linker_0, # of connection points: 2
#     Edge 73, Type (0, 0), BuildingBlock: UVAHIK_clean_linker_0, # of connection points: 2
#     Edge 74, Type (0, 0), BuildingBlock: UVAHIK_clean_linker_0, # of connection points: 2
#     Edge 75, Type (0, 0), BuildingBlock: UVAHIK_clean_linker_0, # of connection points: 2
#     Edge 76, Type (0, 0), BuildingBlock: UVAHIK_clean_linker_0, # of connection points: 2
#     Edge 77, Type (0, 0), BuildingBlock: UVAHIK_clean_linker_0, # of connection points: 2
#     Edge 78, Type (0, 0), BuildingBlock: UVAHIK_clean_linker_0, # of connection points: 2
#     Edge 79, Type (0, 0), BuildingBlock: UVAHIK_clean_linker_0, # of connection points: 2
#     Edge 80, Type (0, 0), BuildingBlock: UVAHIK_clean_linker_0, # of connection points: 2
#     Edge 81, Type (0, 0), BuildingBlock: UVAHIK_clean_linker_0, # of connection points: 2
#     Edge 82, Type (0, 0), BuildingBlock: UVAHIK_clean_linker_0, # of connection points: 2
#     Edge 83, Type (0, 0), BuildingBlock: UVAHIK_clean_linker_0, # of connection points: 2
#     Edge 84, Type (0, 0), BuildingBlock: UVAHIK_clean_linker_0, # of connection points: 2
#     Edge 85, Type (0, 0), BuildingBlock: UVAHIK_clean_linker_0, # of connection points: 2
#     Edge 86, Type (0, 0), BuildingBlock: UVAHIK_clean_linker_0, # of connection points: 2
#     Edge 87, Type (0, 0), BuildingBlock: UVAHIK_clean_linker_0, # of connection points: 2
#     Edge 88, Type (0, 0), BuildingBlock: UVAHIK_clean_linker_0, # of connection points: 2
#     Edge 89, Type (0, 0), BuildingBlock: UVAHIK_clean_linker_0, # of connection points: 2
#     Edge 90, Type (0, 0), BuildingBlock: UVAHIK_clean_linker_0, # of connection points: 2
#     Edge 91, Type (0, 0), BuildingBlock: UVAHIK_clean_linker_0, # of connection points: 2
#     Edge 92, Type (0, 0), BuildingBlock: UVAHIK_clean_linker_0, # of connection points: 2
#     Edge 93, Type (0, 0), BuildingBlock: UVAHIK_clean_linker_0, # of connection points: 2
#     Edge 94, Type (0, 0), BuildingBlock: UVAHIK_clean_linker_0, # of connection points: 2
#     Edge 95, Type (0, 0), BuildingBlock: UVAHIK_clean_linker_0, # of connection points: 2
#     Edge 96, Type (0, 0), BuildingBlock: UVAHIK_clean_linker_0, # of connection points: 2
#     Edge 97, Type (0, 0), BuildingBlock: UVAHIK_clean_linker_0, # of connection points: 2
#     Edge 98, Type (0, 0), BuildingBlock: UVAHIK_clean_linker_0, # of connection points: 2
#     Edge 99, Type (0, 0), BuildingBlock: UVAHIK_clean_linker_0, # of connection points: 2
#     Edge 100, Type (0, 0), BuildingBlock: UVAHIK_clean_linker_0, # of connection points: 2
#     Edge 101, Type (0, 0), BuildingBlock: UVAHIK_clean_linker_0, # of connection points: 2
#     Edge 102, Type (0, 0), BuildingBlock: UVAHIK_clean_linker_0, # of connection points: 2
#     Edge 103, Type (0, 0), BuildingBlock: UVAHIK_clean_linker_0, # of connection points: 2
#     Edge 104, Type (0, 0), BuildingBlock: UVAHIK_clean_linker_0, # of connection points: 2
#     Edge 105, Type (0, 0), BuildingBlock: UVAHIK_clean_linker_0, # of connection points: 2
#     Edge 106, Type (0, 0), BuildingBlock: UVAHIK_clean_linker_0, # of connection points: 2
#     Edge 107, Type (0, 0), BuildingBlock: UVAHIK_clean_linker_0, # of connection points: 2
# Relax obj value: 0.091
# Max RMSD: 0.145
# Mean RMSD: 0.145
data_MOF--net-uoh--node1-QUQFOY_clean_sbu_3--edge1-UVAHIK_clean_linker_0
_symmetry_space_group_name_H-M    P1
_symmetry_Int_Tables_number       1
_symmetry_cell_setting            triclinic
loop_
_symmetry_equiv_pos_as_xyz
'x, y, z'
_cell_length_a     115.1476
_cell_length_b     115.23461
_cell_length_c     36.252164
_cell_angle_alpha  90.048667
_cell_angle_beta   90.050253
_cell_angle_gamma 119.99932
loop_
_atom_site_label
_atom_site_type_symbol
_atom_site_fract_x
_atom_site_fract_y
_atom_site_fract_z
_atom_type_partial_charge
C0 C 0.22089 0.10352 0.17913 0.0
O1 O 0.22374 0.09762 0.20408 0.0
Cd2 Cd 0.23536 0.10894 0.25905 0.0
O3 O 0.22413 0.11577 0.18277 0.0
Cd4 Cd 0.23496 0.13412 0.22809 0.0
C5 C 0.26443 0.13436 0.22234 0.0
O6 O 0.2237 0.12003 0.28089 0.0
O7 O 0.2393 0.14026 0.29308 0.0
O8 O 0.21823 0.14007 0.21168 0.0
C9 C 0.22955 0.12932 0.30442 0.0
O10 O 0.25873 0.12347 0.24055 0.0
C11 C 0.22629 0.15258 0.20918 0.0
O12 O 0.25793 0.14013 0.21276 0.0
O13 O 0.23868 0.15651 0.21312 0.0
C14 C 0.88995 0.11458 0.15804 0.0
O15 O 0.89598 0.12521 0.17721 0.0
Cd16 Cd 0.8853 0.12932 0.22825 0.0
O17 O 0.87775 0.10594 0.16443 0.0
Cd18 Cd 0.85969 0.10229 0.20723 0.0
C19 C 0.85959 0.1309 0.18624 0.0
O20 O 0.87415 0.10844 0.2613 0.0
O21 O 0.85365 0.10351 0.27079 0.0
O22 O 0.85295 0.07884 0.20207 0.0
C23 C 0.86486 0.10603 0.28402 0.0
O24 O 0.8707 0.13711 0.20341 0.0
C25 C 0.84059 0.07465 0.1967 0.0
O26 O 0.85379 0.11826 0.18193 0.0
O27 O 0.83706 0.08345 0.19458 0.0
C28 C 0.88128 0.77848 0.17492 0.0
O29 O 0.87099 0.77403 0.19536 0.0
Cd30 Cd 0.86905 0.7617 0.25033 0.0
O31 O 0.89064 0.776 0.18223 0.0
Cd32 Cd 0.89587 0.76387 0.22894 0.0
C33 C 0.86786 0.73401 0.21342 0.0
O34 O 0.89062 0.77402 0.28018 0.0
O35 O 0.89527 0.75856 0.29411 0.0
O36 O 0.91921 0.78079 0.22028 0.0
C37 C 0.89374 0.76821 0.3046 0.0
O38 O 0.86154 0.73871 0.23088 0.0
C39 C 0.9236 0.77265 0.21908 0.0
O40 O 0.88033 0.74132 0.20708 0.0
O41 O 0.91494 0.76026 0.22019 0.0
C42 C 0.11589 0.22759 0.30981 0.0
O43 O 0.10798 0.22862 0.28737 0.0
Cd44 Cd 0.11307 0.23355 0.22345 0.0
O45 O 0.12715 0.22925 0.29907 0.0
Cd46 Cd 0.1404 0.23448 0.2421 0.0
C47 C 0.14118 0.26427 0.23463 0.0
O48 O 0.12126 0.21892 0.20522 0.0
O49 O 0.13967 0.23122 0.17558 0.0
O50 O 0.14808 0.21987 0.26624 0.0
C51 C 0.12777 0.22142 0.1754 0.0
O52 O 0.12908 0.2576 0.22362 0.0
C53 C 0.16026 0.22729 0.25709 0.0
O54 O 0.14748 0.25831 0.2444 0.0
O55 O 0.16341 0.23852 0.24261 0.0
C56 C 0.78052 0.90341 0.33602 0.0
O57 O 0.78023 0.89309 0.32259 0.0
Cd58 Cd 0.76929 0.88321 0.26579 0.0
O59 O 0.77529 0.90927 0.31866 0.0
Cd60 Cd 0.7644 0.90829 0.25939 0.0
C61 C 0.73772 0.87867 0.28358 0.0
O62 O 0.77804 0.90173 0.22442 0.0
O63 O 0.76115 0.90063 0.19542 0.0
O64 O 0.77898 0.93214 0.26223 0.0
C65 C 0.7716 0.89959 0.19457 0.0
O66 O 0.74525 0.87367 0.27797 0.0
C67 C 0.77037 0.93532 0.25241 0.0
O68 O 0.7423 0.89123 0.28054 0.0
O69 O 0.7586 0.92578 0.24563 0.0
C70 C 0.10982 0.88108 0.29978 0.0
O71 O 0.11776 0.88813 0.27423 0.0
Cd72 Cd 0.11693 0.87876 0.21451 0.0
O73 O 0.10065 0.86906 0.2936 0.0
Cd74 Cd 0.09105 0.85257 0.24336 0.0
C75 C 0.12001 0.85179 0.24169 0.0
O76 O 0.09394 0.86853 0.19532 0.0
O77 O 0.08767 0.84832 0.17752 0.0
O78 O 0.06945 0.84735 0.26791 0.0
C79 C 0.08983 0.85994 0.16957 0.0
O80 O 0.1252 0.86321 0.22615 0.0
C81 C 0.06423 0.83472 0.26583 0.0
O82 O 0.1078 0.84579 0.25187 0.0
O83 O 0.07177 0.83028 0.25499 0.0
C84 C 0.778 0.87708 0.83526 0.0
O85 O 0.77744 0.88692 0.82152 0.0
Cd86 Cd 0.76722 0.88569 0.76339 0.0
O87 O 0.7734 0.86609 0.81766 0.0
Cd88 Cd 0.7636 0.85622 0.75736 0.0
C89 C 0.73576 0.85785 0.77625 0.0
O90 O 0.7772 0.8767 0.72348 0.0
O91 O 0.76115 0.8607 0.69266 0.0
O92 O 0.77925 0.84827 0.76207 0.0
C93 C 0.77129 0.87239 0.69291 0.0
O94 O 0.74315 0.87045 0.77174 0.0
C95 C 0.77138 0.83637 0.75138 0.0
O96 O 0.74071 0.85014 0.77447 0.0
O97 O 0.75945 0.8334 0.74345 0.0
C98 C 0.11268 0.89101 0.80164 0.0
O99 O 0.10708 0.88276 0.77537 0.0
Cd100 Cd 0.11937 0.88212 0.72332 0.0
O101 O 0.12512 0.89972 0.80024 0.0
Cd102 Cd 0.14434 0.90741 0.75747 0.0
C103 C 0.14329 0.87789 0.76912 0.0
O104 O 0.13169 0.90475 0.70172 0.0
O105 O 0.15149 0.90753 0.69379 0.0
O106 O 0.14952 0.9298 0.77414 0.0
C107 C 0.14112 0.90696 0.6798 0.0
O108 O 0.13304 0.87307 0.74812 0.0
C109 C 0.16211 0.93469 0.7765 0.0
O110 O 0.1492 0.89018 0.7786 0.0
O111 O 0.16651 0.92664 0.77199 0.0
C112 C 0.1084 0.22148 0.82544 0.0
O113 O 0.11916 0.22538 0.80731 0.0
Cd114 Cd 0.12536 0.24057 0.7567 0.0
O115 O 0.1004 0.22573 0.8175 0.0
Cd116 Cd 0.09792 0.24027 0.77203 0.0
C117 C 0.12647 0.26816 0.79773 0.0
O118 O 0.10537 0.23206 0.72086 0.0
O119 O 0.10174 0.24833 0.7086 0.0
O120 O 0.07479 0.22277 0.77216 0.0
C121 C 0.10443 0.23956 0.697 0.0
O122 O 0.13242 0.26262 0.78245 0.0
C123 C 0.06975 0.23034 0.77337 0.0
O124 O 0.11371 0.26203 0.79992 0.0
O125 O 0.0779 0.24285 0.77609 0.0
C126 C 0.89666 0.7788 0.6768 0.0
O127 O 0.90244 0.77484 0.69916 0.0
Cd128 Cd 0.89172 0.76367 0.75533 0.0
O129 O 0.88467 0.77618 0.68231 0.0
Cd130 Cd 0.8665 0.76453 0.72708 0.0
C131 C 0.86595 0.73479 0.72088 0.0
O132 O 0.88149 0.77616 0.77812 0.0
O133 O 0.86114 0.76152 0.79265 0.0
O134 O 0.85933 0.78027 0.70868 0.0
C135 C 0.87247 0.77108 0.80256 0.0
O136 O 0.87685 0.74014 0.73918 0.0
C137 C 0.84692 0.77167 0.70698 0.0
O138 O 0.8606 0.74168 0.7114 0.0
O139 O 0.84364 0.75957 0.71306 0.0
C140 C 0.22569 0.119 0.68204 0.0
O141 O 0.22976 0.12863 0.7048 0.0
Cd142 Cd 0.2416 0.12896 0.75959 0.0
O143 O 0.22815 0.10951 0.6872 0.0
Cd144 Cd 0.23958 0.10275 0.7322 0.0
C145 C 0.26956 0.131 0.72132 0.0
O146 O 0.22945 0.10683 0.78622 0.0
O147 O 0.24468 0.10141 0.79621 0.0
O148 O 0.22215 0.08004 0.71848 0.0
C149 C 0.23524 0.10292 0.80865 0.0
O150 O 0.2646 0.13683 0.73997 0.0
C151 C 0.22986 0.07514 0.71685 0.0
O152 O 0.26243 0.11867 0.71289 0.0
O153 O 0.24235 0.08333 0.71974 0.0
C154 C 0.88657 0.10812 0.66727 0.0
O155 O 0.87832 0.10071 0.69178 0.0
Cd156 Cd 0.87904 0.10813 0.75377 0.0
O157 O 0.89578 0.11999 0.67496 0.0
Cd158 Cd 0.90405 0.13524 0.7284 0.0
C159 C 0.87427 0.13458 0.73571 0.0
O160 O 0.90225 0.11825 0.77171 0.0
O161 O 0.90739 0.13753 0.7947 0.0
O162 O 0.92655 0.14367 0.7043 0.0
C163 C 0.90621 0.1261 0.7992 0.0
O164 O 0.86944 0.12285 0.74906 0.0
C165 C 0.93031 0.15596 0.70918 0.0
O166 O 0.88641 0.14104 0.72497 0.0
O167 O 0.92158 0.15867 0.72121 0.0
C168 C 0.89397 0.44727 0.49909 0.0
O169 O 0.89811 0.44175 0.52177 0.0
Cd170 Cd 0.91025 0.45307 0.57634 0.0
O171 O 0.89634 0.45918 0.50443 0.0
Cd172 Cd 0.9074 0.47744 0.54986 0.0
C173 C 0.93768 0.4799 0.53777 0.0
O174 O 0.8979 0.46275 0.603 0.0
O175 O 0.91212 0.48354 0.6146 0.0
O176 O 0.88937 0.48165 0.53464 0.0
C177 C 0.90348 0.47209 0.6265 0.0
O178 O 0.93289 0.46893 0.55549 0.0
C179 C 0.89657 0.49431 0.5336 0.0
O180 O 0.9304 0.48502 0.53035 0.0
O181 O 0.90909 0.49922 0.53835 0.0
C182 C 0.55906 0.44903 0.5022 0.0
O183 O 0.56484 0.45923 0.52309 0.0
Cd184 Cd 0.55412 0.46134 0.57715 0.0
O185 O 0.54701 0.43986 0.50819 0.0
Cd186 Cd 0.52868 0.43414 0.55216 0.0
C187 C 0.52763 0.46284 0.53983 0.0
O188 O 0.5439 0.43924 0.60348 0.0
O189 O 0.5234 0.43298 0.61786 0.0
O190 O 0.52254 0.41124 0.53795 0.0
C191 C 0.53504 0.4358 0.62822 0.0
O192 O 0.5388 0.46894 0.55678 0.0
C193 C 0.51004 0.40685 0.53515 0.0
O194 O 0.52216 0.45035 0.53312 0.0
O195 O 0.50615 0.41533 0.53893 0.0
C196 C 0.5581 0.10999 0.50926 0.0
O197 O 0.54925 0.10678 0.53413 0.0
Cd198 Cd 0.54979 0.09626 0.59042 0.0
O199 O 0.56759 0.10742 0.5129 0.0
Cd200 Cd 0.57591 0.09697 0.55714 0.0
C201 C 0.54641 0.06738 0.55324 0.0
O202 O 0.57298 0.10863 0.60837 0.0
O203 O 0.57928 0.09446 0.62289 0.0
O204 O 0.59798 0.11288 0.53329 0.0
C205 C 0.57697 0.10365 0.63298 0.0
O206 O 0.54124 0.07289 0.57244 0.0
C207 C 0.60225 0.10465 0.53206 0.0
O208 O 0.55858 0.07405 0.54289 0.0
O209 O 0.59409 0.09265 0.54149 0.0
C210 C 0.77205 0.55266 0.63698 0.0
O211 O 0.76621 0.55717 0.6167 0.0
Cd212 Cd 0.77645 0.56977 0.56208 0.0
O213 O 0.78396 0.55529 0.62994 0.0
Cd214 Cd 0.80159 0.56765 0.584 0.0
C215 C 0.80329 0.59752 0.59878 0.0
O216 O 0.78588 0.55752 0.53352 0.0
O217 O 0.80608 0.57235 0.51833 0.0
O218 O 0.80762 0.55058 0.59486 0.0
C219 C 0.79458 0.56311 0.50847 0.0
O220 O 0.79218 0.59267 0.58164 0.0
C221 C 0.8202 0.5585 0.59475 0.0
O222 O 0.80857 0.59031 0.60528 0.0
O223 O 0.8242 0.57091 0.59182 0.0
C224 C 0.44759 0.23322 0.65947 0.0
O225 O 0.4472 0.22266 0.64762 0.0
Cd226 Cd 0.4377 0.21319 0.58894 0.0
O227 O 0.44331 0.23942 0.63968 0.0
Cd228 Cd 0.43426 0.23883 0.57804 0.0
C229 C 0.40635 0.20981 0.59952 0.0
O230 O 0.44824 0.23166 0.54728 0.0
O231 O 0.43223 0.23099 0.51459 0.0
O232 O 0.44947 0.26257 0.58066 0.0
C233 C 0.44256 0.22975 0.51621 0.0
O234 O 0.41348 0.20427 0.5959 0.0
C235 C 0.44126 0.26612 0.56967 0.0
O236 O 0.41154 0.22245 0.59638 0.0
O237 O 0.42943 0.25683 0.56211 0.0
C238 C 0.76797 0.2127 0.67324 0.0
O239 O 0.77966 0.22228 0.66611 0.0
Cd240 Cd 0.79279 0.22185 0.61572 0.0
O241 O 0.76259 0.20227 0.653 0.0
Cd242 Cd 0.76781 0.19402 0.59607 0.0
C243 C 0.79429 0.19335 0.63395 0.0
O244 O 0.77812 0.21534 0.56372 0.0
O245 O 0.78008 0.19954 0.53771 0.0
O246 O 0.74515 0.18696 0.57711 0.0
C247 C 0.78158 0.2112 0.53578 0.0
O248 O 0.80036 0.20606 0.63102 0.0
C249 C 0.74154 0.17477 0.57134 0.0
O250 O 0.78195 0.1863 0.62528 0.0
O251 O 0.7502 0.17123 0.57756 0.0
C252 C 0.44859 0.21359 0.16478 0.0
O253 O 0.44662 0.2231 0.15563 0.0
Cd254 Cd 0.43385 0.22236 0.10289 0.0
O255 O 0.44379 0.20295 0.14545 0.0
Cd256 Cd 0.43118 0.1941 0.08755 0.0
C257 C 0.40352 0.19388 0.11942 0.0
O258 O 0.44263 0.21511 0.0543 0.0
O259 O 0.42511 0.1992 0.02758 0.0
O260 O 0.44687 0.1868 0.07188 0.0
C261 C 0.4353 0.21085 0.02585 0.0
O262 O 0.4102 0.20657 0.1156 0.0
C263 C 0.43828 0.17457 0.06673 0.0
O264 O 0.40897 0.18678 0.11345 0.0
O265 O 0.42606 0.17113 0.07186 0.0
C266 C 0.7833 0.23416 0.16735 0.0
O267 O 0.77257 0.22385 0.15691 0.0
Cd268 Cd 0.77042 0.21386 0.09755 0.0
O269 O 0.79321 0.24 0.1455 0.0
Cd270 Cd 0.79893 0.23821 0.08122 0.0
C271 C 0.79752 0.209 0.10049 0.0
O272 O 0.77713 0.23132 0.05264 0.0
O273 O 0.79139 0.22865 0.02048 0.0
O274 O 0.80991 0.26248 0.08077 0.0
C275 C 0.78022 0.22827 0.02206 0.0
O276 O 0.78481 0.20372 0.09902 0.0
C277 C 0.82059 0.26433 0.06532 0.0
O278 O 0.80509 0.22162 0.09741 0.0
O279 O 0.82125 0.25397 0.05698 0.0
C280 C 0.78028 0.55539 0.13154 0.0
O281 O 0.79017 0.55888 0.11003 0.0
Cd282 Cd 0.79132 0.56885 0.05137 0.0
O283 O 0.77091 0.55778 0.12349 0.0
Cd284 Cd 0.76518 0.56847 0.07363 0.0
C285 C 0.79423 0.59825 0.07972 0.0
O286 O 0.76882 0.5553 0.02761 0.0
O287 O 0.76354 0.5696 0.00688 0.0
O288 O 0.74222 0.55411 0.09518 0.0
C289 C 0.76507 0.55963 0.00076 0.0
O290 O 0.80001 0.59271 0.06361 0.0
C291 C 0.73845 0.5625 0.08803 0.0
O292 O 0.78188 0.59146 0.08803 0.0
O293 O 0.74727 0.57384 0.07592 0.0
C294 C 0.55626 0.10837 0.01047 0.0
O295 O 0.56204 0.10543 0.03561 0.0
Cd296 Cd 0.55147 0.09606 0.09338 0.0
O297 O 0.54431 0.10608 0.01464 0.0
Cd298 Cd 0.52606 0.09662 0.06047 0.0
C299 C 0.52541 0.06674 0.0605 0.0
O300 O 0.54121 0.10909 0.11015 0.0
O301 O 0.52083 0.09531 0.12638 0.0
O302 O 0.51979 0.11222 0.03489 0.0
C303 C 0.53242 0.10463 0.13529 0.0
O304 O 0.53627 0.0724 0.079 0.0
C305 C 0.50726 0.104 0.03466 0.0
O306 O 0.52003 0.07342 0.04925 0.0
O307 O 0.50347 0.09216 0.04544 0.0
C308 C 0.89015 0.44531 0.00443 0.0
O309 O 0.89123 0.45291 0.03119 0.0
Cd310 Cd 0.89887 0.45106 0.09109 0.0
O311 O 0.89318 0.43615 0.00835 0.0
Cd312 Cd 0.90131 0.42672 0.05624 0.0
C313 C 0.9301 0.45669 0.06739 0.0
O314 O 0.88664 0.42738 0.10317 0.0
O315 O 0.90047 0.42113 0.12154 0.0
O316 O 0.88783 0.40531 0.02504 0.0
C317 C 0.89069 0.42286 0.12889 0.0
O318 O 0.92318 0.46101 0.08353 0.0
C319 C 0.89656 0.4017 0.02747 0.0
O320 O 0.92451 0.44489 0.05406 0.0
O321 O 0.90772 0.40997 0.04206 0.0
C322 C 0.55534 0.44328 0.00899 0.0
O323 O 0.54612 0.43653 0.03212 0.0
Cd324 Cd 0.54619 0.44489 0.0926 0.0
O325 O 0.56476 0.45505 0.01673 0.0
Cd326 Cd 0.57168 0.471 0.06831 0.0
C327 C 0.5424 0.47142 0.06984 0.0
O328 O 0.56911 0.45423 0.11353 0.0
O329 O 0.57434 0.47377 0.13472 0.0
O330 O 0.59438 0.47971 0.04459 0.0
C331 C 0.57307 0.46235 0.14039 0.0
O332 O 0.53705 0.45991 0.08483 0.0
C333 C 0.59806 0.49189 0.05121 0.0
O334 O 0.55459 0.47724 0.0597 0.0
O335 O 0.58925 0.49434 0.06398 0.0
C336 C 0.54973 0.78533 0.8029 0.0
O337 O 0.55089 0.77545 0.81335 0.0
Cd338 Cd 0.56379 0.77602 0.86549 0.0
O339 O 0.55527 0.79626 0.82104 0.0
Cd340 Cd 0.56808 0.80498 0.87884 0.0
C341 C 0.59477 0.80348 0.84676 0.0
O342 O 0.55649 0.78449 0.91464 0.0
O343 O 0.575 0.80028 0.93774 0.0
O344 O 0.55313 0.81295 0.89646 0.0
C345 C 0.56452 0.78893 0.94167 0.0
O346 O 0.5875 0.79086 0.85096 0.0
C347 C 0.56201 0.82515 0.90055 0.0
O348 O 0.59001 0.81119 0.85274 0.0
O349 O 0.57405 0.82829 0.89357 0.0
C350 C 0.21586 0.77767 0.83882 0.0
O351 O 0.22273 0.78653 0.8628 0.0
Cd352 Cd 0.21485 0.78581 0.92402 0.0
O353 O 0.20413 0.76808 0.84621 0.0
Cd354 Cd 0.18795 0.75954 0.89757 0.0
C355 C 0.18749 0.78884 0.90235 0.0
O356 O 0.20559 0.76262 0.93921 0.0
O357 O 0.18635 0.75567 0.96473 0.0
O358 O 0.18136 0.7382 0.86823 0.0
C359 C 0.1984 0.75832 0.96775 0.0
O360 O 0.19908 0.79397 0.91696 0.0
C361 C 0.16894 0.73289 0.8753 0.0
O362 O 0.18144 0.77669 0.8915 0.0
O363 O 0.16517 0.74022 0.89153 0.0
C364 C 0.22984 0.44675 0.81892 0.0
O365 O 0.22197 0.44705 0.84293 0.0
Cd366 Cd 0.22059 0.43932 0.90472 0.0
O367 O 0.23792 0.44262 0.82728 0.0
Cd368 Cd 0.24462 0.43459 0.88197 0.0
C369 C 0.21349 0.40716 0.88684 0.0
O370 O 0.24354 0.45034 0.9246 0.0
O371 O 0.2464 0.43489 0.94899 0.0
O372 O 0.26745 0.44691 0.85829 0.0
C373 C 0.24596 0.44558 0.95313 0.0
O374 O 0.20936 0.41477 0.89945 0.0
C375 C 0.27024 0.43778 0.86522 0.0
O376 O 0.22566 0.41196 0.87711 0.0
O377 O 0.26091 0.42693 0.8786 0.0
C378 C 0.44409 0.88818 0.97298 0.0
O379 O 0.4383 0.89162 0.94914 0.0
Cd380 Cd 0.44896 0.90266 0.89302 0.0
O381 O 0.45623 0.89103 0.96879 0.0
Cd382 Cd 0.47489 0.90246 0.9247 0.0
C383 C 0.4743 0.93172 0.92967 0.0
O384 O 0.45993 0.89053 0.8744 0.0
O385 O 0.48027 0.90461 0.85858 0.0
O386 O 0.48189 0.88721 0.94874 0.0
C387 C 0.46868 0.8954 0.84924 0.0
O388 O 0.46352 0.92609 0.91085 0.0
C389 C 0.49435 0.8957 0.94864 0.0
O390 O 0.48001 0.92519 0.93949 0.0
O391 O 0.49776 0.90751 0.93842 0.0
C392 C 0.11573 0.56264 0.00392 0.0
O393 O 0.11298 0.55083 -0.0045 0.0
Cd394 Cd 0.09832 0.53865 0.94564 0.0
O395 O 0.11057 0.56844 0.98599 0.0
Cd396 Cd 0.09588 0.56444 0.93245 0.0
C397 C 0.06895 0.53764 0.97001 0.0
O398 O 0.10605 0.55434 0.89603 0.0
O399 O 0.08835 0.55339 0.87247 0.0
O400 O 0.11155 0.58704 0.91402 0.0
C401 C 0.09832 0.55164 0.86859 0.0
O402 O 0.07534 0.53143 0.96449 0.0
C403 C 0.10333 0.5913 0.91305 0.0
O404 O 0.07433 0.5501 0.96285 0.0
O405 O 0.09125 0.58302 0.92165 0.0
C406 C 0.43671 0.5496 0.00722 0.0
O407 O 0.44805 0.55926 -0.00231 0.0
Cd408 Cd 0.45946 0.558 0.94417 0.0
O409 O 0.43113 0.53876 0.98865 0.0
Cd410 Cd 0.43452 0.52871 0.93277 0.0
C411 C 0.46305 0.53084 0.96528 0.0
O412 O 0.44204 0.5493 0.89858 0.0
O413 O 0.44338 0.53363 0.86983 0.0
O414 O 0.41031 0.51805 0.93402 0.0
C415 C 0.44447 0.54512 0.86897 0.0
O416 O 0.46862 0.5434 0.95953 0.0
C417 C 0.40801 0.50687 0.9211 0.0
O418 O 0.45053 0.52325 0.9599 0.0
O419 O 0.41814 0.50571 0.91327 0.0
C420 C 0.11588 0.55199 0.49502 0.0
O421 O 0.11629 0.56254 0.48308 0.0
Cd422 Cd 0.10817 0.56336 0.42297 0.0
O423 O 0.11134 0.54157 0.47487 0.0
Cd424 Cd 0.10253 0.53375 0.41272 0.0
C425 C 0.07575 0.53741 0.43067 0.0
O426 O 0.1185 0.55456 0.38279 0.0
O427 O 0.10206 0.54026 0.34915 0.0
O428 O 0.11457 0.52155 0.41843 0.0
C429 C 0.11311 0.55117 0.35126 0.0
O430 O 0.08355 0.54999 0.42706 0.0
C431 C 0.10543 0.51072 0.40437 0.0
O432 O 0.08029 0.52938 0.42875 0.0
O433 O 0.09482 0.51054 0.39386 0.0
C434 C 0.4487 0.5665 0.50556 0.0
O435 O 0.43853 0.55552 0.49584 0.0
Cd436 Cd 0.43732 0.54439 0.439 0.0
O437 O 0.45894 0.57226 0.48479 0.0
Cd438 Cd 0.46611 0.56874 0.42412 0.0
C439 C 0.46403 0.53936 0.4481 0.0
O440 O 0.44493 0.56152 0.39283 0.0
O441 O 0.45958 0.5587 0.363 0.0
O442 O 0.47676 0.59235 0.40883 0.0
C443 C 0.44844 0.55846 0.36299 0.0
O444 O 0.45134 0.53397 0.44554 0.0
C445 C 0.48859 0.59425 0.40694 0.0
O446 O 0.47156 0.55192 0.44379 0.0
O447 O 0.49007 0.58422 0.41306 0.0
C448 C 0.44567 0.8911 0.47157 0.0
O449 O 0.45481 0.8936 0.44808 0.0
Cd450 Cd 0.45562 0.90308 0.38897 0.0
O451 O 0.43656 0.89403 0.46511 0.0
Cd452 Cd 0.43047 0.90459 0.41529 0.0
C453 C 0.4607 0.93335 0.41804 0.0
O454 O 0.43266 0.89074 0.36853 0.0
O455 O 0.42839 0.90582 0.34846 0.0
O456 O 0.40746 0.89116 0.43752 0.0
C457 C 0.4293 0.89552 0.34188 0.0
O458 O 0.46558 0.92711 0.40094 0.0
C459 C 0.40439 0.90017 0.43174 0.0
O460 O 0.44847 0.92728 0.42787 0.0
O461 O 0.41367 0.91141 0.42033 0.0
C462 C 0.21488 0.44481 0.31283 0.0
O463 O 0.22242 0.44319 0.33527 0.0
Cd464 Cd 0.21403 0.42999 0.38955 0.0
O465 O 0.20237 0.43966 0.31911 0.0
Cd466 Cd 0.18586 0.42684 0.36805 0.0
C467 C 0.18969 0.4 0.35258 0.0
O468 O 0.20167 0.4395 0.41627 0.0
O469 O 0.18312 0.4227 0.43495 0.0
O470 O 0.17668 0.44086 0.34936 0.0
C471 C 0.19411 0.43311 0.44293 0.0
O472 O 0.20105 0.40658 0.3684 0.0
C473 C 0.16451 0.43213 0.35504 0.0
O474 O 0.18235 0.40523 0.34769 0.0
O475 O 0.16214 0.42067 0.36578 0.0
C476 C 0.55915 0.76787 0.31289 0.0
O477 O 0.55883 0.77773 0.32752 0.0
Cd478 Cd 0.56717 0.78507 0.3885 0.0
O479 O 0.56356 0.76139 0.33084 0.0
Cd480 Cd 0.57199 0.75959 0.3914 0.0
C481 C 0.59932 0.79016 0.37856 0.0
O482 O 0.55681 0.76475 0.42321 0.0
O483 O 0.57156 0.76379 0.45768 0.0
O484 O 0.55777 0.7363 0.37722 0.0
C485 C 0.56144 0.76535 0.4552 0.0
O486 O 0.59154 0.79493 0.38303 0.0
C487 C 0.56581 0.73242 0.38736 0.0
O488 O 0.59475 0.77755 0.37883 0.0
O489 O 0.57705 0.74129 0.40042 0.0
C490 C 0.22766 0.78073 0.33019 0.0
O491 O 0.2181 0.7738 0.35227 0.0
Cd492 Cd 0.21429 0.78226 0.40818 0.0
O493 O 0.23584 0.7931 0.33651 0.0
Cd494 Cd 0.23963 0.81004 0.38411 0.0
C495 C 0.20878 0.80651 0.37145 0.0
O496 O 0.23639 0.7946 0.43358 0.0
O497 O 0.23928 0.81381 0.45042 0.0
O498 O 0.26309 0.81974 0.36661 0.0
C499 C 0.2382 0.8027 0.45943 0.0
O500 O 0.20407 0.79545 0.38874 0.0
C501 C 0.26603 0.8318 0.37199 0.0
O502 O 0.22126 0.81344 0.3645 0.0
O503 O 0.25651 0.83377 0.38101 0.0
C504 C 0.22212 0.10315 0.86301 0.0
C505 C 0.23 0.09854 0.84608 0.0
C506 C 0.21697 0.09877 0.89831 0.0
C507 C 0.22372 0.08477 0.98137 0.0
H508 H 0.19163 0.08427 0.01616 0.0
C509 C 0.21506 0.08481 0.13456 0.0
C510 C 0.21496 0.09659 0.14402 0.0
C511 C 0.21209 0.07986 0.09856 0.0
C512 C 0.20049 0.08416 0.00668 0.0
H513 H 0.23812 0.08522 0.85161 0.0
H514 H 0.22879 0.07724 0.91266 0.0
H515 H 0.19616 0.08555 0.94999 0.0
H516 H 0.21012 0.11149 0.12462 0.0
H517 H 0.20503 0.10292 0.06189 0.0
H518 H 0.22828 0.08383 0.03791 0.0
C519 C 0.22694 0.08457 0.89939 0.0
C520 C 0.20317 0.08503 0.9689 0.0
C521 C 0.2323 0.08916 0.86444 0.0
C522 C 0.2105 0.10251 0.11797 0.0
C523 C 0.20742 0.09751 0.08211 0.0
C524 C 0.22095 0.08373 0.01896 0.0
C525 C 0.2194 0.08949 0.91705 0.0
C526 C 0.21512 0.08594 0.95598 0.0
C527 C 0.20885 0.08655 0.07165 0.0
C528 C 0.20962 0.08399 0.03207 0.0
H529 H 0.22015 0.11034 0.84928 0.0
H530 H 0.21144 0.10299 0.91127 0.0
H531 H 0.23309 0.08561 0.97264 0.0
H532 H 0.21831 0.07993 0.15418 0.0
H533 H 0.21314 0.07132 0.09118 0.0
C534 C 0.90516 0.10859 0.84203 0.0
C535 C 0.90917 0.12207 0.83491 0.0
C536 C 0.90713 0.10473 0.87692 0.0
C537 C 0.90086 0.10037 0.95892 0.0
H538 H 0.93103 0.12251 0.0227 0.0
C539 C 0.90756 0.1234 0.10924 0.0
C540 C 0.89681 0.11245 0.12671 0.0
C541 C 0.91257 0.12161 0.076 0.0
C542 C 0.92254 0.11615 0.00526 0.0
H543 H 0.91919 0.14218 0.85764 0.0
H544 H 0.92254 0.13544 0.91846 0.0
H545 H 0.93364 0.12505 0.95583 0.0
H546 H 0.88388 0.09086 0.12567 0.0
H547 H 0.89291 0.08766 0.06824 0.0
H548 H 0.88936 0.09232 0.00771 0.0
C549 C 0.91795 0.12787 0.89717 0.0
C550 C 0.92407 0.11757 0.96704 0.0
C551 C 0.91585 0.1317 0.86251 0.0
C552 C 0.89199 0.09953 0.11225 0.0
C553 C 0.89716 0.0977 0.07937 0.0
C554 C 0.89928 0.09906 -0.00296 0.0
C555 C 0.9133 0.11431 0.905 0.0
C556 C 0.91303 0.11018 0.94369 0.0
C557 C 0.90704 0.1088 0.05991 0.0
C558 C 0.9099 0.10746 0.02068 0.0
H559 H 0.90008 0.10098 0.82109 0.0
H560 H 0.90344 0.09421 0.88234 0.0
H561 H 0.89215 0.09459 0.94159 0.0
H562 H 0.91152 0.13347 0.11991 0.0
H563 H 0.92008 0.13043 0.06174 0.0
C564 C 0.89445 0.79416 0.12439 0.0
C565 C 0.88197 0.78553 0.14051 0.0
C566 C 0.89514 0.79877 0.08848 0.0
C567 C 0.87413 0.79713 0.00734 0.0
H568 H 0.89933 0.79005 0.95509 0.0
C569 C 0.86416 0.77235 0.86514 0.0
C570 C 0.8748 0.77676 0.84 0.0
C571 C 0.86637 0.77788 0.90044 0.0
C572 C 0.89243 0.79237 0.96914 0.0
H573 H 0.86044 0.7759 0.13332 0.0
H574 H 0.86159 0.78331 0.07009 0.0
H575 H 0.90112 0.79288 0.02129 0.0
H576 H 0.89601 0.79064 0.8316 0.0
H577 H 0.8999 0.80013 0.89361 0.0
H578 H 0.86488 0.79554 0.95482 0.0
C579 C 0.87088 0.78687 0.08518 0.0
C580 C 0.89348 0.79407 0.00722 0.0
C581 C 0.87019 0.7825 0.12141 0.0
C582 C 0.88764 0.78696 0.85054 0.0
C583 C 0.88987 0.79243 0.88591 0.0
C584 C 0.873 0.79527 0.96916 0.0
C585 C 0.88337 0.79452 0.06772 0.0
C586 C 0.88404 0.79596 0.02699 0.0
C587 C 0.87928 0.78786 0.91125 0.0
C588 C 0.88186 0.7924 0.95 0.0
H589 H 0.90369 0.79686 0.13895 0.0
H590 H 0.90492 0.80498 0.07623 0.0
H591 H 0.86687 0.79884 0.02164 0.0
H592 H 0.85414 0.76457 0.85766 0.0
H593 H 0.85808 0.77402 0.91969 0.0
C594 C 0.10323 0.22858 0.36434 0.0
C595 C 0.11249 0.22536 0.34925 0.0
C596 C 0.10127 0.2281 0.40238 0.0
C597 C 0.11912 0.22994 0.48849 0.0
H598 H 0.08547 0.22229 0.53343 0.0
C599 C 0.1111 0.22971 0.64576 0.0
C600 C 0.10553 0.23751 0.65745 0.0
C601 C 0.11153 0.22716 0.60835 0.0
C602 C 0.09491 0.22446 0.5211 0.0
H603 H 0.12624 0.21818 0.36163 0.0
H604 H 0.12246 0.21684 0.42794 0.0
H605 H 0.08622 0.21843 0.46744 0.0
H606 H 0.09607 0.24876 0.63947 0.0
H607 H 0.0967 0.24413 0.57388 0.0
H608 H 0.12772 0.23582 0.54238 0.0
C609 C 0.11707 0.22021 0.4106 0.0
C610 C 0.09537 0.2223 0.4834 0.0
C611 C 0.11918 0.2209 0.37262 0.0
C612 C 0.10047 0.24277 0.63114 0.0
C613 C 0.10072 0.24004 0.59376 0.0
C614 C 0.1186 0.23191 0.52624 0.0
C615 C 0.10839 0.22418 0.42601 0.0
C616 C 0.10753 0.22522 0.46656 0.0
C617 C 0.10622 0.23219 0.58215 0.0
C618 C 0.10655 0.22939 0.54267 0.0
H619 H 0.09796 0.2321 0.34696 0.0
H620 H 0.09464 0.23138 0.41329 0.0
H621 H 0.12871 0.23255 0.47638 0.0
H622 H 0.11508 0.22555 0.66553 0.0
H623 H 0.1158 0.22107 0.59992 0.0
C624 C 0.79183 0.90169 0.3928 0.0
C625 C 0.78607 0.90808 0.37328 0.0
C626 C 0.79498 0.90448 0.43005 0.0
C627 C 0.80179 0.91244 0.50977 0.0
H628 H 0.76876 0.90595 0.55635 0.0
C629 C 0.78765 0.89311 0.65943 0.0
C630 C 0.77528 0.88109 0.66024 0.0
C631 C 0.79148 0.90124 0.62813 0.0
C632 C 0.77815 0.908 0.54386 0.0
H633 H 0.78043 0.92344 0.37638 0.0
H634 H 0.78584 0.92821 0.44168 0.0
H635 H 0.77291 0.91294 0.49219 0.0
H636 H 0.75706 0.86824 0.62963 0.0
H637 H 0.76373 0.88248 0.57515 0.0
H638 H 0.80645 0.9064 0.56091 0.0
C639 C 0.78777 0.92095 0.42819 0.0
C640 C 0.78061 0.91215 0.50724 0.0
C641 C 0.78465 0.91818 0.39085 0.0
C642 C 0.76669 0.87746 0.62968 0.0
C643 C 0.77043 0.88566 0.59869 0.0
C644 C 0.79934 0.90834 0.54653 0.0
C645 C 0.79241 0.9137 0.44849 0.0
C646 C 0.79209 0.91366 0.48925 0.0
C647 C 0.78288 0.89757 0.59756 0.0
C648 C 0.78714 0.90537 0.5631 0.0
H649 H 0.79323 0.89399 0.37992 0.0
H650 H 0.79842 0.89862 0.44497 0.0
H651 H 0.8108 0.91371 0.49664 0.0
H652 H 0.79445 0.89612 0.68266 0.0
H653 H 0.80117 0.91036 0.62771 0.0
C654 C 0.12881 0.90875 0.62552 0.0
C655 C 0.13947 0.90745 0.63968 0.0
C656 C 0.12667 0.90834 0.58756 0.0
C657 C 0.13062 0.89272 0.50658 0.0
H658 H 0.12235 0.91654 0.45126 0.0
C659 C 0.12211 0.8995 0.34599 0.0
C660 C 0.11199 0.88632 0.33787 0.0
C661 C 0.12536 0.9037 0.38262 0.0
C662 C 0.12469 0.90987 0.4665 0.0
H663 H 0.15655 0.90523 0.6254 0.0
H664 H 0.15258 0.9042 0.5589 0.0
H665 H 0.12943 0.92157 0.51612 0.0
H666 H 0.09676 0.86753 0.36177 0.0
H667 H 0.10261 0.87485 0.42542 0.0
H668 H 0.12557 0.88084 0.45757 0.0
C669 C 0.14596 0.9056 0.57727 0.0
C670 C 0.12869 0.91272 0.50339 0.0
C671 C 0.14822 0.90619 0.61522 0.0
C672 C 0.10469 0.87771 0.36699 0.0
C673 C 0.10803 0.88186 0.40344 0.0
C674 C 0.12642 0.88978 0.47006 0.0
C675 C 0.13504 0.90645 0.56321 0.0
C676 C 0.13165 0.90412 0.52368 0.0
C677 C 0.11862 0.89474 0.41151 0.0
C678 C 0.12333 0.89826 0.44984 0.0
H679 H 0.12198 0.90985 0.6438 0.0
H680 H 0.11812 0.90891 0.57733 0.0
H681 H 0.1327 0.88587 0.52179 0.0
H682 H 0.12786 0.9064 0.32414 0.0
H683 H 0.13357 0.9137 0.38835 0.0
C684 C 0.78804 0.89584 0.15922 0.0
C685 C 0.77539 0.89487 0.1615 0.0
C686 C 0.79171 0.89157 0.1275 0.0
C687 C 0.77785 0.87077 0.04445 0.0
H688 H 0.80912 0.89846 -0.00614 0.0
C689 C 0.78882 0.89032 0.89217 0.0
C690 C 0.78348 0.87818 0.87271 0.0
C691 C 0.79231 0.89093 0.9292 0.0
C692 C 0.8005 0.89052 0.00789 0.0
H693 H 0.75657 0.88842 0.13307 0.0
H694 H 0.76293 0.88094 0.07782 0.0
H695 H 0.80551 0.90142 0.05877 0.0
H696 H 0.77878 0.85745 0.87578 0.0
H697 H 0.78477 0.85852 0.94076 0.0
H698 H 0.7722 0.86035 -0.0069 0.0
C699 C 0.76997 0.8849 0.10058 0.0
C700 C 0.79848 0.89218 0.04504 0.0
C701 C 0.76638 0.88932 0.13199 0.0
C702 C 0.78268 0.86692 0.89021 0.0
C703 C 0.78614 0.86752 0.92735 0.0
C704 C 0.77987 0.86909 0.00743 0.0
C705 C 0.78269 0.88609 0.09794 0.0
C706 C 0.78674 0.88266 0.0629 0.0
C707 C 0.79051 0.8794 0.94753 0.0
C708 C 0.79082 0.87931 0.98828 0.0
H709 H 0.79518 0.90009 0.18169 0.0
H710 H 0.80158 0.89263 0.12593 0.0
H711 H 0.76881 0.86322 0.05791 0.0
H712 H 0.78974 0.89923 0.87934 0.0
H713 H 0.7955 0.9002 0.94406 0.0
C714 C 0.07903 0.85318 0.10776 0.0
C715 C 0.08774 0.86332 0.13199 0.0
C716 C 0.07741 0.85629 0.07165 0.0
C717 C 0.08619 0.88497 0.00737 0.0
H718 H 0.08619 0.86009 0.93534 0.0
C719 C 0.11103 0.89877 0.86484 0.0
C720 C 0.10507 0.88957 0.83576 0.0
C721 C 0.10494 0.89608 0.89946 0.0
C722 C 0.08587 0.86701 0.955 0.0
H723 H 0.1013 0.88465 0.13814 0.0
H724 H 0.09911 0.89004 0.07454 0.0
H725 H 0.08317 0.85403 -0.00011 0.0
H726 H 0.08745 0.87098 0.81917 0.0
H727 H 0.07695 0.86624 0.87984 0.0
H728 H 0.08997 0.89834 0.962 0.0
C729 C 0.09314 0.87974 0.08352 0.0
C730 C 0.08411 0.86353 -0.00785 0.0
C731 C 0.09453 0.87666 0.11989 0.0
C732 C 0.09238 0.87821 0.84112 0.0
C733 C 0.08635 0.87547 0.8758 0.0
C734 C 0.08816 0.88853 0.9701 0.0
C735 C 0.08473 0.86956 0.05875 0.0
C736 C 0.0846 0.87259 0.01897 0.0
C737 C 0.09284 0.88411 0.9056 0.0
C738 C 0.08833 0.87969 0.94375 0.0
H739 H 0.07348 0.84284 0.1167 0.0
H740 H 0.07059 0.84824 0.05367 0.0
H741 H 0.08633 0.89207 0.02717 0.0
H742 H 0.12074 0.9077 0.86148 0.0
H743 H 0.1102 0.90288 0.92203 0.0
C744 C 0.11562 0.21087 0.87333 0.0
C745 C 0.10541 0.21241 0.85713 0.0
C746 C 0.11334 0.20392 0.90644 0.0
C747 C 0.10712 0.18868 0.97726 0.0
H748 H 0.09081 0.20277 0.04374 0.0
C749 C 0.10777 0.20483 0.13948 0.0
C750 C 0.12172 0.21339 0.14197 0.0
C751 C 0.10199 0.19798 0.10669 0.0
C752 C 0.09507 0.19837 0.02569 0.0
H753 H 0.08439 0.20664 0.86047 0.0
H754 H 0.08031 0.19422 0.91794 0.0
H755 H 0.08686 0.20244 0.97819 0.0
H756 H 0.14064 0.22078 0.11334 0.0
H757 H 0.13058 0.20888 0.05616 0.0
H758 H 0.11644 0.18597 0.02512 0.0
C759 C 0.0902 0.19874 0.90573 0.0
C760 C 0.09278 0.19814 0.9879 0.0
C761 C 0.09254 0.20587 0.87286 0.0
C762 C 0.12985 0.21437 0.11199 0.0
C763 C 0.1241 0.2074 0.07947 0.0
C764 C 0.10955 0.18908 0.0151 0.0
C765 C 0.10074 0.19822 0.92381 0.0
C766 C 0.09949 0.19412 0.96308 0.0
C767 C 0.1101 0.19942 0.07618 0.0
C768 C 0.10418 0.19469 0.03928 0.0
H769 H 0.12562 0.21571 0.8617 0.0
H770 H 0.12178 0.20392 0.91962 0.0
H771 H 0.1121 0.18512 0.95894 0.0
H772 H 0.10128 0.20381 0.16236 0.0
H773 H 0.09118 0.19193 0.10472 0.0
C774 C 0.90294 0.76858 0.3672 0.0
C775 C 0.89717 0.77359 0.34233 0.0
C776 C 0.90684 0.77419 0.40228 0.0
C777 C 0.89804 0.79092 0.4716 0.0
H778 H 0.93001 0.79551 0.5208 0.0
C779 C 0.90027 0.7947 0.6261 0.0
C780 C 0.90328 0.78548 0.64234 0.0
C781 C 0.90408 0.79888 0.58987 0.0
C782 C 0.92107 0.79434 0.50742 0.0
H783 H 0.89108 0.78846 0.33437 0.0
H784 H 0.8977 0.79809 0.39601 0.0
H785 H 0.92734 0.79132 0.45435 0.0
H786 H 0.91368 0.77434 0.63523 0.0
H787 H 0.9197 0.78096 0.57131 0.0
H788 H 0.8912 0.79289 0.52435 0.0
C789 C 0.89925 0.78988 0.38824 0.0
C790 C 0.91956 0.79195 0.46946 0.0
C791 C 0.89541 0.78433 0.35309 0.0
C792 C 0.91121 0.78143 0.62313 0.0
C793 C 0.91474 0.78533 0.58653 0.0
C794 C 0.89947 0.79316 0.50946 0.0
C795 C 0.90496 0.78483 0.41316 0.0
C796 C 0.90781 0.78976 0.45154 0.0
C797 C 0.91059 0.79354 0.56892 0.0
C798 C 0.91077 0.7944 0.52808 0.0
H799 H 0.9045 0.76038 0.35955 0.0
H800 H 0.91099 0.76995 0.42124 0.0
H801 H 0.88883 0.78915 0.45853 0.0
H802 H 0.89437 0.79817 0.6408 0.0
H803 H 0.90111 0.80555 0.57751 0.0
C804 C 0.21034 0.10723 0.62956 0.0
C805 C 0.2192 0.11928 0.64741 0.0
C806 C 0.20628 0.10736 0.59342 0.0
C807 C 0.20946 0.12993 0.51498 0.0
H808 H 0.21405 0.1038 0.45902 0.0
C809 C 0.23055 0.13838 0.36765 0.0
C810 C 0.22491 0.12755 0.3429 0.0
C811 C 0.22616 0.13665 0.40414 0.0
C812 C 0.21246 0.111 0.47416 0.0
H813 H 0.22993 0.14092 0.64297 0.0
H814 H 0.22343 0.14117 0.57925 0.0
H815 H 0.21207 0.10187 0.52541 0.0
H816 H 0.20999 0.10653 0.33649 0.0
H817 H 0.20246 0.10348 0.40044 0.0
H818 H 0.2108 0.13951 0.46321 0.0
C819 C 0.21928 0.13162 0.5932 0.0
C820 C 0.21125 0.10987 0.51234 0.0
C821 C 0.22309 0.13149 0.6297 0.0
C822 C 0.2146 0.11503 0.35505 0.0
C823 C 0.21027 0.11329 0.39157 0.0
C824 C 0.21083 0.13114 0.47666 0.0
C825 C 0.21132 0.11952 0.57413 0.0
C826 C 0.21009 0.11951 0.53336 0.0
C827 C 0.2161 0.12404 0.41652 0.0
C828 C 0.21268 0.12186 0.45609 0.0
H829 H 0.20703 0.09769 0.64299 0.0
H830 H 0.1998 0.09788 0.57993 0.0
H831 H 0.20836 0.1374 0.53027 0.0
H832 H 0.23844 0.14817 0.35895 0.0
H833 H 0.23095 0.14506 0.42298 0.0
C834 C 0.89493 0.11046 0.60271 0.0
C835 C 0.88471 0.10349 0.62868 0.0
C836 C 0.89246 0.10754 0.56522 0.0
C837 C 0.86528 0.09767 0.50198 0.0
H838 H 0.88929 0.09616 0.42972 0.0
C839 C 0.85538 0.09724 0.34627 0.0
C840 C 0.86659 0.1046 0.32362 0.0
C841 C 0.85705 0.09504 0.38322 0.0
C842 C 0.88255 0.0967 0.44955 0.0
H843 H 0.8642 0.0874 0.63611 0.0
H844 H 0.85984 0.0825 0.57034 0.0
H845 H 0.89346 0.09513 0.49539 0.0
H846 H 0.88831 0.11569 0.32174 0.0
H847 H 0.89127 0.11242 0.38666 0.0
H848 H 0.8548 0.10006 0.45679 0.0
C849 C 0.86973 0.09018 0.57915 0.0
C850 C 0.88489 0.09598 0.48704 0.0
C851 C 0.87225 0.09297 0.61671 0.0
C852 C 0.8795 0.10993 0.33864 0.0
C853 C 0.88118 0.10792 0.37573 0.0
C854 C 0.86306 0.09859 0.4646 0.0
C855 C 0.87969 0.09772 0.5531 0.0
C856 C 0.87636 0.09664 0.51352 0.0
C857 C 0.86997 0.10035 0.3984 0.0
C858 C 0.87179 0.09834 0.43795 0.0
H859 H 0.90467 0.11854 0.61119 0.0
H860 H 0.90028 0.11354 0.5456 0.0
H861 H 0.8587 0.09844 0.52196 0.0
H862 H 0.84531 0.09288 0.33522 0.0
H863 H 0.8482 0.08901 0.39971 0.0
C864 C 0.88937 0.41534 0.19406 0.0
C865 C 0.8851 0.42088 0.16639 0.0
C866 C 0.88501 0.41458 0.23032 0.0
C867 C 0.87103 0.41069 0.30434 0.0
H868 H 0.87868 0.44576 0.33791 0.0
C869 C 0.87921 0.44428 0.44527 0.0
C870 C 0.88706 0.44021 0.465 0.0
C871 C 0.8741 0.43885 0.41061 0.0
C872 C 0.87609 0.43577 0.32918 0.0
H873 H 0.8723 0.42925 0.15441 0.0
H874 H 0.86482 0.42809 0.218 0.0
H875 H 0.87823 0.44142 0.27247 0.0
H876 H 0.89504 0.42671 0.46514 0.0
H877 H 0.88669 0.41766 0.40405 0.0
H878 H 0.86928 0.40517 0.36127 0.0
C879 C 0.87157 0.42436 0.21158 0.0
C880 C 0.87587 0.4333 0.29151 0.0
C881 C 0.87586 0.42504 0.17525 0.0
C882 C 0.88904 0.43005 0.45047 0.0
C883 C 0.88414 0.42478 0.41552 0.0
C884 C 0.8711 0.41311 0.34214 0.0
C885 C 0.87635 0.41943 0.23958 0.0
C886 C 0.87383 0.42092 0.27878 0.0
C887 C 0.87698 0.42944 0.39466 0.0
C888 C 0.87414 0.42585 0.35502 0.0
H889 H 0.8964 0.41195 0.18795 0.0
H890 H 0.88898 0.41087 0.25143 0.0
H891 H 0.86926 0.401 0.29513 0.0
H892 H 0.87732 0.45194 0.45616 0.0
H893 H 0.86834 0.44241 0.39573 0.0
C894 C 0.58261 0.46864 0.20371 0.0
C895 C 0.57635 0.4588 0.17636 0.0
C896 C 0.58522 0.46523 0.23836 0.0
C897 C 0.57017 0.43756 0.30063 0.0
H898 H 0.60001 0.46135 0.3633 0.0
C899 C 0.56219 0.43527 0.45452 0.0
C900 C 0.56609 0.4479 0.46976 0.0
C901 C 0.56752 0.43423 0.42099 0.0
C902 C 0.59164 0.45455 0.34616 0.0
H903 H 0.56852 0.43782 0.16299 0.0
H904 H 0.57281 0.4318 0.22413 0.0
H905 H 0.60203 0.46412 0.29638 0.0
H906 H 0.57933 0.46929 0.46365 0.0
H907 H 0.5881 0.46759 0.40422 0.0
H908 H 0.55929 0.42872 0.34981 0.0
C909 C 0.57574 0.44215 0.21857 0.0
C910 C 0.59283 0.4561 0.30791 0.0
C911 C 0.57324 0.44558 0.18374 0.0
C912 C 0.5761 0.45943 0.45232 0.0
C913 C 0.58123 0.45842 0.41839 0.0
C914 C 0.56893 0.4361 0.33876 0.0
C915 C 0.58152 0.45191 0.24638 0.0
C916 C 0.58185 0.44804 0.28501 0.0
C917 C 0.5766 0.44583 0.40163 0.0
C918 C 0.57939 0.44503 0.36204 0.0
H919 H 0.58526 0.47894 0.19865 0.0
H920 H 0.58947 0.47292 0.25945 0.0
H921 H 0.56151 0.43126 0.28366 0.0
H922 H 0.5547 0.4262 0.46794 0.0
H923 H 0.564 0.42437 0.40934 0.0
C924 C 0.54416 0.11261 0.46096 0.0
C925 C 0.55685 0.11578 0.47436 0.0
C926 C 0.54274 0.11606 0.42501 0.0
C927 C 0.56032 0.12189 0.33673 0.0
H928 H 0.53052 0.12542 0.30072 0.0
C929 C 0.54902 0.11941 0.1825 0.0
C930 C 0.53578 0.10976 0.17334 0.0
C931 C 0.55243 0.12378 0.21883 0.0
C932 C 0.53892 0.12452 0.31049 0.0
H933 H 0.57814 0.12625 0.46255 0.0
H934 H 0.57577 0.13282 0.40039 0.0
H935 H 0.53556 0.12764 0.36677 0.0
H936 H 0.5156 0.09759 0.19456 0.0
H937 H 0.52162 0.10514 0.25829 0.0
H938 H 0.56352 0.1185 0.28074 0.0
C939 C 0.56683 0.12717 0.4169 0.0
C940 C 0.5418 0.12575 0.34823 0.0
C941 C 0.56821 0.12347 0.45253 0.0
C942 C 0.5259 0.10496 0.2009 0.0
C943 C 0.52931 0.10938 0.23726 0.0
C944 C 0.55755 0.12082 0.29912 0.0
C945 C 0.55403 0.12295 0.40209 0.0
C946 C 0.5523 0.12405 0.36189 0.0
C947 C 0.54266 0.11862 0.24664 0.0
C948 C 0.54661 0.12175 0.28575 0.0
H949 H 0.53524 0.10669 0.4773 0.0
H950 H 0.53271 0.11252 0.41454 0.0
H951 H 0.5683 0.12023 0.34611 0.0
H952 H 0.55683 0.12339 0.16177 0.0
H953 H 0.56277 0.13098 0.22534 0.0
C954 C 0.75581 0.54703 0.68851 0.0
C955 C 0.7654 0.545 0.67039 0.0
C956 C 0.75136 0.54171 0.72358 0.0
C957 C 0.76551 0.53371 0.80285 0.0
H958 H 0.73384 0.53058 0.84986 0.0
C959 C 0.76462 0.54247 0.95782 0.0
C960 C 0.76174 0.55277 0.96483 0.0
C961 C 0.76158 0.53606 0.9236 0.0
C962 C 0.74265 0.53124 0.83706 0.0
H963 H 0.7766 0.53448 0.67227 0.0
H964 H 0.76844 0.52474 0.73297 0.0
H965 H 0.73399 0.52771 0.78311 0.0
H966 H 0.75292 0.56404 0.94235 0.0
H967 H 0.74776 0.55297 0.88245 0.0
H968 H 0.77437 0.53782 0.85644 0.0
C969 C 0.76477 0.53089 0.72089 0.0
C970 C 0.74277 0.52965 0.79891 0.0
C971 C 0.76943 0.53645 0.68615 0.0
C972 C 0.75537 0.55623 0.93756 0.0
C973 C 0.75223 0.54975 0.90349 0.0
C974 C 0.76532 0.53513 0.84093 0.0
C975 C 0.75625 0.53406 0.74085 0.0
C976 C 0.75449 0.53165 0.78118 0.0
C977 C 0.7555 0.53976 0.89602 0.0
C978 C 0.75417 0.53463 0.85805 0.0
H979 H 0.75249 0.55353 0.67682 0.0
H980 H 0.7449 0.54449 0.73811 0.0
H981 H 0.77478 0.53545 0.79033 0.0
H982 H 0.76943 0.53952 0.97851 0.0
H983 H 0.76421 0.5284 0.91841 0.0
C984 C 0.45101 0.24856 0.71232 0.0
C985 C 0.45211 0.23787 0.69748 0.0
C986 C 0.45326 0.2516 0.74981 0.0
C987 C 0.44462 0.24456 0.82927 0.0
H988 H 0.46932 0.23945 0.89056 0.0
C989 C 0.42963 0.21491 0.96262 0.0
C990 C 0.43868 0.21902 -0.00778 0.0
C991 C 0.43329 0.22207 0.92966 0.0
C992 C 0.46252 0.24122 0.87396 0.0
H993 H 0.45765 0.22282 0.70951 0.0
H994 H 0.46141 0.22802 0.7749 0.0
H995 H 0.47407 0.24426 0.82497 0.0
H996 H 0.45842 0.23412 0.0113 0.0
H997 H 0.4649 0.24649 0.95318 0.0
H998 H 0.43268 0.24072 0.87779 0.0
C999 C 0.45887 0.2341 0.75762 0.0
C1000 C 0.4652 0.24387 0.83645 0.0
C1001 C 0.45657 0.23101 0.72019 0.0
C1002 C 0.45126 0.2307 0.98881 0.0
C1003 C 0.45498 0.23778 0.95566 0.0
C1004 C 0.44192 0.24184 0.8667 0.0
C1005 C 0.45672 0.24407 0.77302 0.0
C1006 C 0.45595 0.24494 0.8135 0.0
C1007 C 0.44609 0.23339 0.92565 0.0
C1008 C 0.45053 0.23953 0.88894 0.0
H1009 H 0.44776 0.25416 0.69543 0.0
H1010 H 0.45167 0.25942 0.76098 0.0
H1011 H 0.43726 0.24526 0.81224 0.0
H1012 H 0.41985 0.20598 0.96457 0.0
H1013 H 0.42632 0.21835 0.90672 0.0
C1014 C 0.76681 0.22482 0.72896 0.0
C1015 C 0.76084 0.21341 0.70629 0.0
C1016 C 0.76106 0.22485 0.76272 0.0
C1017 C 0.74734 0.22376 0.83375 0.0
H1018 H 0.74286 0.19249 0.88623 0.0
C1019 C 0.76054 0.22643 0.98728 0.0
C1020 C 0.77083 0.22331 -0.00926 0.0
C1021 C 0.75248 0.2226 0.95561 0.0
C1022 C 0.74377 0.20118 0.87201 0.0
H1023 H 0.74348 0.19355 0.6996 0.0
H1024 H 0.73345 0.19363 0.75883 0.0
H1025 H 0.74089 0.19178 0.81953 0.0
H1026 H 0.78024 0.21304 0.96534 0.0
H1027 H 0.76627 0.20635 0.91061 0.0
H1028 H 0.75172 0.23359 0.88618 0.0
C1029 C 0.74267 0.20247 0.75062 0.0
C1030 C 0.74254 0.20076 0.83371 0.0
C1031 C 0.74844 0.20243 0.71676 0.0
C1032 C 0.77246 0.21569 0.96322 0.0
C1033 C 0.76431 0.21169 0.93209 0.0
C1034 C 0.74866 0.22419 0.8721 0.0
C1035 C 0.7492 0.21349 0.77461 0.0
C1036 C 0.74534 0.21238 0.81402 0.0
C1037 C 0.75445 0.21535 0.92752 0.0
C1038 C 0.74788 0.21322 0.89112 0.0
H1039 H 0.77627 0.23351 0.72154 0.0
H1040 H 0.7665 0.23346 0.7806 0.0
H1041 H 0.74918 0.23275 0.81934 0.0
H1042 H 0.75909 0.23228 0.00827 0.0
H1043 H 0.745 0.22561 0.9526 0.0
C1044 C 0.46022 0.22712 0.48364 0.0
C1045 C 0.44723 0.2254 0.48418 0.0
C1046 C 0.4648 0.22347 0.45249 0.0
C1047 C 0.45332 0.20339 0.36747 0.0
H1048 H 0.48326 0.23354 0.31944 0.0
C1049 C 0.46107 0.22622 0.22092 0.0
C1050 C 0.45573 0.21452 0.19946 0.0
C1051 C 0.46571 0.22637 0.25648 0.0
C1052 C 0.47507 0.22492 0.33273 0.0
H1053 H 0.42871 0.21811 0.45346 0.0
H1054 H 0.43664 0.21164 0.39934 0.0
H1055 H 0.47915 0.2349 0.38496 0.0
H1056 H 0.45251 0.19429 0.19676 0.0
H1057 H 0.46056 0.19455 0.2592 0.0
H1058 H 0.44838 0.19387 0.31488 0.0
C1059 C 0.44326 0.21576 0.42293 0.0
C1060 C 0.47277 0.22567 0.37024 0.0
C1061 C 0.43877 0.2196 0.45369 0.0
C1062 C 0.45633 0.20339 0.21291 0.0
C1063 C 0.46098 0.20354 0.24859 0.0
C1064 C 0.45561 0.20263 0.33009 0.0
C1065 C 0.45635 0.21779 0.42188 0.0
C1066 C 0.46135 0.21525 0.38715 0.0
C1067 C 0.46511 0.21481 0.27134 0.0
C1068 C 0.46595 0.21376 0.31183 0.0
H1069 H 0.46693 0.23159 0.50688 0.0
H1070 H 0.47496 0.22522 0.45211 0.0
H1071 H 0.44456 0.19516 0.3802 0.0
H1072 H 0.46095 0.23504 0.21112 0.0
H1073 H 0.46871 0.2352 0.27331 0.0
C1074 C 0.79023 0.21461 0.47128 0.0
C1075 C 0.78619 0.21922 0.50176 0.0
C1076 C 0.79313 0.22144 0.43779 0.0
C1077 C 0.78275 0.24127 0.38501 0.0
H1078 H 0.80936 0.24306 0.31623 0.0
C1079 C 0.79735 0.24843 0.21975 0.0
C1080 C 0.78477 0.23864 0.20611 0.0
C1081 C 0.79931 0.251 0.25755 0.0
C1082 C 0.80205 0.24295 0.33524 0.0
H1083 H 0.78272 0.23499 0.52181 0.0
H1084 H 0.78767 0.24685 0.46303 0.0
H1085 H 0.81085 0.23847 0.38111 0.0
H1086 H 0.76411 0.22476 0.22101 0.0
H1087 H 0.76755 0.22917 0.28682 0.0
H1088 H 0.77359 0.24512 0.33877 0.0
C1089 C 0.78854 0.23793 0.46508 0.0
C1090 C 0.80284 0.24019 0.37229 0.0
C1091 C 0.78573 0.23115 0.49868 0.0
C1092 C 0.77395 0.23227 0.23066 0.0
C1093 C 0.7759 0.23489 0.26839 0.0
C1094 C 0.78193 0.24398 0.3479 0.0
C1095 C 0.79198 0.23297 0.43413 0.0
C1096 C 0.79289 0.23878 0.39718 0.0
C1097 C 0.78871 0.24391 0.28232 0.0
C1098 C 0.79126 0.2443 0.32242 0.0
H1099 H 0.79071 0.20547 0.4729 0.0
H1100 H 0.79559 0.21728 0.41425 0.0
H1101 H 0.77491 0.24019 0.40358 0.0
H1102 H 0.80588 0.25362 0.2015 0.0
H1103 H 0.80925 0.25811 0.26755 0.0
C1104 C 0.80204 0.56271 0.44412 0.0
C1105 C 0.79168 0.55823 0.47021 0.0
C1106 C 0.7993 0.55774 0.40817 0.0
C1107 C 0.77265 0.54493 0.3411 0.0
H1108 H 0.79623 0.53668 0.28471 0.0
C1109 C 0.76774 0.54159 0.18576 0.0
C1110 C 0.77998 0.54935 0.16745 0.0
C1111 C 0.76757 0.53766 0.22218 0.0
C1112 C 0.78954 0.53893 0.3001 0.0
H1113 H 0.77041 0.54489 0.47951 0.0
H1114 H 0.76561 0.5364 0.41638 0.0
H1115 H 0.79927 0.53994 0.35142 0.0
H1116 H 0.80155 0.55824 0.17155 0.0
H1117 H 0.80134 0.552 0.23564 0.0
H1118 H 0.76349 0.54492 0.29013 0.0
C1119 C 0.77582 0.5437 0.42386 0.0
C1120 C 0.79127 0.54076 0.3382 0.0
C1121 C 0.77857 0.5486 0.45987 0.0
C1122 C 0.79198 0.55229 0.18516 0.0
C1123 C 0.79183 0.5486 0.22185 0.0
C1124 C 0.77101 0.54326 0.30309 0.0
C1125 C 0.78615 0.54828 0.39769 0.0
C1126 C 0.78308 0.54417 0.35876 0.0
C1127 C 0.77964 0.54171 0.24122 0.0
C1128 C 0.77971 0.54067 0.28196 0.0
H1129 H 0.81225 0.57006 0.45144 0.0
H1130 H 0.80739 0.56158 0.38828 0.0
H1131 H 0.76628 0.54768 0.35631 0.0
H1132 H 0.75833 0.53896 0.17235 0.0
H1133 H 0.75799 0.53203 0.23599 0.0
C1134 C 0.57452 0.11744 0.68201 0.0
C1135 C 0.57827 0.10802 0.67171 0.0
C1136 C 0.5751 0.12116 0.71884 0.0
C1137 C 0.58893 0.1209 0.81022 0.0
H1138 H 0.55524 0.11652 0.84584 0.0
C1139 C 0.57225 0.11001 0.96164 0.0
C1140 C 0.56297 0.11352 0.97483 0.0
C1141 C 0.57684 0.11293 0.92533 0.0
C1142 C 0.56487 0.11818 0.83644 0.0
H1143 H 0.58613 0.09554 0.69152 0.0
H1144 H 0.58704 0.102 0.75617 0.0
H1145 H 0.55831 0.11491 0.78038 0.0
H1146 H 0.55225 0.12403 0.96206 0.0
H1147 H 0.56071 0.12968 0.89925 0.0
H1148 H 0.59542 0.12398 0.86654 0.0
C1149 C 0.58374 0.10654 0.73563 0.0
C1150 C 0.56659 0.11717 0.79883 0.0
C1151 C 0.58309 0.10276 0.69874 0.0
C1152 C 0.55922 0.12099 0.95225 0.0
C1153 C 0.56402 0.12416 0.91625 0.0
C1154 C 0.58727 0.12206 0.84799 0.0
C1155 C 0.57951 0.11559 0.74605 0.0
C1156 C 0.5785 0.11823 0.78544 0.0
C1157 C 0.57239 0.11964 0.90182 0.0
C1158 C 0.57509 0.12041 0.8616 0.0
H1159 H 0.57087 0.12176 0.66174 0.0
H1160 H 0.57188 0.12823 0.72617 0.0
H1161 H 0.59827 0.12188 0.80045 0.0
H1162 H 0.57529 0.10424 0.97855 0.0
H1163 H 0.58318 0.10919 0.91516 0.0
C1164 C 0.90237 0.48084 0.68855 0.0
C1165 C 0.89947 0.46992 0.66552 0.0
C1166 C 0.89832 0.47875 0.72536 0.0
C1167 C 0.87646 0.45209 0.79217 0.0
H1168 H 0.90259 0.47628 0.86315 0.0
C1169 C 0.88288 0.43812 0.9395 0.0
C1170 C 0.88631 0.4477 0.96761 0.0
C1171 C 0.8811 0.4411 0.90339 0.0
C1172 C 0.89505 0.4696 0.84369 0.0
H1173 H 0.89003 0.44829 0.66258 0.0
H1174 H 0.88351 0.44465 0.72722 0.0
H1175 H 0.90652 0.48121 0.7978 0.0
H1176 H 0.88969 0.46755 0.9805 0.0
H1177 H 0.88682 0.47282 0.91706 0.0
H1178 H 0.86549 0.44005 0.83851 0.0
C1179 C 0.88851 0.4548 0.71674 0.0
C1180 C 0.89728 0.47241 0.80616 0.0
C1181 C 0.89238 0.45688 0.6798 0.0
C1182 C 0.88712 0.45999 0.95937 0.0
C1183 C 0.8855 0.46303 0.92313 0.0
C1184 C 0.87432 0.44918 0.82977 0.0
C1185 C 0.89147 0.46572 0.74002 0.0
C1186 C 0.88819 0.46353 0.77989 0.0
C1187 C 0.88286 0.45375 0.89472 0.0
C1188 C 0.88376 0.45777 0.85574 0.0
H1189 H 0.90766 0.49099 0.67804 0.0
H1190 H 0.90057 0.48737 0.7423 0.0
H1191 H 0.86909 0.4452 0.77271 0.0
H1192 H 0.88206 0.4285 0.9451 0.0
H1193 H 0.87917 0.4338 0.88192 0.0
C1194 C 0.55128 0.43847 0.67748 0.0
C1195 C 0.53804 0.43434 0.66682 0.0
C1196 C 0.5542 0.43695 0.71384 0.0
C1197 C 0.53944 0.419 0.80026 0.0
H1198 H 0.56739 0.45132 0.84642 0.0
C1199 C 0.54223 0.42899 0.95582 0.0
C1200 C 0.55467 0.43799 0.97166 0.0
C1201 C 0.54136 0.4259 0.91833 0.0
C1202 C 0.5598 0.44206 0.83394 0.0
H1203 H 0.51743 0.42514 0.68554 0.0
H1204 H 0.52258 0.42257 0.74939 0.0
H1205 H 0.56355 0.45111 0.78067 0.0
H1206 H 0.57609 0.44967 0.96214 0.0
H1207 H 0.57467 0.44384 0.89705 0.0
H1208 H 0.53555 0.41001 0.85379 0.0
C1209 C 0.53065 0.42687 0.72944 0.0
C1210 C 0.55756 0.44199 0.79621 0.0
C1211 C 0.52773 0.42848 0.69307 0.0
C1212 C 0.56634 0.4429 0.95032 0.0
C1213 C 0.56551 0.43961 0.91306 0.0
C1214 C 0.54178 0.41901 0.83807 0.0
C1215 C 0.54393 0.43119 0.74015 0.0
C1216 C 0.54716 0.43058 0.77921 0.0
C1217 C 0.55296 0.43159 0.89625 0.0
C1218 C 0.55177 0.43066 0.85549 0.0
H1219 H 0.55942 0.44296 0.65777 0.0
H1220 H 0.56451 0.44031 0.72144 0.0
H1221 H 0.53147 0.41002 0.78757 0.0
H1222 H 0.53308 0.42505 0.97174 0.0
H1223 H 0.53152 0.41977 0.90632 0.0
C1224 C 0.54405 0.79608 0.75135 0.0
C1225 C 0.54299 0.78451 0.76755 0.0
C1226 C 0.54026 0.79586 0.71463 0.0
C1227 C 0.54739 0.79476 0.63553 0.0
H1228 H 0.52271 0.7629 0.58079 0.0
C1229 C 0.56398 0.77401 0.51935 0.0
C1230 C 0.55633 0.76937 0.48701 0.0
C1231 C 0.55935 0.77822 0.54906 0.0
C1232 C 0.52949 0.77203 0.59543 0.0
H1233 H 0.53549 0.76326 0.75975 0.0
H1234 H 0.52922 0.76293 0.69587 0.0
H1235 H 0.51737 0.76583 0.64416 0.0
H1236 H 0.53781 0.76536 0.46025 0.0
H1237 H 0.52951 0.77238 0.5131 0.0
H1238 H 0.55993 0.80048 0.58777 0.0
C1239 C 0.5329 0.77218 0.71121 0.0
C1240 C 0.52647 0.77368 0.63168 0.0
C1241 C 0.53669 0.77241 0.74781 0.0
C1242 C 0.54391 0.76892 0.48495 0.0
C1243 C 0.53917 0.77295 0.51499 0.0
C1244 C 0.5504 0.79309 0.59944 0.0
C1245 C 0.53537 0.78407 0.69362 0.0
C1246 C 0.53582 0.78464 0.65281 0.0
C1247 C 0.54692 0.77771 0.54715 0.0
C1248 C 0.54187 0.78132 0.58001 0.0
H1249 H 0.54864 0.80553 0.76612 0.0
H1250 H 0.54208 0.80513 0.70192 0.0
H1251 H 0.55484 0.80332 0.65094 0.0
H1252 H 0.57359 0.77449 0.52165 0.0
H1253 H 0.56539 0.78161 0.57392 0.0
C1254 C 0.24295 0.80893 0.52587 0.0
C1255 C 0.23849 0.7991 0.49816 0.0
C1256 C 0.2429 0.80541 0.56269 0.0
C1257 C 0.22433 0.77792 0.62438 0.0
H1258 H 0.25346 0.79816 0.69305 0.0
C1259 C 0.21625 0.76733 0.77877 0.0
C1260 C 0.22127 0.77871 0.80147 0.0
C1261 C 0.22051 0.7685 0.7423 0.0
C1262 C 0.24521 0.79245 0.67425 0.0
H1263 H 0.23078 0.77799 0.4869 0.0
H1264 H 0.2304 0.77182 0.55152 0.0
H1265 H 0.25696 0.80303 0.62708 0.0
H1266 H 0.23504 0.80011 0.80453 0.0
H1267 H 0.24202 0.80229 0.74046 0.0
H1268 H 0.21227 0.76792 0.6711 0.0
C1269 C 0.23402 0.78222 0.54462 0.0
C1270 C 0.24725 0.7952 0.63658 0.0
C1271 C 0.23423 0.78576 0.50776 0.0
C1272 C 0.23102 0.79118 0.78758 0.0
C1273 C 0.2351 0.79239 0.7509 0.0
C1274 C 0.22222 0.7753 0.66199 0.0
C1275 C 0.23824 0.792 0.57235 0.0
C1276 C 0.23674 0.78811 0.61149 0.0
C1277 C 0.22967 0.78111 0.72759 0.0
C1278 C 0.23255 0.78272 0.68748 0.0
H1279 H 0.24637 0.8193 0.51915 0.0
H1280 H 0.24606 0.81309 0.58373 0.0
H1281 H 0.21603 0.77243 0.60553 0.0
H1282 H 0.20888 0.75755 0.78904 0.0
H1283 H 0.21638 0.75955 0.72539 0.0
C1284 C 0.19065 0.42934 0.51086 0.0
C1285 C 0.19832 0.43733 0.4813 0.0
C1286 C 0.19488 0.43327 0.54711 0.0
C1287 C 0.20255 0.44677 0.62157 0.0
H1288 H 0.24011 0.46027 0.64392 0.0
C1289 C 0.22095 0.45592 0.77105 0.0
C1290 C 0.22894 0.45031 0.78034 0.0
C1291 C 0.21875 0.45769 0.73414 0.0
C1292 C 0.2296 0.45654 0.63811 0.0
H1293 H 0.21625 0.45587 0.46636 0.0
H1294 H 0.22352 0.46282 0.52964 0.0
H1295 H 0.23254 0.45616 0.58004 0.0
H1296 H 0.24157 0.44292 0.75835 0.0
H1297 H 0.23746 0.44567 0.69416 0.0
H1298 H 0.19943 0.44635 0.67967 0.0
C1299 C 0.21437 0.45341 0.52485 0.0
C1300 C 0.22528 0.45431 0.60148 0.0
C1301 C 0.21018 0.44945 0.48863 0.0
C1302 C 0.23531 0.44723 0.75211 0.0
C1303 C 0.23303 0.4489 0.71524 0.0
C1304 C 0.20684 0.44891 0.65818 0.0
C1305 C 0.20683 0.44532 0.55448 0.0
C1306 C 0.21165 0.44909 0.59291 0.0
C1307 C 0.22443 0.45381 0.70584 0.0
C1308 C 0.22036 0.45351 0.66691 0.0
H1309 H 0.18148 0.41995 0.50602 0.0
H1310 H 0.18896 0.4267 0.56933 0.0
H1311 H 0.19202 0.44297 0.61579 0.0
H1312 H 0.21605 0.45857 0.79222 0.0
H1313 H 0.21229 0.46175 0.72777 0.0
C1314 C 0.44075 0.87346 0.02687 0.0
C1315 C 0.43708 0.88161 0.00725 0.0
C1316 C 0.43566 0.86893 0.0621 0.0
C1317 C 0.41257 0.8696 0.13404 0.0
H1318 H 0.44228 0.8766 0.19847 0.0
C1319 C 0.4214 0.89377 0.27692 0.0
C1320 C 0.42664 0.88934 0.30502 0.0
C1321 C 0.41928 0.88819 0.2417 0.0
C1322 C 0.43376 0.8743 0.18097 0.0
H1323 H 0.42449 0.89064 0.00756 0.0
H1324 H 0.41617 0.88345 0.06973 0.0
H1325 H 0.44436 0.87447 0.13284 0.0
H1326 H 0.43324 0.87523 0.31889 0.0
H1327 H 0.42977 0.86566 0.25701 0.0
H1328 H 0.40248 0.87058 0.18263 0.0
C1329 C 0.42265 0.88014 0.05784 0.0
C1330 C 0.43491 0.873 0.14319 0.0
C1331 C 0.42751 0.88439 0.02225 0.0
C1332 C 0.4293 0.87892 0.29764 0.0
C1333 C 0.42728 0.87341 0.26235 0.0
C1334 C 0.4115 0.87109 0.17192 0.0
C1335 C 0.42709 0.87281 0.07875 0.0
C1336 C 0.42453 0.87114 0.11907 0.0
C1337 C 0.42245 0.87815 0.23396 0.0
C1338 C 0.42229 0.87391 0.19546 0.0
H1339 H 0.44792 0.87095 0.01549 0.0
H1340 H 0.43897 0.86297 0.07698 0.0
H1341 H 0.40426 0.86787 0.11636 0.0
H1342 H 0.41914 0.90171 0.28195 0.0
H1343 H 0.41572 0.89214 0.22013 0.0
C1344 C 0.12772 0.58261 0.04529 0.0
C1345 C 0.12439 0.56945 0.03603 0.0
C1346 C 0.13402 0.58823 0.0788 0.0
C1347 C 0.13135 0.58874 0.16104 0.0
H1348 H 0.1507 0.5755 0.21847 0.0
C1349 C 0.11081 0.55851 0.28871 0.0
C1350 C 0.11896 0.55992 0.31905 0.0
C1351 C 0.11634 0.56629 0.25736 0.0
C1352 C 0.14562 0.57969 0.20295 0.0
H1353 H 0.12635 0.55243 0.05267 0.0
H1354 H 0.13684 0.56196 0.11135 0.0
H1355 H 0.154 0.57807 0.15184 0.0
H1356 H 0.13918 0.57071 0.34106 0.0
H1357 H 0.14902 0.58405 0.28505 0.0
H1358 H 0.12221 0.58936 0.21174 0.0
C1359 C 0.13482 0.5681 0.09277 0.0
C1360 C 0.14741 0.58104 0.16478 0.0
C1361 C 0.12859 0.56251 0.05924 0.0
C1362 C 0.13271 0.56947 0.3179 0.0
C1363 C 0.13832 0.57711 0.28608 0.0
C1364 C 0.12959 0.58741 0.1991 0.0
C1365 C 0.13701 0.58076 0.10372 0.0
C1366 C 0.13948 0.58456 0.14322 0.0
C1367 C 0.13016 0.5755 0.25552 0.0
C1368 C 0.13593 0.5819 0.21983 0.0
H1369 H 0.12488 0.58834 0.02755 0.0
H1370 H 0.13578 0.59809 0.08621 0.0
H1371 H 0.1251 0.59154 0.14543 0.0
H1372 H 0.10018 0.55127 0.28898 0.0
H1373 H 0.10988 0.56465 0.23386 0.0
C1374 C 0.43695 0.56167 0.06471 0.0
C1375 C 0.4302 0.55058 0.04119 0.0
C1376 C 0.43174 0.56165 0.09941 0.0
C1377 C 0.41895 0.56008 0.1728 0.0
H1378 H 0.41341 0.52737 0.21905 0.0
C1379 C 0.42976 0.558 0.32671 0.0
C1380 C 0.43987 0.5546 0.33001 0.0
C1381 C 0.42246 0.55538 0.29395 0.0
C1382 C 0.41463 0.53645 0.20657 0.0
H1383 H 0.41196 0.53142 0.03381 0.0
H1384 H 0.40288 0.53141 0.09454 0.0
H1385 H 0.41123 0.52806 0.1526 0.0
H1386 H 0.44977 0.54516 0.3028 0.0
H1387 H 0.43699 0.54049 0.24588 0.0
H1388 H 0.42365 0.5688 0.22674 0.0
C1389 C 0.41231 0.54001 0.08637 0.0
C1390 C 0.41328 0.53685 0.16849 0.0
C1391 C 0.41755 0.54001 0.05167 0.0
C1392 C 0.44209 0.54795 0.30088 0.0
C1393 C 0.43466 0.54515 0.26849 0.0
C1394 C 0.42031 0.55968 0.21097 0.0
C1395 C 0.41965 0.55055 0.11122 0.0
C1396 C 0.41633 0.54893 0.15101 0.0
C1397 C 0.42498 0.54908 0.26442 0.0
C1398 C 0.41903 0.54811 0.22771 0.0
H1399 H 0.44664 0.57005 0.05727 0.0
H1400 H 0.43775 0.56988 0.11797 0.0
H1401 H 0.4211 0.56945 0.16008 0.0
H1402 H 0.42785 0.56314 0.34887 0.0
H1403 H 0.41509 0.55856 0.29132 0.0
C1404 C 0.09266 0.54424 0.80311 0.0
C1405 C 0.1016 0.54793 0.83289 0.0
C1406 C 0.09646 0.5422 0.76829 0.0
C1407 C 0.10558 0.53355 0.70025 0.0
H1408 H 0.13825 0.56444 0.66519 0.0
C1409 C 0.11825 0.53931 0.54753 0.0
C1410 C 0.11959 0.55131 0.53358 0.0
C1411 C 0.1195 0.53785 0.58523 0.0
C1412 C 0.12922 0.55567 0.67476 0.0
H1413 H 0.12128 0.55175 0.85017 0.0
H1414 H 0.12796 0.54837 0.78904 0.0
H1415 H 0.13257 0.56254 0.73069 0.0
H1416 H 0.12454 0.57158 0.54766 0.0
H1417 H 0.12659 0.56897 0.61353 0.0
H1418 H 0.1018 0.52703 0.64418 0.0
C1419 C 0.11804 0.54706 0.79274 0.0
C1420 C 0.12601 0.55453 0.71217 0.0
C1421 C 0.11419 0.54896 0.82764 0.0
C1422 C 0.12331 0.56218 0.55761 0.0
C1423 C 0.1246 0.56072 0.59532 0.0
C1424 C 0.10883 0.53462 0.66295 0.0
C1425 C 0.1093 0.54391 0.76268 0.0
C1426 C 0.11392 0.54371 0.72492 0.0
C1427 C 0.12218 0.54837 0.60958 0.0
C1428 C 0.12043 0.54594 0.64969 0.0
H1429 H 0.08289 0.54334 0.80643 0.0
H1430 H 0.08959 0.53991 0.7454 0.0
H1431 H 0.09625 0.52507 0.70957 0.0
H1432 H 0.11557 0.5308 0.52964 0.0
H1433 H 0.11775 0.52829 0.59556 0.0
C1434 C 0.45277 0.54935 0.80418 0.0
C1435 C 0.44829 0.55327 0.83519 0.0
C1436 C 0.45558 0.5566 0.77146 0.0
C1437 C 0.44455 0.5759 0.7197 0.0
H1438 H 0.4731 0.58043 0.65416 0.0
C1439 C 0.46117 0.58282 0.55617 0.0
C1440 C 0.44919 0.57195 0.54275 0.0
C1441 C 0.46245 0.5863 0.59344 0.0
C1442 C 0.46525 0.57962 0.67227 0.0
H1443 H 0.44365 0.56805 0.85685 0.0
H1444 H 0.44834 0.58058 0.79915 0.0
H1445 H 0.47404 0.57563 0.71907 0.0
H1446 H 0.42872 0.55717 0.55692 0.0
H1447 H 0.43102 0.56308 0.62183 0.0
H1448 H 0.43537 0.57911 0.67237 0.0
C1449 C 0.44973 0.57196 0.80036 0.0
C1450 C 0.46574 0.57673 0.70935 0.0
C1451 C 0.44705 0.56479 0.83326 0.0
C1452 C 0.43814 0.56547 0.5665 0.0
C1453 C 0.43942 0.56897 0.6037 0.0
C1454 C 0.44403 0.57875 0.68252 0.0
C1455 C 0.45386 0.56782 0.76908 0.0
C1456 C 0.45507 0.5742 0.73291 0.0
C1457 C 0.45177 0.579 0.61783 0.0
C1458 C 0.45406 0.57997 0.65813 0.0
H1459 H 0.45386 0.54055 0.80493 0.0
H1460 H 0.45855 0.55307 0.74754 0.0
H1461 H 0.43619 0.57399 0.73735 0.0
H1462 H 0.46982 0.58815 0.53843 0.0
H1463 H 0.47204 0.59418 0.60357 0.0
C1464 C 0.47523 0.89528 0.78357 0.0
C1465 C 0.46526 0.89077 0.81083 0.0
C1466 C 0.47179 0.89117 0.74699 0.0
C1467 C 0.44433 0.88178 0.68392 0.0
H1468 H 0.4646 0.87204 0.61804 0.0
C1469 C 0.43455 0.87909 0.52959 0.0
C1470 C 0.44615 0.88564 0.50786 0.0
C1471 C 0.43535 0.87552 0.56585 0.0
C1472 C 0.45885 0.87478 0.63607 0.0
H1473 H 0.44397 0.87811 0.82159 0.0
H1474 H 0.438 0.87115 0.75761 0.0
H1475 H 0.46936 0.87414 0.68423 0.0
H1476 H 0.46752 0.89291 0.50603 0.0
H1477 H 0.46907 0.88732 0.56971 0.0
H1478 H 0.43442 0.88335 0.63623 0.0
C1479 C 0.44843 0.87781 0.76456 0.0
C1480 C 0.46156 0.87593 0.67388 0.0
C1481 C 0.45187 0.88182 0.80111 0.0
C1482 C 0.45842 0.88787 0.52223 0.0
C1483 C 0.45927 0.88455 0.55873 0.0
C1484 C 0.44175 0.88082 0.64621 0.0
C1485 C 0.45833 0.8826 0.73714 0.0
C1486 C 0.45449 0.87971 0.69795 0.0
C1487 C 0.44782 0.87873 0.58133 0.0
C1488 C 0.44918 0.87761 0.62168 0.0
H1489 H 0.48564 0.90211 0.79037 0.0
H1490 H 0.47958 0.89511 0.7262 0.0
H1491 H 0.43885 0.88487 0.70189 0.0
H1492 H 0.42492 0.87704 0.51889 0.0
H1493 H 0.42627 0.87071 0.58217 0.0
C1494 C 0.2123 0.44991 0.24752 0.0
C1495 C 0.22059 0.45217 0.27823 0.0
C1496 C 0.21789 0.45533 0.2133 0.0
C1497 C 0.24919 0.46522 0.16415 0.0
H1498 H 0.22893 0.46873 0.08382 0.0
C1499 C 0.2456 0.46287 -0.0058 0.0
C1500 C 0.24696 0.45148 -0.01013 0.0
C1501 C 0.24565 0.46785 0.0294 0.0
C1502 C 0.23494 0.46811 0.10591 0.0
H1503 H 0.24107 0.46296 0.29831 0.0
H1504 H 0.25083 0.4728 0.23879 0.0
H1505 H 0.22274 0.47 0.14722 0.0
H1506 H 0.24998 0.43671 0.01867 0.0
H1507 H 0.24977 0.44515 0.0798 0.0
H1508 H 0.26129 0.46318 0.12289 0.0
C1509 C 0.24005 0.46644 0.24074 0.0
C1510 C 0.23127 0.46866 0.14229 0.0
C1511 C 0.23447 0.46082 0.27484 0.0
C1512 C 0.24887 0.44547 0.02115 0.0
C1513 C 0.2489 0.45042 0.05621 0.0
C1514 C 0.25296 0.46485 0.12786 0.0
C1515 C 0.23189 0.46329 0.20923 0.0
C1516 C 0.23788 0.46645 0.17176 0.0
C1517 C 0.2471 0.46154 0.0608 0.0
C1518 C 0.2454 0.46551 0.09839 0.0
H1519 H 0.20155 0.44332 0.24936 0.0
H1520 H 0.21126 0.45251 0.18968 0.0
H1521 H 0.25456 0.46347 0.18597 0.0
H1522 H 0.24421 0.46776 0.97049 0.0
H1523 H 0.24434 0.47648 0.03206 0.0
C1524 C 0.57171 0.78539 0.00337 0.0
C1525 C 0.5618 0.78123 0.97599 0.0
C1526 C 0.56883 0.77873 0.03705 0.0
C1527 C 0.54123 0.76125 0.09941 0.0
H1528 H 0.56753 0.75673 0.15474 0.0
C1529 C 0.55568 0.75352 0.25764 0.0
C1530 C 0.55485 0.76411 0.2743 0.0
C1531 C 0.55304 0.75087 0.2201 0.0
C1532 C 0.5599 0.75761 0.13955 0.0
H1533 H 0.5413 0.76654 0.9616 0.0
H1534 H 0.53621 0.75501 0.02104 0.0
H1535 H 0.57026 0.76047 0.08844 0.0
H1536 H 0.54968 0.7796 0.26528 0.0
H1537 H 0.54527 0.7751 0.19969 0.0
H1538 H 0.53124 0.75908 0.15089 0.0
C1539 C 0.54618 0.76339 0.01624 0.0
C1540 C 0.56153 0.75986 0.10168 0.0
C1541 C 0.54911 0.76998 0.98234 0.0
C1542 C 0.55052 0.77145 0.2532 0.0
C1543 C 0.54785 0.76877 0.21569 0.0
C1544 C 0.53962 0.75905 0.13736 0.0
C1545 C 0.55597 0.76785 0.04405 0.0
C1546 C 0.55254 0.76228 0.08164 0.0
C1547 C 0.54947 0.75872 0.1986 0.0
C1548 C 0.54926 0.75779 0.15796 0.0
H1549 H 0.58159 0.79399 -0.00087 0.0
H1550 H 0.5765 0.78249 0.05825 0.0
H1551 H 0.53417 0.76313 0.08456 0.0
H1552 H 0.55883 0.74755 0.27325 0.0
H1553 H 0.55424 0.74299 0.20763 0.0
C1554 C 0.24043 0.78097 0.27417 0.0
C1555 C 0.22867 0.77468 0.29539 0.0
C1556 C 0.24066 0.77627 0.23883 0.0
C1557 C 0.23392 0.77306 0.15826 0.0
H1558 H 0.20889 0.73716 0.12383 0.0
C1559 C 0.19575 0.75079 0.03332 0.0
C1560 C 0.20409 0.75719 0.00302 0.0
C1561 C 0.20129 0.75037 0.06719 0.0
C1562 C 0.21605 0.74719 0.13309 0.0
H1563 H 0.20827 0.75799 0.29749 0.0
H1564 H 0.20842 0.75023 0.23557 0.0
H1565 H 0.21521 0.74089 0.18895 0.0
H1566 H 0.2247 0.76765 0.98378 0.0
H1567 H 0.23437 0.76718 0.04334 0.0
H1568 H 0.23447 0.77939 0.10263 0.0
C1569 C 0.21762 0.75855 0.24619 0.0
C1570 C 0.21963 0.74935 0.17032 0.0
C1571 C 0.21747 0.76309 0.28171 0.0
C1572 C 0.21803 0.76272 0.00678 0.0
C1573 C 0.22357 0.76243 0.04073 0.0
C1574 C 0.23052 0.77085 0.12103 0.0
C1575 C 0.22905 0.76538 0.22378 0.0
C1576 C 0.22807 0.76243 0.18365 0.0
C1577 C 0.21526 0.75644 0.07134 0.0
C1578 C 0.22109 0.75802 0.1085 0.0
H1579 H 0.2493 0.78978 0.28437 0.0
H1580 H 0.24975 0.78157 0.22269 0.0
H1581 H 0.24032 0.78329 0.16735 0.0
H1582 H 0.18497 0.74635 0.03108 0.0
H1583 H 0.19468 0.74585 0.09057 0.0
C1584 C 0.16551 0.20928 0.27162 0.0
C1585 C 0.16988 0.22238 0.25937 0.0
C1586 C 0.17379 0.20373 0.26847 0.0
C1587 C 0.2021 0.207 0.21319 0.0
H1588 H 0.19922 0.17962 0.28082 0.0
C1589 C 0.2302 0.17603 0.2059 0.0
C1590 C 0.22128 0.16212 0.20714 0.0
C1591 C 0.22546 0.185 0.21082 0.0
C1592 C 0.20014 0.18729 0.26181 0.0
H1593 H 0.18666 0.24023 0.23618 0.0
H1594 H 0.20132 0.23062 0.23151 0.0
H1595 H 0.18902 0.19307 0.29693 0.0
H1596 H 0.20034 0.14673 0.21224 0.0
H1597 H 0.19221 0.16238 0.22141 0.0
H1598 H 0.21335 0.20111 0.17828 0.0
C1599 C 0.19135 0.22454 0.24277 0.0
C1600 C 0.19427 0.19495 0.2709 0.0
C1601 C 0.183 0.23008 0.24575 0.0
C1602 C 0.20749 0.15737 0.21125 0.0
C1603 C 0.20282 0.16631 0.21669 0.0
C1604 C 0.20818 0.19944 0.20438 0.0
C1605 C 0.18671 0.21118 0.25329 0.0
C1606 C 0.19479 0.2046 0.2462 0.0
C1607 C 0.2118 0.18015 0.21754 0.0
C1608 C 0.20687 0.18928 0.22817 0.0
H1609 H 0.15544 0.20306 0.28216 0.0
H1610 H 0.16977 0.19336 0.27636 0.0
H1611 H 0.20261 0.21425 0.19335 0.0
H1612 H 0.24088 0.17997 0.20274 0.0
H1613 H 0.23253 0.19567 0.21128 0.0
C1614 C 0.76574 0.95339 0.23111 0.0
C1615 C 0.77418 0.94954 0.24868 0.0
C1616 C 0.76997 0.967 0.22609 0.0
C1617 C 0.79501 0.00071 0.26012 0.0
H1618 H 0.7939 0.01309 0.16136 0.0
C1619 C 0.83493 0.05102 0.20624 0.0
C1620 C 0.83073 0.06016 0.1967 0.0
C1621 C 0.82557 0.03755 0.21149 0.0
C1622 C 0.79404 0.00972 0.18917 0.0
H1623 H 0.79347 0.95685 0.27549 0.0
H1624 H 0.80077 0.98034 0.26674 0.0
H1625 H 0.78136 0.989 0.17515 0.0
H1626 H 0.81349 0.06223 0.18312 0.0
H1627 H 0.79704 0.03834 0.19157 0.0
H1628 H 0.80837 0.0213 0.27348 0.0
C1629 C 0.79087 0.97297 0.2571 0.0
C1630 C 0.78686 0.996 0.19713 0.0
C1631 C 0.78672 0.95948 0.26184 0.0
C1632 C 0.817 0.0554 0.19055 0.0
C1633 C 0.80761 0.04179 0.19534 0.0
C1634 C 0.80225 0.01434 0.25209 0.0
C1635 C 0.78261 0.97691 0.23901 0.0
C1636 C 0.78772 0.99135 0.23234 0.0
C1637 C 0.81185 0.03289 0.20684 0.0
C1638 C 0.80218 0.01888 0.2163 0.0
H1639 H 0.75602 0.94592 0.22064 0.0
H1640 H 0.7634 0.96977 0.21207 0.0
H1641 H 0.79564 0.99744 0.28769 0.0
H1642 H 0.84542 0.05434 0.21111 0.0
H1643 H 0.82903 0.03077 0.22004 0.0
C1644 C 0.94294 0.7684 0.2198 0.0
C1645 C 0.93812 0.77746 0.22088 0.0
C1646 C 0.95647 0.77283 0.2269 0.0
C1647 C 0.98462 0.79871 0.27856 0.0
H1648 H 0.00763 0.79228 0.214 0.0
C1649 C 0.04166 0.83127 0.28144 0.0
C1650 C 0.0497 0.82579 0.2715 0.0
C1651 C 0.02772 0.82343 0.28057 0.0
C1652 C 0.00129 0.79391 0.23282 0.0
H1653 H 0.94378 0.79831 0.22865 0.0
H1654 H 0.96729 0.80595 0.24127 0.0
H1655 H 0.9838 0.78231 0.19943 0.0
H1656 H 0.04947 0.80756 0.25527 0.0
H1657 H 0.02503 0.79374 0.2544 0.0
H1658 H 0.00196 0.81032 0.31193 0.0
C1659 C 0.9606 0.79544 0.2352 0.0
C1660 C 0.98767 0.78826 0.2243 0.0
C1661 C 0.94716 0.79108 0.22767 0.0
C1662 C 0.04352 0.81207 0.26293 0.0
C1663 C 0.02953 0.80419 0.26213 0.0
C1664 C 0.99815 0.80422 0.28732 0.0
C1665 C 0.96531 0.78632 0.23568 0.0
C1666 C 0.97933 0.79096 0.24652 0.0
C1667 C 0.02148 0.80989 0.26992 0.0
C1668 C 0.00675 0.80223 0.26396 0.0
H1669 H 0.9362 0.75784 0.21463 0.0
H1670 H 0.95991 0.76563 0.227 0.0
H1671 H 0.9783 0.8007 0.29653 0.0
H1672 H 0.0461 0.84181 0.28821 0.0
H1673 H 0.02188 0.82822 0.28633 0.0
C1674 C 0.84075 0.78949 0.70138 0.0
C1675 C 0.83675 0.7758 0.7024 0.0
C1676 C 0.83125 0.79358 0.70359 0.0
C1677 C 0.7997 0.78922 0.68792 0.0
H1678 H 0.80115 0.80357 0.78579 0.0
C1679 C 0.76857 0.81434 0.72983 0.0
C1680 C 0.77624 0.82675 0.74764 0.0
C1681 C 0.77381 0.80579 0.72458 0.0
C1682 C 0.80059 0.79957 0.75837 0.0
H1683 H 0.81958 0.75564 0.70397 0.0
H1684 H 0.8029 0.76294 0.70747 0.0
H1685 H 0.81453 0.79306 0.77194 0.0
H1686 H 0.79525 0.83979 0.77464 0.0
H1687 H 0.80432 0.82504 0.76543 0.0
H1688 H 0.7863 0.79639 0.6737 0.0
C1689 C 0.81343 0.77039 0.70511 0.0
C1690 C 0.80818 0.79353 0.75059 0.0
C1691 C 0.82297 0.76626 0.70318 0.0
C1692 C 0.78907 0.8303 0.76082 0.0
C1693 C 0.79424 0.82178 0.75578 0.0
C1694 C 0.79212 0.79538 0.69564 0.0
C1695 C 0.81758 0.78407 0.70638 0.0
C1696 C 0.80803 0.78861 0.71515 0.0
C1697 C 0.78674 0.80948 0.73743 0.0
C1698 C 0.79283 0.80098 0.73068 0.0
H1699 H 0.85127 0.79708 0.70074 0.0
H1700 H 0.83459 0.80419 0.70464 0.0
H1701 H 0.79953 0.78549 0.66037 0.0
H1702 H 0.75865 0.81136 0.71934 0.0
H1703 H 0.76779 0.79634 0.71045 0.0
C1704 C 0.2329 0.05507 0.71946 0.0
C1705 C 0.22436 0.06049 0.71709 0.0
C1706 C 0.22764 0.04142 0.72679 0.0
C1707 C 0.19956 0.01448 0.77524 0.0
H1708 H 0.20681 0.98989 0.72055 0.0
C1709 C 0.16573 0.95773 0.78443 0.0
C1710 C 0.17116 0.9493 0.77991 0.0
C1711 C 0.17383 0.97158 0.78138 0.0
C1712 C 0.20492 0.99669 0.73663 0.0
H1713 H 0.20358 0.05572 0.71808 0.0
H1714 H 0.1945 0.03201 0.73099 0.0
H1715 H 0.21788 0.01352 0.70272 0.0
H1716 H 0.18953 0.94881 0.77082 0.0
H1717 H 0.2038 0.97314 0.76609 0.0
H1718 H 0.18664 0.99784 0.80919 0.0
C1719 C 0.20523 0.03833 0.72761 0.0
C1720 C 0.21119 0.01018 0.72623 0.0
C1721 C 0.21045 0.05189 0.71994 0.0
C1722 C 0.18505 0.95506 0.77438 0.0
C1723 C 0.1932 0.96897 0.77133 0.0
C1724 C 0.19342 0.00109 0.78588 0.0
C1725 C 0.21381 0.03306 0.73222 0.0
C1726 C 0.20825 0.01908 0.74483 0.0
C1727 C 0.18761 0.97736 0.77388 0.0
C1728 C 0.19572 0.99194 0.76608 0.0
H1729 H 0.24367 0.06146 0.71737 0.0
H1730 H 0.23444 0.03755 0.73009 0.0
H1731 H 0.19737 0.02125 0.79054 0.0
H1732 H 0.15507 0.95361 0.78872 0.0
H1733 H 0.16913 0.97769 0.78307 0.0
C1734 C 0.95408 0.16286 0.69492 0.0
C1735 C 0.94453 0.16643 0.70518 0.0
C1736 C 0.96774 0.1722 0.69703 0.0
C1737 C 0.99098 0.2025 0.74849 0.0
H1738 H 0.0171 0.2008 0.68473 0.0
C1739 C 0.0494 0.23301 0.76851 0.0
C1740 C 0.05519 0.22477 0.76795 0.0
C1741 C 0.03588 0.22776 0.75903 0.0
C1742 C 0.0099 0.20143 0.70263 0.0
H1743 H 0.94176 0.18282 0.72346 0.0
H1744 H 0.96569 0.19923 0.72654 0.0
H1745 H 0.99346 0.18878 0.66749 0.0
H1746 H 0.05125 0.20451 0.75828 0.0
H1747 H 0.02786 0.1955 0.74148 0.0
H1748 H 0.00757 0.21507 0.78381 0.0
C1749 C 0.9626 0.18913 0.71755 0.0
C1750 C 0.99637 0.19452 0.69287 0.0
C1751 C 0.9489 0.17975 0.71551 0.0
C1752 C 0.04713 0.21115 0.75891 0.0
C1753 C 0.03376 0.20599 0.749 0.0
C1754 C 0.00457 0.20955 0.75805 0.0
C1755 C 0.97218 0.18535 0.70928 0.0
C1756 C 0.98669 0.19458 0.71631 0.0
C1757 C 0.02807 0.21428 0.74832 0.0
C1758 C 0.01406 0.20868 0.73579 0.0
H1759 H 0.95105 0.15268 0.68687 0.0
H1760 H 0.97481 0.16886 0.69087 0.0
H1761 H 0.98378 0.20268 0.76736 0.0
H1762 H 0.05538 0.24354 0.77538 0.0
H1763 H 0.03165 0.2343 0.75886 0.0
C1764 C 0.84351 0.5621 0.59047 0.0
C1765 C 0.82961 0.55332 0.59331 0.0
C1766 C 0.85213 0.55711 0.58293 0.0
C1767 C 0.85165 0.52909 0.53554 0.0
H1768 H 0.884 0.53775 0.58991 0.0
C1769 C 0.87643 0.49686 0.52713 0.0
C1770 C 0.89039 0.50283 0.531 0.0
C1771 C 0.8702 0.50452 0.53035 0.0
C1772 C 0.87515 0.53545 0.57392 0.0
H1773 H 0.81393 0.53241 0.59264 0.0
H1774 H 0.82895 0.5238 0.57935 0.0
H1775 H 0.87088 0.54829 0.60717 0.0
H1776 H 0.90887 0.52165 0.53923 0.0
H1777 H 0.89796 0.53514 0.54422 0.0
H1778 H 0.85579 0.51629 0.50226 0.0
C1779 C 0.83315 0.53451 0.58256 0.0
C1780 C 0.86763 0.54143 0.584 0.0
C1781 C 0.82458 0.53945 0.59044 0.0
C1782 C 0.89808 0.51677 0.53621 0.0
C1783 C 0.89182 0.52447 0.53939 0.0
C1784 C 0.85922 0.52324 0.52524 0.0
C1785 C 0.84693 0.54331 0.57775 0.0
C1786 C 0.85563 0.53801 0.56548 0.0
C1787 C 0.87778 0.51836 0.53733 0.0
C1788 C 0.87086 0.52606 0.54492 0.0
H1789 H 0.84767 0.57283 0.59259 0.0
H1790 H 0.86274 0.56408 0.57945 0.0
H1791 H 0.84257 0.52653 0.52032 0.0
H1792 H 0.87021 0.48615 0.52313 0.0
H1793 H 0.85935 0.49944 0.52907 0.0
C1794 C 0.43702 0.28468 0.55054 0.0
C1795 C 0.44549 0.28046 0.56608 0.0
C1796 C 0.44143 0.29837 0.54684 0.0
C1797 C 0.46704 0.33142 0.58308 0.0
H1798 H 0.46421 0.34558 0.48852 0.0
C1799 C 0.5052 0.38325 0.53344 0.0
C1800 C 0.50048 0.39236 0.5314 0.0
C1801 C 0.49622 0.36955 0.53563 0.0
C1802 C 0.46484 0.3417 0.51519 0.0
H1803 H 0.46513 0.28725 0.59012 0.0
H1804 H 0.47276 0.31088 0.58352 0.0
H1805 H 0.4522 0.32123 0.49864 0.0
H1806 H 0.48266 0.39422 0.52763 0.0
H1807 H 0.46687 0.36998 0.53082 0.0
H1808 H 0.4803 0.35178 0.59884 0.0
C1809 C 0.46268 0.30372 0.5746 0.0
C1810 C 0.45797 0.32783 0.52105 0.0
C1811 C 0.45834 0.29014 0.5781 0.0
C1812 C 0.48657 0.38742 0.52929 0.0
C1813 C 0.47755 0.37362 0.53105 0.0
C1814 C 0.47395 0.34519 0.5771 0.0
C1815 C 0.4543 0.30801 0.559 0.0
C1816 C 0.45941 0.32256 0.55466 0.0
C1817 C 0.48237 0.36467 0.5353 0.0
C1818 C 0.47322 0.35038 0.54282 0.0
H1819 H 0.42706 0.27742 0.54101 0.0
H1820 H 0.43476 0.30142 0.53474 0.0
H1821 H 0.4681 0.32766 0.60951 0.0
H1822 H 0.51583 0.38672 0.53501 0.0
H1823 H 0.50008 0.36274 0.53876 0.0
C1824 C 0.62511 0.12248 0.51288 0.0
C1825 C 0.61638 0.10911 0.52305 0.0
C1826 C 0.63882 0.12724 0.50902 0.0
C1827 C 0.66481 0.12104 0.54516 0.0
H1828 H 0.68721 0.14926 0.47666 0.0
C1829 C 0.72276 0.15139 0.55836 0.0
C1830 C 0.72786 0.16531 0.55805 0.0
C1831 C 0.70952 0.14261 0.54728 0.0
C1832 C 0.68108 0.14133 0.49585 0.0
H1833 H 0.61505 0.09005 0.53517 0.0
H1834 H 0.63907 0.0984 0.52827 0.0
H1835 H 0.66294 0.13697 0.46805 0.0
H1836 H 0.72328 0.18096 0.54485 0.0
H1837 H 0.70037 0.16574 0.52561 0.0
H1838 H 0.68294 0.12576 0.57374 0.0
C1839 C 0.6353 0.10521 0.5237 0.0
C1840 C 0.6672 0.13432 0.49096 0.0
C1841 C 0.62155 0.10043 0.52747 0.0
C1842 C 0.71964 0.17028 0.54553 0.0
C1843 C 0.70653 0.16156 0.53416 0.0
C1844 C 0.67872 0.12804 0.55 0.0
C1845 C 0.64412 0.11875 0.51526 0.0
C1846 C 0.65887 0.12442 0.51632 0.0
C1847 C 0.70127 0.14764 0.53523 0.0
C1848 C 0.68694 0.13858 0.52615 0.0
H1849 H 0.62144 0.12941 0.50922 0.0
H1850 H 0.64534 0.13776 0.50295 0.0
H1851 H 0.65868 0.11355 0.56538 0.0
H1852 H 0.72888 0.14728 0.56784 0.0
H1853 H 0.70571 0.13191 0.54832 0.0
C1854 C 0.45574 0.1698 0.04298 0.0
C1855 C 0.44252 0.16497 0.05503 0.0
C1856 C 0.46009 0.16096 0.03264 0.0
C1857 C 0.45432 0.12758 0.05065 0.0
H1858 H 0.47858 0.13565 0.96808 0.0
C1859 C 0.48372 0.09974 0.03046 0.0
C1860 C 0.49754 0.10836 0.02526 0.0
C1861 C 0.47474 0.10448 0.0263 0.0
C1862 C 0.4718 0.13324 -0.00882 0.0
H1863 H 0.42341 0.14707 0.0653 0.0
H1864 H 0.43115 0.13148 0.04768 0.0
H1865 H 0.4667 0.14807 0.97577 0.0
H1866 H 0.51271 0.12849 0.00966 0.0
H1867 H 0.49714 0.13677 0.00274 0.0
H1868 H 0.45991 0.11324 0.06718 0.0
C1869 C 0.43808 0.14216 0.04613 0.0
C1870 C 0.46499 0.14033 -0.00446 0.0
C1871 C 0.43366 0.15106 0.05613 0.0
C1872 C 0.50212 0.1216 0.01394 0.0
C1873 C 0.49316 0.12632 0.0097 0.0
C1874 C 0.46118 0.12052 0.04638 0.0
C1875 C 0.45135 0.14705 0.03435 0.0
C1876 C 0.45654 0.13789 0.02601 0.0
C1877 C 0.47941 0.11792 0.0167 0.0
C1878 C 0.47034 0.1236 0.0173 0.0
H1879 H 0.46281 0.18046 0.04172 0.0
H1880 H 0.47044 0.16502 0.02428 0.0
H1881 H 0.44794 0.12556 0.07453 0.0
H1882 H 0.47988 0.08946 0.03907 0.0
H1883 H 0.46418 0.09772 0.03147 0.0
C1884 C 0.90146 0.3829 0.03053 0.0
C1885 C 0.89329 0.38793 0.01793 0.0
C1886 C 0.89702 0.3692 0.02827 0.0
C1887 C 0.87101 0.33674 -0.0106 0.0
H1888 H 0.86991 0.32334 0.08825 0.0
C1889 C 0.83265 0.2889 0.07721 0.0
C1890 C 0.83168 0.27796 0.05752 0.0
C1891 C 0.8429 0.30187 0.06955 0.0
C1892 C 0.87033 0.32693 0.0604 0.0
H1893 H 0.87467 0.38282 -0.01003 0.0
H1894 H 0.86697 0.35894 0.98582 0.0
H1895 H 0.88368 0.34727 0.0759 0.0
H1896 H 0.84065 0.27194 0.01445 0.0
H1897 H 0.85844 0.29487 0.00015 0.0
H1898 H 0.85713 0.31635 0.9745 0.0
C1899 C 0.87678 0.36555 -0.00246 0.0
C1900 C 0.87827 0.3406 0.05323 0.0
C1901 C 0.88114 0.37921 0.00015 0.0
C1902 C 0.84121 0.28022 0.03009 0.0
C1903 C 0.85133 0.29328 0.02186 0.0
C1904 C 0.8632 0.32301 -0.00351 0.0
C1905 C 0.88442 0.36034 0.01295 0.0
C1906 C 0.87832 0.34569 0.01799 0.0
C1907 C 0.85224 0.30419 0.04162 0.0
C1908 C 0.86243 0.3181 0.03237 0.0
H1909 H 0.91091 0.38939 0.0442 0.0
H1910 H 0.90315 0.36544 0.04008 0.0
H1911 H 0.87091 0.34042 0.96199 0.0
H1912 H 0.82547 0.28744 0.09858 0.0
H1913 H 0.84332 0.31015 0.08487 0.0
C1914 C 0.71957 0.56601 0.06943 0.0
C1915 C 0.72419 0.55871 0.08969 0.0
C1916 C 0.70584 0.56126 0.06589 0.0
C1917 C 0.67283 0.53898 0.10489 0.0
H1918 H 0.66016 0.53207 0.00356 0.0
C1919 C 0.61686 0.51457 0.06786 0.0
C1920 C 0.61224 0.50248 0.04846 0.0
C1921 C 0.63058 0.52365 0.07081 0.0
C1922 C 0.6636 0.53409 0.03191 0.0
H1923 H 0.71817 0.54123 0.12403 0.0
H1924 H 0.69414 0.53311 0.11863 0.0
H1925 H 0.68431 0.54425 0.01629 0.0
H1926 H 0.61824 0.4908 0.01484 0.0
H1927 H 0.64226 0.50688 0.01923 0.0
H1928 H 0.65212 0.52862 0.12053 0.0
C1929 C 0.70116 0.54242 0.10522 0.0
C1930 C 0.67735 0.54108 0.0392 0.0
C1931 C 0.71488 0.54703 0.10821 0.0
C1932 C 0.62153 0.50004 0.03002 0.0
C1933 C 0.63524 0.50923 0.03243 0.0
C1934 C 0.65908 0.53221 0.0976 0.0
C1935 C 0.69654 0.54929 0.08317 0.0
C1936 C 0.68206 0.54334 0.07574 0.0
C1937 C 0.63988 0.5209 0.0538 0.0
C1938 C 0.65436 0.52947 0.06107 0.0
H1939 H 0.72652 0.57503 0.05477 0.0
H1940 H 0.70248 0.56674 0.0489 0.0
H1941 H 0.67626 0.54062 0.13326 0.0
H1942 H 0.60993 0.51671 0.08243 0.0
H1943 H 0.63395 0.53263 0.08725 0.0
C1944 C 0.51809 0.90046 0.95015 0.0
C1945 C 0.5044 0.89166 0.95691 0.0
C1946 C 0.52731 0.89596 0.95291 0.0
C1947 C 0.53139 0.86766 0.98617 0.0
H1948 H 0.55323 0.87481 0.89851 0.0
C1949 C 0.54543 0.83046 0.92811 0.0
C1950 C 0.5583 0.83501 0.91359 0.0
C1951 C 0.5416 0.83952 0.94015 0.0
C1952 C 0.54744 0.87295 0.92357 0.0
H1953 H 0.48975 0.87153 0.97401 0.0
H1954 H 0.50573 0.86368 0.9786 0.0
H1955 H 0.54148 0.8872 0.90904 0.0
H1956 H 0.57732 0.85265 0.90064 0.0
H1957 H 0.57045 0.86864 0.92118 0.0
H1958 H 0.53679 0.85289 -0.0004 0.0
C1959 C 0.50943 0.87407 0.97142 0.0
C1960 C 0.54071 0.88005 0.92965 0.0
C1961 C 0.50022 0.87854 0.96852 0.0
C1962 C 0.56733 0.84887 0.91168 0.0
C1963 C 0.56341 0.85799 0.92338 0.0
C1964 C 0.53807 0.86054 0.98002 0.0
C1965 C 0.52301 0.88262 0.96272 0.0
C1966 C 0.53221 0.87712 0.96031 0.0
C1967 C 0.55049 0.85338 0.93772 0.0
C1968 C 0.54575 0.86276 0.94795 0.0
H1969 H 0.52161 0.91066 0.94127 0.0
H1970 H 0.53774 0.90282 0.94642 0.0
H1971 H 0.52513 0.86537 0.01043 0.0
H1972 H 0.53825 0.81985 0.93009 0.0
H1973 H 0.5315 0.83566 0.95045 0.0
C1974 C 0.10044 0.61155 0.91175 0.0
C1975 C 0.10791 0.60533 0.90277 0.0
C1976 C 0.10562 0.62522 0.90452 0.0
C1977 C 0.13836 0.65581 0.89021 0.0
H1978 H 0.11744 0.67179 0.8574 0.0
C1979 C 0.16442 0.7108 0.85074 0.0
C1980 C 0.15972 0.71846 0.86867 0.0
C1981 C 0.15672 0.69686 0.85024 0.0
C1982 C 0.12336 0.66742 0.86667 0.0
H1983 H 0.12619 0.60826 0.87712 0.0
H1984 H 0.13498 0.6318 0.86364 0.0
H1985 H 0.10647 0.64743 0.86603 0.0
H1986 H 0.14282 0.71758 0.89769 0.0
H1987 H 0.12934 0.69309 0.89688 0.0
H1988 H 0.15521 0.67564 0.89086 0.0
C1989 C 0.12537 0.62635 0.87738 0.0
C1990 C 0.1171 0.65352 0.87174 0.0
C1991 C 0.1203 0.61282 0.88495 0.0
C1992 C 0.14673 0.71193 0.88375 0.0
C1993 C 0.13899 0.69793 0.88322 0.0
C1994 C 0.1446 0.66959 0.88492 0.0
C1995 C 0.1183 0.63282 0.88795 0.0
C1996 C 0.12459 0.64756 0.88323 0.0
C1997 C 0.14415 0.69027 0.86767 0.0
C1998 C 0.13722 0.67555 0.87279 0.0
H1999 H 0.09084 0.60598 0.92547 0.0
H2000 H 0.09994 0.62991 0.91309 0.0
H2001 H 0.14437 0.65163 0.90016 0.0
H2002 H 0.17432 0.71554 0.8385 0.0
H2003 H 0.16083 0.6912 0.83741 0.0
C2004 C 0.28792 0.43191 0.87971 0.0
C2005 C 0.28407 0.44024 0.86162 0.0
C2006 C 0.30144 0.43554 0.88185 0.0
C2007 C 0.33004 0.45323 0.90976 0.0
H2008 H 0.35619 0.47038 0.83172 0.0
C2009 C 0.38355 0.49602 0.93375 0.0
C2010 C 0.39415 0.4959 0.91501 0.0
C2011 C 0.37032 0.48621 0.92668 0.0
C2012 C 0.349 0.46541 0.85365 0.0
H2013 H 0.29119 0.45835 0.82922 0.0
H2014 H 0.31476 0.46461 0.83262 0.0
H2015 H 0.33224 0.45813 0.81667 0.0
H2016 H 0.3993 0.48531 0.87468 0.0
H2017 H 0.37595 0.46825 0.86146 0.0
H2018 H 0.34674 0.46114 0.94697 0.0
C2019 C 0.30735 0.4553 0.84524 0.0
C2020 C 0.33533 0.45849 0.84508 0.0
C2021 C 0.29386 0.45176 0.84348 0.0
C2022 C 0.39129 0.48561 0.88954 0.0
C2023 C 0.37798 0.4759 0.88192 0.0
C2024 C 0.34369 0.46028 0.91836 0.0
C2025 C 0.31131 0.44746 0.86549 0.0
C2026 C 0.32572 0.45265 0.8732 0.0
C2027 C 0.36739 0.47618 0.90031 0.0
C2028 C 0.35326 0.46675 0.89051 0.0
H2029 H 0.28059 0.42295 0.89392 0.0
H2030 H 0.30423 0.42928 0.89743 0.0
H2031 H 0.32286 0.44894 0.93204 0.0
H2032 H 0.38547 0.50381 0.95364 0.0
H2033 H 0.36233 0.48675 0.94091 0.0
C2034 C 0.11752 0.49842 0.41938 0.0
C2035 C 0.10727 0.49901 0.39994 0.0
C2036 C 0.11985 0.48778 0.41388 0.0
C2037 C 0.1185 0.46078 0.40863 0.0
H2038 H 0.1257 0.45573 0.30713 0.0
C2039 C 0.14177 0.42823 0.37185 0.0
C2040 C 0.15386 0.43564 0.35246 0.0
C2041 C 0.13266 0.43288 0.37438 0.0
C2042 C 0.12354 0.45689 0.33553 0.0
H2043 H 0.09122 0.48879 0.36012 0.0
H2044 H 0.09555 0.47026 0.34981 0.0
H2045 H 0.11581 0.46974 0.32074 0.0
H2046 H 0.16548 0.45316 0.31837 0.0
H2047 H 0.14951 0.46115 0.32227 0.0
H2048 H 0.12678 0.44844 0.42357 0.0
C2049 C 0.10167 0.47801 0.36951 0.0
C2050 C 0.11782 0.46483 0.3433 0.0
C2051 C 0.09919 0.48858 0.37546 0.0
C2052 C 0.15626 0.44728 0.33362 0.0
C2053 C 0.14708 0.4518 0.33566 0.0
C2054 C 0.12406 0.45271 0.40084 0.0
C2055 C 0.11209 0.47759 0.38848 0.0
C2056 C 0.1157 0.46722 0.38 0.0
C2057 C 0.1354 0.44487 0.35697 0.0
C2058 C 0.12706 0.45108 0.36431 0.0
H2059 H 0.12387 0.50628 0.43855 0.0
H2060 H 0.12806 0.48778 0.42853 0.0
H2061 H 0.11687 0.46241 0.43714 0.0
H2062 H 0.13967 0.41923 0.38669 0.0
H2063 H 0.1237 0.42734 0.39087 0.0
C2064 C 0.49781 0.61712 0.38072 0.0
C2065 C 0.50004 0.60761 0.39855 0.0
C2066 C 0.50842 0.63001 0.37428 0.0
C2067 C 0.53935 0.65518 0.4135 0.0
H2068 H 0.54265 0.67337 0.32082 0.0
C2069 C 0.56957 0.7131 0.40061 0.0
C2070 C 0.56203 0.71819 0.38383 0.0
C2071 C 0.5653 0.69939 0.39834 0.0
C2072 C 0.54193 0.66843 0.34683 0.0
H2073 H 0.51511 0.604 0.42326 0.0
H2074 H 0.53372 0.62688 0.41297 0.0
H2075 H 0.52872 0.64903 0.3241 0.0
H2076 H 0.54442 0.71305 0.35055 0.0
H2077 H 0.53702 0.68939 0.34686 0.0
H2078 H 0.55178 0.67466 0.43691 0.0
C2079 C 0.52376 0.6242 0.40356 0.0
C2080 C 0.534 0.65452 0.34863 0.0
C2081 C 0.51314 0.61116 0.40935 0.0
C2082 C 0.55044 0.70945 0.36391 0.0
C2083 C 0.54626 0.69588 0.36143 0.0
C2084 C 0.54722 0.66915 0.41179 0.0
C2085 C 0.52145 0.63373 0.38608 0.0
C2086 C 0.5322 0.64784 0.38231 0.0
C2087 C 0.55355 0.69064 0.37887 0.0
C2088 C 0.54807 0.67594 0.3788 0.0
H2089 H 0.48783 0.61464 0.37199 0.0
H2090 H 0.50635 0.63723 0.36119 0.0
H2091 H 0.53807 0.65024 0.43983 0.0
H2092 H 0.57856 0.71962 0.41609 0.0
H2093 H 0.57112 0.69562 0.41202 0.0
C2094 C 0.38045 0.88524 0.44977 0.0
C2095 C 0.39035 0.89716 0.43346 0.0
C2096 C 0.36689 0.88124 0.44564 0.0
C2097 C 0.34506 0.88248 0.37746 0.0
H2098 H 0.31772 0.86749 0.45333 0.0
C2099 C 0.29011 0.84104 0.35546 0.0
C2100 C 0.2801 0.84275 0.37236 0.0
C2101 C 0.30363 0.85042 0.36099 0.0
C2102 C 0.32527 0.87181 0.43195 0.0
H2103 H 0.3939 0.91461 0.40183 0.0
H2104 H 0.37017 0.90743 0.39396 0.0
H2105 H 0.34147 0.87909 0.47089 0.0
H2106 H 0.27632 0.85587 0.40702 0.0
H2107 H 0.30004 0.8721 0.41747 0.0
H2108 H 0.32887 0.87452 0.33843 0.0
C2109 C 0.37293 0.90126 0.41007 0.0
C2110 C 0.3388 0.87836 0.44198 0.0
C2111 C 0.38649 0.90538 0.41474 0.0
C2112 C 0.28383 0.85433 0.3935 0.0
C2113 C 0.29737 0.86357 0.39966 0.0
C2114 C 0.33154 0.87571 0.36741 0.0
C2115 C 0.36303 0.889 0.42467 0.0
C2116 C 0.34879 0.88357 0.41477 0.0
C2117 C 0.30735 0.86153 0.38408 0.0
C2118 C 0.32155 0.87016 0.39456 0.0
H2119 H 0.38314 0.87872 0.46439 0.0
H2120 H 0.35941 0.8717 0.45698 0.0
H2121 H 0.3526 0.8863 0.35597 0.0
H2122 H 0.2875 0.8322 0.33904 0.0
H2123 H 0.31118 0.84861 0.34887 0.0
C2124 C 0.28577 0.15318 0.19653 0.0
C2125 C 0.27871 0.14026 0.21178 0.0
C2126 C 0.29921 0.15868 0.1864 0.0
C2127 C 0.32909 0.15496 0.2014 0.0
H2128 H 0.34207 0.177 0.11361 0.0
C2129 C 0.38209 0.17379 0.14027 0.0
C2130 C 0.38922 0.1874 0.13027 0.0
C2131 C 0.36855 0.16773 0.15014 0.0
C2132 C 0.3386 0.17093 0.13832 0.0
H2133 H 0.28023 0.12294 0.22797 0.0
H2134 H 0.30355 0.13241 0.20953 0.0
H2135 H 0.31852 0.16694 0.13065 0.0
H2136 H 0.38769 0.20528 0.1227 0.0
H2137 H 0.36411 0.19467 0.13966 0.0
H2138 H 0.34921 0.15887 0.20864 0.0
C2139 C 0.2988 0.13842 0.20614 0.0
C2140 C 0.32512 0.1652 0.1482 0.0
C2141 C 0.28539 0.13296 0.21655 0.0
C2142 C 0.38252 0.19478 0.1303 0.0
C2143 C 0.36898 0.18869 0.13978 0.0
C2144 C 0.34256 0.16061 0.19132 0.0
C2145 C 0.3059 0.15136 0.19097 0.0
C2146 C 0.3202 0.15722 0.18002 0.0
C2147 C 0.36185 0.17511 0.14978 0.0
C2148 C 0.34747 0.16873 0.15984 0.0
H2149 H 0.28095 0.1591 0.19266 0.0
H2150 H 0.30441 0.16876 0.1754 0.0
H2151 H 0.32572 0.14905 0.22638 0.0
H2152 H 0.38695 0.16782 0.14056 0.0
H2153 H 0.36327 0.15722 0.15752 0.0
C2154 C 0.79564 0.1864 0.10502 0.0
C2155 C 0.80359 0.20044 0.10592 0.0
C2156 C 0.80143 0.17836 0.11027 0.0
C2157 C 0.8342 0.17946 0.10904 0.0
H2158 H 0.81567 0.14766 0.16984 0.0
C2159 C 0.86019 0.1525 0.17271 0.0
C2160 C 0.85318 0.13841 0.17224 0.0
C2161 C 0.85396 0.1596 0.16114 0.0
C2162 C 0.82088 0.15642 0.1524 0.0
H2163 H 0.82386 0.21705 0.11321 0.0
H2164 H 0.83387 0.20308 0.12315 0.0
H2165 H 0.80505 0.16096 0.1566 0.0
H2166 H 0.8342 0.12075 0.15862 0.0
H2167 H 0.82331 0.13321 0.13861 0.0
H2168 H 0.85018 0.17507 0.10574 0.0
C2169 C 0.82321 0.19824 0.1176 0.0
C2170 C 0.8148 0.16403 0.14475 0.0
C2171 C 0.81744 0.20626 0.11214 0.0
C2172 C 0.83987 0.1316 0.15937 0.0
C2173 C 0.83361 0.13871 0.14808 0.0
C2174 C 0.84031 0.17189 0.1169 0.0
C2175 C 0.81528 0.1842 0.11673 0.0
C2176 C 0.82144 0.17572 0.12328 0.0
C2177 C 0.84056 0.15279 0.1491 0.0
C2178 C 0.83377 0.16037 0.13893 0.0
H2179 H 0.78494 0.18158 0.10009 0.0
H2180 H 0.79505 0.16758 0.10896 0.0
H2181 H 0.83949 0.18825 0.09181 0.0
H2182 H 0.87046 0.15806 0.18239 0.0
H2183 H 0.85952 0.17045 0.16256 0.0
C2184 C 0.79565 0.61865 0.10872 0.0
C2185 C 0.80198 0.61259 0.09022 0.0
C2186 C 0.803 0.63197 0.12028 0.0
C2187 C 0.83733 0.65832 0.14359 0.0
H2188 H 0.82224 0.68171 0.13602 0.0
C2189 C 0.86739 0.71474 0.17982 0.0
C2190 C 0.86058 0.72005 0.19951 0.0
C2191 C 0.86045 0.70171 0.16574 0.0
C2192 C 0.82653 0.67526 0.13866 0.0
H2193 H 0.82099 0.61589 0.06883 0.0
H2194 H 0.8338 0.63922 0.08875 0.0
H2195 H 0.8098 0.65897 0.1116 0.0
H2196 H 0.84114 0.71573 0.2202 0.0
H2197 H 0.82907 0.69297 0.19591 0.0
H2198 H 0.85405 0.67461 0.17079 0.0
C2199 C 0.82317 0.63358 0.09469 0.0
C2200 C 0.81941 0.66224 0.12464 0.0
C2201 C 0.81581 0.62024 0.08308 0.0
C2202 C 0.84669 0.71198 0.20508 0.0
C2203 C 0.83975 0.69896 0.19095 0.0
C2204 C 0.84447 0.67136 0.15759 0.0
C2205 C 0.81686 0.63957 0.11363 0.0
C2206 C 0.82469 0.65359 0.12715 0.0
C2207 C 0.84654 0.6937 0.17097 0.0
C2208 C 0.8391 0.67994 0.15549 0.0
H2209 H 0.78503 0.61306 0.11478 0.0
H2210 H 0.79786 0.63622 0.13522 0.0
H2211 H 0.84159 0.65185 0.14645 0.0
H2212 H 0.87808 0.72068 0.17495 0.0
H2213 H 0.86594 0.69799 0.15016 0.0
C2214 C 0.19296 0.38018 0.34395 0.0
C2215 C 0.18507 0.38623 0.33892 0.0
C2216 C 0.18866 0.36729 0.33044 0.0
C2217 C 0.15815 0.33642 0.30071 0.0
H2218 H 0.18337 0.32789 0.25468 0.0
C2219 C 0.14031 0.28553 0.23085 0.0
C2220 C 0.14747 0.27897 0.23962 0.0
C2221 C 0.14545 0.29901 0.23991 0.0
C2222 C 0.17623 0.33011 0.26769 0.0
H2223 H 0.16648 0.38345 0.31554 0.0
H2224 H 0.15907 0.36107 0.29178 0.0
H2225 H 0.19117 0.35058 0.27748 0.0
H2226 H 0.16599 0.28165 0.26324 0.0
H2227 H 0.17492 0.30517 0.27917 0.0
H2228 H 0.14324 0.31598 0.29114 0.0
C2229 C 0.1685 0.36621 0.3066 0.0
C2230 C 0.1807 0.34308 0.28082 0.0
C2231 C 0.17278 0.37908 0.3201 0.0
C2232 C 0.16019 0.28638 0.2561 0.0
C2233 C 0.16534 0.29989 0.26514 0.0
C2234 C 0.15369 0.32348 0.28755 0.0
C2235 C 0.17637 0.36015 0.31161 0.0
C2236 C 0.1717 0.34639 0.29752 0.0
C2237 C 0.15788 0.30626 0.25792 0.0
C2238 C 0.16267 0.32016 0.27089 0.0
H2239 H 0.20247 0.38539 0.35835 0.0
H2240 H 0.19488 0.36284 0.33519 0.0
H2241 H 0.151 0.33855 0.31401 0.0
H2242 H 0.13052 0.28017 0.21794 0.0
H2243 H 0.13957 0.3037 0.23334 0.0
C2244 C 0.61889 0.81333 0.3703 0.0
C2245 C 0.61377 0.79941 0.37165 0.0
C2246 C 0.63238 0.82204 0.3622 0.0
C2247 C 0.66558 0.82445 0.36016 0.0
H2248 H 0.67436 0.8535 0.29155 0.0
C2249 C 0.71833 0.85585 0.2973 0.0
C2250 C 0.72353 0.86975 0.29413 0.0
C2251 C 0.70499 0.84741 0.30754 0.0
C2252 C 0.6721 0.84554 0.3111 0.0
H2253 H 0.61892 0.78376 0.36606 0.0
H2254 H 0.64245 0.79898 0.35167 0.0
H2255 H 0.65104 0.83851 0.30858 0.0
H2256 H 0.71875 0.88566 0.2993 0.0
H2257 H 0.6955 0.87093 0.31746 0.0
H2258 H 0.68663 0.83146 0.36258 0.0
C2259 C 0.63603 0.80316 0.35723 0.0
C2260 C 0.65873 0.83695 0.32086 0.0
C2261 C 0.62253 0.79443 0.3653 0.0
C2262 C 0.71507 0.875 0.30137 0.0
C2263 C 0.70172 0.86655 0.31161 0.0
C2264 C 0.67894 0.83304 0.35041 0.0
C2265 C 0.64109 0.81705 0.35529 0.0
C2266 C 0.65532 0.82629 0.34543 0.0
C2267 C 0.69654 0.85267 0.31486 0.0
C2268 C 0.68235 0.84366 0.32568 0.0
H2269 H 0.61246 0.81753 0.3752 0.0
H2270 H 0.63601 0.83271 0.36145 0.0
H2271 H 0.66329 0.81645 0.37957 0.0
H2272 H 0.72454 0.85144 0.29182 0.0
H2273 H 0.70126 0.83674 0.30926 0.0
C2274 C 0.18571 0.80344 0.36533 0.0
C2275 C 0.19955 0.81107 0.35822 0.0
C2276 C 0.17693 0.80747 0.35175 0.0
C2277 C 0.1739 0.8284 0.27975 0.0
H2278 H 0.14521 0.82575 0.34157 0.0
C2279 C 0.14232 0.85291 0.24181 0.0
C2280 C 0.12859 0.84594 0.25054 0.0
C2281 C 0.15069 0.84805 0.25317 0.0
C2282 C 0.15305 0.82637 0.32375 0.0
H2283 H 0.215 0.82905 0.33154 0.0
H2284 H 0.19966 0.83614 0.30818 0.0
H2285 H 0.1605 0.81875 0.36574 0.0
H2286 H 0.1128 0.82812 0.27697 0.0
H2287 H 0.12739 0.81957 0.29636 0.0
H2288 H 0.16647 0.83607 0.23781 0.0
C2289 C 0.1956 0.82693 0.32386 0.0
C2290 C 0.16183 0.82238 0.33764 0.0
C2291 C 0.2044 0.82291 0.33749 0.0
C2292 C 0.12334 0.83378 0.26989 0.0
C2293 C 0.13172 0.82892 0.28126 0.0
C2294 C 0.16511 0.83237 0.26584 0.0
C2295 C 0.18176 0.81922 0.33071 0.0
C2296 C 0.17238 0.82339 0.31585 0.0
C2297 C 0.14553 0.83611 0.27351 0.0
C2298 C 0.1546 0.83144 0.28772 0.0
H2299 H 0.18161 0.79425 0.3811 0.0
H2300 H 0.1663 0.80124 0.35718 0.0
H2301 H 0.1818 0.82909 0.26205 0.0
H2302 H 0.14672 0.86232 0.22699 0.0
H2303 H 0.1613 0.85389 0.24705 0.0
C2304 C 0.7126 0.83829 0.78655 0.0
C2305 C 0.72123 0.8522 0.78331 0.0
C2306 C 0.69888 0.83305 0.79257 0.0
C2307 C 0.67438 0.84231 0.82674 0.0
H2308 H 0.64863 0.81077 0.77274 0.0
C2309 C 0.61752 0.82313 0.83279 0.0
C2310 C 0.60904 0.80921 0.83627 0.0
C2311 C 0.63114 0.82848 0.82486 0.0
C2312 C 0.65569 0.81951 0.78829 0.0
H2313 H 0.72216 0.87149 0.78404 0.0
H2314 H 0.69828 0.86234 0.7943 0.0
H2315 H 0.67257 0.81974 0.76277 0.0
H2316 H 0.60825 0.78999 0.83353 0.0
H2317 H 0.63195 0.79933 0.82014 0.0
H2318 H 0.65754 0.84204 0.85245 0.0
C2319 C 0.70213 0.85549 0.79255 0.0
C2320 C 0.66941 0.82464 0.78261 0.0
C2321 C 0.71583 0.86073 0.78645 0.0
C2322 C 0.61446 0.80076 0.83098 0.0
C2323 C 0.62806 0.80611 0.82309 0.0
C2324 C 0.66067 0.83717 0.83247 0.0
C2325 C 0.69349 0.8416 0.7956 0.0
C2326 C 0.67891 0.83608 0.80179 0.0
C2327 C 0.63659 0.82004 0.82024 0.0
C2328 C 0.65116 0.8257 0.81336 0.0
H2329 H 0.71643 0.83143 0.78433 0.0
H2330 H 0.6925 0.8223 0.79522 0.0
H2331 H 0.68145 0.85103 0.84234 0.0
H2332 H 0.61368 0.82992 0.83657 0.0
H2333 H 0.6374 0.83924 0.82233 0.0
C2334 C 0.16994 0.79278 0.87344 0.0
C2335 C 0.18163 0.79749 0.89488 0.0
C2336 C 0.16533 0.80144 0.86279 0.0
C2337 C 0.17777 0.83738 0.8476 0.0
H2338 H 0.13999 0.8262 0.84116 0.0
C2339 C 0.15899 0.87384 0.80802 0.0
C2340 C 0.14798 0.86893 0.78381 0.0
C2341 C 0.16301 0.86522 0.82298 0.0
C2342 C 0.15058 0.82943 0.84249 0.0
H2343 H 0.19725 0.81488 0.92347 0.0
H2344 H 0.18911 0.82989 0.90537 0.0
H2345 H 0.14679 0.81085 0.86628 0.0
H2346 H 0.13267 0.85109 0.75603 0.0
H2347 H 0.13978 0.83614 0.78181 0.0
H2348 H 0.18156 0.85592 0.8236 0.0
C2349 C 0.18366 0.81957 0.89612 0.0
C2350 C 0.15447 0.82064 0.85692 0.0
C2351 C 0.18827 0.81092 0.90671 0.0
C2352 C 0.14118 0.85523 0.77464 0.0
C2353 C 0.14518 0.84662 0.78965 0.0
C2354 C 0.17388 0.84617 0.83322 0.0
C2355 C 0.1723 0.81501 0.87341 0.0
C2356 C 0.16811 0.82449 0.85948 0.0
C2357 C 0.15609 0.85149 0.81414 0.0
C2358 C 0.16024 0.84227 0.8303 0.0
H2359 H 0.16458 0.78251 0.86378 0.0
H2360 H 0.15661 0.79763 0.84506 0.0
H2361 H 0.18835 0.84059 0.84856 0.0
H2362 H 0.16443 0.88432 0.81576 0.0
H2363 H 0.17139 0.86926 0.84202 0.0
C2364 C 0.20863 0.38411 0.86973 0.0
C2365 C 0.20399 0.39263 0.88202 0.0
C2366 C 0.19967 0.37058 0.86298 0.0
C2367 C 0.16533 0.34288 0.88157 0.0
H2368 H 0.17173 0.32788 0.79331 0.0
C2369 C 0.1286 0.28928 0.82492 0.0
C2370 C 0.13462 0.28206 0.81168 0.0
C2371 C 0.13651 0.30273 0.8355 0.0
C2372 C 0.16986 0.33187 0.81825 0.0
H2373 H 0.18625 0.39349 0.89772 0.0
H2374 H 0.17056 0.36982 0.88552 0.0
H2375 H 0.18653 0.35137 0.80809 0.0
H2376 H 0.1537 0.28319 0.80072 0.0
H2377 H 0.16735 0.30643 0.81929 0.0
H2378 H 0.14858 0.32325 0.89148 0.0
C2379 C 0.18118 0.37363 0.88143 0.0
C2380 C 0.17837 0.34535 0.82675 0.0
C2381 C 0.19017 0.38721 0.88828 0.0
C2382 C 0.14869 0.28845 0.81038 0.0
C2383 C 0.15654 0.30182 0.82086 0.0
C2384 C 0.15677 0.32935 0.87298 0.0
C2385 C 0.18582 0.36522 0.86819 0.0
C2386 C 0.17633 0.35098 0.85876 0.0
C2387 C 0.15056 0.30919 0.83291 0.0
C2388 C 0.15908 0.32367 0.84148 0.0
H2389 H 0.21921 0.3879 0.86491 0.0
H2390 H 0.20361 0.36431 0.85352 0.0
H2391 H 0.16354 0.34691 0.90653 0.0
H2392 H 0.11779 0.28465 0.82633 0.0
H2393 H 0.13162 0.30817 0.84461 0.0
C2394 C 0.8655 0.71278 0.71888 0.0
C2395 C 0.85954 0.7205 0.70995 0.0
C2396 C 0.85953 0.69938 0.70787 0.0
C2397 C 0.82718 0.67075 0.678 0.0
H2398 H 0.84926 0.65719 0.6374 0.0
C2399 C 0.80433 0.6197 0.60438 0.0
C2400 C 0.81002 0.61161 0.61166 0.0
C2401 C 0.81052 0.63291 0.61701 0.0
C2402 C 0.84298 0.66078 0.64908 0.0
H2403 H 0.84259 0.72014 0.68248 0.0
H2404 H 0.83228 0.69683 0.66315 0.0
H2405 H 0.85976 0.68036 0.65878 0.0
H2406 H 0.82673 0.61113 0.63788 0.0
H2407 H 0.83746 0.63417 0.66019 0.0
H2408 H 0.81041 0.65121 0.66825 0.0
C2409 C 0.84148 0.7011 0.67902 0.0
C2410 C 0.84899 0.67405 0.66134 0.0
C2411 C 0.84745 0.71449 0.68994 0.0
C2412 C 0.82209 0.61708 0.6317 0.0
C2413 C 0.82828 0.63032 0.64434 0.0
C2414 C 0.82118 0.65749 0.66578 0.0
C2415 C 0.84746 0.69339 0.68779 0.0
C2416 C 0.84115 0.6792 0.67573 0.0
C2417 C 0.82253 0.63836 0.63726 0.0
C2418 C 0.82899 0.65238 0.65098 0.0
H2419 H 0.8748 0.71709 0.7343 0.0
H2420 H 0.86431 0.69366 0.7154 0.0
H2421 H 0.82089 0.67435 0.68953 0.0
H2422 H 0.79508 0.61583 0.5889 0.0
H2423 H 0.80595 0.6389 0.61059 0.0
C2424 C 0.28987 0.13232 0.69163 0.0
C2425 C 0.28362 0.13877 0.70844 0.0
C2426 C 0.30304 0.13974 0.67874 0.0
C2427 C 0.32797 0.1734 0.64734 0.0
H2428 H 0.35387 0.16228 0.66997 0.0
C2429 C 0.38454 0.2075 0.6203 0.0
C2430 C 0.39196 0.20149 0.60885 0.0
C2431 C 0.37114 0.19963 0.63089 0.0
C2432 C 0.34672 0.16542 0.66287 0.0
H2433 H 0.28633 0.15809 0.72492 0.0
H2434 H 0.30926 0.171 0.70227 0.0
H2435 H 0.33083 0.14884 0.69153 0.0
H2436 H 0.39101 0.18248 0.59855 0.0
H2437 H 0.36757 0.16877 0.61611 0.0
H2438 H 0.34375 0.1899 0.61838 0.0
C2439 C 0.30394 0.16021 0.69896 0.0
C2440 C 0.33353 0.15773 0.67535 0.0
C2441 C 0.29084 0.1528 0.71215 0.0
C2442 C 0.38561 0.18743 0.6075 0.0
C2443 C 0.37218 0.17956 0.6178 0.0
C2444 C 0.34112 0.18103 0.6346 0.0
C2445 C 0.31017 0.15377 0.68206 0.0
C2446 C 0.32406 0.1617 0.66794 0.0
C2447 C 0.36482 0.18556 0.62998 0.0
C2448 C 0.35069 0.1772 0.64243 0.0
H2449 H 0.28459 0.12153 0.68835 0.0
H2450 H 0.30757 0.13453 0.6656 0.0
H2451 H 0.32081 0.17659 0.64077 0.0
H2452 H 0.38914 0.2183 0.62186 0.0
H2453 H 0.36585 0.2046 0.64062 0.0
C2454 C 0.85152 0.1325 0.73429 0.0
C2455 C 0.86552 0.14047 0.73072 0.0
C2456 C 0.84321 0.13785 0.72697 0.0
C2457 C 0.843 0.16959 0.71996 0.0
H2458 H 0.81263 0.14981 0.6546 0.0
C2459 C 0.81576 0.19437 0.65207 0.0
C2460 C 0.80178 0.18681 0.64737 0.0
C2461 C 0.82294 0.18833 0.66446 0.0
C2462 C 0.82092 0.15538 0.67338 0.0
H2463 H 0.88177 0.16041 0.7176 0.0
H2464 H 0.86726 0.16974 0.7052 0.0
H2465 H 0.82621 0.13999 0.67331 0.0
H2466 H 0.78437 0.16693 0.65231 0.0
H2467 H 0.79691 0.15641 0.67469 0.0
H2468 H 0.83775 0.18495 0.72026 0.0
C2469 C 0.86273 0.15936 0.71366 0.0
C2470 C 0.82872 0.14975 0.68403 0.0
C2471 C 0.87103 0.15399 0.7206 0.0
C2472 C 0.79514 0.17304 0.6555 0.0
C2473 C 0.80234 0.167 0.66816 0.0
C2474 C 0.83515 0.17517 0.70958 0.0
C2475 C 0.84873 0.15131 0.71635 0.0
C2476 C 0.83994 0.15688 0.70702 0.0
C2477 C 0.81634 0.17458 0.67279 0.0
C2478 C 0.82414 0.16823 0.6857 0.0
H2479 H 0.84695 0.12205 0.74197 0.0
H2480 H 0.83245 0.13144 0.72957 0.0
H2481 H 0.85147 0.17523 0.73816 0.0
H2482 H 0.82122 0.20498 0.64582 0.0
H2483 H 0.83374 0.19444 0.66694 0.0
C2484 C 0.05563 0.54035 0.43674 0.0
C2485 C 0.0613 0.53202 0.4381 0.0
C2486 C 0.04203 0.53522 0.44462 0.0
C2487 C 0.00982 0.50311 0.45284 0.0
H2488 H 0.99908 0.52407 0.51261 0.0
C2489 C 0.95907 0.47976 0.52721 0.0
C2490 C 0.95176 0.48651 0.52495 0.0
C2491 C 0.97224 0.48576 0.51438 0.0
C2492 C 0.00192 0.51817 0.49554 0.0
H2493 H 0.05711 0.51176 0.44891 0.0
H2494 H 0.0336 0.50293 0.46337 0.0
H2495 H 0.02248 0.53374 0.49391 0.0
H2496 H 0.95264 0.50497 0.5078 0.0
H2497 H 0.97578 0.51554 0.4857 0.0
H2498 H 0.98933 0.48743 0.45539 0.0
C2499 C 0.03953 0.51335 0.45542 0.0
C2500 C 0.01531 0.52371 0.48473 0.0
C2501 C 0.05307 0.51845 0.44734 0.0
C2502 C 0.95799 0.49949 0.5099 0.0
C2503 C 0.97124 0.50556 0.49738 0.0
C2504 C 0.99649 0.49755 0.46389 0.0
C2505 C 0.03383 0.52166 0.4542 0.0
C2506 C 0.01946 0.51617 0.46365 0.0
C2507 C 0.97845 0.49871 0.49927 0.0
C2508 C 0.99244 0.50496 0.48573 0.0
H2509 H 0.06168 0.55084 0.42957 0.0
H2510 H 0.03793 0.54185 0.44298 0.0
H2511 H 0.01259 0.49712 0.43592 0.0
H2512 H 0.9546 0.46975 0.53862 0.0
H2513 H 0.97762 0.48031 0.51662 0.0
C2514 C 0.46244 0.51695 0.45553 0.0
C2515 C 0.47018 0.53101 0.45601 0.0
C2516 C 0.46838 0.50914 0.46263 0.0
C2517 C 0.50153 0.51106 0.46568 0.0
H2518 H 0.48273 0.47901 0.5254 0.0
C2519 C 0.52763 0.48437 0.53034 0.0
C2520 C 0.5209 0.47031 0.52808 0.0
C2521 C 0.52125 0.49142 0.51961 0.0
C2522 C 0.48803 0.48786 0.50835 0.0
H2523 H 0.4902 0.54789 0.46475 0.0
H2524 H 0.50043 0.53434 0.47795 0.0
H2525 H 0.47187 0.49197 0.51051 0.0
H2526 H 0.50217 0.45264 0.5127 0.0
H2527 H 0.49101 0.465 0.49422 0.0
H2528 H 0.5178 0.50707 0.4643 0.0
C2529 C 0.48985 0.5293 0.47124 0.0
C2530 C 0.48181 0.49527 0.49974 0.0
C2531 C 0.48395 0.53708 0.46391 0.0
C2532 C 0.50765 0.46346 0.51479 0.0
C2533 C 0.50122 0.47052 0.50438 0.0
C2534 C 0.50777 0.5037 0.47454 0.0
C2535 C 0.48216 0.51524 0.47057 0.0
C2536 C 0.48853 0.50702 0.47853 0.0
C2537 C 0.50796 0.48457 0.50669 0.0
C2538 C 0.50113 0.49208 0.49616 0.0
H2539 H 0.45182 0.51195 0.44935 0.0
H2540 H 0.46219 0.49834 0.46145 0.0
H2541 H 0.50689 0.5199 0.44865 0.0
H2542 H 0.53785 0.48995 0.54041 0.0
H2543 H 0.52664 0.50224 0.52204 0.0
C2544 C 0.54335 0.04714 0.51878 0.0
C2545 C 0.53795 0.0533 0.54098 0.0
C2546 C 0.53515 0.03418 0.50513 0.0
C2547 C 0.49984 0.0101 0.48348 0.0
H2548 H 0.51184 0.9841 0.48171 0.0
C2549 C 0.4644 0.95429 0.44954 0.0
C2550 C 0.46949 0.94758 0.42853 0.0
C2551 C 0.47285 0.96739 0.46175 0.0
C2552 C 0.50841 0.99131 0.48153 0.0
H2553 H 0.51975 0.05051 0.56694 0.0
H2554 H 0.50551 0.02788 0.54337 0.0
H2555 H 0.52646 0.00638 0.50721 0.0
H2556 H 0.48744 0.94953 0.40306 0.0
H2557 H 0.50214 0.97246 0.42398 0.0
H2558 H 0.4818 0.99506 0.45781 0.0
C2559 C 0.51605 0.03316 0.53611 0.0
C2560 C 0.51678 0.00406 0.49622 0.0
C2561 C 0.52424 0.04609 0.54984 0.0
C2562 C 0.48318 0.95438 0.4193 0.0
C2563 C 0.49164 0.9675 0.4315 0.0
C2564 C 0.49149 0.99737 0.46873 0.0
C2565 C 0.52138 0.02711 0.51329 0.0
C2566 C 0.51255 0.01358 0.49752 0.0
C2567 C 0.48659 0.9741 0.45321 0.0
C2568 C 0.49565 0.9878 0.46773 0.0
H2569 H 0.55386 0.0524 0.51136 0.0
H2570 H 0.53954 0.02984 0.48737 0.0
H2571 H 0.49639 0.01729 0.48347 0.0
H2572 H 0.45392 0.94935 0.45726 0.0
H2573 H 0.46866 0.97212 0.47876 0.0
C2574 C 0.50776 0.04619 0.02822 0.0
C2575 C 0.51943 0.05245 0.05 0.0
C2576 C 0.50267 0.03302 0.01598 0.0
C2577 C 0.50377 0.00197 0.03327 0.0
H2578 H 0.492 0.99401 0.93146 0.0
C2579 C 0.49149 0.95203 0.9639 0.0
C2580 C 0.47992 0.94582 0.94169 0.0
C2581 C 0.49638 0.96508 0.97688 0.0
C2582 C 0.49512 0.99604 0.96005 0.0
H2583 H 0.53472 0.04962 0.07669 0.0
H2584 H 0.52587 0.02669 0.05513 0.0
H2585 H 0.50004 0.01651 0.95565 0.0
H2586 H 0.46455 0.9486 0.91529 0.0
H2587 H 0.47306 0.97132 0.93811 0.0
H2588 H 0.49887 0.9815 0.03763 0.0
C2589 C 0.52059 0.03193 0.04777 0.0
C2590 C 0.49971 0.00892 0.97394 0.0
C2591 C 0.52569 0.04511 0.06001 0.0
C2592 C 0.4735 0.95307 0.93226 0.0
C2593 C 0.47841 0.96613 0.94522 0.0
C2594 C 0.49918 0.98909 0.01937 0.0
C2595 C 0.50912 0.0258 0.02525 0.0
C2596 C 0.50408 0.01204 0.01072 0.0
C2597 C 0.48984 0.97224 0.96792 0.0
C2598 C 0.49481 0.98597 0.9826 0.0
H2599 H 0.50264 0.05152 0.0201 0.0
H2600 H 0.49368 0.02851 -0.00083 0.0
H2601 H 0.50691 0.00401 0.06185 0.0
H2602 H 0.49671 0.94677 0.97163 0.0
H2603 H 0.50532 0.96959 -0.00613 0.0
C2604 C 0.9507 0.47949 0.06909 0.0
C2605 C 0.94474 0.46562 0.06284 0.0
C2606 C 0.96441 0.48798 0.06279 0.0
C2607 C 0.99642 0.48835 0.05459 0.0
H2608 H 0.00751 0.51994 -0.00576 0.0
C2609 C 0.04848 0.51614 0.98747 0.0
C2610 C 0.05504 0.53016 0.9843 0.0
C2611 C 0.03529 0.50894 0.0001 0.0
C2612 C 0.00464 0.5113 0.01167 0.0
H2613 H 0.94856 0.44977 0.0459 0.0
H2614 H 0.97246 0.46457 0.03532 0.0
H2615 H 0.98399 0.50616 0.01163 0.0
H2616 H 0.05288 0.54764 -0.00755 0.0
H2617 H 0.02989 0.53507 0.01526 0.0
H2618 H 0.01699 0.49342 0.05481 0.0
C2619 C 0.96653 0.46886 0.04507 0.0
C2620 C 0.99115 0.50339 0.02156 0.0
C2621 C 0.95282 0.4604 0.05095 0.0
C2622 C 0.04811 0.53684 -0.00558 0.0
C2623 C 0.0349 0.52962 0.00732 0.0
C2624 C 0.0099 0.4963 0.045 0.0
C2625 C 0.97244 0.48275 0.0506 0.0
C2626 C 0.98688 0.49172 0.04259 0.0
C2627 C 0.02832 0.51557 0.01021 0.0
C2628 C 0.01415 0.50774 0.02285 0.0
H2629 H 0.94475 0.48384 0.07818 0.0
H2630 H 0.96873 0.49864 0.06751 0.0
H2631 H 0.99343 0.47951 0.07132 0.0
H2632 H 0.05347 0.51064 0.9797 0.0
H2633 H 0.03048 0.49812 0.00123 0.0
C2634 C 0.54049 0.49122 0.05019 0.0
C2635 C 0.53431 0.47792 0.06278 0.0
C2636 C 0.53284 0.49718 0.04165 0.0
C2637 C 0.49931 0.49375 0.05497 0.0
H2638 H 0.50919 0.51629 0.968 0.0
C2639 C 0.46505 0.51149 0.98919 0.0
C2640 C 0.47122 0.52498 0.97814 0.0
C2641 C 0.47278 0.50593 0.00094 0.0
C2642 C 0.50639 0.51013 -0.00743 0.0
H2643 H 0.51522 0.4605 0.07674 0.0
H2644 H 0.50184 0.47082 0.06114 0.0
H2645 H 0.52256 0.50621 0.98606 0.0
H2646 H 0.49037 0.54321 0.97093 0.0
H2647 H 0.50383 0.53345 -0.00874 0.0
H2648 H 0.48297 0.49752 0.06093 0.0
C2649 C 0.51264 0.47673 0.05845 0.0
C2650 C 0.51406 0.50437 0.00301 0.0
C2651 C 0.52031 0.47078 0.06724 0.0
C2652 C 0.48529 0.53279 0.97922 0.0
C2653 C 0.49301 0.52719 -0.00932 0.0
C2654 C 0.49158 0.49944 0.04436 0.0
C2655 C 0.5188 0.48996 0.04522 0.0
C2656 C 0.51064 0.49613 0.03438 0.0
C2657 C 0.48684 0.5137 0.00159 0.0
C2658 C 0.49505 0.5077 0.01308 0.0
H2659 H 0.55126 0.49704 0.04671 0.0
H2660 H 0.53795 0.50748 0.03224 0.0
H2661 H 0.49649 0.48761 0.07957 0.0
H2662 H 0.45424 0.5052 0.98875 0.0
H2663 H 0.46775 0.49547 0.00887 0.0
loop_
_geom_bond_atom_site_label_1
_geom_bond_atom_site_label_2
_geom_bond_distance
_geom_bond_site_symmetry_2
_ccdc_geom_bond_type
C0 O1 1.306 . S
C0 O3 1.160 . S
O1 C0 1.306 . S
O1 Cd2 2.228 . S
Cd2 O1 2.228 . S
Cd2 O6 2.273 . S
Cd2 O10 2.277 . S
O3 C0 1.160 . S
O3 Cd4 2.203 . S
Cd4 O3 2.203 . S
Cd4 O6 2.411 . S
Cd4 O7 2.333 . S
Cd4 O8 2.352 . S
Cd4 O12 2.277 . S
Cd4 O13 2.356 . S
C5 O10 1.209 . S
C5 O12 1.226 . S
O6 Cd2 2.273 . S
O6 Cd4 2.411 . S
O6 C9 1.320 . S
O7 Cd4 2.333 . S
O7 C9 1.214 . S
O8 Cd4 2.352 . S
O8 C11 1.258 . S
C9 O6 1.320 . S
C9 O7 1.214 . S
O10 Cd2 2.277 . S
O10 C5 1.209 . S
C11 O8 1.258 . S
C11 O13 1.282 . S
O12 Cd4 2.277 . S
O12 C5 1.226 . S
O13 Cd4 2.356 . S
O13 C11 1.282 . S
C14 O15 1.306 . S
C14 O17 1.160 . S
O15 C14 1.306 . S
O15 Cd16 2.228 . S
Cd16 O15 2.228 . S
Cd16 O20 2.273 . S
Cd16 O24 2.277 . S
O17 C14 1.160 . S
O17 Cd18 2.203 . S
Cd18 O17 2.203 . S
Cd18 O20 2.411 . S
Cd18 O21 2.333 . S
Cd18 O22 2.352 . S
Cd18 O26 2.277 . S
Cd18 O27 2.356 . S
C19 O24 1.209 . S
C19 O26 1.226 . S
O20 Cd16 2.273 . S
O20 Cd18 2.411 . S
O20 C23 1.320 . S
O21 Cd18 2.333 . S
O21 C23 1.214 . S
O22 Cd18 2.352 . S
O22 C25 1.258 . S
C23 O20 1.320 . S
C23 O21 1.214 . S
O24 Cd16 2.277 . S
O24 C19 1.209 . S
C25 O22 1.258 . S
C25 O27 1.282 . S
O26 Cd18 2.277 . S
O26 C19 1.226 . S
O27 Cd18 2.356 . S
O27 C25 1.282 . S
C28 O29 1.306 . S
C28 O31 1.160 . S
O29 C28 1.306 . S
O29 Cd30 2.228 . S
Cd30 O29 2.228 . S
Cd30 O34 2.273 . S
Cd30 O38 2.277 . S
O31 C28 1.160 . S
O31 Cd32 2.203 . S
Cd32 O31 2.203 . S
Cd32 O34 2.411 . S
Cd32 O35 2.333 . S
Cd32 O36 2.352 . S
Cd32 O40 2.277 . S
Cd32 O41 2.356 . S
C33 O38 1.209 . S
C33 O40 1.226 . S
O34 Cd30 2.273 . S
O34 Cd32 2.411 . S
O34 C37 1.320 . S
O35 Cd32 2.333 . S
O35 C37 1.214 . S
O36 Cd32 2.352 . S
O36 C39 1.258 . S
C37 O34 1.320 . S
C37 O35 1.214 . S
O38 Cd30 2.277 . S
O38 C33 1.209 . S
C39 O36 1.258 . S
C39 O41 1.282 . S
O40 Cd32 2.277 . S
O40 C33 1.226 . S
O41 Cd32 2.356 . S
O41 C39 1.282 . S
C42 O43 1.306 . S
C42 O45 1.160 . S
O43 C42 1.306 . S
O43 Cd44 2.228 . S
Cd44 O43 2.228 . S
Cd44 O48 2.273 . S
Cd44 O52 2.277 . S
O45 C42 1.160 . S
O45 Cd46 2.203 . S
Cd46 O45 2.203 . S
Cd46 O48 2.411 . S
Cd46 O49 2.333 . S
Cd46 O50 2.352 . S
Cd46 O54 2.277 . S
Cd46 O55 2.356 . S
C47 O52 1.209 . S
C47 O54 1.226 . S
O48 Cd44 2.273 . S
O48 Cd46 2.411 . S
O48 C51 1.320 . S
O49 Cd46 2.333 . S
O49 C51 1.214 . S
O50 Cd46 2.352 . S
O50 C53 1.258 . S
C51 O48 1.320 . S
C51 O49 1.214 . S
O52 Cd44 2.277 . S
O52 C47 1.209 . S
C53 O50 1.258 . S
C53 O55 1.282 . S
O54 Cd46 2.277 . S
O54 C47 1.226 . S
O55 Cd46 2.356 . S
O55 C53 1.282 . S
C56 O57 1.306 . S
C56 O59 1.160 . S
O57 C56 1.306 . S
O57 Cd58 2.228 . S
Cd58 O57 2.228 . S
Cd58 O62 2.273 . S
Cd58 O66 2.277 . S
O59 C56 1.160 . S
O59 Cd60 2.203 . S
Cd60 O59 2.203 . S
Cd60 O62 2.411 . S
Cd60 O63 2.333 . S
Cd60 O64 2.352 . S
Cd60 O68 2.277 . S
Cd60 O69 2.356 . S
C61 O66 1.209 . S
C61 O68 1.226 . S
O62 Cd58 2.273 . S
O62 Cd60 2.411 . S
O62 C65 1.320 . S
O63 Cd60 2.333 . S
O63 C65 1.214 . S
O64 Cd60 2.352 . S
O64 C67 1.258 . S
C65 O62 1.320 . S
C65 O63 1.214 . S
O66 Cd58 2.277 . S
O66 C61 1.209 . S
C67 O64 1.258 . S
C67 O69 1.282 . S
O68 Cd60 2.277 . S
O68 C61 1.226 . S
O69 Cd60 2.356 . S
O69 C67 1.282 . S
C70 O71 1.306 . S
C70 O73 1.160 . S
O71 C70 1.306 . S
O71 Cd72 2.228 . S
Cd72 O71 2.228 . S
Cd72 O76 2.273 . S
Cd72 O80 2.277 . S
O73 C70 1.160 . S
O73 Cd74 2.203 . S
Cd74 O73 2.203 . S
Cd74 O76 2.411 . S
Cd74 O77 2.333 . S
Cd74 O78 2.352 . S
Cd74 O82 2.277 . S
Cd74 O83 2.356 . S
C75 O80 1.209 . S
C75 O82 1.226 . S
O76 Cd72 2.273 . S
O76 Cd74 2.411 . S
O76 C79 1.320 . S
O77 Cd74 2.333 . S
O77 C79 1.214 . S
O78 Cd74 2.352 . S
O78 C81 1.258 . S
C79 O76 1.320 . S
C79 O77 1.214 . S
O80 Cd72 2.277 . S
O80 C75 1.209 . S
C81 O78 1.258 . S
C81 O83 1.282 . S
O82 Cd74 2.277 . S
O82 C75 1.226 . S
O83 Cd74 2.356 . S
O83 C81 1.282 . S
C84 O85 1.306 . S
C84 O87 1.160 . S
O85 C84 1.306 . S
O85 Cd86 2.228 . S
Cd86 O85 2.228 . S
Cd86 O90 2.273 . S
Cd86 O94 2.277 . S
O87 C84 1.160 . S
O87 Cd88 2.203 . S
Cd88 O87 2.203 . S
Cd88 O90 2.411 . S
Cd88 O91 2.333 . S
Cd88 O92 2.352 . S
Cd88 O96 2.277 . S
Cd88 O97 2.356 . S
C89 O94 1.209 . S
C89 O96 1.226 . S
O90 Cd86 2.273 . S
O90 Cd88 2.411 . S
O90 C93 1.320 . S
O91 Cd88 2.333 . S
O91 C93 1.214 . S
O92 Cd88 2.352 . S
O92 C95 1.258 . S
C93 O90 1.320 . S
C93 O91 1.214 . S
O94 Cd86 2.277 . S
O94 C89 1.209 . S
C95 O92 1.258 . S
C95 O97 1.282 . S
O96 Cd88 2.277 . S
O96 C89 1.226 . S
O97 Cd88 2.356 . S
O97 C95 1.282 . S
C98 O99 1.306 . S
C98 O101 1.160 . S
O99 C98 1.306 . S
O99 Cd100 2.228 . S
Cd100 O99 2.228 . S
Cd100 O104 2.273 . S
Cd100 O108 2.277 . S
O101 C98 1.160 . S
O101 Cd102 2.203 . S
Cd102 O101 2.203 . S
Cd102 O104 2.411 . S
Cd102 O105 2.333 . S
Cd102 O106 2.352 . S
Cd102 O110 2.277 . S
Cd102 O111 2.356 . S
C103 O108 1.209 . S
C103 O110 1.226 . S
O104 Cd100 2.273 . S
O104 Cd102 2.411 . S
O104 C107 1.320 . S
O105 Cd102 2.333 . S
O105 C107 1.214 . S
O106 Cd102 2.352 . S
O106 C109 1.258 . S
C107 O104 1.320 . S
C107 O105 1.214 . S
O108 Cd100 2.277 . S
O108 C103 1.209 . S
C109 O106 1.258 . S
C109 O111 1.282 . S
O110 Cd102 2.277 . S
O110 C103 1.226 . S
O111 Cd102 2.356 . S
O111 C109 1.282 . S
C112 O113 1.306 . S
C112 O115 1.160 . S
O113 C112 1.306 . S
O113 Cd114 2.228 . S
Cd114 O113 2.228 . S
Cd114 O118 2.273 . S
Cd114 O122 2.277 . S
O115 C112 1.160 . S
O115 Cd116 2.203 . S
Cd116 O115 2.203 . S
Cd116 O118 2.411 . S
Cd116 O119 2.333 . S
Cd116 O120 2.352 . S
Cd116 O124 2.277 . S
Cd116 O125 2.356 . S
C117 O122 1.209 . S
C117 O124 1.226 . S
O118 Cd114 2.273 . S
O118 Cd116 2.411 . S
O118 C121 1.320 . S
O119 Cd116 2.333 . S
O119 C121 1.214 . S
O120 Cd116 2.352 . S
O120 C123 1.258 . S
C121 O118 1.320 . S
C121 O119 1.214 . S
O122 Cd114 2.277 . S
O122 C117 1.209 . S
C123 O120 1.258 . S
C123 O125 1.282 . S
O124 Cd116 2.277 . S
O124 C117 1.226 . S
O125 Cd116 2.356 . S
O125 C123 1.282 . S
C126 O127 1.306 . S
C126 O129 1.160 . S
O127 C126 1.306 . S
O127 Cd128 2.228 . S
Cd128 O127 2.228 . S
Cd128 O132 2.273 . S
Cd128 O136 2.277 . S
O129 C126 1.160 . S
O129 Cd130 2.203 . S
Cd130 O129 2.203 . S
Cd130 O132 2.411 . S
Cd130 O133 2.333 . S
Cd130 O134 2.352 . S
Cd130 O138 2.277 . S
Cd130 O139 2.356 . S
C131 O136 1.209 . S
C131 O138 1.226 . S
O132 Cd128 2.273 . S
O132 Cd130 2.411 . S
O132 C135 1.320 . S
O133 Cd130 2.333 . S
O133 C135 1.214 . S
O134 Cd130 2.352 . S
O134 C137 1.258 . S
C135 O132 1.320 . S
C135 O133 1.214 . S
O136 Cd128 2.277 . S
O136 C131 1.209 . S
C137 O134 1.258 . S
C137 O139 1.282 . S
O138 Cd130 2.277 . S
O138 C131 1.226 . S
O139 Cd130 2.356 . S
O139 C137 1.282 . S
C140 O141 1.306 . S
C140 O143 1.160 . S
O141 C140 1.306 . S
O141 Cd142 2.228 . S
Cd142 O141 2.228 . S
Cd142 O146 2.273 . S
Cd142 O150 2.277 . S
O143 C140 1.160 . S
O143 Cd144 2.203 . S
Cd144 O143 2.203 . S
Cd144 O146 2.411 . S
Cd144 O147 2.333 . S
Cd144 O148 2.352 . S
Cd144 O152 2.277 . S
Cd144 O153 2.356 . S
C145 O150 1.209 . S
C145 O152 1.226 . S
O146 Cd142 2.273 . S
O146 Cd144 2.411 . S
O146 C149 1.320 . S
O147 Cd144 2.333 . S
O147 C149 1.214 . S
O148 Cd144 2.352 . S
O148 C151 1.258 . S
C149 O146 1.320 . S
C149 O147 1.214 . S
O150 Cd142 2.277 . S
O150 C145 1.209 . S
C151 O148 1.258 . S
C151 O153 1.282 . S
O152 Cd144 2.277 . S
O152 C145 1.226 . S
O153 Cd144 2.356 . S
O153 C151 1.282 . S
C154 O155 1.306 . S
C154 O157 1.160 . S
O155 C154 1.306 . S
O155 Cd156 2.228 . S
Cd156 O155 2.228 . S
Cd156 O160 2.273 . S
Cd156 O164 2.277 . S
O157 C154 1.160 . S
O157 Cd158 2.203 . S
Cd158 O157 2.203 . S
Cd158 O160 2.411 . S
Cd158 O161 2.333 . S
Cd158 O162 2.352 . S
Cd158 O166 2.277 . S
Cd158 O167 2.356 . S
C159 O164 1.209 . S
C159 O166 1.226 . S
O160 Cd156 2.273 . S
O160 Cd158 2.411 . S
O160 C163 1.320 . S
O161 Cd158 2.333 . S
O161 C163 1.214 . S
O162 Cd158 2.352 . S
O162 C165 1.258 . S
C163 O160 1.320 . S
C163 O161 1.214 . S
O164 Cd156 2.277 . S
O164 C159 1.209 . S
C165 O162 1.258 . S
C165 O167 1.282 . S
O166 Cd158 2.277 . S
O166 C159 1.226 . S
O167 Cd158 2.356 . S
O167 C165 1.282 . S
C168 O169 1.306 . S
C168 O171 1.160 . S
O169 C168 1.306 . S
O169 Cd170 2.228 . S
Cd170 O169 2.228 . S
Cd170 O174 2.273 . S
Cd170 O178 2.277 . S
O171 C168 1.160 . S
O171 Cd172 2.203 . S
Cd172 O171 2.203 . S
Cd172 O174 2.411 . S
Cd172 O175 2.333 . S
Cd172 O176 2.352 . S
Cd172 O180 2.277 . S
Cd172 O181 2.356 . S
C173 O178 1.209 . S
C173 O180 1.226 . S
O174 Cd170 2.273 . S
O174 Cd172 2.411 . S
O174 C177 1.320 . S
O175 Cd172 2.333 . S
O175 C177 1.214 . S
O176 Cd172 2.352 . S
O176 C179 1.258 . S
C177 O174 1.320 . S
C177 O175 1.214 . S
O178 Cd170 2.277 . S
O178 C173 1.209 . S
C179 O176 1.258 . S
C179 O181 1.282 . S
O180 Cd172 2.277 . S
O180 C173 1.226 . S
O181 Cd172 2.356 . S
O181 C179 1.282 . S
C182 O183 1.306 . S
C182 O185 1.160 . S
O183 C182 1.306 . S
O183 Cd184 2.228 . S
Cd184 O183 2.228 . S
Cd184 O188 2.273 . S
Cd184 O192 2.277 . S
O185 C182 1.160 . S
O185 Cd186 2.203 . S
Cd186 O185 2.203 . S
Cd186 O188 2.411 . S
Cd186 O189 2.333 . S
Cd186 O190 2.352 . S
Cd186 O194 2.277 . S
Cd186 O195 2.356 . S
C187 O192 1.209 . S
C187 O194 1.226 . S
O188 Cd184 2.273 . S
O188 Cd186 2.411 . S
O188 C191 1.320 . S
O189 Cd186 2.333 . S
O189 C191 1.214 . S
O190 Cd186 2.352 . S
O190 C193 1.258 . S
C191 O188 1.320 . S
C191 O189 1.214 . S
O192 Cd184 2.277 . S
O192 C187 1.209 . S
C193 O190 1.258 . S
C193 O195 1.282 . S
O194 Cd186 2.277 . S
O194 C187 1.226 . S
O195 Cd186 2.356 . S
O195 C193 1.282 . S
C196 O197 1.306 . S
C196 O199 1.160 . S
O197 C196 1.306 . S
O197 Cd198 2.228 . S
Cd198 O197 2.228 . S
Cd198 O202 2.273 . S
Cd198 O206 2.277 . S
O199 C196 1.160 . S
O199 Cd200 2.203 . S
Cd200 O199 2.203 . S
Cd200 O202 2.411 . S
Cd200 O203 2.333 . S
Cd200 O204 2.352 . S
Cd200 O208 2.277 . S
Cd200 O209 2.356 . S
C201 O206 1.209 . S
C201 O208 1.226 . S
O202 Cd198 2.273 . S
O202 Cd200 2.411 . S
O202 C205 1.320 . S
O203 Cd200 2.333 . S
O203 C205 1.214 . S
O204 Cd200 2.352 . S
O204 C207 1.258 . S
C205 O202 1.320 . S
C205 O203 1.214 . S
O206 Cd198 2.277 . S
O206 C201 1.209 . S
C207 O204 1.258 . S
C207 O209 1.282 . S
O208 Cd200 2.277 . S
O208 C201 1.226 . S
O209 Cd200 2.356 . S
O209 C207 1.282 . S
C210 O211 1.306 . S
C210 O213 1.160 . S
O211 C210 1.306 . S
O211 Cd212 2.228 . S
Cd212 O211 2.228 . S
Cd212 O216 2.273 . S
Cd212 O220 2.277 . S
O213 C210 1.160 . S
O213 Cd214 2.203 . S
Cd214 O213 2.203 . S
Cd214 O216 2.411 . S
Cd214 O217 2.333 . S
Cd214 O218 2.352 . S
Cd214 O222 2.277 . S
Cd214 O223 2.356 . S
C215 O220 1.209 . S
C215 O222 1.226 . S
O216 Cd212 2.273 . S
O216 Cd214 2.411 . S
O216 C219 1.320 . S
O217 Cd214 2.333 . S
O217 C219 1.214 . S
O218 Cd214 2.352 . S
O218 C221 1.258 . S
C219 O216 1.320 . S
C219 O217 1.214 . S
O220 Cd212 2.277 . S
O220 C215 1.209 . S
C221 O218 1.258 . S
C221 O223 1.282 . S
O222 Cd214 2.277 . S
O222 C215 1.226 . S
O223 Cd214 2.356 . S
O223 C221 1.282 . S
C224 O225 1.306 . S
C224 O227 1.160 . S
O225 C224 1.306 . S
O225 Cd226 2.228 . S
Cd226 O225 2.228 . S
Cd226 O230 2.273 . S
Cd226 O234 2.277 . S
O227 C224 1.160 . S
O227 Cd228 2.203 . S
Cd228 O227 2.203 . S
Cd228 O230 2.411 . S
Cd228 O231 2.333 . S
Cd228 O232 2.352 . S
Cd228 O236 2.277 . S
Cd228 O237 2.356 . S
C229 O234 1.209 . S
C229 O236 1.226 . S
O230 Cd226 2.273 . S
O230 Cd228 2.411 . S
O230 C233 1.320 . S
O231 Cd228 2.333 . S
O231 C233 1.214 . S
O232 Cd228 2.352 . S
O232 C235 1.258 . S
C233 O230 1.320 . S
C233 O231 1.214 . S
O234 Cd226 2.277 . S
O234 C229 1.209 . S
C235 O232 1.258 . S
C235 O237 1.282 . S
O236 Cd228 2.277 . S
O236 C229 1.226 . S
O237 Cd228 2.356 . S
O237 C235 1.282 . S
C238 O239 1.306 . S
C238 O241 1.160 . S
O239 C238 1.306 . S
O239 Cd240 2.228 . S
Cd240 O239 2.228 . S
Cd240 O244 2.273 . S
Cd240 O248 2.277 . S
O241 C238 1.160 . S
O241 Cd242 2.203 . S
Cd242 O241 2.203 . S
Cd242 O244 2.411 . S
Cd242 O245 2.333 . S
Cd242 O246 2.352 . S
Cd242 O250 2.277 . S
Cd242 O251 2.356 . S
C243 O248 1.209 . S
C243 O250 1.226 . S
O244 Cd240 2.273 . S
O244 Cd242 2.411 . S
O244 C247 1.320 . S
O245 Cd242 2.333 . S
O245 C247 1.214 . S
O246 Cd242 2.352 . S
O246 C249 1.258 . S
C247 O244 1.320 . S
C247 O245 1.214 . S
O248 Cd240 2.277 . S
O248 C243 1.209 . S
C249 O246 1.258 . S
C249 O251 1.282 . S
O250 Cd242 2.277 . S
O250 C243 1.226 . S
O251 Cd242 2.356 . S
O251 C249 1.282 . S
C252 O253 1.306 . S
C252 O255 1.160 . S
O253 C252 1.306 . S
O253 Cd254 2.228 . S
Cd254 O253 2.228 . S
Cd254 O258 2.273 . S
Cd254 O262 2.277 . S
O255 C252 1.160 . S
O255 Cd256 2.203 . S
Cd256 O255 2.203 . S
Cd256 O258 2.411 . S
Cd256 O259 2.333 . S
Cd256 O260 2.352 . S
Cd256 O264 2.277 . S
Cd256 O265 2.356 . S
C257 O262 1.209 . S
C257 O264 1.226 . S
O258 Cd254 2.273 . S
O258 Cd256 2.411 . S
O258 C261 1.320 . S
O259 Cd256 2.333 . S
O259 C261 1.214 . S
O260 Cd256 2.352 . S
O260 C263 1.258 . S
C261 O258 1.320 . S
C261 O259 1.214 . S
O262 Cd254 2.277 . S
O262 C257 1.209 . S
C263 O260 1.258 . S
C263 O265 1.282 . S
O264 Cd256 2.277 . S
O264 C257 1.226 . S
O265 Cd256 2.356 . S
O265 C263 1.282 . S
C266 O267 1.306 . S
C266 O269 1.160 . S
O267 C266 1.306 . S
O267 Cd268 2.228 . S
Cd268 O267 2.228 . S
Cd268 O272 2.273 . S
Cd268 O276 2.277 . S
O269 C266 1.160 . S
O269 Cd270 2.203 . S
Cd270 O269 2.203 . S
Cd270 O272 2.411 . S
Cd270 O273 2.333 . S
Cd270 O274 2.352 . S
Cd270 O278 2.277 . S
Cd270 O279 2.356 . S
C271 O276 1.209 . S
C271 O278 1.226 . S
O272 Cd268 2.273 . S
O272 Cd270 2.411 . S
O272 C275 1.320 . S
O273 Cd270 2.333 . S
O273 C275 1.214 . S
O274 Cd270 2.352 . S
O274 C277 1.258 . S
C275 O272 1.320 . S
C275 O273 1.214 . S
O276 Cd268 2.277 . S
O276 C271 1.209 . S
C277 O274 1.258 . S
C277 O279 1.282 . S
O278 Cd270 2.277 . S
O278 C271 1.226 . S
O279 Cd270 2.356 . S
O279 C277 1.282 . S
C280 O281 1.306 . S
C280 O283 1.160 . S
O281 C280 1.306 . S
O281 Cd282 2.228 . S
Cd282 O281 2.228 . S
Cd282 O286 2.273 . S
Cd282 O290 2.277 . S
O283 C280 1.160 . S
O283 Cd284 2.203 . S
Cd284 O283 2.203 . S
Cd284 O286 2.411 . S
Cd284 O287 2.333 . S
Cd284 O288 2.352 . S
Cd284 O292 2.277 . S
Cd284 O293 2.356 . S
C285 O290 1.209 . S
C285 O292 1.226 . S
O286 Cd282 2.273 . S
O286 Cd284 2.411 . S
O286 C289 1.320 . S
O287 Cd284 2.333 . S
O287 C289 1.214 . S
O288 Cd284 2.352 . S
O288 C291 1.258 . S
C289 O286 1.320 . S
C289 O287 1.214 . S
O290 Cd282 2.277 . S
O290 C285 1.209 . S
C291 O288 1.258 . S
C291 O293 1.282 . S
O292 Cd284 2.277 . S
O292 C285 1.226 . S
O293 Cd284 2.356 . S
O293 C291 1.282 . S
C294 O295 1.306 . S
C294 O297 1.160 . S
O295 C294 1.306 . S
O295 Cd296 2.228 1_556 S
Cd296 O295 2.228 1_554 S
Cd296 O300 2.273 . S
Cd296 O304 2.277 . S
O297 C294 1.160 . S
O297 Cd298 2.203 1_556 S
Cd298 O297 2.203 1_554 S
Cd298 O300 2.411 . S
Cd298 O301 2.333 . S
Cd298 O302 2.352 . S
Cd298 O306 2.277 . S
Cd298 O307 2.356 . S
C299 O304 1.209 . S
C299 O306 1.226 . S
O300 Cd296 2.273 . S
O300 Cd298 2.411 . S
O300 C303 1.320 . S
O301 Cd298 2.333 . S
O301 C303 1.214 . S
O302 Cd298 2.352 . S
O302 C305 1.258 . S
C303 O300 1.320 . S
C303 O301 1.214 . S
O304 Cd296 2.277 . S
O304 C299 1.209 . S
C305 O302 1.258 . S
C305 O307 1.282 . S
O306 Cd298 2.277 . S
O306 C299 1.226 . S
O307 Cd298 2.356 . S
O307 C305 1.282 . S
C308 O309 1.306 . S
C308 O311 1.160 . S
O309 C308 1.306 . S
O309 Cd310 2.228 1_556 S
Cd310 O309 2.228 1_554 S
Cd310 O314 2.273 . S
Cd310 O318 2.277 . S
O311 C308 1.160 . S
O311 Cd312 2.203 1_556 S
Cd312 O311 2.203 1_554 S
Cd312 O314 2.411 . S
Cd312 O315 2.333 . S
Cd312 O316 2.352 . S
Cd312 O320 2.277 . S
Cd312 O321 2.356 . S
C313 O318 1.209 . S
C313 O320 1.226 . S
O314 Cd310 2.273 . S
O314 Cd312 2.411 . S
O314 C317 1.320 . S
O315 Cd312 2.333 . S
O315 C317 1.214 . S
O316 Cd312 2.352 . S
O316 C319 1.258 . S
C317 O314 1.320 . S
C317 O315 1.214 . S
O318 Cd310 2.277 . S
O318 C313 1.209 . S
C319 O316 1.258 . S
C319 O321 1.282 . S
O320 Cd312 2.277 . S
O320 C313 1.226 . S
O321 Cd312 2.356 . S
O321 C319 1.282 . S
C322 O323 1.306 . S
C322 O325 1.160 . S
O323 C322 1.306 . S
O323 Cd324 2.228 1_556 S
Cd324 O323 2.228 1_554 S
Cd324 O328 2.273 . S
Cd324 O332 2.277 . S
O325 C322 1.160 . S
O325 Cd326 2.203 1_556 S
Cd326 O325 2.203 1_554 S
Cd326 O328 2.411 . S
Cd326 O329 2.333 . S
Cd326 O330 2.352 . S
Cd326 O334 2.277 . S
Cd326 O335 2.356 . S
C327 O332 1.209 . S
C327 O334 1.226 . S
O328 Cd324 2.273 . S
O328 Cd326 2.411 . S
O328 C331 1.320 . S
O329 Cd326 2.333 . S
O329 C331 1.214 . S
O330 Cd326 2.352 . S
O330 C333 1.258 . S
C331 O328 1.320 . S
C331 O329 1.214 . S
O332 Cd324 2.277 . S
O332 C327 1.209 . S
C333 O330 1.258 . S
C333 O335 1.282 . S
O334 Cd326 2.277 . S
O334 C327 1.226 . S
O335 Cd326 2.356 . S
O335 C333 1.282 . S
C336 O337 1.306 . S
C336 O339 1.160 . S
O337 C336 1.306 . S
O337 Cd338 2.228 . S
Cd338 O337 2.228 . S
Cd338 O342 2.273 . S
Cd338 O346 2.277 . S
O339 C336 1.160 . S
O339 Cd340 2.203 . S
Cd340 O339 2.203 . S
Cd340 O342 2.411 . S
Cd340 O343 2.333 . S
Cd340 O344 2.352 . S
Cd340 O348 2.277 . S
Cd340 O349 2.356 . S
C341 O346 1.209 . S
C341 O348 1.226 . S
O342 Cd338 2.273 . S
O342 Cd340 2.411 . S
O342 C345 1.320 . S
O343 Cd340 2.333 . S
O343 C345 1.214 . S
O344 Cd340 2.352 . S
O344 C347 1.258 . S
C345 O342 1.320 . S
C345 O343 1.214 . S
O346 Cd338 2.277 . S
O346 C341 1.209 . S
C347 O344 1.258 . S
C347 O349 1.282 . S
O348 Cd340 2.277 . S
O348 C341 1.226 . S
O349 Cd340 2.356 . S
O349 C347 1.282 . S
C350 O351 1.306 . S
C350 O353 1.160 . S
O351 C350 1.306 . S
O351 Cd352 2.228 . S
Cd352 O351 2.228 . S
Cd352 O356 2.273 . S
Cd352 O360 2.277 . S
O353 C350 1.160 . S
O353 Cd354 2.203 . S
Cd354 O353 2.203 . S
Cd354 O356 2.411 . S
Cd354 O357 2.333 . S
Cd354 O358 2.352 . S
Cd354 O362 2.277 . S
Cd354 O363 2.356 . S
C355 O360 1.209 . S
C355 O362 1.226 . S
O356 Cd352 2.273 . S
O356 Cd354 2.411 . S
O356 C359 1.320 . S
O357 Cd354 2.333 . S
O357 C359 1.214 . S
O358 Cd354 2.352 . S
O358 C361 1.258 . S
C359 O356 1.320 . S
C359 O357 1.214 . S
O360 Cd352 2.277 . S
O360 C355 1.209 . S
C361 O358 1.258 . S
C361 O363 1.282 . S
O362 Cd354 2.277 . S
O362 C355 1.226 . S
O363 Cd354 2.356 . S
O363 C361 1.282 . S
C364 O365 1.306 . S
C364 O367 1.160 . S
O365 C364 1.306 . S
O365 Cd366 2.228 . S
Cd366 O365 2.228 . S
Cd366 O370 2.273 . S
Cd366 O374 2.277 . S
O367 C364 1.160 . S
O367 Cd368 2.203 . S
Cd368 O367 2.203 . S
Cd368 O370 2.411 . S
Cd368 O371 2.333 . S
Cd368 O372 2.352 . S
Cd368 O376 2.277 . S
Cd368 O377 2.356 . S
C369 O374 1.209 . S
C369 O376 1.226 . S
O370 Cd366 2.273 . S
O370 Cd368 2.411 . S
O370 C373 1.320 . S
O371 Cd368 2.333 . S
O371 C373 1.214 . S
O372 Cd368 2.352 . S
O372 C375 1.258 . S
C373 O370 1.320 . S
C373 O371 1.214 . S
O374 Cd366 2.277 . S
O374 C369 1.209 . S
C375 O372 1.258 . S
C375 O377 1.282 . S
O376 Cd368 2.277 . S
O376 C369 1.226 . S
O377 Cd368 2.356 . S
O377 C375 1.282 . S
C378 O379 1.306 . S
C378 O381 1.160 . S
O379 C378 1.306 . S
O379 Cd380 2.228 1_554 S
Cd380 O379 2.228 1_556 S
Cd380 O384 2.273 . S
Cd380 O388 2.277 . S
O381 C378 1.160 . S
O381 Cd382 2.203 1_554 S
Cd382 O381 2.203 1_556 S
Cd382 O384 2.411 . S
Cd382 O385 2.333 . S
Cd382 O386 2.352 . S
Cd382 O390 2.277 . S
Cd382 O391 2.356 . S
C383 O388 1.209 . S
C383 O390 1.226 . S
O384 Cd380 2.273 . S
O384 Cd382 2.411 . S
O384 C387 1.320 . S
O385 Cd382 2.333 . S
O385 C387 1.214 . S
O386 Cd382 2.352 . S
O386 C389 1.258 . S
C387 O384 1.320 . S
C387 O385 1.214 . S
O388 Cd380 2.277 . S
O388 C383 1.209 . S
C389 O386 1.258 . S
C389 O391 1.282 . S
O390 Cd382 2.277 . S
O390 C383 1.226 . S
O391 Cd382 2.356 . S
O391 C389 1.282 . S
C392 O393 1.306 . S
C392 O395 1.160 . S
O393 C392 1.306 . S
O393 Cd394 2.228 1_554 S
Cd394 O393 2.228 1_556 S
Cd394 O398 2.273 . S
Cd394 O402 2.277 . S
O395 C392 1.160 . S
O395 Cd396 2.203 1_554 S
Cd396 O395 2.203 1_556 S
Cd396 O398 2.411 . S
Cd396 O399 2.333 . S
Cd396 O400 2.352 . S
Cd396 O404 2.277 . S
Cd396 O405 2.356 . S
C397 O402 1.209 . S
C397 O404 1.226 . S
O398 Cd394 2.273 . S
O398 Cd396 2.411 . S
O398 C401 1.320 . S
O399 Cd396 2.333 . S
O399 C401 1.214 . S
O400 Cd396 2.352 . S
O400 C403 1.258 . S
C401 O398 1.320 . S
C401 O399 1.214 . S
O402 Cd394 2.277 . S
O402 C397 1.209 . S
C403 O400 1.258 . S
C403 O405 1.282 . S
O404 Cd396 2.277 . S
O404 C397 1.226 . S
O405 Cd396 2.356 . S
O405 C403 1.282 . S
C406 O407 1.306 . S
C406 O409 1.160 . S
O407 C406 1.306 . S
O407 Cd408 2.228 1_554 S
Cd408 O407 2.228 1_556 S
Cd408 O412 2.273 . S
Cd408 O416 2.277 . S
O409 C406 1.160 . S
O409 Cd410 2.203 1_554 S
Cd410 O409 2.203 1_556 S
Cd410 O412 2.411 . S
Cd410 O413 2.333 . S
Cd410 O414 2.352 . S
Cd410 O418 2.277 . S
Cd410 O419 2.356 . S
C411 O416 1.209 . S
C411 O418 1.226 . S
O412 Cd408 2.273 . S
O412 Cd410 2.411 . S
O412 C415 1.320 . S
O413 Cd410 2.333 . S
O413 C415 1.214 . S
O414 Cd410 2.352 . S
O414 C417 1.258 . S
C415 O412 1.320 . S
C415 O413 1.214 . S
O416 Cd408 2.277 . S
O416 C411 1.209 . S
C417 O414 1.258 . S
C417 O419 1.282 . S
O418 Cd410 2.277 . S
O418 C411 1.226 . S
O419 Cd410 2.356 . S
O419 C417 1.282 . S
C420 O421 1.306 . S
C420 O423 1.160 . S
O421 C420 1.306 . S
O421 Cd422 2.228 . S
Cd422 O421 2.228 . S
Cd422 O426 2.273 . S
Cd422 O430 2.277 . S
O423 C420 1.160 . S
O423 Cd424 2.203 . S
Cd424 O423 2.203 . S
Cd424 O426 2.411 . S
Cd424 O427 2.333 . S
Cd424 O428 2.352 . S
Cd424 O432 2.277 . S
Cd424 O433 2.356 . S
C425 O430 1.209 . S
C425 O432 1.226 . S
O426 Cd422 2.273 . S
O426 Cd424 2.411 . S
O426 C429 1.320 . S
O427 Cd424 2.333 . S
O427 C429 1.214 . S
O428 Cd424 2.352 . S
O428 C431 1.258 . S
C429 O426 1.320 . S
C429 O427 1.214 . S
O430 Cd422 2.277 . S
O430 C425 1.209 . S
C431 O428 1.258 . S
C431 O433 1.282 . S
O432 Cd424 2.277 . S
O432 C425 1.226 . S
O433 Cd424 2.356 . S
O433 C431 1.282 . S
C434 O435 1.306 . S
C434 O437 1.160 . S
O435 C434 1.306 . S
O435 Cd436 2.228 . S
Cd436 O435 2.228 . S
Cd436 O440 2.273 . S
Cd436 O444 2.277 . S
O437 C434 1.160 . S
O437 Cd438 2.203 . S
Cd438 O437 2.203 . S
Cd438 O440 2.411 . S
Cd438 O441 2.333 . S
Cd438 O442 2.352 . S
Cd438 O446 2.277 . S
Cd438 O447 2.356 . S
C439 O444 1.209 . S
C439 O446 1.226 . S
O440 Cd436 2.273 . S
O440 Cd438 2.411 . S
O440 C443 1.320 . S
O441 Cd438 2.333 . S
O441 C443 1.214 . S
O442 Cd438 2.352 . S
O442 C445 1.258 . S
C443 O440 1.320 . S
C443 O441 1.214 . S
O444 Cd436 2.277 . S
O444 C439 1.209 . S
C445 O442 1.258 . S
C445 O447 1.282 . S
O446 Cd438 2.277 . S
O446 C439 1.226 . S
O447 Cd438 2.356 . S
O447 C445 1.282 . S
C448 O449 1.306 . S
C448 O451 1.160 . S
O449 C448 1.306 . S
O449 Cd450 2.228 . S
Cd450 O449 2.228 . S
Cd450 O454 2.273 . S
Cd450 O458 2.277 . S
O451 C448 1.160 . S
O451 Cd452 2.203 . S
Cd452 O451 2.203 . S
Cd452 O454 2.411 . S
Cd452 O455 2.333 . S
Cd452 O456 2.352 . S
Cd452 O460 2.277 . S
Cd452 O461 2.356 . S
C453 O458 1.209 . S
C453 O460 1.226 . S
O454 Cd450 2.273 . S
O454 Cd452 2.411 . S
O454 C457 1.320 . S
O455 Cd452 2.333 . S
O455 C457 1.214 . S
O456 Cd452 2.352 . S
O456 C459 1.258 . S
C457 O454 1.320 . S
C457 O455 1.214 . S
O458 Cd450 2.277 . S
O458 C453 1.209 . S
C459 O456 1.258 . S
C459 O461 1.282 . S
O460 Cd452 2.277 . S
O460 C453 1.226 . S
O461 Cd452 2.356 . S
O461 C459 1.282 . S
C462 O463 1.306 . S
C462 O465 1.160 . S
O463 C462 1.306 . S
O463 Cd464 2.228 . S
Cd464 O463 2.228 . S
Cd464 O468 2.273 . S
Cd464 O472 2.277 . S
O465 C462 1.160 . S
O465 Cd466 2.203 . S
Cd466 O465 2.203 . S
Cd466 O468 2.411 . S
Cd466 O469 2.333 . S
Cd466 O470 2.352 . S
Cd466 O474 2.277 . S
Cd466 O475 2.356 . S
C467 O472 1.209 . S
C467 O474 1.226 . S
O468 Cd464 2.273 . S
O468 Cd466 2.411 . S
O468 C471 1.320 . S
O469 Cd466 2.333 . S
O469 C471 1.214 . S
O470 Cd466 2.352 . S
O470 C473 1.258 . S
C471 O468 1.320 . S
C471 O469 1.214 . S
O472 Cd464 2.277 . S
O472 C467 1.209 . S
C473 O470 1.258 . S
C473 O475 1.282 . S
O474 Cd466 2.277 . S
O474 C467 1.226 . S
O475 Cd466 2.356 . S
O475 C473 1.282 . S
C476 O477 1.306 . S
C476 O479 1.160 . S
O477 C476 1.306 . S
O477 Cd478 2.228 . S
Cd478 O477 2.228 . S
Cd478 O482 2.273 . S
Cd478 O486 2.277 . S
O479 C476 1.160 . S
O479 Cd480 2.203 . S
Cd480 O479 2.203 . S
Cd480 O482 2.411 . S
Cd480 O483 2.333 . S
Cd480 O484 2.352 . S
Cd480 O488 2.277 . S
Cd480 O489 2.356 . S
C481 O486 1.209 . S
C481 O488 1.226 . S
O482 Cd478 2.273 . S
O482 Cd480 2.411 . S
O482 C485 1.320 . S
O483 Cd480 2.333 . S
O483 C485 1.214 . S
O484 Cd480 2.352 . S
O484 C487 1.258 . S
C485 O482 1.320 . S
C485 O483 1.214 . S
O486 Cd478 2.277 . S
O486 C481 1.209 . S
C487 O484 1.258 . S
C487 O489 1.282 . S
O488 Cd480 2.277 . S
O488 C481 1.226 . S
O489 Cd480 2.356 . S
O489 C487 1.282 . S
C490 O491 1.306 . S
C490 O493 1.160 . S
O491 C490 1.306 . S
O491 Cd492 2.228 . S
Cd492 O491 2.228 . S
Cd492 O496 2.273 . S
Cd492 O500 2.277 . S
O493 C490 1.160 . S
O493 Cd494 2.203 . S
Cd494 O493 2.203 . S
Cd494 O496 2.411 . S
Cd494 O497 2.333 . S
Cd494 O498 2.352 . S
Cd494 O502 2.277 . S
Cd494 O503 2.356 . S
C495 O500 1.209 . S
C495 O502 1.226 . S
O496 Cd492 2.273 . S
O496 Cd494 2.411 . S
O496 C499 1.320 . S
O497 Cd494 2.333 . S
O497 C499 1.214 . S
O498 Cd494 2.352 . S
O498 C501 1.258 . S
C499 O496 1.320 . S
C499 O497 1.214 . S
O500 Cd492 2.277 . S
O500 C495 1.209 . S
C501 O498 1.258 . S
C501 O503 1.282 . S
O502 Cd494 2.277 . S
O502 C495 1.226 . S
O503 Cd494 2.356 . S
O503 C501 1.282 . S
C504 C505 1.349 . S
C504 C506 1.327 . S
C504 H529 0.950 . S
C505 C504 1.349 . S
C505 C521 1.349 . S
C506 C504 1.327 . S
C506 C525 1.429 . S
C506 H530 0.950 . S
C507 C524 1.574 . S
C507 C526 1.368 . S
C507 H531 0.949 . S
H508 C512 0.949 . S
C509 C510 1.349 . S
C509 C511 1.327 . S
C509 H532 0.950 . S
C510 C509 1.349 . S
C510 C522 1.349 . S
C511 C509 1.327 . S
C511 C527 1.429 . S
C511 H533 0.950 . S
C512 H508 0.949 . S
C512 C520 1.574 . S
C512 C528 1.368 . S
H513 C521 0.950 . S
H514 C519 0.950 . S
H515 C520 0.949 . S
H516 C522 0.950 . S
H517 C523 0.950 . S
H518 C524 0.938 1_554 S
C519 H514 0.950 . S
C519 C521 1.327 . S
C519 C525 1.429 . S
C520 C512 1.574 . S
C520 H515 0.949 . S
C520 C526 1.368 . S
C521 C505 1.349 . S
C521 H513 0.950 . S
C521 C519 1.327 . S
C522 C510 1.349 . S
C522 H516 0.950 . S
C522 C523 1.327 . S
C523 H517 0.950 . S
C523 C522 1.327 . S
C523 C527 1.429 . S
C524 C507 1.574 . S
C524 H518 0.938 1_556 S
C524 C528 1.368 . S
C525 C506 1.429 . S
C525 C519 1.429 . S
C525 C526 1.523 . S
C526 C507 1.368 . S
C526 C520 1.368 . S
C526 C525 1.523 . S
C527 C511 1.429 . S
C527 C523 1.429 . S
C527 C528 1.523 1_554 S
C528 C512 1.368 . S
C528 C524 1.368 . S
C528 C527 1.523 1_556 S
H529 C504 0.950 . S
H530 C506 0.950 . S
H531 C507 0.949 . S
H532 C509 0.950 . S
H533 C511 0.950 . S
C534 C535 1.349 . S
C534 C536 1.327 . S
C534 H559 0.950 . S
C535 C534 1.349 . S
C535 C551 1.349 . S
C536 C534 1.327 . S
C536 C555 1.429 . S
C536 H560 0.950 . S
C537 C554 1.574 . S
C537 C556 1.368 . S
C537 H561 0.949 . S
H538 C542 0.949 . S
C539 C540 1.349 . S
C539 C541 1.327 . S
C539 H562 0.950 . S
C540 C539 1.349 . S
C540 C552 1.349 . S
C541 C539 1.327 . S
C541 C557 1.429 . S
C541 H563 0.950 . S
C542 H538 0.949 . S
C542 C550 1.574 . S
C542 C558 1.368 . S
H543 C551 0.950 . S
H544 C549 0.950 . S
H545 C550 0.949 . S
H546 C552 0.950 . S
H547 C553 0.950 . S
H548 C554 0.949 . S
C549 H544 0.950 . S
C549 C551 1.327 . S
C549 C555 1.429 . S
C550 C542 1.574 . S
C550 H545 0.949 . S
C550 C556 1.368 . S
C551 C535 1.349 . S
C551 H543 0.950 . S
C551 C549 1.327 . S
C552 C540 1.349 . S
C552 H546 0.950 . S
C552 C553 1.327 . S
C553 H547 0.950 . S
C553 C552 1.327 . S
C553 C557 1.429 . S
C554 C537 1.574 . S
C554 H548 0.949 . S
C554 C558 1.368 . S
C555 C536 1.429 . S
C555 C549 1.429 . S
C555 C556 1.523 . S
C556 C537 1.368 . S
C556 C550 1.368 . S
C556 C555 1.523 . S
C557 C541 1.429 . S
C557 C553 1.429 . S
C557 C558 1.523 1_554 S
C558 C542 1.368 . S
C558 C554 1.368 . S
C558 C557 1.523 1_556 S
H559 C534 0.950 . S
H560 C536 0.950 . S
H561 C537 0.949 . S
H562 C539 0.950 . S
H563 C541 0.950 . S
C564 C565 1.349 . S
C564 C566 1.327 . S
C564 H589 0.950 . S
C565 C564 1.349 . S
C565 C581 1.349 . S
C566 C564 1.327 . S
C566 C585 1.429 . S
C566 H590 0.950 . S
C567 C584 1.574 . S
C567 C586 1.368 . S
C567 H591 0.949 . S
H568 C572 0.949 . S
C569 C570 1.349 . S
C569 C571 1.327 . S
C569 H592 0.950 . S
C570 C569 1.349 . S
C570 C582 1.349 . S
C571 C569 1.327 . S
C571 C587 1.429 . S
C571 H593 0.950 . S
C572 H568 0.949 . S
C572 C580 1.574 . S
C572 C588 1.368 . S
H573 C581 0.950 . S
H574 C579 0.950 . S
H575 C580 0.949 . S
H576 C582 0.950 . S
H577 C583 0.950 . S
H578 C584 0.949 . S
C579 H574 0.950 . S
C579 C581 1.327 . S
C579 C585 1.429 . S
C580 C572 1.574 . S
C580 H575 0.949 . S
C580 C586 1.368 . S
C581 C565 1.349 . S
C581 H573 0.950 . S
C581 C579 1.327 . S
C582 C570 1.349 . S
C582 H576 0.950 . S
C582 C583 1.327 . S
C583 H577 0.950 . S
C583 C582 1.327 . S
C583 C587 1.429 . S
C584 C567 1.574 . S
C584 H578 0.949 . S
C584 C588 1.368 . S
C585 C566 1.429 . S
C585 C579 1.429 . S
C585 C586 1.523 1_554 S
C586 C567 1.368 . S
C586 C580 1.368 . S
C586 C585 1.523 1_556 S
C587 C571 1.429 . S
C587 C583 1.429 . S
C587 C588 1.523 . S
C588 C572 1.368 . S
C588 C584 1.368 . S
C588 C587 1.523 . S
H589 C564 0.950 . S
H590 C566 0.950 . S
H591 C567 0.949 . S
H592 C569 0.950 . S
H593 C571 0.950 . S
C594 C595 1.349 . S
C594 C596 1.327 . S
C594 H619 0.950 . S
C595 C594 1.349 . S
C595 C611 1.349 . S
C596 C594 1.327 . S
C596 C615 1.429 . S
C596 H620 0.950 . S
C597 C614 1.574 . S
C597 C616 1.368 . S
C597 H621 0.949 . S
H598 C602 0.949 . S
C599 C600 1.349 . S
C599 C601 1.327 . S
C599 H622 0.950 . S
C600 C599 1.349 . S
C600 C612 1.349 . S
C601 C599 1.327 . S
C601 C617 1.429 . S
C601 H623 0.950 . S
C602 H598 0.949 . S
C602 C610 1.574 . S
C602 C618 1.368 . S
H603 C611 0.950 . S
H604 C609 0.950 . S
H605 C610 0.949 . S
H606 C612 0.950 . S
H607 C613 0.950 . S
H608 C614 0.949 . S
C609 H604 0.950 . S
C609 C611 1.327 . S
C609 C615 1.429 . S
C610 C602 1.574 . S
C610 H605 0.949 . S
C610 C616 1.368 . S
C611 C595 1.349 . S
C611 H603 0.950 . S
C611 C609 1.327 . S
C612 C600 1.349 . S
C612 H606 0.950 . S
C612 C613 1.327 . S
C613 H607 0.950 . S
C613 C612 1.327 . S
C613 C617 1.429 . S
C614 C597 1.574 . S
C614 H608 0.949 . S
C614 C618 1.368 . S
C615 C596 1.429 . S
C615 C609 1.429 . S
C615 C616 1.523 . S
C616 C597 1.368 . S
C616 C610 1.368 . S
C616 C615 1.523 . S
C617 C601 1.429 . S
C617 C613 1.429 . S
C617 C618 1.523 . S
C618 C602 1.368 . S
C618 C614 1.368 . S
C618 C617 1.523 . S
H619 C594 0.950 . S
H620 C596 0.950 . S
H621 C597 0.949 . S
H622 C599 0.950 . S
H623 C601 0.950 . S
C624 C625 1.349 . S
C624 C626 1.327 . S
C624 H649 0.950 . S
C625 C624 1.349 . S
C625 C641 1.349 . S
C626 C624 1.327 . S
C626 C645 1.429 . S
C626 H650 0.950 . S
C627 C644 1.574 . S
C627 C646 1.368 . S
C627 H651 0.949 . S
H628 C632 0.949 . S
C629 C630 1.349 . S
C629 C631 1.327 . S
C629 H652 0.950 . S
C630 C629 1.349 . S
C630 C642 1.349 . S
C631 C629 1.327 . S
C631 C647 1.429 . S
C631 H653 0.950 . S
C632 H628 0.949 . S
C632 C640 1.574 . S
C632 C648 1.368 . S
H633 C641 0.950 . S
H634 C639 0.950 . S
H635 C640 0.949 . S
H636 C642 0.950 . S
H637 C643 0.950 . S
H638 C644 0.949 . S
C639 H634 0.950 . S
C639 C641 1.327 . S
C639 C645 1.429 . S
C640 C632 1.574 . S
C640 H635 0.949 . S
C640 C646 1.368 . S
C641 C625 1.349 . S
C641 H633 0.950 . S
C641 C639 1.327 . S
C642 C630 1.349 . S
C642 H636 0.950 . S
C642 C643 1.327 . S
C643 H637 0.950 . S
C643 C642 1.327 . S
C643 C647 1.429 . S
C644 C627 1.574 . S
C644 H638 0.949 . S
C644 C648 1.368 . S
C645 C626 1.429 . S
C645 C639 1.429 . S
C645 C646 1.523 . S
C646 C627 1.368 . S
C646 C640 1.368 . S
C646 C645 1.523 . S
C647 C631 1.429 . S
C647 C643 1.429 . S
C647 C648 1.523 . S
C648 C632 1.368 . S
C648 C644 1.368 . S
C648 C647 1.523 . S
H649 C624 0.950 . S
H650 C626 0.950 . S
H651 C627 0.949 . S
H652 C629 0.950 . S
H653 C631 0.950 . S
C654 C655 1.349 . S
C654 C656 1.327 . S
C654 H679 0.950 . S
C655 C654 1.349 . S
C655 C671 1.349 . S
C656 C654 1.327 . S
C656 C675 1.429 . S
C656 H680 0.950 . S
C657 C674 1.574 . S
C657 C676 1.368 . S
C657 H681 0.949 . S
H658 C662 0.949 . S
C659 C660 1.349 . S
C659 C661 1.327 . S
C659 H682 0.950 . S
C660 C659 1.349 . S
C660 C672 1.349 . S
C661 C659 1.327 . S
C661 C677 1.429 . S
C661 H683 0.950 . S
C662 H658 0.949 . S
C662 C670 1.574 . S
C662 C678 1.368 . S
H663 C671 0.950 . S
H664 C669 0.950 . S
H665 C670 0.949 . S
H666 C672 0.950 . S
H667 C673 0.950 . S
H668 C674 0.949 . S
C669 H664 0.950 . S
C669 C671 1.327 . S
C669 C675 1.429 . S
C670 C662 1.574 . S
C670 H665 0.949 . S
C670 C676 1.368 . S
C671 C655 1.349 . S
C671 H663 0.950 . S
C671 C669 1.327 . S
C672 C660 1.349 . S
C672 H666 0.950 . S
C672 C673 1.327 . S
C673 H667 0.950 . S
C673 C672 1.327 . S
C673 C677 1.429 . S
C674 C657 1.574 . S
C674 H668 0.949 . S
C674 C678 1.368 . S
C675 C656 1.429 . S
C675 C669 1.429 . S
C675 C676 1.523 . S
C676 C657 1.368 . S
C676 C670 1.368 . S
C676 C675 1.523 . S
C677 C661 1.429 . S
C677 C673 1.429 . S
C677 C678 1.523 . S
C678 C662 1.368 . S
C678 C674 1.368 . S
C678 C677 1.523 . S
H679 C654 0.950 . S
H680 C656 0.950 . S
H681 C657 0.949 . S
H682 C659 0.950 . S
H683 C661 0.950 . S
C684 C685 1.349 . S
C684 C686 1.327 . S
C684 H709 0.950 . S
C685 C684 1.349 . S
C685 C701 1.349 . S
C686 C684 1.327 . S
C686 C705 1.429 . S
C686 H710 0.950 . S
C687 C704 1.574 . S
C687 C706 1.368 . S
C687 H711 0.949 . S
H688 C692 0.949 . S
C689 C690 1.349 . S
C689 C691 1.327 . S
C689 H712 0.950 . S
C690 C689 1.349 . S
C690 C702 1.349 . S
C691 C689 1.327 . S
C691 C707 1.429 . S
C691 H713 0.950 . S
C692 H688 0.949 . S
C692 C700 1.574 . S
C692 C708 1.368 . S
H693 C701 0.950 . S
H694 C699 0.950 . S
H695 C700 0.949 . S
H696 C702 0.950 . S
H697 C703 0.950 . S
H698 C704 0.949 . S
C699 H694 0.950 . S
C699 C701 1.327 . S
C699 C705 1.429 . S
C700 C692 1.574 . S
C700 H695 0.949 . S
C700 C706 1.368 . S
C701 C685 1.349 . S
C701 H693 0.950 . S
C701 C699 1.327 . S
C702 C690 1.349 . S
C702 H696 0.950 . S
C702 C703 1.327 . S
C703 H697 0.950 . S
C703 C702 1.327 . S
C703 C707 1.429 . S
C704 C687 1.574 . S
C704 H698 0.949 . S
C704 C708 1.368 . S
C705 C686 1.429 . S
C705 C699 1.429 . S
C705 C706 1.523 . S
C706 C687 1.368 . S
C706 C700 1.368 . S
C706 C705 1.523 . S
C707 C691 1.429 . S
C707 C703 1.429 . S
C707 C708 1.523 1_556 S
C708 C692 1.368 . S
C708 C704 1.368 . S
C708 C707 1.523 1_554 S
H709 C684 0.950 . S
H710 C686 0.950 . S
H711 C687 0.949 . S
H712 C689 0.950 . S
H713 C691 0.950 . S
C714 C715 1.349 . S
C714 C716 1.327 . S
C714 H739 0.950 . S
C715 C714 1.349 . S
C715 C731 1.349 . S
C716 C714 1.327 . S
C716 C735 1.429 . S
C716 H740 0.950 . S
C717 C734 1.574 . S
C717 C736 1.368 . S
C717 H741 0.949 . S
H718 C722 0.939 1_556 S
C719 C720 1.349 . S
C719 C721 1.327 . S
C719 H742 0.950 . S
C720 C719 1.349 . S
C720 C732 1.349 . S
C721 C719 1.327 . S
C721 C737 1.429 . S
C721 H743 0.950 . S
C722 H718 0.939 1_554 S
C722 C730 1.574 . S
C722 C738 1.368 . S
H723 C731 0.950 . S
H724 C729 0.950 . S
H725 C730 0.949 . S
H726 C732 0.950 . S
H727 C733 0.950 . S
H728 C734 0.949 . S
C729 H724 0.950 . S
C729 C731 1.327 . S
C729 C735 1.429 . S
C730 C722 1.574 . S
C730 H725 0.949 . S
C730 C736 1.368 . S
C731 C715 1.349 . S
C731 H723 0.950 . S
C731 C729 1.327 . S
C732 C720 1.349 . S
C732 H726 0.950 . S
C732 C733 1.327 . S
C733 H727 0.950 . S
C733 C732 1.327 . S
C733 C737 1.429 . S
C734 C717 1.574 . S
C734 H728 0.949 . S
C734 C738 1.368 . S
C735 C716 1.429 . S
C735 C729 1.429 . S
C735 C736 1.523 . S
C736 C717 1.368 . S
C736 C730 1.368 . S
C736 C735 1.523 . S
C737 C721 1.429 . S
C737 C733 1.429 . S
C737 C738 1.523 1_556 S
C738 C722 1.368 . S
C738 C734 1.368 . S
C738 C737 1.523 1_554 S
H739 C714 0.950 . S
H740 C716 0.950 . S
H741 C717 0.949 . S
H742 C719 0.950 . S
H743 C721 0.950 . S
C744 C745 1.349 . S
C744 C746 1.327 . S
C744 H769 0.950 . S
C745 C744 1.349 . S
C745 C761 1.349 . S
C746 C744 1.327 . S
C746 C765 1.429 . S
C746 H770 0.950 . S
C747 C764 1.574 . S
C747 C766 1.368 . S
C747 H771 0.949 . S
H748 C752 0.949 . S
C749 C750 1.349 . S
C749 C751 1.327 . S
C749 H772 0.950 . S
C750 C749 1.349 . S
C750 C762 1.349 . S
C751 C749 1.327 . S
C751 C767 1.429 . S
C751 H773 0.950 . S
C752 H748 0.949 . S
C752 C760 1.574 . S
C752 C768 1.368 . S
H753 C761 0.950 . S
H754 C759 0.950 . S
H755 C760 0.949 . S
H756 C762 0.950 . S
H757 C763 0.950 . S
H758 C764 0.949 . S
C759 H754 0.950 . S
C759 C761 1.327 . S
C759 C765 1.429 . S
C760 C752 1.574 . S
C760 H755 0.949 . S
C760 C766 1.368 . S
C761 C745 1.349 . S
C761 H753 0.950 . S
C761 C759 1.327 . S
C762 C750 1.349 . S
C762 H756 0.950 . S
C762 C763 1.327 . S
C763 H757 0.950 . S
C763 C762 1.327 . S
C763 C767 1.429 . S
C764 C747 1.574 . S
C764 H758 0.949 . S
C764 C768 1.368 . S
C765 C746 1.429 . S
C765 C759 1.429 . S
C765 C766 1.523 1_556 S
C766 C747 1.368 . S
C766 C760 1.368 . S
C766 C765 1.523 1_554 S
C767 C751 1.429 . S
C767 C763 1.429 . S
C767 C768 1.523 . S
C768 C752 1.368 . S
C768 C764 1.368 . S
C768 C767 1.523 . S
H769 C744 0.950 . S
H770 C746 0.950 . S
H771 C747 0.949 . S
H772 C749 0.950 . S
H773 C751 0.950 . S
C774 C775 1.349 . S
C774 C776 1.327 . S
C774 H799 0.950 . S
C775 C774 1.349 . S
C775 C791 1.349 . S
C776 C774 1.327 . S
C776 C795 1.429 . S
C776 H800 0.950 . S
C777 C794 1.574 . S
C777 C796 1.368 . S
C777 H801 0.949 . S
H778 C782 0.949 . S
C779 C780 1.349 . S
C779 C781 1.327 . S
C779 H802 0.950 . S
C780 C779 1.349 . S
C780 C792 1.349 . S
C781 C779 1.327 . S
C781 C797 1.429 . S
C781 H803 0.950 . S
C782 H778 0.949 . S
C782 C790 1.574 . S
C782 C798 1.368 . S
H783 C791 0.950 . S
H784 C789 0.950 . S
H785 C790 0.949 . S
H786 C792 0.950 . S
H787 C793 0.950 . S
H788 C794 0.949 . S
C789 H784 0.950 . S
C789 C791 1.327 . S
C789 C795 1.429 . S
C790 C782 1.574 . S
C790 H785 0.949 . S
C790 C796 1.368 . S
C791 C775 1.349 . S
C791 H783 0.950 . S
C791 C789 1.327 . S
C792 C780 1.349 . S
C792 H786 0.950 . S
C792 C793 1.327 . S
C793 H787 0.950 . S
C793 C792 1.327 . S
C793 C797 1.429 . S
C794 C777 1.574 . S
C794 H788 0.949 . S
C794 C798 1.368 . S
C795 C776 1.429 . S
C795 C789 1.429 . S
C795 C796 1.523 . S
C796 C777 1.368 . S
C796 C790 1.368 . S
C796 C795 1.523 . S
C797 C781 1.429 . S
C797 C793 1.429 . S
C797 C798 1.523 . S
C798 C782 1.368 . S
C798 C794 1.368 . S
C798 C797 1.523 . S
H799 C774 0.950 . S
H800 C776 0.950 . S
H801 C777 0.949 . S
H802 C779 0.950 . S
H803 C781 0.950 . S
C804 C805 1.349 . S
C804 C806 1.327 . S
C804 H829 0.950 . S
C805 C804 1.349 . S
C805 C821 1.349 . S
C806 C804 1.327 . S
C806 C825 1.429 . S
C806 H830 0.950 . S
C807 C824 1.574 . S
C807 C826 1.368 . S
C807 H831 0.949 . S
H808 C812 0.949 . S
C809 C810 1.349 . S
C809 C811 1.327 . S
C809 H832 0.950 . S
C810 C809 1.349 . S
C810 C822 1.349 . S
C811 C809 1.327 . S
C811 C827 1.429 . S
C811 H833 0.950 . S
C812 H808 0.949 . S
C812 C820 1.574 . S
C812 C828 1.368 . S
H813 C821 0.950 . S
H814 C819 0.950 . S
H815 C820 0.949 . S
H816 C822 0.950 . S
H817 C823 0.950 . S
H818 C824 0.949 . S
C819 H814 0.950 . S
C819 C821 1.327 . S
C819 C825 1.429 . S
C820 C812 1.574 . S
C820 H815 0.949 . S
C820 C826 1.368 . S
C821 C805 1.349 . S
C821 H813 0.950 . S
C821 C819 1.327 . S
C822 C810 1.349 . S
C822 H816 0.950 . S
C822 C823 1.327 . S
C823 H817 0.950 . S
C823 C822 1.327 . S
C823 C827 1.429 . S
C824 C807 1.574 . S
C824 H818 0.949 . S
C824 C828 1.368 . S
C825 C806 1.429 . S
C825 C819 1.429 . S
C825 C826 1.523 . S
C826 C807 1.368 . S
C826 C820 1.368 . S
C826 C825 1.523 . S
C827 C811 1.429 . S
C827 C823 1.429 . S
C827 C828 1.523 . S
C828 C812 1.368 . S
C828 C824 1.368 . S
C828 C827 1.523 . S
H829 C804 0.950 . S
H830 C806 0.950 . S
H831 C807 0.949 . S
H832 C809 0.950 . S
H833 C811 0.950 . S
C834 C835 1.349 . S
C834 C836 1.327 . S
C834 H859 0.950 . S
C835 C834 1.349 . S
C835 C851 1.349 . S
C836 C834 1.327 . S
C836 C855 1.429 . S
C836 H860 0.950 . S
C837 C854 1.574 . S
C837 C856 1.368 . S
C837 H861 0.949 . S
H838 C842 0.949 . S
C839 C840 1.349 . S
C839 C841 1.327 . S
C839 H862 0.950 . S
C840 C839 1.349 . S
C840 C852 1.349 . S
C841 C839 1.327 . S
C841 C857 1.429 . S
C841 H863 0.950 . S
C842 H838 0.949 . S
C842 C850 1.574 . S
C842 C858 1.368 . S
H843 C851 0.950 . S
H844 C849 0.950 . S
H845 C850 0.949 . S
H846 C852 0.950 . S
H847 C853 0.950 . S
H848 C854 0.949 . S
C849 H844 0.950 . S
C849 C851 1.327 . S
C849 C855 1.429 . S
C850 C842 1.574 . S
C850 H845 0.949 . S
C850 C856 1.368 . S
C851 C835 1.349 . S
C851 H843 0.950 . S
C851 C849 1.327 . S
C852 C840 1.349 . S
C852 H846 0.950 . S
C852 C853 1.327 . S
C853 H847 0.950 . S
C853 C852 1.327 . S
C853 C857 1.429 . S
C854 C837 1.574 . S
C854 H848 0.949 . S
C854 C858 1.368 . S
C855 C836 1.429 . S
C855 C849 1.429 . S
C855 C856 1.523 . S
C856 C837 1.368 . S
C856 C850 1.368 . S
C856 C855 1.523 . S
C857 C841 1.429 . S
C857 C853 1.429 . S
C857 C858 1.523 . S
C858 C842 1.368 . S
C858 C854 1.368 . S
C858 C857 1.523 . S
H859 C834 0.950 . S
H860 C836 0.950 . S
H861 C837 0.949 . S
H862 C839 0.950 . S
H863 C841 0.950 . S
C864 C865 1.349 . S
C864 C866 1.327 . S
C864 H889 0.950 . S
C865 C864 1.349 . S
C865 C881 1.349 . S
C866 C864 1.327 . S
C866 C885 1.429 . S
C866 H890 0.950 . S
C867 C884 1.574 . S
C867 C886 1.368 . S
C867 H891 0.949 . S
H868 C872 0.949 . S
C869 C870 1.349 . S
C869 C871 1.327 . S
C869 H892 0.950 . S
C870 C869 1.349 . S
C870 C882 1.349 . S
C871 C869 1.327 . S
C871 C887 1.429 . S
C871 H893 0.950 . S
C872 H868 0.949 . S
C872 C880 1.574 . S
C872 C888 1.368 . S
H873 C881 0.950 . S
H874 C879 0.950 . S
H875 C880 0.949 . S
H876 C882 0.950 . S
H877 C883 0.950 . S
H878 C884 0.949 . S
C879 H874 0.950 . S
C879 C881 1.327 . S
C879 C885 1.429 . S
C880 C872 1.574 . S
C880 H875 0.949 . S
C880 C886 1.368 . S
C881 C865 1.349 . S
C881 H873 0.950 . S
C881 C879 1.327 . S
C882 C870 1.349 . S
C882 H876 0.950 . S
C882 C883 1.327 . S
C883 H877 0.950 . S
C883 C882 1.327 . S
C883 C887 1.429 . S
C884 C867 1.574 . S
C884 H878 0.949 . S
C884 C888 1.368 . S
C885 C866 1.429 . S
C885 C879 1.429 . S
C885 C886 1.523 . S
C886 C867 1.368 . S
C886 C880 1.368 . S
C886 C885 1.523 . S
C887 C871 1.429 . S
C887 C883 1.429 . S
C887 C888 1.523 . S
C888 C872 1.368 . S
C888 C884 1.368 . S
C888 C887 1.523 . S
H889 C864 0.950 . S
H890 C866 0.950 . S
H891 C867 0.949 . S
H892 C869 0.950 . S
H893 C871 0.950 . S
C894 C895 1.349 . S
C894 C896 1.327 . S
C894 H919 0.950 . S
C895 C894 1.349 . S
C895 C911 1.349 . S
C896 C894 1.327 . S
C896 C915 1.429 . S
C896 H920 0.950 . S
C897 C914 1.574 . S
C897 C916 1.368 . S
C897 H921 0.949 . S
H898 C902 0.949 . S
C899 C900 1.349 . S
C899 C901 1.327 . S
C899 H922 0.950 . S
C900 C899 1.349 . S
C900 C912 1.349 . S
C901 C899 1.327 . S
C901 C917 1.429 . S
C901 H923 0.950 . S
C902 H898 0.949 . S
C902 C910 1.574 . S
C902 C918 1.368 . S
H903 C911 0.950 . S
H904 C909 0.950 . S
H905 C910 0.949 . S
H906 C912 0.950 . S
H907 C913 0.950 . S
H908 C914 0.949 . S
C909 H904 0.950 . S
C909 C911 1.327 . S
C909 C915 1.429 . S
C910 C902 1.574 . S
C910 H905 0.949 . S
C910 C916 1.368 . S
C911 C895 1.349 . S
C911 H903 0.950 . S
C911 C909 1.327 . S
C912 C900 1.349 . S
C912 H906 0.950 . S
C912 C913 1.327 . S
C913 H907 0.950 . S
C913 C912 1.327 . S
C913 C917 1.429 . S
C914 C897 1.574 . S
C914 H908 0.949 . S
C914 C918 1.368 . S
C915 C896 1.429 . S
C915 C909 1.429 . S
C915 C916 1.523 . S
C916 C897 1.368 . S
C916 C910 1.368 . S
C916 C915 1.523 . S
C917 C901 1.429 . S
C917 C913 1.429 . S
C917 C918 1.523 . S
C918 C902 1.368 . S
C918 C914 1.368 . S
C918 C917 1.523 . S
H919 C894 0.950 . S
H920 C896 0.950 . S
H921 C897 0.949 . S
H922 C899 0.950 . S
H923 C901 0.950 . S
C924 C925 1.349 . S
C924 C926 1.327 . S
C924 H949 0.950 . S
C925 C924 1.349 . S
C925 C941 1.349 . S
C926 C924 1.327 . S
C926 C945 1.429 . S
C926 H950 0.950 . S
C927 C944 1.574 . S
C927 C946 1.368 . S
C927 H951 0.949 . S
H928 C932 0.949 . S
C929 C930 1.349 . S
C929 C931 1.327 . S
C929 H952 0.950 . S
C930 C929 1.349 . S
C930 C942 1.349 . S
C931 C929 1.327 . S
C931 C947 1.429 . S
C931 H953 0.950 . S
C932 H928 0.949 . S
C932 C940 1.574 . S
C932 C948 1.368 . S
H933 C941 0.950 . S
H934 C939 0.950 . S
H935 C940 0.949 . S
H936 C942 0.950 . S
H937 C943 0.950 . S
H938 C944 0.949 . S
C939 H934 0.950 . S
C939 C941 1.327 . S
C939 C945 1.429 . S
C940 C932 1.574 . S
C940 H935 0.949 . S
C940 C946 1.368 . S
C941 C925 1.349 . S
C941 H933 0.950 . S
C941 C939 1.327 . S
C942 C930 1.349 . S
C942 H936 0.950 . S
C942 C943 1.327 . S
C943 H937 0.950 . S
C943 C942 1.327 . S
C943 C947 1.429 . S
C944 C927 1.574 . S
C944 H938 0.949 . S
C944 C948 1.368 . S
C945 C926 1.429 . S
C945 C939 1.429 . S
C945 C946 1.523 . S
C946 C927 1.368 . S
C946 C940 1.368 . S
C946 C945 1.523 . S
C947 C931 1.429 . S
C947 C943 1.429 . S
C947 C948 1.523 . S
C948 C932 1.368 . S
C948 C944 1.368 . S
C948 C947 1.523 . S
H949 C924 0.950 . S
H950 C926 0.950 . S
H951 C927 0.949 . S
H952 C929 0.950 . S
H953 C931 0.950 . S
C954 C955 1.349 . S
C954 C956 1.327 . S
C954 H979 0.950 . S
C955 C954 1.349 . S
C955 C971 1.349 . S
C956 C954 1.327 . S
C956 C975 1.429 . S
C956 H980 0.950 . S
C957 C974 1.574 . S
C957 C976 1.368 . S
C957 H981 0.949 . S
H958 C962 0.949 . S
C959 C960 1.349 . S
C959 C961 1.327 1_554 S
C959 H982 0.950 . S
C960 C959 1.349 . S
C960 C972 1.349 . S
C961 C959 1.327 1_556 S
C961 C977 1.429 . S
C961 H983 0.950 . S
C962 H958 0.949 . S
C962 C970 1.574 . S
C962 C978 1.368 . S
H963 C971 0.950 . S
H964 C969 0.950 . S
H965 C970 0.949 . S
H966 C972 0.950 . S
H967 C973 0.950 . S
H968 C974 0.949 . S
C969 H964 0.950 . S
C969 C971 1.327 . S
C969 C975 1.429 . S
C970 C962 1.574 . S
C970 H965 0.949 . S
C970 C976 1.368 . S
C971 C955 1.349 . S
C971 H963 0.950 . S
C971 C969 1.327 . S
C972 C960 1.349 . S
C972 H966 0.950 . S
C972 C973 1.327 1_554 S
C973 H967 0.950 . S
C973 C972 1.327 1_556 S
C973 C977 1.429 . S
C974 C957 1.574 . S
C974 H968 0.949 . S
C974 C978 1.368 . S
C975 C956 1.429 . S
C975 C969 1.429 . S
C975 C976 1.523 . S
C976 C957 1.368 . S
C976 C970 1.368 . S
C976 C975 1.523 . S
C977 C961 1.429 . S
C977 C973 1.429 . S
C977 C978 1.523 . S
C978 C962 1.368 . S
C978 C974 1.368 . S
C978 C977 1.523 . S
H979 C954 0.950 . S
H980 C956 0.950 . S
H981 C957 0.949 . S
H982 C959 0.950 . S
H983 C961 0.950 . S
C984 C985 1.349 . S
C984 C986 1.327 . S
C984 H1009 0.950 . S
C985 C984 1.349 . S
C985 C1001 1.349 . S
C986 C984 1.327 . S
C986 C1005 1.429 . S
C986 H1010 0.950 . S
C987 C1004 1.574 . S
C987 C1006 1.368 . S
C987 H1011 0.949 . S
H988 C992 0.949 . S
C989 C990 1.349 . S
C989 C991 1.327 1_554 S
C989 H1012 0.950 . S
C990 C989 1.349 . S
C990 C1002 1.349 . S
C991 C989 1.327 1_556 S
C991 C1007 1.429 . S
C991 H1013 0.950 . S
C992 H988 0.949 . S
C992 C1000 1.574 . S
C992 C1008 1.368 . S
H993 C1001 0.950 . S
H994 C999 0.950 . S
H995 C1000 0.949 . S
H996 C1002 0.950 . S
H997 C1003 0.950 . S
H998 C1004 0.949 . S
C999 H994 0.950 . S
C999 C1001 1.327 . S
C999 C1005 1.429 . S
C1000 C992 1.574 . S
C1000 H995 0.949 . S
C1000 C1006 1.368 . S
C1001 C985 1.349 . S
C1001 H993 0.950 . S
C1001 C999 1.327 . S
C1002 C990 1.349 . S
C1002 H996 0.950 . S
C1002 C1003 1.327 1_554 S
C1003 H997 0.950 . S
C1003 C1002 1.327 1_556 S
C1003 C1007 1.429 . S
C1004 C987 1.574 . S
C1004 H998 0.949 . S
C1004 C1008 1.368 . S
C1005 C986 1.429 . S
C1005 C999 1.429 . S
C1005 C1006 1.523 . S
C1006 C987 1.368 . S
C1006 C1000 1.368 . S
C1006 C1005 1.523 . S
C1007 C991 1.429 . S
C1007 C1003 1.429 . S
C1007 C1008 1.523 . S
C1008 C992 1.368 . S
C1008 C1004 1.368 . S
C1008 C1007 1.523 . S
H1009 C984 0.950 . S
H1010 C986 0.950 . S
H1011 C987 0.949 . S
H1012 C989 0.950 . S
H1013 C991 0.950 . S
C1014 C1015 1.349 . S
C1014 C1016 1.327 . S
C1014 H1039 0.950 . S
C1015 C1014 1.349 . S
C1015 C1031 1.349 . S
C1016 C1014 1.327 . S
C1016 C1035 1.429 . S
C1016 H1040 0.950 . S
C1017 C1034 1.574 . S
C1017 C1036 1.368 . S
C1017 H1041 0.949 . S
H1018 C1022 0.949 . S
C1019 C1020 1.349 . S
C1019 C1021 1.327 1_554 S
C1019 H1042 0.950 . S
C1020 C1019 1.349 . S
C1020 C1032 1.349 . S
C1021 C1019 1.327 1_556 S
C1021 C1037 1.429 . S
C1021 H1043 0.950 . S
C1022 H1018 0.949 . S
C1022 C1030 1.574 . S
C1022 C1038 1.368 . S
H1023 C1031 0.950 . S
H1024 C1029 0.950 . S
H1025 C1030 0.949 . S
H1026 C1032 0.950 . S
H1027 C1033 0.950 . S
H1028 C1034 0.949 . S
C1029 H1024 0.950 . S
C1029 C1031 1.327 . S
C1029 C1035 1.429 . S
C1030 C1022 1.574 . S
C1030 H1025 0.949 . S
C1030 C1036 1.368 . S
C1031 C1015 1.349 . S
C1031 H1023 0.950 . S
C1031 C1029 1.327 . S
C1032 C1020 1.349 . S
C1032 H1026 0.950 . S
C1032 C1033 1.327 1_554 S
C1033 H1027 0.950 . S
C1033 C1032 1.327 1_556 S
C1033 C1037 1.429 . S
C1034 C1017 1.574 . S
C1034 H1028 0.949 . S
C1034 C1038 1.368 . S
C1035 C1016 1.429 . S
C1035 C1029 1.429 . S
C1035 C1036 1.523 . S
C1036 C1017 1.368 . S
C1036 C1030 1.368 . S
C1036 C1035 1.523 . S
C1037 C1021 1.429 . S
C1037 C1033 1.429 . S
C1037 C1038 1.523 . S
C1038 C1022 1.368 . S
C1038 C1034 1.368 . S
C1038 C1037 1.523 . S
H1039 C1014 0.950 . S
H1040 C1016 0.950 . S
H1041 C1017 0.949 . S
H1042 C1019 0.950 . S
H1043 C1021 0.950 . S
C1044 C1045 1.349 . S
C1044 C1046 1.327 . S
C1044 H1069 0.950 . S
C1045 C1044 1.349 . S
C1045 C1061 1.349 . S
C1046 C1044 1.327 . S
C1046 C1065 1.429 . S
C1046 H1070 0.950 . S
C1047 C1064 1.574 . S
C1047 C1066 1.368 . S
C1047 H1071 0.949 . S
H1048 C1052 0.949 . S
C1049 C1050 1.349 . S
C1049 C1051 1.327 . S
C1049 H1072 0.950 . S
C1050 C1049 1.349 . S
C1050 C1062 1.349 . S
C1051 C1049 1.327 . S
C1051 C1067 1.429 . S
C1051 H1073 0.950 . S
C1052 H1048 0.949 . S
C1052 C1060 1.574 . S
C1052 C1068 1.368 . S
H1053 C1061 0.950 . S
H1054 C1059 0.950 . S
H1055 C1060 0.949 . S
H1056 C1062 0.950 . S
H1057 C1063 0.950 . S
H1058 C1064 0.949 . S
C1059 H1054 0.950 . S
C1059 C1061 1.327 . S
C1059 C1065 1.429 . S
C1060 C1052 1.574 . S
C1060 H1055 0.949 . S
C1060 C1066 1.368 . S
C1061 C1045 1.349 . S
C1061 H1053 0.950 . S
C1061 C1059 1.327 . S
C1062 C1050 1.349 . S
C1062 H1056 0.950 . S
C1062 C1063 1.327 . S
C1063 H1057 0.950 . S
C1063 C1062 1.327 . S
C1063 C1067 1.429 . S
C1064 C1047 1.574 . S
C1064 H1058 0.949 . S
C1064 C1068 1.368 . S
C1065 C1046 1.429 . S
C1065 C1059 1.429 . S
C1065 C1066 1.523 . S
C1066 C1047 1.368 . S
C1066 C1060 1.368 . S
C1066 C1065 1.523 . S
C1067 C1051 1.429 . S
C1067 C1063 1.429 . S
C1067 C1068 1.523 . S
C1068 C1052 1.368 . S
C1068 C1064 1.368 . S
C1068 C1067 1.523 . S
H1069 C1044 0.950 . S
H1070 C1046 0.950 . S
H1071 C1047 0.949 . S
H1072 C1049 0.950 . S
H1073 C1051 0.950 . S
C1074 C1075 1.349 . S
C1074 C1076 1.327 . S
C1074 H1099 0.950 . S
C1075 C1074 1.349 . S
C1075 C1091 1.349 . S
C1076 C1074 1.327 . S
C1076 C1095 1.429 . S
C1076 H1100 0.950 . S
C1077 C1094 1.574 . S
C1077 C1096 1.368 . S
C1077 H1101 0.949 . S
H1078 C1082 0.949 . S
C1079 C1080 1.349 . S
C1079 C1081 1.327 . S
C1079 H1102 0.950 . S
C1080 C1079 1.349 . S
C1080 C1092 1.349 . S
C1081 C1079 1.327 . S
C1081 C1097 1.429 . S
C1081 H1103 0.950 . S
C1082 H1078 0.949 . S
C1082 C1090 1.574 . S
C1082 C1098 1.368 . S
H1083 C1091 0.950 . S
H1084 C1089 0.950 . S
H1085 C1090 0.949 . S
H1086 C1092 0.950 . S
H1087 C1093 0.950 . S
H1088 C1094 0.949 . S
C1089 H1084 0.950 . S
C1089 C1091 1.327 . S
C1089 C1095 1.429 . S
C1090 C1082 1.574 . S
C1090 H1085 0.949 . S
C1090 C1096 1.368 . S
C1091 C1075 1.349 . S
C1091 H1083 0.950 . S
C1091 C1089 1.327 . S
C1092 C1080 1.349 . S
C1092 H1086 0.950 . S
C1092 C1093 1.327 . S
C1093 H1087 0.950 . S
C1093 C1092 1.327 . S
C1093 C1097 1.429 . S
C1094 C1077 1.574 . S
C1094 H1088 0.949 . S
C1094 C1098 1.368 . S
C1095 C1076 1.429 . S
C1095 C1089 1.429 . S
C1095 C1096 1.523 . S
C1096 C1077 1.368 . S
C1096 C1090 1.368 . S
C1096 C1095 1.523 . S
C1097 C1081 1.429 . S
C1097 C1093 1.429 . S
C1097 C1098 1.523 . S
C1098 C1082 1.368 . S
C1098 C1094 1.368 . S
C1098 C1097 1.523 . S
H1099 C1074 0.950 . S
H1100 C1076 0.950 . S
H1101 C1077 0.949 . S
H1102 C1079 0.950 . S
H1103 C1081 0.950 . S
C1104 C1105 1.349 . S
C1104 C1106 1.327 . S
C1104 H1129 0.950 . S
C1105 C1104 1.349 . S
C1105 C1121 1.349 . S
C1106 C1104 1.327 . S
C1106 C1125 1.429 . S
C1106 H1130 0.950 . S
C1107 C1124 1.574 . S
C1107 C1126 1.368 . S
C1107 H1131 0.949 . S
H1108 C1112 0.949 . S
C1109 C1110 1.349 . S
C1109 C1111 1.327 . S
C1109 H1132 0.950 . S
C1110 C1109 1.349 . S
C1110 C1122 1.349 . S
C1111 C1109 1.327 . S
C1111 C1127 1.429 . S
C1111 H1133 0.950 . S
C1112 H1108 0.949 . S
C1112 C1120 1.574 . S
C1112 C1128 1.368 . S
H1113 C1121 0.950 . S
H1114 C1119 0.950 . S
H1115 C1120 0.949 . S
H1116 C1122 0.950 . S
H1117 C1123 0.950 . S
H1118 C1124 0.949 . S
C1119 H1114 0.950 . S
C1119 C1121 1.327 . S
C1119 C1125 1.429 . S
C1120 C1112 1.574 . S
C1120 H1115 0.949 . S
C1120 C1126 1.368 . S
C1121 C1105 1.349 . S
C1121 H1113 0.950 . S
C1121 C1119 1.327 . S
C1122 C1110 1.349 . S
C1122 H1116 0.950 . S
C1122 C1123 1.327 . S
C1123 H1117 0.950 . S
C1123 C1122 1.327 . S
C1123 C1127 1.429 . S
C1124 C1107 1.574 . S
C1124 H1118 0.949 . S
C1124 C1128 1.368 . S
C1125 C1106 1.429 . S
C1125 C1119 1.429 . S
C1125 C1126 1.523 . S
C1126 C1107 1.368 . S
C1126 C1120 1.368 . S
C1126 C1125 1.523 . S
C1127 C1111 1.429 . S
C1127 C1123 1.429 . S
C1127 C1128 1.523 . S
C1128 C1112 1.368 . S
C1128 C1124 1.368 . S
C1128 C1127 1.523 . S
H1129 C1104 0.950 . S
H1130 C1106 0.950 . S
H1131 C1107 0.949 . S
H1132 C1109 0.950 . S
H1133 C1111 0.950 . S
C1134 C1135 1.349 . S
C1134 C1136 1.327 . S
C1134 H1159 0.950 . S
C1135 C1134 1.349 . S
C1135 C1151 1.349 . S
C1136 C1134 1.327 . S
C1136 C1155 1.429 . S
C1136 H1160 0.950 . S
C1137 C1154 1.574 . S
C1137 C1156 1.368 . S
C1137 H1161 0.949 . S
H1138 C1142 0.949 . S
C1139 C1140 1.349 . S
C1139 C1141 1.327 . S
C1139 H1162 0.950 . S
C1140 C1139 1.349 . S
C1140 C1152 1.349 . S
C1141 C1139 1.327 . S
C1141 C1157 1.429 . S
C1141 H1163 0.950 . S
C1142 H1138 0.949 . S
C1142 C1150 1.574 . S
C1142 C1158 1.368 . S
H1143 C1151 0.950 . S
H1144 C1149 0.950 . S
H1145 C1150 0.949 . S
H1146 C1152 0.950 . S
H1147 C1153 0.950 . S
H1148 C1154 0.949 . S
C1149 H1144 0.950 . S
C1149 C1151 1.327 . S
C1149 C1155 1.429 . S
C1150 C1142 1.574 . S
C1150 H1145 0.949 . S
C1150 C1156 1.368 . S
C1151 C1135 1.349 . S
C1151 H1143 0.950 . S
C1151 C1149 1.327 . S
C1152 C1140 1.349 . S
C1152 H1146 0.950 . S
C1152 C1153 1.327 . S
C1153 H1147 0.950 . S
C1153 C1152 1.327 . S
C1153 C1157 1.429 . S
C1154 C1137 1.574 . S
C1154 H1148 0.949 . S
C1154 C1158 1.368 . S
C1155 C1136 1.429 . S
C1155 C1149 1.429 . S
C1155 C1156 1.523 . S
C1156 C1137 1.368 . S
C1156 C1150 1.368 . S
C1156 C1155 1.523 . S
C1157 C1141 1.429 . S
C1157 C1153 1.429 . S
C1157 C1158 1.523 . S
C1158 C1142 1.368 . S
C1158 C1154 1.368 . S
C1158 C1157 1.523 . S
H1159 C1134 0.950 . S
H1160 C1136 0.950 . S
H1161 C1137 0.949 . S
H1162 C1139 0.950 . S
H1163 C1141 0.950 . S
C1164 C1165 1.349 . S
C1164 C1166 1.327 . S
C1164 H1189 0.950 . S
C1165 C1164 1.349 . S
C1165 C1181 1.349 . S
C1166 C1164 1.327 . S
C1166 C1185 1.429 . S
C1166 H1190 0.950 . S
C1167 C1184 1.574 . S
C1167 C1186 1.368 . S
C1167 H1191 0.949 . S
H1168 C1172 0.949 . S
C1169 C1170 1.349 . S
C1169 C1171 1.327 . S
C1169 H1192 0.950 . S
C1170 C1169 1.349 . S
C1170 C1182 1.349 . S
C1171 C1169 1.327 . S
C1171 C1187 1.429 . S
C1171 H1193 0.950 . S
C1172 H1168 0.949 . S
C1172 C1180 1.574 . S
C1172 C1188 1.368 . S
H1173 C1181 0.950 . S
H1174 C1179 0.950 . S
H1175 C1180 0.949 . S
H1176 C1182 0.950 . S
H1177 C1183 0.950 . S
H1178 C1184 0.949 . S
C1179 H1174 0.950 . S
C1179 C1181 1.327 . S
C1179 C1185 1.429 . S
C1180 C1172 1.574 . S
C1180 H1175 0.949 . S
C1180 C1186 1.368 . S
C1181 C1165 1.349 . S
C1181 H1173 0.950 . S
C1181 C1179 1.327 . S
C1182 C1170 1.349 . S
C1182 H1176 0.950 . S
C1182 C1183 1.327 . S
C1183 H1177 0.950 . S
C1183 C1182 1.327 . S
C1183 C1187 1.429 . S
C1184 C1167 1.574 . S
C1184 H1178 0.949 . S
C1184 C1188 1.368 . S
C1185 C1166 1.429 . S
C1185 C1179 1.429 . S
C1185 C1186 1.523 . S
C1186 C1167 1.368 . S
C1186 C1180 1.368 . S
C1186 C1185 1.523 . S
C1187 C1171 1.429 . S
C1187 C1183 1.429 . S
C1187 C1188 1.523 . S
C1188 C1172 1.368 . S
C1188 C1184 1.368 . S
C1188 C1187 1.523 . S
H1189 C1164 0.950 . S
H1190 C1166 0.950 . S
H1191 C1167 0.949 . S
H1192 C1169 0.950 . S
H1193 C1171 0.950 . S
C1194 C1195 1.349 . S
C1194 C1196 1.327 . S
C1194 H1219 0.950 . S
C1195 C1194 1.349 . S
C1195 C1211 1.349 . S
C1196 C1194 1.327 . S
C1196 C1215 1.429 . S
C1196 H1220 0.950 . S
C1197 C1214 1.574 . S
C1197 C1216 1.368 . S
C1197 H1221 0.949 . S
H1198 C1202 0.949 . S
C1199 C1200 1.349 . S
C1199 C1201 1.327 . S
C1199 H1222 0.950 . S
C1200 C1199 1.349 . S
C1200 C1212 1.349 . S
C1201 C1199 1.327 . S
C1201 C1217 1.429 . S
C1201 H1223 0.950 . S
C1202 H1198 0.949 . S
C1202 C1210 1.574 . S
C1202 C1218 1.368 . S
H1203 C1211 0.950 . S
H1204 C1209 0.950 . S
H1205 C1210 0.949 . S
H1206 C1212 0.950 . S
H1207 C1213 0.950 . S
H1208 C1214 0.949 . S
C1209 H1204 0.950 . S
C1209 C1211 1.327 . S
C1209 C1215 1.429 . S
C1210 C1202 1.574 . S
C1210 H1205 0.949 . S
C1210 C1216 1.368 . S
C1211 C1195 1.349 . S
C1211 H1203 0.950 . S
C1211 C1209 1.327 . S
C1212 C1200 1.349 . S
C1212 H1206 0.950 . S
C1212 C1213 1.327 . S
C1213 H1207 0.950 . S
C1213 C1212 1.327 . S
C1213 C1217 1.429 . S
C1214 C1197 1.574 . S
C1214 H1208 0.949 . S
C1214 C1218 1.368 . S
C1215 C1196 1.429 . S
C1215 C1209 1.429 . S
C1215 C1216 1.523 . S
C1216 C1197 1.368 . S
C1216 C1210 1.368 . S
C1216 C1215 1.523 . S
C1217 C1201 1.429 . S
C1217 C1213 1.429 . S
C1217 C1218 1.523 . S
C1218 C1202 1.368 . S
C1218 C1214 1.368 . S
C1218 C1217 1.523 . S
H1219 C1194 0.950 . S
H1220 C1196 0.950 . S
H1221 C1197 0.949 . S
H1222 C1199 0.950 . S
H1223 C1201 0.950 . S
C1224 C1225 1.349 . S
C1224 C1226 1.327 . S
C1224 H1249 0.950 . S
C1225 C1224 1.349 . S
C1225 C1241 1.349 . S
C1226 C1224 1.327 . S
C1226 C1245 1.429 . S
C1226 H1250 0.950 . S
C1227 C1244 1.574 . S
C1227 C1246 1.368 . S
C1227 H1251 0.949 . S
H1228 C1232 0.949 . S
C1229 C1230 1.349 . S
C1229 C1231 1.327 . S
C1229 H1252 0.950 . S
C1230 C1229 1.349 . S
C1230 C1242 1.349 . S
C1231 C1229 1.327 . S
C1231 C1247 1.429 . S
C1231 H1253 0.950 . S
C1232 H1228 0.949 . S
C1232 C1240 1.574 . S
C1232 C1248 1.368 . S
H1233 C1241 0.950 . S
H1234 C1239 0.950 . S
H1235 C1240 0.949 . S
H1236 C1242 0.950 . S
H1237 C1243 0.950 . S
H1238 C1244 0.949 . S
C1239 H1234 0.950 . S
C1239 C1241 1.327 . S
C1239 C1245 1.429 . S
C1240 C1232 1.574 . S
C1240 H1235 0.949 . S
C1240 C1246 1.368 . S
C1241 C1225 1.349 . S
C1241 H1233 0.950 . S
C1241 C1239 1.327 . S
C1242 C1230 1.349 . S
C1242 H1236 0.950 . S
C1242 C1243 1.327 . S
C1243 H1237 0.950 . S
C1243 C1242 1.327 . S
C1243 C1247 1.429 . S
C1244 C1227 1.574 . S
C1244 H1238 0.949 . S
C1244 C1248 1.368 . S
C1245 C1226 1.429 . S
C1245 C1239 1.429 . S
C1245 C1246 1.523 . S
C1246 C1227 1.368 . S
C1246 C1240 1.368 . S
C1246 C1245 1.523 . S
C1247 C1231 1.429 . S
C1247 C1243 1.429 . S
C1247 C1248 1.523 . S
C1248 C1232 1.368 . S
C1248 C1244 1.368 . S
C1248 C1247 1.523 . S
H1249 C1224 0.950 . S
H1250 C1226 0.950 . S
H1251 C1227 0.949 . S
H1252 C1229 0.950 . S
H1253 C1231 0.950 . S
C1254 C1255 1.349 . S
C1254 C1256 1.327 . S
C1254 H1279 0.950 . S
C1255 C1254 1.349 . S
C1255 C1271 1.349 . S
C1256 C1254 1.327 . S
C1256 C1275 1.429 . S
C1256 H1280 0.950 . S
C1257 C1274 1.574 . S
C1257 C1276 1.368 . S
C1257 H1281 0.949 . S
H1258 C1262 0.949 . S
C1259 C1260 1.349 . S
C1259 C1261 1.327 . S
C1259 H1282 0.950 . S
C1260 C1259 1.349 . S
C1260 C1272 1.349 . S
C1261 C1259 1.327 . S
C1261 C1277 1.429 . S
C1261 H1283 0.950 . S
C1262 H1258 0.949 . S
C1262 C1270 1.574 . S
C1262 C1278 1.368 . S
H1263 C1271 0.950 . S
H1264 C1269 0.950 . S
H1265 C1270 0.949 . S
H1266 C1272 0.950 . S
H1267 C1273 0.950 . S
H1268 C1274 0.949 . S
C1269 H1264 0.950 . S
C1269 C1271 1.327 . S
C1269 C1275 1.429 . S
C1270 C1262 1.574 . S
C1270 H1265 0.949 . S
C1270 C1276 1.368 . S
C1271 C1255 1.349 . S
C1271 H1263 0.950 . S
C1271 C1269 1.327 . S
C1272 C1260 1.349 . S
C1272 H1266 0.950 . S
C1272 C1273 1.327 . S
C1273 H1267 0.950 . S
C1273 C1272 1.327 . S
C1273 C1277 1.429 . S
C1274 C1257 1.574 . S
C1274 H1268 0.949 . S
C1274 C1278 1.368 . S
C1275 C1256 1.429 . S
C1275 C1269 1.429 . S
C1275 C1276 1.523 . S
C1276 C1257 1.368 . S
C1276 C1270 1.368 . S
C1276 C1275 1.523 . S
C1277 C1261 1.429 . S
C1277 C1273 1.429 . S
C1277 C1278 1.523 . S
C1278 C1262 1.368 . S
C1278 C1274 1.368 . S
C1278 C1277 1.523 . S
H1279 C1254 0.950 . S
H1280 C1256 0.950 . S
H1281 C1257 0.949 . S
H1282 C1259 0.950 . S
H1283 C1261 0.950 . S
C1284 C1285 1.349 . S
C1284 C1286 1.327 . S
C1284 H1309 0.950 . S
C1285 C1284 1.349 . S
C1285 C1301 1.349 . S
C1286 C1284 1.327 . S
C1286 C1305 1.429 . S
C1286 H1310 0.950 . S
C1287 C1304 1.574 . S
C1287 C1306 1.368 . S
C1287 H1311 0.949 . S
H1288 C1292 0.949 . S
C1289 C1290 1.349 . S
C1289 C1291 1.327 . S
C1289 H1312 0.950 . S
C1290 C1289 1.349 . S
C1290 C1302 1.349 . S
C1291 C1289 1.327 . S
C1291 C1307 1.429 . S
C1291 H1313 0.950 . S
C1292 H1288 0.949 . S
C1292 C1300 1.574 . S
C1292 C1308 1.368 . S
H1293 C1301 0.950 . S
H1294 C1299 0.950 . S
H1295 C1300 0.949 . S
H1296 C1302 0.950 . S
H1297 C1303 0.950 . S
H1298 C1304 0.949 . S
C1299 H1294 0.950 . S
C1299 C1301 1.327 . S
C1299 C1305 1.429 . S
C1300 C1292 1.574 . S
C1300 H1295 0.949 . S
C1300 C1306 1.368 . S
C1301 C1285 1.349 . S
C1301 H1293 0.950 . S
C1301 C1299 1.327 . S
C1302 C1290 1.349 . S
C1302 H1296 0.950 . S
C1302 C1303 1.327 . S
C1303 H1297 0.950 . S
C1303 C1302 1.327 . S
C1303 C1307 1.429 . S
C1304 C1287 1.574 . S
C1304 H1298 0.949 . S
C1304 C1308 1.368 . S
C1305 C1286 1.429 . S
C1305 C1299 1.429 . S
C1305 C1306 1.523 . S
C1306 C1287 1.368 . S
C1306 C1300 1.368 . S
C1306 C1305 1.523 . S
C1307 C1291 1.429 . S
C1307 C1303 1.429 . S
C1307 C1308 1.523 . S
C1308 C1292 1.368 . S
C1308 C1304 1.368 . S
C1308 C1307 1.523 . S
H1309 C1284 0.950 . S
H1310 C1286 0.950 . S
H1311 C1287 0.949 . S
H1312 C1289 0.950 . S
H1313 C1291 0.950 . S
C1314 C1315 1.349 . S
C1314 C1316 1.327 . S
C1314 H1339 0.950 . S
C1315 C1314 1.349 . S
C1315 C1331 1.349 . S
C1316 C1314 1.327 . S
C1316 C1335 1.429 . S
C1316 H1340 0.950 . S
C1317 C1334 1.574 . S
C1317 C1336 1.368 . S
C1317 H1341 0.949 . S
H1318 C1322 0.949 . S
C1319 C1320 1.349 . S
C1319 C1321 1.327 . S
C1319 H1342 0.950 . S
C1320 C1319 1.349 . S
C1320 C1332 1.349 . S
C1321 C1319 1.327 . S
C1321 C1337 1.429 . S
C1321 H1343 0.950 . S
C1322 H1318 0.949 . S
C1322 C1330 1.574 . S
C1322 C1338 1.368 . S
H1323 C1331 0.950 . S
H1324 C1329 0.950 . S
H1325 C1330 0.949 . S
H1326 C1332 0.950 . S
H1327 C1333 0.950 . S
H1328 C1334 0.949 . S
C1329 H1324 0.950 . S
C1329 C1331 1.327 . S
C1329 C1335 1.429 . S
C1330 C1322 1.574 . S
C1330 H1325 0.949 . S
C1330 C1336 1.368 . S
C1331 C1315 1.349 . S
C1331 H1323 0.950 . S
C1331 C1329 1.327 . S
C1332 C1320 1.349 . S
C1332 H1326 0.950 . S
C1332 C1333 1.327 . S
C1333 H1327 0.950 . S
C1333 C1332 1.327 . S
C1333 C1337 1.429 . S
C1334 C1317 1.574 . S
C1334 H1328 0.949 . S
C1334 C1338 1.368 . S
C1335 C1316 1.429 . S
C1335 C1329 1.429 . S
C1335 C1336 1.523 . S
C1336 C1317 1.368 . S
C1336 C1330 1.368 . S
C1336 C1335 1.523 . S
C1337 C1321 1.429 . S
C1337 C1333 1.429 . S
C1337 C1338 1.523 . S
C1338 C1322 1.368 . S
C1338 C1334 1.368 . S
C1338 C1337 1.523 . S
H1339 C1314 0.950 . S
H1340 C1316 0.950 . S
H1341 C1317 0.949 . S
H1342 C1319 0.950 . S
H1343 C1321 0.950 . S
C1344 C1345 1.349 . S
C1344 C1346 1.327 . S
C1344 H1369 0.950 . S
C1345 C1344 1.349 . S
C1345 C1361 1.349 . S
C1346 C1344 1.327 . S
C1346 C1365 1.429 . S
C1346 H1370 0.950 . S
C1347 C1364 1.574 . S
C1347 C1366 1.368 . S
C1347 H1371 0.949 . S
H1348 C1352 0.949 . S
C1349 C1350 1.349 . S
C1349 C1351 1.327 . S
C1349 H1372 0.950 . S
C1350 C1349 1.349 . S
C1350 C1362 1.349 . S
C1351 C1349 1.327 . S
C1351 C1367 1.429 . S
C1351 H1373 0.950 . S
C1352 H1348 0.949 . S
C1352 C1360 1.574 . S
C1352 C1368 1.368 . S
H1353 C1361 0.950 . S
H1354 C1359 0.950 . S
H1355 C1360 0.949 . S
H1356 C1362 0.950 . S
H1357 C1363 0.950 . S
H1358 C1364 0.949 . S
C1359 H1354 0.950 . S
C1359 C1361 1.327 . S
C1359 C1365 1.429 . S
C1360 C1352 1.574 . S
C1360 H1355 0.949 . S
C1360 C1366 1.368 . S
C1361 C1345 1.349 . S
C1361 H1353 0.950 . S
C1361 C1359 1.327 . S
C1362 C1350 1.349 . S
C1362 H1356 0.950 . S
C1362 C1363 1.327 . S
C1363 H1357 0.950 . S
C1363 C1362 1.327 . S
C1363 C1367 1.429 . S
C1364 C1347 1.574 . S
C1364 H1358 0.949 . S
C1364 C1368 1.368 . S
C1365 C1346 1.429 . S
C1365 C1359 1.429 . S
C1365 C1366 1.523 . S
C1366 C1347 1.368 . S
C1366 C1360 1.368 . S
C1366 C1365 1.523 . S
C1367 C1351 1.429 . S
C1367 C1363 1.429 . S
C1367 C1368 1.523 . S
C1368 C1352 1.368 . S
C1368 C1364 1.368 . S
C1368 C1367 1.523 . S
H1369 C1344 0.950 . S
H1370 C1346 0.950 . S
H1371 C1347 0.949 . S
H1372 C1349 0.950 . S
H1373 C1351 0.950 . S
C1374 C1375 1.349 . S
C1374 C1376 1.327 . S
C1374 H1399 0.950 . S
C1375 C1374 1.349 . S
C1375 C1391 1.349 . S
C1376 C1374 1.327 . S
C1376 C1395 1.429 . S
C1376 H1400 0.950 . S
C1377 C1394 1.574 . S
C1377 C1396 1.368 . S
C1377 H1401 0.949 . S
H1378 C1382 0.949 . S
C1379 C1380 1.349 . S
C1379 C1381 1.327 . S
C1379 H1402 0.950 . S
C1380 C1379 1.349 . S
C1380 C1392 1.349 . S
C1381 C1379 1.327 . S
C1381 C1397 1.429 . S
C1381 H1403 0.950 . S
C1382 H1378 0.949 . S
C1382 C1390 1.574 . S
C1382 C1398 1.368 . S
H1383 C1391 0.950 . S
H1384 C1389 0.950 . S
H1385 C1390 0.949 . S
H1386 C1392 0.950 . S
H1387 C1393 0.950 . S
H1388 C1394 0.949 . S
C1389 H1384 0.950 . S
C1389 C1391 1.327 . S
C1389 C1395 1.429 . S
C1390 C1382 1.574 . S
C1390 H1385 0.949 . S
C1390 C1396 1.368 . S
C1391 C1375 1.349 . S
C1391 H1383 0.950 . S
C1391 C1389 1.327 . S
C1392 C1380 1.349 . S
C1392 H1386 0.950 . S
C1392 C1393 1.327 . S
C1393 H1387 0.950 . S
C1393 C1392 1.327 . S
C1393 C1397 1.429 . S
C1394 C1377 1.574 . S
C1394 H1388 0.949 . S
C1394 C1398 1.368 . S
C1395 C1376 1.429 . S
C1395 C1389 1.429 . S
C1395 C1396 1.523 . S
C1396 C1377 1.368 . S
C1396 C1390 1.368 . S
C1396 C1395 1.523 . S
C1397 C1381 1.429 . S
C1397 C1393 1.429 . S
C1397 C1398 1.523 . S
C1398 C1382 1.368 . S
C1398 C1394 1.368 . S
C1398 C1397 1.523 . S
H1399 C1374 0.950 . S
H1400 C1376 0.950 . S
H1401 C1377 0.949 . S
H1402 C1379 0.950 . S
H1403 C1381 0.950 . S
C1404 C1405 1.349 . S
C1404 C1406 1.327 . S
C1404 H1429 0.950 . S
C1405 C1404 1.349 . S
C1405 C1421 1.349 . S
C1406 C1404 1.327 . S
C1406 C1425 1.429 . S
C1406 H1430 0.950 . S
C1407 C1424 1.574 . S
C1407 C1426 1.368 . S
C1407 H1431 0.949 . S
H1408 C1412 0.949 . S
C1409 C1410 1.349 . S
C1409 C1411 1.327 . S
C1409 H1432 0.950 . S
C1410 C1409 1.349 . S
C1410 C1422 1.349 . S
C1411 C1409 1.327 . S
C1411 C1427 1.429 . S
C1411 H1433 0.950 . S
C1412 H1408 0.949 . S
C1412 C1420 1.574 . S
C1412 C1428 1.368 . S
H1413 C1421 0.950 . S
H1414 C1419 0.950 . S
H1415 C1420 0.949 . S
H1416 C1422 0.950 . S
H1417 C1423 0.950 . S
H1418 C1424 0.949 . S
C1419 H1414 0.950 . S
C1419 C1421 1.327 . S
C1419 C1425 1.429 . S
C1420 C1412 1.574 . S
C1420 H1415 0.949 . S
C1420 C1426 1.368 . S
C1421 C1405 1.349 . S
C1421 H1413 0.950 . S
C1421 C1419 1.327 . S
C1422 C1410 1.349 . S
C1422 H1416 0.950 . S
C1422 C1423 1.327 . S
C1423 H1417 0.950 . S
C1423 C1422 1.327 . S
C1423 C1427 1.429 . S
C1424 C1407 1.574 . S
C1424 H1418 0.949 . S
C1424 C1428 1.368 . S
C1425 C1406 1.429 . S
C1425 C1419 1.429 . S
C1425 C1426 1.523 . S
C1426 C1407 1.368 . S
C1426 C1420 1.368 . S
C1426 C1425 1.523 . S
C1427 C1411 1.429 . S
C1427 C1423 1.429 . S
C1427 C1428 1.523 . S
C1428 C1412 1.368 . S
C1428 C1424 1.368 . S
C1428 C1427 1.523 . S
H1429 C1404 0.950 . S
H1430 C1406 0.950 . S
H1431 C1407 0.949 . S
H1432 C1409 0.950 . S
H1433 C1411 0.950 . S
C1434 C1435 1.349 . S
C1434 C1436 1.327 . S
C1434 H1459 0.950 . S
C1435 C1434 1.349 . S
C1435 C1451 1.349 . S
C1436 C1434 1.327 . S
C1436 C1455 1.429 . S
C1436 H1460 0.950 . S
C1437 C1454 1.574 . S
C1437 C1456 1.368 . S
C1437 H1461 0.949 . S
H1438 C1442 0.949 . S
C1439 C1440 1.349 . S
C1439 C1441 1.327 . S
C1439 H1462 0.950 . S
C1440 C1439 1.349 . S
C1440 C1452 1.349 . S
C1441 C1439 1.327 . S
C1441 C1457 1.429 . S
C1441 H1463 0.950 . S
C1442 H1438 0.949 . S
C1442 C1450 1.574 . S
C1442 C1458 1.368 . S
H1443 C1451 0.950 . S
H1444 C1449 0.950 . S
H1445 C1450 0.949 . S
H1446 C1452 0.950 . S
H1447 C1453 0.950 . S
H1448 C1454 0.949 . S
C1449 H1444 0.950 . S
C1449 C1451 1.327 . S
C1449 C1455 1.429 . S
C1450 C1442 1.574 . S
C1450 H1445 0.949 . S
C1450 C1456 1.368 . S
C1451 C1435 1.349 . S
C1451 H1443 0.950 . S
C1451 C1449 1.327 . S
C1452 C1440 1.349 . S
C1452 H1446 0.950 . S
C1452 C1453 1.327 . S
C1453 H1447 0.950 . S
C1453 C1452 1.327 . S
C1453 C1457 1.429 . S
C1454 C1437 1.574 . S
C1454 H1448 0.949 . S
C1454 C1458 1.368 . S
C1455 C1436 1.429 . S
C1455 C1449 1.429 . S
C1455 C1456 1.523 . S
C1456 C1437 1.368 . S
C1456 C1450 1.368 . S
C1456 C1455 1.523 . S
C1457 C1441 1.429 . S
C1457 C1453 1.429 . S
C1457 C1458 1.523 . S
C1458 C1442 1.368 . S
C1458 C1454 1.368 . S
C1458 C1457 1.523 . S
H1459 C1434 0.950 . S
H1460 C1436 0.950 . S
H1461 C1437 0.949 . S
H1462 C1439 0.950 . S
H1463 C1441 0.950 . S
C1464 C1465 1.349 . S
C1464 C1466 1.327 . S
C1464 H1489 0.950 . S
C1465 C1464 1.349 . S
C1465 C1481 1.349 . S
C1466 C1464 1.327 . S
C1466 C1485 1.429 . S
C1466 H1490 0.950 . S
C1467 C1484 1.574 . S
C1467 C1486 1.368 . S
C1467 H1491 0.949 . S
H1468 C1472 0.949 . S
C1469 C1470 1.349 . S
C1469 C1471 1.327 . S
C1469 H1492 0.950 . S
C1470 C1469 1.349 . S
C1470 C1482 1.349 . S
C1471 C1469 1.327 . S
C1471 C1487 1.429 . S
C1471 H1493 0.950 . S
C1472 H1468 0.949 . S
C1472 C1480 1.574 . S
C1472 C1488 1.368 . S
H1473 C1481 0.950 . S
H1474 C1479 0.950 . S
H1475 C1480 0.949 . S
H1476 C1482 0.950 . S
H1477 C1483 0.950 . S
H1478 C1484 0.949 . S
C1479 H1474 0.950 . S
C1479 C1481 1.327 . S
C1479 C1485 1.429 . S
C1480 C1472 1.574 . S
C1480 H1475 0.949 . S
C1480 C1486 1.368 . S
C1481 C1465 1.349 . S
C1481 H1473 0.950 . S
C1481 C1479 1.327 . S
C1482 C1470 1.349 . S
C1482 H1476 0.950 . S
C1482 C1483 1.327 . S
C1483 H1477 0.950 . S
C1483 C1482 1.327 . S
C1483 C1487 1.429 . S
C1484 C1467 1.574 . S
C1484 H1478 0.949 . S
C1484 C1488 1.368 . S
C1485 C1466 1.429 . S
C1485 C1479 1.429 . S
C1485 C1486 1.523 . S
C1486 C1467 1.368 . S
C1486 C1480 1.368 . S
C1486 C1485 1.523 . S
C1487 C1471 1.429 . S
C1487 C1483 1.429 . S
C1487 C1488 1.523 . S
C1488 C1472 1.368 . S
C1488 C1484 1.368 . S
C1488 C1487 1.523 . S
H1489 C1464 0.950 . S
H1490 C1466 0.950 . S
H1491 C1467 0.949 . S
H1492 C1469 0.950 . S
H1493 C1471 0.950 . S
C1494 C1495 1.349 . S
C1494 C1496 1.327 . S
C1494 H1519 0.950 . S
C1495 C1494 1.349 . S
C1495 C1511 1.349 . S
C1496 C1494 1.327 . S
C1496 C1515 1.429 . S
C1496 H1520 0.950 . S
C1497 C1514 1.574 . S
C1497 C1516 1.368 . S
C1497 H1521 0.949 . S
H1498 C1502 0.949 . S
C1499 C1500 1.349 . S
C1499 C1501 1.327 1_556 S
C1499 H1522 0.950 . S
C1500 C1499 1.349 . S
C1500 C1512 1.349 . S
C1501 C1499 1.327 1_554 S
C1501 C1517 1.429 . S
C1501 H1523 0.950 . S
C1502 H1498 0.949 . S
C1502 C1510 1.574 . S
C1502 C1518 1.368 . S
H1503 C1511 0.950 . S
H1504 C1509 0.950 . S
H1505 C1510 0.949 . S
H1506 C1512 0.950 . S
H1507 C1513 0.950 . S
H1508 C1514 0.949 . S
C1509 H1504 0.950 . S
C1509 C1511 1.327 . S
C1509 C1515 1.429 . S
C1510 C1502 1.574 . S
C1510 H1505 0.949 . S
C1510 C1516 1.368 . S
C1511 C1495 1.349 . S
C1511 H1503 0.950 . S
C1511 C1509 1.327 . S
C1512 C1500 1.349 . S
C1512 H1506 0.950 . S
C1512 C1513 1.327 1_556 S
C1513 H1507 0.950 . S
C1513 C1512 1.327 1_554 S
C1513 C1517 1.429 . S
C1514 C1497 1.574 . S
C1514 H1508 0.949 . S
C1514 C1518 1.368 . S
C1515 C1496 1.429 . S
C1515 C1509 1.429 . S
C1515 C1516 1.523 . S
C1516 C1497 1.368 . S
C1516 C1510 1.368 . S
C1516 C1515 1.523 . S
C1517 C1501 1.429 . S
C1517 C1513 1.429 . S
C1517 C1518 1.523 . S
C1518 C1502 1.368 . S
C1518 C1514 1.368 . S
C1518 C1517 1.523 . S
H1519 C1494 0.950 . S
H1520 C1496 0.950 . S
H1521 C1497 0.949 . S
H1522 C1499 0.950 . S
H1523 C1501 0.950 . S
C1524 C1525 1.349 . S
C1524 C1526 1.327 1_556 S
C1524 H1549 0.950 . S
C1525 C1524 1.349 . S
C1525 C1541 1.349 . S
C1526 C1524 1.327 1_554 S
C1526 C1545 1.429 . S
C1526 H1550 0.950 . S
C1527 C1544 1.574 . S
C1527 C1546 1.368 . S
C1527 H1551 0.949 . S
H1528 C1532 0.949 . S
C1529 C1530 1.349 . S
C1529 C1531 1.327 . S
C1529 H1552 0.950 . S
C1530 C1529 1.349 . S
C1530 C1542 1.349 . S
C1531 C1529 1.327 . S
C1531 C1547 1.429 . S
C1531 H1553 0.950 . S
C1532 H1528 0.949 . S
C1532 C1540 1.574 . S
C1532 C1548 1.368 . S
H1533 C1541 0.950 . S
H1534 C1539 0.950 . S
H1535 C1540 0.949 . S
H1536 C1542 0.950 . S
H1537 C1543 0.950 . S
H1538 C1544 0.949 . S
C1539 H1534 0.950 . S
C1539 C1541 1.327 1_554 S
C1539 C1545 1.429 . S
C1540 C1532 1.574 . S
C1540 H1535 0.949 . S
C1540 C1546 1.368 . S
C1541 C1525 1.349 . S
C1541 H1533 0.950 . S
C1541 C1539 1.327 1_556 S
C1542 C1530 1.349 . S
C1542 H1536 0.950 . S
C1542 C1543 1.327 . S
C1543 H1537 0.950 . S
C1543 C1542 1.327 . S
C1543 C1547 1.429 . S
C1544 C1527 1.574 . S
C1544 H1538 0.949 . S
C1544 C1548 1.368 . S
C1545 C1526 1.429 . S
C1545 C1539 1.429 . S
C1545 C1546 1.523 . S
C1546 C1527 1.368 . S
C1546 C1540 1.368 . S
C1546 C1545 1.523 . S
C1547 C1531 1.429 . S
C1547 C1543 1.429 . S
C1547 C1548 1.523 . S
C1548 C1532 1.368 . S
C1548 C1544 1.368 . S
C1548 C1547 1.523 . S
H1549 C1524 0.950 . S
H1550 C1526 0.950 . S
H1551 C1527 0.949 . S
H1552 C1529 0.950 . S
H1553 C1531 0.950 . S
C1554 C1555 1.349 . S
C1554 C1556 1.327 . S
C1554 H1579 0.950 . S
C1555 C1554 1.349 . S
C1555 C1571 1.349 . S
C1556 C1554 1.327 . S
C1556 C1575 1.429 . S
C1556 H1580 0.950 . S
C1557 C1574 1.574 . S
C1557 C1576 1.368 . S
C1557 H1581 0.949 . S
H1558 C1562 0.949 . S
C1559 C1560 1.349 . S
C1559 C1561 1.327 1_556 S
C1559 H1582 0.950 . S
C1560 C1559 1.349 . S
C1560 C1572 1.349 . S
C1561 C1559 1.327 1_554 S
C1561 C1577 1.429 . S
C1561 H1583 0.950 . S
C1562 H1558 0.949 . S
C1562 C1570 1.574 . S
C1562 C1578 1.368 . S
H1563 C1571 0.950 . S
H1564 C1569 0.950 . S
H1565 C1570 0.949 . S
H1566 C1572 0.950 . S
H1567 C1573 0.950 . S
H1568 C1574 0.949 . S
C1569 H1564 0.950 . S
C1569 C1571 1.327 . S
C1569 C1575 1.429 . S
C1570 C1562 1.574 . S
C1570 H1565 0.949 . S
C1570 C1576 1.368 . S
C1571 C1555 1.349 . S
C1571 H1563 0.950 . S
C1571 C1569 1.327 . S
C1572 C1560 1.349 . S
C1572 H1566 0.950 . S
C1572 C1573 1.327 1_556 S
C1573 H1567 0.950 . S
C1573 C1572 1.327 1_554 S
C1573 C1577 1.429 . S
C1574 C1557 1.574 . S
C1574 H1568 0.949 . S
C1574 C1578 1.368 . S
C1575 C1556 1.429 . S
C1575 C1569 1.429 . S
C1575 C1576 1.523 . S
C1576 C1557 1.368 . S
C1576 C1570 1.368 . S
C1576 C1575 1.523 . S
C1577 C1561 1.429 . S
C1577 C1573 1.429 . S
C1577 C1578 1.523 . S
C1578 C1562 1.368 . S
C1578 C1574 1.368 . S
C1578 C1577 1.523 . S
H1579 C1554 0.950 . S
H1580 C1556 0.950 . S
H1581 C1557 0.949 . S
H1582 C1559 0.950 . S
H1583 C1561 0.950 . S
C1584 C1585 1.349 . S
C1584 C1586 1.327 . S
C1584 H1609 0.950 . S
C1585 C1584 1.349 . S
C1585 C1601 1.349 . S
C1586 C1584 1.327 . S
C1586 C1605 1.429 . S
C1586 H1610 0.950 . S
C1587 C1604 1.574 . S
C1587 C1606 1.368 . S
C1587 H1611 0.949 . S
H1588 C1592 0.949 . S
C1589 C1590 1.349 . S
C1589 C1591 1.327 . S
C1589 H1612 0.950 . S
C1590 C1589 1.349 . S
C1590 C1602 1.349 . S
C1591 C1589 1.327 . S
C1591 C1607 1.429 . S
C1591 H1613 0.950 . S
C1592 H1588 0.949 . S
C1592 C1600 1.574 . S
C1592 C1608 1.368 . S
H1593 C1601 0.950 . S
H1594 C1599 0.950 . S
H1595 C1600 0.949 . S
H1596 C1602 0.950 . S
H1597 C1603 0.950 . S
H1598 C1604 0.949 . S
C1599 H1594 0.950 . S
C1599 C1601 1.327 . S
C1599 C1605 1.429 . S
C1600 C1592 1.574 . S
C1600 H1595 0.949 . S
C1600 C1606 1.368 . S
C1601 C1585 1.349 . S
C1601 H1593 0.950 . S
C1601 C1599 1.327 . S
C1602 C1590 1.349 . S
C1602 H1596 0.950 . S
C1602 C1603 1.327 . S
C1603 H1597 0.950 . S
C1603 C1602 1.327 . S
C1603 C1607 1.429 . S
C1604 C1587 1.574 . S
C1604 H1598 0.949 . S
C1604 C1608 1.368 . S
C1605 C1586 1.429 . S
C1605 C1599 1.429 . S
C1605 C1606 1.523 . S
C1606 C1587 1.368 . S
C1606 C1600 1.368 . S
C1606 C1605 1.523 . S
C1607 C1591 1.429 . S
C1607 C1603 1.429 . S
C1607 C1608 1.523 . S
C1608 C1592 1.368 . S
C1608 C1604 1.368 . S
C1608 C1607 1.523 . S
H1609 C1584 0.950 . S
H1610 C1586 0.950 . S
H1611 C1587 0.949 . S
H1612 C1589 0.950 . S
H1613 C1591 0.950 . S
C1614 C1615 1.349 . S
C1614 C1616 1.327 . S
C1614 H1639 0.950 . S
C1615 C1614 1.349 . S
C1615 C1631 1.349 . S
C1616 C1614 1.327 . S
C1616 C1635 1.429 . S
C1616 H1640 0.950 . S
C1617 C1634 1.574 1_565 S
C1617 C1636 1.368 . S
C1617 H1641 0.949 . S
H1618 C1622 0.949 . S
C1619 C1620 1.349 . S
C1619 C1621 1.327 . S
C1619 H1642 0.950 . S
C1620 C1619 1.349 . S
C1620 C1632 1.349 . S
C1621 C1619 1.327 . S
C1621 C1637 1.429 . S
C1621 H1643 0.950 . S
C1622 H1618 0.949 . S
C1622 C1630 1.574 1_545 S
C1622 C1638 1.368 . S
H1623 C1631 0.950 . S
H1624 C1629 0.950 . S
H1625 C1630 0.949 . S
H1626 C1632 0.950 . S
H1627 C1633 0.950 . S
H1628 C1634 0.949 . S
C1629 H1624 0.950 . S
C1629 C1631 1.327 . S
C1629 C1635 1.429 . S
C1630 C1622 1.574 1_565 S
C1630 H1625 0.949 . S
C1630 C1636 1.368 . S
C1631 C1615 1.349 . S
C1631 H1623 0.950 . S
C1631 C1629 1.327 . S
C1632 C1620 1.349 . S
C1632 H1626 0.950 . S
C1632 C1633 1.327 . S
C1633 H1627 0.950 . S
C1633 C1632 1.327 . S
C1633 C1637 1.429 . S
C1634 C1617 1.574 1_545 S
C1634 H1628 0.949 . S
C1634 C1638 1.368 . S
C1635 C1616 1.429 . S
C1635 C1629 1.429 . S
C1635 C1636 1.523 . S
C1636 C1617 1.368 . S
C1636 C1630 1.368 . S
C1636 C1635 1.523 . S
C1637 C1621 1.429 . S
C1637 C1633 1.429 . S
C1637 C1638 1.523 . S
C1638 C1622 1.368 . S
C1638 C1634 1.368 . S
C1638 C1637 1.523 . S
H1639 C1614 0.950 . S
H1640 C1616 0.950 . S
H1641 C1617 0.949 . S
H1642 C1619 0.950 . S
H1643 C1621 0.950 . S
C1644 C1645 1.349 . S
C1644 C1646 1.327 . S
C1644 H1669 0.950 . S
C1645 C1644 1.349 . S
C1645 C1661 1.349 . S
C1646 C1644 1.327 . S
C1646 C1665 1.429 . S
C1646 H1670 0.950 . S
C1647 C1664 1.574 1_655 S
C1647 C1666 1.368 . S
C1647 H1671 0.949 . S
H1648 C1652 0.949 . S
C1649 C1650 1.349 . S
C1649 C1651 1.327 . S
C1649 H1672 0.950 . S
C1650 C1649 1.349 . S
C1650 C1662 1.349 . S
C1651 C1649 1.327 . S
C1651 C1667 1.429 . S
C1651 H1673 0.950 . S
C1652 H1648 0.949 . S
C1652 C1660 1.574 1_455 S
C1652 C1668 1.368 . S
H1653 C1661 0.950 . S
H1654 C1659 0.950 . S
H1655 C1660 0.949 . S
H1656 C1662 0.950 . S
H1657 C1663 0.950 . S
H1658 C1664 0.949 . S
C1659 H1654 0.950 . S
C1659 C1661 1.327 . S
C1659 C1665 1.429 . S
C1660 C1652 1.574 1_655 S
C1660 H1655 0.949 . S
C1660 C1666 1.368 . S
C1661 C1645 1.349 . S
C1661 H1653 0.950 . S
C1661 C1659 1.327 . S
C1662 C1650 1.349 . S
C1662 H1656 0.950 . S
C1662 C1663 1.327 . S
C1663 H1657 0.950 . S
C1663 C1662 1.327 . S
C1663 C1667 1.429 . S
C1664 C1647 1.574 1_455 S
C1664 H1658 0.949 . S
C1664 C1668 1.368 . S
C1665 C1646 1.429 . S
C1665 C1659 1.429 . S
C1665 C1666 1.523 . S
C1666 C1647 1.368 . S
C1666 C1660 1.368 . S
C1666 C1665 1.523 . S
C1667 C1651 1.429 . S
C1667 C1663 1.429 . S
C1667 C1668 1.523 . S
C1668 C1652 1.368 . S
C1668 C1664 1.368 . S
C1668 C1667 1.523 . S
H1669 C1644 0.950 . S
H1670 C1646 0.950 . S
H1671 C1647 0.949 . S
H1672 C1649 0.950 . S
H1673 C1651 0.950 . S
C1674 C1675 1.349 . S
C1674 C1676 1.327 . S
C1674 H1699 0.950 . S
C1675 C1674 1.349 . S
C1675 C1691 1.349 . S
C1676 C1674 1.327 . S
C1676 C1695 1.429 . S
C1676 H1700 0.950 . S
C1677 C1694 1.574 . S
C1677 C1696 1.368 . S
C1677 H1701 0.949 . S
H1678 C1682 0.949 . S
C1679 C1680 1.349 . S
C1679 C1681 1.327 . S
C1679 H1702 0.950 . S
C1680 C1679 1.349 . S
C1680 C1692 1.349 . S
C1681 C1679 1.327 . S
C1681 C1697 1.429 . S
C1681 H1703 0.950 . S
C1682 H1678 0.949 . S
C1682 C1690 1.574 . S
C1682 C1698 1.368 . S
H1683 C1691 0.950 . S
H1684 C1689 0.950 . S
H1685 C1690 0.949 . S
H1686 C1692 0.950 . S
H1687 C1693 0.950 . S
H1688 C1694 0.949 . S
C1689 H1684 0.950 . S
C1689 C1691 1.327 . S
C1689 C1695 1.429 . S
C1690 C1682 1.574 . S
C1690 H1685 0.949 . S
C1690 C1696 1.368 . S
C1691 C1675 1.349 . S
C1691 H1683 0.950 . S
C1691 C1689 1.327 . S
C1692 C1680 1.349 . S
C1692 H1686 0.950 . S
C1692 C1693 1.327 . S
C1693 H1687 0.950 . S
C1693 C1692 1.327 . S
C1693 C1697 1.429 . S
C1694 C1677 1.574 . S
C1694 H1688 0.949 . S
C1694 C1698 1.368 . S
C1695 C1676 1.429 . S
C1695 C1689 1.429 . S
C1695 C1696 1.523 . S
C1696 C1677 1.368 . S
C1696 C1690 1.368 . S
C1696 C1695 1.523 . S
C1697 C1681 1.429 . S
C1697 C1693 1.429 . S
C1697 C1698 1.523 . S
C1698 C1682 1.368 . S
C1698 C1694 1.368 . S
C1698 C1697 1.523 . S
H1699 C1674 0.950 . S
H1700 C1676 0.950 . S
H1701 C1677 0.949 . S
H1702 C1679 0.950 . S
H1703 C1681 0.950 . S
C1704 C1705 1.349 . S
C1704 C1706 1.327 . S
C1704 H1729 0.950 . S
C1705 C1704 1.349 . S
C1705 C1721 1.349 . S
C1706 C1704 1.327 . S
C1706 C1725 1.429 . S
C1706 H1730 0.950 . S
C1707 C1724 1.574 1_545 S
C1707 C1726 1.368 . S
C1707 H1731 0.949 . S
H1708 C1712 0.949 . S
C1709 C1710 1.349 . S
C1709 C1711 1.327 . S
C1709 H1732 0.950 . S
C1710 C1709 1.349 . S
C1710 C1722 1.349 . S
C1711 C1709 1.327 . S
C1711 C1727 1.429 . S
C1711 H1733 0.950 . S
C1712 H1708 0.949 . S
C1712 C1720 1.574 1_565 S
C1712 C1728 1.368 . S
H1713 C1721 0.950 . S
H1714 C1719 0.950 . S
H1715 C1720 0.949 . S
H1716 C1722 0.950 . S
H1717 C1723 0.950 . S
H1718 C1724 0.949 . S
C1719 H1714 0.950 . S
C1719 C1721 1.327 . S
C1719 C1725 1.429 . S
C1720 C1712 1.574 1_545 S
C1720 H1715 0.949 . S
C1720 C1726 1.368 . S
C1721 C1705 1.349 . S
C1721 H1713 0.950 . S
C1721 C1719 1.327 . S
C1722 C1710 1.349 . S
C1722 H1716 0.950 . S
C1722 C1723 1.327 . S
C1723 H1717 0.950 . S
C1723 C1722 1.327 . S
C1723 C1727 1.429 . S
C1724 C1707 1.574 1_565 S
C1724 H1718 0.949 . S
C1724 C1728 1.368 . S
C1725 C1706 1.429 . S
C1725 C1719 1.429 . S
C1725 C1726 1.523 . S
C1726 C1707 1.368 . S
C1726 C1720 1.368 . S
C1726 C1725 1.523 . S
C1727 C1711 1.429 . S
C1727 C1723 1.429 . S
C1727 C1728 1.523 . S
C1728 C1712 1.368 . S
C1728 C1724 1.368 . S
C1728 C1727 1.523 . S
H1729 C1704 0.950 . S
H1730 C1706 0.950 . S
H1731 C1707 0.949 . S
H1732 C1709 0.950 . S
H1733 C1711 0.950 . S
C1734 C1735 1.349 . S
C1734 C1736 1.327 . S
C1734 H1759 0.950 . S
C1735 C1734 1.349 . S
C1735 C1751 1.349 . S
C1736 C1734 1.327 . S
C1736 C1755 1.429 . S
C1736 H1760 0.950 . S
C1737 C1754 1.574 1_655 S
C1737 C1756 1.368 . S
C1737 H1761 0.949 . S
H1738 C1742 0.949 . S
C1739 C1740 1.349 . S
C1739 C1741 1.327 . S
C1739 H1762 0.950 . S
C1740 C1739 1.349 . S
C1740 C1752 1.349 . S
C1741 C1739 1.327 . S
C1741 C1757 1.429 . S
C1741 H1763 0.950 . S
C1742 H1738 0.949 . S
C1742 C1750 1.574 1_455 S
C1742 C1758 1.368 . S
H1743 C1751 0.950 . S
H1744 C1749 0.950 . S
H1745 C1750 0.949 . S
H1746 C1752 0.950 . S
H1747 C1753 0.950 . S
H1748 C1754 0.949 . S
C1749 H1744 0.950 . S
C1749 C1751 1.327 . S
C1749 C1755 1.429 . S
C1750 C1742 1.574 1_655 S
C1750 H1745 0.949 . S
C1750 C1756 1.368 . S
C1751 C1735 1.349 . S
C1751 H1743 0.950 . S
C1751 C1749 1.327 . S
C1752 C1740 1.349 . S
C1752 H1746 0.950 . S
C1752 C1753 1.327 . S
C1753 H1747 0.950 . S
C1753 C1752 1.327 . S
C1753 C1757 1.429 . S
C1754 C1737 1.574 1_455 S
C1754 H1748 0.949 . S
C1754 C1758 1.368 . S
C1755 C1736 1.429 . S
C1755 C1749 1.429 . S
C1755 C1756 1.523 . S
C1756 C1737 1.368 . S
C1756 C1750 1.368 . S
C1756 C1755 1.523 . S
C1757 C1741 1.429 . S
C1757 C1753 1.429 . S
C1757 C1758 1.523 . S
C1758 C1742 1.368 . S
C1758 C1754 1.368 . S
C1758 C1757 1.523 . S
H1759 C1734 0.950 . S
H1760 C1736 0.950 . S
H1761 C1737 0.949 . S
H1762 C1739 0.950 . S
H1763 C1741 0.950 . S
C1764 C1765 1.349 . S
C1764 C1766 1.327 . S
C1764 H1789 0.950 . S
C1765 C1764 1.349 . S
C1765 C1781 1.349 . S
C1766 C1764 1.327 . S
C1766 C1785 1.429 . S
C1766 H1790 0.950 . S
C1767 C1784 1.574 . S
C1767 C1786 1.368 . S
C1767 H1791 0.949 . S
H1768 C1772 0.949 . S
C1769 C1770 1.349 . S
C1769 C1771 1.327 . S
C1769 H1792 0.950 . S
C1770 C1769 1.349 . S
C1770 C1782 1.349 . S
C1771 C1769 1.327 . S
C1771 C1787 1.429 . S
C1771 H1793 0.950 . S
C1772 H1768 0.949 . S
C1772 C1780 1.574 . S
C1772 C1788 1.368 . S
H1773 C1781 0.950 . S
H1774 C1779 0.950 . S
H1775 C1780 0.949 . S
H1776 C1782 0.950 . S
H1777 C1783 0.950 . S
H1778 C1784 0.949 . S
C1779 H1774 0.950 . S
C1779 C1781 1.327 . S
C1779 C1785 1.429 . S
C1780 C1772 1.574 . S
C1780 H1775 0.949 . S
C1780 C1786 1.368 . S
C1781 C1765 1.349 . S
C1781 H1773 0.950 . S
C1781 C1779 1.327 . S
C1782 C1770 1.349 . S
C1782 H1776 0.950 . S
C1782 C1783 1.327 . S
C1783 H1777 0.950 . S
C1783 C1782 1.327 . S
C1783 C1787 1.429 . S
C1784 C1767 1.574 . S
C1784 H1778 0.949 . S
C1784 C1788 1.368 . S
C1785 C1766 1.429 . S
C1785 C1779 1.429 . S
C1785 C1786 1.523 . S
C1786 C1767 1.368 . S
C1786 C1780 1.368 . S
C1786 C1785 1.523 . S
C1787 C1771 1.429 . S
C1787 C1783 1.429 . S
C1787 C1788 1.523 . S
C1788 C1772 1.368 . S
C1788 C1784 1.368 . S
C1788 C1787 1.523 . S
H1789 C1764 0.950 . S
H1790 C1766 0.950 . S
H1791 C1767 0.949 . S
H1792 C1769 0.950 . S
H1793 C1771 0.950 . S
C1794 C1795 1.349 . S
C1794 C1796 1.327 . S
C1794 H1819 0.950 . S
C1795 C1794 1.349 . S
C1795 C1811 1.349 . S
C1796 C1794 1.327 . S
C1796 C1815 1.429 . S
C1796 H1820 0.950 . S
C1797 C1814 1.574 . S
C1797 C1816 1.368 . S
C1797 H1821 0.949 . S
H1798 C1802 0.949 . S
C1799 C1800 1.349 . S
C1799 C1801 1.327 . S
C1799 H1822 0.950 . S
C1800 C1799 1.349 . S
C1800 C1812 1.349 . S
C1801 C1799 1.327 . S
C1801 C1817 1.429 . S
C1801 H1823 0.950 . S
C1802 H1798 0.949 . S
C1802 C1810 1.574 . S
C1802 C1818 1.368 . S
H1803 C1811 0.950 . S
H1804 C1809 0.950 . S
H1805 C1810 0.949 . S
H1806 C1812 0.950 . S
H1807 C1813 0.950 . S
H1808 C1814 0.949 . S
C1809 H1804 0.950 . S
C1809 C1811 1.327 . S
C1809 C1815 1.429 . S
C1810 C1802 1.574 . S
C1810 H1805 0.949 . S
C1810 C1816 1.368 . S
C1811 C1795 1.349 . S
C1811 H1803 0.950 . S
C1811 C1809 1.327 . S
C1812 C1800 1.349 . S
C1812 H1806 0.950 . S
C1812 C1813 1.327 . S
C1813 H1807 0.950 . S
C1813 C1812 1.327 . S
C1813 C1817 1.429 . S
C1814 C1797 1.574 . S
C1814 H1808 0.949 . S
C1814 C1818 1.368 . S
C1815 C1796 1.429 . S
C1815 C1809 1.429 . S
C1815 C1816 1.523 . S
C1816 C1797 1.368 . S
C1816 C1810 1.368 . S
C1816 C1815 1.523 . S
C1817 C1801 1.429 . S
C1817 C1813 1.429 . S
C1817 C1818 1.523 . S
C1818 C1802 1.368 . S
C1818 C1814 1.368 . S
C1818 C1817 1.523 . S
H1819 C1794 0.950 . S
H1820 C1796 0.950 . S
H1821 C1797 0.949 . S
H1822 C1799 0.950 . S
H1823 C1801 0.950 . S
C1824 C1825 1.349 . S
C1824 C1826 1.327 . S
C1824 H1849 0.950 . S
C1825 C1824 1.349 . S
C1825 C1841 1.349 . S
C1826 C1824 1.327 . S
C1826 C1845 1.429 . S
C1826 H1850 0.950 . S
C1827 C1844 1.574 . S
C1827 C1846 1.368 . S
C1827 H1851 0.949 . S
H1828 C1832 0.949 . S
C1829 C1830 1.349 . S
C1829 C1831 1.327 . S
C1829 H1852 0.950 . S
C1830 C1829 1.349 . S
C1830 C1842 1.349 . S
C1831 C1829 1.327 . S
C1831 C1847 1.429 . S
C1831 H1853 0.950 . S
C1832 H1828 0.949 . S
C1832 C1840 1.574 . S
C1832 C1848 1.368 . S
H1833 C1841 0.950 . S
H1834 C1839 0.950 . S
H1835 C1840 0.949 . S
H1836 C1842 0.950 . S
H1837 C1843 0.950 . S
H1838 C1844 0.949 . S
C1839 H1834 0.950 . S
C1839 C1841 1.327 . S
C1839 C1845 1.429 . S
C1840 C1832 1.574 . S
C1840 H1835 0.949 . S
C1840 C1846 1.368 . S
C1841 C1825 1.349 . S
C1841 H1833 0.950 . S
C1841 C1839 1.327 . S
C1842 C1830 1.349 . S
C1842 H1836 0.950 . S
C1842 C1843 1.327 . S
C1843 H1837 0.950 . S
C1843 C1842 1.327 . S
C1843 C1847 1.429 . S
C1844 C1827 1.574 . S
C1844 H1838 0.949 . S
C1844 C1848 1.368 . S
C1845 C1826 1.429 . S
C1845 C1839 1.429 . S
C1845 C1846 1.523 . S
C1846 C1827 1.368 . S
C1846 C1840 1.368 . S
C1846 C1845 1.523 . S
C1847 C1831 1.429 . S
C1847 C1843 1.429 . S
C1847 C1848 1.523 . S
C1848 C1832 1.368 . S
C1848 C1844 1.368 . S
C1848 C1847 1.523 . S
H1849 C1824 0.950 . S
H1850 C1826 0.950 . S
H1851 C1827 0.949 . S
H1852 C1829 0.950 . S
H1853 C1831 0.950 . S
C1854 C1855 1.349 . S
C1854 C1856 1.327 . S
C1854 H1879 0.950 . S
C1855 C1854 1.349 . S
C1855 C1871 1.349 . S
C1856 C1854 1.327 . S
C1856 C1875 1.429 . S
C1856 H1880 0.950 . S
C1857 C1874 1.574 . S
C1857 C1876 1.368 . S
C1857 H1881 0.949 . S
H1858 C1862 0.949 . S
C1859 C1860 1.349 . S
C1859 C1861 1.327 . S
C1859 H1882 0.950 . S
C1860 C1859 1.349 . S
C1860 C1872 1.349 . S
C1861 C1859 1.327 . S
C1861 C1877 1.429 . S
C1861 H1883 0.950 . S
C1862 H1858 0.949 . S
C1862 C1870 1.574 . S
C1862 C1878 1.368 . S
H1863 C1871 0.950 . S
H1864 C1869 0.950 . S
H1865 C1870 0.949 . S
H1866 C1872 0.950 . S
H1867 C1873 0.950 . S
H1868 C1874 0.949 . S
C1869 H1864 0.950 . S
C1869 C1871 1.327 . S
C1869 C1875 1.429 . S
C1870 C1862 1.574 . S
C1870 H1865 0.949 . S
C1870 C1876 1.368 . S
C1871 C1855 1.349 . S
C1871 H1863 0.950 . S
C1871 C1869 1.327 . S
C1872 C1860 1.349 . S
C1872 H1866 0.950 . S
C1872 C1873 1.327 . S
C1873 H1867 0.950 . S
C1873 C1872 1.327 . S
C1873 C1877 1.429 . S
C1874 C1857 1.574 . S
C1874 H1868 0.949 . S
C1874 C1878 1.368 . S
C1875 C1856 1.429 . S
C1875 C1869 1.429 . S
C1875 C1876 1.523 . S
C1876 C1857 1.368 . S
C1876 C1870 1.368 . S
C1876 C1875 1.523 . S
C1877 C1861 1.429 . S
C1877 C1873 1.429 . S
C1877 C1878 1.523 . S
C1878 C1862 1.368 . S
C1878 C1874 1.368 . S
C1878 C1877 1.523 . S
H1879 C1854 0.950 . S
H1880 C1856 0.950 . S
H1881 C1857 0.949 . S
H1882 C1859 0.950 . S
H1883 C1861 0.950 . S
C1884 C1885 1.349 . S
C1884 C1886 1.327 . S
C1884 H1909 0.950 . S
C1885 C1884 1.349 . S
C1885 C1901 1.349 . S
C1886 C1884 1.327 . S
C1886 C1905 1.429 . S
C1886 H1910 0.950 . S
C1887 C1904 1.574 . S
C1887 C1906 1.368 . S
C1887 H1911 0.949 . S
H1888 C1892 0.949 . S
C1889 C1890 1.349 . S
C1889 C1891 1.327 . S
C1889 H1912 0.950 . S
C1890 C1889 1.349 . S
C1890 C1902 1.349 . S
C1891 C1889 1.327 . S
C1891 C1907 1.429 . S
C1891 H1913 0.950 . S
C1892 H1888 0.949 . S
C1892 C1900 1.574 . S
C1892 C1908 1.368 . S
H1893 C1901 0.950 . S
H1894 C1899 0.950 . S
H1895 C1900 0.949 . S
H1896 C1902 0.950 . S
H1897 C1903 0.950 . S
H1898 C1904 0.949 . S
C1899 H1894 0.950 . S
C1899 C1901 1.327 . S
C1899 C1905 1.429 . S
C1900 C1892 1.574 . S
C1900 H1895 0.949 . S
C1900 C1906 1.368 . S
C1901 C1885 1.349 . S
C1901 H1893 0.950 . S
C1901 C1899 1.327 . S
C1902 C1890 1.349 . S
C1902 H1896 0.950 . S
C1902 C1903 1.327 . S
C1903 H1897 0.950 . S
C1903 C1902 1.327 . S
C1903 C1907 1.429 . S
C1904 C1887 1.574 . S
C1904 H1898 0.949 . S
C1904 C1908 1.368 . S
C1905 C1886 1.429 . S
C1905 C1899 1.429 . S
C1905 C1906 1.523 . S
C1906 C1887 1.368 . S
C1906 C1900 1.368 . S
C1906 C1905 1.523 . S
C1907 C1891 1.429 . S
C1907 C1903 1.429 . S
C1907 C1908 1.523 . S
C1908 C1892 1.368 . S
C1908 C1904 1.368 . S
C1908 C1907 1.523 . S
H1909 C1884 0.950 . S
H1910 C1886 0.950 . S
H1911 C1887 0.949 . S
H1912 C1889 0.950 . S
H1913 C1891 0.950 . S
C1914 C1915 1.349 . S
C1914 C1916 1.327 . S
C1914 H1939 0.950 . S
C1915 C1914 1.349 . S
C1915 C1931 1.349 . S
C1916 C1914 1.327 . S
C1916 C1935 1.429 . S
C1916 H1940 0.950 . S
C1917 C1934 1.574 . S
C1917 C1936 1.368 . S
C1917 H1941 0.949 . S
H1918 C1922 0.949 . S
C1919 C1920 1.349 . S
C1919 C1921 1.327 . S
C1919 H1942 0.950 . S
C1920 C1919 1.349 . S
C1920 C1932 1.349 . S
C1921 C1919 1.327 . S
C1921 C1937 1.429 . S
C1921 H1943 0.950 . S
C1922 H1918 0.949 . S
C1922 C1930 1.574 . S
C1922 C1938 1.368 . S
H1923 C1931 0.950 . S
H1924 C1929 0.950 . S
H1925 C1930 0.949 . S
H1926 C1932 0.950 1_556 S
H1927 C1933 0.950 . S
H1928 C1934 0.949 . S
C1929 H1924 0.950 . S
C1929 C1931 1.327 . S
C1929 C1935 1.429 . S
C1930 C1922 1.574 . S
C1930 H1925 0.949 . S
C1930 C1936 1.368 . S
C1931 C1915 1.349 . S
C1931 H1923 0.950 . S
C1931 C1929 1.327 . S
C1932 C1920 1.349 . S
C1932 H1926 0.950 1_554 S
C1932 C1933 1.327 . S
C1933 H1927 0.950 . S
C1933 C1932 1.327 . S
C1933 C1937 1.429 . S
C1934 C1917 1.574 . S
C1934 H1928 0.949 . S
C1934 C1938 1.368 . S
C1935 C1916 1.429 . S
C1935 C1929 1.429 . S
C1935 C1936 1.523 . S
C1936 C1917 1.368 . S
C1936 C1930 1.368 . S
C1936 C1935 1.523 . S
C1937 C1921 1.429 . S
C1937 C1933 1.429 . S
C1937 C1938 1.523 . S
C1938 C1922 1.368 . S
C1938 C1934 1.368 . S
C1938 C1937 1.523 . S
H1939 C1914 0.950 . S
H1940 C1916 0.950 . S
H1941 C1917 0.949 . S
H1942 C1919 0.950 . S
H1943 C1921 0.950 . S
C1944 C1945 1.349 . S
C1944 C1946 1.327 . S
C1944 H1969 0.950 . S
C1945 C1944 1.349 . S
C1945 C1961 1.349 . S
C1946 C1944 1.327 . S
C1946 C1965 1.429 . S
C1946 H1970 0.950 . S
C1947 C1964 1.574 . S
C1947 C1966 1.368 . S
C1947 H1971 0.949 . S
H1948 C1952 0.949 . S
C1949 C1950 1.349 . S
C1949 C1951 1.327 . S
C1949 H1972 0.950 . S
C1950 C1949 1.349 . S
C1950 C1962 1.349 . S
C1951 C1949 1.327 . S
C1951 C1967 1.429 . S
C1951 H1973 0.950 . S
C1952 H1948 0.949 . S
C1952 C1960 1.574 . S
C1952 C1968 1.368 . S
H1953 C1961 0.950 . S
H1954 C1959 0.950 . S
H1955 C1960 0.949 . S
H1956 C1962 0.950 . S
H1957 C1963 0.950 . S
H1958 C1964 0.949 . S
C1959 H1954 0.950 . S
C1959 C1961 1.327 . S
C1959 C1965 1.429 . S
C1960 C1952 1.574 . S
C1960 H1955 0.949 . S
C1960 C1966 1.368 . S
C1961 C1945 1.349 . S
C1961 H1953 0.950 . S
C1961 C1959 1.327 . S
C1962 C1950 1.349 . S
C1962 H1956 0.950 . S
C1962 C1963 1.327 . S
C1963 H1957 0.950 . S
C1963 C1962 1.327 . S
C1963 C1967 1.429 . S
C1964 C1947 1.574 . S
C1964 H1958 0.949 . S
C1964 C1968 1.368 . S
C1965 C1946 1.429 . S
C1965 C1959 1.429 . S
C1965 C1966 1.523 . S
C1966 C1947 1.368 . S
C1966 C1960 1.368 . S
C1966 C1965 1.523 . S
C1967 C1951 1.429 . S
C1967 C1963 1.429 . S
C1967 C1968 1.523 . S
C1968 C1952 1.368 . S
C1968 C1964 1.368 . S
C1968 C1967 1.523 . S
H1969 C1944 0.950 . S
H1970 C1946 0.950 . S
H1971 C1947 0.949 . S
H1972 C1949 0.950 . S
H1973 C1951 0.950 . S
C1974 C1975 1.349 . S
C1974 C1976 1.327 . S
C1974 H1999 0.950 . S
C1975 C1974 1.349 . S
C1975 C1991 1.349 . S
C1976 C1974 1.327 . S
C1976 C1995 1.429 . S
C1976 H2000 0.950 . S
C1977 C1994 1.574 . S
C1977 C1996 1.368 . S
C1977 H2001 0.949 . S
H1978 C1982 0.949 . S
C1979 C1980 1.349 . S
C1979 C1981 1.327 . S
C1979 H2002 0.950 . S
C1980 C1979 1.349 . S
C1980 C1992 1.349 . S
C1981 C1979 1.327 . S
C1981 C1997 1.429 . S
C1981 H2003 0.950 . S
C1982 H1978 0.949 . S
C1982 C1990 1.574 . S
C1982 C1998 1.368 . S
H1983 C1991 0.950 . S
H1984 C1989 0.950 . S
H1985 C1990 0.949 . S
H1986 C1992 0.950 . S
H1987 C1993 0.950 . S
H1988 C1994 0.949 . S
C1989 H1984 0.950 . S
C1989 C1991 1.327 . S
C1989 C1995 1.429 . S
C1990 C1982 1.574 . S
C1990 H1985 0.949 . S
C1990 C1996 1.368 . S
C1991 C1975 1.349 . S
C1991 H1983 0.950 . S
C1991 C1989 1.327 . S
C1992 C1980 1.349 . S
C1992 H1986 0.950 . S
C1992 C1993 1.327 . S
C1993 H1987 0.950 . S
C1993 C1992 1.327 . S
C1993 C1997 1.429 . S
C1994 C1977 1.574 . S
C1994 H1988 0.949 . S
C1994 C1998 1.368 . S
C1995 C1976 1.429 . S
C1995 C1989 1.429 . S
C1995 C1996 1.523 . S
C1996 C1977 1.368 . S
C1996 C1990 1.368 . S
C1996 C1995 1.523 . S
C1997 C1981 1.429 . S
C1997 C1993 1.429 . S
C1997 C1998 1.523 . S
C1998 C1982 1.368 . S
C1998 C1994 1.368 . S
C1998 C1997 1.523 . S
H1999 C1974 0.950 . S
H2000 C1976 0.950 . S
H2001 C1977 0.949 . S
H2002 C1979 0.950 . S
H2003 C1981 0.950 . S
C2004 C2005 1.349 . S
C2004 C2006 1.327 . S
C2004 H2029 0.950 . S
C2005 C2004 1.349 . S
C2005 C2021 1.349 . S
C2006 C2004 1.327 . S
C2006 C2025 1.429 . S
C2006 H2030 0.950 . S
C2007 C2024 1.574 . S
C2007 C2026 1.368 . S
C2007 H2031 0.949 . S
H2008 C2012 0.949 . S
C2009 C2010 1.349 . S
C2009 C2011 1.327 . S
C2009 H2032 0.950 . S
C2010 C2009 1.349 . S
C2010 C2022 1.349 . S
C2011 C2009 1.327 . S
C2011 C2027 1.429 . S
C2011 H2033 0.950 . S
C2012 H2008 0.949 . S
C2012 C2020 1.574 . S
C2012 C2028 1.368 . S
H2013 C2021 0.950 . S
H2014 C2019 0.950 . S
H2015 C2020 0.949 . S
H2016 C2022 0.950 . S
H2017 C2023 0.950 . S
H2018 C2024 0.949 . S
C2019 H2014 0.950 . S
C2019 C2021 1.327 . S
C2019 C2025 1.429 . S
C2020 C2012 1.574 . S
C2020 H2015 0.949 . S
C2020 C2026 1.368 . S
C2021 C2005 1.349 . S
C2021 H2013 0.950 . S
C2021 C2019 1.327 . S
C2022 C2010 1.349 . S
C2022 H2016 0.950 . S
C2022 C2023 1.327 . S
C2023 H2017 0.950 . S
C2023 C2022 1.327 . S
C2023 C2027 1.429 . S
C2024 C2007 1.574 . S
C2024 H2018 0.949 . S
C2024 C2028 1.368 . S
C2025 C2006 1.429 . S
C2025 C2019 1.429 . S
C2025 C2026 1.523 . S
C2026 C2007 1.368 . S
C2026 C2020 1.368 . S
C2026 C2025 1.523 . S
C2027 C2011 1.429 . S
C2027 C2023 1.429 . S
C2027 C2028 1.523 . S
C2028 C2012 1.368 . S
C2028 C2024 1.368 . S
C2028 C2027 1.523 . S
H2029 C2004 0.950 . S
H2030 C2006 0.950 . S
H2031 C2007 0.949 . S
H2032 C2009 0.950 . S
H2033 C2011 0.950 . S
C2034 C2035 1.349 . S
C2034 C2036 1.327 . S
C2034 H2059 0.950 . S
C2035 C2034 1.349 . S
C2035 C2051 1.349 . S
C2036 C2034 1.327 . S
C2036 C2055 1.429 . S
C2036 H2060 0.950 . S
C2037 C2054 1.574 . S
C2037 C2056 1.368 . S
C2037 H2061 0.949 . S
H2038 C2042 0.949 . S
C2039 C2040 1.349 . S
C2039 C2041 1.327 . S
C2039 H2062 0.950 . S
C2040 C2039 1.349 . S
C2040 C2052 1.349 . S
C2041 C2039 1.327 . S
C2041 C2057 1.429 . S
C2041 H2063 0.950 . S
C2042 H2038 0.949 . S
C2042 C2050 1.574 . S
C2042 C2058 1.368 . S
H2043 C2051 0.950 . S
H2044 C2049 0.950 . S
H2045 C2050 0.949 . S
H2046 C2052 0.950 . S
H2047 C2053 0.950 . S
H2048 C2054 0.949 . S
C2049 H2044 0.950 . S
C2049 C2051 1.327 . S
C2049 C2055 1.429 . S
C2050 C2042 1.574 . S
C2050 H2045 0.949 . S
C2050 C2056 1.368 . S
C2051 C2035 1.349 . S
C2051 H2043 0.950 . S
C2051 C2049 1.327 . S
C2052 C2040 1.349 . S
C2052 H2046 0.950 . S
C2052 C2053 1.327 . S
C2053 H2047 0.950 . S
C2053 C2052 1.327 . S
C2053 C2057 1.429 . S
C2054 C2037 1.574 . S
C2054 H2048 0.949 . S
C2054 C2058 1.368 . S
C2055 C2036 1.429 . S
C2055 C2049 1.429 . S
C2055 C2056 1.523 . S
C2056 C2037 1.368 . S
C2056 C2050 1.368 . S
C2056 C2055 1.523 . S
C2057 C2041 1.429 . S
C2057 C2053 1.429 . S
C2057 C2058 1.523 . S
C2058 C2042 1.368 . S
C2058 C2054 1.368 . S
C2058 C2057 1.523 . S
H2059 C2034 0.950 . S
H2060 C2036 0.950 . S
H2061 C2037 0.949 . S
H2062 C2039 0.950 . S
H2063 C2041 0.950 . S
C2064 C2065 1.349 . S
C2064 C2066 1.327 . S
C2064 H2089 0.950 . S
C2065 C2064 1.349 . S
C2065 C2081 1.349 . S
C2066 C2064 1.327 . S
C2066 C2085 1.429 . S
C2066 H2090 0.950 . S
C2067 C2084 1.574 . S
C2067 C2086 1.368 . S
C2067 H2091 0.949 . S
H2068 C2072 0.949 . S
C2069 C2070 1.349 . S
C2069 C2071 1.327 . S
C2069 H2092 0.950 . S
C2070 C2069 1.349 . S
C2070 C2082 1.349 . S
C2071 C2069 1.327 . S
C2071 C2087 1.429 . S
C2071 H2093 0.950 . S
C2072 H2068 0.949 . S
C2072 C2080 1.574 . S
C2072 C2088 1.368 . S
H2073 C2081 0.950 . S
H2074 C2079 0.950 . S
H2075 C2080 0.949 . S
H2076 C2082 0.950 . S
H2077 C2083 0.950 . S
H2078 C2084 0.949 . S
C2079 H2074 0.950 . S
C2079 C2081 1.327 . S
C2079 C2085 1.429 . S
C2080 C2072 1.574 . S
C2080 H2075 0.949 . S
C2080 C2086 1.368 . S
C2081 C2065 1.349 . S
C2081 H2073 0.950 . S
C2081 C2079 1.327 . S
C2082 C2070 1.349 . S
C2082 H2076 0.950 . S
C2082 C2083 1.327 . S
C2083 H2077 0.950 . S
C2083 C2082 1.327 . S
C2083 C2087 1.429 . S
C2084 C2067 1.574 . S
C2084 H2078 0.949 . S
C2084 C2088 1.368 . S
C2085 C2066 1.429 . S
C2085 C2079 1.429 . S
C2085 C2086 1.523 . S
C2086 C2067 1.368 . S
C2086 C2080 1.368 . S
C2086 C2085 1.523 . S
C2087 C2071 1.429 . S
C2087 C2083 1.429 . S
C2087 C2088 1.523 . S
C2088 C2072 1.368 . S
C2088 C2084 1.368 . S
C2088 C2087 1.523 . S
H2089 C2064 0.950 . S
H2090 C2066 0.950 . S
H2091 C2067 0.949 . S
H2092 C2069 0.950 . S
H2093 C2071 0.950 . S
C2094 C2095 1.349 . S
C2094 C2096 1.327 . S
C2094 H2119 0.950 . S
C2095 C2094 1.349 . S
C2095 C2111 1.349 . S
C2096 C2094 1.327 . S
C2096 C2115 1.429 . S
C2096 H2120 0.950 . S
C2097 C2114 1.574 . S
C2097 C2116 1.368 . S
C2097 H2121 0.949 . S
H2098 C2102 0.949 . S
C2099 C2100 1.349 . S
C2099 C2101 1.327 . S
C2099 H2122 0.950 . S
C2100 C2099 1.349 . S
C2100 C2112 1.349 . S
C2101 C2099 1.327 . S
C2101 C2117 1.429 . S
C2101 H2123 0.950 . S
C2102 H2098 0.949 . S
C2102 C2110 1.574 . S
C2102 C2118 1.368 . S
H2103 C2111 0.950 . S
H2104 C2109 0.950 . S
H2105 C2110 0.949 . S
H2106 C2112 0.950 . S
H2107 C2113 0.950 . S
H2108 C2114 0.949 . S
C2109 H2104 0.950 . S
C2109 C2111 1.327 . S
C2109 C2115 1.429 . S
C2110 C2102 1.574 . S
C2110 H2105 0.949 . S
C2110 C2116 1.368 . S
C2111 C2095 1.349 . S
C2111 H2103 0.950 . S
C2111 C2109 1.327 . S
C2112 C2100 1.349 . S
C2112 H2106 0.950 . S
C2112 C2113 1.327 . S
C2113 H2107 0.950 . S
C2113 C2112 1.327 . S
C2113 C2117 1.429 . S
C2114 C2097 1.574 . S
C2114 H2108 0.949 . S
C2114 C2118 1.368 . S
C2115 C2096 1.429 . S
C2115 C2109 1.429 . S
C2115 C2116 1.523 . S
C2116 C2097 1.368 . S
C2116 C2110 1.368 . S
C2116 C2115 1.523 . S
C2117 C2101 1.429 . S
C2117 C2113 1.429 . S
C2117 C2118 1.523 . S
C2118 C2102 1.368 . S
C2118 C2114 1.368 . S
C2118 C2117 1.523 . S
H2119 C2094 0.950 . S
H2120 C2096 0.950 . S
H2121 C2097 0.949 . S
H2122 C2099 0.950 . S
H2123 C2101 0.950 . S
C2124 C2125 1.349 . S
C2124 C2126 1.327 . S
C2124 H2149 0.950 . S
C2125 C2124 1.349 . S
C2125 C2141 1.349 . S
C2126 C2124 1.327 . S
C2126 C2145 1.429 . S
C2126 H2150 0.950 . S
C2127 C2144 1.574 . S
C2127 C2146 1.368 . S
C2127 H2151 0.949 . S
H2128 C2132 0.949 . S
C2129 C2130 1.349 . S
C2129 C2131 1.327 . S
C2129 H2152 0.950 . S
C2130 C2129 1.349 . S
C2130 C2142 1.349 . S
C2131 C2129 1.327 . S
C2131 C2147 1.429 . S
C2131 H2153 0.950 . S
C2132 H2128 0.949 . S
C2132 C2140 1.574 . S
C2132 C2148 1.368 . S
H2133 C2141 0.950 . S
H2134 C2139 0.950 . S
H2135 C2140 0.949 . S
H2136 C2142 0.950 . S
H2137 C2143 0.950 . S
H2138 C2144 0.949 . S
C2139 H2134 0.950 . S
C2139 C2141 1.327 . S
C2139 C2145 1.429 . S
C2140 C2132 1.574 . S
C2140 H2135 0.949 . S
C2140 C2146 1.368 . S
C2141 C2125 1.349 . S
C2141 H2133 0.950 . S
C2141 C2139 1.327 . S
C2142 C2130 1.349 . S
C2142 H2136 0.950 . S
C2142 C2143 1.327 . S
C2143 H2137 0.950 . S
C2143 C2142 1.327 . S
C2143 C2147 1.429 . S
C2144 C2127 1.574 . S
C2144 H2138 0.949 . S
C2144 C2148 1.368 . S
C2145 C2126 1.429 . S
C2145 C2139 1.429 . S
C2145 C2146 1.523 . S
C2146 C2127 1.368 . S
C2146 C2140 1.368 . S
C2146 C2145 1.523 . S
C2147 C2131 1.429 . S
C2147 C2143 1.429 . S
C2147 C2148 1.523 . S
C2148 C2132 1.368 . S
C2148 C2144 1.368 . S
C2148 C2147 1.523 . S
H2149 C2124 0.950 . S
H2150 C2126 0.950 . S
H2151 C2127 0.949 . S
H2152 C2129 0.950 . S
H2153 C2131 0.950 . S
C2154 C2155 1.349 . S
C2154 C2156 1.327 . S
C2154 H2179 0.950 . S
C2155 C2154 1.349 . S
C2155 C2171 1.349 . S
C2156 C2154 1.327 . S
C2156 C2175 1.429 . S
C2156 H2180 0.950 . S
C2157 C2174 1.574 . S
C2157 C2176 1.368 . S
C2157 H2181 0.949 . S
H2158 C2162 0.949 . S
C2159 C2160 1.349 . S
C2159 C2161 1.327 . S
C2159 H2182 0.950 . S
C2160 C2159 1.349 . S
C2160 C2172 1.349 . S
C2161 C2159 1.327 . S
C2161 C2177 1.429 . S
C2161 H2183 0.950 . S
C2162 H2158 0.949 . S
C2162 C2170 1.574 . S
C2162 C2178 1.368 . S
H2163 C2171 0.950 . S
H2164 C2169 0.950 . S
H2165 C2170 0.949 . S
H2166 C2172 0.950 . S
H2167 C2173 0.950 . S
H2168 C2174 0.949 . S
C2169 H2164 0.950 . S
C2169 C2171 1.327 . S
C2169 C2175 1.429 . S
C2170 C2162 1.574 . S
C2170 H2165 0.949 . S
C2170 C2176 1.368 . S
C2171 C2155 1.349 . S
C2171 H2163 0.950 . S
C2171 C2169 1.327 . S
C2172 C2160 1.349 . S
C2172 H2166 0.950 . S
C2172 C2173 1.327 . S
C2173 H2167 0.950 . S
C2173 C2172 1.327 . S
C2173 C2177 1.429 . S
C2174 C2157 1.574 . S
C2174 H2168 0.949 . S
C2174 C2178 1.368 . S
C2175 C2156 1.429 . S
C2175 C2169 1.429 . S
C2175 C2176 1.523 . S
C2176 C2157 1.368 . S
C2176 C2170 1.368 . S
C2176 C2175 1.523 . S
C2177 C2161 1.429 . S
C2177 C2173 1.429 . S
C2177 C2178 1.523 . S
C2178 C2162 1.368 . S
C2178 C2174 1.368 . S
C2178 C2177 1.523 . S
H2179 C2154 0.950 . S
H2180 C2156 0.950 . S
H2181 C2157 0.949 . S
H2182 C2159 0.950 . S
H2183 C2161 0.950 . S
C2184 C2185 1.349 . S
C2184 C2186 1.327 . S
C2184 H2209 0.950 . S
C2185 C2184 1.349 . S
C2185 C2201 1.349 . S
C2186 C2184 1.327 . S
C2186 C2205 1.429 . S
C2186 H2210 0.950 . S
C2187 C2204 1.574 . S
C2187 C2206 1.368 . S
C2187 H2211 0.949 . S
H2188 C2192 0.949 . S
C2189 C2190 1.349 . S
C2189 C2191 1.327 . S
C2189 H2212 0.950 . S
C2190 C2189 1.349 . S
C2190 C2202 1.349 . S
C2191 C2189 1.327 . S
C2191 C2207 1.429 . S
C2191 H2213 0.950 . S
C2192 H2188 0.949 . S
C2192 C2200 1.574 . S
C2192 C2208 1.368 . S
H2193 C2201 0.950 . S
H2194 C2199 0.950 . S
H2195 C2200 0.949 . S
H2196 C2202 0.950 . S
H2197 C2203 0.950 . S
H2198 C2204 0.949 . S
C2199 H2194 0.950 . S
C2199 C2201 1.327 . S
C2199 C2205 1.429 . S
C2200 C2192 1.574 . S
C2200 H2195 0.949 . S
C2200 C2206 1.368 . S
C2201 C2185 1.349 . S
C2201 H2193 0.950 . S
C2201 C2199 1.327 . S
C2202 C2190 1.349 . S
C2202 H2196 0.950 . S
C2202 C2203 1.327 . S
C2203 H2197 0.950 . S
C2203 C2202 1.327 . S
C2203 C2207 1.429 . S
C2204 C2187 1.574 . S
C2204 H2198 0.949 . S
C2204 C2208 1.368 . S
C2205 C2186 1.429 . S
C2205 C2199 1.429 . S
C2205 C2206 1.523 . S
C2206 C2187 1.368 . S
C2206 C2200 1.368 . S
C2206 C2205 1.523 . S
C2207 C2191 1.429 . S
C2207 C2203 1.429 . S
C2207 C2208 1.523 . S
C2208 C2192 1.368 . S
C2208 C2204 1.368 . S
C2208 C2207 1.523 . S
H2209 C2184 0.950 . S
H2210 C2186 0.950 . S
H2211 C2187 0.949 . S
H2212 C2189 0.950 . S
H2213 C2191 0.950 . S
C2214 C2215 1.349 . S
C2214 C2216 1.327 . S
C2214 H2239 0.950 . S
C2215 C2214 1.349 . S
C2215 C2231 1.349 . S
C2216 C2214 1.327 . S
C2216 C2235 1.429 . S
C2216 H2240 0.950 . S
C2217 C2234 1.574 . S
C2217 C2236 1.368 . S
C2217 H2241 0.949 . S
H2218 C2222 0.949 . S
C2219 C2220 1.349 . S
C2219 C2221 1.327 . S
C2219 H2242 0.950 . S
C2220 C2219 1.349 . S
C2220 C2232 1.349 . S
C2221 C2219 1.327 . S
C2221 C2237 1.429 . S
C2221 H2243 0.950 . S
C2222 H2218 0.949 . S
C2222 C2230 1.574 . S
C2222 C2238 1.368 . S
H2223 C2231 0.950 . S
H2224 C2229 0.950 . S
H2225 C2230 0.949 . S
H2226 C2232 0.950 . S
H2227 C2233 0.950 . S
H2228 C2234 0.949 . S
C2229 H2224 0.950 . S
C2229 C2231 1.327 . S
C2229 C2235 1.429 . S
C2230 C2222 1.574 . S
C2230 H2225 0.949 . S
C2230 C2236 1.368 . S
C2231 C2215 1.349 . S
C2231 H2223 0.950 . S
C2231 C2229 1.327 . S
C2232 C2220 1.349 . S
C2232 H2226 0.950 . S
C2232 C2233 1.327 . S
C2233 H2227 0.950 . S
C2233 C2232 1.327 . S
C2233 C2237 1.429 . S
C2234 C2217 1.574 . S
C2234 H2228 0.949 . S
C2234 C2238 1.368 . S
C2235 C2216 1.429 . S
C2235 C2229 1.429 . S
C2235 C2236 1.523 . S
C2236 C2217 1.368 . S
C2236 C2230 1.368 . S
C2236 C2235 1.523 . S
C2237 C2221 1.429 . S
C2237 C2233 1.429 . S
C2237 C2238 1.523 . S
C2238 C2222 1.368 . S
C2238 C2234 1.368 . S
C2238 C2237 1.523 . S
H2239 C2214 0.950 . S
H2240 C2216 0.950 . S
H2241 C2217 0.949 . S
H2242 C2219 0.950 . S
H2243 C2221 0.950 . S
C2244 C2245 1.349 . S
C2244 C2246 1.327 . S
C2244 H2269 0.950 . S
C2245 C2244 1.349 . S
C2245 C2261 1.349 . S
C2246 C2244 1.327 . S
C2246 C2265 1.429 . S
C2246 H2270 0.950 . S
C2247 C2264 1.574 . S
C2247 C2266 1.368 . S
C2247 H2271 0.949 . S
H2248 C2252 0.949 . S
C2249 C2250 1.349 . S
C2249 C2251 1.327 . S
C2249 H2272 0.950 . S
C2250 C2249 1.349 . S
C2250 C2262 1.349 . S
C2251 C2249 1.327 . S
C2251 C2267 1.429 . S
C2251 H2273 0.950 . S
C2252 H2248 0.949 . S
C2252 C2260 1.574 . S
C2252 C2268 1.368 . S
H2253 C2261 0.950 . S
H2254 C2259 0.950 . S
H2255 C2260 0.949 . S
H2256 C2262 0.950 . S
H2257 C2263 0.950 . S
H2258 C2264 0.949 . S
C2259 H2254 0.950 . S
C2259 C2261 1.327 . S
C2259 C2265 1.429 . S
C2260 C2252 1.574 . S
C2260 H2255 0.949 . S
C2260 C2266 1.368 . S
C2261 C2245 1.349 . S
C2261 H2253 0.950 . S
C2261 C2259 1.327 . S
C2262 C2250 1.349 . S
C2262 H2256 0.950 . S
C2262 C2263 1.327 . S
C2263 H2257 0.950 . S
C2263 C2262 1.327 . S
C2263 C2267 1.429 . S
C2264 C2247 1.574 . S
C2264 H2258 0.949 . S
C2264 C2268 1.368 . S
C2265 C2246 1.429 . S
C2265 C2259 1.429 . S
C2265 C2266 1.523 . S
C2266 C2247 1.368 . S
C2266 C2260 1.368 . S
C2266 C2265 1.523 . S
C2267 C2251 1.429 . S
C2267 C2263 1.429 . S
C2267 C2268 1.523 . S
C2268 C2252 1.368 . S
C2268 C2264 1.368 . S
C2268 C2267 1.523 . S
H2269 C2244 0.950 . S
H2270 C2246 0.950 . S
H2271 C2247 0.949 . S
H2272 C2249 0.950 . S
H2273 C2251 0.950 . S
C2274 C2275 1.349 . S
C2274 C2276 1.327 . S
C2274 H2299 0.950 . S
C2275 C2274 1.349 . S
C2275 C2291 1.349 . S
C2276 C2274 1.327 . S
C2276 C2295 1.429 . S
C2276 H2300 0.950 . S
C2277 C2294 1.574 . S
C2277 C2296 1.368 . S
C2277 H2301 0.949 . S
H2278 C2282 0.949 . S
C2279 C2280 1.349 . S
C2279 C2281 1.327 . S
C2279 H2302 0.950 . S
C2280 C2279 1.349 . S
C2280 C2292 1.349 . S
C2281 C2279 1.327 . S
C2281 C2297 1.429 . S
C2281 H2303 0.950 . S
C2282 H2278 0.949 . S
C2282 C2290 1.574 . S
C2282 C2298 1.368 . S
H2283 C2291 0.950 . S
H2284 C2289 0.950 . S
H2285 C2290 0.949 . S
H2286 C2292 0.950 . S
H2287 C2293 0.950 . S
H2288 C2294 0.949 . S
C2289 H2284 0.950 . S
C2289 C2291 1.327 . S
C2289 C2295 1.429 . S
C2290 C2282 1.574 . S
C2290 H2285 0.949 . S
C2290 C2296 1.368 . S
C2291 C2275 1.349 . S
C2291 H2283 0.950 . S
C2291 C2289 1.327 . S
C2292 C2280 1.349 . S
C2292 H2286 0.950 . S
C2292 C2293 1.327 . S
C2293 H2287 0.950 . S
C2293 C2292 1.327 . S
C2293 C2297 1.429 . S
C2294 C2277 1.574 . S
C2294 H2288 0.949 . S
C2294 C2298 1.368 . S
C2295 C2276 1.429 . S
C2295 C2289 1.429 . S
C2295 C2296 1.523 . S
C2296 C2277 1.368 . S
C2296 C2290 1.368 . S
C2296 C2295 1.523 . S
C2297 C2281 1.429 . S
C2297 C2293 1.429 . S
C2297 C2298 1.523 . S
C2298 C2282 1.368 . S
C2298 C2294 1.368 . S
C2298 C2297 1.523 . S
H2299 C2274 0.950 . S
H2300 C2276 0.950 . S
H2301 C2277 0.949 . S
H2302 C2279 0.950 . S
H2303 C2281 0.950 . S
C2304 C2305 1.349 . S
C2304 C2306 1.327 . S
C2304 H2329 0.950 . S
C2305 C2304 1.349 . S
C2305 C2321 1.349 . S
C2306 C2304 1.327 . S
C2306 C2325 1.429 . S
C2306 H2330 0.950 . S
C2307 C2324 1.574 . S
C2307 C2326 1.368 . S
C2307 H2331 0.949 . S
H2308 C2312 0.949 . S
C2309 C2310 1.349 . S
C2309 C2311 1.327 . S
C2309 H2332 0.950 . S
C2310 C2309 1.349 . S
C2310 C2322 1.349 . S
C2311 C2309 1.327 . S
C2311 C2327 1.429 . S
C2311 H2333 0.950 . S
C2312 H2308 0.949 . S
C2312 C2320 1.574 . S
C2312 C2328 1.368 . S
H2313 C2321 0.950 . S
H2314 C2319 0.950 . S
H2315 C2320 0.949 . S
H2316 C2322 0.950 . S
H2317 C2323 0.950 . S
H2318 C2324 0.949 . S
C2319 H2314 0.950 . S
C2319 C2321 1.327 . S
C2319 C2325 1.429 . S
C2320 C2312 1.574 . S
C2320 H2315 0.949 . S
C2320 C2326 1.368 . S
C2321 C2305 1.349 . S
C2321 H2313 0.950 . S
C2321 C2319 1.327 . S
C2322 C2310 1.349 . S
C2322 H2316 0.950 . S
C2322 C2323 1.327 . S
C2323 H2317 0.950 . S
C2323 C2322 1.327 . S
C2323 C2327 1.429 . S
C2324 C2307 1.574 . S
C2324 H2318 0.949 . S
C2324 C2328 1.368 . S
C2325 C2306 1.429 . S
C2325 C2319 1.429 . S
C2325 C2326 1.523 . S
C2326 C2307 1.368 . S
C2326 C2320 1.368 . S
C2326 C2325 1.523 . S
C2327 C2311 1.429 . S
C2327 C2323 1.429 . S
C2327 C2328 1.523 . S
C2328 C2312 1.368 . S
C2328 C2324 1.368 . S
C2328 C2327 1.523 . S
H2329 C2304 0.950 . S
H2330 C2306 0.950 . S
H2331 C2307 0.949 . S
H2332 C2309 0.950 . S
H2333 C2311 0.950 . S
C2334 C2335 1.349 . S
C2334 C2336 1.327 . S
C2334 H2359 0.950 . S
C2335 C2334 1.349 . S
C2335 C2351 1.349 . S
C2336 C2334 1.327 . S
C2336 C2355 1.429 . S
C2336 H2360 0.950 . S
C2337 C2354 1.574 . S
C2337 C2356 1.368 . S
C2337 H2361 0.949 . S
H2338 C2342 0.949 . S
C2339 C2340 1.349 . S
C2339 C2341 1.327 . S
C2339 H2362 0.950 . S
C2340 C2339 1.349 . S
C2340 C2352 1.349 . S
C2341 C2339 1.327 . S
C2341 C2357 1.429 . S
C2341 H2363 0.950 . S
C2342 H2338 0.949 . S
C2342 C2350 1.574 . S
C2342 C2358 1.368 . S
H2343 C2351 0.950 . S
H2344 C2349 0.950 . S
H2345 C2350 0.949 . S
H2346 C2352 0.950 . S
H2347 C2353 0.950 . S
H2348 C2354 0.949 . S
C2349 H2344 0.950 . S
C2349 C2351 1.327 . S
C2349 C2355 1.429 . S
C2350 C2342 1.574 . S
C2350 H2345 0.949 . S
C2350 C2356 1.368 . S
C2351 C2335 1.349 . S
C2351 H2343 0.950 . S
C2351 C2349 1.327 . S
C2352 C2340 1.349 . S
C2352 H2346 0.950 . S
C2352 C2353 1.327 . S
C2353 H2347 0.950 . S
C2353 C2352 1.327 . S
C2353 C2357 1.429 . S
C2354 C2337 1.574 . S
C2354 H2348 0.949 . S
C2354 C2358 1.368 . S
C2355 C2336 1.429 . S
C2355 C2349 1.429 . S
C2355 C2356 1.523 . S
C2356 C2337 1.368 . S
C2356 C2350 1.368 . S
C2356 C2355 1.523 . S
C2357 C2341 1.429 . S
C2357 C2353 1.429 . S
C2357 C2358 1.523 . S
C2358 C2342 1.368 . S
C2358 C2354 1.368 . S
C2358 C2357 1.523 . S
H2359 C2334 0.950 . S
H2360 C2336 0.950 . S
H2361 C2337 0.949 . S
H2362 C2339 0.950 . S
H2363 C2341 0.950 . S
C2364 C2365 1.349 . S
C2364 C2366 1.327 . S
C2364 H2389 0.950 . S
C2365 C2364 1.349 . S
C2365 C2381 1.349 . S
C2366 C2364 1.327 . S
C2366 C2385 1.429 . S
C2366 H2390 0.950 . S
C2367 C2384 1.574 . S
C2367 C2386 1.368 . S
C2367 H2391 0.949 . S
H2368 C2372 0.949 . S
C2369 C2370 1.349 . S
C2369 C2371 1.327 . S
C2369 H2392 0.950 . S
C2370 C2369 1.349 . S
C2370 C2382 1.349 . S
C2371 C2369 1.327 . S
C2371 C2387 1.429 . S
C2371 H2393 0.950 . S
C2372 H2368 0.949 . S
C2372 C2380 1.574 . S
C2372 C2388 1.368 . S
H2373 C2381 0.950 . S
H2374 C2379 0.950 . S
H2375 C2380 0.949 . S
H2376 C2382 0.950 . S
H2377 C2383 0.950 . S
H2378 C2384 0.949 . S
C2379 H2374 0.950 . S
C2379 C2381 1.327 . S
C2379 C2385 1.429 . S
C2380 C2372 1.574 . S
C2380 H2375 0.949 . S
C2380 C2386 1.368 . S
C2381 C2365 1.349 . S
C2381 H2373 0.950 . S
C2381 C2379 1.327 . S
C2382 C2370 1.349 . S
C2382 H2376 0.950 . S
C2382 C2383 1.327 . S
C2383 H2377 0.950 . S
C2383 C2382 1.327 . S
C2383 C2387 1.429 . S
C2384 C2367 1.574 . S
C2384 H2378 0.949 . S
C2384 C2388 1.368 . S
C2385 C2366 1.429 . S
C2385 C2379 1.429 . S
C2385 C2386 1.523 . S
C2386 C2367 1.368 . S
C2386 C2380 1.368 . S
C2386 C2385 1.523 . S
C2387 C2371 1.429 . S
C2387 C2383 1.429 . S
C2387 C2388 1.523 . S
C2388 C2372 1.368 . S
C2388 C2384 1.368 . S
C2388 C2387 1.523 . S
H2389 C2364 0.950 . S
H2390 C2366 0.950 . S
H2391 C2367 0.949 . S
H2392 C2369 0.950 . S
H2393 C2371 0.950 . S
C2394 C2395 1.349 . S
C2394 C2396 1.327 . S
C2394 H2419 0.950 . S
C2395 C2394 1.349 . S
C2395 C2411 1.349 . S
C2396 C2394 1.327 . S
C2396 C2415 1.429 . S
C2396 H2420 0.950 . S
C2397 C2414 1.574 . S
C2397 C2416 1.368 . S
C2397 H2421 0.949 . S
H2398 C2402 0.949 . S
C2399 C2400 1.349 . S
C2399 C2401 1.327 . S
C2399 H2422 0.950 . S
C2400 C2399 1.349 . S
C2400 C2412 1.349 . S
C2401 C2399 1.327 . S
C2401 C2417 1.429 . S
C2401 H2423 0.950 . S
C2402 H2398 0.949 . S
C2402 C2410 1.574 . S
C2402 C2418 1.368 . S
H2403 C2411 0.950 . S
H2404 C2409 0.950 . S
H2405 C2410 0.949 . S
H2406 C2412 0.950 . S
H2407 C2413 0.950 . S
H2408 C2414 0.949 . S
C2409 H2404 0.950 . S
C2409 C2411 1.327 . S
C2409 C2415 1.429 . S
C2410 C2402 1.574 . S
C2410 H2405 0.949 . S
C2410 C2416 1.368 . S
C2411 C2395 1.349 . S
C2411 H2403 0.950 . S
C2411 C2409 1.327 . S
C2412 C2400 1.349 . S
C2412 H2406 0.950 . S
C2412 C2413 1.327 . S
C2413 H2407 0.950 . S
C2413 C2412 1.327 . S
C2413 C2417 1.429 . S
C2414 C2397 1.574 . S
C2414 H2408 0.949 . S
C2414 C2418 1.368 . S
C2415 C2396 1.429 . S
C2415 C2409 1.429 . S
C2415 C2416 1.523 . S
C2416 C2397 1.368 . S
C2416 C2410 1.368 . S
C2416 C2415 1.523 . S
C2417 C2401 1.429 . S
C2417 C2413 1.429 . S
C2417 C2418 1.523 . S
C2418 C2402 1.368 . S
C2418 C2414 1.368 . S
C2418 C2417 1.523 . S
H2419 C2394 0.950 . S
H2420 C2396 0.950 . S
H2421 C2397 0.949 . S
H2422 C2399 0.950 . S
H2423 C2401 0.950 . S
C2424 C2425 1.349 . S
C2424 C2426 1.327 . S
C2424 H2449 0.950 . S
C2425 C2424 1.349 . S
C2425 C2441 1.349 . S
C2426 C2424 1.327 . S
C2426 C2445 1.429 . S
C2426 H2450 0.950 . S
C2427 C2444 1.574 . S
C2427 C2446 1.368 . S
C2427 H2451 0.949 . S
H2428 C2432 0.949 . S
C2429 C2430 1.349 . S
C2429 C2431 1.327 . S
C2429 H2452 0.950 . S
C2430 C2429 1.349 . S
C2430 C2442 1.349 . S
C2431 C2429 1.327 . S
C2431 C2447 1.429 . S
C2431 H2453 0.950 . S
C2432 H2428 0.949 . S
C2432 C2440 1.574 . S
C2432 C2448 1.368 . S
H2433 C2441 0.950 . S
H2434 C2439 0.950 . S
H2435 C2440 0.949 . S
H2436 C2442 0.950 . S
H2437 C2443 0.950 . S
H2438 C2444 0.949 . S
C2439 H2434 0.950 . S
C2439 C2441 1.327 . S
C2439 C2445 1.429 . S
C2440 C2432 1.574 . S
C2440 H2435 0.949 . S
C2440 C2446 1.368 . S
C2441 C2425 1.349 . S
C2441 H2433 0.950 . S
C2441 C2439 1.327 . S
C2442 C2430 1.349 . S
C2442 H2436 0.950 . S
C2442 C2443 1.327 . S
C2443 H2437 0.950 . S
C2443 C2442 1.327 . S
C2443 C2447 1.429 . S
C2444 C2427 1.574 . S
C2444 H2438 0.949 . S
C2444 C2448 1.368 . S
C2445 C2426 1.429 . S
C2445 C2439 1.429 . S
C2445 C2446 1.523 . S
C2446 C2427 1.368 . S
C2446 C2440 1.368 . S
C2446 C2445 1.523 . S
C2447 C2431 1.429 . S
C2447 C2443 1.429 . S
C2447 C2448 1.523 . S
C2448 C2432 1.368 . S
C2448 C2444 1.368 . S
C2448 C2447 1.523 . S
H2449 C2424 0.950 . S
H2450 C2426 0.950 . S
H2451 C2427 0.949 . S
H2452 C2429 0.950 . S
H2453 C2431 0.950 . S
C2454 C2455 1.349 . S
C2454 C2456 1.327 . S
C2454 H2479 0.950 . S
C2455 C2454 1.349 . S
C2455 C2471 1.349 . S
C2456 C2454 1.327 . S
C2456 C2475 1.429 . S
C2456 H2480 0.950 . S
C2457 C2474 1.574 . S
C2457 C2476 1.368 . S
C2457 H2481 0.949 . S
H2458 C2462 0.949 . S
C2459 C2460 1.349 . S
C2459 C2461 1.327 . S
C2459 H2482 0.950 . S
C2460 C2459 1.349 . S
C2460 C2472 1.349 . S
C2461 C2459 1.327 . S
C2461 C2477 1.429 . S
C2461 H2483 0.950 . S
C2462 H2458 0.949 . S
C2462 C2470 1.574 . S
C2462 C2478 1.368 . S
H2463 C2471 0.950 . S
H2464 C2469 0.950 . S
H2465 C2470 0.949 . S
H2466 C2472 0.950 . S
H2467 C2473 0.950 . S
H2468 C2474 0.949 . S
C2469 H2464 0.950 . S
C2469 C2471 1.327 . S
C2469 C2475 1.429 . S
C2470 C2462 1.574 . S
C2470 H2465 0.949 . S
C2470 C2476 1.368 . S
C2471 C2455 1.349 . S
C2471 H2463 0.950 . S
C2471 C2469 1.327 . S
C2472 C2460 1.349 . S
C2472 H2466 0.950 . S
C2472 C2473 1.327 . S
C2473 H2467 0.950 . S
C2473 C2472 1.327 . S
C2473 C2477 1.429 . S
C2474 C2457 1.574 . S
C2474 H2468 0.949 . S
C2474 C2478 1.368 . S
C2475 C2456 1.429 . S
C2475 C2469 1.429 . S
C2475 C2476 1.523 . S
C2476 C2457 1.368 . S
C2476 C2470 1.368 . S
C2476 C2475 1.523 . S
C2477 C2461 1.429 . S
C2477 C2473 1.429 . S
C2477 C2478 1.523 . S
C2478 C2462 1.368 . S
C2478 C2474 1.368 . S
C2478 C2477 1.523 . S
H2479 C2454 0.950 . S
H2480 C2456 0.950 . S
H2481 C2457 0.949 . S
H2482 C2459 0.950 . S
H2483 C2461 0.950 . S
C2484 C2485 1.349 . S
C2484 C2486 1.327 . S
C2484 H2509 0.950 . S
C2485 C2484 1.349 . S
C2485 C2501 1.349 . S
C2486 C2484 1.327 . S
C2486 C2505 1.429 . S
C2486 H2510 0.950 . S
C2487 C2504 1.574 1_455 S
C2487 C2506 1.368 . S
C2487 H2511 0.949 . S
H2488 C2492 0.949 . S
C2489 C2490 1.349 . S
C2489 C2491 1.327 . S
C2489 H2512 0.950 . S
C2490 C2489 1.349 . S
C2490 C2502 1.349 . S
C2491 C2489 1.327 . S
C2491 C2507 1.429 . S
C2491 H2513 0.950 . S
C2492 H2488 0.949 . S
C2492 C2500 1.574 1_655 S
C2492 C2508 1.368 . S
H2493 C2501 0.950 . S
H2494 C2499 0.950 . S
H2495 C2500 0.949 . S
H2496 C2502 0.950 . S
H2497 C2503 0.950 . S
H2498 C2504 0.949 . S
C2499 H2494 0.950 . S
C2499 C2501 1.327 . S
C2499 C2505 1.429 . S
C2500 C2492 1.574 1_455 S
C2500 H2495 0.949 . S
C2500 C2506 1.368 . S
C2501 C2485 1.349 . S
C2501 H2493 0.950 . S
C2501 C2499 1.327 . S
C2502 C2490 1.349 . S
C2502 H2496 0.950 . S
C2502 C2503 1.327 . S
C2503 H2497 0.950 . S
C2503 C2502 1.327 . S
C2503 C2507 1.429 . S
C2504 C2487 1.574 1_655 S
C2504 H2498 0.949 . S
C2504 C2508 1.368 . S
C2505 C2486 1.429 . S
C2505 C2499 1.429 . S
C2505 C2506 1.523 . S
C2506 C2487 1.368 . S
C2506 C2500 1.368 . S
C2506 C2505 1.523 . S
C2507 C2491 1.429 . S
C2507 C2503 1.429 . S
C2507 C2508 1.523 . S
C2508 C2492 1.368 . S
C2508 C2504 1.368 . S
C2508 C2507 1.523 . S
H2509 C2484 0.950 . S
H2510 C2486 0.950 . S
H2511 C2487 0.949 . S
H2512 C2489 0.950 . S
H2513 C2491 0.950 . S
C2514 C2515 1.349 . S
C2514 C2516 1.327 . S
C2514 H2539 0.950 . S
C2515 C2514 1.349 . S
C2515 C2531 1.349 . S
C2516 C2514 1.327 . S
C2516 C2535 1.429 . S
C2516 H2540 0.950 . S
C2517 C2534 1.574 . S
C2517 C2536 1.368 . S
C2517 H2541 0.949 . S
H2518 C2522 0.949 . S
C2519 C2520 1.349 . S
C2519 C2521 1.327 . S
C2519 H2542 0.950 . S
C2520 C2519 1.349 . S
C2520 C2532 1.349 . S
C2521 C2519 1.327 . S
C2521 C2537 1.429 . S
C2521 H2543 0.950 . S
C2522 H2518 0.949 . S
C2522 C2530 1.574 . S
C2522 C2538 1.368 . S
H2523 C2531 0.950 . S
H2524 C2529 0.950 . S
H2525 C2530 0.949 . S
H2526 C2532 0.950 . S
H2527 C2533 0.950 . S
H2528 C2534 0.949 . S
C2529 H2524 0.950 . S
C2529 C2531 1.327 . S
C2529 C2535 1.429 . S
C2530 C2522 1.574 . S
C2530 H2525 0.949 . S
C2530 C2536 1.368 . S
C2531 C2515 1.349 . S
C2531 H2523 0.950 . S
C2531 C2529 1.327 . S
C2532 C2520 1.349 . S
C2532 H2526 0.950 . S
C2532 C2533 1.327 . S
C2533 H2527 0.950 . S
C2533 C2532 1.327 . S
C2533 C2537 1.429 . S
C2534 C2517 1.574 . S
C2534 H2528 0.949 . S
C2534 C2538 1.368 . S
C2535 C2516 1.429 . S
C2535 C2529 1.429 . S
C2535 C2536 1.523 . S
C2536 C2517 1.368 . S
C2536 C2530 1.368 . S
C2536 C2535 1.523 . S
C2537 C2521 1.429 . S
C2537 C2533 1.429 . S
C2537 C2538 1.523 . S
C2538 C2522 1.368 . S
C2538 C2534 1.368 . S
C2538 C2537 1.523 . S
H2539 C2514 0.950 . S
H2540 C2516 0.950 . S
H2541 C2517 0.949 . S
H2542 C2519 0.950 . S
H2543 C2521 0.950 . S
C2544 C2545 1.349 . S
C2544 C2546 1.327 . S
C2544 H2569 0.950 . S
C2545 C2544 1.349 . S
C2545 C2561 1.349 . S
C2546 C2544 1.327 . S
C2546 C2565 1.429 . S
C2546 H2570 0.950 . S
C2547 C2564 1.574 1_545 S
C2547 C2566 1.368 . S
C2547 H2571 0.949 . S
H2548 C2552 0.949 . S
C2549 C2550 1.349 . S
C2549 C2551 1.327 . S
C2549 H2572 0.950 . S
C2550 C2549 1.349 . S
C2550 C2562 1.349 . S
C2551 C2549 1.327 . S
C2551 C2567 1.429 . S
C2551 H2573 0.950 . S
C2552 H2548 0.949 . S
C2552 C2560 1.574 1_565 S
C2552 C2568 1.368 . S
H2553 C2561 0.950 . S
H2554 C2559 0.950 . S
H2555 C2560 0.949 . S
H2556 C2562 0.950 . S
H2557 C2563 0.950 . S
H2558 C2564 0.949 . S
C2559 H2554 0.950 . S
C2559 C2561 1.327 . S
C2559 C2565 1.429 . S
C2560 C2552 1.574 1_545 S
C2560 H2555 0.949 . S
C2560 C2566 1.368 . S
C2561 C2545 1.349 . S
C2561 H2553 0.950 . S
C2561 C2559 1.327 . S
C2562 C2550 1.349 . S
C2562 H2556 0.950 . S
C2562 C2563 1.327 . S
C2563 H2557 0.950 . S
C2563 C2562 1.327 . S
C2563 C2567 1.429 . S
C2564 C2547 1.574 1_565 S
C2564 H2558 0.949 . S
C2564 C2568 1.368 . S
C2565 C2546 1.429 . S
C2565 C2559 1.429 . S
C2565 C2566 1.523 . S
C2566 C2547 1.368 . S
C2566 C2560 1.368 . S
C2566 C2565 1.523 . S
C2567 C2551 1.429 . S
C2567 C2563 1.429 . S
C2567 C2568 1.523 . S
C2568 C2552 1.368 . S
C2568 C2564 1.368 . S
C2568 C2567 1.523 . S
H2569 C2544 0.950 . S
H2570 C2546 0.950 . S
H2571 C2547 0.949 . S
H2572 C2549 0.950 . S
H2573 C2551 0.950 . S
C2574 C2575 1.349 1_556 S
C2574 C2576 1.327 . S
C2574 H2599 0.950 . S
C2575 C2574 1.349 1_554 S
C2575 C2591 1.349 . S
C2576 C2574 1.327 . S
C2576 C2595 1.429 1_556 S
C2576 H2600 0.950 . S
C2577 C2594 1.574 1_545 S
C2577 C2596 1.368 . S
C2577 H2601 0.949 . S
H2578 C2582 0.949 . S
C2579 C2580 1.349 1_554 S
C2579 C2581 1.327 . S
C2579 H2602 0.950 . S
C2580 C2579 1.349 1_556 S
C2580 C2592 1.349 . S
C2581 C2579 1.327 . S
C2581 C2597 1.429 1_554 S
C2581 H2603 0.950 . S
C2582 H2578 0.949 . S
C2582 C2590 1.574 1_565 S
C2582 C2598 1.368 . S
H2583 C2591 0.950 . S
H2584 C2589 0.950 . S
H2585 C2590 0.949 . S
H2586 C2592 0.950 . S
H2587 C2593 0.950 . S
H2588 C2594 0.949 . S
C2589 H2584 0.950 . S
C2589 C2591 1.327 . S
C2589 C2595 1.429 . S
C2590 C2582 1.574 1_545 S
C2590 H2585 0.949 . S
C2590 C2596 1.368 1_556 S
C2591 C2575 1.349 . S
C2591 H2583 0.950 . S
C2591 C2589 1.327 . S
C2592 C2580 1.349 . S
C2592 H2586 0.950 . S
C2592 C2593 1.327 . S
C2593 H2587 0.950 . S
C2593 C2592 1.327 . S
C2593 C2597 1.429 . S
C2594 C2577 1.574 1_565 S
C2594 H2588 0.949 . S
C2594 C2598 1.368 1_554 S
C2595 C2576 1.429 1_554 S
C2595 C2589 1.429 . S
C2595 C2596 1.523 . S
C2596 C2577 1.368 . S
C2596 C2590 1.368 1_554 S
C2596 C2595 1.523 . S
C2597 C2581 1.429 1_556 S
C2597 C2593 1.429 . S
C2597 C2598 1.523 . S
C2598 C2582 1.368 . S
C2598 C2594 1.368 1_556 S
C2598 C2597 1.523 . S
H2599 C2574 0.950 . S
H2600 C2576 0.950 . S
H2601 C2577 0.949 . S
H2602 C2579 0.950 . S
H2603 C2581 0.950 . S
C2604 C2605 1.349 1_556 S
C2604 C2606 1.327 . S
C2604 H2629 0.950 . S
C2605 C2604 1.349 1_554 S
C2605 C2621 1.349 . S
C2606 C2604 1.327 . S
C2606 C2625 1.429 1_556 S
C2606 H2630 0.950 . S
C2607 C2624 1.574 1_655 S
C2607 C2626 1.368 . S
C2607 H2631 0.949 . S
H2608 C2612 0.949 . S
C2609 C2610 1.349 1_554 S
C2609 C2611 1.327 . S
C2609 H2632 0.950 . S
C2610 C2609 1.349 1_556 S
C2610 C2622 1.349 . S
C2611 C2609 1.327 . S
C2611 C2627 1.429 1_554 S
C2611 H2633 0.950 . S
C2612 H2608 0.949 . S
C2612 C2620 1.574 1_455 S
C2612 C2628 1.368 . S
H2613 C2621 0.950 . S
H2614 C2619 0.950 . S
H2615 C2620 0.949 . S
H2616 C2622 0.950 . S
H2617 C2623 0.950 . S
H2618 C2624 0.949 . S
C2619 H2614 0.950 . S
C2619 C2621 1.327 . S
C2619 C2625 1.429 . S
C2620 C2612 1.574 1_655 S
C2620 H2615 0.949 . S
C2620 C2626 1.368 1_556 S
C2621 C2605 1.349 . S
C2621 H2613 0.950 . S
C2621 C2619 1.327 . S
C2622 C2610 1.349 . S
C2622 H2616 0.950 . S
C2622 C2623 1.327 . S
C2623 H2617 0.950 . S
C2623 C2622 1.327 . S
C2623 C2627 1.429 . S
C2624 C2607 1.574 1_455 S
C2624 H2618 0.949 . S
C2624 C2628 1.368 1_554 S
C2625 C2606 1.429 1_554 S
C2625 C2619 1.429 . S
C2625 C2626 1.523 . S
C2626 C2607 1.368 . S
C2626 C2620 1.368 1_554 S
C2626 C2625 1.523 . S
C2627 C2611 1.429 1_556 S
C2627 C2623 1.429 . S
C2627 C2628 1.523 . S
C2628 C2612 1.368 . S
C2628 C2624 1.368 1_556 S
C2628 C2627 1.523 . S
H2629 C2604 0.950 . S
H2630 C2606 0.950 . S
H2631 C2607 0.949 . S
H2632 C2609 0.950 . S
H2633 C2611 0.950 . S
C2634 C2635 1.349 1_556 S
C2634 C2636 1.327 . S
C2634 H2659 0.950 . S
C2635 C2634 1.349 1_554 S
C2635 C2651 1.349 . S
C2636 C2634 1.327 . S
C2636 C2655 1.429 1_556 S
C2636 H2660 0.950 . S
C2637 C2654 1.574 . S
C2637 C2656 1.368 . S
C2637 H2661 0.949 . S
H2638 C2642 0.949 . S
C2639 C2640 1.349 1_554 S
C2639 C2641 1.327 . S
C2639 H2662 0.950 . S
C2640 C2639 1.349 1_556 S
C2640 C2652 1.349 . S
C2641 C2639 1.327 . S
C2641 C2657 1.429 1_554 S
C2641 H2663 0.950 . S
C2642 H2638 0.949 . S
C2642 C2650 1.574 . S
C2642 C2658 1.368 . S
H2643 C2651 0.950 . S
H2644 C2649 0.950 . S
H2645 C2650 0.949 . S
H2646 C2652 0.950 . S
H2647 C2653 0.950 . S
H2648 C2654 0.949 . S
C2649 H2644 0.950 . S
C2649 C2651 1.327 . S
C2649 C2655 1.429 . S
C2650 C2642 1.574 . S
C2650 H2645 0.949 . S
C2650 C2656 1.368 1_556 S
C2651 C2635 1.349 . S
C2651 H2643 0.950 . S
C2651 C2649 1.327 . S
C2652 C2640 1.349 . S
C2652 H2646 0.950 . S
C2652 C2653 1.327 . S
C2653 H2647 0.950 . S
C2653 C2652 1.327 . S
C2653 C2657 1.429 . S
C2654 C2637 1.574 . S
C2654 H2648 0.949 . S
C2654 C2658 1.368 1_554 S
C2655 C2636 1.429 1_554 S
C2655 C2649 1.429 . S
C2655 C2656 1.523 . S
C2656 C2637 1.368 . S
C2656 C2650 1.368 1_554 S
C2656 C2655 1.523 . S
C2657 C2641 1.429 1_556 S
C2657 C2653 1.429 . S
C2657 C2658 1.523 . S
C2658 C2642 1.368 . S
C2658 C2654 1.368 1_556 S
C2658 C2657 1.523 . S
H2659 C2634 0.950 . S
H2660 C2636 0.950 . S
H2661 C2637 0.949 . S
H2662 C2639 0.950 . S
H2663 C2641 0.950 . S
C505 C149 1.037 . S
C510 C0 1.040 . S
C535 C163 1.036 . S
C540 C14 1.039 . S
C565 C28 1.039 . S
C570 C135 1.036 . S
C595 C42 1.039 . S
C600 C121 1.036 . S
C625 C56 1.039 . S
C630 C93 1.036 . S
C655 C107 1.036 . S
C660 C70 1.039 . S
C685 C65 1.036 . S
C690 C84 1.040 . S
C715 C79 1.036 . S
C720 C98 1.039 . S
C745 C112 1.039 . S
C750 C51 1.036 . S
C775 C37 1.036 . S
C780 C126 1.039 . S
C805 C140 1.039 . S
C810 C9 1.036 . S
C835 C154 1.039 . S
C840 C23 1.036 . S
C865 C317 1.036 . S
C870 C168 1.039 . S
C895 C331 1.036 . S
C900 C182 1.039 . S
C925 C196 1.039 . S
C930 C303 1.036 . S
C955 C210 1.039 . S
C960 C289 1.036 . S
C985 C224 1.039 . S
C990 C261 1.036 . S
C1015 C238 1.039 . S
C1020 C275 1.036 . S
C1045 C233 1.036 . S
C1050 C252 1.040 . S
C1075 C247 1.036 . S
C1080 C266 1.039 . S
C1105 C219 1.036 . S
C1110 C280 1.039 . S
C1135 C205 1.036 . S
C1140 C294 1.039 . S
C1165 C177 1.036 . S
C1170 C308 1.039 . S
C1195 C191 1.036 . S
C1200 C322 1.039 . S
C1225 C336 1.040 . S
C1230 C485 1.036 . S
C1255 C499 1.036 . S
C1260 C350 1.039 . S
C1285 C471 1.036 . S
C1290 C364 1.039 . S
C1315 C378 1.039 . S
C1320 C457 1.036 . S
C1345 C392 1.039 . S
C1350 C429 1.036 . S
C1375 C406 1.039 . S
C1380 C443 1.036 . S
C1405 C401 1.036 . S
C1410 C420 1.039 . S
C1435 C415 1.036 . S
C1440 C434 1.039 . S
C1465 C387 1.036 . S
C1470 C448 1.039 . S
C1495 C462 1.039 . S
C1500 C373 1.036 . S
C1525 C345 1.036 . S
C1530 C476 1.039 . S
C1555 C490 1.039 . S
C1560 C359 1.036 . S
C1585 C53 1.482 . S
C1590 C11 1.482 . S
C1615 C67 1.483 . S
C1620 C25 1.483 . S
C1645 C39 1.483 . S
C1650 C81 1.483 . S
C1675 C137 1.483 . S
C1680 C95 1.483 . S
C1705 C151 1.483 . S
C1710 C109 1.483 . S
C1735 C165 1.483 . S
C1740 C123 1.483 . S
C1765 C221 1.483 . S
C1770 C179 1.483 . S
C1795 C235 1.483 . S
C1800 C193 1.483 . S
C1825 C207 1.483 . S
C1830 C249 1.483 . S
C1855 C263 1.483 . S
C1860 C305 1.483 . S
C1885 C319 1.483 . S
C1890 C277 1.483 . S
C1915 C291 1.483 . S
C1920 C333 1.483 . S
C1945 C389 1.483 . S
C1950 C347 1.483 . S
C1975 C403 1.483 . S
C1980 C361 1.483 . S
C2005 C375 1.483 . S
C2010 C417 1.483 . S
C2035 C431 1.483 . S
C2040 C473 1.483 . S
C2065 C445 1.483 . S
C2070 C487 1.483 . S
C2095 C459 1.483 . S
C2100 C501 1.483 . S
C2125 C5 1.487 . S
C2130 C257 1.487 . S
C2155 C271 1.486 . S
C2160 C19 1.486 . S
C2185 C285 1.486 . S
C2190 C33 1.486 . S
C2215 C467 1.487 . S
C2220 C47 1.487 . S
C2245 C481 1.486 . S
C2250 C61 1.486 . S
C2275 C495 1.486 . S
C2280 C75 1.486 . S
C2305 C89 1.486 . S
C2310 C341 1.486 . S
C2335 C355 1.486 . S
C2340 C103 1.486 . S
C2365 C369 1.486 . S
C2370 C117 1.486 . S
C2395 C131 1.486 . S
C2400 C215 1.486 . S
C2425 C145 1.486 . S
C2430 C229 1.486 . S
C2455 C159 1.486 . S
C2460 C243 1.486 . S
C2485 C425 1.486 . S
C2490 C173 1.486 . S
C2515 C439 1.486 . S
C2520 C187 1.486 . S
C2545 C201 1.486 . S
C2550 C453 1.486 . S
C2575 C299 1.486 . S
C2580 C383 1.486 . S
C2605 C313 1.486 . S
C2610 C397 1.486 . S
C2635 C327 1.486 . S
C2640 C411 1.486 . S
