# Generated by pormake.
# Topology smd, (6)-cn, num edge types: 1
# Building blocks:
#     Node 0, Type 0, BuildingBlock: CUKXOW_clean_sbu_0, # of connection points: 6
#     Node 1, Type 0, BuildingBlock: CUKXOW_clean_sbu_0, # of connection points: 6
#     Node 2, Type 0, BuildingBlock: CUKXOW_clean_sbu_0, # of connection points: 6
#     Node 3, Type 0, BuildingBlock: CUKXOW_clean_sbu_0, # of connection points: 6
#     Node 4, Type 0, BuildingBlock: CUKXOW_clean_sbu_0, # of connection points: 6
#     Node 5, Type 0, BuildingBlock: CUKXOW_clean_sbu_0, # of connection points: 6
#     Node 6, Type 0, BuildingBlock: CUKXOW_clean_sbu_0, # of connection points: 6
#     Node 7, Type 0, BuildingBlock: CUKXOW_clean_sbu_0, # of connection points: 6
#     Node 8, Type 0, BuildingBlock: CUKXOW_clean_sbu_0, # of connection points: 6
#     Node 9, Type 0, BuildingBlock: CUKXOW_clean_sbu_0, # of connection points: 6
#     Node 10, Type 0, BuildingBlock: CUKXOW_clean_sbu_0, # of connection points: 6
#     Node 11, Type 0, BuildingBlock: CUKXOW_clean_sbu_0, # of connection points: 6
#     Node 12, Type 0, BuildingBlock: CUKXOW_clean_sbu_0, # of connection points: 6
#     Node 13, Type 0, BuildingBlock: CUKXOW_clean_sbu_0, # of connection points: 6
#     Node 14, Type 0, BuildingBlock: CUKXOW_clean_sbu_0, # of connection points: 6
#     Node 15, Type 0, BuildingBlock: CUKXOW_clean_sbu_0, # of connection points: 6
#     Node 16, Type 0, BuildingBlock: CUKXOW_clean_sbu_0, # of connection points: 6
#     Node 17, Type 0, BuildingBlock: CUKXOW_clean_sbu_0, # of connection points: 6
#     Edge 18, Type (0, 0), BuildingBlock: UVAHIK_clean_linker_0, # of connection points: 2
#     Edge 19, Type (0, 0), BuildingBlock: UVAHIK_clean_linker_0, # of connection points: 2
#     Edge 20, Type (0, 0), BuildingBlock: UVAHIK_clean_linker_0, # of connection points: 2
#     Edge 21, Type (0, 0), BuildingBlock: UVAHIK_clean_linker_0, # of connection points: 2
#     Edge 22, Type (0, 0), BuildingBlock: UVAHIK_clean_linker_0, # of connection points: 2
#     Edge 23, Type (0, 0), BuildingBlock: UVAHIK_clean_linker_0, # of connection points: 2
#     Edge 24, Type (0, 0), BuildingBlock: UVAHIK_clean_linker_0, # of connection points: 2
#     Edge 25, Type (0, 0), BuildingBlock: UVAHIK_clean_linker_0, # of connection points: 2
#     Edge 26, Type (0, 0), BuildingBlock: UVAHIK_clean_linker_0, # of connection points: 2
#     Edge 27, Type (0, 0), BuildingBlock: UVAHIK_clean_linker_0, # of connection points: 2
#     Edge 28, Type (0, 0), BuildingBlock: UVAHIK_clean_linker_0, # of connection points: 2
#     Edge 29, Type (0, 0), BuildingBlock: UVAHIK_clean_linker_0, # of connection points: 2
#     Edge 30, Type (0, 0), BuildingBlock: UVAHIK_clean_linker_0, # of connection points: 2
#     Edge 31, Type (0, 0), BuildingBlock: UVAHIK_clean_linker_0, # of connection points: 2
#     Edge 32, Type (0, 0), BuildingBlock: UVAHIK_clean_linker_0, # of connection points: 2
#     Edge 33, Type (0, 0), BuildingBlock: UVAHIK_clean_linker_0, # of connection points: 2
#     Edge 34, Type (0, 0), BuildingBlock: UVAHIK_clean_linker_0, # of connection points: 2
#     Edge 35, Type (0, 0), BuildingBlock: UVAHIK_clean_linker_0, # of connection points: 2
#     Edge 36, Type (0, 0), BuildingBlock: UVAHIK_clean_linker_0, # of connection points: 2
#     Edge 37, Type (0, 0), BuildingBlock: UVAHIK_clean_linker_0, # of connection points: 2
#     Edge 38, Type (0, 0), BuildingBlock: UVAHIK_clean_linker_0, # of connection points: 2
#     Edge 39, Type (0, 0), BuildingBlock: UVAHIK_clean_linker_0, # of connection points: 2
#     Edge 40, Type (0, 0), BuildingBlock: UVAHIK_clean_linker_0, # of connection points: 2
#     Edge 41, Type (0, 0), BuildingBlock: UVAHIK_clean_linker_0, # of connection points: 2
#     Edge 42, Type (0, 0), BuildingBlock: UVAHIK_clean_linker_0, # of connection points: 2
#     Edge 43, Type (0, 0), BuildingBlock: UVAHIK_clean_linker_0, # of connection points: 2
#     Edge 44, Type (0, 0), BuildingBlock: UVAHIK_clean_linker_0, # of connection points: 2
#     Edge 45, Type (0, 0), BuildingBlock: UVAHIK_clean_linker_0, # of connection points: 2
#     Edge 46, Type (0, 0), BuildingBlock: UVAHIK_clean_linker_0, # of connection points: 2
#     Edge 47, Type (0, 0), BuildingBlock: UVAHIK_clean_linker_0, # of connection points: 2
#     Edge 48, Type (0, 0), BuildingBlock: UVAHIK_clean_linker_0, # of connection points: 2
#     Edge 49, Type (0, 0), BuildingBlock: UVAHIK_clean_linker_0, # of connection points: 2
#     Edge 50, Type (0, 0), BuildingBlock: UVAHIK_clean_linker_0, # of connection points: 2
#     Edge 51, Type (0, 0), BuildingBlock: UVAHIK_clean_linker_0, # of connection points: 2
#     Edge 52, Type (0, 0), BuildingBlock: UVAHIK_clean_linker_0, # of connection points: 2
#     Edge 53, Type (0, 0), BuildingBlock: UVAHIK_clean_linker_0, # of connection points: 2
#     Edge 54, Type (0, 0), BuildingBlock: UVAHIK_clean_linker_0, # of connection points: 2
#     Edge 55, Type (0, 0), BuildingBlock: UVAHIK_clean_linker_0, # of connection points: 2
#     Edge 56, Type (0, 0), BuildingBlock: UVAHIK_clean_linker_0, # of connection points: 2
#     Edge 57, Type (0, 0), BuildingBlock: UVAHIK_clean_linker_0, # of connection points: 2
#     Edge 58, Type (0, 0), BuildingBlock: UVAHIK_clean_linker_0, # of connection points: 2
#     Edge 59, Type (0, 0), BuildingBlock: UVAHIK_clean_linker_0, # of connection points: 2
#     Edge 60, Type (0, 0), BuildingBlock: UVAHIK_clean_linker_0, # of connection points: 2
#     Edge 61, Type (0, 0), BuildingBlock: UVAHIK_clean_linker_0, # of connection points: 2
#     Edge 62, Type (0, 0), BuildingBlock: UVAHIK_clean_linker_0, # of connection points: 2
#     Edge 63, Type (0, 0), BuildingBlock: UVAHIK_clean_linker_0, # of connection points: 2
#     Edge 64, Type (0, 0), BuildingBlock: UVAHIK_clean_linker_0, # of connection points: 2
#     Edge 65, Type (0, 0), BuildingBlock: UVAHIK_clean_linker_0, # of connection points: 2
#     Edge 66, Type (0, 0), BuildingBlock: UVAHIK_clean_linker_0, # of connection points: 2
#     Edge 67, Type (0, 0), BuildingBlock: UVAHIK_clean_linker_0, # of connection points: 2
#     Edge 68, Type (0, 0), BuildingBlock: UVAHIK_clean_linker_0, # of connection points: 2
#     Edge 69, Type (0, 0), BuildingBlock: UVAHIK_clean_linker_0, # of connection points: 2
#     Edge 70, Type (0, 0), BuildingBlock: UVAHIK_clean_linker_0, # of connection points: 2
#     Edge 71, Type (0, 0), BuildingBlock: UVAHIK_clean_linker_0, # of connection points: 2
# Relax obj value: 0.267
# Max RMSD: 0.299
# Mean RMSD: 0.276
data_MOF--net-smd--node1-CUKXOW_clean_sbu_0--edge1-UVAHIK_clean_linker_0
_symmetry_space_group_name_H-M    P1
_symmetry_Int_Tables_number       1
_symmetry_cell_setting            triclinic
loop_
_symmetry_equiv_pos_as_xyz
'x, y, z'
_cell_length_a     95.050329
_cell_length_b     98.929084
_cell_length_c     19.004769
_cell_angle_alpha  92.651878
_cell_angle_beta   92.744693
_cell_angle_gamma 120.01937
loop_
_atom_site_label
_atom_site_type_symbol
_atom_site_fract_x
_atom_site_fract_y
_atom_site_fract_z
_atom_type_partial_charge
Tb0 Tb -0.00137 0.22198 0.57835 0.0
C1 C 0.0359 0.23073 0.57108 0.0
Tb2 Tb 0.02692 0.25725 0.56026 0.0
O3 O 0.99099 0.21524 0.46403 0.0
O4 O 0.00892 0.23723 0.49817 0.0
O5 O 0.02142 0.22117 0.59516 0.0
C6 C 0.04711 0.28422 0.50784 0.0
O7 O 0.03977 0.2445 0.54727 0.0
C8 C 0.02423 0.25063 0.69565 0.0
C9 C 0.99081 0.24975 0.577 0.0
O10 O 0.04494 0.27061 0.48585 0.0
O11 O 0.03794 0.28258 0.55896 0.0
O12 O 0.03491 0.26399 0.67421 0.0
O13 O 0.01641 0.24205 0.6405 0.0
O14 O 0.00481 0.25862 0.54891 0.0
O15 O 0.98641 0.23557 0.59803 0.0
C16 C 0.97666 0.19424 0.62092 0.0
O17 O 0.97736 0.20752 0.63669 0.0
O18 O 0.98865 0.19675 0.58324 0.0
C19 C 0.00137 0.22868 0.44268 0.0
Tb20 Tb 0.80001 0.81373 0.53652 0.0
C21 C 0.82679 0.80444 0.55239 0.0
Tb22 Tb 0.78879 0.77964 0.54694 0.0
O23 O 0.8114 0.81905 0.64417 0.0
O24 O 0.79016 0.79772 0.61677 0.0
O25 O 0.82346 0.815 0.52777 0.0
C26 C 0.78122 0.75114 0.58615 0.0
O27 O 0.81518 0.79072 0.57104 0.0
C28 C 0.78774 0.78737 0.41653 0.0
C29 C 0.76209 0.78858 0.52257 0.0
O30 O 0.7874 0.75687 0.52779 0.0
O31 O 0.77958 0.76158 0.62288 0.0
O32 O 0.77792 0.77377 0.43823 0.0
O33 O 0.7985 0.79558 0.46617 0.0
O34 O 0.76545 0.77836 0.54992 0.0
O35 O 0.77373 0.80244 0.50573 0.0
C36 C 0.80445 0.84233 0.51595 0.0
O37 O 0.79874 0.83448 0.57034 0.0
O38 O 0.80782 0.83406 0.47191 0.0
C39 C 0.8011 0.80567 0.66612 0.0
Tb40 Tb 0.21602 0.02566 0.54444 0.0
C41 C 0.1891 0.99029 0.52181 0.0
Tb42 Tb 0.22629 0.00067 0.5129 0.0
O43 O 0.20424 0.02066 0.43706 0.0
O44 O 0.22423 0.01787 0.45647 0.0
O45 O 0.19325 0.00394 0.55676 0.0
C46 C 0.23464 0.98194 0.44318 0.0
O47 O 0.19983 0.98787 0.48917 0.0
C48 C 0.22487 0.00505 0.65115 0.0
C49 C 0.25387 0.03525 0.55935 0.0
O50 O 0.22367 0.97754 0.48854 0.0
O51 O 0.2408 0.9968 0.43711 0.0
O52 O 0.22949 0.99578 0.62337 0.0
O53 O 0.22173 0.01111 0.60048 0.0
O54 O 0.25027 0.02131 0.53042 0.0
O55 O 0.24253 0.0389 0.57439 0.0
C56 C 0.21317 0.05055 0.58203 0.0
O57 O 0.2208 0.04925 0.5298 0.0
O58 O 0.20704 0.03769 0.61436 0.0
C59 C 0.21343 0.01599 0.40928 0.0
Tb60 Tb 0.99048 0.78176 0.60223 0.0
C61 C 0.02723 0.79196 0.58066 0.0
Tb62 Tb 0.01627 0.81716 0.58903 0.0
O63 O 0.98449 0.77429 0.48779 0.0
O64 O 0.00149 0.7968 0.52253 0.0
O65 O 0.01345 0.78182 0.60677 0.0
C66 C 0.0366 0.84658 0.55693 0.0
O67 O 0.03018 0.80586 0.56201 0.0
C68 C 0.0142 0.80696 0.71732 0.0
C69 C 0.97863 0.8063 0.59518 0.0
O70 O 0.03292 0.83387 0.5185 0.0
O71 O 0.02836 0.8427 0.61244 0.0
O72 O 0.02735 0.81807 0.69431 0.0
O73 O 0.00268 0.80286 0.67021 0.0
O74 O 0.99299 0.8169 0.5738 0.0
O75 O 0.97585 0.79271 0.61799 0.0
C76 C 0.97315 0.75376 0.65381 0.0
O77 O 0.96775 0.7593 0.60539 0.0
O78 O 0.98816 0.76419 0.67433 0.0
C79 C 0.99467 0.78791 0.46707 0.0
Tb80 Tb 0.2236 0.25584 0.59779 0.0
C81 C 0.25185 0.24913 0.62023 0.0
Tb82 Tb 0.21444 0.22255 0.61063 0.0
O83 O 0.23472 0.26261 0.70618 0.0
O84 O 0.21479 0.2402 0.6802 0.0
O85 O 0.24735 0.25829 0.59007 0.0
C86 C 0.21195 0.19475 0.63058 0.0
O87 O 0.24095 0.23544 0.64218 0.0
C88 C 0.21267 0.22999 0.48015 0.0
C89 C 0.18605 0.22997 0.59698 0.0
O90 O 0.21833 0.2033 0.57883 0.0
O91 O 0.20686 0.20188 0.67256 0.0
O92 O 0.20278 0.21657 0.50289 0.0
O93 O 0.22346 0.23826 0.52935 0.0
O94 O 0.19022 0.21982 0.6197 0.0
O95 O 0.19706 0.24402 0.57903 0.0
C96 C 0.2293 0.283 0.54978 0.0
O97 O 0.22708 0.27949 0.61478 0.0
O98 O 0.22804 0.27116 0.51203 0.0
C99 C 0.22544 0.24899 0.72917 0.0
Tb100 Tb 0.78684 0.03355 0.58085 0.0
C101 C 0.76165 0.99857 0.54532 0.0
Tb102 Tb 0.79995 0.01189 0.55965 0.0
O103 O 0.77601 0.02825 0.47243 0.0
O104 O 0.79746 0.02781 0.49556 0.0
O105 O 0.76416 0.01159 0.57986 0.0
C106 C 0.80522 0.98789 0.53296 0.0
O107 O 0.77392 0.99698 0.52432 0.0
C108 C 0.80034 0.02103 0.69259 0.0
C109 C 0.82522 0.04752 0.58583 0.0
O110 O 0.79881 0.99023 0.5873 0.0
O111 O 0.80889 -0.00073 0.49232 0.0
O112 O 0.8113 0.01849 0.66748 0.0
O113 O 0.78923 0.01759 0.64411 0.0
O114 O 0.82284 0.03401 0.556 0.0
O115 O 0.81298 0.0491 0.60734 0.0
C116 C 0.77826 0.05425 0.62763 0.0
O117 O 0.78468 0.05444 0.56875 0.0
O118 O 0.77684 0.04249 0.66063 0.0
C119 C 0.78651 0.02501 0.44715 0.0
Tb120 Tb 0.68046 0.55246 0.71696 0.0
C121 C 0.64245 0.52821 0.72314 0.0
Tb122 Tb 0.65644 0.56462 0.7422 0.0
O123 O 0.69219 0.56217 0.82377 0.0
O124 O 0.66767 0.55447 0.80279 0.0
O125 O 0.65646 0.53059 0.69917 0.0
C126 C 0.64009 0.57576 0.80994 0.0
O127 O 0.64068 0.5398 0.75052 0.0
C128 C 0.65982 0.56204 0.60463 0.0
C129 C 0.69326 0.58883 0.72189 0.0
O130 O 0.6343 0.56578 0.75462 0.0
O131 O 0.65505 0.57946 0.82696 0.0
O132 O 0.65045 0.56675 0.63065 0.0
O133 O 0.66633 0.55914 0.65652 0.0
O134 O 0.67981 0.5863 0.75077 0.0
O135 O 0.69543 0.57725 0.69715 0.0
C136 C 0.69888 0.5405 0.67625 0.0
O137 O 0.69695 0.55085 0.64432 0.0
O138 O 0.69007 0.53659 0.72989 0.0
C139 C 0.67937 0.56116 0.84998 0.0
Tb140 Tb 0.46372 0.1567 0.75314 0.0
C141 C 0.49215 0.14927 0.76696 0.0
Tb142 Tb 0.45455 0.12362 0.76911 0.0
O143 O 0.47512 0.16319 0.86133 0.0
O144 O 0.4545 0.14133 0.83578 0.0
O145 O 0.48808 0.15963 0.74647 0.0
C146 C 0.45034 0.09736 0.82162 0.0
O147 O 0.48107 0.1351 0.78298 0.0
C148 C 0.45308 0.13007 0.63663 0.0
C149 C 0.42632 0.13021 0.74782 0.0
O150 O 0.44794 0.09894 0.7555 0.0
O151 O 0.45517 0.11055 0.85789 0.0
O152 O 0.44375 0.11651 0.66005 0.0
O153 O 0.4636 0.1389 0.68586 0.0
O154 O 0.43104 0.12145 0.78027 0.0
O155 O 0.43708 0.14366 0.72335 0.0
C156 C 0.4669 0.1843 0.72357 0.0
O157 O 0.46121 0.17707 0.77951 0.0
O158 O 0.47083 0.17594 0.68319 0.0
C159 C 0.46521 0.14986 0.88486 0.0
Tb160 Tb 0.88595 0.34973 0.72115 0.0
C161 C 0.8957 0.38559 0.74297 0.0
Tb162 Tb 0.92193 0.37538 0.76329 0.0
O163 O 0.88537 0.33945 0.82141 0.0
O164 O 0.9002 0.36326 0.81582 0.0
O165 O 0.8854 0.37159 0.70939 0.0
C166 C 0.94949 0.39337 0.84435 0.0
O167 O 0.90972 0.38876 0.77654 0.0
C168 C 0.91616 0.3714 0.62344 0.0
C169 C 0.91335 0.34056 0.71877 0.0
O170 O 0.94418 0.39792 0.79142 0.0
O171 O 0.93929 0.3787 0.85142 0.0
O172 O 0.93013 0.38149 0.65655 0.0
O173 O 0.90666 0.36447 0.67012 0.0
O174 O 0.92356 0.35414 0.755 0.0
O175 O 0.89846 0.3369 0.69345 0.0
C176 C 0.85465 0.33038 0.67529 0.0
O177 O 0.86709 0.33084 0.64731 0.0
O178 O 0.85994 0.3411 0.72744 0.0
C179 C 0.8964 0.35234 0.8559 0.0
Tb180 Tb 0.65731 0.12807 0.80342 0.0
C181 C 0.69274 0.13611 0.78711 0.0
Tb182 Tb 0.68157 0.1616 0.78588 0.0
O183 O 0.65982 0.12066 0.69663 0.0
O184 O 0.6629 0.1429 0.71811 0.0
O185 O 0.67925 0.12675 0.81659 0.0
C186 C 0.70606 0.18915 0.75254 0.0
O187 O 0.69527 0.14947 0.76262 0.0
C188 C 0.67449 0.15508 0.91741 0.0
C189 C 0.64498 0.15261 0.79224 0.0
O190 O 0.70532 0.18274 0.81114 0.0
O191 O 0.69286 0.18006 0.71209 0.0
O192 O 0.67788 0.16824 0.89214 0.0
O193 O 0.6762 0.14669 0.87026 0.0
O194 O 0.65944 0.16325 0.77259 0.0
O195 O 0.64213 0.13879 0.81167 0.0
C196 C 0.63645 0.10196 0.86121 0.0
O197 O 0.6374 0.1035 0.79384 0.0
O198 O 0.64704 0.11509 0.89533 0.0
C199 C 0.66404 0.13405 0.6713 0.0
Tb200 Tb 0.91705 0.56523 0.80082 0.0
C201 C 0.90648 0.59036 0.77073 0.0
Tb202 Tb 0.88059 0.55424 0.75924 0.0
O203 O 0.92566 0.56762 0.69333 0.0
O204 O 0.90189 0.56078 0.70848 0.0
O205 O 0.91704 0.58729 0.8041 0.0
C206 C 0.84961 0.54255 0.70788 0.0
O207 O 0.89203 0.57915 0.74156 0.0
C208 C 0.8905 0.56194 0.89584 0.0
C209 C 0.89221 0.52916 0.77057 0.0
O210 O 0.86234 0.55334 0.6807 0.0
O211 O 0.85441 0.53812 0.76275 0.0
O212 O 0.87907 0.56351 0.86414 0.0
O213 O 0.89496 0.55522 0.85168 0.0
O214 O 0.88133 0.53239 0.74062 0.0
O215 O 0.90605 0.5401 0.80552 0.0
C216 C 0.94464 0.57616 0.88298 0.0
O217 O 0.94003 0.56587 0.82904 0.0
O218 O 0.93371 0.5802 0.8905 0.0
C219 C 0.91157 0.56356 0.661 0.0
Tb220 Tb 0.45348 0.37547 0.79683 0.0
C221 C 0.42558 0.34009 0.75834 0.0
Tb222 Tb 0.46273 0.34999 0.75902 0.0
O223 O 0.44945 0.38061 0.68759 0.0
O224 O 0.45567 0.36399 0.70626 0.0
O225 O 0.42988 0.35385 0.792 0.0
C226 C 0.47225 0.33035 0.70936 0.0
O227 O 0.43636 0.33671 0.73296 0.0
C228 C 0.4576 0.35333 0.89343 0.0
C229 C 0.49001 0.38613 0.77264 0.0
O230 O 0.46 0.33136 0.68267 0.0
O231 O 0.47934 0.34067 0.76305 0.0
O232 O 0.45513 0.3404 0.86119 0.0
O233 O 0.46409 0.364 0.85169 0.0
O234 O 0.48536 0.37182 0.74366 0.0
O235 O 0.47997 0.38944 0.80604 0.0
C236 C 0.44548 0.39311 0.87685 0.0
O237 O 0.45463 0.39782 0.82431 0.0
O238 O 0.44082 0.3785 0.88385 0.0
C239 C 0.45266 0.37051 0.65709 0.0
Tb240 Tb 0.34117 0.89135 0.21062 0.0
C241 C 0.37855 0.90435 0.21205 0.0
Tb242 Tb 0.36208 0.92515 0.19267 0.0
O243 O 0.34451 0.88519 0.10306 0.0
O244 O 0.3443 0.90579 0.12536 0.0
O245 O 0.3649 0.89351 0.23664 0.0
C246 C 0.38191 0.95195 0.13725 0.0
O247 O 0.37954 0.91698 0.18607 0.0
C248 C 0.35597 0.91878 0.32489 0.0
C249 C 0.32524 0.91308 0.20174 0.0
O250 O 0.37382 0.93828 0.10295 0.0
O251 O 0.3789 0.95058 0.20322 0.0
O252 O 0.35844 0.93163 0.29893 0.0
O253 O 0.35856 0.9108 0.27881 0.0
O254 O 0.33882 0.92406 0.17779 0.0
O255 O 0.32379 0.89976 0.22154 0.0
C256 C 0.31983 0.86299 0.24966 0.0
O257 O 0.32313 0.87623 0.28159 0.0
O258 O 0.32866 0.86575 0.19656 0.0
C259 C 0.34671 0.89798 0.07796 0.0
Tb260 Tb 0.14934 0.49676 0.1864 0.0
C261 C 0.17574 0.48703 0.20145 0.0
Tb262 Tb 0.13769 0.46298 0.20065 0.0
O263 O 0.16066 0.50246 0.29456 0.0
O264 O 0.13913 0.48135 0.26823 0.0
O265 O 0.17262 0.49778 0.17815 0.0
C266 C 0.13064 0.43547 0.2488 0.0
O267 O 0.16405 0.4734 0.22027 0.0
C268 C 0.13689 0.47001 0.0689 0.0
C269 C 0.11135 0.47213 0.17479 0.0
O270 O 0.13362 0.43911 0.18436 0.0
O271 O 0.13174 0.44732 0.28594 0.0
O272 O 0.12674 0.45663 0.09181 0.0
O273 O 0.14769 0.4783 0.11825 0.0
O274 O 0.11461 0.46212 0.20495 0.0
O275 O 0.12308 0.48566 0.15526 0.0
C276 C 0.15498 0.52522 0.15792 0.0
O277 O 0.14949 0.51844 0.21506 0.0
O278 O 0.15732 0.51594 0.11577 0.0
C279 C 0.15005 0.48933 0.31753 0.0
Tb280 Tb 0.55792 0.70648 0.25096 0.0
C281 C 0.52992 0.67113 0.21539 0.0
Tb282 Tb 0.56678 0.68063 0.21879 0.0
O283 O 0.56851 0.71722 0.15409 0.0
O284 O 0.5584 0.69334 0.15941 0.0
O285 O 0.53407 0.68486 0.24952 0.0
C286 C 0.5748 0.66195 0.14847 0.0
O287 O 0.54081 0.66794 0.19031 0.0
C288 C 0.56437 0.68412 0.35676 0.0
C289 C 0.59465 0.71497 0.27108 0.0
O290 O 0.56434 0.65768 0.19607 0.0
O291 O 0.58081 0.67677 0.14063 0.0
O292 O 0.56781 0.67406 0.32794 0.0
O293 O 0.56248 0.69119 0.30707 0.0
O294 O 0.59072 0.70161 0.23464 0.0
O295 O 0.58364 0.71871 0.28962 0.0
C296 C 0.5476 0.72571 0.29671 0.0
O297 O 0.55868 0.7238 0.3297 0.0
O298 O 0.54219 0.71662 0.2386 0.0
C299 C 0.56622 0.70441 0.12112 0.0
Tb300 Tb 0.33839 0.4623 0.2483 0.0
C301 C 0.37509 0.47331 0.22585 0.0
Tb302 Tb 0.3638 0.49847 0.22886 0.0
O303 O 0.3311 0.45485 0.13422 0.0
O304 O 0.34739 0.47762 0.16765 0.0
O305 O 0.362 0.46366 0.25807 0.0
C306 C 0.38265 0.5268 0.18431 0.0
O307 O 0.37755 0.48685 0.20356 0.0
C308 C 0.36207 0.49198 0.365 0.0
C309 C 0.32571 0.48605 0.23052 0.0
O310 O 0.38438 0.5147 0.17156 0.0
O311 O 0.37013 0.5228 0.22072 0.0
O312 O 0.37143 0.50566 0.34305 0.0
O313 O 0.35491 0.48312 0.30982 0.0
O314 O 0.33997 0.49669 0.20886 0.0
O315 O 0.32311 0.47272 0.25549 0.0
C316 C 0.31968 0.43532 0.30411 0.0
O317 O 0.32109 0.44869 0.32454 0.0
O318 O 0.32886 0.43719 0.25274 0.0
C319 C 0.34051 0.46861 0.11251 0.0
Tb320 Tb 0.57041 0.93179 0.24819 0.0
C321 C 0.59599 0.92139 0.27901 0.0
Tb322 Tb 0.5575 0.8981 0.26824 0.0
O323 O 0.58061 0.93891 0.35799 0.0
O324 O 0.55954 0.91722 0.33268 0.0
O325 O 0.59358 0.93246 0.25465 0.0
C326 C 0.54918 0.86968 0.30942 0.0
O327 O 0.58375 0.90741 0.29118 0.0
C328 C 0.55851 0.9046 0.1341 0.0
C329 C 0.53258 0.9092 0.24884 0.0
O330 O 0.56072 0.88285 0.3402 0.0
O331 O 0.54236 0.87257 0.25626 0.0
O332 O 0.54804 0.89145 0.15692 0.0
O333 O 0.5688 0.91277 0.18494 0.0
O334 O 0.53585 0.89973 0.28426 0.0
O335 O 0.54424 0.92127 0.21971 0.0
C336 C 0.57795 0.95863 0.19166 0.0
O337 O 0.5703 0.95398 0.24826 0.0
O338 O 0.58143 0.94828 0.16765 0.0
C339 C 0.57026 0.92573 0.38197 0.0
Tb340 Tb 0.13077 0.70768 0.26355 0.0
C341 C 0.10569 0.67209 0.21278 0.0
Tb342 Tb 0.14384 0.68407 0.22496 0.0
O343 O 0.12831 0.71334 0.15352 0.0
O344 O 0.13713 0.69884 0.17563 0.0
O345 O 0.10804 0.68541 0.24474 0.0
C346 C 0.1533 0.66592 0.1588 0.0
O347 O 0.1177 0.66961 0.19614 0.0
C348 C 0.14024 0.6865 0.36335 0.0
C349 C 0.16834 0.72012 0.26125 0.0
O350 O 0.13874 0.664 0.15273 0.0
O351 O 0.16264 0.67825 0.20145 0.0
O352 O 0.14484 0.67734 0.33436 0.0
O353 O 0.13784 0.69316 0.31326 0.0
O354 O 0.16523 0.70729 0.22173 0.0
O355 O 0.15688 0.72153 0.29287 0.0
C356 C 0.11989 0.72381 0.33609 0.0
O357 O 0.13109 0.72956 0.29176 0.0
O358 O 0.11491 0.70903 0.3397 0.0
C359 C 0.13376 0.7048 0.1251 0.0
C360 C 0.12412 0.40768 0.2296 0.0
C361 C 0.12546 0.41998 0.27467 0.0
C362 C 0.11812 0.39272 0.25329 0.0
C363 C 0.10895 0.3714 0.41675 0.0
H364 H 0.07719 0.33604 0.29079 0.0
C365 C 0.0612 0.31329 0.51583 0.0
C366 C 0.05815 0.29928 0.47973 0.0
C367 C 0.07141 0.32766 0.48947 0.0
C368 C 0.08623 0.34576 0.32619 0.0
H369 H 0.12192 0.4265 0.37992 0.0
H370 H 0.11118 0.40045 0.42093 0.0
H371 H 0.09167 0.36202 0.24715 0.0
H372 H 0.06327 0.28916 0.3879 0.0
H373 H 0.08103 0.31444 0.3408 0.0
H374 H 0.10298 0.35519 0.49649 0.0
C375 C 0.11501 0.40229 0.36777 0.0
C376 C 0.09456 0.36066 0.30122 0.0
C377 C 0.12106 0.41721 0.34417 0.0
C378 C 0.06549 0.29985 0.41672 0.0
C379 C 0.07558 0.31426 0.38975 0.0
C380 C 0.10053 0.35655 0.44179 0.0
C381 C 0.1133 0.3898 0.32245 0.0
C382 C 0.10577 0.37372 0.34664 0.0
C383 C 0.07864 0.32831 0.42601 0.0
C384 C 0.08885 0.34364 0.39718 0.0
H385 H 0.12749 0.40955 0.17575 0.0
H386 H 0.11716 0.38344 0.2173 0.0
H387 H 0.11776 0.38112 0.45275 0.0
H388 H 0.05567 0.31317 0.56451 0.0
H389 H 0.07336 0.33827 0.51803 0.0
C390 C 0.74023 0.79417 0.47842 0.0
C391 C 0.74472 0.78379 0.50608 0.0
C392 C 0.72383 0.78913 0.45889 0.0
C393 C 0.68156 0.75651 0.47863 0.0
H394 H 0.67093 0.76854 0.30124 0.0
C395 C 0.62292 0.71978 0.2955 0.0
C396 C 0.61202 0.7255 0.29628 0.0
C397 C 0.639 0.72908 0.3241 0.0
C398 C 0.67378 0.76531 0.35137 0.0
H399 H 0.73541 0.76001 0.53549 0.0
H400 H 0.70716 0.75122 0.50023 0.0
H401 H 0.69946 0.78078 0.34841 0.0
H402 H 0.60968 0.74569 0.32594 0.0
H403 H 0.63817 0.76214 0.37477 0.0
H404 H 0.65592 0.74034 0.47883 0.0
C405 C 0.71614 0.76335 0.49501 0.0
C406 C 0.69008 0.77232 0.37862 0.0
C407 C 0.73244 0.76839 0.51485 0.0
C408 C 0.61776 0.74094 0.32461 0.0
C409 C 0.63401 0.75035 0.35238 0.0
C410 C 0.66535 0.7494 0.45093 0.0
C411 C 0.71159 0.7736 0.46638 0.0
C412 C 0.69421 0.76772 0.44179 0.0
C413 C 0.64462 0.74435 0.35311 0.0
C414 C 0.6614 0.75355 0.3866 0.0
H415 H 0.74938 0.80613 0.47111 0.0
H416 H 0.72076 0.79739 0.43774 0.0
H417 H 0.68421 0.75292 0.52815 0.0
H418 H 0.61895 0.70794 0.2746 0.0
H419 H 0.64704 0.72427 0.32432 0.0
C420 C 0.25186 0.97824 0.35828 0.0
C421 C 0.24015 0.97202 0.40772 0.0
C422 C 0.25796 0.96931 0.32776 0.0
C423 C 0.26458 0.93664 0.36233 0.0
H424 H 0.27524 0.93947 0.16715 0.0
C425 C 0.29854 0.90676 0.24919 0.0
C426 C 0.31179 0.91637 0.21073 0.0
C427 C 0.28707 0.91112 0.26558 0.0
C428 C 0.27238 0.93858 0.22183 0.0
H429 H 0.2253 0.95148 0.46289 0.0
H430 H 0.23598 0.93578 0.4095 0.0
H431 H 0.26018 0.95171 0.2106 0.0
H432 H 0.32287 0.9377 0.15639 0.0
H433 H 0.30306 0.9453 0.18523 0.0
H434 H 0.27721 0.92394 0.37427 0.0
C435 C 0.24053 0.94762 0.39468 0.0
C436 C 0.26375 0.9456 0.24672 0.0
C437 C 0.23435 0.95656 0.42496 0.0
C438 C 0.31286 0.93002 0.18624 0.0
C439 C 0.3014 0.93434 0.20242 0.0
C440 C 0.27325 0.92964 0.33748 0.0
C441 C 0.25253 0.95395 0.34622 0.0
C442 C 0.26005 0.945 0.31766 0.0
C443 C 0.28855 0.92514 0.24357 0.0
C444 C 0.27757 0.93082 0.26732 0.0
H445 H 0.25654 0.99014 0.34408 0.0
H446 H 0.26734 0.97463 0.29138 0.0
H447 H 0.26209 0.93609 0.41746 0.0
H448 H 0.29733 0.89616 0.26886 0.0
H449 H 0.2772 0.90366 0.29659 0.0
C450 C 0.27652 0.06157 0.61412 0.0
C451 C 0.27145 0.04701 0.577 0.0
C452 C 0.29315 0.07214 0.63293 0.0
C453 C 0.33041 0.09522 0.63551 0.0
H454 H 0.35538 0.07649 0.7027 0.0
C455 C 0.40181 0.12828 0.67943 0.0
C456 C 0.4085 0.12402 0.73594 0.0
C457 C 0.38484 0.12042 0.66298 0.0
C458 C 0.34862 0.082 0.68475 0.0
H459 H 0.28013 0.03252 0.52844 0.0
H460 H 0.30878 0.0508 0.56056 0.0
H461 H 0.32648 0.05996 0.66845 0.0
H462 H 0.40255 0.10905 0.82263 0.0
H463 H 0.37325 0.09573 0.79511 0.0
H464 H 0.35275 0.11736 0.65275 0.0
C465 C 0.29996 0.05399 0.57644 0.0
C466 C 0.33202 0.07245 0.66419 0.0
C467 C 0.28345 0.0435 0.55772 0.0
C468 C 0.39785 0.11246 0.77801 0.0
C469 C 0.381 0.10474 0.76198 0.0
C470 C 0.34714 0.10483 0.65598 0.0
C471 C 0.30506 0.06835 0.61523 0.0
C472 C 0.32268 0.07888 0.63889 0.0
C473 C 0.37426 0.10822 0.70292 0.0
C474 C 0.35645 0.09832 0.68104 0.0
H475 H 0.26765 0.0647 0.62975 0.0
H476 H 0.29664 0.08307 0.66305 0.0
H477 H 0.3236 0.10055 0.61591 0.0
H478 H 0.4097 0.13711 0.6459 0.0
H479 H 0.38007 0.12339 0.61706 0.0
C480 C 0.9086 0.31353 0.68229 0.0
C481 C 0.9193 0.32939 0.70491 0.0
C482 C 0.91456 0.30321 0.6706 0.0
C483 C 0.95198 0.30021 0.71006 0.0
H484 H 0.9332 0.2673 0.55721 0.0
C485 C 0.98728 0.27315 0.58961 0.0
C486 C 0.98036 0.25679 0.58914 0.0
C487 C 0.97821 0.2803 0.60538 0.0
C488 C 0.93843 0.27633 0.60059 0.0
H489 H 0.94477 0.34688 0.73055 0.0
H490 H 0.95508 0.3293 0.70809 0.0
H491 H 0.92057 0.28323 0.58128 0.0
H492 H 0.95817 0.23513 0.60334 0.0
H493 H 0.94205 0.24776 0.62897 0.0
H494 H 0.97027 0.29381 0.72684 0.0
C495 C 0.94202 0.32451 0.70182 0.0
C496 C 0.93119 0.28546 0.61463 0.0
C497 C 0.93608 0.33471 0.71428 0.0
C498 C 0.96389 0.24773 0.60323 0.0
C499 C 0.95465 0.25494 0.61771 0.0
C500 C 0.95931 0.29129 0.69526 0.0
C501 C 0.93139 0.30855 0.68059 0.0
C502 C 0.93807 0.29778 0.66875 0.0
C503 C 0.96185 0.27133 0.62002 0.0
C504 C 0.95279 0.27943 0.63974 0.0
H505 H 0.8956 0.30902 0.67458 0.0
H506 H 0.90592 0.29102 0.65479 0.0
H507 H 0.9574 0.30917 0.75363 0.0
H508 H -7e-05 0.28058 0.57954 0.0
H509 H 0.98405 0.29294 0.60638 0.0
C510 C 0.76701 0.72946 0.66513 0.0
C511 C 0.77537 0.73486 0.60437 0.0
C512 C 0.7604 0.71378 0.67989 0.0
C513 C 0.74691 0.67427 0.59268 0.0
H514 H 0.74453 0.66287 0.78598 0.0
C515 C 0.71695 0.60938 0.66204 0.0
C516 C 0.70578 0.6054 0.71408 0.0
C517 C 0.72743 0.62515 0.65023 0.0
C518 C 0.74506 0.66585 0.73167 0.0
H519 H 0.78374 0.72818 0.51225 0.0
H520 H 0.77254 0.70087 0.53857 0.0
H521 H 0.75918 0.69042 0.76246 0.0
H522 H 0.69737 0.61492 0.79636 0.0
H523 H 0.71561 0.64219 0.77636 0.0
H524 H 0.73267 0.64964 0.56217 0.0
C525 C 0.77077 0.70865 0.57432 0.0
C526 C 0.75342 0.68168 0.71812 0.0
C527 C 0.77732 0.72434 0.55945 0.0
C528 C 0.70577 0.61753 0.75569 0.0
C529 C 0.71633 0.63322 0.7445 0.0
C530 C 0.73863 0.65843 0.60627 0.0
C531 C 0.76205 0.70309 0.63439 0.0
C532 C 0.75423 0.68615 0.64849 0.0
C533 C 0.72712 0.63726 0.69092 0.0
C534 C 0.73735 0.65402 0.67601 0.0
H535 H 0.76523 0.73729 0.70055 0.0
H536 H 0.75357 0.70996 0.72602 0.0
H537 H 0.74705 0.67719 0.53842 0.0
H538 H 0.71722 0.60033 0.62883 0.0
H539 H 0.73568 0.62787 0.60887 0.0
C540 C 0.97222 0.73247 0.72317 0.0
C541 C 0.96455 0.73743 0.67429 0.0
C542 C 0.96494 0.71669 0.73706 0.0
C543 C 0.92585 0.67851 0.71711 0.0
H544 H 0.95468 0.66146 0.73136 0.0
C545 C 0.90253 0.61153 0.71969 0.0
C546 C 0.91159 0.60713 0.76409 0.0
C547 C 0.90816 0.6274 0.71055 0.0
C548 C 0.94644 0.66603 0.72846 0.0
H549 H 0.94299 0.72984 0.60316 0.0
H550 H 0.93027 0.70224 0.62703 0.0
H551 H 0.96587 0.68905 0.71392 0.0
H552 H 0.93341 0.61616 0.83574 0.0
H553 H 0.94298 0.64355 0.82061 0.0
H554 H 0.9064 0.65535 0.73135 0.0
C555 C 0.94187 0.71055 0.65519 0.0
C556 C 0.95289 0.68192 0.71849 0.0
C557 C 0.94917 0.72636 0.64131 0.0
C558 C 0.92615 0.61901 0.80048 0.0
C559 C 0.93173 0.63479 0.79147 0.0
C560 C 0.91938 0.66257 0.72716 0.0
C561 C 0.9498 0.70544 0.70229 0.0
C562 C 0.94272 0.68843 0.71306 0.0
C563 C 0.92298 0.63924 0.74559 0.0
C564 C 0.92962 0.65613 0.73343 0.0
H565 H 0.98406 0.74074 0.74957 0.0
H566 H 0.97128 0.71328 0.77467 0.0
H567 H 0.91766 0.68313 0.7137 0.0
H568 H 0.89129 0.60271 0.6907 0.0
H569 H 0.90113 0.63036 0.67447 0.0
C570 C 0.276 0.24972 0.68517 0.0
C571 C 0.2696 0.25495 0.6316 0.0
C572 C 0.29295 0.2566 0.69945 0.0
C573 C 0.33247 0.28077 0.62256 0.0
H574 H 0.35024 0.2949 0.81702 0.0
C575 C 0.40218 0.31471 0.70091 0.0
C576 C 0.40789 0.3282 0.74756 0.0
C577 C 0.38543 0.30395 0.68872 0.0
C578 C 0.34547 0.29101 0.76244 0.0
H579 H 0.27601 0.27105 0.54927 0.0
H580 H 0.3053 0.2828 0.57348 0.0
H581 H 0.32072 0.27905 0.7901 0.0
H582 H 0.40034 0.34063 0.81939 0.0
H583 H 0.37129 0.32192 0.79822 0.0
H584 H 0.35715 0.29307 0.5946 0.0
C585 C 0.29733 0.27345 0.60467 0.0
C586 C 0.32856 0.28179 0.74709 0.0
C587 C 0.28049 0.26676 0.5911 0.0
C588 C 0.39644 0.33043 0.78289 0.0
C589 C 0.37974 0.31962 0.7712 0.0
C590 C 0.34937 0.28987 0.63793 0.0
C591 C 0.30381 0.26864 0.65963 0.0
C592 C 0.32182 0.27682 0.67681 0.0
C593 C 0.37398 0.30631 0.72345 0.0
C594 C 0.35609 0.29537 0.70794 0.0
H595 H 0.26794 0.2407 0.71751 0.0
H596 H 0.29756 0.25257 0.74193 0.0
H597 H 0.32769 0.27702 0.5679 0.0
H598 H 0.41062 0.31258 0.6728 0.0
H599 H 0.38143 0.29375 0.65204 0.0
C600 C 0.71537 0.13574 0.72444 0.0
C601 C 0.70464 0.13073 0.77831 0.0
C602 C 0.72495 0.12889 0.71121 0.0
C603 C 0.72544 0.09224 0.74043 0.0
H604 H 0.76923 0.11465 0.67999 0.0
C605 C 0.76375 0.06232 0.71122 0.0
C606 C 0.77209 0.06473 0.64988 0.0
C607 C 0.75676 0.07141 0.72932 0.0
C608 C 0.75697 0.10822 0.69639 0.0
H609 H 0.69634 0.11534 0.86344 0.0
H610 H 0.71322 0.10383 0.84196 0.0
H611 H 0.755 0.12889 0.7074 0.0
H612 H 0.78009 0.07881 0.56042 0.0
H613 H 0.76788 0.09471 0.59196 0.0
H614 H 0.72733 0.07161 0.72951 0.0
C615 C 0.71392 0.11263 0.80813 0.0
C616 C 0.74879 0.11637 0.71199 0.0
C617 C 0.7043 0.11933 0.82082 0.0
C618 C 0.77373 0.07671 0.60809 0.0
C619 C 0.7668 0.08586 0.62634 0.0
C620 C 0.73361 0.08414 0.72522 0.0
C621 C 0.72404 0.11696 0.75195 0.0
C622 C 0.73293 0.10849 0.73459 0.0
C623 C 0.75799 0.08315 0.68658 0.0
C624 C 0.7495 0.09201 0.70325 0.0
H625 H 0.71585 0.14445 0.69056 0.0
H626 H 0.73254 0.1325 0.66732 0.0
H627 H 0.71309 0.08566 0.75582 0.0
H628 H 0.76234 0.05319 0.74454 0.0
H629 H 0.75027 0.06916 0.77666 0.0
C630 C 0.61641 0.91617 0.34222 0.0
C631 C 0.61301 0.92523 0.29709 0.0
C632 C 0.63251 0.92096 0.3661 0.0
C633 C 0.6658 0.9412 0.44853 0.0
H634 H 0.70163 0.96037 0.32886 0.0
C635 C 0.73161 0.98646 0.55422 0.0
C636 C 0.74463 0.98626 0.52307 0.0
C637 C 0.71551 0.97614 0.52781 0.0
C638 C 0.69177 0.95485 0.36287 0.0
H639 H 0.62392 0.94601 0.23893 0.0
H640 H 0.6519 0.95425 0.28013 0.0
H641 H 0.67357 0.94732 0.27605 0.0
H642 H 0.75089 0.97465 0.44113 0.0
H643 H 0.72269 0.95664 0.39467 0.0
H644 H 0.68401 0.94911 0.53556 0.0
C645 C 0.64216 0.94346 0.29712 0.0
C646 C 0.6757 0.94751 0.33269 0.0
C647 C 0.62609 0.93877 0.27385 0.0
C648 C 0.74114 0.97508 0.46649 0.0
C649 C 0.72501 0.96485 0.43953 0.0
C650 C 0.68187 0.94866 0.47878 0.0
C651 C 0.64555 0.9348 0.34467 0.0
C652 C 0.66254 0.94087 0.37533 0.0
C653 C 0.71203 0.96545 0.46919 0.0
C654 C 0.69504 0.95584 0.43646 0.0
H655 H 0.60662 0.90569 0.36125 0.0
H656 H 0.63476 0.91397 0.40225 0.0
H657 H 0.65595 0.93631 0.48292 0.0
H658 H 0.73386 0.9949 0.59797 0.0
H659 H 0.70582 0.97702 0.55145 0.0
C660 C 0.03706 0.77293 0.59311 0.0
C661 C 0.03927 0.78695 0.56796 0.0
C662 C 0.04732 0.76722 0.57538 0.0
C663 C 0.08674 0.77758 0.50405 0.0
H664 H 0.0645 0.73321 0.44477 0.0
C665 C 0.1173 0.7476 0.35649 0.0
C666 C 0.11287 0.73231 0.37212 0.0
C667 C 0.10954 0.75508 0.38619 0.0
C668 C 0.07097 0.74556 0.4622 0.0
H669 H 0.05446 0.80631 0.50668 0.0
H670 H 0.07232 0.79623 0.47521 0.0
H671 H 0.04894 0.74492 0.48649 0.0
H672 H 0.09747 0.71308 0.43322 0.0
H673 H 0.08412 0.72619 0.48606 0.0
H674 H 0.10879 0.77818 0.47897 0.0
C675 C 0.06269 0.78973 0.50912 0.0
C676 C 0.06203 0.75229 0.48609 0.0
C677 C 0.05242 0.79547 0.527 0.0
C678 C 0.10101 0.72483 0.41985 0.0
C679 C 0.0933 0.73231 0.44974 0.0
C680 C 0.09573 0.77082 0.48018 0.0
C681 C 0.06002 0.77535 0.53187 0.0
C682 C 0.06979 0.76836 0.50743 0.0
C683 C 0.09723 0.74741 0.4322 0.0
C684 C 0.08793 0.75472 0.45906 0.0
H685 H 0.02719 0.76613 0.62547 0.0
H686 H 0.04514 0.75628 0.595 0.0
H687 H 0.09309 0.78998 0.52062 0.0
H688 H 0.12642 0.75361 0.31975 0.0
H689 H 0.11277 0.76665 0.37111 0.0
C690 C 0.30106 0.41951 0.39405 0.0
C691 C 0.30882 0.42019 0.33218 0.0
C692 C 0.29061 0.40504 0.41968 0.0
C693 C 0.26473 0.36325 0.36301 0.0
H694 H 0.27118 0.35614 0.55777 0.0
C695 C 0.23927 0.30138 0.45505 0.0
C696 C 0.23479 0.2986 0.52444 0.0
C697 C 0.24623 0.31648 0.43263 0.0
C698 C 0.26894 0.35797 0.50362 0.0
H699 H 0.31179 0.40643 0.24842 0.0
H700 H 0.2934 0.38119 0.29253 0.0
H701 H 0.28742 0.38225 0.51736 0.0
H702 H 0.23338 0.3092 0.62415 0.0
H703 H 0.24517 0.33562 0.58454 0.0
H704 H 0.24629 0.33907 0.34883 0.0
C705 C 0.29535 0.39179 0.32122 0.0
C706 C 0.27832 0.37294 0.48048 0.0
C707 C 0.30595 0.40622 0.29626 0.0
C708 C 0.23679 0.31107 0.57035 0.0
C709 C 0.24366 0.3262 0.54778 0.0
C710 C 0.25524 0.34835 0.38625 0.0
C711 C 0.28757 0.39104 0.38313 0.0
C712 C 0.27655 0.37563 0.40957 0.0
C713 C 0.24875 0.32915 0.47897 0.0
C714 C 0.25748 0.34541 0.45644 0.0
H715 H 0.3031 0.43015 0.42269 0.0
H716 H 0.28474 0.40478 0.46747 0.0
H717 H 0.26294 0.36508 0.3083 0.0
H718 H 0.23793 0.29197 0.41866 0.0
H719 H 0.25021 0.31829 0.3797 0.0
C720 C 0.96895 0.3971 0.9461 0.0
C721 C 0.96503 0.40307 0.88757 0.0
C722 C 0.98407 0.40586 0.98477 0.0
C723 C 0.02044 0.44579 1.01706 0.0
H724 H 0.0418 0.42266 0.06981 0.0
C725 C 0.08963 0.47423 0.10393 0.0
C726 C 0.09405 0.46709 0.15603 0.0
C727 C 0.07329 0.4677 0.07826 0.0
C728 C 0.03593 0.42929 0.05651 0.0
H729 H 0.97353 0.42298 0.82442 0.0
H730 H 0.00014 0.43821 0.89105 0.0
H731 H 0.01445 0.40874 1.01138 0.0
H732 H 0.08467 0.44827 0.22598 0.0
H733 H 0.0563 0.43709 0.18205 0.0
H734 H 0.04226 0.46642 0.06111 0.0
C735 C 0.99148 0.42687 0.90787 0.0
C736 C 0.02021 0.42129 0.02298 0.0
C737 C 0.97629 0.41812 0.86941 0.0
C738 C 0.08172 0.45393 0.18508 0.0
C739 C 0.06545 0.44747 0.15968 0.0
C740 C 0.03626 0.45383 0.05052 0.0
C741 C 0.99564 0.42074 0.96538 0.0
C742 C 0.01225 0.42941 1.00282 0.0
C743 C 0.0611 0.45396 0.10439 0.0
C744 C 0.04415 0.44564 0.07069 0.0
H745 H 0.9604 0.38557 0.96159 0.0
H746 H 0.98674 0.4009 0.0296 0.0
H747 H 0.0146 0.45239 1.0028 0.0
H748 H 0.09885 0.48436 0.08039 0.0
H749 H 0.07033 0.47295 0.03547 0.0
C750 C 0.61623 0.57972 0.81692 0.0
C751 C 0.63138 0.58249 0.84601 0.0
C752 C 0.60844 0.58685 0.84934 0.0
C753 C 0.60693 0.60572 1.01798 0.0
H754 H 0.59135 0.62738 0.90076 0.0
C755 C 0.57366 0.63632 0.12961 0.0
C756 C 0.57943 0.65165 0.1106 0.0
C757 C 0.57854 0.62671 0.09558 0.0
C758 C 0.59564 0.62137 0.93406 0.0
H759 H 0.65012 0.59446 0.9323 0.0
H760 H 0.63647 0.60686 0.98926 0.0
H761 H 0.60259 0.6124 0.84595 0.0
H762 H 0.59447 0.66892 0.0404 0.0
H763 H 0.603 0.65211 0.98058 0.0
H764 H 0.60028 0.61494 0.10622 0.0
C765 C 0.63059 0.59918 0.94159 0.0
C766 C 0.60193 0.61269 0.9027 0.0
C767 C 0.63844 0.59217 0.90884 0.0
C768 C 0.58989 0.65714 0.05606 0.0
C769 C 0.59467 0.6475 0.0216 0.0
C770 C 0.60052 0.61429 0.04927 0.0
C771 C 0.61561 0.59673 0.91175 0.0
C772 C 0.60784 0.60496 0.94447 0.0
C773 C 0.58918 0.63224 0.04153 0.0
C774 C 0.595 0.62236 1.00771 0.0
H775 H 0.61054 0.57227 0.7685 0.0
H776 H 0.59683 0.58467 0.82559 0.0
H777 H 0.61129 0.59977 0.05134 0.0
H778 H 0.56553 0.63181 0.17142 0.0
H779 H 0.57401 0.61496 0.11151 0.0
C780 C 0.44116 0.06887 0.80768 0.0
C781 C 0.44669 0.08262 0.85178 0.0
C782 C 0.43641 0.05463 0.83676 0.0
C783 C 0.43825 0.03706 1.00329 0.0
H784 H 0.39783 0.00158 0.9192 0.0
C785 C 0.39948 0.9811 0.14578 0.0
C786 C 0.3919 0.96671 0.10484 0.0
C787 C 0.40799 0.99513 0.11368 0.0
C788 C 0.40926 0.01129 0.94272 0.0
H789 H 0.45208 0.0925 0.96047 0.0
H790 H 0.44354 0.06763 1.01144 0.0
H791 H 0.40958 0.02629 0.86474 0.0
H792 H 0.38764 0.95555 0.999 0.0
H793 H 0.40257 0.98002 0.94296 0.0
H794 H 0.43763 0.02205 0.08235 0.0
C795 C 0.44308 0.0678 0.95446 0.0
C796 C 0.41603 0.02547 0.91142 0.0
C797 C 0.44788 0.08203 0.92533 0.0
C798 C 0.39333 0.96652 0.03171 0.0
C799 C 0.4018 0.98052 0.99961 0.0
C800 C 0.43144 0.02286 0.03478 0.0
C801 C 0.43704 0.05389 0.91053 0.0
C802 C 0.43052 0.03857 0.9416 0.0
C803 C 0.40901 0.99499 0.04007 0.0
C804 C 0.4168 0.00986 1.00509 0.0
H805 H 0.44021 0.06906 0.75074 0.0
H806 H 0.43207 0.04418 0.80145 0.0
H807 H 0.44955 0.04686 0.02735 0.0
H808 H 0.39853 0.98152 0.20232 0.0
H809 H 0.41328 0.00609 0.14617 0.0
C810 C 0.61512 0.07353 0.85403 0.0
C811 C 0.62662 0.08725 0.89447 0.0
C812 C 0.60699 0.05933 0.88538 0.0
C813 C 0.59967 0.04218 0.0611 0.0
H814 H 0.59398 0.00562 0.9507 0.0
C815 C 0.57484 0.9821 0.17882 0.0
C816 C 0.58178 0.97308 0.15806 0.0
C817 C 0.57824 0.99556 0.14495 0.0
C818 C 0.59561 0.01573 0.98263 0.0
H819 H 0.63842 0.09708 0.9994 0.0
H820 H 0.62482 0.07239 0.05348 0.0
H821 H 0.60355 0.03005 0.89596 0.0
H822 H 0.59784 0.97106 0.08669 0.0
H823 H 0.60436 0.99478 0.02979 0.0
H824 H 0.59275 0.0281 0.14901 0.0
C825 C 0.62161 0.07248 0.99814 0.0
C826 C 0.60083 0.02973 0.95073 0.0
C827 C 0.62954 0.08666 0.96702 0.0
C828 C 0.59227 0.97778 0.10348 0.0
C829 C 0.59585 0.99132 0.07036 0.0
C830 C 0.59467 0.02822 0.0933 0.0
C831 C 0.6104 0.05855 0.95761 0.0
C832 C 0.60321 0.04324 0.98979 0.0
C833 C 0.58882 0.00036 0.09023 0.0
C834 C 0.59285 0.01488 0.05481 0.0
H835 H 0.6126 0.07372 0.79799 0.0
H836 H 0.59821 0.04894 0.85271 0.0
H837 H 0.60102 0.05222 0.09264 0.0
H838 H 0.5666 0.97863 0.22051 0.0
H839 H 0.57242 0.00208 0.16116 0.0
C840 C 0.07547 0.66147 0.20742 0.0
C841 C 0.0887 0.65963 0.19057 0.0
C842 C 0.05957 0.65036 0.18133 0.0
C843 C 0.03742 0.62077 0.03298 0.0
H844 H 0.0001 0.60874 0.14242 0.0
C845 C 0.97186 0.57867 0.91136 0.0
C846 C 0.96034 0.58311 0.926 0.0
C847 C 0.98718 0.58613 0.94918 0.0
C848 C 0.01039 0.61205 0.11104 0.0
H849 H 0.09541 0.64426 0.135 0.0
H850 H 0.06768 0.6249 0.08989 0.0
H851 H 0.0276 0.62525 0.1993 0.0
H852 H 0.95552 0.59847 0.99263 0.0
H853 H 0.98228 0.61166 0.05788 0.0
H854 H 0.0203 0.60798 0.94431 0.0
C855 C 0.06966 0.63505 0.12263 0.0
C856 C 0.02614 0.6215 0.14366 0.0
C857 C 0.08556 0.64613 0.1489 0.0
C858 C 0.9642 0.59481 0.98031 0.0
C859 C 0.9795 0.60229 1.01802 0.0
C860 C 0.02169 0.61138 1.00033 0.0
C861 C 0.05652 0.63716 0.13764 0.0
C862 C 0.03982 0.62613 0.10477 0.0
C863 C 0.99127 0.5982 1.00231 0.0
C864 C 0.00797 0.60708 0.03869 0.0
H865 H 0.07739 0.67169 0.23945 0.0
H866 H 0.04973 0.6524 0.19335 0.0
H867 H 0.04769 0.62432 1.00126 0.0
H868 H 0.96913 0.56961 0.86989 0.0
H869 H 0.99587 0.58254 0.93642 0.0
C870 C 0.39774 0.47504 0.15669 0.0
C871 C 0.38641 0.46773 0.20698 0.0
C872 C 0.40629 0.46811 0.12943 0.0
C873 C 0.40142 0.42897 0.09917 0.0
H874 H 0.44583 0.4515 0.0457 0.0
C875 C 0.43148 0.39629 0.97857 0.0
C876 C 0.44072 0.40261 0.92091 0.0
C877 C 0.42633 0.40493 1.01892 0.0
C878 C 0.43337 0.44506 0.05982 0.0
H879 H 0.37614 0.44802 0.27192 0.0
H880 H 0.3912 0.43615 0.22533 0.0
H881 H 0.43469 0.46568 0.1089 0.0
H882 H 0.45216 0.42301 0.86096 0.0
H883 H 0.44293 0.43807 0.93074 0.0
H884 H 0.39989 0.40843 0.04922 0.0
C885 C 0.39318 0.44702 0.2056 0.0
C886 C 0.427 0.45319 0.09615 0.0
C887 C 0.38462 0.4539 0.23267 0.0
C888 C 0.44503 0.41786 0.90517 0.0
C889 C 0.43982 0.42652 0.94545 0.0
C890 C 0.40774 0.42088 0.06288 0.0
C891 C 0.40371 0.45376 0.15199 0.0
C892 C 0.41093 0.44522 0.11618 0.0
C893 C 0.43024 0.42007 1.00234 0.0
C894 C 0.42379 0.4288 0.04257 0.0
H895 H 0.39941 0.48568 0.13554 0.0
H896 H 0.41426 0.4736 0.08802 0.0
H897 H 0.38887 0.42251 0.11225 0.0
H898 H 0.42812 0.3846 0.99228 0.0
H899 H 0.41924 0.3997 0.06311 0.0
C900 C 0.06204 0.2343 0.52979 0.0
C901 C 0.04883 0.22638 0.57132 0.0
C902 C 0.07488 0.23126 0.5315 0.0
C903 C 0.09663 0.21685 0.64216 0.0
H904 H 0.11705 0.21809 0.46886 0.0
C905 C 0.15693 0.21429 0.63027 0.0
C906 C 0.16869 0.22598 0.59187 0.0
C907 C 0.14086 0.21152 0.62763 0.0
C908 C 0.11152 0.21771 0.5178 0.0
H909 H 0.0388 0.20882 0.6469 0.0
H910 H 0.06149 0.20349 0.65011 0.0
H911 H 0.09135 0.21797 0.46431 0.0
H912 H 0.17257 0.24361 0.51924 0.0
H913 H 0.14483 0.23869 0.51414 0.0
H914 H 0.11714 0.21694 0.69559 0.0
C915 C 0.06179 0.21212 0.61625 0.0
C916 C 0.09676 0.21766 0.51523 0.0
C917 C 0.04874 0.21509 0.61406 0.0
C918 C 0.1639 0.23454 0.54973 0.0
C919 C 0.14791 0.23164 0.54637 0.0
C920 C 0.11144 0.21685 0.6447 0.0
C921 C 0.07504 0.22021 0.57491 0.0
C922 C 0.08936 0.21774 0.57751 0.0
C923 C 0.13617 0.22018 0.58549 0.0
C924 C 0.11931 0.21778 0.58269 0.0
H925 H 0.06259 0.24304 0.49594 0.0
H926 H 0.08495 0.23792 0.49981 0.0
H927 H 0.09132 0.21697 0.69118 0.0
H928 H 0.16022 0.20753 0.6635 0.0
H929 H 0.13209 0.20257 0.65826 0.0
C930 C 0.8041 0.96402 0.57572 0.0
C931 C 0.80757 0.97421 0.52172 0.0
C932 C 0.8059 0.95089 0.56755 0.0
C933 C 0.80682 0.9228 0.4369 0.0
H934 H 0.82454 0.91256 0.60059 0.0
C935 C 0.81182 0.8659 0.44619 0.0
C936 C 0.80663 0.85812 0.50807 0.0
C937 C 0.81364 0.88085 0.44103 0.0
C938 C 0.81951 0.91519 0.55437 0.0
H939 H 0.81554 0.97849 0.41607 0.0
H940 H 0.81863 0.95523 0.4013 0.0
H941 H 0.82486 0.93732 0.60342 0.0
H942 H 0.79918 0.85984 0.61256 0.0
H943 H 0.80235 0.8856 0.60378 0.0
H944 H 0.80116 0.90036 0.38862 0.0
C945 C 0.81452 0.95754 0.4502 0.0
C946 C 0.8197 0.92942 0.55598 0.0
C947 C 0.81283 0.97088 0.45871 0.0
C948 C 0.80329 0.86553 0.56428 0.0
C949 C 0.80521 0.88039 0.55939 0.0
C950 C 0.80663 0.90847 0.43527 0.0
C951 C 0.81117 0.94744 0.50492 0.0
C952 C 0.81293 0.93324 0.49817 0.0
C953 C 0.81049 0.88833 0.498 0.0
C954 C 0.81255 0.9043 0.49489 0.0
H955 H 0.79993 0.96617 0.6248 0.0
H956 H 0.80289 0.94327 0.61029 0.0
H957 H 0.80148 0.92536 0.39149 0.0
H958 H 0.81444 0.86044 0.40193 0.0
H959 H 0.81775 0.88665 0.39301 0.0
C960 C 0.05444 0.87524 0.59526 0.0
C961 C 0.05015 0.86248 0.54594 0.0
C962 C 0.06847 0.88979 0.58931 0.0
C963 C 0.10844 0.90652 0.51434 0.0
H964 H 0.11101 0.94653 0.55385 0.0
C965 C 0.16674 0.96395 0.47039 0.0
C966 C 0.17205 0.97694 0.51972 0.0
C967 C 0.15129 0.9507 0.47135 0.0
C968 C 0.11058 0.93547 0.54341 0.0
H969 H 0.05684 0.85512 0.4503 0.0
H970 H 0.08119 0.88044 0.43958 0.0
H971 H 0.08504 0.92223 0.55896 0.0
H972 H 0.16494 0.98623 0.60786 0.0
H973 H 0.13799 0.96292 0.61054 0.0
H974 H 0.1339 0.91954 0.50021 0.0
C975 C 0.07388 0.87921 0.48343 0.0
C976 C 0.09565 0.92152 0.54618 0.0
C977 C 0.05984 0.86472 0.48921 0.0
C978 C 0.16124 0.97647 0.56889 0.0
C979 C 0.14575 0.96309 0.57027 0.0
C980 C 0.12333 0.9204 0.512 0.0
C981 C 0.07858 0.89187 0.53415 0.0
C982 C 0.09437 0.90685 0.53121 0.0
C983 C 0.14066 0.94989 0.5222 0.0
C984 C 0.12464 0.93512 0.52595 0.0
H985 H 0.04725 0.87385 0.63972 0.0
H986 H 0.07175 0.89922 0.62954 0.0
H987 H 0.10805 0.89547 0.50412 0.0
H988 H 0.17462 0.96393 0.43108 0.0
H989 H 0.14772 0.94101 0.43217 0.0
C990 C 0.20305 0.16994 0.69252 0.0
C991 C 0.21042 0.1792 0.63664 0.0
C992 C 0.20139 0.155 0.69459 0.0
C993 C 0.20014 0.12371 0.5751 0.0
H994 H 0.21266 0.10974 0.74167 0.0
C995 C 0.21764 0.07654 0.55253 0.0
C996 C 0.21136 0.06439 0.59786 0.0
C997 C 0.21568 0.0895 0.56373 0.0
C998 C 0.20887 0.11338 0.69506 0.0
H999 H 0.22214 0.18027 0.54027 0.0
H1000 H 0.21933 0.15458 0.54392 0.0
H1001 H 0.21249 0.13453 0.75 0.0
H1002 H 0.1984 0.05645 0.69174 0.0
H1003 H 0.19508 0.07947 0.71207 0.0
H1004 H 0.19696 0.10296 0.51956 0.0
C1005 C 0.21458 0.15859 0.58564 0.0
C1006 C 0.20877 0.12756 0.69981 0.0
C1007 C 0.21629 0.1734 0.5838 0.0
C1008 C 0.20333 0.06564 0.65588 0.0
C1009 C 0.20147 0.0788 0.66758 0.0
C1010 C 0.20028 0.10966 0.57036 0.0
C1011 C 0.20695 0.14909 0.64043 0.0
C1012 C 0.20489 0.13311 0.63925 0.0
C1013 C 0.20744 0.09076 0.62084 0.0
C1014 C 0.20512 0.10455 0.62966 0.0
H1015 H 0.19845 0.17416 0.73403 0.0
H1016 H 0.19547 0.14797 0.73755 0.0
H1017 H 0.19669 0.12743 0.52781 0.0
H1018 H 0.22398 0.07598 0.50756 0.0
H1019 H 0.22069 0.09862 0.5275 0.0
C1020 C 0.8442 0.07526 0.63305 0.0
C1021 C 0.84184 0.06161 0.59531 0.0
C1022 C 0.8594 0.08895 0.6396 0.0
C1023 C 0.90357 0.10498 0.62632 0.0
H1024 H 0.90327 0.1436 0.60377 0.0
C1025 C 0.96216 0.16501 0.60135 0.0
C1026 C 0.96273 0.17857 0.63106 0.0
C1027 C 0.94804 0.15032 0.60176 0.0
C1028 C 0.90361 0.13298 0.61137 0.0
H1029 H 0.85392 0.05163 0.53645 0.0
H1030 H 0.88064 0.07574 0.54764 0.0
H1031 H 0.87771 0.11882 0.593 0.0
H1032 H 0.94927 0.18731 0.68744 0.0
H1033 H 0.92474 0.16169 0.68951 0.0
H1034 H 0.92958 0.11926 0.64444 0.0
C1035 C 0.87061 0.07573 0.57242 0.0
C1036 C 0.88891 0.11872 0.60494 0.0
C1037 C 0.85529 0.06192 0.5658 0.0
C1038 C 0.94917 0.17707 0.66401 0.0
C1039 C 0.93506 0.16239 0.66453 0.0
C1040 C 0.91834 0.11931 0.63284 0.0
C1041 C 0.87276 0.08948 0.60854 0.0
C1042 C 0.88865 0.10453 0.61288 0.0
C1043 C 0.93416 0.14886 0.63188 0.0
C1044 C 0.91853 0.13352 0.62592 0.0
H1045 H 0.83424 0.0755 0.65737 0.0
H1046 H 0.86066 0.09918 0.66916 0.0
H1047 H 0.90381 0.09429 0.6333 0.0
H1048 H 0.97242 0.16581 0.57532 0.0
H1049 H 0.94779 0.14022 0.57572 0.0
C1050 C 0.96531 0.82185 0.55889 0.0
C1051 C 0.96491 0.80951 0.59447 0.0
C1052 C 0.95184 0.82414 0.55645 0.0
C1053 C 0.9144 0.81407 0.64706 0.0
H1054 H 0.89748 0.81989 0.46838 0.0
C1055 C 0.84774 0.79799 0.59721 0.0
C1056 C 0.8439 0.80779 0.5596 0.0
C1057 C 0.86364 0.80068 0.60346 0.0
C1058 C 0.90219 0.81852 0.51893 0.0
H1059 H 0.95005 0.79009 0.65635 0.0
H1060 H 0.92689 0.79405 0.65193 0.0
H1061 H 0.92352 0.82034 0.47607 0.0
H1062 H 0.85393 0.82819 0.49897 0.0
H1063 H 0.88187 0.83283 0.50961 0.0
H1064 H 0.89296 0.81182 0.68961 0.0
C1065 C 0.93756 0.80206 0.62632 0.0
C1066 C 0.91712 0.81879 0.52335 0.0
C1067 C 0.95088 0.79972 0.62834 0.0
C1068 C 0.85647 0.82043 0.52847 0.0
C1069 C 0.87245 0.82305 0.53422 0.0
C1070 C 0.89953 0.81377 0.64262 0.0
C1071 C 0.93781 0.81425 0.59025 0.0
C1072 C 0.92317 0.81613 0.58708 0.0
C1073 C 0.87621 0.8132 0.57202 0.0
C1074 C 0.89301 0.81557 0.57811 0.0
H1075 H 0.97589 0.82958 0.53207 0.0
H1076 H 0.95244 0.83368 0.52843 0.0
H1077 H 0.91887 0.81234 0.69738 0.0
H1078 H 0.83843 0.78815 0.62199 0.0
H1079 H 0.86603 0.79271 0.63198 0.0
C1080 C 0.82881 0.54598 0.63738 0.0
C1081 C 0.83252 0.53819 0.68852 0.0
C1082 C 0.81296 0.54347 0.62674 0.0
C1083 C 0.77643 0.53136 0.7242 0.0
H1084 H 0.75609 0.53163 0.54292 0.0
C1085 C 0.71325 0.52587 0.70503 0.0
C1086 C 0.71151 0.53634 0.66312 0.0
C1087 C 0.72665 0.52371 0.70046 0.0
C1088 C 0.76164 0.53162 0.594 0.0
H1089 H 0.82246 0.52105 0.76585 0.0
H1090 H 0.7948 0.51647 0.74662 0.0
H1091 H 0.78211 0.53215 0.54841 0.0
H1092 H 0.72196 0.55221 0.58122 0.0
H1093 H 0.74549 0.54863 0.57371 0.0
H1094 H 0.7563 0.53123 0.7702 0.0
C1095 C 0.80413 0.52475 0.71562 0.0
C1096 C 0.77656 0.53191 0.59713 0.0
C1097 C 0.81996 0.52727 0.72628 0.0
C1098 C 0.72298 0.54403 0.61402 0.0
C1099 C 0.73644 0.54192 0.60961 0.0
C1100 C 0.76158 0.5311 0.7211 0.0
C1101 C 0.80052 0.53312 0.66708 0.0
C1102 C 0.78419 0.53189 0.66238 0.0
C1103 C 0.73868 0.53205 0.65414 0.0
C1104 C 0.75401 0.53133 0.65607 0.0
H1105 H 0.83828 0.5545 0.60768 0.0
H1106 H 0.81066 0.5502 0.58929 0.0
H1107 H 0.78209 0.53167 0.77554 0.0
H1108 H 0.70454 0.51973 0.74315 0.0
H1109 H 0.72778 0.51576 0.7345 0.0
C1110 C 0.46417 0.30439 0.64694 0.0
C1111 C 0.47549 0.31753 0.69134 0.0
C1112 C 0.46575 0.29107 0.63956 0.0
C1113 C 0.47374 0.26496 0.61739 0.0
H1114 H 0.48602 0.25435 0.79492 0.0
C1115 C 0.47563 0.20733 0.65005 0.0
C1116 C 0.46904 0.19983 0.7111 0.0
C1117 C 0.47797 0.22232 0.64099 0.0
C1118 C 0.48253 0.2571 0.74486 0.0
H1119 H 0.49797 0.32755 0.75869 0.0
H1120 H 0.50106 0.30455 0.74423 0.0
H1121 H 0.48766 0.27952 0.78842 0.0
H1122 H 0.45947 0.2019 0.80973 0.0
H1123 H 0.46339 0.22775 0.7939 0.0
H1124 H 0.46791 0.24209 0.57507 0.0
C1125 C 0.49067 0.30428 0.71667 0.0
C1126 C 0.4837 0.27168 0.7408 0.0
C1127 C 0.48899 0.31752 0.72455 0.0
C1128 C 0.46466 0.20743 0.76229 0.0
C1129 C 0.46702 0.22231 0.75343 0.0
C1130 C 0.47255 0.25031 0.62152 0.0
C1131 C 0.47877 0.29067 0.67608 0.0
C1132 C 0.47907 0.27574 0.67738 0.0
C1133 C 0.47385 0.23004 0.69311 0.0
C1134 C 0.4766 0.24609 0.6858 0.0
H1135 H 0.45361 0.30407 0.62084 0.0
H1136 H 0.45627 0.28081 0.60834 0.0
H1137 H 0.47024 0.26775 0.56745 0.0
H1138 H 0.4791 0.2017 0.60976 0.0
H1139 H 0.48329 0.22797 0.59399 0.0
C1140 C 0.73349 0.21243 0.78516 0.0
C1141 C 0.71996 0.20422 0.73557 0.0
C1142 C 0.74682 0.22665 0.77052 0.0
C1143 C 0.76771 0.25078 0.62521 0.0
H1144 H 0.78915 0.28323 0.7791 0.0
C1145 C 0.82524 0.3187 0.69574 0.0
C1146 C 0.83751 0.31762 0.66206 0.0
C1147 C 0.80956 0.30568 0.69457 0.0
C1148 C 0.78322 0.27445 0.735 0.0
H1149 H 0.70976 0.20436 0.63146 0.0
H1150 H 0.73312 0.22945 0.60578 0.0
H1151 H 0.76435 0.2592 0.79742 0.0
H1152 H 0.8428 0.30236 0.59747 0.0
H1153 H 0.8155 0.27948 0.59645 0.0
H1154 H 0.78666 0.2662 0.5627 0.0
C1155 C 0.73344 0.22479 0.65588 0.0
C1156 C 0.76908 0.26052 0.7459 0.0
C1157 C 0.72004 0.21048 0.67066 0.0
C1158 C 0.83355 0.30353 0.62363 0.0
C1159 C 0.81787 0.29043 0.62299 0.0
C1160 C 0.78191 0.26479 0.61419 0.0
C1161 C 0.74697 0.23309 0.70591 0.0
C1162 C 0.76128 0.24838 0.69164 0.0
C1163 C 0.80581 0.2912 0.66041 0.0
C1164 C 0.78997 0.27675 0.66928 0.0
H1165 H 0.73383 0.20784 0.83547 0.0
H1166 H 0.75712 0.23252 0.80974 0.0
H1167 H 0.76207 0.24166 0.58232 0.0
H1168 H 0.82793 0.32945 0.7254 0.0
H1169 H 0.8005 0.30686 0.72244 0.0
C1170 C 0.89884 0.509 0.80953 0.0
C1171 C 0.88904 0.51276 0.76636 0.0
C1172 C 0.89651 0.49387 0.80564 0.0
C1173 C 0.88048 0.45765 0.68922 0.0
H1174 H 0.88523 0.44088 0.86346 0.0
C1175 C 0.87919 0.39774 0.69912 0.0
C1176 C 0.89172 0.39839 0.74446 0.0
C1177 C 0.87625 0.41036 0.70012 0.0
C1178 C 0.88392 0.44538 0.81419 0.0
H1179 H 0.86901 0.50334 0.68492 0.0
H1180 H 0.86498 0.47673 0.67779 0.0
H1181 H 0.88473 0.46525 0.86809 0.0
H1182 H 0.91076 0.41286 0.82712 0.0
H1183 H 0.90567 0.4345 0.82875 0.0
H1184 H 0.88008 0.43783 0.63546 0.0
C1185 C 0.8745 0.48564 0.71474 0.0
C1186 C 0.88363 0.45938 0.81686 0.0
C1187 C 0.87674 0.50086 0.71912 0.0
C1188 C 0.90101 0.41185 0.79126 0.0
C1189 C 0.89801 0.42429 0.79265 0.0
C1190 C 0.88079 0.44356 0.68653 0.0
C1191 C 0.88434 0.48196 0.75825 0.0
C1192 C 0.88238 0.46596 0.75448 0.0
C1193 C 0.88563 0.42379 0.74718 0.0
C1194 C 0.88298 0.43749 0.74906 0.0
H1195 H 0.90844 0.51777 0.84666 0.0
H1196 H 0.90451 0.49159 0.83914 0.0
H1197 H 0.87955 0.46239 0.64014 0.0
H1198 H 0.87182 0.3876 0.66226 0.0
H1199 H 0.86658 0.40957 0.6645 0.0
C1200 C 0.51118 0.41468 0.78841 0.0
C1201 C 0.50684 0.39927 0.76523 0.0
C1202 C 0.52648 0.42731 0.77768 0.0
C1203 C 0.56884 0.43938 0.7451 0.0
H1204 H 0.56855 0.47561 0.6773 0.0
C1205 C 0.62799 0.49861 0.69508 0.0
C1206 C 0.62791 0.51213 0.72125 0.0
C1207 C 0.61383 0.48372 0.69386 0.0
C1208 C 0.5689 0.46564 0.69652 0.0
H1209 H 0.51563 0.38513 0.71432 0.0
H1210 H 0.54258 0.40736 0.69626 0.0
H1211 H 0.54289 0.45179 0.68928 0.0
H1212 H 0.61275 0.5203 0.76793 0.0
H1213 H 0.58869 0.49486 0.76605 0.0
H1214 H 0.59502 0.45358 0.75408 0.0
C1215 C 0.53397 0.40955 0.72256 0.0
C1216 C 0.55416 0.45196 0.7034 0.0
C1217 C 0.5185 0.39683 0.73275 0.0
C1218 C 0.61343 0.51031 0.74668 0.0
C1219 C 0.59946 0.49562 0.74525 0.0
C1220 C 0.58371 0.4532 0.73851 0.0
C1221 C 0.538 0.42497 0.7438 0.0
C1222 C 0.55389 0.43879 0.72955 0.0
C1223 C 0.59933 0.48211 0.71819 0.0
C1224 C 0.58389 0.46665 0.71603 0.0
H1225 H 0.50265 0.41711 0.81389 0.0
H1226 H 0.52928 0.439 0.79585 0.0
H1227 H 0.56904 0.42942 0.76529 0.0
H1228 H 0.63891 0.49952 0.67534 0.0
H1229 H 0.61415 0.47352 0.67275 0.0
C1230 C 0.61604 0.14417 0.81257 0.0
C1231 C 0.63099 0.15546 0.78934 0.0
C1232 C 0.60231 0.1458 0.80567 0.0
C1233 C 0.58719 0.17309 0.78484 0.0
H1234 H 0.54748 0.13495 0.71519 0.0
C1235 C 0.52187 0.16647 0.74316 0.0
C1236 C 0.50939 0.15285 0.76909 0.0
C1237 C 0.53774 0.1688 0.7414 0.0
C1238 C 0.55844 0.14571 0.73486 0.0
H1239 H 0.64326 0.17776 0.74306 0.0
H1240 H 0.61902 0.18066 0.73135 0.0
H1241 H 0.57336 0.13549 0.71968 0.0
H1242 H 0.50417 0.13141 0.81662 0.0
H1243 H 0.53138 0.13546 0.81339 0.0
H1244 H 0.57195 0.18314 0.80134 0.0
C1245 C 0.61808 0.17049 0.75468 0.0
C1246 C 0.57328 0.14602 0.73744 0.0
C1247 C 0.63194 0.16881 0.76128 0.0
C1248 C 0.5133 0.14195 0.79524 0.0
C1249 C 0.52896 0.14423 0.79318 0.0
C1250 C 0.5722 0.17278 0.78227 0.0
C1251 C 0.60302 0.1588 0.77546 0.0
C1252 C 0.58778 0.15953 0.76444 0.0
C1253 C 0.54132 0.15749 0.76504 0.0
C1254 C 0.5576 0.1589 0.75924 0.0
H1255 H 0.61476 0.13381 0.83532 0.0
H1256 H 0.59101 0.13675 0.82371 0.0
H1257 H 0.59816 0.18368 0.80581 0.0
H1258 H 0.51932 0.17514 0.72282 0.0
H1259 H 0.54703 0.17918 0.7196 0.0
C1260 C 0.51279 0.91773 0.21216 0.0
C1261 C 0.51595 0.90703 0.24547 0.0
C1262 C 0.49742 0.91631 0.21174 0.0
C1263 C 0.45404 0.88886 0.23152 0.0
H1264 H 0.45298 0.92721 0.26846 0.0
C1265 C 0.39396 0.89099 0.25116 0.0
C1266 C 0.39349 0.90314 0.21745 0.0
C1267 C 0.40845 0.89048 0.25793 0.0
C1268 C 0.45304 0.9164 0.2575 0.0
H1269 H 0.50524 0.88615 0.30301 0.0
H1270 H 0.47829 0.88367 0.30216 0.0
H1271 H 0.47903 0.92806 0.27344 0.0
H1272 H 0.4078 0.92399 0.16257 0.0
H1273 H 0.43274 0.923 0.17386 0.0
H1274 H 0.42795 0.87726 0.21473 0.0
C1275 C 0.48777 0.89316 0.27629 0.0
C1276 C 0.46798 0.91689 0.26035 0.0
C1277 C 0.50322 0.89462 0.27699 0.0
C1278 C 0.4077 0.91454 0.18955 0.0
C1279 C 0.42208 0.91404 0.19636 0.0
C1280 C 0.43902 0.88837 0.22853 0.0
C1281 C 0.48478 0.90413 0.24447 0.0
C1282 C 0.4687 0.9032 0.24611 0.0
C1283 C 0.42273 0.90214 0.23135 0.0
C1284 C 0.4384 0.9022 0.24016 0.0
H1285 H 0.52224 0.92738 0.18696 0.0
H1286 H 0.49543 0.92478 0.18562 0.0
H1287 H 0.4542 0.87812 0.22009 0.0
H1288 H 0.38323 0.882 0.27313 0.0
H1289 H 0.40858 0.88117 0.28532 0.0
C1290 C 0.14552 0.64 0.09776 0.0
C1291 C 0.15756 0.65423 0.13309 0.0
C1292 C 0.1486 0.62774 0.08462 0.0
C1293 C 0.15881 0.60379 0.04856 0.0
H1294 H 0.17966 0.59759 0.21433 0.0
C1295 C 0.16276 0.54733 0.07975 0.0
C1296 C 0.15809 0.54103 0.14504 0.0
C1297 C 0.16538 0.56233 0.06899 0.0
C1298 C 0.17388 0.59918 0.16743 0.0
H1299 H 0.18265 0.66731 0.17748 0.0
H1300 H 0.18818 0.646 0.15345 0.0
H1301 H 0.17949 0.62197 0.20777 0.0
H1302 H 0.15258 0.54538 0.25018 0.0
H1303 H 0.1571 0.57133 0.23164 0.0
H1304 H 0.15243 0.58052 1.01034 0.0
C1305 C 0.17623 0.64416 0.1372 0.0
C1306 C 0.17395 0.61326 0.16321 0.0
C1307 C 0.17311 0.6564 0.15058 0.0
C1308 C 0.15622 0.54996 0.19935 0.0
C1309 C 0.15893 0.56489 0.18888 0.0
C1310 C 0.15874 0.58967 0.05282 0.0
C1311 C 0.16382 0.62949 0.10637 0.0
C1312 C 0.16601 0.61559 0.10467 0.0
C1313 C 0.16354 0.57128 0.12369 0.0
C1314 C 0.16583 0.58704 0.11339 0.0
H1315 H 0.13342 0.63802 0.08364 0.0
H1316 H 0.13871 0.6166 0.06137 0.0
H1317 H 0.15277 0.60529 1.0023 0.0
H1318 H 0.16427 0.54065 0.03704 0.0
H1319 H 0.16894 0.56697 1.01822 0.0
C1320 C 0.50017 0.6595 0.23729 0.0
C1321 C 0.51254 0.65867 0.20308 0.0
C1322 C 0.48399 0.64703 0.22744 0.0
C1323 C 0.4566 0.61078 0.1102 0.0
H1324 H 0.43364 0.59562 0.27799 0.0
C1325 C 0.40816 0.54632 0.13371 0.0
C1326 C 0.3946 0.54306 0.17119 0.0
C1327 C 0.42056 0.56181 0.12945 0.0
C1328 C 0.43975 0.59984 0.23038 0.0
H1329 H 0.51744 0.64427 0.12981 0.0
H1330 H 0.4897 0.62279 0.11386 0.0
H1331 H 0.45905 0.62072 0.28646 0.0
H1332 H 0.38296 0.55335 0.2312 0.0
H1333 H 0.4047 0.58042 0.2242 0.0
H1334 H 0.43768 0.58953 0.05491 0.0
C1335 C 0.49228 0.63303 0.14756 0.0
C1336 C 0.4543 0.61426 0.2352 0.0
C1337 C 0.50831 0.64536 0.15747 0.0
C1338 C 0.39331 0.55555 0.20195 0.0
C1339 C 0.40578 0.57103 0.19832 0.0
C1340 C 0.44214 0.59633 0.10552 0.0
C1341 C 0.47991 0.6336 0.18277 0.0
C1342 C 0.46316 0.61969 0.17557 0.0
C1343 C 0.41968 0.5743 0.16316 0.0
C1344 C 0.43378 0.59052 0.16591 0.0
H1345 H 0.50301 0.6696 0.27264 0.0
H1346 H 0.47472 0.64787 0.25506 0.0
H1347 H 0.46292 0.61478 0.06287 0.0
H1348 H 0.40946 0.5369 0.10969 0.0
H1349 H 0.43119 0.56395 0.10249 0.0
C1350 C 0.53155 0.73896 0.27518 0.0
C1351 C 0.54383 0.73813 0.31522 0.0
C1352 C 0.52953 0.75194 0.28524 0.0
C1353 C 0.54188 0.78806 0.40245 0.0
H1354 H 0.53615 0.80369 0.22639 0.0
C1355 C 0.55588 0.85185 0.37412 0.0
C1356 C 0.54569 0.85389 0.3252 0.0
C1357 C 0.55367 0.8369 0.38155 0.0
C1358 C 0.53748 0.79939 0.27621 0.0
H1359 H 0.5631 0.74973 0.39965 0.0
H1360 H 0.55985 0.77262 0.41636 0.0
H1361 H 0.53558 0.77891 0.22415 0.0
H1362 H 0.52465 0.84196 0.24896 0.0
H1363 H 0.52065 0.81593 0.26253 0.0
H1364 H 0.54426 0.80895 0.45405 0.0
C1365 C 0.55159 0.76318 0.37785 0.0
C1366 C 0.53712 0.78512 0.27496 0.0
C1367 C 0.55351 0.7501 0.36813 0.0
C1368 C 0.53277 0.84072 0.28664 0.0
C1369 C 0.53053 0.82582 0.29414 0.0
C1370 C 0.5423 0.80243 0.40367 0.0
C1371 C 0.53988 0.76446 0.33505 0.0
C1372 C 0.53936 0.77927 0.33795 0.0
C1373 C 0.54123 0.82378 0.34016 0.0
C1374 C 0.54014 0.80826 0.34045 0.0
H1375 H 0.52383 0.72981 0.2344 0.0
H1376 H 0.52013 0.75237 0.25251 0.0
H1377 H 0.54352 0.78384 0.45199 0.0
H1378 H 0.56594 0.86185 0.40444 0.0
H1379 H 0.56216 0.83572 0.41719 0.0
C1380 C 0.30438 0.834 0.22511 0.0
C1381 C 0.30658 0.8474 0.26415 0.0
C1382 C 0.29073 0.81937 0.2321 0.0
C1383 C 0.25619 0.79758 0.34267 0.0
H1384 H 0.23478 0.77275 0.16587 0.0
C1385 C 0.18914 0.74712 0.31272 0.0
C1386 C 0.18521 0.73366 0.2688 0.0
C1387 C 0.20483 0.76021 0.31733 0.0
C1388 C 0.24072 0.7794 0.21586 0.0
H1389 H 0.29667 0.85603 0.34309 0.0
H1390 H 0.27263 0.83051 0.35464 0.0
H1391 H 0.26071 0.79697 0.16576 0.0
H1392 H 0.1949 0.72331 0.19664 0.0
H1393 H 0.22227 0.74614 0.20487 0.0
H1394 H 0.23589 0.78008 0.39234 0.0
C1395 C 0.28153 0.83121 0.31927 0.0
C1396 C 0.25562 0.7933 0.21586 0.0
C1397 C 0.29526 0.84585 0.31253 0.0
C1398 C 0.19745 0.73348 0.23077 0.0
C1399 C 0.21313 0.7466 0.2352 0.0
C1400 C 0.24123 0.78366 0.34261 0.0
C1401 C 0.27892 0.81785 0.27793 0.0
C1402 C 0.2635 0.80263 0.27917 0.0
C1403 C 0.21695 0.76017 0.27798 0.0
C1404 C 0.23327 0.77448 0.27909 0.0
H1405 H 0.313 0.83487 0.18773 0.0
H1406 H 0.28929 0.80929 0.20056 0.0
H1407 H 0.26202 0.80437 0.39246 0.0
H1408 H 0.18004 0.74769 0.34293 0.0
H1409 H 0.20732 0.77053 0.35017 0.0
C1410 C 0.29617 0.47672 0.23962 0.0
C1411 C 0.31162 0.48859 0.22364 0.0
C1412 C 0.28262 0.47855 0.23086 0.0
C1413 C 0.26903 0.50705 0.22178 0.0
H1414 H 0.22926 0.47083 0.13706 0.0
C1415 C 0.20554 0.50344 0.1811 0.0
C1416 C 0.19252 0.48962 0.20297 0.0
C1417 C 0.22107 0.50514 0.17858 0.0
C1418 C 0.24027 0.48105 0.16085 0.0
H1419 H 0.32492 0.51193 0.18743 0.0
H1420 H 0.30099 0.51514 0.17249 0.0
H1421 H 0.25475 0.47056 0.14058 0.0
H1422 H 0.18584 0.467 0.24164 0.0
H1423 H 0.21265 0.46998 0.23707 0.0
H1424 H 0.25427 0.51734 0.24338 0.0
C1425 C 0.29953 0.50441 0.19163 0.0
C1426 C 0.25485 0.48089 0.16287 0.0
C1427 C 0.31319 0.50253 0.19999 0.0
C1428 C 0.19548 0.47777 0.22393 0.0
C1429 C 0.21086 0.47942 0.22097 0.0
C1430 C 0.25434 0.50721 0.21968 0.0
C1431 C 0.28407 0.49231 0.20607 0.0
C1432 C 0.26928 0.49367 0.19533 0.0
C1433 C 0.22375 0.49298 0.19723 0.0
C1434 C 0.23974 0.49399 0.19116 0.0
H1435 H 0.29443 0.46585 0.25831 0.0
H1436 H 0.27092 0.46915 0.24378 0.0
H1437 H 0.27999 0.51706 0.24712 0.0
H1438 H 0.20368 0.51282 0.1648 0.0
H1439 H 0.23083 0.51573 0.16023 0.0
C1440 C 0.01559 0.24638 0.34515 0.0
C1441 C 0.00399 0.23181 0.36691 0.0
C1442 C 0.01786 0.24848 0.27275 0.0
C1443 C 0.00907 0.22551 0.09663 0.0
H1444 H 0.01886 0.26466 0.02067 0.0
C1445 C 0.00933 0.23312 0.79243 0.0
C1446 C 0.02162 0.24744 0.77128 0.0
C1447 C 0.00702 0.23096 0.86476 0.0
C1448 C 0.01627 0.25366 0.04092 0.0
H1449 H 0.98536 0.20816 0.32922 0.0
H1450 H 0.98897 0.21184 0.20473 0.0
H1451 H 0.01567 0.26186 0.1466 0.0
H1452 H 0.04122 0.27061 0.80965 0.0
H1453 H 0.03733 0.26687 0.93413 0.0
H1454 H 0.00958 0.21729 0.99076 0.0
C1455 C 0.99672 0.22161 0.24279 0.0
C1456 C 0.01448 0.25208 0.11358 0.0
C1457 C 0.99454 0.21953 0.31463 0.0
C1458 C 0.03158 0.25943 0.8239 0.0
C1459 C 0.02926 0.25733 0.89563 0.0
C1460 C 0.0108 0.22708 0.02394 0.0
C1461 C 0.00851 0.23605 0.22036 0.0
C1462 C 0.01083 0.23796 0.14278 0.0
C1463 C 0.01689 0.24312 0.91747 0.0
C1464 C 0.01448 0.24119 0.99486 0.0
H1465 H 0.02292 0.25611 0.38382 0.0
H1466 H 0.02712 0.25979 0.25803 0.0
H1467 H 0.00656 0.21453 0.11676 0.0
H1468 H 0.00144 0.22367 0.75322 0.0
H1469 H 0.9973 0.21987 0.8793 0.0
C1470 C 0.80247 0.80323 0.31629 0.0
C1471 C 0.78887 0.7903 0.34047 0.0
C1472 C 0.80378 0.805 0.24348 0.0
C1473 C 0.78767 0.78187 0.06831 0.0
H1474 H 0.80622 0.82268 0.99464 0.0
C1475 C 0.7862 0.78999 0.76646 0.0
C1476 C 0.79994 0.80275 0.7422 0.0
C1477 C 0.78489 0.78821 0.83926 0.0
C1478 C 0.80117 0.81119 1.01427 0.0
H1479 H 0.76575 0.76943 0.30747 0.0
H1480 H 0.76787 0.77261 0.1815 0.0
H1481 H 0.80393 0.82053 0.12134 0.0
H1482 H 0.82331 0.82335 0.77511 0.0
H1483 H 0.82115 0.82017 0.90114 0.0
H1484 H 0.78488 0.77253 0.96117 0.0
C1485 C 0.77774 0.78122 0.2181 0.0
C1486 C 0.79987 0.80996 0.08719 0.0
C1487 C 0.77646 0.77945 0.29055 0.0
C1488 C 0.8125 0.81344 0.79206 0.0
C1489 C 0.8112 0.81168 0.86453 0.0
C1490 C 0.78896 0.7831 0.99538 0.0
C1491 C 0.79152 0.79388 0.19325 0.0
C1492 C 0.79308 0.79528 0.11538 0.0
C1493 C 0.7973 0.79917 0.8894 0.0
C1494 C 0.79575 0.79778 0.96723 0.0
H1495 H 0.81225 0.81176 0.35349 0.0
H1496 H 0.81463 0.81486 0.22656 0.0
H1497 H 0.78264 0.77038 0.08789 0.0
H1498 H 0.77629 0.7816 0.72937 0.0
H1499 H 0.77396 0.77847 0.85628 0.0
C1500 C 0.20337 0.01581 0.28456 0.0
C1501 C 0.21427 0.01422 0.33142 0.0
C1502 C 0.20459 0.01527 0.21134 0.0
C1503 C 0.23336 0.01812 0.07587 0.0
H1504 H 0.19474 0.00241 0.94616 0.0
C1505 C 0.23245 0.00323 0.77641 0.0
C1506 C 0.22437 0.00796 0.72827 0.0
C1507 C 0.23155 0.00494 0.84933 0.0
C1508 C 0.20568 0.00701 0.98164 0.0
H1509 H 0.23491 0.0106 0.33733 0.0
H1510 H 0.2366 0.00883 0.20979 0.0
H1511 H 0.19222 0.00248 0.07321 0.0
H1512 H 0.20896 0.0182 0.71907 0.0
H1513 H 0.20707 0.02092 0.8473 0.0
H1514 H 0.24668 0.02207 0.98364 0.0
C1515 C 0.22733 0.01097 0.22941 0.0
C1516 C 0.20427 0.00709 0.05492 0.0
C1517 C 0.22624 0.01175 0.30291 0.0
C1518 C 0.21539 0.01454 0.75489 0.0
C1519 C 0.21424 0.016 0.82823 0.0
C1520 C 0.23472 0.01781 1.00264 0.0
C1521 C 0.21662 0.01289 0.18223 0.0
C1522 C 0.21809 0.01265 0.1035 0.0
C1523 C 0.22231 0.01118 0.87641 0.0
C1524 C 0.2209 0.01223 0.95446 0.0
H1525 H 0.19405 0.01784 0.30459 0.0
H1526 H 0.19626 0.0171 0.17783 0.0
H1527 H 0.2444 0.02284 0.1107 0.0
H1528 H 0.23944 0.99808 0.75763 0.0
H1529 H 0.23779 0.00096 0.88455 0.0
C1530 C 0.99724 0.79353 0.81794 0.0
C1531 C 0.01231 0.80424 0.79374 0.0
C1532 C 0.99551 0.79192 0.89075 0.0
C1533 C 0.01988 0.80232 0.06773 0.0
H1534 H 0.97878 0.79298 0.13972 0.0
C1535 C 0.0111 0.80431 0.37051 0.0
C1536 C 0.99695 0.79147 0.39174 0.0
C1537 C 0.01324 0.80651 0.29815 0.0
C1538 C 0.99034 0.79554 0.12055 0.0
H1539 H 0.0374 0.82155 0.82733 0.0
H1540 H 0.03434 0.81915 0.95308 0.0
H1541 H 0.98185 0.79499 1.01348 0.0
H1542 H 0.9739 0.77102 0.35371 0.0
H1543 H 0.97744 0.77498 0.22882 0.0
H1544 H 0.02838 0.80312 0.17551 0.0
C1545 C 0.02386 0.81165 0.91655 0.0
C1546 C 0.99209 0.79659 0.0477 0.0
C1547 C 0.02562 0.81312 0.84398 0.0
C1548 C 0.98492 0.78109 0.33925 0.0
C1549 C 0.98692 0.7834 0.26743 0.0
C1550 C 0.01818 0.80145 0.14072 0.0
C1551 C 0.00876 0.80109 0.94149 0.0
C1552 C 0.00686 0.79991 1.01977 0.0
C1553 C 0.00115 0.79605 0.24557 0.0
C1554 C 0.00334 0.79793 0.1682 0.0
H1555 H 0.98675 0.78649 0.78066 0.0
H1556 H 0.98373 0.78342 0.90708 0.0
H1557 H 0.03139 0.80462 0.04896 0.0
H1558 H 0.02067 0.81238 0.40954 0.0
H1559 H 0.02434 0.81642 0.28334 0.0
C1560 C 0.20157 0.22179 0.35372 0.0
C1561 C 0.21378 0.23281 0.40387 0.0
C1562 C 0.20288 0.22363 0.28126 0.0
C1563 C 0.2241 0.25284 0.15113 0.0
H1564 H 0.21117 0.21596 0.0244 0.0
C1565 C 0.23655 0.25761 0.85541 0.0
C1566 C 0.22455 0.24627 0.80554 0.0
C1567 C 0.2354 0.2558 0.92796 0.0
C1568 C 0.21465 0.22637 0.05872 0.0
H1569 H 0.23688 0.25458 0.41709 0.0
H1570 H 0.23919 0.25788 0.29039 0.0
H1571 H 0.20883 0.2135 0.1509 0.0
H1572 H 0.20206 0.22393 0.79276 0.0
H1573 H 0.19989 0.22079 0.91956 0.0
H1574 H 0.22984 0.26571 0.05902 0.0
C1575 C 0.2285 0.24782 0.30712 0.0
C1576 C 0.21332 0.22496 0.13157 0.0
C1577 C 0.22721 0.24594 0.37984 0.0
C1578 C 0.21152 0.23287 0.82988 0.0
C1579 C 0.21033 0.23106 0.90268 0.0
C1580 C 0.22539 0.25424 0.07826 0.0
C1581 C 0.21644 0.23658 0.2567 0.0
C1582 C 0.218 0.23817 0.17892 0.0
C1583 C 0.22217 0.2426 0.95292 0.0
C1584 C 0.22071 0.24103 0.03084 0.0
H1585 H 0.19102 0.21158 0.37047 0.0
H1586 H 0.19319 0.21488 0.2444 0.0
H1587 H 0.2276 0.26324 0.18558 0.0
H1588 H 0.24682 0.26802 0.83838 0.0
H1589 H 0.24495 0.26478 0.96452 0.0
C1590 C 0.77484 0.0209 0.32241 0.0
C1591 C 0.78774 0.02318 0.37015 0.0
C1592 C 0.77613 0.02038 0.24946 0.0
C1593 C 0.80667 0.03305 0.11689 0.0
H1594 H 0.76942 0.00468 0.98755 0.0
C1595 C 0.81194 0.0253 0.8175 0.0
C1596 C 0.79899 0.02279 0.76953 0.0
C1597 C 0.81058 0.02576 0.89039 0.0
C1598 C 0.77989 0.01284 0.02277 0.0
H1599 H 0.81199 0.02627 0.37875 0.0
H1600 H 0.81428 0.02526 0.25075 0.0
H1601 H 0.76711 0.00377 0.11468 0.0
H1602 H 0.77453 0.01918 0.7605 0.0
H1603 H 0.77215 0.02019 0.88837 0.0
H1604 H 0.81945 0.04216 0.02505 0.0
C1605 C 0.8032 0.02408 0.26992 0.0
C1606 C 0.77858 0.01229 0.09588 0.0
C1607 C 0.80186 0.02453 0.34322 0.0
C1608 C 0.78472 0.02113 0.79619 0.0
C1609 C 0.78333 0.02157 0.86945 0.0
C1610 C 0.80798 0.03362 0.04379 0.0
C1611 C 0.79039 0.02214 0.22204 0.0
C1612 C 0.79195 0.02239 0.14403 0.0
C1613 C 0.7962 0.02374 0.91758 0.0
C1614 C 0.79461 0.02351 0.99561 0.0
H1615 H 0.76378 0.0198 0.34151 0.0
H1616 H 0.76609 0.01905 0.2146 0.0
H1617 H 0.81714 0.04121 0.15214 0.0
H1618 H 0.8231 0.02661 0.79864 0.0
H1619 H 0.82067 0.02725 0.92537 0.0
C1620 C 0.66285 0.55915 0.9535 0.0
C1621 C 0.67767 0.5622 0.92743 0.0
C1622 C 0.66115 0.55922 0.02666 0.0
C1623 C 0.68548 0.57113 0.20446 0.0
H1624 H 0.64345 0.54279 0.27077 0.0
C1625 C 0.67559 0.56041 0.50362 0.0
C1626 C 0.66205 0.56081 0.52798 0.0
C1627 C 0.67776 0.56028 0.43076 0.0
C1628 C 0.65527 0.55083 0.25322 0.0
H1629 H 0.70235 0.5678 0.9582 0.0
H1630 H 0.69932 0.56742 0.08452 0.0
H1631 H 0.64664 0.54351 0.14439 0.0
H1632 H 0.64012 0.56116 0.49488 0.0
H1633 H 0.64368 0.56057 0.36882 0.0
H1634 H 0.69409 0.57814 0.314 0.0
C1635 C 0.68904 0.56537 0.04929 0.0
C1636 C 0.65711 0.55134 0.18032 0.0
C1637 C 0.69077 0.56549 0.97635 0.0
C1638 C 0.65065 0.56079 0.47793 0.0
C1639 C 0.65266 0.5604 0.40546 0.0
C1640 C 0.68368 0.57045 0.27745 0.0
C1641 C 0.67417 0.56214 0.07598 0.0
C1642 C 0.67222 0.56158 0.15441 0.0
C1643 C 0.6663 0.56026 0.38064 0.0
C1644 C 0.66851 0.56038 0.30291 0.0
H1645 H 0.6525 0.55655 0.91734 0.0
H1646 H 0.64958 0.55699 0.04436 0.0
H1647 H 0.69727 0.5794 0.18749 0.0
H1648 H 0.68466 0.56058 0.54083 0.0
H1649 H 0.68838 0.56011 0.41359 0.0
C1650 C 0.44229 0.12129 0.50997 0.0
C1651 C 0.45406 0.13276 0.56014 0.0
C1652 C 0.44345 0.12318 0.43744 0.0
C1653 C 0.46349 0.153 0.30731 0.0
H1654 H 0.45151 0.11654 0.17927 0.0
C1655 C 0.47615 0.15843 1.01153 0.0
C1656 C 0.4642 0.14713 0.96134 0.0
C1657 C 0.47497 0.15652 0.08405 0.0
C1658 C 0.45474 0.12683 0.21401 0.0
H1659 H 0.47618 0.1554 0.57332 0.0
H1660 H 0.47835 0.15871 0.44662 0.0
H1661 H 0.44942 0.11384 0.30575 0.0
H1662 H 0.44171 0.12478 0.9482 0.0
H1663 H 0.43959 0.12139 0.07489 0.0
H1664 H 0.46885 0.166 0.21554 0.0
C1665 C 0.46808 0.14826 0.46325 0.0
C1666 C 0.45353 0.12529 0.28688 0.0
C1667 C 0.46689 0.14636 0.53603 0.0
C1668 C 0.45116 0.13368 0.98546 0.0
C1669 C 0.44999 0.13174 0.0582 0.0
C1670 C 0.46472 0.15455 0.23445 0.0
C1671 C 0.45645 0.13662 0.41273 0.0
C1672 C 0.45786 0.13834 0.33478 0.0
C1673 C 0.4618 0.14322 0.1087 0.0
C1674 C 0.46038 0.14149 0.18659 0.0
H1675 H 0.43218 0.11072 0.52676 0.0
H1676 H 0.43406 0.11409 0.40069 0.0
H1677 H 0.4667 0.16329 0.34198 0.0
H1678 H 0.48641 0.16889 0.99478 0.0
H1679 H 0.48447 0.16549 0.12086 0.0
C1680 C 0.89031 0.34147 0.97438 0.0
C1681 C 0.89918 0.35432 0.93447 0.0
C1682 C 0.89191 0.34325 0.04845 0.0
C1683 C 0.91947 0.36802 0.20205 0.0
H1684 H 0.8805 0.34969 0.30384 0.0
C1685 C 0.92376 0.38077 0.50414 0.0
C1686 C 0.91279 0.36921 0.54525 0.0
C1687 C 0.92163 0.37887 0.43029 0.0
C1688 C 0.89156 0.3547 0.27669 0.0
H1689 H 0.91692 0.37912 0.94152 0.0
H1690 H 0.9201 0.38216 0.07127 0.0
H1691 H 0.87812 0.3466 0.1749 0.0
H1692 H 0.89083 0.34654 0.54089 0.0
H1693 H 0.88729 0.34285 0.41131 0.0
H1694 H 0.93302 0.3757 0.30297 0.0
C1695 C 0.91179 0.3707 0.04497 0.0
C1696 C 0.89017 0.35298 0.20243 0.0
C1697 C 0.90999 0.36897 0.97062 0.0
C1698 C 0.89943 0.3557 0.51059 0.0
C1699 C 0.89741 0.35365 0.43614 0.0
C1700 C 0.92089 0.36955 0.27621 0.0
C1701 C 0.90261 0.35788 0.08488 0.0
C1702 C 0.9041 0.3597 0.16407 0.0
C1703 C 0.9086 0.36518 0.39466 0.0
C1704 C 0.90696 0.36304 0.31501 0.0
H1705 H 0.88187 0.33002 0.94832 0.0
H1706 H 0.88481 0.33309 0.0773 0.0
H1707 H 0.93047 0.37313 0.17438 0.0
H1708 H 0.93411 0.3914 0.52921 0.0
H1709 H 0.93027 0.38828 0.40125 0.0
C1710 C 0.67295 0.13938 0.02149 0.0
C1711 C 0.67287 0.1523 0.994 0.0
C1712 C 0.67198 0.13731 0.0943 0.0
C1713 C 0.67866 0.15935 0.26986 0.0
H1714 H 0.65321 0.11803 0.33584 0.0
C1715 C 0.66688 0.15015 0.56749 0.0
C1716 C 0.66593 0.13678 0.5948 0.0
C1717 C 0.66793 0.15216 0.49465 0.0
C1718 C 0.66058 0.12967 0.31872 0.0
H1719 H 0.67158 0.17311 0.02187 0.0
H1720 H 0.66985 0.16953 0.14793 0.0
H1721 H 0.65457 0.12104 0.20937 0.0
H1722 H 0.66576 0.11522 0.56691 0.0
H1723 H 0.6679 0.11879 0.44105 0.0
H1724 H 0.68477 0.16799 0.37906 0.0
C1725 C 0.67084 0.16103 0.11375 0.0
C1726 C 0.66134 0.13139 0.24572 0.0
C1727 C 0.67172 0.16304 0.04112 0.0
C1728 C 0.66635 0.12562 0.54768 0.0
C1729 C 0.66745 0.12763 0.47509 0.0
C1730 C 0.67795 0.15762 0.34286 0.0
C1731 C 0.67103 0.14818 0.14177 0.0
C1732 C 0.67036 0.14627 0.21998 0.0
C1733 C 0.66812 0.14086 0.44703 0.0
C1734 C 0.66889 0.14275 0.36869 0.0
H1735 H 0.67404 0.13099 0.98696 0.0
H1736 H 0.67234 0.12735 0.11358 0.0
H1737 H 0.68597 0.17098 0.25256 0.0
H1738 H 0.66653 0.15896 0.60223 0.0
H1739 H 0.66824 0.16244 0.47558 0.0
C1740 C 0.90489 0.55963 1.00633 0.0
C1741 C 0.89337 0.56288 0.97433 0.0
C1742 C 0.90686 0.55986 0.08037 0.0
C1743 C 0.88502 0.55571 0.24204 0.0
H1744 H 0.92808 0.57611 0.34071 0.0
C1745 C 0.89449 0.5623 0.55124 0.0
C1746 C 0.90827 0.5625 0.58284 0.0
C1747 C 0.89239 0.5623 0.47724 0.0
C1748 C 0.9159 0.57007 0.31441 0.0
H1749 H 0.87494 0.56898 0.9955 0.0
H1750 H 0.87818 0.56914 0.12388 0.0
H1751 H 0.92523 0.57597 0.21271 0.0
H1752 H 0.93036 0.56237 0.56133 0.0
H1753 H 0.92644 0.56164 0.43384 0.0
H1754 H 0.87562 0.54944 0.34314 0.0
C1755 C 0.88571 0.56641 0.09198 0.0
C1756 C 0.91431 0.57008 0.24053 0.0
C1757 C 0.88394 0.56642 1.01823 0.0
C1758 C 0.91965 0.56234 0.5388 0.0
C1759 C 0.91746 0.56209 0.46523 0.0
C1760 C 0.88661 0.5555 0.31591 0.0
C1761 C 0.89715 0.56308 0.12425 0.0
C1762 C 0.89885 0.56292 0.20319 0.0
C1763 C 0.90393 0.56231 0.43285 0.0
C1764 C 0.90209 0.56266 0.35359 0.0
H1765 H 0.91228 0.55675 0.97414 0.0
H1766 H 0.91573 0.55716 0.10322 0.0
H1767 H 0.87291 0.54994 0.2151 0.0
H1768 H 0.88557 0.56257 0.58374 0.0
H1769 H 0.88188 0.56266 0.4552 0.0
C1770 C 0.45282 0.34278 1.01291 0.0
C1771 C 0.45698 0.35548 0.97145 0.0
C1772 C 0.45261 0.34447 0.0865 0.0
C1773 C 0.46632 0.37492 0.24094 0.0
H1774 H 0.43723 0.33891 0.33878 0.0
C1775 C 0.45384 0.37956 0.53548 0.0
C1776 C 0.45373 0.36847 0.57953 0.0
C1777 C 0.4547 0.37801 0.4623 0.0
C1778 C 0.44555 0.34906 0.31245 0.0
H1779 H 0.46421 0.38002 0.97573 0.0
H1780 H 0.46302 0.38286 0.10352 0.0
H1781 H 0.43712 0.33642 0.2107 0.0
H1782 H 0.45431 0.3469 0.58061 0.0
H1783 H 0.45546 0.34393 0.45202 0.0
H1784 H 0.47422 0.38763 0.34327 0.0
C1785 C 0.46033 0.37159 0.07964 0.0
C1786 C 0.44557 0.34765 0.23847 0.0
C1787 C 0.46082 0.36995 1.00581 0.0
C1788 C 0.45442 0.35567 0.54828 0.0
C1789 C 0.455 0.35395 0.47454 0.0
C1790 C 0.46608 0.37638 0.31481 0.0
C1791 C 0.45629 0.35887 0.12158 0.0
C1792 C 0.45602 0.36053 0.2011 0.0
C1793 C 0.45521 0.36515 0.4305 0.0
C1794 C 0.45573 0.36346 0.35175 0.0
H1795 H 0.44993 0.33148 0.98853 0.0
H1796 H 0.44984 0.33442 0.1158 0.0
H1797 H 0.47481 0.3851 0.21543 0.0
H1798 H 0.4533 0.38956 0.55768 0.0
H1799 H 0.45466 0.38677 0.43032 0.0
C1800 C 0.35463 0.90328 0.42925 0.0
C1801 C 0.35437 0.91608 0.40139 0.0
C1802 C 0.35368 0.90132 0.50211 0.0
C1803 C 0.35939 0.92343 0.67692 0.0
H1804 H 0.3357 0.88198 0.74359 0.0
C1805 C 0.34728 0.91339 0.9741 0.0
C1806 C 0.34806 0.90079 1.00148 0.0
C1807 C 0.34812 0.91547 0.90128 0.0
C1808 C 0.34254 0.89366 0.72615 0.0
H1809 H 0.35252 0.93663 0.42818 0.0
H1810 H 0.35064 0.93313 0.55411 0.0
H1811 H 0.33693 0.88491 0.61707 0.0
H1812 H 0.35057 0.88066 0.97373 0.0
H1813 H 0.35213 0.88428 0.84789 0.0
H1814 H 0.36497 0.93217 0.78612 0.0
C1815 C 0.35193 0.92474 0.52046 0.0
C1816 C 0.34326 0.89534 0.65319 0.0
C1817 C 0.35289 0.9267 0.44789 0.0
C1818 C 0.34983 0.89044 0.95447 0.0
C1819 C 0.35062 0.89247 0.88196 0.0
C1820 C 0.35865 0.92175 0.74991 0.0
C1821 C 0.35243 0.91209 0.54904 0.0
C1822 C 0.35171 0.91025 0.62725 0.0
C1823 C 0.34968 0.90495 0.85393 0.0
C1824 C 0.35025 0.90683 0.77579 0.0
H1825 H 0.35577 0.89489 0.39489 0.0
H1826 H 0.35426 0.8915 0.52178 0.0
H1827 H 0.36627 0.93511 0.65954 0.0
H1828 H 0.34581 0.92153 1.00876 0.0
H1829 H 0.34721 0.92515 0.88192 0.0
C1830 C 0.1256 0.46199 0.94259 0.0
C1831 C 0.13801 0.47282 0.99259 0.0
C1832 C 0.12683 0.46386 0.87009 0.0
C1833 C 0.14894 0.49302 0.73998 0.0
H1834 H 0.13349 0.4559 0.61144 0.0
C1835 C 0.16136 0.49716 0.44393 0.0
C1836 C 0.1488 0.48655 0.3939 0.0
C1837 C 0.16006 0.49532 0.51643 0.0
C1838 C 0.1377 0.46639 0.64634 0.0
H1839 H 0.16136 0.49432 1.00558 0.0
H1840 H 0.16365 0.49758 0.87884 0.0
H1841 H 0.13132 0.45337 0.73798 0.0
H1842 H 0.12504 0.46552 0.38101 0.0
H1843 H 0.12271 0.46224 0.50772 0.0
H1844 H 0.15538 0.50604 0.64828 0.0
C1845 C 0.15283 0.48766 0.89562 0.0
C1846 C 0.13645 0.46494 0.71924 0.0
C1847 C 0.15157 0.48579 0.96839 0.0
C1848 C 0.13498 0.47384 0.41813 0.0
C1849 C 0.13368 0.47197 0.49088 0.0
C1850 C 0.15022 0.49447 0.6671 0.0
C1851 C 0.14054 0.47662 0.84525 0.0
C1852 C 0.14202 0.47823 0.76729 0.0
C1853 C 0.14614 0.48279 0.54121 0.0
C1854 C 0.14464 0.48118 0.61909 0.0
H1855 H 0.11492 0.45193 0.95948 0.0
H1856 H 0.11694 0.45529 0.83348 0.0
H1857 H 0.15313 0.50352 0.7748 0.0
H1858 H 0.17221 0.50704 0.42708 0.0
H1859 H 0.17004 0.50373 0.55313 0.0
C1860 C 0.57156 0.71537 1.00229 0.0
C1861 C 0.56701 0.70253 0.04327 0.0
C1862 C 0.57124 0.71358 0.92842 0.0
C1863 C 0.57225 0.68833 0.7812 0.0
H1864 H 0.55309 0.70723 0.66567 0.0
C1865 C 0.56209 0.67491 0.47789 0.0
C1866 C 0.56347 0.68649 0.43405 0.0
C1867 C 0.56221 0.67701 0.55133 0.0
C1868 C 0.55873 0.70206 0.69675 0.0
H1869 H 0.5588 0.67774 0.03835 0.0
H1870 H 0.55865 0.67467 0.90943 0.0
H1871 H 0.55432 0.71062 0.79429 0.0
H1872 H 0.56603 0.70946 0.43331 0.0
H1873 H 0.56674 0.71347 0.56208 0.0
H1874 H 0.57712 0.68012 0.68459 0.0
C1875 C 0.56239 0.68615 0.93454 0.0
C1876 C 0.55937 0.70396 0.77087 0.0
C1877 C 0.56248 0.6879 1.0085 0.0
C1878 C 0.56479 0.70025 0.46558 0.0
C1879 C 0.56515 0.70249 0.53964 0.0
C1880 C 0.57181 0.6866 0.70725 0.0
C1881 C 0.56659 0.69894 0.89333 0.0
C1882 C 0.56604 0.69704 0.81419 0.0
C1883 C 0.56403 0.69094 0.58395 0.0
C1884 C 0.5649 0.69329 0.66347 0.0
H1885 H 0.57511 0.72682 0.02723 0.0
H1886 H 0.57475 0.72373 0.89873 0.0
H1887 H 0.57772 0.68305 0.81268 0.0
H1888 H 0.56093 0.6641 0.45531 0.0
H1889 H 0.56081 0.66758 0.58242 0.0
C1890 C 0.33448 0.45944 0.9843 0.0
C1891 C 0.34309 0.47186 0.03686 0.0
C1892 C 0.33677 0.46172 0.91263 0.0
C1893 C 0.35197 0.49221 0.7837 0.0
H1894 H 0.35198 0.45956 0.66257 0.0
C1895 C 0.36811 0.50139 0.49298 0.0
C1896 C 0.35984 0.48879 0.44097 0.0
C1897 C 0.36613 0.49921 0.5649 0.0
C1898 C 0.35179 0.46873 0.69515 0.0
H1899 H 0.36084 0.49657 0.05481 0.0
H1900 H 0.36494 0.50066 0.92892 0.0
H1901 H 0.34896 0.45651 0.78844 0.0
H1902 H 0.34333 0.46381 0.42477 0.0
H1903 H 0.33947 0.45989 0.55059 0.0
H1904 H 0.35467 0.50439 0.69046 0.0
C1905 C 0.35629 0.48908 0.9434 0.0
C1906 C 0.35009 0.467 0.7678 0.0
C1907 C 0.35401 0.48676 1.01567 0.0
C1908 C 0.34968 0.4738 0.46316 0.0
C1909 C 0.34763 0.47157 0.53561 0.0
C1910 C 0.35362 0.49392 0.71101 0.0
C1911 C 0.34776 0.47653 0.89073 0.0
C1912 C 0.35012 0.47869 0.81335 0.0
C1913 C 0.35575 0.4843 0.58773 0.0
C1914 C 0.35359 0.48223 0.66538 0.0
H1915 H 0.32591 0.44781 0.99856 0.0
H1916 H 0.32972 0.45181 0.87419 0.0
H1917 H 0.35179 0.50137 0.81641 0.0
H1918 H 0.37616 0.51312 0.47808 0.0
H1919 H 0.37293 0.50928 0.60274 0.0
C1920 C 0.54763 0.89682 1.00716 0.0
C1921 C 0.56003 0.90746 0.05771 0.0
C1922 C 0.54892 0.89888 0.93479 0.0
C1923 C 0.57064 0.9285 0.8064 0.0
H1924 H 0.55546 0.89188 0.67493 0.0
C1925 C 0.58154 0.93407 0.50847 0.0
C1926 C 0.56924 0.92304 0.45858 0.0
C1927 C 0.58056 0.93208 0.58102 0.0
C1928 C 0.55957 0.90224 0.71056 0.0
H1929 H 0.58362 0.92868 0.07137 0.0
H1930 H 0.5859 0.9324 0.94486 0.0
H1931 H 0.55366 0.88889 0.80128 0.0
H1932 H 0.54634 0.90109 0.44605 0.0
H1933 H 0.54445 0.89765 0.57275 0.0
H1934 H 0.57646 0.94185 0.71574 0.0
C1935 C 0.57504 0.92247 0.96129 0.0
C1936 C 0.55856 0.90053 0.78342 0.0
C1937 C 0.57375 0.92036 0.03397 0.0
C1938 C 0.55602 0.90981 0.48307 0.0
C1939 C 0.55501 0.90782 0.55588 0.0
C1940 C 0.57162 0.93022 0.7335 0.0
C1941 C 0.56268 0.91168 0.91047 0.0
C1942 C 0.56405 0.91362 0.83259 0.0
C1943 C 0.56722 0.91899 0.60616 0.0
C1944 C 0.5661 0.91712 0.68426 0.0
H1945 H 0.53684 0.88679 0.02355 0.0
H1946 H 0.539 0.89046 0.89784 0.0
H1947 H 0.57477 0.93885 0.84218 0.0
H1948 H 0.59196 0.94434 0.49143 0.0
H1949 H 0.5904 0.9408 0.6174 0.0
C1950 C 0.14112 0.67874 0.48617 0.0
C1951 C 0.13879 0.6884 0.4407 0.0
C1952 C 0.14047 0.68043 0.55941 0.0
C1953 C 0.1428 0.70849 0.70533 0.0
H1954 H 0.12613 0.67189 0.81278 0.0
C1955 C 0.13104 0.71115 1.00116 0.0
C1956 C 0.13483 0.70255 0.04767 0.0
C1957 C 0.13177 0.7094 0.92804 0.0
C1958 C 0.13102 0.68228 0.78389 0.0
H1959 H 0.13419 0.70767 0.43748 0.0
H1960 H 0.13252 0.71041 0.56529 0.0
H1961 H 0.12615 0.6689 0.68476 0.0
H1962 H 0.14239 0.68529 0.05321 0.0
H1963 H 0.14358 0.68209 0.92481 0.0
H1964 H 0.14745 0.72182 0.80461 0.0
C1965 C 0.13504 0.70154 0.54436 0.0
C1966 C 0.13105 0.68058 0.70999 0.0
C1967 C 0.13577 0.69987 0.47068 0.0
C1968 C 0.13936 0.69207 1.0189 0.0
C1969 C 0.13997 0.6902 0.9452 0.0
C1970 C 0.14268 0.71017 0.77916 0.0
C1971 C 0.13741 0.69185 0.59011 0.0
C1972 C 0.13698 0.69366 0.66926 0.0
C1973 C 0.13623 0.69891 0.89859 0.0
C1974 C 0.13679 0.69709 0.81975 0.0
H1975 H 0.14363 0.66987 0.46514 0.0
H1976 H 0.14272 0.67292 0.59206 0.0
H1977 H 0.14777 0.71892 0.67676 0.0
H1978 H 0.12746 0.7193 0.02133 0.0
H1979 H 0.12854 0.71613 0.89438 0.0
loop_
_geom_bond_atom_site_label_1
_geom_bond_atom_site_label_2
_geom_bond_distance
_geom_bond_site_symmetry_2
_ccdc_geom_bond_type
Tb0 O3 2.453 1_655 S
Tb0 O4 2.596 1_655 S
Tb0 O5 2.374 1_655 S
Tb0 O13 2.343 1_655 S
Tb0 O15 2.353 . S
Tb0 O17 2.427 . S
Tb0 O18 2.513 . S
C1 O5 1.251 . S
C1 O7 1.263 . S
Tb2 O4 2.343 . S
Tb2 O7 2.353 . S
Tb2 O10 2.427 . S
Tb2 O11 2.513 . S
Tb2 O12 2.453 . S
Tb2 O13 2.596 . S
Tb2 O14 2.374 . S
O3 Tb0 2.453 1_455 S
O3 C19 1.245 . S
O4 Tb0 2.596 1_455 S
O4 Tb2 2.343 . S
O4 C19 1.259 . S
O5 Tb0 2.374 1_455 S
O5 C1 1.251 . S
C6 O10 1.275 . S
C6 O11 1.246 . S
O7 C1 1.263 . S
O7 Tb2 2.353 . S
C8 O12 1.245 . S
C8 O13 1.259 . S
C9 O14 1.250 1_655 S
C9 O15 1.263 . S
O10 Tb2 2.427 . S
O10 C6 1.275 . S
O11 Tb2 2.513 . S
O11 C6 1.246 . S
O12 Tb2 2.453 . S
O12 C8 1.245 . S
O13 Tb0 2.343 1_455 S
O13 Tb2 2.596 . S
O13 C8 1.259 . S
O14 Tb2 2.374 . S
O14 C9 1.250 1_455 S
O15 Tb0 2.353 . S
O15 C9 1.263 . S
C16 O17 1.275 . S
C16 O18 1.246 . S
O17 Tb0 2.427 . S
O17 C16 1.275 . S
O18 Tb0 2.513 . S
O18 C16 1.246 . S
C19 O3 1.245 . S
C19 O4 1.259 . S
Tb20 O23 2.453 . S
Tb20 O24 2.596 . S
Tb20 O25 2.374 . S
Tb20 O33 2.343 . S
Tb20 O35 2.353 . S
Tb20 O37 2.427 . S
Tb20 O38 2.513 . S
C21 O25 1.251 . S
C21 O27 1.263 . S
Tb22 O24 2.343 . S
Tb22 O27 2.353 . S
Tb22 O30 2.427 . S
Tb22 O31 2.513 . S
Tb22 O32 2.453 . S
Tb22 O33 2.596 . S
Tb22 O34 2.374 . S
O23 Tb20 2.453 . S
O23 C39 1.245 . S
O24 Tb20 2.596 . S
O24 Tb22 2.343 . S
O24 C39 1.259 . S
O25 Tb20 2.374 . S
O25 C21 1.251 . S
C26 O30 1.275 . S
C26 O31 1.246 . S
O27 C21 1.263 . S
O27 Tb22 2.353 . S
C28 O32 1.245 . S
C28 O33 1.259 . S
C29 O34 1.250 . S
C29 O35 1.263 . S
O30 Tb22 2.427 . S
O30 C26 1.275 . S
O31 Tb22 2.513 . S
O31 C26 1.246 . S
O32 Tb22 2.453 . S
O32 C28 1.245 . S
O33 Tb20 2.343 . S
O33 Tb22 2.596 . S
O33 C28 1.259 . S
O34 Tb22 2.374 . S
O34 C29 1.250 . S
O35 Tb20 2.353 . S
O35 C29 1.263 . S
C36 O37 1.275 . S
C36 O38 1.246 . S
O37 Tb20 2.427 . S
O37 C36 1.275 . S
O38 Tb20 2.513 . S
O38 C36 1.246 . S
C39 O23 1.245 . S
C39 O24 1.259 . S
Tb40 O43 2.453 . S
Tb40 O44 2.596 . S
Tb40 O45 2.374 . S
Tb40 O53 2.343 . S
Tb40 O55 2.353 . S
Tb40 O57 2.427 . S
Tb40 O58 2.513 . S
C41 O45 1.251 1_565 S
C41 O47 1.263 . S
Tb42 O44 2.343 . S
Tb42 O47 2.353 1_545 S
Tb42 O50 2.427 1_545 S
Tb42 O51 2.511 1_545 S
Tb42 O52 2.453 . S
Tb42 O53 2.596 . S
Tb42 O54 2.374 . S
O43 Tb40 2.453 . S
O43 C59 1.245 . S
O44 Tb40 2.596 . S
O44 Tb42 2.343 . S
O44 C59 1.259 . S
O45 Tb40 2.374 . S
O45 C41 1.251 1_545 S
C46 O50 1.275 . S
C46 O51 1.248 . S
O47 C41 1.263 . S
O47 Tb42 2.353 1_565 S
C48 O52 1.245 . S
C48 O53 1.259 . S
C49 O54 1.250 . S
C49 O55 1.263 . S
O50 Tb42 2.427 1_565 S
O50 C46 1.275 . S
O51 Tb42 2.511 1_565 S
O51 C46 1.248 . S
O52 Tb42 2.453 . S
O52 C48 1.245 . S
O53 Tb40 2.343 . S
O53 Tb42 2.596 . S
O53 C48 1.259 . S
O54 Tb42 2.374 . S
O54 C49 1.250 . S
O55 Tb40 2.353 . S
O55 C49 1.263 . S
C56 O57 1.275 . S
C56 O58 1.246 . S
O57 Tb40 2.427 . S
O57 C56 1.275 . S
O58 Tb40 2.513 . S
O58 C56 1.246 . S
C59 O43 1.245 . S
C59 O44 1.259 . S
Tb60 O63 2.453 . S
Tb60 O64 2.596 1_655 S
Tb60 O65 2.374 1_655 S
Tb60 O73 2.343 1_655 S
Tb60 O75 2.353 . S
Tb60 O77 2.427 . S
Tb60 O78 2.513 . S
C61 O65 1.251 . S
C61 O67 1.263 . S
Tb62 O64 2.343 . S
Tb62 O67 2.353 . S
Tb62 O70 2.427 . S
Tb62 O71 2.513 . S
Tb62 O72 2.453 . S
Tb62 O73 2.596 . S
Tb62 O74 2.425 . S
O63 Tb60 2.453 . S
O63 C79 1.245 1_655 S
O64 Tb60 2.596 1_455 S
O64 Tb62 2.343 . S
O64 C79 1.259 . S
O65 Tb60 2.374 1_455 S
O65 C61 1.251 . S
C66 O70 1.275 . S
C66 O71 1.246 . S
O67 C61 1.263 . S
O67 Tb62 2.353 . S
C68 O72 1.245 . S
C68 O73 1.259 . S
C69 O74 1.217 1_655 S
C69 O75 1.263 . S
O70 Tb62 2.427 . S
O70 C66 1.275 . S
O71 Tb62 2.513 . S
O71 C66 1.246 . S
O72 Tb62 2.453 . S
O72 C68 1.245 . S
O73 Tb60 2.343 1_455 S
O73 Tb62 2.596 . S
O73 C68 1.259 . S
O74 Tb62 2.425 . S
O74 C69 1.217 1_455 S
O75 Tb60 2.353 . S
O75 C69 1.263 . S
C76 O77 1.275 . S
C76 O78 1.246 . S
O77 Tb60 2.427 . S
O77 C76 1.275 . S
O78 Tb60 2.513 . S
O78 C76 1.246 . S
C79 O63 1.245 1_455 S
C79 O64 1.259 . S
Tb80 O83 2.453 . S
Tb80 O84 2.596 . S
Tb80 O85 2.374 . S
Tb80 O93 2.343 . S
Tb80 O95 2.353 . S
Tb80 O97 2.427 . S
Tb80 O98 2.513 . S
C81 O85 1.251 . S
C81 O87 1.263 . S
Tb82 O84 2.343 . S
Tb82 O87 2.353 . S
Tb82 O90 2.427 . S
Tb82 O91 2.513 . S
Tb82 O92 2.453 . S
Tb82 O93 2.596 . S
Tb82 O94 2.374 . S
O83 Tb80 2.453 . S
O83 C99 1.245 . S
O84 Tb80 2.596 . S
O84 Tb82 2.343 . S
O84 C99 1.259 . S
O85 Tb80 2.374 . S
O85 C81 1.251 . S
C86 O90 1.275 . S
C86 O91 1.246 . S
O87 C81 1.263 . S
O87 Tb82 2.353 . S
C88 O92 1.245 . S
C88 O93 1.259 . S
C89 O94 1.250 . S
C89 O95 1.263 . S
O90 Tb82 2.427 . S
O90 C86 1.275 . S
O91 Tb82 2.513 . S
O91 C86 1.246 . S
O92 Tb82 2.453 . S
O92 C88 1.245 . S
O93 Tb80 2.343 . S
O93 Tb82 2.596 . S
O93 C88 1.259 . S
O94 Tb82 2.374 . S
O94 C89 1.250 . S
O95 Tb80 2.353 . S
O95 C89 1.263 . S
C96 O97 1.275 . S
C96 O98 1.246 . S
O97 Tb80 2.427 . S
O97 C96 1.275 . S
O98 Tb80 2.513 . S
O98 C96 1.246 . S
C99 O83 1.245 . S
C99 O84 1.259 . S
Tb100 O103 2.453 . S
Tb100 O104 2.596 . S
Tb100 O105 2.374 . S
Tb100 O113 2.343 . S
Tb100 O115 2.353 . S
Tb100 O117 2.427 . S
Tb100 O118 2.513 . S
C101 O105 1.251 . S
C101 O107 1.263 1_545 S
Tb102 O104 2.343 . S
Tb102 O107 2.353 1_545 S
Tb102 O110 2.427 1_545 S
Tb102 O111 2.513 . S
Tb102 O112 2.453 . S
Tb102 O113 2.596 . S
Tb102 O114 2.374 . S
O103 Tb100 2.453 . S
O103 C119 1.245 . S
O104 Tb100 2.596 . S
O104 Tb102 2.343 . S
O104 C119 1.259 . S
O105 Tb100 2.374 . S
O105 C101 1.251 . S
C106 O110 1.275 . S
C106 O111 1.246 1_565 S
O107 C101 1.263 1_565 S
O107 Tb102 2.353 1_565 S
C108 O112 1.245 . S
C108 O113 1.259 . S
C109 O114 1.250 . S
C109 O115 1.263 . S
O110 Tb102 2.427 1_565 S
O110 C106 1.275 . S
O111 Tb102 2.513 . S
O111 C106 1.246 1_545 S
O112 Tb102 2.453 . S
O112 C108 1.245 . S
O113 Tb100 2.343 . S
O113 Tb102 2.596 . S
O113 C108 1.259 . S
O114 Tb102 2.374 . S
O114 C109 1.250 . S
O115 Tb100 2.353 . S
O115 C109 1.263 . S
C116 O117 1.275 . S
C116 O118 1.246 . S
O117 Tb100 2.427 . S
O117 C116 1.275 . S
O118 Tb100 2.513 . S
O118 C116 1.246 . S
C119 O103 1.245 . S
C119 O104 1.259 . S
Tb120 O123 2.453 . S
Tb120 O124 2.596 . S
Tb120 O125 2.374 . S
Tb120 O133 2.343 . S
Tb120 O135 2.353 . S
Tb120 O137 2.427 . S
Tb120 O138 2.513 . S
C121 O125 1.251 . S
C121 O127 1.263 . S
Tb122 O124 2.343 . S
Tb122 O127 2.353 . S
Tb122 O130 2.427 . S
Tb122 O131 2.513 . S
Tb122 O132 2.453 . S
Tb122 O133 2.596 . S
Tb122 O134 2.374 . S
O123 Tb120 2.453 . S
O123 C139 1.245 . S
O124 Tb120 2.596 . S
O124 Tb122 2.343 . S
O124 C139 1.259 . S
O125 Tb120 2.374 . S
O125 C121 1.251 . S
C126 O130 1.275 . S
C126 O131 1.246 . S
O127 C121 1.263 . S
O127 Tb122 2.353 . S
C128 O132 1.245 . S
C128 O133 1.259 . S
C129 O134 1.250 . S
C129 O135 1.263 . S
O130 Tb122 2.427 . S
O130 C126 1.275 . S
O131 Tb122 2.513 . S
O131 C126 1.246 . S
O132 Tb122 2.453 . S
O132 C128 1.245 . S
O133 Tb120 2.343 . S
O133 Tb122 2.596 . S
O133 C128 1.259 . S
O134 Tb122 2.374 . S
O134 C129 1.250 . S
O135 Tb120 2.353 . S
O135 C129 1.263 . S
C136 O137 1.275 . S
C136 O138 1.246 . S
O137 Tb120 2.427 . S
O137 C136 1.275 . S
O138 Tb120 2.513 . S
O138 C136 1.246 . S
C139 O123 1.245 . S
C139 O124 1.259 . S
Tb140 O143 2.453 . S
Tb140 O144 2.596 . S
Tb140 O145 2.374 . S
Tb140 O153 2.343 . S
Tb140 O155 2.353 . S
Tb140 O157 2.427 . S
Tb140 O158 2.513 . S
C141 O145 1.251 . S
C141 O147 1.263 . S
Tb142 O144 2.343 . S
Tb142 O147 2.353 . S
Tb142 O150 2.427 . S
Tb142 O151 2.513 . S
Tb142 O152 2.453 . S
Tb142 O153 2.596 . S
Tb142 O154 2.374 . S
O143 Tb140 2.453 . S
O143 C159 1.245 . S
O144 Tb140 2.596 . S
O144 Tb142 2.343 . S
O144 C159 1.259 . S
O145 Tb140 2.374 . S
O145 C141 1.251 . S
C146 O150 1.275 . S
C146 O151 1.246 . S
O147 C141 1.263 . S
O147 Tb142 2.353 . S
C148 O152 1.245 . S
C148 O153 1.259 . S
C149 O154 1.250 . S
C149 O155 1.263 . S
O150 Tb142 2.427 . S
O150 C146 1.275 . S
O151 Tb142 2.513 . S
O151 C146 1.246 . S
O152 Tb142 2.453 . S
O152 C148 1.245 . S
O153 Tb140 2.343 . S
O153 Tb142 2.596 . S
O153 C148 1.259 . S
O154 Tb142 2.374 . S
O154 C149 1.250 . S
O155 Tb140 2.353 . S
O155 C149 1.263 . S
C156 O157 1.275 . S
C156 O158 1.246 . S
O157 Tb140 2.427 . S
O157 C156 1.275 . S
O158 Tb140 2.513 . S
O158 C156 1.246 . S
C159 O143 1.245 . S
C159 O144 1.259 . S
Tb160 O163 2.453 . S
Tb160 O164 2.596 . S
Tb160 O165 2.374 . S
Tb160 O173 2.343 . S
Tb160 O175 2.353 . S
Tb160 O177 2.427 . S
Tb160 O178 2.513 . S
C161 O165 1.251 . S
C161 O167 1.263 . S
Tb162 O164 2.343 . S
Tb162 O167 2.353 . S
Tb162 O170 2.427 . S
Tb162 O171 2.513 . S
Tb162 O172 2.453 . S
Tb162 O173 2.596 . S
Tb162 O174 2.374 . S
O163 Tb160 2.453 . S
O163 C179 1.245 . S
O164 Tb160 2.596 . S
O164 Tb162 2.343 . S
O164 C179 1.259 . S
O165 Tb160 2.374 . S
O165 C161 1.251 . S
C166 O170 1.275 . S
C166 O171 1.246 . S
O167 C161 1.263 . S
O167 Tb162 2.353 . S
C168 O172 1.245 . S
C168 O173 1.259 . S
C169 O174 1.250 . S
C169 O175 1.263 . S
O170 Tb162 2.427 . S
O170 C166 1.275 . S
O171 Tb162 2.513 . S
O171 C166 1.246 . S
O172 Tb162 2.453 . S
O172 C168 1.245 . S
O173 Tb160 2.343 . S
O173 Tb162 2.596 . S
O173 C168 1.259 . S
O174 Tb162 2.374 . S
O174 C169 1.250 . S
O175 Tb160 2.353 . S
O175 C169 1.263 . S
C176 O177 1.275 . S
C176 O178 1.246 . S
O177 Tb160 2.427 . S
O177 C176 1.275 . S
O178 Tb160 2.513 . S
O178 C176 1.246 . S
C179 O163 1.245 . S
C179 O164 1.259 . S
Tb180 O183 2.453 . S
Tb180 O184 2.596 . S
Tb180 O185 2.374 . S
Tb180 O193 2.343 . S
Tb180 O195 2.353 . S
Tb180 O197 2.427 . S
Tb180 O198 2.513 . S
C181 O185 1.251 . S
C181 O187 1.263 . S
Tb182 O184 2.343 . S
Tb182 O187 2.353 . S
Tb182 O190 2.427 . S
Tb182 O191 2.513 . S
Tb182 O192 2.453 . S
Tb182 O193 2.596 . S
Tb182 O194 2.374 . S
O183 Tb180 2.453 . S
O183 C199 1.245 . S
O184 Tb180 2.596 . S
O184 Tb182 2.343 . S
O184 C199 1.259 . S
O185 Tb180 2.374 . S
O185 C181 1.251 . S
C186 O190 1.275 . S
C186 O191 1.246 . S
O187 C181 1.263 . S
O187 Tb182 2.353 . S
C188 O192 1.245 . S
C188 O193 1.259 . S
C189 O194 1.250 . S
C189 O195 1.263 . S
O190 Tb182 2.427 . S
O190 C186 1.275 . S
O191 Tb182 2.513 . S
O191 C186 1.246 . S
O192 Tb182 2.453 . S
O192 C188 1.245 . S
O193 Tb180 2.343 . S
O193 Tb182 2.596 . S
O193 C188 1.259 . S
O194 Tb182 2.374 . S
O194 C189 1.250 . S
O195 Tb180 2.353 . S
O195 C189 1.263 . S
C196 O197 1.275 . S
C196 O198 1.246 . S
O197 Tb180 2.427 . S
O197 C196 1.275 . S
O198 Tb180 2.513 . S
O198 C196 1.246 . S
C199 O183 1.245 . S
C199 O184 1.259 . S
Tb200 O203 2.453 . S
Tb200 O204 2.596 . S
Tb200 O205 2.374 . S
Tb200 O213 2.343 . S
Tb200 O215 2.353 . S
Tb200 O217 2.427 . S
Tb200 O218 2.513 . S
C201 O205 1.251 . S
C201 O207 1.263 . S
Tb202 O204 2.343 . S
Tb202 O207 2.353 . S
Tb202 O210 2.427 . S
Tb202 O211 2.513 . S
Tb202 O212 2.453 . S
Tb202 O213 2.596 . S
Tb202 O214 2.374 . S
O203 Tb200 2.453 . S
O203 C219 1.245 . S
O204 Tb200 2.596 . S
O204 Tb202 2.343 . S
O204 C219 1.259 . S
O205 Tb200 2.374 . S
O205 C201 1.251 . S
C206 O210 1.275 . S
C206 O211 1.246 . S
O207 C201 1.263 . S
O207 Tb202 2.353 . S
C208 O212 1.245 . S
C208 O213 1.259 . S
C209 O214 1.250 . S
C209 O215 1.263 . S
O210 Tb202 2.427 . S
O210 C206 1.275 . S
O211 Tb202 2.513 . S
O211 C206 1.246 . S
O212 Tb202 2.453 . S
O212 C208 1.245 . S
O213 Tb200 2.343 . S
O213 Tb202 2.596 . S
O213 C208 1.259 . S
O214 Tb202 2.374 . S
O214 C209 1.250 . S
O215 Tb200 2.353 . S
O215 C209 1.263 . S
C216 O217 1.275 . S
C216 O218 1.246 . S
O217 Tb200 2.427 . S
O217 C216 1.275 . S
O218 Tb200 2.513 . S
O218 C216 1.246 . S
C219 O203 1.245 . S
C219 O204 1.259 . S
Tb220 O223 2.453 . S
Tb220 O224 2.596 . S
Tb220 O225 2.374 . S
Tb220 O233 2.343 . S
Tb220 O235 2.353 . S
Tb220 O237 2.427 . S
Tb220 O238 2.513 . S
C221 O225 1.251 . S
C221 O227 1.263 . S
Tb222 O224 2.343 . S
Tb222 O227 2.353 . S
Tb222 O230 2.427 . S
Tb222 O231 2.513 . S
Tb222 O232 2.453 . S
Tb222 O233 2.596 . S
Tb222 O234 2.374 . S
O223 Tb220 2.453 . S
O223 C239 1.245 . S
O224 Tb220 2.596 . S
O224 Tb222 2.343 . S
O224 C239 1.259 . S
O225 Tb220 2.374 . S
O225 C221 1.251 . S
C226 O230 1.275 . S
C226 O231 1.246 . S
O227 C221 1.263 . S
O227 Tb222 2.353 . S
C228 O232 1.245 . S
C228 O233 1.259 . S
C229 O234 1.250 . S
C229 O235 1.263 . S
O230 Tb222 2.427 . S
O230 C226 1.275 . S
O231 Tb222 2.513 . S
O231 C226 1.246 . S
O232 Tb222 2.453 . S
O232 C228 1.245 . S
O233 Tb220 2.343 . S
O233 Tb222 2.596 . S
O233 C228 1.259 . S
O234 Tb222 2.374 . S
O234 C229 1.250 . S
O235 Tb220 2.353 . S
O235 C229 1.263 . S
C236 O237 1.275 . S
C236 O238 1.246 . S
O237 Tb220 2.427 . S
O237 C236 1.275 . S
O238 Tb220 2.513 . S
O238 C236 1.246 . S
C239 O223 1.245 . S
C239 O224 1.259 . S
Tb240 O243 2.453 . S
Tb240 O244 2.596 . S
Tb240 O245 2.374 . S
Tb240 O253 2.343 . S
Tb240 O255 2.353 . S
Tb240 O257 2.427 . S
Tb240 O258 2.513 . S
C241 O245 1.251 . S
C241 O247 1.263 . S
Tb242 O244 2.343 . S
Tb242 O247 2.353 . S
Tb242 O250 2.427 . S
Tb242 O251 2.513 . S
Tb242 O252 2.453 . S
Tb242 O253 2.596 . S
Tb242 O254 2.374 . S
O243 Tb240 2.453 . S
O243 C259 1.245 . S
O244 Tb240 2.596 . S
O244 Tb242 2.343 . S
O244 C259 1.259 . S
O245 Tb240 2.374 . S
O245 C241 1.251 . S
C246 O250 1.275 . S
C246 O251 1.246 . S
O247 C241 1.263 . S
O247 Tb242 2.353 . S
C248 O252 1.245 . S
C248 O253 1.259 . S
C249 O254 1.250 . S
C249 O255 1.263 . S
O250 Tb242 2.427 . S
O250 C246 1.275 . S
O251 Tb242 2.513 . S
O251 C246 1.246 . S
O252 Tb242 2.453 . S
O252 C248 1.245 . S
O253 Tb240 2.343 . S
O253 Tb242 2.596 . S
O253 C248 1.259 . S
O254 Tb242 2.374 . S
O254 C249 1.250 . S
O255 Tb240 2.353 . S
O255 C249 1.263 . S
C256 O257 1.275 . S
C256 O258 1.246 . S
O257 Tb240 2.427 . S
O257 C256 1.275 . S
O258 Tb240 2.513 . S
O258 C256 1.246 . S
C259 O243 1.245 . S
C259 O244 1.259 . S
Tb260 O263 2.453 . S
Tb260 O264 2.596 . S
Tb260 O265 2.374 . S
Tb260 O273 2.343 . S
Tb260 O275 2.353 . S
Tb260 O277 2.427 . S
Tb260 O278 2.513 . S
C261 O265 1.251 . S
C261 O267 1.263 . S
Tb262 O264 2.343 . S
Tb262 O267 2.353 . S
Tb262 O270 2.427 . S
Tb262 O271 2.513 . S
Tb262 O272 2.453 . S
Tb262 O273 2.596 . S
Tb262 O274 2.374 . S
O263 Tb260 2.453 . S
O263 C279 1.245 . S
O264 Tb260 2.596 . S
O264 Tb262 2.343 . S
O264 C279 1.259 . S
O265 Tb260 2.374 . S
O265 C261 1.251 . S
C266 O270 1.275 . S
C266 O271 1.246 . S
O267 C261 1.263 . S
O267 Tb262 2.353 . S
C268 O272 1.245 . S
C268 O273 1.259 . S
C269 O274 1.250 . S
C269 O275 1.263 . S
O270 Tb262 2.427 . S
O270 C266 1.275 . S
O271 Tb262 2.513 . S
O271 C266 1.246 . S
O272 Tb262 2.453 . S
O272 C268 1.245 . S
O273 Tb260 2.343 . S
O273 Tb262 2.596 . S
O273 C268 1.259 . S
O274 Tb262 2.374 . S
O274 C269 1.250 . S
O275 Tb260 2.353 . S
O275 C269 1.263 . S
C276 O277 1.275 . S
C276 O278 1.246 . S
O277 Tb260 2.427 . S
O277 C276 1.275 . S
O278 Tb260 2.513 . S
O278 C276 1.246 . S
C279 O263 1.245 . S
C279 O264 1.259 . S
Tb280 O283 2.453 . S
Tb280 O284 2.596 . S
Tb280 O285 2.374 . S
Tb280 O293 2.343 . S
Tb280 O295 2.353 . S
Tb280 O297 2.427 . S
Tb280 O298 2.513 . S
C281 O285 1.251 . S
C281 O287 1.263 . S
Tb282 O284 2.343 . S
Tb282 O287 2.353 . S
Tb282 O290 2.427 . S
Tb282 O291 2.513 . S
Tb282 O292 2.453 . S
Tb282 O293 2.596 . S
Tb282 O294 2.374 . S
O283 Tb280 2.453 . S
O283 C299 1.245 . S
O284 Tb280 2.596 . S
O284 Tb282 2.343 . S
O284 C299 1.259 . S
O285 Tb280 2.374 . S
O285 C281 1.251 . S
C286 O290 1.275 . S
C286 O291 1.246 . S
O287 C281 1.263 . S
O287 Tb282 2.353 . S
C288 O292 1.245 . S
C288 O293 1.259 . S
C289 O294 1.250 . S
C289 O295 1.263 . S
O290 Tb282 2.427 . S
O290 C286 1.275 . S
O291 Tb282 2.513 . S
O291 C286 1.246 . S
O292 Tb282 2.453 . S
O292 C288 1.245 . S
O293 Tb280 2.343 . S
O293 Tb282 2.596 . S
O293 C288 1.259 . S
O294 Tb282 2.374 . S
O294 C289 1.250 . S
O295 Tb280 2.353 . S
O295 C289 1.263 . S
C296 O297 1.275 . S
C296 O298 1.246 . S
O297 Tb280 2.427 . S
O297 C296 1.275 . S
O298 Tb280 2.513 . S
O298 C296 1.246 . S
C299 O283 1.245 . S
C299 O284 1.259 . S
Tb300 O303 2.453 . S
Tb300 O304 2.596 . S
Tb300 O305 2.374 . S
Tb300 O313 2.343 . S
Tb300 O315 2.353 . S
Tb300 O317 2.427 . S
Tb300 O318 2.513 . S
C301 O305 1.251 . S
C301 O307 1.263 . S
Tb302 O304 2.343 . S
Tb302 O307 2.353 . S
Tb302 O310 2.427 . S
Tb302 O311 2.513 . S
Tb302 O312 2.453 . S
Tb302 O313 2.596 . S
Tb302 O314 2.374 . S
O303 Tb300 2.453 . S
O303 C319 1.245 . S
O304 Tb300 2.596 . S
O304 Tb302 2.343 . S
O304 C319 1.259 . S
O305 Tb300 2.374 . S
O305 C301 1.251 . S
C306 O310 1.275 . S
C306 O311 1.246 . S
O307 C301 1.263 . S
O307 Tb302 2.353 . S
C308 O312 1.245 . S
C308 O313 1.259 . S
C309 O314 1.250 . S
C309 O315 1.263 . S
O310 Tb302 2.427 . S
O310 C306 1.275 . S
O311 Tb302 2.513 . S
O311 C306 1.246 . S
O312 Tb302 2.453 . S
O312 C308 1.245 . S
O313 Tb300 2.343 . S
O313 Tb302 2.596 . S
O313 C308 1.259 . S
O314 Tb302 2.374 . S
O314 C309 1.250 . S
O315 Tb300 2.353 . S
O315 C309 1.263 . S
C316 O317 1.275 . S
C316 O318 1.246 . S
O317 Tb300 2.427 . S
O317 C316 1.275 . S
O318 Tb300 2.513 . S
O318 C316 1.246 . S
C319 O303 1.245 . S
C319 O304 1.259 . S
Tb320 O323 2.453 . S
Tb320 O324 2.596 . S
Tb320 O325 2.374 . S
Tb320 O333 2.343 . S
Tb320 O335 2.353 . S
Tb320 O337 2.427 . S
Tb320 O338 2.513 . S
C321 O325 1.251 . S
C321 O327 1.263 . S
Tb322 O324 2.343 . S
Tb322 O327 2.353 . S
Tb322 O330 2.427 . S
Tb322 O331 2.513 . S
Tb322 O332 2.453 . S
Tb322 O333 2.596 . S
Tb322 O334 2.374 . S
O323 Tb320 2.453 . S
O323 C339 1.245 . S
O324 Tb320 2.596 . S
O324 Tb322 2.343 . S
O324 C339 1.259 . S
O325 Tb320 2.374 . S
O325 C321 1.251 . S
C326 O330 1.275 . S
C326 O331 1.246 . S
O327 C321 1.263 . S
O327 Tb322 2.353 . S
C328 O332 1.245 . S
C328 O333 1.259 . S
C329 O334 1.250 . S
C329 O335 1.263 . S
O330 Tb322 2.427 . S
O330 C326 1.275 . S
O331 Tb322 2.513 . S
O331 C326 1.246 . S
O332 Tb322 2.453 . S
O332 C328 1.245 . S
O333 Tb320 2.343 . S
O333 Tb322 2.596 . S
O333 C328 1.259 . S
O334 Tb322 2.374 . S
O334 C329 1.250 . S
O335 Tb320 2.353 . S
O335 C329 1.263 . S
C336 O337 1.275 . S
C336 O338 1.246 . S
O337 Tb320 2.427 . S
O337 C336 1.275 . S
O338 Tb320 2.513 . S
O338 C336 1.246 . S
C339 O323 1.245 . S
C339 O324 1.259 . S
Tb340 O343 2.453 . S
Tb340 O344 2.596 . S
Tb340 O345 2.374 . S
Tb340 O353 2.343 . S
Tb340 O355 2.353 . S
Tb340 O357 2.427 . S
Tb340 O358 2.513 . S
C341 O345 1.251 . S
C341 O347 1.263 . S
Tb342 O344 2.343 . S
Tb342 O347 2.353 . S
Tb342 O350 2.427 . S
Tb342 O351 2.513 . S
Tb342 O352 2.453 . S
Tb342 O353 2.596 . S
Tb342 O354 2.374 . S
O343 Tb340 2.453 . S
O343 C359 1.245 . S
O344 Tb340 2.596 . S
O344 Tb342 2.343 . S
O344 C359 1.259 . S
O345 Tb340 2.374 . S
O345 C341 1.251 . S
C346 O350 1.275 . S
C346 O351 1.246 . S
O347 C341 1.263 . S
O347 Tb342 2.353 . S
C348 O352 1.245 . S
C348 O353 1.259 . S
C349 O354 1.250 . S
C349 O355 1.263 . S
O350 Tb342 2.427 . S
O350 C346 1.275 . S
O351 Tb342 2.513 . S
O351 C346 1.246 . S
O352 Tb342 2.453 . S
O352 C348 1.245 . S
O353 Tb340 2.343 . S
O353 Tb342 2.596 . S
O353 C348 1.259 . S
O354 Tb342 2.374 . S
O354 C349 1.250 . S
O355 Tb340 2.353 . S
O355 C349 1.263 . S
C356 O357 1.275 . S
C356 O358 1.246 . S
O357 Tb340 2.427 . S
O357 C356 1.275 . S
O358 Tb340 2.513 . S
O358 C356 1.246 . S
C359 O343 1.245 . S
C359 O344 1.259 . S
C360 C361 1.349 . S
C360 C362 1.327 . S
C360 H385 0.950 . S
C361 C360 1.349 . S
C361 C377 1.349 . S
C362 C360 1.327 . S
C362 C381 1.429 . S
C362 H386 0.950 . S
C363 C380 1.574 . S
C363 C382 1.368 . S
C363 H387 0.949 . S
H364 C368 0.949 . S
C365 C366 1.349 . S
C365 C367 1.327 . S
C365 H388 0.950 . S
C366 C365 1.349 . S
C366 C378 1.349 . S
C367 C365 1.327 . S
C367 C383 1.429 . S
C367 H389 0.950 . S
C368 H364 0.949 . S
C368 C376 1.574 . S
C368 C384 1.368 . S
H369 C377 0.950 . S
H370 C375 0.950 . S
H371 C376 0.949 . S
H372 C378 0.950 . S
H373 C379 0.950 . S
H374 C380 0.949 . S
C375 H370 0.950 . S
C375 C377 1.327 . S
C375 C381 1.429 . S
C376 C368 1.574 . S
C376 H371 0.949 . S
C376 C382 1.368 . S
C377 C361 1.349 . S
C377 H369 0.950 . S
C377 C375 1.327 . S
C378 C366 1.349 . S
C378 H372 0.950 . S
C378 C379 1.327 . S
C379 H373 0.950 . S
C379 C378 1.327 . S
C379 C383 1.429 . S
C380 C363 1.574 . S
C380 H374 0.949 . S
C380 C384 1.368 . S
C381 C362 1.429 . S
C381 C375 1.429 . S
C381 C382 1.523 . S
C382 C363 1.368 . S
C382 C376 1.368 . S
C382 C381 1.523 . S
C383 C367 1.429 . S
C383 C379 1.429 . S
C383 C384 1.523 . S
C384 C368 1.368 . S
C384 C380 1.368 . S
C384 C383 1.523 . S
H385 C360 0.950 . S
H386 C362 0.950 . S
H387 C363 0.949 . S
H388 C365 0.950 . S
H389 C367 0.950 . S
C390 C391 1.349 . S
C390 C392 1.327 . S
C390 H415 0.950 . S
C391 C390 1.349 . S
C391 C407 1.349 . S
C392 C390 1.327 . S
C392 C411 1.429 . S
C392 H416 0.950 . S
C393 C410 1.574 . S
C393 C412 1.368 . S
C393 H417 0.949 . S
H394 C398 0.949 . S
C395 C396 1.349 . S
C395 C397 1.327 . S
C395 H418 0.950 . S
C396 C395 1.349 . S
C396 C408 1.349 . S
C397 C395 1.327 . S
C397 C413 1.429 . S
C397 H419 0.950 . S
C398 H394 0.949 . S
C398 C406 1.574 . S
C398 C414 1.368 . S
H399 C407 0.950 . S
H400 C405 0.950 . S
H401 C406 0.949 . S
H402 C408 0.950 . S
H403 C409 0.950 . S
H404 C410 0.949 . S
C405 H400 0.950 . S
C405 C407 1.327 . S
C405 C411 1.429 . S
C406 C398 1.574 . S
C406 H401 0.949 . S
C406 C412 1.368 . S
C407 C391 1.349 . S
C407 H399 0.950 . S
C407 C405 1.327 . S
C408 C396 1.349 . S
C408 H402 0.950 . S
C408 C409 1.327 . S
C409 H403 0.950 . S
C409 C408 1.327 . S
C409 C413 1.429 . S
C410 C393 1.574 . S
C410 H404 0.949 . S
C410 C414 1.368 . S
C411 C392 1.429 . S
C411 C405 1.429 . S
C411 C412 1.523 . S
C412 C393 1.368 . S
C412 C406 1.368 . S
C412 C411 1.523 . S
C413 C397 1.429 . S
C413 C409 1.429 . S
C413 C414 1.523 . S
C414 C398 1.368 . S
C414 C410 1.368 . S
C414 C413 1.523 . S
H415 C390 0.950 . S
H416 C392 0.950 . S
H417 C393 0.949 . S
H418 C395 0.950 . S
H419 C397 0.950 . S
C420 C421 1.349 . S
C420 C422 1.327 . S
C420 H445 0.950 . S
C421 C420 1.349 . S
C421 C437 1.349 . S
C422 C420 1.327 . S
C422 C441 1.429 . S
C422 H446 0.950 . S
C423 C440 1.574 . S
C423 C442 1.368 . S
C423 H447 0.949 . S
H424 C428 0.949 . S
C425 C426 1.349 . S
C425 C427 1.327 . S
C425 H448 0.950 . S
C426 C425 1.349 . S
C426 C438 1.349 . S
C427 C425 1.327 . S
C427 C443 1.429 . S
C427 H449 0.950 . S
C428 H424 0.949 . S
C428 C436 1.574 . S
C428 C444 1.368 . S
H429 C437 0.950 . S
H430 C435 0.950 . S
H431 C436 0.949 . S
H432 C438 0.950 . S
H433 C439 0.950 . S
H434 C440 0.949 . S
C435 H430 0.950 . S
C435 C437 1.327 . S
C435 C441 1.429 . S
C436 C428 1.574 . S
C436 H431 0.949 . S
C436 C442 1.368 . S
C437 C421 1.349 . S
C437 H429 0.950 . S
C437 C435 1.327 . S
C438 C426 1.349 . S
C438 H432 0.950 . S
C438 C439 1.327 . S
C439 H433 0.950 . S
C439 C438 1.327 . S
C439 C443 1.429 . S
C440 C423 1.574 . S
C440 H434 0.949 . S
C440 C444 1.368 . S
C441 C422 1.429 . S
C441 C435 1.429 . S
C441 C442 1.523 . S
C442 C423 1.368 . S
C442 C436 1.368 . S
C442 C441 1.523 . S
C443 C427 1.429 . S
C443 C439 1.429 . S
C443 C444 1.523 . S
C444 C428 1.368 . S
C444 C440 1.368 . S
C444 C443 1.523 . S
H445 C420 0.950 . S
H446 C422 0.950 . S
H447 C423 0.949 . S
H448 C425 0.950 . S
H449 C427 0.950 . S
C450 C451 1.349 . S
C450 C452 1.327 . S
C450 H475 0.950 . S
C451 C450 1.349 . S
C451 C467 1.349 . S
C452 C450 1.327 . S
C452 C471 1.429 . S
C452 H476 0.950 . S
C453 C470 1.574 . S
C453 C472 1.368 . S
C453 H477 0.949 . S
H454 C458 0.949 . S
C455 C456 1.349 . S
C455 C457 1.327 . S
C455 H478 0.950 . S
C456 C455 1.349 . S
C456 C468 1.349 . S
C457 C455 1.327 . S
C457 C473 1.429 . S
C457 H479 0.950 . S
C458 H454 0.949 . S
C458 C466 1.574 . S
C458 C474 1.368 . S
H459 C467 0.950 . S
H460 C465 0.950 . S
H461 C466 0.949 . S
H462 C468 0.950 . S
H463 C469 0.950 . S
H464 C470 0.949 . S
C465 H460 0.950 . S
C465 C467 1.327 . S
C465 C471 1.429 . S
C466 C458 1.574 . S
C466 H461 0.949 . S
C466 C472 1.368 . S
C467 C451 1.349 . S
C467 H459 0.950 . S
C467 C465 1.327 . S
C468 C456 1.349 . S
C468 H462 0.950 . S
C468 C469 1.327 . S
C469 H463 0.950 . S
C469 C468 1.327 . S
C469 C473 1.429 . S
C470 C453 1.574 . S
C470 H464 0.949 . S
C470 C474 1.368 . S
C471 C452 1.429 . S
C471 C465 1.429 . S
C471 C472 1.523 . S
C472 C453 1.368 . S
C472 C466 1.368 . S
C472 C471 1.523 . S
C473 C457 1.429 . S
C473 C469 1.429 . S
C473 C474 1.523 . S
C474 C458 1.368 . S
C474 C470 1.368 . S
C474 C473 1.523 . S
H475 C450 0.950 . S
H476 C452 0.950 . S
H477 C453 0.949 . S
H478 C455 0.950 . S
H479 C457 0.950 . S
C480 C481 1.349 . S
C480 C482 1.327 . S
C480 H505 0.950 . S
C481 C480 1.349 . S
C481 C497 1.349 . S
C482 C480 1.327 . S
C482 C501 1.429 . S
C482 H506 0.950 . S
C483 C500 1.574 . S
C483 C502 1.368 . S
C483 H507 0.949 . S
H484 C488 0.949 . S
C485 C486 1.349 . S
C485 C487 1.327 . S
C485 H508 0.950 . S
C486 C485 1.349 . S
C486 C498 1.349 . S
C487 C485 1.327 . S
C487 C503 1.429 . S
C487 H509 0.950 . S
C488 H484 0.949 . S
C488 C496 1.574 . S
C488 C504 1.368 . S
H489 C497 0.950 . S
H490 C495 0.950 . S
H491 C496 0.949 . S
H492 C498 0.950 . S
H493 C499 0.950 . S
H494 C500 0.949 . S
C495 H490 0.950 . S
C495 C497 1.327 . S
C495 C501 1.429 . S
C496 C488 1.574 . S
C496 H491 0.949 . S
C496 C502 1.368 . S
C497 C481 1.349 . S
C497 H489 0.950 . S
C497 C495 1.327 . S
C498 C486 1.349 . S
C498 H492 0.950 . S
C498 C499 1.327 . S
C499 H493 0.950 . S
C499 C498 1.327 . S
C499 C503 1.429 . S
C500 C483 1.574 . S
C500 H494 0.949 . S
C500 C504 1.368 . S
C501 C482 1.429 . S
C501 C495 1.429 . S
C501 C502 1.523 . S
C502 C483 1.368 . S
C502 C496 1.368 . S
C502 C501 1.523 . S
C503 C487 1.429 . S
C503 C499 1.429 . S
C503 C504 1.523 . S
C504 C488 1.368 . S
C504 C500 1.368 . S
C504 C503 1.523 . S
H505 C480 0.950 . S
H506 C482 0.950 . S
H507 C483 0.949 . S
H508 C485 0.950 . S
H509 C487 0.950 . S
C510 C511 1.349 . S
C510 C512 1.327 . S
C510 H535 0.950 . S
C511 C510 1.349 . S
C511 C527 1.349 . S
C512 C510 1.327 . S
C512 C531 1.429 . S
C512 H536 0.950 . S
C513 C530 1.574 . S
C513 C532 1.368 . S
C513 H537 0.949 . S
H514 C518 0.949 . S
C515 C516 1.349 . S
C515 C517 1.327 . S
C515 H538 0.950 . S
C516 C515 1.349 . S
C516 C528 1.349 . S
C517 C515 1.327 . S
C517 C533 1.429 . S
C517 H539 0.950 . S
C518 H514 0.949 . S
C518 C526 1.574 . S
C518 C534 1.368 . S
H519 C527 0.950 . S
H520 C525 0.950 . S
H521 C526 0.949 . S
H522 C528 0.950 . S
H523 C529 0.950 . S
H524 C530 0.949 . S
C525 H520 0.950 . S
C525 C527 1.327 . S
C525 C531 1.429 . S
C526 C518 1.574 . S
C526 H521 0.949 . S
C526 C532 1.368 . S
C527 C511 1.349 . S
C527 H519 0.950 . S
C527 C525 1.327 . S
C528 C516 1.349 . S
C528 H522 0.950 . S
C528 C529 1.327 . S
C529 H523 0.950 . S
C529 C528 1.327 . S
C529 C533 1.429 . S
C530 C513 1.574 . S
C530 H524 0.949 . S
C530 C534 1.368 . S
C531 C512 1.429 . S
C531 C525 1.429 . S
C531 C532 1.523 . S
C532 C513 1.368 . S
C532 C526 1.368 . S
C532 C531 1.523 . S
C533 C517 1.429 . S
C533 C529 1.429 . S
C533 C534 1.523 . S
C534 C518 1.368 . S
C534 C530 1.368 . S
C534 C533 1.523 . S
H535 C510 0.950 . S
H536 C512 0.950 . S
H537 C513 0.949 . S
H538 C515 0.950 . S
H539 C517 0.950 . S
C540 C541 1.349 . S
C540 C542 1.327 . S
C540 H565 0.950 . S
C541 C540 1.349 . S
C541 C557 1.349 . S
C542 C540 1.327 . S
C542 C561 1.429 . S
C542 H566 0.950 . S
C543 C560 1.574 . S
C543 C562 1.368 . S
C543 H567 0.949 . S
H544 C548 0.949 . S
C545 C546 1.349 . S
C545 C547 1.327 . S
C545 H568 0.950 . S
C546 C545 1.349 . S
C546 C558 1.349 . S
C547 C545 1.327 . S
C547 C563 1.429 . S
C547 H569 0.950 . S
C548 H544 0.949 . S
C548 C556 1.574 . S
C548 C564 1.368 . S
H549 C557 0.950 . S
H550 C555 0.950 . S
H551 C556 0.949 . S
H552 C558 0.950 . S
H553 C559 0.950 . S
H554 C560 0.949 . S
C555 H550 0.950 . S
C555 C557 1.327 . S
C555 C561 1.429 . S
C556 C548 1.574 . S
C556 H551 0.949 . S
C556 C562 1.368 . S
C557 C541 1.349 . S
C557 H549 0.950 . S
C557 C555 1.327 . S
C558 C546 1.349 . S
C558 H552 0.950 . S
C558 C559 1.327 . S
C559 H553 0.950 . S
C559 C558 1.327 . S
C559 C563 1.429 . S
C560 C543 1.574 . S
C560 H554 0.949 . S
C560 C564 1.368 . S
C561 C542 1.429 . S
C561 C555 1.429 . S
C561 C562 1.523 . S
C562 C543 1.368 . S
C562 C556 1.368 . S
C562 C561 1.523 . S
C563 C547 1.429 . S
C563 C559 1.429 . S
C563 C564 1.523 . S
C564 C548 1.368 . S
C564 C560 1.368 . S
C564 C563 1.523 . S
H565 C540 0.950 . S
H566 C542 0.950 . S
H567 C543 0.949 . S
H568 C545 0.950 . S
H569 C547 0.950 . S
C570 C571 1.349 . S
C570 C572 1.327 . S
C570 H595 0.950 . S
C571 C570 1.349 . S
C571 C587 1.349 . S
C572 C570 1.327 . S
C572 C591 1.429 . S
C572 H596 0.950 . S
C573 C590 1.574 . S
C573 C592 1.368 . S
C573 H597 0.949 . S
H574 C578 0.949 . S
C575 C576 1.349 . S
C575 C577 1.327 . S
C575 H598 0.950 . S
C576 C575 1.349 . S
C576 C588 1.349 . S
C577 C575 1.327 . S
C577 C593 1.429 . S
C577 H599 0.950 . S
C578 H574 0.949 . S
C578 C586 1.574 . S
C578 C594 1.368 . S
H579 C587 0.950 . S
H580 C585 0.950 . S
H581 C586 0.949 . S
H582 C588 0.950 . S
H583 C589 0.950 . S
H584 C590 0.949 . S
C585 H580 0.950 . S
C585 C587 1.327 . S
C585 C591 1.429 . S
C586 C578 1.574 . S
C586 H581 0.949 . S
C586 C592 1.368 . S
C587 C571 1.349 . S
C587 H579 0.950 . S
C587 C585 1.327 . S
C588 C576 1.349 . S
C588 H582 0.950 . S
C588 C589 1.327 . S
C589 H583 0.950 . S
C589 C588 1.327 . S
C589 C593 1.429 . S
C590 C573 1.574 . S
C590 H584 0.949 . S
C590 C594 1.368 . S
C591 C572 1.429 . S
C591 C585 1.429 . S
C591 C592 1.523 . S
C592 C573 1.368 . S
C592 C586 1.368 . S
C592 C591 1.523 . S
C593 C577 1.429 . S
C593 C589 1.429 . S
C593 C594 1.523 . S
C594 C578 1.368 . S
C594 C590 1.368 . S
C594 C593 1.523 . S
H595 C570 0.950 . S
H596 C572 0.950 . S
H597 C573 0.949 . S
H598 C575 0.950 . S
H599 C577 0.950 . S
C600 C601 1.349 . S
C600 C602 1.327 . S
C600 H625 0.950 . S
C601 C600 1.349 . S
C601 C617 1.349 . S
C602 C600 1.327 . S
C602 C621 1.429 . S
C602 H626 0.950 . S
C603 C620 1.574 . S
C603 C622 1.368 . S
C603 H627 0.949 . S
H604 C608 0.949 . S
C605 C606 1.349 . S
C605 C607 1.327 . S
C605 H628 0.950 . S
C606 C605 1.349 . S
C606 C618 1.349 . S
C607 C605 1.327 . S
C607 C623 1.429 . S
C607 H629 0.950 . S
C608 H604 0.949 . S
C608 C616 1.574 . S
C608 C624 1.368 . S
H609 C617 0.950 . S
H610 C615 0.950 . S
H611 C616 0.949 . S
H612 C618 0.950 . S
H613 C619 0.950 . S
H614 C620 0.949 . S
C615 H610 0.950 . S
C615 C617 1.327 . S
C615 C621 1.429 . S
C616 C608 1.574 . S
C616 H611 0.949 . S
C616 C622 1.368 . S
C617 C601 1.349 . S
C617 H609 0.950 . S
C617 C615 1.327 . S
C618 C606 1.349 . S
C618 H612 0.950 . S
C618 C619 1.327 . S
C619 H613 0.950 . S
C619 C618 1.327 . S
C619 C623 1.429 . S
C620 C603 1.574 . S
C620 H614 0.949 . S
C620 C624 1.368 . S
C621 C602 1.429 . S
C621 C615 1.429 . S
C621 C622 1.523 . S
C622 C603 1.368 . S
C622 C616 1.368 . S
C622 C621 1.523 . S
C623 C607 1.429 . S
C623 C619 1.429 . S
C623 C624 1.523 . S
C624 C608 1.368 . S
C624 C620 1.368 . S
C624 C623 1.523 . S
H625 C600 0.950 . S
H626 C602 0.950 . S
H627 C603 0.949 . S
H628 C605 0.950 . S
H629 C607 0.950 . S
C630 C631 1.349 . S
C630 C632 1.327 . S
C630 H655 0.950 . S
C631 C630 1.349 . S
C631 C647 1.349 . S
C632 C630 1.327 . S
C632 C651 1.429 . S
C632 H656 0.950 . S
C633 C650 1.574 . S
C633 C652 1.368 . S
C633 H657 0.949 . S
H634 C638 0.949 . S
C635 C636 1.287 1_545 S
C635 C637 1.332 1_545 S
C635 H658 1.011 . S
C636 C635 1.287 1_565 S
C636 C648 1.349 . S
C637 C635 1.332 1_565 S
C637 C653 1.429 . S
C637 H659 0.972 . S
C638 H634 0.949 . S
C638 C646 1.574 . S
C638 C654 1.368 . S
H639 C647 0.950 . S
H640 C645 0.950 . S
H641 C646 0.949 . S
H642 C648 0.950 . S
H643 C649 0.950 . S
H644 C650 0.949 . S
C645 H640 0.950 . S
C645 C647 1.327 . S
C645 C651 1.429 . S
C646 C638 1.574 . S
C646 H641 0.949 . S
C646 C652 1.368 . S
C647 C631 1.349 . S
C647 H639 0.950 . S
C647 C645 1.327 . S
C648 C636 1.349 . S
C648 H642 0.950 . S
C648 C649 1.327 . S
C649 H643 0.950 . S
C649 C648 1.327 . S
C649 C653 1.429 . S
C650 C633 1.574 . S
C650 H644 0.949 . S
C650 C654 1.368 . S
C651 C632 1.429 . S
C651 C645 1.429 . S
C651 C652 1.523 . S
C652 C633 1.368 . S
C652 C646 1.368 . S
C652 C651 1.523 . S
C653 C637 1.429 . S
C653 C649 1.429 . S
C653 C654 1.523 . S
C654 C638 1.368 . S
C654 C650 1.368 . S
C654 C653 1.523 . S
H655 C630 0.950 . S
H656 C632 0.950 . S
H657 C633 0.949 . S
H658 C635 1.011 . S
H659 C637 0.972 . S
C660 C661 1.349 . S
C660 C662 1.327 . S
C660 H685 0.950 . S
C661 C660 1.349 . S
C661 C677 1.349 . S
C662 C660 1.327 . S
C662 C681 1.429 . S
C662 H686 0.950 . S
C663 C680 1.574 . S
C663 C682 1.368 . S
C663 H687 0.949 . S
H664 C668 0.949 . S
C665 C666 1.349 . S
C665 C667 1.327 . S
C665 H688 0.950 . S
C666 C665 1.349 . S
C666 C678 1.349 . S
C667 C665 1.327 . S
C667 C683 1.429 . S
C667 H689 0.950 . S
C668 H664 0.949 . S
C668 C676 1.574 . S
C668 C684 1.368 . S
H669 C677 0.950 . S
H670 C675 0.950 . S
H671 C676 0.949 . S
H672 C678 0.950 . S
H673 C679 0.950 . S
H674 C680 0.949 . S
C675 H670 0.950 . S
C675 C677 1.327 . S
C675 C681 1.429 . S
C676 C668 1.574 . S
C676 H671 0.949 . S
C676 C682 1.368 . S
C677 C661 1.349 . S
C677 H669 0.950 . S
C677 C675 1.327 . S
C678 C666 1.349 . S
C678 H672 0.950 . S
C678 C679 1.327 . S
C679 H673 0.950 . S
C679 C678 1.327 . S
C679 C683 1.429 . S
C680 C663 1.574 . S
C680 H674 0.949 . S
C680 C684 1.368 . S
C681 C662 1.429 . S
C681 C675 1.429 . S
C681 C682 1.523 . S
C682 C663 1.368 . S
C682 C676 1.368 . S
C682 C681 1.523 . S
C683 C667 1.429 . S
C683 C679 1.429 . S
C683 C684 1.523 . S
C684 C668 1.368 . S
C684 C680 1.368 . S
C684 C683 1.523 . S
H685 C660 0.950 . S
H686 C662 0.950 . S
H687 C663 0.949 . S
H688 C665 0.950 . S
H689 C667 0.950 . S
C690 C691 1.349 . S
C690 C692 1.327 . S
C690 H715 0.950 . S
C691 C690 1.349 . S
C691 C707 1.349 . S
C692 C690 1.327 . S
C692 C711 1.429 . S
C692 H716 0.950 . S
C693 C710 1.574 . S
C693 C712 1.368 . S
C693 H717 0.949 . S
H694 C698 0.949 . S
C695 C696 1.349 . S
C695 C697 1.327 . S
C695 H718 0.950 . S
C696 C695 1.349 . S
C696 C708 1.349 . S
C697 C695 1.327 . S
C697 C713 1.429 . S
C697 H719 0.950 . S
C698 H694 0.949 . S
C698 C706 1.574 . S
C698 C714 1.368 . S
H699 C707 0.950 . S
H700 C705 0.950 . S
H701 C706 0.949 . S
H702 C708 0.950 . S
H703 C709 0.950 . S
H704 C710 0.949 . S
C705 H700 0.950 . S
C705 C707 1.327 . S
C705 C711 1.429 . S
C706 C698 1.574 . S
C706 H701 0.949 . S
C706 C712 1.368 . S
C707 C691 1.349 . S
C707 H699 0.950 . S
C707 C705 1.327 . S
C708 C696 1.349 . S
C708 H702 0.950 . S
C708 C709 1.327 . S
C709 H703 0.950 . S
C709 C708 1.327 . S
C709 C713 1.429 . S
C710 C693 1.574 . S
C710 H704 0.949 . S
C710 C714 1.368 . S
C711 C692 1.429 . S
C711 C705 1.429 . S
C711 C712 1.523 . S
C712 C693 1.368 . S
C712 C706 1.368 . S
C712 C711 1.523 . S
C713 C697 1.429 . S
C713 C709 1.429 . S
C713 C714 1.523 . S
C714 C698 1.368 . S
C714 C710 1.368 . S
C714 C713 1.523 . S
H715 C690 0.950 . S
H716 C692 0.950 . S
H717 C693 0.949 . S
H718 C695 0.950 . S
H719 C697 0.950 . S
C720 C721 1.349 . S
C720 C722 1.327 . S
C720 H745 0.950 . S
C721 C720 1.349 . S
C721 C737 1.349 . S
C722 C720 1.327 . S
C722 C741 1.429 . S
C722 H746 0.950 . S
C723 C740 1.574 . S
C723 C742 1.368 . S
C723 H747 0.949 . S
H724 C728 0.949 . S
C725 C726 1.349 . S
C725 C727 1.327 . S
C725 H748 0.950 . S
C726 C725 1.349 . S
C726 C738 1.349 . S
C727 C725 1.327 . S
C727 C743 1.429 . S
C727 H749 0.950 . S
C728 H724 0.949 . S
C728 C736 1.574 1_554 S
C728 C744 1.368 . S
H729 C737 0.950 . S
H730 C735 0.954 . S
H731 C736 0.949 . S
H732 C738 0.950 . S
H733 C739 0.950 . S
H734 C740 0.949 . S
C735 H730 0.954 . S
C735 C737 1.327 . S
C735 C741 1.432 . S
C736 C728 1.574 1_556 S
C736 H731 0.949 . S
C736 C742 1.368 . S
C737 C721 1.349 . S
C737 H729 0.950 . S
C737 C735 1.327 . S
C738 C726 1.349 . S
C738 H732 0.950 . S
C738 C739 1.327 . S
C739 H733 0.950 . S
C739 C738 1.327 . S
C739 C743 1.429 . S
C740 C723 1.574 . S
C740 H734 0.949 . S
C740 C744 1.368 1_556 S
C741 C722 1.429 . S
C741 C735 1.432 . S
C741 C742 1.519 1_655 S
C742 C723 1.368 . S
C742 C736 1.368 . S
C742 C741 1.519 1_455 S
C743 C727 1.429 . S
C743 C739 1.429 . S
C743 C744 1.523 . S
C744 C728 1.368 . S
C744 C740 1.368 1_554 S
C744 C743 1.523 . S
H745 C720 0.950 . S
H746 C722 0.950 . S
H747 C723 0.949 . S
H748 C725 0.950 . S
H749 C727 0.950 . S
C750 C751 1.349 . S
C750 C752 1.327 . S
C750 H775 0.950 . S
C751 C750 1.349 . S
C751 C767 1.349 . S
C752 C750 1.327 . S
C752 C771 1.429 . S
C752 H776 0.950 . S
C753 C770 1.574 . S
C753 C772 1.368 1_554 S
C753 H777 0.949 . S
H754 C758 0.949 . S
C755 C756 1.349 . S
C755 C757 1.327 . S
C755 H778 0.950 . S
C756 C755 1.349 . S
C756 C768 1.349 . S
C757 C755 1.327 . S
C757 C773 1.429 . S
C757 H779 0.950 . S
C758 H754 0.949 . S
C758 C766 1.574 . S
C758 C774 1.368 1_556 S
H759 C767 0.950 . S
H760 C765 0.950 1_554 S
H761 C766 0.949 . S
H762 C768 0.950 1_556 S
H763 C769 0.950 . S
H764 C770 0.949 . S
C765 H760 0.950 1_556 S
C765 C767 1.327 . S
C765 C771 1.429 . S
C766 C758 1.574 . S
C766 H761 0.949 . S
C766 C772 1.368 . S
C767 C751 1.349 . S
C767 H759 0.950 . S
C767 C765 1.327 . S
C768 C756 1.349 . S
C768 H762 0.950 1_554 S
C768 C769 1.327 1_554 S
C769 H763 0.950 . S
C769 C768 1.327 1_556 S
C769 C773 1.429 1_556 S
C770 C753 1.574 . S
C770 H764 0.949 . S
C770 C774 1.368 . S
C771 C752 1.429 . S
C771 C765 1.429 . S
C771 C772 1.523 . S
C772 C753 1.368 1_556 S
C772 C766 1.368 . S
C772 C771 1.523 . S
C773 C757 1.429 . S
C773 C769 1.429 1_554 S
C773 C774 1.523 . S
C774 C758 1.368 1_554 S
C774 C770 1.368 . S
C774 C773 1.523 . S
H775 C750 0.950 . S
H776 C752 0.950 . S
H777 C753 0.949 . S
H778 C755 0.950 . S
H779 C757 0.950 . S
C780 C781 1.349 . S
C780 C782 1.327 . S
C780 H805 0.950 . S
C781 C780 1.349 . S
C781 C797 1.349 . S
C782 C780 1.327 . S
C782 C801 1.429 . S
C782 H806 0.950 . S
C783 C800 1.574 1_556 S
C783 C802 1.368 . S
C783 H807 0.949 1_556 S
H784 C788 0.949 1_565 S
C785 C786 1.349 . S
C785 C787 1.327 . S
C785 H808 0.950 . S
C786 C785 1.349 . S
C786 C798 1.349 . S
C787 C785 1.327 . S
C787 C803 1.429 . S
C787 H809 0.950 . S
C788 H784 0.949 1_545 S
C788 C796 1.574 . S
C788 C804 1.368 . S
H789 C797 0.950 . S
H790 C795 0.950 . S
H791 C796 0.949 . S
H792 C798 0.950 1_556 S
H793 C799 0.950 . S
H794 C800 0.949 . S
C795 H790 0.950 . S
C795 C797 1.327 . S
C795 C801 1.429 . S
C796 C788 1.574 . S
C796 H791 0.949 . S
C796 C802 1.368 . S
C797 C781 1.349 . S
C797 H789 0.950 . S
C797 C795 1.327 . S
C798 C786 1.349 . S
C798 H792 0.950 1_554 S
C798 C799 1.327 1_554 S
C799 H793 0.950 . S
C799 C798 1.327 1_556 S
C799 C803 1.429 1_556 S
C800 C783 1.574 1_554 S
C800 H794 0.949 . S
C800 C804 1.368 1_554 S
C801 C782 1.429 . S
C801 C795 1.429 . S
C801 C802 1.523 . S
C802 C783 1.368 . S
C802 C796 1.368 . S
C802 C801 1.523 . S
C803 C787 1.429 . S
C803 C799 1.429 1_554 S
C803 C804 1.523 1_564 S
C804 C788 1.368 . S
C804 C800 1.368 1_556 S
C804 C803 1.523 1_546 S
H805 C780 0.950 . S
H806 C782 0.950 . S
H807 C783 0.949 1_554 S
H808 C785 0.950 . S
H809 C787 0.950 . S
C810 C811 1.349 . S
C810 C812 1.327 . S
C810 H835 0.950 . S
C811 C810 1.349 . S
C811 C827 1.349 . S
C812 C810 1.327 . S
C812 C831 1.429 . S
C812 H836 0.950 . S
C813 C830 1.574 . S
C813 C832 1.368 1_554 S
C813 H837 0.949 . S
H814 C818 0.949 . S
C815 C816 1.349 . S
C815 C817 1.327 . S
C815 H838 0.950 . S
C816 C815 1.349 . S
C816 C828 1.349 . S
C817 C815 1.327 . S
C817 C833 1.433 . S
C817 H839 0.950 1_565 S
C818 H814 0.949 . S
C818 C826 1.574 . S
C818 C834 1.368 1_556 S
H819 C827 0.950 . S
H820 C825 0.950 1_554 S
H821 C826 0.949 . S
H822 C828 0.950 . S
H823 C829 0.950 1_556 S
H824 C830 0.949 . S
C825 H820 0.950 1_556 S
C825 C827 1.327 . S
C825 C831 1.429 . S
C826 C818 1.574 . S
C826 H821 0.949 . S
C826 C832 1.368 . S
C827 C811 1.349 . S
C827 H819 0.950 . S
C827 C825 1.327 . S
C828 C816 1.349 . S
C828 H822 0.950 . S
C828 C829 1.327 . S
C829 H823 0.950 1_554 S
C829 C828 1.327 . S
C829 C833 1.456 . S
C830 C813 1.574 . S
C830 H824 0.949 . S
C830 C834 1.368 . S
C831 C812 1.429 . S
C831 C825 1.429 . S
C831 C832 1.523 . S
C832 C813 1.368 1_556 S
C832 C826 1.368 . S
C832 C831 1.523 . S
C833 C817 1.433 . S
C833 C829 1.456 . S
C833 C834 1.494 1_565 S
C834 C818 1.368 1_554 S
C834 C830 1.368 . S
C834 C833 1.494 1_545 S
H835 C810 0.950 . S
H836 C812 0.950 . S
H837 C813 0.949 . S
H838 C815 0.950 . S
H839 C817 0.950 1_545 S
C840 C841 1.349 . S
C840 C842 1.327 . S
C840 H865 0.950 . S
C841 C840 1.349 . S
C841 C857 1.349 . S
C842 C840 1.327 . S
C842 C861 1.429 . S
C842 H866 0.950 . S
C843 C860 1.574 1_554 S
C843 C862 1.368 . S
C843 H867 0.949 1_554 S
H844 C848 0.949 . S
C845 C846 1.349 . S
C845 C847 1.327 . S
C845 H868 0.950 . S
C846 C845 1.349 . S
C846 C858 1.349 . S
C847 C845 1.327 . S
C847 C863 1.429 . S
C847 H869 0.994 . S
C848 H844 0.949 . S
C848 C856 1.574 . S
C848 C864 1.368 . S
H849 C857 0.950 . S
H850 C855 0.950 . S
H851 C856 0.949 . S
H852 C858 0.950 1_554 S
H853 C859 0.950 . S
H854 C860 0.949 . S
C855 H850 0.950 . S
C855 C857 1.327 . S
C855 C861 1.429 . S
C856 C848 1.574 . S
C856 H851 0.949 . S
C856 C862 1.368 . S
C857 C841 1.349 . S
C857 H849 0.950 . S
C857 C855 1.327 . S
C858 C846 1.349 . S
C858 H852 0.950 1_556 S
C858 C859 1.327 1_556 S
C859 H853 0.950 . S
C859 C858 1.327 1_554 S
C859 C863 1.429 1_554 S
C860 C843 1.574 1_556 S
C860 H854 0.949 . S
C860 C864 1.368 1_556 S
C861 C842 1.429 . S
C861 C855 1.429 . S
C861 C862 1.523 . S
C862 C843 1.368 . S
C862 C856 1.368 . S
C862 C861 1.523 . S
C863 C847 1.429 . S
C863 C859 1.429 1_556 S
C863 C864 1.523 1_656 S
C864 C848 1.368 . S
C864 C860 1.368 1_554 S
C864 C863 1.523 1_454 S
H865 C840 0.950 . S
H866 C842 0.950 . S
H867 C843 0.949 1_556 S
H868 C845 0.950 . S
H869 C847 0.994 . S
C870 C871 1.349 . S
C870 C872 1.327 . S
C870 H895 0.950 . S
C871 C870 1.349 . S
C871 C887 1.349 . S
C872 C870 1.327 . S
C872 C891 1.429 . S
C872 H896 0.950 . S
C873 C890 1.574 . S
C873 C892 1.368 . S
C873 H897 0.949 . S
H874 C878 0.949 . S
C875 C876 1.349 . S
C875 C877 1.327 . S
C875 H898 0.950 . S
C876 C875 1.349 . S
C876 C888 1.349 . S
C877 C875 1.327 . S
C877 C893 1.429 . S
C877 H899 0.950 . S
C878 H874 0.949 . S
C878 C886 1.574 1_556 S
C878 C894 1.368 . S
H879 C887 0.950 . S
H880 C885 0.950 . S
H881 C886 0.949 . S
H882 C888 0.950 . S
H883 C889 0.950 . S
H884 C890 0.949 . S
C885 H880 0.950 . S
C885 C887 1.327 . S
C885 C891 1.429 . S
C886 C878 1.574 1_554 S
C886 H881 0.949 . S
C886 C892 1.368 . S
C887 C871 1.349 . S
C887 H879 0.950 . S
C887 C885 1.327 . S
C888 C876 1.349 . S
C888 H882 0.950 . S
C888 C889 1.327 . S
C889 H883 0.950 . S
C889 C888 1.327 . S
C889 C893 1.429 . S
C890 C873 1.574 . S
C890 H884 0.949 . S
C890 C894 1.368 1_554 S
C891 C872 1.429 . S
C891 C885 1.429 . S
C891 C892 1.523 . S
C892 C873 1.368 . S
C892 C886 1.368 . S
C892 C891 1.523 . S
C893 C877 1.429 . S
C893 C889 1.429 . S
C893 C894 1.523 . S
C894 C878 1.368 . S
C894 C890 1.368 1_556 S
C894 C893 1.523 . S
H895 C870 0.950 . S
H896 C872 0.950 . S
H897 C873 0.949 . S
H898 C875 0.950 . S
H899 C877 0.950 . S
C900 C901 1.349 . S
C900 C902 1.327 . S
C900 H925 0.950 . S
C901 C900 1.349 . S
C901 C917 1.349 . S
C902 C900 1.327 . S
C902 C921 1.429 . S
C902 H926 0.950 . S
C903 C920 1.574 . S
C903 C922 1.368 . S
C903 H927 0.949 . S
H904 C908 0.949 . S
C905 C906 1.349 . S
C905 C907 1.327 . S
C905 H928 0.950 . S
C906 C905 1.349 . S
C906 C918 1.349 . S
C907 C905 1.327 . S
C907 C923 1.429 . S
C907 H929 0.950 . S
C908 H904 0.949 . S
C908 C916 1.574 . S
C908 C924 1.368 . S
H909 C917 0.950 . S
H910 C915 0.950 . S
H911 C916 0.949 . S
H912 C918 0.950 . S
H913 C919 0.950 . S
H914 C920 0.949 . S
C915 H910 0.950 . S
C915 C917 1.327 . S
C915 C921 1.429 . S
C916 C908 1.574 . S
C916 H911 0.949 . S
C916 C922 1.368 . S
C917 C901 1.349 . S
C917 H909 0.950 . S
C917 C915 1.327 . S
C918 C906 1.349 . S
C918 H912 0.950 . S
C918 C919 1.327 . S
C919 H913 0.950 . S
C919 C918 1.327 . S
C919 C923 1.429 . S
C920 C903 1.574 . S
C920 H914 0.949 . S
C920 C924 1.368 . S
C921 C902 1.429 . S
C921 C915 1.429 . S
C921 C922 1.523 . S
C922 C903 1.368 . S
C922 C916 1.368 . S
C922 C921 1.523 . S
C923 C907 1.429 . S
C923 C919 1.429 . S
C923 C924 1.523 . S
C924 C908 1.368 . S
C924 C920 1.368 . S
C924 C923 1.523 . S
H925 C900 0.950 . S
H926 C902 0.950 . S
H927 C903 0.949 . S
H928 C905 0.950 . S
H929 C907 0.950 . S
C930 C931 1.349 . S
C930 C932 1.327 . S
C930 H955 0.950 . S
C931 C930 1.349 . S
C931 C947 1.349 . S
C932 C930 1.327 . S
C932 C951 1.429 . S
C932 H956 0.950 . S
C933 C950 1.574 . S
C933 C952 1.368 . S
C933 H957 0.949 . S
H934 C938 0.949 . S
C935 C936 1.349 . S
C935 C937 1.327 . S
C935 H958 0.950 . S
C936 C935 1.349 . S
C936 C948 1.349 . S
C937 C935 1.327 . S
C937 C953 1.429 . S
C937 H959 0.950 . S
C938 H934 0.949 . S
C938 C946 1.574 . S
C938 C954 1.368 . S
H939 C947 0.950 . S
H940 C945 0.950 . S
H941 C946 0.949 . S
H942 C948 0.950 . S
H943 C949 0.950 . S
H944 C950 0.949 . S
C945 H940 0.950 . S
C945 C947 1.327 . S
C945 C951 1.429 . S
C946 C938 1.574 . S
C946 H941 0.949 . S
C946 C952 1.368 . S
C947 C931 1.349 . S
C947 H939 0.950 . S
C947 C945 1.327 . S
C948 C936 1.349 . S
C948 H942 0.950 . S
C948 C949 1.327 . S
C949 H943 0.950 . S
C949 C948 1.327 . S
C949 C953 1.429 . S
C950 C933 1.574 . S
C950 H944 0.949 . S
C950 C954 1.368 . S
C951 C932 1.429 . S
C951 C945 1.429 . S
C951 C952 1.523 . S
C952 C933 1.368 . S
C952 C946 1.368 . S
C952 C951 1.523 . S
C953 C937 1.429 . S
C953 C949 1.429 . S
C953 C954 1.523 . S
C954 C938 1.368 . S
C954 C950 1.368 . S
C954 C953 1.523 . S
H955 C930 0.950 . S
H956 C932 0.950 . S
H957 C933 0.949 . S
H958 C935 0.950 . S
H959 C937 0.950 . S
C960 C961 1.349 . S
C960 C962 1.327 . S
C960 H985 0.950 . S
C961 C960 1.349 . S
C961 C977 1.349 . S
C962 C960 1.327 . S
C962 C981 1.429 . S
C962 H986 0.950 . S
C963 C980 1.574 . S
C963 C982 1.368 . S
C963 H987 0.949 . S
H964 C968 0.949 . S
C965 C966 1.349 . S
C965 C967 1.327 . S
C965 H988 0.950 . S
C966 C965 1.349 . S
C966 C978 1.349 . S
C967 C965 1.327 . S
C967 C983 1.429 . S
C967 H989 0.950 . S
C968 H964 0.949 . S
C968 C976 1.574 . S
C968 C984 1.368 . S
H969 C977 0.950 . S
H970 C975 0.950 . S
H971 C976 0.949 . S
H972 C978 0.950 . S
H973 C979 0.950 . S
H974 C980 0.949 . S
C975 H970 0.950 . S
C975 C977 1.327 . S
C975 C981 1.429 . S
C976 C968 1.574 . S
C976 H971 0.949 . S
C976 C982 1.368 . S
C977 C961 1.349 . S
C977 H969 0.950 . S
C977 C975 1.327 . S
C978 C966 1.349 . S
C978 H972 0.950 . S
C978 C979 1.327 . S
C979 H973 0.950 . S
C979 C978 1.327 . S
C979 C983 1.429 . S
C980 C963 1.574 . S
C980 H974 0.949 . S
C980 C984 1.368 . S
C981 C962 1.429 . S
C981 C975 1.429 . S
C981 C982 1.523 . S
C982 C963 1.368 . S
C982 C976 1.368 . S
C982 C981 1.523 . S
C983 C967 1.429 . S
C983 C979 1.429 . S
C983 C984 1.523 . S
C984 C968 1.368 . S
C984 C980 1.368 . S
C984 C983 1.523 . S
H985 C960 0.950 . S
H986 C962 0.950 . S
H987 C963 0.949 . S
H988 C965 0.950 . S
H989 C967 0.950 . S
C990 C991 1.349 . S
C990 C992 1.327 . S
C990 H1015 0.950 . S
C991 C990 1.349 . S
C991 C1007 1.349 . S
C992 C990 1.327 . S
C992 C1011 1.429 . S
C992 H1016 0.950 . S
C993 C1010 1.574 . S
C993 C1012 1.368 . S
C993 H1017 0.949 . S
H994 C998 0.949 . S
C995 C996 1.349 . S
C995 C997 1.327 . S
C995 H1018 0.950 . S
C996 C995 1.349 . S
C996 C1008 1.349 . S
C997 C995 1.327 . S
C997 C1013 1.429 . S
C997 H1019 0.950 . S
C998 H994 0.949 . S
C998 C1006 1.574 . S
C998 C1014 1.368 . S
H999 C1007 0.950 . S
H1000 C1005 0.950 . S
H1001 C1006 0.949 . S
H1002 C1008 0.950 . S
H1003 C1009 0.950 . S
H1004 C1010 0.949 . S
C1005 H1000 0.950 . S
C1005 C1007 1.327 . S
C1005 C1011 1.429 . S
C1006 C998 1.574 . S
C1006 H1001 0.949 . S
C1006 C1012 1.368 . S
C1007 C991 1.349 . S
C1007 H999 0.950 . S
C1007 C1005 1.327 . S
C1008 C996 1.349 . S
C1008 H1002 0.950 . S
C1008 C1009 1.327 . S
C1009 H1003 0.950 . S
C1009 C1008 1.327 . S
C1009 C1013 1.429 . S
C1010 C993 1.574 . S
C1010 H1004 0.949 . S
C1010 C1014 1.368 . S
C1011 C992 1.429 . S
C1011 C1005 1.429 . S
C1011 C1012 1.523 . S
C1012 C993 1.368 . S
C1012 C1006 1.368 . S
C1012 C1011 1.523 . S
C1013 C997 1.429 . S
C1013 C1009 1.429 . S
C1013 C1014 1.523 . S
C1014 C998 1.368 . S
C1014 C1010 1.368 . S
C1014 C1013 1.523 . S
H1015 C990 0.950 . S
H1016 C992 0.950 . S
H1017 C993 0.949 . S
H1018 C995 0.950 . S
H1019 C997 0.950 . S
C1020 C1021 1.349 . S
C1020 C1022 1.327 . S
C1020 H1045 0.950 . S
C1021 C1020 1.349 . S
C1021 C1037 1.349 . S
C1022 C1020 1.327 . S
C1022 C1041 1.429 . S
C1022 H1046 0.950 . S
C1023 C1040 1.574 . S
C1023 C1042 1.368 . S
C1023 H1047 0.949 . S
H1024 C1028 0.949 . S
C1025 C1026 1.349 . S
C1025 C1027 1.327 . S
C1025 H1048 0.950 . S
C1026 C1025 1.349 . S
C1026 C1038 1.349 . S
C1027 C1025 1.327 . S
C1027 C1043 1.429 . S
C1027 H1049 0.950 . S
C1028 H1024 0.949 . S
C1028 C1036 1.574 . S
C1028 C1044 1.368 . S
H1029 C1037 0.950 . S
H1030 C1035 0.950 . S
H1031 C1036 0.949 . S
H1032 C1038 0.950 . S
H1033 C1039 0.950 . S
H1034 C1040 0.949 . S
C1035 H1030 0.950 . S
C1035 C1037 1.327 . S
C1035 C1041 1.429 . S
C1036 C1028 1.574 . S
C1036 H1031 0.949 . S
C1036 C1042 1.368 . S
C1037 C1021 1.349 . S
C1037 H1029 0.950 . S
C1037 C1035 1.327 . S
C1038 C1026 1.349 . S
C1038 H1032 0.950 . S
C1038 C1039 1.327 . S
C1039 H1033 0.950 . S
C1039 C1038 1.327 . S
C1039 C1043 1.429 . S
C1040 C1023 1.574 . S
C1040 H1034 0.949 . S
C1040 C1044 1.368 . S
C1041 C1022 1.429 . S
C1041 C1035 1.429 . S
C1041 C1042 1.523 . S
C1042 C1023 1.368 . S
C1042 C1036 1.368 . S
C1042 C1041 1.523 . S
C1043 C1027 1.429 . S
C1043 C1039 1.429 . S
C1043 C1044 1.523 . S
C1044 C1028 1.368 . S
C1044 C1040 1.368 . S
C1044 C1043 1.523 . S
H1045 C1020 0.950 . S
H1046 C1022 0.950 . S
H1047 C1023 0.949 . S
H1048 C1025 0.950 . S
H1049 C1027 0.950 . S
C1050 C1051 1.349 . S
C1050 C1052 1.327 . S
C1050 H1075 0.950 . S
C1051 C1050 1.349 . S
C1051 C1067 1.349 . S
C1052 C1050 1.327 . S
C1052 C1071 1.429 . S
C1052 H1076 0.950 . S
C1053 C1070 1.574 . S
C1053 C1072 1.368 . S
C1053 H1077 0.949 . S
H1054 C1058 0.949 . S
C1055 C1056 1.349 . S
C1055 C1057 1.327 . S
C1055 H1078 0.950 . S
C1056 C1055 1.349 . S
C1056 C1068 1.349 . S
C1057 C1055 1.327 . S
C1057 C1073 1.429 . S
C1057 H1079 0.950 . S
C1058 H1054 0.949 . S
C1058 C1066 1.574 . S
C1058 C1074 1.368 . S
H1059 C1067 0.950 . S
H1060 C1065 0.950 . S
H1061 C1066 0.949 . S
H1062 C1068 0.950 . S
H1063 C1069 0.950 . S
H1064 C1070 0.949 . S
C1065 H1060 0.950 . S
C1065 C1067 1.327 . S
C1065 C1071 1.429 . S
C1066 C1058 1.574 . S
C1066 H1061 0.949 . S
C1066 C1072 1.368 . S
C1067 C1051 1.349 . S
C1067 H1059 0.950 . S
C1067 C1065 1.327 . S
C1068 C1056 1.349 . S
C1068 H1062 0.950 . S
C1068 C1069 1.327 . S
C1069 H1063 0.950 . S
C1069 C1068 1.327 . S
C1069 C1073 1.429 . S
C1070 C1053 1.574 . S
C1070 H1064 0.949 . S
C1070 C1074 1.368 . S
C1071 C1052 1.429 . S
C1071 C1065 1.429 . S
C1071 C1072 1.523 . S
C1072 C1053 1.368 . S
C1072 C1066 1.368 . S
C1072 C1071 1.523 . S
C1073 C1057 1.429 . S
C1073 C1069 1.429 . S
C1073 C1074 1.523 . S
C1074 C1058 1.368 . S
C1074 C1070 1.368 . S
C1074 C1073 1.523 . S
H1075 C1050 0.950 . S
H1076 C1052 0.950 . S
H1077 C1053 0.949 . S
H1078 C1055 0.950 . S
H1079 C1057 0.950 . S
C1080 C1081 1.349 . S
C1080 C1082 1.327 . S
C1080 H1105 0.950 . S
C1081 C1080 1.349 . S
C1081 C1097 1.349 . S
C1082 C1080 1.327 . S
C1082 C1101 1.429 . S
C1082 H1106 0.950 . S
C1083 C1100 1.574 . S
C1083 C1102 1.368 . S
C1083 H1107 0.949 . S
H1084 C1088 0.949 . S
C1085 C1086 1.349 . S
C1085 C1087 1.327 . S
C1085 H1108 0.950 . S
C1086 C1085 1.349 . S
C1086 C1098 1.349 . S
C1087 C1085 1.327 . S
C1087 C1103 1.429 . S
C1087 H1109 0.950 . S
C1088 H1084 0.949 . S
C1088 C1096 1.574 . S
C1088 C1104 1.368 . S
H1089 C1097 0.950 . S
H1090 C1095 0.950 . S
H1091 C1096 0.949 . S
H1092 C1098 0.950 . S
H1093 C1099 0.950 . S
H1094 C1100 0.949 . S
C1095 H1090 0.950 . S
C1095 C1097 1.327 . S
C1095 C1101 1.429 . S
C1096 C1088 1.574 . S
C1096 H1091 0.949 . S
C1096 C1102 1.368 . S
C1097 C1081 1.349 . S
C1097 H1089 0.950 . S
C1097 C1095 1.327 . S
C1098 C1086 1.349 . S
C1098 H1092 0.950 . S
C1098 C1099 1.327 . S
C1099 H1093 0.950 . S
C1099 C1098 1.327 . S
C1099 C1103 1.429 . S
C1100 C1083 1.574 . S
C1100 H1094 0.949 . S
C1100 C1104 1.368 . S
C1101 C1082 1.429 . S
C1101 C1095 1.429 . S
C1101 C1102 1.523 . S
C1102 C1083 1.368 . S
C1102 C1096 1.368 . S
C1102 C1101 1.523 . S
C1103 C1087 1.429 . S
C1103 C1099 1.429 . S
C1103 C1104 1.523 . S
C1104 C1088 1.368 . S
C1104 C1100 1.368 . S
C1104 C1103 1.523 . S
H1105 C1080 0.950 . S
H1106 C1082 0.950 . S
H1107 C1083 0.949 . S
H1108 C1085 0.950 . S
H1109 C1087 0.950 . S
C1110 C1111 1.349 . S
C1110 C1112 1.327 . S
C1110 H1135 0.950 . S
C1111 C1110 1.349 . S
C1111 C1127 1.349 . S
C1112 C1110 1.327 . S
C1112 C1131 1.429 . S
C1112 H1136 0.950 . S
C1113 C1130 1.574 . S
C1113 C1132 1.368 . S
C1113 H1137 0.949 . S
H1114 C1118 0.949 . S
C1115 C1116 1.349 . S
C1115 C1117 1.327 . S
C1115 H1138 0.950 . S
C1116 C1115 1.349 . S
C1116 C1128 1.349 . S
C1117 C1115 1.327 . S
C1117 C1133 1.429 . S
C1117 H1139 0.950 . S
C1118 H1114 0.949 . S
C1118 C1126 1.574 . S
C1118 C1134 1.368 . S
H1119 C1127 0.950 . S
H1120 C1125 0.950 . S
H1121 C1126 0.949 . S
H1122 C1128 0.950 . S
H1123 C1129 0.950 . S
H1124 C1130 0.949 . S
C1125 H1120 0.950 . S
C1125 C1127 1.327 . S
C1125 C1131 1.429 . S
C1126 C1118 1.574 . S
C1126 H1121 0.949 . S
C1126 C1132 1.368 . S
C1127 C1111 1.349 . S
C1127 H1119 0.950 . S
C1127 C1125 1.327 . S
C1128 C1116 1.349 . S
C1128 H1122 0.950 . S
C1128 C1129 1.327 . S
C1129 H1123 0.950 . S
C1129 C1128 1.327 . S
C1129 C1133 1.429 . S
C1130 C1113 1.574 . S
C1130 H1124 0.949 . S
C1130 C1134 1.368 . S
C1131 C1112 1.429 . S
C1131 C1125 1.429 . S
C1131 C1132 1.523 . S
C1132 C1113 1.368 . S
C1132 C1126 1.368 . S
C1132 C1131 1.523 . S
C1133 C1117 1.429 . S
C1133 C1129 1.429 . S
C1133 C1134 1.523 . S
C1134 C1118 1.368 . S
C1134 C1130 1.368 . S
C1134 C1133 1.523 . S
H1135 C1110 0.950 . S
H1136 C1112 0.950 . S
H1137 C1113 0.949 . S
H1138 C1115 0.950 . S
H1139 C1117 0.950 . S
C1140 C1141 1.349 . S
C1140 C1142 1.327 . S
C1140 H1165 0.950 . S
C1141 C1140 1.349 . S
C1141 C1157 1.349 . S
C1142 C1140 1.327 . S
C1142 C1161 1.429 . S
C1142 H1166 0.950 . S
C1143 C1160 1.574 . S
C1143 C1162 1.368 . S
C1143 H1167 0.949 . S
H1144 C1148 0.949 . S
C1145 C1146 1.349 . S
C1145 C1147 1.327 . S
C1145 H1168 0.950 . S
C1146 C1145 1.349 . S
C1146 C1158 1.349 . S
C1147 C1145 1.327 . S
C1147 C1163 1.429 . S
C1147 H1169 0.950 . S
C1148 H1144 0.949 . S
C1148 C1156 1.574 . S
C1148 C1164 1.368 . S
H1149 C1157 0.950 . S
H1150 C1155 0.950 . S
H1151 C1156 0.949 . S
H1152 C1158 0.950 . S
H1153 C1159 0.950 . S
H1154 C1160 0.949 . S
C1155 H1150 0.950 . S
C1155 C1157 1.327 . S
C1155 C1161 1.429 . S
C1156 C1148 1.574 . S
C1156 H1151 0.949 . S
C1156 C1162 1.368 . S
C1157 C1141 1.349 . S
C1157 H1149 0.950 . S
C1157 C1155 1.327 . S
C1158 C1146 1.349 . S
C1158 H1152 0.950 . S
C1158 C1159 1.327 . S
C1159 H1153 0.950 . S
C1159 C1158 1.327 . S
C1159 C1163 1.429 . S
C1160 C1143 1.574 . S
C1160 H1154 0.949 . S
C1160 C1164 1.368 . S
C1161 C1142 1.429 . S
C1161 C1155 1.429 . S
C1161 C1162 1.523 . S
C1162 C1143 1.368 . S
C1162 C1156 1.368 . S
C1162 C1161 1.523 . S
C1163 C1147 1.429 . S
C1163 C1159 1.429 . S
C1163 C1164 1.523 . S
C1164 C1148 1.368 . S
C1164 C1160 1.368 . S
C1164 C1163 1.523 . S
H1165 C1140 0.950 . S
H1166 C1142 0.950 . S
H1167 C1143 0.949 . S
H1168 C1145 0.950 . S
H1169 C1147 0.950 . S
C1170 C1171 1.349 . S
C1170 C1172 1.327 . S
C1170 H1195 0.950 . S
C1171 C1170 1.349 . S
C1171 C1187 1.349 . S
C1172 C1170 1.327 . S
C1172 C1191 1.429 . S
C1172 H1196 0.950 . S
C1173 C1190 1.574 . S
C1173 C1192 1.368 . S
C1173 H1197 0.949 . S
H1174 C1178 0.949 . S
C1175 C1176 1.349 . S
C1175 C1177 1.327 . S
C1175 H1198 0.950 . S
C1176 C1175 1.349 . S
C1176 C1188 1.349 . S
C1177 C1175 1.327 . S
C1177 C1193 1.429 . S
C1177 H1199 0.950 . S
C1178 H1174 0.949 . S
C1178 C1186 1.574 . S
C1178 C1194 1.368 . S
H1179 C1187 0.950 . S
H1180 C1185 0.950 . S
H1181 C1186 0.949 . S
H1182 C1188 0.950 . S
H1183 C1189 0.950 . S
H1184 C1190 0.949 . S
C1185 H1180 0.950 . S
C1185 C1187 1.327 . S
C1185 C1191 1.429 . S
C1186 C1178 1.574 . S
C1186 H1181 0.949 . S
C1186 C1192 1.368 . S
C1187 C1171 1.349 . S
C1187 H1179 0.950 . S
C1187 C1185 1.327 . S
C1188 C1176 1.349 . S
C1188 H1182 0.950 . S
C1188 C1189 1.327 . S
C1189 H1183 0.950 . S
C1189 C1188 1.327 . S
C1189 C1193 1.429 . S
C1190 C1173 1.574 . S
C1190 H1184 0.949 . S
C1190 C1194 1.368 . S
C1191 C1172 1.429 . S
C1191 C1185 1.429 . S
C1191 C1192 1.523 . S
C1192 C1173 1.368 . S
C1192 C1186 1.368 . S
C1192 C1191 1.523 . S
C1193 C1177 1.429 . S
C1193 C1189 1.429 . S
C1193 C1194 1.523 . S
C1194 C1178 1.368 . S
C1194 C1190 1.368 . S
C1194 C1193 1.523 . S
H1195 C1170 0.950 . S
H1196 C1172 0.950 . S
H1197 C1173 0.949 . S
H1198 C1175 0.950 . S
H1199 C1177 0.950 . S
C1200 C1201 1.349 . S
C1200 C1202 1.327 . S
C1200 H1225 0.950 . S
C1201 C1200 1.349 . S
C1201 C1217 1.349 . S
C1202 C1200 1.327 . S
C1202 C1221 1.429 . S
C1202 H1226 0.950 . S
C1203 C1220 1.574 . S
C1203 C1222 1.368 . S
C1203 H1227 0.949 . S
H1204 C1208 0.949 . S
C1205 C1206 1.349 . S
C1205 C1207 1.327 . S
C1205 H1228 0.950 . S
C1206 C1205 1.349 . S
C1206 C1218 1.349 . S
C1207 C1205 1.327 . S
C1207 C1223 1.429 . S
C1207 H1229 0.950 . S
C1208 H1204 0.949 . S
C1208 C1216 1.574 . S
C1208 C1224 1.368 . S
H1209 C1217 0.950 . S
H1210 C1215 0.950 . S
H1211 C1216 0.949 . S
H1212 C1218 0.950 . S
H1213 C1219 0.950 . S
H1214 C1220 0.949 . S
C1215 H1210 0.950 . S
C1215 C1217 1.327 . S
C1215 C1221 1.429 . S
C1216 C1208 1.574 . S
C1216 H1211 0.949 . S
C1216 C1222 1.368 . S
C1217 C1201 1.349 . S
C1217 H1209 0.950 . S
C1217 C1215 1.327 . S
C1218 C1206 1.349 . S
C1218 H1212 0.950 . S
C1218 C1219 1.327 . S
C1219 H1213 0.950 . S
C1219 C1218 1.327 . S
C1219 C1223 1.429 . S
C1220 C1203 1.574 . S
C1220 H1214 0.949 . S
C1220 C1224 1.368 . S
C1221 C1202 1.429 . S
C1221 C1215 1.429 . S
C1221 C1222 1.523 . S
C1222 C1203 1.368 . S
C1222 C1216 1.368 . S
C1222 C1221 1.523 . S
C1223 C1207 1.429 . S
C1223 C1219 1.429 . S
C1223 C1224 1.523 . S
C1224 C1208 1.368 . S
C1224 C1220 1.368 . S
C1224 C1223 1.523 . S
H1225 C1200 0.950 . S
H1226 C1202 0.950 . S
H1227 C1203 0.949 . S
H1228 C1205 0.950 . S
H1229 C1207 0.950 . S
C1230 C1231 1.349 . S
C1230 C1232 1.327 . S
C1230 H1255 0.950 . S
C1231 C1230 1.349 . S
C1231 C1247 1.349 . S
C1232 C1230 1.327 . S
C1232 C1251 1.429 . S
C1232 H1256 0.950 . S
C1233 C1250 1.574 . S
C1233 C1252 1.368 . S
C1233 H1257 0.949 . S
H1234 C1238 0.949 . S
C1235 C1236 1.349 . S
C1235 C1237 1.327 . S
C1235 H1258 0.950 . S
C1236 C1235 1.349 . S
C1236 C1248 1.349 . S
C1237 C1235 1.327 . S
C1237 C1253 1.429 . S
C1237 H1259 0.950 . S
C1238 H1234 0.949 . S
C1238 C1246 1.574 . S
C1238 C1254 1.368 . S
H1239 C1247 0.950 . S
H1240 C1245 0.950 . S
H1241 C1246 0.949 . S
H1242 C1248 0.950 . S
H1243 C1249 0.950 . S
H1244 C1250 0.949 . S
C1245 H1240 0.950 . S
C1245 C1247 1.327 . S
C1245 C1251 1.429 . S
C1246 C1238 1.574 . S
C1246 H1241 0.949 . S
C1246 C1252 1.368 . S
C1247 C1231 1.349 . S
C1247 H1239 0.950 . S
C1247 C1245 1.327 . S
C1248 C1236 1.349 . S
C1248 H1242 0.950 . S
C1248 C1249 1.327 . S
C1249 H1243 0.950 . S
C1249 C1248 1.327 . S
C1249 C1253 1.429 . S
C1250 C1233 1.574 . S
C1250 H1244 0.949 . S
C1250 C1254 1.368 . S
C1251 C1232 1.429 . S
C1251 C1245 1.429 . S
C1251 C1252 1.523 . S
C1252 C1233 1.368 . S
C1252 C1246 1.368 . S
C1252 C1251 1.523 . S
C1253 C1237 1.429 . S
C1253 C1249 1.429 . S
C1253 C1254 1.523 . S
C1254 C1238 1.368 . S
C1254 C1250 1.368 . S
C1254 C1253 1.523 . S
H1255 C1230 0.950 . S
H1256 C1232 0.950 . S
H1257 C1233 0.949 . S
H1258 C1235 0.950 . S
H1259 C1237 0.950 . S
C1260 C1261 1.349 . S
C1260 C1262 1.327 . S
C1260 H1285 0.950 . S
C1261 C1260 1.349 . S
C1261 C1277 1.349 . S
C1262 C1260 1.327 . S
C1262 C1281 1.429 . S
C1262 H1286 0.950 . S
C1263 C1280 1.574 . S
C1263 C1282 1.368 . S
C1263 H1287 0.949 . S
H1264 C1268 0.949 . S
C1265 C1266 1.349 . S
C1265 C1267 1.327 . S
C1265 H1288 0.950 . S
C1266 C1265 1.349 . S
C1266 C1278 1.349 . S
C1267 C1265 1.327 . S
C1267 C1283 1.429 . S
C1267 H1289 0.950 . S
C1268 H1264 0.949 . S
C1268 C1276 1.574 . S
C1268 C1284 1.368 . S
H1269 C1277 0.950 . S
H1270 C1275 0.950 . S
H1271 C1276 0.949 . S
H1272 C1278 0.950 . S
H1273 C1279 0.950 . S
H1274 C1280 0.949 . S
C1275 H1270 0.950 . S
C1275 C1277 1.327 . S
C1275 C1281 1.429 . S
C1276 C1268 1.574 . S
C1276 H1271 0.949 . S
C1276 C1282 1.368 . S
C1277 C1261 1.349 . S
C1277 H1269 0.950 . S
C1277 C1275 1.327 . S
C1278 C1266 1.349 . S
C1278 H1272 0.950 . S
C1278 C1279 1.327 . S
C1279 H1273 0.950 . S
C1279 C1278 1.327 . S
C1279 C1283 1.429 . S
C1280 C1263 1.574 . S
C1280 H1274 0.949 . S
C1280 C1284 1.368 . S
C1281 C1262 1.429 . S
C1281 C1275 1.429 . S
C1281 C1282 1.523 . S
C1282 C1263 1.368 . S
C1282 C1276 1.368 . S
C1282 C1281 1.523 . S
C1283 C1267 1.429 . S
C1283 C1279 1.429 . S
C1283 C1284 1.523 . S
C1284 C1268 1.368 . S
C1284 C1280 1.368 . S
C1284 C1283 1.523 . S
H1285 C1260 0.950 . S
H1286 C1262 0.950 . S
H1287 C1263 0.949 . S
H1288 C1265 0.950 . S
H1289 C1267 0.950 . S
C1290 C1291 1.349 . S
C1290 C1292 1.327 . S
C1290 H1315 0.950 . S
C1291 C1290 1.349 . S
C1291 C1307 1.349 . S
C1292 C1290 1.327 . S
C1292 C1311 1.429 . S
C1292 H1316 0.950 . S
C1293 C1310 1.574 . S
C1293 C1312 1.368 . S
C1293 H1317 0.949 . S
H1294 C1298 0.949 . S
C1295 C1296 1.349 . S
C1295 C1297 1.327 . S
C1295 H1318 0.950 1_554 S
C1296 C1295 1.349 . S
C1296 C1308 1.349 . S
C1297 C1295 1.327 . S
C1297 C1313 1.429 . S
C1297 H1319 0.950 . S
C1298 H1294 0.949 . S
C1298 C1306 1.574 . S
C1298 C1314 1.368 . S
H1299 C1307 0.950 . S
H1300 C1305 0.950 . S
H1301 C1306 0.949 . S
H1302 C1308 0.950 . S
H1303 C1309 0.950 . S
H1304 C1310 0.949 . S
C1305 H1300 0.950 . S
C1305 C1307 1.327 . S
C1305 C1311 1.429 . S
C1306 C1298 1.574 . S
C1306 H1301 0.949 . S
C1306 C1312 1.368 . S
C1307 C1291 1.349 . S
C1307 H1299 0.950 . S
C1307 C1305 1.327 . S
C1308 C1296 1.349 . S
C1308 H1302 0.950 . S
C1308 C1309 1.327 . S
C1309 H1303 0.950 . S
C1309 C1308 1.327 . S
C1309 C1313 1.429 . S
C1310 C1293 1.574 . S
C1310 H1304 0.949 . S
C1310 C1314 1.368 . S
C1311 C1292 1.429 . S
C1311 C1305 1.429 . S
C1311 C1312 1.523 . S
C1312 C1293 1.368 . S
C1312 C1306 1.368 . S
C1312 C1311 1.523 . S
C1313 C1297 1.429 . S
C1313 C1309 1.429 . S
C1313 C1314 1.523 . S
C1314 C1298 1.368 . S
C1314 C1310 1.368 . S
C1314 C1313 1.523 . S
H1315 C1290 0.950 . S
H1316 C1292 0.950 . S
H1317 C1293 0.949 . S
H1318 C1295 0.950 1_556 S
H1319 C1297 0.950 . S
C1320 C1321 1.349 . S
C1320 C1322 1.327 . S
C1320 H1345 0.950 . S
C1321 C1320 1.349 . S
C1321 C1337 1.349 . S
C1322 C1320 1.327 . S
C1322 C1341 1.429 . S
C1322 H1346 0.950 . S
C1323 C1340 1.574 . S
C1323 C1342 1.368 . S
C1323 H1347 0.949 . S
H1324 C1328 0.949 . S
C1325 C1326 1.349 . S
C1325 C1327 1.327 . S
C1325 H1348 0.950 . S
C1326 C1325 1.349 . S
C1326 C1338 1.349 . S
C1327 C1325 1.327 . S
C1327 C1343 1.429 . S
C1327 H1349 0.950 . S
C1328 H1324 0.949 . S
C1328 C1336 1.574 . S
C1328 C1344 1.368 . S
H1329 C1337 0.950 . S
H1330 C1335 0.950 . S
H1331 C1336 0.949 . S
H1332 C1338 0.950 . S
H1333 C1339 0.950 . S
H1334 C1340 0.949 . S
C1335 H1330 0.950 . S
C1335 C1337 1.327 . S
C1335 C1341 1.429 . S
C1336 C1328 1.574 . S
C1336 H1331 0.949 . S
C1336 C1342 1.368 . S
C1337 C1321 1.349 . S
C1337 H1329 0.950 . S
C1337 C1335 1.327 . S
C1338 C1326 1.349 . S
C1338 H1332 0.950 . S
C1338 C1339 1.327 . S
C1339 H1333 0.950 . S
C1339 C1338 1.327 . S
C1339 C1343 1.429 . S
C1340 C1323 1.574 . S
C1340 H1334 0.949 . S
C1340 C1344 1.368 . S
C1341 C1322 1.429 . S
C1341 C1335 1.429 . S
C1341 C1342 1.523 . S
C1342 C1323 1.368 . S
C1342 C1336 1.368 . S
C1342 C1341 1.523 . S
C1343 C1327 1.429 . S
C1343 C1339 1.429 . S
C1343 C1344 1.523 . S
C1344 C1328 1.368 . S
C1344 C1340 1.368 . S
C1344 C1343 1.523 . S
H1345 C1320 0.950 . S
H1346 C1322 0.950 . S
H1347 C1323 0.949 . S
H1348 C1325 0.950 . S
H1349 C1327 0.950 . S
C1350 C1351 1.349 . S
C1350 C1352 1.327 . S
C1350 H1375 0.950 . S
C1351 C1350 1.349 . S
C1351 C1367 1.349 . S
C1352 C1350 1.327 . S
C1352 C1371 1.429 . S
C1352 H1376 0.950 . S
C1353 C1370 1.574 . S
C1353 C1372 1.368 . S
C1353 H1377 0.949 . S
H1354 C1358 0.949 . S
C1355 C1356 1.349 . S
C1355 C1357 1.327 . S
C1355 H1378 0.950 . S
C1356 C1355 1.349 . S
C1356 C1368 1.349 . S
C1357 C1355 1.327 . S
C1357 C1373 1.429 . S
C1357 H1379 0.950 . S
C1358 H1354 0.949 . S
C1358 C1366 1.574 . S
C1358 C1374 1.368 . S
H1359 C1367 0.950 . S
H1360 C1365 0.950 . S
H1361 C1366 0.949 . S
H1362 C1368 0.950 . S
H1363 C1369 0.950 . S
H1364 C1370 0.949 . S
C1365 H1360 0.950 . S
C1365 C1367 1.327 . S
C1365 C1371 1.429 . S
C1366 C1358 1.574 . S
C1366 H1361 0.949 . S
C1366 C1372 1.368 . S
C1367 C1351 1.349 . S
C1367 H1359 0.950 . S
C1367 C1365 1.327 . S
C1368 C1356 1.349 . S
C1368 H1362 0.950 . S
C1368 C1369 1.327 . S
C1369 H1363 0.950 . S
C1369 C1368 1.327 . S
C1369 C1373 1.429 . S
C1370 C1353 1.574 . S
C1370 H1364 0.949 . S
C1370 C1374 1.368 . S
C1371 C1352 1.429 . S
C1371 C1365 1.429 . S
C1371 C1372 1.523 . S
C1372 C1353 1.368 . S
C1372 C1366 1.368 . S
C1372 C1371 1.523 . S
C1373 C1357 1.429 . S
C1373 C1369 1.429 . S
C1373 C1374 1.523 . S
C1374 C1358 1.368 . S
C1374 C1370 1.368 . S
C1374 C1373 1.523 . S
H1375 C1350 0.950 . S
H1376 C1352 0.950 . S
H1377 C1353 0.949 . S
H1378 C1355 0.950 . S
H1379 C1357 0.950 . S
C1380 C1381 1.349 . S
C1380 C1382 1.327 . S
C1380 H1405 0.950 . S
C1381 C1380 1.349 . S
C1381 C1397 1.349 . S
C1382 C1380 1.327 . S
C1382 C1401 1.429 . S
C1382 H1406 0.950 . S
C1383 C1400 1.574 . S
C1383 C1402 1.368 . S
C1383 H1407 0.949 . S
H1384 C1388 0.949 . S
C1385 C1386 1.349 . S
C1385 C1387 1.327 . S
C1385 H1408 0.950 . S
C1386 C1385 1.349 . S
C1386 C1398 1.349 . S
C1387 C1385 1.327 . S
C1387 C1403 1.429 . S
C1387 H1409 0.950 . S
C1388 H1384 0.949 . S
C1388 C1396 1.574 . S
C1388 C1404 1.368 . S
H1389 C1397 0.950 . S
H1390 C1395 0.950 . S
H1391 C1396 0.949 . S
H1392 C1398 0.950 . S
H1393 C1399 0.950 . S
H1394 C1400 0.949 . S
C1395 H1390 0.950 . S
C1395 C1397 1.327 . S
C1395 C1401 1.429 . S
C1396 C1388 1.574 . S
C1396 H1391 0.949 . S
C1396 C1402 1.368 . S
C1397 C1381 1.349 . S
C1397 H1389 0.950 . S
C1397 C1395 1.327 . S
C1398 C1386 1.349 . S
C1398 H1392 0.950 . S
C1398 C1399 1.327 . S
C1399 H1393 0.950 . S
C1399 C1398 1.327 . S
C1399 C1403 1.429 . S
C1400 C1383 1.574 . S
C1400 H1394 0.949 . S
C1400 C1404 1.368 . S
C1401 C1382 1.429 . S
C1401 C1395 1.429 . S
C1401 C1402 1.523 . S
C1402 C1383 1.368 . S
C1402 C1396 1.368 . S
C1402 C1401 1.523 . S
C1403 C1387 1.429 . S
C1403 C1399 1.429 . S
C1403 C1404 1.523 . S
C1404 C1388 1.368 . S
C1404 C1400 1.368 . S
C1404 C1403 1.523 . S
H1405 C1380 0.950 . S
H1406 C1382 0.950 . S
H1407 C1383 0.949 . S
H1408 C1385 0.950 . S
H1409 C1387 0.950 . S
C1410 C1411 1.349 . S
C1410 C1412 1.327 . S
C1410 H1435 0.950 . S
C1411 C1410 1.349 . S
C1411 C1427 1.349 . S
C1412 C1410 1.327 . S
C1412 C1431 1.429 . S
C1412 H1436 0.950 . S
C1413 C1430 1.574 . S
C1413 C1432 1.368 . S
C1413 H1437 0.949 . S
H1414 C1418 0.949 . S
C1415 C1416 1.349 . S
C1415 C1417 1.327 . S
C1415 H1438 0.950 . S
C1416 C1415 1.349 . S
C1416 C1428 1.349 . S
C1417 C1415 1.327 . S
C1417 C1433 1.429 . S
C1417 H1439 0.950 . S
C1418 H1414 0.949 . S
C1418 C1426 1.574 . S
C1418 C1434 1.368 . S
H1419 C1427 0.950 . S
H1420 C1425 0.950 . S
H1421 C1426 0.949 . S
H1422 C1428 0.950 . S
H1423 C1429 0.950 . S
H1424 C1430 0.949 . S
C1425 H1420 0.950 . S
C1425 C1427 1.327 . S
C1425 C1431 1.429 . S
C1426 C1418 1.574 . S
C1426 H1421 0.949 . S
C1426 C1432 1.368 . S
C1427 C1411 1.349 . S
C1427 H1419 0.950 . S
C1427 C1425 1.327 . S
C1428 C1416 1.349 . S
C1428 H1422 0.950 . S
C1428 C1429 1.327 . S
C1429 H1423 0.950 . S
C1429 C1428 1.327 . S
C1429 C1433 1.429 . S
C1430 C1413 1.574 . S
C1430 H1424 0.949 . S
C1430 C1434 1.368 . S
C1431 C1412 1.429 . S
C1431 C1425 1.429 . S
C1431 C1432 1.523 . S
C1432 C1413 1.368 . S
C1432 C1426 1.368 . S
C1432 C1431 1.523 . S
C1433 C1417 1.429 . S
C1433 C1429 1.429 . S
C1433 C1434 1.523 . S
C1434 C1418 1.368 . S
C1434 C1430 1.368 . S
C1434 C1433 1.523 . S
H1435 C1410 0.950 . S
H1436 C1412 0.950 . S
H1437 C1413 0.949 . S
H1438 C1415 0.950 . S
H1439 C1417 0.950 . S
C1440 C1441 1.349 . S
C1440 C1442 1.327 . S
C1440 H1465 0.950 . S
C1441 C1440 1.349 . S
C1441 C1457 1.349 . S
C1442 C1440 1.327 . S
C1442 C1461 1.429 . S
C1442 H1466 0.950 . S
C1443 C1460 1.574 1_554 S
C1443 C1462 1.368 . S
C1443 H1467 0.949 1_455 S
H1444 C1448 0.949 . S
C1445 C1446 1.349 1_655 S
C1445 C1447 1.327 . S
C1445 H1468 0.950 . S
C1446 C1445 1.349 1_455 S
C1446 C1458 1.349 . S
C1447 C1445 1.327 . S
C1447 C1463 1.411 1_655 S
C1447 H1469 0.968 . S
C1448 H1444 0.949 . S
C1448 C1456 1.574 1_556 S
C1448 C1464 1.368 . S
H1449 C1457 0.925 1_655 S
H1450 C1455 0.950 1_655 S
H1451 C1456 0.949 . S
H1452 C1458 0.950 . S
H1453 C1459 0.950 . S
H1454 C1460 0.949 1_655 S
C1455 H1450 0.950 1_455 S
C1455 C1457 1.327 . S
C1455 C1461 1.429 . S
C1456 C1448 1.574 1_554 S
C1456 H1451 0.949 . S
C1456 C1462 1.368 . S
C1457 C1441 1.349 . S
C1457 H1449 0.925 1_455 S
C1457 C1455 1.327 . S
C1458 C1446 1.349 . S
C1458 H1452 0.950 . S
C1458 C1459 1.327 . S
C1459 H1453 0.950 . S
C1459 C1458 1.327 . S
C1459 C1463 1.429 . S
C1460 C1443 1.574 1_556 S
C1460 H1454 0.949 1_455 S
C1460 C1464 1.368 . S
C1461 C1442 1.429 . S
C1461 C1455 1.429 . S
C1461 C1462 1.523 . S
C1462 C1443 1.368 . S
C1462 C1456 1.368 . S
C1462 C1461 1.523 . S
C1463 C1447 1.411 1_455 S
C1463 C1459 1.429 . S
C1463 C1464 1.523 . S
C1464 C1448 1.368 . S
C1464 C1460 1.368 . S
C1464 C1463 1.523 . S
H1465 C1440 0.950 . S
H1466 C1442 0.950 . S
H1467 C1443 0.949 1_655 S
H1468 C1445 0.950 . S
H1469 C1447 0.968 . S
C1470 C1471 1.349 . S
C1470 C1472 1.327 . S
C1470 H1495 0.950 . S
C1471 C1470 1.349 . S
C1471 C1487 1.349 . S
C1472 C1470 1.327 . S
C1472 C1491 1.429 . S
C1472 H1496 0.950 . S
C1473 C1490 1.574 1_554 S
C1473 C1492 1.368 . S
C1473 H1497 0.949 . S
H1474 C1478 0.949 . S
C1475 C1476 1.349 . S
C1475 C1477 1.327 . S
C1475 H1498 0.950 . S
C1476 C1475 1.349 . S
C1476 C1488 1.349 . S
C1477 C1475 1.327 . S
C1477 C1493 1.429 . S
C1477 H1499 0.950 . S
C1478 H1474 0.949 . S
C1478 C1486 1.574 1_556 S
C1478 C1494 1.368 . S
H1479 C1487 0.950 . S
H1480 C1485 0.950 . S
H1481 C1486 0.949 . S
H1482 C1488 0.950 . S
H1483 C1489 0.950 . S
H1484 C1490 0.949 . S
C1485 H1480 0.950 . S
C1485 C1487 1.327 . S
C1485 C1491 1.429 . S
C1486 C1478 1.574 1_554 S
C1486 H1481 0.949 . S
C1486 C1492 1.368 . S
C1487 C1471 1.349 . S
C1487 H1479 0.950 . S
C1487 C1485 1.327 . S
C1488 C1476 1.349 . S
C1488 H1482 0.950 . S
C1488 C1489 1.327 . S
C1489 H1483 0.950 . S
C1489 C1488 1.327 . S
C1489 C1493 1.429 . S
C1490 C1473 1.574 1_556 S
C1490 H1484 0.949 . S
C1490 C1494 1.368 . S
C1491 C1472 1.429 . S
C1491 C1485 1.429 . S
C1491 C1492 1.523 . S
C1492 C1473 1.368 . S
C1492 C1486 1.368 . S
C1492 C1491 1.523 . S
C1493 C1477 1.429 . S
C1493 C1489 1.429 . S
C1493 C1494 1.523 . S
C1494 C1478 1.368 . S
C1494 C1490 1.368 . S
C1494 C1493 1.523 . S
H1495 C1470 0.950 . S
H1496 C1472 0.950 . S
H1497 C1473 0.949 . S
H1498 C1475 0.950 . S
H1499 C1477 0.950 . S
C1500 C1501 1.349 . S
C1500 C1502 1.327 . S
C1500 H1525 0.950 1_545 S
C1501 C1500 1.349 . S
C1501 C1517 1.349 . S
C1502 C1500 1.327 . S
C1502 C1521 1.429 . S
C1502 H1526 0.950 1_545 S
C1503 C1520 1.574 1_554 S
C1503 C1522 1.368 . S
C1503 H1527 0.949 . S
H1504 C1508 0.949 . S
C1505 C1506 1.349 . S
C1505 C1507 1.327 . S
C1505 H1528 0.950 . S
C1506 C1505 1.349 . S
C1506 C1518 1.349 . S
C1507 C1505 1.327 . S
C1507 C1523 1.429 . S
C1507 H1529 0.950 . S
C1508 H1504 0.949 . S
C1508 C1516 1.574 1_556 S
C1508 C1524 1.368 . S
H1509 C1517 0.950 . S
H1510 C1515 0.950 . S
H1511 C1516 0.949 1_565 S
H1512 C1518 0.950 . S
H1513 C1519 0.950 . S
H1514 C1520 0.949 . S
C1515 H1510 0.950 . S
C1515 C1517 1.327 . S
C1515 C1521 1.429 . S
C1516 C1508 1.574 1_554 S
C1516 H1511 0.949 1_545 S
C1516 C1522 1.368 . S
C1517 C1501 1.349 . S
C1517 H1509 0.950 . S
C1517 C1515 1.327 . S
C1518 C1506 1.349 . S
C1518 H1512 0.950 . S
C1518 C1519 1.327 . S
C1519 H1513 0.950 . S
C1519 C1518 1.327 . S
C1519 C1523 1.429 . S
C1520 C1503 1.574 1_556 S
C1520 H1514 0.949 . S
C1520 C1524 1.368 . S
C1521 C1502 1.429 . S
C1521 C1515 1.429 . S
C1521 C1522 1.523 . S
C1522 C1503 1.368 . S
C1522 C1516 1.368 . S
C1522 C1521 1.523 . S
C1523 C1507 1.429 . S
C1523 C1519 1.429 . S
C1523 C1524 1.523 . S
C1524 C1508 1.368 . S
C1524 C1520 1.368 . S
C1524 C1523 1.523 . S
H1525 C1500 0.950 1_565 S
H1526 C1502 0.950 1_565 S
H1527 C1503 0.949 . S
H1528 C1505 0.950 . S
H1529 C1507 0.950 . S
C1530 C1531 1.349 1_655 S
C1530 C1532 1.327 . S
C1530 H1555 0.950 . S
C1531 C1530 1.349 1_455 S
C1531 C1547 1.349 . S
C1532 C1530 1.327 . S
C1532 C1551 1.429 1_655 S
C1532 H1556 0.950 . S
C1533 C1550 1.574 . S
C1533 C1552 1.368 1_554 S
C1533 H1557 0.949 1_554 S
H1534 C1538 0.968 . S
C1535 C1536 1.349 . S
C1535 C1537 1.327 . S
C1535 H1558 0.950 . S
C1536 C1535 1.349 . S
C1536 C1548 1.349 . S
C1537 C1535 1.327 . S
C1537 C1553 1.429 . S
C1537 H1559 0.950 . S
C1538 H1534 0.968 . S
C1538 C1546 1.575 . S
C1538 C1554 1.352 1_655 S
H1539 C1547 0.950 . S
H1540 C1545 0.950 . S
H1541 C1546 0.949 1_556 S
H1542 C1548 0.950 1_655 S
H1543 C1549 0.950 1_655 S
H1544 C1550 0.949 . S
C1545 H1540 0.950 . S
C1545 C1547 1.327 . S
C1545 C1551 1.429 . S
C1546 C1538 1.575 . S
C1546 H1541 0.949 1_554 S
C1546 C1552 1.368 1_654 S
C1547 C1531 1.349 . S
C1547 H1539 0.950 . S
C1547 C1545 1.327 . S
C1548 C1536 1.349 . S
C1548 H1542 0.950 1_455 S
C1548 C1549 1.327 . S
C1549 H1543 0.950 1_455 S
C1549 C1548 1.327 . S
C1549 C1553 1.429 . S
C1550 C1533 1.574 . S
C1550 H1544 0.949 . S
C1550 C1554 1.368 . S
C1551 C1532 1.429 1_455 S
C1551 C1545 1.429 . S
C1551 C1552 1.523 . S
C1552 C1533 1.368 1_556 S
C1552 C1546 1.368 1_456 S
C1552 C1551 1.523 . S
C1553 C1537 1.429 . S
C1553 C1549 1.429 . S
C1553 C1554 1.523 . S
C1554 C1538 1.352 1_455 S
C1554 C1550 1.368 . S
C1554 C1553 1.523 . S
H1555 C1530 0.950 . S
H1556 C1532 0.950 . S
H1557 C1533 0.949 1_556 S
H1558 C1535 0.950 . S
H1559 C1537 0.950 . S
C1560 C1561 1.349 . S
C1560 C1562 1.327 . S
C1560 H1585 0.950 . S
C1561 C1560 1.349 . S
C1561 C1577 1.349 . S
C1562 C1560 1.327 . S
C1562 C1581 1.429 . S
C1562 H1586 0.950 . S
C1563 C1580 1.574 . S
C1563 C1582 1.368 . S
C1563 H1587 0.949 . S
H1564 C1568 0.949 . S
C1565 C1566 1.349 . S
C1565 C1567 1.327 . S
C1565 H1588 0.950 . S
C1566 C1565 1.349 . S
C1566 C1578 1.349 . S
C1567 C1565 1.327 . S
C1567 C1583 1.429 . S
C1567 H1589 0.950 . S
C1568 H1564 0.949 . S
C1568 C1576 1.574 . S
C1568 C1584 1.368 . S
H1569 C1577 0.950 . S
H1570 C1575 0.950 . S
H1571 C1576 0.949 . S
H1572 C1578 0.950 . S
H1573 C1579 0.950 . S
H1574 C1580 0.949 . S
C1575 H1570 0.950 . S
C1575 C1577 1.327 . S
C1575 C1581 1.429 . S
C1576 C1568 1.574 . S
C1576 H1571 0.949 . S
C1576 C1582 1.368 . S
C1577 C1561 1.349 . S
C1577 H1569 0.950 . S
C1577 C1575 1.327 . S
C1578 C1566 1.349 . S
C1578 H1572 0.950 . S
C1578 C1579 1.327 . S
C1579 H1573 0.950 . S
C1579 C1578 1.327 . S
C1579 C1583 1.429 . S
C1580 C1563 1.574 . S
C1580 H1574 0.949 . S
C1580 C1584 1.368 . S
C1581 C1562 1.429 . S
C1581 C1575 1.429 . S
C1581 C1582 1.523 . S
C1582 C1563 1.368 . S
C1582 C1576 1.368 . S
C1582 C1581 1.523 . S
C1583 C1567 1.429 . S
C1583 C1579 1.429 . S
C1583 C1584 1.523 1_556 S
C1584 C1568 1.368 . S
C1584 C1580 1.368 . S
C1584 C1583 1.523 1_554 S
H1585 C1560 0.950 . S
H1586 C1562 0.950 . S
H1587 C1563 0.949 . S
H1588 C1565 0.950 . S
H1589 C1567 0.950 . S
C1590 C1591 1.349 . S
C1590 C1592 1.327 . S
C1590 H1615 0.950 . S
C1591 C1590 1.349 . S
C1591 C1607 1.349 . S
C1592 C1590 1.327 . S
C1592 C1611 1.429 . S
C1592 H1616 0.950 . S
C1593 C1610 1.574 1_554 S
C1593 C1612 1.368 . S
C1593 H1617 0.949 . S
H1594 C1598 0.949 . S
C1595 C1596 1.349 . S
C1595 C1597 1.327 . S
C1595 H1618 0.950 . S
C1596 C1595 1.349 . S
C1596 C1608 1.349 . S
C1597 C1595 1.327 . S
C1597 C1613 1.429 . S
C1597 H1619 0.950 . S
C1598 H1594 0.949 . S
C1598 C1606 1.574 1_556 S
C1598 C1614 1.368 . S
H1599 C1607 0.950 . S
H1600 C1605 0.950 . S
H1601 C1606 0.949 . S
H1602 C1608 0.950 . S
H1603 C1609 0.950 . S
H1604 C1610 0.949 . S
C1605 H1600 0.950 . S
C1605 C1607 1.327 . S
C1605 C1611 1.429 . S
C1606 C1598 1.574 1_554 S
C1606 H1601 0.949 . S
C1606 C1612 1.368 . S
C1607 C1591 1.349 . S
C1607 H1599 0.950 . S
C1607 C1605 1.327 . S
C1608 C1596 1.349 . S
C1608 H1602 0.950 . S
C1608 C1609 1.327 . S
C1609 H1603 0.950 . S
C1609 C1608 1.327 . S
C1609 C1613 1.429 . S
C1610 C1593 1.574 1_556 S
C1610 H1604 0.949 . S
C1610 C1614 1.368 . S
C1611 C1592 1.429 . S
C1611 C1605 1.429 . S
C1611 C1612 1.523 . S
C1612 C1593 1.368 . S
C1612 C1606 1.368 . S
C1612 C1611 1.523 . S
C1613 C1597 1.429 . S
C1613 C1609 1.429 . S
C1613 C1614 1.523 . S
C1614 C1598 1.368 . S
C1614 C1610 1.368 . S
C1614 C1613 1.523 . S
H1615 C1590 0.950 . S
H1616 C1592 0.950 . S
H1617 C1593 0.949 . S
H1618 C1595 0.950 . S
H1619 C1597 0.950 . S
C1620 C1621 1.349 1_554 S
C1620 C1622 1.327 . S
C1620 H1645 0.950 1_554 S
C1621 C1620 1.349 1_556 S
C1621 C1637 1.349 . S
C1622 C1620 1.327 . S
C1622 C1641 1.429 . S
C1622 H1646 0.950 . S
C1623 C1640 1.574 . S
C1623 C1642 1.368 . S
C1623 H1647 0.949 . S
H1624 C1628 0.949 . S
C1625 C1626 1.349 . S
C1625 C1627 1.327 . S
C1625 H1648 0.950 . S
C1626 C1625 1.349 . S
C1626 C1638 1.349 . S
C1627 C1625 1.327 . S
C1627 C1643 1.429 . S
C1627 H1649 0.950 . S
C1628 H1624 0.949 . S
C1628 C1636 1.574 . S
C1628 C1644 1.368 . S
H1629 C1637 0.950 . S
H1630 C1635 0.950 . S
H1631 C1636 0.949 . S
H1632 C1638 0.950 . S
H1633 C1639 0.950 . S
H1634 C1640 0.949 . S
C1635 H1630 0.950 . S
C1635 C1637 1.327 1_554 S
C1635 C1641 1.429 . S
C1636 C1628 1.574 . S
C1636 H1631 0.949 . S
C1636 C1642 1.368 . S
C1637 C1621 1.349 . S
C1637 H1629 0.950 . S
C1637 C1635 1.327 1_556 S
C1638 C1626 1.349 . S
C1638 H1632 0.950 . S
C1638 C1639 1.327 . S
C1639 H1633 0.950 . S
C1639 C1638 1.327 . S
C1639 C1643 1.429 . S
C1640 C1623 1.574 . S
C1640 H1634 0.949 . S
C1640 C1644 1.368 . S
C1641 C1622 1.429 . S
C1641 C1635 1.429 . S
C1641 C1642 1.523 . S
C1642 C1623 1.368 . S
C1642 C1636 1.368 . S
C1642 C1641 1.523 . S
C1643 C1627 1.429 . S
C1643 C1639 1.429 . S
C1643 C1644 1.523 . S
C1644 C1628 1.368 . S
C1644 C1640 1.368 . S
C1644 C1643 1.523 . S
H1645 C1620 0.950 1_556 S
H1646 C1622 0.950 . S
H1647 C1623 0.949 . S
H1648 C1625 0.950 . S
H1649 C1627 0.950 . S
C1650 C1651 1.349 . S
C1650 C1652 1.327 . S
C1650 H1675 0.950 . S
C1651 C1650 1.349 . S
C1651 C1667 1.349 . S
C1652 C1650 1.327 . S
C1652 C1671 1.429 . S
C1652 H1676 0.950 . S
C1653 C1670 1.574 . S
C1653 C1672 1.368 . S
C1653 H1677 0.949 . S
H1654 C1658 0.949 . S
C1655 C1656 1.349 . S
C1655 C1657 1.327 1_556 S
C1655 H1678 0.950 . S
C1656 C1655 1.349 . S
C1656 C1668 1.349 . S
C1657 C1655 1.327 1_554 S
C1657 C1673 1.429 . S
C1657 H1679 0.950 . S
C1658 H1654 0.949 . S
C1658 C1666 1.574 . S
C1658 C1674 1.368 . S
H1659 C1667 0.950 . S
H1660 C1665 0.950 . S
H1661 C1666 0.949 . S
H1662 C1668 0.950 . S
H1663 C1669 0.950 . S
H1664 C1670 0.949 . S
C1665 H1660 0.950 . S
C1665 C1667 1.327 . S
C1665 C1671 1.429 . S
C1666 C1658 1.574 . S
C1666 H1661 0.949 . S
C1666 C1672 1.368 . S
C1667 C1651 1.349 . S
C1667 H1659 0.950 . S
C1667 C1665 1.327 . S
C1668 C1656 1.349 . S
C1668 H1662 0.950 . S
C1668 C1669 1.327 1_556 S
C1669 H1663 0.950 . S
C1669 C1668 1.327 1_554 S
C1669 C1673 1.429 . S
C1670 C1653 1.574 . S
C1670 H1664 0.949 . S
C1670 C1674 1.368 . S
C1671 C1652 1.429 . S
C1671 C1665 1.429 . S
C1671 C1672 1.523 . S
C1672 C1653 1.368 . S
C1672 C1666 1.368 . S
C1672 C1671 1.523 . S
C1673 C1657 1.429 . S
C1673 C1669 1.429 . S
C1673 C1674 1.523 . S
C1674 C1658 1.368 . S
C1674 C1670 1.368 . S
C1674 C1673 1.523 . S
H1675 C1650 0.950 . S
H1676 C1652 0.950 . S
H1677 C1653 0.949 . S
H1678 C1655 0.950 . S
H1679 C1657 0.950 . S
C1680 C1681 1.349 1_554 S
C1680 C1682 1.327 . S
C1680 H1705 0.950 1_554 S
C1681 C1680 1.349 1_556 S
C1681 C1697 1.349 1_556 S
C1682 C1680 1.327 . S
C1682 C1701 1.429 . S
C1682 H1706 0.950 . S
C1683 C1700 1.574 . S
C1683 C1702 1.368 . S
C1683 H1707 0.949 . S
H1684 C1688 0.949 . S
C1685 C1686 1.349 . S
C1685 C1687 1.327 . S
C1685 H1708 0.950 . S
C1686 C1685 1.349 . S
C1686 C1698 1.349 . S
C1687 C1685 1.327 . S
C1687 C1703 1.429 . S
C1687 H1709 0.950 . S
C1688 H1684 0.949 . S
C1688 C1696 1.574 . S
C1688 C1704 1.368 . S
H1689 C1697 0.950 . S
H1690 C1695 0.950 . S
H1691 C1696 0.949 . S
H1692 C1698 0.950 . S
H1693 C1699 0.950 . S
H1694 C1700 0.949 . S
C1695 H1690 0.950 . S
C1695 C1697 1.327 . S
C1695 C1701 1.429 . S
C1696 C1688 1.574 . S
C1696 H1691 0.949 . S
C1696 C1702 1.368 . S
C1697 C1681 1.349 1_554 S
C1697 H1689 0.950 . S
C1697 C1695 1.327 . S
C1698 C1686 1.349 . S
C1698 H1692 0.950 . S
C1698 C1699 1.327 . S
C1699 H1693 0.950 . S
C1699 C1698 1.327 . S
C1699 C1703 1.429 . S
C1700 C1683 1.574 . S
C1700 H1694 0.949 . S
C1700 C1704 1.368 . S
C1701 C1682 1.429 . S
C1701 C1695 1.429 . S
C1701 C1702 1.523 . S
C1702 C1683 1.368 . S
C1702 C1696 1.368 . S
C1702 C1701 1.523 . S
C1703 C1687 1.429 . S
C1703 C1699 1.429 . S
C1703 C1704 1.523 . S
C1704 C1688 1.368 . S
C1704 C1700 1.368 . S
C1704 C1703 1.523 . S
H1705 C1680 0.950 1_556 S
H1706 C1682 0.950 . S
H1707 C1683 0.949 . S
H1708 C1685 0.950 . S
H1709 C1687 0.950 . S
C1710 C1711 1.349 . S
C1710 C1712 1.327 . S
C1710 H1735 0.950 . S
C1711 C1710 1.349 . S
C1711 C1727 1.349 . S
C1712 C1710 1.327 . S
C1712 C1731 1.429 . S
C1712 H1736 0.950 . S
C1713 C1730 1.574 . S
C1713 C1732 1.368 . S
C1713 H1737 0.949 . S
H1714 C1718 0.949 . S
C1715 C1716 1.349 . S
C1715 C1717 1.327 . S
C1715 H1738 0.950 . S
C1716 C1715 1.349 . S
C1716 C1728 1.349 . S
C1717 C1715 1.327 . S
C1717 C1733 1.429 . S
C1717 H1739 0.950 . S
C1718 H1714 0.949 . S
C1718 C1726 1.574 . S
C1718 C1734 1.368 . S
H1719 C1727 0.950 . S
H1720 C1725 0.950 . S
H1721 C1726 0.949 . S
H1722 C1728 0.950 . S
H1723 C1729 0.950 . S
H1724 C1730 0.949 . S
C1725 H1720 0.950 . S
C1725 C1727 1.327 . S
C1725 C1731 1.429 . S
C1726 C1718 1.574 . S
C1726 H1721 0.949 . S
C1726 C1732 1.368 . S
C1727 C1711 1.349 . S
C1727 H1719 0.950 . S
C1727 C1725 1.327 . S
C1728 C1716 1.349 . S
C1728 H1722 0.950 . S
C1728 C1729 1.327 . S
C1729 H1723 0.950 . S
C1729 C1728 1.327 . S
C1729 C1733 1.429 . S
C1730 C1713 1.574 . S
C1730 H1724 0.949 . S
C1730 C1734 1.368 . S
C1731 C1712 1.429 . S
C1731 C1725 1.429 . S
C1731 C1732 1.523 . S
C1732 C1713 1.368 . S
C1732 C1726 1.368 . S
C1732 C1731 1.523 . S
C1733 C1717 1.429 . S
C1733 C1729 1.429 . S
C1733 C1734 1.523 . S
C1734 C1718 1.368 . S
C1734 C1730 1.368 . S
C1734 C1733 1.523 . S
H1735 C1710 0.950 . S
H1736 C1712 0.950 . S
H1737 C1713 0.949 . S
H1738 C1715 0.950 . S
H1739 C1717 0.950 . S
C1740 C1741 1.349 . S
C1740 C1742 1.327 . S
C1740 H1765 0.950 . S
C1741 C1740 1.349 . S
C1741 C1757 1.349 . S
C1742 C1740 1.327 . S
C1742 C1761 1.429 . S
C1742 H1766 0.950 . S
C1743 C1760 1.574 . S
C1743 C1762 1.368 . S
C1743 H1767 0.949 . S
H1744 C1748 0.949 . S
C1745 C1746 1.349 . S
C1745 C1747 1.327 . S
C1745 H1768 0.950 . S
C1746 C1745 1.349 . S
C1746 C1758 1.349 . S
C1747 C1745 1.327 . S
C1747 C1763 1.429 . S
C1747 H1769 0.950 . S
C1748 H1744 0.949 . S
C1748 C1756 1.574 . S
C1748 C1764 1.368 . S
H1749 C1757 0.950 . S
H1750 C1755 0.950 . S
H1751 C1756 0.949 . S
H1752 C1758 0.950 . S
H1753 C1759 0.950 . S
H1754 C1760 0.949 . S
C1755 H1750 0.950 . S
C1755 C1757 1.327 . S
C1755 C1761 1.429 . S
C1756 C1748 1.574 . S
C1756 H1751 0.949 . S
C1756 C1762 1.368 . S
C1757 C1741 1.349 . S
C1757 H1749 0.950 . S
C1757 C1755 1.327 . S
C1758 C1746 1.349 . S
C1758 H1752 0.950 . S
C1758 C1759 1.327 . S
C1759 H1753 0.950 . S
C1759 C1758 1.327 . S
C1759 C1763 1.429 . S
C1760 C1743 1.574 . S
C1760 H1754 0.949 . S
C1760 C1764 1.368 . S
C1761 C1742 1.429 . S
C1761 C1755 1.429 . S
C1761 C1762 1.523 . S
C1762 C1743 1.368 . S
C1762 C1756 1.368 . S
C1762 C1761 1.523 . S
C1763 C1747 1.429 . S
C1763 C1759 1.429 . S
C1763 C1764 1.523 . S
C1764 C1748 1.368 . S
C1764 C1760 1.368 . S
C1764 C1763 1.523 . S
H1765 C1740 0.950 . S
H1766 C1742 0.950 . S
H1767 C1743 0.949 . S
H1768 C1745 0.950 . S
H1769 C1747 0.950 . S
C1770 C1771 1.349 . S
C1770 C1772 1.327 . S
C1770 H1795 0.950 . S
C1771 C1770 1.349 . S
C1771 C1787 1.349 . S
C1772 C1770 1.327 . S
C1772 C1791 1.429 . S
C1772 H1796 0.950 . S
C1773 C1790 1.574 . S
C1773 C1792 1.368 . S
C1773 H1797 0.949 . S
H1774 C1778 0.949 . S
C1775 C1776 1.349 . S
C1775 C1777 1.327 . S
C1775 H1798 0.950 . S
C1776 C1775 1.349 . S
C1776 C1788 1.349 . S
C1777 C1775 1.327 . S
C1777 C1793 1.429 . S
C1777 H1799 0.950 . S
C1778 H1774 0.949 . S
C1778 C1786 1.574 . S
C1778 C1794 1.368 . S
H1779 C1787 0.950 . S
H1780 C1785 0.950 . S
H1781 C1786 0.949 . S
H1782 C1788 0.950 . S
H1783 C1789 0.950 . S
H1784 C1790 0.949 . S
C1785 H1780 0.950 . S
C1785 C1787 1.327 . S
C1785 C1791 1.429 . S
C1786 C1778 1.574 . S
C1786 H1781 0.949 . S
C1786 C1792 1.368 . S
C1787 C1771 1.349 . S
C1787 H1779 0.950 . S
C1787 C1785 1.327 . S
C1788 C1776 1.349 . S
C1788 H1782 0.950 . S
C1788 C1789 1.327 . S
C1789 H1783 0.950 . S
C1789 C1788 1.327 . S
C1789 C1793 1.429 . S
C1790 C1773 1.574 . S
C1790 H1784 0.949 . S
C1790 C1794 1.368 . S
C1791 C1772 1.429 . S
C1791 C1785 1.429 . S
C1791 C1792 1.523 . S
C1792 C1773 1.368 . S
C1792 C1786 1.368 . S
C1792 C1791 1.523 . S
C1793 C1777 1.429 . S
C1793 C1789 1.429 . S
C1793 C1794 1.523 . S
C1794 C1778 1.368 . S
C1794 C1790 1.368 . S
C1794 C1793 1.523 . S
H1795 C1770 0.950 . S
H1796 C1772 0.950 . S
H1797 C1773 0.949 . S
H1798 C1775 0.950 . S
H1799 C1777 0.950 . S
C1800 C1801 1.349 . S
C1800 C1802 1.327 . S
C1800 H1825 0.950 . S
C1801 C1800 1.349 . S
C1801 C1817 1.349 . S
C1802 C1800 1.327 . S
C1802 C1821 1.429 . S
C1802 H1826 0.950 . S
C1803 C1820 1.574 . S
C1803 C1822 1.368 . S
C1803 H1827 0.949 . S
H1804 C1808 0.949 . S
C1805 C1806 1.349 . S
C1805 C1807 1.327 . S
C1805 H1828 0.950 . S
C1806 C1805 1.349 . S
C1806 C1818 1.349 . S
C1807 C1805 1.327 . S
C1807 C1823 1.429 . S
C1807 H1829 0.950 . S
C1808 H1804 0.949 . S
C1808 C1816 1.574 . S
C1808 C1824 1.368 . S
H1809 C1817 0.950 . S
H1810 C1815 0.950 . S
H1811 C1816 0.949 . S
H1812 C1818 0.950 . S
H1813 C1819 0.950 . S
H1814 C1820 0.949 . S
C1815 H1810 0.950 . S
C1815 C1817 1.327 . S
C1815 C1821 1.429 . S
C1816 C1808 1.574 . S
C1816 H1811 0.949 . S
C1816 C1822 1.368 . S
C1817 C1801 1.349 . S
C1817 H1809 0.950 . S
C1817 C1815 1.327 . S
C1818 C1806 1.349 . S
C1818 H1812 0.950 . S
C1818 C1819 1.327 . S
C1819 H1813 0.950 . S
C1819 C1818 1.327 . S
C1819 C1823 1.429 . S
C1820 C1803 1.574 . S
C1820 H1814 0.949 . S
C1820 C1824 1.368 . S
C1821 C1802 1.429 . S
C1821 C1815 1.429 . S
C1821 C1822 1.523 . S
C1822 C1803 1.368 . S
C1822 C1816 1.368 . S
C1822 C1821 1.523 . S
C1823 C1807 1.429 . S
C1823 C1819 1.429 . S
C1823 C1824 1.523 . S
C1824 C1808 1.368 . S
C1824 C1820 1.368 . S
C1824 C1823 1.523 . S
H1825 C1800 0.950 . S
H1826 C1802 0.950 . S
H1827 C1803 0.949 . S
H1828 C1805 0.950 . S
H1829 C1807 0.950 . S
C1830 C1831 1.349 . S
C1830 C1832 1.327 . S
C1830 H1855 0.950 . S
C1831 C1830 1.349 . S
C1831 C1847 1.349 . S
C1832 C1830 1.327 . S
C1832 C1851 1.429 . S
C1832 H1856 0.950 . S
C1833 C1850 1.574 . S
C1833 C1852 1.368 . S
C1833 H1857 0.949 . S
H1834 C1838 0.949 . S
C1835 C1836 1.349 . S
C1835 C1837 1.327 . S
C1835 H1858 0.950 . S
C1836 C1835 1.349 . S
C1836 C1848 1.349 . S
C1837 C1835 1.327 . S
C1837 C1853 1.429 . S
C1837 H1859 0.950 . S
C1838 H1834 0.949 . S
C1838 C1846 1.574 . S
C1838 C1854 1.368 . S
H1839 C1847 0.950 . S
H1840 C1845 0.950 . S
H1841 C1846 0.949 . S
H1842 C1848 0.950 . S
H1843 C1849 0.950 . S
H1844 C1850 0.949 . S
C1845 H1840 0.950 . S
C1845 C1847 1.327 . S
C1845 C1851 1.429 . S
C1846 C1838 1.574 . S
C1846 H1841 0.949 . S
C1846 C1852 1.368 . S
C1847 C1831 1.349 . S
C1847 H1839 0.950 . S
C1847 C1845 1.327 . S
C1848 C1836 1.349 . S
C1848 H1842 0.950 . S
C1848 C1849 1.327 . S
C1849 H1843 0.950 . S
C1849 C1848 1.327 . S
C1849 C1853 1.429 . S
C1850 C1833 1.574 . S
C1850 H1844 0.949 . S
C1850 C1854 1.368 . S
C1851 C1832 1.429 . S
C1851 C1845 1.429 . S
C1851 C1852 1.523 . S
C1852 C1833 1.368 . S
C1852 C1846 1.368 . S
C1852 C1851 1.523 . S
C1853 C1837 1.429 . S
C1853 C1849 1.429 . S
C1853 C1854 1.523 . S
C1854 C1838 1.368 . S
C1854 C1850 1.368 . S
C1854 C1853 1.523 . S
H1855 C1830 0.950 . S
H1856 C1832 0.950 . S
H1857 C1833 0.949 . S
H1858 C1835 0.950 . S
H1859 C1837 0.950 . S
C1860 C1861 1.349 . S
C1860 C1862 1.327 . S
C1860 H1885 0.950 . S
C1861 C1860 1.349 . S
C1861 C1877 1.349 . S
C1862 C1860 1.327 . S
C1862 C1881 1.429 . S
C1862 H1886 0.950 . S
C1863 C1880 1.574 . S
C1863 C1882 1.368 . S
C1863 H1887 0.949 . S
H1864 C1868 0.949 . S
C1865 C1866 1.349 . S
C1865 C1867 1.327 . S
C1865 H1888 0.950 . S
C1866 C1865 1.349 . S
C1866 C1878 1.349 . S
C1867 C1865 1.327 . S
C1867 C1883 1.429 . S
C1867 H1889 0.950 . S
C1868 H1864 0.949 . S
C1868 C1876 1.574 . S
C1868 C1884 1.368 . S
H1869 C1877 0.950 . S
H1870 C1875 0.950 . S
H1871 C1876 0.949 . S
H1872 C1878 0.950 . S
H1873 C1879 0.950 . S
H1874 C1880 0.949 . S
C1875 H1870 0.950 . S
C1875 C1877 1.327 . S
C1875 C1881 1.429 . S
C1876 C1868 1.574 . S
C1876 H1871 0.949 . S
C1876 C1882 1.368 . S
C1877 C1861 1.349 . S
C1877 H1869 0.950 . S
C1877 C1875 1.327 . S
C1878 C1866 1.349 . S
C1878 H1872 0.950 . S
C1878 C1879 1.327 . S
C1879 H1873 0.950 . S
C1879 C1878 1.327 . S
C1879 C1883 1.429 . S
C1880 C1863 1.574 . S
C1880 H1874 0.949 . S
C1880 C1884 1.368 . S
C1881 C1862 1.429 . S
C1881 C1875 1.429 . S
C1881 C1882 1.523 . S
C1882 C1863 1.368 . S
C1882 C1876 1.368 . S
C1882 C1881 1.523 . S
C1883 C1867 1.429 . S
C1883 C1879 1.429 . S
C1883 C1884 1.523 . S
C1884 C1868 1.368 . S
C1884 C1880 1.368 . S
C1884 C1883 1.523 . S
H1885 C1860 0.950 . S
H1886 C1862 0.950 . S
H1887 C1863 0.949 . S
H1888 C1865 0.950 . S
H1889 C1867 0.950 . S
C1890 C1891 1.349 . S
C1890 C1892 1.327 . S
C1890 H1915 0.950 . S
C1891 C1890 1.349 . S
C1891 C1907 1.349 . S
C1892 C1890 1.327 . S
C1892 C1911 1.429 . S
C1892 H1916 0.950 . S
C1893 C1910 1.574 . S
C1893 C1912 1.368 . S
C1893 H1917 0.949 . S
H1894 C1898 0.949 . S
C1895 C1896 1.349 . S
C1895 C1897 1.327 . S
C1895 H1918 0.950 . S
C1896 C1895 1.349 . S
C1896 C1908 1.349 . S
C1897 C1895 1.327 . S
C1897 C1913 1.429 . S
C1897 H1919 0.950 . S
C1898 H1894 0.949 . S
C1898 C1906 1.574 . S
C1898 C1914 1.368 . S
H1899 C1907 0.950 . S
H1900 C1905 0.950 . S
H1901 C1906 0.949 . S
H1902 C1908 0.950 . S
H1903 C1909 0.950 . S
H1904 C1910 0.949 . S
C1905 H1900 0.950 . S
C1905 C1907 1.327 . S
C1905 C1911 1.429 . S
C1906 C1898 1.574 . S
C1906 H1901 0.949 . S
C1906 C1912 1.368 . S
C1907 C1891 1.349 . S
C1907 H1899 0.950 . S
C1907 C1905 1.327 . S
C1908 C1896 1.349 . S
C1908 H1902 0.950 . S
C1908 C1909 1.327 . S
C1909 H1903 0.950 . S
C1909 C1908 1.327 . S
C1909 C1913 1.429 . S
C1910 C1893 1.574 . S
C1910 H1904 0.949 . S
C1910 C1914 1.368 . S
C1911 C1892 1.429 . S
C1911 C1905 1.429 . S
C1911 C1912 1.523 . S
C1912 C1893 1.368 . S
C1912 C1906 1.368 . S
C1912 C1911 1.523 . S
C1913 C1897 1.429 . S
C1913 C1909 1.429 . S
C1913 C1914 1.523 . S
C1914 C1898 1.368 . S
C1914 C1910 1.368 . S
C1914 C1913 1.523 . S
H1915 C1890 0.950 . S
H1916 C1892 0.950 . S
H1917 C1893 0.949 . S
H1918 C1895 0.950 . S
H1919 C1897 0.950 . S
C1920 C1921 1.349 1_556 S
C1920 C1922 1.327 . S
C1920 H1945 0.950 1_556 S
C1921 C1920 1.349 1_554 S
C1921 C1937 1.349 . S
C1922 C1920 1.327 . S
C1922 C1941 1.429 . S
C1922 H1946 0.950 . S
C1923 C1940 1.574 . S
C1923 C1942 1.368 . S
C1923 H1947 0.949 . S
H1924 C1928 0.949 . S
C1925 C1926 1.349 . S
C1925 C1927 1.327 . S
C1925 H1948 0.950 . S
C1926 C1925 1.349 . S
C1926 C1938 1.349 . S
C1927 C1925 1.327 . S
C1927 C1943 1.429 . S
C1927 H1949 0.950 . S
C1928 H1924 0.949 . S
C1928 C1936 1.574 . S
C1928 C1944 1.368 . S
H1929 C1937 0.950 . S
H1930 C1935 0.950 . S
H1931 C1936 0.949 . S
H1932 C1938 0.950 . S
H1933 C1939 0.950 . S
H1934 C1940 0.949 . S
C1935 H1930 0.950 . S
C1935 C1937 1.327 1_556 S
C1935 C1941 1.429 . S
C1936 C1928 1.574 . S
C1936 H1931 0.949 . S
C1936 C1942 1.368 . S
C1937 C1921 1.349 . S
C1937 H1929 0.950 . S
C1937 C1935 1.327 1_554 S
C1938 C1926 1.349 . S
C1938 H1932 0.950 . S
C1938 C1939 1.327 . S
C1939 H1933 0.950 . S
C1939 C1938 1.327 . S
C1939 C1943 1.429 . S
C1940 C1923 1.574 . S
C1940 H1934 0.949 . S
C1940 C1944 1.368 . S
C1941 C1922 1.429 . S
C1941 C1935 1.429 . S
C1941 C1942 1.523 . S
C1942 C1923 1.368 . S
C1942 C1936 1.368 . S
C1942 C1941 1.523 . S
C1943 C1927 1.429 . S
C1943 C1939 1.429 . S
C1943 C1944 1.523 . S
C1944 C1928 1.368 . S
C1944 C1940 1.368 . S
C1944 C1943 1.523 . S
H1945 C1920 0.950 1_554 S
H1946 C1922 0.950 . S
H1947 C1923 0.949 . S
H1948 C1925 0.950 . S
H1949 C1927 0.950 . S
C1950 C1951 1.349 . S
C1950 C1952 1.327 . S
C1950 H1975 0.950 . S
C1951 C1950 1.349 . S
C1951 C1967 1.349 . S
C1952 C1950 1.327 . S
C1952 C1971 1.429 . S
C1952 H1976 0.950 . S
C1953 C1970 1.574 . S
C1953 C1972 1.368 . S
C1953 H1977 0.949 . S
H1954 C1958 0.949 . S
C1955 C1956 1.349 1_556 S
C1955 C1957 1.327 . S
C1955 H1978 0.950 1_556 S
C1956 C1955 1.349 1_554 S
C1956 C1968 1.349 1_554 S
C1957 C1955 1.327 . S
C1957 C1973 1.429 . S
C1957 H1979 0.950 . S
C1958 H1954 0.949 . S
C1958 C1966 1.574 . S
C1958 C1974 1.368 . S
H1959 C1967 0.950 . S
H1960 C1965 0.950 . S
H1961 C1966 0.949 . S
H1962 C1968 0.950 . S
H1963 C1969 0.950 . S
H1964 C1970 0.949 . S
C1965 H1960 0.950 . S
C1965 C1967 1.327 . S
C1965 C1971 1.429 . S
C1966 C1958 1.574 . S
C1966 H1961 0.949 . S
C1966 C1972 1.368 . S
C1967 C1951 1.349 . S
C1967 H1959 0.950 . S
C1967 C1965 1.327 . S
C1968 C1956 1.349 1_556 S
C1968 H1962 0.950 . S
C1968 C1969 1.327 . S
C1969 H1963 0.950 . S
C1969 C1968 1.327 . S
C1969 C1973 1.429 . S
C1970 C1953 1.574 . S
C1970 H1964 0.949 . S
C1970 C1974 1.368 . S
C1971 C1952 1.429 . S
C1971 C1965 1.429 . S
C1971 C1972 1.523 . S
C1972 C1953 1.368 . S
C1972 C1966 1.368 . S
C1972 C1971 1.523 . S
C1973 C1957 1.429 . S
C1973 C1969 1.429 . S
C1973 C1974 1.523 . S
C1974 C1958 1.368 . S
C1974 C1970 1.368 . S
C1974 C1973 1.523 . S
H1975 C1950 0.950 . S
H1976 C1952 0.950 . S
H1977 C1953 0.949 . S
H1978 C1955 0.950 1_554 S
H1979 C1957 0.950 . S
C361 C266 1.502 . S
C366 C6 1.503 . S
C391 C29 1.480 . S
C396 C289 1.475 . S
C421 C46 1.480 . S
C426 C249 1.514 . S
C451 C49 1.493 . S
C456 C149 1.492 . S
C481 C169 1.816 . S
C486 C9 1.805 . S
C511 C26 1.699 . S
C516 C129 1.735 . S
C541 C76 1.714 . S
C546 C201 1.765 . S
C571 C81 1.497 . S
C576 C221 1.505 . S
C601 C181 1.452 . S
C606 C116 1.414 . S
C631 C321 1.482 . S
C636 C101 1.474 1_565 S
C661 C61 1.507 . S
C666 C356 1.476 . S
C691 C316 1.502 . S
C696 C96 1.500 . S
C721 C166 1.277 . S
C726 C269 1.304 . S
C751 C126 1.257 . S
C756 C286 1.263 . S
C781 C146 1.518 . S
C786 C246 1.513 . S
C811 C196 1.542 . S
C816 C336 1.550 . S
C841 C341 1.354 . S
C846 C216 1.320 . S
C871 C301 1.606 . S
C876 C236 1.582 . S
C901 C1 1.630 . S
C906 C89 1.635 . S
C931 C106 2.019 . S
C936 C36 2.013 . S
C961 C66 1.774 . S
C966 C41 1.834 . S
C991 C86 1.872 . S
C996 C56 1.909 . S
C1021 C109 1.878 . S
C1026 C16 1.773 . S
C1051 C69 1.822 . S
C1056 C21 1.845 . S
C1081 C206 1.685 . S
C1086 C136 1.668 . S
C1111 C226 1.889 . S
C1116 C156 1.875 . S
C1141 C186 1.806 . S
C1146 C176 1.745 . S
C1171 C209 1.773 . S
C1176 C161 1.781 . S
C1201 C229 1.622 . S
C1206 C121 1.659 . S
C1231 C189 1.489 . S
C1236 C141 1.498 . S
C1261 C329 1.469 . S
C1266 C241 1.447 . S
C1291 C346 1.631 . S
C1296 C276 1.594 . S
C1321 C281 1.552 . S
C1326 C306 1.454 . S
C1351 C296 1.789 . S
C1356 C326 1.785 . S
C1381 C256 1.476 . S
C1386 C349 1.531 . S
C1411 C309 1.251 . S
C1416 C261 1.255 . S
C1441 C19 1.768 . S
C1446 C8 1.768 . S
C1471 C28 1.783 . S
C1476 C39 1.783 . S
C1501 C59 1.794 . S
C1506 C48 1.794 . S
C1531 C68 1.772 . S
C1536 C79 1.772 . S
C1561 C88 1.779 . S
C1566 C99 1.779 . S
C1591 C119 1.797 . S
C1596 C108 1.797 . S
C1621 C139 1.775 . S
C1626 C128 1.775 . S
C1651 C148 1.773 . S
C1656 C159 1.773 . S
C1681 C179 1.801 . S
C1686 C168 1.801 . S
C1711 C188 1.762 1_554 S
C1716 C199 1.762 . S
C1741 C208 1.783 1_554 S
C1746 C219 1.783 . S
C1771 C228 1.791 1_554 S
C1776 C239 1.791 . S
C1801 C248 1.762 . S
C1806 C259 1.762 1_556 S
C1831 C268 1.774 1_556 S
C1836 C279 1.774 . S
C1861 C299 1.780 1_556 S
C1866 C288 1.780 . S
C1891 C319 1.768 1_556 S
C1896 C308 1.768 . S
C1921 C328 1.769 . S
C1926 C339 1.769 . S
C1951 C348 1.784 . S
C1956 C359 1.784 . S
