# Generated by pormake.
# Topology wkj, (6)-cn, num edge types: 1
# Building blocks:
#     Node 0, Type 0, BuildingBlock: HISSIN_clean_sbu_0, # of connection points: 6
#     Node 1, Type 0, BuildingBlock: HISSIN_clean_sbu_0, # of connection points: 6
#     Node 2, Type 0, BuildingBlock: HISSIN_clean_sbu_0, # of connection points: 6
#     Node 3, Type 0, BuildingBlock: HISSIN_clean_sbu_0, # of connection points: 6
#     Node 4, Type 0, BuildingBlock: HISSIN_clean_sbu_0, # of connection points: 6
#     Node 5, Type 0, BuildingBlock: HISSIN_clean_sbu_0, # of connection points: 6
#     Node 6, Type 0, BuildingBlock: HISSIN_clean_sbu_0, # of connection points: 6
#     Node 7, Type 0, BuildingBlock: HISSIN_clean_sbu_0, # of connection points: 6
#     Node 8, Type 0, BuildingBlock: HISSIN_clean_sbu_0, # of connection points: 6
#     Node 9, Type 0, BuildingBlock: HISSIN_clean_sbu_0, # of connection points: 6
#     Node 10, Type 0, BuildingBlock: HISSIN_clean_sbu_0, # of connection points: 6
#     Node 11, Type 0, BuildingBlock: HISSIN_clean_sbu_0, # of connection points: 6
#     Edge 12, Type (0, 0), BuildingBlock: ZUJKAS_clean_linker_0, # of connection points: 2
#     Edge 13, Type (0, 0), BuildingBlock: ZUJKAS_clean_linker_0, # of connection points: 2
#     Edge 14, Type (0, 0), BuildingBlock: ZUJKAS_clean_linker_0, # of connection points: 2
#     Edge 15, Type (0, 0), BuildingBlock: ZUJKAS_clean_linker_0, # of connection points: 2
#     Edge 16, Type (0, 0), BuildingBlock: ZUJKAS_clean_linker_0, # of connection points: 2
#     Edge 17, Type (0, 0), BuildingBlock: ZUJKAS_clean_linker_0, # of connection points: 2
#     Edge 18, Type (0, 0), BuildingBlock: ZUJKAS_clean_linker_0, # of connection points: 2
#     Edge 19, Type (0, 0), BuildingBlock: ZUJKAS_clean_linker_0, # of connection points: 2
#     Edge 20, Type (0, 0), BuildingBlock: ZUJKAS_clean_linker_0, # of connection points: 2
#     Edge 21, Type (0, 0), BuildingBlock: ZUJKAS_clean_linker_0, # of connection points: 2
#     Edge 22, Type (0, 0), BuildingBlock: ZUJKAS_clean_linker_0, # of connection points: 2
#     Edge 23, Type (0, 0), BuildingBlock: ZUJKAS_clean_linker_0, # of connection points: 2
#     Edge 24, Type (0, 0), BuildingBlock: ZUJKAS_clean_linker_0, # of connection points: 2
#     Edge 25, Type (0, 0), BuildingBlock: ZUJKAS_clean_linker_0, # of connection points: 2
#     Edge 26, Type (0, 0), BuildingBlock: ZUJKAS_clean_linker_0, # of connection points: 2
#     Edge 27, Type (0, 0), BuildingBlock: ZUJKAS_clean_linker_0, # of connection points: 2
#     Edge 28, Type (0, 0), BuildingBlock: ZUJKAS_clean_linker_0, # of connection points: 2
#     Edge 29, Type (0, 0), BuildingBlock: ZUJKAS_clean_linker_0, # of connection points: 2
#     Edge 30, Type (0, 0), BuildingBlock: ZUJKAS_clean_linker_0, # of connection points: 2
#     Edge 31, Type (0, 0), BuildingBlock: ZUJKAS_clean_linker_0, # of connection points: 2
#     Edge 32, Type (0, 0), BuildingBlock: ZUJKAS_clean_linker_0, # of connection points: 2
#     Edge 33, Type (0, 0), BuildingBlock: ZUJKAS_clean_linker_0, # of connection points: 2
#     Edge 34, Type (0, 0), BuildingBlock: ZUJKAS_clean_linker_0, # of connection points: 2
#     Edge 35, Type (0, 0), BuildingBlock: ZUJKAS_clean_linker_0, # of connection points: 2
#     Edge 36, Type (0, 0), BuildingBlock: ZUJKAS_clean_linker_0, # of connection points: 2
#     Edge 37, Type (0, 0), BuildingBlock: ZUJKAS_clean_linker_0, # of connection points: 2
#     Edge 38, Type (0, 0), BuildingBlock: ZUJKAS_clean_linker_0, # of connection points: 2
#     Edge 39, Type (0, 0), BuildingBlock: ZUJKAS_clean_linker_0, # of connection points: 2
#     Edge 40, Type (0, 0), BuildingBlock: ZUJKAS_clean_linker_0, # of connection points: 2
#     Edge 41, Type (0, 0), BuildingBlock: ZUJKAS_clean_linker_0, # of connection points: 2
#     Edge 42, Type (0, 0), BuildingBlock: ZUJKAS_clean_linker_0, # of connection points: 2
#     Edge 43, Type (0, 0), BuildingBlock: ZUJKAS_clean_linker_0, # of connection points: 2
#     Edge 44, Type (0, 0), BuildingBlock: ZUJKAS_clean_linker_0, # of connection points: 2
#     Edge 45, Type (0, 0), BuildingBlock: ZUJKAS_clean_linker_0, # of connection points: 2
#     Edge 46, Type (0, 0), BuildingBlock: ZUJKAS_clean_linker_0, # of connection points: 2
#     Edge 47, Type (0, 0), BuildingBlock: ZUJKAS_clean_linker_0, # of connection points: 2
# Relax obj value: 0.575
# Max RMSD: 0.178
# Mean RMSD: 0.178
data_MOF--net-wkj--node1-HISSIN_clean_sbu_0--edge1-ZUJKAS_clean_linker_0
_symmetry_space_group_name_H-M    P1
_symmetry_Int_Tables_number       1
_symmetry_cell_setting            triclinic
loop_
_symmetry_equiv_pos_as_xyz
'x, y, z'
_cell_length_a     62.379651
_cell_length_b     62.420405
_cell_length_c     38.474405
_cell_angle_alpha  89.737278
_cell_angle_beta   90.258373
_cell_angle_gamma 120.05265
loop_
_atom_site_label
_atom_site_type_symbol
_atom_site_fract_x
_atom_site_fract_y
_atom_site_fract_z
_atom_type_partial_charge
Eu0 Eu 0.48604 0.08654 0.3425 0.0
Eu1 Eu 0.54312 0.11888 0.32135 0.0
C2 C 0.52116 0.06413 0.33438 0.0
C3 C 0.42439 0.06282 0.38808 0.0
C4 C 0.43545 0.08033 0.41465 0.0
C5 C 0.38437 0.04736 0.41537 0.0
C6 C 0.42111 0.081 0.4419 0.0
C7 C 0.39876 0.04669 0.38815 0.0
C8 C 0.39548 0.06416 0.44293 0.0
C9 C 0.43957 0.06096 0.36068 0.0
O10 O 0.52443 0.09652 0.27011 0.0
O11 O 0.48325 0.07955 0.28352 0.0
C12 C 0.50061 0.08328 0.26068 0.0
O13 O 0.49373 0.12678 0.33982 0.0
O14 O 0.57521 0.12425 0.29114 0.0
O15 O 0.57927 0.15122 0.32986 0.0
O16 O 0.52752 0.14276 0.3047 0.0
C17 C 0.50943 0.14444 0.3188 0.0
O18 O 0.50549 0.09269 0.39631 0.0
O19 O 0.54506 0.12234 0.38191 0.0
O20 O 0.53566 0.08482 0.34982 0.0
O21 O 0.44794 0.07855 0.33742 0.0
O22 O 0.45644 0.0558 0.37104 0.0
O23 O 0.4999 0.06099 0.32336 0.0
C24 C 0.60025 0.16673 0.27705 0.0
C25 C 0.59236 0.18422 0.27481 0.0
C26 C 0.62572 0.18511 0.22581 0.0
C27 C 0.60071 0.20165 0.24811 0.0
C28 C 0.61739 0.16762 0.25278 0.0
C29 C 0.61693 0.20187 0.22276 0.0
C30 C 0.58917 0.14668 0.30312 0.0
C31 C 0.52863 0.10841 0.40599 0.0
H32 H 0.45527 0.093 0.41478 0.0
H33 H 0.36464 0.03434 0.4153 0.0
H34 H 0.43029 0.09391 0.46296 0.0
H35 H 0.38996 0.03324 0.36757 0.0
H36 H 0.57909 0.18402 0.29305 0.0
H37 H 0.63801 0.18467 0.2064 0.0
H38 H 0.59381 0.21448 0.24664 0.0
H39 H 0.62363 0.15426 0.25397 0.0
Eu40 Eu 0.39003 0.46653 0.67795 0.0
Eu41 Eu 0.43282 0.52235 0.66615 0.0
C42 C 0.44332 0.48257 0.70947 0.0
C43 C 0.34039 0.40228 0.70999 0.0
C44 C 0.33717 0.37854 0.70552 0.0
C45 C 0.32173 0.39017 0.76715 0.0
C46 C 0.32685 0.36091 0.73203 0.0
C47 C 0.33225 0.40785 0.74082 0.0
C48 C 0.31937 0.3667 0.76329 0.0
C49 C 0.35293 0.42111 0.68277 0.0
O50 O 0.43878 0.5055 0.6169 0.0
O51 O 0.40468 0.46683 0.62154 0.0
C52 C 0.42455 0.48322 0.60383 0.0
O53 O 0.36984 0.48788 0.67321 0.0
O54 O 0.46603 0.55295 0.64245 0.0
O55 O 0.44594 0.56036 0.68162 0.0
O56 O 0.39803 0.51906 0.63985 0.0
C57 C 0.37521 0.50596 0.65146 0.0
O58 O 0.39878 0.48116 0.73574 0.0
O59 O 0.42464 0.52239 0.72436 0.0
O60 O 0.45245 0.50475 0.695 0.0
O61 O 0.35054 0.44067 0.68394 0.0
O62 O 0.37545 0.4266 0.67519 0.0
O63 O 0.42018 0.46534 0.7063 0.0
C64 C 0.46056 0.5879 0.63473 0.0
C65 C 0.46131 0.58641 0.5984 0.0
C66 C 0.44535 0.61682 0.62836 0.0
C67 C 0.45326 0.59928 0.57734 0.0
C68 C 0.45372 0.60421 0.64943 0.0
C69 C 0.44418 0.61373 0.59218 0.0
C70 C 0.46262 0.56979 0.65732 0.0
C71 C 0.41269 0.50439 0.74715 0.0
H72 H 0.34322 0.37386 0.68184 0.0
H73 H 0.31658 0.39532 0.79123 0.0
H74 H 0.32523 0.34295 0.72843 0.0
H75 H 0.33459 0.42605 0.74503 0.0
H76 H 0.46652 0.57409 0.5862 0.0
H77 H 0.43865 0.62801 0.6404 0.0
H78 H 0.45239 0.59635 0.54952 0.0
H79 H 0.45318 0.60585 0.6774 0.0
Eu80 Eu 0.91941 0.37921 0.99889 0.0
Eu81 Eu 0.90866 0.42342 0.98506 0.0
C82 C 0.96172 0.43117 1.00942 0.0
C83 C 0.94195 0.33882 1.03943 0.0
C84 C 0.95541 0.35703 1.06434 0.0
C85 C 0.95154 0.31047 1.06975 0.0
C86 C 0.96695 0.35204 1.09171 0.0
C87 C 0.94011 0.31556 1.04212 0.0
C88 C 0.96508 0.32871 0.09477 0.0
C89 C 0.92938 0.34396 1.0112 0.0
O90 O 0.9213 0.41952 0.93078 0.0
O91 O 0.94034 0.3977 0.94654 0.0
C92 C 0.93698 0.41178 0.92337 0.0
O93 O 0.88383 0.35967 0.96941 0.0
O94 O 0.91446 0.45683 0.95813 0.0
O95 O 0.88772 0.44147 0.9995 0.0
O96 O 0.87087 0.38769 0.97493 0.0
C97 C 0.86631 0.36519 0.96684 0.0
O98 O 0.90879 0.38701 1.05471 0.0
O99 O 0.91103 0.4243 1.04486 0.0
O100 O 0.95104 0.44027 0.98932 0.0
O101 O 0.90839 0.34248 1.01939 0.0
O102 O 0.94341 0.36352 0.9925 0.0
O103 O 0.94814 0.41113 1.02686 0.0
C104 C 0.87622 0.45512 0.95021 0.0
C105 C 0.86368 0.46797 0.95768 0.0
C106 C 0.84774 0.43426 0.90271 0.0
C107 C 0.84306 0.46382 0.93775 0.0
C108 C 0.86816 0.43836 0.92249 0.0
C109 C 0.83464 0.44657 0.91044 0.0
C110 C 0.89577 0.45672 0.97329 0.0
C111 C 0.90865 0.407 1.06703 0.0
H112 H 0.95672 0.37498 1.06287 0.0
H113 H 0.9498 0.29235 1.07161 0.0
H114 H 0.97674 0.36623 0.11109 0.0
H115 H 0.92967 0.30131 1.02307 0.0
H116 H 0.86946 0.48071 0.97935 0.0
H117 H 0.8422 0.42134 0.88129 0.0
H118 H 0.83336 0.4736 0.94422 0.0
H119 H 0.87736 0.42799 0.91654 0.0
Eu120 Eu 0.52649 0.912 0.34509 0.0
Eu121 Eu 0.46939 0.8967 0.32623 0.0
C122 C 0.5124 0.95186 0.34169 0.0
C123 C 0.59238 0.94051 0.38315 0.0
C124 C 0.58695 0.94814 0.41441 0.0
C125 C 0.63527 0.95832 0.40102 0.0
C126 C 0.60555 0.9605 0.43915 0.0
C127 C 0.61662 0.94591 0.37635 0.0
C128 C 0.62987 0.9655 0.43287 0.0
C129 C 0.57289 0.92621 0.35783 0.0
O130 O 0.48812 0.91346 0.27361 0.0
O131 O 0.5284 0.92446 0.28665 0.0
C132 C 0.51168 0.92381 0.26419 0.0
O133 O 0.51082 0.87254 0.32837 0.0
O134 O 0.43962 0.89355 0.2926 0.0
O135 O 0.43132 0.88003 0.34515 0.0
O136 O 0.47077 0.8612 0.31441 0.0
C137 C 0.48889 0.85609 0.31692 0.0
O138 O 0.50875 0.90573 0.4008 0.0
O139 O 0.47047 0.90021 0.38646 0.0
O140 O 0.49213 0.93879 0.32344 0.0
O141 O 0.55437 0.90534 0.36885 0.0
O142 O 0.56576 0.9386 0.33831 0.0
O143 O 0.51755 0.93995 0.36481 0.0
C144 C 0.40283 0.8563 0.30153 0.0
C145 C 0.407 0.83622 0.30107 0.0
C146 C 0.36626 0.8329 0.26579 0.0
C147 C 0.39181 0.81524 0.28146 0.0
C148 C 0.38181 0.85415 0.285 0.0
C149 C 0.37193 0.8138 0.26211 0.0
C150 C 0.42223 0.88033 0.31476 0.0
C151 C 0.48677 0.90251 0.41061 0.0
H152 H 0.56825 0.94407 0.41994 0.0
H153 H 0.65384 0.96215 0.39529 0.0
H154 H 0.60069 0.96544 0.46362 0.0
H155 H 0.62104 0.94018 0.35216 0.0
H156 H 0.42299 0.8374 0.31401 0.0
H157 H 0.35074 0.83218 0.25202 0.0
H158 H 0.39707 0.80119 0.27929 0.0
H159 H 0.3782 0.86941 0.28532 0.0
Eu160 Eu 0.6342 0.54285 0.67458 0.0
Eu161 Eu 0.58867 0.48877 0.6644 0.0
C162 C 0.58271 0.53354 0.69972 0.0
C163 C 0.67929 0.60805 0.70513 0.0
C164 C 0.66071 0.60933 0.72368 0.0
C165 C 0.71055 0.64367 0.73668 0.0
C166 C 0.667 0.62736 0.7491 0.0
C167 C 0.7042 0.62558 0.71117 0.0
C168 C 0.69201 0.64437 0.75647 0.0
C169 C 0.67286 0.58714 0.68198 0.0
O170 O 0.58278 0.5091 0.61901 0.0
O171 O 0.62239 0.5414 0.61597 0.0
C172 C 0.59977 0.5286 0.60209 0.0
O173 O 0.65259 0.52037 0.66617 0.0
O174 O 0.55213 0.46201 0.64401 0.0
O175 O 0.57269 0.44943 0.67511 0.0
O176 O 0.62162 0.48851 0.63677 0.0
C177 C 0.64522 0.50133 0.6458 0.0
O178 O 0.62196 0.52853 0.73244 0.0
O179 O 0.5968 0.48722 0.72219 0.0
O180 O 0.5745 0.5095 0.69777 0.0
O181 O 0.67057 0.56741 0.69709 0.0
O182 O 0.65506 0.58186 0.65983 0.0
O183 O 0.60346 0.54968 0.6855 0.0
C184 C 0.55002 0.42421 0.62882 0.0
C185 C 0.55613 0.43093 0.59391 0.0
C186 C 0.54508 0.38379 0.61653 0.0
C187 C 0.5571 0.4144 0.57066 0.0
C188 C 0.54392 0.40033 0.6398 0.0
C189 C 0.55219 0.39088 0.58188 0.0
C190 C 0.5537 0.44296 0.65476 0.0
C191 C 0.60799 0.50546 0.74465 0.0
H192 H 0.64137 0.59579 0.71949 0.0
H193 H 0.72995 0.65657 0.74172 0.0
H194 H 0.65226 0.62702 0.7643 0.0
H195 H 0.71874 0.62472 0.69705 0.0
H196 H 0.56138 0.44939 0.58491 0.0
H197 H 0.54114 0.36578 0.62584 0.0
H198 H 0.56314 0.42066 0.54433 0.0
H199 H 0.53942 0.39493 0.66678 0.0
Eu200 Eu 0.08297 0.61528 1.00862 0.0
Eu201 Eu 0.10115 0.57565 0.99662 0.0
C202 C 0.05127 0.5611 1.04083 0.0
C203 C 0.05782 0.65371 1.04761 0.0
C204 C 0.05163 0.63954 1.0781 0.0
C205 C 0.04576 0.68112 1.07471 0.0
C206 C 0.04256 0.64607 0.10672 0.0
C207 C 0.05483 0.6745 1.04596 0.0
C208 C 0.03967 0.66704 0.10548 0.0
C209 C 0.06803 0.64715 1.01801 0.0
O210 O 0.07627 0.56788 0.94826 0.0
O211 O 0.06542 0.59768 0.95438 0.0
C212 C 0.06447 0.57905 0.93627 0.0
O213 O 0.12166 0.63986 0.98791 0.0
O214 O 0.10786 0.55183 0.96252 0.0
O215 O 0.11568 0.5527 1.01724 0.0
O216 O 0.13545 0.6124 0.9808 0.0
C217 C 0.13923 0.63517 0.9794 0.0
O218 O 0.09542 0.61073 1.06501 0.0
O219 O 0.10998 0.58407 1.05477 0.0
O220 O 0.0623 0.55347 1.01905 0.0
O221 O 0.09101 0.65255 1.02149 0.0
O222 O 0.05399 0.62503 1.00526 0.0
O223 O 0.05801 0.58443 1.04385 0.0
C224 C 0.14312 0.55015 0.97796 0.0
C225 C 0.16346 0.57422 0.98045 0.0
C226 C 0.1684 0.53769 0.94585 0.0
C227 C 0.18574 0.58031 0.96416 0.0
C228 C 0.14601 0.53166 0.96196 0.0
C229 C 0.18801 0.56238 0.94507 0.0
C230 C 0.11828 0.54548 0.98668 0.0
C231 C 0.10535 0.59742 1.07684 0.0
H232 H 0.05388 0.62343 1.07978 0.0
H233 H 0.04387 0.69742 1.07304 0.0
H234 H 0.03756 0.63452 0.12975 0.0
H235 H 0.05968 0.68568 1.02257 0.0
H236 H 0.16155 0.58874 0.99279 0.0
H237 H 0.16971 0.52339 0.93181 0.0
H238 H 0.2003 0.59953 0.96388 0.0
H239 H 0.13049 0.51296 0.9599 0.0
Eu240 Eu 0.91779 0.51022 0.5124 0.0
Eu241 Eu 0.89091 0.45207 0.53189 0.0
C242 C 0.94358 0.47909 0.49952 0.0
C243 C 0.93978 0.573 0.47004 0.0
C244 C 0.92144 0.56258 0.44429 0.0
C245 C 0.95771 0.61267 0.44066 0.0
C246 C 0.92153 0.57704 0.41644 0.0
C247 C 0.95759 0.59818 0.46851 0.0
C248 C 0.94004 0.6021 0.41389 0.0
C249 C 0.94148 0.55739 0.49715 0.0
O250 O 0.91683 0.47109 0.58011 0.0
O251 O 0.92587 0.51116 0.57158 0.0
C252 C 0.92682 0.49429 0.5917 0.0
O253 O 0.877 0.49923 0.51557 0.0
O254 O 0.88557 0.41981 0.56182 0.0
O255 O 0.85893 0.41584 0.52247 0.0
O256 O 0.86426 0.46493 0.5493 0.0
C257 C 0.86031 0.48208 0.536 0.0
O258 O 0.90961 0.49301 0.45701 0.0
O259 O 0.88813 0.45162 0.47088 0.0
O260 O 0.92322 0.4577 0.50005 0.0
O261 O 0.92309 0.54728 0.51902 0.0
O262 O 0.94822 0.54185 0.48651 0.0
O263 O 0.94475 0.49655 0.51952 0.0
C264 C 0.84254 0.39434 0.57463 0.0
C265 C 0.81808 0.38569 0.56314 0.0
C266 C 0.82843 0.39067 0.63422 0.0
C267 C 0.79935 0.38107 0.58686 0.0
C268 C 0.84723 0.39559 0.6105 0.0
C269 C 0.8046 0.38448 0.62254 0.0
C270 C 0.8632 0.40578 0.54942 0.0
C271 C 0.89779 0.4695 0.44688 0.0
H272 H 0.90754 0.54311 0.4452 0.0
H273 H 0.9724 0.63181 0.43919 0.0
H274 H 0.90757 0.56844 0.39635 0.0
H275 H 0.97191 0.60643 0.48821 0.0
H276 H 0.81376 0.38417 0.53564 0.0
H277 H 0.8331 0.39359 0.6616 0.0
H278 H 0.78108 0.37603 0.57721 0.0
H279 H 0.86577 0.40197 0.62028 0.0
Eu280 Eu 0.38289 0.91803 0.85144 0.0
Eu281 Eu 0.42558 0.90576 0.87076 0.0
C282 C 0.43588 0.95939 0.84544 0.0
C283 C 0.34703 0.9458 0.80985 0.0
C284 C 0.35796 0.94866 0.77712 0.0
C285 C 0.3313 0.97267 0.79179 0.0
C286 C 0.35514 0.96302 0.75165 0.0
C287 C 0.33387 0.95801 0.81717 0.0
C288 C 0.34166 0.97502 0.75871 0.0
C289 C 0.34991 0.93078 0.83681 0.0
O290 O 0.41837 0.91705 0.92419 0.0
O291 O 0.39995 0.9385 0.90438 0.0
C292 C 0.41172 0.9338 0.92967 0.0
O293 O 0.36036 0.88058 0.87592 0.0
O294 O 0.45894 0.91235 0.89878 0.0
O295 O 0.442 0.88253 0.86181 0.0
O296 O 0.38942 0.86878 0.88163 0.0
C297 C 0.3662 0.86376 0.88383 0.0
O298 O 0.39365 0.90964 0.79637 0.0
O299 O 0.42815 0.90723 0.81066 0.0
O300 O 0.44357 0.94823 0.86706 0.0
O301 O 0.34818 0.91002 0.82668 0.0
O302 O 0.36818 0.94288 0.85843 0.0
O303 O 0.41666 0.94627 0.82618 0.0
C304 C 0.45365 0.87329 0.91539 0.0
C305 C 0.44714 0.84902 0.90581 0.0
C306 C 0.44141 0.85908 0.97469 0.0
C307 C 0.4366 0.82972 0.93014 0.0
C308 C 0.45192 0.87831 0.95053 0.0
C309 C 0.43249 0.8345 0.96431 0.0
C310 C 0.45699 0.89161 0.88826 0.0
C311 C 0.41307 0.90751 0.78653 0.0
H312 H 0.36865 0.93978 0.77126 0.0
H313 H 0.3209 0.98182 0.79776 0.0
H314 H 0.36368 0.96495 0.7265 0.0
H315 H 0.32559 0.9562 0.8425 0.0
H316 H 0.44839 0.84464 0.87895 0.0
H317 H 0.43891 0.86327 1.00116 0.0
H318 H 0.43002 0.81091 0.92162 0.0
H319 H 0.45696 0.89677 0.95901 0.0
Eu320 Eu 0.48902 0.40205 0.18102 0.0
Eu321 Eu 0.54599 0.43232 0.20316 0.0
C322 C 0.52332 0.46038 0.15958 0.0
C323 C 0.42408 0.36733 0.13928 0.0
C324 C 0.43169 0.37848 0.10656 0.0
C325 C 0.38301 0.33985 0.11637 0.0
C326 C 0.415 0.37024 1.07876 0.0
C327 C 0.3997 0.34812 0.14413 0.0
C328 C 0.39054 0.35068 1.08331 0.0
C329 C 0.44163 0.37443 0.16815 0.0
O330 O 0.52821 0.4401 0.25086 0.0
O331 O 0.48757 0.41244 0.2385 0.0
C332 C 0.50451 0.42874 0.25999 0.0
O333 O 0.50055 0.37294 0.18757 0.0
O334 O 0.57899 0.45712 0.23364 0.0
O335 O 0.58134 0.43498 0.19222 0.0
O336 O 0.53064 0.39401 0.22698 0.0
C337 C 0.51498 0.37299 0.2124 0.0
O338 O 0.50661 0.41235 0.12605 0.0
O339 O 0.54743 0.43022 0.14236 0.0
O340 O 0.54213 0.46257 0.1779 0.0
O341 O 0.45743 0.36664 0.16621 0.0
O342 O 0.45184 0.39725 0.17892 0.0
O343 O 0.50165 0.43989 0.15875 0.0
C344 C 0.6039 0.43893 0.24293 0.0
C345 C 0.59361 0.41322 0.24672 0.0
C346 C 0.63382 0.44537 0.28806 0.0
C347 C 0.60298 0.40367 0.27142 0.0
C348 C 0.62443 0.45495 0.26316 0.0
C349 C 0.62274 0.41961 0.29304 0.0
C350 C 0.59229 0.44876 0.21924 0.0
C351 C 0.53041 0.42356 0.11737 0.0
H352 H 0.45054 0.3933 0.10246 0.0
H353 H 0.3644 0.32462 0.12061 0.0
H354 H 0.42124 0.37923 1.05373 0.0
H355 H 0.39368 0.33923 0.16927 0.0
H356 H 0.57772 0.40041 0.23145 0.0
H357 H 0.64911 0.45808 0.30434 0.0
H358 H 0.59368 0.38379 0.275 0.0
H359 H 0.63267 0.47482 0.26049 0.0
Eu360 Eu 0.10077 0.49256 0.51691 0.0
Eu361 Eu 0.12542 0.5489 0.53835 0.0
C362 C 0.07569 0.52561 0.49293 0.0
C363 C 0.07079 0.42833 0.47494 0.0
C364 C 0.06559 0.43629 0.44356 0.0
C365 C 0.05826 0.38833 0.44935 0.0
C366 C 0.05687 0.42034 0.4151 0.0
C367 C 0.06694 0.40429 0.47781 0.0
C368 C 0.05337 0.39627 0.41759 0.0
C369 C 0.08149 0.44528 0.50427 0.0
O370 O 0.09593 0.5293 0.58179 0.0
O371 O 0.09203 0.49129 0.57567 0.0
C372 C 0.08753 0.50654 0.59388 0.0
O373 O 0.14198 0.50594 0.52034 0.0
O374 O 0.13047 0.58018 0.57006 0.0
O375 O 0.15755 0.58544 0.53091 0.0
O376 O 0.15021 0.53501 0.5608 0.0
C377 C 0.1566 0.52064 0.54466 0.0
O378 O 0.10764 0.50983 0.46186 0.0
O379 O 0.13015 0.55076 0.47759 0.0
O380 O 0.09355 0.54557 0.50748 0.0
O381 O 0.10503 0.46132 0.50183 0.0
O382 O 0.06883 0.45513 0.51608 0.0
O383 O 0.07348 0.5036 0.49711 0.0
C384 C 0.17266 0.60691 0.5835 0.0
C385 C 0.18988 0.59885 0.58806 0.0
C386 C 0.19131 0.635 0.6321 0.0
C387 C 0.20735 0.60844 0.61478 0.0
C388 C 0.17386 0.62545 0.60519 0.0
C389 C 0.20784 0.62614 0.63765 0.0
C390 C 0.1526 0.59491 0.55772 0.0
C391 C 0.12008 0.53356 0.45283 0.0
H392 H 0.06856 0.45488 0.44099 0.0
H393 H 0.05597 0.37001 0.45196 0.0
H394 H 0.05288 0.42686 0.39114 0.0
H395 H 0.07107 0.398 0.50189 0.0
H396 H 0.18933 0.58449 0.57175 0.0
H397 H 0.19135 0.64872 0.64928 0.0
H398 H 0.2195 0.6009 0.61871 0.0
H399 H 0.16078 0.63194 0.60204 0.0
Eu400 Eu 0.62253 0.07919 0.84591 0.0
Eu401 Eu 0.58156 0.09543 0.85974 0.0
C402 C 0.56798 0.04583 0.81563 0.0
C403 C 0.66487 0.056 0.8096 0.0
C404 C 0.65536 0.03036 0.80676 0.0
C405 C 0.69158 0.06252 0.7601 0.0
C406 C 0.66344 0.02088 0.78032 0.0
C407 C 0.6835 0.07201 0.78651 0.0
C408 C 0.68132 0.03684 0.75635 0.0
C409 C 0.65582 0.066 0.83697 0.0
O410 O 0.57622 0.07195 0.90896 0.0
O411 O 0.60592 0.06126 0.90014 0.0
C412 C 0.58795 0.06039 0.91972 0.0
O413 O 0.64636 0.11828 0.86561 0.0
O414 O 0.55817 0.10233 0.89457 0.0
O415 O 0.55681 0.10793 0.83955 0.0
O416 O 0.61784 0.13042 0.87484 0.0
C417 C 0.64094 0.13517 0.87499 0.0
O418 O 0.61629 0.09051 0.78974 0.0
O419 O 0.5893 0.10447 0.80146 0.0
O420 O 0.56014 0.05626 0.83816 0.0
O421 O 0.66016 0.0886 0.83281 0.0
O422 O 0.63373 0.05129 0.84945 0.0
O423 O 0.59147 0.05341 0.81161 0.0
C424 C 0.55606 0.13702 0.87731 0.0
C425 C 0.58036 0.15674 0.87379 0.0
C426 C 0.54502 0.16434 0.90688 0.0
C427 C 0.58739 0.17958 0.88883 0.0
C428 C 0.53815 0.1412 0.89248 0.0
C429 C 0.5701 0.18332 0.90731 0.0
C430 C 0.55079 0.11175 0.87028 0.0
C431 C 0.60235 0.09995 0.77869 0.0
H432 H 0.64141 0.01758 0.82466 0.0
H433 H 0.70519 0.07529 0.74181 0.0
H434 H 0.65544 1.00101 0.77831 0.0
H435 H 0.69155 0.09188 0.7884 0.0
H436 H 0.59439 0.15396 0.86164 0.0
H437 H 0.53096 0.16672 0.91973 0.0
H438 H 0.60686 0.19341 0.88845 0.0
H439 H 0.5192 0.12623 0.89506 0.0
Eu440 Eu 0.52418 0.60885 0.18623 0.0
Eu441 Eu 0.46635 0.57005 0.2056 0.0
C442 C 0.4994 0.55328 0.16564 0.0
C443 C 0.58674 0.64428 0.1395 0.0
C444 C 0.57687 0.63477 0.10666 0.0
C445 C 0.62781 0.66711 0.11458 0.0
C446 C 0.59244 0.64146 1.07783 0.0
C447 C 0.61222 0.66036 0.14339 0.0
C448 C 0.61807 0.65781 1.08146 0.0
C449 C 0.57064 0.63821 0.16975 0.0
O450 O 0.4889 0.56764 0.25278 0.0
O451 O 0.52708 0.60218 0.24478 0.0
C452 C 0.51178 0.58297 0.26423 0.0
O453 O 0.51147 0.63468 0.20621 0.0
O454 O 0.43808 0.53733 0.23304 0.0
O455 O 0.42748 0.55948 0.20175 0.0
O456 O 0.47097 0.60768 0.22019 0.0
C457 C 0.48998 0.63038 0.21808 0.0
O458 O 0.5053 0.59879 0.13128 0.0
O459 O 0.46426 0.57369 0.14572 0.0
O460 O 0.4766 0.5486 0.16888 0.0
O461 O 0.55366 0.64449 0.16775 0.0
O462 O 0.56223 0.61622 0.18301 0.0
O463 O 0.51595 0.56954 0.18668 0.0
C464 C 0.40758 0.54576 0.25483 0.0
C465 C 0.38432 0.5437 0.24954 0.0
C466 C 0.41055 0.56463 0.31085 0.0
C467 C 0.37453 0.55274 0.27443 0.0
C468 C 0.42029 0.55569 0.2861 0.0
C469 C 0.38806 0.56412 0.30472 0.0
C470 C 0.42059 0.54236 0.2255 0.0
C471 C 0.48169 0.58478 0.12162 0.0
H472 H 0.55716 0.62235 0.10333 0.0
H473 H 0.6474 0.67993 0.11815 0.0
H474 H 0.58442 0.63375 1.05276 0.0
H475 H 0.62002 0.66793 0.16865 0.0
H476 H 0.37441 0.53643 0.22532 0.0
H477 H 0.42109 0.57276 0.33438 0.0
H478 H 0.35712 0.55204 0.26917 0.0
H479 H 0.4384 0.55781 0.2907 0.0
H480 H 0.53404 0.17836 0.26756 0.0
H481 H 0.53321 0.21576 0.25279 0.0
H482 H 0.48057 0.20081 0.33462 0.0
H483 H 0.48074 0.16233 0.34914 0.0
H484 H 0.46854 0.21855 0.27892 0.0
H485 H 0.56847 0.28056 0.30102 0.0
H486 H 0.56338 0.25742 0.26951 0.0
H487 H 0.55293 0.2484 0.31359 0.0
C488 C 0.52223 0.18284 0.28273 0.0
C489 C 0.50763 0.16711 0.30999 0.0
C490 C 0.52196 0.2046 0.27428 0.0
C491 C 0.50744 0.21192 0.29307 0.0
C492 C 0.49223 0.19597 0.31978 0.0
H493 H 0.53727 0.36545 0.2695 0.0
H494 H 0.5341 0.32689 0.2903 0.0
C495 C 0.49233 0.17387 0.32814 0.0
C496 C 0.50812 0.23595 0.28421 0.0
H497 H 0.54794 0.29758 0.26781 0.0
C498 C 0.48593 0.23584 0.2768 0.0
C499 C 0.53065 0.25895 0.28195 0.0
C500 C 0.55515 0.26143 0.29232 0.0
C501 C 0.4857 0.25754 0.26628 0.0
C502 C 0.50838 0.28021 0.26188 0.0
C503 C 0.53047 0.28042 0.27039 0.0
C504 C 0.50973 0.30392 0.24912 0.0
C505 C 0.46096 0.25589 0.26084 0.0
C506 C 0.49746 0.30457 0.21856 0.0
C507 C 0.49901 0.32676 0.20678 0.0
C508 C 0.51331 0.34921 0.22473 0.0
C509 C 0.52601 0.34867 0.25486 0.0
C510 C 0.52422 0.32645 0.26685 0.0
H511 H 0.4462 0.24051 0.27623 0.0
H512 H 0.4616 0.27337 0.26823 0.0
H513 H 0.45569 0.25213 0.23302 0.0
H514 H 0.48686 0.28794 0.20338 0.0
H515 H 0.48915 0.32632 0.18331 0.0
H516 H 0.37452 0.53574 0.59756 0.0
H517 H 0.33938 0.54008 0.57755 0.0
H518 H 0.29413 0.49119 0.65943 0.0
H519 H 0.32859 0.48616 0.67861 0.0
H520 H 0.26794 0.4783 0.60385 0.0
H521 H 0.31033 0.58006 0.6115 0.0
H522 H 0.32686 0.57067 0.58318 0.0
H523 H 0.32538 0.56409 0.62898 0.0
C524 C 0.35715 0.52607 0.61148 0.0
C525 C 0.35466 0.51056 0.63983 0.0
C526 C 0.33695 0.52871 0.60012 0.0
C527 C 0.31375 0.51625 0.61705 0.0
C528 C 0.31152 0.50106 0.64557 0.0
H529 H 0.18943 0.54531 0.59838 0.0
H530 H 0.22703 0.54438 0.61462 0.0
C531 C 0.33148 0.49825 0.65667 0.0
C532 C 0.29142 0.51791 0.6048 0.0
H533 H 0.27054 0.55815 0.58511 0.0
C534 C 0.26867 0.49585 0.59983 0.0
C535 C 0.29176 0.54067 0.59976 0.0
C536 C 0.3148 0.56521 0.60645 0.0
C537 C 0.24671 0.49581 0.59023 0.0
C538 C 0.24718 0.51852 0.58417 0.0
C539 C 0.26988 0.54063 0.58925 0.0
C540 C 0.2243 0.51965 0.57339 0.0
C541 C 0.22299 0.47123 0.58792 0.0
C542 C 0.20998 0.5065 0.54429 0.0
C543 C 0.18822 0.50682 0.5351 0.0
C544 C 0.18013 0.52063 0.55433 0.0
C545 C 0.19482 0.53435 0.58288 0.0
C546 C 0.21651 0.53388 0.59221 0.0
H547 H 0.22405 0.45676 0.60351 0.0
H548 H 0.20691 0.47267 0.59714 0.0
H549 H 0.21965 0.465 0.56047 0.0
H550 H 0.21565 0.49593 0.52843 0.0
H551 H 0.17775 0.49623 0.51273 0.0
H552 H 0.85439 0.31909 0.94421 0.0
H553 H 0.81431 0.28375 0.93046 0.0
H554 H 0.77935 0.32692 0.95084 0.0
H555 H 0.82016 0.36311 0.96474 0.0
H556 H 0.7746 0.25841 0.97227 0.0
H557 H 0.74621 0.29407 0.85909 0.0
H558 H 0.77759 0.30956 0.87543 0.0
H559 H 0.75397 0.31233 0.89801 0.0
C560 C 0.83837 0.32148 0.94565 0.0
C561 C 0.84097 0.34441 0.95582 0.0
C562 C 0.81519 0.30093 0.93771 0.0
C563 C 0.79338 0.30223 0.93926 0.0
C564 C 0.79572 0.3252 0.94878 0.0
H565 H 0.63977 0.17757 0.8949 0.0
H566 H 0.67477 0.21816 0.91189 0.0
C567 C 0.81918 0.346 0.9569 0.0
C568 C 0.76862 0.27906 0.93225 0.0
H569 H 0.71835 0.25315 0.8771 0.0
C570 C 0.76233 0.25745 0.95151 0.0
C571 C 0.75213 0.27736 0.90538 0.0
C572 C 0.75776 0.29945 0.88302 0.0
C573 C 0.7407 0.23455 0.94451 0.0
C574 C 0.72469 0.23255 0.91679 0.0
C575 C 0.73045 0.25432 0.89823 0.0
C576 C 0.70289 0.20783 0.90577 0.0
C577 C 0.73516 0.21262 0.96726 0.0
C578 C 0.70658 0.1882 0.89603 0.0
C579 C 0.68661 0.16499 0.88633 0.0
C580 C 0.66201 0.16037 0.88576 0.0
C581 C 0.65827 0.18013 0.89507 0.0
C582 C 0.6784 0.20352 0.90475 0.0
H583 H 0.74412 0.21857 0.99317 0.0
H584 H 0.71492 0.20043 0.97103 0.0
H585 H 0.74254 0.20167 0.95475 0.0
H586 H 0.72511 0.19085 0.89569 0.0
H587 H 0.69061 0.1506 0.87917 0.0
H588 H 0.44748 0.63178 0.2357 0.0
H589 H 0.44377 0.66804 0.25068 0.0
H590 H 0.52287 0.71473 0.24174 0.0
H591 H 0.52659 0.67899 0.22574 0.0
H592 H 0.45965 0.70111 0.30149 0.0
H593 H 0.50291 0.75336 0.18143 0.0
H594 H 0.4945 0.72138 0.18659 0.0
H595 H 0.52341 0.7457 0.20384 0.0
C596 C 0.46411 0.64978 0.23675 0.0
C597 C 0.48733 0.65222 0.22893 0.0
C598 C 0.46196 0.67064 0.24541 0.0
C599 C 0.48293 0.69463 0.24653 0.0
C600 C 0.50617 0.69685 0.23992 0.0
H601 H 0.5246 0.84317 0.30948 0.0
H602 H 0.52042 0.80379 0.29223 0.0
C603 C 0.50831 0.67615 0.23099 0.0
C604 C 0.48079 0.71724 0.25494 0.0
H605 H 0.49994 0.7768 0.22847 0.0
C606 C 0.4682 0.71749 0.28518 0.0
C607 C 0.49164 0.73888 0.23379 0.0
C608 C 0.50362 0.73976 0.19943 0.0
C609 C 0.4672 0.7388 0.29546 0.0
C610 C 0.47899 0.76069 0.27506 0.0
C611 C 0.49099 0.76023 0.24442 0.0
C612 C 0.48067 0.78473 0.28608 0.0
C613 C 0.45431 0.73807 0.32885 0.0
C614 C 0.45971 0.78772 0.28826 0.0
C615 C 0.46204 0.81067 0.298 0.0
C616 C 0.4854 0.83124 0.30611 0.0
C617 C 0.50621 0.828 0.30377 0.0
C618 C 0.50389 0.80531 0.29377 0.0
H619 H 0.44926 0.72113 0.34434 0.0
H620 H 0.4663 0.75457 0.34494 0.0
H621 H 0.43711 0.73847 0.32276 0.0
H622 H 0.44153 0.77237 0.28204 0.0
H623 H 0.44555 0.81226 0.29928 0.0
H624 H 0.64208 0.46635 0.597 0.0
H625 H 0.67581 0.45952 0.57696 0.0
H626 H 0.72689 0.51727 0.64518 0.0
H627 H 0.69389 0.52386 0.66535 0.0
H628 H 0.72055 0.48967 0.54397 0.0
H629 H 0.74124 0.46332 0.67145 0.0
H630 H 0.71353 0.46494 0.66375 0.0
H631 H 0.74238 0.49256 0.6736 0.0
C632 C 0.66044 0.47742 0.60797 0.0
C633 C 0.66484 0.49557 0.63316 0.0
C634 C 0.67986 0.47357 0.59637 0.0
C635 C 0.70418 0.48753 0.60989 0.0
C636 C 0.70845 0.50568 0.63475 0.0
H637 H 0.84621 0.51653 0.51888 0.0
H638 H 0.80846 0.51686 0.53533 0.0
C639 C 0.68929 0.50954 0.64618 0.0
C640 C 0.72541 0.48396 0.59793 0.0
H641 H 0.77289 0.47599 0.6283 0.0
C642 C 0.73182 0.48647 0.56247 0.0
C643 C 0.74027 0.47937 0.62157 0.0
C644 C 0.73387 0.47462 0.65965 0.0
C645 C 0.75277 0.48542 0.55039 0.0
C646 C 0.76847 0.48228 0.57434 0.0
C647 C 0.76148 0.47886 0.60963 0.0
C648 C 0.79189 0.48213 0.56358 0.0
C649 C 0.75751 0.48723 0.5118 0.0
C650 C 0.79622 0.46303 0.57459 0.0
C651 C 0.81811 0.46298 0.56551 0.0
C652 C 0.83668 0.48211 0.54511 0.0
C653 C 0.83244 0.50131 0.53425 0.0
C654 C 0.81055 0.50139 0.54349 0.0
H655 H 0.74022 0.48138 0.49674 0.0
H656 H 0.77076 0.50676 0.50485 0.0
H657 H 0.76551 0.47563 0.50379 0.0
H658 H 0.78252 0.44795 0.59022 0.0
H659 H 0.82044 0.44782 0.57462 0.0
H660 H 0.31735 0.8497 0.89289 0.0
H661 H 0.28252 0.80967 0.90853 0.0
H662 H 0.33095 0.77916 0.91493 0.0
H663 H 0.36653 0.81992 0.8997 0.0
H664 H 0.26132 0.7671 0.87631 0.0
H665 H 0.29326 0.75165 1.00366 0.0
H666 H 0.30923 0.78102 0.98139 0.0
H667 H 0.3137 0.75591 0.96826 0.0
C668 C 0.32094 0.83468 0.89777 0.0
C669 C 0.3452 0.83851 0.89485 0.0
C670 C 0.3007 0.81149 0.90676 0.0
C671 C 0.30362 0.79092 0.91341 0.0
C672 C 0.32785 0.79455 0.91074 0.0
H673 H 0.18386 0.63644 0.96587 0.0
H674 H 0.22394 0.67236 0.94907 0.0
C675 C 0.34833 0.81799 0.90172 0.0
C676 C 0.28097 0.76596 0.92178 0.0
H677 H 0.25494 0.71936 0.98286 0.0
C678 C 0.26013 0.75677 0.89966 0.0
C679 C 0.2789 0.75188 0.95207 0.0
C680 C 0.29985 0.76065 0.97791 0.0
C681 C 0.2377 0.73466 0.90697 0.0
C682 C 0.23538 0.72098 0.93769 0.0
C683 C 0.2564 0.72962 0.95933 0.0
C684 C 0.21094 0.69865 0.94845 0.0
C685 C 0.21659 0.72606 0.8814 0.0
C686 C 0.18997 0.70103 0.95424 0.0
C687 C 0.16707 0.68056 0.96394 0.0
C688 C 0.16407 0.65672 0.96828 0.0
C689 C 0.18513 0.65429 0.96268 0.0
C690 C 0.20823 0.67496 0.95315 0.0
H691 H 0.22325 0.73396 0.85509 0.0
H692 H 0.2061 0.70556 0.87945 0.0
H693 H 0.2037 0.73228 0.89031 0.0
H694 H 0.19132 0.71895 0.95152 0.0
H695 H 0.1516 0.68355 0.96808 0.0
H696 H 0.61063 0.23078 0.9016 0.0
H697 H 0.6326 0.25807 0.95054 0.0
H698 H 0.57182 0.21166 1.01815 0.0
H699 H 0.55054 0.18368 0.97082 0.0
H700 H 0.6018 0.26825 1.0331 0.0
H701 H 0.65517 0.21885 1.01979 0.0
H702 H 0.65188 0.23551 0.98372 0.0
H703 H 0.6258 0.20692 0.99781 0.0
C704 C 0.60168 0.22657 0.92673 0.0
C705 C 0.5791 0.20438 0.93226 0.0
C706 C 0.61419 0.24242 0.95454 0.0
C707 C 0.60394 0.23659 0.98794 0.0
C708 C 0.58 0.21646 0.99247 0.0
H709 H 0.58384 0.2081 0.18465 0.0
H710 H 0.59017 0.22868 0.12912 0.0
C711 C 0.56774 0.20042 0.96503 0.0
C712 C 0.61928 0.24724 1.01934 0.0
H713 H 0.65028 0.2302 1.07572 0.0
C714 C 0.6133 0.26087 1.04219 0.0
C715 C 0.63479 0.23813 1.03089 0.0
C716 C 0.64245 0.22406 1.00692 0.0
C717 C 0.61992 0.26297 1.07744 0.0
C718 C 0.63175 0.25016 1.09013 0.0
C719 C 0.64077 0.23964 1.06628 0.0
C720 C 0.62968 0.24232 0.12708 0.0
C721 C 0.61269 0.2775 0.10105 0.0
C722 C 0.64964 0.24256 0.1446 0.0
C723 C 0.64587 0.23014 0.17641 0.0
C724 C 0.62211 0.21746 0.19125 0.0
C725 C 0.60247 0.21815 0.17434 0.0
C726 C 0.60616 0.23023 0.14258 0.0
H727 H 0.6157 0.29464 1.08779 0.0
H728 H 0.59264 0.26633 0.10707 0.0
H729 H 0.62341 0.28265 0.12572 0.0
H730 H 0.66789 0.25145 0.133 0.0
H731 H 0.66135 0.22996 0.18897 0.0
H732 H 0.34168 0.54684 0.33242 0.0
H733 H 0.33113 0.56459 0.38174 0.0
H734 H 0.40598 0.62653 0.38243 0.0
H735 H 0.4159 0.60968 0.33265 0.0
H736 H 0.34962 0.56592 0.43971 0.0
H737 H 0.37416 0.66171 0.41967 0.0
H738 H 0.36847 0.64142 0.38313 0.0
H739 H 0.39931 0.65976 0.40107 0.0
C740 C 0.35548 0.56473 0.34237 0.0
C741 C 0.37979 0.57659 0.32946 0.0
C742 C 0.34944 0.57491 0.37047 0.0
C743 C 0.36764 0.59705 0.38595 0.0
C744 C 0.39126 0.60985 0.37076 0.0
H745 H 0.45773 0.63694 0.52926 0.0
H746 H 0.42975 0.63815 0.48588 0.0
C747 C 0.39717 0.59986 0.34268 0.0
C748 C 0.36472 0.60358 0.42203 0.0
H749 H 0.39369 0.65419 0.47439 0.0
C750 C 0.3581 0.58515 0.44749 0.0
C751 C 0.37498 0.6285 0.43268 0.0
C752 C 0.3793 0.64882 0.40747 0.0
C753 C 0.36585 0.59134 0.48203 0.0
C754 C 0.38038 0.61663 0.49116 0.0
C755 C 0.38315 0.63482 0.46713 0.0
C756 C 0.39816 0.62393 0.52036 0.0
C757 C 0.36128 0.57083 0.50717 0.0
C758 C 0.39014 0.6172 0.55474 0.0
C759 C 0.40611 0.61622 0.57953 0.0
C760 C 0.43028 0.62215 0.57015 0.0
C761 C 0.43909 0.63189 0.53696 0.0
C762 C 0.42315 0.63279 0.51227 0.0
H763 H 0.35009 0.55216 0.49549 0.0
H764 H 0.37917 0.57292 0.51618 0.0
H765 H 0.35123 0.57186 0.53019 0.0
H766 H 0.37101 0.6106 0.56159 0.0
H767 H 0.3988 0.60862 0.60496 0.0
H768 H 0.82185 0.47964 0.88388 0.0
H769 H 0.79205 0.4716 0.83711 0.0
H770 H 0.76995 0.39403 0.84043 0.0
H771 H 0.79787 0.4017 0.88845 0.0
H772 H 0.80048 0.46123 0.77968 0.0
H773 H 0.708 0.38461 0.80367 0.0
H774 H 0.72839 0.40098 0.83956 0.0
H775 H 0.72754 0.3739 0.82112 0.0
C776 C 0.80971 0.46073 0.87569 0.0
C777 C 0.81271 0.44139 0.88904 0.0
C778 C 0.79267 0.45612 0.84886 0.0
C779 C 0.77863 0.4322 0.83479 0.0
C780 C 0.7799 0.41259 0.85088 0.0
H781 H 0.79197 0.36376 0.68721 0.0
H782 H 0.77324 0.37568 0.73318 0.0
C783 C 0.79645 0.4171 0.87798 0.0
C784 C 0.76822 0.42847 0.79896 0.0
H785 H 0.7287 0.37987 0.74814 0.0
C786 C 0.78404 0.44401 0.77272 0.0
C787 C 0.74641 0.40648 0.7892 0.0
C788 C 0.72658 0.39082 0.81511 0.0
C789 C 0.78117 0.43601 0.73818 0.0
C790 C 0.76199 0.41184 0.72987 0.0
C791 C 0.74384 0.3981 0.7548 0.0
C792 C 0.76492 0.39872 0.70001 0.0
C793 C 0.8006 0.45217 0.71193 0.0
C794 C 0.765 0.40647 0.66571 0.0
C795 C 0.77593 0.39979 0.6394 0.0
C796 C 0.78683 0.38528 0.64718 0.0
C797 C 0.78407 0.37526 0.68066 0.0
C798 C 0.77315 0.38189 0.70685 0.0
H799 H 0.81452 0.47033 0.72295 0.0
H800 H 0.81043 0.44268 0.7023 0.0
H801 H 0.79162 0.45567 0.68937 0.0
H802 H 0.75858 0.41932 0.65988 0.0
H803 H 0.7778 0.40778 0.61378 0.0
H804 H 0.43599 0.79376 0.98331 0.0
H805 H 0.41151 0.76306 1.02837 0.0
H806 H 0.36887 0.79945 1.04353 0.0
H807 H 0.39261 0.8293 0.99866 0.0
H808 H 0.4128 0.77526 1.09333 0.0
H809 H 0.31513 0.73012 1.05677 0.0
H810 H 0.33942 0.74485 1.02473 0.0
H811 H 0.32796 0.76234 1.04753 0.0
C812 C 0.42092 0.79465 0.99578 0.0
C813 C 0.41643 0.8141 0.98815 0.0
C814 C 0.40689 0.7771 1.02131 0.0
C815 C 0.38797 0.77857 1.03896 0.0
C816 C 0.38274 0.79727 1.0297 0.0
H817 H 0.35746 0.82066 0.19789 0.0
H818 H 0.35237 0.79664 0.1464 0.0
C819 C 0.39671 0.81472 1.00452 0.0
C820 C 0.37698 0.76446 1.07146 0.0
H821 H 0.32461 0.74631 0.11883 0.0
C822 C 0.39328 0.76769 0.0988 0.0
C823 C 0.35142 0.75391 1.07863 0.0
C824 C 0.33254 0.74737 1.05009 0.0
C825 C 0.38552 0.76505 0.13349 0.0
C826 C 0.36083 0.75888 0.14067 0.0
C827 C 0.34366 0.75153 0.1133 0.0
C828 C 0.35519 0.7676 0.1732 0.0
C829 C 0.40463 0.77225 0.16199 0.0
C830 C 0.35658 0.75829 0.20585 0.0
C831 C 0.35925 0.77202 0.23589 0.0
C832 C 0.36081 0.79533 0.23353 0.0
C833 C 0.3563 0.80288 0.20114 0.0
C834 C 0.35344 0.78911 0.17137 0.0
H835 H 0.423 0.7765 0.15185 0.0
H836 H 0.40686 0.7888 0.1759 0.0
H837 H 0.39841 0.75692 0.1811 0.0
H838 H 0.35753 0.74147 0.20784 0.0
H839 H 0.36189 0.76523 0.26055 0.0
H840 H 0.62789 0.37833 0.29766 0.0
H841 H 0.6261 0.35599 0.35126 0.0
H842 H 0.62736 0.41477 0.41155 0.0
H843 H 0.62976 0.43712 0.35886 0.0
H844 H 0.64999 0.3936 0.44587 0.0
H845 H 0.55894 0.31961 0.39484 0.0
H846 H 0.58708 0.32637 0.37311 0.0
H847 H 0.57619 0.34812 0.37102 0.0
C848 C 0.6285 0.38671 0.3225 0.0
C849 C 0.62858 0.4093 0.32408 0.0
C850 C 0.62736 0.37389 0.35305 0.0
C851 C 0.62586 0.38333 0.38541 0.0
C852 C 0.62847 0.40702 0.38693 0.0
H853 H 0.53957 0.38155 0.51357 0.0
H854 H 0.55793 0.36691 0.47117 0.0
C855 C 0.6299 0.4199 0.35665 0.0
C856 C 0.61759 0.36791 0.41734 0.0
H857 H 0.56211 0.32746 0.45412 0.0
C858 C 0.63105 0.37845 0.44793 0.0
C859 C 0.59315 0.34755 0.41985 0.0
C860 C 0.57788 0.33464 0.38808 0.0
C861 C 0.61925 0.37284 0.48036 0.0
C862 C 0.59356 0.35541 0.48204 0.0
C863 C 0.58161 0.34126 0.45249 0.0
C864 C 0.57782 0.35754 0.50905 0.0
C865 C 0.63358 0.38817 0.51136 0.0
C866 C 0.58154 0.35573 0.54471 0.0
C867 C 0.57144 0.36476 0.5691 0.0
C868 C 0.55717 0.37529 0.55805 0.0
C869 C 0.55101 0.37414 0.52275 0.0
C870 C 0.56134 0.3655 0.4985 0.0
H871 H 0.65319 0.40162 0.50496 0.0
H872 H 0.62487 0.39863 0.52149 0.0
H873 H 0.63345 0.37586 0.53233 0.0
H874 H 0.59356 0.34894 0.55355 0.0
H875 H 0.57637 0.36524 0.59622 0.0
H876 H 0.23766 0.59741 0.95141 0.0
H877 H 0.26641 0.61822 0.90312 0.0
H878 H 0.21133 0.56734 0.83113 0.0
H879 H 0.18322 0.54645 0.87852 0.0
H880 H 0.25701 0.58172 0.80794 0.0
H881 H 0.25228 0.66484 0.8496 0.0
H882 H 0.2669 0.65283 0.87764 0.0
H883 H 0.23391 0.63557 0.8712 0.0
C884 C 0.23206 0.59029 0.92532 0.0
C885 C 0.20799 0.5705 0.91879 0.0
C886 C 0.24845 0.60227 0.89775 0.0
C887 C 0.24076 0.59486 0.86336 0.0
C888 C 0.21777 0.57352 0.85739 0.0
H889 H 0.19307 0.62804 0.70312 0.0
H890 H 0.21399 0.62943 0.75703 0.0
C891 C 0.20161 0.56145 0.88473 0.0
C892 C 0.25387 0.61073 0.83297 0.0
H893 H 0.25648 0.66016 0.79078 0.0
C894 C 0.25781 0.59935 0.80424 0.0
C895 C 0.25547 0.63405 0.82844 0.0
C896 C 0.25191 0.64764 0.85821 0.0
C897 C 0.25879 0.60825 0.77037 0.0
C898 C 0.25687 0.62973 0.76552 0.0
C899 C 0.25745 0.64344 0.79468 0.0
C900 C 0.24729 0.63412 0.73247 0.0
C901 C 0.25871 0.59285 0.74016 0.0
C902 C 0.25942 0.63737 0.70058 0.0
C903 C 0.24722 0.63628 0.6694 0.0
C904 C 0.22296 0.63242 0.66981 0.0
C905 C 0.21182 0.6313 0.70187 0.0
C906 C 0.22381 0.63205 0.7328 0.0
H907 H 0.25834 0.57564 0.74874 0.0
H908 H 0.24234 0.5876 0.72328 0.0
H909 H 0.27561 0.60378 0.72432 0.0
H910 H 0.27778 0.63962 0.6997 0.0
H911 H 0.25636 0.63753 0.64499 0.0
H912 H 0.41533 0.97941 0.94591 0.0
H913 H 0.43094 1.00446 0.99896 0.0
H914 H 0.44082 0.94738 1.04638 0.0
H915 H 0.42674 0.92321 0.99283 0.0
H916 H 0.42114 0.00647 1.06077 0.0
H917 H 0.5044 0.99846 1.07762 0.0
H918 H 0.48554 0.98711 1.03928 0.0
H919 H 0.4773 0.9686 1.0785 0.0
C920 C 0.42085 0.97208 0.96754 0.0
C921 C 0.41956 0.94885 0.96402 0.0
C922 C 0.42997 0.98667 0.99845 0.0
C923 C 0.43826 0.9789 1.02787 0.0
C924 C 0.43604 0.9552 1.02463 0.0
H925 H 0.52877 0.08314 0.20297 0.0
H926 H 0.51449 0.05949 0.14831 0.0
C927 C 0.42739 0.94087 0.99356 0.0
C928 C 0.4485 0.99513 1.06147 0.0
H929 H 0.49362 0.0148 0.12578 0.0
C930 C 0.43708 0.00814 1.0746 0.0
C931 C 0.46977 0.99857 1.08062 0.0
C932 C 0.4851 0.98766 1.06809 0.0
C933 C 0.44551 0.02336 0.10513 0.0
C934 C 0.46596 0.02576 0.1253 0.0
C935 C 0.47777 0.01322 0.11177 0.0
C936 C 0.47523 0.04099 0.15981 0.0
C937 C 0.43262 0.03751 0.1145 0.0
C938 C 0.45871 0.03909 0.18644 0.0
C939 C 0.46696 0.05301 0.21784 0.0
C940 C 0.49235 0.06955 0.22517 0.0
C941 C 0.50906 0.07118 0.19895 0.0
C942 C 0.50074 0.05728 0.16726 0.0
H943 H 0.42424 0.04107 1.09122 0.0
H944 H 0.41737 0.02634 0.13294 0.0
H945 H 0.44555 0.05555 0.12672 0.0
H946 H 0.4391 0.02632 0.18344 0.0
H947 H 0.4531 0.05035 0.23687 0.0
H948 H 0.53172 0.45007 0.32135 0.0
H949 H 0.51778 0.45745 0.37736 0.0
H950 H 0.44453 0.4294 0.33503 0.0
H951 H 0.45805 0.42046 0.28024 0.0
H952 H 0.50444 0.48299 0.40676 0.0
H953 H 0.41813 0.39389 0.41973 0.0
H954 H 0.43984 0.39927 0.38555 0.0
H955 H 0.41717 0.40906 0.3807 0.0
C956 C 0.51251 0.44514 0.32392 0.0
C957 C 0.49621 0.4342 0.29533 0.0
C958 C 0.50435 0.4495 0.35652 0.0
C959 C 0.47944 0.4435 0.36253 0.0
C960 C 0.46345 0.43335 0.33337 0.0
H961 H 0.41409 0.43727 0.5756 0.0
H962 H 0.4275 0.42831 0.52017 0.0
C963 C 0.47144 0.42846 0.30111 0.0
C964 C 0.47072 0.44854 0.39827 0.0
H965 H 0.42223 0.42594 0.45727 0.0
C966 C 0.48643 0.47017 0.41751 0.0
C967 C 0.44742 0.43222 0.4145 0.0
C968 C 0.42981 0.40721 0.39926 0.0
C969 C 0.47988 0.47585 0.45055 0.0
C970 C 0.45598 0.4604 0.46572 0.0
C971 C 0.44037 0.43856 0.44673 0.0
C972 C 0.44719 0.46609 0.50099 0.0
C973 C 0.49962 0.49806 0.46947 0.0
C974 C 0.4527 0.49029 0.51063 0.0
C975 C 0.44556 0.49555 0.5433 0.0
C976 C 0.43144 0.47686 0.56803 0.0
C977 C 0.42486 0.45248 0.55798 0.0
C978 C 0.43266 0.44729 0.52561 0.0
H979 H 0.51843 0.50233 0.46136 0.0
H980 H 0.49776 0.51435 0.463 0.0
H981 H 0.49809 0.49515 0.49802 0.0
H982 H 0.46244 0.50551 0.49272 0.0
H983 H 0.4509 0.51457 0.54896 0.0
H984 H 0.0646 0.52733 0.63354 0.0
H985 H 0.04001 0.51192 0.68719 0.0
H986 H 0.05138 0.44943 0.68768 0.0
H987 H 0.07549 0.46448 0.63388 0.0
H988 H 0.99571 0.46817 0.70536 0.0
H989 H 0.07009 0.47186 0.78805 0.0
H990 H 0.0763 0.4872 0.74637 0.0
H991 H 0.06481 0.45444 0.74878 0.0
C992 C 0.0621 0.51035 0.64499 0.0
C993 C 0.07268 0.49755 0.62843 0.0
C994 C 0.04775 0.50136 0.67615 0.0
C995 C 0.04361 0.47937 0.69314 0.0
C996 C 0.05421 0.46662 0.67658 0.0
H997 H 0.96868 0.39754 0.89113 0.0
H998 H 0.99295 0.41317 0.83722 0.0
C999 C 0.06815 0.47533 0.64514 0.0
C1000 C 0.02812 0.46961 0.72724 0.0
H1001 H 0.02979 0.45168 0.81213 0.0
C1002 C 1.00341 0.46477 0.72864 0.0
C1003 C 0.03725 0.4646 0.75854 0.0
C1004 C 0.06361 0.46997 0.76069 0.0
C1005 C 0.98797 0.45485 0.75882 0.0
C1006 C 0.99715 0.45001 0.7904 0.0
C1007 C 0.02196 0.45497 0.78892 0.0
C1008 C 0.98163 0.43995 0.82463 0.0
C1009 C 0.96137 0.44861 0.75553 0.0
C1010 C 0.96674 0.44935 0.83777 0.0
C1011 C 0.95231 0.43993 0.86864 0.0
C1012 C 0.95219 0.42087 0.88909 0.0
C1013 C 0.96761 0.41188 0.87666 0.0
C1014 C 0.98183 0.4211 0.84536 0.0
H1015 H 0.95478 0.44411 0.72824 0.0
H1016 H 0.94889 0.43256 0.77204 0.0
H1017 H 0.95988 0.46491 0.76333 0.0
H1018 H 0.96643 0.46447 0.82442 0.0
H1019 H 0.94143 0.44812 0.87686 0.0
H1020 H 0.55259 0.93385 0.22179 0.0
H1021 H 0.56471 0.95453 0.16474 0.0
H1022 H 0.502 0.96558 0.16643 0.0
H1023 H 0.48931 0.944 0.22265 0.0
H1024 H 0.54202 0.00825 0.14335 0.0
H1025 H 0.5418 0.93373 1.06631 0.0
H1026 H 0.52814 0.92821 0.109 0.0
H1027 H 0.56112 0.94189 0.10428 0.0
C1028 C 0.54104 0.94029 0.21 0.0
C1029 C 0.51957 0.93656 0.22783 0.0
C1030 C 0.54797 0.95216 0.17663 0.0
C1031 C 0.53438 0.96188 0.15953 0.0
C1032 C 0.51318 0.95853 0.17773 0.0
H1033 H 0.60754 0.03398 0.95473 0.0
H1034 H 0.59547 0.0117 1.01063 0.0
C1035 C 0.50578 0.94591 0.21045 0.0
C1036 C 0.54265 0.97629 0.12411 0.0
H1037 H 0.55868 0.97291 1.03889 0.0
C1038 C 0.54563 1.00027 0.12073 0.0
C1039 C 0.54771 0.96683 1.09334 0.0
C1040 C 0.54435 0.94118 1.09311 0.0
C1041 C 0.55382 0.0147 1.08928 0.0
C1042 C 0.55833 0.00502 1.05818 0.0
C1043 C 0.55537 0.98102 1.06162 0.0
C1044 C 0.56597 0.01921 1.02247 0.0
C1045 C 0.55825 0.04075 1.09042 0.0
C1046 C 0.55371 0.03123 1.00811 0.0
C1047 C 0.56079 0.04428 0.97567 0.0
C1048 C 0.58045 0.04601 0.95505 0.0
C1049 C 0.59245 0.03361 0.96901 0.0
C1050 C 0.58537 0.02057 1.00157 0.0
H1051 H 0.56248 0.04829 0.11726 0.0
H1052 H 0.57381 0.05332 1.07326 0.0
H1053 H 0.54127 0.04077 1.08176 0.0
H1054 H 0.53815 0.03031 1.02176 0.0
H1055 H 0.55053 0.05299 0.96661 0.0
H1056 H 0.55314 0.50975 0.57235 0.0
H1057 H 0.54025 0.5201 0.51792 0.0
H1058 H 0.61592 0.57431 0.49557 0.0
H1059 H 0.62902 0.56404 0.55073 0.0
H1060 H 0.53878 0.55738 0.48968 0.0
H1061 H 0.60053 0.54316 0.40236 0.0
H1062 H 0.59706 0.53437 0.44758 0.0
H1063 H 0.61712 0.56613 0.43494 0.0
C1064 C 0.56733 0.52384 0.55601 0.0
C1065 C 0.59245 0.53568 0.56696 0.0
C1066 C 0.55974 0.52985 0.52419 0.0
C1067 C 0.57673 0.54775 0.50065 0.0
C1068 C 0.60193 0.55987 0.51167 0.0
H1069 H 0.55935 0.60672 0.29367 0.0
H1070 H 0.57424 0.59859 0.34866 0.0
C1071 C 0.60956 0.55406 0.54392 0.0
C1072 C 0.56782 0.55367 0.46567 0.0
H1073 H 0.57773 0.56016 0.37665 0.0
C1074 C 0.54746 0.55785 0.46513 0.0
C1075 C 0.57847 0.55452 0.43247 0.0
C1076 C 0.59934 0.54908 0.42912 0.0
C1077 C 0.53796 0.56279 0.43388 0.0
C1078 C 0.54856 0.56356 0.40071 0.0
C1079 C 0.56911 0.5597 0.40124 0.0
C1080 C 0.53887 0.56851 0.36576 0.0
C1081 C 0.51682 0.56784 0.43702 0.0
C1082 C 0.51374 0.55446 0.35497 0.0
C1083 C 0.50506 0.55909 0.32285 0.0
C1084 C 0.52094 0.57811 0.29953 0.0
C1085 C 0.54609 0.59203 0.31025 0.0
C1086 C 0.5548 0.58725 0.3422 0.0
H1087 H 0.51514 0.5733 0.46387 0.0
H1088 H 0.51916 0.58272 0.41884 0.0
H1089 H 0.49922 0.55079 0.43048 0.0
H1090 H 0.50064 0.53942 0.37121 0.0
H1091 H 0.48567 0.54755 0.31627 0.0
H1092 H 0.04481 0.60147 0.89191 0.0
H1093 H 0.02268 0.58703 0.83617 0.0
H1094 H 0.02619 0.52011 0.84521 0.0
H1095 H 0.04943 0.53515 0.89946 0.0
H1096 H 0.98268 0.55549 0.80963 0.0
H1097 H 0.04387 0.52638 0.74912 0.0
H1098 H 0.03093 0.50981 0.78866 0.0
H1099 H 0.05188 0.54286 0.78965 0.0
C1100 C 0.04119 0.58375 0.88203 0.0
C1101 C 0.04973 0.56998 0.90125 0.0
C1102 C 0.02821 0.57525 0.84951 0.0
C1103 C 0.02274 0.55235 0.83403 0.0
C1104 C 0.03061 0.53829 0.85402 0.0
H1105 H 0.93918 0.46778 0.6401 0.0
H1106 H 0.96115 0.48116 0.69616 0.0
C1107 C 0.04392 0.54695 0.88612 0.0
C1108 C 0.00851 0.54318 0.79828 0.0
H1109 H 1.00582 0.51402 0.72019 0.0
C1110 C 0.98819 0.54665 0.79027 0.0
C1111 C 0.01454 0.53112 0.77146 0.0
C1112 C 0.03662 0.52752 0.77493 0.0
C1113 C 0.97422 0.53856 0.75835 0.0
C1114 C 0.98032 0.52662 0.73162 0.0
C1115 C 1.00046 0.52293 0.73963 0.0
C1116 C 0.96639 0.51814 0.69571 0.0
C1117 C 0.95227 0.54229 0.75432 0.0
C1118 C 0.96165 0.53396 0.67437 0.0
C1119 C 0.94903 0.52626 0.64164 0.0
C1120 C 0.94019 0.50217 0.62784 0.0
C1121 C 0.94511 0.48637 0.64895 0.0
C1122 C 0.95798 0.49418 0.68163 0.0
H1123 H 0.94497 0.54373 0.77996 0.0
H1124 H 0.95808 0.55983 0.74004 0.0
H1125 H 0.93705 0.52688 0.73961 0.0
H1126 H 0.96813 0.55276 0.68266 0.0
H1127 H 0.94626 0.53952 0.62694 0.0
H1128 H 0.5183 0.05172 0.26516 0.0
H1129 H 0.55465 0.05908 0.23258 0.0
H1130 H 0.59012 0.05894 0.32986 0.0
H1131 H 0.55518 0.05459 0.36116 0.0
H1132 H 0.58455 0.05393 0.20573 0.0
H1133 H 0.65411 0.09409 0.29057 0.0
H1134 H 0.6351 0.08 0.32782 0.0
H1135 H 0.62973 0.10067 0.30038 0.0
C1136 C 0.53406 0.05344 0.27924 0.0
C1137 C 0.53448 0.0539 0.31567 0.0
C1138 C 0.55517 0.05795 0.26061 0.0
C1139 C 0.57665 0.06146 0.27808 0.0
C1140 C 0.57522 0.05826 0.31464 0.0
H1141 H 0.56087 0.97589 0.3626 0.0
H1142 H 0.59686 1.00102 0.32689 0.0
C1143 C 0.55451 0.05454 0.33299 0.0
C1144 C 0.59884 0.06451 0.25838 0.0
H1145 H 0.62624 0.03842 0.30344 0.0
C1146 C 0.59334 0.0505 0.22769 0.0
C1147 C 0.61788 0.06442 0.27839 0.0
C1148 C 0.63497 0.08608 0.30069 0.0
C1149 C 0.59428 0.02848 0.22935 0.0
C1150 C 0.59854 0.02141 0.26247 0.0
C1151 C 0.61667 0.04139 0.28206 0.0
C1152 C 0.57617 1.00285 0.28255 0.0
C1153 C 0.58621 0.01121 0.19906 0.0
C1154 C 0.55188 0.99559 0.27084 0.0
C1155 C 0.53116 0.98082 0.29126 0.0
C1156 C 0.53389 0.97272 0.32409 0.0
C1157 C 0.55799 0.98132 0.337 0.0
C1158 C 0.57876 0.9956 0.31627 0.0
H1159 H 0.59798 0.0209 0.17623 0.0
H1160 H 0.58758 0.99454 0.20513 0.0
H1161 H 0.56696 0.00586 0.19194 0.0
H1162 H 0.54846 1.00152 0.24607 0.0
H1163 H 0.51294 0.97495 0.28066 0.0
H1164 H 0.49184 0.49312 0.71176 0.0
H1165 H 0.51466 0.49484 0.76464 0.0
H1166 H 0.4483 0.46923 0.82538 0.0
H1167 H 0.42463 0.46218 0.77166 0.0
H1168 H 0.48261 0.52141 0.83222 0.0
H1169 H 0.53332 0.47353 0.85737 0.0
H1170 H 0.52693 0.46999 0.81168 0.0
H1171 H 0.5015 0.45717 0.84221 0.0
C1172 C 0.48202 0.48675 0.73617 0.0
C1173 C 0.45681 0.47886 0.73815 0.0
C1174 C 0.49495 0.48775 0.76645 0.0
C1175 C 0.48341 0.48351 0.79923 0.0
C1176 C 0.4577 0.47292 0.80061 0.0
H1177 H 0.60955 0.55867 0.75548 0.0
H1178 H 0.59333 0.56348 0.81059 0.0
C1179 C 0.44439 0.46965 0.76996 0.0
C1180 C 0.49889 0.49797 0.82903 0.0
H1181 H 0.56011 0.51831 0.83337 0.0
C1182 C 0.49958 0.52064 0.83406 0.0
C1183 C 0.52061 0.49712 0.83621 0.0
C1184 C 0.52038 0.47294 0.83704 0.0
C1185 C 0.52234 0.54277 0.831 0.0
C1186 C 0.5436 0.54107 0.82406 0.0
C1187 C 0.54331 0.51934 0.83481 0.0
C1188 C 0.55655 0.55109 0.79058 0.0
C1189 C 0.52284 0.56701 0.82745 0.0
C1190 C 0.54197 0.54463 0.76002 0.0
C1191 C 0.55048 0.53953 0.72935 0.0
C1192 C 0.57436 0.54305 0.72825 0.0
C1193 C 0.59053 0.55455 0.75645 0.0
C1194 C 0.58157 0.55807 0.78775 0.0
H1195 H 0.51966 0.57252 0.85342 0.0
H1196 H 0.54093 0.582 0.81766 0.0
H1197 H 0.50775 0.56503 0.80992 0.0
H1198 H 0.52276 0.53992 0.76104 0.0
H1199 H 0.53804 0.5316 0.7074 0.0
H1200 H 0.98329 0.40287 1.01291 0.0
H1201 H 0.02185 0.41523 1.04332 0.0
H1202 H 0.04094 0.49154 1.03353 0.0
H1203 H 1.00136 0.47889 1.00446 0.0
H1204 H 0.07993 0.4882 1.06398 0.0
H1205 H 0.99937 0.41981 0.13825 0.0
H1206 H 0.01232 0.41142 0.10259 0.0
H1207 H 0.99053 0.422 0.09454 0.0
C1208 C 0.996 0.42242 1.01648 0.0
C1209 C 0.9885 0.43996 1.00977 0.0
C1210 C 0.01825 0.42944 1.03362 0.0
C1211 C 0.0328 0.45397 1.04433 0.0
C1212 C 0.02878 0.47208 1.02815 0.0
H1213 H 0.01185 0.51375 1.03786 0.0
H1214 H 1.00601 0.4826 1.08126 0.0
C1215 C 1.00615 0.46503 1.01159 0.0
C1216 C 0.04384 0.45943 1.07981 0.0
H1217 H 0.01165 0.46317 0.14811 0.0
C1218 C 0.06571 0.48213 1.08378 0.0
C1219 C 0.02718 0.45082 0.10842 0.0
C1220 C 1.00623 0.42449 0.11111 0.0
C1221 C 0.06624 0.49949 0.10731 0.0
C1222 C 0.04419 0.49356 0.12554 0.0
C1223 C 0.02745 0.46842 0.1313 0.0
C1224 C 0.03301 0.50915 0.1173 0.0
C1225 C 0.08778 0.52542 0.10587 0.0
C1226 C 0.0449 0.53406 0.12724 0.0
C1227 C 0.04613 0.55171 0.10354 0.0
C1228 C 0.03706 0.54448 1.06959 0.0
C1229 C 0.02026 0.5196 1.06324 0.0
C1230 C 0.01714 0.50194 1.08813 0.0
H1231 H 0.10522 0.52556 0.09957 0.0
H1232 H 0.08448 0.53597 1.0853 0.0
H1233 H 0.08996 0.53464 0.13114 0.0
H1234 H 0.05613 0.54017 0.15059 0.0
H1235 H 0.05737 0.57102 0.10972 0.0
H1236 H 0.09013 0.56803 0.45512 0.0
H1237 H 0.07679 0.57067 0.39631 0.0
H1238 H 0.02148 0.49283 0.40195 0.0
H1239 H 0.03501 0.49035 0.45937 0.0
H1240 H 0.04176 0.5699 0.36464 0.0
H1241 H 0.0198 0.48108 0.31015 0.0
H1242 H 0.03947 0.4883 0.34787 0.0
H1243 H 0.05026 0.50854 0.3109 0.0
C1244 C 0.07473 0.55163 0.44389 0.0
C1245 C 0.06342 0.52893 0.46213 0.0
C1246 C 0.06755 0.55306 0.4098 0.0
C1247 C 0.04875 0.53192 0.39327 0.0
C1248 C 0.03683 0.50953 0.41248 0.0
H1249 H 0.93632 0.45123 0.44074 0.0
H1250 H 0.95314 0.46697 0.38324 0.0
C1251 C 0.04406 0.50811 0.44621 0.0
C1252 C 0.03844 0.53383 0.3589 0.0
H1253 H 0.98555 0.48086 0.34355 0.0
C1254 C 0.02948 0.5505 0.3589 0.0
C1255 C 0.02306 0.51132 0.34151 0.0
C1256 C 0.03363 0.49637 0.32665 0.0
C1257 C 1.00373 0.54057 0.36135 0.0
C1258 C 0.98909 0.51457 0.36539 0.0
C1259 C 0.99743 0.50059 0.34717 0.0
C1260 C 0.97745 0.50475 0.40012 0.0
C1261 C 0.99323 0.55731 0.36737 0.0
C1262 C 0.98664 0.51995 0.4299 0.0
C1263 C 0.97708 0.51096 0.46274 0.0
C1264 C 0.95825 0.4864 0.46711 0.0
C1265 C 0.95066 0.47044 0.43822 0.0
C1266 C 0.96005 0.47956 0.40506 0.0
H1267 H 0.99655 0.56901 0.34396 0.0
H1268 H 0.973 0.5466 0.37258 0.0
H1269 H 1.00291 0.57002 0.38939 0.0
H1270 H 1.00152 0.53893 0.42835 0.0
H1271 H 0.98385 0.5236 0.48455 0.0
H1272 H 0.40845 0.98186 0.8411 0.0
H1273 H 0.42109 0.01797 0.80469 0.0
H1274 H 0.49703 0.03603 0.8154 0.0
H1275 H 0.48402 0.99831 0.84957 0.0
H1276 H 0.49229 0.07241 0.77466 0.0
H1277 H 0.42458 0.98286 0.71821 0.0
H1278 H 0.41611 0.99872 0.74955 0.0
H1279 H 0.42855 0.97945 0.76367 0.0
C1280 C 0.42804 0.99401 0.83678 0.0
C1281 C 0.44519 0.98624 0.84494 0.0
C1282 C 0.43523 0.01489 0.81611 0.0
C1283 C 0.45955 0.02784 0.80399 0.0
C1284 C 0.47764 0.02472 0.82196 0.0
H1285 H 0.52053 0.00694 0.82074 0.0
H1286 H 0.48908 0.99749 0.77618 0.0
C1287 C 0.47038 1.00322 0.84162 0.0
C1288 C 0.4642 0.03448 0.76656 0.0
H1289 H 0.46832 0.99558 0.70921 0.0
C1290 C 0.48637 0.05609 0.75872 0.0
C1291 C 0.45565 0.01462 0.74243 0.0
C1292 C 0.42971 0.99275 0.7435 0.0
C1293 C 0.50349 0.05475 0.73665 0.0
C1294 C 0.49827 0.03112 0.72475 0.0
C1295 C 0.47323 0.01303 0.72157 0.0
C1296 C 0.5151 0.02234 0.73766 0.0
C1297 C 0.52871 0.07714 0.73302 0.0
C1298 C 0.54011 0.03455 0.72804 0.0
C1299 C 0.55806 0.03828 0.75296 0.0
C1300 C 0.551 0.03086 0.78757 0.0
C1301 C 0.52622 0.01399 0.79465 0.0
C1302 C 0.50836 0.00873 0.76902 0.0
H1303 H 0.52779 0.09443 0.73457 0.0
H1304 H 0.54076 0.07738 0.75452 0.0
H1305 H 0.53695 0.0767 0.70776 0.0
H1306 H 0.54593 0.04402 0.70327 0.0
H1307 H 0.57732 0.04988 0.74645 0.0
H1308 H 0.47073 0.52453 0.11168 0.0
H1309 H 0.48291 0.52608 1.05184 0.0
H1310 H 0.55856 0.57984 1.08023 0.0
H1311 H 0.54616 0.57747 0.13933 0.0
H1312 H 0.49702 0.52659 0.9962 0.0
H1313 H 0.58711 0.58357 0.99416 0.0
H1314 H 0.59038 0.58657 1.04026 0.0
H1315 H 0.57061 0.59584 1.01759 0.0
C1316 C 0.49008 0.53619 0.10504 0.0
C1317 C 0.50749 0.55049 0.13058 0.0
C1318 C 0.49719 0.53752 1.07029 0.0
C1319 C 0.52213 0.553 1.05986 0.0
C1320 C 0.5393 0.56743 1.08593 0.0
H1321 H 0.49143 0.47143 0.1269 0.0
H1322 H 0.497 0.49074 1.07067 0.0
C1323 C 0.53221 0.56584 0.12057 0.0
C1324 C 0.53088 0.55098 1.02393 0.0
H1325 H 0.57767 0.5399 1.0373 0.0
C1326 C 0.51456 0.52927 1.00579 0.0
C1327 C 0.55566 0.5562 1.02215 0.0
C1328 C 0.57703 0.58215 1.01854 0.0
C1329 C 0.51783 0.50869 1.01035 0.0
C1330 C 0.5387 0.5123 1.03001 0.0
C1331 C 0.55959 0.5363 1.02881 0.0
C1332 C 0.53473 0.49807 1.06287 0.0
C1333 C 0.49771 0.48338 0.99956 0.0
C1334 C 0.55436 0.49703 1.07924 0.0
C1335 C 0.55145 0.48709 0.11267 0.0
C1336 C 0.52866 0.47746 0.13016 0.0
C1337 C 0.50926 0.47895 0.11424 0.0
C1338 C 0.51231 0.48932 1.08128 0.0
H1339 H 0.49543 0.48302 0.9709 0.0
H1340 H 0.50204 0.46881 1.0073 0.0
H1341 H 0.4798 0.47933 1.01119 0.0
H1342 H 0.57194 0.5038 1.06617 0.0
H1343 H 0.56658 0.48552 0.12384 0.0
H1344 H 0.35135 0.02277 0.76265 0.0
H1345 H 0.35094 0.04858 0.71443 0.0
H1346 H 0.32482 0.98617 0.64521 0.0
H1347 H 0.32521 0.96055 0.69299 0.0
H1348 H 0.38068 0.05683 0.65688 0.0
H1349 H 0.28377 0.01742 0.61436 0.0
H1350 H 0.29209 0.01267 0.65765 0.0
H1351 H 0.29097 0.99337 0.62217 0.0
C1352 C 0.34492 0.01451 0.73727 0.0
C1353 C 0.33847 0.9898 0.73129 0.0
C1354 C 0.34464 0.0292 0.70988 0.0
C1355 C 0.3374 0.01915 0.67644 0.0
C1356 C 0.32984 0.99414 0.67098 0.0
H1357 H 0.36183 0.02207 0.47585 0.0
H1358 H 0.3442 0.01845 0.53321 0.0
C1359 C 0.3304 0.9796 0.69813 0.0
C1360 C 0.34168 0.0352 0.64587 0.0
H1361 H 0.31505 0.03419 0.56794 0.0
C1362 C 0.36627 0.05269 0.6378 0.0
C1363 C 0.32279 0.02988 0.62129 0.0
C1364 C 0.29589 0.01248 0.62951 0.0
C1365 C 0.37291 0.06252 0.60417 0.0
C1366 C 0.35426 0.05497 0.57835 0.0
C1367 C 0.32933 0.03978 0.58768 0.0
C1368 C 0.3607 0.05793 0.54102 0.0
C1369 C 0.40005 0.07871 0.59571 0.0
C1370 C 0.37496 0.08134 0.52571 0.0
C1371 C 0.38524 0.08349 0.49274 0.0
C1372 C 0.38114 0.06222 0.47458 0.0
C1373 C 0.3652 0.0388 0.48894 0.0
C1374 C 0.3551 0.0367 0.52182 0.0
H1375 H 0.41222 0.08069 0.61809 0.0
H1376 H 0.40518 0.07094 0.57346 0.0
H1377 H 0.40377 0.09745 0.58823 0.0
H1378 H 0.3791 0.09793 0.53988 0.0
H1379 H 0.39713 0.10177 0.48201 0.0
H1380 H 0.39994 0.3429 1.01679 0.0
H1381 H 0.3723 0.3315 0.96662 0.0
H1382 H 0.31365 0.32529 1.03242 0.0
H1383 H 0.3415 0.33755 1.08273 0.0
H1384 H 0.3234 0.28979 0.95132 0.0
H1385 H 0.32581 0.38016 0.96149 0.0
H1386 H 0.34726 0.37416 0.98523 0.0
H1387 H 0.31551 0.35993 0.99867 0.0
C1388 C 0.38117 0.33914 1.02062 0.0
C1389 C 0.37304 0.34157 1.05358 0.0
C1390 C 0.36531 0.3323 0.99203 0.0
C1391 C 0.34105 0.32776 0.99587 0.0
C1392 C 0.3324 0.32891 1.02898 0.0
H1393 H 0.28061 0.35354 0.80788 0.0
H1394 H 0.27547 0.33434 0.8652 0.0
C1395 C 0.3483 0.33583 1.05766 0.0
C1396 C 0.32613 0.32459 0.9644 0.0
H1397 H 0.31037 0.35786 0.91044 0.0
C1398 C 0.31995 0.30434 0.94259 0.0
C1399 C 0.32139 0.34346 0.95337 0.0
C1400 C 0.32788 0.36576 0.9757 0.0
C1401 C 0.31072 0.30334 0.90894 0.0
C1402 C 0.30822 0.32339 0.89674 0.0
C1403 C 0.31232 0.34249 0.91973 0.0
C1404 C 0.3061 0.32762 0.85928 0.0
C1405 C 0.3047 0.28132 0.88642 0.0
C1406 C 0.32431 0.32922 0.83635 0.0
C1407 C 0.32717 0.34003 0.80366 0.0
C1408 C 0.31212 0.34978 0.79353 0.0
C1409 C 0.2926 0.34637 0.81528 0.0
C1410 C 0.28958 0.3353 0.8479 0.0
H1411 H 0.29718 0.26418 0.90236 0.0
H1412 H 0.29106 0.27864 0.86581 0.0
H1413 H 0.32193 0.2841 0.87396 0.0
H1414 H 0.33776 0.32414 0.84476 0.0
H1415 H 0.34255 0.34268 0.78763 0.0
H1416 H 0.01122 0.35758 0.12164 0.0
H1417 H 0.02603 0.35331 0.17848 0.0
H1418 H 0.95872 0.28358 0.194 0.0
H1419 H 0.9435 0.28811 0.13718 0.0
H1420 H 0.9659 0.31659 0.24332 0.0
H1421 H 0.05266 0.31475 0.22862 0.0
H1422 H 0.0536 0.33885 0.20205 0.0
H1423 H 0.03078 0.30703 0.19333 0.0
C1424 C 0.99986 0.34103 0.1368 0.0
C1425 C 0.97612 0.32333 0.12528 0.0
C1426 C 0.00848 0.33841 0.16908 0.0
C1427 C 0.99361 0.31796 0.19034 0.0
C1428 C 0.97059 0.29936 0.17782 0.0
H1429 H 0.0194 0.34661 0.41532 0.0
H1430 H 1.00429 0.32016 0.36371 0.0
C1431 C 0.96194 0.30195 0.14539 0.0
C1432 C 1.00009 0.31891 0.22754 0.0
H1433 H 0.05011 0.3365 0.28047 0.0
C1434 C 0.98397 0.32007 0.25181 0.0
C1435 C 0.02361 0.32334 0.23852 0.0
C1436 C 0.041 0.32065 0.21421 0.0
C1437 C 0.99177 0.32823 0.28583 0.0
C1438 C 0.01619 0.33496 0.29583 0.0
C1439 C 0.03147 0.33153 0.27256 0.0
C1440 C 0.02737 0.34939 0.32775 0.0
C1441 C 0.97464 0.33174 0.30974 0.0
C1442 C 0.0459 0.37428 0.3246 0.0
C1443 C 0.05466 0.38932 0.35388 0.0
C1444 C 0.04503 0.37975 0.38691 0.0
C1445 C 0.02718 0.3545 0.3902 0.0
C1446 C 0.01844 0.33941 0.36079 0.0
H1447 H 0.95742 0.32842 0.29639 0.0
H1448 H 0.96935 0.31861 0.33187 0.0
H1449 H 0.98413 0.3508 0.32045 0.0
H1450 H 0.05301 0.38231 0.29927 0.0
H1451 H 0.06882 0.40854 0.35059 0.0
H1452 H 0.64931 0.99891 0.71526 0.0
H1453 H 0.65779 0.98659 0.65969 0.0
H1454 H 0.73553 0.04005 0.67105 0.0
H1455 H 0.727 0.05274 0.72716 0.0
H1456 H 0.71926 0.04636 0.61164 0.0
H1457 H 0.68638 0.94714 0.62207 0.0
H1458 H 0.66275 0.95215 0.63967 0.0
H1459 H 0.69288 0.9663 0.66015 0.0
C1460 C 0.66835 0.00747 0.70662 0.0
C1461 C 0.68748 0.0268 0.72558 0.0
C1462 C 0.67324 1.0003 0.67482 0.0
C1463 C 0.6974 0.01203 0.66143 0.0
C1464 C 0.71679 0.03058 0.68104 0.0
H1465 H 0.66451 0.95297 0.45221 0.0
H1466 H 0.6921 0.968 0.50268 0.0
C1467 C 0.71188 0.0379 0.71293 0.0
C1468 C 0.70111 0.00751 0.62479 0.0
H1469 H 0.67652 0.96066 0.56592 0.0
C1470 C 0.71072 0.02763 0.60163 0.0
C1471 C 0.69091 0.98325 0.61148 0.0
C1472 C 0.68296 0.96108 0.63484 0.0
C1473 C 0.70718 0.02387 0.56569 0.0
C1474 C 0.69309 0.99945 0.55295 0.0
C1475 C 0.68667 0.97947 0.57567 0.0
C1476 C 0.68083 0.99413 0.51848 0.0
C1477 C 0.71729 0.04614 0.54203 0.0
C1478 C 0.6657 1.00417 0.51016 0.0
C1479 C 0.65016 0.99583 0.48123 0.0
C1480 C 0.64907 0.97694 0.46031 0.0
C1481 C 0.66507 0.96771 0.46765 0.0
C1482 C 0.6808 0.97621 0.49655 0.0
H1483 H 0.73553 0.06099 0.55168 0.0
H1484 H 0.71949 0.04144 0.51497 0.0
H1485 H 0.70452 0.05367 0.54196 0.0
H1486 H 0.66479 0.01747 0.52714 0.0
H1487 H 0.63831 1.00355 0.47599 0.0
H1488 H 0.60927 0.66942 1.01642 0.0
H1489 H 0.63507 0.67842 0.96477 0.0
H1490 H 0.69033 0.67284 1.02559 0.0
H1491 H 0.66421 0.66289 1.07722 0.0
H1492 H 0.68574 0.7157 0.94956 0.0
H1493 H 0.66938 0.61929 0.94988 0.0
H1494 H 0.65124 0.62824 0.97599 0.0
H1495 H 0.68231 0.63712 0.98874 0.0
C1496 C 0.62687 0.67002 1.01881 0.0
C1497 C 0.63455 0.66509 1.05078 0.0
C1498 C 0.64172 0.67548 0.98941 0.0
C1499 C 0.66446 0.67611 0.99145 0.0
C1500 C 0.67271 0.67225 1.02355 0.0
H1501 H 0.72746 0.65336 0.80521 0.0
H1502 H 0.73014 0.6698 0.86346 0.0
C1503 C 0.65783 0.6667 1.053 0.0
C1504 C 0.67822 0.67854 0.95921 0.0
H1505 H 0.68998 0.64417 0.90222 0.0
C1506 C 0.68712 0.70027 0.93936 0.0
C1507 C 0.68005 0.65839 0.9462 0.0
C1508 C 0.67014 0.63435 0.96607 0.0
C1509 C 0.69686 0.70194 0.906 0.0
C1510 C 0.69726 0.68122 0.89216 0.0
C1511 C 0.68979 0.66011 0.91295 0.0
C1512 C 0.70147 0.6791 0.85485 0.0
C1513 C 0.70595 0.72559 0.88557 0.0
C1514 C 0.68536 0.68009 0.83015 0.0
C1515 C 0.68394 0.67093 0.79672 0.0
C1516 C 0.69836 0.66031 0.78762 0.0
C1517 C 0.71617 0.66154 0.81132 0.0
C1518 C 0.71768 0.67085 0.84471 0.0
H1519 H 0.71335 0.74184 0.90316 0.0
H1520 H 0.7206 0.72835 0.86681 0.0
H1521 H 0.69022 0.72482 0.87091 0.0
H1522 H 0.67233 0.68594 0.83749 0.0
H1523 H 0.6703 0.67055 0.7788 0.0
H1524 H 1.00569 0.68276 0.10724 0.0
H1525 H 0.98607 0.68829 0.15881 0.0
H1526 H 0.03125 0.67027 0.22426 0.0
H1527 H 0.05171 0.66618 0.17338 0.0
H1528 H 0.95789 0.6535 0.20041 0.0
H1529 H 0.03196 0.72257 0.28216 0.0
H1530 H 0.03683 0.71962 0.23658 0.0
H1531 H 0.04181 0.70143 0.26892 0.0
C1532 C 0.012 0.68084 0.13272 0.0
C1533 C 0.03004 0.67373 0.13626 0.0
C1534 C 1.00072 0.68394 0.16215 0.0
C1535 C 1.00739 0.68009 0.19555 0.0
C1536 C 0.02622 0.67412 0.19899 0.0
H1537 H 0.93623 0.58606 0.34752 0.0
H1538 H 0.94689 0.61045 0.29463 0.0
C1539 C 0.03759 0.67125 0.16975 0.0
C1540 C 0.99233 0.67807 0.22644 0.0
H1541 H 0.99903 0.68556 0.31415 0.0
C1542 C 0.96675 0.66123 0.22515 0.0
C1543 C 1.00341 0.68879 0.25869 0.0
C1544 C 0.02998 0.70934 0.26145 0.0
C1545 C 0.95286 0.65225 0.25571 0.0
C1546 C 0.96508 0.65969 0.28818 0.0
C1547 C 0.98974 0.67915 0.2893 0.0
C1548 C 0.9545 0.64451 0.31997 0.0
C1549 C 0.92558 0.63376 0.25281 0.0
C1550 C 0.95545 0.65549 0.35215 0.0
C1551 C 0.94959 0.64149 0.38278 0.0
C1552 C 0.94273 0.61632 0.38164 0.0
C1553 C 0.94086 0.60523 0.34926 0.0
C1554 C 0.94685 0.61919 0.31885 0.0
H1555 H 0.91729 0.63846 0.23052 0.0
H1556 H 0.92299 0.61511 0.24778 0.0
H1557 H 0.91545 0.63302 0.27686 0.0
H1558 H 0.96157 0.67505 0.35369 0.0
H1559 H 0.9511 0.65049 0.4074 0.0
H1560 H 0.57414 0.13979 0.43918 0.0
H1561 H 0.58707 0.13956 0.49959 0.0
H1562 H 0.51546 0.07669 0.5216 0.0
H1563 H 0.50226 0.0776 0.46189 0.0
H1564 H 0.5967 0.11405 0.54102 0.0
H1565 H 0.51668 0.11047 0.60637 0.0
H1566 H 0.50683 0.08437 0.57832 0.0
H1567 H 0.5211 0.1152 0.56018 0.0
C1568 C 0.56086 0.12605 0.45686 0.0
C1569 C 0.53675 0.10897 0.44452 0.0
C1570 C 0.56843 0.12582 0.49203 0.0
C1571 C 0.55242 0.10849 0.51719 0.0
C1572 C 0.52846 0.09114 0.50454 0.0
H1573 H 0.58261 0.12683 0.74782 0.0
H1574 H 0.57281 0.12974 0.68692 0.0
C1575 C 0.52081 0.09152 0.46953 0.0
C1576 C 0.56092 0.10824 0.55562 0.0
H1577 H 0.54277 0.10191 0.64191 0.0
C1578 C 0.58469 0.11146 0.56283 0.0
C1579 C 0.5462 0.10536 0.58567 0.0
C1580 C 0.52142 0.10393 0.58235 0.0
C1581 C 0.59363 0.11149 0.5974 0.0
C1582 C 0.57847 0.10751 0.62732 0.0
C1583 C 0.55485 0.10467 0.62013 0.0
C1584 C 0.58666 0.10692 0.66579 0.0
C1585 C 0.61989 0.11679 0.6012 0.0
C1586 C 0.59865 0.09367 0.67654 0.0
C1587 C 0.60512 0.09263 0.71208 0.0
C1588 C 0.5991 0.10391 0.73938 0.0
C1589 C 0.58767 0.11759 0.72852 0.0
C1590 C 0.58177 0.11914 0.69298 0.0
H1591 H 0.63143 0.12747 0.57865 0.0
H1592 H 0.62868 0.12741 0.62523 0.0
H1593 H 0.61989 0.09902 0.60227 0.0
H1594 H 0.60252 0.08335 0.65757 0.0
H1595 H 0.61395 0.08194 0.71831 0.0
H1596 H 0.40521 0.47519 0.80811 0.0
H1597 H 0.41831 0.48885 0.868 0.0
H1598 H 0.43885 0.56325 0.838 0.0
H1599 H 0.4294 0.55025 0.77778 0.0
H1600 H 0.41115 0.50283 0.92099 0.0
H1601 H 0.49673 0.58929 0.89149 0.0
H1602 H 0.47138 0.59099 0.87267 0.0
H1603 H 0.47889 0.56813 0.8575 0.0
C1604 C 0.41332 0.49466 0.81378 0.0
C1605 C 0.41695 0.51146 0.78642 0.0
C1606 C 0.42067 0.50267 0.84896 0.0
C1607 C 0.43118 0.52786 0.85938 0.0
C1608 C 0.43282 0.54414 0.83226 0.0
H1609 H 0.5117 0.59667 1.06189 0.0
H1610 H 0.50001 0.58231 1.0018 0.0
C1611 C 0.42666 0.53639 0.797 0.0
C1612 C 0.43949 0.53672 0.89792 0.0
H1613 H 0.4812 0.58596 0.94885 0.0
C1614 C 0.42669 0.52103 0.92646 0.0
C1615 C 0.46024 0.56027 0.90749 0.0
C1616 C 0.47775 0.57798 0.88067 0.0
C1617 C 0.43336 0.52786 0.96222 0.0
C1618 C 0.45285 0.5521 0.97169 0.0
C1619 C 0.46593 0.56761 0.94324 0.0
C1620 C 0.46028 0.56148 1.0101 0.0
C1621 C 0.41986 0.5081 0.98931 0.0
C1622 C 0.44259 0.5558 1.03687 0.0
C1623 C 0.44946 0.56363 1.07201 0.0
C1624 C 0.47448 0.57846 1.08268 0.0
C1625 C 0.49221 0.58539 1.0557 0.0
C1626 C 0.48535 0.57699 1.02063 0.0
H1627 H 0.413 0.48932 0.97837 0.0
H1628 H 0.43195 0.51035 1.01189 0.0
H1629 H 0.40347 0.50898 0.99838 0.0
H1630 H 0.42306 0.54527 1.03082 0.0
H1631 H 0.43485 0.55786 1.09105 0.0
H1632 H 0.88767 0.43208 0.099 0.0
H1633 H 0.88495 0.4406 0.16025 0.0
H1634 H 0.92505 0.40343 0.18804 0.0
H1635 H 0.92574 0.39308 0.12677 0.0
H1636 H 0.90663 0.46456 0.20871 0.0
H1637 H 0.88445 0.37522 0.26695 0.0
H1638 H 0.91311 0.38807 0.24389 0.0
H1639 H 0.88458 0.37907 0.22062 0.0
C1640 C 0.89554 0.42517 0.11807 0.0
C1641 C 0.90649 0.41124 0.1066 0.0
C1642 C 0.89416 0.43033 0.15397 0.0
C1643 C 0.90416 0.4225 0.18125 0.0
C1644 C 0.91578 0.40908 0.16953 0.0
H1645 H 0.87254 0.42352 0.41214 0.0
H1646 H 0.87362 0.41341 0.35083 0.0
C1647 C 0.91648 0.40324 0.13355 0.0
C1648 C 0.90295 0.42914 0.22065 0.0
H1649 H 0.89731 0.40862 0.30607 0.0
C1650 C 0.90432 0.45189 0.22957 0.0
C1651 C 0.89953 0.41334 0.24989 0.0
C1652 C 0.89505 0.38748 0.24491 0.0
C1653 C 0.9025 0.45896 0.26458 0.0
C1654 C 0.9006 0.44384 0.29398 0.0
C1655 C 0.8991 0.42103 0.28509 0.0
C1656 C 0.89944 0.45069 0.33325 0.0
C1657 C 0.9014 0.48239 0.26888 0.0
C1658 C 0.91333 0.47518 0.34671 0.0
C1659 C 0.91187 0.48119 0.38224 0.0
C1660 C 0.89734 0.46303 0.40747 0.0
C1661 C 0.8839 0.43848 0.39446 0.0
C1662 C 0.88476 0.43256 0.35862 0.0
H1663 H 0.89399 0.48663 0.24514 0.0
H1664 H 0.88949 0.48103 0.29108 0.0
H1665 H 0.9204 0.49815 0.27313 0.0
H1666 H 0.9261 0.49003 0.33004 0.0
H1667 H 0.92316 0.50029 0.39025 0.0
H1668 H 0.44034 0.88061 0.4427 0.0
H1669 H 0.42897 0.88099 0.50339 0.0
H1670 H 0.50602 0.92773 0.5293 0.0
H1671 H 0.51735 0.92544 0.46911 0.0
H1672 H 0.42495 0.90454 0.54825 0.0
H1673 H 0.49687 0.89251 0.61322 0.0
H1674 H 0.51098 0.91974 0.58672 0.0
H1675 H 0.49278 0.8896 0.56689 0.0
C1676 C 0.45508 0.89067 0.46131 0.0
C1677 C 0.48004 0.90258 0.44974 0.0
C1678 C 0.44844 0.89107 0.49683 0.0
C1679 C 0.46622 0.90388 0.52345 0.0
C1680 C 0.49124 0.91643 0.51148 0.0
H1681 H 0.43697 0.88469 0.75578 0.0
H1682 H 0.44797 0.8835 0.69512 0.0
C1683 C 0.49793 0.9154 0.47607 0.0
C1684 C 0.45836 0.90448 0.56238 0.0
H1685 H 0.47506 0.90584 0.64896 0.0
C1686 C 0.4361 0.90457 0.56994 0.0
C1687 C 0.47175 0.90411 0.59264 0.0
C1688 C 0.49424 0.9012 0.58954 0.0
C1689 C 0.42732 0.90438 0.60463 0.0
C1690 C 0.44147 0.90553 0.63484 0.0
C1691 C 0.46367 0.90531 0.62729 0.0
C1692 C 0.43353 0.90599 0.67376 0.0
C1693 C 0.40201 0.90167 0.60792 0.0
C1694 C 0.42136 0.91896 0.685 0.0
C1695 C 0.41405 0.91882 0.72043 0.0
C1696 C 0.41928 0.90653 0.74743 0.0
C1697 C 0.43212 0.8943 0.73659 0.0
C1698 C 0.43874 0.8938 0.70109 0.0
H1699 H 0.39033 0.89241 0.58479 0.0
H1700 H 0.39213 0.8907 0.63125 0.0
H1701 H 0.40396 0.92031 0.60967 0.0
H1702 H 0.41779 0.92989 0.66655 0.0
H1703 H 0.40491 0.92915 0.72684 0.0
H1704 H 0.58568 0.45936 0.77688 0.0
H1705 H 0.57453 0.44747 0.8374 0.0
H1706 H 0.60384 0.52403 0.86439 0.0
H1707 H 0.61661 0.53605 0.80388 0.0
H1708 H 0.54595 0.44347 0.88151 0.0
H1709 H 0.63116 0.51304 0.94695 0.0
H1710 H 0.61796 0.52764 0.92152 0.0
H1711 H 0.62958 0.50968 0.90045 0.0
C1712 C 0.5903 0.47397 0.79557 0.0
C1713 C 0.60258 0.49899 0.78408 0.0
C1714 C 0.58357 0.46697 0.83099 0.0
C1715 C 0.58836 0.48442 0.85772 0.0
C1716 C 0.60041 0.50954 0.84616 0.0
H1717 H 0.57729 0.4433 1.08604 0.0
H1718 H 0.59011 0.45709 1.02594 0.0
C1719 C 0.60759 0.51662 0.81061 0.0
C1720 C 0.58002 0.47594 0.89637 0.0
H1721 H 0.5964 0.48982 0.98322 0.0
C1722 C 0.55735 0.45387 0.9034 0.0
C1723 C 0.59421 0.4884 0.9267 0.0
C1724 C 0.61967 0.51083 0.92362 0.0
C1725 C 0.54876 0.44442 0.93779 0.0
C1726 C 0.56241 0.45744 0.96812 0.0
C1727 C 0.58518 0.4794 0.9612 0.0
C1728 C 0.554 0.44845 1.00651 0.0
C1729 C 0.52532 0.41969 0.9407 0.0
C1730 C 0.52923 0.4388 1.01818 0.0
C1731 C 0.52167 0.43034 1.05304 0.0
C1732 C 0.53844 0.43132 1.07889 0.0
C1733 C 0.56333 0.44155 1.06762 0.0
C1734 C 0.57084 0.44978 1.03261 0.0
H1735 H 0.522 0.40841 0.9169 0.0
H1736 H 0.52597 0.4089 0.96328 0.0
H1737 H 0.50933 0.42268 0.9437 0.0
H1738 H 0.51542 0.43809 1.00043 0.0
H1739 H 0.50249 0.42344 1.05992 0.0
H1740 H 0.09229 0.50473 0.39637 0.0
H1741 H 0.09013 0.51673 0.33638 0.0
H1742 H 0.14604 0.59174 0.35945 0.0
H1743 H 0.14733 0.57991 0.4199 0.0
H1744 H 0.11205 0.52967 0.28162 0.0
H1745 H 0.10689 0.6132 0.30907 0.0
H1746 H 0.13495 0.61652 0.32685 0.0
H1747 H 0.10536 0.59275 0.34328 0.0
C1748 C 0.10425 0.52388 0.38894 0.0
C1749 C 0.12012 0.54109 0.4142 0.0
C1750 C 0.10291 0.53092 0.35392 0.0
C1751 C 0.1173 0.55567 0.34172 0.0
C1752 C 0.13364 0.57274 0.3669 0.0
H1753 H 0.08745 0.60981 0.13689 0.0
H1754 H 0.0895 0.59944 0.19817 0.0
C1755 C 0.13475 0.56576 0.40208 0.0
C1756 C 0.11564 0.56307 0.30312 0.0
H1757 H 0.11632 0.60873 0.25047 0.0
C1758 C 0.11294 0.54703 0.27534 0.0
C1759 C 0.11589 0.58532 0.29288 0.0
C1760 C 0.11563 0.60278 0.31959 0.0
C1761 C 0.11109 0.55245 0.23947 0.0
C1762 C 0.11321 0.57552 0.22903 0.0
C1763 C 0.11529 0.59131 0.25684 0.0
C1764 C 0.11271 0.58316 0.19019 0.0
C1765 C 0.10548 0.53237 0.21335 0.0
C1766 C 0.12574 0.57902 0.16334 0.0
C1767 C 0.12404 0.5845 0.12767 0.0
C1768 C 0.10971 0.59511 0.11634 0.0
C1769 C 0.09835 0.60125 0.14342 0.0
C1770 C 0.09955 0.59518 0.17916 0.0
H1771 H 0.09611 0.51376 0.22572 0.0
H1772 H 0.09331 0.53239 0.19227 0.0
H1773 H 0.12302 0.53524 0.20194 0.0
H1774 H 0.13736 0.57128 0.16969 0.0
H1775 H 0.13378 0.57984 0.10865 0.0
loop_
_geom_bond_atom_site_label_1
_geom_bond_atom_site_label_2
_geom_bond_distance
_geom_bond_site_symmetry_2
_ccdc_geom_bond_type
Eu0 C9 2.828 . S
Eu0 O11 2.392 . S
Eu0 O13 2.418 . S
Eu0 O18 2.373 . S
Eu0 O21 2.488 . S
Eu0 O22 2.471 . S
Eu0 O23 2.349 . S
Eu1 O10 2.373 . S
Eu1 O14 2.488 . S
Eu1 O15 2.471 . S
Eu1 O16 2.349 . S
Eu1 O19 2.392 . S
Eu1 O20 2.418 . S
Eu1 C30 2.828 . S
C2 O20 1.244 . S
C2 O23 1.265 . S
C3 C4 1.379 . S
C3 C7 1.373 . S
C3 C9 1.505 . S
C4 C3 1.379 . S
C4 C6 1.369 . S
C4 H32 0.930 . S
C5 C7 1.383 . S
C5 C8 1.382 . S
C5 H33 0.930 . S
C6 C4 1.369 . S
C6 C8 1.392 . S
C6 H34 0.930 . S
C7 C3 1.373 . S
C7 C5 1.383 . S
C7 H35 0.931 . S
C8 C5 1.382 . S
C8 C6 1.392 . S
C9 Eu0 2.828 . S
C9 C3 1.505 . S
C9 O21 1.249 . S
C9 O22 1.244 . S
O10 Eu1 2.373 . S
O10 C12 1.258 . S
O11 Eu0 2.392 . S
O11 C12 1.242 . S
C12 O10 1.258 . S
C12 O11 1.242 . S
O13 Eu0 2.418 . S
O13 C17 1.244 . S
O14 Eu1 2.488 . S
O14 C30 1.249 . S
O15 Eu1 2.471 . S
O15 C30 1.244 . S
O16 Eu1 2.349 . S
O16 C17 1.265 . S
C17 O13 1.244 . S
C17 O16 1.265 . S
O18 Eu0 2.373 . S
O18 C31 1.258 . S
O19 Eu1 2.392 . S
O19 C31 1.242 . S
O20 Eu1 2.418 . S
O20 C2 1.244 . S
O21 Eu0 2.488 . S
O21 C9 1.249 . S
O22 Eu0 2.471 . S
O22 C9 1.244 . S
O23 Eu0 2.349 . S
O23 C2 1.265 . S
C24 C25 1.379 . S
C24 C28 1.373 . S
C24 C30 1.505 . S
C25 C24 1.379 . S
C25 C27 1.369 . S
C25 H36 0.930 . S
C26 C28 1.383 . S
C26 C29 1.382 . S
C26 H37 0.930 . S
C27 C25 1.369 . S
C27 C29 1.392 . S
C27 H38 0.930 . S
C28 C24 1.373 . S
C28 C26 1.383 . S
C28 H39 0.931 . S
C29 C26 1.382 . S
C29 C27 1.392 . S
C30 Eu1 2.828 . S
C30 O14 1.249 . S
C30 O15 1.244 . S
C30 C24 1.505 . S
C31 O18 1.258 . S
C31 O19 1.242 . S
H32 C4 0.930 . S
H33 C5 0.930 . S
H34 C6 0.930 . S
H35 C7 0.931 . S
H36 C25 0.930 . S
H37 C26 0.930 . S
H38 C27 0.930 . S
H39 C28 0.931 . S
Eu40 C49 2.828 . S
Eu40 O51 2.392 . S
Eu40 O53 2.418 . S
Eu40 O58 2.373 . S
Eu40 O61 2.488 . S
Eu40 O62 2.471 . S
Eu40 O63 2.349 . S
Eu41 O50 2.373 . S
Eu41 O54 2.488 . S
Eu41 O55 2.471 . S
Eu41 O56 2.349 . S
Eu41 O59 2.392 . S
Eu41 O60 2.418 . S
Eu41 C70 2.828 . S
C42 O60 1.244 . S
C42 O63 1.265 . S
C43 C44 1.379 . S
C43 C47 1.373 . S
C43 C49 1.505 . S
C44 C43 1.379 . S
C44 C46 1.369 . S
C44 H72 0.930 . S
C45 C47 1.383 . S
C45 C48 1.382 . S
C45 H73 0.930 . S
C46 C44 1.369 . S
C46 C48 1.392 . S
C46 H74 0.930 . S
C47 C43 1.373 . S
C47 C45 1.383 . S
C47 H75 0.931 . S
C48 C45 1.382 . S
C48 C46 1.392 . S
C49 Eu40 2.828 . S
C49 C43 1.505 . S
C49 O61 1.249 . S
C49 O62 1.244 . S
O50 Eu41 2.373 . S
O50 C52 1.258 . S
O51 Eu40 2.392 . S
O51 C52 1.242 . S
C52 O50 1.258 . S
C52 O51 1.242 . S
O53 Eu40 2.418 . S
O53 C57 1.244 . S
O54 Eu41 2.488 . S
O54 C70 1.249 . S
O55 Eu41 2.471 . S
O55 C70 1.244 . S
O56 Eu41 2.349 . S
O56 C57 1.265 . S
C57 O53 1.244 . S
C57 O56 1.265 . S
O58 Eu40 2.373 . S
O58 C71 1.258 . S
O59 Eu41 2.392 . S
O59 C71 1.242 . S
O60 Eu41 2.418 . S
O60 C42 1.244 . S
O61 Eu40 2.488 . S
O61 C49 1.249 . S
O62 Eu40 2.471 . S
O62 C49 1.244 . S
O63 Eu40 2.349 . S
O63 C42 1.265 . S
C64 C65 1.379 . S
C64 C68 1.373 . S
C64 C70 1.505 . S
C65 C64 1.379 . S
C65 C67 1.369 . S
C65 H76 0.930 . S
C66 C68 1.383 . S
C66 C69 1.382 . S
C66 H77 0.930 . S
C67 C65 1.369 . S
C67 C69 1.392 . S
C67 H78 0.930 . S
C68 C64 1.373 . S
C68 C66 1.383 . S
C68 H79 0.931 . S
C69 C66 1.382 . S
C69 C67 1.392 . S
C70 Eu41 2.828 . S
C70 O54 1.249 . S
C70 O55 1.244 . S
C70 C64 1.505 . S
C71 O58 1.258 . S
C71 O59 1.242 . S
H72 C44 0.930 . S
H73 C45 0.930 . S
H74 C46 0.930 . S
H75 C47 0.931 . S
H76 C65 0.930 . S
H77 C66 0.930 . S
H78 C67 0.930 . S
H79 C68 0.931 . S
Eu80 C89 2.828 . S
Eu80 O91 2.392 . S
Eu80 O93 2.418 . S
Eu80 O98 2.373 . S
Eu80 O101 2.488 . S
Eu80 O102 2.471 . S
Eu80 O103 2.349 . S
Eu81 O90 2.373 . S
Eu81 O94 2.488 . S
Eu81 O95 2.471 . S
Eu81 O96 2.349 . S
Eu81 O99 2.392 . S
Eu81 O100 2.418 . S
Eu81 C110 2.828 . S
C82 O100 1.244 . S
C82 O103 1.265 . S
C83 C84 1.379 . S
C83 C87 1.373 . S
C83 C89 1.505 1_554 S
C84 C83 1.379 . S
C84 C86 1.369 . S
C84 H112 0.930 . S
C85 C87 1.383 . S
C85 C88 1.382 . S
C85 H113 0.930 . S
C86 C84 1.369 . S
C86 C88 1.392 . S
C86 H114 0.930 . S
C87 C83 1.373 . S
C87 C85 1.383 . S
C87 H115 0.931 . S
C88 C85 1.382 . S
C88 C86 1.392 . S
C89 Eu80 2.828 . S
C89 C83 1.505 1_556 S
C89 O101 1.249 . S
C89 O102 1.244 . S
O90 Eu81 2.373 . S
O90 C92 1.258 . S
O91 Eu80 2.392 . S
O91 C92 1.242 . S
C92 O90 1.258 . S
C92 O91 1.242 . S
O93 Eu80 2.418 . S
O93 C97 1.244 . S
O94 Eu81 2.488 . S
O94 C110 1.249 . S
O95 Eu81 2.471 . S
O95 C110 1.244 . S
O96 Eu81 2.349 . S
O96 C97 1.265 . S
C97 O93 1.244 . S
C97 O96 1.265 . S
O98 Eu80 2.373 . S
O98 C111 1.258 . S
O99 Eu81 2.392 . S
O99 C111 1.242 . S
O100 Eu81 2.418 . S
O100 C82 1.244 . S
O101 Eu80 2.488 . S
O101 C89 1.249 . S
O102 Eu80 2.471 . S
O102 C89 1.244 . S
O103 Eu80 2.349 . S
O103 C82 1.265 . S
C104 C105 1.379 . S
C104 C108 1.373 . S
C104 C110 1.505 . S
C105 C104 1.379 . S
C105 C107 1.369 . S
C105 H116 0.930 . S
C106 C108 1.383 . S
C106 C109 1.382 . S
C106 H117 0.930 . S
C107 C105 1.369 . S
C107 C109 1.392 . S
C107 H118 0.930 . S
C108 C104 1.373 . S
C108 C106 1.383 . S
C108 H119 0.931 . S
C109 C106 1.382 . S
C109 C107 1.392 . S
C110 Eu81 2.828 . S
C110 O94 1.249 . S
C110 O95 1.244 . S
C110 C104 1.505 . S
C111 O98 1.258 . S
C111 O99 1.242 . S
H112 C84 0.930 . S
H113 C85 0.930 . S
H114 C86 0.930 . S
H115 C87 0.931 . S
H116 C105 0.930 . S
H117 C106 0.930 . S
H118 C107 0.930 . S
H119 C108 0.931 . S
Eu120 C129 2.828 . S
Eu120 O131 2.392 . S
Eu120 O133 2.418 . S
Eu120 O138 2.373 . S
Eu120 O141 2.488 . S
Eu120 O142 2.471 . S
Eu120 O143 2.349 . S
Eu121 O130 2.373 . S
Eu121 O134 2.488 . S
Eu121 O135 2.471 . S
Eu121 O136 2.349 . S
Eu121 O139 2.392 . S
Eu121 O140 2.418 . S
Eu121 C150 2.828 . S
C122 O140 1.244 . S
C122 O143 1.265 . S
C123 C124 1.379 . S
C123 C127 1.373 . S
C123 C129 1.505 . S
C124 C123 1.379 . S
C124 C126 1.369 . S
C124 H152 0.930 . S
C125 C127 1.383 . S
C125 C128 1.382 . S
C125 H153 0.930 . S
C126 C124 1.369 . S
C126 C128 1.392 . S
C126 H154 0.930 . S
C127 C123 1.373 . S
C127 C125 1.383 . S
C127 H155 0.931 . S
C128 C125 1.382 . S
C128 C126 1.392 . S
C129 Eu120 2.828 . S
C129 C123 1.505 . S
C129 O141 1.249 . S
C129 O142 1.244 . S
O130 Eu121 2.373 . S
O130 C132 1.258 . S
O131 Eu120 2.392 . S
O131 C132 1.242 . S
C132 O130 1.258 . S
C132 O131 1.242 . S
O133 Eu120 2.418 . S
O133 C137 1.244 . S
O134 Eu121 2.488 . S
O134 C150 1.249 . S
O135 Eu121 2.471 . S
O135 C150 1.244 . S
O136 Eu121 2.349 . S
O136 C137 1.265 . S
C137 O133 1.244 . S
C137 O136 1.265 . S
O138 Eu120 2.373 . S
O138 C151 1.258 . S
O139 Eu121 2.392 . S
O139 C151 1.242 . S
O140 Eu121 2.418 . S
O140 C122 1.244 . S
O141 Eu120 2.488 . S
O141 C129 1.249 . S
O142 Eu120 2.471 . S
O142 C129 1.244 . S
O143 Eu120 2.349 . S
O143 C122 1.265 . S
C144 C145 1.379 . S
C144 C148 1.373 . S
C144 C150 1.505 . S
C145 C144 1.379 . S
C145 C147 1.369 . S
C145 H156 0.930 . S
C146 C148 1.383 . S
C146 C149 1.382 . S
C146 H157 0.930 . S
C147 C145 1.369 . S
C147 C149 1.392 . S
C147 H158 0.930 . S
C148 C144 1.373 . S
C148 C146 1.383 . S
C148 H159 0.931 . S
C149 C146 1.382 . S
C149 C147 1.392 . S
C150 Eu121 2.828 . S
C150 O134 1.249 . S
C150 O135 1.244 . S
C150 C144 1.505 . S
C151 O138 1.258 . S
C151 O139 1.242 . S
H152 C124 0.930 . S
H153 C125 0.930 . S
H154 C126 0.930 . S
H155 C127 0.931 . S
H156 C145 0.930 . S
H157 C146 0.930 . S
H158 C147 0.930 . S
H159 C148 0.931 . S
Eu160 C169 2.828 . S
Eu160 O171 2.392 . S
Eu160 O173 2.418 . S
Eu160 O178 2.373 . S
Eu160 O181 2.488 . S
Eu160 O182 2.471 . S
Eu160 O183 2.349 . S
Eu161 O170 2.373 . S
Eu161 O174 2.488 . S
Eu161 O175 2.471 . S
Eu161 O176 2.349 . S
Eu161 O179 2.392 . S
Eu161 O180 2.418 . S
Eu161 C190 2.828 . S
C162 O180 1.244 . S
C162 O183 1.265 . S
C163 C164 1.379 . S
C163 C167 1.373 . S
C163 C169 1.505 . S
C164 C163 1.379 . S
C164 C166 1.369 . S
C164 H192 0.930 . S
C165 C167 1.383 . S
C165 C168 1.382 . S
C165 H193 0.930 . S
C166 C164 1.369 . S
C166 C168 1.392 . S
C166 H194 0.930 . S
C167 C163 1.373 . S
C167 C165 1.383 . S
C167 H195 0.931 . S
C168 C165 1.382 . S
C168 C166 1.392 . S
C169 Eu160 2.828 . S
C169 C163 1.505 . S
C169 O181 1.249 . S
C169 O182 1.244 . S
O170 Eu161 2.373 . S
O170 C172 1.258 . S
O171 Eu160 2.392 . S
O171 C172 1.242 . S
C172 O170 1.258 . S
C172 O171 1.242 . S
O173 Eu160 2.418 . S
O173 C177 1.244 . S
O174 Eu161 2.488 . S
O174 C190 1.249 . S
O175 Eu161 2.471 . S
O175 C190 1.244 . S
O176 Eu161 2.349 . S
O176 C177 1.265 . S
C177 O173 1.244 . S
C177 O176 1.265 . S
O178 Eu160 2.373 . S
O178 C191 1.258 . S
O179 Eu161 2.392 . S
O179 C191 1.242 . S
O180 Eu161 2.418 . S
O180 C162 1.244 . S
O181 Eu160 2.488 . S
O181 C169 1.249 . S
O182 Eu160 2.471 . S
O182 C169 1.244 . S
O183 Eu160 2.349 . S
O183 C162 1.265 . S
C184 C185 1.379 . S
C184 C188 1.373 . S
C184 C190 1.505 . S
C185 C184 1.379 . S
C185 C187 1.369 . S
C185 H196 0.930 . S
C186 C188 1.383 . S
C186 C189 1.382 . S
C186 H197 0.930 . S
C187 C185 1.369 . S
C187 C189 1.392 . S
C187 H198 0.930 . S
C188 C184 1.373 . S
C188 C186 1.383 . S
C188 H199 0.931 . S
C189 C186 1.382 . S
C189 C187 1.392 . S
C190 Eu161 2.828 . S
C190 O174 1.249 . S
C190 O175 1.244 . S
C190 C184 1.505 . S
C191 O178 1.258 . S
C191 O179 1.242 . S
H192 C164 0.930 . S
H193 C165 0.930 . S
H194 C166 0.930 . S
H195 C167 0.931 . S
H196 C185 0.930 . S
H197 C186 0.930 . S
H198 C187 0.930 . S
H199 C188 0.931 . S
Eu200 C209 2.828 . S
Eu200 O211 2.392 . S
Eu200 O213 2.418 . S
Eu200 O218 2.373 . S
Eu200 O221 2.488 . S
Eu200 O222 2.471 . S
Eu200 O223 2.349 . S
Eu201 O210 2.373 . S
Eu201 O214 2.488 . S
Eu201 O215 2.471 . S
Eu201 O216 2.349 . S
Eu201 O219 2.392 . S
Eu201 O220 2.418 . S
Eu201 C230 2.828 . S
C202 O220 1.244 . S
C202 O223 1.265 . S
C203 C204 1.379 . S
C203 C207 1.373 . S
C203 C209 1.505 1_554 S
C204 C203 1.379 . S
C204 C206 1.369 . S
C204 H232 0.930 . S
C205 C207 1.383 . S
C205 C208 1.382 . S
C205 H233 0.930 . S
C206 C204 1.369 . S
C206 C208 1.392 . S
C206 H234 0.930 . S
C207 C203 1.373 . S
C207 C205 1.383 . S
C207 H235 0.931 . S
C208 C205 1.382 . S
C208 C206 1.392 . S
C209 Eu200 2.828 . S
C209 C203 1.505 1_556 S
C209 O221 1.249 . S
C209 O222 1.244 . S
O210 Eu201 2.373 . S
O210 C212 1.258 . S
O211 Eu200 2.392 . S
O211 C212 1.242 . S
C212 O210 1.258 . S
C212 O211 1.242 . S
O213 Eu200 2.418 . S
O213 C217 1.244 . S
O214 Eu201 2.488 . S
O214 C230 1.249 . S
O215 Eu201 2.471 . S
O215 C230 1.244 . S
O216 Eu201 2.349 . S
O216 C217 1.265 . S
C217 O213 1.244 . S
C217 O216 1.265 . S
O218 Eu200 2.373 . S
O218 C231 1.258 . S
O219 Eu201 2.392 . S
O219 C231 1.242 . S
O220 Eu201 2.418 . S
O220 C202 1.244 . S
O221 Eu200 2.488 . S
O221 C209 1.249 . S
O222 Eu200 2.471 . S
O222 C209 1.244 . S
O223 Eu200 2.349 . S
O223 C202 1.265 . S
C224 C225 1.379 . S
C224 C228 1.373 . S
C224 C230 1.505 . S
C225 C224 1.379 . S
C225 C227 1.369 . S
C225 H236 0.930 . S
C226 C228 1.383 . S
C226 C229 1.382 . S
C226 H237 0.930 . S
C227 C225 1.369 . S
C227 C229 1.392 . S
C227 H238 0.930 . S
C228 C224 1.373 . S
C228 C226 1.383 . S
C228 H239 0.931 . S
C229 C226 1.382 . S
C229 C227 1.392 . S
C230 Eu201 2.828 . S
C230 O214 1.249 . S
C230 O215 1.244 . S
C230 C224 1.505 . S
C231 O218 1.258 . S
C231 O219 1.242 . S
H232 C204 0.930 . S
H233 C205 0.930 . S
H234 C206 0.930 . S
H235 C207 0.931 . S
H236 C225 0.930 . S
H237 C226 0.930 . S
H238 C227 0.930 . S
H239 C228 0.931 . S
Eu240 C249 2.828 . S
Eu240 O251 2.392 . S
Eu240 O253 2.418 . S
Eu240 O258 2.373 . S
Eu240 O261 2.488 . S
Eu240 O262 2.471 . S
Eu240 O263 2.349 . S
Eu241 O250 2.373 . S
Eu241 O254 2.488 . S
Eu241 O255 2.471 . S
Eu241 O256 2.349 . S
Eu241 O259 2.392 . S
Eu241 O260 2.418 . S
Eu241 C270 2.828 . S
C242 O260 1.244 . S
C242 O263 1.265 . S
C243 C244 1.379 . S
C243 C247 1.373 . S
C243 C249 1.505 . S
C244 C243 1.379 . S
C244 C246 1.369 . S
C244 H272 0.930 . S
C245 C247 1.383 . S
C245 C248 1.382 . S
C245 H273 0.930 . S
C246 C244 1.369 . S
C246 C248 1.392 . S
C246 H274 0.930 . S
C247 C243 1.373 . S
C247 C245 1.383 . S
C247 H275 0.931 . S
C248 C245 1.382 . S
C248 C246 1.392 . S
C249 Eu240 2.828 . S
C249 C243 1.505 . S
C249 O261 1.249 . S
C249 O262 1.244 . S
O250 Eu241 2.373 . S
O250 C252 1.258 . S
O251 Eu240 2.392 . S
O251 C252 1.242 . S
C252 O250 1.258 . S
C252 O251 1.242 . S
O253 Eu240 2.418 . S
O253 C257 1.244 . S
O254 Eu241 2.488 . S
O254 C270 1.249 . S
O255 Eu241 2.471 . S
O255 C270 1.244 . S
O256 Eu241 2.349 . S
O256 C257 1.265 . S
C257 O253 1.244 . S
C257 O256 1.265 . S
O258 Eu240 2.373 . S
O258 C271 1.258 . S
O259 Eu241 2.392 . S
O259 C271 1.242 . S
O260 Eu241 2.418 . S
O260 C242 1.244 . S
O261 Eu240 2.488 . S
O261 C249 1.249 . S
O262 Eu240 2.471 . S
O262 C249 1.244 . S
O263 Eu240 2.349 . S
O263 C242 1.265 . S
C264 C265 1.379 . S
C264 C268 1.373 . S
C264 C270 1.505 . S
C265 C264 1.379 . S
C265 C267 1.369 . S
C265 H276 0.930 . S
C266 C268 1.383 . S
C266 C269 1.382 . S
C266 H277 0.930 . S
C267 C265 1.369 . S
C267 C269 1.392 . S
C267 H278 0.930 . S
C268 C264 1.373 . S
C268 C266 1.383 . S
C268 H279 0.931 . S
C269 C266 1.382 . S
C269 C267 1.392 . S
C270 Eu241 2.828 . S
C270 O254 1.249 . S
C270 O255 1.244 . S
C270 C264 1.505 . S
C271 O258 1.258 . S
C271 O259 1.242 . S
H272 C244 0.930 . S
H273 C245 0.930 . S
H274 C246 0.930 . S
H275 C247 0.931 . S
H276 C265 0.930 . S
H277 C266 0.930 . S
H278 C267 0.930 . S
H279 C268 0.931 . S
Eu280 C289 2.828 . S
Eu280 O291 2.392 . S
Eu280 O293 2.418 . S
Eu280 O298 2.373 . S
Eu280 O301 2.488 . S
Eu280 O302 2.471 . S
Eu280 O303 2.349 . S
Eu281 O290 2.373 . S
Eu281 O294 2.488 . S
Eu281 O295 2.471 . S
Eu281 O296 2.349 . S
Eu281 O299 2.392 . S
Eu281 O300 2.418 . S
Eu281 C310 2.828 . S
C282 O300 1.244 . S
C282 O303 1.265 . S
C283 C284 1.379 . S
C283 C287 1.373 . S
C283 C289 1.505 . S
C284 C283 1.379 . S
C284 C286 1.369 . S
C284 H312 0.930 . S
C285 C287 1.383 . S
C285 C288 1.382 . S
C285 H313 0.930 . S
C286 C284 1.369 . S
C286 C288 1.392 . S
C286 H314 0.930 . S
C287 C283 1.373 . S
C287 C285 1.383 . S
C287 H315 0.931 . S
C288 C285 1.382 . S
C288 C286 1.392 . S
C289 Eu280 2.828 . S
C289 C283 1.505 . S
C289 O301 1.249 . S
C289 O302 1.244 . S
O290 Eu281 2.373 . S
O290 C292 1.258 . S
O291 Eu280 2.392 . S
O291 C292 1.242 . S
C292 O290 1.258 . S
C292 O291 1.242 . S
O293 Eu280 2.418 . S
O293 C297 1.244 . S
O294 Eu281 2.488 . S
O294 C310 1.249 . S
O295 Eu281 2.471 . S
O295 C310 1.244 . S
O296 Eu281 2.349 . S
O296 C297 1.265 . S
C297 O293 1.244 . S
C297 O296 1.265 . S
O298 Eu280 2.373 . S
O298 C311 1.258 . S
O299 Eu281 2.392 . S
O299 C311 1.242 . S
O300 Eu281 2.418 . S
O300 C282 1.244 . S
O301 Eu280 2.488 . S
O301 C289 1.249 . S
O302 Eu280 2.471 . S
O302 C289 1.244 . S
O303 Eu280 2.349 . S
O303 C282 1.265 . S
C304 C305 1.379 . S
C304 C308 1.373 . S
C304 C310 1.505 . S
C305 C304 1.379 . S
C305 C307 1.369 . S
C305 H316 0.930 . S
C306 C308 1.383 . S
C306 C309 1.382 . S
C306 H317 0.930 . S
C307 C305 1.369 . S
C307 C309 1.392 . S
C307 H318 0.930 . S
C308 C304 1.373 . S
C308 C306 1.383 . S
C308 H319 0.931 . S
C309 C306 1.382 . S
C309 C307 1.392 . S
C310 Eu281 2.828 . S
C310 O294 1.249 . S
C310 O295 1.244 . S
C310 C304 1.505 . S
C311 O298 1.258 . S
C311 O299 1.242 . S
H312 C284 0.930 . S
H313 C285 0.930 . S
H314 C286 0.930 . S
H315 C287 0.931 . S
H316 C305 0.930 . S
H317 C306 0.930 . S
H318 C307 0.930 . S
H319 C308 0.931 . S
Eu320 C329 2.828 . S
Eu320 O331 2.392 . S
Eu320 O333 2.418 . S
Eu320 O338 2.373 . S
Eu320 O341 2.488 . S
Eu320 O342 2.471 . S
Eu320 O343 2.349 . S
Eu321 O330 2.373 . S
Eu321 O334 2.488 . S
Eu321 O335 2.471 . S
Eu321 O336 2.349 . S
Eu321 O339 2.392 . S
Eu321 O340 2.418 . S
Eu321 C350 2.828 . S
C322 O340 1.244 . S
C322 O343 1.265 . S
C323 C324 1.379 . S
C323 C327 1.373 . S
C323 C329 1.505 1_556 S
C324 C323 1.379 . S
C324 C326 1.369 . S
C324 H352 0.930 . S
C325 C327 1.383 . S
C325 C328 1.382 . S
C325 H353 0.930 . S
C326 C324 1.369 . S
C326 C328 1.392 . S
C326 H354 0.930 . S
C327 C323 1.373 . S
C327 C325 1.383 . S
C327 H355 0.931 . S
C328 C325 1.382 . S
C328 C326 1.392 . S
C329 Eu320 2.828 . S
C329 C323 1.505 1_554 S
C329 O341 1.249 . S
C329 O342 1.244 . S
O330 Eu321 2.373 . S
O330 C332 1.258 . S
O331 Eu320 2.392 . S
O331 C332 1.242 . S
C332 O330 1.258 . S
C332 O331 1.242 . S
O333 Eu320 2.418 . S
O333 C337 1.244 . S
O334 Eu321 2.488 . S
O334 C350 1.249 . S
O335 Eu321 2.471 . S
O335 C350 1.244 . S
O336 Eu321 2.349 . S
O336 C337 1.265 . S
C337 O333 1.244 . S
C337 O336 1.265 . S
O338 Eu320 2.373 . S
O338 C351 1.258 . S
O339 Eu321 2.392 . S
O339 C351 1.242 . S
O340 Eu321 2.418 . S
O340 C322 1.244 . S
O341 Eu320 2.488 . S
O341 C329 1.249 . S
O342 Eu320 2.471 . S
O342 C329 1.244 . S
O343 Eu320 2.349 . S
O343 C322 1.265 . S
C344 C345 1.379 . S
C344 C348 1.373 . S
C344 C350 1.505 . S
C345 C344 1.379 . S
C345 C347 1.369 . S
C345 H356 0.930 . S
C346 C348 1.383 . S
C346 C349 1.382 . S
C346 H357 0.930 . S
C347 C345 1.369 . S
C347 C349 1.392 . S
C347 H358 0.930 . S
C348 C344 1.373 . S
C348 C346 1.383 . S
C348 H359 0.931 . S
C349 C346 1.382 . S
C349 C347 1.392 . S
C350 Eu321 2.828 . S
C350 O334 1.249 . S
C350 O335 1.244 . S
C350 C344 1.505 . S
C351 O338 1.258 . S
C351 O339 1.242 . S
H352 C324 0.930 . S
H353 C325 0.930 . S
H354 C326 0.930 . S
H355 C327 0.931 . S
H356 C345 0.930 . S
H357 C346 0.930 . S
H358 C347 0.930 . S
H359 C348 0.931 . S
Eu360 C369 2.828 . S
Eu360 O371 2.392 . S
Eu360 O373 2.418 . S
Eu360 O378 2.373 . S
Eu360 O381 2.488 . S
Eu360 O382 2.471 . S
Eu360 O383 2.349 . S
Eu361 O370 2.373 . S
Eu361 O374 2.488 . S
Eu361 O375 2.471 . S
Eu361 O376 2.349 . S
Eu361 O379 2.392 . S
Eu361 O380 2.418 . S
Eu361 C390 2.828 . S
C362 O380 1.244 . S
C362 O383 1.265 . S
C363 C364 1.379 . S
C363 C367 1.373 . S
C363 C369 1.505 . S
C364 C363 1.379 . S
C364 C366 1.369 . S
C364 H392 0.930 . S
C365 C367 1.383 . S
C365 C368 1.382 . S
C365 H393 0.930 . S
C366 C364 1.369 . S
C366 C368 1.392 . S
C366 H394 0.930 . S
C367 C363 1.373 . S
C367 C365 1.383 . S
C367 H395 0.931 . S
C368 C365 1.382 . S
C368 C366 1.392 . S
C369 Eu360 2.828 . S
C369 C363 1.505 . S
C369 O381 1.249 . S
C369 O382 1.244 . S
O370 Eu361 2.373 . S
O370 C372 1.258 . S
O371 Eu360 2.392 . S
O371 C372 1.242 . S
C372 O370 1.258 . S
C372 O371 1.242 . S
O373 Eu360 2.418 . S
O373 C377 1.244 . S
O374 Eu361 2.488 . S
O374 C390 1.249 . S
O375 Eu361 2.471 . S
O375 C390 1.244 . S
O376 Eu361 2.349 . S
O376 C377 1.265 . S
C377 O373 1.244 . S
C377 O376 1.265 . S
O378 Eu360 2.373 . S
O378 C391 1.258 . S
O379 Eu361 2.392 . S
O379 C391 1.242 . S
O380 Eu361 2.418 . S
O380 C362 1.244 . S
O381 Eu360 2.488 . S
O381 C369 1.249 . S
O382 Eu360 2.471 . S
O382 C369 1.244 . S
O383 Eu360 2.349 . S
O383 C362 1.265 . S
C384 C385 1.379 . S
C384 C388 1.373 . S
C384 C390 1.505 . S
C385 C384 1.379 . S
C385 C387 1.369 . S
C385 H396 0.930 . S
C386 C388 1.383 . S
C386 C389 1.382 . S
C386 H397 0.930 . S
C387 C385 1.369 . S
C387 C389 1.392 . S
C387 H398 0.930 . S
C388 C384 1.373 . S
C388 C386 1.383 . S
C388 H399 0.931 . S
C389 C386 1.382 . S
C389 C387 1.392 . S
C390 Eu361 2.828 . S
C390 O374 1.249 . S
C390 O375 1.244 . S
C390 C384 1.505 . S
C391 O378 1.258 . S
C391 O379 1.242 . S
H392 C364 0.930 . S
H393 C365 0.930 . S
H394 C366 0.930 . S
H395 C367 0.931 . S
H396 C385 0.930 . S
H397 C386 0.930 . S
H398 C387 0.930 . S
H399 C388 0.931 . S
Eu400 C409 2.828 . S
Eu400 O411 2.392 . S
Eu400 O413 2.418 . S
Eu400 O418 2.373 . S
Eu400 O421 2.488 . S
Eu400 O422 2.471 . S
Eu400 O423 2.349 . S
Eu401 O410 2.373 . S
Eu401 O414 2.488 . S
Eu401 O415 2.471 . S
Eu401 O416 2.349 . S
Eu401 O419 2.392 . S
Eu401 O420 2.418 . S
Eu401 C430 2.828 . S
C402 O420 1.244 . S
C402 O423 1.265 . S
C403 C404 1.379 . S
C403 C407 1.373 . S
C403 C409 1.505 . S
C404 C403 1.379 . S
C404 C406 1.369 . S
C404 H432 0.930 . S
C405 C407 1.383 . S
C405 C408 1.382 . S
C405 H433 0.930 . S
C406 C404 1.369 . S
C406 C408 1.392 . S
C406 H434 0.930 . S
C407 C403 1.373 . S
C407 C405 1.383 . S
C407 H435 0.931 . S
C408 C405 1.382 . S
C408 C406 1.392 . S
C409 Eu400 2.828 . S
C409 C403 1.505 . S
C409 O421 1.249 . S
C409 O422 1.244 . S
O410 Eu401 2.373 . S
O410 C412 1.258 . S
O411 Eu400 2.392 . S
O411 C412 1.242 . S
C412 O410 1.258 . S
C412 O411 1.242 . S
O413 Eu400 2.418 . S
O413 C417 1.244 . S
O414 Eu401 2.488 . S
O414 C430 1.249 . S
O415 Eu401 2.471 . S
O415 C430 1.244 . S
O416 Eu401 2.349 . S
O416 C417 1.265 . S
C417 O413 1.244 . S
C417 O416 1.265 . S
O418 Eu400 2.373 . S
O418 C431 1.258 . S
O419 Eu401 2.392 . S
O419 C431 1.242 . S
O420 Eu401 2.418 . S
O420 C402 1.244 . S
O421 Eu400 2.488 . S
O421 C409 1.249 . S
O422 Eu400 2.471 . S
O422 C409 1.244 . S
O423 Eu400 2.349 . S
O423 C402 1.265 . S
C424 C425 1.379 . S
C424 C428 1.373 . S
C424 C430 1.505 . S
C425 C424 1.379 . S
C425 C427 1.369 . S
C425 H436 0.930 . S
C426 C428 1.383 . S
C426 C429 1.382 . S
C426 H437 0.930 . S
C427 C425 1.369 . S
C427 C429 1.392 . S
C427 H438 0.930 . S
C428 C424 1.373 . S
C428 C426 1.383 . S
C428 H439 0.931 . S
C429 C426 1.382 . S
C429 C427 1.392 . S
C430 Eu401 2.828 . S
C430 O414 1.249 . S
C430 O415 1.244 . S
C430 C424 1.505 . S
C431 O418 1.258 . S
C431 O419 1.242 . S
H432 C404 0.930 . S
H433 C405 0.930 . S
H434 C406 0.930 . S
H435 C407 0.931 . S
H436 C425 0.930 . S
H437 C426 0.930 . S
H438 C427 0.930 . S
H439 C428 0.931 . S
Eu440 C449 2.828 . S
Eu440 O451 2.392 . S
Eu440 O453 2.418 . S
Eu440 O458 2.373 . S
Eu440 O461 2.488 . S
Eu440 O462 2.471 . S
Eu440 O463 2.349 . S
Eu441 O450 2.373 . S
Eu441 O454 2.488 . S
Eu441 O455 2.471 . S
Eu441 O456 2.349 . S
Eu441 O459 2.392 . S
Eu441 O460 2.418 . S
Eu441 C470 2.828 . S
C442 O460 1.244 . S
C442 O463 1.265 . S
C443 C444 1.379 . S
C443 C447 1.373 . S
C443 C449 1.505 1_556 S
C444 C443 1.379 . S
C444 C446 1.369 . S
C444 H472 0.930 . S
C445 C447 1.383 . S
C445 C448 1.382 . S
C445 H473 0.930 . S
C446 C444 1.369 . S
C446 C448 1.392 . S
C446 H474 0.930 . S
C447 C443 1.373 . S
C447 C445 1.383 . S
C447 H475 0.931 . S
C448 C445 1.382 . S
C448 C446 1.392 . S
C449 Eu440 2.828 . S
C449 C443 1.505 1_554 S
C449 O461 1.249 . S
C449 O462 1.244 . S
O450 Eu441 2.373 . S
O450 C452 1.258 . S
O451 Eu440 2.392 . S
O451 C452 1.242 . S
C452 O450 1.258 . S
C452 O451 1.242 . S
O453 Eu440 2.418 . S
O453 C457 1.244 . S
O454 Eu441 2.488 . S
O454 C470 1.249 . S
O455 Eu441 2.471 . S
O455 C470 1.244 . S
O456 Eu441 2.349 . S
O456 C457 1.265 . S
C457 O453 1.244 . S
C457 O456 1.265 . S
O458 Eu440 2.373 . S
O458 C471 1.258 . S
O459 Eu441 2.392 . S
O459 C471 1.242 . S
O460 Eu441 2.418 . S
O460 C442 1.244 . S
O461 Eu440 2.488 . S
O461 C449 1.249 . S
O462 Eu440 2.471 . S
O462 C449 1.244 . S
O463 Eu440 2.349 . S
O463 C442 1.265 . S
C464 C465 1.379 . S
C464 C468 1.373 . S
C464 C470 1.505 . S
C465 C464 1.379 . S
C465 C467 1.369 . S
C465 H476 0.930 . S
C466 C468 1.383 . S
C466 C469 1.382 . S
C466 H477 0.930 . S
C467 C465 1.369 . S
C467 C469 1.392 . S
C467 H478 0.930 . S
C468 C464 1.373 . S
C468 C466 1.383 . S
C468 H479 0.931 . S
C469 C466 1.382 . S
C469 C467 1.392 . S
C470 Eu441 2.828 . S
C470 O454 1.249 . S
C470 O455 1.244 . S
C470 C464 1.505 . S
C471 O458 1.258 . S
C471 O459 1.242 . S
H472 C444 0.930 . S
H473 C445 0.930 . S
H474 C446 0.930 . S
H475 C447 0.931 . S
H476 C465 0.930 . S
H477 C466 0.930 . S
H478 C467 0.930 . S
H479 C468 0.931 . S
H480 C488 0.929 . S
H481 C490 0.930 . S
H482 C492 0.930 . S
H483 C495 0.929 . S
H484 C498 0.930 . S
H485 C500 0.960 . S
H486 C500 0.960 . S
H487 C500 0.960 . S
C488 H480 0.929 . S
C488 C489 1.377 . S
C488 C490 1.384 . S
C489 C488 1.377 . S
C489 C495 1.390 . S
C490 H481 0.930 . S
C490 C488 1.384 . S
C490 C491 1.372 . S
C491 C490 1.372 . S
C491 C492 1.400 . S
C491 C496 1.490 . S
C492 H482 0.930 . S
C492 C491 1.400 . S
C492 C495 1.386 . S
H493 C509 0.930 . S
H494 C510 0.931 . S
C495 H483 0.929 . S
C495 C489 1.390 . S
C495 C492 1.386 . S
C496 C491 1.490 . S
C496 C498 1.395 . S
C496 C499 1.403 . S
H497 C503 0.930 . S
C498 H484 0.930 . S
C498 C496 1.395 . S
C498 C501 1.403 . S
C499 C496 1.403 . S
C499 C500 1.524 . S
C499 C503 1.400 . S
C500 H485 0.960 . S
C500 H486 0.960 . S
C500 H487 0.960 . S
C500 C499 1.524 . S
C501 C498 1.403 . S
C501 C502 1.392 . S
C501 C505 1.495 . S
C502 C501 1.392 . S
C502 C503 1.385 . S
C502 C504 1.478 . S
C503 H497 0.930 . S
C503 C499 1.400 . S
C503 C502 1.385 . S
C504 C502 1.478 . S
C504 C506 1.381 . S
C504 C510 1.383 . S
C505 C501 1.495 . S
C505 H511 0.959 . S
C505 H512 0.961 . S
C505 H513 0.960 . S
C506 C504 1.381 . S
C506 C507 1.394 . S
C506 H514 0.930 . S
C507 C506 1.394 . S
C507 C508 1.383 . S
C507 H515 0.929 . S
C508 C507 1.383 . S
C508 C509 1.377 . S
C509 H493 0.930 . S
C509 C508 1.377 . S
C509 C510 1.379 . S
C510 H494 0.931 . S
C510 C504 1.383 . S
C510 C509 1.379 . S
H511 C505 0.959 . S
H512 C505 0.961 . S
H513 C505 0.960 . S
H514 C506 0.930 . S
H515 C507 0.929 . S
H516 C524 0.929 . S
H517 C526 0.930 . S
H518 C528 0.930 . S
H519 C531 0.929 . S
H520 C534 0.930 . S
H521 C536 0.960 . S
H522 C536 0.960 . S
H523 C536 0.960 . S
C524 H516 0.929 . S
C524 C525 1.377 . S
C524 C526 1.384 . S
C525 C524 1.377 . S
C525 C531 1.390 . S
C526 H517 0.930 . S
C526 C524 1.384 . S
C526 C527 1.372 . S
C527 C526 1.372 . S
C527 C528 1.400 . S
C527 C532 1.490 . S
C528 H518 0.930 . S
C528 C527 1.400 . S
C528 C531 1.386 . S
H529 C545 0.930 . S
H530 C546 0.931 . S
C531 H519 0.929 . S
C531 C525 1.390 . S
C531 C528 1.386 . S
C532 C527 1.490 . S
C532 C534 1.395 . S
C532 C535 1.403 . S
H533 C539 0.930 . S
C534 H520 0.930 . S
C534 C532 1.395 . S
C534 C537 1.403 . S
C535 C532 1.403 . S
C535 C536 1.524 . S
C535 C539 1.400 . S
C536 H521 0.960 . S
C536 H522 0.960 . S
C536 H523 0.960 . S
C536 C535 1.524 . S
C537 C534 1.403 . S
C537 C538 1.392 . S
C537 C541 1.495 . S
C538 C537 1.392 . S
C538 C539 1.385 . S
C538 C540 1.478 . S
C539 H533 0.930 . S
C539 C535 1.400 . S
C539 C538 1.385 . S
C540 C538 1.478 . S
C540 C542 1.381 . S
C540 C546 1.383 . S
C541 C537 1.495 . S
C541 H547 0.959 . S
C541 H548 0.961 . S
C541 H549 0.960 . S
C542 C540 1.381 . S
C542 C543 1.394 . S
C542 H550 0.930 . S
C543 C542 1.394 . S
C543 C544 1.383 . S
C543 H551 0.929 . S
C544 C543 1.383 . S
C544 C545 1.377 . S
C545 H529 0.930 . S
C545 C544 1.377 . S
C545 C546 1.379 . S
C546 H530 0.931 . S
C546 C540 1.383 . S
C546 C545 1.379 . S
H547 C541 0.959 . S
H548 C541 0.961 . S
H549 C541 0.960 . S
H550 C542 0.930 . S
H551 C543 0.929 . S
H552 C560 0.929 . S
H553 C562 0.930 . S
H554 C564 0.930 . S
H555 C567 0.929 . S
H556 C570 0.930 . S
H557 C572 0.960 . S
H558 C572 0.960 . S
H559 C572 0.960 . S
C560 H552 0.929 . S
C560 C561 1.377 . S
C560 C562 1.384 . S
C561 C560 1.377 . S
C561 C567 1.390 . S
C562 H553 0.930 . S
C562 C560 1.384 . S
C562 C563 1.372 . S
C563 C562 1.372 . S
C563 C564 1.400 . S
C563 C568 1.490 . S
C564 H554 0.930 . S
C564 C563 1.400 . S
C564 C567 1.386 . S
H565 C581 0.930 . S
H566 C582 0.931 . S
C567 H555 0.929 . S
C567 C561 1.390 . S
C567 C564 1.386 . S
C568 C563 1.490 . S
C568 C570 1.395 . S
C568 C571 1.403 . S
H569 C575 0.930 . S
C570 H556 0.930 . S
C570 C568 1.395 . S
C570 C573 1.403 . S
C571 C568 1.403 . S
C571 C572 1.524 . S
C571 C575 1.400 . S
C572 H557 0.960 . S
C572 H558 0.960 . S
C572 H559 0.960 . S
C572 C571 1.524 . S
C573 C570 1.403 . S
C573 C574 1.392 . S
C573 C577 1.495 . S
C574 C573 1.392 . S
C574 C575 1.385 . S
C574 C576 1.478 . S
C575 H569 0.930 . S
C575 C571 1.400 . S
C575 C574 1.385 . S
C576 C574 1.478 . S
C576 C578 1.381 . S
C576 C582 1.383 . S
C577 C573 1.495 . S
C577 H583 0.959 . S
C577 H584 0.961 . S
C577 H585 0.960 . S
C578 C576 1.381 . S
C578 C579 1.394 . S
C578 H586 0.930 . S
C579 C578 1.394 . S
C579 C580 1.383 . S
C579 H587 0.929 . S
C580 C579 1.383 . S
C580 C581 1.377 . S
C581 H565 0.930 . S
C581 C580 1.377 . S
C581 C582 1.379 . S
C582 H566 0.931 . S
C582 C576 1.383 . S
C582 C581 1.379 . S
H583 C577 0.959 . S
H584 C577 0.961 . S
H585 C577 0.960 . S
H586 C578 0.930 . S
H587 C579 0.929 . S
H588 C596 0.929 . S
H589 C598 0.930 . S
H590 C600 0.930 . S
H591 C603 0.929 . S
H592 C606 0.930 . S
H593 C608 0.960 . S
H594 C608 0.960 . S
H595 C608 0.960 . S
C596 H588 0.929 . S
C596 C597 1.377 . S
C596 C598 1.384 . S
C597 C596 1.377 . S
C597 C603 1.390 . S
C598 H589 0.930 . S
C598 C596 1.384 . S
C598 C599 1.372 . S
C599 C598 1.372 . S
C599 C600 1.400 . S
C599 C604 1.490 . S
C600 H590 0.930 . S
C600 C599 1.400 . S
C600 C603 1.386 . S
H601 C617 0.930 . S
H602 C618 0.931 . S
C603 H591 0.929 . S
C603 C597 1.390 . S
C603 C600 1.386 . S
C604 C599 1.490 . S
C604 C606 1.395 . S
C604 C607 1.403 . S
H605 C611 0.930 . S
C606 H592 0.930 . S
C606 C604 1.395 . S
C606 C609 1.403 . S
C607 C604 1.403 . S
C607 C608 1.524 . S
C607 C611 1.400 . S
C608 H593 0.960 . S
C608 H594 0.960 . S
C608 H595 0.960 . S
C608 C607 1.524 . S
C609 C606 1.403 . S
C609 C610 1.392 . S
C609 C613 1.495 . S
C610 C609 1.392 . S
C610 C611 1.385 . S
C610 C612 1.478 . S
C611 H605 0.930 . S
C611 C607 1.400 . S
C611 C610 1.385 . S
C612 C610 1.478 . S
C612 C614 1.381 . S
C612 C618 1.383 . S
C613 C609 1.495 . S
C613 H619 0.959 . S
C613 H620 0.961 . S
C613 H621 0.960 . S
C614 C612 1.381 . S
C614 C615 1.394 . S
C614 H622 0.930 . S
C615 C614 1.394 . S
C615 C616 1.383 . S
C615 H623 0.929 . S
C616 C615 1.383 . S
C616 C617 1.377 . S
C617 H601 0.930 . S
C617 C616 1.377 . S
C617 C618 1.379 . S
C618 H602 0.931 . S
C618 C612 1.383 . S
C618 C617 1.379 . S
H619 C613 0.959 . S
H620 C613 0.961 . S
H621 C613 0.960 . S
H622 C614 0.930 . S
H623 C615 0.929 . S
H624 C632 0.929 . S
H625 C634 0.930 . S
H626 C636 0.930 . S
H627 C639 0.929 . S
H628 C642 0.930 . S
H629 C644 0.960 . S
H630 C644 0.960 . S
H631 C644 0.960 . S
C632 H624 0.929 . S
C632 C633 1.377 . S
C632 C634 1.384 . S
C633 C632 1.377 . S
C633 C639 1.390 . S
C634 H625 0.930 . S
C634 C632 1.384 . S
C634 C635 1.372 . S
C635 C634 1.372 . S
C635 C636 1.400 . S
C635 C640 1.490 . S
C636 H626 0.930 . S
C636 C635 1.400 . S
C636 C639 1.386 . S
H637 C653 0.930 . S
H638 C654 0.931 . S
C639 H627 0.929 . S
C639 C633 1.390 . S
C639 C636 1.386 . S
C640 C635 1.490 . S
C640 C642 1.395 . S
C640 C643 1.403 . S
H641 C647 0.930 . S
C642 H628 0.930 . S
C642 C640 1.395 . S
C642 C645 1.403 . S
C643 C640 1.403 . S
C643 C644 1.524 . S
C643 C647 1.400 . S
C644 H629 0.960 . S
C644 H630 0.960 . S
C644 H631 0.960 . S
C644 C643 1.524 . S
C645 C642 1.403 . S
C645 C646 1.392 . S
C645 C649 1.495 . S
C646 C645 1.392 . S
C646 C647 1.385 . S
C646 C648 1.478 . S
C647 H641 0.930 . S
C647 C643 1.400 . S
C647 C646 1.385 . S
C648 C646 1.478 . S
C648 C650 1.381 . S
C648 C654 1.383 . S
C649 C645 1.495 . S
C649 H655 0.959 . S
C649 H656 0.961 . S
C649 H657 0.960 . S
C650 C648 1.381 . S
C650 C651 1.394 . S
C650 H658 0.930 . S
C651 C650 1.394 . S
C651 C652 1.383 . S
C651 H659 0.929 . S
C652 C651 1.383 . S
C652 C653 1.377 . S
C653 H637 0.930 . S
C653 C652 1.377 . S
C653 C654 1.379 . S
C654 H638 0.931 . S
C654 C648 1.383 . S
C654 C653 1.379 . S
H655 C649 0.959 . S
H656 C649 0.961 . S
H657 C649 0.960 . S
H658 C650 0.930 . S
H659 C651 0.929 . S
H660 C668 0.929 . S
H661 C670 0.930 . S
H662 C672 0.930 . S
H663 C675 0.929 . S
H664 C678 0.930 . S
H665 C680 0.960 . S
H666 C680 0.960 . S
H667 C680 0.960 . S
C668 H660 0.929 . S
C668 C669 1.377 . S
C668 C670 1.384 . S
C669 C668 1.377 . S
C669 C675 1.390 . S
C670 H661 0.930 . S
C670 C668 1.384 . S
C670 C671 1.372 . S
C671 C670 1.372 . S
C671 C672 1.400 . S
C671 C676 1.490 . S
C672 H662 0.930 . S
C672 C671 1.400 . S
C672 C675 1.386 . S
H673 C689 0.930 . S
H674 C690 0.931 . S
C675 H663 0.929 . S
C675 C669 1.390 . S
C675 C672 1.386 . S
C676 C671 1.490 . S
C676 C678 1.395 . S
C676 C679 1.403 . S
H677 C683 0.930 . S
C678 H664 0.930 . S
C678 C676 1.395 . S
C678 C681 1.403 . S
C679 C676 1.403 . S
C679 C680 1.524 . S
C679 C683 1.400 . S
C680 H665 0.960 . S
C680 H666 0.960 . S
C680 H667 0.960 . S
C680 C679 1.524 . S
C681 C678 1.403 . S
C681 C682 1.392 . S
C681 C685 1.495 . S
C682 C681 1.392 . S
C682 C683 1.385 . S
C682 C684 1.478 . S
C683 H677 0.930 . S
C683 C679 1.400 . S
C683 C682 1.385 . S
C684 C682 1.478 . S
C684 C686 1.381 . S
C684 C690 1.383 . S
C685 C681 1.495 . S
C685 H691 0.959 . S
C685 H692 0.961 . S
C685 H693 0.960 . S
C686 C684 1.381 . S
C686 C687 1.394 . S
C686 H694 0.930 . S
C687 C686 1.394 . S
C687 C688 1.383 . S
C687 H695 0.929 . S
C688 C687 1.383 . S
C688 C689 1.377 . S
C689 H673 0.930 . S
C689 C688 1.377 . S
C689 C690 1.379 . S
C690 H674 0.931 . S
C690 C684 1.383 . S
C690 C689 1.379 . S
H691 C685 0.959 . S
H692 C685 0.961 . S
H693 C685 0.960 . S
H694 C686 0.930 . S
H695 C687 0.929 . S
H696 C704 0.929 . S
H697 C706 0.930 . S
H698 C708 0.930 . S
H699 C711 0.929 . S
H700 C714 0.930 . S
H701 C716 0.960 . S
H702 C716 0.960 . S
H703 C716 0.960 . S
C704 H696 0.929 . S
C704 C705 1.377 . S
C704 C706 1.384 . S
C705 C704 1.377 . S
C705 C711 1.390 . S
C706 H697 0.930 . S
C706 C704 1.384 . S
C706 C707 1.372 . S
C707 C706 1.372 . S
C707 C708 1.400 . S
C707 C712 1.490 . S
C708 H698 0.930 . S
C708 C707 1.400 . S
C708 C711 1.386 . S
H709 C725 0.930 . S
H710 C726 0.931 . S
C711 H699 0.929 . S
C711 C705 1.390 . S
C711 C708 1.386 . S
C712 C707 1.490 . S
C712 C714 1.395 . S
C712 C715 1.403 . S
H713 C719 0.930 . S
C714 H700 0.930 . S
C714 C712 1.395 . S
C714 C717 1.403 1_556 S
C715 C712 1.403 . S
C715 C716 1.524 . S
C715 C719 1.400 1_556 S
C716 H701 0.960 . S
C716 H702 0.960 . S
C716 H703 0.960 . S
C716 C715 1.524 . S
C717 C714 1.403 1_554 S
C717 C718 1.392 . S
C717 C721 1.495 . S
C718 C717 1.392 . S
C718 C719 1.385 . S
C718 C720 1.478 . S
C719 H713 0.930 . S
C719 C715 1.400 1_554 S
C719 C718 1.385 . S
C720 C718 1.478 . S
C720 C722 1.381 . S
C720 C726 1.383 . S
C721 C717 1.495 . S
C721 H727 0.959 . S
C721 H728 0.961 . S
C721 H729 0.960 . S
C722 C720 1.381 . S
C722 C723 1.394 . S
C722 H730 0.930 . S
C723 C722 1.394 . S
C723 C724 1.383 . S
C723 H731 0.929 . S
C724 C723 1.383 . S
C724 C725 1.377 . S
C725 H709 0.930 . S
C725 C724 1.377 . S
C725 C726 1.379 . S
C726 H710 0.931 . S
C726 C720 1.383 . S
C726 C725 1.379 . S
H727 C721 0.959 . S
H728 C721 0.961 . S
H729 C721 0.960 . S
H730 C722 0.930 . S
H731 C723 0.929 . S
H732 C740 0.929 . S
H733 C742 0.930 . S
H734 C744 0.930 . S
H735 C747 0.929 . S
H736 C750 0.930 . S
H737 C752 0.960 . S
H738 C752 0.960 . S
H739 C752 0.960 . S
C740 H732 0.929 . S
C740 C741 1.377 . S
C740 C742 1.384 . S
C741 C740 1.377 . S
C741 C747 1.390 . S
C742 H733 0.930 . S
C742 C740 1.384 . S
C742 C743 1.372 . S
C743 C742 1.372 . S
C743 C744 1.400 . S
C743 C748 1.490 . S
C744 H734 0.930 . S
C744 C743 1.400 . S
C744 C747 1.386 . S
H745 C761 0.930 . S
H746 C762 0.931 . S
C747 H735 0.929 . S
C747 C741 1.390 . S
C747 C744 1.386 . S
C748 C743 1.490 . S
C748 C750 1.395 . S
C748 C751 1.403 . S
H749 C755 0.930 . S
C750 H736 0.930 . S
C750 C748 1.395 . S
C750 C753 1.403 . S
C751 C748 1.403 . S
C751 C752 1.524 . S
C751 C755 1.400 . S
C752 H737 0.960 . S
C752 H738 0.960 . S
C752 H739 0.960 . S
C752 C751 1.524 . S
C753 C750 1.403 . S
C753 C754 1.392 . S
C753 C757 1.495 . S
C754 C753 1.392 . S
C754 C755 1.385 . S
C754 C756 1.478 . S
C755 H749 0.930 . S
C755 C751 1.400 . S
C755 C754 1.385 . S
C756 C754 1.478 . S
C756 C758 1.381 . S
C756 C762 1.383 . S
C757 C753 1.495 . S
C757 H763 0.959 . S
C757 H764 0.961 . S
C757 H765 0.960 . S
C758 C756 1.381 . S
C758 C759 1.394 . S
C758 H766 0.930 . S
C759 C758 1.394 . S
C759 C760 1.383 . S
C759 H767 0.929 . S
C760 C759 1.383 . S
C760 C761 1.377 . S
C761 H745 0.930 . S
C761 C760 1.377 . S
C761 C762 1.379 . S
C762 H746 0.931 . S
C762 C756 1.383 . S
C762 C761 1.379 . S
H763 C757 0.959 . S
H764 C757 0.961 . S
H765 C757 0.960 . S
H766 C758 0.930 . S
H767 C759 0.929 . S
H768 C776 0.929 . S
H769 C778 0.930 . S
H770 C780 0.930 . S
H771 C783 0.929 . S
H772 C786 0.930 . S
H773 C788 0.960 . S
H774 C788 0.960 . S
H775 C788 0.960 . S
C776 H768 0.929 . S
C776 C777 1.377 . S
C776 C778 1.384 . S
C777 C776 1.377 . S
C777 C783 1.390 . S
C778 H769 0.930 . S
C778 C776 1.384 . S
C778 C779 1.372 . S
C779 C778 1.372 . S
C779 C780 1.400 . S
C779 C784 1.490 . S
C780 H770 0.930 . S
C780 C779 1.400 . S
C780 C783 1.386 . S
H781 C797 0.930 . S
H782 C798 0.931 . S
C783 H771 0.929 . S
C783 C777 1.390 . S
C783 C780 1.386 . S
C784 C779 1.490 . S
C784 C786 1.395 . S
C784 C787 1.403 . S
H785 C791 0.930 . S
C786 H772 0.930 . S
C786 C784 1.395 . S
C786 C789 1.403 . S
C787 C784 1.403 . S
C787 C788 1.524 . S
C787 C791 1.400 . S
C788 H773 0.960 . S
C788 H774 0.960 . S
C788 H775 0.960 . S
C788 C787 1.524 . S
C789 C786 1.403 . S
C789 C790 1.392 . S
C789 C793 1.495 . S
C790 C789 1.392 . S
C790 C791 1.385 . S
C790 C792 1.478 . S
C791 H785 0.930 . S
C791 C787 1.400 . S
C791 C790 1.385 . S
C792 C790 1.478 . S
C792 C794 1.381 . S
C792 C798 1.383 . S
C793 C789 1.495 . S
C793 H799 0.959 . S
C793 H800 0.961 . S
C793 H801 0.960 . S
C794 C792 1.381 . S
C794 C795 1.394 . S
C794 H802 0.930 . S
C795 C794 1.394 . S
C795 C796 1.383 . S
C795 H803 0.929 . S
C796 C795 1.383 . S
C796 C797 1.377 . S
C797 H781 0.930 . S
C797 C796 1.377 . S
C797 C798 1.379 . S
C798 H782 0.931 . S
C798 C792 1.383 . S
C798 C797 1.379 . S
H799 C793 0.959 . S
H800 C793 0.961 . S
H801 C793 0.960 . S
H802 C794 0.930 . S
H803 C795 0.929 . S
H804 C812 0.929 . S
H805 C814 0.930 . S
H806 C816 0.930 . S
H807 C819 0.929 . S
H808 C822 0.930 . S
H809 C824 0.960 . S
H810 C824 0.960 1_556 S
H811 C824 0.960 1_556 S
C812 H804 0.929 . S
C812 C813 1.377 . S
C812 C814 1.384 . S
C813 C812 1.377 . S
C813 C819 1.390 . S
C814 H805 0.930 . S
C814 C812 1.384 . S
C814 C815 1.372 . S
C815 C814 1.372 . S
C815 C816 1.400 . S
C815 C820 1.490 . S
C816 H806 0.930 . S
C816 C815 1.400 . S
C816 C819 1.386 . S
H817 C833 0.930 . S
H818 C834 0.931 . S
C819 H807 0.929 . S
C819 C813 1.390 . S
C819 C816 1.386 . S
C820 C815 1.490 . S
C820 C822 1.395 . S
C820 C823 1.380 1_556 S
H821 C827 0.930 . S
C822 H808 0.930 . S
C822 C820 1.395 . S
C822 C825 1.403 . S
C823 C820 1.380 1_554 S
C823 C824 1.527 . S
C823 C827 1.420 . S
C824 H809 0.960 . S
C824 H810 0.960 1_554 S
C824 H811 0.960 1_554 S
C824 C823 1.527 . S
C825 C822 1.403 . S
C825 C826 1.392 1_556 S
C825 C829 1.495 . S
C826 C825 1.392 1_554 S
C826 C827 1.385 . S
C826 C828 1.478 . S
C827 H821 0.930 . S
C827 C823 1.420 . S
C827 C826 1.385 . S
C828 C826 1.478 . S
C828 C830 1.381 . S
C828 C834 1.383 . S
C829 C825 1.495 . S
C829 H835 0.959 . S
C829 H836 0.961 1_556 S
C829 H837 0.960 . S
C830 C828 1.381 . S
C830 C831 1.394 . S
C830 H838 0.930 . S
C831 C830 1.394 . S
C831 C832 1.383 . S
C831 H839 0.929 . S
C832 C831 1.383 . S
C832 C833 1.377 . S
C833 H817 0.930 . S
C833 C832 1.377 . S
C833 C834 1.379 . S
C834 H818 0.931 . S
C834 C828 1.383 . S
C834 C833 1.379 . S
H835 C829 0.959 . S
H836 C829 0.961 1_554 S
H837 C829 0.960 . S
H838 C830 0.930 . S
H839 C831 0.929 . S
H840 C848 0.929 . S
H841 C850 0.930 . S
H842 C852 0.930 . S
H843 C855 0.929 . S
H844 C858 0.930 . S
H845 C860 0.960 . S
H846 C860 0.960 . S
H847 C860 0.960 . S
C848 H840 0.929 . S
C848 C849 1.377 . S
C848 C850 1.384 . S
C849 C848 1.377 . S
C849 C855 1.390 . S
C850 H841 0.930 . S
C850 C848 1.384 . S
C850 C851 1.372 . S
C851 C850 1.372 . S
C851 C852 1.400 . S
C851 C856 1.490 . S
C852 H842 0.930 . S
C852 C851 1.400 . S
C852 C855 1.386 . S
H853 C869 0.930 . S
H854 C870 0.931 . S
C855 H843 0.929 . S
C855 C849 1.390 . S
C855 C852 1.386 . S
C856 C851 1.490 . S
C856 C858 1.395 . S
C856 C859 1.403 . S
H857 C863 0.930 . S
C858 H844 0.930 . S
C858 C856 1.395 . S
C858 C861 1.403 . S
C859 C856 1.403 . S
C859 C860 1.524 . S
C859 C863 1.400 . S
C860 H845 0.960 . S
C860 H846 0.960 . S
C860 H847 0.960 . S
C860 C859 1.524 . S
C861 C858 1.403 . S
C861 C862 1.392 . S
C861 C865 1.495 . S
C862 C861 1.392 . S
C862 C863 1.385 . S
C862 C864 1.478 . S
C863 H857 0.930 . S
C863 C859 1.400 . S
C863 C862 1.385 . S
C864 C862 1.478 . S
C864 C866 1.381 . S
C864 C870 1.383 . S
C865 C861 1.495 . S
C865 H871 0.959 . S
C865 H872 0.961 . S
C865 H873 0.960 . S
C866 C864 1.381 . S
C866 C867 1.394 . S
C866 H874 0.930 . S
C867 C866 1.394 . S
C867 C868 1.383 . S
C867 H875 0.929 . S
C868 C867 1.383 . S
C868 C869 1.377 . S
C869 H853 0.930 . S
C869 C868 1.377 . S
C869 C870 1.379 . S
C870 H854 0.931 . S
C870 C864 1.383 . S
C870 C869 1.379 . S
H871 C865 0.959 . S
H872 C865 0.961 . S
H873 C865 0.960 . S
H874 C866 0.930 . S
H875 C867 0.929 . S
H876 C884 0.929 . S
H877 C886 0.930 . S
H878 C888 0.930 . S
H879 C891 0.929 . S
H880 C894 0.930 . S
H881 C896 0.960 . S
H882 C896 0.960 . S
H883 C896 0.960 . S
C884 H876 0.929 . S
C884 C885 1.377 . S
C884 C886 1.384 . S
C885 C884 1.377 . S
C885 C891 1.390 . S
C886 H877 0.930 . S
C886 C884 1.384 . S
C886 C887 1.372 . S
C887 C886 1.372 . S
C887 C888 1.400 . S
C887 C892 1.490 . S
C888 H878 0.930 . S
C888 C887 1.400 . S
C888 C891 1.386 . S
H889 C905 0.930 . S
H890 C906 0.931 . S
C891 H879 0.929 . S
C891 C885 1.390 . S
C891 C888 1.386 . S
C892 C887 1.490 . S
C892 C894 1.395 . S
C892 C895 1.403 . S
H893 C899 0.930 . S
C894 H880 0.930 . S
C894 C892 1.395 . S
C894 C897 1.403 . S
C895 C892 1.403 . S
C895 C896 1.524 . S
C895 C899 1.400 . S
C896 H881 0.960 . S
C896 H882 0.960 . S
C896 H883 0.960 . S
C896 C895 1.524 . S
C897 C894 1.403 . S
C897 C898 1.392 . S
C897 C901 1.495 . S
C898 C897 1.392 . S
C898 C899 1.385 . S
C898 C900 1.478 . S
C899 H893 0.930 . S
C899 C895 1.400 . S
C899 C898 1.385 . S
C900 C898 1.478 . S
C900 C902 1.381 . S
C900 C906 1.383 . S
C901 C897 1.495 . S
C901 H907 0.959 . S
C901 H908 0.961 . S
C901 H909 0.960 . S
C902 C900 1.381 . S
C902 C903 1.394 . S
C902 H910 0.930 . S
C903 C902 1.394 . S
C903 C904 1.383 . S
C903 H911 0.929 . S
C904 C903 1.383 . S
C904 C905 1.377 . S
C905 H889 0.930 . S
C905 C904 1.377 . S
C905 C906 1.379 . S
C906 H890 0.931 . S
C906 C900 1.383 . S
C906 C905 1.379 . S
H907 C901 0.959 . S
H908 C901 0.961 . S
H909 C901 0.960 . S
H910 C902 0.930 . S
H911 C903 0.929 . S
H912 C920 0.929 . S
H913 C922 0.930 . S
H914 C924 0.930 . S
H915 C927 0.929 . S
H916 C930 0.933 . S
H917 C932 0.960 . S
H918 C932 0.960 . S
H919 C932 0.960 . S
C920 H912 0.929 . S
C920 C921 1.377 . S
C920 C922 1.384 . S
C921 C920 1.377 . S
C921 C927 1.390 . S
C922 H913 0.930 . S
C922 C920 1.384 . S
C922 C923 1.372 . S
C923 C922 1.372 . S
C923 C924 1.400 . S
C923 C928 1.490 . S
C924 H914 0.930 . S
C924 C923 1.400 . S
C924 C927 1.386 . S
H925 C941 0.930 . S
H926 C942 0.931 . S
C927 H915 0.929 . S
C927 C921 1.390 . S
C927 C924 1.386 . S
C928 C923 1.490 . S
C928 C930 1.415 . S
C928 C931 1.403 1_565 S
H929 C935 0.930 . S
C930 H916 0.933 . S
C930 C928 1.415 . S
C930 C933 1.381 1_556 S
C931 C928 1.403 1_545 S
C931 C932 1.524 . S
C931 C935 1.400 1_556 S
C932 H917 0.960 . S
C932 H918 0.960 . S
C932 H919 0.960 . S
C932 C931 1.524 . S
C933 C930 1.381 1_554 S
C933 C934 1.392 1_565 S
C933 C937 1.495 . S
C934 C933 1.392 1_545 S
C934 C935 1.385 . S
C934 C936 1.478 . S
C935 H929 0.930 . S
C935 C931 1.400 1_554 S
C935 C934 1.385 . S
C936 C934 1.478 . S
C936 C938 1.381 . S
C936 C942 1.383 . S
C937 C933 1.495 . S
C937 H943 0.959 . S
C937 H944 0.961 . S
C937 H945 0.960 . S
C938 C936 1.381 . S
C938 C939 1.394 . S
C938 H946 0.930 . S
C939 C938 1.394 . S
C939 C940 1.383 . S
C939 H947 0.929 . S
C940 C939 1.383 . S
C940 C941 1.377 . S
C941 H925 0.930 . S
C941 C940 1.377 . S
C941 C942 1.379 . S
C942 H926 0.931 . S
C942 C936 1.383 . S
C942 C941 1.379 . S
H943 C937 0.959 . S
H944 C937 0.961 . S
H945 C937 0.960 . S
H946 C938 0.930 . S
H947 C939 0.929 . S
H948 C956 0.929 . S
H949 C958 0.930 . S
H950 C960 0.930 . S
H951 C963 0.929 . S
H952 C966 0.930 . S
H953 C968 0.960 . S
H954 C968 0.960 . S
H955 C968 0.960 . S
C956 H948 0.929 . S
C956 C957 1.377 . S
C956 C958 1.384 . S
C957 C956 1.377 . S
C957 C963 1.390 . S
C958 H949 0.930 . S
C958 C956 1.384 . S
C958 C959 1.372 . S
C959 C958 1.372 . S
C959 C960 1.400 . S
C959 C964 1.490 . S
C960 H950 0.930 . S
C960 C959 1.400 . S
C960 C963 1.386 . S
H961 C977 0.930 . S
H962 C978 0.931 . S
C963 H951 0.929 . S
C963 C957 1.390 . S
C963 C960 1.386 . S
C964 C959 1.490 . S
C964 C966 1.395 . S
C964 C967 1.403 . S
H965 C971 0.930 . S
C966 H952 0.930 . S
C966 C964 1.395 . S
C966 C969 1.403 . S
C967 C964 1.403 . S
C967 C968 1.524 . S
C967 C971 1.400 . S
C968 H953 0.960 . S
C968 H954 0.960 . S
C968 H955 0.960 . S
C968 C967 1.524 . S
C969 C966 1.403 . S
C969 C970 1.392 . S
C969 C973 1.495 . S
C970 C969 1.392 . S
C970 C971 1.385 . S
C970 C972 1.478 . S
C971 H965 0.930 . S
C971 C967 1.400 . S
C971 C970 1.385 . S
C972 C970 1.478 . S
C972 C974 1.381 . S
C972 C978 1.383 . S
C973 C969 1.495 . S
C973 H979 0.959 . S
C973 H980 0.961 . S
C973 H981 0.960 . S
C974 C972 1.381 . S
C974 C975 1.394 . S
C974 H982 0.930 . S
C975 C974 1.394 . S
C975 C976 1.383 . S
C975 H983 0.929 . S
C976 C975 1.383 . S
C976 C977 1.377 . S
C977 H961 0.930 . S
C977 C976 1.377 . S
C977 C978 1.379 . S
C978 H962 0.931 . S
C978 C972 1.383 . S
C978 C977 1.379 . S
H979 C973 0.959 . S
H980 C973 0.961 . S
H981 C973 0.960 . S
H982 C974 0.930 . S
H983 C975 0.929 . S
H984 C992 0.929 . S
H985 C994 0.930 . S
H986 C996 0.930 . S
H987 C999 0.929 . S
H988 C1002 0.930 . S
H989 C1004 0.960 . S
H990 C1004 0.960 . S
H991 C1004 0.960 . S
C992 H984 0.929 . S
C992 C993 1.377 . S
C992 C994 1.384 . S
C993 C992 1.377 . S
C993 C999 1.390 . S
C994 H985 0.930 . S
C994 C992 1.384 . S
C994 C995 1.372 . S
C995 C994 1.372 . S
C995 C996 1.400 . S
C995 C1000 1.490 . S
C996 H986 0.930 . S
C996 C995 1.400 . S
C996 C999 1.386 . S
H997 C1013 0.930 . S
H998 C1014 0.931 . S
C999 H987 0.929 . S
C999 C993 1.390 . S
C999 C996 1.386 . S
C1000 C995 1.490 . S
C1000 C1002 1.395 1_455 S
C1000 C1003 1.403 . S
H1001 C1007 0.930 . S
C1002 H988 0.930 . S
C1002 C1000 1.395 1_655 S
C1002 C1005 1.403 . S
C1003 C1000 1.403 . S
C1003 C1004 1.524 . S
C1003 C1007 1.400 . S
C1004 H989 0.960 . S
C1004 H990 0.960 . S
C1004 H991 0.960 . S
C1004 C1003 1.524 . S
C1005 C1002 1.403 . S
C1005 C1006 1.392 . S
C1005 C1009 1.495 . S
C1006 C1005 1.392 . S
C1006 C1007 1.385 1_655 S
C1006 C1008 1.478 . S
C1007 H1001 0.930 . S
C1007 C1003 1.400 . S
C1007 C1006 1.385 1_455 S
C1008 C1006 1.478 . S
C1008 C1010 1.381 . S
C1008 C1014 1.383 . S
C1009 C1005 1.495 . S
C1009 H1015 0.959 . S
C1009 H1016 0.961 . S
C1009 H1017 0.960 . S
C1010 C1008 1.381 . S
C1010 C1011 1.394 . S
C1010 H1018 0.930 . S
C1011 C1010 1.394 . S
C1011 C1012 1.383 . S
C1011 H1019 0.929 . S
C1012 C1011 1.383 . S
C1012 C1013 1.377 . S
C1013 H997 0.930 . S
C1013 C1012 1.377 . S
C1013 C1014 1.379 . S
C1014 H998 0.931 . S
C1014 C1008 1.383 . S
C1014 C1013 1.379 . S
H1015 C1009 0.959 . S
H1016 C1009 0.961 . S
H1017 C1009 0.960 . S
H1018 C1010 0.930 . S
H1019 C1011 0.929 . S
H1020 C1028 0.929 . S
H1021 C1030 0.930 . S
H1022 C1032 0.930 . S
H1023 C1035 0.929 . S
H1024 C1038 0.930 . S
H1025 C1040 0.960 . S
H1026 C1040 0.960 1_554 S
H1027 C1040 0.960 1_554 S
C1028 H1020 0.929 . S
C1028 C1029 1.377 . S
C1028 C1030 1.384 . S
C1029 C1028 1.377 . S
C1029 C1035 1.390 . S
C1030 H1021 0.930 . S
C1030 C1028 1.384 . S
C1030 C1031 1.372 . S
C1031 C1030 1.372 . S
C1031 C1032 1.400 . S
C1031 C1036 1.490 . S
C1032 H1022 0.930 . S
C1032 C1031 1.400 . S
C1032 C1035 1.386 . S
H1033 C1049 0.930 . S
H1034 C1050 0.931 . S
C1035 H1023 0.929 . S
C1035 C1029 1.390 . S
C1035 C1032 1.386 . S
C1036 C1031 1.490 . S
C1036 C1038 1.395 1_565 S
C1036 C1039 1.405 . S
H1037 C1043 0.930 . S
C1038 H1024 0.930 . S
C1038 C1036 1.395 1_545 S
C1038 C1041 1.403 . S
C1039 C1036 1.405 . S
C1039 C1040 1.523 1_554 S
C1039 C1043 1.398 1_554 S
C1040 H1025 0.960 . S
C1040 H1026 0.960 1_556 S
C1040 H1027 0.960 1_556 S
C1040 C1039 1.523 1_556 S
C1041 C1038 1.403 . S
C1041 C1042 1.392 1_554 S
C1041 C1045 1.495 . S
C1042 C1041 1.392 1_556 S
C1042 C1043 1.385 1_545 S
C1042 C1044 1.478 . S
C1043 H1037 0.930 . S
C1043 C1039 1.398 1_556 S
C1043 C1042 1.385 1_565 S
C1044 C1042 1.478 . S
C1044 C1046 1.381 . S
C1044 C1050 1.383 . S
C1045 C1041 1.495 . S
C1045 H1051 0.959 . S
C1045 H1052 0.961 1_554 S
C1045 H1053 0.960 1_554 S
C1046 C1044 1.381 . S
C1046 C1047 1.394 . S
C1046 H1054 0.930 . S
C1047 C1046 1.394 . S
C1047 C1048 1.383 . S
C1047 H1055 0.929 . S
C1048 C1047 1.383 . S
C1048 C1049 1.377 . S
C1049 H1033 0.930 . S
C1049 C1048 1.377 . S
C1049 C1050 1.379 . S
C1050 H1034 0.931 . S
C1050 C1044 1.383 . S
C1050 C1049 1.379 . S
H1051 C1045 0.959 . S
H1052 C1045 0.961 1_556 S
H1053 C1045 0.960 1_556 S
H1054 C1046 0.930 . S
H1055 C1047 0.929 . S
H1056 C1064 0.929 . S
H1057 C1066 0.930 . S
H1058 C1068 0.930 . S
H1059 C1071 0.929 . S
H1060 C1074 0.930 . S
H1061 C1076 0.960 . S
H1062 C1076 0.960 . S
H1063 C1076 0.960 . S
C1064 H1056 0.929 . S
C1064 C1065 1.377 . S
C1064 C1066 1.384 . S
C1065 C1064 1.377 . S
C1065 C1071 1.390 . S
C1066 H1057 0.930 . S
C1066 C1064 1.384 . S
C1066 C1067 1.372 . S
C1067 C1066 1.372 . S
C1067 C1068 1.400 . S
C1067 C1072 1.490 . S
C1068 H1058 0.930 . S
C1068 C1067 1.400 . S
C1068 C1071 1.386 . S
H1069 C1085 0.930 . S
H1070 C1086 0.931 . S
C1071 H1059 0.929 . S
C1071 C1065 1.390 . S
C1071 C1068 1.386 . S
C1072 C1067 1.490 . S
C1072 C1074 1.395 . S
C1072 C1075 1.403 . S
H1073 C1079 0.930 . S
C1074 H1060 0.930 . S
C1074 C1072 1.395 . S
C1074 C1077 1.403 . S
C1075 C1072 1.403 . S
C1075 C1076 1.524 . S
C1075 C1079 1.400 . S
C1076 H1061 0.960 . S
C1076 H1062 0.960 . S
C1076 H1063 0.960 . S
C1076 C1075 1.524 . S
C1077 C1074 1.403 . S
C1077 C1078 1.392 . S
C1077 C1081 1.495 . S
C1078 C1077 1.392 . S
C1078 C1079 1.385 . S
C1078 C1080 1.478 . S
C1079 H1073 0.930 . S
C1079 C1075 1.400 . S
C1079 C1078 1.385 . S
C1080 C1078 1.478 . S
C1080 C1082 1.381 . S
C1080 C1086 1.383 . S
C1081 C1077 1.495 . S
C1081 H1087 0.959 . S
C1081 H1088 0.961 . S
C1081 H1089 0.960 . S
C1082 C1080 1.381 . S
C1082 C1083 1.394 . S
C1082 H1090 0.930 . S
C1083 C1082 1.394 . S
C1083 C1084 1.383 . S
C1083 H1091 0.929 . S
C1084 C1083 1.383 . S
C1084 C1085 1.377 . S
C1085 H1069 0.930 . S
C1085 C1084 1.377 . S
C1085 C1086 1.379 . S
C1086 H1070 0.931 . S
C1086 C1080 1.383 . S
C1086 C1085 1.379 . S
H1087 C1081 0.959 . S
H1088 C1081 0.961 . S
H1089 C1081 0.960 . S
H1090 C1082 0.930 . S
H1091 C1083 0.929 . S
H1092 C1100 0.929 . S
H1093 C1102 0.930 . S
H1094 C1104 0.930 . S
H1095 C1107 0.929 . S
H1096 C1110 0.930 . S
H1097 C1112 0.960 . S
H1098 C1112 0.960 . S
H1099 C1112 0.960 . S
C1100 H1092 0.929 . S
C1100 C1101 1.377 . S
C1100 C1102 1.384 . S
C1101 C1100 1.377 . S
C1101 C1107 1.390 . S
C1102 H1093 0.930 . S
C1102 C1100 1.384 . S
C1102 C1103 1.372 . S
C1103 C1102 1.372 . S
C1103 C1104 1.400 . S
C1103 C1108 1.490 . S
C1104 H1094 0.930 . S
C1104 C1103 1.400 . S
C1104 C1107 1.386 . S
H1105 C1121 0.930 . S
H1106 C1122 0.931 . S
C1107 H1095 0.929 . S
C1107 C1101 1.390 . S
C1107 C1104 1.386 . S
C1108 C1103 1.490 . S
C1108 C1110 1.395 . S
C1108 C1111 1.403 1_455 S
H1109 C1115 0.930 . S
C1110 H1096 0.930 . S
C1110 C1108 1.395 . S
C1110 C1113 1.403 . S
C1111 C1108 1.403 1_655 S
C1111 C1112 1.524 . S
C1111 C1115 1.400 . S
C1112 H1097 0.960 . S
C1112 H1098 0.960 . S
C1112 H1099 0.960 . S
C1112 C1111 1.524 . S
C1113 C1110 1.403 . S
C1113 C1114 1.392 1_455 S
C1113 C1117 1.495 . S
C1114 C1113 1.392 1_655 S
C1114 C1115 1.385 . S
C1114 C1116 1.478 . S
C1115 H1109 0.930 . S
C1115 C1111 1.400 . S
C1115 C1114 1.385 . S
C1116 C1114 1.478 . S
C1116 C1118 1.381 . S
C1116 C1122 1.383 . S
C1117 C1113 1.495 . S
C1117 H1123 0.959 . S
C1117 H1124 0.961 . S
C1117 H1125 0.960 . S
C1118 C1116 1.381 . S
C1118 C1119 1.394 . S
C1118 H1126 0.930 . S
C1119 C1118 1.394 . S
C1119 C1120 1.383 . S
C1119 H1127 0.929 . S
C1120 C1119 1.383 . S
C1120 C1121 1.377 . S
C1121 H1105 0.930 . S
C1121 C1120 1.377 . S
C1121 C1122 1.379 . S
C1122 H1106 0.931 . S
C1122 C1116 1.383 . S
C1122 C1121 1.379 . S
H1123 C1117 0.959 . S
H1124 C1117 0.961 . S
H1125 C1117 0.960 . S
H1126 C1118 0.930 . S
H1127 C1119 0.929 . S
H1128 C1136 0.929 . S
H1129 C1138 0.930 . S
H1130 C1140 0.930 . S
H1131 C1143 0.929 . S
H1132 C1146 0.930 . S
H1133 C1148 0.960 . S
H1134 C1148 0.960 . S
H1135 C1148 0.960 . S
C1136 H1128 0.929 . S
C1136 C1137 1.377 . S
C1136 C1138 1.384 . S
C1137 C1136 1.377 . S
C1137 C1143 1.390 . S
C1138 H1129 0.930 . S
C1138 C1136 1.384 . S
C1138 C1139 1.372 . S
C1139 C1138 1.372 . S
C1139 C1140 1.400 . S
C1139 C1144 1.490 . S
C1140 H1130 0.930 . S
C1140 C1139 1.400 . S
C1140 C1143 1.386 . S
H1141 C1157 0.930 . S
H1142 C1158 0.931 . S
C1143 H1131 0.929 . S
C1143 C1137 1.390 . S
C1143 C1140 1.386 . S
C1144 C1139 1.490 . S
C1144 C1146 1.395 1_545 S
C1144 C1147 1.403 . S
H1145 C1151 0.930 . S
C1146 H1132 0.930 . S
C1146 C1144 1.395 1_565 S
C1146 C1149 1.403 . S
C1147 C1144 1.403 . S
C1147 C1148 1.524 . S
C1147 C1151 1.400 1_545 S
C1148 H1133 0.960 . S
C1148 H1134 0.960 . S
C1148 H1135 0.960 . S
C1148 C1147 1.524 . S
C1149 C1146 1.403 . S
C1149 C1150 1.392 . S
C1149 C1153 1.495 . S
C1150 C1149 1.392 . S
C1150 C1151 1.385 . S
C1150 C1152 1.478 . S
C1151 H1145 0.930 . S
C1151 C1147 1.400 1_565 S
C1151 C1150 1.385 . S
C1152 C1150 1.478 . S
C1152 C1154 1.381 . S
C1152 C1158 1.383 . S
C1153 C1149 1.495 . S
C1153 H1159 0.959 . S
C1153 H1160 0.961 . S
C1153 H1161 0.960 . S
C1154 C1152 1.381 . S
C1154 C1155 1.394 . S
C1154 H1162 0.930 . S
C1155 C1154 1.394 . S
C1155 C1156 1.383 . S
C1155 H1163 0.929 . S
C1156 C1155 1.383 . S
C1156 C1157 1.377 . S
C1157 H1141 0.930 . S
C1157 C1156 1.377 . S
C1157 C1158 1.379 . S
C1158 H1142 0.931 . S
C1158 C1152 1.383 . S
C1158 C1157 1.379 . S
H1159 C1153 0.959 . S
H1160 C1153 0.961 . S
H1161 C1153 0.960 . S
H1162 C1154 0.930 . S
H1163 C1155 0.929 . S
H1164 C1172 0.929 . S
H1165 C1174 0.930 . S
H1166 C1176 0.930 . S
H1167 C1179 0.929 . S
H1168 C1182 0.930 . S
H1169 C1184 0.960 . S
H1170 C1184 0.960 . S
H1171 C1184 0.960 . S
C1172 H1164 0.929 . S
C1172 C1173 1.377 . S
C1172 C1174 1.384 . S
C1173 C1172 1.377 . S
C1173 C1179 1.390 . S
C1174 H1165 0.930 . S
C1174 C1172 1.384 . S
C1174 C1175 1.372 . S
C1175 C1174 1.372 . S
C1175 C1176 1.400 . S
C1175 C1180 1.490 . S
C1176 H1166 0.930 . S
C1176 C1175 1.400 . S
C1176 C1179 1.386 . S
H1177 C1193 0.930 . S
H1178 C1194 0.931 . S
C1179 H1167 0.929 . S
C1179 C1173 1.390 . S
C1179 C1176 1.386 . S
C1180 C1175 1.490 . S
C1180 C1182 1.395 . S
C1180 C1183 1.403 . S
H1181 C1187 0.930 . S
C1182 H1168 0.930 . S
C1182 C1180 1.395 . S
C1182 C1185 1.403 . S
C1183 C1180 1.403 . S
C1183 C1184 1.524 . S
C1183 C1187 1.400 . S
C1184 H1169 0.960 . S
C1184 H1170 0.960 . S
C1184 H1171 0.960 . S
C1184 C1183 1.524 . S
C1185 C1182 1.403 . S
C1185 C1186 1.392 . S
C1185 C1189 1.495 . S
C1186 C1185 1.392 . S
C1186 C1187 1.385 . S
C1186 C1188 1.478 . S
C1187 H1181 0.930 . S
C1187 C1183 1.400 . S
C1187 C1186 1.385 . S
C1188 C1186 1.478 . S
C1188 C1190 1.381 . S
C1188 C1194 1.383 . S
C1189 C1185 1.495 . S
C1189 H1195 0.959 . S
C1189 H1196 0.961 . S
C1189 H1197 0.960 . S
C1190 C1188 1.381 . S
C1190 C1191 1.394 . S
C1190 H1198 0.930 . S
C1191 C1190 1.394 . S
C1191 C1192 1.383 . S
C1191 H1199 0.929 . S
C1192 C1191 1.383 . S
C1192 C1193 1.377 . S
C1193 H1177 0.930 . S
C1193 C1192 1.377 . S
C1193 C1194 1.379 . S
C1194 H1178 0.931 . S
C1194 C1188 1.383 . S
C1194 C1193 1.379 . S
H1195 C1189 0.959 . S
H1196 C1189 0.961 . S
H1197 C1189 0.960 . S
H1198 C1190 0.930 . S
H1199 C1191 0.929 . S
H1200 C1208 0.929 . S
H1201 C1210 0.930 . S
H1202 C1212 0.930 . S
H1203 C1215 0.929 . S
H1204 C1218 0.930 . S
H1205 C1220 0.960 . S
H1206 C1220 0.960 . S
H1207 C1220 0.960 . S
C1208 H1200 0.929 . S
C1208 C1209 1.377 . S
C1208 C1210 1.384 . S
C1209 C1208 1.377 . S
C1209 C1215 1.390 . S
C1210 H1201 0.930 . S
C1210 C1208 1.384 . S
C1210 C1211 1.372 . S
C1211 C1210 1.372 . S
C1211 C1212 1.400 . S
C1211 C1216 1.490 . S
C1212 H1202 0.930 . S
C1212 C1211 1.400 . S
C1212 C1215 1.386 . S
H1213 C1229 0.930 . S
H1214 C1230 0.931 . S
C1215 H1203 0.929 . S
C1215 C1209 1.390 . S
C1215 C1212 1.386 . S
C1216 C1211 1.490 . S
C1216 C1218 1.395 1_655 S
C1216 C1219 1.403 . S
H1217 C1223 0.930 . S
C1218 H1204 0.930 . S
C1218 C1216 1.395 1_455 S
C1218 C1221 1.403 . S
C1219 C1216 1.403 . S
C1219 C1220 1.524 . S
C1219 C1223 1.400 . S
C1220 H1205 0.960 . S
C1220 H1206 0.960 . S
C1220 H1207 0.960 . S
C1220 C1219 1.524 . S
C1221 C1218 1.403 . S
C1221 C1222 1.392 . S
C1221 C1225 1.495 . S
C1222 C1221 1.392 . S
C1222 C1223 1.385 1_455 S
C1222 C1224 1.478 . S
C1223 H1217 0.930 . S
C1223 C1219 1.400 . S
C1223 C1222 1.385 1_655 S
C1224 C1222 1.478 . S
C1224 C1226 1.381 . S
C1224 C1230 1.383 . S
C1225 C1221 1.495 . S
C1225 H1231 0.959 . S
C1225 H1232 0.961 . S
C1225 H1233 0.960 . S
C1226 C1224 1.381 . S
C1226 C1227 1.394 . S
C1226 H1234 0.930 . S
C1227 C1226 1.394 . S
C1227 C1228 1.383 . S
C1227 H1235 0.929 . S
C1228 C1227 1.383 . S
C1228 C1229 1.377 . S
C1229 H1213 0.930 . S
C1229 C1228 1.377 . S
C1229 C1230 1.379 . S
C1230 H1214 0.931 . S
C1230 C1224 1.383 . S
C1230 C1229 1.379 . S
H1231 C1225 0.959 . S
H1232 C1225 0.961 . S
H1233 C1225 0.960 . S
H1234 C1226 0.930 . S
H1235 C1227 0.929 . S
H1236 C1244 0.929 . S
H1237 C1246 0.930 . S
H1238 C1248 0.930 . S
H1239 C1251 0.929 . S
H1240 C1254 0.930 . S
H1241 C1256 0.960 . S
H1242 C1256 0.960 . S
H1243 C1256 0.960 1_455 S
C1244 H1236 0.929 . S
C1244 C1245 1.377 . S
C1244 C1246 1.384 . S
C1245 C1244 1.377 . S
C1245 C1251 1.390 . S
C1246 H1237 0.930 . S
C1246 C1244 1.384 . S
C1246 C1247 1.372 . S
C1247 C1246 1.372 . S
C1247 C1248 1.400 . S
C1247 C1252 1.490 . S
C1248 H1238 0.930 . S
C1248 C1247 1.400 . S
C1248 C1251 1.386 . S
H1249 C1265 0.930 . S
H1250 C1266 0.931 . S
C1251 H1239 0.929 . S
C1251 C1245 1.390 . S
C1251 C1248 1.386 . S
C1252 C1247 1.490 . S
C1252 C1254 1.395 . S
C1252 C1255 1.403 1_455 S
H1253 C1259 0.930 . S
C1254 H1240 0.930 . S
C1254 C1252 1.395 . S
C1254 C1257 1.403 . S
C1255 C1252 1.403 1_655 S
C1255 C1256 1.524 . S
C1255 C1259 1.400 . S
C1256 H1241 0.960 . S
C1256 H1242 0.960 . S
C1256 H1243 0.960 1_655 S
C1256 C1255 1.524 . S
C1257 C1254 1.403 . S
C1257 C1258 1.392 1_455 S
C1257 C1261 1.495 . S
C1258 C1257 1.392 1_655 S
C1258 C1259 1.385 . S
C1258 C1260 1.478 . S
C1259 H1253 0.930 . S
C1259 C1255 1.400 . S
C1259 C1258 1.385 . S
C1260 C1258 1.478 . S
C1260 C1262 1.381 . S
C1260 C1266 1.383 . S
C1261 C1257 1.495 . S
C1261 H1267 0.959 . S
C1261 H1268 0.961 . S
C1261 H1269 0.947 1_455 S
C1262 C1260 1.381 . S
C1262 C1263 1.394 . S
C1262 H1270 0.930 . S
C1263 C1262 1.394 . S
C1263 C1264 1.383 . S
C1263 H1271 0.929 . S
C1264 C1263 1.383 . S
C1264 C1265 1.377 . S
C1265 H1249 0.930 . S
C1265 C1264 1.377 . S
C1265 C1266 1.379 . S
C1266 H1250 0.931 . S
C1266 C1260 1.383 . S
C1266 C1265 1.379 . S
H1267 C1261 0.959 . S
H1268 C1261 0.961 . S
H1269 C1261 0.947 1_655 S
H1270 C1262 0.930 . S
H1271 C1263 0.929 . S
H1272 C1280 0.929 . S
H1273 C1282 0.930 . S
H1274 C1284 0.930 . S
H1275 C1287 0.929 . S
H1276 C1290 0.930 . S
H1277 C1292 0.960 . S
H1278 C1292 0.960 . S
H1279 C1292 0.960 . S
C1280 H1272 0.929 . S
C1280 C1281 1.377 . S
C1280 C1282 1.384 . S
C1281 C1280 1.377 . S
C1281 C1287 1.390 . S
C1282 H1273 0.930 . S
C1282 C1280 1.384 . S
C1282 C1283 1.372 . S
C1283 C1282 1.372 . S
C1283 C1284 1.400 . S
C1283 C1288 1.490 . S
C1284 H1274 0.930 . S
C1284 C1283 1.400 . S
C1284 C1287 1.386 . S
H1285 C1301 0.930 . S
H1286 C1302 0.931 . S
C1287 H1275 0.929 . S
C1287 C1281 1.390 . S
C1287 C1284 1.386 . S
C1288 C1283 1.490 . S
C1288 C1290 1.395 1_565 S
C1288 C1291 1.403 . S
H1289 C1295 0.930 . S
C1290 H1276 0.930 . S
C1290 C1288 1.395 1_545 S
C1290 C1293 1.403 . S
C1291 C1288 1.403 . S
C1291 C1292 1.524 . S
C1291 C1295 1.400 . S
C1292 H1277 0.960 . S
C1292 H1278 0.960 . S
C1292 H1279 0.960 . S
C1292 C1291 1.524 . S
C1293 C1290 1.403 . S
C1293 C1294 1.392 . S
C1293 C1297 1.495 . S
C1294 C1293 1.392 . S
C1294 C1295 1.385 1_545 S
C1294 C1296 1.478 . S
C1295 H1289 0.930 . S
C1295 C1291 1.400 . S
C1295 C1294 1.385 1_565 S
C1296 C1294 1.478 . S
C1296 C1298 1.381 . S
C1296 C1302 1.383 . S
C1297 C1293 1.495 . S
C1297 H1303 0.959 . S
C1297 H1304 0.961 . S
C1297 H1305 0.960 . S
C1298 C1296 1.381 . S
C1298 C1299 1.394 . S
C1298 H1306 0.930 . S
C1299 C1298 1.394 . S
C1299 C1300 1.383 . S
C1299 H1307 0.929 . S
C1300 C1299 1.383 . S
C1300 C1301 1.377 . S
C1301 H1285 0.930 . S
C1301 C1300 1.377 . S
C1301 C1302 1.379 . S
C1302 H1286 0.931 . S
C1302 C1296 1.383 . S
C1302 C1301 1.379 . S
H1303 C1297 0.959 . S
H1304 C1297 0.961 . S
H1305 C1297 0.960 . S
H1306 C1298 0.930 . S
H1307 C1299 0.929 . S
H1308 C1316 0.929 . S
H1309 C1318 0.930 . S
H1310 C1320 0.930 . S
H1311 C1323 0.929 . S
H1312 C1326 0.930 . S
H1313 C1328 0.960 . S
H1314 C1328 0.960 . S
H1315 C1328 0.960 . S
C1316 H1308 0.929 . S
C1316 C1317 1.377 . S
C1316 C1318 1.384 . S
C1317 C1316 1.377 . S
C1317 C1323 1.390 . S
C1318 H1309 0.930 . S
C1318 C1316 1.384 . S
C1318 C1319 1.372 . S
C1319 C1318 1.372 . S
C1319 C1320 1.400 . S
C1319 C1324 1.490 . S
C1320 H1310 0.930 . S
C1320 C1319 1.400 . S
C1320 C1323 1.386 . S
H1321 C1337 0.930 . S
H1322 C1338 0.931 . S
C1323 H1311 0.929 . S
C1323 C1317 1.390 . S
C1323 C1320 1.386 . S
C1324 C1319 1.490 . S
C1324 C1326 1.395 . S
C1324 C1327 1.403 . S
H1325 C1331 0.930 . S
C1326 H1312 0.930 . S
C1326 C1324 1.395 . S
C1326 C1329 1.403 . S
C1327 C1324 1.403 . S
C1327 C1328 1.524 . S
C1327 C1331 1.400 . S
C1328 H1313 0.960 . S
C1328 H1314 0.960 . S
C1328 H1315 0.960 . S
C1328 C1327 1.524 . S
C1329 C1326 1.403 . S
C1329 C1330 1.392 . S
C1329 C1333 1.495 . S
C1330 C1329 1.392 . S
C1330 C1331 1.385 . S
C1330 C1332 1.478 . S
C1331 H1325 0.930 . S
C1331 C1327 1.400 . S
C1331 C1330 1.385 . S
C1332 C1330 1.478 . S
C1332 C1334 1.381 . S
C1332 C1338 1.383 . S
C1333 C1329 1.495 . S
C1333 H1339 0.959 . S
C1333 H1340 0.961 . S
C1333 H1341 0.960 . S
C1334 C1332 1.381 . S
C1334 C1335 1.394 . S
C1334 H1342 0.930 . S
C1335 C1334 1.394 . S
C1335 C1336 1.383 . S
C1335 H1343 0.929 . S
C1336 C1335 1.383 . S
C1336 C1337 1.377 . S
C1337 H1321 0.930 . S
C1337 C1336 1.377 . S
C1337 C1338 1.379 . S
C1338 H1322 0.931 . S
C1338 C1332 1.383 . S
C1338 C1337 1.379 . S
H1339 C1333 0.959 . S
H1340 C1333 0.961 . S
H1341 C1333 0.960 . S
H1342 C1334 0.930 . S
H1343 C1335 0.929 . S
H1344 C1352 0.929 . S
H1345 C1354 0.930 . S
H1346 C1356 0.930 . S
H1347 C1359 0.929 . S
H1348 C1362 0.957 . S
H1349 C1364 0.960 . S
H1350 C1364 0.960 . S
H1351 C1364 0.960 . S
C1352 H1344 0.929 . S
C1352 C1353 1.377 . S
C1352 C1354 1.384 . S
C1353 C1352 1.377 . S
C1353 C1359 1.390 . S
C1354 H1345 0.930 . S
C1354 C1352 1.384 . S
C1354 C1355 1.372 . S
C1355 C1354 1.372 . S
C1355 C1356 1.400 . S
C1355 C1360 1.490 . S
C1356 H1346 0.930 . S
C1356 C1355 1.400 . S
C1356 C1359 1.386 . S
H1357 C1373 0.930 . S
H1358 C1374 0.931 . S
C1359 H1347 0.929 . S
C1359 C1353 1.390 . S
C1359 C1356 1.386 . S
C1360 C1355 1.490 . S
C1360 C1362 1.400 . S
C1360 C1363 1.403 . S
H1361 C1367 0.930 . S
C1362 H1348 0.957 . S
C1362 C1360 1.400 . S
C1362 C1365 1.375 1_565 S
C1363 C1360 1.403 . S
C1363 C1364 1.524 . S
C1363 C1367 1.400 1_565 S
C1364 H1349 0.960 . S
C1364 H1350 0.960 . S
C1364 H1351 0.960 . S
C1364 C1363 1.524 . S
C1365 C1362 1.375 1_545 S
C1365 C1366 1.392 . S
C1365 C1369 1.495 . S
C1366 C1365 1.392 . S
C1366 C1367 1.385 . S
C1366 C1368 1.478 . S
C1367 H1361 0.930 . S
C1367 C1363 1.400 1_545 S
C1367 C1366 1.385 . S
C1368 C1366 1.478 . S
C1368 C1370 1.381 . S
C1368 C1374 1.383 . S
C1369 C1365 1.495 . S
C1369 H1375 0.959 . S
C1369 H1376 0.961 . S
C1369 H1377 0.960 . S
C1370 C1368 1.381 . S
C1370 C1371 1.394 . S
C1370 H1378 0.930 . S
C1371 C1370 1.394 . S
C1371 C1372 1.383 . S
C1371 H1379 0.929 . S
C1372 C1371 1.383 . S
C1372 C1373 1.377 . S
C1373 H1357 0.930 . S
C1373 C1372 1.377 . S
C1373 C1374 1.379 . S
C1374 H1358 0.931 . S
C1374 C1368 1.383 . S
C1374 C1373 1.379 . S
H1375 C1369 0.959 . S
H1376 C1369 0.961 . S
H1377 C1369 0.960 . S
H1378 C1370 0.930 . S
H1379 C1371 0.929 . S
H1380 C1388 0.929 . S
H1381 C1390 0.930 . S
H1382 C1392 0.930 . S
H1383 C1395 0.929 . S
H1384 C1398 0.930 . S
H1385 C1400 0.960 . S
H1386 C1400 0.960 . S
H1387 C1400 0.960 . S
C1388 H1380 0.929 . S
C1388 C1389 1.377 . S
C1388 C1390 1.384 . S
C1389 C1388 1.377 . S
C1389 C1395 1.390 . S
C1390 H1381 0.930 . S
C1390 C1388 1.384 . S
C1390 C1391 1.372 . S
C1391 C1390 1.372 . S
C1391 C1392 1.400 . S
C1391 C1396 1.490 . S
C1392 H1382 0.930 . S
C1392 C1391 1.400 . S
C1392 C1395 1.386 . S
H1393 C1409 0.930 . S
H1394 C1410 0.931 . S
C1395 H1383 0.929 . S
C1395 C1389 1.390 . S
C1395 C1392 1.386 . S
C1396 C1391 1.490 . S
C1396 C1398 1.395 . S
C1396 C1399 1.403 . S
H1397 C1403 0.930 . S
C1398 H1384 0.930 . S
C1398 C1396 1.395 . S
C1398 C1401 1.403 . S
C1399 C1396 1.403 . S
C1399 C1400 1.524 . S
C1399 C1403 1.400 . S
C1400 H1385 0.960 . S
C1400 H1386 0.960 . S
C1400 H1387 0.960 . S
C1400 C1399 1.524 . S
C1401 C1398 1.403 . S
C1401 C1402 1.392 . S
C1401 C1405 1.495 . S
C1402 C1401 1.392 . S
C1402 C1403 1.385 . S
C1402 C1404 1.478 . S
C1403 H1397 0.930 . S
C1403 C1399 1.400 . S
C1403 C1402 1.385 . S
C1404 C1402 1.478 . S
C1404 C1406 1.381 . S
C1404 C1410 1.383 . S
C1405 C1401 1.495 . S
C1405 H1411 0.959 . S
C1405 H1412 0.961 . S
C1405 H1413 0.960 . S
C1406 C1404 1.381 . S
C1406 C1407 1.394 . S
C1406 H1414 0.930 . S
C1407 C1406 1.394 . S
C1407 C1408 1.383 . S
C1407 H1415 0.929 . S
C1408 C1407 1.383 . S
C1408 C1409 1.377 . S
C1409 H1393 0.930 . S
C1409 C1408 1.377 . S
C1409 C1410 1.379 . S
C1410 H1394 0.931 . S
C1410 C1404 1.383 . S
C1410 C1409 1.379 . S
H1411 C1405 0.959 . S
H1412 C1405 0.961 . S
H1413 C1405 0.960 . S
H1414 C1406 0.930 . S
H1415 C1407 0.929 . S
H1416 C1424 0.929 . S
H1417 C1426 0.930 . S
H1418 C1428 0.930 . S
H1419 C1431 0.929 . S
H1420 C1434 0.930 . S
H1421 C1436 0.960 . S
H1422 C1436 0.960 . S
H1423 C1436 0.960 . S
C1424 H1416 0.929 . S
C1424 C1425 1.377 . S
C1424 C1426 1.384 . S
C1425 C1424 1.377 . S
C1425 C1431 1.390 . S
C1426 H1417 0.930 . S
C1426 C1424 1.384 . S
C1426 C1427 1.372 . S
C1427 C1426 1.372 . S
C1427 C1428 1.400 . S
C1427 C1432 1.490 . S
C1428 H1418 0.930 . S
C1428 C1427 1.400 . S
C1428 C1431 1.386 . S
H1429 C1445 0.930 . S
H1430 C1446 0.931 . S
C1431 H1419 0.929 . S
C1431 C1425 1.390 . S
C1431 C1428 1.386 . S
C1432 C1427 1.490 . S
C1432 C1434 1.395 . S
C1432 C1435 1.403 . S
H1433 C1439 0.930 . S
C1434 H1420 0.930 . S
C1434 C1432 1.395 . S
C1434 C1437 1.403 1_655 S
C1435 C1432 1.403 . S
C1435 C1436 1.524 . S
C1435 C1439 1.400 1_655 S
C1436 H1421 0.960 . S
C1436 H1422 0.960 . S
C1436 H1423 0.960 . S
C1436 C1435 1.524 . S
C1437 C1434 1.403 1_455 S
C1437 C1438 1.392 . S
C1437 C1441 1.495 . S
C1438 C1437 1.392 . S
C1438 C1439 1.385 . S
C1438 C1440 1.478 . S
C1439 H1433 0.930 . S
C1439 C1435 1.400 1_455 S
C1439 C1438 1.385 . S
C1440 C1438 1.478 . S
C1440 C1442 1.381 . S
C1440 C1446 1.383 . S
C1441 C1437 1.495 . S
C1441 H1447 0.959 . S
C1441 H1448 0.961 . S
C1441 H1449 0.960 . S
C1442 C1440 1.381 . S
C1442 C1443 1.394 . S
C1442 H1450 0.930 . S
C1443 C1442 1.394 . S
C1443 C1444 1.383 . S
C1443 H1451 0.929 . S
C1444 C1443 1.383 . S
C1444 C1445 1.377 . S
C1445 H1429 0.930 . S
C1445 C1444 1.377 . S
C1445 C1446 1.379 . S
C1446 H1430 0.931 . S
C1446 C1440 1.383 . S
C1446 C1445 1.379 . S
H1447 C1441 0.959 . S
H1448 C1441 0.961 . S
H1449 C1441 0.960 . S
H1450 C1442 0.930 . S
H1451 C1443 0.929 . S
H1452 C1460 0.929 . S
H1453 C1462 0.930 . S
H1454 C1464 0.930 . S
H1455 C1467 0.929 . S
H1456 C1470 0.930 . S
H1457 C1472 0.960 . S
H1458 C1472 0.960 1_545 S
H1459 C1472 0.960 . S
C1460 H1452 0.929 . S
C1460 C1461 1.377 . S
C1460 C1462 1.384 . S
C1461 C1460 1.377 . S
C1461 C1467 1.390 . S
C1462 H1453 0.930 . S
C1462 C1460 1.384 . S
C1462 C1463 1.372 . S
C1463 C1462 1.372 . S
C1463 C1464 1.400 . S
C1463 C1468 1.490 . S
C1464 H1454 0.930 . S
C1464 C1463 1.400 . S
C1464 C1467 1.386 . S
H1465 C1481 0.930 . S
H1466 C1482 0.931 . S
C1467 H1455 0.929 . S
C1467 C1461 1.390 . S
C1467 C1464 1.386 . S
C1468 C1463 1.490 . S
C1468 C1470 1.395 . S
C1468 C1471 1.403 1_545 S
H1469 C1475 0.930 . S
C1470 H1456 0.930 . S
C1470 C1468 1.395 . S
C1470 C1473 1.403 . S
C1471 C1468 1.403 1_565 S
C1471 C1472 1.524 . S
C1471 C1475 1.400 . S
C1472 H1457 0.960 . S
C1472 H1458 0.960 1_565 S
C1472 H1459 0.960 . S
C1472 C1471 1.524 . S
C1473 C1470 1.403 . S
C1473 C1474 1.392 1_545 S
C1473 C1477 1.495 . S
C1474 C1473 1.392 1_565 S
C1474 C1475 1.385 . S
C1474 C1476 1.478 . S
C1475 H1469 0.930 . S
C1475 C1471 1.400 . S
C1475 C1474 1.385 . S
C1476 C1474 1.478 . S
C1476 C1478 1.381 . S
C1476 C1482 1.383 . S
C1477 C1473 1.495 . S
C1477 H1483 0.959 . S
C1477 H1484 0.961 . S
C1477 H1485 0.960 . S
C1478 C1476 1.381 . S
C1478 C1479 1.394 . S
C1478 H1486 0.930 . S
C1479 C1478 1.394 . S
C1479 C1480 1.383 . S
C1479 H1487 0.929 . S
C1480 C1479 1.383 . S
C1480 C1481 1.377 . S
C1481 H1465 0.930 . S
C1481 C1480 1.377 . S
C1481 C1482 1.379 . S
C1482 H1466 0.931 . S
C1482 C1476 1.383 . S
C1482 C1481 1.379 . S
H1483 C1477 0.959 . S
H1484 C1477 0.961 . S
H1485 C1477 0.960 . S
H1486 C1478 0.930 . S
H1487 C1479 0.929 . S
H1488 C1496 0.929 . S
H1489 C1498 0.930 . S
H1490 C1500 0.930 . S
H1491 C1503 0.929 . S
H1492 C1506 0.930 . S
H1493 C1508 0.960 . S
H1494 C1508 0.960 . S
H1495 C1508 0.960 . S
C1496 H1488 0.929 . S
C1496 C1497 1.377 . S
C1496 C1498 1.384 . S
C1497 C1496 1.377 . S
C1497 C1503 1.390 . S
C1498 H1489 0.930 . S
C1498 C1496 1.384 . S
C1498 C1499 1.372 . S
C1499 C1498 1.372 . S
C1499 C1500 1.400 . S
C1499 C1504 1.490 . S
C1500 H1490 0.930 . S
C1500 C1499 1.400 . S
C1500 C1503 1.386 . S
H1501 C1517 0.930 . S
H1502 C1518 0.931 . S
C1503 H1491 0.929 . S
C1503 C1497 1.390 . S
C1503 C1500 1.386 . S
C1504 C1499 1.490 . S
C1504 C1506 1.395 . S
C1504 C1507 1.403 . S
H1505 C1511 0.930 . S
C1506 H1492 0.930 . S
C1506 C1504 1.395 . S
C1506 C1509 1.403 . S
C1507 C1504 1.403 . S
C1507 C1508 1.524 . S
C1507 C1511 1.400 . S
C1508 H1493 0.960 . S
C1508 H1494 0.960 . S
C1508 H1495 0.960 . S
C1508 C1507 1.524 . S
C1509 C1506 1.403 . S
C1509 C1510 1.392 . S
C1509 C1513 1.495 . S
C1510 C1509 1.392 . S
C1510 C1511 1.385 . S
C1510 C1512 1.478 . S
C1511 H1505 0.930 . S
C1511 C1507 1.400 . S
C1511 C1510 1.385 . S
C1512 C1510 1.478 . S
C1512 C1514 1.381 . S
C1512 C1518 1.383 . S
C1513 C1509 1.495 . S
C1513 H1519 0.959 . S
C1513 H1520 0.961 . S
C1513 H1521 0.960 . S
C1514 C1512 1.381 . S
C1514 C1515 1.394 . S
C1514 H1522 0.930 . S
C1515 C1514 1.394 . S
C1515 C1516 1.383 . S
C1515 H1523 0.929 . S
C1516 C1515 1.383 . S
C1516 C1517 1.377 . S
C1517 H1501 0.930 . S
C1517 C1516 1.377 . S
C1517 C1518 1.379 . S
C1518 H1502 0.931 . S
C1518 C1512 1.383 . S
C1518 C1517 1.379 . S
H1519 C1513 0.959 . S
H1520 C1513 0.961 . S
H1521 C1513 0.960 . S
H1522 C1514 0.930 . S
H1523 C1515 0.929 . S
H1524 C1532 0.929 . S
H1525 C1534 0.930 . S
H1526 C1536 0.930 . S
H1527 C1539 0.929 . S
H1528 C1542 0.930 . S
H1529 C1544 0.960 . S
H1530 C1544 0.960 . S
H1531 C1544 0.960 . S
C1532 H1524 0.929 . S
C1532 C1533 1.377 . S
C1532 C1534 1.384 . S
C1533 C1532 1.377 . S
C1533 C1539 1.390 . S
C1534 H1525 0.930 . S
C1534 C1532 1.384 . S
C1534 C1535 1.372 . S
C1535 C1534 1.372 . S
C1535 C1536 1.400 . S
C1535 C1540 1.490 . S
C1536 H1526 0.930 . S
C1536 C1535 1.400 . S
C1536 C1539 1.386 . S
H1537 C1553 0.930 . S
H1538 C1554 0.931 . S
C1539 H1527 0.929 . S
C1539 C1533 1.390 . S
C1539 C1536 1.386 . S
C1540 C1535 1.490 . S
C1540 C1542 1.395 1_455 S
C1540 C1543 1.403 . S
H1541 C1547 0.931 1_455 S
C1542 H1528 0.930 . S
C1542 C1540 1.395 1_655 S
C1542 C1545 1.403 . S
C1543 C1540 1.403 . S
C1543 C1544 1.524 . S
C1543 C1547 1.398 1_455 S
C1544 H1529 0.960 . S
C1544 H1530 0.960 . S
C1544 H1531 0.960 . S
C1544 C1543 1.524 . S
C1545 C1542 1.403 . S
C1545 C1546 1.392 . S
C1545 C1549 1.495 . S
C1546 C1545 1.392 . S
C1546 C1547 1.386 . S
C1546 C1548 1.478 . S
C1547 H1541 0.931 1_655 S
C1547 C1543 1.398 1_655 S
C1547 C1546 1.386 . S
C1548 C1546 1.478 . S
C1548 C1550 1.381 . S
C1548 C1554 1.383 . S
C1549 C1545 1.495 . S
C1549 H1555 0.959 . S
C1549 H1556 0.961 . S
C1549 H1557 0.960 . S
C1550 C1548 1.381 . S
C1550 C1551 1.394 . S
C1550 H1558 0.930 . S
C1551 C1550 1.394 . S
C1551 C1552 1.383 . S
C1551 H1559 0.929 . S
C1552 C1551 1.383 . S
C1552 C1553 1.377 . S
C1553 H1537 0.930 . S
C1553 C1552 1.377 . S
C1553 C1554 1.379 . S
C1554 H1538 0.931 . S
C1554 C1548 1.383 . S
C1554 C1553 1.379 . S
H1555 C1549 0.959 . S
H1556 C1549 0.961 . S
H1557 C1549 0.960 . S
H1558 C1550 0.930 . S
H1559 C1551 0.929 . S
H1560 C1568 0.929 . S
H1561 C1570 0.930 . S
H1562 C1572 0.930 . S
H1563 C1575 0.929 . S
H1564 C1578 0.930 . S
H1565 C1580 0.960 . S
H1566 C1580 0.960 . S
H1567 C1580 0.960 . S
C1568 H1560 0.929 . S
C1568 C1569 1.377 . S
C1568 C1570 1.384 . S
C1569 C1568 1.377 . S
C1569 C1575 1.390 . S
C1570 H1561 0.930 . S
C1570 C1568 1.384 . S
C1570 C1571 1.372 . S
C1571 C1570 1.372 . S
C1571 C1572 1.400 . S
C1571 C1576 1.490 . S
C1572 H1562 0.930 . S
C1572 C1571 1.400 . S
C1572 C1575 1.386 . S
H1573 C1589 0.930 . S
H1574 C1590 0.931 . S
C1575 H1563 0.929 . S
C1575 C1569 1.390 . S
C1575 C1572 1.386 . S
C1576 C1571 1.490 . S
C1576 C1578 1.395 . S
C1576 C1579 1.403 . S
H1577 C1583 0.930 . S
C1578 H1564 0.930 . S
C1578 C1576 1.395 . S
C1578 C1581 1.403 . S
C1579 C1576 1.403 . S
C1579 C1580 1.524 . S
C1579 C1583 1.400 . S
C1580 H1565 0.960 . S
C1580 H1566 0.960 . S
C1580 H1567 0.960 . S
C1580 C1579 1.524 . S
C1581 C1578 1.403 . S
C1581 C1582 1.392 . S
C1581 C1585 1.495 . S
C1582 C1581 1.392 . S
C1582 C1583 1.385 . S
C1582 C1584 1.478 . S
C1583 H1577 0.930 . S
C1583 C1579 1.400 . S
C1583 C1582 1.385 . S
C1584 C1582 1.478 . S
C1584 C1586 1.381 . S
C1584 C1590 1.383 . S
C1585 C1581 1.495 . S
C1585 H1591 0.959 . S
C1585 H1592 0.961 . S
C1585 H1593 0.960 . S
C1586 C1584 1.381 . S
C1586 C1587 1.394 . S
C1586 H1594 0.930 . S
C1587 C1586 1.394 . S
C1587 C1588 1.383 . S
C1587 H1595 0.929 . S
C1588 C1587 1.383 . S
C1588 C1589 1.377 . S
C1589 H1573 0.930 . S
C1589 C1588 1.377 . S
C1589 C1590 1.379 . S
C1590 H1574 0.931 . S
C1590 C1584 1.383 . S
C1590 C1589 1.379 . S
H1591 C1585 0.959 . S
H1592 C1585 0.961 . S
H1593 C1585 0.960 . S
H1594 C1586 0.930 . S
H1595 C1587 0.929 . S
H1596 C1604 0.929 . S
H1597 C1606 0.930 . S
H1598 C1608 0.930 . S
H1599 C1611 0.929 . S
H1600 C1614 0.930 . S
H1601 C1616 0.960 . S
H1602 C1616 0.960 . S
H1603 C1616 0.960 . S
C1604 H1596 0.929 . S
C1604 C1605 1.377 . S
C1604 C1606 1.384 . S
C1605 C1604 1.377 . S
C1605 C1611 1.390 . S
C1606 H1597 0.930 . S
C1606 C1604 1.384 . S
C1606 C1607 1.372 . S
C1607 C1606 1.372 . S
C1607 C1608 1.400 . S
C1607 C1612 1.490 . S
C1608 H1598 0.930 . S
C1608 C1607 1.400 . S
C1608 C1611 1.386 . S
H1609 C1625 0.930 . S
H1610 C1626 0.931 . S
C1611 H1599 0.929 . S
C1611 C1605 1.390 . S
C1611 C1608 1.386 . S
C1612 C1607 1.490 . S
C1612 C1614 1.395 . S
C1612 C1615 1.403 . S
H1613 C1619 0.930 . S
C1614 H1600 0.930 . S
C1614 C1612 1.395 . S
C1614 C1617 1.403 . S
C1615 C1612 1.403 . S
C1615 C1616 1.524 . S
C1615 C1619 1.400 . S
C1616 H1601 0.960 . S
C1616 H1602 0.960 . S
C1616 H1603 0.960 . S
C1616 C1615 1.524 . S
C1617 C1614 1.403 . S
C1617 C1618 1.392 . S
C1617 C1621 1.495 . S
C1618 C1617 1.392 . S
C1618 C1619 1.385 . S
C1618 C1620 1.478 . S
C1619 H1613 0.930 . S
C1619 C1615 1.400 . S
C1619 C1618 1.385 . S
C1620 C1618 1.478 . S
C1620 C1622 1.381 . S
C1620 C1626 1.383 . S
C1621 C1617 1.495 . S
C1621 H1627 0.959 . S
C1621 H1628 0.961 . S
C1621 H1629 0.960 . S
C1622 C1620 1.381 . S
C1622 C1623 1.394 . S
C1622 H1630 0.930 . S
C1623 C1622 1.394 . S
C1623 C1624 1.383 . S
C1623 H1631 0.929 . S
C1624 C1623 1.383 . S
C1624 C1625 1.377 . S
C1625 H1609 0.930 . S
C1625 C1624 1.377 . S
C1625 C1626 1.379 . S
C1626 H1610 0.931 . S
C1626 C1620 1.383 . S
C1626 C1625 1.379 . S
H1627 C1621 0.959 . S
H1628 C1621 0.961 . S
H1629 C1621 0.960 . S
H1630 C1622 0.930 . S
H1631 C1623 0.929 . S
H1632 C1640 0.929 . S
H1633 C1642 0.930 . S
H1634 C1644 0.930 . S
H1635 C1647 0.929 . S
H1636 C1650 0.930 . S
H1637 C1652 0.960 . S
H1638 C1652 0.960 . S
H1639 C1652 0.960 . S
C1640 H1632 0.929 . S
C1640 C1641 1.377 . S
C1640 C1642 1.384 . S
C1641 C1640 1.377 . S
C1641 C1647 1.390 . S
C1642 H1633 0.930 . S
C1642 C1640 1.384 . S
C1642 C1643 1.372 . S
C1643 C1642 1.372 . S
C1643 C1644 1.400 . S
C1643 C1648 1.490 . S
C1644 H1634 0.930 . S
C1644 C1643 1.400 . S
C1644 C1647 1.386 . S
H1645 C1661 0.930 . S
H1646 C1662 0.931 . S
C1647 H1635 0.929 . S
C1647 C1641 1.390 . S
C1647 C1644 1.386 . S
C1648 C1643 1.490 . S
C1648 C1650 1.395 . S
C1648 C1651 1.403 . S
H1649 C1655 0.930 . S
C1650 H1636 0.930 . S
C1650 C1648 1.395 . S
C1650 C1653 1.403 . S
C1651 C1648 1.403 . S
C1651 C1652 1.524 . S
C1651 C1655 1.400 . S
C1652 H1637 0.960 . S
C1652 H1638 0.960 . S
C1652 H1639 0.960 . S
C1652 C1651 1.524 . S
C1653 C1650 1.403 . S
C1653 C1654 1.392 . S
C1653 C1657 1.495 . S
C1654 C1653 1.392 . S
C1654 C1655 1.385 . S
C1654 C1656 1.478 . S
C1655 H1649 0.930 . S
C1655 C1651 1.400 . S
C1655 C1654 1.385 . S
C1656 C1654 1.478 . S
C1656 C1658 1.381 . S
C1656 C1662 1.383 . S
C1657 C1653 1.495 . S
C1657 H1663 0.959 . S
C1657 H1664 0.961 . S
C1657 H1665 0.960 . S
C1658 C1656 1.381 . S
C1658 C1659 1.394 . S
C1658 H1666 0.930 . S
C1659 C1658 1.394 . S
C1659 C1660 1.383 . S
C1659 H1667 0.929 . S
C1660 C1659 1.383 . S
C1660 C1661 1.377 . S
C1661 H1645 0.930 . S
C1661 C1660 1.377 . S
C1661 C1662 1.379 . S
C1662 H1646 0.931 . S
C1662 C1656 1.383 . S
C1662 C1661 1.379 . S
H1663 C1657 0.959 . S
H1664 C1657 0.961 . S
H1665 C1657 0.960 . S
H1666 C1658 0.930 . S
H1667 C1659 0.929 . S
H1668 C1676 0.929 . S
H1669 C1678 0.930 . S
H1670 C1680 0.930 . S
H1671 C1683 0.929 . S
H1672 C1686 0.930 . S
H1673 C1688 0.960 . S
H1674 C1688 0.960 . S
H1675 C1688 0.960 . S
C1676 H1668 0.929 . S
C1676 C1677 1.377 . S
C1676 C1678 1.384 . S
C1677 C1676 1.377 . S
C1677 C1683 1.390 . S
C1678 H1669 0.930 . S
C1678 C1676 1.384 . S
C1678 C1679 1.372 . S
C1679 C1678 1.372 . S
C1679 C1680 1.400 . S
C1679 C1684 1.490 . S
C1680 H1670 0.930 . S
C1680 C1679 1.400 . S
C1680 C1683 1.386 . S
H1681 C1697 0.930 . S
H1682 C1698 0.931 . S
C1683 H1671 0.929 . S
C1683 C1677 1.390 . S
C1683 C1680 1.386 . S
C1684 C1679 1.490 . S
C1684 C1686 1.395 . S
C1684 C1687 1.403 . S
H1685 C1691 0.930 . S
C1686 H1672 0.930 . S
C1686 C1684 1.395 . S
C1686 C1689 1.403 . S
C1687 C1684 1.403 . S
C1687 C1688 1.524 . S
C1687 C1691 1.400 . S
C1688 H1673 0.960 . S
C1688 H1674 0.960 . S
C1688 H1675 0.960 . S
C1688 C1687 1.524 . S
C1689 C1686 1.403 . S
C1689 C1690 1.392 . S
C1689 C1693 1.495 . S
C1690 C1689 1.392 . S
C1690 C1691 1.385 . S
C1690 C1692 1.478 . S
C1691 H1685 0.930 . S
C1691 C1687 1.400 . S
C1691 C1690 1.385 . S
C1692 C1690 1.478 . S
C1692 C1694 1.381 . S
C1692 C1698 1.383 . S
C1693 C1689 1.495 . S
C1693 H1699 0.959 . S
C1693 H1700 0.961 . S
C1693 H1701 0.960 . S
C1694 C1692 1.381 . S
C1694 C1695 1.394 . S
C1694 H1702 0.930 . S
C1695 C1694 1.394 . S
C1695 C1696 1.383 . S
C1695 H1703 0.929 . S
C1696 C1695 1.383 . S
C1696 C1697 1.377 . S
C1697 H1681 0.930 . S
C1697 C1696 1.377 . S
C1697 C1698 1.379 . S
C1698 H1682 0.931 . S
C1698 C1692 1.383 . S
C1698 C1697 1.379 . S
H1699 C1693 0.959 . S
H1700 C1693 0.961 . S
H1701 C1693 0.960 . S
H1702 C1694 0.930 . S
H1703 C1695 0.929 . S
H1704 C1712 0.929 . S
H1705 C1714 0.930 . S
H1706 C1716 0.930 . S
H1707 C1719 0.929 . S
H1708 C1722 0.930 . S
H1709 C1724 0.960 . S
H1710 C1724 0.960 . S
H1711 C1724 0.960 . S
C1712 H1704 0.929 . S
C1712 C1713 1.377 . S
C1712 C1714 1.384 . S
C1713 C1712 1.377 . S
C1713 C1719 1.390 . S
C1714 H1705 0.930 . S
C1714 C1712 1.384 . S
C1714 C1715 1.372 . S
C1715 C1714 1.372 . S
C1715 C1716 1.400 . S
C1715 C1720 1.490 . S
C1716 H1706 0.930 . S
C1716 C1715 1.400 . S
C1716 C1719 1.386 . S
H1717 C1733 0.930 . S
H1718 C1734 0.931 . S
C1719 H1707 0.929 . S
C1719 C1713 1.390 . S
C1719 C1716 1.386 . S
C1720 C1715 1.490 . S
C1720 C1722 1.395 . S
C1720 C1723 1.403 . S
H1721 C1727 0.930 . S
C1722 H1708 0.930 . S
C1722 C1720 1.395 . S
C1722 C1725 1.403 . S
C1723 C1720 1.403 . S
C1723 C1724 1.524 . S
C1723 C1727 1.400 . S
C1724 H1709 0.960 . S
C1724 H1710 0.960 . S
C1724 H1711 0.960 . S
C1724 C1723 1.524 . S
C1725 C1722 1.403 . S
C1725 C1726 1.392 . S
C1725 C1729 1.495 . S
C1726 C1725 1.392 . S
C1726 C1727 1.385 . S
C1726 C1728 1.478 . S
C1727 H1721 0.930 . S
C1727 C1723 1.400 . S
C1727 C1726 1.385 . S
C1728 C1726 1.478 . S
C1728 C1730 1.381 . S
C1728 C1734 1.383 . S
C1729 C1725 1.495 . S
C1729 H1735 0.959 . S
C1729 H1736 0.961 . S
C1729 H1737 0.960 . S
C1730 C1728 1.381 . S
C1730 C1731 1.394 . S
C1730 H1738 0.930 . S
C1731 C1730 1.394 . S
C1731 C1732 1.383 . S
C1731 H1739 0.929 . S
C1732 C1731 1.383 . S
C1732 C1733 1.377 . S
C1733 H1717 0.930 . S
C1733 C1732 1.377 . S
C1733 C1734 1.379 . S
C1734 H1718 0.931 . S
C1734 C1728 1.383 . S
C1734 C1733 1.379 . S
H1735 C1729 0.959 . S
H1736 C1729 0.961 . S
H1737 C1729 0.960 . S
H1738 C1730 0.930 . S
H1739 C1731 0.929 . S
H1740 C1748 0.929 . S
H1741 C1750 0.930 . S
H1742 C1752 0.930 . S
H1743 C1755 0.929 . S
H1744 C1758 0.930 . S
H1745 C1760 0.960 . S
H1746 C1760 0.960 . S
H1747 C1760 0.960 . S
C1748 H1740 0.929 . S
C1748 C1749 1.377 . S
C1748 C1750 1.384 . S
C1749 C1748 1.377 . S
C1749 C1755 1.390 . S
C1750 H1741 0.930 . S
C1750 C1748 1.384 . S
C1750 C1751 1.372 . S
C1751 C1750 1.372 . S
C1751 C1752 1.400 . S
C1751 C1756 1.490 . S
C1752 H1742 0.930 . S
C1752 C1751 1.400 . S
C1752 C1755 1.386 . S
H1753 C1769 0.930 . S
H1754 C1770 0.931 . S
C1755 H1743 0.929 . S
C1755 C1749 1.390 . S
C1755 C1752 1.386 . S
C1756 C1751 1.490 . S
C1756 C1758 1.395 . S
C1756 C1759 1.403 . S
H1757 C1763 0.930 . S
C1758 H1744 0.930 . S
C1758 C1756 1.395 . S
C1758 C1761 1.403 . S
C1759 C1756 1.403 . S
C1759 C1760 1.524 . S
C1759 C1763 1.400 . S
C1760 H1745 0.960 . S
C1760 H1746 0.960 . S
C1760 H1747 0.960 . S
C1760 C1759 1.524 . S
C1761 C1758 1.403 . S
C1761 C1762 1.392 . S
C1761 C1765 1.495 . S
C1762 C1761 1.392 . S
C1762 C1763 1.385 . S
C1762 C1764 1.478 . S
C1763 H1757 0.930 . S
C1763 C1759 1.400 . S
C1763 C1762 1.385 . S
C1764 C1762 1.478 . S
C1764 C1766 1.381 . S
C1764 C1770 1.383 . S
C1765 C1761 1.495 . S
C1765 H1771 0.959 . S
C1765 H1772 0.961 . S
C1765 H1773 0.960 . S
C1766 C1764 1.381 . S
C1766 C1767 1.394 . S
C1766 H1774 0.930 . S
C1767 C1766 1.394 . S
C1767 C1768 1.383 . S
C1767 H1775 0.929 . S
C1768 C1767 1.383 . S
C1768 C1769 1.377 . S
C1769 H1753 0.930 . S
C1769 C1768 1.377 . S
C1769 C1770 1.379 . S
C1770 H1754 0.931 . S
C1770 C1764 1.383 . S
C1770 C1769 1.379 . S
H1771 C1765 0.959 . S
H1772 C1765 0.961 . S
H1773 C1765 0.960 . S
H1774 C1766 0.930 . S
H1775 C1767 0.929 . S
C489 C17 0.975 . S
C508 C337 0.975 . S
C525 C57 0.975 . S
C544 C377 0.980 . S
C561 C97 0.969 . S
C580 C417 0.949 . S
C597 C457 0.976 . S
C616 C137 0.990 . S
C633 C177 0.975 . S
C652 C257 0.979 . S
C669 C297 0.968 . S
C688 C217 0.946 . S
C705 C429 1.682 . S
C724 C29 1.702 . S
C741 C469 1.682 . S
C760 C69 1.700 . S
C777 C109 1.680 . S
C796 C269 1.688 . S
C813 C309 1.682 . S
C832 C149 1.699 . S
C849 C349 1.683 . S
C868 C189 1.704 . S
C885 C229 1.682 . S
C904 C389 1.702 . S
C921 C292 4.279 . S
C940 C12 4.271 . S
C957 C332 4.279 . S
C976 C52 4.268 . S
C993 C372 4.278 . S
C1012 C92 4.276 . S
C1029 C132 4.278 . S
C1048 C412 4.277 . S
C1065 C172 4.278 . S
C1084 C452 4.274 . S
C1101 C212 4.278 . S
C1120 C252 4.274 . S
C1137 C2 0.767 . S
C1156 C122 0.715 . S
C1173 C42 0.760 . S
C1192 C162 0.801 . S
C1209 C82 0.759 . S
C1228 C202 0.720 . S
C1245 C362 0.762 . S
C1264 C242 0.792 . S
C1281 C282 0.760 . S
C1300 C402 0.720 . S
C1317 C442 0.746 . S
C1336 C322 0.788 . S
C1353 C288 0.647 . S
C1372 C8 0.661 . S
C1389 C328 0.640 . S
C1408 C48 0.612 . S
C1425 C88 0.642 . S
C1444 C368 0.635 . S
C1461 C408 0.651 . S
C1480 C128 0.642 . S
C1497 C448 0.649 . S
C1516 C168 0.634 . S
C1533 C208 0.652 . S
C1552 C248 0.683 . S
C1569 C31 4.509 . S
C1588 C431 4.510 . S
C1605 C71 4.511 . S
C1624 C471 4.498 1_556 S
C1641 C111 4.509 1_554 S
C1660 C271 4.511 . S
C1677 C151 4.509 . S
C1696 C311 4.509 . S
C1713 C191 4.509 . S
C1732 C351 4.507 1_556 S
C1749 C391 4.511 . S
C1768 C231 4.500 1_554 S
