# Generated by pormake.
# Topology uob, (4)-cn, num edge types: 1
# Building blocks:
#     Node 0, Type 0, BuildingBlock: KOZSID_clean_sbu_0, # of connection points: 4
#     Node 1, Type 0, BuildingBlock: KOZSID_clean_sbu_0, # of connection points: 4
#     Node 2, Type 0, BuildingBlock: KOZSID_clean_sbu_0, # of connection points: 4
#     Node 3, Type 0, BuildingBlock: KOZSID_clean_sbu_0, # of connection points: 4
#     Node 4, Type 0, BuildingBlock: KOZSID_clean_sbu_0, # of connection points: 4
#     Node 5, Type 0, BuildingBlock: KOZSID_clean_sbu_0, # of connection points: 4
#     Node 6, Type 0, BuildingBlock: KOZSID_clean_sbu_0, # of connection points: 4
#     Node 7, Type 0, BuildingBlock: KOZSID_clean_sbu_0, # of connection points: 4
#     Node 8, Type 0, BuildingBlock: KOZSID_clean_sbu_0, # of connection points: 4
#     Node 9, Type 0, BuildingBlock: KOZSID_clean_sbu_0, # of connection points: 4
#     Node 10, Type 0, BuildingBlock: KOZSID_clean_sbu_0, # of connection points: 4
#     Node 11, Type 0, BuildingBlock: KOZSID_clean_sbu_0, # of connection points: 4
#     Node 12, Type 0, BuildingBlock: KOZSID_clean_sbu_0, # of connection points: 4
#     Node 13, Type 0, BuildingBlock: KOZSID_clean_sbu_0, # of connection points: 4
#     Node 14, Type 0, BuildingBlock: KOZSID_clean_sbu_0, # of connection points: 4
#     Node 15, Type 0, BuildingBlock: KOZSID_clean_sbu_0, # of connection points: 4
#     Edge 16, Type (0, 0), BuildingBlock: OJICUG_clean_linker_0, # of connection points: 2
#     Edge 17, Type (0, 0), BuildingBlock: OJICUG_clean_linker_0, # of connection points: 2
#     Edge 18, Type (0, 0), BuildingBlock: OJICUG_clean_linker_0, # of connection points: 2
#     Edge 19, Type (0, 0), BuildingBlock: OJICUG_clean_linker_0, # of connection points: 2
#     Edge 20, Type (0, 0), BuildingBlock: OJICUG_clean_linker_0, # of connection points: 2
#     Edge 21, Type (0, 0), BuildingBlock: OJICUG_clean_linker_0, # of connection points: 2
#     Edge 22, Type (0, 0), BuildingBlock: OJICUG_clean_linker_0, # of connection points: 2
#     Edge 23, Type (0, 0), BuildingBlock: OJICUG_clean_linker_0, # of connection points: 2
#     Edge 24, Type (0, 0), BuildingBlock: OJICUG_clean_linker_0, # of connection points: 2
#     Edge 25, Type (0, 0), BuildingBlock: OJICUG_clean_linker_0, # of connection points: 2
#     Edge 26, Type (0, 0), BuildingBlock: OJICUG_clean_linker_0, # of connection points: 2
#     Edge 27, Type (0, 0), BuildingBlock: OJICUG_clean_linker_0, # of connection points: 2
#     Edge 28, Type (0, 0), BuildingBlock: OJICUG_clean_linker_0, # of connection points: 2
#     Edge 29, Type (0, 0), BuildingBlock: OJICUG_clean_linker_0, # of connection points: 2
#     Edge 30, Type (0, 0), BuildingBlock: OJICUG_clean_linker_0, # of connection points: 2
#     Edge 31, Type (0, 0), BuildingBlock: OJICUG_clean_linker_0, # of connection points: 2
#     Edge 32, Type (0, 0), BuildingBlock: OJICUG_clean_linker_0, # of connection points: 2
#     Edge 33, Type (0, 0), BuildingBlock: OJICUG_clean_linker_0, # of connection points: 2
#     Edge 34, Type (0, 0), BuildingBlock: OJICUG_clean_linker_0, # of connection points: 2
#     Edge 35, Type (0, 0), BuildingBlock: OJICUG_clean_linker_0, # of connection points: 2
#     Edge 36, Type (0, 0), BuildingBlock: OJICUG_clean_linker_0, # of connection points: 2
#     Edge 37, Type (0, 0), BuildingBlock: OJICUG_clean_linker_0, # of connection points: 2
#     Edge 38, Type (0, 0), BuildingBlock: OJICUG_clean_linker_0, # of connection points: 2
#     Edge 39, Type (0, 0), BuildingBlock: OJICUG_clean_linker_0, # of connection points: 2
#     Edge 40, Type (0, 0), BuildingBlock: OJICUG_clean_linker_0, # of connection points: 2
#     Edge 41, Type (0, 0), BuildingBlock: OJICUG_clean_linker_0, # of connection points: 2
#     Edge 42, Type (0, 0), BuildingBlock: OJICUG_clean_linker_0, # of connection points: 2
#     Edge 43, Type (0, 0), BuildingBlock: OJICUG_clean_linker_0, # of connection points: 2
#     Edge 44, Type (0, 0), BuildingBlock: OJICUG_clean_linker_0, # of connection points: 2
#     Edge 45, Type (0, 0), BuildingBlock: OJICUG_clean_linker_0, # of connection points: 2
#     Edge 46, Type (0, 0), BuildingBlock: OJICUG_clean_linker_0, # of connection points: 2
#     Edge 47, Type (0, 0), BuildingBlock: OJICUG_clean_linker_0, # of connection points: 2
# Relax obj value: 0.102
# Max RMSD: 0.287
# Mean RMSD: 0.244
data_MOF--net-uob--node1-KOZSID_clean_sbu_0--edge1-OJICUG_clean_linker_0
_symmetry_space_group_name_H-M    P1
_symmetry_Int_Tables_number       1
_symmetry_cell_setting            triclinic
loop_
_symmetry_equiv_pos_as_xyz
'x, y, z'
_cell_length_a     41.62851
_cell_length_b     55.516289
_cell_length_c     26.534392
_cell_angle_alpha  90.093409
_cell_angle_beta   89.99084
_cell_angle_gamma 89.977904
loop_
_atom_site_label
_atom_site_type_symbol
_atom_site_fract_x
_atom_site_fract_y
_atom_site_fract_z
_atom_type_partial_charge
C0 C 0.21219 0.07898 0.34182 0.0
C1 C 0.24027 0.06557 0.33923 0.0
C2 C 0.23259 0.04446 0.31515 0.0
C3 C 0.20041 0.04626 0.30419 0.0
N4 N 0.1875 0.06722 0.31962 0.0
Co5 Co 0.14258 0.07758 0.30833 0.0
N6 N 0.12802 0.04374 0.30241 0.0
C7 C 0.14694 0.02466 0.29212 0.0
C8 C 0.13031 1.00337 0.28993 0.0
C9 C 0.09892 1.00946 0.2988 0.0
C10 C 0.09812 0.0343 0.30575 0.0
N11 N 0.09792 0.08765 0.29453 0.0
C12 C 0.07032 0.07455 0.2954 0.0
C13 C 0.04461 0.08877 0.28059 0.0
C14 C 0.05687 0.11134 0.26998 0.0
C15 C 0.08943 0.10977 0.27861 0.0
N16 N 0.15852 0.11099 0.31758 0.0
C17 C 0.14319 0.13096 0.30225 0.0
C18 C 0.15851 0.15149 0.31903 0.0
C19 C 0.18486 0.14372 0.34648 0.0
C20 C 0.18436 0.11879 0.34517 0.0
N21 N 0.14934 0.07953 0.23383 0.0
C22 C 0.13768 0.09646 0.13414 0.0
C23 C 0.16278 0.10592 0.16389 0.0
C24 C 0.16864 0.09689 0.21297 0.0
C25 C 0.12104 0.07667 0.15395 0.0
C26 C 0.12725 0.06851 0.203 0.0
N27 N 0.1328 0.0776 0.38107 0.0
C28 C 0.10355 0.09848 0.44603 0.0
C29 C 0.11455 0.08275 0.4828 0.0
C30 C 0.13425 0.06333 0.46726 0.0
C31 C 0.14294 0.06095 0.41564 0.0
C32 C 0.11365 0.09614 0.39698 0.0
H33 H 0.15803 0.04612 0.40385 0.0
H34 H 0.10576 0.11003 0.3722 0.0
H35 H 0.18727 0.10528 0.23525 0.0
H36 H 0.11148 0.05478 0.21712 0.0
C37 C 0.18042 0.02705 0.29084 0.0
C38 C 0.20964 0.10257 0.36641 0.0
C39 C 0.06837 0.04852 0.30778 0.0
C40 C 0.1116 0.12918 0.28225 0.0
H41 H 0.26359 0.07033 0.35431 0.0
H42 H 0.24812 0.02907 0.30933 0.0
H43 H 0.13988 0.9855 0.28347 0.0
H44 H 0.07883 0.9971 0.29846 0.0
H45 H 0.01968 0.0834 0.27784 0.0
H46 H 0.04339 0.12719 0.25931 0.0
H47 H 0.15059 0.16992 0.31431 0.0
H48 H 0.20229 0.15505 0.36525 0.0
H49 H 0.17733 0.12064 0.14996 0.0
H50 H 0.10158 0.06841 0.1331 0.0
H51 H 0.08759 0.11329 0.45513 0.0
H52 H 0.14335 0.05058 0.49456 0.0
C53 C 0.88377 0.6344 0.48099 0.0
C54 C 0.8535 0.63307 0.45925 0.0
C55 C 0.83197 0.63168 0.49822 0.0
C56 C 0.85028 0.63224 0.54127 0.0
N57 N 0.88191 0.63394 0.53174 0.0
Co58 Co 0.9166 0.63583 0.58249 0.0
N59 N 0.88935 0.61947 0.63272 0.0
C60 C 0.85701 0.61801 0.63149 0.0
C61 C 0.84455 0.60501 0.67067 0.0
C62 C 0.87057 0.59811 0.69853 0.0
C63 C 0.89775 0.60753 0.6749 0.0
N64 N 0.9507 0.63787 0.6335 0.0
C65 C 0.95364 0.62584 0.67778 0.0
C66 C 0.98098 0.6335 0.70308 0.0
C67 C 0.99522 0.65089 0.67339 0.0
C68 C 0.97586 0.65303 0.6316 0.0
N69 N 0.94264 0.65182 0.52989 0.0
C70 C 0.96867 0.66553 0.53816 0.0
C71 C 0.98303 0.67234 0.49354 0.0
C72 C 0.96474 0.66219 0.45547 0.0
C73 C 0.94023 0.64961 0.47884 0.0
N74 N 0.90077 0.66819 0.60721 0.0
C75 C 0.89402 0.71609 0.64858 0.0
C76 C 0.89488 0.71168 0.59596 0.0
C77 C 0.89799 0.68788 0.57625 0.0
C78 C 0.89499 0.69541 0.67922 0.0
C79 C 0.89824 0.67211 0.65824 0.0
N80 N 0.93558 0.60421 0.56119 0.0
C81 C 0.9855 0.58227 0.5477 0.0
C82 C 0.97033 0.55985 0.55132 0.0
C83 C 0.93654 0.56033 0.55822 0.0
C84 C 0.91967 0.58259 0.56281 0.0
C85 C 0.96811 0.6037 0.55254 0.0
H86 H 0.89406 0.58226 0.56951 0.0
H87 H 0.98202 0.61992 0.55228 0.0
H88 H 0.89945 0.68558 0.53586 0.0
H89 H 0.90055 0.65733 0.68423 0.0
C90 C 0.83974 0.62539 0.58906 0.0
C91 C 0.91371 0.63673 0.45283 0.0
C92 C 0.92985 0.60841 0.69805 0.0
C93 C 0.98265 0.66602 0.58683 0.0
H94 H 0.84764 0.63284 0.41953 0.0
H95 H 0.80627 0.62903 0.49535 0.0
H96 H 0.81964 0.60046 0.67742 0.0
H97 H 0.86934 0.588 0.73329 0.0
H98 H 0.98961 0.62725 0.73924 0.0
H99 H 0.01752 0.66026 0.68079 0.0
H100 H 1.00528 0.68219 0.4891 0.0
H101 H 0.96908 0.66362 0.41537 0.0
H102 H 0.89351 0.72655 0.56974 0.0
H103 H 0.89478 0.69708 0.71985 0.0
H104 H 0.0113 0.58358 0.54375 0.0
H105 H 0.92314 0.54368 0.56072 0.0
C106 C 0.30554 0.45323 0.82688 0.0
C107 C 0.27739 0.46365 0.80901 0.0
C108 C 0.2861 0.48466 0.78545 0.0
C109 C 0.31901 0.48535 0.78849 0.0
N110 N 0.33143 0.46613 0.81223 0.0
Co111 Co 0.37679 0.45628 0.80718 0.0
N112 N 0.39077 0.49013 0.79969 0.0
C113 C 0.37184 0.50846 0.78475 0.0
C114 C 0.38782 0.53003 0.78263 0.0
C115 C 0.41883 0.52485 0.79633 0.0
C116 C 0.42015 0.50021 0.80561 0.0
N117 N 0.42213 0.4467 0.7986 0.0
C118 C 0.44936 0.46021 0.80122 0.0
C119 C 0.47584 0.4461 0.78948 0.0
C120 C 0.46443 0.42322 0.77902 0.0
C121 C 0.43158 0.42449 0.7846 0.0
N122 N 0.36113 0.42292 0.81793 0.0
C123 C 0.3772 0.40302 0.80412 0.0
C124 C 0.3611 0.3825 0.81857 0.0
C125 C 0.33347 0.39021 0.84292 0.0
C126 C 0.33415 0.41522 0.84323 0.0
N127 N 0.37285 0.45277 0.73251 0.0
C128 C 0.3849 0.43543 0.63325 0.0
C129 C 0.35918 0.42653 0.66237 0.0
C130 C 0.35322 0.4357 0.7113 0.0
C131 C 0.40237 0.4547 0.65367 0.0
C132 C 0.39599 0.46306 0.70258 0.0
N133 N 0.38374 0.4577 0.88063 0.0
C134 C 0.41115 0.43792 0.94876 0.0
C135 C 0.39857 0.45386 0.9838 0.0
C136 C 0.37907 0.47292 0.96596 0.0
C137 C 0.37209 0.47464 0.91351 0.0
C138 C 0.40262 0.43956 0.89903 0.0
H139 H 0.35712 0.48913 0.89975 0.0
H140 H 0.41144 0.42535 0.87584 0.0
H141 H 0.33402 0.4278 0.73309 0.0
H142 H 0.41206 0.47648 0.71735 0.0
C143 C 0.33884 0.50493 0.77659 0.0
C144 C 0.30717 0.43171 0.85929 0.0
C145 C 0.45028 0.48657 0.81144 0.0
C146 C 0.40949 0.40491 0.78681 0.0
H147 H 0.25309 0.45721 0.81437 0.0
H148 H 0.27027 0.49813 0.76959 0.0
H149 H 0.37814 0.54745 0.77244 0.0
H150 H 0.43846 0.53761 0.79715 0.0
H151 H 0.5007 0.45177 0.78839 0.0
H152 H 0.47859 0.40741 0.77023 0.0
H153 H 0.36885 0.36405 0.81337 0.0
H154 H 0.31472 0.37855 0.85665 0.0
H155 H 0.34411 0.4122 0.64797 0.0
H156 H 0.42238 0.46245 0.63329 0.0
H157 H 0.42687 0.42328 0.95991 0.0
H158 H 0.36881 0.48581 0.99204 0.0
C159 C 0.6322 0.89908 0.98806 0.0
C160 C 0.66325 0.90091 0.96934 0.0
C161 C 0.68334 0.90141 1.01029 0.0
C162 C 0.66352 0.89994 0.05155 0.0
N163 N 0.63228 0.89858 0.03912 0.0
Co164 Co 0.59594 0.89645 0.08718 0.0
N165 N 0.62181 0.91141 0.1412 0.0
C166 C 0.65415 0.9111 0.14348 0.0
C167 C 0.66596 0.92049 0.18743 0.0
C168 C 0.63943 0.92695 0.21466 0.0
C169 C 0.61259 0.92142 0.18536 0.0
N170 N 0.55992 0.89449 0.13525 0.0
C171 C 0.55511 0.9068 0.17903 0.0
C172 C 0.52557 0.90059 0.19953 0.0
C173 C 0.51219 0.88354 0.168 0.0
C174 C 0.53399 0.8803 0.12962 0.0
N175 N 0.57142 0.88152 0.0313 0.0
C176 C 0.54477 0.86815 0.0367 0.0
C177 C 0.532 0.86163 0.99072 0.0
C178 C 0.55196 0.8716 0.9547 0.0
C179 C 0.57584 0.88381 0.98053 0.0
N180 N 0.61017 0.8636 0.11109 0.0
C181 C 0.61835 0.81553 0.15031 0.0
C182 C 0.61901 0.82049 0.09792 0.0
C183 C 0.61515 0.84442 0.07927 0.0
C184 C 0.61449 0.83567 0.18191 0.0
C185 C 0.61045 0.85903 0.16201 0.0
N186 N 0.57891 0.92861 0.06641 0.0
C187 C 0.53069 0.95182 0.04891 0.0
C188 C 0.54668 0.97379 0.05507 0.0
C189 C 0.58003 0.97244 0.06556 0.0
C190 C 0.59565 0.94977 0.0709 0.0
C191 C 0.54689 0.92994 0.05446 0.0
H192 H 0.62091 0.94937 0.0803 0.0
H193 H 0.5324 0.91405 0.05179 0.0
H194 H 0.6152 0.84724 0.03897 0.0
H195 H 0.60601 0.87327 0.18864 0.0
C196 C 0.6725 0.90485 0.10125 0.0
C197 C 0.6034 0.89646 0.9567 0.0
C198 C 0.57907 0.92312 0.20304 0.0
C199 C 0.52876 0.8678 0.08376 0.0
H200 H 0.67068 0.90186 0.93033 0.0
H201 H 0.70913 0.90384 1.00998 0.0
H202 H 0.69087 0.92267 0.1982 0.0
H203 H 0.64014 0.9341 0.25254 0.0
H204 H 0.51473 0.90764 0.23354 0.0
H205 H 0.48872 0.87534 0.17157 0.0
H206 H 0.50971 0.85213 0.98399 0.0
H207 H 0.54909 0.87033 0.91425 0.0
H208 H 0.62233 0.80597 0.07115 0.0
H209 H 0.61315 0.83348 0.22237 0.0
H210 H 0.50506 0.95119 0.04221 0.0
H211 H 0.594 0.98872 0.07022 0.0
C212 C 0.20971 0.45281 0.05275 0.0
C213 C 0.23845 0.46459 0.06269 0.0
C214 C 0.23066 0.48552 0.08739 0.0
C215 C 0.19779 0.48513 0.09184 0.0
N216 N 0.18453 0.46526 0.0717 0.0
Co217 Co 0.13905 0.45578 0.07907 0.0
N218 N 0.12561 0.48978 0.08746 0.0
C219 C 0.14504 0.50813 0.10065 0.0
C220 C 0.12926 0.52978 0.10362 0.0
C221 C 0.09788 0.52467 0.09224 0.0
C222 C 0.09618 0.50001 0.08327 0.0
N223 N 0.09375 0.44656 0.09004 0.0
C224 C 0.06665 0.46027 0.08893 0.0
C225 C 0.04017 0.44634 0.10135 0.0
C226 C 0.05141 0.42332 0.11055 0.0
C227 C 0.08417 0.42434 0.10363 0.0
N228 N 0.15397 0.4223 0.06693 0.0
C229 C 0.13739 0.40242 0.07914 0.0
C230 C 0.15186 0.38199 0.06013 0.0
C231 C 0.17899 0.38973 0.03458 0.0
C232 C 0.17989 0.4146 0.03908 0.0
N233 N 0.14432 0.45212 0.1535 0.0
C234 C 0.13253 0.43457 0.25263 0.0
C235 C 0.15738 0.42505 0.22243 0.0
C236 C 0.16325 0.43433 0.17358 0.0
C237 C 0.11594 0.45451 0.23335 0.0
C238 C 0.12219 0.46296 0.18454 0.0
N239 N 0.13083 0.45741 1.00584 0.0
C240 C 0.10197 0.4384 0.93802 0.0
C241 C 0.11667 0.45294 0.90249 0.0
C242 C 0.13787 0.47105 0.91983 0.0
C243 C 0.14445 0.47315 0.97232 0.0
C244 C 0.11016 0.44024 0.98792 0.0
H245 H 0.16096 0.48679 0.98555 0.0
H246 H 0.10008 0.42665 1.0113 0.0
H247 H 0.18171 0.42595 0.15095 0.0
H248 H 0.10661 0.47692 0.17079 0.0
C249 C 0.17829 0.5047 0.10505 0.0
C250 C 0.20687 0.43073 0.02236 0.0
C251 C 0.06586 0.48658 0.07868 0.0
C252 C 0.10562 0.40453 0.09839 0.0
H253 H 0.26234 0.45902 0.0515 0.0
H254 H 0.24687 0.49987 0.09823 0.0
H255 H 0.13938 0.54724 0.11248 0.0
H256 H 0.07833 0.53753 0.09238 0.0
H257 H 0.0154 0.45218 0.10333 0.0
H258 H 0.03714 0.40754 0.11898 0.0
H259 H 0.14294 0.36371 0.06222 0.0
H260 H 0.19594 0.37826 1.01524 0.0
H261 H 0.17181 0.41017 0.2359 0.0
H262 H 0.09659 0.46275 0.25452 0.0
H263 H 0.08506 0.42448 0.92709 0.0
H264 H 0.14986 0.48281 0.89332 0.0
C265 C 0.63331 0.63551 0.40961 0.0
C266 C 0.66347 0.6343 0.43173 0.0
C267 C 0.68521 0.63289 0.39302 0.0
C268 C 0.66712 0.63332 0.34973 0.0
N269 N 0.63544 0.63497 0.35889 0.0
Co270 Co 0.60096 0.63652 0.30778 0.0
N271 N 0.62852 0.62 0.25804 0.0
C272 C 0.66085 0.6186 0.25966 0.0
C273 C 0.67352 0.60535 0.22089 0.0
C274 C 0.64764 0.59823 0.19289 0.0
C275 C 0.62034 0.60778 0.216 0.0
N276 N 0.56706 0.63822 0.25639 0.0
C277 C 0.56441 0.62603 0.21217 0.0
C278 C 0.53718 0.63355 0.18644 0.0
C279 C 0.52271 0.65102 0.21581 0.0
C280 C 0.54183 0.65334 0.25784 0.0
N281 N 0.57459 0.65263 0.35992 0.0
C282 C 0.54852 0.66623 0.35125 0.0
C283 C 0.53385 0.67307 0.39567 0.0
C284 C 0.55199 0.66302 0.43401 0.0
C285 C 0.57672 0.65048 0.411 0.0
N286 N 0.61658 0.66879 0.28283 0.0
C287 C 0.62185 0.71651 0.24064 0.0
C288 C 0.6211 0.71242 0.29334 0.0
C289 C 0.61867 0.6887 0.31346 0.0
C290 C 0.62201 0.69563 0.21042 0.0
C291 C 0.61941 0.67242 0.23179 0.0
N292 N 0.58215 0.60499 0.32933 0.0
C293 C 0.53234 0.58306 0.3428 0.0
C294 C 0.54766 0.5607 0.33962 0.0
C295 C 0.58146 0.56117 0.33296 0.0
C296 C 0.59822 0.58342 0.3282 0.0
C297 C 0.54961 0.60447 0.3377 0.0
H298 H 0.62385 0.58313 0.32172 0.0
H299 H 0.53559 0.62064 0.3375 0.0
H300 H 0.61695 0.68663 0.35386 0.0
H301 H 0.61793 0.65745 0.20606 0.0
C302 C 0.6779 0.62624 0.30216 0.0
C303 C 0.60317 0.63771 0.43734 0.0
C304 C 0.58838 0.60856 0.19237 0.0
C305 C 0.53476 0.66649 0.3024 0.0
H306 H 0.66914 0.63411 0.47152 0.0
H307 H 0.7109 0.63026 0.39622 0.0
H308 H 0.69848 0.60078 0.21452 0.0
H309 H 0.64904 0.5879 0.15838 0.0
H310 H 0.52878 0.62716 0.15022 0.0
H311 H 0.50041 0.66033 0.20802 0.0
H312 H 0.51149 0.68282 0.39979 0.0
H313 H 0.5474 0.66449 0.47404 0.0
H314 H 0.62105 0.72747 0.3193 0.0
H315 H 0.6236 0.69701 0.16984 0.0
H316 H 0.50651 0.58431 0.34652 0.0
H317 H 0.59491 0.54452 0.33073 0.0
C318 C 0.31069 0.08597 0.56353 0.0
C319 C 0.28408 0.08025 0.59261 0.0
C320 C 0.29165 0.05969 0.61838 0.0
C321 C 0.32285 0.05469 0.60538 0.0
N322 N 0.33564 0.07077 0.5733 0.0
Co323 Co 0.38285 0.07535 0.56368 0.0
N324 N 0.39266 0.04173 0.58601 0.0
C325 C 0.37165 0.02689 0.60893 0.0
C326 C 0.38427 1.00475 0.62012 0.0
C327 C 0.41549 1.00571 0.60429 0.0
C328 C 0.42045 0.02873 0.58524 0.0
N329 N 0.43017 0.08036 0.55692 0.0
C330 C 0.45527 0.0646 0.56177 0.0
C331 C 0.48436 0.07651 0.55672 0.0
C332 C 0.47727 0.10039 0.5489 0.0
C333 C 0.44431 0.10183 0.54955 0.0
N334 N 0.37158 0.10865 0.54005 0.0
C335 C 0.39263 0.1268 0.53524 0.0
C336 C 0.37843 0.14781 0.51944 0.0
C337 C 0.34639 0.1425 0.51334 0.0
C338 C 0.34271 0.11828 0.52451 0.0
N339 N 0.38651 0.08691 0.63552 0.0
C340 C 0.39765 0.10533 0.73531 0.0
C341 C 0.37343 0.11484 0.70375 0.0
C342 C 0.36817 0.10538 0.65458 0.0
C343 C 0.41572 0.08624 0.7152 0.0
C344 C 0.40996 0.07751 0.66618 0.0
N345 N 0.38154 0.0646 0.49131 0.0
C346 C 0.41789 0.06108 0.42038 0.0
C347 C 0.39808 0.07585 0.39129 0.0
C348 C 0.36707 0.08044 0.40967 0.0
C349 C 0.35886 0.0733 0.45883 0.0
C350 C 0.4086 0.05503 0.46955 0.0
H351 H 0.33455 0.07526 0.47049 0.0
H352 H 0.42454 0.04382 0.49018 0.0
H353 H 0.34944 0.1133 0.63189 0.0
H354 H 0.42539 0.06336 0.65313 0.0
C355 C 0.34039 0.03443 0.61965 0.0
C356 C 0.31116 0.10536 0.52547 0.0
C357 C 0.45241 0.03837 0.5719 0.0
C358 C 0.42569 0.12251 0.54073 0.0
H359 H 0.2612 0.08952 0.59348 0.0
H360 H 0.27616 0.04949 0.64321 0.0
H361 H 0.37232 0.98976 0.6382 0.0
H362 H 0.4327 0.99127 0.60817 0.0
H363 H 0.50817 0.06875 0.55888 0.0
H364 H 0.49417 0.11493 0.54303 0.0
H365 H 0.39 0.16496 0.51266 0.0
H366 H 0.32785 0.15533 0.50375 0.0
H367 H 0.35832 0.1294 0.717 0.0
H368 H 0.43506 0.07826 0.73673 0.0
H369 H 0.44115 0.05533 0.40655 0.0
H370 H 0.34949 0.08966 0.3866 0.0
C371 C 0.88339 0.89744 0.90775 0.0
C372 C 0.85304 0.89886 0.92916 0.0
C373 C 0.83165 0.9 0.88994 0.0
C374 C 0.85013 0.8992 0.84706 0.0
N375 N 0.88172 0.89758 0.85695 0.0
Co376 Co 0.91663 0.89551 0.80659 0.0
N377 N 0.88955 0.91163 0.75577 0.0
C378 C 0.8572 0.91284 0.75644 0.0
C379 C 0.84479 0.92523 0.71634 0.0
C380 C 0.87089 0.93199 0.68849 0.0
C381 C 0.89805 0.92319 0.71317 0.0
N382 N 0.95098 0.89332 0.75602 0.0
C383 C 0.95419 0.9053 0.71175 0.0
C384 C 0.98177 0.89769 0.68699 0.0
C385 C 0.99585 0.88035 0.71703 0.0
C386 C 0.97619 0.87821 0.75847 0.0
N387 N 0.94244 0.87975 0.85977 0.0
C388 C 0.96855 0.86603 0.85202 0.0
C389 C 0.98274 0.85943 0.89692 0.0
C390 C 0.96427 0.86975 0.93461 0.0
C391 C 0.93981 0.88219 0.91077 0.0
N392 N 0.90101 0.86305 0.78207 0.0
C393 C 0.89466 0.81515 0.74043 0.0
C394 C 0.89521 0.8195 0.79311 0.0
C395 C 0.89825 0.84331 0.81295 0.0
C396 C 0.89543 0.83589 0.70997 0.0
C397 C 0.89856 0.85915 0.73103 0.0
N398 N 0.9354 0.92724 0.82756 0.0
C399 C 0.9852 0.9493 0.84097 0.0
C400 C 0.96998 0.97169 0.83688 0.0
C401 C 0.9362 0.97113 0.82975 0.0
C402 C 0.91943 0.94883 0.82539 0.0
C403 C 0.96789 0.92782 0.83647 0.0
H404 H 0.89385 0.94909 0.81844 0.0
H405 H 0.98184 0.91162 0.83717 0.0
H406 H 0.89978 0.84557 0.85334 0.0
H407 H 0.90068 0.87393 0.70503 0.0
C408 C 0.83977 0.90569 0.79893 0.0
C409 C 0.91322 0.89524 0.93628 0.0
C410 C 0.93047 0.9227 0.69112 0.0
C411 C 0.98278 0.86539 0.80352 0.0
H412 H 0.84705 0.89929 0.96884 0.0
H413 H 0.80593 0.90262 0.8925 0.0
H414 H 0.81984 0.92942 0.70889 0.0
H415 H 0.86973 0.94162 0.65314 0.0
H416 H 0.99068 0.90395 0.65101 0.0
H417 H 0.01829 0.87106 0.71012 0.0
H418 H 1.00502 0.84965 0.90176 0.0
H419 H 0.96848 0.86852 0.97477 0.0
H420 H 0.89457 0.80457 0.81922 0.0
H421 H 0.89409 0.83434 0.66937 0.0
H422 H 0.01099 0.94801 0.84508 0.0
H423 H 0.92274 0.98774 0.82688 0.0
C424 C 0.70939 0.5801 0.83021 0.0
C425 C 0.73731 0.56945 0.812 0.0
C426 C 0.72824 0.5484 0.78883 0.0
C427 C 0.69535 0.54794 0.79234 0.0
N428 N 0.68327 0.56734 0.81602 0.0
Co429 Co 0.63809 0.57764 0.81067 0.0
N430 N 0.62353 0.54388 0.80364 0.0
C431 C 0.64217 0.52531 0.78898 0.0
C432 C 0.62579 0.50391 0.78677 0.0
C433 C 0.59483 0.50946 0.80009 0.0
C434 C 0.59393 0.53414 0.80931 0.0
N435 N 0.59296 0.58766 0.80169 0.0
C436 C 0.56548 0.57441 0.80383 0.0
C437 C 0.53934 0.58875 0.79156 0.0
C438 C 0.55121 0.61148 0.78117 0.0
C439 C 0.58399 0.60991 0.78736 0.0
N440 N 0.65437 0.6109 0.82107 0.0
C441 C 0.6387 0.6309 0.80698 0.0
C442 C 0.65517 0.65131 0.8212 0.0
C443 C 0.68264 0.64341 0.8457 0.0
C444 C 0.68148 0.61842 0.84632 0.0
N445 N 0.6422 0.58076 0.73594 0.0
C446 C 0.62989 0.59801 0.63682 0.0
C447 C 0.65574 0.6069 0.66573 0.0
C448 C 0.66184 0.59775 0.71457 0.0
C449 C 0.6125 0.57875 0.65727 0.0
C450 C 0.61901 0.57043 0.7061 0.0
N451 N 0.63094 0.57664 0.88415 0.0
C452 C 0.60351 0.59699 0.9517 0.0
C453 C 0.61537 0.58096 0.98709 0.0
C454 C 0.63455 0.5616 0.96965 0.0
C455 C 0.6419 0.55963 0.91733 0.0
C456 C 0.6124 0.5951 0.90214 0.0
H457 H 0.65656 0.54488 0.90389 0.0
H458 H 0.60404 0.60934 0.87871 0.0
H459 H 0.68114 0.60564 0.73622 0.0
H460 H 0.60294 0.55705 0.72091 0.0
C461 C 0.6752 0.5285 0.7807 0.0
C462 C 0.70818 0.60174 0.86249 0.0
C463 C 0.56401 0.54809 0.81427 0.0
C464 C 0.60643 0.62927 0.7895 0.0
H465 H 0.76171 0.57576 0.81691 0.0
H466 H 0.74382 0.53478 0.77284 0.0
H467 H 0.63516 0.48637 0.77657 0.0
H468 H 0.57492 0.49694 0.80047 0.0
H469 H 0.51439 0.58332 0.79005 0.0
H470 H 0.53739 0.62739 0.77195 0.0
H471 H 0.64779 0.66982 0.81572 0.0
H472 H 0.70162 0.65492 0.85931 0.0
H473 H 0.67077 0.62122 0.65126 0.0
H474 H 0.59242 0.57099 0.63702 0.0
H475 H 0.58795 0.61182 0.96238 0.0
H476 H 0.64424 0.5486 0.99594 0.0
C477 C 0.38531 0.13607 0.97256 0.0
C478 C 0.35555 0.13335 0.94971 0.0
C479 C 0.33342 0.13183 0.98781 0.0
C480 C 0.35084 0.13371 0.0316 0.0
N481 N 0.38252 0.13643 0.02347 0.0
Co482 Co 0.41605 0.1397 0.07626 0.0
N483 N 0.38823 0.1238 0.12677 0.0
C484 C 0.35608 0.12135 0.12358 0.0
C485 C 0.34307 0.10935 0.16376 0.0
C486 C 0.36852 0.1042 0.19449 0.0
C487 C 0.39583 0.11357 0.1714 0.0
N488 N 0.44915 0.14315 0.12905 0.0
C489 C 0.4512 0.13259 0.17517 0.0
C490 C 0.47772 0.14128 0.20107 0.0
C491 C 0.4924 0.15787 0.16999 0.0
C492 C 0.47408 0.15852 0.12684 0.0
N493 N 0.44285 0.15502 0.02338 0.0
C494 C 0.46858 0.16901 0.03199 0.0
C495 C 0.4835 0.17565 0.98775 0.0
C496 C 0.46595 0.16509 0.94938 0.0
C497 C 0.44124 0.15246 0.97216 0.0
N498 N 0.39916 0.17224 0.09821 0.0
C499 C 0.39123 0.22027 0.1385 0.0
C500 C 0.394 0.21576 0.08604 0.0
C501 C 0.39769 0.19187 0.06682 0.0
C502 C 0.39099 0.19968 0.16928 0.0
C503 C 0.39481 0.17638 0.14889 0.0
N504 N 0.43567 0.10802 0.05821 0.0
C505 C 0.48556 0.0856 0.0505 0.0
C506 C 0.46962 0.06349 0.05262 0.0
C507 C 0.43568 0.06423 0.05479 0.0
C508 C 0.41919 0.08664 0.05781 0.0
C509 C 0.46847 0.10725 0.05304 0.0
H510 H 0.39335 0.08664 0.06163 0.0
H511 H 0.48249 0.12344 0.05325 0.0
H512 H 0.40065 0.18947 0.02667 0.0
H513 H 0.39624 0.16184 0.17547 0.0
C514 C 0.33971 0.12728 0.07933 0.0
C515 C 0.41548 0.13917 0.94489 0.0
C516 C 0.42725 0.11563 0.19631 0.0
C517 C 0.48151 0.17053 0.08123 0.0
H518 H 0.35042 0.13229 0.90979 0.0
H519 H 0.30798 0.12823 0.984 0.0
H520 H 0.31819 0.10439 0.16949 0.0
H521 H 0.36686 0.09518 0.23052 0.0
H522 H 0.48545 0.13628 0.23857 0.0
H523 H 0.51425 0.16779 0.17757 0.0
H524 H 0.50557 0.18576 0.98382 0.0
H525 H 0.47089 0.16632 0.90943 0.0
H526 H 0.39374 0.23059 0.05965 0.0
H527 H 0.38946 0.20137 0.20983 0.0
H528 H 0.5115 0.0863 0.04758 0.0
H529 H 0.42202 0.04765 0.05614 0.0
C530 C 0.8131 0.95287 0.3435 0.0
C531 C 0.78423 0.96518 0.33891 0.0
C532 C 0.79091 0.98608 0.31349 0.0
C533 C 0.82331 0.98524 0.3037 0.0
N534 N 0.83729 0.96507 0.32112 0.0
Co535 Co 0.88264 0.95579 0.31053 0.0
N536 N 0.89551 0.98989 0.30217 0.0
C537 C 0.87565 1.00824 0.29076 0.0
C538 C 0.89122 0.02994 0.28733 0.0
C539 C 0.9229 0.02487 0.29655 0.0
C540 C 0.92494 1.00019 0.30482 0.0
N541 N 0.92771 0.94677 0.29673 0.0
C542 C 0.95466 0.9606 0.29667 0.0
C543 C 0.98101 0.94686 0.28259 0.0
C544 C 0.96982 0.92381 0.27354 0.0
C545 C 0.93722 0.92463 0.28225 0.0
N546 N 0.86845 0.92219 0.32265 0.0
C547 C 0.88487 0.90239 0.30919 0.0
C548 C 0.87091 0.88184 0.32849 0.0
C549 C 0.84431 0.88943 0.35565 0.0
C550 C 0.84328 0.91429 0.35166 0.0
N551 N 0.87572 0.95236 0.23632 0.0
C552 C 0.88655 0.93486 0.1367 0.0
C553 C 0.86243 0.92499 0.16779 0.0
C554 C 0.85699 0.93426 0.21685 0.0
C555 C 0.90274 0.95513 0.15537 0.0
C556 C 0.89696 0.96356 0.20441 0.0
N557 N 0.89251 0.95725 0.38329 0.0
C558 C 0.9226 0.9382 0.44966 0.0
C559 C 0.90798 0.95238 0.48609 0.0
C560 C 0.88633 0.9704 0.46987 0.0
C561 C 0.87911 0.97271 0.41769 0.0
C562 C 0.91381 0.94024 0.39998 0.0
H563 H 0.8622 0.98627 0.40544 0.0
H564 H 0.92387 0.9269 0.37579 0.0
H565 H 0.83913 0.92561 0.24014 0.0
H566 H 0.91235 0.97777 0.21754 0.0
C567 C 0.84232 1.00484 0.2893 0.0
C568 C 0.81706 0.93024 0.37127 0.0
C569 C 0.95536 0.98682 0.30763 0.0
C570 C 0.91617 0.90467 0.28831 0.0
H571 H 0.76107 0.95991 0.35382 0.0
H572 H 0.77452 1.00079 0.30603 0.0
H573 H 0.88077 0.04743 0.27981 0.0
H574 H 0.94236 0.03778 0.2956 0.0
H575 H 1.00567 0.95284 0.27946 0.0
H576 H 0.98408 0.90813 0.26409 0.0
H577 H 0.87989 0.8636 0.32558 0.0
H578 H 0.82775 0.87801 0.37594 0.0
H579 H 0.84829 0.90984 0.15484 0.0
H580 H 0.92152 0.96367 0.13355 0.0
H581 H 0.93992 0.92442 0.45968 0.0
H582 H 0.87441 0.9819 0.49703 0.0
C583 C 0.13649 0.39703 0.48004 0.0
C584 C 0.16658 0.39827 0.45768 0.0
C585 C 0.18846 0.39946 0.49621 0.0
C586 C 0.17052 0.39888 0.53965 0.0
N587 N 0.1388 0.39735 0.53076 0.0
Co588 Co 0.10452 0.39556 0.5822 0.0
N589 N 0.13231 0.41176 0.63201 0.0
C590 C 0.16465 0.41295 0.63026 0.0
C591 C 0.17756 0.4257 0.66954 0.0
C592 C 0.15182 0.43271 0.69801 0.0
C593 C 0.12437 0.42365 0.67454 0.0
N594 N 0.07083 0.39364 0.63388 0.0
C595 C 0.06828 0.40577 0.67817 0.0
C596 C 0.04105 0.39828 0.70393 0.0
C597 C 0.02649 0.38089 0.67449 0.0
C598 C 0.04555 0.37858 0.63238 0.0
N599 N 0.07795 0.37973 0.52998 0.0
C600 C 0.0519 0.36611 0.53865 0.0
C601 C 0.03708 0.35946 0.49424 0.0
C602 C 0.05509 0.36962 0.45591 0.0
C603 C 0.07992 0.38205 0.4789 0.0
N604 N 0.12029 0.36312 0.60634 0.0
C605 C 0.12691 0.31518 0.64737 0.0
C606 C 0.12566 0.31958 0.59478 0.0
C607 C 0.12262 0.34339 0.57524 0.0
C608 C 0.12638 0.33588 0.67811 0.0
C609 C 0.12318 0.35919 0.65731 0.0
N610 N 0.08557 0.42727 0.56158 0.0
C611 C 0.03562 0.44936 0.55011 0.0
C612 C 0.05102 0.47163 0.55371 0.0
C613 C 0.08491 0.47115 0.55836 0.0
C614 C 0.1017 0.44882 0.56243 0.0
C615 C 0.05293 0.42788 0.55399 0.0
H616 H 0.1274 0.44904 0.56825 0.0
H617 H 0.03894 0.4117 0.55361 0.0
H618 H 0.12084 0.34568 0.5349 0.0
H619 H 0.12119 0.37398 0.68343 0.0
C620 C 0.18152 0.40555 0.58735 0.0
C621 C 0.10628 0.39491 0.4525 0.0
C622 C 0.09231 0.4232 0.69784 0.0
C623 C 0.03831 0.36564 0.58762 0.0
H624 H 0.1721 0.39858 0.41783 0.0
H625 H 0.21415 0.402 0.49283 0.0
H626 H 0.20259 0.43 0.676 0.0
H627 H 0.15341 0.44269 0.73296 0.0
H628 H 0.03268 0.40467 0.74018 0.0
H629 H 1.00414 0.37166 0.68223 0.0
H630 H 0.0147 0.34973 0.49016 0.0
H631 H 0.05036 0.36831 0.4159 0.0
H632 H 0.12667 0.30469 0.56846 0.0
H633 H 0.12689 0.33423 0.71872 0.0
H634 H 0.00982 0.44838 0.54522 0.0
H635 H 0.09825 0.48784 0.56091 0.0
C636 C 0.71461 0.95164 0.56564 0.0
C637 C 0.73986 0.96281 0.59073 0.0
C638 C 0.72713 0.98226 0.61569 0.0
C639 C 0.69472 0.98116 0.60665 0.0
N640 N 0.6863 0.96225 0.57796 0.0
Co641 Co 0.64189 0.94978 0.57263 0.0
N642 N 0.62362 0.98241 0.5836 0.0
C643 C 0.63934 1.00083 0.60576 0.0
C644 C 0.62082 0.02111 0.6109 0.0
C645 C 0.59142 1.01496 0.59166 0.0
C646 C 0.59353 0.99103 0.57625 0.0
N647 N 0.59751 0.9375 0.56757 0.0
C648 C 0.56922 0.94968 0.56214 0.0
C649 C 0.5437 0.93363 0.56212 0.0
C650 C 0.55659 0.91091 0.56818 0.0
C651 C 0.58928 0.91419 0.5716 0.0
N652 N 0.66224 0.91757 0.56389 0.0
C653 C 0.64714 0.89649 0.57078 0.0
C654 C 0.66701 0.87722 0.56071 0.0
C655 C 0.69611 0.88697 0.546 0.0
C656 C 0.69239 0.91179 0.54666 0.0
N657 N 0.63995 0.94417 0.64734 0.0
C658 C 0.62835 0.92881 0.74868 0.0
C659 C 0.65679 0.92254 0.72271 0.0
C660 C 0.66226 0.93056 0.67263 0.0
C661 C 0.60676 0.94377 0.72292 0.0
C662 C 0.61283 0.95105 0.67314 0.0
N663 N 0.64052 0.95385 0.49731 0.0
C664 C 0.62786 0.93261 0.41994 0.0
C665 C 0.61189 0.95245 0.40015 0.0
C666 C 0.61468 0.9743 0.42678 0.0
C667 C 0.62978 0.9747 0.47479 0.0
C668 C 0.6412 0.93348 0.4677 0.0
H669 H 0.63097 0.99171 0.49427 0.0
H670 H 0.64927 0.91634 0.48022 0.0
H671 H 0.6841 0.92504 0.65389 0.0
H672 H 0.5944 0.96145 0.65504 0.0
C673 C 0.6719 0.99878 0.61867 0.0
C674 C 0.71759 0.92996 0.5336 0.0
C675 C 0.56571 0.97637 0.56124 0.0
C676 C 0.61325 0.89613 0.57454 0.0
H677 H 0.76487 0.95748 0.59087 0.0
H678 H 0.74003 0.99569 0.63727 0.0
H679 H 0.62779 0.03829 0.62683 0.0
H680 H 0.57049 0.02653 0.59106 0.0
H681 H 0.51842 0.93796 0.55901 0.0
H682 H 0.54362 0.89403 0.56945 0.0
H683 H 0.66069 0.85831 0.56126 0.0
H684 H 0.71741 0.87689 0.53605 0.0
H685 H 0.67473 0.9114 0.74079 0.0
H686 H 0.58432 0.94913 0.74028 0.0
H687 H 0.62863 0.91564 0.39969 0.0
H688 H 0.60418 0.99065 0.41189 0.0
C689 C 0.1383 0.1336 0.90527 0.0
C690 C 0.16885 0.13195 0.92588 0.0
C691 C 0.18981 0.1307 0.8861 0.0
C692 C 0.1709 0.13167 0.84372 0.0
N693 N 0.13943 0.1335 0.85442 0.0
Co694 Co 0.10405 0.13586 0.80493 0.0
N695 N 0.13041 0.11959 0.75325 0.0
C696 C 0.16274 0.118 0.75327 0.0
C697 C 0.17457 0.10539 0.71298 0.0
C698 C 0.14812 0.0989 0.68564 0.0
C699 C 0.12133 0.1081 0.71077 0.0
N700 N 0.06923 0.13839 0.75522 0.0
C701 C 0.06553 0.12667 0.71064 0.0
C702 C 0.03786 0.1346 0.68665 0.0
C703 C 0.02422 0.15187 0.71746 0.0
C704 C 0.04422 0.15366 0.75857 0.0
N705 N 0.07893 0.15166 0.85901 0.0
C706 C 0.05286 0.16552 0.85215 0.0
C707 C 0.03919 0.17212 0.89748 0.0
C708 C 0.05795 0.16166 0.93455 0.0
C709 C 0.08205 0.14912 0.90992 0.0
N710 N 0.11978 0.16827 0.78041 0.0
C711 C 0.12616 0.21614 0.73889 0.0
C712 C 0.12589 0.21181 0.79156 0.0
C713 C 0.12283 0.18802 0.81134 0.0
C714 C 0.1251 0.1954 0.70835 0.0
C715 C 0.12197 0.17215 0.72935 0.0
N716 N 0.08516 0.10422 0.82591 0.0
C717 C 0.03527 0.08225 0.8387 0.0
C718 C 0.0505 0.05995 0.83396 0.0
C719 C 0.08431 0.06034 0.8281 0.0
C720 C 0.10114 0.08261 0.82392 0.0
C721 C 0.05266 0.10371 0.83482 0.0
H722 H 0.12674 0.08233 0.8171 0.0
H723 H 0.03883 0.11997 0.83631 0.0
H724 H 0.12152 0.18579 0.85174 0.0
H725 H 0.11962 0.15738 0.70329 0.0
C726 C 0.18067 0.12504 0.79534 0.0
C727 C 0.1088 0.13593 0.93462 0.0
C728 C 0.08887 0.10927 0.68889 0.0
C729 C 0.03819 0.16637 0.80401 0.0
H730 H 0.17526 0.13141 0.96538 0.0
H731 H 0.21551 0.12786 0.88797 0.0
H732 H 0.19937 0.10089 0.70504 0.0
H733 H 0.14884 0.08922 0.65026 0.0
H734 H 0.02862 0.12861 0.65064 0.0
H735 H 1.00187 0.16138 0.71123 0.0
H736 H 0.01707 0.18202 0.90303 0.0
H737 H 0.05418 0.16285 0.97483 0.0
H738 H 0.12677 0.22676 0.81773 0.0
H739 H 0.12621 0.19692 0.66775 0.0
H740 H 0.00954 0.08328 0.84451 0.0
H741 H 0.09751 0.04361 0.82465 0.0
C742 C 0.80728 0.57999 0.05376 0.0
C743 C 0.77891 0.56775 0.06378 0.0
C744 C 0.7874 0.54667 0.0872 0.0
C745 C 0.82029 0.54746 0.09094 0.0
N746 N 0.83292 0.5677 0.07156 0.0
Co747 Co 0.87813 0.57783 0.07901 0.0
N748 N 0.89256 0.54396 0.08544 0.0
C749 C 0.87368 0.52519 0.09789 0.0
C750 C 0.89006 0.50378 0.09982 0.0
C751 C 0.92127 0.50949 0.08856 0.0
C752 C 0.92226 0.53424 0.08065 0.0
N753 N 0.92321 0.5877 0.08977 0.0
C754 C 0.95068 0.57441 0.08814 0.0
C755 C 0.97676 0.58866 0.10119 0.0
C756 C 0.96488 0.6114 0.11147 0.0
C757 C 0.93217 0.60992 0.10447 0.0
N758 N 0.86213 0.61121 0.06903 0.0
C759 C 0.87806 0.63121 0.08261 0.0
C760 C 0.86285 0.65162 0.06523 0.0
C761 C 0.8359 0.64376 0.03934 0.0
C762 C 0.83584 0.61882 0.04197 0.0
N763 N 0.87315 0.5806 0.15367 0.0
C764 C 0.88563 0.59764 0.25302 0.0
C765 C 0.86019 0.60701 0.22391 0.0
C766 C 0.85397 0.59796 0.17494 0.0
C767 C 0.9024 0.57801 0.23266 0.0
C768 C 0.89579 0.5698 0.18376 0.0
N769 N 0.88618 0.57706 1.00575 0.0
C770 C 0.91454 0.59724 0.93909 0.0
C771 C 0.90265 0.58141 0.90321 0.0
C772 C 0.88295 0.56225 0.91995 0.0
C773 C 0.87515 0.56027 0.97204 0.0
C774 C 0.90525 0.59533 0.98849 0.0
H775 H 0.86006 0.54566 0.98488 0.0
H776 H 0.91372 0.60939 1.01236 0.0
H777 H 0.83505 0.60622 0.15314 0.0
H778 H 0.91153 0.55613 0.16914 0.0
C779 C 0.84037 0.52807 0.10292 0.0
C780 C 0.80931 0.60243 0.02449 0.0
C781 C 0.95222 0.54818 0.07699 0.0
C782 C 0.91003 0.62941 0.10115 0.0
H783 H 0.75479 0.57312 0.05346 0.0
H784 H 0.77163 0.53202 0.09772 0.0
H785 H 0.88048 0.4861 0.10808 0.0
H786 H 0.9412 0.49696 0.08828 0.0
H787 H 1.00168 0.58318 0.10306 0.0
H788 H 0.97869 0.62729 0.12092 0.0
H789 H 0.87116 0.67002 0.06856 0.0
H790 H 0.8185 0.65522 0.02108 0.0
H791 H 0.8456 0.62163 0.2383 0.0
H792 H 0.92215 0.56988 0.253 0.0
H793 H 0.93047 0.61191 0.92895 0.0
H794 H 0.87319 0.54944 0.89326 0.0
C795 C 0.38027 0.39841 0.40547 0.0
C796 C 0.35017 0.3997 0.42779 0.0
C797 C 0.32837 0.40148 0.38924 0.0
C798 C 0.34637 0.40118 0.34583 0.0
N799 N 0.37805 0.39925 0.35478 0.0
Co800 Co 0.41244 0.39781 0.30348 0.0
N801 N 0.38504 0.41487 0.25449 0.0
C802 C 0.35273 0.41655 0.25634 0.0
C803 C 0.3402 0.4302 0.21819 0.0
C804 C 0.36614 0.43729 0.19033 0.0
C805 C 0.39333 0.42731 0.21288 0.0
N806 N 0.44628 0.39621 0.25196 0.0
C807 C 0.44901 0.40863 0.20812 0.0
C808 C 0.47612 0.40108 0.18205 0.0
C809 C 0.49043 0.38336 0.21079 0.0
C810 C 0.47134 0.38091 0.25281 0.0
N811 N 0.43865 0.38117 0.35495 0.0
C812 C 0.46456 0.36745 0.34574 0.0
C813 C 0.47923 0.3603 0.38988 0.0
C814 C 0.4613 0.37027 0.42861 0.0
C815 C 0.43667 0.38308 0.40609 0.0
N816 N 0.39637 0.36583 0.27733 0.0
C817 C 0.39025 0.31853 0.23324 0.0
C818 C 0.3908 0.3222 0.2861 0.0
C819 C 0.39376 0.34574 0.30718 0.0
C820 C 0.39079 0.33959 0.20381 0.0
C821 C 0.39368 0.3626 0.22612 0.0
N822 N 0.43165 0.42906 0.32608 0.0
C823 C 0.48179 0.45067 0.3387 0.0
C824 C 0.4666 0.47303 0.33585 0.0
C825 C 0.43272 0.47285 0.33119 0.0
C826 C 0.41572 0.4507 0.32621 0.0
C827 C 0.46427 0.42935 0.33387 0.0
H828 H 0.39003 0.45114 0.32038 0.0
H829 H 0.47808 0.41309 0.33356 0.0
H830 H 0.39542 0.3475 0.34766 0.0
H831 H 0.39552 0.37775 0.20099 0.0
C832 C 0.33563 0.40871 0.2986 0.0
C833 C 0.41045 0.39592 0.43294 0.0
C834 C 0.42517 0.4263 0.18888 0.0
C835 C 0.47828 0.36742 0.29686 0.0
H836 H 0.3446 0.39972 0.46762 0.0
H837 H 0.30273 0.40431 0.39267 0.0
H838 H 0.31531 0.43504 0.21213 0.0
H839 H 0.36485 0.44789 0.15622 0.0
H840 H 0.48454 0.40761 0.14598 0.0
H841 H 0.51259 0.37394 0.20261 0.0
H842 H 0.50151 0.3504 0.3936 0.0
H843 H 0.46597 0.36859 0.46857 0.0
H844 H 0.3903 0.30692 0.31136 0.0
H845 H 0.38948 0.33847 0.16315 0.0
H846 H 0.50758 0.44949 0.34358 0.0
H847 H 0.41959 0.48966 0.32925 0.0
C848 C 0.25873 0.08972 0.48449 0.0
C849 C 0.28366 0.10719 0.48562 0.0
H850 H 0.2159 0.07594 0.45032 0.0
C851 C 0.28229 0.12464 0.4464 0.0
H852 H 0.25879 0.07432 0.50899 0.0
C853 C 0.25719 0.12474 0.40966 0.0
C854 C 0.23228 0.10746 0.41057 0.0
H855 H 0.30114 0.13772 0.44198 0.0
H856 H 0.25829 0.13757 0.37905 0.0
C857 C 0.23357 0.09027 0.44924 0.0
C858 C 0.87977 0.76977 0.74152 0.0
C859 C 0.89403 0.78969 0.71698 0.0
H860 H 0.8676 0.73212 0.74006 0.0
C861 C 0.90785 0.78488 0.66912 0.0
H862 H 0.86837 0.77219 0.77783 0.0
C863 C 0.9074 0.76157 0.64706 0.0
C864 C 0.89322 0.74163 0.67161 0.0
H865 H 0.91986 0.79909 0.64861 0.0
H866 H 0.91904 0.75915 0.61094 0.0
C867 C 0.87933 0.74642 0.71944 0.0
C868 C 0.26452 0.44986 0.91745 0.0
C869 C 0.28171 0.42909 0.90204 0.0
H870 H 0.22623 0.4658 0.95885 0.0
C871 C 0.27326 0.40755 0.92786 0.0
H872 H 0.27096 0.46755 0.90393 0.0
C873 C 0.24844 0.40709 0.96545 0.0
C874 C 0.23038 0.428 0.9777 0.0
H875 H 0.28599 0.39104 0.92043 0.0
H876 H 0.24441 0.39056 0.98584 0.0
C877 C 0.23874 0.44905 0.9513 0.0
C878 C 0.60795 0.76966 0.14694 0.0
C879 C 0.62056 0.78994 0.17239 0.0
H880 H 0.59749 0.73179 0.14763 0.0
C881 C 0.6341 0.78551 0.22053 0.0
H882 H 0.59676 0.77184 0.11041 0.0
C883 C 0.63467 0.76216 0.24226 0.0
C884 C 0.62175 0.74189 0.21706 0.0
H885 H 0.64471 0.80015 0.24173 0.0
H886 H 0.64571 0.76007 0.2789 0.0
C887 C 0.60843 0.74632 0.16872 0.0
C888 C 0.74231 0.6258 0.93115 0.0
C889 C 0.73383 0.60431 0.90501 0.0
H890 H 0.77126 0.64268 0.98918 0.0
C891 C 0.7511 0.58353 0.91998 0.0
H892 H 0.72947 0.64229 0.92415 0.0
C893 C 0.77705 0.5843 0.95348 0.0
C894 C 0.78544 0.60528 0.98027 0.0
H895 H 0.74462 0.56584 0.90641 0.0
H896 H 0.78969 0.56756 0.9604 0.0
C897 C 0.76726 0.62619 0.96855 0.0
C898 C 0.40468 0.28893 0.16138 0.0
C899 C 0.38984 0.29338 0.20862 0.0
H900 H 0.41713 0.26356 0.1031 0.0
C901 C 0.37475 0.27341 0.23157 0.0
H902 H 0.4172 0.3033 0.14212 0.0
C903 C 0.37458 0.25028 0.20865 0.0
C904 C 0.38974 0.24575 0.16166 0.0
H905 H 0.36251 0.27564 0.26726 0.0
H906 H 0.36212 0.23594 0.22807 0.0
C907 C 0.40462 0.26578 0.13855 0.0
C908 C 0.77315 0.9073 0.4224 0.0
C909 C 0.7953 0.92646 0.41711 0.0
H910 H 0.73163 0.89313 0.46072 0.0
C911 C 0.79175 0.94586 0.4507 0.0
H912 H 0.77366 0.89249 0.39588 0.0
C913 C 0.76673 0.94689 0.48606 0.0
C914 C 0.74477 0.9277 0.49356 0.0
H915 H 0.80726 0.96145 0.44723 0.0
H916 H 0.76434 0.96381 0.50542 0.0
C917 C 0.74854 0.90784 0.46006 0.0
C918 C 0.11321 0.26973 0.6459 0.0
C919 C 0.12766 0.28963 0.67029 0.0
H920 H 0.10052 0.23225 0.6475 0.0
C921 C 0.1418 0.28482 0.7179 0.0
H922 H 0.10138 0.27216 0.60996 0.0
C923 C 0.14133 0.26148 0.73992 0.0
C924 C 0.1268 0.2416 0.71552 0.0
H925 H 0.15375 0.29909 0.73841 0.0
H926 H 0.15292 0.25905 0.77606 0.0
C927 C 0.11273 0.24643 0.66789 0.0
C928 C 0.02519 0.02545 0.35333 0.0
C929 C 0.03733 0.03484 0.30796 0.0
H930 H 0.98994 1.00264 0.38868 0.0
C931 C 0.02357 0.02709 0.26232 0.0
H932 H 0.03597 0.03057 0.38892 0.0
C933 C 0.99812 1.01044 0.26211 0.0
C934 C 0.98586 1.00116 0.30753 0.0
H935 H 0.03311 0.03345 0.22677 0.0
H936 H 0.98755 1.00512 0.22649 0.0
C937 C 0.99944 1.00905 0.35314 0.0
C938 C 0.01999 0.53557 0.52374 0.0
C939 C 0.99041 0.53681 0.55026 0.0
H940 H 0.06213 0.5149 0.50445 0.0
C941 C 0.98154 0.51628 0.57817 0.0
H942 H 0.02785 0.55051 0.5007 0.0
C943 C 1.00133 0.49561 0.57972 0.0
C944 C 0.03098 0.49454 0.55365 0.0
H945 H 0.95956 0.51626 0.59996 0.0
H946 H 0.99347 0.48044 0.60214 0.0
C947 C 0.03995 0.51498 0.52578 0.0
C948 C 0.49389 0.51001 0.76717 0.0
C949 C 0.48109 0.5007 0.81223 0.0
H950 H 0.52926 0.533 0.73269 0.0
C951 C 0.49449 0.50841 0.85815 0.0
H952 H 0.48354 0.50485 0.73128 0.0
C953 C 0.52045 0.5247 0.85897 0.0
C954 C 0.53302 0.53419 0.81394 0.0
H955 H 0.48466 0.502 0.89346 0.0
H956 H 0.53098 0.52971 0.89481 0.0
C957 C 0.51948 0.52656 0.76802 0.0
C958 C 0.53631 0.01743 0.08225 0.0
C959 C 0.5278 0.9973 0.0527 0.0
H960 H 0.52481 0.05341 0.10617 0.0
C961 C 0.49959 0.99938 0.02302 0.0
H962 H 0.55727 0.01679 0.10633 0.0
C963 C 0.48042 0.02036 0.02381 0.0
C964 C 0.48897 0.04036 0.05345 0.0
H965 H 0.49219 0.9848 0.99855 0.0
H966 H 0.45921 0.02109 1.00024 0.0
C967 C 0.51737 0.03853 0.08245 0.0
C968 C 0.02176 0.50866 0.03246 0.0
C969 C 0.03517 0.50084 0.07825 0.0
H970 H 0.98525 0.53003 0.99619 0.0
C971 C 0.02241 0.51005 0.12348 0.0
H972 H 0.03158 0.50231 0.99704 0.0
C973 C 0.99677 0.52657 0.12293 0.0
C974 C 0.98321 0.53429 0.07713 0.0
H975 H 0.03277 0.50479 0.15926 0.0
H976 H 0.98697 0.53292 0.15836 0.0
C977 C 0.99579 0.52494 0.03193 0.0
C978 C 0.47816 0.51604 0.36519 0.0
C979 C 0.48685 0.49575 0.33651 0.0
H980 H 0.49065 0.55138 0.39113 0.0
C981 C 0.51635 0.49678 0.31009 0.0
H982 H 0.45608 0.51594 0.38678 0.0
C983 C 0.5363 0.51732 0.31203 0.0
C984 C 0.52767 0.53771 0.34065 0.0
H985 H 0.52396 0.4817 0.28708 0.0
H986 H 0.55815 0.51735 0.28994 0.0
C987 C 0.49827 0.5365 0.3676 0.0
C988 C 0.49682 0.0177 0.52228 0.0
C989 C 0.481 0.02167 0.56846 0.0
H990 H 0.53558 0.99975 0.48347 0.0
C991 C 0.49187 1.00895 0.61107 0.0
H992 H 0.48913 0.02725 0.48882 0.0
C993 C 0.51754 0.99255 0.60756 0.0
C994 C 0.53356 0.98875 0.56154 0.0
H995 H 0.48059 1.01186 0.64736 0.0
H996 H 0.52598 0.98371 0.64143 0.0
C997 C 0.52296 1.0016 0.51897 0.0
C998 C 0.03958 0.01661 0.86181 0.0
C999 C 0.03042 0.03709 0.8342 0.0
H1000 H 0.02769 0.98109 0.88694 0.0
C1001 C 1.00064 0.03606 0.80857 0.0
H1002 H 0.06188 0.01668 0.88283 0.0
C1003 C 0.98092 1.01536 0.81017 0.0
C1004 C 0.98999 0.99477 0.8378 0.0
H1005 H 0.99262 0.0513 0.78645 0.0
H1006 H 0.95884 1.01541 0.78866 0.0
C1007 C 0.01968 0.99602 0.86401 0.0
C1008 C 0.08716 0.0779 0.62024 0.0
C1009 C 0.08724 0.10234 0.6348 0.0
H1010 H 0.09611 0.05223 0.56069 0.0
C1011 C 0.09612 0.11977 0.5995 0.0
H1012 H 0.08164 0.06406 0.64762 0.0
C1013 C 0.10602 0.11303 0.55145 0.0
C1014 C 0.10626 0.08864 0.53625 0.0
H1015 H 0.09787 0.13856 0.61041 0.0
H1016 H 0.11424 0.1271 0.52633 0.0
C1017 C 0.09641 0.07109 0.57114 0.0
C1018 C 0.93111 0.57692 0.76636 0.0
C1019 C 0.9304 0.60138 0.75206 0.0
H1020 H 0.92248 0.55108 0.82558 0.0
C1021 C 0.9199 0.61856 0.78693 0.0
H1022 H 0.93782 0.56324 0.73917 0.0
C1023 C 0.90928 0.61155 0.83434 0.0
C1024 C 0.9101 0.5872 0.84952 0.0
H1025 H 0.91763 0.6373 0.7761 0.0
H1026 H 0.90013 0.6254 0.85934 0.0
C1027 C 0.92131 0.56989 0.81502 0.0
C1028 C 0.41353 0.41656 0.10032 0.0
C1029 C 0.42517 0.43345 0.13492 0.0
H1030 H 0.3932 0.41024 0.02805 0.0
C1031 C 0.42686 0.45787 0.12063 0.0
H1032 H 0.41053 0.39788 0.11117 0.0
C1033 C 0.41718 0.46514 0.07206 0.0
C1034 C 0.40501 0.44812 0.03777 0.0
H1035 H 0.43446 0.47135 0.14765 0.0
H1036 H 0.41935 0.48388 0.0613 0.0
C1037 C 0.40295 0.42384 0.05307 0.0
C1038 C 0.57705 0.92689 0.3442 0.0
C1039 C 0.59309 0.94898 0.35233 0.0
H1040 H 0.56065 0.90101 0.29043 0.0
C1041 C 0.59506 0.96521 0.31185 0.0
H1042 H 0.57384 0.91426 0.37486 0.0
C1043 C 0.58528 0.95804 0.26321 0.0
C1044 C 0.57433 0.93433 0.25409 0.0
H1045 H 0.60686 0.98244 0.31661 0.0
H1046 H 0.59014 0.96992 0.23178 0.0
C1047 C 0.56854 0.91942 0.29568 0.0
C1048 C 0.10146 0.41432 0.78759 0.0
C1049 C 0.09172 0.43108 0.7514 0.0
H1050 H 0.11957 0.4084 0.86149 0.0
C1051 C 0.0914 0.45575 0.76416 0.0
H1052 H 0.10343 0.39539 0.77799 0.0
C1053 C 0.10058 0.46342 0.81273 0.0
C1054 C 0.1108 0.44651 0.84868 0.0
H1055 H 0.08529 0.46907 0.73597 0.0
H1056 H 0.09955 0.48238 0.8222 0.0
C1057 C 0.11139 0.42194 0.83504 0.0
C1058 C 0.58698 0.57692 0.12403 0.0
C1059 C 0.58819 0.60138 0.13836 0.0
H1060 H 0.59496 0.5509 0.0647 0.0
C1061 C 0.59932 0.61835 0.10365 0.0
H1062 H 0.57978 0.56338 0.15112 0.0
C1063 C 0.60995 0.61113 0.05633 0.0
C1064 C 0.60842 0.5868 0.04099 0.0
H1065 H 0.602 0.63708 0.11452 0.0
H1066 H 0.6195 0.62481 0.03142 0.0
C1067 C 0.59669 0.56969 0.07538 0.0
C1068 C 0.40562 0.11134 0.3337 0.0
C1069 C 0.4097 0.08658 0.34298 0.0
H1070 H 0.4099 0.14027 0.28046 0.0
C1071 C 0.42513 0.07246 0.30608 0.0
H1072 H 0.39431 0.12278 0.36167 0.0
C1073 C 0.4341 0.08253 0.25959 0.0
C1074 C 0.42865 0.10705 0.2496 0.0
H1075 H 0.42874 0.05336 0.31214 0.0
H1076 H 0.44346 0.07087 0.23029 0.0
C1077 C 0.41523 0.12149 0.28774 0.0
C1078 C 0.92417 0.91373 0.60066 0.0
C1079 C 0.93206 0.93065 0.63771 0.0
H1080 H 0.90802 0.90748 0.52576 0.0
C1081 C 0.93144 0.95535 0.62532 0.0
H1082 H 0.92294 0.89473 0.60985 0.0
C1083 C 0.92285 0.96288 0.57647 0.0
C1084 C 0.91434 0.9458 0.53968 0.0
H1085 H 0.93614 0.96876 0.65407 0.0
H1086 H 0.92282 0.98191 0.56752 0.0
C1087 C 0.91499 0.92118 0.55276 0.0
C1088 C 0.10861 0.10198 0.99688 0.0
C1089 C 0.10934 0.12696 0.98817 0.0
H1090 H 0.11731 0.07288 0.04806 0.0
C1091 C 0.11902 0.14201 0.02815 0.0
H1092 H 0.1025 0.08981 0.96639 0.0
C1093 C 0.12821 0.13227 0.07521 0.0
C1094 C 0.12804 0.10715 0.08374 0.0
H1095 H 0.121 0.16125 0.0222 0.0
H1096 H 0.13569 0.14447 0.10485 0.0
C1097 C 0.11754 0.09226 0.0438 0.0
C1098 C 0.90407 0.64306 0.35945 0.0
C1099 C 0.91389 0.62795 0.39917 0.0
H1100 H 0.88728 0.64559 0.28287 0.0
C1101 C 0.91505 0.60302 0.39002 0.0
H1102 H 0.90176 0.66226 0.36578 0.0
C1103 C 0.90623 0.59336 0.34296 0.0
C1104 C 0.89544 0.60828 0.30338 0.0
H1105 H 0.92128 0.59081 0.42032 0.0
H1106 H 0.90669 0.57398 0.33836 0.0
C1107 C 0.89498 0.63338 0.31227 0.0
C1108 C 0.4052 0.4394 0.54304 0.0
C1109 C 0.39419 0.42466 0.58276 0.0
H1110 H 0.41973 0.44171 0.46538 0.0
C1111 C 0.39285 0.39959 0.57382 0.0
H1112 H 0.40634 0.45875 0.54772 0.0
C1113 C 0.40127 0.38977 0.52646 0.0
C1114 C 0.41127 0.4047 0.48659 0.0
H1115 H 0.38494 0.38751 0.60331 0.0
H1116 H 0.39829 0.37062 0.52014 0.0
C1117 C 0.41333 0.4296 0.49577 0.0
C1118 C 0.62829 0.89621 0.81715 0.0
C1119 C 0.6206 0.91984 0.80153 0.0
H1120 H 0.6279 0.87003 0.87723 0.0
C1121 C 0.60456 0.93473 0.8368 0.0
H1122 H 0.64024 0.88398 0.79145 0.0
C1123 C 0.59729 0.92659 0.88587 0.0
C1124 C 0.6053 0.90315 0.90146 0.0
H1125 H 0.59842 0.95309 0.82705 0.0
H1126 H 0.58629 0.93897 0.91236 0.0
C1127 C 0.62067 0.888 0.86618 0.0
C1128 C 0.11479 0.38888 0.35866 0.0
C1129 C 0.10566 0.4039 0.39902 0.0
H1130 H 0.13056 0.38651 0.2815 0.0
C1131 C 0.10475 0.42888 0.39047 0.0
H1132 H 0.11691 0.36964 0.36447 0.0
C1133 C 0.1131 0.43865 0.34334 0.0
C1134 C 0.12317 0.42381 0.30307 0.0
H1135 H 0.09906 0.44102 0.42122 0.0
H1136 H 0.11285 0.45805 0.33922 0.0
C1137 C 0.1234 0.39867 0.3114 0.0
C1138 C 0.62149 0.6339 0.57794 0.0
C1139 C 0.62035 0.60881 0.58656 0.0
H1140 H 0.61557 0.66293 0.52474 0.0
C1141 C 0.60924 0.59409 0.54679 0.0
H1142 H 0.62946 0.64596 0.6075 0.0
C1143 C 0.60081 0.60392 0.49975 0.0
C1144 C 0.60265 0.62885 0.49088 0.0
H1145 H 0.60824 0.57472 0.55124 0.0
H1146 H 0.59434 0.59184 0.46928 0.0
C1147 C 0.61275 0.64376 0.53083 0.0
C1148 C 0.4138 0.09893 0.82753 0.0
C1149 C 0.40425 0.11474 0.78852 0.0
H1150 H 0.42524 0.09425 0.90612 0.0
C1151 C 0.40142 0.13941 0.80129 0.0
H1152 H 0.41584 0.07979 0.82035 0.0
C1153 C 0.40743 0.14775 0.85098 0.0
C1154 C 0.41645 0.13176 0.88977 0.0
H1155 H 0.39439 0.15235 0.77289 0.0
H1156 H 0.40378 0.16663 0.85958 0.0
C1157 C 0.4195 0.10724 0.87706 0.0
C1158 C 0.89611 0.89899 0.07765 0.0
C1159 C 0.89563 0.92415 0.08599 0.0
H1160 H 0.90329 0.86997 0.02452 0.0
C1161 C 0.9049 0.93908 0.04549 0.0
H1162 H 0.88957 0.88677 0.10769 0.0
C1163 C 0.91331 0.92936 0.99827 0.0
C1164 C 0.91324 0.90435 0.98978 0.0
H1165 H 0.90456 0.95848 0.04956 0.0
H1166 H 0.91849 0.94154 0.96745 0.0
C1167 C 0.90475 0.88926 0.03026 0.0
loop_
_geom_bond_atom_site_label_1
_geom_bond_atom_site_label_2
_geom_bond_distance
_geom_bond_site_symmetry_2
_ccdc_geom_bond_type
C0 C1 1.443 . S
C0 N4 1.376 . S
C0 C38 1.389 . S
C1 C0 1.443 . S
C1 C2 1.340 . S
C1 H41 0.951 . S
C2 C1 1.340 . S
C2 C3 1.439 . S
C2 H42 0.950 . S
C3 C2 1.439 . S
C3 N4 1.374 . S
C3 C37 1.395 . S
N4 C0 1.376 . S
N4 C3 1.374 . S
N4 Co5 2.008 . S
Co5 N4 2.008 . S
Co5 N6 1.995 . S
Co5 N11 2.008 . S
Co5 N16 1.995 . S
Co5 N21 2.282 . S
Co5 N27 2.282 . S
N6 Co5 1.995 . S
N6 C7 1.376 . S
N6 C10 1.383 . S
C7 N6 1.376 . S
C7 C8 1.446 . S
C7 C37 1.391 . S
C8 C7 1.446 . S
C8 C9 1.339 . S
C8 H43 0.988 . S
C9 C8 1.339 . S
C9 C10 1.439 . S
C9 H44 0.950 . S
C10 N6 1.383 . S
C10 C9 1.439 . S
C10 C39 1.392 . S
N11 Co5 2.008 . S
N11 C12 1.376 . S
N11 C15 1.374 . S
C12 N11 1.376 . S
C12 C13 1.443 . S
C12 C39 1.389 . S
C13 C12 1.443 . S
C13 C14 1.340 . S
C13 H45 0.951 1_455 S
C14 C13 1.340 . S
C14 C15 1.439 . S
C14 H46 0.950 . S
C15 N11 1.374 . S
C15 C14 1.439 . S
C15 C40 1.395 . S
N16 Co5 1.995 . S
N16 C17 1.376 . S
N16 C20 1.383 . S
C17 N16 1.376 . S
C17 C18 1.446 . S
C17 C40 1.391 . S
C18 C17 1.446 . S
C18 C19 1.339 . S
C18 H47 0.949 . S
C19 C18 1.339 . S
C19 C20 1.439 . S
C19 H48 0.950 . S
C20 N16 1.383 . S
C20 C19 1.439 . S
C20 C38 1.392 . S
N21 Co5 2.282 . S
N21 C24 1.332 . S
N21 C26 1.332 . S
C22 C23 1.386 . S
C22 C25 1.388 . S
C23 C22 1.386 . S
C23 C24 1.382 . S
C23 H49 0.950 . S
C24 N21 1.332 . S
C24 C23 1.382 . S
C24 H35 0.952 . S
C25 C22 1.388 . S
C25 C26 1.382 . S
C25 H50 0.950 . S
C26 N21 1.332 . S
C26 C25 1.382 . S
C26 H36 0.948 . S
N27 Co5 2.282 . S
N27 C31 1.332 . S
N27 C32 1.332 . S
C28 C29 1.388 . S
C28 C32 1.382 . S
C28 H51 0.950 . S
C29 C28 1.388 . S
C29 C30 1.386 . S
C30 C29 1.386 . S
C30 C31 1.382 . S
C30 H52 0.950 . S
C31 N27 1.332 . S
C31 C30 1.382 . S
C31 H33 0.952 . S
C32 N27 1.332 . S
C32 C28 1.382 . S
C32 H34 0.948 . S
H33 C31 0.952 . S
H34 C32 0.948 . S
H35 C24 0.952 . S
H36 C26 0.948 . S
C37 C3 1.395 . S
C37 C7 1.391 . S
C38 C0 1.389 . S
C38 C20 1.392 . S
C39 C10 1.392 . S
C39 C12 1.389 . S
C40 C15 1.395 . S
C40 C17 1.391 . S
H41 C1 0.951 . S
H42 C2 0.950 . S
H43 C8 0.988 . S
H44 C9 0.950 . S
H45 C13 0.951 1_655 S
H46 C14 0.950 . S
H47 C18 0.949 . S
H48 C19 0.950 . S
H49 C23 0.950 . S
H50 C25 0.950 . S
H51 C28 0.950 . S
H52 C30 0.950 . S
C53 C54 1.443 . S
C53 N57 1.376 . S
C53 C91 1.389 . S
C54 C53 1.443 . S
C54 C55 1.340 . S
C54 H94 0.951 . S
C55 C54 1.340 . S
C55 C56 1.439 . S
C55 H95 0.950 . S
C56 C55 1.439 . S
C56 N57 1.374 . S
C56 C90 1.395 . S
N57 C53 1.376 . S
N57 C56 1.374 . S
N57 Co58 2.008 . S
Co58 N57 2.008 . S
Co58 N59 1.995 . S
Co58 N64 2.008 . S
Co58 N69 1.995 . S
Co58 N74 2.282 . S
Co58 N80 2.282 . S
N59 Co58 1.995 . S
N59 C60 1.376 . S
N59 C63 1.383 . S
C60 N59 1.376 . S
C60 C61 1.446 . S
C60 C90 1.391 . S
C61 C60 1.446 . S
C61 C62 1.339 . S
C61 H96 0.949 . S
C62 C61 1.339 . S
C62 C63 1.439 . S
C62 H97 0.950 . S
C63 N59 1.383 . S
C63 C62 1.439 . S
C63 C92 1.392 . S
N64 Co58 2.008 . S
N64 C65 1.376 . S
N64 C68 1.374 . S
C65 N64 1.376 . S
C65 C66 1.443 . S
C65 C92 1.389 . S
C66 C65 1.443 . S
C66 C67 1.340 . S
C66 H98 0.951 . S
C67 C66 1.340 . S
C67 C68 1.439 . S
C67 H99 0.950 1_655 S
C68 N64 1.374 . S
C68 C67 1.439 . S
C68 C93 1.395 . S
N69 Co58 1.995 . S
N69 C70 1.376 . S
N69 C73 1.383 . S
C70 N69 1.376 . S
C70 C71 1.446 . S
C70 C93 1.391 . S
C71 C70 1.446 . S
C71 C72 1.339 . S
C71 H100 0.949 1_655 S
C72 C71 1.339 . S
C72 C73 1.439 . S
C72 H101 0.950 . S
C73 N69 1.383 . S
C73 C72 1.439 . S
C73 C91 1.392 . S
N74 Co58 2.282 . S
N74 C77 1.332 . S
N74 C79 1.332 . S
C75 C76 1.386 . S
C75 C78 1.388 . S
C76 C75 1.386 . S
C76 C77 1.382 . S
C76 H102 0.950 . S
C77 N74 1.332 . S
C77 C76 1.382 . S
C77 H88 0.952 . S
C78 C75 1.388 . S
C78 C79 1.382 . S
C78 H103 0.950 . S
C79 N74 1.332 . S
C79 C78 1.382 . S
C79 H89 0.948 . S
N80 Co58 2.282 . S
N80 C84 1.332 . S
N80 C85 1.332 . S
C81 C82 1.388 . S
C81 C85 1.382 . S
C81 H104 0.950 . S
C82 C81 1.388 . S
C82 C83 1.386 . S
C83 C82 1.386 . S
C83 C84 1.382 . S
C83 H105 0.950 . S
C84 N80 1.332 . S
C84 C83 1.382 . S
C84 H86 0.952 . S
C85 N80 1.332 . S
C85 C81 1.382 . S
C85 H87 0.948 . S
H86 C84 0.952 . S
H87 C85 0.948 . S
H88 C77 0.952 . S
H89 C79 0.948 . S
C90 C56 1.395 . S
C90 C60 1.391 . S
C91 C53 1.389 . S
C91 C73 1.392 . S
C92 C63 1.392 . S
C92 C65 1.389 . S
C93 C68 1.395 . S
C93 C70 1.391 . S
H94 C54 0.951 . S
H95 C55 0.950 . S
H96 C61 0.949 . S
H97 C62 0.950 . S
H98 C66 0.951 . S
H99 C67 0.950 1_455 S
H100 C71 0.949 1_455 S
H101 C72 0.950 . S
H102 C76 0.950 . S
H103 C78 0.950 . S
H104 C81 0.950 . S
H105 C83 0.950 . S
C106 C107 1.443 . S
C106 N110 1.376 . S
C106 C144 1.389 . S
C107 C106 1.443 . S
C107 C108 1.340 . S
C107 H147 0.951 . S
C108 C107 1.340 . S
C108 C109 1.439 . S
C108 H148 0.950 . S
C109 C108 1.439 . S
C109 N110 1.374 . S
C109 C143 1.395 . S
N110 C106 1.376 . S
N110 C109 1.374 . S
N110 Co111 2.008 . S
Co111 N110 2.008 . S
Co111 N112 1.995 . S
Co111 N117 2.008 . S
Co111 N122 1.995 . S
Co111 N127 2.282 . S
Co111 N133 2.282 . S
N112 Co111 1.995 . S
N112 C113 1.376 . S
N112 C116 1.383 . S
C113 N112 1.376 . S
C113 C114 1.446 . S
C113 C143 1.391 . S
C114 C113 1.446 . S
C114 C115 1.339 . S
C114 H149 0.949 . S
C115 C114 1.339 . S
C115 C116 1.439 . S
C115 H150 0.950 . S
C116 N112 1.383 . S
C116 C115 1.439 . S
C116 C145 1.392 . S
N117 Co111 2.008 . S
N117 C118 1.376 . S
N117 C121 1.374 . S
C118 N117 1.376 . S
C118 C119 1.443 . S
C118 C145 1.389 . S
C119 C118 1.443 . S
C119 C120 1.340 . S
C119 H151 0.951 . S
C120 C119 1.340 . S
C120 C121 1.439 . S
C120 H152 0.950 . S
C121 N117 1.374 . S
C121 C120 1.439 . S
C121 C146 1.395 . S
N122 Co111 1.995 . S
N122 C123 1.376 . S
N122 C126 1.383 . S
C123 N122 1.376 . S
C123 C124 1.446 . S
C123 C146 1.391 . S
C124 C123 1.446 . S
C124 C125 1.339 . S
C124 H153 0.949 . S
C125 C124 1.339 . S
C125 C126 1.439 . S
C125 H154 0.950 . S
C126 N122 1.383 . S
C126 C125 1.439 . S
C126 C144 1.392 . S
N127 Co111 2.282 . S
N127 C130 1.332 . S
N127 C132 1.332 . S
C128 C129 1.386 . S
C128 C131 1.388 . S
C129 C128 1.386 . S
C129 C130 1.382 . S
C129 H155 0.950 . S
C130 N127 1.332 . S
C130 C129 1.382 . S
C130 H141 0.952 . S
C131 C128 1.388 . S
C131 C132 1.382 . S
C131 H156 0.950 . S
C132 N127 1.332 . S
C132 C131 1.382 . S
C132 H142 0.948 . S
N133 Co111 2.282 . S
N133 C137 1.332 . S
N133 C138 1.332 . S
C134 C135 1.388 . S
C134 C138 1.382 . S
C134 H157 0.950 . S
C135 C134 1.388 . S
C135 C136 1.386 . S
C136 C135 1.386 . S
C136 C137 1.382 . S
C136 H158 0.950 . S
C137 N133 1.332 . S
C137 C136 1.382 . S
C137 H139 0.952 . S
C138 N133 1.332 . S
C138 C134 1.382 . S
C138 H140 0.948 . S
H139 C137 0.952 . S
H140 C138 0.948 . S
H141 C130 0.952 . S
H142 C132 0.948 . S
C143 C109 1.395 . S
C143 C113 1.391 . S
C144 C106 1.389 . S
C144 C126 1.392 . S
C145 C116 1.392 . S
C145 C118 1.389 . S
C146 C121 1.395 . S
C146 C123 1.391 . S
H147 C107 0.951 . S
H148 C108 0.950 . S
H149 C114 0.949 . S
H150 C115 0.950 . S
H151 C119 0.951 . S
H152 C120 0.950 . S
H153 C124 0.949 . S
H154 C125 0.950 . S
H155 C129 0.950 . S
H156 C131 0.950 . S
H157 C134 0.950 . S
H158 C136 0.950 . S
C159 C160 1.443 . S
C159 N163 1.376 . S
C159 C197 1.389 . S
C160 C159 1.443 . S
C160 C161 1.340 . S
C160 H200 0.951 . S
C161 C160 1.340 . S
C161 C162 1.439 1_556 S
C161 H201 0.950 . S
C162 C161 1.439 1_554 S
C162 N163 1.374 1_554 S
C162 C196 1.395 . S
N163 C159 1.376 . S
N163 C162 1.374 1_556 S
N163 Co164 2.008 1_556 S
Co164 N163 2.008 1_554 S
Co164 N165 1.995 . S
Co164 N170 2.008 . S
Co164 N175 1.995 1_554 S
Co164 N180 2.282 . S
Co164 N186 2.282 . S
N165 Co164 1.995 . S
N165 C166 1.376 . S
N165 C169 1.383 . S
C166 N165 1.376 . S
C166 C167 1.446 . S
C166 C196 1.391 . S
C167 C166 1.446 . S
C167 C168 1.339 . S
C167 H202 0.949 . S
C168 C167 1.339 . S
C168 C169 1.439 . S
C168 H203 0.950 . S
C169 N165 1.383 . S
C169 C168 1.439 . S
C169 C198 1.392 . S
N170 Co164 2.008 . S
N170 C171 1.376 . S
N170 C174 1.374 . S
C171 N170 1.376 . S
C171 C172 1.443 . S
C171 C198 1.389 . S
C172 C171 1.443 . S
C172 C173 1.340 . S
C172 H204 0.951 . S
C173 C172 1.340 . S
C173 C174 1.439 . S
C173 H205 0.950 . S
C174 N170 1.374 . S
C174 C173 1.439 . S
C174 C199 1.395 . S
N175 Co164 1.995 1_556 S
N175 C176 1.376 1_556 S
N175 C179 1.383 . S
C176 N175 1.376 1_554 S
C176 C177 1.446 1_554 S
C176 C199 1.391 . S
C177 C176 1.446 1_556 S
C177 C178 1.339 . S
C177 H206 0.949 . S
C178 C177 1.339 . S
C178 C179 1.439 . S
C178 H207 0.950 . S
C179 N175 1.383 . S
C179 C178 1.439 . S
C179 C197 1.392 . S
N180 Co164 2.282 . S
N180 C183 1.332 . S
N180 C185 1.332 . S
C181 C182 1.386 . S
C181 C184 1.388 . S
C182 C181 1.386 . S
C182 C183 1.382 . S
C182 H208 0.950 . S
C183 N180 1.332 . S
C183 C182 1.382 . S
C183 H194 0.952 . S
C184 C181 1.388 . S
C184 C185 1.382 . S
C184 H209 0.950 . S
C185 N180 1.332 . S
C185 C184 1.382 . S
C185 H195 0.948 . S
N186 Co164 2.282 . S
N186 C190 1.332 . S
N186 C191 1.332 . S
C187 C188 1.388 . S
C187 C191 1.382 . S
C187 H210 0.950 1_554 S
C188 C187 1.388 . S
C188 C189 1.386 . S
C189 C188 1.386 . S
C189 C190 1.382 . S
C189 H211 0.950 . S
C190 N186 1.332 . S
C190 C189 1.382 . S
C190 H192 0.952 . S
C191 N186 1.332 . S
C191 C187 1.382 . S
C191 H193 0.948 . S
H192 C190 0.952 . S
H193 C191 0.948 . S
H194 C183 0.952 . S
H195 C185 0.948 . S
C196 C162 1.395 . S
C196 C166 1.391 . S
C197 C159 1.389 . S
C197 C179 1.392 . S
C198 C169 1.392 . S
C198 C171 1.389 . S
C199 C174 1.395 . S
C199 C176 1.391 . S
H200 C160 0.951 . S
H201 C161 0.950 . S
H202 C167 0.949 . S
H203 C168 0.950 . S
H204 C172 0.951 . S
H205 C173 0.950 . S
H206 C177 0.949 . S
H207 C178 0.950 . S
H208 C182 0.950 . S
H209 C184 0.950 . S
H210 C187 0.950 1_556 S
H211 C189 0.950 . S
C212 C213 1.437 1_554 S
C212 N216 1.383 . S
C212 C250 1.388 1_554 S
C213 C212 1.437 1_556 S
C213 C214 1.340 . S
C213 H253 0.951 . S
C214 C213 1.340 . S
C214 C215 1.439 1_556 S
C214 H254 0.950 . S
C215 C214 1.439 1_554 S
C215 N216 1.374 . S
C215 C249 1.395 . S
N216 C212 1.383 . S
N216 C215 1.374 . S
N216 Co217 2.008 . S
Co217 N216 2.008 . S
Co217 N218 1.995 . S
Co217 N223 2.008 . S
Co217 N228 1.995 . S
Co217 N233 2.282 . S
Co217 N239 2.282 1_554 S
N218 Co217 1.995 . S
N218 C219 1.376 . S
N218 C222 1.383 . S
C219 N218 1.376 . S
C219 C220 1.446 . S
C219 C249 1.391 . S
C220 C219 1.446 . S
C220 C221 1.339 . S
C220 H255 0.949 . S
C221 C220 1.339 . S
C221 C222 1.439 . S
C221 H256 0.950 . S
C222 N218 1.383 . S
C222 C221 1.439 . S
C222 C251 1.392 . S
N223 Co217 2.008 . S
N223 C224 1.376 . S
N223 C227 1.374 . S
C224 N223 1.376 . S
C224 C225 1.443 . S
C224 C251 1.389 . S
C225 C224 1.443 . S
C225 C226 1.340 . S
C225 H257 0.951 1_455 S
C226 C225 1.340 . S
C226 C227 1.439 . S
C226 H258 0.950 . S
C227 N223 1.374 . S
C227 C226 1.439 . S
C227 C252 1.395 . S
N228 Co217 1.995 . S
N228 C229 1.376 . S
N228 C232 1.383 . S
C229 N228 1.376 . S
C229 C230 1.446 . S
C229 C252 1.391 . S
C230 C229 1.446 . S
C230 C231 1.339 . S
C230 H259 0.949 . S
C231 C230 1.339 . S
C231 C232 1.439 . S
C231 H260 0.950 . S
C232 N228 1.383 . S
C232 C231 1.439 . S
C232 C250 1.388 1_554 S
N233 Co217 2.282 . S
N233 C236 1.332 . S
N233 C238 1.332 . S
C234 C235 1.386 . S
C234 C237 1.388 . S
C235 C234 1.386 . S
C235 C236 1.382 . S
C235 H261 0.950 . S
C236 N233 1.332 . S
C236 C235 1.382 . S
C236 H247 0.952 . S
C237 C234 1.388 . S
C237 C238 1.382 . S
C237 H262 0.950 . S
C238 N233 1.332 . S
C238 C237 1.382 . S
C238 H248 0.948 . S
N239 Co217 2.282 1_556 S
N239 C243 1.332 . S
N239 C244 1.332 . S
C240 C241 1.388 . S
C240 C244 1.382 . S
C240 H263 0.950 . S
C241 C240 1.388 . S
C241 C242 1.386 . S
C242 C241 1.386 . S
C242 C243 1.382 . S
C242 H264 0.950 . S
C243 N239 1.332 . S
C243 C242 1.382 . S
C243 H245 0.952 . S
C244 N239 1.332 . S
C244 C240 1.382 . S
C244 H246 0.948 . S
H245 C243 0.952 . S
H246 C244 0.948 . S
H247 C236 0.952 . S
H248 C238 0.948 . S
C249 C215 1.395 . S
C249 C219 1.391 . S
C250 C212 1.388 1_556 S
C250 C232 1.388 1_556 S
C251 C222 1.392 . S
C251 C224 1.389 . S
C252 C227 1.395 . S
C252 C229 1.391 . S
H253 C213 0.951 . S
H254 C214 0.950 . S
H255 C220 0.949 . S
H256 C221 0.950 . S
H257 C225 0.951 1_655 S
H258 C226 0.950 . S
H259 C230 0.949 . S
H260 C231 0.950 . S
H261 C235 0.950 . S
H262 C237 0.950 . S
H263 C240 0.950 . S
H264 C242 0.950 . S
C265 C266 1.443 . S
C265 N269 1.376 . S
C265 C303 1.389 . S
C266 C265 1.443 . S
C266 C267 1.340 . S
C266 H306 0.951 . S
C267 C266 1.340 . S
C267 C268 1.439 . S
C267 H307 0.950 . S
C268 C267 1.439 . S
C268 N269 1.374 . S
C268 C302 1.395 . S
N269 C265 1.376 . S
N269 C268 1.374 . S
N269 Co270 2.008 . S
Co270 N269 2.008 . S
Co270 N271 1.995 . S
Co270 N276 2.008 . S
Co270 N281 1.995 . S
Co270 N286 2.282 . S
Co270 N292 2.282 . S
N271 Co270 1.995 . S
N271 C272 1.376 . S
N271 C275 1.383 . S
C272 N271 1.376 . S
C272 C273 1.446 . S
C272 C302 1.391 . S
C273 C272 1.446 . S
C273 C274 1.339 . S
C273 H308 0.949 . S
C274 C273 1.339 . S
C274 C275 1.439 . S
C274 H309 0.950 . S
C275 N271 1.383 . S
C275 C274 1.439 . S
C275 C304 1.392 . S
N276 Co270 2.008 . S
N276 C277 1.376 . S
N276 C280 1.374 . S
C277 N276 1.376 . S
C277 C278 1.443 . S
C277 C304 1.389 . S
C278 C277 1.443 . S
C278 C279 1.340 . S
C278 H310 0.951 . S
C279 C278 1.340 . S
C279 C280 1.439 . S
C279 H311 0.950 . S
C280 N276 1.374 . S
C280 C279 1.439 . S
C280 C305 1.395 . S
N281 Co270 1.995 . S
N281 C282 1.376 . S
N281 C285 1.383 . S
C282 N281 1.376 . S
C282 C283 1.446 . S
C282 C305 1.391 . S
C283 C282 1.446 . S
C283 C284 1.339 . S
C283 H312 0.949 . S
C284 C283 1.339 . S
C284 C285 1.439 . S
C284 H313 0.950 . S
C285 N281 1.383 . S
C285 C284 1.439 . S
C285 C303 1.392 . S
N286 Co270 2.282 . S
N286 C289 1.332 . S
N286 C291 1.332 . S
C287 C288 1.386 . S
C287 C290 1.388 . S
C288 C287 1.386 . S
C288 C289 1.382 . S
C288 H314 0.950 . S
C289 N286 1.332 . S
C289 C288 1.382 . S
C289 H300 0.952 . S
C290 C287 1.388 . S
C290 C291 1.382 . S
C290 H315 0.950 . S
C291 N286 1.332 . S
C291 C290 1.382 . S
C291 H301 0.948 . S
N292 Co270 2.282 . S
N292 C296 1.332 . S
N292 C297 1.332 . S
C293 C294 1.388 . S
C293 C297 1.382 . S
C293 H316 0.950 . S
C294 C293 1.388 . S
C294 C295 1.386 . S
C295 C294 1.386 . S
C295 C296 1.382 . S
C295 H317 0.950 . S
C296 N292 1.332 . S
C296 C295 1.382 . S
C296 H298 0.952 . S
C297 N292 1.332 . S
C297 C293 1.382 . S
C297 H299 0.948 . S
H298 C296 0.952 . S
H299 C297 0.948 . S
H300 C289 0.952 . S
H301 C291 0.948 . S
C302 C268 1.395 . S
C302 C272 1.391 . S
C303 C265 1.389 . S
C303 C285 1.392 . S
C304 C275 1.392 . S
C304 C277 1.389 . S
C305 C280 1.395 . S
C305 C282 1.391 . S
H306 C266 0.951 . S
H307 C267 0.950 . S
H308 C273 0.949 . S
H309 C274 0.950 . S
H310 C278 0.951 . S
H311 C279 0.950 . S
H312 C283 0.949 . S
H313 C284 0.950 . S
H314 C288 0.950 . S
H315 C290 0.950 . S
H316 C293 0.950 . S
H317 C295 0.950 . S
C318 C319 1.443 . S
C318 N322 1.376 . S
C318 C356 1.389 . S
C319 C318 1.443 . S
C319 C320 1.340 . S
C319 H359 0.951 . S
C320 C319 1.340 . S
C320 C321 1.439 . S
C320 H360 0.950 . S
C321 C320 1.439 . S
C321 N322 1.374 . S
C321 C355 1.395 . S
N322 C318 1.376 . S
N322 C321 1.374 . S
N322 Co323 2.008 . S
Co323 N322 2.008 . S
Co323 N324 1.995 . S
Co323 N329 2.008 . S
Co323 N334 1.995 . S
Co323 N339 2.282 . S
Co323 N345 2.282 . S
N324 Co323 1.995 . S
N324 C325 1.376 . S
N324 C328 1.383 . S
C325 N324 1.376 . S
C325 C326 1.446 . S
C325 C355 1.391 . S
C326 C325 1.446 . S
C326 C327 1.339 . S
C326 H361 0.989 . S
C327 C326 1.339 . S
C327 C328 1.439 . S
C327 H362 0.950 . S
C328 N324 1.383 . S
C328 C327 1.439 . S
C328 C357 1.392 . S
N329 Co323 2.008 . S
N329 C330 1.376 . S
N329 C333 1.374 . S
C330 N329 1.376 . S
C330 C331 1.443 . S
C330 C357 1.389 . S
C331 C330 1.443 . S
C331 C332 1.340 . S
C331 H363 0.951 . S
C332 C331 1.340 . S
C332 C333 1.439 . S
C332 H364 0.950 . S
C333 N329 1.374 . S
C333 C332 1.439 . S
C333 C358 1.395 . S
N334 Co323 1.995 . S
N334 C335 1.376 . S
N334 C338 1.383 . S
C335 N334 1.376 . S
C335 C336 1.446 . S
C335 C358 1.391 . S
C336 C335 1.446 . S
C336 C337 1.339 . S
C336 H365 0.949 . S
C337 C336 1.339 . S
C337 C338 1.439 . S
C337 H366 0.950 . S
C338 N334 1.383 . S
C338 C337 1.439 . S
C338 C356 1.392 . S
N339 Co323 2.282 . S
N339 C342 1.332 . S
N339 C344 1.332 . S
C340 C341 1.386 . S
C340 C343 1.388 . S
C341 C340 1.386 . S
C341 C342 1.382 . S
C341 H367 0.950 . S
C342 N339 1.332 . S
C342 C341 1.382 . S
C342 H353 0.952 . S
C343 C340 1.388 . S
C343 C344 1.382 . S
C343 H368 0.950 . S
C344 N339 1.332 . S
C344 C343 1.382 . S
C344 H354 0.948 . S
N345 Co323 2.282 . S
N345 C349 1.332 . S
N345 C350 1.332 . S
C346 C347 1.388 . S
C346 C350 1.382 . S
C346 H369 0.950 . S
C347 C346 1.388 . S
C347 C348 1.386 . S
C348 C347 1.386 . S
C348 C349 1.382 . S
C348 H370 0.950 . S
C349 N345 1.332 . S
C349 C348 1.382 . S
C349 H351 0.952 . S
C350 N345 1.332 . S
C350 C346 1.382 . S
C350 H352 0.948 . S
H351 C349 0.952 . S
H352 C350 0.948 . S
H353 C342 0.952 . S
H354 C344 0.948 . S
C355 C321 1.395 . S
C355 C325 1.391 . S
C356 C318 1.389 . S
C356 C338 1.392 . S
C357 C328 1.392 . S
C357 C330 1.389 . S
C358 C333 1.395 . S
C358 C335 1.391 . S
H359 C319 0.951 . S
H360 C320 0.950 . S
H361 C326 0.989 . S
H362 C327 0.950 . S
H363 C331 0.951 . S
H364 C332 0.950 . S
H365 C336 0.949 . S
H366 C337 0.950 . S
H367 C341 0.950 . S
H368 C343 0.950 . S
H369 C346 0.950 . S
H370 C348 0.950 . S
C371 C372 1.443 . S
C371 N375 1.376 . S
C371 C409 1.389 . S
C372 C371 1.443 . S
C372 C373 1.340 . S
C372 H412 0.951 . S
C373 C372 1.340 . S
C373 C374 1.439 . S
C373 H413 0.950 . S
C374 C373 1.439 . S
C374 N375 1.374 . S
C374 C408 1.395 . S
N375 C371 1.376 . S
N375 C374 1.374 . S
N375 Co376 2.008 . S
Co376 N375 2.008 . S
Co376 N377 1.995 . S
Co376 N382 2.008 . S
Co376 N387 1.995 . S
Co376 N392 2.282 . S
Co376 N398 2.282 . S
N377 Co376 1.995 . S
N377 C378 1.376 . S
N377 C381 1.383 . S
C378 N377 1.376 . S
C378 C379 1.446 . S
C378 C408 1.391 . S
C379 C378 1.446 . S
C379 C380 1.339 . S
C379 H414 0.949 . S
C380 C379 1.339 . S
C380 C381 1.439 . S
C380 H415 0.950 . S
C381 N377 1.383 . S
C381 C380 1.439 . S
C381 C410 1.392 . S
N382 Co376 2.008 . S
N382 C383 1.376 . S
N382 C386 1.374 . S
C383 N382 1.376 . S
C383 C384 1.443 . S
C383 C410 1.389 . S
C384 C383 1.443 . S
C384 C385 1.340 . S
C384 H416 0.951 . S
C385 C384 1.340 . S
C385 C386 1.439 . S
C385 H417 0.950 1_655 S
C386 N382 1.374 . S
C386 C385 1.439 . S
C386 C411 1.395 . S
N387 Co376 1.995 . S
N387 C388 1.376 . S
N387 C391 1.383 . S
C388 N387 1.376 . S
C388 C389 1.446 . S
C388 C411 1.391 . S
C389 C388 1.446 . S
C389 C390 1.339 . S
C389 H418 0.949 1_655 S
C390 C389 1.339 . S
C390 C391 1.439 . S
C390 H419 0.950 . S
C391 N387 1.383 . S
C391 C390 1.439 . S
C391 C409 1.392 . S
N392 Co376 2.282 . S
N392 C395 1.332 . S
N392 C397 1.332 . S
C393 C394 1.386 . S
C393 C396 1.388 . S
C394 C393 1.386 . S
C394 C395 1.382 . S
C394 H420 0.950 . S
C395 N392 1.332 . S
C395 C394 1.382 . S
C395 H406 0.952 . S
C396 C393 1.388 . S
C396 C397 1.382 . S
C396 H421 0.950 . S
C397 N392 1.332 . S
C397 C396 1.382 . S
C397 H407 0.948 . S
N398 Co376 2.282 . S
N398 C402 1.332 . S
N398 C403 1.332 . S
C399 C400 1.388 . S
C399 C403 1.382 . S
C399 H422 0.950 . S
C400 C399 1.388 . S
C400 C401 1.386 . S
C401 C400 1.386 . S
C401 C402 1.382 . S
C401 H423 0.950 . S
C402 N398 1.332 . S
C402 C401 1.382 . S
C402 H404 0.952 . S
C403 N398 1.332 . S
C403 C399 1.382 . S
C403 H405 0.948 . S
H404 C402 0.952 . S
H405 C403 0.948 . S
H406 C395 0.952 . S
H407 C397 0.948 . S
C408 C374 1.395 . S
C408 C378 1.391 . S
C409 C371 1.389 . S
C409 C391 1.392 . S
C410 C381 1.392 . S
C410 C383 1.389 . S
C411 C386 1.395 . S
C411 C388 1.391 . S
H412 C372 0.951 . S
H413 C373 0.950 . S
H414 C379 0.949 . S
H415 C380 0.950 . S
H416 C384 0.951 . S
H417 C385 0.950 1_455 S
H418 C389 0.949 1_455 S
H419 C390 0.950 . S
H420 C394 0.950 . S
H421 C396 0.950 . S
H422 C399 0.950 . S
H423 C401 0.950 . S
C424 C425 1.443 . S
C424 N428 1.376 . S
C424 C462 1.389 . S
C425 C424 1.443 . S
C425 C426 1.340 . S
C425 H465 0.951 . S
C426 C425 1.340 . S
C426 C427 1.439 . S
C426 H466 0.950 . S
C427 C426 1.439 . S
C427 N428 1.374 . S
C427 C461 1.395 . S
N428 C424 1.376 . S
N428 C427 1.374 . S
N428 Co429 2.008 . S
Co429 N428 2.008 . S
Co429 N430 1.995 . S
Co429 N435 2.008 . S
Co429 N440 1.995 . S
Co429 N445 2.282 . S
Co429 N451 2.282 . S
N430 Co429 1.995 . S
N430 C431 1.376 . S
N430 C434 1.383 . S
C431 N430 1.376 . S
C431 C432 1.446 . S
C431 C461 1.391 . S
C432 C431 1.446 . S
C432 C433 1.339 . S
C432 H467 0.949 . S
C433 C432 1.339 . S
C433 C434 1.439 . S
C433 H468 0.950 . S
C434 N430 1.383 . S
C434 C433 1.439 . S
C434 C463 1.392 . S
N435 Co429 2.008 . S
N435 C436 1.376 . S
N435 C439 1.374 . S
C436 N435 1.376 . S
C436 C437 1.443 . S
C436 C463 1.389 . S
C437 C436 1.443 . S
C437 C438 1.340 . S
C437 H469 0.951 . S
C438 C437 1.340 . S
C438 C439 1.439 . S
C438 H470 0.950 . S
C439 N435 1.374 . S
C439 C438 1.439 . S
C439 C464 1.395 . S
N440 Co429 1.995 . S
N440 C441 1.376 . S
N440 C444 1.383 . S
C441 N440 1.376 . S
C441 C442 1.446 . S
C441 C464 1.391 . S
C442 C441 1.446 . S
C442 C443 1.339 . S
C442 H471 0.949 . S
C443 C442 1.339 . S
C443 C444 1.439 . S
C443 H472 0.950 . S
C444 N440 1.383 . S
C444 C443 1.439 . S
C444 C462 1.392 . S
N445 Co429 2.282 . S
N445 C448 1.332 . S
N445 C450 1.332 . S
C446 C447 1.386 . S
C446 C449 1.388 . S
C447 C446 1.386 . S
C447 C448 1.382 . S
C447 H473 0.950 . S
C448 N445 1.332 . S
C448 C447 1.382 . S
C448 H459 0.952 . S
C449 C446 1.388 . S
C449 C450 1.382 . S
C449 H474 0.950 . S
C450 N445 1.332 . S
C450 C449 1.382 . S
C450 H460 0.948 . S
N451 Co429 2.282 . S
N451 C455 1.332 . S
N451 C456 1.332 . S
C452 C453 1.388 . S
C452 C456 1.382 . S
C452 H475 0.950 . S
C453 C452 1.388 . S
C453 C454 1.386 . S
C454 C453 1.386 . S
C454 C455 1.382 . S
C454 H476 0.950 . S
C455 N451 1.332 . S
C455 C454 1.382 . S
C455 H457 0.952 . S
C456 N451 1.332 . S
C456 C452 1.382 . S
C456 H458 0.948 . S
H457 C455 0.952 . S
H458 C456 0.948 . S
H459 C448 0.952 . S
H460 C450 0.948 . S
C461 C427 1.395 . S
C461 C431 1.391 . S
C462 C424 1.389 . S
C462 C444 1.392 . S
C463 C434 1.392 . S
C463 C436 1.389 . S
C464 C439 1.395 . S
C464 C441 1.391 . S
H465 C425 0.951 . S
H466 C426 0.950 . S
H467 C432 0.949 . S
H468 C433 0.950 . S
H469 C437 0.951 . S
H470 C438 0.950 . S
H471 C442 0.949 . S
H472 C443 0.950 . S
H473 C447 0.950 . S
H474 C449 0.950 . S
H475 C452 0.950 . S
H476 C454 0.950 . S
C477 C478 1.443 . S
C477 N481 1.376 . S
C477 C515 1.389 . S
C478 C477 1.443 . S
C478 C479 1.340 . S
C478 H518 0.951 . S
C479 C478 1.340 . S
C479 C480 1.439 1_556 S
C479 H519 0.950 . S
C480 C479 1.439 1_554 S
C480 N481 1.374 1_554 S
C480 C514 1.395 . S
N481 C477 1.376 . S
N481 C480 1.374 1_556 S
N481 Co482 2.008 1_556 S
Co482 N481 2.008 1_554 S
Co482 N483 1.995 . S
Co482 N488 2.008 . S
Co482 N493 1.995 1_554 S
Co482 N498 2.282 . S
Co482 N504 2.282 . S
N483 Co482 1.995 . S
N483 C484 1.376 . S
N483 C487 1.383 . S
C484 N483 1.376 . S
C484 C485 1.446 . S
C484 C514 1.391 . S
C485 C484 1.446 . S
C485 C486 1.339 . S
C485 H520 0.949 . S
C486 C485 1.339 . S
C486 C487 1.439 . S
C486 H521 0.950 . S
C487 N483 1.383 . S
C487 C486 1.439 . S
C487 C516 1.392 . S
N488 Co482 2.008 . S
N488 C489 1.376 . S
N488 C492 1.374 . S
C489 N488 1.376 . S
C489 C490 1.443 . S
C489 C516 1.389 . S
C490 C489 1.443 . S
C490 C491 1.340 . S
C490 H522 0.951 . S
C491 C490 1.340 . S
C491 C492 1.439 . S
C491 H523 0.950 . S
C492 N488 1.374 . S
C492 C491 1.439 . S
C492 C517 1.395 . S
N493 Co482 1.995 1_556 S
N493 C494 1.376 1_556 S
N493 C497 1.383 . S
C494 N493 1.376 1_554 S
C494 C495 1.446 1_554 S
C494 C517 1.391 . S
C495 C494 1.446 1_556 S
C495 C496 1.339 . S
C495 H524 0.949 . S
C496 C495 1.339 . S
C496 C497 1.439 . S
C496 H525 0.950 . S
C497 N493 1.383 . S
C497 C496 1.439 . S
C497 C515 1.392 . S
N498 Co482 2.282 . S
N498 C501 1.332 . S
N498 C503 1.332 . S
C499 C500 1.386 . S
C499 C502 1.388 . S
C500 C499 1.386 . S
C500 C501 1.382 . S
C500 H526 0.950 . S
C501 N498 1.332 . S
C501 C500 1.382 . S
C501 H512 0.952 . S
C502 C499 1.388 . S
C502 C503 1.382 . S
C502 H527 0.950 . S
C503 N498 1.332 . S
C503 C502 1.382 . S
C503 H513 0.948 . S
N504 Co482 2.282 . S
N504 C508 1.332 . S
N504 C509 1.332 . S
C505 C506 1.388 . S
C505 C509 1.382 . S
C505 H528 0.950 1_554 S
C506 C505 1.388 . S
C506 C507 1.386 . S
C507 C506 1.386 . S
C507 C508 1.382 . S
C507 H529 0.950 . S
C508 N504 1.332 . S
C508 C507 1.382 . S
C508 H510 0.952 . S
C509 N504 1.332 . S
C509 C505 1.382 . S
C509 H511 0.948 . S
H510 C508 0.952 . S
H511 C509 0.948 . S
H512 C501 0.952 . S
H513 C503 0.948 . S
C514 C480 1.395 . S
C514 C484 1.391 . S
C515 C477 1.389 . S
C515 C497 1.392 . S
C516 C487 1.392 . S
C516 C489 1.389 . S
C517 C492 1.395 . S
C517 C494 1.391 . S
H518 C478 0.951 . S
H519 C479 0.950 . S
H520 C485 0.949 . S
H521 C486 0.950 . S
H522 C490 0.951 . S
H523 C491 0.950 . S
H524 C495 0.949 . S
H525 C496 0.950 . S
H526 C500 0.950 . S
H527 C502 0.950 . S
H528 C505 0.950 1_556 S
H529 C507 0.950 . S
C530 C531 1.443 . S
C530 N534 1.376 . S
C530 C568 1.389 . S
C531 C530 1.443 . S
C531 C532 1.340 . S
C531 H571 0.951 . S
C532 C531 1.340 . S
C532 C533 1.439 . S
C532 H572 0.950 . S
C533 C532 1.439 . S
C533 N534 1.374 . S
C533 C567 1.395 . S
N534 C530 1.376 . S
N534 C533 1.374 . S
N534 Co535 2.008 . S
Co535 N534 2.008 . S
Co535 N536 1.995 . S
Co535 N541 2.008 . S
Co535 N546 1.995 . S
Co535 N551 2.282 . S
Co535 N557 2.282 . S
N536 Co535 1.995 . S
N536 C537 1.376 . S
N536 C540 1.383 . S
C537 N536 1.376 . S
C537 C538 1.446 . S
C537 C567 1.391 . S
C538 C537 1.446 . S
C538 C539 1.339 . S
C538 H573 0.988 . S
C539 C538 1.339 . S
C539 C540 1.439 . S
C539 H574 0.950 . S
C540 N536 1.383 . S
C540 C539 1.439 . S
C540 C569 1.392 . S
N541 Co535 2.008 . S
N541 C542 1.376 . S
N541 C545 1.374 . S
C542 N541 1.376 . S
C542 C543 1.443 . S
C542 C569 1.389 . S
C543 C542 1.443 . S
C543 C544 1.340 . S
C543 H575 0.951 1_655 S
C544 C543 1.340 . S
C544 C545 1.439 . S
C544 H576 0.950 . S
C545 N541 1.374 . S
C545 C544 1.439 . S
C545 C570 1.395 . S
N546 Co535 1.995 . S
N546 C547 1.376 . S
N546 C550 1.383 . S
C547 N546 1.376 . S
C547 C548 1.446 . S
C547 C570 1.391 . S
C548 C547 1.446 . S
C548 C549 1.339 . S
C548 H577 0.949 . S
C549 C548 1.339 . S
C549 C550 1.439 . S
C549 H578 0.950 . S
C550 N546 1.383 . S
C550 C549 1.439 . S
C550 C568 1.392 . S
N551 Co535 2.282 . S
N551 C554 1.332 . S
N551 C556 1.332 . S
C552 C553 1.386 . S
C552 C555 1.388 . S
C553 C552 1.386 . S
C553 C554 1.382 . S
C553 H579 0.950 . S
C554 N551 1.332 . S
C554 C553 1.382 . S
C554 H565 0.952 . S
C555 C552 1.388 . S
C555 C556 1.382 . S
C555 H580 0.950 . S
C556 N551 1.332 . S
C556 C555 1.382 . S
C556 H566 0.948 . S
N557 Co535 2.282 . S
N557 C561 1.332 . S
N557 C562 1.332 . S
C558 C559 1.388 . S
C558 C562 1.382 . S
C558 H581 0.950 . S
C559 C558 1.388 . S
C559 C560 1.386 . S
C560 C559 1.386 . S
C560 C561 1.382 . S
C560 H582 0.950 . S
C561 N557 1.332 . S
C561 C560 1.382 . S
C561 H563 0.952 . S
C562 N557 1.332 . S
C562 C558 1.382 . S
C562 H564 0.948 . S
H563 C561 0.952 . S
H564 C562 0.948 . S
H565 C554 0.952 . S
H566 C556 0.948 . S
C567 C533 1.395 . S
C567 C537 1.391 . S
C568 C530 1.389 . S
C568 C550 1.392 . S
C569 C540 1.392 . S
C569 C542 1.389 . S
C570 C545 1.395 . S
C570 C547 1.391 . S
H571 C531 0.951 . S
H572 C532 0.950 . S
H573 C538 0.988 . S
H574 C539 0.950 . S
H575 C543 0.951 1_455 S
H576 C544 0.950 . S
H577 C548 0.949 . S
H578 C549 0.950 . S
H579 C553 0.950 . S
H580 C555 0.950 . S
H581 C558 0.950 . S
H582 C560 0.950 . S
C583 C584 1.443 . S
C583 N587 1.376 . S
C583 C621 1.389 . S
C584 C583 1.443 . S
C584 C585 1.340 . S
C584 H624 0.951 . S
C585 C584 1.340 . S
C585 C586 1.439 . S
C585 H625 0.950 . S
C586 C585 1.439 . S
C586 N587 1.374 . S
C586 C620 1.395 . S
N587 C583 1.376 . S
N587 C586 1.374 . S
N587 Co588 2.008 . S
Co588 N587 2.008 . S
Co588 N589 1.995 . S
Co588 N594 2.008 . S
Co588 N599 1.995 . S
Co588 N604 2.282 . S
Co588 N610 2.282 . S
N589 Co588 1.995 . S
N589 C590 1.376 . S
N589 C593 1.383 . S
C590 N589 1.376 . S
C590 C591 1.446 . S
C590 C620 1.391 . S
C591 C590 1.446 . S
C591 C592 1.339 . S
C591 H626 0.949 . S
C592 C591 1.339 . S
C592 C593 1.439 . S
C592 H627 0.950 . S
C593 N589 1.383 . S
C593 C592 1.439 . S
C593 C622 1.392 . S
N594 Co588 2.008 . S
N594 C595 1.376 . S
N594 C598 1.374 . S
C595 N594 1.376 . S
C595 C596 1.443 . S
C595 C622 1.389 . S
C596 C595 1.443 . S
C596 C597 1.340 . S
C596 H628 0.951 . S
C597 C596 1.340 . S
C597 C598 1.439 . S
C597 H629 0.950 1_455 S
C598 N594 1.374 . S
C598 C597 1.439 . S
C598 C623 1.395 . S
N599 Co588 1.995 . S
N599 C600 1.376 . S
N599 C603 1.383 . S
C600 N599 1.376 . S
C600 C601 1.446 . S
C600 C623 1.391 . S
C601 C600 1.446 . S
C601 C602 1.339 . S
C601 H630 0.949 1_455 S
C602 C601 1.339 . S
C602 C603 1.439 . S
C602 H631 0.950 . S
C603 N599 1.383 . S
C603 C602 1.439 . S
C603 C621 1.392 . S
N604 Co588 2.282 . S
N604 C607 1.332 . S
N604 C609 1.332 . S
C605 C606 1.386 . S
C605 C608 1.388 . S
C606 C605 1.386 . S
C606 C607 1.382 . S
C606 H632 0.950 . S
C607 N604 1.332 . S
C607 C606 1.382 . S
C607 H618 0.952 . S
C608 C605 1.388 . S
C608 C609 1.382 . S
C608 H633 0.950 . S
C609 N604 1.332 . S
C609 C608 1.382 . S
C609 H619 0.948 . S
N610 Co588 2.282 . S
N610 C614 1.332 . S
N610 C615 1.332 . S
C611 C612 1.388 . S
C611 C615 1.382 . S
C611 H634 0.950 . S
C612 C611 1.388 . S
C612 C613 1.386 . S
C613 C612 1.386 . S
C613 C614 1.382 . S
C613 H635 0.950 . S
C614 N610 1.332 . S
C614 C613 1.382 . S
C614 H616 0.952 . S
C615 N610 1.332 . S
C615 C611 1.382 . S
C615 H617 0.948 . S
H616 C614 0.952 . S
H617 C615 0.948 . S
H618 C607 0.952 . S
H619 C609 0.948 . S
C620 C586 1.395 . S
C620 C590 1.391 . S
C621 C583 1.389 . S
C621 C603 1.392 . S
C622 C593 1.392 . S
C622 C595 1.389 . S
C623 C598 1.395 . S
C623 C600 1.391 . S
H624 C584 0.951 . S
H625 C585 0.950 . S
H626 C591 0.949 . S
H627 C592 0.950 . S
H628 C596 0.951 . S
H629 C597 0.950 1_655 S
H630 C601 0.949 1_655 S
H631 C602 0.950 . S
H632 C606 0.950 . S
H633 C608 0.950 . S
H634 C611 0.950 . S
H635 C613 0.950 . S
C636 C637 1.443 . S
C636 N640 1.376 . S
C636 C674 1.389 . S
C637 C636 1.443 . S
C637 C638 1.340 . S
C637 H677 0.951 . S
C638 C637 1.340 . S
C638 C639 1.439 . S
C638 H678 0.950 . S
C639 C638 1.439 . S
C639 N640 1.374 . S
C639 C673 1.395 . S
N640 C636 1.376 . S
N640 C639 1.374 . S
N640 Co641 2.008 . S
Co641 N640 2.008 . S
Co641 N642 1.995 . S
Co641 N647 2.008 . S
Co641 N652 1.995 . S
Co641 N657 2.282 . S
Co641 N663 2.282 . S
N642 Co641 1.995 . S
N642 C643 1.376 . S
N642 C646 1.383 . S
C643 N642 1.376 . S
C643 C644 1.446 . S
C643 C673 1.391 . S
C644 C643 1.446 . S
C644 C645 1.339 . S
C644 H679 0.989 . S
C645 C644 1.339 . S
C645 C646 1.439 . S
C645 H680 0.950 . S
C646 N642 1.383 . S
C646 C645 1.439 . S
C646 C675 1.392 . S
N647 Co641 2.008 . S
N647 C648 1.376 . S
N647 C651 1.374 . S
C648 N647 1.376 . S
C648 C649 1.443 . S
C648 C675 1.389 . S
C649 C648 1.443 . S
C649 C650 1.340 . S
C649 H681 0.951 . S
C650 C649 1.340 . S
C650 C651 1.439 . S
C650 H682 0.950 . S
C651 N647 1.374 . S
C651 C650 1.439 . S
C651 C676 1.395 . S
N652 Co641 1.995 . S
N652 C653 1.376 . S
N652 C656 1.383 . S
C653 N652 1.376 . S
C653 C654 1.446 . S
C653 C676 1.391 . S
C654 C653 1.446 . S
C654 C655 1.339 . S
C654 H683 0.949 . S
C655 C654 1.339 . S
C655 C656 1.439 . S
C655 H684 0.950 . S
C656 N652 1.383 . S
C656 C655 1.439 . S
C656 C674 1.392 . S
N657 Co641 2.282 . S
N657 C660 1.332 . S
N657 C662 1.332 . S
C658 C659 1.386 . S
C658 C661 1.388 . S
C659 C658 1.386 . S
C659 C660 1.382 . S
C659 H685 0.950 . S
C660 N657 1.332 . S
C660 C659 1.382 . S
C660 H671 0.952 . S
C661 C658 1.388 . S
C661 C662 1.382 . S
C661 H686 0.950 . S
C662 N657 1.332 . S
C662 C661 1.382 . S
C662 H672 0.948 . S
N663 Co641 2.282 . S
N663 C667 1.332 . S
N663 C668 1.332 . S
C664 C665 1.388 . S
C664 C668 1.382 . S
C664 H687 0.950 . S
C665 C664 1.388 . S
C665 C666 1.386 . S
C666 C665 1.386 . S
C666 C667 1.382 . S
C666 H688 0.950 . S
C667 N663 1.332 . S
C667 C666 1.382 . S
C667 H669 0.952 . S
C668 N663 1.332 . S
C668 C664 1.382 . S
C668 H670 0.948 . S
H669 C667 0.952 . S
H670 C668 0.948 . S
H671 C660 0.952 . S
H672 C662 0.948 . S
C673 C639 1.395 . S
C673 C643 1.391 . S
C674 C636 1.389 . S
C674 C656 1.392 . S
C675 C646 1.392 . S
C675 C648 1.389 . S
C676 C651 1.395 . S
C676 C653 1.391 . S
H677 C637 0.951 . S
H678 C638 0.950 . S
H679 C644 0.989 . S
H680 C645 0.950 . S
H681 C649 0.951 . S
H682 C650 0.950 . S
H683 C654 0.949 . S
H684 C655 0.950 . S
H685 C659 0.950 . S
H686 C661 0.950 . S
H687 C664 0.950 . S
H688 C666 0.950 . S
C689 C690 1.443 . S
C689 N693 1.376 . S
C689 C727 1.389 . S
C690 C689 1.443 . S
C690 C691 1.340 . S
C690 H730 0.951 . S
C691 C690 1.340 . S
C691 C692 1.439 . S
C691 H731 0.950 . S
C692 C691 1.439 . S
C692 N693 1.374 . S
C692 C726 1.395 . S
N693 C689 1.376 . S
N693 C692 1.374 . S
N693 Co694 2.008 . S
Co694 N693 2.008 . S
Co694 N695 1.995 . S
Co694 N700 2.008 . S
Co694 N705 1.995 . S
Co694 N710 2.282 . S
Co694 N716 2.282 . S
N695 Co694 1.995 . S
N695 C696 1.376 . S
N695 C699 1.383 . S
C696 N695 1.376 . S
C696 C697 1.446 . S
C696 C726 1.391 . S
C697 C696 1.446 . S
C697 C698 1.339 . S
C697 H732 0.949 . S
C698 C697 1.339 . S
C698 C699 1.439 . S
C698 H733 0.950 . S
C699 N695 1.383 . S
C699 C698 1.439 . S
C699 C728 1.392 . S
N700 Co694 2.008 . S
N700 C701 1.376 . S
N700 C704 1.374 . S
C701 N700 1.376 . S
C701 C702 1.443 . S
C701 C728 1.389 . S
C702 C701 1.443 . S
C702 C703 1.340 . S
C702 H734 0.951 . S
C703 C702 1.340 . S
C703 C704 1.439 . S
C703 H735 0.950 1_455 S
C704 N700 1.374 . S
C704 C703 1.439 . S
C704 C729 1.395 . S
N705 Co694 1.995 . S
N705 C706 1.376 . S
N705 C709 1.383 . S
C706 N705 1.376 . S
C706 C707 1.446 . S
C706 C729 1.391 . S
C707 C706 1.446 . S
C707 C708 1.339 . S
C707 H736 0.949 1_455 S
C708 C707 1.339 . S
C708 C709 1.439 . S
C708 H737 0.950 . S
C709 N705 1.383 . S
C709 C708 1.439 . S
C709 C727 1.392 . S
N710 Co694 2.282 . S
N710 C713 1.332 . S
N710 C715 1.332 . S
C711 C712 1.386 . S
C711 C714 1.388 . S
C712 C711 1.386 . S
C712 C713 1.382 . S
C712 H738 0.950 . S
C713 N710 1.332 . S
C713 C712 1.382 . S
C713 H724 0.952 . S
C714 C711 1.388 . S
C714 C715 1.382 . S
C714 H739 0.950 . S
C715 N710 1.332 . S
C715 C714 1.382 . S
C715 H725 0.948 . S
N716 Co694 2.282 . S
N716 C720 1.332 . S
N716 C721 1.332 . S
C717 C718 1.388 . S
C717 C721 1.382 . S
C717 H740 0.950 . S
C718 C717 1.388 . S
C718 C719 1.386 . S
C719 C718 1.386 . S
C719 C720 1.382 . S
C719 H741 0.950 . S
C720 N716 1.332 . S
C720 C719 1.382 . S
C720 H722 0.952 . S
C721 N716 1.332 . S
C721 C717 1.382 . S
C721 H723 0.948 . S
H722 C720 0.952 . S
H723 C721 0.948 . S
H724 C713 0.952 . S
H725 C715 0.948 . S
C726 C692 1.395 . S
C726 C696 1.391 . S
C727 C689 1.389 . S
C727 C709 1.392 . S
C728 C699 1.392 . S
C728 C701 1.389 . S
C729 C704 1.395 . S
C729 C706 1.391 . S
H730 C690 0.951 . S
H731 C691 0.950 . S
H732 C697 0.949 . S
H733 C698 0.950 . S
H734 C702 0.951 . S
H735 C703 0.950 1_655 S
H736 C707 0.949 1_655 S
H737 C708 0.950 . S
H738 C712 0.950 . S
H739 C714 0.950 . S
H740 C717 0.950 . S
H741 C719 0.950 . S
C742 C743 1.437 1_554 S
C742 N746 1.383 . S
C742 C780 1.388 1_554 S
C743 C742 1.437 1_556 S
C743 C744 1.340 . S
C743 H783 0.951 . S
C744 C743 1.340 . S
C744 C745 1.439 1_556 S
C744 H784 0.950 . S
C745 C744 1.439 1_554 S
C745 N746 1.374 . S
C745 C779 1.395 . S
N746 C742 1.383 . S
N746 C745 1.374 . S
N746 Co747 2.008 . S
Co747 N746 2.008 . S
Co747 N748 1.995 . S
Co747 N753 2.008 . S
Co747 N758 1.995 . S
Co747 N763 2.282 . S
Co747 N769 2.282 1_554 S
N748 Co747 1.995 . S
N748 C749 1.376 . S
N748 C752 1.383 . S
C749 N748 1.376 . S
C749 C750 1.446 . S
C749 C779 1.391 . S
C750 C749 1.446 . S
C750 C751 1.339 . S
C750 H785 0.949 . S
C751 C750 1.339 . S
C751 C752 1.439 . S
C751 H786 0.950 . S
C752 N748 1.383 . S
C752 C751 1.439 . S
C752 C781 1.392 . S
N753 Co747 2.008 . S
N753 C754 1.376 . S
N753 C757 1.374 . S
C754 N753 1.376 . S
C754 C755 1.443 . S
C754 C781 1.389 . S
C755 C754 1.443 . S
C755 C756 1.340 . S
C755 H787 0.951 1_655 S
C756 C755 1.340 . S
C756 C757 1.439 . S
C756 H788 0.950 . S
C757 N753 1.374 . S
C757 C756 1.439 . S
C757 C782 1.395 . S
N758 Co747 1.995 . S
N758 C759 1.376 . S
N758 C762 1.383 . S
C759 N758 1.376 . S
C759 C760 1.446 . S
C759 C782 1.391 . S
C760 C759 1.446 . S
C760 C761 1.339 . S
C760 H789 0.949 . S
C761 C760 1.339 . S
C761 C762 1.439 . S
C761 H790 0.950 . S
C762 N758 1.383 . S
C762 C761 1.439 . S
C762 C780 1.388 1_554 S
N763 Co747 2.282 . S
N763 C766 1.332 . S
N763 C768 1.332 . S
C764 C765 1.386 . S
C764 C767 1.388 . S
C765 C764 1.386 . S
C765 C766 1.382 . S
C765 H791 0.950 . S
C766 N763 1.332 . S
C766 C765 1.382 . S
C766 H777 0.952 . S
C767 C764 1.388 . S
C767 C768 1.382 . S
C767 H792 0.950 . S
C768 N763 1.332 . S
C768 C767 1.382 . S
C768 H778 0.948 . S
N769 Co747 2.282 1_556 S
N769 C773 1.332 . S
N769 C774 1.332 . S
C770 C771 1.388 . S
C770 C774 1.382 . S
C770 H793 0.950 . S
C771 C770 1.388 . S
C771 C772 1.386 . S
C772 C771 1.386 . S
C772 C773 1.382 . S
C772 H794 0.950 . S
C773 N769 1.332 . S
C773 C772 1.382 . S
C773 H775 0.952 . S
C774 N769 1.332 . S
C774 C770 1.382 . S
C774 H776 0.948 . S
H775 C773 0.952 . S
H776 C774 0.948 . S
H777 C766 0.952 . S
H778 C768 0.948 . S
C779 C745 1.395 . S
C779 C749 1.391 . S
C780 C742 1.388 1_556 S
C780 C762 1.388 1_556 S
C781 C752 1.392 . S
C781 C754 1.389 . S
C782 C757 1.395 . S
C782 C759 1.391 . S
H783 C743 0.951 . S
H784 C744 0.950 . S
H785 C750 0.949 . S
H786 C751 0.950 . S
H787 C755 0.951 1_455 S
H788 C756 0.950 . S
H789 C760 0.949 . S
H790 C761 0.950 . S
H791 C765 0.950 . S
H792 C767 0.950 . S
H793 C770 0.950 . S
H794 C772 0.950 . S
C795 C796 1.443 . S
C795 N799 1.376 . S
C795 C833 1.389 . S
C796 C795 1.443 . S
C796 C797 1.340 . S
C796 H836 0.951 . S
C797 C796 1.340 . S
C797 C798 1.439 . S
C797 H837 0.950 . S
C798 C797 1.439 . S
C798 N799 1.374 . S
C798 C832 1.395 . S
N799 C795 1.376 . S
N799 C798 1.374 . S
N799 Co800 2.008 . S
Co800 N799 2.008 . S
Co800 N801 1.995 . S
Co800 N806 2.008 . S
Co800 N811 1.995 . S
Co800 N816 2.282 . S
Co800 N822 2.282 . S
N801 Co800 1.995 . S
N801 C802 1.376 . S
N801 C805 1.383 . S
C802 N801 1.376 . S
C802 C803 1.446 . S
C802 C832 1.391 . S
C803 C802 1.446 . S
C803 C804 1.339 . S
C803 H838 0.949 . S
C804 C803 1.339 . S
C804 C805 1.439 . S
C804 H839 0.950 . S
C805 N801 1.383 . S
C805 C804 1.439 . S
C805 C834 1.392 . S
N806 Co800 2.008 . S
N806 C807 1.376 . S
N806 C810 1.374 . S
C807 N806 1.376 . S
C807 C808 1.443 . S
C807 C834 1.389 . S
C808 C807 1.443 . S
C808 C809 1.340 . S
C808 H840 0.951 . S
C809 C808 1.340 . S
C809 C810 1.439 . S
C809 H841 0.950 . S
C810 N806 1.374 . S
C810 C809 1.439 . S
C810 C835 1.395 . S
N811 Co800 1.995 . S
N811 C812 1.376 . S
N811 C815 1.383 . S
C812 N811 1.376 . S
C812 C813 1.446 . S
C812 C835 1.391 . S
C813 C812 1.446 . S
C813 C814 1.339 . S
C813 H842 0.949 . S
C814 C813 1.339 . S
C814 C815 1.439 . S
C814 H843 0.950 . S
C815 N811 1.383 . S
C815 C814 1.439 . S
C815 C833 1.392 . S
N816 Co800 2.282 . S
N816 C819 1.332 . S
N816 C821 1.332 . S
C817 C818 1.386 . S
C817 C820 1.388 . S
C818 C817 1.386 . S
C818 C819 1.382 . S
C818 H844 0.950 . S
C819 N816 1.332 . S
C819 C818 1.382 . S
C819 H830 0.952 . S
C820 C817 1.388 . S
C820 C821 1.382 . S
C820 H845 0.950 . S
C821 N816 1.332 . S
C821 C820 1.382 . S
C821 H831 0.948 . S
N822 Co800 2.282 . S
N822 C826 1.332 . S
N822 C827 1.332 . S
C823 C824 1.388 . S
C823 C827 1.382 . S
C823 H846 0.950 . S
C824 C823 1.388 . S
C824 C825 1.386 . S
C825 C824 1.386 . S
C825 C826 1.382 . S
C825 H847 0.950 . S
C826 N822 1.332 . S
C826 C825 1.382 . S
C826 H828 0.952 . S
C827 N822 1.332 . S
C827 C823 1.382 . S
C827 H829 0.948 . S
H828 C826 0.952 . S
H829 C827 0.948 . S
H830 C819 0.952 . S
H831 C821 0.948 . S
C832 C798 1.395 . S
C832 C802 1.391 . S
C833 C795 1.389 . S
C833 C815 1.392 . S
C834 C805 1.392 . S
C834 C807 1.389 . S
C835 C810 1.395 . S
C835 C812 1.391 . S
H836 C796 0.951 . S
H837 C797 0.950 . S
H838 C803 0.949 . S
H839 C804 0.950 . S
H840 C808 0.951 . S
H841 C809 0.950 . S
H842 C813 0.949 . S
H843 C814 0.950 . S
H844 C818 0.950 . S
H845 C820 0.950 . S
H846 C823 0.950 . S
H847 C825 0.950 . S
C848 C849 1.387 . S
C848 H852 0.950 . S
C848 C857 1.390 . S
C849 C848 1.387 . S
C849 C851 1.387 . S
H850 C857 0.950 . S
C851 C849 1.387 . S
C851 C853 1.390 . S
C851 H855 0.950 . S
H852 C848 0.950 . S
C853 C851 1.390 . S
C853 C854 1.387 . S
C853 H856 0.950 . S
C854 C853 1.387 . S
C854 C857 1.387 . S
H855 C851 0.950 . S
H856 C853 0.950 . S
C857 C848 1.390 . S
C857 H850 0.950 . S
C857 C854 1.387 . S
C858 C859 1.387 . S
C858 H862 0.950 . S
C858 C867 1.390 . S
C859 C858 1.387 . S
C859 C861 1.387 . S
H860 C867 0.950 . S
C861 C859 1.387 . S
C861 C863 1.390 . S
C861 H865 0.950 . S
H862 C858 0.950 . S
C863 C861 1.390 . S
C863 C864 1.387 . S
C863 H866 0.950 . S
C864 C863 1.387 . S
C864 C867 1.387 . S
H865 C861 0.950 . S
H866 C863 0.950 . S
C867 C858 1.390 . S
C867 H860 0.950 . S
C867 C864 1.387 . S
C868 C869 1.387 . S
C868 H872 0.950 . S
C868 C877 1.390 . S
C869 C868 1.387 . S
C869 C871 1.387 . S
H870 C877 0.950 . S
C871 C869 1.387 . S
C871 C873 1.390 . S
C871 H875 0.950 . S
H872 C868 0.950 . S
C873 C871 1.390 . S
C873 C874 1.387 . S
C873 H876 0.950 . S
C874 C873 1.387 . S
C874 C877 1.387 . S
H875 C871 0.950 . S
H876 C873 0.950 . S
C877 C868 1.390 . S
C877 H870 0.950 . S
C877 C874 1.387 . S
C878 C879 1.387 . S
C878 H882 0.950 . S
C878 C887 1.390 . S
C879 C878 1.387 . S
C879 C881 1.387 . S
H880 C887 0.950 . S
C881 C879 1.387 . S
C881 C883 1.390 . S
C881 H885 0.950 . S
H882 C878 0.950 . S
C883 C881 1.390 . S
C883 C884 1.387 . S
C883 H886 0.950 . S
C884 C883 1.387 . S
C884 C887 1.387 . S
H885 C881 0.950 . S
H886 C883 0.950 . S
C887 C878 1.390 . S
C887 H880 0.950 . S
C887 C884 1.387 . S
C888 C889 1.387 . S
C888 H892 0.950 . S
C888 C897 1.390 . S
C889 C888 1.387 . S
C889 C891 1.387 . S
H890 C897 0.950 . S
C891 C889 1.387 . S
C891 C893 1.390 . S
C891 H895 0.950 . S
H892 C888 0.950 . S
C893 C891 1.390 . S
C893 C894 1.387 . S
C893 H896 0.950 . S
C894 C893 1.387 . S
C894 C897 1.387 . S
H895 C891 0.950 . S
H896 C893 0.950 . S
C897 C888 1.390 . S
C897 H890 0.950 . S
C897 C894 1.387 . S
C898 C899 1.387 . S
C898 H902 0.950 . S
C898 C907 1.390 . S
C899 C898 1.387 . S
C899 C901 1.387 . S
H900 C907 0.950 . S
C901 C899 1.387 . S
C901 C903 1.390 . S
C901 H905 0.950 . S
H902 C898 0.950 . S
C903 C901 1.390 . S
C903 C904 1.387 . S
C903 H906 0.950 . S
C904 C903 1.387 . S
C904 C907 1.387 . S
H905 C901 0.950 . S
H906 C903 0.950 . S
C907 C898 1.390 . S
C907 H900 0.950 . S
C907 C904 1.387 . S
C908 C909 1.387 . S
C908 H912 0.950 . S
C908 C917 1.390 . S
C909 C908 1.387 . S
C909 C911 1.387 . S
H910 C917 0.950 . S
C911 C909 1.387 . S
C911 C913 1.390 . S
C911 H915 0.950 . S
H912 C908 0.950 . S
C913 C911 1.390 . S
C913 C914 1.387 . S
C913 H916 0.950 . S
C914 C913 1.387 . S
C914 C917 1.387 . S
H915 C911 0.950 . S
H916 C913 0.950 . S
C917 C908 1.390 . S
C917 H910 0.950 . S
C917 C914 1.387 . S
C918 C919 1.387 . S
C918 H922 0.950 . S
C918 C927 1.390 . S
C919 C918 1.387 . S
C919 C921 1.387 . S
H920 C927 0.950 . S
C921 C919 1.387 . S
C921 C923 1.390 . S
C921 H925 0.950 . S
H922 C918 0.950 . S
C923 C921 1.390 . S
C923 C924 1.387 . S
C923 H926 0.950 . S
C924 C923 1.387 . S
C924 C927 1.387 . S
H925 C921 0.950 . S
H926 C923 0.950 . S
C927 C918 1.390 . S
C927 H920 0.950 . S
C927 C924 1.387 . S
C928 C929 1.387 . S
C928 H932 0.950 . S
C928 C937 1.390 1_445 S
C929 C928 1.387 . S
C929 C931 1.387 . S
H930 C937 0.950 . S
C931 C929 1.387 . S
C931 C933 1.390 1_445 S
C931 H935 0.950 . S
H932 C928 0.950 . S
C933 C931 1.390 1_665 S
C933 C934 1.387 . S
C933 H936 0.950 . S
C934 C933 1.387 . S
C934 C937 1.387 . S
H935 C931 0.950 . S
H936 C933 0.950 . S
C937 C928 1.390 1_665 S
C937 H930 0.950 . S
C937 C934 1.387 . S
C938 C939 1.387 . S
C938 H942 0.950 . S
C938 C947 1.390 1_655 S
C939 C938 1.387 . S
C939 C941 1.387 . S
H940 C947 0.950 . S
C941 C939 1.387 . S
C941 C943 1.390 1_655 S
C941 H945 0.950 . S
H942 C938 0.950 . S
C943 C941 1.390 1_455 S
C943 C944 1.387 . S
C943 H946 0.950 . S
C944 C943 1.387 . S
C944 C947 1.387 . S
H945 C941 0.950 . S
H946 C943 0.950 . S
C947 C938 1.390 1_455 S
C947 H940 0.950 . S
C947 C944 1.387 . S
C948 C949 1.387 . S
C948 H952 0.950 . S
C948 C957 1.390 . S
C949 C948 1.387 . S
C949 C951 1.387 . S
H950 C957 0.950 . S
C951 C949 1.387 . S
C951 C953 1.390 . S
C951 H955 0.950 . S
H952 C948 0.950 . S
C953 C951 1.390 . S
C953 C954 1.387 . S
C953 H956 0.950 . S
C954 C953 1.387 . S
C954 C957 1.387 . S
H955 C951 0.950 . S
H956 C953 0.950 . S
C957 C948 1.390 . S
C957 H950 0.950 . S
C957 C954 1.387 . S
C958 C959 1.387 1_554 S
C958 H962 0.950 . S
C958 C967 1.390 1_565 S
C959 C958 1.387 1_556 S
C959 C961 1.387 . S
H960 C967 0.950 . S
C961 C959 1.387 . S
C961 C963 1.390 1_565 S
C961 H965 0.950 . S
H962 C958 0.950 . S
C963 C961 1.390 1_545 S
C963 C964 1.387 . S
C963 H966 0.950 . S
C964 C963 1.387 . S
C964 C967 1.387 1_556 S
H965 C961 0.950 . S
H966 C963 0.950 . S
C967 C958 1.390 1_545 S
C967 H960 0.950 . S
C967 C964 1.387 1_554 S
C968 C969 1.387 . S
C968 H972 0.950 1_554 S
C968 C977 1.390 1_455 S
C969 C968 1.387 . S
C969 C971 1.387 . S
H970 C977 0.950 1_556 S
C971 C969 1.387 . S
C971 C973 1.390 1_455 S
C971 H975 0.950 . S
H972 C968 0.950 1_556 S
C973 C971 1.390 1_655 S
C973 C974 1.387 . S
C973 H976 0.950 . S
C974 C973 1.387 . S
C974 C977 1.387 . S
H975 C971 0.950 . S
H976 C973 0.950 . S
C977 C968 1.390 1_655 S
C977 H970 0.950 1_554 S
C977 C974 1.387 . S
C978 C979 1.387 . S
C978 H982 0.950 . S
C978 C987 1.390 . S
C979 C978 1.387 . S
C979 C981 1.387 . S
H980 C987 0.950 . S
C981 C979 1.387 . S
C981 C983 1.390 . S
C981 H985 0.950 . S
H982 C978 0.950 . S
C983 C981 1.390 . S
C983 C984 1.387 . S
C983 H986 0.950 . S
C984 C983 1.387 . S
C984 C987 1.387 . S
H985 C981 0.950 . S
H986 C983 0.950 . S
C987 C978 1.390 . S
C987 H980 0.950 . S
C987 C984 1.387 . S
C988 C989 1.387 . S
C988 H992 0.950 . S
C988 C997 1.390 1_545 S
C989 C988 1.387 . S
C989 C991 1.387 . S
H990 C997 0.950 . S
C991 C989 1.387 . S
C991 C993 1.390 1_545 S
C991 H995 0.950 . S
H992 C988 0.950 . S
C993 C991 1.390 1_565 S
C993 C994 1.387 . S
C993 H996 0.950 . S
C994 C993 1.387 . S
C994 C997 1.387 . S
H995 C991 0.950 . S
H996 C993 0.950 . S
C997 C988 1.390 1_565 S
C997 H990 0.950 . S
C997 C994 1.387 . S
C998 C999 1.387 . S
C998 H1002 0.950 . S
C998 C1007 1.390 1_445 S
C999 C998 1.387 . S
C999 C1001 1.387 . S
H1000 C1007 0.950 . S
C1001 C999 1.387 . S
C1001 C1003 1.390 1_445 S
C1001 H1005 0.950 . S
H1002 C998 0.950 . S
C1003 C1001 1.390 1_665 S
C1003 C1004 1.387 . S
C1003 H1006 0.950 . S
C1004 C1003 1.387 . S
C1004 C1007 1.387 . S
H1005 C1001 0.950 . S
H1006 C1003 0.950 . S
C1007 C998 1.390 1_665 S
C1007 H1000 0.950 . S
C1007 C1004 1.387 . S
C1008 C1009 1.387 . S
C1008 H1012 0.950 . S
C1008 C1017 1.390 . S
C1009 C1008 1.387 . S
C1009 C1011 1.387 . S
H1010 C1017 0.950 . S
C1011 C1009 1.387 . S
C1011 C1013 1.390 . S
C1011 H1015 0.950 . S
H1012 C1008 0.950 . S
C1013 C1011 1.390 . S
C1013 C1014 1.387 . S
C1013 H1016 0.950 . S
C1014 C1013 1.387 . S
C1014 C1017 1.387 . S
H1015 C1011 0.950 . S
H1016 C1013 0.950 . S
C1017 C1008 1.390 . S
C1017 H1010 0.950 . S
C1017 C1014 1.387 . S
C1018 C1019 1.387 . S
C1018 H1022 0.950 . S
C1018 C1027 1.390 . S
C1019 C1018 1.387 . S
C1019 C1021 1.387 . S
H1020 C1027 0.950 . S
C1021 C1019 1.387 . S
C1021 C1023 1.390 . S
C1021 H1025 0.950 . S
H1022 C1018 0.950 . S
C1023 C1021 1.390 . S
C1023 C1024 1.387 . S
C1023 H1026 0.950 . S
C1024 C1023 1.387 . S
C1024 C1027 1.387 . S
H1025 C1021 0.950 . S
H1026 C1023 0.950 . S
C1027 C1018 1.390 . S
C1027 H1020 0.950 . S
C1027 C1024 1.387 . S
C1028 C1029 1.387 . S
C1028 H1032 0.950 . S
C1028 C1037 1.390 . S
C1029 C1028 1.387 . S
C1029 C1031 1.387 . S
H1030 C1037 0.950 . S
C1031 C1029 1.387 . S
C1031 C1033 1.390 . S
C1031 H1035 0.950 . S
H1032 C1028 0.950 . S
C1033 C1031 1.390 . S
C1033 C1034 1.387 . S
C1033 H1036 0.950 . S
C1034 C1033 1.387 . S
C1034 C1037 1.387 . S
H1035 C1031 0.950 . S
H1036 C1033 0.950 . S
C1037 C1028 1.390 . S
C1037 H1030 0.950 . S
C1037 C1034 1.387 . S
C1038 C1039 1.387 . S
C1038 H1042 0.950 . S
C1038 C1047 1.390 . S
C1039 C1038 1.387 . S
C1039 C1041 1.387 . S
H1040 C1047 0.950 . S
C1041 C1039 1.387 . S
C1041 C1043 1.390 . S
C1041 H1045 0.950 . S
H1042 C1038 0.950 . S
C1043 C1041 1.390 . S
C1043 C1044 1.387 . S
C1043 H1046 0.950 . S
C1044 C1043 1.387 . S
C1044 C1047 1.387 . S
H1045 C1041 0.950 . S
H1046 C1043 0.950 . S
C1047 C1038 1.390 . S
C1047 H1040 0.950 . S
C1047 C1044 1.387 . S
C1048 C1049 1.387 . S
C1048 H1052 0.950 . S
C1048 C1057 1.390 . S
C1049 C1048 1.387 . S
C1049 C1051 1.387 . S
H1050 C1057 0.950 . S
C1051 C1049 1.387 . S
C1051 C1053 1.390 . S
C1051 H1055 0.950 . S
H1052 C1048 0.950 . S
C1053 C1051 1.390 . S
C1053 C1054 1.387 . S
C1053 H1056 0.950 . S
C1054 C1053 1.387 . S
C1054 C1057 1.387 . S
H1055 C1051 0.950 . S
H1056 C1053 0.950 . S
C1057 C1048 1.390 . S
C1057 H1050 0.950 . S
C1057 C1054 1.387 . S
C1058 C1059 1.387 . S
C1058 H1062 0.950 . S
C1058 C1067 1.390 . S
C1059 C1058 1.387 . S
C1059 C1061 1.387 . S
H1060 C1067 0.950 . S
C1061 C1059 1.387 . S
C1061 C1063 1.390 . S
C1061 H1065 0.950 . S
H1062 C1058 0.950 . S
C1063 C1061 1.390 . S
C1063 C1064 1.387 . S
C1063 H1066 0.950 . S
C1064 C1063 1.387 . S
C1064 C1067 1.387 . S
H1065 C1061 0.950 . S
H1066 C1063 0.950 . S
C1067 C1058 1.390 . S
C1067 H1060 0.950 . S
C1067 C1064 1.387 . S
C1068 C1069 1.387 . S
C1068 H1072 0.950 . S
C1068 C1077 1.390 . S
C1069 C1068 1.387 . S
C1069 C1071 1.387 . S
H1070 C1077 0.950 . S
C1071 C1069 1.387 . S
C1071 C1073 1.390 . S
C1071 H1075 0.950 . S
H1072 C1068 0.950 . S
C1073 C1071 1.390 . S
C1073 C1074 1.387 . S
C1073 H1076 0.950 . S
C1074 C1073 1.387 . S
C1074 C1077 1.387 . S
H1075 C1071 0.950 . S
H1076 C1073 0.950 . S
C1077 C1068 1.390 . S
C1077 H1070 0.950 . S
C1077 C1074 1.387 . S
C1078 C1079 1.387 . S
C1078 H1082 0.950 . S
C1078 C1087 1.390 . S
C1079 C1078 1.387 . S
C1079 C1081 1.387 . S
H1080 C1087 0.950 . S
C1081 C1079 1.387 . S
C1081 C1083 1.390 . S
C1081 H1085 0.950 . S
H1082 C1078 0.950 . S
C1083 C1081 1.390 . S
C1083 C1084 1.387 . S
C1083 H1086 0.950 . S
C1084 C1083 1.387 . S
C1084 C1087 1.387 . S
H1085 C1081 0.950 . S
H1086 C1083 0.950 . S
C1087 C1078 1.390 . S
C1087 H1080 0.950 . S
C1087 C1084 1.387 . S
C1088 C1089 1.387 . S
C1088 H1092 0.950 . S
C1088 C1097 1.390 1_556 S
C1089 C1088 1.387 . S
C1089 C1091 1.387 1_556 S
H1090 C1097 0.950 . S
C1091 C1089 1.387 1_554 S
C1091 C1093 1.390 . S
C1091 H1095 0.950 . S
H1092 C1088 0.950 . S
C1093 C1091 1.390 . S
C1093 C1094 1.387 . S
C1093 H1096 0.950 . S
C1094 C1093 1.387 . S
C1094 C1097 1.387 . S
H1095 C1091 0.950 . S
H1096 C1093 0.950 . S
C1097 C1088 1.390 1_554 S
C1097 H1090 0.950 . S
C1097 C1094 1.387 . S
C1098 C1099 1.387 . S
C1098 H1102 0.950 . S
C1098 C1107 1.390 . S
C1099 C1098 1.387 . S
C1099 C1101 1.387 . S
H1100 C1107 0.950 . S
C1101 C1099 1.387 . S
C1101 C1103 1.390 . S
C1101 H1105 0.950 . S
H1102 C1098 0.950 . S
C1103 C1101 1.390 . S
C1103 C1104 1.387 . S
C1103 H1106 0.950 . S
C1104 C1103 1.387 . S
C1104 C1107 1.387 . S
H1105 C1101 0.950 . S
H1106 C1103 0.950 . S
C1107 C1098 1.390 . S
C1107 H1100 0.950 . S
C1107 C1104 1.387 . S
C1108 C1109 1.387 . S
C1108 H1112 0.950 . S
C1108 C1117 1.390 . S
C1109 C1108 1.387 . S
C1109 C1111 1.387 . S
H1110 C1117 0.950 . S
C1111 C1109 1.387 . S
C1111 C1113 1.390 . S
C1111 H1115 0.950 . S
H1112 C1108 0.950 . S
C1113 C1111 1.390 . S
C1113 C1114 1.387 . S
C1113 H1116 0.950 . S
C1114 C1113 1.387 . S
C1114 C1117 1.387 . S
H1115 C1111 0.950 . S
H1116 C1113 0.950 . S
C1117 C1108 1.390 . S
C1117 H1110 0.950 . S
C1117 C1114 1.387 . S
C1118 C1119 1.387 . S
C1118 H1122 0.950 . S
C1118 C1127 1.390 . S
C1119 C1118 1.387 . S
C1119 C1121 1.387 . S
H1120 C1127 0.950 . S
C1121 C1119 1.387 . S
C1121 C1123 1.390 . S
C1121 H1125 0.950 . S
H1122 C1118 0.950 . S
C1123 C1121 1.390 . S
C1123 C1124 1.387 . S
C1123 H1126 0.950 . S
C1124 C1123 1.387 . S
C1124 C1127 1.387 . S
H1125 C1121 0.950 . S
H1126 C1123 0.950 . S
C1127 C1118 1.390 . S
C1127 H1120 0.950 . S
C1127 C1124 1.387 . S
C1128 C1129 1.387 . S
C1128 H1132 0.950 . S
C1128 C1137 1.390 . S
C1129 C1128 1.387 . S
C1129 C1131 1.387 . S
H1130 C1137 0.950 . S
C1131 C1129 1.387 . S
C1131 C1133 1.390 . S
C1131 H1135 0.950 . S
H1132 C1128 0.950 . S
C1133 C1131 1.390 . S
C1133 C1134 1.387 . S
C1133 H1136 0.950 . S
C1134 C1133 1.387 . S
C1134 C1137 1.387 . S
H1135 C1131 0.950 . S
H1136 C1133 0.950 . S
C1137 C1128 1.390 . S
C1137 H1130 0.950 . S
C1137 C1134 1.387 . S
C1138 C1139 1.387 . S
C1138 H1142 0.950 . S
C1138 C1147 1.390 . S
C1139 C1138 1.387 . S
C1139 C1141 1.387 . S
H1140 C1147 0.950 . S
C1141 C1139 1.387 . S
C1141 C1143 1.390 . S
C1141 H1145 0.950 . S
H1142 C1138 0.950 . S
C1143 C1141 1.390 . S
C1143 C1144 1.387 . S
C1143 H1146 0.950 . S
C1144 C1143 1.387 . S
C1144 C1147 1.387 . S
H1145 C1141 0.950 . S
H1146 C1143 0.950 . S
C1147 C1138 1.390 . S
C1147 H1140 0.950 . S
C1147 C1144 1.387 . S
C1148 C1149 1.387 . S
C1148 H1152 0.950 . S
C1148 C1157 1.390 . S
C1149 C1148 1.387 . S
C1149 C1151 1.387 . S
H1150 C1157 0.950 . S
C1151 C1149 1.387 . S
C1151 C1153 1.390 . S
C1151 H1155 0.950 . S
H1152 C1148 0.950 . S
C1153 C1151 1.390 . S
C1153 C1154 1.387 . S
C1153 H1156 0.950 . S
C1154 C1153 1.387 . S
C1154 C1157 1.387 . S
H1155 C1151 0.950 . S
H1156 C1153 0.950 . S
C1157 C1148 1.390 . S
C1157 H1150 0.950 . S
C1157 C1154 1.387 . S
C1158 C1159 1.387 . S
C1158 H1162 0.950 . S
C1158 C1167 1.390 . S
C1159 C1158 1.387 . S
C1159 C1161 1.387 . S
H1160 C1167 0.950 . S
C1161 C1159 1.387 . S
C1161 C1163 1.390 1_554 S
C1161 H1165 0.950 . S
H1162 C1158 0.950 . S
C1163 C1161 1.390 1_556 S
C1163 C1164 1.387 . S
C1163 H1166 0.950 . S
C1164 C1163 1.387 . S
C1164 C1167 1.387 1_556 S
H1165 C1161 0.950 . S
H1166 C1163 0.950 . S
C1167 C1158 1.390 . S
C1167 H1160 0.950 . S
C1167 C1164 1.387 1_554 S
C849 C356 2.270 . S
C854 C38 2.270 . S
C859 C393 2.139 . S
C864 C75 2.139 . S
C869 C144 2.270 . S
C874 C250 2.279 . S
C879 C181 2.138 . S
C884 C287 2.138 . S
C889 C462 2.271 . S
C894 C780 2.280 . S
C899 C817 2.138 . S
C904 C499 2.138 . S
C909 C568 2.271 . S
C914 C674 2.271 . S
C919 C605 2.138 . S
C924 C711 2.138 . S
C929 C39 2.749 . S
C934 C569 2.749 . S
C939 C82 1.987 . S
C944 C612 1.987 . S
C949 C145 2.751 . S
C954 C463 2.751 . S
C959 C188 1.984 1_556 S
C964 C506 1.984 1_556 S
C969 C251 2.749 . S
C974 C781 2.749 . S
C979 C824 1.987 . S
C984 C294 1.987 . S
C989 C357 2.749 . S
C994 C675 2.749 . S
C999 C718 1.987 . S
C1004 C400 1.987 . S
C1009 C728 1.203 . S
C1014 C29 1.212 . S
C1019 C92 1.202 . S
C1024 C771 1.211 . S
C1029 C834 1.203 . S
C1034 C135 1.213 1_554 S
C1039 C665 1.211 . S
C1044 C198 1.202 . S
C1049 C622 1.205 . S
C1054 C241 1.214 . S
C1059 C304 1.203 . S
C1064 C453 1.212 1_554 S
C1069 C347 1.214 . S
C1074 C516 1.205 . S
C1079 C410 1.202 . S
C1084 C559 1.211 . S
C1089 C727 1.720 . S
C1094 C22 1.711 . S
C1099 C91 1.720 . S
C1104 C764 1.712 . S
C1109 C128 1.712 . S
C1114 C833 1.721 . S
C1119 C658 1.711 . S
C1124 C197 1.719 . S
C1129 C621 1.721 . S
C1134 C234 1.713 . S
C1139 C446 1.712 . S
C1144 C303 1.720 . S
C1149 C340 1.711 . S
C1154 C515 1.720 . S
C1159 C552 1.712 . S
C1164 C409 1.720 . S
