# Generated by pormake.
# Topology atn, (4)-cn, num edge types: 1
# Building blocks:
#     Node 0, Type 0, BuildingBlock: ICAMEG_clean_sbu_1, # of connection points: 4
#     Node 1, Type 0, BuildingBlock: ICAMEG_clean_sbu_1, # of connection points: 4
#     Node 2, Type 0, BuildingBlock: ICAMEG_clean_sbu_1, # of connection points: 4
#     Node 3, Type 0, BuildingBlock: ICAMEG_clean_sbu_1, # of connection points: 4
#     Node 4, Type 0, BuildingBlock: ICAMEG_clean_sbu_1, # of connection points: 4
#     Node 5, Type 0, BuildingBlock: ICAMEG_clean_sbu_1, # of connection points: 4
#     Node 6, Type 0, BuildingBlock: ICAMEG_clean_sbu_1, # of connection points: 4
#     Node 7, Type 0, BuildingBlock: ICAMEG_clean_sbu_1, # of connection points: 4
#     Node 8, Type 0, BuildingBlock: ICAMEG_clean_sbu_1, # of connection points: 4
#     Node 9, Type 0, BuildingBlock: ICAMEG_clean_sbu_1, # of connection points: 4
#     Node 10, Type 0, BuildingBlock: ICAMEG_clean_sbu_1, # of connection points: 4
#     Node 11, Type 0, BuildingBlock: ICAMEG_clean_sbu_1, # of connection points: 4
#     Node 12, Type 0, BuildingBlock: ICAMEG_clean_sbu_1, # of connection points: 4
#     Node 13, Type 0, BuildingBlock: ICAMEG_clean_sbu_1, # of connection points: 4
#     Node 14, Type 0, BuildingBlock: ICAMEG_clean_sbu_1, # of connection points: 4
#     Node 15, Type 0, BuildingBlock: ICAMEG_clean_sbu_1, # of connection points: 4
#     Edge 16, Type (0, 0), BuildingBlock: TEMPAE_clean_linker_10, # of connection points: 2
#     Edge 17, Type (0, 0), BuildingBlock: TEMPAE_clean_linker_10, # of connection points: 2
#     Edge 18, Type (0, 0), BuildingBlock: TEMPAE_clean_linker_10, # of connection points: 2
#     Edge 19, Type (0, 0), BuildingBlock: TEMPAE_clean_linker_10, # of connection points: 2
#     Edge 20, Type (0, 0), BuildingBlock: TEMPAE_clean_linker_10, # of connection points: 2
#     Edge 21, Type (0, 0), BuildingBlock: TEMPAE_clean_linker_10, # of connection points: 2
#     Edge 22, Type (0, 0), BuildingBlock: TEMPAE_clean_linker_10, # of connection points: 2
#     Edge 23, Type (0, 0), BuildingBlock: TEMPAE_clean_linker_10, # of connection points: 2
#     Edge 24, Type (0, 0), BuildingBlock: TEMPAE_clean_linker_10, # of connection points: 2
#     Edge 25, Type (0, 0), BuildingBlock: TEMPAE_clean_linker_10, # of connection points: 2
#     Edge 26, Type (0, 0), BuildingBlock: TEMPAE_clean_linker_10, # of connection points: 2
#     Edge 27, Type (0, 0), BuildingBlock: TEMPAE_clean_linker_10, # of connection points: 2
#     Edge 28, Type (0, 0), BuildingBlock: TEMPAE_clean_linker_10, # of connection points: 2
#     Edge 29, Type (0, 0), BuildingBlock: TEMPAE_clean_linker_10, # of connection points: 2
#     Edge 30, Type (0, 0), BuildingBlock: TEMPAE_clean_linker_10, # of connection points: 2
#     Edge 31, Type (0, 0), BuildingBlock: TEMPAE_clean_linker_10, # of connection points: 2
#     Edge 32, Type (0, 0), BuildingBlock: TEMPAE_clean_linker_10, # of connection points: 2
#     Edge 33, Type (0, 0), BuildingBlock: TEMPAE_clean_linker_10, # of connection points: 2
#     Edge 34, Type (0, 0), BuildingBlock: TEMPAE_clean_linker_10, # of connection points: 2
#     Edge 35, Type (0, 0), BuildingBlock: TEMPAE_clean_linker_10, # of connection points: 2
#     Edge 36, Type (0, 0), BuildingBlock: TEMPAE_clean_linker_10, # of connection points: 2
#     Edge 37, Type (0, 0), BuildingBlock: TEMPAE_clean_linker_10, # of connection points: 2
#     Edge 38, Type (0, 0), BuildingBlock: TEMPAE_clean_linker_10, # of connection points: 2
#     Edge 39, Type (0, 0), BuildingBlock: TEMPAE_clean_linker_10, # of connection points: 2
#     Edge 40, Type (0, 0), BuildingBlock: TEMPAE_clean_linker_10, # of connection points: 2
#     Edge 41, Type (0, 0), BuildingBlock: TEMPAE_clean_linker_10, # of connection points: 2
#     Edge 42, Type (0, 0), BuildingBlock: TEMPAE_clean_linker_10, # of connection points: 2
#     Edge 43, Type (0, 0), BuildingBlock: TEMPAE_clean_linker_10, # of connection points: 2
#     Edge 44, Type (0, 0), BuildingBlock: TEMPAE_clean_linker_10, # of connection points: 2
#     Edge 45, Type (0, 0), BuildingBlock: TEMPAE_clean_linker_10, # of connection points: 2
#     Edge 46, Type (0, 0), BuildingBlock: TEMPAE_clean_linker_10, # of connection points: 2
#     Edge 47, Type (0, 0), BuildingBlock: TEMPAE_clean_linker_10, # of connection points: 2
# Relax obj value: 0.024
# Max RMSD: 0.061
# Mean RMSD: 0.061
data_MOF--net-atn--node1-ICAMEG_clean_sbu_1--edge1-TEMPAE_clean_linker_10
_symmetry_space_group_name_H-M    P1
_symmetry_Int_Tables_number       1
_symmetry_cell_setting            triclinic
loop_
_symmetry_equiv_pos_as_xyz
'x, y, z'
_cell_length_a     62.71285
_cell_length_b     62.72104
_cell_length_c     30.507833
_cell_angle_alpha  89.995787
_cell_angle_beta   89.989824
_cell_angle_gamma 89.995843
loop_
_atom_site_label
_atom_site_type_symbol
_atom_site_fract_x
_atom_site_fract_y
_atom_site_fract_z
_atom_type_partial_charge
Co0 Co 0.17853 0.34584 0.99578 0.0
Co1 Co 0.2147 0.38352 0.02749 0.0
O2 O 0.19107 0.37422 0.99022 0.0
C3 C 0.17806 0.35655 0.89924 0.0
O4 O 0.18612 0.3755 0.90645 0.0
C5 C 0.19937 0.42704 0.05332 0.0
O6 O 0.20215 0.42172 0.09459 0.0
O7 O 0.19687 0.37771 0.08044 0.0
O8 O 0.18279 0.34625 0.06082 0.0
H9 H 0.26376 0.37901 0.15726 0.0
H10 H 0.154 0.38136 0.95356 0.0
O11 O 0.17399 0.3438 0.93066 0.0
H12 H 0.10779 0.3544 0.07172 0.0
H13 H 0.12658 0.28692 0.9613 0.0
H14 H 0.19045 0.30715 0.04587 0.0
H15 H 0.14305 0.33835 0.05867 0.0
H16 H 0.14142 0.32326 0.95575 0.0
O17 O 0.20291 0.41338 0.02319 0.0
H18 H 0.23468 0.36711 0.10861 0.0
H19 H 0.24407 0.42112 0.02689 0.0
H20 H 0.17603 0.27072 0.05274 0.0
H21 H 0.11882 0.39764 0.96507 0.0
H22 H 0.14386 0.26041 0.01024 0.0
H23 H 0.09537 0.38419 0.02456 0.0
O24 O 0.20704 0.33314 0.98707 0.0
H25 H 0.22897 0.41371 0.87749 0.0
H26 H 0.25895 0.37193 0.9997 0.0
H27 H 0.28066 0.37812 0.93366 0.0
H28 H 0.26573 0.39921 0.87196 0.0
H29 H 0.20767 0.40687 0.94385 0.0
H30 H 0.2732 0.43365 0.07471 0.0
H31 H 0.28323 0.41251 0.14041 0.0
O32 O 0.22717 0.35371 0.03056 0.0
C33 C 0.18717 0.36036 0.08956 0.0
C34 C 0.25955 0.38835 0.12872 0.0
C35 C 0.26484 0.41902 0.08239 0.0
N36 N 0.23771 0.39338 0.06494 0.0
C37 C 0.24311 0.38169 0.10105 0.0
C38 C 0.24833 0.41185 0.05545 0.0
C39 C 0.27046 0.40715 0.11925 0.0
C40 C 0.14388 0.37509 0.97893 0.0
N41 N 0.15051 0.3585 0.00456 0.0
C42 C 0.12396 0.38452 0.98557 0.0
C43 C 0.11083 0.37701 0.01901 0.0
C44 C 0.11778 0.3603 0.04545 0.0
C45 C 0.13779 0.35126 0.03783 0.0
C46 C 0.14057 0.29125 0.98007 0.0
C47 C 0.17635 0.30283 0.02755 0.0
C48 C 0.14907 0.31177 0.97699 0.0
N49 N 0.16665 0.31738 1.00083 0.0
C50 C 0.16831 0.28216 0.03145 0.0
C51 C 0.15027 0.27638 0.00755 0.0
C52 C 0.22432 0.33684 0.0076 0.0
C53 C 0.23565 0.40446 0.90412 0.0
C54 C 0.25218 0.38088 0.97282 0.0
C55 C 0.26463 0.38445 0.93559 0.0
C56 C 0.25626 0.39631 0.90102 0.0
N57 N 0.23191 0.38884 0.97557 0.0
C58 C 0.22366 0.40056 0.94186 0.0
Co59 Co 0.65756 0.17916 0.00519 0.0
Co60 Co 0.62096 0.21629 0.03922 0.0
O61 O 0.62933 0.19258 1.00064 0.0
C62 C 0.65242 0.18708 0.91002 0.0
O63 O 0.64329 0.20534 0.91931 0.0
C64 C 0.58257 0.18751 0.03341 0.0
O65 O 0.59517 0.17104 0.02812 0.0
O66 O 0.62744 0.19848 0.09188 0.0
O67 O 0.65801 0.1832 0.07033 0.0
H68 H 0.63016 0.26579 0.16722 0.0
H69 H 0.62399 0.15544 0.95738 0.0
O70 O 0.65849 0.1746 0.94039 0.0
H71 H 0.64461 0.10884 0.08046 0.0
H72 H 0.714 0.12491 0.96829 0.0
H73 H 0.6972 0.18956 0.05354 0.0
H74 H 0.66209 0.14365 0.06991 0.0
H75 H 0.67826 0.1412 0.9642 0.0
O76 O 0.5904 0.20601 0.0399 0.0
H77 H 0.6403 0.23653 0.11737 0.0
H78 H 0.5834 0.24553 0.04413 0.0
H79 H 0.73308 0.17367 0.05893 0.0
H80 H 0.60636 0.12055 0.96625 0.0
H81 H 0.74167 0.1411 0.01608 0.0
H82 H 0.61658 0.09703 0.02831 0.0
O83 O 0.67127 0.20723 0.99659 0.0
H84 H 0.58868 0.23019 0.8911 0.0
H85 H 0.63184 0.26059 0.01085 0.0
H86 H 0.62446 0.28227 0.94523 0.0
H87 H 0.60266 0.26712 0.88481 0.0
H88 H 0.59677 0.20892 0.95695 0.0
H89 H 0.57256 0.27474 0.09343 0.0
H90 H 0.59607 0.28511 0.15538 0.0
O91 O 0.65099 0.22819 0.03893 0.0
C92 C 0.64459 0.18825 0.09998 0.0
C93 C 0.61981 0.26146 0.14028 0.0
C94 C 0.58747 0.26646 0.09889 0.0
N95 N 0.61253 0.23942 0.07772 0.0
C96 C 0.62549 0.24494 0.11188 0.0
C97 C 0.59367 0.24987 0.07115 0.0
C98 C 0.60067 0.27228 0.13364 0.0
C99 C 0.62868 0.14519 0.98417 0.0
N100 N 0.64399 0.15162 0.01313 0.0
C101 C 0.61858 0.1255 0.98916 0.0
C102 C 0.62429 0.11233 0.02403 0.0
C103 C 0.63998 0.11896 0.05335 0.0
C104 C 0.64974 0.13876 0.04734 0.0
C105 C 0.71043 0.13905 0.98723 0.0
C106 C 0.70076 0.17529 0.03508 0.0
C107 C 0.69023 0.14837 0.98501 0.0
N108 N 0.68558 0.16618 0.009 0.0
C109 C 0.72113 0.16641 0.03814 0.0
C110 C 0.72595 0.14815 0.01405 0.0
C111 C 0.66777 0.22482 0.01605 0.0
C112 C 0.59814 0.237 0.91727 0.0
C113 C 0.62247 0.2538 0.98461 0.0
C114 C 0.61827 0.2662 0.94759 0.0
C115 C 0.60602 0.2577 0.91373 0.0
N116 N 0.61469 0.23349 0.98787 0.0
C117 C 0.60266 0.22507 0.95479 0.0
Co118 Co 0.82747 0.65739 0.00138 0.0
Co119 Co 0.79114 0.62129 0.04114 0.0
O120 O 0.81396 0.62913 0.99974 0.0
C121 C 0.82437 0.64561 0.90537 0.0
O122 O 0.81561 0.62715 0.9143 0.0
C123 C 0.81957 0.58277 0.03382 0.0
O124 O 0.836 0.5953 0.02741 0.0
O125 O 0.81035 0.62803 0.09141 0.0
O126 O 0.8251 0.65833 0.06695 0.0
H127 H 0.74524 0.63176 0.17435 0.0
H128 H 0.85065 0.62212 0.95539 0.0
O129 O 0.83013 0.6583 0.93575 0.0
H130 H 0.89979 0.64744 0.06999 0.0
H131 H 0.88013 0.71403 0.95671 0.0
H132 H 0.81792 0.69732 0.04944 0.0
H133 H 0.86444 0.66396 0.06108 0.0
H134 H 0.86412 0.67811 0.9556 0.0
O135 O 0.80121 0.59067 0.04154 0.0
H136 H 0.77318 0.64132 0.12094 0.0
H137 H 0.76177 0.58405 0.05043 0.0
H138 H 0.83354 0.73338 0.05187 0.0
H139 H 0.88595 0.60551 0.96254 0.0
H140 H 0.86488 0.74193 0.00526 0.0
H141 H 0.91083 0.61806 0.02035 0.0
O142 O 0.79916 0.67079 0.99494 0.0
H143 H 0.77259 0.58751 0.89659 0.0
H144 H 0.74633 0.63267 0.01734 0.0
H145 H 0.72278 0.62501 0.95469 0.0
H146 H 0.73584 0.60222 0.89375 0.0
H147 H 0.79572 0.59582 0.95958 0.0
H148 H 0.73385 0.57379 0.10329 0.0
H149 H 0.72536 0.59777 0.16569 0.0
O150 O 0.77948 0.65142 0.04136 0.0
C151 C 0.8208 0.64523 0.0977 0.0
C152 C 0.74875 0.6212 0.14723 0.0
C153 C 0.74238 0.58865 0.10738 0.0
N154 N 0.76901 0.61334 0.08245 0.0
C155 C 0.76452 0.62656 0.11683 0.0
C156 C 0.75825 0.59453 0.07761 0.0
C157 C 0.73762 0.60212 0.14237 0.0
C158 C 0.8614 0.62802 0.98003 0.0
N159 N 0.85541 0.64419 0.00739 0.0
C160 C 0.88138 0.61839 0.98421 0.0
C161 C 0.89531 0.62539 0.01672 0.0
C162 C 0.88911 0.64185 0.04461 0.0
C163 C 0.86901 0.65109 0.03947 0.0
C164 C 0.86652 0.71048 0.97727 0.0
C165 C 0.83166 0.70087 0.02932 0.0
C166 C 0.85737 0.69018 0.97674 0.0
N167 N 0.84025 0.68556 0.00281 0.0
C168 C 0.84039 0.72134 0.03072 0.0
C169 C 0.85796 0.72613 0.00452 0.0
C170 C 0.78218 0.66774 0.01684 0.0
C171 C 0.76671 0.59747 0.92293 0.0
C172 C 0.75225 0.62293 0.99078 0.0
C173 C 0.73878 0.61855 0.95547 0.0
C174 C 0.74611 0.60574 0.92133 0.0
N175 N 0.77249 0.61482 0.99207 0.0
C176 C 0.77973 0.60219 0.95877 0.0
Co177 Co 0.35348 0.82944 0.00659 0.0
Co178 Co 0.3864 0.79076 0.04842 0.0
O179 O 0.38017 0.81336 0.00599 0.0
C180 C 0.35581 0.81509 0.91449 0.0
O181 O 0.35887 0.79563 0.92908 0.0
C182 C 0.42544 0.81798 0.0447 0.0
O183 O 0.41303 0.83479 0.04301 0.0
O184 O 0.38026 0.81056 0.09821 0.0
O185 O 0.35226 0.82884 0.07206 0.0
H186 H 0.37267 0.74628 0.18238 0.0
H187 H 0.38974 0.84694 0.95566 0.0
O188 O 0.35384 0.83053 0.94121 0.0
H189 H 0.37306 0.90167 0.0665 0.0
H190 H 0.30315 0.88673 0.95497 0.0
H191 H 0.31263 0.82565 0.05487 0.0
H192 H 0.35213 0.86845 0.06272 0.0
H193 H 0.33704 0.86678 0.95631 0.0
O194 O 0.41738 0.79944 0.04898 0.0
H195 H 0.36487 0.77429 0.12792 0.0
H196 H 0.42213 0.75979 0.0598 0.0
H197 H 0.27854 0.84528 0.05492 0.0
H198 H 0.41086 0.88009 0.95787 0.0
H199 H 0.27364 0.87607 0.00468 0.0
H200 H 0.40262 0.90769 0.01373 0.0
O201 O 0.33695 0.80253 0.0041 0.0
H202 H 0.4186 0.77047 0.90342 0.0
H203 H 0.37338 0.74626 0.02596 0.0
H204 H 0.37979 0.72222 0.96344 0.0
H205 H 0.40259 0.73425 0.90162 0.0
H206 H 0.41157 0.79411 0.96635 0.0
H207 H 0.43065 0.73175 0.11373 0.0
H208 H 0.40577 0.72479 0.17546 0.0
O209 O 0.35577 0.7808 0.04786 0.0
C210 C 0.36431 0.82297 0.10349 0.0
C211 C 0.3836 0.74912 0.15556 0.0
C212 C 0.41616 0.74099 0.11706 0.0
N213 N 0.39295 0.76857 0.09058 0.0
C214 C 0.37924 0.76492 0.12457 0.0
C215 C 0.41128 0.75693 0.08669 0.0
C216 C 0.40219 0.73708 0.15168 0.0
C217 C 0.38589 0.85898 0.97972 0.0
N218 N 0.36972 0.85574 0.00901 0.0
C219 C 0.39798 0.87768 0.98096 0.0
C220 C 0.39338 0.89314 0.01238 0.0
C221 C 0.37681 0.88975 0.04204 0.0
C222 C 0.36509 0.87085 0.03987 0.0
C223 C 0.30512 0.8734 0.97712 0.0
C224 C 0.31068 0.83915 0.03321 0.0
C225 C 0.32426 0.86203 0.978 0.0
N226 N 0.3269 0.84524 0.00606 0.0
C227 C 0.29131 0.85015 0.03325 0.0
C228 C 0.28857 0.8674 0.00502 0.0
C229 C 0.33914 0.78515 0.02524 0.0
C230 C 0.40869 0.76501 0.93023 0.0
C231 C 0.38327 0.75166 0.99915 0.0
C232 C 0.38688 0.73795 0.96387 0.0
C233 C 0.39968 0.74471 0.92921 0.0
N234 N 0.39219 0.77155 0.99996 0.0
C235 C 0.40473 0.7783 0.96606 0.0
Co236 Co 0.18143 0.65701 1.00102 0.0
Co237 Co 0.22133 0.62342 0.96844 0.0
O238 O 0.19698 0.63002 0.00646 0.0
C239 C 0.18942 0.65298 0.09621 0.0
O240 O 0.20849 0.64562 0.08713 0.0
C241 C 0.19532 0.58324 0.96986 0.0
O242 O 0.17796 0.59466 0.96468 0.0
O243 O 0.20311 0.62789 0.91545 0.0
O244 O 0.18575 0.6575 0.93597 0.0
H245 H 0.27009 0.63516 0.84006 0.0
H246 H 0.16089 0.62112 0.04774 0.0
O247 O 0.17648 0.65776 0.06569 0.0
H248 H 0.11275 0.63805 0.92478 0.0
H249 H 0.12263 0.70901 0.0359 0.0
H250 H 0.18881 0.69715 0.95205 0.0
H251 H 0.1457 0.65875 0.93629 0.0
H252 H 0.14175 0.67473 0.04094 0.0
O253 O 0.21351 0.5923 0.96994 0.0
H254 H 0.24002 0.64343 0.88933 0.0
H255 H 0.2536 0.58841 0.96554 0.0
H256 H 0.17009 0.7316 0.94571 0.0
H257 H 0.12796 0.60016 0.03775 0.0
H258 H 0.13675 0.7377 0.98785 0.0
H259 H 0.10367 0.60854 0.97579 0.0
O260 O 0.20833 0.67296 0.00981 0.0
H261 H 0.2378 0.59372 0.11771 0.0
H262 H 0.26448 0.63839 0.99653 0.0
H263 H 0.2866 0.63352 0.06251 0.0
H264 H 0.27333 0.61098 0.12365 0.0
H265 H 0.21601 0.59934 0.05146 0.0
H266 H 0.28369 0.57943 0.91687 0.0
H267 H 0.29216 0.60295 0.85371 0.0
O268 O 0.23065 0.6543 0.96723 0.0
C269 C 0.19178 0.64427 0.90676 0.0
C270 C 0.26659 0.62481 0.86753 0.0
C271 C 0.2742 0.59352 0.91061 0.0
N272 N 0.24513 0.61649 0.93039 0.0
C273 C 0.24961 0.62944 0.89559 0.0
C274 C 0.2571 0.59865 0.93797 0.0
C275 C 0.27895 0.60673 0.87519 0.0
C276 C 0.15028 0.625 0.02099 0.0
N277 N 0.15518 0.64116 0.99272 0.0
C278 C 0.1317 0.61302 0.01538 0.0
C279 C 0.1181 0.6177 0.98056 0.0
C280 C 0.1232 0.63424 0.9519 0.0
C281 C 0.14192 0.64586 0.9585 0.0
C282 C 0.13711 0.70652 0.01727 0.0
C283 C 0.17422 0.69963 0.97021 0.0
C284 C 0.14802 0.68715 0.02003 0.0
N285 N 0.16625 0.68386 0.99643 0.0
C286 C 0.16373 0.71919 0.96661 0.0
C287 C 0.14504 0.72261 0.9903 0.0
C288 C 0.2261 0.67078 0.99014 0.0
C289 C 0.24378 0.60354 0.09125 0.0
C290 C 0.25848 0.62871 0.02311 0.0
C291 C 0.27114 0.62593 0.06033 0.0
C292 C 0.2637 0.61326 0.0946 0.0
N293 N 0.23894 0.61917 0.02009 0.0
C294 C 0.23156 0.60669 0.05353 0.0
Co295 Co 0.35052 0.17794 0.99913 0.0
Co296 Co 0.38569 0.21544 0.96102 0.0
O297 O 0.37812 0.19247 0.00186 0.0
C298 C 0.35274 0.18962 0.09306 0.0
O299 O 0.35696 0.20928 0.08103 0.0
C300 C 0.42442 0.1874 0.96707 0.0
O301 O 0.41195 0.17074 0.97105 0.0
O302 O 0.37943 0.19642 0.90997 0.0
O303 O 0.34968 0.18025 0.93372 0.0
H304 H 0.37496 0.26199 0.82887 0.0
H305 H 0.38521 0.1569 0.049 0.0
O306 O 0.35037 0.1751 0.06436 0.0
H307 H 0.36609 0.10628 0.93176 0.0
H308 H 0.29661 0.12247 0.04346 0.0
H309 H 0.31026 0.18534 0.95055 0.0
H310 H 0.34728 0.14063 0.93861 0.0
H311 H 0.33162 0.14038 0.04493 0.0
O312 O 0.41645 0.20587 0.96109 0.0
H313 H 0.36564 0.23358 0.88142 0.0
H314 H 0.42251 0.2454 0.95302 0.0
H315 H 0.27509 0.16781 0.94774 0.0
H316 H 0.40416 0.12254 0.04382 0.0
H317 H 0.26809 0.13613 0.99445 0.0
H318 H 0.39471 0.097 0.98471 0.0
O319 O 0.3356 0.20568 0.00428 0.0
H320 H 0.41677 0.23267 0.10866 0.0
H321 H 0.37409 0.26014 0.98522 0.0
H322 H 0.38066 0.28315 0.0493 0.0
H323 H 0.40219 0.26946 0.11158 0.0
H324 H 0.40962 0.2101 0.04416 0.0
H325 H 0.43254 0.27379 0.90101 0.0
H326 H 0.40863 0.28231 0.83851 0.0
O327 O 0.35542 0.22654 0.96069 0.0
C328 C 0.3626 0.18542 0.90322 0.0
C329 C 0.38548 0.25846 0.85604 0.0
C330 C 0.41781 0.26507 0.8965 0.0
N331 N 0.39344 0.23793 0.92039 0.0
C332 C 0.38027 0.24243 0.88595 0.0
C333 C 0.41208 0.24893 0.92577 0.0
C334 C 0.40438 0.26985 0.86144 0.0
C335 C 0.38083 0.14577 0.02351 0.0
N336 N 0.36519 0.15081 0.99411 0.0
C337 C 0.3917 0.12638 0.0206 0.0
C338 C 0.38641 0.11208 0.98737 0.0
C339 C 0.37038 0.11729 0.9576 0.0
C340 C 0.35987 0.13683 0.96151 0.0
C341 C 0.29949 0.13622 0.02285 0.0
C342 C 0.30739 0.17146 0.97069 0.0
C343 C 0.31927 0.14644 0.02357 0.0
N344 N 0.32306 0.16374 0.99745 0.0
C345 C 0.28742 0.16165 0.96909 0.0
C346 C 0.28349 0.14389 0.99534 0.0
C347 C 0.33867 0.22304 0.98355 0.0
C348 C 0.40743 0.23884 0.08166 0.0
C349 C 0.38343 0.25402 0.01221 0.0
C350 C 0.38713 0.26715 0.04839 0.0
C351 C 0.39922 0.25947 0.0833 0.0
N352 N 0.39158 0.23381 0.01078 0.0
C353 C 0.40341 0.22616 0.04495 0.0
Co354 Co 0.82554 0.35164 0.00368 0.0
Co355 Co 0.78855 0.38655 0.96156 0.0
O356 O 0.8111 0.37941 0.00401 0.0
C357 C 0.82033 0.36351 0.09927 0.0
O358 O 0.81112 0.38166 0.08952 0.0
C359 C 0.81701 0.42488 0.96583 0.0
O360 O 0.83348 0.41211 0.96927 0.0
O361 O 0.80814 0.37968 0.91196 0.0
O362 O 0.8244 0.35049 0.93803 0.0
H363 H 0.74371 0.37442 0.82746 0.0
H364 H 0.84641 0.38802 0.0506 0.0
O365 O 0.82704 0.35095 0.06949 0.0
H366 H 0.89867 0.36412 0.9406 0.0
H367 H 0.87939 0.29704 0.05284 0.0
H368 H 0.81829 0.31129 0.95542 0.0
H369 H 0.86387 0.34623 0.94714 0.0
H370 H 0.86207 0.33235 0.05239 0.0
O371 O 0.79835 0.41722 0.96059 0.0
H372 H 0.77138 0.36563 0.88201 0.0
H373 H 0.75886 0.42337 0.95006 0.0
H374 H 0.83526 0.27582 0.95449 0.0
H375 H 0.8811 0.40604 0.04577 0.0
H376 H 0.86605 0.26851 0.00347 0.0
H377 H 0.90756 0.3942 0.9903 0.0
O378 O 0.79762 0.33722 0.0081 0.0
H379 H 0.76837 0.42163 0.10387 0.0
H380 H 0.74381 0.37458 0.98469 0.0
H381 H 0.71969 0.38251 0.04629 0.0
H382 H 0.7319 0.40625 0.10643 0.0
H383 H 0.7921 0.41303 0.04196 0.0
H384 H 0.73119 0.43287 0.89605 0.0
H385 H 0.7234 0.40825 0.83431 0.0
O386 O 0.77735 0.35628 0.96209 0.0
C387 C 0.81952 0.36301 0.90662 0.0
C388 C 0.74692 0.38524 0.85429 0.0
C389 C 0.73991 0.41806 0.89275 0.0
N390 N 0.76663 0.39389 0.91934 0.0
C391 C 0.76252 0.38032 0.88533 0.0
C392 C 0.75563 0.41262 0.92318 0.0
C393 C 0.73554 0.40424 0.85813 0.0
C394 C 0.85786 0.38241 0.02702 0.0
N395 N 0.85307 0.36585 0.99967 0.0
C396 C 0.87749 0.39285 0.02414 0.0
C397 C 0.8923 0.38624 0.99293 0.0
C398 C 0.88731 0.36939 0.96501 0.0
C399 C 0.86752 0.35936 0.96882 0.0
C400 C 0.86603 0.30005 0.03125 0.0
C401 C 0.83178 0.30828 0.97657 0.0
C402 C 0.85614 0.32 0.0309 0.0
N403 N 0.83934 0.32394 0.00352 0.0
C404 C 0.84128 0.28814 0.97601 0.0
C405 C 0.85854 0.28405 0.00353 0.0
C406 C 0.78057 0.33989 0.98617 0.0
C407 C 0.76287 0.41125 0.07788 0.0
C408 C 0.74937 0.38473 0.01093 0.0
C409 C 0.73557 0.38926 0.04563 0.0
C410 C 0.74242 0.4026 0.07933 0.0
N411 N 0.76946 0.3932 0.00982 0.0
C412 C 0.77623 0.40636 0.04266 0.0
Co413 Co 0.65735 0.82682 1.00029 0.0
Co414 Co 0.62098 0.78966 0.96532 0.0
O415 O 0.62922 0.81321 0.00441 0.0
C416 C 0.65216 0.81825 0.09519 0.0
O417 O 0.64314 0.79999 0.0854 0.0
C418 C 0.58271 0.81845 0.97112 0.0
O419 O 0.59539 0.8349 0.97591 0.0
O420 O 0.62751 0.80767 0.91299 0.0
O421 O 0.65786 0.8232 0.93507 0.0
H422 H 0.63046 0.74071 0.83649 0.0
H423 H 0.62361 0.85002 0.0487 0.0
O424 O 0.6582 0.83095 0.06518 0.0
H425 H 0.64401 0.89755 0.92697 0.0
H426 H 0.71344 0.88115 0.03883 0.0
H427 H 0.69709 0.81695 0.95182 0.0
H428 H 0.66168 0.86277 0.93656 0.0
H429 H 0.67779 0.86463 0.04235 0.0
O430 O 0.59043 0.79991 0.96473 0.0
H431 H 0.64048 0.76975 0.88695 0.0
H432 H 0.58346 0.76041 0.95963 0.0
H433 H 0.73289 0.83306 0.94699 0.0
H434 H 0.60578 0.88486 0.04079 0.0
H435 H 0.74125 0.8654 0.99073 0.0
H436 H 0.61589 0.90885 0.97941 0.0
O437 O 0.67122 0.79879 0.00813 0.0
H438 H 0.58841 0.77504 0.1129 0.0
H439 H 0.63191 0.74527 0.99298 0.0
H440 H 0.62442 0.72328 0.05812 0.0
H441 H 0.60244 0.73811 0.11862 0.0
H442 H 0.5966 0.79662 0.04753 0.0
H443 H 0.57274 0.7314 0.90973 0.0
H444 H 0.59637 0.72131 0.84774 0.0
O445 O 0.65103 0.77783 0.96559 0.0
C446 C 0.64459 0.81809 0.90521 0.0
C447 C 0.62006 0.74491 0.86345 0.0
C448 C 0.58765 0.73971 0.90452 0.0
N449 N 0.61265 0.76668 0.92635 0.0
C450 C 0.62568 0.76131 0.89219 0.0
C451 C 0.59379 0.75619 0.9326 0.0
C452 C 0.60092 0.73405 0.86976 0.0
C453 C 0.62826 0.86047 0.02221 0.0
N454 N 0.64362 0.85432 0.99309 0.0
C455 C 0.61803 0.88014 0.01776 0.0
C456 C 0.62368 0.89357 0.98327 0.0
C457 C 0.63943 0.88723 0.95379 0.0
C458 C 0.6493 0.86744 0.95925 0.0
C459 C 0.70996 0.8671 0.01949 0.0
C460 C 0.70056 0.83112 0.97066 0.0
C461 C 0.68981 0.85767 0.02138 0.0
N462 N 0.68529 0.83998 0.9969 0.0
C463 C 0.72088 0.84013 0.96792 0.0
C464 C 0.72556 0.85826 0.9925 0.0
C465 C 0.6678 0.78124 0.98843 0.0
C466 C 0.59794 0.76837 0.08669 0.0
C467 C 0.62247 0.75192 0.01926 0.0
C468 C 0.6182 0.73935 0.05601 0.0
C469 C 0.60585 0.74767 0.08992 0.0
N470 N 0.61465 0.77222 0.01632 0.0
C471 C 0.60253 0.78048 0.04944 0.0
Co472 Co 0.68111 0.84939 0.50209 0.0
Co473 Co 0.7174 0.88561 0.54146 0.0
O474 O 0.69454 0.87767 0.50027 0.0
C475 C 0.68405 0.86111 0.40604 0.0
O476 O 0.69279 0.8796 0.41486 0.0
C477 C 0.68875 0.92397 0.53466 0.0
O478 O 0.67236 0.91132 0.52879 0.0
O479 O 0.69831 0.87883 0.5919 0.0
O480 O 0.68357 0.84849 0.56763 0.0
H481 H 0.76359 0.87536 0.6743 0.0
H482 H 0.6578 0.88459 0.45618 0.0
O483 O 0.67836 0.84843 0.43648 0.0
H484 H 0.60886 0.85921 0.57114 0.0
H485 H 0.62852 0.79259 0.45794 0.0
H486 H 0.69082 0.80951 0.5502 0.0
H487 H 0.64422 0.84276 0.56202 0.0
H488 H 0.64444 0.82855 0.4566 0.0
O489 O 0.70721 0.91619 0.54189 0.0
H490 H 0.73559 0.86567 0.62114 0.0
H491 H 0.74664 0.92297 0.55044 0.0
H492 H 0.67528 0.77341 0.55286 0.0
H493 H 0.62247 0.90113 0.46353 0.0
H494 H 0.64389 0.76476 0.50649 0.0
H495 H 0.59769 0.88855 0.52152 0.0
O496 O 0.70944 0.83605 0.4955 0.0
H497 H 0.73556 0.91945 0.39675 0.0
H498 H 0.7622 0.87437 0.51726 0.0
H499 H 0.7856 0.8821 0.45438 0.0
H500 H 0.77235 0.90485 0.39356 0.0
H501 H 0.71258 0.91107 0.45996 0.0
H502 H 0.77463 0.93336 0.60304 0.0
H503 H 0.78332 0.90943 0.66541 0.0
O504 O 0.72918 0.85552 0.54163 0.0
C505 C 0.68789 0.86162 0.59831 0.0
C506 C 0.75998 0.88589 0.64719 0.0
C507 C 0.76616 0.91846 0.60723 0.0
N508 N 0.73958 0.89366 0.58257 0.0
C509 C 0.74418 0.88047 0.61693 0.0
C510 C 0.75026 0.91251 0.57761 0.0
C511 C 0.77104 0.90502 0.64221 0.0
C512 C 0.64709 0.87867 0.4809 0.0
N513 N 0.65315 0.86252 0.50824 0.0
C514 C 0.6271 0.88827 0.48519 0.0
C515 C 0.61322 0.88125 0.5178 0.0
C516 C 0.61949 0.86481 0.54567 0.0
C517 C 0.63961 0.85561 0.54042 0.0
C518 C 0.64215 0.79619 0.4784 0.0
C519 C 0.67706 0.80591 0.53019 0.0
C520 C 0.65125 0.81651 0.47773 0.0
N521 N 0.6684 0.82119 0.50368 0.0
C522 C 0.66837 0.78543 0.53172 0.0
C523 C 0.65078 0.78058 0.50565 0.0
C524 C 0.72646 0.83916 0.51721 0.0
C525 C 0.74152 0.90951 0.42303 0.0
C526 C 0.7562 0.88409 0.49075 0.0
C527 C 0.76959 0.88851 0.45531 0.0
C528 C 0.76215 0.90129 0.42123 0.0
N529 N 0.73594 0.89214 0.49222 0.0
C530 C 0.72859 0.90475 0.45899 0.0
Co531 Co 0.15765 0.67846 0.50285 0.0
Co532 Co 0.12225 0.71498 0.54448 0.0
O533 O 0.12959 0.69235 0.50231 0.0
C534 C 0.14537 0.68249 0.40727 0.0
O535 O 0.12696 0.6912 0.41686 0.0
C536 C 0.08369 0.6867 0.53849 0.0
O537 O 0.09627 0.6702 0.53318 0.0
O538 O 0.12913 0.69544 0.59414 0.0
O539 O 0.15899 0.68029 0.56845 0.0
H540 H 0.13392 0.76002 0.67848 0.0
H541 H 0.12173 0.65619 0.45707 0.0
O542 O 0.15818 0.67637 0.43713 0.0
H543 H 0.14707 0.60575 0.56924 0.0
H544 H 0.2133 0.62538 0.45508 0.0
H545 H 0.19799 0.68708 0.55021 0.0
H546 H 0.16406 0.64091 0.56105 0.0
H547 H 0.1776 0.6419 0.45536 0.0
O548 O 0.09157 0.70514 0.5453 0.0
H549 H 0.14293 0.73231 0.62416 0.0
H550 H 0.08532 0.74459 0.55544 0.0
H551 H 0.23384 0.67092 0.55128 0.0
H552 H 0.10464 0.6211 0.4635 0.0
H553 H 0.24168 0.63984 0.50346 0.0
H554 H 0.1172 0.59556 0.52009 0.0
O555 O 0.17141 0.70662 0.49703 0.0
H556 H 0.08766 0.73473 0.40141 0.0
H557 H 0.13399 0.75977 0.52135 0.0
H558 H 0.12617 0.78376 0.45947 0.0
H559 H 0.10279 0.77131 0.39894 0.0
H560 H 0.09614 0.71115 0.46362 0.0
H561 H 0.07561 0.7723 0.6092 0.0
H562 H 0.10005 0.78023 0.67117 0.0
O563 O 0.15249 0.72634 0.54421 0.0
C564 C 0.14621 0.68471 0.5997 0.0
C565 C 0.12317 0.75675 0.65155 0.0
C566 C 0.09043 0.76363 0.6127 0.0
N567 N 0.11474 0.73694 0.58651 0.0
C568 C 0.12821 0.74112 0.62064 0.0
C569 C 0.09599 0.74788 0.58241 0.0
C570 C 0.10415 0.76807 0.64745 0.0
C571 C 0.12764 0.64515 0.48115 0.0
N572 N 0.14409 0.65066 0.50822 0.0
C573 C 0.11773 0.62529 0.48494 0.0
C574 C 0.12474 0.61099 0.51676 0.0
C575 C 0.14148 0.61671 0.54437 0.0
C576 C 0.15099 0.63671 0.53965 0.0
C577 C 0.21006 0.63887 0.47617 0.0
C578 C 0.20123 0.67345 0.52958 0.0
C579 C 0.18989 0.64831 0.47642 0.0
N580 N 0.18565 0.66528 0.50317 0.0
C581 C 0.22158 0.66442 0.5302 0.0
C582 C 0.22598 0.64699 0.50332 0.0
C583 C 0.16867 0.72353 0.51932 0.0
C584 C 0.09788 0.74034 0.42756 0.0
C585 C 0.12399 0.75412 0.49496 0.0
C586 C 0.11952 0.76783 0.4601 0.0
C587 C 0.10639 0.76085 0.42618 0.0
N588 N 0.11565 0.73397 0.49603 0.0
C589 C 0.1027 0.72706 0.46296 0.0
Co590 Co 0.32628 0.15641 0.50096 0.0
Co591 Co 0.28644 0.1237 0.53707 0.0
O592 O 0.31007 0.12987 0.49713 0.0
C593 C 0.31534 0.15518 0.4067 0.0
O594 O 0.29537 0.15221 0.41814 0.0
C595 C 0.31207 0.08337 0.53519 0.0
O596 O 0.32948 0.09473 0.5403 0.0
O597 O 0.30562 0.12814 0.5887 0.0
O598 O 0.32339 0.1572 0.56629 0.0
H599 H 0.24009 0.13626 0.66886 0.0
H600 H 0.34489 0.11987 0.45284 0.0
O601 O 0.32979 0.15651 0.43584 0.0
H602 H 0.39608 0.13593 0.571 0.0
H603 H 0.38558 0.20667 0.45964 0.0
H604 H 0.32108 0.1969 0.54992 0.0
H605 H 0.36343 0.15741 0.56226 0.0
H606 H 0.36541 0.17293 0.45692 0.0
O607 O 0.29392 0.09251 0.53516 0.0
H608 H 0.26935 0.14412 0.61728 0.0
H609 H 0.25392 0.08903 0.54278 0.0
H610 H 0.34088 0.23082 0.55399 0.0
H611 H 0.37749 0.09813 0.46009 0.0
H612 H 0.37338 0.23587 0.50861 0.0
H613 H 0.40331 0.10607 0.51961 0.0
O614 O 0.29956 0.17308 0.49487 0.0
H615 H 0.26769 0.09527 0.38797 0.0
H616 H 0.2428 0.13873 0.51256 0.0
H617 H 0.2197 0.13448 0.44781 0.0
H618 H 0.23209 0.11257 0.38494 0.0
H619 H 0.2904 0.10016 0.45316 0.0
H620 H 0.22463 0.08047 0.59378 0.0
H621 H 0.2175 0.10423 0.65726 0.0
O622 O 0.27753 0.15464 0.53859 0.0
C623 C 0.31747 0.1443 0.59624 0.0
C624 C 0.24301 0.12581 0.64127 0.0
C625 C 0.23435 0.09448 0.59916 0.0
N626 N 0.26327 0.11712 0.57694 0.0
C627 C 0.25952 0.13021 0.6119 0.0
C628 C 0.251 0.09938 0.57047 0.0
C629 C 0.23035 0.10783 0.63476 0.0
C630 C 0.35617 0.12355 0.47854 0.0
N631 N 0.35229 0.13991 0.50701 0.0
C632 C 0.37455 0.11113 0.4826 0.0
C633 C 0.38901 0.11558 0.51606 0.0
C634 C 0.38495 0.13232 0.54492 0.0
C635 C 0.3664 0.14438 0.5399 0.0
C636 C 0.37148 0.20464 0.47968 0.0
C637 C 0.3353 0.19892 0.53035 0.0
C638 C 0.35998 0.18558 0.47823 0.0
N639 N 0.34222 0.18287 0.50362 0.0
C640 C 0.3464 0.21819 0.53267 0.0
C641 C 0.36463 0.22102 0.50716 0.0
C642 C 0.28197 0.17104 0.51539 0.0
C643 C 0.26209 0.10481 0.4152 0.0
C644 C 0.24836 0.12924 0.48529 0.0
C645 C 0.23518 0.12685 0.44875 0.0
C646 C 0.24213 0.11454 0.4135 0.0
N647 N 0.26793 0.11964 0.48674 0.0
C648 C 0.27485 0.10757 0.45228 0.0
Co649 Co 0.84787 0.3283 0.50562 0.0
Co650 Co 0.88532 0.29159 0.53742 0.0
O651 O 0.87625 0.31536 0.49966 0.0
C652 C 0.85227 0.32087 0.41026 0.0
O653 O 0.86145 0.30258 0.4191 0.0
C654 C 0.92365 0.32043 0.52814 0.0
O655 O 0.91108 0.33671 0.52061 0.0
O656 O 0.87918 0.30916 0.59058 0.0
O657 O 0.84803 0.32381 0.57067 0.0
H658 H 0.87798 0.24154 0.66506 0.0
H659 H 0.8805 0.35302 0.4571 0.0
O660 O 0.84637 0.33324 0.44097 0.0
H661 H 0.86028 0.39829 0.58254 0.0
H662 H 0.79025 0.38184 0.47214 0.0
H663 H 0.80883 0.31701 0.55524 0.0
H664 H 0.84336 0.36323 0.57164 0.0
H665 H 0.8262 0.36614 0.46631 0.0
O666 O 0.91581 0.30216 0.53704 0.0
H667 H 0.86701 0.27086 0.61609 0.0
H668 H 0.92324 0.26274 0.54024 0.0
H669 H 0.77276 0.33228 0.56235 0.0
H670 H 0.89754 0.38818 0.46631 0.0
H671 H 0.76327 0.36493 0.52059 0.0
H672 H 0.88753 0.41103 0.52956 0.0
O673 O 0.83455 0.30009 0.49676 0.0
H674 H 0.91597 0.2786 0.38742 0.0
H675 H 0.87478 0.24722 0.50905 0.0
H676 H 0.88169 0.22584 0.44282 0.0
H677 H 0.9025 0.24147 0.38146 0.0
H678 H 0.90836 0.29957 0.45389 0.0
H679 H 0.93491 0.23349 0.58863 0.0
H680 H 0.91216 0.22265 0.65145 0.0
O681 O 0.85543 0.27932 0.53824 0.0
C682 C 0.86189 0.31897 0.5996 0.0
C683 C 0.888 0.24608 0.63773 0.0
C684 C 0.91997 0.24158 0.59486 0.0
N685 N 0.89439 0.26842 0.57519 0.0
C686 C 0.88185 0.26264 0.60983 0.0
C687 C 0.9133 0.2582 0.56765 0.0
C688 C 0.90719 0.2355 0.6301 0.0
C689 C 0.8759 0.36296 0.48444 0.0
N690 N 0.86103 0.35602 0.51387 0.0
C691 C 0.88567 0.38282 0.4896 0.0
C692 C 0.88008 0.39561 0.52514 0.0
C693 C 0.86482 0.38846 0.55492 0.0
C694 C 0.85539 0.36852 0.54871 0.0
C695 C 0.79421 0.36764 0.49061 0.0
C696 C 0.80488 0.33131 0.53724 0.0
C697 C 0.81454 0.35867 0.4874 0.0
N698 N 0.81968 0.3408 0.51079 0.0
C699 C 0.7844 0.33985 0.54127 0.0
C700 C 0.77908 0.35815 0.5178 0.0
C701 C 0.83845 0.2825 0.51589 0.0
C702 C 0.90696 0.27157 0.41402 0.0
C703 C 0.88373 0.25422 0.48243 0.0
C704 C 0.88766 0.24199 0.44504 0.0
C705 C 0.89936 0.25076 0.41065 0.0
N706 N 0.89125 0.27463 0.48553 0.0
C707 C 0.90272 0.28333 0.45191 0.0
Co708 Co 0.68086 0.15595 0.50339 0.0
Co709 Co 0.7177 0.12055 0.46286 0.0
O710 O 0.69487 0.12795 0.50454 0.0
C711 C 0.68462 0.14408 0.59928 0.0
O712 O 0.69367 0.12578 0.59012 0.0
C713 C 0.68934 0.08204 0.46798 0.0
O714 O 0.6728 0.09466 0.47222 0.0
O715 O 0.69839 0.12727 0.41273 0.0
O716 O 0.6829 0.15708 0.4378 0.0
H717 H 0.76338 0.13201 0.32968 0.0
H718 H 0.65871 0.12003 0.54931 0.0
O719 O 0.67849 0.15669 0.56908 0.0
H720 H 0.60842 0.14469 0.4362 0.0
H721 H 0.62732 0.21148 0.54952 0.0
H722 H 0.68944 0.19617 0.45554 0.0
H723 H 0.64343 0.16197 0.44464 0.0
H724 H 0.64402 0.17587 0.55003 0.0
O725 O 0.70789 0.08987 0.46214 0.0
H726 H 0.73539 0.14108 0.38334 0.0
H727 H 0.74741 0.08363 0.45283 0.0
H728 H 0.67311 0.23193 0.45369 0.0
H729 H 0.62376 0.10264 0.54261 0.0
H730 H 0.64181 0.23977 0.50093 0.0
H731 H 0.5983 0.11487 0.48556 0.0
O732 O 0.70895 0.16988 0.50937 0.0
H733 H 0.73681 0.08624 0.60657 0.0
H734 H 0.76237 0.13241 0.48678 0.0
H735 H 0.78606 0.12473 0.5492 0.0
H736 H 0.77336 0.10144 0.60966 0.0
H737 H 0.71352 0.09458 0.54383 0.0
H738 H 0.7754 0.07386 0.39972 0.0
H739 H 0.78361 0.09818 0.33771 0.0
O740 O 0.72901 0.1508 0.46308 0.0
C741 C 0.68754 0.14424 0.40679 0.0
C742 C 0.76 0.12131 0.35663 0.0
C743 C 0.76672 0.08866 0.39591 0.0
N744 N 0.73987 0.11298 0.42134 0.0
C745 C 0.7442 0.12638 0.38717 0.0
C746 C 0.75081 0.09426 0.42582 0.0
C747 C 0.77132 0.10231 0.36113 0.0
C748 C 0.64769 0.1258 0.52502 0.0
N749 N 0.65316 0.14222 0.49784 0.0
C750 C 0.62792 0.11572 0.52109 0.0
C751 C 0.61367 0.12254 0.489 0.0
C752 C 0.61934 0.13925 0.46128 0.0
C753 C 0.63926 0.14893 0.46615 0.0
C754 C 0.64091 0.20824 0.52868 0.0
C755 C 0.67572 0.19941 0.47593 0.0
C756 C 0.65045 0.18812 0.52887 0.0
N757 N 0.66754 0.18388 0.50245 0.0
C758 C 0.66659 0.21971 0.47486 0.0
C759 C 0.64904 0.2241 0.50141 0.0
C760 C 0.726 0.1671 0.48752 0.0
C761 C 0.74253 0.09642 0.58045 0.0
C762 C 0.7566 0.12245 0.51314 0.0
C763 C 0.77015 0.11806 0.54831 0.0
C764 C 0.76302 0.10497 0.58219 0.0
N765 N 0.73647 0.11407 0.51174 0.0
C766 C 0.72942 0.10116 0.54476 0.0
Co767 Co 0.85127 0.68007 0.49955 0.0
Co768 Co 0.88771 0.71722 0.46485 0.0
O769 O 0.87944 0.6936 0.50372 0.0
C770 C 0.85645 0.68846 0.59452 0.0
O771 O 0.8655 0.70672 0.58485 0.0
C772 C 0.92588 0.68824 0.46967 0.0
O773 O 0.91312 0.6718 0.4737 0.0
O774 O 0.88111 0.69935 0.41235 0.0
O775 O 0.85075 0.68381 0.43436 0.0
H776 H 0.87831 0.76652 0.33654 0.0
H777 H 0.88503 0.65676 0.54762 0.0
O778 O 0.85042 0.67581 0.56442 0.0
H779 H 0.86445 0.60944 0.42568 0.0
H780 H 0.79507 0.62579 0.53777 0.0
H781 H 0.81153 0.69011 0.4512 0.0
H782 H 0.84681 0.64423 0.43561 0.0
H783 H 0.83076 0.64222 0.54135 0.0
O784 O 0.91823 0.70688 0.46408 0.0
H785 H 0.86823 0.73737 0.38672 0.0
H786 H 0.92531 0.74638 0.45936 0.0
H787 H 0.7757 0.67408 0.44632 0.0
H788 H 0.90283 0.62192 0.53936 0.0
H789 H 0.76728 0.64168 0.48983 0.0
H790 H 0.89263 0.59804 0.47787 0.0
O791 O 0.83745 0.70812 0.50763 0.0
H792 H 0.9204 0.73137 0.61247 0.0
H793 H 0.87689 0.76157 0.49301 0.0
H794 H 0.88446 0.78336 0.55839 0.0
H795 H 0.90643 0.76831 0.61865 0.0
H796 H 0.91214 0.71 0.54686 0.0
H797 H 0.93609 0.77548 0.40973 0.0
H798 H 0.91247 0.78579 0.3479 0.0
O799 O 0.85769 0.72914 0.46531 0.0
C800 C 0.86403 0.68896 0.40452 0.0
C801 C 0.88871 0.76221 0.36343 0.0
C802 C 0.92115 0.76723 0.40447 0.0
N803 N 0.89609 0.74027 0.42609 0.0
C804 C 0.88307 0.74576 0.39201 0.0
C805 C 0.91499 0.75069 0.4324 0.0
C806 C 0.90789 0.77301 0.3698 0.0
C807 C 0.88034 0.64635 0.52109 0.0
N808 N 0.86494 0.65256 0.49211 0.0
C809 C 0.89055 0.62669 0.51644 0.0
C810 C 0.88485 0.61332 0.48189 0.0
C811 C 0.86907 0.61972 0.45255 0.0
C812 C 0.85922 0.6395 0.45821 0.0
C813 C 0.79857 0.63986 0.51854 0.0
C814 C 0.80805 0.67591 0.46995 0.0
C815 C 0.81874 0.64925 0.52046 0.0
N816 N 0.8233 0.66697 0.49611 0.0
C817 C 0.78771 0.66695 0.46718 0.0
C818 C 0.78299 0.64879 0.49164 0.0
C819 C 0.8409 0.72571 0.4881 0.0
C820 C 0.91087 0.73814 0.58637 0.0
C821 C 0.88634 0.75482 0.5192 0.0
C822 C 0.89064 0.76728 0.55608 0.0
C823 C 0.90299 0.75884 0.58985 0.0
N824 N 0.89411 0.73451 0.51599 0.0
C825 C 0.90624 0.72614 0.54899 0.0
Co826 Co 0.33004 0.84582 0.50413 0.0
Co827 Co 0.29282 0.88345 0.47718 0.0
O828 O 0.31677 0.87361 0.51261 0.0
C829 C 0.32061 0.84593 0.59871 0.0
O830 O 0.301 0.85125 0.58842 0.0
C831 C 0.30785 0.9271 0.45242 0.0
O832 O 0.30465 0.922 0.41117 0.0
O833 O 0.30978 0.87832 0.4225 0.0
O834 O 0.32591 0.84741 0.43932 0.0
H835 H 0.24171 0.88076 0.35058 0.0
H836 H 0.35292 0.87917 0.55428 0.0
O837 O 0.33455 0.84349 0.56879 0.0
H838 H 0.40045 0.86095 0.43104 0.0
H839 H 0.38448 0.7887 0.53452 0.0
H840 H 0.32005 0.80769 0.45049 0.0
H841 H 0.36588 0.84273 0.44 0.0
H842 H 0.3679 0.82413 0.543 0.0
O843 O 0.3047 0.91325 0.48237 0.0
H844 H 0.27152 0.86816 0.39656 0.0
H845 H 0.2636 0.92108 0.48185 0.0
H846 H 0.33622 0.77216 0.44068 0.0
H847 H 0.38746 0.89765 0.54681 0.0
H848 H 0.36867 0.76247 0.48289 0.0
H849 H 0.41147 0.88858 0.48478 0.0
O850 O 0.30196 0.83169 0.51028 0.0
H851 H 0.28227 0.90952 0.6315 0.0
H852 H 0.24877 0.8723 0.50691 0.0
H853 H 0.22851 0.87712 0.57541 0.0
H854 H 0.24523 0.89591 0.63829 0.0
H855 H 0.3021 0.90409 0.56262 0.0
H856 H 0.23376 0.93431 0.43672 0.0
H857 H 0.22263 0.91407 0.37058 0.0
O858 O 0.28028 0.85379 0.47336 0.0
C859 C 0.32016 0.86157 0.41178 0.0
C860 C 0.24641 0.88971 0.37933 0.0
C861 C 0.24195 0.91977 0.42767 0.0
N862 N 0.26927 0.89385 0.44184 0.0
C863 C 0.26327 0.88265 0.40549 0.0
C864 C 0.25886 0.91221 0.45307 0.0
C865 C 0.23571 0.90841 0.39057 0.0
C866 C 0.36335 0.87505 0.52738 0.0
N867 N 0.35744 0.85982 0.49777 0.0
C868 C 0.38286 0.88561 0.52324 0.0
C869 C 0.39632 0.88052 0.48841 0.0
C870 C 0.39014 0.86503 0.45823 0.0
C871 C 0.37052 0.8548 0.46342 0.0
C872 C 0.37038 0.79275 0.51585 0.0
C873 C 0.33427 0.80365 0.4687 0.0
C874 C 0.3609 0.81278 0.52056 0.0
N875 N 0.34316 0.81804 0.49689 0.0
C876 C 0.34331 0.78348 0.46313 0.0
C877 C 0.3615 0.77805 0.48687 0.0
C878 C 0.28404 0.83606 0.49273 0.0
C879 C 0.27478 0.90138 0.60427 0.0
C880 C 0.25622 0.88041 0.53415 0.0
C881 C 0.24463 0.88315 0.57283 0.0
C882 C 0.25402 0.89371 0.60809 0.0
N883 N 0.27659 0.88802 0.5306 0.0
C884 C 0.2859 0.89835 0.56508 0.0
Co885 Co 0.15387 0.32823 0.49349 0.0
Co886 Co 0.11985 0.28966 0.45455 0.0
O887 O 0.12662 0.31294 0.49528 0.0
C888 C 0.1489 0.31634 0.58656 0.0
O889 O 0.14132 0.29785 0.57391 0.0
C890 C 0.08122 0.31769 0.45678 0.0
O891 O 0.09384 0.33433 0.45863 0.0
O892 O 0.12645 0.3084 0.40333 0.0
O893 O 0.15489 0.32643 0.42813 0.0
H894 H 0.13271 0.24245 0.32424 0.0
H895 H 0.11834 0.34772 0.54333 0.0
O896 O 0.15412 0.33047 0.55869 0.0
H897 H 0.13632 0.39989 0.42817 0.0
H898 H 0.20621 0.38479 0.53991 0.0
H899 H 0.19445 0.32216 0.44526 0.0
H900 H 0.15627 0.36615 0.43436 0.0
H901 H 0.17165 0.36601 0.54042 0.0
O902 O 0.08905 0.29902 0.45296 0.0
H903 H 0.14108 0.27126 0.37653 0.0
H904 H 0.08341 0.25932 0.44534 0.0
H905 H 0.22918 0.34058 0.44338 0.0
H906 H 0.09818 0.38142 0.53873 0.0
H907 H 0.23524 0.37214 0.49097 0.0
H908 H 0.10708 0.40774 0.48068 0.0
O909 O 0.1695 0.30098 0.49834 0.0
H910 H 0.08578 0.27228 0.5994 0.0
H911 H 0.13212 0.24546 0.48101 0.0
H912 H 0.12462 0.22255 0.54481 0.0
H913 H 0.10124 0.2359 0.60454 0.0
H914 H 0.09397 0.2948 0.53537 0.0
H915 H 0.07434 0.23051 0.39359 0.0
H916 H 0.09913 0.22185 0.33262 0.0
O917 O 0.15029 0.27894 0.45605 0.0
C918 C 0.14267 0.32034 0.39719 0.0
C919 C 0.12181 0.24603 0.35075 0.0
C920 C 0.08904 0.23935 0.38963 0.0
N921 N 0.11283 0.26687 0.4141 0.0
C922 C 0.12649 0.26229 0.38051 0.0
C923 C 0.09424 0.25572 0.41877 0.0
C924 C 0.10296 0.23449 0.35544 0.0
C925 C 0.12246 0.35921 0.51832 0.0
N926 N 0.13845 0.35496 0.48917 0.0
C927 C 0.11092 0.37821 0.51573 0.0
C928 C 0.11589 0.39295 0.48309 0.0
C929 C 0.13228 0.38854 0.45358 0.0
C930 C 0.14345 0.36935 0.45712 0.0
C931 C 0.20374 0.37111 0.51889 0.0
C932 C 0.1969 0.336 0.46574 0.0
C933 C 0.18421 0.3604 0.51906 0.0
N934 N 0.18095 0.34318 0.49245 0.0
C935 C 0.21663 0.34631 0.46468 0.0
C936 C 0.22002 0.364 0.49143 0.0
C937 C 0.16701 0.28334 0.47837 0.0
C938 C 0.09594 0.26625 0.57352 0.0
C939 C 0.12204 0.25146 0.50697 0.0
C940 C 0.11779 0.23837 0.54295 0.0
C941 C 0.10465 0.24586 0.57643 0.0
N942 N 0.11345 0.27146 0.50435 0.0
C943 C 0.10054 0.27889 0.53704 0.0
C944 C 0.21281 0.54799 0.98471 0.0
C945 C 0.19404 0.55996 0.97945 0.0
C946 C 0.21217 0.52633 0.99637 0.0
C947 C 0.19226 0.51618 0.00308 0.0
C948 C 0.17321 0.52804 0.9973 0.0
C949 C 0.17432 0.54976 0.98555 0.0
C950 C 0.23289 0.51435 0.00199 0.0
C951 C 0.15167 0.51784 0.00407 0.0
C952 C 0.19333 0.45549 0.99663 0.0
C953 C 0.1951 0.44965 0.04096 0.0
C954 C 0.19159 0.47698 0.98395 0.0
C955 C 0.19159 0.49318 0.01629 0.0
C956 C 0.19253 0.48737 0.06117 0.0
C957 C 0.19428 0.46572 0.07295 0.0
C958 C 0.19059 0.48239 0.93576 0.0
C959 C 0.19253 0.5041 0.09675 0.0
H960 H 0.22816 0.55562 0.98015 0.0
H961 H 0.15972 0.55882 0.98179 0.0
H962 H 0.23415 0.50824 0.03602 0.0
H963 H 0.23325 0.50035 0.97976 0.0
H964 H 0.24703 0.52446 0.99505 0.0
H965 H 0.13835 0.52907 0.99749 0.0
H966 H 0.14993 0.5038 0.98224 0.0
H967 H 0.15028 0.51201 0.03829 0.0
H968 H 0.19384 0.44328 0.97153 0.0
H969 H 0.1956 0.46147 0.10727 0.0
H970 H 0.20525 0.4911 0.92607 0.0
H971 H 0.17686 0.49306 0.92907 0.0
H972 H 0.18911 0.46796 0.91487 0.0
H973 H 0.20729 0.51379 0.09444 0.0
H974 H 0.19168 0.49699 0.13006 0.0
H975 H 0.17884 0.5151 0.09243 0.0
C976 C 0.45561 0.17042 0.00477 0.0
C977 C 0.44773 0.18535 0.97461 0.0
C978 C 0.47744 0.16974 0.01555 0.0
C979 C 0.49188 0.18384 0.99459 0.0
C980 C 0.48405 0.19843 0.96292 0.0
C981 C 0.46204 0.19928 0.95396 0.0
C982 C 0.48494 0.15444 0.05051 0.0
C983 C 0.49889 0.21329 0.93873 0.0
C984 C 0.54492 0.19913 0.04728 0.0
C985 C 0.55925 0.18535 0.02622 0.0
C986 C 0.52291 0.19827 0.03846 0.0
C987 C 0.51506 0.18381 0.00657 0.0
C988 C 0.52949 0.16982 0.98528 0.0
C989 C 0.55134 0.17052 0.99589 0.0
C990 C 0.50807 0.21301 0.06298 0.0
C991 C 0.52197 0.15466 0.95011 0.0
H992 H 0.44457 0.15982 0.0213 0.0
H993 H 0.45602 0.21083 0.93059 0.0
H994 H 0.49752 0.14382 0.03727 0.0
H995 H 0.49209 0.1635 0.07809 0.0
H996 H 0.47176 0.14443 0.0635 0.0
H997 H 0.49055 0.22247 0.91274 0.0
H998 H 0.50617 0.22472 0.96207 0.0
H999 H 0.51207 0.2041 0.9235 0.0
H1000 H 0.55096 0.21061 0.07079 0.0
H1001 H 0.56237 0.16004 0.97903 0.0
H1002 H 0.49488 0.20375 0.07801 0.0
H1003 H 0.5008 0.22457 0.0399 0.0
H1004 H 0.51642 0.22205 0.08918 0.0
H1005 H 0.50938 0.14401 0.96319 0.0
H1006 H 0.53514 0.14467 0.93697 0.0
H1007 H 0.51483 0.16382 0.92267 0.0
C1008 C 0.80534 0.46267 0.95405 0.0
C1009 C 0.81952 0.44814 0.97333 0.0
C1010 C 0.8066 0.48462 0.96321 0.0
C1011 C 0.8219 0.49221 0.99367 0.0
C1012 C 0.83629 0.47757 0.01317 0.0
C1013 C 0.83514 0.45578 0.00223 0.0
C1014 C 0.79137 0.49968 0.9406 0.0
C1015 C 0.85239 0.48481 0.04679 0.0
C1016 C 0.83564 0.55156 0.99458 0.0
C1017 C 0.8215 0.55946 0.02631 0.0
C1018 C 0.83599 0.52974 0.98366 0.0
C1019 C 0.82237 0.51533 0.00601 0.0
C1020 C 0.80865 0.52316 0.03928 0.0
C1021 C 0.8081 0.54515 0.04843 0.0
C1022 C 0.85034 0.52225 0.94705 0.0
C1023 C 0.79435 0.50835 0.0649 0.0
H1024 H 0.79325 0.45684 0.93165 0.0
H1025 H 0.84595 0.44459 0.01772 0.0
H1026 H 0.7805 0.50697 0.96505 0.0
H1027 H 0.80035 0.51285 0.92477 0.0
H1028 H 0.78158 0.49152 0.91531 0.0
H1029 H 0.86259 0.47151 0.05859 0.0
H1030 H 0.86279 0.49738 0.03281 0.0
H1031 H 0.844 0.49189 0.07532 0.0
H1032 H 0.8458 0.56259 0.97691 0.0
H1033 H 0.79715 0.55119 0.07299 0.0
H1034 H 0.84055 0.51533 0.92029 0.0
H1035 H 0.86112 0.50948 0.95893 0.0
H1036 H 0.86018 0.53537 0.9333 0.0
H1037 H 0.78224 0.50125 0.04279 0.0
H1038 H 0.78595 0.51665 0.09204 0.0
H1039 H 0.80382 0.49503 0.07884 0.0
C1040 C 0.54489 0.8073 0.95789 0.0
C1041 C 0.55948 0.82067 0.97926 0.0
C1042 C 0.52298 0.80811 0.96774 0.0
C1043 C 0.51555 0.82203 1.00104 0.0
C1044 C 0.53026 0.8356 0.02266 0.0
C1045 C 0.55197 0.83501 0.01097 0.0
C1046 C 0.50783 0.79388 0.94283 0.0
C1047 C 0.5232 0.85014 0.05932 0.0
C1048 C 0.45622 0.83556 0.0069 0.0
C1049 C 0.44864 0.82009 0.03623 0.0
C1050 C 0.47791 0.83637 0.99505 0.0
C1051 C 0.49253 0.82184 0.01416 0.0
C1052 C 0.48502 0.8067 0.04505 0.0
C1053 C 0.46313 0.80574 0.05504 0.0
C1054 C 0.48504 0.85227 0.96093 0.0
C1055 C 0.50009 0.79136 0.06731 0.0
H1056 H 0.55065 0.79619 0.93336 0.0
H1057 H 0.56324 0.84514 0.02808 0.0
H1058 H 0.50083 0.78188 0.96532 0.0
H1059 H 0.49446 0.80342 0.92928 0.0
H1060 H 0.51583 0.78535 0.91547 0.0
H1061 H 0.53653 0.85987 0.07251 0.0
H1062 H 0.51046 0.86103 0.04771 0.0
H1063 H 0.51638 0.8405 0.08641 0.0
H1064 H 0.44502 0.84648 0.99177 0.0
H1065 H 0.45733 0.79377 0.07775 0.0
H1066 H 0.49183 0.84371 0.93232 0.0
H1067 H 0.49782 0.86261 0.97432 0.0
H1068 H 0.47175 0.86255 0.9494 0.0
H1069 H 0.50703 0.78032 0.04276 0.0
H1070 H 0.49203 0.78175 0.09303 0.0
H1071 H 0.5135 0.80022 0.08252 0.0
C1072 C 0.67178 0.05085 0.5046 0.0
C1073 C 0.68711 0.05873 0.47529 0.0
C1074 C 0.67093 0.02903 0.51534 0.0
C1075 C 0.68531 0.01458 0.49521 0.0
C1076 C 0.70031 0.0224 0.46434 0.0
C1077 C 0.70127 0.04439 0.45538 0.0
C1078 C 0.65515 0.02155 0.54939 0.0
C1079 C 0.71551 0.00755 0.44108 0.0
C1080 C 0.70003 0.96166 0.54906 0.0
C1081 C 0.68659 0.94727 0.52728 0.0
C1082 C 0.69921 0.98366 0.54009 0.0
C1083 C 0.68517 0.99143 0.50733 0.0
C1084 C 0.67153 0.97693 0.4853 0.0
C1085 C 0.67216 0.9551 0.49605 0.0
C1086 C 0.71356 0.99856 0.56537 0.0
C1087 C 0.65683 0.98436 0.44922 0.0
H1088 H 0.66098 0.0619 0.52057 0.0
H1089 H 0.71314 0.0504 0.43265 0.0
H1090 H 0.64478 0.0089 0.53561 0.0
H1091 H 0.66383 0.01448 0.57757 0.0
H1092 H 0.6449 0.03471 0.56165 0.0
H1093 H 0.72503 0.01588 0.41556 0.0
H1094 H 0.72664 1.00032 0.46509 0.0
H1095 H 0.70655 0.99434 0.42541 0.0
H1096 H 0.71121 0.95568 0.57324 0.0
H1097 H 0.66196 0.94401 0.47864 0.0
H1098 H 0.70406 0.01175 0.57978 0.0
H1099 H 0.72542 0.00584 0.54294 0.0
H1100 H 0.72226 0.99028 0.59214 0.0
H1101 H 0.646 0.99697 0.46158 0.0
H1102 H 0.64704 0.97116 0.43564 0.0
H1103 H 0.66636 0.99145 0.42224 0.0
C1104 C 0.96367 0.69971 0.45716 0.0
C1105 C 0.94914 0.68579 0.47721 0.0
C1106 C 0.98563 0.69859 0.46642 0.0
C1107 C 0.99321 0.6837 0.49775 0.0
C1108 C 0.97857 0.66956 0.51801 0.0
C1109 C 0.95679 0.67054 0.50695 0.0
C1110 C 1.00069 0.71352 0.44299 0.0
C1111 C 0.9858 0.65393 0.55257 0.0
C1112 C 0.05258 0.67008 0.4999 0.0
C1113 C 0.0604 0.68464 0.53087 0.0
C1114 C 0.03079 0.66955 0.48882 0.0
C1115 C 0.01631 0.68345 0.51025 0.0
C1116 C 0.02406 0.69762 0.54277 0.0
C1117 C 0.04603 0.69833 0.55207 0.0
C1118 C 0.02339 0.65469 0.45299 0.0
C1119 C 0.00917 0.71225 0.56743 0.0
H1120 H 0.95784 0.71151 0.43411 0.0
H1121 H 0.94559 0.65995 0.52303 0.0
H1122 H 0.0079 0.72476 0.4668 0.0
H1123 H 0.01391 0.70436 0.42781 0.0
H1124 H 0.99254 0.72292 0.41706 0.0
H1125 H 0.97251 0.64385 0.56483 0.0
H1126 H 0.99843 0.64339 0.53927 0.0
H1127 H 0.9928 0.66272 0.58066 0.0
H1128 H 0.06366 0.65969 0.48293 0.0
H1129 H 0.05201 0.70961 0.57604 0.0
H1130 H 0.01649 0.66411 0.42564 0.0
H1131 H 0.01062 0.64405 0.46541 0.0
H1132 H 0.03656 0.6447 0.43991 0.0
H1133 H 1.00209 0.72404 0.54457 0.0
H1134 H 0.01742 0.72103 0.59412 0.0
H1135 H 0.99584 0.70295 0.58183 0.0
C1136 C 0.29447 0.04815 0.52071 0.0
C1137 C 0.31327 0.06006 0.52588 0.0
C1138 C 0.29506 0.02644 0.50939 0.0
C1139 C 0.31495 0.0162 0.50296 0.0
C1140 C 0.33402 0.02801 0.5087 0.0
C1141 C 0.33297 0.04978 0.52009 0.0
C1142 C 0.27432 0.01451 0.50377 0.0
C1143 C 0.35555 0.01772 0.50221 0.0
C1144 C 0.31375 0.95549 0.50935 0.0
C1145 C 0.31209 0.94969 0.46498 0.0
C1146 C 0.31548 0.97698 0.52209 0.0
C1147 C 0.31557 0.9932 0.48977 0.0
C1148 C 0.31472 0.98742 0.44488 0.0
C1149 C 0.313 0.96579 0.43305 0.0
C1150 C 0.31639 0.98237 0.57029 0.0
C1151 C 0.31481 0.00416 0.40933 0.0
H1152 H 0.27914 0.05584 0.52505 0.0
H1153 H 0.3476 0.0588 0.5238 0.0
H1154 H 0.27305 0.00839 0.46975 0.0
H1155 H 0.2739 1.00052 0.52602 0.0
H1156 H 0.2602 0.02467 0.51067 0.0
H1157 H 0.36889 0.0289 0.50893 0.0
H1158 H 0.35716 0.00368 0.52408 0.0
H1159 H 0.35701 0.01188 0.46801 0.0
H1160 H 0.31313 0.94325 0.5344 0.0
H1161 H 0.31176 0.96156 0.3987 0.0
H1162 H 0.30172 0.99109 0.57986 0.0
H1163 H 0.33011 0.99302 0.57711 0.0
H1164 H 0.31781 0.96792 0.59117 0.0
H1165 H 0.30009 0.01392 0.4116 0.0
H1166 H 0.31566 0.99707 0.37601 0.0
H1167 H 0.32855 0.0151 0.41371 0.0
C1168 C 0.04347 0.30557 0.44664 0.0
C1169 C 0.05799 0.32011 0.46473 0.0
C1170 C 0.02155 0.30679 0.45631 0.0
C1171 C 0.01404 0.32243 0.48611 0.0
C1172 C 0.02868 0.33717 0.50445 0.0
C1173 C 0.0504 0.33605 0.49297 0.0
C1174 C 0.00647 0.29119 0.4349 0.0
C1175 C 0.02153 0.35365 0.53737 0.0
C1176 C 0.95466 0.33601 0.48743 0.0
C1177 C 0.94693 0.32228 0.52009 0.0
C1178 C 0.97642 0.33625 0.47605 0.0
C1179 C 0.99097 0.32298 0.49885 0.0
C1180 C 0.98332 0.30968 0.53303 0.0
C1181 C 0.96137 0.3092 0.54265 0.0
C1182 C 0.98371 0.35014 0.4385 0.0
C1183 C 0.9983 0.29576 0.55913 0.0
H1184 H 0.04926 0.29323 0.42478 0.0
H1185 H 0.06161 0.34713 0.50756 0.0
H1186 H 0.99935 0.28062 0.4601 0.0
H1187 H 0.99319 0.29988 0.41882 0.0
H1188 H 0.01457 0.28109 0.41002 0.0
H1189 H 0.03484 0.36403 0.54841 0.0
H1190 H 0.00886 0.36384 0.52308 0.0
H1191 H 0.01458 0.34558 0.56644 0.0
H1192 H 0.94353 0.34591 0.46942 0.0
H1193 H 0.95548 0.29857 0.56793 0.0
H1194 H 0.99059 0.34002 0.41222 0.0
H1195 H 0.99645 0.36115 0.44957 0.0
H1196 H 0.97048 0.35972 0.4244 0.0
H1197 H 0.00535 0.28339 0.53756 0.0
H1198 H 0.99013 0.28769 0.58687 0.0
H1199 H 0.01164 0.30545 0.57231 0.0
C1200 C 0.26019 0.32231 0.03022 0.0
C1201 C 0.24163 0.32063 0.00468 0.0
C1202 C 0.27651 0.30694 0.02733 0.0
C1203 C 0.27434 0.28955 0.99795 0.0
C1204 C 0.25575 0.28789 0.97186 0.0
C1205 C 0.23966 0.30334 0.97565 0.0
C1206 C 0.29599 0.30919 0.05597 0.0
C1207 C 0.25283 0.26973 0.9399 0.0
C1208 C 0.32349 0.25856 0.96099 0.0
C1209 C 0.32218 0.24006 0.98681 0.0
C1210 C 0.3082 0.27488 0.96458 0.0
C1211 C 0.29122 0.2728 0.99495 0.0
C1212 C 0.28991 0.25428 0.02136 0.0
C1213 C 0.3053 0.23814 0.01686 0.0
C1214 C 0.31007 0.29427 0.93551 0.0
C1215 C 0.27217 0.25146 0.05434 0.0
H1216 H 0.26192 0.33556 0.05274 0.0
H1217 H 0.22549 0.30185 0.95553 0.0
H1218 H 0.29752 0.29504 0.07758 0.0
H1219 H 0.31056 0.30985 0.03537 0.0
H1220 H 0.29539 0.32372 0.07676 0.0
H1221 H 0.23768 0.27101 0.92119 0.0
H1222 H 0.2663 0.26936 0.91632 0.0
H1223 H 0.25289 0.25431 0.95773 0.0
H1224 H 0.33644 0.26028 0.93772 0.0
H1225 H 0.30416 0.22404 0.03727 0.0
H1226 H 0.31076 0.30893 0.9558 0.0
H1227 H 0.29574 0.29557 0.91433 0.0
H1228 H 0.32444 0.2937 0.91425 0.0
H1229 H 0.27194 0.26511 0.07745 0.0
H1230 H 0.27382 0.23648 0.07348 0.0
H1231 H 0.25655 0.25123 0.03728 0.0
C1232 C 0.74527 0.32413 0.96339 0.0
C1233 C 0.7637 0.32322 0.98946 0.0
C1234 C 0.72915 0.3086 0.96719 0.0
C1235 C 0.73139 0.29183 0.998 0.0
C1236 C 0.7499 0.29088 0.02448 0.0
C1237 C 0.76581 0.30647 0.01979 0.0
C1238 C 0.70975 0.31008 0.93806 0.0
C1239 C 0.75291 0.27337 0.0579 0.0
C1240 C 0.68231 0.26099 0.03615 0.0
C1241 C 0.68396 0.24208 0.01171 0.0
C1242 C 0.6975 0.27738 0.03178 0.0
C1243 C 0.71468 0.27494 0.00199 0.0
C1244 C 0.71631 0.25601 0.97695 0.0
C1245 C 0.70103 0.23983 0.98222 0.0
C1246 C 0.69529 0.29723 0.05938 0.0
C1247 C 0.73427 0.25279 0.94464 0.0
H1248 H 0.74343 0.33694 0.93986 0.0
H1249 H 0.77988 0.30559 0.04033 0.0
H1250 H 0.70843 0.29548 0.9177 0.0
H1251 H 0.69511 0.31105 0.95836 0.0
H1252 H 0.71031 0.32417 0.91602 0.0
H1253 H 0.76799 0.27515 0.07666 0.0
H1254 H 0.73938 0.27331 0.08133 0.0
H1255 H 0.75305 0.25763 0.04132 0.0
H1256 H 0.66922 0.26295 0.059 0.0
H1257 H 0.70246 0.2254 0.96289 0.0
H1258 H 0.69453 0.31152 0.03802 0.0
H1259 H 0.7095 0.29905 0.08072 0.0
H1260 H 0.68082 0.29687 0.0804 0.0
H1261 H 0.73449 0.26602 0.92049 0.0
H1262 H 0.73289 0.23746 0.92663 0.0
H1263 H 0.7498 0.25305 0.96207 0.0
C1264 C 0.74659 0.68277 0.03978 0.0
C1265 C 0.76491 0.68397 0.01341 0.0
C1266 C 0.73017 0.69799 0.03611 0.0
C1267 C 0.73201 0.71474 0.00514 0.0
C1268 C 0.75036 0.71593 0.97825 0.0
C1269 C 0.76657 0.70064 0.98281 0.0
C1270 C 0.71094 0.69625 0.06565 0.0
C1271 C 0.75294 0.73344 0.94465 0.0
C1272 C 0.68247 0.74515 0.96812 0.0
C1273 C 0.6841 0.76407 0.99249 0.0
C1274 C 0.69779 0.72886 0.97221 0.0
C1275 C 0.7151 0.73144 0.0016 0.0
C1276 C 0.71671 0.75039 0.02659 0.0
C1277 C 0.7013 0.76645 0.02163 0.0
C1278 C 0.69559 0.70898 0.94469 0.0
C1279 C 0.73483 0.75376 0.05847 0.0
H1280 H 0.74509 0.66999 0.0635 0.0
H1281 H 0.78054 0.70174 0.96202 0.0
H1282 H 0.70961 0.71078 0.08622 0.0
H1283 H 0.6962 0.69522 0.04568 0.0
H1284 H 0.71174 0.6821 0.0875 0.0
H1285 H 0.76788 0.73178 0.92539 0.0
H1286 H 0.73923 0.73335 0.92168 0.0
H1287 H 0.75306 0.74919 0.96117 0.0
H1288 H 0.66929 0.74308 0.94555 0.0
H1289 H 0.70272 0.7809 0.04091 0.0
H1290 H 0.69515 0.69468 0.96608 0.0
H1291 H 0.70966 0.70732 0.9229 0.0
H1292 H 0.68097 0.70918 0.92415 0.0
H1293 H 0.73532 0.74052 0.08257 0.0
H1294 H 0.73339 0.76906 0.07658 0.0
H1295 H 0.75025 0.75368 0.04066 0.0
C1296 C 0.23914 0.70478 0.02441 0.0
C1297 C 0.24229 0.68802 0.99453 0.0
C1298 C 0.25463 0.72071 0.0304 0.0
C1299 C 0.27373 0.72006 0.00571 0.0
C1300 C 0.27696 0.70333 0.97519 0.0
C1301 C 0.26126 0.6875 0.97007 0.0
C1302 C 0.25061 0.73816 0.06348 0.0
C1303 C 0.29702 0.70215 0.94792 0.0
C1304 C 0.30519 0.77155 0.99173 0.0
C1305 C 0.32192 0.76888 0.02188 0.0
C1306 C 0.28946 0.75583 0.98617 0.0
C1307 C 0.29027 0.73696 0.01161 0.0
C1308 C 0.3069 0.73427 0.04256 0.0
C1309 C 0.32255 0.75019 0.04722 0.0
C1310 C 0.2721 0.75929 0.95261 0.0
C1311 C 0.30824 0.71448 0.07062 0.0
H1312 H 0.22463 0.70534 0.04369 0.0
H1313 H 0.26391 0.67468 0.94687 0.0
H1314 H 0.26341 0.73816 0.08857 0.0
H1315 H 0.25098 0.75394 0.04707 0.0
H1316 H 0.23499 0.73634 0.08028 0.0
H1317 H 0.29703 0.68824 0.92539 0.0
H1318 H 0.29877 0.71691 0.9282 0.0
H1319 H 0.31117 0.70105 0.96961 0.0
H1320 H 0.30454 0.78583 0.97175 0.0
H1321 H 0.33534 0.74791 0.07063 0.0
H1322 H 0.25623 0.75862 0.96862 0.0
H1323 H 0.27256 0.74638 0.92777 0.0
H1324 H 0.27367 0.77486 0.93553 0.0
H1325 H 0.29332 0.71255 0.08977 0.0
H1326 H 0.32193 0.71497 0.09372 0.0
H1327 H 0.30988 0.70018 0.04948 0.0
C1328 C 0.80744 0.7405 0.52151 0.0
C1329 C 0.82462 0.74289 0.49231 0.0
C1330 C 0.79204 0.75657 0.52658 0.0
C1331 C 0.79363 0.77553 0.50163 0.0
C1332 C 0.81092 0.77813 0.47219 0.0
C1333 C 0.82624 0.76184 0.468 0.0
C1334 C 0.77395 0.75317 0.55852 0.0
C1335 C 0.8131 0.79803 0.4447 0.0
C1336 C 0.74212 0.8063 0.48305 0.0
C1337 C 0.74377 0.82296 0.51367 0.0
C1338 C 0.75834 0.79103 0.47841 0.0
C1339 C 0.77671 0.79223 0.50524 0.0
C1340 C 0.77854 0.80898 0.53622 0.0
C1341 C 0.76211 0.82418 0.53996 0.0
C1342 C 0.75576 0.77354 0.44479 0.0
C1343 C 0.79779 0.81072 0.5657 0.0
H1344 H 0.80603 0.72604 0.54075 0.0
H1345 H 0.83941 0.76392 0.44539 0.0
H1346 H 0.77346 0.76641 0.58261 0.0
H1347 H 0.75851 0.75324 0.54075 0.0
H1348 H 0.7754 0.73787 0.57662 0.0
H1349 H 0.82773 0.79784 0.42414 0.0
H1350 H 0.79903 0.79969 0.42294 0.0
H1351 H 0.81354 0.81232 0.46611 0.0
H1352 H 0.72813 0.80519 0.46232 0.0
H1353 H 0.76361 0.83695 0.5637 0.0
H1354 H 0.75564 0.75778 0.46129 0.0
H1355 H 0.76946 0.77364 0.42179 0.0
H1356 H 0.74081 0.7752 0.42556 0.0
H1357 H 0.79914 0.79619 0.58626 0.0
H1358 H 0.797 0.82486 0.58756 0.0
H1359 H 0.81253 0.81176 0.54569 0.0
C1360 C 0.2474 0.82256 0.47327 0.0
C1361 C 0.26668 0.81994 0.49606 0.0
C1362 C 0.23083 0.80752 0.47706 0.0
C1363 C 0.2335 0.78951 0.50459 0.0
C1364 C 0.25282 0.78689 0.52795 0.0
C1365 C 0.26916 0.80203 0.52326 0.0
C1366 C 0.21056 0.81078 0.45125 0.0
C1367 C 0.25629 0.76802 0.55789 0.0
C1368 C 0.18475 0.75841 0.54372 0.0
C1369 C 0.18512 0.74058 0.51589 0.0
C1370 C 0.20027 0.77455 0.54025 0.0
C1371 C 0.21643 0.77296 0.50791 0.0
C1372 C 0.21672 0.75515 0.47944 0.0
C1373 C 0.20118 0.73918 0.48389 0.0
C1374 C 0.19953 0.79318 0.57151 0.0
C1375 C 0.23354 0.75288 0.44429 0.0
H1376 H 0.24525 0.83632 0.45223 0.0
H1377 H 0.28388 0.79986 0.54135 0.0
H1378 H 0.20813 0.7972 0.42849 0.0
H1379 H 0.19666 0.81118 0.47372 0.0
H1380 H 0.21082 0.82579 0.4319 0.0
H1381 H 0.27194 0.76867 0.57489 0.0
H1382 H 0.24347 0.76735 0.58294 0.0
H1383 H 0.25547 0.75301 0.53874 0.0
H1384 H 0.17244 0.7597 0.56852 0.0
H1385 H 0.2016 0.72561 0.46193 0.0
H1386 H 0.19856 0.80835 0.55292 0.0
H1387 H 0.21442 0.79372 0.59112 0.0
H1388 H 0.18573 0.79228 0.59428 0.0
H1389 H 0.23344 0.7671 0.42266 0.0
H1390 H 0.23112 0.73845 0.42378 0.0
H1391 H 0.24957 0.75196 0.45954 0.0
C1392 C 0.26798 0.20422 0.47931 0.0
C1393 C 0.26561 0.18811 0.51093 0.0
C1394 C 0.25207 0.21969 0.47282 0.0
C1395 C 0.23335 0.21923 0.49879 0.0
C1396 C 0.23095 0.20318 0.53109 0.0
C1397 C 0.24703 0.18779 0.53666 0.0
C1398 C 0.25521 0.23644 0.43785 0.0
C1399 C 0.21135 0.20225 0.55978 0.0
C1400 C 0.20145 0.27051 0.5109 0.0
C1401 C 0.18423 0.26709 0.48225 0.0
C1402 C 0.21747 0.25511 0.51653 0.0
C1403 C 0.21646 0.23578 0.49271 0.0
C1404 C 0.1993 0.23226 0.46334 0.0
C1405 C 0.18336 0.2479 0.45858 0.0
C1406 C 0.23538 0.25946 0.54839 0.0
C1407 C 0.19775 0.21193 0.43706 0.0
H1408 H 0.28215 0.20456 0.45898 0.0
H1409 H 0.24498 0.17546 0.56118 0.0
H1410 H 0.24198 0.23569 0.41378 0.0
H1411 H 0.25486 0.25256 0.45279 0.0
H1412 H 0.27055 0.23447 0.42007 0.0
H1413 H 0.21192 0.18881 0.58348 0.0
H1414 H 0.20966 0.21737 0.57834 0.0
H1415 H 0.19688 0.20048 0.53918 0.0
H1416 H 0.20233 0.2852 0.52955 0.0
H1417 H 0.1702 0.24505 0.43632 0.0
H1418 H 0.25095 0.25875 0.53116 0.0
H1419 H 0.23562 0.24701 0.57422 0.0
H1420 H 0.23388 0.2753 0.56437 0.0
H1421 H 0.21232 0.20985 0.41687 0.0
H1422 H 0.18362 0.21177 0.41509 0.0
H1423 H 0.19675 0.19803 0.45946 0.0
C1424 C 0.82456 0.24606 0.53589 0.0
C1425 C 0.82246 0.26504 0.51187 0.0
C1426 C 0.80951 0.22951 0.53185 0.0
C1427 C 0.79201 0.23189 0.50285 0.0
C1428 C 0.78994 0.2509 0.47821 0.0
C1429 C 0.80508 0.26722 0.48312 0.0
C1430 C 0.8122 0.20957 0.559 0.0
C1431 C 0.77162 0.25407 0.44674 0.0
C1432 C 0.76126 0.18281 0.46437 0.0
C1433 C 0.74301 0.18359 0.49101 0.0
C1434 C 0.77742 0.1983 0.46805 0.0
C1435 C 0.7754 0.21489 0.49933 0.0
C1436 C 0.75714 0.21564 0.52654 0.0
C1437 C 0.74118 0.2001 0.52194 0.0
C1438 C 0.79656 0.19704 0.43815 0.0
C1439 C 0.75438 0.23295 0.5605 0.0
H1440 H 0.83789 0.24415 0.55815 0.0
H1441 H 0.8033 0.28171 0.46412 0.0
H1442 H 0.79826 0.20756 0.58101 0.0
H1443 H 0.81282 0.19537 0.53738 0.0
H1444 H 0.82691 0.20997 0.57929 0.0
H1445 H 0.77268 0.26947 0.42887 0.0
H1446 H 0.77126 0.24092 0.42244 0.0
H1447 H 0.75628 0.25363 0.46485 0.0
H1448 H 0.76289 0.17017 0.44039 0.0
H1449 H 0.72726 0.20087 0.54295 0.0
H1450 H 0.8114 0.19621 0.45784 0.0
H1451 H 0.79753 0.21166 0.41779 0.0
H1452 H 0.79593 0.18296 0.41609 0.0
H1453 H 0.76821 0.23303 0.5832 0.0
H1454 H 0.73957 0.23092 0.58003 0.0
H1455 H 0.75388 0.24877 0.54427 0.0
C1456 C 0.16967 0.33235 0.3424 0.0
C1457 C 0.14841 0.3271 0.35209 0.0
C1458 C 0.17581 0.33863 0.30015 0.0
C1459 C 0.16027 0.34018 0.26671 0.0
C1460 C 0.13868 0.33533 0.27638 0.0
C1461 C 0.13304 0.32857 0.31887 0.0
C1462 C 0.19908 0.34306 0.29107 0.0
C1463 C 0.12158 0.33718 0.24179 0.0
C1464 C 0.17592 0.37199 0.165 0.0
C1465 C 0.18093 0.35565 0.1354 0.0
C1466 C 0.16867 0.36723 0.2076 0.0
C1467 C 0.16692 0.34566 0.22113 0.0
C1468 C 0.17235 0.32916 0.19152 0.0
C1469 C 0.17904 0.33435 0.149 0.0
C1470 C 0.16267 0.38524 0.23799 0.0
C1471 C 0.1713 0.30599 0.20487 0.0
H1472 H 0.1817 0.33111 0.36775 0.0
H1473 H 0.11657 0.32471 0.32622 0.0
H1474 H 0.20509 0.33179 0.26589 0.0
H1475 H 0.20106 0.35939 0.27774 0.0
H1476 H 0.20912 0.3415 0.3209 0.0
H1477 H 0.10538 0.33424 0.25524 0.0
H1478 H 0.12195 0.35331 0.22687 0.0
H1479 H 0.12462 0.32553 0.21516 0.0
H1480 H 0.17714 0.38845 0.1545 0.0
H1481 H 0.18303 0.32162 0.1264 0.0
H1482 H 0.17302 0.38498 0.26746 0.0
H1483 H 0.14599 0.38317 0.24939 0.0
H1484 H 0.16417 0.40109 0.22201 0.0
H1485 H 0.18184 0.30317 0.23352 0.0
H1486 H 0.17622 0.29509 0.17799 0.0
H1487 H 0.15484 0.3018 0.21499 0.0
C1488 C 0.67583 0.17147 0.35198 0.0
C1489 C 0.68046 0.15009 0.36188 0.0
C1490 C 0.66925 0.17764 0.30987 0.0
C1491 C 0.66676 0.16201 0.27682 0.0
C1492 C 0.671 0.14032 0.28673 0.0
C1493 C 0.67806 0.13465 0.329 0.0
C1494 C 0.66546 0.20098 0.30054 0.0
C1495 C 0.66815 0.12313 0.25262 0.0
C1496 C 0.63387 0.17787 0.17658 0.0
C1497 C 0.64987 0.18213 0.1457 0.0
C1498 C 0.63907 0.17085 0.21915 0.0
C1499 C 0.66078 0.16859 0.23138 0.0
C1500 C 0.67695 0.17326 0.20047 0.0
C1501 C 0.6713 0.17971 0.158 0.0
C1502 C 0.62137 0.16565 0.2509 0.0
C1503 C 0.70029 0.17164 0.21234 0.0
H1504 H 0.67776 0.18357 0.37702 0.0
H1505 H 0.68142 0.11809 0.33647 0.0
H1506 H 0.67652 0.20648 0.27448 0.0
H1507 H 0.649 0.20344 0.28826 0.0
H1508 H 0.66783 0.21111 0.33001 0.0
H1509 H 0.67082 0.10691 0.26622 0.0
H1510 H 0.65182 0.1239 0.23871 0.0
H1511 H 0.67949 0.12571 0.22522 0.0
H1512 H 0.61728 0.1795 0.16714 0.0
H1513 H 0.68378 0.18312 0.13443 0.0
H1514 H 0.62241 0.17618 0.28002 0.0
H1515 H 0.62309 0.14899 0.26266 0.0
H1516 H 0.60533 0.16754 0.23593 0.0
H1517 H 0.70383 0.18226 0.24051 0.0
H1518 H 0.7109 0.17608 0.18463 0.0
H1519 H 0.70416 0.15514 0.22264 0.0
C1520 C 0.87459 0.67912 0.32748 0.0
C1521 C 0.85866 0.68275 0.35887 0.0
C1522 C 0.86933 0.67215 0.28491 0.0
C1523 C 0.84763 0.66927 0.27321 0.0
C1524 C 0.83152 0.67326 0.30465 0.0
C1525 C 0.83724 0.6797 0.34708 0.0
C1526 C 0.88699 0.66769 0.25256 0.0
C1527 C 0.80818 0.67097 0.29336 0.0
C1528 C 0.83177 0.67247 0.1531 0.0
C1529 C 0.8278 0.65101 0.14269 0.0
C1530 C 0.83837 0.67856 0.19522 0.0
C1531 C 0.84157 0.6628 0.22775 0.0
C1532 C 0.83796 0.64106 0.21733 0.0
C1533 C 0.83086 0.63544 0.17506 0.0
C1534 C 0.84148 0.70195 0.20512 0.0
C1535 C 0.84156 0.62374 0.25088 0.0
H1536 H 0.89117 0.68125 0.33649 0.0
H1537 H 0.8248 0.68262 0.37102 0.0
H1538 H 0.88568 0.65108 0.24032 0.0
H1539 H 0.88545 0.6784 0.22381 0.0
H1540 H 0.90305 0.66994 0.26718 0.0
H1541 H 0.79761 0.67484 0.3215 0.0
H1542 H 0.8041 0.68167 0.26564 0.0
H1543 H 0.80477 0.65442 0.28264 0.0
H1544 H 0.82932 0.68466 0.12843 0.0
H1545 H 0.82801 0.61883 0.16718 0.0
H1546 H 0.85794 0.70485 0.21698 0.0
H1547 H 0.83044 0.70691 0.23166 0.0
H1548 H 0.83857 0.7122 0.17602 0.0
H1549 H 0.85796 0.62491 0.26431 0.0
H1550 H 0.83927 0.60754 0.23693 0.0
H1551 H 0.83036 0.62581 0.2787 0.0
C1552 C 0.32635 0.83657 0.34985 0.0
C1553 C 0.32574 0.85762 0.36535 0.0
C1554 C 0.33289 0.83189 0.307 0.0
C1555 C 0.33951 0.84864 0.27904 0.0
C1556 C 0.33892 0.86998 0.29442 0.0
C1557 C 0.33175 0.87426 0.33732 0.0
C1558 C 0.33265 0.80899 0.29165 0.0
C1559 C 0.34623 0.88821 0.26586 0.0
C1560 C 0.37358 0.83068 0.18227 0.0
C1561 C 0.35857 0.83037 0.14822 0.0
C1562 C 0.36784 0.83751 0.22466 0.0
C1563 C 0.34648 0.84363 0.2334 0.0
C1564 C 0.33134 0.84345 0.19905 0.0
C1565 C 0.33761 0.83707 0.15693 0.0
C1566 C 0.38455 0.83787 0.26025 0.0
C1567 C 0.30829 0.84928 0.20708 0.0
H1568 H 0.32157 0.82366 0.37135 0.0
H1569 H 0.33151 0.89051 0.34939 0.0
H1570 H 0.32249 0.80745 0.26203 0.0
H1571 H 0.34898 0.80392 0.28238 0.0
H1572 H 0.32655 0.79792 0.31717 0.0
H1573 H 0.34512 0.90383 0.28287 0.0
H1574 H 0.36302 0.88558 0.25567 0.0
H1575 H 0.33649 0.8889 0.23556 0.0
H1576 H 0.38983 0.82571 0.17576 0.0
H1577 H 0.32582 0.83678 0.13097 0.0
H1578 H 0.38065 0.82579 0.28558 0.0
H1579 H 0.38471 0.85366 0.27664 0.0
H1580 H 0.40077 0.83448 0.24735 0.0
H1581 H 0.30113 0.83786 0.23065 0.0
H1582 H 0.29868 0.84909 0.1765 0.0
H1583 H 0.30717 0.86537 0.22196 0.0
C1584 C 0.13704 0.67493 0.67753 0.0
C1585 C 0.15233 0.67766 0.64446 0.0
C1586 C 0.14299 0.66806 0.71976 0.0
C1587 C 0.16481 0.66436 0.72943 0.0
C1588 C 0.18028 0.66713 0.69613 0.0
C1589 C 0.17384 0.6735 0.65408 0.0
C1590 C 0.12597 0.66489 0.75412 0.0
C1591 C 0.20374 0.66395 0.70521 0.0
C1592 C 0.1826 0.67024 0.84788 0.0
C1593 C 0.18561 0.64898 0.86084 0.0
C1594 C 0.17596 0.6754 0.80529 0.0
C1595 C 0.17169 0.65888 0.77494 0.0
C1596 C 0.17458 0.63733 0.78782 0.0
C1597 C 0.18179 0.63264 0.83051 0.0
C1598 C 0.17368 0.69859 0.79271 0.0
C1599 C 0.16979 0.61926 0.75669 0.0
H1600 H 0.12038 0.67793 0.67028 0.0
H1601 H 0.18581 0.67569 0.62887 0.0
H1602 H 0.12731 0.6487 0.76855 0.0
H1603 H 0.12823 0.6765 0.78114 0.0
H1604 H 0.10965 0.66692 0.74061 0.0
H1605 H 0.21371 0.66631 0.67549 0.0
H1606 H 0.20907 0.67535 0.73078 0.0
H1607 H 0.20663 0.64766 0.71803 0.0
H1608 H 0.18568 0.68297 0.87106 0.0
H1609 H 0.18388 0.61618 0.84051 0.0
H1610 H 0.15703 0.70195 0.78262 0.0
H1611 H 0.18408 0.7022 0.76423 0.0
H1612 H 0.17795 0.70951 0.81999 0.0
H1613 H 0.15304 0.6204 0.74519 0.0
H1614 H 0.17224 0.6034 0.77208 0.0
H1615 H 0.18017 0.62043 0.72733 0.0
C1616 C 0.32733 0.13315 0.67295 0.0
C1617 C 0.32428 0.14925 0.6417 0.0
C1618 C 0.33471 0.13806 0.71541 0.0
C1619 C 0.33858 0.15961 0.72714 0.0
C1620 C 0.33525 0.17589 0.69578 0.0
C1621 C 0.3284 0.1705 0.65346 0.0
C1622 C 0.33847 0.12021 0.74766 0.0
C1623 C 0.33856 0.19911 0.70711 0.0
C1624 C 0.33539 0.17557 0.84712 0.0
C1625 C 0.35691 0.17879 0.858 0.0
C1626 C 0.32928 0.16918 0.8049 0.0
C1627 C 0.34509 0.1654 0.77273 0.0
C1628 C 0.3669 0.16827 0.78361 0.0
C1629 C 0.37254 0.17522 0.82599 0.0
C1630 C 0.30583 0.16695 0.7945 0.0
C1631 C 0.38425 0.164 0.75047 0.0
H1632 H 0.32436 0.1167 0.66393 0.0
H1633 H 0.32592 0.18307 0.62962 0.0
H1634 H 0.35504 0.12099 0.76032 0.0
H1635 H 0.32764 0.122 0.77617 0.0
H1636 H 0.33581 0.10426 0.73282 0.0
H1637 H 0.33531 0.20983 0.6789 0.0
H1638 H 0.32789 0.20367 0.73458 0.0
H1639 H 0.35518 0.20177 0.71822 0.0
H1640 H 0.32317 0.17846 0.87154 0.0
H1641 H 0.3892 0.1775 0.8343 0.0
H1642 H 0.30237 0.15059 0.78268 0.0
H1643 H 0.30143 0.17812 0.76779 0.0
H1644 H 0.29555 0.17028 0.82336 0.0
H1645 H 0.38253 0.14764 0.73706 0.0
H1646 H 0.40044 0.16569 0.76479 0.0
H1647 H 0.38275 0.17524 0.72257 0.0
C1648 C 0.83368 0.33619 0.85324 0.0
C1649 C 0.82697 0.35715 0.8619 0.0
C1650 C 0.8403 0.32996 0.81119 0.0
C1651 C 0.84067 0.34512 0.77686 0.0
C1652 C 0.83441 0.36645 0.78551 0.0
C1653 C 0.82741 0.37216 0.8278 0.0
C1654 C 0.84634 0.30696 0.80329 0.0
C1655 C 0.83493 0.38318 0.74997 0.0
C1656 C 0.87305 0.33099 0.6748 0.0
C1657 C 0.85696 0.32479 0.64558 0.0
C1658 C 0.86799 0.33804 0.71743 0.0
C1659 C 0.84642 0.33831 0.73143 0.0
C1660 C 0.83022 0.33158 0.70225 0.0
C1661 C 0.83565 0.32519 0.65962 0.0
C1662 C 0.88568 0.34552 0.74723 0.0
C1663 C 0.80709 0.33101 0.71609 0.0
H1664 H 0.83333 0.3244 0.8792 0.0
H1665 H 0.82243 0.38841 0.8342 0.0
H1666 H 0.83538 0.29984 0.77876 0.0
H1667 H 0.86269 0.30597 0.78963 0.0
H1668 H 0.84565 0.29725 0.83371 0.0
H1669 H 0.83104 0.39932 0.76266 0.0
H1670 H 0.85095 0.38366 0.73455 0.0
H1671 H 0.82332 0.37906 0.7239 0.0
H1672 H 0.8895 0.33093 0.66391 0.0
H1673 H 0.82315 0.32029 0.63724 0.0
H1674 H 0.88613 0.33558 0.77729 0.0
H1675 H 0.8826 0.36218 0.7577 0.0
H1676 H 0.90155 0.3448 0.73112 0.0
H1677 H 0.80522 0.3207 0.7454 0.0
H1678 H 0.79649 0.32491 0.68975 0.0
H1679 H 0.8017 0.34724 0.72536 0.0
C1680 C 0.63405 0.82782 0.82809 0.0
C1681 C 0.64996 0.82434 0.85958 0.0
C1682 C 0.63932 0.83476 0.78551 0.0
C1683 C 0.66102 0.83778 0.7739 0.0
C1684 C 0.67711 0.83397 0.80545 0.0
C1685 C 0.67138 0.82754 0.84789 0.0
C1686 C 0.62168 0.83903 0.75303 0.0
C1687 C 0.70045 0.83642 0.79428 0.0
C1688 C 0.67708 0.83443 0.65392 0.0
C1689 C 0.68091 0.85588 0.64332 0.0
C1690 C 0.67045 0.82839 0.69606 0.0
C1691 C 0.66709 0.8442 0.72842 0.0
C1692 C 0.67057 0.86594 0.71781 0.0
C1693 C 0.67769 0.87151 0.67553 0.0
C1694 C 0.6675 0.80499 0.70618 0.0
C1695 C 0.66679 0.88331 0.75116 0.0
H1696 H 0.61747 0.82557 0.83702 0.0
H1697 H 0.68381 0.82474 0.8719 0.0
H1698 H 0.6229 0.85562 0.7406 0.0
H1699 H 0.62331 0.82826 0.7244 0.0
H1700 H 0.60561 0.83672 0.7676 0.0
H1701 H 0.711 0.8327 0.82251 0.0
H1702 H 0.70466 0.82568 0.7667 0.0
H1703 H 0.70374 0.85297 0.78338 0.0
H1704 H 0.67964 0.8222 0.62938 0.0
H1705 H 0.68044 0.88812 0.66749 0.0
H1706 H 0.65104 0.802 0.71796 0.0
H1707 H 0.67853 0.80017 0.73284 0.0
H1708 H 0.67053 0.7947 0.6772 0.0
H1709 H 0.65037 0.88206 0.76448 0.0
H1710 H 0.669 0.89949 0.73706 0.0
H1711 H 0.67795 0.88137 0.77908 0.0
C1712 C 0.86691 0.68682 0.67341 0.0
C1713 C 0.85198 0.68277 0.64038 0.0
C1714 C 0.86295 0.68043 0.71682 0.0
C1715 C 0.84326 0.67059 0.72742 0.0
C1716 C 0.82794 0.66701 0.69418 0.0
C1717 C 0.83267 0.67278 0.65089 0.0
C1718 C 0.87995 0.68386 0.75113 0.0
C1719 C 0.80646 0.65731 0.70437 0.0
C1720 C 0.83708 0.63682 0.83011 0.0
C1721 C 0.82872 0.65167 0.85967 0.0
C1722 C 0.84246 0.64291 0.7872 0.0
C1723 C 0.83855 0.66411 0.7733 0.0
C1724 C 0.82963 0.67902 0.80294 0.0
C1725 C 0.82523 0.67271 0.8461 0.0
C1726 C 0.85258 0.62676 0.75696 0.0
C1727 C 0.82446 0.70153 0.78894 0.0
H1728 H 0.88191 0.6944 0.66504 0.0
H1729 H 0.82106 0.66983 0.62524 0.0
H1730 H 0.87388 0.69451 0.77732 0.0
H1731 H 0.88409 0.66843 0.76677 0.0
H1732 H 0.89468 0.691 0.73719 0.0
H1733 H 0.79598 0.65651 0.67504 0.0
H1734 H 0.80853 0.64095 0.71746 0.0
H1735 H 0.79828 0.66681 0.73005 0.0
H1736 H 0.84002 0.62062 0.84096 0.0
H1737 H 0.81868 0.68415 0.86913 0.0
H1738 H 0.86793 0.63304 0.74423 0.0
H1739 H 0.8421 0.62386 0.72832 0.0
H1740 H 0.85562 0.61129 0.77357 0.0
H1741 H 0.8392 0.70986 0.77842 0.0
H1742 H 0.8169 0.71092 0.81562 0.0
H1743 H 0.81351 0.70124 0.76037 0.0
C1744 C 0.34787 0.83806 0.65621 0.0
C1745 C 0.3265 0.84175 0.64486 0.0
C1746 C 0.35369 0.83343 0.69954 0.0
C1747 C 0.33775 0.83233 0.73225 0.0
C1748 C 0.31615 0.83606 0.72107 0.0
C1749 C 0.31079 0.84083 0.6775 0.0
C1750 C 0.37691 0.82978 0.71035 0.0
C1751 C 0.2987 0.83494 0.7551 0.0
C1752 C 0.34905 0.80236 0.83795 0.0
C1753 C 0.35288 0.81918 0.86716 0.0
C1754 C 0.34434 0.80638 0.79372 0.0
C1755 C 0.34367 0.82769 0.77841 0.0
C1756 C 0.34819 0.84467 0.80745 0.0
C1757 C 0.35266 0.84022 0.8515 0.0
C1758 C 0.33951 0.78788 0.76365 0.0
C1759 C 0.34789 0.86759 0.79222 0.0
H1760 H 0.36013 0.8388 0.63119 0.0
H1761 H 0.29424 0.84358 0.66896 0.0
H1762 H 0.38226 0.84152 0.73524 0.0
H1763 H 0.37907 0.81368 0.72474 0.0
H1764 H 0.38735 0.8312 0.68107 0.0
H1765 H 0.28265 0.83791 0.74091 0.0
H1766 H 0.29869 0.819 0.77089 0.0
H1767 H 0.30166 0.84688 0.78122 0.0
H1768 H 0.34913 0.78608 0.84989 0.0
H1769 H 0.35575 0.85331 0.87383 0.0
H1770 H 0.35023 0.78828 0.73474 0.0
H1771 H 0.32292 0.78921 0.75129 0.0
H1772 H 0.34135 0.77224 0.78031 0.0
H1773 H 0.35882 0.86968 0.76393 0.0
H1774 H 0.35268 0.87886 0.81852 0.0
H1775 H 0.33164 0.8719 0.78093 0.0
C1776 C 0.13755 0.31534 0.66486 0.0
C1777 C 0.15278 0.32062 0.63317 0.0
C1778 C 0.14077 0.3208 0.70904 0.0
C1779 C 0.16001 0.33095 0.72162 0.0
C1780 C 0.17573 0.33557 0.68971 0.0
C1781 C 0.17172 0.33073 0.64569 0.0
C1782 C 0.12337 0.31628 0.74195 0.0
C1783 C 0.19676 0.34569 0.70199 0.0
C1784 C 0.16414 0.3645 0.82467 0.0
C1785 C 0.17303 0.34995 0.85422 0.0
C1786 C 0.15899 0.35825 0.78182 0.0
C1787 C 0.16367 0.33721 0.76794 0.0
C1788 C 0.17281 0.32251 0.79772 0.0
C1789 C 0.177 0.32896 0.84087 0.0
C1790 C 0.14862 0.37416 0.75139 0.0
C1791 C 0.17877 0.3002 0.78367 0.0
H1792 H 0.12285 0.30766 0.65484 0.0
H1793 H 0.18354 0.33462 0.62099 0.0
H1794 H 0.12953 0.30596 0.7686 0.0
H1795 H 0.11806 0.33143 0.75728 0.0
H1796 H 0.10934 0.30837 0.7268 0.0
H1797 H 0.20784 0.34681 0.67366 0.0
H1798 H 0.19403 0.36197 0.71499 0.0
H1799 H 0.20459 0.33631 0.72832 0.0
H1800 H 0.16086 0.38066 0.83534 0.0
H1801 H 0.18398 0.31778 0.86388 0.0
H1802 H 0.13394 0.36723 0.73691 0.0
H1803 H 0.15957 0.37797 0.72394 0.0
H1804 H 0.14439 0.38924 0.76839 0.0
H1805 H 0.16457 0.29171 0.77092 0.0
H1806 H 0.18569 0.29072 0.81095 0.0
H1807 H 0.19059 0.30096 0.75662 0.0
C1808 C 0.64202 0.18508 0.83113 0.0
C1809 C 0.65694 0.1812 0.86427 0.0
C1810 C 0.64605 0.17859 0.78782 0.0
C1811 C 0.6658 0.16882 0.7774 0.0
C1812 C 0.68111 0.1654 0.81076 0.0
C1813 C 0.6763 0.17125 0.85397 0.0
C1814 C 0.62908 0.18187 0.75339 0.0
C1815 C 0.70265 0.15579 0.80076 0.0
C1816 C 0.67218 0.13511 0.67466 0.0
C1817 C 0.6804 0.15004 0.64508 0.0
C1818 C 0.66684 0.14114 0.71763 0.0
C1819 C 0.67063 0.16236 0.73156 0.0
C1820 C 0.67944 0.17733 0.70192 0.0
C1821 C 0.68381 0.17108 0.65872 0.0
C1822 C 0.65682 0.12492 0.74785 0.0
C1823 C 0.68449 0.19987 0.71595 0.0
H1824 H 0.62699 0.19262 0.83935 0.0
H1825 H 0.6879 0.16843 0.8797 0.0
H1826 H 0.63509 0.19259 0.72727 0.0
H1827 H 0.62511 0.1664 0.7377 0.0
H1828 H 0.61425 0.18885 0.76724 0.0
H1829 H 0.71307 0.15502 0.83018 0.0
H1830 H 0.70069 0.13942 0.78762 0.0
H1831 H 0.71084 0.16534 0.77517 0.0
H1832 H 0.66931 0.11891 0.66376 0.0
H1833 H 0.69025 0.18258 0.63567 0.0
H1834 H 0.64139 0.13106 0.76043 0.0
H1835 H 0.66727 0.12215 0.77661 0.0
H1836 H 0.65397 0.10941 0.73129 0.0
H1837 H 0.6697 0.20814 0.72625 0.0
H1838 H 0.6921 0.20927 0.68934 0.0
H1839 H 0.69536 0.19963 0.74466 0.0
C1840 C 0.82848 0.33734 0.35473 0.0
C1841 C 0.84766 0.32693 0.36464 0.0
C1842 C 0.82358 0.34322 0.31158 0.0
C1843 C 0.83859 0.33934 0.27787 0.0
C1844 C 0.85818 0.32915 0.2879 0.0
C1845 C 0.8623 0.32266 0.33117 0.0
C1846 C 0.80221 0.3533 0.30199 0.0
C1847 C 0.87487 0.32537 0.25309 0.0
C1848 C 0.82024 0.3369 0.15944 0.0
C1849 C 0.82419 0.35776 0.14528 0.0
C1850 C 0.82443 0.33081 0.20281 0.0
C1851 C 0.83366 0.34573 0.23205 0.0
C1852 C 0.83794 0.36678 0.21759 0.0
C1853 C 0.83274 0.37267 0.17448 0.0
C1854 C 0.81886 0.30849 0.21741 0.0
C1855 C 0.84842 0.38291 0.24735 0.0
H1856 H 0.81709 0.34046 0.38071 0.0
H1857 H 0.87719 0.31476 0.33906 0.0
H1858 H 0.80447 0.36954 0.28839 0.0
H1859 H 0.79362 0.34381 0.27688 0.0
H1860 H 0.79202 0.35448 0.3317 0.0
H1861 H 0.88964 0.31818 0.26669 0.0
H1862 H 0.86848 0.31462 0.2274 0.0
H1863 H 0.87902 0.34067 0.23692 0.0
H1864 H 0.81356 0.32543 0.13665 0.0
H1865 H 0.83604 0.38872 0.16313 0.0
H1866 H 0.80823 0.30913 0.24648 0.0
H1867 H 0.8335 0.29984 0.22732 0.0
H1868 H 0.81078 0.29921 0.19121 0.0
H1869 H 0.8382 0.38593 0.27636 0.0
H1870 H 0.85143 0.39832 0.23052 0.0
H1871 H 0.86382 0.37653 0.25957 0.0
C1872 C 0.6416 0.81987 0.17402 0.0
C1873 C 0.6566 0.82388 0.14108 0.0
C1874 C 0.6455 0.82625 0.21745 0.0
C1875 C 0.6652 0.83605 0.22816 0.0
C1876 C 0.68059 0.83957 0.19502 0.0
C1877 C 0.67592 0.83382 0.1517 0.0
C1878 C 0.62844 0.82287 0.25166 0.0
C1879 C 0.70208 0.84922 0.20533 0.0
C1880 C 0.67135 0.86987 0.33075 0.0
C1881 C 0.67967 0.85501 0.36038 0.0
C1882 C 0.66599 0.86375 0.28786 0.0
C1883 C 0.66985 0.84253 0.27405 0.0
C1884 C 0.6787 0.82762 0.30377 0.0
C1885 C 0.6831 0.83395 0.3469 0.0
C1886 C 0.65593 0.87991 0.25753 0.0
C1887 C 0.68382 0.80508 0.28986 0.0
H1888 H 0.62659 0.81234 0.16555 0.0
H1889 H 0.68757 0.83674 0.12612 0.0
H1890 H 0.63444 0.81224 0.27793 0.0
H1891 H 0.62429 0.83832 0.2672 0.0
H1892 H 0.61372 0.81575 0.23764 0.0
H1893 H 0.71261 0.84997 0.17609 0.0
H1894 H 0.70003 0.8656 0.21834 0.0
H1895 H 0.71018 0.83972 0.23111 0.0
H1896 H 0.66846 0.88609 0.34153 0.0
H1897 H 0.68961 0.82252 0.36998 0.0
H1898 H 0.6406 0.87365 0.2447 0.0
H1899 H 0.66647 0.88278 0.22896 0.0
H1900 H 0.65289 0.89538 0.2741 0.0
H1901 H 0.66908 0.7968 0.27923 0.0
H1902 H 0.69129 0.79568 0.31663 0.0
H1903 H 0.69484 0.80532 0.26139 0.0
C1904 C 0.17195 0.68365 0.34715 0.0
C1905 C 0.1513 0.67874 0.36133 0.0
C1906 C 0.17823 0.6797 0.3038 0.0
C1907 C 0.16376 0.66977 0.27462 0.0
C1908 C 0.14294 0.66447 0.28913 0.0
C1909 C 0.13681 0.66944 0.33221 0.0
C1910 C 0.20026 0.68634 0.28915 0.0
C1911 C 0.12732 0.65322 0.25941 0.0
C1912 C 0.17174 0.67567 0.152 0.0
C1913 C 0.18314 0.65711 0.14186 0.0
C1914 C 0.16564 0.68014 0.19521 0.0
C1915 C 0.17032 0.66525 0.22873 0.0
C1916 C 0.1815 0.64625 0.21844 0.0
C1917 C 0.18819 0.64261 0.17513 0.0
C1918 C 0.1545 0.70095 0.20508 0.0
C1919 C 0.18613 0.62968 0.25304 0.0
H1920 H 0.18309 0.6909 0.36989 0.0
H1921 H 0.12093 0.66542 0.3436 0.0
H1922 H 0.20957 0.67215 0.27903 0.0
H1923 H 0.19908 0.69699 0.2602 0.0
H1924 H 0.20919 0.69478 0.31538 0.0
H1925 H 0.11212 0.64936 0.27636 0.0
H1926 H 0.1237 0.66333 0.23054 0.0
H1927 H 0.13448 0.63821 0.24698 0.0
H1928 H 0.16802 0.68695 0.12615 0.0
H1929 H 0.19687 0.62818 0.16702 0.0
H1930 H 0.16357 0.70994 0.23025 0.0
H1931 H 0.13841 0.69783 0.21873 0.0
H1932 H 0.15277 0.71113 0.1755 0.0
H1933 H 0.1966 0.6365 0.27874 0.0
H1934 H 0.19401 0.61531 0.23922 0.0
H1935 H 0.17108 0.62474 0.26925 0.0
C1936 C 0.30532 0.16192 0.32841 0.0
C1937 C 0.32113 0.15875 0.36023 0.0
C1938 C 0.31077 0.16686 0.28492 0.0
C1939 C 0.33254 0.16849 0.27297 0.0
C1940 C 0.34856 0.16487 0.30474 0.0
C1941 C 0.34267 0.16011 0.34798 0.0
C1942 C 0.29324 0.17065 0.25189 0.0
C1943 C 0.37194 0.16625 0.29316 0.0
C1944 C 0.34641 0.16297 0.15247 0.0
C1945 C 0.34896 0.18433 0.13971 0.0
C1946 C 0.3413 0.15759 0.19581 0.0
C1947 C 0.33857 0.17396 0.22719 0.0
C1948 C 0.34148 0.19554 0.21478 0.0
C1949 C 0.34673 0.20047 0.17117 0.0
C1950 C 0.33856 0.1344 0.20788 0.0
C1951 C 0.33865 0.21342 0.24739 0.0
H1952 H 0.28865 0.16097 0.33763 0.0
H1953 H 0.35502 0.1576 0.37231 0.0
H1954 H 0.29454 0.18704 0.23846 0.0
H1955 H 0.29495 0.15944 0.22398 0.0
H1956 H 0.27711 0.16862 0.26635 0.0
H1957 H 0.38242 0.16258 0.32153 0.0
H1958 H 0.37569 0.15496 0.26623 0.0
H1959 H 0.37578 0.1825 0.28117 0.0
H1960 H 0.34821 0.15037 0.12843 0.0
H1961 H 0.3486 0.217 0.16155 0.0
H1962 H 0.32205 0.13155 0.21953 0.0
H1963 H 0.34946 0.13017 0.23517 0.0
H1964 H 0.34179 0.12357 0.17984 0.0
H1965 H 0.32214 0.21324 0.26047 0.0
H1966 H 0.34178 0.22932 0.23268 0.0
H1967 H 0.34959 0.21114 0.27559 0.0
loop_
_geom_bond_atom_site_label_1
_geom_bond_atom_site_label_2
_geom_bond_distance
_geom_bond_site_symmetry_2
_ccdc_geom_bond_type
Co0 O2 2.143 . S
Co0 O8 2.074 1_556 S
Co0 O11 2.093 . S
Co0 O24 2.097 . S
Co0 N41 2.151 . S
Co0 N49 2.214 . S
Co1 O2 2.160 1_554 S
Co1 O7 2.058 . S
Co1 O17 2.057 . S
Co1 O32 2.037 . S
Co1 N36 2.145 . S
Co1 N57 2.257 1_554 S
O2 Co0 2.143 . S
O2 Co1 2.160 1_556 S
C3 O4 1.278 . S
C3 O11 1.224 . S
O4 C3 1.278 . S
C5 O6 1.245 1_554 S
C5 O17 1.232 . S
O6 C5 1.245 1_556 S
O7 Co1 2.058 . S
O7 C33 1.269 . S
O8 Co0 2.074 1_554 S
O8 C33 1.257 . S
H9 C34 0.930 . S
H10 C40 0.930 . S
O11 Co0 2.093 . S
O11 C3 1.224 . S
H12 C44 0.929 . S
H13 C46 0.930 . S
H14 C47 0.930 . S
H15 C45 0.929 . S
H16 C48 0.928 . S
O17 Co1 2.057 . S
O17 C5 1.232 . S
H18 C37 0.929 . S
H19 C38 0.929 . S
H20 C50 0.931 . S
H21 C42 0.929 . S
H22 C51 0.930 . S
H23 C43 0.931 . S
O24 Co0 2.097 . S
O24 C52 1.214 1_556 S
H25 C53 0.929 . S
H26 C54 0.929 . S
H27 C55 0.930 . S
H28 C56 0.929 . S
H29 C58 0.930 . S
H30 C35 0.930 . S
H31 C39 0.930 . S
O32 Co1 2.037 . S
O32 C52 1.234 . S
C33 O7 1.269 . S
C33 O8 1.257 . S
C34 H9 0.930 . S
C34 C37 1.388 . S
C34 C39 1.418 . S
C35 H30 0.930 . S
C35 C38 1.404 . S
C35 C39 1.353 . S
N36 Co1 2.145 . S
N36 C37 1.397 . S
N36 C38 1.334 . S
C37 H18 0.929 . S
C37 C34 1.388 . S
C37 N36 1.397 . S
C38 H19 0.929 . S
C38 C35 1.404 . S
C38 N36 1.334 . S
C39 H31 0.930 . S
C39 C34 1.418 . S
C39 C35 1.353 . S
C40 H10 0.930 . S
C40 N41 1.330 . S
C40 C42 1.446 . S
N41 Co0 2.151 . S
N41 C40 1.330 . S
N41 C45 1.418 1_556 S
C42 H21 0.929 . S
C42 C40 1.446 . S
C42 C43 1.332 . S
C43 H23 0.931 . S
C43 C42 1.332 . S
C43 C44 1.267 1_556 S
C44 H12 0.929 . S
C44 C43 1.267 1_554 S
C44 C45 1.251 . S
C45 H15 0.929 . S
C45 N41 1.418 1_554 S
C45 C44 1.251 . S
C46 H13 0.930 . S
C46 C48 1.406 . S
C46 C51 1.261 1_556 S
C47 H14 0.930 . S
C47 N49 1.325 1_554 S
C47 C50 1.357 . S
C48 H16 0.928 . S
C48 C46 1.406 . S
C48 N49 1.261 . S
N49 Co0 2.214 . S
N49 C47 1.325 1_556 S
N49 C48 1.261 . S
C50 H20 0.931 . S
C50 C47 1.357 . S
C50 C51 1.312 . S
C51 H22 0.930 . S
C51 C46 1.261 1_554 S
C51 C50 1.312 . S
C52 O24 1.214 1_554 S
C52 O32 1.234 . S
C53 H25 0.929 . S
C53 C56 1.391 . S
C53 C58 1.391 . S
C54 H26 0.929 . S
C54 C55 1.390 . S
C54 N57 1.391 . S
C55 H27 0.930 . S
C55 C54 1.390 . S
C55 C56 1.392 . S
C56 H28 0.929 . S
C56 C53 1.391 . S
C56 C55 1.392 . S
N57 Co1 2.257 1_556 S
N57 C54 1.391 . S
N57 C58 1.388 . S
C58 H29 0.930 . S
C58 C53 1.391 . S
C58 N57 1.388 . S
Co59 O61 2.143 . S
Co59 O67 2.074 1_556 S
Co59 O70 2.093 . S
Co59 O83 2.097 . S
Co59 N100 2.151 . S
Co59 N108 2.214 . S
Co60 O61 2.160 1_554 S
Co60 O66 2.058 . S
Co60 O76 2.057 . S
Co60 O91 2.037 . S
Co60 N95 2.145 . S
Co60 N116 2.257 1_554 S
O61 Co59 2.143 . S
O61 Co60 2.160 1_556 S
C62 O63 1.278 . S
C62 O70 1.224 . S
O63 C62 1.278 . S
C64 O65 1.245 1_554 S
C64 O76 1.232 . S
O65 C64 1.245 1_556 S
O66 Co60 2.058 . S
O66 C92 1.269 . S
O67 Co59 2.074 1_554 S
O67 C92 1.257 . S
H68 C93 0.930 . S
H69 C99 0.930 . S
O70 Co59 2.093 . S
O70 C62 1.224 . S
H71 C103 0.929 . S
H72 C105 0.930 . S
H73 C106 0.930 . S
H74 C104 0.929 . S
H75 C107 0.928 . S
O76 Co60 2.057 . S
O76 C64 1.232 . S
H77 C96 0.929 . S
H78 C97 0.929 . S
H79 C109 0.931 . S
H80 C101 0.929 . S
H81 C110 0.930 . S
H82 C102 0.931 . S
O83 Co59 2.097 . S
O83 C111 1.214 1_556 S
H84 C112 0.929 . S
H85 C113 0.929 . S
H86 C114 0.930 . S
H87 C115 0.929 . S
H88 C117 0.930 . S
H89 C94 0.930 . S
H90 C98 0.930 . S
O91 Co60 2.037 . S
O91 C111 1.234 . S
C92 O66 1.269 . S
C92 O67 1.257 . S
C93 H68 0.930 . S
C93 C96 1.388 . S
C93 C98 1.418 . S
C94 H89 0.930 . S
C94 C97 1.404 . S
C94 C98 1.353 . S
N95 Co60 2.145 . S
N95 C96 1.397 . S
N95 C97 1.334 . S
C96 H77 0.929 . S
C96 C93 1.388 . S
C96 N95 1.397 . S
C97 H78 0.929 . S
C97 C94 1.404 . S
C97 N95 1.334 . S
C98 H90 0.930 . S
C98 C93 1.418 . S
C98 C94 1.353 . S
C99 H69 0.930 . S
C99 N100 1.330 . S
C99 C101 1.446 . S
N100 Co59 2.151 . S
N100 C99 1.330 . S
N100 C104 1.418 1_556 S
C101 H80 0.929 . S
C101 C99 1.446 . S
C101 C102 1.332 . S
C102 H82 0.931 . S
C102 C101 1.332 . S
C102 C103 1.267 1_556 S
C103 H71 0.929 . S
C103 C102 1.267 1_554 S
C103 C104 1.251 . S
C104 H74 0.929 . S
C104 N100 1.418 1_554 S
C104 C103 1.251 . S
C105 H72 0.930 . S
C105 C107 1.406 . S
C105 C110 1.261 1_556 S
C106 H73 0.930 . S
C106 N108 1.325 1_554 S
C106 C109 1.357 . S
C107 H75 0.928 . S
C107 C105 1.406 . S
C107 N108 1.261 . S
N108 Co59 2.214 . S
N108 C106 1.325 1_556 S
N108 C107 1.261 . S
C109 H79 0.931 . S
C109 C106 1.357 . S
C109 C110 1.312 . S
C110 H81 0.930 . S
C110 C105 1.261 1_554 S
C110 C109 1.312 . S
C111 O83 1.214 1_554 S
C111 O91 1.234 . S
C112 H84 0.929 . S
C112 C115 1.391 . S
C112 C117 1.391 . S
C113 H85 0.929 . S
C113 C114 1.390 . S
C113 N116 1.391 . S
C114 H86 0.930 . S
C114 C113 1.390 . S
C114 C115 1.392 . S
C115 H87 0.929 . S
C115 C112 1.391 . S
C115 C114 1.392 . S
N116 Co60 2.257 1_556 S
N116 C113 1.391 . S
N116 C117 1.388 . S
C117 H88 0.930 . S
C117 C112 1.391 . S
C117 N116 1.388 . S
Co118 O120 2.143 . S
Co118 O126 2.074 1_556 S
Co118 O129 2.093 . S
Co118 O142 2.097 . S
Co118 N159 2.151 . S
Co118 N167 2.214 . S
Co119 O120 2.160 1_554 S
Co119 O125 2.058 . S
Co119 O135 2.057 . S
Co119 O150 2.037 . S
Co119 N154 2.145 . S
Co119 N175 2.257 1_554 S
O120 Co118 2.143 . S
O120 Co119 2.160 1_556 S
C121 O122 1.278 . S
C121 O129 1.224 . S
O122 C121 1.278 . S
C123 O124 1.245 1_554 S
C123 O135 1.232 . S
O124 C123 1.245 1_556 S
O125 Co119 2.058 . S
O125 C151 1.269 . S
O126 Co118 2.074 1_554 S
O126 C151 1.257 . S
H127 C152 0.930 . S
H128 C158 0.930 . S
O129 Co118 2.093 . S
O129 C121 1.224 . S
H130 C162 0.929 . S
H131 C164 0.930 . S
H132 C165 0.930 . S
H133 C163 0.929 . S
H134 C166 0.928 . S
O135 Co119 2.057 . S
O135 C123 1.232 . S
H136 C155 0.929 . S
H137 C156 0.929 . S
H138 C168 0.931 . S
H139 C160 0.929 . S
H140 C169 0.930 . S
H141 C161 0.931 . S
O142 Co118 2.097 . S
O142 C170 1.214 1_556 S
H143 C171 0.929 . S
H144 C172 0.929 . S
H145 C173 0.930 . S
H146 C174 0.929 . S
H147 C176 0.930 . S
H148 C153 0.930 . S
H149 C157 0.930 . S
O150 Co119 2.037 . S
O150 C170 1.234 . S
C151 O125 1.269 . S
C151 O126 1.257 . S
C152 H127 0.930 . S
C152 C155 1.388 . S
C152 C157 1.418 . S
C153 H148 0.930 . S
C153 C156 1.404 . S
C153 C157 1.353 . S
N154 Co119 2.145 . S
N154 C155 1.397 . S
N154 C156 1.334 . S
C155 H136 0.929 . S
C155 C152 1.388 . S
C155 N154 1.397 . S
C156 H137 0.929 . S
C156 C153 1.404 . S
C156 N154 1.334 . S
C157 H149 0.930 . S
C157 C152 1.418 . S
C157 C153 1.353 . S
C158 H128 0.930 . S
C158 N159 1.330 . S
C158 C160 1.446 . S
N159 Co118 2.151 . S
N159 C158 1.330 . S
N159 C163 1.418 1_556 S
C160 H139 0.929 . S
C160 C158 1.446 . S
C160 C161 1.332 . S
C161 H141 0.931 . S
C161 C160 1.332 . S
C161 C162 1.267 1_556 S
C162 H130 0.929 . S
C162 C161 1.267 1_554 S
C162 C163 1.251 . S
C163 H133 0.929 . S
C163 N159 1.418 1_554 S
C163 C162 1.251 . S
C164 H131 0.930 . S
C164 C166 1.406 . S
C164 C169 1.261 1_556 S
C165 H132 0.930 . S
C165 N167 1.325 1_554 S
C165 C168 1.357 . S
C166 H134 0.928 . S
C166 C164 1.406 . S
C166 N167 1.261 . S
N167 Co118 2.214 . S
N167 C165 1.325 1_556 S
N167 C166 1.261 . S
C168 H138 0.931 . S
C168 C165 1.357 . S
C168 C169 1.312 . S
C169 H140 0.930 . S
C169 C164 1.261 1_554 S
C169 C168 1.312 . S
C170 O142 1.214 1_554 S
C170 O150 1.234 . S
C171 H143 0.929 . S
C171 C174 1.391 . S
C171 C176 1.391 . S
C172 H144 0.929 . S
C172 C173 1.390 . S
C172 N175 1.391 . S
C173 H145 0.930 . S
C173 C172 1.390 . S
C173 C174 1.392 . S
C174 H146 0.929 . S
C174 C171 1.391 . S
C174 C173 1.392 . S
N175 Co119 2.257 1_556 S
N175 C172 1.391 . S
N175 C176 1.388 . S
C176 H147 0.930 . S
C176 C171 1.391 . S
C176 N175 1.388 . S
Co177 O179 2.143 . S
Co177 O185 2.074 1_556 S
Co177 O188 2.093 . S
Co177 O201 2.097 . S
Co177 N218 2.151 . S
Co177 N226 2.214 . S
Co178 O179 2.160 1_554 S
Co178 O184 2.058 . S
Co178 O194 2.057 . S
Co178 O209 2.037 . S
Co178 N213 2.145 . S
Co178 N234 2.257 1_554 S
O179 Co177 2.143 . S
O179 Co178 2.160 1_556 S
C180 O181 1.278 . S
C180 O188 1.224 . S
O181 C180 1.278 . S
C182 O183 1.245 1_554 S
C182 O194 1.232 . S
O183 C182 1.245 1_556 S
O184 Co178 2.058 . S
O184 C210 1.269 . S
O185 Co177 2.074 1_554 S
O185 C210 1.257 . S
H186 C211 0.930 . S
H187 C217 0.930 . S
O188 Co177 2.093 . S
O188 C180 1.224 . S
H189 C221 0.929 . S
H190 C223 0.930 . S
H191 C224 0.930 . S
H192 C222 0.929 . S
H193 C225 0.928 . S
O194 Co178 2.057 . S
O194 C182 1.232 . S
H195 C214 0.929 . S
H196 C215 0.929 . S
H197 C227 0.931 . S
H198 C219 0.929 . S
H199 C228 0.930 . S
H200 C220 0.931 . S
O201 Co177 2.097 . S
O201 C229 1.214 1_556 S
H202 C230 0.929 . S
H203 C231 0.929 . S
H204 C232 0.930 . S
H205 C233 0.929 . S
H206 C235 0.930 . S
H207 C212 0.930 . S
H208 C216 0.930 . S
O209 Co178 2.037 . S
O209 C229 1.234 . S
C210 O184 1.269 . S
C210 O185 1.257 . S
C211 H186 0.930 . S
C211 C214 1.388 . S
C211 C216 1.418 . S
C212 H207 0.930 . S
C212 C215 1.404 . S
C212 C216 1.353 . S
N213 Co178 2.145 . S
N213 C214 1.397 . S
N213 C215 1.334 . S
C214 H195 0.929 . S
C214 C211 1.388 . S
C214 N213 1.397 . S
C215 H196 0.929 . S
C215 C212 1.404 . S
C215 N213 1.334 . S
C216 H208 0.930 . S
C216 C211 1.418 . S
C216 C212 1.353 . S
C217 H187 0.930 . S
C217 N218 1.330 . S
C217 C219 1.446 . S
N218 Co177 2.151 . S
N218 C217 1.330 . S
N218 C222 1.418 1_556 S
C219 H198 0.929 . S
C219 C217 1.446 . S
C219 C220 1.332 . S
C220 H200 0.931 . S
C220 C219 1.332 . S
C220 C221 1.267 1_556 S
C221 H189 0.929 . S
C221 C220 1.267 1_554 S
C221 C222 1.251 . S
C222 H192 0.929 . S
C222 N218 1.418 1_554 S
C222 C221 1.251 . S
C223 H190 0.930 . S
C223 C225 1.406 . S
C223 C228 1.261 1_556 S
C224 H191 0.930 . S
C224 N226 1.325 1_554 S
C224 C227 1.357 . S
C225 H193 0.928 . S
C225 C223 1.406 . S
C225 N226 1.261 . S
N226 Co177 2.214 . S
N226 C224 1.325 1_556 S
N226 C225 1.261 . S
C227 H197 0.931 . S
C227 C224 1.357 . S
C227 C228 1.312 . S
C228 H199 0.930 . S
C228 C223 1.261 1_554 S
C228 C227 1.312 . S
C229 O201 1.214 1_554 S
C229 O209 1.234 . S
C230 H202 0.929 . S
C230 C233 1.391 . S
C230 C235 1.391 . S
C231 H203 0.929 . S
C231 C232 1.390 . S
C231 N234 1.391 . S
C232 H204 0.930 . S
C232 C231 1.390 . S
C232 C233 1.392 . S
C233 H205 0.929 . S
C233 C230 1.391 . S
C233 C232 1.392 . S
N234 Co178 2.257 1_556 S
N234 C231 1.391 . S
N234 C235 1.388 . S
C235 H206 0.930 . S
C235 C230 1.391 . S
C235 N234 1.388 . S
Co236 O238 2.143 . S
Co236 O244 2.074 1_554 S
Co236 O247 2.093 . S
Co236 O260 2.097 . S
Co236 N277 2.151 . S
Co236 N285 2.214 . S
Co237 O238 2.160 1_556 S
Co237 O243 2.058 . S
Co237 O253 2.057 . S
Co237 O268 2.037 . S
Co237 N272 2.145 . S
Co237 N293 2.257 1_556 S
O238 Co236 2.143 . S
O238 Co237 2.160 1_554 S
C239 O240 1.278 . S
C239 O247 1.224 . S
O240 C239 1.278 . S
C241 O242 1.245 1_556 S
C241 O253 1.232 . S
O242 C241 1.245 1_554 S
O243 Co237 2.058 . S
O243 C269 1.269 . S
O244 Co236 2.074 1_556 S
O244 C269 1.257 . S
H245 C270 0.930 . S
H246 C276 0.930 . S
O247 Co236 2.093 . S
O247 C239 1.224 . S
H248 C280 0.929 . S
H249 C282 0.930 . S
H250 C283 0.930 . S
H251 C281 0.929 . S
H252 C284 0.928 . S
O253 Co237 2.057 . S
O253 C241 1.232 . S
H254 C273 0.929 . S
H255 C274 0.929 . S
H256 C286 0.931 . S
H257 C278 0.929 . S
H258 C287 0.930 . S
H259 C279 0.931 . S
O260 Co236 2.097 . S
O260 C288 1.214 1_554 S
H261 C289 0.929 . S
H262 C290 0.929 . S
H263 C291 0.930 . S
H264 C292 0.929 . S
H265 C294 0.930 . S
H266 C271 0.930 . S
H267 C275 0.930 . S
O268 Co237 2.037 . S
O268 C288 1.234 . S
C269 O243 1.269 . S
C269 O244 1.257 . S
C270 H245 0.930 . S
C270 C273 1.388 . S
C270 C275 1.418 . S
C271 H266 0.930 . S
C271 C274 1.404 . S
C271 C275 1.353 . S
N272 Co237 2.145 . S
N272 C273 1.397 . S
N272 C274 1.334 . S
C273 H254 0.929 . S
C273 C270 1.388 . S
C273 N272 1.397 . S
C274 H255 0.929 . S
C274 C271 1.404 . S
C274 N272 1.334 . S
C275 H267 0.930 . S
C275 C270 1.418 . S
C275 C271 1.353 . S
C276 H246 0.930 . S
C276 N277 1.330 . S
C276 C278 1.446 . S
N277 Co236 2.151 . S
N277 C276 1.330 . S
N277 C281 1.418 1_554 S
C278 H257 0.929 . S
C278 C276 1.446 . S
C278 C279 1.332 . S
C279 H259 0.931 . S
C279 C278 1.332 . S
C279 C280 1.267 1_554 S
C280 H248 0.929 . S
C280 C279 1.267 1_556 S
C280 C281 1.251 . S
C281 H251 0.929 . S
C281 N277 1.418 1_556 S
C281 C280 1.251 . S
C282 H249 0.930 . S
C282 C284 1.406 . S
C282 C287 1.261 1_554 S
C283 H250 0.930 . S
C283 N285 1.325 1_556 S
C283 C286 1.357 . S
C284 H252 0.928 . S
C284 C282 1.406 . S
C284 N285 1.261 . S
N285 Co236 2.214 . S
N285 C283 1.325 1_554 S
N285 C284 1.261 . S
C286 H256 0.931 . S
C286 C283 1.357 . S
C286 C287 1.312 . S
C287 H258 0.930 . S
C287 C282 1.261 1_556 S
C287 C286 1.312 . S
C288 O260 1.214 1_556 S
C288 O268 1.234 . S
C289 H261 0.929 . S
C289 C292 1.391 . S
C289 C294 1.391 . S
C290 H262 0.929 . S
C290 C291 1.390 . S
C290 N293 1.391 . S
C291 H263 0.930 . S
C291 C290 1.390 . S
C291 C292 1.392 . S
C292 H264 0.929 . S
C292 C289 1.391 . S
C292 C291 1.392 . S
N293 Co237 2.257 1_554 S
N293 C290 1.391 . S
N293 C294 1.388 . S
C294 H265 0.930 . S
C294 C289 1.391 . S
C294 N293 1.388 . S
Co295 O297 2.143 . S
Co295 O303 2.074 1_554 S
Co295 O306 2.093 . S
Co295 O319 2.097 . S
Co295 N336 2.151 . S
Co295 N344 2.214 . S
Co296 O297 2.160 1_556 S
Co296 O302 2.058 . S
Co296 O312 2.057 . S
Co296 O327 2.037 . S
Co296 N331 2.145 . S
Co296 N352 2.257 1_556 S
O297 Co295 2.143 . S
O297 Co296 2.160 1_554 S
C298 O299 1.278 . S
C298 O306 1.224 . S
O299 C298 1.278 . S
C300 O301 1.245 1_556 S
C300 O312 1.232 . S
O301 C300 1.245 1_554 S
O302 Co296 2.058 . S
O302 C328 1.269 . S
O303 Co295 2.074 1_556 S
O303 C328 1.257 . S
H304 C329 0.930 . S
H305 C335 0.930 . S
O306 Co295 2.093 . S
O306 C298 1.224 . S
H307 C339 0.929 . S
H308 C341 0.930 . S
H309 C342 0.930 . S
H310 C340 0.929 . S
H311 C343 0.928 . S
O312 Co296 2.057 . S
O312 C300 1.232 . S
H313 C332 0.929 . S
H314 C333 0.929 . S
H315 C345 0.931 . S
H316 C337 0.929 . S
H317 C346 0.930 . S
H318 C338 0.931 . S
O319 Co295 2.097 . S
O319 C347 1.214 1_554 S
H320 C348 0.929 . S
H321 C349 0.929 . S
H322 C350 0.930 . S
H323 C351 0.929 . S
H324 C353 0.930 . S
H325 C330 0.930 . S
H326 C334 0.930 . S
O327 Co296 2.037 . S
O327 C347 1.234 . S
C328 O302 1.269 . S
C328 O303 1.257 . S
C329 H304 0.930 . S
C329 C332 1.388 . S
C329 C334 1.418 . S
C330 H325 0.930 . S
C330 C333 1.404 . S
C330 C334 1.353 . S
N331 Co296 2.145 . S
N331 C332 1.397 . S
N331 C333 1.334 . S
C332 H313 0.929 . S
C332 C329 1.388 . S
C332 N331 1.397 . S
C333 H314 0.929 . S
C333 C330 1.404 . S
C333 N331 1.334 . S
C334 H326 0.930 . S
C334 C329 1.418 . S
C334 C330 1.353 . S
C335 H305 0.930 . S
C335 N336 1.330 . S
C335 C337 1.446 . S
N336 Co295 2.151 . S
N336 C335 1.330 . S
N336 C340 1.418 1_554 S
C337 H316 0.929 . S
C337 C335 1.446 . S
C337 C338 1.332 . S
C338 H318 0.931 . S
C338 C337 1.332 . S
C338 C339 1.267 1_554 S
C339 H307 0.929 . S
C339 C338 1.267 1_556 S
C339 C340 1.251 . S
C340 H310 0.929 . S
C340 N336 1.418 1_556 S
C340 C339 1.251 . S
C341 H308 0.930 . S
C341 C343 1.406 . S
C341 C346 1.261 1_554 S
C342 H309 0.930 . S
C342 N344 1.325 1_556 S
C342 C345 1.357 . S
C343 H311 0.928 . S
C343 C341 1.406 . S
C343 N344 1.261 . S
N344 Co295 2.214 . S
N344 C342 1.325 1_554 S
N344 C343 1.261 . S
C345 H315 0.931 . S
C345 C342 1.357 . S
C345 C346 1.312 . S
C346 H317 0.930 . S
C346 C341 1.261 1_556 S
C346 C345 1.312 . S
C347 O319 1.214 1_556 S
C347 O327 1.234 . S
C348 H320 0.929 . S
C348 C351 1.391 . S
C348 C353 1.391 . S
C349 H321 0.929 . S
C349 C350 1.390 . S
C349 N352 1.391 . S
C350 H322 0.930 . S
C350 C349 1.390 . S
C350 C351 1.392 . S
C351 H323 0.929 . S
C351 C348 1.391 . S
C351 C350 1.392 . S
N352 Co296 2.257 1_554 S
N352 C349 1.391 . S
N352 C353 1.388 . S
C353 H324 0.930 . S
C353 C348 1.391 . S
C353 N352 1.388 . S
Co354 O356 2.143 . S
Co354 O362 2.074 1_554 S
Co354 O365 2.093 . S
Co354 O378 2.097 . S
Co354 N395 2.151 . S
Co354 N403 2.214 . S
Co355 O356 2.160 1_556 S
Co355 O361 2.058 . S
Co355 O371 2.057 . S
Co355 O386 2.037 . S
Co355 N390 2.145 . S
Co355 N411 2.257 1_556 S
O356 Co354 2.143 . S
O356 Co355 2.160 1_554 S
C357 O358 1.278 . S
C357 O365 1.224 . S
O358 C357 1.278 . S
C359 O360 1.245 1_556 S
C359 O371 1.232 . S
O360 C359 1.245 1_554 S
O361 Co355 2.058 . S
O361 C387 1.269 . S
O362 Co354 2.074 1_556 S
O362 C387 1.257 . S
H363 C388 0.930 . S
H364 C394 0.930 . S
O365 Co354 2.093 . S
O365 C357 1.224 . S
H366 C398 0.929 . S
H367 C400 0.930 . S
H368 C401 0.930 . S
H369 C399 0.929 . S
H370 C402 0.928 . S
O371 Co355 2.057 . S
O371 C359 1.232 . S
H372 C391 0.929 . S
H373 C392 0.929 . S
H374 C404 0.931 . S
H375 C396 0.929 . S
H376 C405 0.930 . S
H377 C397 0.931 . S
O378 Co354 2.097 . S
O378 C406 1.214 1_554 S
H379 C407 0.929 . S
H380 C408 0.929 . S
H381 C409 0.930 . S
H382 C410 0.929 . S
H383 C412 0.930 . S
H384 C389 0.930 . S
H385 C393 0.930 . S
O386 Co355 2.037 . S
O386 C406 1.234 . S
C387 O361 1.269 . S
C387 O362 1.257 . S
C388 H363 0.930 . S
C388 C391 1.388 . S
C388 C393 1.418 . S
C389 H384 0.930 . S
C389 C392 1.404 . S
C389 C393 1.353 . S
N390 Co355 2.145 . S
N390 C391 1.397 . S
N390 C392 1.334 . S
C391 H372 0.929 . S
C391 C388 1.388 . S
C391 N390 1.397 . S
C392 H373 0.929 . S
C392 C389 1.404 . S
C392 N390 1.334 . S
C393 H385 0.930 . S
C393 C388 1.418 . S
C393 C389 1.353 . S
C394 H364 0.930 . S
C394 N395 1.330 . S
C394 C396 1.446 . S
N395 Co354 2.151 . S
N395 C394 1.330 . S
N395 C399 1.418 1_554 S
C396 H375 0.929 . S
C396 C394 1.446 . S
C396 C397 1.332 . S
C397 H377 0.931 . S
C397 C396 1.332 . S
C397 C398 1.267 1_554 S
C398 H366 0.929 . S
C398 C397 1.267 1_556 S
C398 C399 1.251 . S
C399 H369 0.929 . S
C399 N395 1.418 1_556 S
C399 C398 1.251 . S
C400 H367 0.930 . S
C400 C402 1.406 . S
C400 C405 1.261 1_554 S
C401 H368 0.930 . S
C401 N403 1.325 1_556 S
C401 C404 1.357 . S
C402 H370 0.928 . S
C402 C400 1.406 . S
C402 N403 1.261 . S
N403 Co354 2.214 . S
N403 C401 1.325 1_554 S
N403 C402 1.261 . S
C404 H374 0.931 . S
C404 C401 1.357 . S
C404 C405 1.312 . S
C405 H376 0.930 . S
C405 C400 1.261 1_556 S
C405 C404 1.312 . S
C406 O378 1.214 1_556 S
C406 O386 1.234 . S
C407 H379 0.929 . S
C407 C410 1.391 . S
C407 C412 1.391 . S
C408 H380 0.929 . S
C408 C409 1.390 . S
C408 N411 1.391 . S
C409 H381 0.930 . S
C409 C408 1.390 . S
C409 C410 1.392 . S
C410 H382 0.929 . S
C410 C407 1.391 . S
C410 C409 1.392 . S
N411 Co355 2.257 1_554 S
N411 C408 1.391 . S
N411 C412 1.388 . S
C412 H383 0.930 . S
C412 C407 1.391 . S
C412 N411 1.388 . S
Co413 O415 2.143 . S
Co413 O421 2.074 1_554 S
Co413 O424 2.093 . S
Co413 O437 2.097 . S
Co413 N454 2.151 . S
Co413 N462 2.214 . S
Co414 O415 2.160 1_556 S
Co414 O420 2.058 . S
Co414 O430 2.057 . S
Co414 O445 2.037 . S
Co414 N449 2.145 . S
Co414 N470 2.257 1_556 S
O415 Co413 2.143 . S
O415 Co414 2.160 1_554 S
C416 O417 1.278 . S
C416 O424 1.224 . S
O417 C416 1.278 . S
C418 O419 1.245 1_556 S
C418 O430 1.232 . S
O419 C418 1.245 1_554 S
O420 Co414 2.058 . S
O420 C446 1.269 . S
O421 Co413 2.074 1_556 S
O421 C446 1.257 . S
H422 C447 0.930 . S
H423 C453 0.930 . S
O424 Co413 2.093 . S
O424 C416 1.224 . S
H425 C457 0.929 . S
H426 C459 0.930 . S
H427 C460 0.930 . S
H428 C458 0.929 . S
H429 C461 0.928 . S
O430 Co414 2.057 . S
O430 C418 1.232 . S
H431 C450 0.929 . S
H432 C451 0.929 . S
H433 C463 0.931 . S
H434 C455 0.929 . S
H435 C464 0.930 . S
H436 C456 0.931 . S
O437 Co413 2.097 . S
O437 C465 1.214 1_554 S
H438 C466 0.929 . S
H439 C467 0.929 . S
H440 C468 0.930 . S
H441 C469 0.929 . S
H442 C471 0.930 . S
H443 C448 0.930 . S
H444 C452 0.930 . S
O445 Co414 2.037 . S
O445 C465 1.234 . S
C446 O420 1.269 . S
C446 O421 1.257 . S
C447 H422 0.930 . S
C447 C450 1.388 . S
C447 C452 1.418 . S
C448 H443 0.930 . S
C448 C451 1.404 . S
C448 C452 1.353 . S
N449 Co414 2.145 . S
N449 C450 1.397 . S
N449 C451 1.334 . S
C450 H431 0.929 . S
C450 C447 1.388 . S
C450 N449 1.397 . S
C451 H432 0.929 . S
C451 C448 1.404 . S
C451 N449 1.334 . S
C452 H444 0.930 . S
C452 C447 1.418 . S
C452 C448 1.353 . S
C453 H423 0.930 . S
C453 N454 1.330 . S
C453 C455 1.446 . S
N454 Co413 2.151 . S
N454 C453 1.330 . S
N454 C458 1.418 1_554 S
C455 H434 0.929 . S
C455 C453 1.446 . S
C455 C456 1.332 . S
C456 H436 0.931 . S
C456 C455 1.332 . S
C456 C457 1.267 1_554 S
C457 H425 0.929 . S
C457 C456 1.267 1_556 S
C457 C458 1.251 . S
C458 H428 0.929 . S
C458 N454 1.418 1_556 S
C458 C457 1.251 . S
C459 H426 0.930 . S
C459 C461 1.406 . S
C459 C464 1.261 1_554 S
C460 H427 0.930 . S
C460 N462 1.325 1_556 S
C460 C463 1.357 . S
C461 H429 0.928 . S
C461 C459 1.406 . S
C461 N462 1.261 . S
N462 Co413 2.214 . S
N462 C460 1.325 1_554 S
N462 C461 1.261 . S
C463 H433 0.931 . S
C463 C460 1.357 . S
C463 C464 1.312 . S
C464 H435 0.930 . S
C464 C459 1.261 1_556 S
C464 C463 1.312 . S
C465 O437 1.214 1_556 S
C465 O445 1.234 . S
C466 H438 0.929 . S
C466 C469 1.391 . S
C466 C471 1.391 . S
C467 H439 0.929 . S
C467 C468 1.390 . S
C467 N470 1.391 . S
C468 H440 0.930 . S
C468 C467 1.390 . S
C468 C469 1.392 . S
C469 H441 0.929 . S
C469 C466 1.391 . S
C469 C468 1.392 . S
N470 Co414 2.257 1_554 S
N470 C467 1.391 . S
N470 C471 1.388 . S
C471 H442 0.930 . S
C471 C466 1.391 . S
C471 N470 1.388 . S
Co472 O474 2.143 . S
Co472 O480 2.074 . S
Co472 O483 2.093 . S
Co472 O496 2.097 . S
Co472 N513 2.151 . S
Co472 N521 2.214 . S
Co473 O474 2.160 . S
Co473 O479 2.058 . S
Co473 O489 2.057 . S
Co473 O504 2.037 . S
Co473 N508 2.145 . S
Co473 N529 2.257 . S
O474 Co472 2.143 . S
O474 Co473 2.160 . S
C475 O476 1.278 . S
C475 O483 1.224 . S
O476 C475 1.278 . S
C477 O478 1.245 . S
C477 O489 1.232 . S
O478 C477 1.245 . S
O479 Co473 2.058 . S
O479 C505 1.269 . S
O480 Co472 2.074 . S
O480 C505 1.257 . S
H481 C506 0.930 . S
H482 C512 0.930 . S
O483 Co472 2.093 . S
O483 C475 1.224 . S
H484 C516 0.929 . S
H485 C518 0.930 . S
H486 C519 0.930 . S
H487 C517 0.929 . S
H488 C520 0.928 . S
O489 Co473 2.057 . S
O489 C477 1.232 . S
H490 C509 0.929 . S
H491 C510 0.929 . S
H492 C522 0.931 . S
H493 C514 0.929 . S
H494 C523 0.930 . S
H495 C515 0.931 . S
O496 Co472 2.097 . S
O496 C524 1.214 . S
H497 C525 0.929 . S
H498 C526 0.929 . S
H499 C527 0.930 . S
H500 C528 0.929 . S
H501 C530 0.930 . S
H502 C507 0.930 . S
H503 C511 0.930 . S
O504 Co473 2.037 . S
O504 C524 1.234 . S
C505 O479 1.269 . S
C505 O480 1.257 . S
C506 H481 0.930 . S
C506 C509 1.388 . S
C506 C511 1.418 . S
C507 H502 0.930 . S
C507 C510 1.404 . S
C507 C511 1.353 . S
N508 Co473 2.145 . S
N508 C509 1.397 . S
N508 C510 1.334 . S
C509 H490 0.929 . S
C509 C506 1.388 . S
C509 N508 1.397 . S
C510 H491 0.929 . S
C510 C507 1.404 . S
C510 N508 1.334 . S
C511 H503 0.930 . S
C511 C506 1.418 . S
C511 C507 1.353 . S
C512 H482 0.930 . S
C512 N513 1.330 . S
C512 C514 1.446 . S
N513 Co472 2.151 . S
N513 C512 1.330 . S
N513 C517 1.418 . S
C514 H493 0.929 . S
C514 C512 1.446 . S
C514 C515 1.332 . S
C515 H495 0.931 . S
C515 C514 1.332 . S
C515 C516 1.267 . S
C516 H484 0.929 . S
C516 C515 1.267 . S
C516 C517 1.251 . S
C517 H487 0.929 . S
C517 N513 1.418 . S
C517 C516 1.251 . S
C518 H485 0.930 . S
C518 C520 1.406 . S
C518 C523 1.261 . S
C519 H486 0.930 . S
C519 N521 1.325 . S
C519 C522 1.357 . S
C520 H488 0.928 . S
C520 C518 1.406 . S
C520 N521 1.261 . S
N521 Co472 2.214 . S
N521 C519 1.325 . S
N521 C520 1.261 . S
C522 H492 0.931 . S
C522 C519 1.357 . S
C522 C523 1.312 . S
C523 H494 0.930 . S
C523 C518 1.261 . S
C523 C522 1.312 . S
C524 O496 1.214 . S
C524 O504 1.234 . S
C525 H497 0.929 . S
C525 C528 1.391 . S
C525 C530 1.391 . S
C526 H498 0.929 . S
C526 C527 1.390 . S
C526 N529 1.391 . S
C527 H499 0.930 . S
C527 C526 1.390 . S
C527 C528 1.392 . S
C528 H500 0.929 . S
C528 C525 1.391 . S
C528 C527 1.392 . S
N529 Co473 2.257 . S
N529 C526 1.391 . S
N529 C530 1.388 . S
C530 H501 0.930 . S
C530 C525 1.391 . S
C530 N529 1.388 . S
Co531 O533 2.143 . S
Co531 O539 2.074 . S
Co531 O542 2.093 . S
Co531 O555 2.097 . S
Co531 N572 2.151 . S
Co531 N580 2.214 . S
Co532 O533 2.160 . S
Co532 O538 2.058 . S
Co532 O548 2.057 . S
Co532 O563 2.037 . S
Co532 N567 2.145 . S
Co532 N588 2.257 . S
O533 Co531 2.143 . S
O533 Co532 2.160 . S
C534 O535 1.278 . S
C534 O542 1.224 . S
O535 C534 1.278 . S
C536 O537 1.245 . S
C536 O548 1.232 . S
O537 C536 1.245 . S
O538 Co532 2.058 . S
O538 C564 1.269 . S
O539 Co531 2.074 . S
O539 C564 1.257 . S
H540 C565 0.930 . S
H541 C571 0.930 . S
O542 Co531 2.093 . S
O542 C534 1.224 . S
H543 C575 0.929 . S
H544 C577 0.930 . S
H545 C578 0.930 . S
H546 C576 0.929 . S
H547 C579 0.928 . S
O548 Co532 2.057 . S
O548 C536 1.232 . S
H549 C568 0.929 . S
H550 C569 0.929 . S
H551 C581 0.931 . S
H552 C573 0.929 . S
H553 C582 0.930 . S
H554 C574 0.931 . S
O555 Co531 2.097 . S
O555 C583 1.214 . S
H556 C584 0.929 . S
H557 C585 0.929 . S
H558 C586 0.930 . S
H559 C587 0.929 . S
H560 C589 0.930 . S
H561 C566 0.930 . S
H562 C570 0.930 . S
O563 Co532 2.037 . S
O563 C583 1.234 . S
C564 O538 1.269 . S
C564 O539 1.257 . S
C565 H540 0.930 . S
C565 C568 1.388 . S
C565 C570 1.418 . S
C566 H561 0.930 . S
C566 C569 1.404 . S
C566 C570 1.353 . S
N567 Co532 2.145 . S
N567 C568 1.397 . S
N567 C569 1.334 . S
C568 H549 0.929 . S
C568 C565 1.388 . S
C568 N567 1.397 . S
C569 H550 0.929 . S
C569 C566 1.404 . S
C569 N567 1.334 . S
C570 H562 0.930 . S
C570 C565 1.418 . S
C570 C566 1.353 . S
C571 H541 0.930 . S
C571 N572 1.330 . S
C571 C573 1.446 . S
N572 Co531 2.151 . S
N572 C571 1.330 . S
N572 C576 1.418 . S
C573 H552 0.929 . S
C573 C571 1.446 . S
C573 C574 1.332 . S
C574 H554 0.931 . S
C574 C573 1.332 . S
C574 C575 1.267 . S
C575 H543 0.929 . S
C575 C574 1.267 . S
C575 C576 1.251 . S
C576 H546 0.929 . S
C576 N572 1.418 . S
C576 C575 1.251 . S
C577 H544 0.930 . S
C577 C579 1.406 . S
C577 C582 1.261 . S
C578 H545 0.930 . S
C578 N580 1.325 . S
C578 C581 1.357 . S
C579 H547 0.928 . S
C579 C577 1.406 . S
C579 N580 1.261 . S
N580 Co531 2.214 . S
N580 C578 1.325 . S
N580 C579 1.261 . S
C581 H551 0.931 . S
C581 C578 1.357 . S
C581 C582 1.312 . S
C582 H553 0.930 . S
C582 C577 1.261 . S
C582 C581 1.312 . S
C583 O555 1.214 . S
C583 O563 1.234 . S
C584 H556 0.929 . S
C584 C587 1.391 . S
C584 C589 1.391 . S
C585 H557 0.929 . S
C585 C586 1.390 . S
C585 N588 1.391 . S
C586 H558 0.930 . S
C586 C585 1.390 . S
C586 C587 1.392 . S
C587 H559 0.929 . S
C587 C584 1.391 . S
C587 C586 1.392 . S
N588 Co532 2.257 . S
N588 C585 1.391 . S
N588 C589 1.388 . S
C589 H560 0.930 . S
C589 C584 1.391 . S
C589 N588 1.388 . S
Co590 O592 2.143 . S
Co590 O598 2.074 . S
Co590 O601 2.093 . S
Co590 O614 2.097 . S
Co590 N631 2.151 . S
Co590 N639 2.214 . S
Co591 O592 2.160 . S
Co591 O597 2.058 . S
Co591 O607 2.057 . S
Co591 O622 2.037 . S
Co591 N626 2.145 . S
Co591 N647 2.257 . S
O592 Co590 2.143 . S
O592 Co591 2.160 . S
C593 O594 1.278 . S
C593 O601 1.224 . S
O594 C593 1.278 . S
C595 O596 1.245 . S
C595 O607 1.232 . S
O596 C595 1.245 . S
O597 Co591 2.058 . S
O597 C623 1.269 . S
O598 Co590 2.074 . S
O598 C623 1.257 . S
H599 C624 0.930 . S
H600 C630 0.930 . S
O601 Co590 2.093 . S
O601 C593 1.224 . S
H602 C634 0.929 . S
H603 C636 0.930 . S
H604 C637 0.930 . S
H605 C635 0.929 . S
H606 C638 0.928 . S
O607 Co591 2.057 . S
O607 C595 1.232 . S
H608 C627 0.929 . S
H609 C628 0.929 . S
H610 C640 0.931 . S
H611 C632 0.929 . S
H612 C641 0.930 . S
H613 C633 0.931 . S
O614 Co590 2.097 . S
O614 C642 1.214 . S
H615 C643 0.929 . S
H616 C644 0.929 . S
H617 C645 0.930 . S
H618 C646 0.929 . S
H619 C648 0.930 . S
H620 C625 0.930 . S
H621 C629 0.930 . S
O622 Co591 2.037 . S
O622 C642 1.234 . S
C623 O597 1.269 . S
C623 O598 1.257 . S
C624 H599 0.930 . S
C624 C627 1.388 . S
C624 C629 1.418 . S
C625 H620 0.930 . S
C625 C628 1.404 . S
C625 C629 1.353 . S
N626 Co591 2.145 . S
N626 C627 1.397 . S
N626 C628 1.334 . S
C627 H608 0.929 . S
C627 C624 1.388 . S
C627 N626 1.397 . S
C628 H609 0.929 . S
C628 C625 1.404 . S
C628 N626 1.334 . S
C629 H621 0.930 . S
C629 C624 1.418 . S
C629 C625 1.353 . S
C630 H600 0.930 . S
C630 N631 1.330 . S
C630 C632 1.446 . S
N631 Co590 2.151 . S
N631 C630 1.330 . S
N631 C635 1.418 . S
C632 H611 0.929 . S
C632 C630 1.446 . S
C632 C633 1.332 . S
C633 H613 0.931 . S
C633 C632 1.332 . S
C633 C634 1.267 . S
C634 H602 0.929 . S
C634 C633 1.267 . S
C634 C635 1.251 . S
C635 H605 0.929 . S
C635 N631 1.418 . S
C635 C634 1.251 . S
C636 H603 0.930 . S
C636 C638 1.406 . S
C636 C641 1.261 . S
C637 H604 0.930 . S
C637 N639 1.325 . S
C637 C640 1.357 . S
C638 H606 0.928 . S
C638 C636 1.406 . S
C638 N639 1.261 . S
N639 Co590 2.214 . S
N639 C637 1.325 . S
N639 C638 1.261 . S
C640 H610 0.931 . S
C640 C637 1.357 . S
C640 C641 1.312 . S
C641 H612 0.930 . S
C641 C636 1.261 . S
C641 C640 1.312 . S
C642 O614 1.214 . S
C642 O622 1.234 . S
C643 H615 0.929 . S
C643 C646 1.391 . S
C643 C648 1.391 . S
C644 H616 0.929 . S
C644 C645 1.390 . S
C644 N647 1.391 . S
C645 H617 0.930 . S
C645 C644 1.390 . S
C645 C646 1.392 . S
C646 H618 0.929 . S
C646 C643 1.391 . S
C646 C645 1.392 . S
N647 Co591 2.257 . S
N647 C644 1.391 . S
N647 C648 1.388 . S
C648 H619 0.930 . S
C648 C643 1.391 . S
C648 N647 1.388 . S
Co649 O651 2.143 . S
Co649 O657 2.074 . S
Co649 O660 2.093 . S
Co649 O673 2.097 . S
Co649 N690 2.151 . S
Co649 N698 2.214 . S
Co650 O651 2.160 . S
Co650 O656 2.058 . S
Co650 O666 2.057 . S
Co650 O681 2.037 . S
Co650 N685 2.145 . S
Co650 N706 2.257 . S
O651 Co649 2.143 . S
O651 Co650 2.160 . S
C652 O653 1.278 . S
C652 O660 1.224 . S
O653 C652 1.278 . S
C654 O655 1.245 . S
C654 O666 1.232 . S
O655 C654 1.245 . S
O656 Co650 2.058 . S
O656 C682 1.269 . S
O657 Co649 2.074 . S
O657 C682 1.257 . S
H658 C683 0.930 . S
H659 C689 0.930 . S
O660 Co649 2.093 . S
O660 C652 1.224 . S
H661 C693 0.929 . S
H662 C695 0.930 . S
H663 C696 0.930 . S
H664 C694 0.929 . S
H665 C697 0.928 . S
O666 Co650 2.057 . S
O666 C654 1.232 . S
H667 C686 0.929 . S
H668 C687 0.929 . S
H669 C699 0.931 . S
H670 C691 0.929 . S
H671 C700 0.930 . S
H672 C692 0.931 . S
O673 Co649 2.097 . S
O673 C701 1.214 . S
H674 C702 0.929 . S
H675 C703 0.929 . S
H676 C704 0.930 . S
H677 C705 0.929 . S
H678 C707 0.930 . S
H679 C684 0.930 . S
H680 C688 0.930 . S
O681 Co650 2.037 . S
O681 C701 1.234 . S
C682 O656 1.269 . S
C682 O657 1.257 . S
C683 H658 0.930 . S
C683 C686 1.388 . S
C683 C688 1.418 . S
C684 H679 0.930 . S
C684 C687 1.404 . S
C684 C688 1.353 . S
N685 Co650 2.145 . S
N685 C686 1.397 . S
N685 C687 1.334 . S
C686 H667 0.929 . S
C686 C683 1.388 . S
C686 N685 1.397 . S
C687 H668 0.929 . S
C687 C684 1.404 . S
C687 N685 1.334 . S
C688 H680 0.930 . S
C688 C683 1.418 . S
C688 C684 1.353 . S
C689 H659 0.930 . S
C689 N690 1.330 . S
C689 C691 1.446 . S
N690 Co649 2.151 . S
N690 C689 1.330 . S
N690 C694 1.418 . S
C691 H670 0.929 . S
C691 C689 1.446 . S
C691 C692 1.332 . S
C692 H672 0.931 . S
C692 C691 1.332 . S
C692 C693 1.267 . S
C693 H661 0.929 . S
C693 C692 1.267 . S
C693 C694 1.251 . S
C694 H664 0.929 . S
C694 N690 1.418 . S
C694 C693 1.251 . S
C695 H662 0.930 . S
C695 C697 1.406 . S
C695 C700 1.261 . S
C696 H663 0.930 . S
C696 N698 1.325 . S
C696 C699 1.357 . S
C697 H665 0.928 . S
C697 C695 1.406 . S
C697 N698 1.261 . S
N698 Co649 2.214 . S
N698 C696 1.325 . S
N698 C697 1.261 . S
C699 H669 0.931 . S
C699 C696 1.357 . S
C699 C700 1.312 . S
C700 H671 0.930 . S
C700 C695 1.261 . S
C700 C699 1.312 . S
C701 O673 1.214 . S
C701 O681 1.234 . S
C702 H674 0.929 . S
C702 C705 1.391 . S
C702 C707 1.391 . S
C703 H675 0.929 . S
C703 C704 1.390 . S
C703 N706 1.391 . S
C704 H676 0.930 . S
C704 C703 1.390 . S
C704 C705 1.392 . S
C705 H677 0.929 . S
C705 C702 1.391 . S
C705 C704 1.392 . S
N706 Co650 2.257 . S
N706 C703 1.391 . S
N706 C707 1.388 . S
C707 H678 0.930 . S
C707 C702 1.391 . S
C707 N706 1.388 . S
Co708 O710 2.143 . S
Co708 O716 2.074 . S
Co708 O719 2.093 . S
Co708 O732 2.097 . S
Co708 N749 2.151 . S
Co708 N757 2.214 . S
Co709 O710 2.160 . S
Co709 O715 2.058 . S
Co709 O725 2.057 . S
Co709 O740 2.037 . S
Co709 N744 2.145 . S
Co709 N765 2.257 . S
O710 Co708 2.143 . S
O710 Co709 2.160 . S
C711 O712 1.278 . S
C711 O719 1.224 . S
O712 C711 1.278 . S
C713 O714 1.245 . S
C713 O725 1.232 . S
O714 C713 1.245 . S
O715 Co709 2.058 . S
O715 C741 1.269 . S
O716 Co708 2.074 . S
O716 C741 1.257 . S
H717 C742 0.930 . S
H718 C748 0.930 . S
O719 Co708 2.093 . S
O719 C711 1.224 . S
H720 C752 0.929 . S
H721 C754 0.930 . S
H722 C755 0.930 . S
H723 C753 0.929 . S
H724 C756 0.928 . S
O725 Co709 2.057 . S
O725 C713 1.232 . S
H726 C745 0.929 . S
H727 C746 0.929 . S
H728 C758 0.931 . S
H729 C750 0.929 . S
H730 C759 0.930 . S
H731 C751 0.931 . S
O732 Co708 2.097 . S
O732 C760 1.214 . S
H733 C761 0.929 . S
H734 C762 0.929 . S
H735 C763 0.930 . S
H736 C764 0.929 . S
H737 C766 0.930 . S
H738 C743 0.930 . S
H739 C747 0.930 . S
O740 Co709 2.037 . S
O740 C760 1.234 . S
C741 O715 1.269 . S
C741 O716 1.257 . S
C742 H717 0.930 . S
C742 C745 1.388 . S
C742 C747 1.418 . S
C743 H738 0.930 . S
C743 C746 1.404 . S
C743 C747 1.353 . S
N744 Co709 2.145 . S
N744 C745 1.397 . S
N744 C746 1.334 . S
C745 H726 0.929 . S
C745 C742 1.388 . S
C745 N744 1.397 . S
C746 H727 0.929 . S
C746 C743 1.404 . S
C746 N744 1.334 . S
C747 H739 0.930 . S
C747 C742 1.418 . S
C747 C743 1.353 . S
C748 H718 0.930 . S
C748 N749 1.330 . S
C748 C750 1.446 . S
N749 Co708 2.151 . S
N749 C748 1.330 . S
N749 C753 1.418 . S
C750 H729 0.929 . S
C750 C748 1.446 . S
C750 C751 1.332 . S
C751 H731 0.931 . S
C751 C750 1.332 . S
C751 C752 1.267 . S
C752 H720 0.929 . S
C752 C751 1.267 . S
C752 C753 1.251 . S
C753 H723 0.929 . S
C753 N749 1.418 . S
C753 C752 1.251 . S
C754 H721 0.930 . S
C754 C756 1.406 . S
C754 C759 1.261 . S
C755 H722 0.930 . S
C755 N757 1.325 . S
C755 C758 1.357 . S
C756 H724 0.928 . S
C756 C754 1.406 . S
C756 N757 1.261 . S
N757 Co708 2.214 . S
N757 C755 1.325 . S
N757 C756 1.261 . S
C758 H728 0.931 . S
C758 C755 1.357 . S
C758 C759 1.312 . S
C759 H730 0.930 . S
C759 C754 1.261 . S
C759 C758 1.312 . S
C760 O732 1.214 . S
C760 O740 1.234 . S
C761 H733 0.929 . S
C761 C764 1.391 . S
C761 C766 1.391 . S
C762 H734 0.929 . S
C762 C763 1.390 . S
C762 N765 1.391 . S
C763 H735 0.930 . S
C763 C762 1.390 . S
C763 C764 1.392 . S
C764 H736 0.929 . S
C764 C761 1.391 . S
C764 C763 1.392 . S
N765 Co709 2.257 . S
N765 C762 1.391 . S
N765 C766 1.388 . S
C766 H737 0.930 . S
C766 C761 1.391 . S
C766 N765 1.388 . S
Co767 O769 2.143 . S
Co767 O775 2.074 . S
Co767 O778 2.093 . S
Co767 O791 2.097 . S
Co767 N808 2.151 . S
Co767 N816 2.214 . S
Co768 O769 2.160 . S
Co768 O774 2.058 . S
Co768 O784 2.057 . S
Co768 O799 2.037 . S
Co768 N803 2.145 . S
Co768 N824 2.257 . S
O769 Co767 2.143 . S
O769 Co768 2.160 . S
C770 O771 1.278 . S
C770 O778 1.224 . S
O771 C770 1.278 . S
C772 O773 1.245 . S
C772 O784 1.232 . S
O773 C772 1.245 . S
O774 Co768 2.058 . S
O774 C800 1.269 . S
O775 Co767 2.074 . S
O775 C800 1.257 . S
H776 C801 0.930 . S
H777 C807 0.930 . S
O778 Co767 2.093 . S
O778 C770 1.224 . S
H779 C811 0.929 . S
H780 C813 0.930 . S
H781 C814 0.930 . S
H782 C812 0.929 . S
H783 C815 0.928 . S
O784 Co768 2.057 . S
O784 C772 1.232 . S
H785 C804 0.929 . S
H786 C805 0.929 . S
H787 C817 0.931 . S
H788 C809 0.929 . S
H789 C818 0.930 . S
H790 C810 0.931 . S
O791 Co767 2.097 . S
O791 C819 1.214 . S
H792 C820 0.929 . S
H793 C821 0.929 . S
H794 C822 0.930 . S
H795 C823 0.929 . S
H796 C825 0.930 . S
H797 C802 0.930 . S
H798 C806 0.930 . S
O799 Co768 2.037 . S
O799 C819 1.234 . S
C800 O774 1.269 . S
C800 O775 1.257 . S
C801 H776 0.930 . S
C801 C804 1.388 . S
C801 C806 1.418 . S
C802 H797 0.930 . S
C802 C805 1.404 . S
C802 C806 1.353 . S
N803 Co768 2.145 . S
N803 C804 1.397 . S
N803 C805 1.334 . S
C804 H785 0.929 . S
C804 C801 1.388 . S
C804 N803 1.397 . S
C805 H786 0.929 . S
C805 C802 1.404 . S
C805 N803 1.334 . S
C806 H798 0.930 . S
C806 C801 1.418 . S
C806 C802 1.353 . S
C807 H777 0.930 . S
C807 N808 1.330 . S
C807 C809 1.446 . S
N808 Co767 2.151 . S
N808 C807 1.330 . S
N808 C812 1.418 . S
C809 H788 0.929 . S
C809 C807 1.446 . S
C809 C810 1.332 . S
C810 H790 0.931 . S
C810 C809 1.332 . S
C810 C811 1.267 . S
C811 H779 0.929 . S
C811 C810 1.267 . S
C811 C812 1.251 . S
C812 H782 0.929 . S
C812 N808 1.418 . S
C812 C811 1.251 . S
C813 H780 0.930 . S
C813 C815 1.406 . S
C813 C818 1.261 . S
C814 H781 0.930 . S
C814 N816 1.325 . S
C814 C817 1.357 . S
C815 H783 0.928 . S
C815 C813 1.406 . S
C815 N816 1.261 . S
N816 Co767 2.214 . S
N816 C814 1.325 . S
N816 C815 1.261 . S
C817 H787 0.931 . S
C817 C814 1.357 . S
C817 C818 1.312 . S
C818 H789 0.930 . S
C818 C813 1.261 . S
C818 C817 1.312 . S
C819 O791 1.214 . S
C819 O799 1.234 . S
C820 H792 0.929 . S
C820 C823 1.391 . S
C820 C825 1.391 . S
C821 H793 0.929 . S
C821 C822 1.390 . S
C821 N824 1.391 . S
C822 H794 0.930 . S
C822 C821 1.390 . S
C822 C823 1.392 . S
C823 H795 0.929 . S
C823 C820 1.391 . S
C823 C822 1.392 . S
N824 Co768 2.257 . S
N824 C821 1.391 . S
N824 C825 1.388 . S
C825 H796 0.930 . S
C825 C820 1.391 . S
C825 N824 1.388 . S
Co826 O828 2.143 . S
Co826 O834 2.074 . S
Co826 O837 2.093 . S
Co826 O850 2.097 . S
Co826 N867 2.151 . S
Co826 N875 2.214 . S
Co827 O828 2.160 . S
Co827 O833 2.058 . S
Co827 O843 2.057 . S
Co827 O858 2.037 . S
Co827 N862 2.145 . S
Co827 N883 2.257 . S
O828 Co826 2.143 . S
O828 Co827 2.160 . S
C829 O830 1.278 . S
C829 O837 1.224 . S
O830 C829 1.278 . S
C831 O832 1.245 . S
C831 O843 1.232 . S
O832 C831 1.245 . S
O833 Co827 2.058 . S
O833 C859 1.269 . S
O834 Co826 2.074 . S
O834 C859 1.257 . S
H835 C860 0.930 . S
H836 C866 0.930 . S
O837 Co826 2.093 . S
O837 C829 1.224 . S
H838 C870 0.929 . S
H839 C872 0.930 . S
H840 C873 0.930 . S
H841 C871 0.929 . S
H842 C874 0.928 . S
O843 Co827 2.057 . S
O843 C831 1.232 . S
H844 C863 0.929 . S
H845 C864 0.929 . S
H846 C876 0.931 . S
H847 C868 0.929 . S
H848 C877 0.930 . S
H849 C869 0.931 . S
O850 Co826 2.097 . S
O850 C878 1.214 . S
H851 C879 0.929 . S
H852 C880 0.929 . S
H853 C881 0.930 . S
H854 C882 0.929 . S
H855 C884 0.930 . S
H856 C861 0.930 . S
H857 C865 0.930 . S
O858 Co827 2.037 . S
O858 C878 1.234 . S
C859 O833 1.269 . S
C859 O834 1.257 . S
C860 H835 0.930 . S
C860 C863 1.388 . S
C860 C865 1.418 . S
C861 H856 0.930 . S
C861 C864 1.404 . S
C861 C865 1.353 . S
N862 Co827 2.145 . S
N862 C863 1.397 . S
N862 C864 1.334 . S
C863 H844 0.929 . S
C863 C860 1.388 . S
C863 N862 1.397 . S
C864 H845 0.929 . S
C864 C861 1.404 . S
C864 N862 1.334 . S
C865 H857 0.930 . S
C865 C860 1.418 . S
C865 C861 1.353 . S
C866 H836 0.930 . S
C866 N867 1.330 . S
C866 C868 1.446 . S
N867 Co826 2.151 . S
N867 C866 1.330 . S
N867 C871 1.418 . S
C868 H847 0.929 . S
C868 C866 1.446 . S
C868 C869 1.332 . S
C869 H849 0.931 . S
C869 C868 1.332 . S
C869 C870 1.267 . S
C870 H838 0.929 . S
C870 C869 1.267 . S
C870 C871 1.251 . S
C871 H841 0.929 . S
C871 N867 1.418 . S
C871 C870 1.251 . S
C872 H839 0.930 . S
C872 C874 1.406 . S
C872 C877 1.261 . S
C873 H840 0.930 . S
C873 N875 1.325 . S
C873 C876 1.357 . S
C874 H842 0.928 . S
C874 C872 1.406 . S
C874 N875 1.261 . S
N875 Co826 2.214 . S
N875 C873 1.325 . S
N875 C874 1.261 . S
C876 H846 0.931 . S
C876 C873 1.357 . S
C876 C877 1.312 . S
C877 H848 0.930 . S
C877 C872 1.261 . S
C877 C876 1.312 . S
C878 O850 1.214 . S
C878 O858 1.234 . S
C879 H851 0.929 . S
C879 C882 1.391 . S
C879 C884 1.391 . S
C880 H852 0.929 . S
C880 C881 1.390 . S
C880 N883 1.391 . S
C881 H853 0.930 . S
C881 C880 1.390 . S
C881 C882 1.392 . S
C882 H854 0.929 . S
C882 C879 1.391 . S
C882 C881 1.392 . S
N883 Co827 2.257 . S
N883 C880 1.391 . S
N883 C884 1.388 . S
C884 H855 0.930 . S
C884 C879 1.391 . S
C884 N883 1.388 . S
Co885 O887 2.143 . S
Co885 O893 2.074 . S
Co885 O896 2.093 . S
Co885 O909 2.097 . S
Co885 N926 2.151 . S
Co885 N934 2.214 . S
Co886 O887 2.160 . S
Co886 O892 2.058 . S
Co886 O902 2.057 . S
Co886 O917 2.037 . S
Co886 N921 2.145 . S
Co886 N942 2.257 . S
O887 Co885 2.143 . S
O887 Co886 2.160 . S
C888 O889 1.278 . S
C888 O896 1.224 . S
O889 C888 1.278 . S
C890 O891 1.245 . S
C890 O902 1.232 . S
O891 C890 1.245 . S
O892 Co886 2.058 . S
O892 C918 1.269 . S
O893 Co885 2.074 . S
O893 C918 1.257 . S
H894 C919 0.930 . S
H895 C925 0.930 . S
O896 Co885 2.093 . S
O896 C888 1.224 . S
H897 C929 0.929 . S
H898 C931 0.930 . S
H899 C932 0.930 . S
H900 C930 0.929 . S
H901 C933 0.928 . S
O902 Co886 2.057 . S
O902 C890 1.232 . S
H903 C922 0.929 . S
H904 C923 0.929 . S
H905 C935 0.931 . S
H906 C927 0.929 . S
H907 C936 0.930 . S
H908 C928 0.931 . S
O909 Co885 2.097 . S
O909 C937 1.214 . S
H910 C938 0.929 . S
H911 C939 0.929 . S
H912 C940 0.930 . S
H913 C941 0.929 . S
H914 C943 0.930 . S
H915 C920 0.930 . S
H916 C924 0.930 . S
O917 Co886 2.037 . S
O917 C937 1.234 . S
C918 O892 1.269 . S
C918 O893 1.257 . S
C919 H894 0.930 . S
C919 C922 1.388 . S
C919 C924 1.418 . S
C920 H915 0.930 . S
C920 C923 1.404 . S
C920 C924 1.353 . S
N921 Co886 2.145 . S
N921 C922 1.397 . S
N921 C923 1.334 . S
C922 H903 0.929 . S
C922 C919 1.388 . S
C922 N921 1.397 . S
C923 H904 0.929 . S
C923 C920 1.404 . S
C923 N921 1.334 . S
C924 H916 0.930 . S
C924 C919 1.418 . S
C924 C920 1.353 . S
C925 H895 0.930 . S
C925 N926 1.330 . S
C925 C927 1.446 . S
N926 Co885 2.151 . S
N926 C925 1.330 . S
N926 C930 1.418 . S
C927 H906 0.929 . S
C927 C925 1.446 . S
C927 C928 1.332 . S
C928 H908 0.931 . S
C928 C927 1.332 . S
C928 C929 1.267 . S
C929 H897 0.929 . S
C929 C928 1.267 . S
C929 C930 1.251 . S
C930 H900 0.929 . S
C930 N926 1.418 . S
C930 C929 1.251 . S
C931 H898 0.930 . S
C931 C933 1.406 . S
C931 C936 1.261 . S
C932 H899 0.930 . S
C932 N934 1.325 . S
C932 C935 1.357 . S
C933 H901 0.928 . S
C933 C931 1.406 . S
C933 N934 1.261 . S
N934 Co885 2.214 . S
N934 C932 1.325 . S
N934 C933 1.261 . S
C935 H905 0.931 . S
C935 C932 1.357 . S
C935 C936 1.312 . S
C936 H907 0.930 . S
C936 C931 1.261 . S
C936 C935 1.312 . S
C937 O909 1.214 . S
C937 O917 1.234 . S
C938 H910 0.929 . S
C938 C941 1.391 . S
C938 C943 1.391 . S
C939 H911 0.929 . S
C939 C940 1.390 . S
C939 N942 1.391 . S
C940 H912 0.930 . S
C940 C939 1.390 . S
C940 C941 1.392 . S
C941 H913 0.929 . S
C941 C938 1.391 . S
C941 C940 1.392 . S
N942 Co886 2.257 . S
N942 C939 1.391 . S
N942 C943 1.388 . S
C943 H914 0.930 . S
C943 C938 1.391 . S
C943 N942 1.388 . S
C944 C945 1.391 1_554 S
C944 C946 1.394 . S
C944 H960 0.931 . S
C945 C944 1.391 1_556 S
C945 C949 1.376 . S
C946 C944 1.394 . S
C946 C947 1.369 . S
C946 C950 1.531 . S
C947 C946 1.369 . S
C947 C948 1.410 1_554 S
C947 C955 1.503 . S
C948 C947 1.410 1_556 S
C948 C949 1.392 . S
C948 C951 1.511 . S
C949 C945 1.376 . S
C949 C948 1.392 . S
C949 H961 0.929 . S
C950 C946 1.531 . S
C950 H962 0.960 . S
C950 H963 0.962 . S
C950 H964 0.960 . S
C951 C948 1.511 . S
C951 H965 0.961 . S
C951 H966 0.961 . S
C951 H967 0.961 . S
C952 C953 1.370 1_556 S
C952 C954 1.363 . S
C952 H968 0.931 . S
C953 C952 1.370 1_554 S
C953 C957 1.408 . S
C954 C952 1.363 . S
C954 C955 1.370 1_556 S
C954 C958 1.524 . S
C955 C947 1.503 . S
C955 C954 1.370 1_554 S
C955 C956 1.403 . S
C956 C955 1.403 . S
C956 C957 1.404 . S
C956 C959 1.539 . S
C957 C953 1.408 . S
C957 C956 1.404 . S
C957 H969 0.930 . S
C958 C954 1.524 . S
C958 H970 0.956 . S
C958 H971 0.961 . S
C958 H972 0.961 . S
C959 C956 1.539 . S
C959 H973 0.958 . S
C959 H974 0.961 . S
C959 H975 0.960 . S
H960 C944 0.931 . S
H961 C949 0.929 . S
H962 C950 0.960 . S
H963 C950 0.962 . S
H964 C950 0.960 . S
H965 C951 0.961 . S
H966 C951 0.961 . S
H967 C951 0.961 . S
H968 C952 0.931 . S
H969 C957 0.930 . S
H970 C958 0.956 . S
H971 C958 0.961 . S
H972 C958 0.961 . S
H973 C959 0.958 . S
H974 C959 0.961 . S
H975 C959 0.960 . S
C976 C977 1.391 1_554 S
C976 C978 1.394 . S
C976 H992 0.931 . S
C977 C976 1.391 1_556 S
C977 C981 1.376 . S
C978 C976 1.394 . S
C978 C979 1.369 1_554 S
C978 C982 1.531 . S
C979 C978 1.369 1_556 S
C979 C980 1.410 . S
C979 C987 1.503 . S
C980 C979 1.410 . S
C980 C981 1.392 . S
C980 C983 1.511 . S
C981 C977 1.376 . S
C981 C980 1.392 . S
C981 H993 0.929 . S
C982 C978 1.531 . S
C982 H994 0.960 . S
C982 H995 0.962 . S
C982 H996 0.960 . S
C983 C980 1.511 . S
C983 H997 0.961 . S
C983 H998 0.961 . S
C983 H999 0.961 . S
C984 C985 1.370 . S
C984 C986 1.363 . S
C984 H1000 0.931 . S
C985 C984 1.370 . S
C985 C989 1.408 1_554 S
C986 C984 1.363 . S
C986 C987 1.370 1_554 S
C986 C990 1.524 . S
C987 C979 1.503 . S
C987 C986 1.370 1_556 S
C987 C988 1.403 . S
C988 C987 1.403 . S
C988 C989 1.404 . S
C988 C991 1.539 . S
C989 C985 1.408 1_556 S
C989 C988 1.404 . S
C989 H1001 0.930 . S
C990 C986 1.524 . S
C990 H1002 0.956 . S
C990 H1003 0.961 1_554 S
C990 H1004 0.961 . S
C991 C988 1.539 . S
C991 H1005 0.958 1_556 S
C991 H1006 0.961 . S
C991 H1007 0.960 . S
H992 C976 0.931 . S
H993 C981 0.929 . S
H994 C982 0.960 . S
H995 C982 0.962 . S
H996 C982 0.960 . S
H997 C983 0.961 . S
H998 C983 0.961 . S
H999 C983 0.961 . S
H1000 C984 0.931 . S
H1001 C989 0.930 . S
H1002 C990 0.956 . S
H1003 C990 0.961 1_556 S
H1004 C990 0.961 . S
H1005 C991 0.958 1_554 S
H1006 C991 0.961 . S
H1007 C991 0.960 . S
C1008 C1009 1.391 1_554 S
C1008 C1010 1.394 . S
C1008 H1024 0.931 . S
C1009 C1008 1.391 1_556 S
C1009 C1013 1.376 . S
C1010 C1008 1.394 . S
C1010 C1011 1.369 . S
C1010 C1014 1.531 . S
C1011 C1010 1.369 . S
C1011 C1012 1.410 1_554 S
C1011 C1019 1.503 . S
C1012 C1011 1.410 1_556 S
C1012 C1013 1.392 . S
C1012 C1015 1.511 . S
C1013 C1009 1.376 . S
C1013 C1012 1.392 . S
C1013 H1025 0.929 . S
C1014 C1010 1.531 . S
C1014 H1026 0.960 . S
C1014 H1027 0.962 . S
C1014 H1028 0.960 . S
C1015 C1012 1.511 . S
C1015 H1029 0.961 . S
C1015 H1030 0.961 . S
C1015 H1031 0.961 1_556 S
C1016 C1017 1.370 1_556 S
C1016 C1018 1.363 . S
C1016 H1032 0.931 . S
C1017 C1016 1.370 1_554 S
C1017 C1021 1.408 . S
C1018 C1016 1.363 . S
C1018 C1019 1.370 1_556 S
C1018 C1022 1.524 . S
C1019 C1011 1.503 . S
C1019 C1018 1.370 1_554 S
C1019 C1020 1.403 . S
C1020 C1019 1.403 . S
C1020 C1021 1.404 . S
C1020 C1023 1.539 . S
C1021 C1017 1.408 . S
C1021 C1020 1.404 . S
C1021 H1033 0.930 . S
C1022 C1018 1.524 . S
C1022 H1034 0.956 . S
C1022 H1035 0.961 . S
C1022 H1036 0.961 . S
C1023 C1020 1.539 . S
C1023 H1037 0.958 . S
C1023 H1038 0.961 . S
C1023 H1039 0.960 . S
H1024 C1008 0.931 . S
H1025 C1013 0.929 . S
H1026 C1014 0.960 . S
H1027 C1014 0.962 . S
H1028 C1014 0.960 . S
H1029 C1015 0.961 . S
H1030 C1015 0.961 . S
H1031 C1015 0.961 1_554 S
H1032 C1016 0.931 . S
H1033 C1021 0.930 . S
H1034 C1022 0.956 . S
H1035 C1022 0.961 . S
H1036 C1022 0.961 . S
H1037 C1023 0.958 . S
H1038 C1023 0.961 . S
H1039 C1023 0.960 . S
C1040 C1041 1.391 . S
C1040 C1042 1.394 . S
C1040 H1056 0.931 . S
C1041 C1040 1.391 . S
C1041 C1045 1.376 1_556 S
C1042 C1040 1.394 . S
C1042 C1043 1.369 1_556 S
C1042 C1046 1.531 . S
C1043 C1042 1.369 1_554 S
C1043 C1044 1.410 . S
C1043 C1051 1.503 . S
C1044 C1043 1.410 . S
C1044 C1045 1.392 . S
C1044 C1047 1.511 . S
C1045 C1041 1.376 1_554 S
C1045 C1044 1.392 . S
C1045 H1057 0.929 . S
C1046 C1042 1.531 . S
C1046 H1058 0.960 . S
C1046 H1059 0.962 . S
C1046 H1060 0.960 . S
C1047 C1044 1.511 . S
C1047 H1061 0.961 . S
C1047 H1062 0.961 . S
C1047 H1063 0.961 . S
C1048 C1049 1.370 1_556 S
C1048 C1050 1.363 . S
C1048 H1064 0.931 . S
C1049 C1048 1.370 1_554 S
C1049 C1053 1.408 . S
C1050 C1048 1.363 . S
C1050 C1051 1.370 1_556 S
C1050 C1054 1.524 . S
C1051 C1043 1.503 . S
C1051 C1050 1.370 1_554 S
C1051 C1052 1.403 . S
C1052 C1051 1.403 . S
C1052 C1053 1.404 . S
C1052 C1055 1.539 . S
C1053 C1049 1.408 . S
C1053 C1052 1.404 . S
C1053 H1065 0.930 . S
C1054 C1050 1.524 . S
C1054 H1066 0.956 . S
C1054 H1067 0.961 . S
C1054 H1068 0.961 . S
C1055 C1052 1.539 . S
C1055 H1069 0.958 . S
C1055 H1070 0.961 . S
C1055 H1071 0.960 . S
H1056 C1040 0.931 . S
H1057 C1045 0.929 . S
H1058 C1046 0.960 . S
H1059 C1046 0.962 . S
H1060 C1046 0.960 . S
H1061 C1047 0.961 . S
H1062 C1047 0.961 . S
H1063 C1047 0.961 . S
H1064 C1048 0.931 . S
H1065 C1053 0.930 . S
H1066 C1054 0.956 . S
H1067 C1054 0.961 . S
H1068 C1054 0.961 . S
H1069 C1055 0.958 . S
H1070 C1055 0.961 . S
H1071 C1055 0.960 . S
C1072 C1073 1.391 . S
C1072 C1074 1.394 . S
C1072 H1088 0.931 . S
C1073 C1072 1.391 . S
C1073 C1077 1.376 . S
C1074 C1072 1.394 . S
C1074 C1075 1.369 . S
C1074 C1078 1.531 . S
C1075 C1074 1.369 . S
C1075 C1076 1.410 . S
C1075 C1083 1.503 1_545 S
C1076 C1075 1.410 . S
C1076 C1077 1.392 . S
C1076 C1079 1.511 . S
C1077 C1073 1.376 . S
C1077 C1076 1.392 . S
C1077 H1089 0.929 . S
C1078 C1074 1.531 . S
C1078 H1090 0.960 1_545 S
C1078 H1091 0.962 . S
C1078 H1092 0.960 . S
C1079 C1076 1.511 . S
C1079 H1093 0.961 . S
C1079 H1094 0.961 1_545 S
C1079 H1095 0.961 . S
C1080 C1081 1.370 . S
C1080 C1082 1.363 . S
C1080 H1096 0.931 . S
C1081 C1080 1.370 . S
C1081 C1085 1.408 . S
C1082 C1080 1.363 . S
C1082 C1083 1.370 . S
C1082 C1086 1.524 . S
C1083 C1075 1.503 1_565 S
C1083 C1082 1.370 . S
C1083 C1084 1.403 . S
C1084 C1083 1.403 . S
C1084 C1085 1.404 . S
C1084 C1087 1.539 . S
C1085 C1081 1.408 . S
C1085 C1084 1.404 . S
C1085 H1097 0.930 . S
C1086 C1082 1.524 . S
C1086 H1098 0.956 1_565 S
C1086 H1099 0.961 1_565 S
C1086 H1100 0.961 . S
C1087 C1084 1.539 . S
C1087 H1101 0.958 . S
C1087 H1102 0.961 . S
C1087 H1103 0.960 . S
H1088 C1072 0.931 . S
H1089 C1077 0.929 . S
H1090 C1078 0.960 1_565 S
H1091 C1078 0.962 . S
H1092 C1078 0.960 . S
H1093 C1079 0.961 . S
H1094 C1079 0.961 1_565 S
H1095 C1079 0.961 . S
H1096 C1080 0.931 . S
H1097 C1085 0.930 . S
H1098 C1086 0.956 1_545 S
H1099 C1086 0.961 1_545 S
H1100 C1086 0.961 . S
H1101 C1087 0.958 . S
H1102 C1087 0.961 . S
H1103 C1087 0.960 . S
C1104 C1105 1.391 . S
C1104 C1106 1.394 . S
C1104 H1120 0.931 . S
C1105 C1104 1.391 . S
C1105 C1109 1.376 . S
C1106 C1104 1.394 . S
C1106 C1107 1.369 . S
C1106 C1110 1.531 . S
C1107 C1106 1.369 . S
C1107 C1108 1.410 . S
C1107 C1115 1.503 1_655 S
C1108 C1107 1.410 . S
C1108 C1109 1.392 . S
C1108 C1111 1.511 . S
C1109 C1105 1.376 . S
C1109 C1108 1.392 . S
C1109 H1121 0.929 . S
C1110 C1106 1.531 . S
C1110 H1122 0.960 1_655 S
C1110 H1123 0.962 . S
C1110 H1124 0.960 . S
C1111 C1108 1.511 . S
C1111 H1125 0.961 . S
C1111 H1126 0.961 1_655 S
C1111 H1127 0.961 . S
C1112 C1113 1.370 . S
C1112 C1114 1.363 . S
C1112 H1128 0.931 . S
C1113 C1112 1.370 . S
C1113 C1117 1.408 . S
C1114 C1112 1.363 . S
C1114 C1115 1.370 . S
C1114 C1118 1.524 . S
C1115 C1107 1.503 1_455 S
C1115 C1114 1.370 . S
C1115 C1116 1.403 . S
C1116 C1115 1.403 . S
C1116 C1117 1.404 . S
C1116 C1119 1.539 . S
C1117 C1113 1.408 . S
C1117 C1116 1.404 . S
C1117 H1129 0.930 . S
C1118 C1114 1.524 . S
C1118 H1130 0.956 . S
C1118 H1131 0.974 . S
C1118 H1132 0.961 . S
C1119 C1116 1.539 . S
C1119 H1133 0.958 . S
C1119 H1134 0.961 . S
C1119 H1135 0.960 1_455 S
H1120 C1104 0.931 . S
H1121 C1109 0.929 . S
H1122 C1110 0.960 1_455 S
H1123 C1110 0.962 . S
H1124 C1110 0.960 . S
H1125 C1111 0.961 . S
H1126 C1111 0.961 1_455 S
H1127 C1111 0.961 . S
H1128 C1112 0.931 . S
H1129 C1117 0.930 . S
H1130 C1118 0.956 . S
H1131 C1118 0.974 . S
H1132 C1118 0.961 . S
H1133 C1119 0.958 . S
H1134 C1119 0.961 . S
H1135 C1119 0.960 1_655 S
C1136 C1137 1.391 . S
C1136 C1138 1.394 . S
C1136 H1152 0.931 . S
C1137 C1136 1.391 . S
C1137 C1141 1.376 . S
C1138 C1136 1.394 . S
C1138 C1139 1.369 . S
C1138 C1142 1.531 . S
C1139 C1138 1.369 . S
C1139 C1140 1.410 . S
C1139 C1147 1.503 1_545 S
C1140 C1139 1.410 . S
C1140 C1141 1.392 . S
C1140 C1143 1.511 . S
C1141 C1137 1.376 . S
C1141 C1140 1.392 . S
C1141 H1153 0.929 . S
C1142 C1138 1.531 . S
C1142 H1154 0.963 1_545 S
C1142 H1155 0.962 . S
C1142 H1156 0.960 . S
C1143 C1140 1.511 . S
C1143 H1157 0.961 . S
C1143 H1158 0.961 1_545 S
C1143 H1159 0.961 . S
C1144 C1145 1.370 . S
C1144 C1146 1.363 . S
C1144 H1160 0.931 . S
C1145 C1144 1.370 . S
C1145 C1149 1.408 . S
C1146 C1144 1.363 . S
C1146 C1147 1.370 . S
C1146 C1150 1.524 . S
C1147 C1139 1.503 1_565 S
C1147 C1146 1.370 . S
C1147 C1148 1.403 . S
C1148 C1147 1.403 . S
C1148 C1149 1.404 . S
C1148 C1151 1.539 . S
C1149 C1145 1.408 . S
C1149 C1148 1.404 . S
C1149 H1161 0.930 . S
C1150 C1146 1.524 . S
C1150 H1162 0.956 . S
C1150 H1163 0.989 . S
C1150 H1164 0.961 . S
C1151 C1148 1.539 . S
C1151 H1165 0.958 . S
C1151 H1166 0.961 . S
C1151 H1167 0.960 1_565 S
H1152 C1136 0.931 . S
H1153 C1141 0.929 . S
H1154 C1142 0.963 1_565 S
H1155 C1142 0.962 . S
H1156 C1142 0.960 . S
H1157 C1143 0.961 . S
H1158 C1143 0.961 1_565 S
H1159 C1143 0.961 . S
H1160 C1144 0.931 . S
H1161 C1149 0.930 . S
H1162 C1150 0.956 . S
H1163 C1150 0.989 . S
H1164 C1150 0.961 . S
H1165 C1151 0.958 . S
H1166 C1151 0.961 . S
H1167 C1151 0.960 1_545 S
C1168 C1169 1.391 . S
C1168 C1170 1.394 . S
C1168 H1184 0.931 . S
C1169 C1168 1.391 . S
C1169 C1173 1.376 . S
C1170 C1168 1.394 . S
C1170 C1171 1.369 . S
C1170 C1174 1.531 . S
C1171 C1170 1.369 . S
C1171 C1172 1.410 . S
C1171 C1179 1.503 1_455 S
C1172 C1171 1.410 . S
C1172 C1173 1.392 . S
C1172 C1175 1.511 . S
C1173 C1169 1.376 . S
C1173 C1172 1.392 . S
C1173 H1185 0.929 . S
C1174 C1170 1.531 . S
C1174 H1186 0.960 1_455 S
C1174 H1187 0.962 . S
C1174 H1188 0.960 . S
C1175 C1172 1.511 . S
C1175 H1189 0.961 . S
C1175 H1190 0.961 1_455 S
C1175 H1191 0.961 . S
C1176 C1177 1.370 . S
C1176 C1178 1.363 . S
C1176 H1192 0.931 . S
C1177 C1176 1.370 . S
C1177 C1181 1.408 . S
C1178 C1176 1.363 . S
C1178 C1179 1.370 . S
C1178 C1182 1.524 . S
C1179 C1171 1.503 1_655 S
C1179 C1178 1.370 . S
C1179 C1180 1.403 . S
C1180 C1179 1.403 . S
C1180 C1181 1.404 . S
C1180 C1183 1.539 . S
C1181 C1177 1.408 . S
C1181 C1180 1.404 . S
C1181 H1193 0.930 . S
C1182 C1178 1.524 . S
C1182 H1194 0.956 . S
C1182 H1195 0.964 . S
C1182 H1196 0.961 . S
C1183 C1180 1.539 . S
C1183 H1197 0.958 . S
C1183 H1198 0.961 . S
C1183 H1199 0.960 1_655 S
H1184 C1168 0.931 . S
H1185 C1173 0.929 . S
H1186 C1174 0.960 1_655 S
H1187 C1174 0.962 . S
H1188 C1174 0.960 . S
H1189 C1175 0.961 . S
H1190 C1175 0.961 1_655 S
H1191 C1175 0.961 . S
H1192 C1176 0.931 . S
H1193 C1181 0.930 . S
H1194 C1182 0.956 . S
H1195 C1182 0.964 . S
H1196 C1182 0.961 . S
H1197 C1183 0.958 . S
H1198 C1183 0.961 . S
H1199 C1183 0.960 1_455 S
C1200 C1201 1.391 . S
C1200 C1202 1.394 . S
C1200 H1216 0.931 . S
C1201 C1200 1.391 . S
C1201 C1205 1.376 1_554 S
C1202 C1200 1.394 . S
C1202 C1203 1.369 . S
C1202 C1206 1.531 . S
C1203 C1202 1.369 . S
C1203 C1204 1.410 1_554 S
C1203 C1211 1.503 . S
C1204 C1203 1.410 1_556 S
C1204 C1205 1.392 . S
C1204 C1207 1.511 . S
C1205 C1201 1.376 1_556 S
C1205 C1204 1.392 . S
C1205 H1217 0.929 . S
C1206 C1202 1.531 . S
C1206 H1218 0.960 . S
C1206 H1219 0.962 . S
C1206 H1220 0.960 . S
C1207 C1204 1.511 . S
C1207 H1221 0.961 . S
C1207 H1222 0.961 . S
C1207 H1223 0.961 1_556 S
C1208 C1209 1.370 . S
C1208 C1210 1.363 . S
C1208 H1224 0.931 . S
C1209 C1208 1.370 . S
C1209 C1213 1.408 1_556 S
C1210 C1208 1.363 . S
C1210 C1211 1.370 1_556 S
C1210 C1214 1.524 . S
C1211 C1203 1.503 . S
C1211 C1210 1.370 1_554 S
C1211 C1212 1.403 . S
C1212 C1211 1.403 . S
C1212 C1213 1.404 . S
C1212 C1215 1.539 . S
C1213 C1209 1.408 1_554 S
C1213 C1212 1.404 . S
C1213 H1225 0.930 . S
C1214 C1210 1.524 . S
C1214 H1226 0.956 . S
C1214 H1227 0.961 . S
C1214 H1228 0.961 . S
C1215 C1212 1.539 . S
C1215 H1229 0.958 . S
C1215 H1230 0.961 . S
C1215 H1231 0.960 . S
H1216 C1200 0.931 . S
H1217 C1205 0.929 . S
H1218 C1206 0.960 . S
H1219 C1206 0.962 . S
H1220 C1206 0.960 . S
H1221 C1207 0.961 . S
H1222 C1207 0.961 . S
H1223 C1207 0.961 1_554 S
H1224 C1208 0.931 . S
H1225 C1213 0.930 . S
H1226 C1214 0.956 . S
H1227 C1214 0.961 . S
H1228 C1214 0.961 . S
H1229 C1215 0.958 . S
H1230 C1215 0.961 . S
H1231 C1215 0.960 . S
C1232 C1233 1.391 . S
C1232 C1234 1.394 . S
C1232 H1248 0.931 . S
C1233 C1232 1.391 . S
C1233 C1237 1.376 . S
C1234 C1232 1.394 . S
C1234 C1235 1.369 . S
C1234 C1238 1.531 . S
C1235 C1234 1.369 . S
C1235 C1236 1.410 . S
C1235 C1243 1.503 . S
C1236 C1235 1.410 . S
C1236 C1237 1.392 . S
C1236 C1239 1.511 . S
C1237 C1233 1.376 . S
C1237 C1236 1.392 . S
C1237 H1249 0.929 . S
C1238 C1234 1.531 . S
C1238 H1250 0.960 . S
C1238 H1251 0.962 1_556 S
C1238 H1252 0.960 . S
C1239 C1236 1.511 . S
C1239 H1253 0.961 1_556 S
C1239 H1254 0.961 1_556 S
C1239 H1255 0.961 . S
C1240 C1241 1.370 . S
C1240 C1242 1.363 . S
C1240 H1256 0.931 . S
C1241 C1240 1.370 . S
C1241 C1245 1.408 1_554 S
C1242 C1240 1.363 . S
C1242 C1243 1.370 1_554 S
C1242 C1246 1.524 . S
C1243 C1235 1.503 . S
C1243 C1242 1.370 1_556 S
C1243 C1244 1.403 . S
C1244 C1243 1.403 . S
C1244 C1245 1.404 . S
C1244 C1247 1.539 . S
C1245 C1241 1.408 1_556 S
C1245 C1244 1.404 . S
C1245 H1257 0.930 . S
C1246 C1242 1.524 . S
C1246 H1258 0.956 . S
C1246 H1259 0.961 . S
C1246 H1260 0.961 . S
C1247 C1244 1.539 . S
C1247 H1261 0.958 . S
C1247 H1262 0.961 . S
C1247 H1263 0.960 . S
H1248 C1232 0.931 . S
H1249 C1237 0.929 . S
H1250 C1238 0.960 . S
H1251 C1238 0.962 1_554 S
H1252 C1238 0.960 . S
H1253 C1239 0.961 1_554 S
H1254 C1239 0.961 1_554 S
H1255 C1239 0.961 . S
H1256 C1240 0.931 . S
H1257 C1245 0.930 . S
H1258 C1246 0.956 . S
H1259 C1246 0.961 . S
H1260 C1246 0.961 . S
H1261 C1247 0.958 . S
H1262 C1247 0.961 . S
H1263 C1247 0.960 . S
C1264 C1265 1.391 . S
C1264 C1266 1.394 . S
C1264 H1280 0.931 . S
C1265 C1264 1.391 . S
C1265 C1269 1.376 1_554 S
C1266 C1264 1.394 . S
C1266 C1267 1.369 . S
C1266 C1270 1.531 . S
C1267 C1266 1.369 . S
C1267 C1268 1.410 1_554 S
C1267 C1275 1.504 1_554 S
C1268 C1267 1.410 1_556 S
C1268 C1269 1.392 . S
C1268 C1271 1.511 . S
C1269 C1265 1.376 1_556 S
C1269 C1268 1.392 . S
C1269 H1281 0.929 . S
C1270 C1266 1.531 . S
C1270 H1282 0.960 . S
C1270 H1283 0.962 . S
C1270 H1284 0.960 . S
C1271 C1268 1.511 . S
C1271 H1285 0.961 . S
C1271 H1286 0.961 . S
C1271 H1287 0.961 . S
C1272 C1273 1.370 . S
C1272 C1274 1.363 . S
C1272 H1288 0.931 . S
C1273 C1272 1.370 . S
C1273 C1277 1.408 1_556 S
C1274 C1272 1.363 . S
C1274 C1275 1.370 . S
C1274 C1278 1.524 . S
C1275 C1267 1.504 1_556 S
C1275 C1274 1.370 . S
C1275 C1276 1.403 1_556 S
C1276 C1275 1.403 1_554 S
C1276 C1277 1.404 . S
C1276 C1279 1.539 . S
C1277 C1273 1.408 1_554 S
C1277 C1276 1.404 . S
C1277 H1289 0.930 . S
C1278 C1274 1.524 . S
C1278 H1290 0.956 1_556 S
C1278 H1291 0.961 . S
C1278 H1292 0.961 . S
C1279 C1276 1.539 . S
C1279 H1293 0.958 . S
C1279 H1294 0.951 1_554 S
C1279 H1295 0.967 . S
H1280 C1264 0.931 . S
H1281 C1269 0.929 . S
H1282 C1270 0.960 . S
H1283 C1270 0.962 . S
H1284 C1270 0.960 . S
H1285 C1271 0.961 . S
H1286 C1271 0.961 . S
H1287 C1271 0.961 . S
H1288 C1272 0.931 . S
H1289 C1277 0.930 . S
H1290 C1278 0.956 1_554 S
H1291 C1278 0.961 . S
H1292 C1278 0.961 . S
H1293 C1279 0.958 . S
H1294 C1279 0.951 1_556 S
H1295 C1279 0.967 . S
C1296 C1297 1.391 . S
C1296 C1298 1.394 1_556 S
C1296 H1312 0.931 . S
C1297 C1296 1.391 . S
C1297 C1301 1.376 1_556 S
C1298 C1296 1.394 1_554 S
C1298 C1299 1.369 . S
C1298 C1302 1.531 . S
C1299 C1298 1.369 . S
C1299 C1300 1.410 . S
C1299 C1307 1.503 . S
C1300 C1299 1.410 . S
C1300 C1301 1.392 . S
C1300 C1303 1.511 . S
C1301 C1297 1.376 1_554 S
C1301 C1300 1.392 . S
C1301 H1313 0.929 . S
C1302 C1298 1.531 . S
C1302 H1314 0.960 . S
C1302 H1315 0.962 1_554 S
C1302 H1316 0.960 . S
C1303 C1300 1.511 . S
C1303 H1317 0.961 . S
C1303 H1318 0.961 . S
C1303 H1319 0.961 . S
C1304 C1305 1.370 1_556 S
C1304 C1306 1.363 . S
C1304 H1320 0.931 . S
C1305 C1304 1.370 1_554 S
C1305 C1309 1.408 . S
C1306 C1304 1.363 . S
C1306 C1307 1.370 1_556 S
C1306 C1310 1.524 . S
C1307 C1299 1.503 . S
C1307 C1306 1.370 1_554 S
C1307 C1308 1.403 . S
C1308 C1307 1.403 . S
C1308 C1309 1.404 . S
C1308 C1311 1.539 . S
C1309 C1305 1.408 . S
C1309 C1308 1.404 . S
C1309 H1321 0.930 . S
C1310 C1306 1.524 . S
C1310 H1322 0.956 . S
C1310 H1323 0.961 . S
C1310 H1324 0.961 . S
C1311 C1308 1.539 . S
C1311 H1325 0.958 . S
C1311 H1326 0.961 . S
C1311 H1327 0.960 . S
H1312 C1296 0.931 . S
H1313 C1301 0.929 . S
H1314 C1302 0.960 . S
H1315 C1302 0.962 1_556 S
H1316 C1302 0.960 . S
H1317 C1303 0.961 . S
H1318 C1303 0.961 . S
H1319 C1303 0.961 . S
H1320 C1304 0.931 . S
H1321 C1309 0.930 . S
H1322 C1310 0.956 . S
H1323 C1310 0.961 . S
H1324 C1310 0.961 . S
H1325 C1311 0.958 . S
H1326 C1311 0.961 . S
H1327 C1311 0.960 . S
C1328 C1329 1.391 . S
C1328 C1330 1.394 . S
C1328 H1344 0.931 . S
C1329 C1328 1.391 . S
C1329 C1333 1.376 . S
C1330 C1328 1.394 . S
C1330 C1331 1.369 . S
C1330 C1334 1.531 . S
C1331 C1330 1.369 . S
C1331 C1332 1.410 . S
C1331 C1339 1.503 . S
C1332 C1331 1.410 . S
C1332 C1333 1.392 . S
C1332 C1335 1.511 . S
C1333 C1329 1.376 . S
C1333 C1332 1.392 . S
C1333 H1345 0.929 . S
C1334 C1330 1.531 . S
C1334 H1346 0.960 . S
C1334 H1347 0.962 . S
C1334 H1348 0.960 . S
C1335 C1332 1.511 . S
C1335 H1349 0.961 . S
C1335 H1350 0.961 . S
C1335 H1351 0.961 . S
C1336 C1337 1.370 . S
C1336 C1338 1.363 . S
C1336 H1352 0.931 . S
C1337 C1336 1.370 . S
C1337 C1341 1.408 . S
C1338 C1336 1.363 . S
C1338 C1339 1.370 . S
C1338 C1342 1.524 . S
C1339 C1331 1.503 . S
C1339 C1338 1.370 . S
C1339 C1340 1.403 . S
C1340 C1339 1.403 . S
C1340 C1341 1.404 . S
C1340 C1343 1.539 . S
C1341 C1337 1.408 . S
C1341 C1340 1.404 . S
C1341 H1353 0.930 . S
C1342 C1338 1.524 . S
C1342 H1354 0.956 . S
C1342 H1355 0.961 . S
C1342 H1356 0.961 . S
C1343 C1340 1.539 . S
C1343 H1357 0.958 . S
C1343 H1358 0.961 . S
C1343 H1359 0.960 . S
H1344 C1328 0.931 . S
H1345 C1333 0.929 . S
H1346 C1334 0.960 . S
H1347 C1334 0.962 . S
H1348 C1334 0.960 . S
H1349 C1335 0.961 . S
H1350 C1335 0.961 . S
H1351 C1335 0.961 . S
H1352 C1336 0.931 . S
H1353 C1341 0.930 . S
H1354 C1342 0.956 . S
H1355 C1342 0.961 . S
H1356 C1342 0.961 . S
H1357 C1343 0.958 . S
H1358 C1343 0.961 . S
H1359 C1343 0.960 . S
C1360 C1361 1.391 . S
C1360 C1362 1.394 . S
C1360 H1376 0.931 . S
C1361 C1360 1.391 . S
C1361 C1365 1.376 . S
C1362 C1360 1.394 . S
C1362 C1363 1.369 . S
C1362 C1366 1.531 . S
C1363 C1362 1.369 . S
C1363 C1364 1.410 . S
C1363 C1371 1.503 . S
C1364 C1363 1.410 . S
C1364 C1365 1.392 . S
C1364 C1367 1.511 . S
C1365 C1361 1.376 . S
C1365 C1364 1.392 . S
C1365 H1377 0.929 . S
C1366 C1362 1.531 . S
C1366 H1378 0.960 . S
C1366 H1379 0.962 . S
C1366 H1380 0.960 . S
C1367 C1364 1.511 . S
C1367 H1381 0.961 . S
C1367 H1382 0.961 . S
C1367 H1383 0.961 . S
C1368 C1369 1.370 . S
C1368 C1370 1.363 . S
C1368 H1384 0.931 . S
C1369 C1368 1.370 . S
C1369 C1373 1.408 . S
C1370 C1368 1.363 . S
C1370 C1371 1.370 . S
C1370 C1374 1.524 . S
C1371 C1363 1.503 . S
C1371 C1370 1.370 . S
C1371 C1372 1.403 . S
C1372 C1371 1.403 . S
C1372 C1373 1.404 . S
C1372 C1375 1.539 . S
C1373 C1369 1.408 . S
C1373 C1372 1.404 . S
C1373 H1385 0.930 . S
C1374 C1370 1.524 . S
C1374 H1386 0.956 . S
C1374 H1387 0.961 . S
C1374 H1388 0.961 . S
C1375 C1372 1.539 . S
C1375 H1389 0.958 . S
C1375 H1390 0.961 . S
C1375 H1391 0.960 . S
H1376 C1360 0.931 . S
H1377 C1365 0.929 . S
H1378 C1366 0.960 . S
H1379 C1366 0.962 . S
H1380 C1366 0.960 . S
H1381 C1367 0.961 . S
H1382 C1367 0.961 . S
H1383 C1367 0.961 . S
H1384 C1368 0.931 . S
H1385 C1373 0.930 . S
H1386 C1374 0.956 . S
H1387 C1374 0.961 . S
H1388 C1374 0.961 . S
H1389 C1375 0.958 . S
H1390 C1375 0.961 . S
H1391 C1375 0.960 . S
C1392 C1393 1.391 . S
C1392 C1394 1.394 . S
C1392 H1408 0.931 . S
C1393 C1392 1.391 . S
C1393 C1397 1.376 . S
C1394 C1392 1.394 . S
C1394 C1395 1.369 . S
C1394 C1398 1.531 . S
C1395 C1394 1.369 . S
C1395 C1396 1.410 . S
C1395 C1403 1.503 . S
C1396 C1395 1.410 . S
C1396 C1397 1.392 . S
C1396 C1399 1.511 . S
C1397 C1393 1.376 . S
C1397 C1396 1.392 . S
C1397 H1409 0.929 . S
C1398 C1394 1.531 . S
C1398 H1410 0.960 . S
C1398 H1411 0.962 . S
C1398 H1412 0.960 . S
C1399 C1396 1.511 . S
C1399 H1413 0.961 . S
C1399 H1414 0.961 . S
C1399 H1415 0.961 . S
C1400 C1401 1.370 . S
C1400 C1402 1.363 . S
C1400 H1416 0.931 . S
C1401 C1400 1.370 . S
C1401 C1405 1.408 . S
C1402 C1400 1.363 . S
C1402 C1403 1.370 . S
C1402 C1406 1.524 . S
C1403 C1395 1.503 . S
C1403 C1402 1.370 . S
C1403 C1404 1.403 . S
C1404 C1403 1.403 . S
C1404 C1405 1.404 . S
C1404 C1407 1.539 . S
C1405 C1401 1.408 . S
C1405 C1404 1.404 . S
C1405 H1417 0.930 . S
C1406 C1402 1.524 . S
C1406 H1418 0.956 . S
C1406 H1419 0.961 . S
C1406 H1420 0.961 . S
C1407 C1404 1.539 . S
C1407 H1421 0.958 . S
C1407 H1422 0.961 . S
C1407 H1423 0.960 . S
H1408 C1392 0.931 . S
H1409 C1397 0.929 . S
H1410 C1398 0.960 . S
H1411 C1398 0.962 . S
H1412 C1398 0.960 . S
H1413 C1399 0.961 . S
H1414 C1399 0.961 . S
H1415 C1399 0.961 . S
H1416 C1400 0.931 . S
H1417 C1405 0.930 . S
H1418 C1406 0.956 . S
H1419 C1406 0.961 . S
H1420 C1406 0.961 . S
H1421 C1407 0.958 . S
H1422 C1407 0.961 . S
H1423 C1407 0.960 . S
C1424 C1425 1.391 . S
C1424 C1426 1.394 . S
C1424 H1440 0.931 . S
C1425 C1424 1.391 . S
C1425 C1429 1.376 . S
C1426 C1424 1.394 . S
C1426 C1427 1.369 . S
C1426 C1430 1.531 . S
C1427 C1426 1.369 . S
C1427 C1428 1.410 . S
C1427 C1435 1.503 . S
C1428 C1427 1.410 . S
C1428 C1429 1.392 . S
C1428 C1431 1.511 . S
C1429 C1425 1.376 . S
C1429 C1428 1.392 . S
C1429 H1441 0.929 . S
C1430 C1426 1.531 . S
C1430 H1442 0.960 . S
C1430 H1443 0.962 . S
C1430 H1444 0.960 . S
C1431 C1428 1.511 . S
C1431 H1445 0.961 . S
C1431 H1446 0.961 . S
C1431 H1447 0.961 . S
C1432 C1433 1.370 . S
C1432 C1434 1.363 . S
C1432 H1448 0.931 . S
C1433 C1432 1.370 . S
C1433 C1437 1.408 . S
C1434 C1432 1.363 . S
C1434 C1435 1.370 . S
C1434 C1438 1.524 . S
C1435 C1427 1.503 . S
C1435 C1434 1.370 . S
C1435 C1436 1.403 . S
C1436 C1435 1.403 . S
C1436 C1437 1.404 . S
C1436 C1439 1.539 . S
C1437 C1433 1.408 . S
C1437 C1436 1.404 . S
C1437 H1449 0.930 . S
C1438 C1434 1.524 . S
C1438 H1450 0.956 . S
C1438 H1451 0.961 . S
C1438 H1452 0.961 . S
C1439 C1436 1.539 . S
C1439 H1453 0.958 . S
C1439 H1454 0.961 . S
C1439 H1455 0.960 . S
H1440 C1424 0.931 . S
H1441 C1429 0.929 . S
H1442 C1430 0.960 . S
H1443 C1430 0.962 . S
H1444 C1430 0.960 . S
H1445 C1431 0.961 . S
H1446 C1431 0.961 . S
H1447 C1431 0.961 . S
H1448 C1432 0.931 . S
H1449 C1437 0.930 . S
H1450 C1438 0.956 . S
H1451 C1438 0.961 . S
H1452 C1438 0.961 . S
H1453 C1439 0.958 . S
H1454 C1439 0.961 . S
H1455 C1439 0.960 . S
C1456 C1457 1.391 . S
C1456 C1458 1.394 . S
C1456 H1472 0.931 . S
C1457 C1456 1.391 . S
C1457 C1461 1.376 . S
C1458 C1456 1.394 . S
C1458 C1459 1.369 . S
C1458 C1462 1.531 . S
C1459 C1458 1.369 . S
C1459 C1460 1.410 . S
C1459 C1467 1.503 . S
C1460 C1459 1.410 . S
C1460 C1461 1.392 . S
C1460 C1463 1.511 . S
C1461 C1457 1.376 . S
C1461 C1460 1.392 . S
C1461 H1473 0.929 . S
C1462 C1458 1.531 . S
C1462 H1474 0.960 . S
C1462 H1475 0.962 . S
C1462 H1476 0.960 . S
C1463 C1460 1.511 . S
C1463 H1477 0.961 . S
C1463 H1478 0.961 . S
C1463 H1479 0.961 . S
C1464 C1465 1.370 . S
C1464 C1466 1.363 . S
C1464 H1480 0.931 . S
C1465 C1464 1.370 . S
C1465 C1469 1.408 . S
C1466 C1464 1.363 . S
C1466 C1467 1.370 . S
C1466 C1470 1.524 . S
C1467 C1459 1.503 . S
C1467 C1466 1.370 . S
C1467 C1468 1.403 . S
C1468 C1467 1.403 . S
C1468 C1469 1.404 . S
C1468 C1471 1.539 . S
C1469 C1465 1.408 . S
C1469 C1468 1.404 . S
C1469 H1481 0.930 . S
C1470 C1466 1.524 . S
C1470 H1482 0.956 . S
C1470 H1483 0.961 . S
C1470 H1484 0.961 . S
C1471 C1468 1.539 . S
C1471 H1485 0.958 . S
C1471 H1486 0.961 . S
C1471 H1487 0.960 . S
H1472 C1456 0.931 . S
H1473 C1461 0.929 . S
H1474 C1462 0.960 . S
H1475 C1462 0.962 . S
H1476 C1462 0.960 . S
H1477 C1463 0.961 . S
H1478 C1463 0.961 . S
H1479 C1463 0.961 . S
H1480 C1464 0.931 . S
H1481 C1469 0.930 . S
H1482 C1470 0.956 . S
H1483 C1470 0.961 . S
H1484 C1470 0.961 . S
H1485 C1471 0.958 . S
H1486 C1471 0.961 . S
H1487 C1471 0.960 . S
C1488 C1489 1.391 . S
C1488 C1490 1.394 . S
C1488 H1504 0.931 . S
C1489 C1488 1.391 . S
C1489 C1493 1.376 . S
C1490 C1488 1.394 . S
C1490 C1491 1.369 . S
C1490 C1494 1.531 . S
C1491 C1490 1.369 . S
C1491 C1492 1.410 . S
C1491 C1499 1.503 . S
C1492 C1491 1.410 . S
C1492 C1493 1.392 . S
C1492 C1495 1.511 . S
C1493 C1489 1.376 . S
C1493 C1492 1.392 . S
C1493 H1505 0.929 . S
C1494 C1490 1.531 . S
C1494 H1506 0.960 . S
C1494 H1507 0.962 . S
C1494 H1508 0.960 . S
C1495 C1492 1.511 . S
C1495 H1509 0.961 . S
C1495 H1510 0.961 . S
C1495 H1511 0.961 . S
C1496 C1497 1.370 . S
C1496 C1498 1.363 . S
C1496 H1512 0.931 . S
C1497 C1496 1.370 . S
C1497 C1501 1.408 . S
C1498 C1496 1.363 . S
C1498 C1499 1.370 . S
C1498 C1502 1.524 . S
C1499 C1491 1.503 . S
C1499 C1498 1.370 . S
C1499 C1500 1.403 . S
C1500 C1499 1.403 . S
C1500 C1501 1.404 . S
C1500 C1503 1.539 . S
C1501 C1497 1.408 . S
C1501 C1500 1.404 . S
C1501 H1513 0.930 . S
C1502 C1498 1.524 . S
C1502 H1514 0.956 . S
C1502 H1515 0.961 . S
C1502 H1516 0.961 . S
C1503 C1500 1.539 . S
C1503 H1517 0.958 . S
C1503 H1518 0.961 . S
C1503 H1519 0.960 . S
H1504 C1488 0.931 . S
H1505 C1493 0.929 . S
H1506 C1494 0.960 . S
H1507 C1494 0.962 . S
H1508 C1494 0.960 . S
H1509 C1495 0.961 . S
H1510 C1495 0.961 . S
H1511 C1495 0.961 . S
H1512 C1496 0.931 . S
H1513 C1501 0.930 . S
H1514 C1502 0.956 . S
H1515 C1502 0.961 . S
H1516 C1502 0.961 . S
H1517 C1503 0.958 . S
H1518 C1503 0.961 . S
H1519 C1503 0.960 . S
C1520 C1521 1.391 . S
C1520 C1522 1.394 . S
C1520 H1536 0.931 . S
C1521 C1520 1.391 . S
C1521 C1525 1.376 . S
C1522 C1520 1.394 . S
C1522 C1523 1.369 . S
C1522 C1526 1.531 . S
C1523 C1522 1.369 . S
C1523 C1524 1.410 . S
C1523 C1531 1.503 . S
C1524 C1523 1.410 . S
C1524 C1525 1.392 . S
C1524 C1527 1.511 . S
C1525 C1521 1.376 . S
C1525 C1524 1.392 . S
C1525 H1537 0.929 . S
C1526 C1522 1.531 . S
C1526 H1538 0.960 . S
C1526 H1539 0.962 . S
C1526 H1540 0.960 . S
C1527 C1524 1.511 . S
C1527 H1541 0.961 . S
C1527 H1542 0.961 . S
C1527 H1543 0.961 . S
C1528 C1529 1.370 . S
C1528 C1530 1.363 . S
C1528 H1544 0.931 . S
C1529 C1528 1.370 . S
C1529 C1533 1.408 . S
C1530 C1528 1.363 . S
C1530 C1531 1.370 . S
C1530 C1534 1.524 . S
C1531 C1523 1.503 . S
C1531 C1530 1.370 . S
C1531 C1532 1.403 . S
C1532 C1531 1.403 . S
C1532 C1533 1.404 . S
C1532 C1535 1.539 . S
C1533 C1529 1.408 . S
C1533 C1532 1.404 . S
C1533 H1545 0.930 . S
C1534 C1530 1.524 . S
C1534 H1546 0.956 . S
C1534 H1547 0.961 . S
C1534 H1548 0.961 . S
C1535 C1532 1.539 . S
C1535 H1549 0.958 . S
C1535 H1550 0.961 . S
C1535 H1551 0.960 . S
H1536 C1520 0.931 . S
H1537 C1525 0.929 . S
H1538 C1526 0.960 . S
H1539 C1526 0.962 . S
H1540 C1526 0.960 . S
H1541 C1527 0.961 . S
H1542 C1527 0.961 . S
H1543 C1527 0.961 . S
H1544 C1528 0.931 . S
H1545 C1533 0.930 . S
H1546 C1534 0.956 . S
H1547 C1534 0.961 . S
H1548 C1534 0.961 . S
H1549 C1535 0.958 . S
H1550 C1535 0.961 . S
H1551 C1535 0.960 . S
C1552 C1553 1.391 . S
C1552 C1554 1.394 . S
C1552 H1568 0.931 . S
C1553 C1552 1.391 . S
C1553 C1557 1.376 . S
C1554 C1552 1.394 . S
C1554 C1555 1.369 . S
C1554 C1558 1.531 . S
C1555 C1554 1.369 . S
C1555 C1556 1.410 . S
C1555 C1563 1.503 . S
C1556 C1555 1.410 . S
C1556 C1557 1.392 . S
C1556 C1559 1.511 . S
C1557 C1553 1.376 . S
C1557 C1556 1.392 . S
C1557 H1569 0.929 . S
C1558 C1554 1.531 . S
C1558 H1570 0.960 . S
C1558 H1571 0.962 . S
C1558 H1572 0.960 . S
C1559 C1556 1.511 . S
C1559 H1573 0.961 . S
C1559 H1574 0.961 . S
C1559 H1575 0.961 . S
C1560 C1561 1.370 . S
C1560 C1562 1.363 . S
C1560 H1576 0.931 . S
C1561 C1560 1.370 . S
C1561 C1565 1.408 . S
C1562 C1560 1.363 . S
C1562 C1563 1.370 . S
C1562 C1566 1.524 . S
C1563 C1555 1.503 . S
C1563 C1562 1.370 . S
C1563 C1564 1.403 . S
C1564 C1563 1.403 . S
C1564 C1565 1.404 . S
C1564 C1567 1.539 . S
C1565 C1561 1.408 . S
C1565 C1564 1.404 . S
C1565 H1577 0.930 . S
C1566 C1562 1.524 . S
C1566 H1578 0.956 . S
C1566 H1579 0.961 . S
C1566 H1580 0.961 . S
C1567 C1564 1.539 . S
C1567 H1581 0.958 . S
C1567 H1582 0.961 . S
C1567 H1583 0.960 . S
H1568 C1552 0.931 . S
H1569 C1557 0.929 . S
H1570 C1558 0.960 . S
H1571 C1558 0.962 . S
H1572 C1558 0.960 . S
H1573 C1559 0.961 . S
H1574 C1559 0.961 . S
H1575 C1559 0.961 . S
H1576 C1560 0.931 . S
H1577 C1565 0.930 . S
H1578 C1566 0.956 . S
H1579 C1566 0.961 . S
H1580 C1566 0.961 . S
H1581 C1567 0.958 . S
H1582 C1567 0.961 . S
H1583 C1567 0.960 . S
C1584 C1585 1.391 . S
C1584 C1586 1.394 . S
C1584 H1600 0.931 . S
C1585 C1584 1.391 . S
C1585 C1589 1.376 . S
C1586 C1584 1.394 . S
C1586 C1587 1.369 . S
C1586 C1590 1.531 . S
C1587 C1586 1.369 . S
C1587 C1588 1.410 . S
C1587 C1595 1.503 . S
C1588 C1587 1.410 . S
C1588 C1589 1.392 . S
C1588 C1591 1.511 . S
C1589 C1585 1.376 . S
C1589 C1588 1.392 . S
C1589 H1601 0.929 . S
C1590 C1586 1.531 . S
C1590 H1602 0.960 . S
C1590 H1603 0.962 . S
C1590 H1604 0.960 . S
C1591 C1588 1.511 . S
C1591 H1605 0.961 . S
C1591 H1606 0.961 . S
C1591 H1607 0.961 . S
C1592 C1593 1.370 . S
C1592 C1594 1.363 . S
C1592 H1608 0.931 . S
C1593 C1592 1.370 . S
C1593 C1597 1.408 . S
C1594 C1592 1.363 . S
C1594 C1595 1.370 . S
C1594 C1598 1.524 . S
C1595 C1587 1.503 . S
C1595 C1594 1.370 . S
C1595 C1596 1.403 . S
C1596 C1595 1.403 . S
C1596 C1597 1.404 . S
C1596 C1599 1.539 . S
C1597 C1593 1.408 . S
C1597 C1596 1.404 . S
C1597 H1609 0.930 . S
C1598 C1594 1.524 . S
C1598 H1610 0.956 . S
C1598 H1611 0.961 . S
C1598 H1612 0.961 . S
C1599 C1596 1.539 . S
C1599 H1613 0.958 . S
C1599 H1614 0.961 . S
C1599 H1615 0.960 . S
H1600 C1584 0.931 . S
H1601 C1589 0.929 . S
H1602 C1590 0.960 . S
H1603 C1590 0.962 . S
H1604 C1590 0.960 . S
H1605 C1591 0.961 . S
H1606 C1591 0.961 . S
H1607 C1591 0.961 . S
H1608 C1592 0.931 . S
H1609 C1597 0.930 . S
H1610 C1598 0.956 . S
H1611 C1598 0.961 . S
H1612 C1598 0.961 . S
H1613 C1599 0.958 . S
H1614 C1599 0.961 . S
H1615 C1599 0.960 . S
C1616 C1617 1.391 . S
C1616 C1618 1.394 . S
C1616 H1632 0.931 . S
C1617 C1616 1.391 . S
C1617 C1621 1.376 . S
C1618 C1616 1.394 . S
C1618 C1619 1.369 . S
C1618 C1622 1.531 . S
C1619 C1618 1.369 . S
C1619 C1620 1.410 . S
C1619 C1627 1.503 . S
C1620 C1619 1.410 . S
C1620 C1621 1.392 . S
C1620 C1623 1.511 . S
C1621 C1617 1.376 . S
C1621 C1620 1.392 . S
C1621 H1633 0.929 . S
C1622 C1618 1.531 . S
C1622 H1634 0.960 . S
C1622 H1635 0.962 . S
C1622 H1636 0.960 . S
C1623 C1620 1.511 . S
C1623 H1637 0.961 . S
C1623 H1638 0.961 . S
C1623 H1639 0.961 . S
C1624 C1625 1.370 . S
C1624 C1626 1.363 . S
C1624 H1640 0.931 . S
C1625 C1624 1.370 . S
C1625 C1629 1.408 . S
C1626 C1624 1.363 . S
C1626 C1627 1.370 . S
C1626 C1630 1.524 . S
C1627 C1619 1.503 . S
C1627 C1626 1.370 . S
C1627 C1628 1.403 . S
C1628 C1627 1.403 . S
C1628 C1629 1.404 . S
C1628 C1631 1.539 . S
C1629 C1625 1.408 . S
C1629 C1628 1.404 . S
C1629 H1641 0.930 . S
C1630 C1626 1.524 . S
C1630 H1642 0.956 . S
C1630 H1643 0.961 . S
C1630 H1644 0.961 . S
C1631 C1628 1.539 . S
C1631 H1645 0.958 . S
C1631 H1646 0.961 . S
C1631 H1647 0.960 . S
H1632 C1616 0.931 . S
H1633 C1621 0.929 . S
H1634 C1622 0.960 . S
H1635 C1622 0.962 . S
H1636 C1622 0.960 . S
H1637 C1623 0.961 . S
H1638 C1623 0.961 . S
H1639 C1623 0.961 . S
H1640 C1624 0.931 . S
H1641 C1629 0.930 . S
H1642 C1630 0.956 . S
H1643 C1630 0.961 . S
H1644 C1630 0.961 . S
H1645 C1631 0.958 . S
H1646 C1631 0.961 . S
H1647 C1631 0.960 . S
C1648 C1649 1.391 . S
C1648 C1650 1.394 . S
C1648 H1664 0.931 . S
C1649 C1648 1.391 . S
C1649 C1653 1.376 . S
C1650 C1648 1.394 . S
C1650 C1651 1.369 . S
C1650 C1654 1.531 . S
C1651 C1650 1.369 . S
C1651 C1652 1.410 . S
C1651 C1659 1.503 . S
C1652 C1651 1.410 . S
C1652 C1653 1.392 . S
C1652 C1655 1.511 . S
C1653 C1649 1.376 . S
C1653 C1652 1.392 . S
C1653 H1665 0.929 . S
C1654 C1650 1.531 . S
C1654 H1666 0.960 . S
C1654 H1667 0.962 . S
C1654 H1668 0.960 . S
C1655 C1652 1.511 . S
C1655 H1669 0.961 . S
C1655 H1670 0.961 . S
C1655 H1671 0.961 . S
C1656 C1657 1.370 . S
C1656 C1658 1.363 . S
C1656 H1672 0.931 . S
C1657 C1656 1.370 . S
C1657 C1661 1.408 . S
C1658 C1656 1.363 . S
C1658 C1659 1.370 . S
C1658 C1662 1.524 . S
C1659 C1651 1.503 . S
C1659 C1658 1.370 . S
C1659 C1660 1.403 . S
C1660 C1659 1.403 . S
C1660 C1661 1.404 . S
C1660 C1663 1.539 . S
C1661 C1657 1.408 . S
C1661 C1660 1.404 . S
C1661 H1673 0.930 . S
C1662 C1658 1.524 . S
C1662 H1674 0.956 . S
C1662 H1675 0.961 . S
C1662 H1676 0.961 . S
C1663 C1660 1.539 . S
C1663 H1677 0.958 . S
C1663 H1678 0.961 . S
C1663 H1679 0.960 . S
H1664 C1648 0.931 . S
H1665 C1653 0.929 . S
H1666 C1654 0.960 . S
H1667 C1654 0.962 . S
H1668 C1654 0.960 . S
H1669 C1655 0.961 . S
H1670 C1655 0.961 . S
H1671 C1655 0.961 . S
H1672 C1656 0.931 . S
H1673 C1661 0.930 . S
H1674 C1662 0.956 . S
H1675 C1662 0.961 . S
H1676 C1662 0.961 . S
H1677 C1663 0.958 . S
H1678 C1663 0.961 . S
H1679 C1663 0.960 . S
C1680 C1681 1.391 . S
C1680 C1682 1.394 . S
C1680 H1696 0.931 . S
C1681 C1680 1.391 . S
C1681 C1685 1.376 . S
C1682 C1680 1.394 . S
C1682 C1683 1.369 . S
C1682 C1686 1.531 . S
C1683 C1682 1.369 . S
C1683 C1684 1.410 . S
C1683 C1691 1.503 . S
C1684 C1683 1.410 . S
C1684 C1685 1.392 . S
C1684 C1687 1.511 . S
C1685 C1681 1.376 . S
C1685 C1684 1.392 . S
C1685 H1697 0.929 . S
C1686 C1682 1.531 . S
C1686 H1698 0.960 . S
C1686 H1699 0.962 . S
C1686 H1700 0.960 . S
C1687 C1684 1.511 . S
C1687 H1701 0.961 . S
C1687 H1702 0.961 . S
C1687 H1703 0.961 . S
C1688 C1689 1.370 . S
C1688 C1690 1.363 . S
C1688 H1704 0.931 . S
C1689 C1688 1.370 . S
C1689 C1693 1.408 . S
C1690 C1688 1.363 . S
C1690 C1691 1.370 . S
C1690 C1694 1.524 . S
C1691 C1683 1.503 . S
C1691 C1690 1.370 . S
C1691 C1692 1.403 . S
C1692 C1691 1.403 . S
C1692 C1693 1.404 . S
C1692 C1695 1.539 . S
C1693 C1689 1.408 . S
C1693 C1692 1.404 . S
C1693 H1705 0.930 . S
C1694 C1690 1.524 . S
C1694 H1706 0.956 . S
C1694 H1707 0.961 . S
C1694 H1708 0.961 . S
C1695 C1692 1.539 . S
C1695 H1709 0.958 . S
C1695 H1710 0.961 . S
C1695 H1711 0.960 . S
H1696 C1680 0.931 . S
H1697 C1685 0.929 . S
H1698 C1686 0.960 . S
H1699 C1686 0.962 . S
H1700 C1686 0.960 . S
H1701 C1687 0.961 . S
H1702 C1687 0.961 . S
H1703 C1687 0.961 . S
H1704 C1688 0.931 . S
H1705 C1693 0.930 . S
H1706 C1694 0.956 . S
H1707 C1694 0.961 . S
H1708 C1694 0.961 . S
H1709 C1695 0.958 . S
H1710 C1695 0.961 . S
H1711 C1695 0.960 . S
C1712 C1713 1.391 . S
C1712 C1714 1.394 . S
C1712 H1728 0.931 . S
C1713 C1712 1.391 . S
C1713 C1717 1.376 . S
C1714 C1712 1.394 . S
C1714 C1715 1.369 . S
C1714 C1718 1.531 . S
C1715 C1714 1.369 . S
C1715 C1716 1.410 . S
C1715 C1723 1.503 . S
C1716 C1715 1.410 . S
C1716 C1717 1.392 . S
C1716 C1719 1.511 . S
C1717 C1713 1.376 . S
C1717 C1716 1.392 . S
C1717 H1729 0.929 . S
C1718 C1714 1.531 . S
C1718 H1730 0.960 . S
C1718 H1731 0.962 . S
C1718 H1732 0.960 . S
C1719 C1716 1.511 . S
C1719 H1733 0.961 . S
C1719 H1734 0.961 . S
C1719 H1735 0.961 . S
C1720 C1721 1.370 . S
C1720 C1722 1.363 . S
C1720 H1736 0.931 . S
C1721 C1720 1.370 . S
C1721 C1725 1.408 . S
C1722 C1720 1.363 . S
C1722 C1723 1.370 . S
C1722 C1726 1.524 . S
C1723 C1715 1.503 . S
C1723 C1722 1.370 . S
C1723 C1724 1.403 . S
C1724 C1723 1.403 . S
C1724 C1725 1.404 . S
C1724 C1727 1.539 . S
C1725 C1721 1.408 . S
C1725 C1724 1.404 . S
C1725 H1737 0.930 . S
C1726 C1722 1.524 . S
C1726 H1738 0.956 . S
C1726 H1739 0.961 . S
C1726 H1740 0.961 . S
C1727 C1724 1.539 . S
C1727 H1741 0.958 . S
C1727 H1742 0.961 . S
C1727 H1743 0.960 . S
H1728 C1712 0.931 . S
H1729 C1717 0.929 . S
H1730 C1718 0.960 . S
H1731 C1718 0.962 . S
H1732 C1718 0.960 . S
H1733 C1719 0.961 . S
H1734 C1719 0.961 . S
H1735 C1719 0.961 . S
H1736 C1720 0.931 . S
H1737 C1725 0.930 . S
H1738 C1726 0.956 . S
H1739 C1726 0.961 . S
H1740 C1726 0.961 . S
H1741 C1727 0.958 . S
H1742 C1727 0.961 . S
H1743 C1727 0.960 . S
C1744 C1745 1.391 . S
C1744 C1746 1.394 . S
C1744 H1760 0.931 . S
C1745 C1744 1.391 . S
C1745 C1749 1.376 . S
C1746 C1744 1.394 . S
C1746 C1747 1.369 . S
C1746 C1750 1.531 . S
C1747 C1746 1.369 . S
C1747 C1748 1.410 . S
C1747 C1755 1.503 . S
C1748 C1747 1.410 . S
C1748 C1749 1.392 . S
C1748 C1751 1.511 . S
C1749 C1745 1.376 . S
C1749 C1748 1.392 . S
C1749 H1761 0.929 . S
C1750 C1746 1.531 . S
C1750 H1762 0.960 . S
C1750 H1763 0.962 . S
C1750 H1764 0.960 . S
C1751 C1748 1.511 . S
C1751 H1765 0.961 . S
C1751 H1766 0.961 . S
C1751 H1767 0.961 . S
C1752 C1753 1.370 . S
C1752 C1754 1.363 . S
C1752 H1768 0.931 . S
C1753 C1752 1.370 . S
C1753 C1757 1.408 . S
C1754 C1752 1.363 . S
C1754 C1755 1.370 . S
C1754 C1758 1.524 . S
C1755 C1747 1.503 . S
C1755 C1754 1.370 . S
C1755 C1756 1.403 . S
C1756 C1755 1.403 . S
C1756 C1757 1.404 . S
C1756 C1759 1.539 . S
C1757 C1753 1.408 . S
C1757 C1756 1.404 . S
C1757 H1769 0.930 . S
C1758 C1754 1.524 . S
C1758 H1770 0.956 . S
C1758 H1771 0.961 . S
C1758 H1772 0.961 . S
C1759 C1756 1.539 . S
C1759 H1773 0.958 . S
C1759 H1774 0.961 . S
C1759 H1775 0.960 . S
H1760 C1744 0.931 . S
H1761 C1749 0.929 . S
H1762 C1750 0.960 . S
H1763 C1750 0.962 . S
H1764 C1750 0.960 . S
H1765 C1751 0.961 . S
H1766 C1751 0.961 . S
H1767 C1751 0.961 . S
H1768 C1752 0.931 . S
H1769 C1757 0.930 . S
H1770 C1758 0.956 . S
H1771 C1758 0.961 . S
H1772 C1758 0.961 . S
H1773 C1759 0.958 . S
H1774 C1759 0.961 . S
H1775 C1759 0.960 . S
C1776 C1777 1.391 . S
C1776 C1778 1.394 . S
C1776 H1792 0.931 . S
C1777 C1776 1.391 . S
C1777 C1781 1.376 . S
C1778 C1776 1.394 . S
C1778 C1779 1.369 . S
C1778 C1782 1.531 . S
C1779 C1778 1.369 . S
C1779 C1780 1.410 . S
C1779 C1787 1.503 . S
C1780 C1779 1.410 . S
C1780 C1781 1.392 . S
C1780 C1783 1.511 . S
C1781 C1777 1.376 . S
C1781 C1780 1.392 . S
C1781 H1793 0.929 . S
C1782 C1778 1.531 . S
C1782 H1794 0.960 . S
C1782 H1795 0.962 . S
C1782 H1796 0.960 . S
C1783 C1780 1.511 . S
C1783 H1797 0.961 . S
C1783 H1798 0.961 . S
C1783 H1799 0.961 . S
C1784 C1785 1.370 . S
C1784 C1786 1.363 . S
C1784 H1800 0.931 . S
C1785 C1784 1.370 . S
C1785 C1789 1.408 . S
C1786 C1784 1.363 . S
C1786 C1787 1.370 . S
C1786 C1790 1.524 . S
C1787 C1779 1.503 . S
C1787 C1786 1.370 . S
C1787 C1788 1.403 . S
C1788 C1787 1.403 . S
C1788 C1789 1.404 . S
C1788 C1791 1.539 . S
C1789 C1785 1.408 . S
C1789 C1788 1.404 . S
C1789 H1801 0.930 . S
C1790 C1786 1.524 . S
C1790 H1802 0.956 . S
C1790 H1803 0.961 . S
C1790 H1804 0.961 . S
C1791 C1788 1.539 . S
C1791 H1805 0.958 . S
C1791 H1806 0.961 . S
C1791 H1807 0.960 . S
H1792 C1776 0.931 . S
H1793 C1781 0.929 . S
H1794 C1782 0.960 . S
H1795 C1782 0.962 . S
H1796 C1782 0.960 . S
H1797 C1783 0.961 . S
H1798 C1783 0.961 . S
H1799 C1783 0.961 . S
H1800 C1784 0.931 . S
H1801 C1789 0.930 . S
H1802 C1790 0.956 . S
H1803 C1790 0.961 . S
H1804 C1790 0.961 . S
H1805 C1791 0.958 . S
H1806 C1791 0.961 . S
H1807 C1791 0.960 . S
C1808 C1809 1.391 . S
C1808 C1810 1.394 . S
C1808 H1824 0.931 . S
C1809 C1808 1.391 . S
C1809 C1813 1.376 . S
C1810 C1808 1.394 . S
C1810 C1811 1.369 . S
C1810 C1814 1.531 . S
C1811 C1810 1.369 . S
C1811 C1812 1.410 . S
C1811 C1819 1.503 . S
C1812 C1811 1.410 . S
C1812 C1813 1.392 . S
C1812 C1815 1.511 . S
C1813 C1809 1.376 . S
C1813 C1812 1.392 . S
C1813 H1825 0.929 . S
C1814 C1810 1.531 . S
C1814 H1826 0.960 . S
C1814 H1827 0.962 . S
C1814 H1828 0.960 . S
C1815 C1812 1.511 . S
C1815 H1829 0.961 . S
C1815 H1830 0.961 . S
C1815 H1831 0.961 . S
C1816 C1817 1.370 . S
C1816 C1818 1.363 . S
C1816 H1832 0.931 . S
C1817 C1816 1.370 . S
C1817 C1821 1.408 . S
C1818 C1816 1.363 . S
C1818 C1819 1.370 . S
C1818 C1822 1.524 . S
C1819 C1811 1.503 . S
C1819 C1818 1.370 . S
C1819 C1820 1.403 . S
C1820 C1819 1.403 . S
C1820 C1821 1.404 . S
C1820 C1823 1.539 . S
C1821 C1817 1.408 . S
C1821 C1820 1.404 . S
C1821 H1833 0.930 . S
C1822 C1818 1.524 . S
C1822 H1834 0.956 . S
C1822 H1835 0.961 . S
C1822 H1836 0.961 . S
C1823 C1820 1.539 . S
C1823 H1837 0.958 . S
C1823 H1838 0.961 . S
C1823 H1839 0.960 . S
H1824 C1808 0.931 . S
H1825 C1813 0.929 . S
H1826 C1814 0.960 . S
H1827 C1814 0.962 . S
H1828 C1814 0.960 . S
H1829 C1815 0.961 . S
H1830 C1815 0.961 . S
H1831 C1815 0.961 . S
H1832 C1816 0.931 . S
H1833 C1821 0.930 . S
H1834 C1822 0.956 . S
H1835 C1822 0.961 . S
H1836 C1822 0.961 . S
H1837 C1823 0.958 . S
H1838 C1823 0.961 . S
H1839 C1823 0.960 . S
C1840 C1841 1.391 . S
C1840 C1842 1.394 . S
C1840 H1856 0.931 . S
C1841 C1840 1.391 . S
C1841 C1845 1.376 . S
C1842 C1840 1.394 . S
C1842 C1843 1.369 . S
C1842 C1846 1.531 . S
C1843 C1842 1.369 . S
C1843 C1844 1.410 . S
C1843 C1851 1.503 . S
C1844 C1843 1.410 . S
C1844 C1845 1.392 . S
C1844 C1847 1.511 . S
C1845 C1841 1.376 . S
C1845 C1844 1.392 . S
C1845 H1857 0.929 . S
C1846 C1842 1.531 . S
C1846 H1858 0.960 . S
C1846 H1859 0.962 . S
C1846 H1860 0.960 . S
C1847 C1844 1.511 . S
C1847 H1861 0.961 . S
C1847 H1862 0.961 . S
C1847 H1863 0.961 . S
C1848 C1849 1.370 . S
C1848 C1850 1.363 . S
C1848 H1864 0.931 . S
C1849 C1848 1.370 . S
C1849 C1853 1.408 . S
C1850 C1848 1.363 . S
C1850 C1851 1.370 . S
C1850 C1854 1.524 . S
C1851 C1843 1.503 . S
C1851 C1850 1.370 . S
C1851 C1852 1.403 . S
C1852 C1851 1.403 . S
C1852 C1853 1.404 . S
C1852 C1855 1.539 . S
C1853 C1849 1.408 . S
C1853 C1852 1.404 . S
C1853 H1865 0.930 . S
C1854 C1850 1.524 . S
C1854 H1866 0.956 . S
C1854 H1867 0.961 . S
C1854 H1868 0.961 . S
C1855 C1852 1.539 . S
C1855 H1869 0.958 . S
C1855 H1870 0.961 . S
C1855 H1871 0.960 . S
H1856 C1840 0.931 . S
H1857 C1845 0.929 . S
H1858 C1846 0.960 . S
H1859 C1846 0.962 . S
H1860 C1846 0.960 . S
H1861 C1847 0.961 . S
H1862 C1847 0.961 . S
H1863 C1847 0.961 . S
H1864 C1848 0.931 . S
H1865 C1853 0.930 . S
H1866 C1854 0.956 . S
H1867 C1854 0.961 . S
H1868 C1854 0.961 . S
H1869 C1855 0.958 . S
H1870 C1855 0.961 . S
H1871 C1855 0.960 . S
C1872 C1873 1.391 . S
C1872 C1874 1.394 . S
C1872 H1888 0.931 . S
C1873 C1872 1.391 . S
C1873 C1877 1.376 . S
C1874 C1872 1.394 . S
C1874 C1875 1.369 . S
C1874 C1878 1.531 . S
C1875 C1874 1.369 . S
C1875 C1876 1.410 . S
C1875 C1883 1.503 . S
C1876 C1875 1.410 . S
C1876 C1877 1.392 . S
C1876 C1879 1.511 . S
C1877 C1873 1.376 . S
C1877 C1876 1.392 . S
C1877 H1889 0.929 . S
C1878 C1874 1.531 . S
C1878 H1890 0.960 . S
C1878 H1891 0.962 . S
C1878 H1892 0.960 . S
C1879 C1876 1.511 . S
C1879 H1893 0.961 . S
C1879 H1894 0.961 . S
C1879 H1895 0.961 . S
C1880 C1881 1.370 . S
C1880 C1882 1.363 . S
C1880 H1896 0.931 . S
C1881 C1880 1.370 . S
C1881 C1885 1.408 . S
C1882 C1880 1.363 . S
C1882 C1883 1.370 . S
C1882 C1886 1.524 . S
C1883 C1875 1.503 . S
C1883 C1882 1.370 . S
C1883 C1884 1.403 . S
C1884 C1883 1.403 . S
C1884 C1885 1.404 . S
C1884 C1887 1.539 . S
C1885 C1881 1.408 . S
C1885 C1884 1.404 . S
C1885 H1897 0.930 . S
C1886 C1882 1.524 . S
C1886 H1898 0.956 . S
C1886 H1899 0.961 . S
C1886 H1900 0.961 . S
C1887 C1884 1.539 . S
C1887 H1901 0.958 . S
C1887 H1902 0.961 . S
C1887 H1903 0.960 . S
H1888 C1872 0.931 . S
H1889 C1877 0.929 . S
H1890 C1878 0.960 . S
H1891 C1878 0.962 . S
H1892 C1878 0.960 . S
H1893 C1879 0.961 . S
H1894 C1879 0.961 . S
H1895 C1879 0.961 . S
H1896 C1880 0.931 . S
H1897 C1885 0.930 . S
H1898 C1886 0.956 . S
H1899 C1886 0.961 . S
H1900 C1886 0.961 . S
H1901 C1887 0.958 . S
H1902 C1887 0.961 . S
H1903 C1887 0.960 . S
C1904 C1905 1.391 . S
C1904 C1906 1.394 . S
C1904 H1920 0.931 . S
C1905 C1904 1.391 . S
C1905 C1909 1.376 . S
C1906 C1904 1.394 . S
C1906 C1907 1.369 . S
C1906 C1910 1.531 . S
C1907 C1906 1.369 . S
C1907 C1908 1.410 . S
C1907 C1915 1.503 . S
C1908 C1907 1.410 . S
C1908 C1909 1.392 . S
C1908 C1911 1.511 . S
C1909 C1905 1.376 . S
C1909 C1908 1.392 . S
C1909 H1921 0.929 . S
C1910 C1906 1.531 . S
C1910 H1922 0.960 . S
C1910 H1923 0.962 . S
C1910 H1924 0.960 . S
C1911 C1908 1.511 . S
C1911 H1925 0.961 . S
C1911 H1926 0.961 . S
C1911 H1927 0.961 . S
C1912 C1913 1.370 . S
C1912 C1914 1.363 . S
C1912 H1928 0.931 . S
C1913 C1912 1.370 . S
C1913 C1917 1.408 . S
C1914 C1912 1.363 . S
C1914 C1915 1.370 . S
C1914 C1918 1.524 . S
C1915 C1907 1.503 . S
C1915 C1914 1.370 . S
C1915 C1916 1.403 . S
C1916 C1915 1.403 . S
C1916 C1917 1.404 . S
C1916 C1919 1.539 . S
C1917 C1913 1.408 . S
C1917 C1916 1.404 . S
C1917 H1929 0.930 . S
C1918 C1914 1.524 . S
C1918 H1930 0.956 . S
C1918 H1931 0.961 . S
C1918 H1932 0.961 . S
C1919 C1916 1.539 . S
C1919 H1933 0.958 . S
C1919 H1934 0.961 . S
C1919 H1935 0.960 . S
H1920 C1904 0.931 . S
H1921 C1909 0.929 . S
H1922 C1910 0.960 . S
H1923 C1910 0.962 . S
H1924 C1910 0.960 . S
H1925 C1911 0.961 . S
H1926 C1911 0.961 . S
H1927 C1911 0.961 . S
H1928 C1912 0.931 . S
H1929 C1917 0.930 . S
H1930 C1918 0.956 . S
H1931 C1918 0.961 . S
H1932 C1918 0.961 . S
H1933 C1919 0.958 . S
H1934 C1919 0.961 . S
H1935 C1919 0.960 . S
C1936 C1937 1.391 . S
C1936 C1938 1.394 . S
C1936 H1952 0.931 . S
C1937 C1936 1.391 . S
C1937 C1941 1.376 . S
C1938 C1936 1.394 . S
C1938 C1939 1.369 . S
C1938 C1942 1.531 . S
C1939 C1938 1.369 . S
C1939 C1940 1.410 . S
C1939 C1947 1.503 . S
C1940 C1939 1.410 . S
C1940 C1941 1.392 . S
C1940 C1943 1.511 . S
C1941 C1937 1.376 . S
C1941 C1940 1.392 . S
C1941 H1953 0.929 . S
C1942 C1938 1.531 . S
C1942 H1954 0.960 . S
C1942 H1955 0.962 . S
C1942 H1956 0.960 . S
C1943 C1940 1.511 . S
C1943 H1957 0.961 . S
C1943 H1958 0.961 . S
C1943 H1959 0.961 . S
C1944 C1945 1.370 . S
C1944 C1946 1.363 . S
C1944 H1960 0.931 . S
C1945 C1944 1.370 . S
C1945 C1949 1.408 . S
C1946 C1944 1.363 . S
C1946 C1947 1.370 . S
C1946 C1950 1.524 . S
C1947 C1939 1.503 . S
C1947 C1946 1.370 . S
C1947 C1948 1.403 . S
C1948 C1947 1.403 . S
C1948 C1949 1.404 . S
C1948 C1951 1.539 . S
C1949 C1945 1.408 . S
C1949 C1948 1.404 . S
C1949 H1961 0.930 . S
C1950 C1946 1.524 . S
C1950 H1962 0.956 . S
C1950 H1963 0.961 . S
C1950 H1964 0.961 . S
C1951 C1948 1.539 . S
C1951 H1965 0.958 . S
C1951 H1966 0.961 . S
C1951 H1967 0.960 . S
H1952 C1936 0.931 . S
H1953 C1941 0.929 . S
H1954 C1942 0.960 . S
H1955 C1942 0.962 . S
H1956 C1942 0.960 . S
H1957 C1943 0.961 . S
H1958 C1943 0.961 . S
H1959 C1943 0.961 . S
H1960 C1944 0.931 . S
H1961 C1949 0.930 . S
H1962 C1950 0.956 . S
H1963 C1950 0.961 . S
H1964 C1950 0.961 . S
H1965 C1951 0.958 . S
H1966 C1951 0.961 . S
H1967 C1951 0.960 . S
C945 C241 1.560 . S
C953 C5 1.565 . S
C977 C300 1.562 . S
C985 C64 1.565 . S
C1009 C359 1.559 . S
C1017 C123 1.565 . S
C1041 C418 1.558 . S
C1049 C182 1.565 . S
C1073 C713 1.562 . S
C1081 C477 1.564 . S
C1105 C772 1.558 . S
C1113 C536 1.565 . S
C1137 C595 1.560 . S
C1145 C831 1.565 . S
C1169 C890 1.558 . S
C1177 C654 1.565 . S
C1201 C52 1.612 . S
C1209 C347 1.600 . S
C1233 C406 1.612 . S
C1241 C111 1.599 . S
C1265 C170 1.604 . S
C1273 C465 1.605 . S
C1297 C288 1.588 . S
C1305 C229 1.609 . S
C1329 C819 1.588 . S
C1337 C524 1.609 . S
C1361 C878 1.609 . S
C1369 C583 1.599 . S
C1393 C642 1.588 . S
C1401 C937 1.607 . S
C1425 C701 1.609 . S
C1433 C760 1.599 . S
C1457 C918 1.767 . S
C1465 C33 1.777 . S
C1489 C741 1.768 . S
C1497 C92 1.773 . S
C1521 C800 1.776 . S
C1529 C151 1.775 . S
C1553 C859 1.766 . S
C1561 C210 1.776 . S
C1585 C564 1.776 . S
C1593 C269 1.775 . S
C1617 C623 1.775 . S
C1625 C328 1.776 . S
C1649 C387 1.768 . S
C1657 C682 1.773 . S
C1681 C446 1.775 . S
C1689 C505 1.776 . S
C1713 C770 1.088 . S
C1721 C121 1.105 . S
C1745 C829 1.129 . S
C1753 C180 1.122 . S
C1777 C888 1.088 . S
C1785 C3 1.105 . S
C1809 C62 1.090 . S
C1817 C711 1.106 . S
C1841 C652 1.136 . S
C1849 C357 1.125 . S
C1873 C416 1.088 . S
C1881 C475 1.105 . S
C1905 C534 1.127 . S
C1913 C239 1.120 . S
C1937 C593 1.114 . S
C1945 C298 1.114 . S
