# Generated by pormake.
# Topology ilc, (8)-cn, num edge types: 1
# Building blocks:
#     Node 0, Type 0, BuildingBlock: NUHRAL_clean_sbu_3, # of connection points: 8
#     Node 1, Type 0, BuildingBlock: NUHRAL_clean_sbu_3, # of connection points: 8
#     Node 2, Type 0, BuildingBlock: NUHRAL_clean_sbu_3, # of connection points: 8
#     Edge 3, Type (0, 0), BuildingBlock: XIVTED_clean_linker_0, # of connection points: 2
#     Edge 4, Type (0, 0), BuildingBlock: XIVTED_clean_linker_0, # of connection points: 2
#     Edge 5, Type (0, 0), BuildingBlock: XIVTED_clean_linker_0, # of connection points: 2
#     Edge 6, Type (0, 0), BuildingBlock: XIVTED_clean_linker_0, # of connection points: 2
#     Edge 7, Type (0, 0), BuildingBlock: XIVTED_clean_linker_0, # of connection points: 2
#     Edge 8, Type (0, 0), BuildingBlock: XIVTED_clean_linker_0, # of connection points: 2
#     Edge 9, Type (0, 0), BuildingBlock: XIVTED_clean_linker_0, # of connection points: 2
#     Edge 10, Type (0, 0), BuildingBlock: XIVTED_clean_linker_0, # of connection points: 2
#     Edge 11, Type (0, 0), BuildingBlock: XIVTED_clean_linker_0, # of connection points: 2
#     Edge 12, Type (0, 0), BuildingBlock: XIVTED_clean_linker_0, # of connection points: 2
#     Edge 13, Type (0, 0), BuildingBlock: XIVTED_clean_linker_0, # of connection points: 2
#     Edge 14, Type (0, 0), BuildingBlock: XIVTED_clean_linker_0, # of connection points: 2
# Relax obj value: 0.163
# Max RMSD: 0.202
# Mean RMSD: 0.202
data_MOF--net-ilc--node1-NUHRAL_clean_sbu_3--edge1-XIVTED_clean_linker_0
_symmetry_space_group_name_H-M    P1
_symmetry_Int_Tables_number       1
_symmetry_cell_setting            triclinic
loop_
_symmetry_equiv_pos_as_xyz
'x, y, z'
_cell_length_a     22.682374
_cell_length_b     31.135541
_cell_length_c     19.439674
_cell_angle_alpha  101.24746
_cell_angle_beta   75.042339
_cell_angle_gamma 142.99509
loop_
_atom_site_label
_atom_site_type_symbol
_atom_site_fract_x
_atom_site_fract_y
_atom_site_fract_z
_atom_type_partial_charge
C0 C 0.15019 0.03247 0.18504 0.0
C1 C 0.2006 0.09337 0.22684 0.0
C2 C 0.24583 0.10857 0.28106 0.0
C3 C 0.24235 0.063 0.29076 0.0
C4 C 0.19352 1.00273 0.24911 0.0
C5 C 0.14633 0.98703 0.19644 0.0
O6 O 0.91706 0.98258 0.06092 0.0
Tb7 Tb 0.05605 0.06096 0.09912 0.0
O8 O 0.08823 0.13576 0.17693 0.0
O9 O 0.76779 0.88 0.03829 0.0
Eu10 Eu 0.86074 0.92832 0.92848 0.0
O11 O 0.15701 0.067 0.08322 0.0
C12 C 0.85801 0.99893 0.87995 0.0
O13 O 1.0122 0.98484 0.15359 0.0
O14 O 1.01443 0.99681 0.94338 0.0
O15 O 0.13025 0.1073 0.99144 0.0
C16 C 0.09986 1.01557 0.13046 0.0
C17 C 0.8644 0.83135 0.85287 0.0
O18 O 0.90263 0.84919 0.90883 0.0
C19 C 0.82424 0.9224 0.08705 0.0
C20 C 0.09338 0.06676 0.93474 0.0
O21 O 0.83764 0.85524 0.84644 0.0
C22 C 0.90346 0.04358 0.81784 0.0
C23 C 0.89923 0.09381 0.7405 0.0
C24 C 0.85297 0.04786 0.79702 0.0
C25 C 0.99877 0.08396 0.78044 0.0
C26 C 0.04498 0.13022 0.72451 0.0
C27 C 0.99452 0.1345 0.70537 0.0
C28 C 0.10338 0.18322 0.16015 0.0
O29 O 0.1011 0.18634 0.0946 0.0
O30 O 0.79311 0.93044 0.86929 0.0
O31 O 0.91848 1.02622 0.92224 0.0
H32 H 0.20209 0.12757 0.2181 0.0
H33 H 0.27096 0.07074 0.33491 0.0
H34 H 0.10634 0.93956 0.16489 0.0
H35 H 0.7794 1.01673 0.82513 0.0
H36 H 0.03667 0.07937 0.79466 0.0
H37 H 1.02799 0.1678 0.66011 0.0
C38 C 0.81907 0.35221 0.47044 0.0
C39 C 0.81354 0.37117 0.54137 0.0
C40 C 0.80115 0.34052 0.59646 0.0
C41 C 0.793 0.29046 0.58081 0.0
C42 C 0.799 0.2712 0.51085 0.0
C43 C 0.81298 0.30255 0.45495 0.0
O44 O 0.63229 0.36132 0.45707 0.0
Tb45 Tb 0.77915 0.42733 0.39497 0.0
O46 O 0.82971 0.51187 0.46626 0.0
O47 O 0.54683 0.25269 0.41255 0.0
Eu48 Eu 0.60962 0.29407 0.29945 0.0
O49 O 0.88591 0.45116 0.42231 0.0
C50 C 0.57706 0.35068 0.26796 0.0
O51 O 0.75169 0.34437 0.3868 0.0
O52 O 0.76513 0.36318 0.2442 0.0
O53 O 0.8342 0.46711 0.28661 0.0
C54 C 0.83222 0.38475 0.41278 0.0
C55 C 0.5749 0.17677 0.23305 0.0
O56 O 0.63349 0.20553 0.27805 0.0
C57 C 0.55937 0.29181 0.46537 0.0
C58 C 0.83203 0.43171 0.23515 0.0
O59 O 0.54607 0.20013 0.2315 0.0
C60 C 0.62825 0.39906 0.20808 0.0
C61 C 0.66483 0.47952 0.14298 0.0
C62 C 0.61244 0.43359 0.20193 0.0
C63 C 0.69263 0.40849 0.15431 0.0
C64 C 0.74233 0.4521 0.0947 0.0
C65 C 0.73117 0.48971 0.09115 0.0
C66 C 0.79301 0.52984 0.46745 0.0
O67 O 0.73542 0.50063 0.42133 0.0
O68 O 0.52471 0.28559 0.2499 0.0
O69 O 0.63341 0.37807 0.31425 0.0
H70 H 0.81863 0.40947 0.55377 0.0
H71 H 0.78613 0.2682 0.62356 0.0
H72 H 0.81975 0.28898 0.40032 0.0
H73 H 0.55882 0.42372 0.24131 0.0
H74 H 0.69925 0.37811 0.15705 0.0
H75 H 0.7651 0.52075 0.04352 0.0
C76 C 0.48705 0.67302 0.85386 0.0
C77 C 0.40554 0.63817 0.90958 0.0
C78 C 0.38035 0.59764 0.96148 0.0
C79 C 0.43457 0.59026 0.95524 0.0
C80 C 0.51879 0.62763 0.90318 0.0
C81 C 0.54574 0.66944 0.85217 0.0
O82 O 0.35323 0.71487 0.74598 0.0
Tb83 Tb 0.49901 0.77905 0.76503 0.0
O84 O 0.51728 0.84334 0.85225 0.0
O85 O 0.22646 0.60497 0.7008 0.0
Eu86 Eu 0.30259 0.65191 0.58919 0.0
O87 O 0.58219 0.78025 0.79706 0.0
C88 C 0.26596 0.7058 0.55906 0.0
O89 O 0.4322 0.68061 0.7736 0.0
O90 O 0.44415 0.72556 0.62915 0.0
O91 O 0.58693 0.83045 0.65947 0.0
C92 C 0.50906 0.7102 0.79526 0.0
C93 C 0.22606 0.51509 0.52777 0.0
O94 O 0.21772 0.50683 0.59482 0.0
C95 C 0.27025 0.64514 0.75612 0.0
C96 C 0.53484 0.78966 0.60806 0.0
O97 O 0.25907 0.57067 0.50884 0.0
C98 C 0.21217 0.68774 0.50688 0.0
C99 C 0.14366 0.70436 0.4564 0.0
C100 C 0.19923 0.72456 0.50462 0.0
C101 C 0.17446 0.63348 0.45827 0.0
C102 C 0.11947 0.61298 0.40916 0.0
C103 C 0.09824 0.6453 0.41311 0.0
C104 C 0.49597 0.87156 0.84821 0.0
O105 O 0.46563 0.86107 0.79068 0.0
O106 O 0.20929 0.65652 0.60881 0.0
O107 O 0.35022 0.73218 0.53293 0.0
H108 H 0.36336 0.64369 0.913 0.0
H109 H 0.4137 0.55714 0.9935 0.0
H110 H 0.6105 0.69783 0.81102 0.0
H111 H 0.23349 0.76932 0.53932 0.0
H112 H 0.1927 0.61014 0.45731 0.0
H113 H 0.0533 0.62881 0.37764 0.0
H114 H 0.20639 0.26914 0.67655 0.0
H115 H 0.1764 0.15373 0.33246 0.0
H116 H 0.09191 0.0726 0.66157 0.0
H117 H 0.39596 0.1882 0.35687 0.0
H118 H 0.18969 0.20355 0.44952 0.0
H119 H 0.31467 0.30784 0.5607 0.0
C120 C 0.20802 0.23588 0.65074 0.0
C121 C 0.13858 0.16679 0.67754 0.0
C122 C 0.238 0.20287 0.4277 0.0
C123 C 0.26291 0.21147 0.54758 0.0
C124 C 0.2306 0.17434 0.36054 0.0
C125 C 0.28168 0.16331 0.33572 0.0
C126 C 0.29437 0.21835 0.47046 0.0
C127 C 0.35097 0.19193 0.37542 0.0
C128 C 0.26946 0.25803 0.5849 0.0
C129 C 0.1438 0.12594 0.64263 0.0
N130 N 0.35144 0.21463 0.44251 0.0
N131 N 0.20336 0.14827 0.57833 0.0
H132 H 0.66672 0.25221 0.71078 0.0
H133 H 0.90737 0.55598 0.99442 0.0
H134 H 0.93492 0.47523 0.65077 0.0
H135 H 0.67206 0.33142 0.04416 0.0
H136 H 0.93602 0.5326 0.87073 0.0
H137 H 0.67728 0.28411 0.83522 0.0
C138 C 0.72755 0.30813 0.72421 0.0
C139 C 0.79995 0.36125 0.67096 0.0
C140 C 0.8797 0.48894 0.90933 0.0
C141 C 0.81343 0.39855 0.81337 0.0
C142 C 0.86339 0.50218 0.97981 0.0
C143 C 0.78488 0.44523 0.02921 0.0
C144 C 0.81681 0.41837 0.88884 0.0
C145 C 0.73263 0.37712 1.00823 0.0
C146 C 0.73432 0.32641 0.79519 0.0
C147 C 0.87705 0.43294 0.69074 0.0
N148 N 0.74831 0.36546 0.93932 0.0
N149 N 0.88179 0.44972 0.76081 0.0
H150 H 0.19818 0.53369 0.97376 0.0
H151 H 0.09798 0.51014 0.39597 0.0
H152 H 0.38832 0.59266 0.0972 0.0
H153 H 0.0984 0.61384 0.27551 0.0
H154 H 0.12308 0.47147 0.2835 0.0
H155 H 0.0821 0.49387 0.08537 0.0
C156 C 0.21508 0.53762 0.02364 0.0
C157 C 0.30381 0.56738 0.02598 0.0
C158 C 0.11355 0.50041 0.283 0.0
C159 C 0.17079 0.52086 0.15167 0.0
C160 C 0.1012 0.52387 0.34693 0.0
C161 C 0.101 0.56896 0.34632 0.0
C162 C 0.12209 0.52002 0.21861 0.0
C163 C 0.09884 0.58025 0.28069 0.0
C164 C 0.14841 0.51419 0.08661 0.0
C165 C 0.32055 0.56946 0.09222 0.0
N166 N 0.11118 0.55704 0.21964 0.0
N167 N 0.25529 0.54738 0.15247 0.0
H168 H 0.30432 0.84968 0.44095 0.0
H169 H 1.02484 0.85893 0.27665 0.0
H170 H 0.99162 0.66454 0.43046 0.0
H171 H 0.34218 0.03694 0.26846 0.0
H172 H 1.00922 0.78623 0.33437 0.0
H173 H 0.31663 0.92137 0.38636 0.0
C174 C 0.23747 0.82441 0.42922 0.0
C175 C 0.14643 0.7508 0.4406 0.0
C176 C 0.08241 0.84099 0.31922 0.0
C177 C 0.16063 0.83204 0.37575 0.0
C178 C 0.09137 0.88205 0.28534 0.0
C179 C 0.18488 0.95387 0.2679 0.0
C180 C 0.16759 0.87227 0.33582 0.0
C181 C 0.26871 0.98174 0.2814 0.0
C182 C 0.24487 0.86514 0.39686 0.0
C183 C 0.06289 0.72089 0.42281 0.0
N184 N 0.25802 0.94112 0.31513 0.0
N185 N 0.07203 0.76137 0.39075 0.0
H186 H 0.22889 0.5137 0.38554 0.0
H187 H 0.10043 0.18484 0.30247 0.0
H188 H 0.16944 0.4001 0.54649 0.0
H189 H 0.14448 0.29108 0.14324 0.0
H190 H 0.12572 0.26329 0.39249 0.0
H191 H 0.19666 0.43207 0.29627 0.0
C192 C 0.20889 0.47153 0.4022 0.0
C193 C 0.20256 0.46411 0.47364 0.0
C194 C 0.12978 0.26944 0.33788 0.0
C195 C 0.16589 0.37047 0.37145 0.0
C196 C 0.11555 0.22471 0.28634 0.0
C197 C 0.12025 0.23128 0.21507 0.0
C198 C 0.14925 0.32142 0.31814 0.0
C199 C 0.14001 0.28395 0.19748 0.0
C200 C 0.19049 0.42489 0.35113 0.0
C201 C 0.17577 0.40816 0.49204 0.0
N202 N 0.15387 0.32698 0.2486 0.0
N203 N 0.15885 0.36373 0.44127 0.0
H204 H 0.71378 0.92403 0.55109 0.0
H205 H 0.64615 0.79111 0.14709 0.0
H206 H 0.45286 0.70747 0.49152 0.0
H207 H 0.90916 1.00866 0.20225 0.0
H208 H 0.57489 0.76024 0.27353 0.0
H209 H 0.78669 0.95753 0.42444 0.0
C210 C 0.67125 0.88372 0.51142 0.0
C211 C 0.57638 0.81294 0.53204 0.0
C212 C 0.64856 0.81476 0.25822 0.0
C213 C 0.65997 0.85059 0.387 0.0
C214 C 0.68949 0.83239 0.18589 0.0
C215 C 0.78457 0.90257 0.16398 0.0
C216 C 0.70266 0.86776 0.30948 0.0
C217 C 0.8367 0.95381 0.21675 0.0
C218 C 0.7131 0.9028 0.43912 0.0
C219 C 0.52529 0.76283 0.47828 0.0
N220 N 0.79515 0.93551 0.28698 0.0
N221 N 0.56767 0.78252 0.40852 0.0
H222 H 0.64163 0.12685 0.52937 0.0
H223 H 0.96133 0.21237 0.74763 0.0
H224 H 0.96134 0.31166 0.48187 0.0
H225 H 0.74193 0.99823 0.66809 0.0
H226 H 0.93199 0.2437 0.66773 0.0
H227 H 0.65143 0.06887 0.58567 0.0
C228 C 0.71368 0.15334 0.52672 0.0
C229 C 0.80098 0.2242 0.50111 0.0
C230 C 0.88902 0.18949 0.66863 0.0
C231 C 0.81239 0.16036 0.56876 0.0
C232 C 0.90401 0.17121 0.71527 0.0
C233 C 0.85337 0.10257 0.71471 0.0
C234 C 0.82168 0.13855 0.6218 0.0
C235 C 0.7813 0.05143 0.67061 0.0
C236 C 0.71913 0.12081 0.56012 0.0
C237 C 0.89249 0.25697 0.50071 0.0
N238 N 0.76748 0.07048 0.62537 0.0
N239 N 0.89602 0.22594 0.53667 0.0
H240 H 0.73859 0.58361 0.47557 0.0
H241 H 0.91206 0.77302 0.84991 0.0
H242 H 0.88407 0.58543 0.58437 0.0
H243 H 0.79258 0.7867 0.72857 0.0
H244 H 0.89876 0.7019 0.75563 0.0
H245 H 0.75634 0.65673 0.56885 0.0
C246 C 0.77456 0.59951 0.51906 0.0
C247 C 0.80935 0.57786 0.52225 0.0
C248 C 0.8756 0.72054 0.74958 0.0
C249 C 0.82952 0.66178 0.63005 0.0
C250 C 0.88299 0.76111 0.80348 0.0
C251 C 0.85385 0.78628 0.7971 0.0
C252 C 0.83844 0.7047 0.68878 0.0
C253 C 0.81622 0.7687 0.73583 0.0
C254 C 0.78466 0.64138 0.57244 0.0
C255 C 0.85584 0.60064 0.57983 0.0
N256 N 0.80968 0.72911 0.68418 0.0
N257 N 0.86414 0.64107 0.63164 0.0
H258 H 0.55782 0.35718 0.58073 0.0
H259 H 0.07365 0.99739 0.81249 0.0
H260 H 0.39952 0.14997 0.50641 0.0
H261 H 0.25453 0.20784 0.89377 0.0
H262 H 0.18603 0.05121 0.69794 0.0
H263 H 0.442 0.30229 0.69326 0.0
C264 C 0.49887 0.30006 0.58805 0.0
C265 C 0.48876 0.25817 0.53388 0.0
C266 C 0.20109 0.08561 0.74079 0.0
C267 C 0.35553 0.19487 0.66345 0.0
C268 C 0.13652 0.05492 0.80616 0.0
C269 C 0.15499 0.09824 0.86309 0.0
C270 C 0.28416 0.16017 0.73182 0.0
C271 C 0.23769 0.17242 0.85155 0.0
C272 C 0.43272 0.26876 0.65257 0.0
C273 C 0.41042 0.18439 0.54666 0.0
N274 N 0.29915 0.201 0.78728 0.0
N275 N 0.34681 0.15509 0.61014 0.0
H276 H 0.49235 0.40228 0.10681 0.0
H277 H 0.68417 0.72503 0.96313 0.0
H278 H 0.78544 0.61844 0.12867 0.0
H279 H 0.47639 0.51731 0.86929 0.0
H280 H 0.72384 0.69248 0.02881 0.0
H281 H 0.47448 0.4464 0.03394 0.0
C282 C 0.55117 0.45931 0.09872 0.0
C283 C 0.63975 0.50696 0.1246 0.0
C284 C 0.67189 0.65484 0.99212 0.0
C285 C 0.62199 0.5576 0.03886 0.0
C286 C 0.65131 0.67411 0.95319 0.0
C287 C 0.57816 0.62414 0.9099 0.0
C288 C 0.61681 0.58458 0.98886 0.0
C289 C 0.53434 0.55764 0.9013 0.0
C290 C 0.54213 0.48434 0.05566 0.0
C291 C 0.71532 0.58028 0.11058 0.0
N292 N 0.5523 0.53905 0.94192 0.0
N293 N 0.705 0.60348 0.06832 0.0
H294 H 0.56618 0.91142 0.97255 0.0
H295 H 0.47372 0.11666 0.12158 0.0
H296 H 0.44236 0.92662 0.8598 0.0
H297 H 0.62296 0.11823 0.22418 0.0
H298 H 0.44942 0.03907 0.03001 0.0
H299 H 0.57745 0.98038 0.06927 0.0
C300 C 0.54122 0.92911 0.96811 0.0
C301 C 0.50349 0.91323 0.90773 0.0
C302 C 0.48716 0.05619 0.07273 0.0
C303 C 0.51581 0.99213 0.01858 0.0
C304 C 0.50078 0.10036 0.1252 0.0
C305 C 0.55116 0.12457 0.18049 0.0
C306 C 0.52396 0.03586 0.07553 0.0
C307 C 0.58423 0.10135 0.18242 0.0
C308 C 0.54765 0.96852 0.02341 0.0
C309 C 0.47228 0.93769 0.9051 0.0
N310 N 0.57044 0.05868 0.13069 0.0
N311 N 0.47914 0.97579 0.95956 0.0
H312 H 0.1008 0.50436 0.79414 0.0
H313 H 0.98838 0.57384 0.19565 0.0
H314 H 0.30591 0.71505 0.88277 0.0
H315 H 0.82431 0.36685 0.11449 0.0
H316 H 0.09852 0.62755 0.07934 0.0
H317 H 0.99286 0.45373 0.91001 0.0
C318 C 0.12387 0.54003 0.83823 0.0
C319 C 0.2127 0.61415 0.82862 0.0
C320 C 0.03831 0.57039 0.08724 0.0
C321 C 0.08825 0.55638 0.96167 0.0
C322 C 0.9757 0.53978 0.15357 0.0
C323 C 0.8987 0.46604 0.16544 0.0
C324 C 1.02201 0.52657 0.03209 0.0
C325 C 0.88406 0.42416 0.10849 0.0
C326 C 0.06186 0.51104 0.90441 0.0
C327 C 0.23841 0.65762 0.8878 0.0
N328 N 0.94467 0.45493 0.04438 0.0
N329 N 0.17609 0.62812 0.95179 0.0
loop_
_geom_bond_atom_site_label_1
_geom_bond_atom_site_label_2
_geom_bond_distance
_geom_bond_site_symmetry_2
_ccdc_geom_bond_type
C0 C1 1.387 . S
C0 C5 1.380 1_545 S
C0 C16 1.494 . S
C1 C0 1.387 . S
C1 C2 1.386 1_545 S
C1 H32 0.930 . S
C2 C1 1.386 1_565 S
C2 C3 1.397 . S
C3 C2 1.397 . S
C3 C4 1.393 . S
C3 H33 0.930 . S
C4 C3 1.393 . S
C4 C5 1.395 . S
C5 C0 1.380 1_565 S
C5 C4 1.395 . S
C5 H34 0.930 . S
O6 Tb7 2.295 1_655 S
O6 C19 1.242 1_545 S
Tb7 O6 2.295 1_455 S
Tb7 O8 2.312 . S
Tb7 O11 2.438 . S
Tb7 O13 2.472 . S
Tb7 O15 2.308 1_554 S
Tb7 C16 2.821 . S
O8 Tb7 2.312 . S
O8 C28 1.264 . S
O9 Eu10 2.308 1_554 S
O9 C19 1.243 . S
Eu10 O9 2.308 1_556 S
Eu10 C12 2.821 . S
Eu10 O14 2.295 1_655 S
Eu10 O21 2.312 . S
Eu10 O30 2.438 . S
Eu10 O31 2.472 . S
O11 Tb7 2.438 . S
O11 C16 1.263 . S
C12 Eu10 2.821 . S
C12 C22 1.494 . S
C12 O30 1.263 . S
C12 O31 1.264 . S
O13 Tb7 2.472 . S
O13 C16 1.264 . S
O14 Eu10 2.295 1_455 S
O14 C20 1.242 1_565 S
O15 Tb7 2.308 1_556 S
O15 C20 1.243 . S
C16 C0 1.494 . S
C16 Tb7 2.821 . S
C16 O11 1.263 . S
C16 O13 1.264 . S
C17 O18 1.260 . S
C17 O21 1.264 . S
O18 C17 1.260 . S
C19 O6 1.242 1_565 S
C19 O9 1.243 . S
C20 O14 1.242 1_545 S
C20 O15 1.243 . S
O21 Eu10 2.312 . S
O21 C17 1.264 . S
C22 C12 1.494 . S
C22 C24 1.380 1_565 S
C22 C25 1.387 . S
C23 C24 1.395 . S
C23 C27 1.393 . S
C24 C22 1.380 1_545 S
C24 C23 1.395 . S
C24 H35 0.930 . S
C25 C22 1.387 . S
C25 C26 1.386 1_565 S
C25 H36 0.930 . S
C26 C25 1.386 1_545 S
C26 C27 1.397 . S
C27 C23 1.393 . S
C27 C26 1.397 . S
C27 H37 0.930 . S
C28 O8 1.264 . S
C28 O29 1.260 . S
O29 C28 1.260 . S
O30 Eu10 2.438 . S
O30 C12 1.263 . S
O31 Eu10 2.472 . S
O31 C12 1.264 . S
H32 C1 0.930 . S
H33 C3 0.930 . S
H34 C5 0.930 . S
H35 C24 0.930 . S
H36 C25 0.930 . S
H37 C27 0.930 . S
C38 C39 1.387 . S
C38 C43 1.380 . S
C38 C54 1.494 . S
C39 C38 1.387 . S
C39 C40 1.386 . S
C39 H70 0.930 . S
C40 C39 1.386 . S
C40 C41 1.397 . S
C41 C40 1.397 . S
C41 C42 1.393 . S
C41 H71 0.930 . S
C42 C41 1.393 . S
C42 C43 1.395 . S
C43 C38 1.380 . S
C43 C42 1.395 . S
C43 H72 0.930 . S
O44 Tb45 2.295 . S
O44 C57 1.242 . S
Tb45 O44 2.295 . S
Tb45 O46 2.312 . S
Tb45 O49 2.438 . S
Tb45 O51 2.472 . S
Tb45 O53 2.308 . S
Tb45 C54 2.821 . S
O46 Tb45 2.312 . S
O46 C66 1.264 . S
O47 Eu48 2.308 . S
O47 C57 1.243 . S
Eu48 O47 2.308 . S
Eu48 C50 2.821 . S
Eu48 O52 2.295 . S
Eu48 O59 2.312 . S
Eu48 O68 2.438 . S
Eu48 O69 2.472 . S
O49 Tb45 2.438 . S
O49 C54 1.263 . S
C50 Eu48 2.821 . S
C50 C60 1.494 . S
C50 O68 1.263 . S
C50 O69 1.264 . S
O51 Tb45 2.472 . S
O51 C54 1.264 . S
O52 Eu48 2.295 . S
O52 C58 1.242 . S
O53 Tb45 2.308 . S
O53 C58 1.243 . S
C54 C38 1.494 . S
C54 Tb45 2.821 . S
C54 O49 1.263 . S
C54 O51 1.264 . S
C55 O56 1.260 . S
C55 O59 1.264 . S
O56 C55 1.260 . S
C57 O44 1.242 . S
C57 O47 1.243 . S
C58 O52 1.242 . S
C58 O53 1.243 . S
O59 Eu48 2.312 . S
O59 C55 1.264 . S
C60 C50 1.494 . S
C60 C62 1.380 . S
C60 C63 1.387 . S
C61 C62 1.395 . S
C61 C65 1.393 . S
C62 C60 1.380 . S
C62 C61 1.395 . S
C62 H73 0.930 . S
C63 C60 1.387 . S
C63 C64 1.386 . S
C63 H74 0.930 . S
C64 C63 1.386 . S
C64 C65 1.397 . S
C65 C61 1.393 . S
C65 C64 1.397 . S
C65 H75 0.930 . S
C66 O46 1.264 . S
C66 O67 1.260 . S
O67 C66 1.260 . S
O68 Eu48 2.438 . S
O68 C50 1.263 . S
O69 Eu48 2.472 . S
O69 C50 1.264 . S
H70 C39 0.930 . S
H71 C41 0.930 . S
H72 C43 0.930 . S
H73 C62 0.930 . S
H74 C63 0.930 . S
H75 C65 0.930 . S
C76 C77 1.387 . S
C76 C81 1.380 . S
C76 C92 1.494 . S
C77 C76 1.387 . S
C77 C78 1.386 . S
C77 H108 0.930 . S
C78 C77 1.386 . S
C78 C79 1.397 . S
C79 C78 1.397 . S
C79 C80 1.393 . S
C79 H109 0.930 . S
C80 C79 1.393 . S
C80 C81 1.395 . S
C81 C76 1.380 . S
C81 C80 1.395 . S
C81 H110 0.930 . S
O82 Tb83 2.295 . S
O82 C95 1.242 . S
Tb83 O82 2.295 . S
Tb83 O84 2.312 . S
Tb83 O87 2.438 . S
Tb83 O89 2.472 . S
Tb83 O91 2.308 . S
Tb83 C92 2.821 . S
O84 Tb83 2.312 . S
O84 C104 1.264 . S
O85 Eu86 2.308 . S
O85 C95 1.243 . S
Eu86 O85 2.308 . S
Eu86 C88 2.821 . S
Eu86 O90 2.295 . S
Eu86 O97 2.312 . S
Eu86 O106 2.438 . S
Eu86 O107 2.472 . S
O87 Tb83 2.438 . S
O87 C92 1.263 . S
C88 Eu86 2.821 . S
C88 C98 1.494 . S
C88 O106 1.263 . S
C88 O107 1.264 . S
O89 Tb83 2.472 . S
O89 C92 1.264 . S
O90 Eu86 2.295 . S
O90 C96 1.242 . S
O91 Tb83 2.308 . S
O91 C96 1.243 . S
C92 C76 1.494 . S
C92 Tb83 2.821 . S
C92 O87 1.263 . S
C92 O89 1.264 . S
C93 O94 1.260 . S
C93 O97 1.264 . S
O94 C93 1.260 . S
C95 O82 1.242 . S
C95 O85 1.243 . S
C96 O90 1.242 . S
C96 O91 1.243 . S
O97 Eu86 2.312 . S
O97 C93 1.264 . S
C98 C88 1.494 . S
C98 C100 1.380 . S
C98 C101 1.387 . S
C99 C100 1.395 . S
C99 C103 1.393 . S
C100 C98 1.380 . S
C100 C99 1.395 . S
C100 H111 0.930 . S
C101 C98 1.387 . S
C101 C102 1.386 . S
C101 H112 0.930 . S
C102 C101 1.386 . S
C102 C103 1.397 . S
C103 C99 1.393 . S
C103 C102 1.397 . S
C103 H113 0.930 . S
C104 O84 1.264 . S
C104 O105 1.260 . S
O105 C104 1.260 . S
O106 Eu86 2.438 . S
O106 C88 1.263 . S
O107 Eu86 2.472 . S
O107 C88 1.264 . S
H108 C77 0.930 . S
H109 C79 0.930 . S
H110 C81 0.930 . S
H111 C100 0.930 . S
H112 C101 0.930 . S
H113 C103 0.930 . S
H114 C120 0.931 . S
H115 C124 0.930 . S
H116 C129 0.929 . S
H117 C127 0.929 . S
H118 C122 0.929 . S
H119 C128 0.929 . S
C120 H114 0.931 . S
C120 C121 1.364 1_455 S
C120 C128 1.381 . S
C121 C120 1.364 1_655 S
C121 C129 1.433 1_545 S
C122 H118 0.929 . S
C122 C124 1.379 . S
C122 C126 1.350 1_655 S
C123 C126 1.463 1_645 S
C123 C128 1.350 1_655 S
C123 N131 1.427 1_545 S
C124 H115 0.930 . S
C124 C122 1.379 . S
C124 C125 1.366 1_655 S
C125 C124 1.366 1_455 S
C125 C127 1.433 1_565 S
C126 C122 1.350 1_455 S
C126 C123 1.463 1_465 S
C126 N130 1.427 1_565 S
C127 H117 0.929 . S
C127 C125 1.433 1_545 S
C127 N130 1.384 . S
C128 H119 0.929 . S
C128 C120 1.381 . S
C128 C123 1.350 1_455 S
C129 H116 0.929 . S
C129 C121 1.433 1_565 S
C129 N131 1.384 . S
N130 C126 1.427 1_545 S
N130 C127 1.384 . S
N131 C123 1.427 1_565 S
N131 C129 1.384 . S
H132 C138 0.930 . S
H133 C142 0.930 . S
H134 C147 0.929 . S
H135 C145 0.929 1_554 S
H136 C140 0.929 . S
H137 C146 0.929 . S
C138 H132 0.930 . S
C138 C139 1.367 . S
C138 C146 1.378 . S
C139 C138 1.367 . S
C139 C147 1.433 . S
C140 H136 0.929 . S
C140 C142 1.378 . S
C140 C144 1.350 . S
C141 C144 1.463 . S
C141 C146 1.350 . S
C141 N149 1.427 . S
C142 H133 0.930 . S
C142 C140 1.378 . S
C142 C143 1.367 . S
C143 C142 1.367 . S
C143 C145 1.433 . S
C144 C140 1.350 . S
C144 C141 1.463 . S
C144 N148 1.427 . S
C145 H135 0.929 1_556 S
C145 C143 1.433 . S
C145 N148 1.384 . S
C146 H137 0.929 . S
C146 C138 1.378 . S
C146 C141 1.350 . S
C147 H134 0.929 . S
C147 C139 1.433 . S
C147 N149 1.384 . S
N148 C144 1.427 . S
N148 C145 1.384 . S
N149 C141 1.427 . S
N149 C147 1.384 . S
H150 C156 0.930 1_556 S
H151 C160 0.930 . S
H152 C165 0.929 . S
H153 C163 0.929 . S
H154 C158 0.929 . S
H155 C164 0.929 . S
C156 H150 0.930 1_554 S
C156 C157 1.367 . S
C156 C164 1.378 . S
C157 C156 1.367 . S
C157 C165 1.433 . S
C158 H154 0.929 . S
C158 C160 1.378 . S
C158 C162 1.350 . S
C159 C162 1.463 . S
C159 C164 1.350 . S
C159 N167 1.427 . S
C160 H151 0.930 . S
C160 C158 1.378 . S
C160 C161 1.367 . S
C161 C160 1.367 . S
C161 C163 1.433 . S
C162 C158 1.350 . S
C162 C159 1.463 . S
C162 N166 1.427 . S
C163 H153 0.929 . S
C163 C161 1.433 . S
C163 N166 1.384 . S
C164 H155 0.929 . S
C164 C156 1.378 . S
C164 C159 1.350 . S
C165 H152 0.929 . S
C165 C157 1.433 . S
C165 N167 1.384 . S
N166 C162 1.427 . S
N166 C163 1.384 . S
N167 C159 1.427 . S
N167 C165 1.384 . S
H168 C174 0.930 . S
H169 C178 0.930 1_655 S
H170 C183 0.929 . S
H171 C181 0.929 . S
H172 C176 0.929 . S
H173 C182 0.929 . S
C174 H168 0.930 . S
C174 C175 1.367 . S
C174 C182 1.378 . S
C175 C174 1.367 . S
C175 C183 1.433 . S
C176 H172 0.929 . S
C176 C178 1.378 . S
C176 C180 1.350 . S
C177 C180 1.463 . S
C177 C182 1.350 . S
C177 N185 1.427 . S
C178 H169 0.930 1_455 S
C178 C176 1.378 . S
C178 C179 1.367 . S
C179 C178 1.367 . S
C179 C181 1.433 . S
C180 C176 1.350 . S
C180 C177 1.463 . S
C180 N184 1.427 . S
C181 H171 0.929 . S
C181 C179 1.433 . S
C181 N184 1.384 . S
C182 H173 0.929 . S
C182 C174 1.378 . S
C182 C177 1.350 . S
C183 H170 0.929 . S
C183 C175 1.433 . S
C183 N185 1.384 . S
N184 C180 1.427 . S
N184 C181 1.384 . S
N185 C177 1.427 . S
N185 C183 1.384 . S
H186 C192 0.930 . S
H187 C196 0.930 1_655 S
H188 C201 0.929 . S
H189 C199 0.929 . S
H190 C194 0.929 . S
H191 C200 0.929 . S
C192 H186 0.930 . S
C192 C193 1.367 . S
C192 C200 1.378 . S
C193 C192 1.367 . S
C193 C201 1.433 . S
C194 H190 0.929 . S
C194 C196 1.378 . S
C194 C198 1.350 . S
C195 C198 1.463 . S
C195 C200 1.350 . S
C195 N203 1.427 . S
C196 H187 0.930 1_455 S
C196 C194 1.378 . S
C196 C197 1.367 . S
C197 C196 1.367 . S
C197 C199 1.433 . S
C198 C194 1.350 . S
C198 C195 1.463 . S
C198 N202 1.427 . S
C199 H189 0.929 . S
C199 C197 1.433 . S
C199 N202 1.384 . S
C200 H191 0.929 . S
C200 C192 1.378 . S
C200 C195 1.350 . S
C201 H188 0.929 . S
C201 C193 1.433 . S
C201 N203 1.384 . S
N202 C198 1.427 . S
N202 C199 1.384 . S
N203 C195 1.427 . S
N203 C201 1.384 . S
H204 C210 0.930 . S
H205 C214 0.930 . S
H206 C219 0.929 . S
H207 C217 0.929 . S
H208 C212 0.929 . S
H209 C218 0.929 . S
C210 H204 0.930 . S
C210 C211 1.367 . S
C210 C218 1.378 . S
C211 C210 1.367 . S
C211 C219 1.433 . S
C212 H208 0.929 . S
C212 C214 1.378 . S
C212 C216 1.350 . S
C213 C216 1.463 . S
C213 C218 1.350 . S
C213 N221 1.427 . S
C214 H205 0.930 . S
C214 C212 1.378 . S
C214 C215 1.367 . S
C215 C214 1.367 . S
C215 C217 1.433 . S
C216 C212 1.350 . S
C216 C213 1.463 . S
C216 N220 1.427 . S
C217 H207 0.929 . S
C217 C215 1.433 . S
C217 N220 1.384 . S
C218 H209 0.929 . S
C218 C210 1.378 . S
C218 C213 1.350 . S
C219 H206 0.929 . S
C219 C211 1.433 . S
C219 N221 1.384 . S
N220 C216 1.427 . S
N220 C217 1.384 . S
N221 C213 1.427 . S
N221 C219 1.384 . S
H222 C228 0.930 . S
H223 C232 0.930 . S
H224 C237 0.929 . S
H225 C235 0.929 . S
H226 C230 0.929 . S
H227 C236 0.929 . S
C228 H222 0.930 . S
C228 C229 1.367 . S
C228 C236 1.378 . S
C229 C228 1.367 . S
C229 C237 1.433 . S
C230 H226 0.929 . S
C230 C232 1.378 . S
C230 C234 1.350 . S
C231 C234 1.463 . S
C231 C236 1.350 . S
C231 N239 1.427 . S
C232 H223 0.930 . S
C232 C230 1.378 . S
C232 C233 1.367 . S
C233 C232 1.367 . S
C233 C235 1.433 . S
C234 C230 1.350 . S
C234 C231 1.463 . S
C234 N238 1.427 . S
C235 H225 0.929 . S
C235 C233 1.433 . S
C235 N238 1.384 . S
C236 H227 0.929 . S
C236 C228 1.378 . S
C236 C231 1.350 . S
C237 H224 0.929 . S
C237 C229 1.433 . S
C237 N239 1.384 . S
N238 C234 1.427 . S
N238 C235 1.384 . S
N239 C231 1.427 . S
N239 C237 1.384 . S
H240 C246 0.930 . S
H241 C250 0.930 . S
H242 C255 0.929 . S
H243 C253 0.929 . S
H244 C248 0.929 . S
H245 C254 0.929 . S
C246 H240 0.930 . S
C246 C247 1.367 . S
C246 C254 1.378 . S
C247 C246 1.367 . S
C247 C255 1.433 . S
C248 H244 0.929 . S
C248 C250 1.378 . S
C248 C252 1.350 . S
C249 C252 1.463 . S
C249 C254 1.350 . S
C249 N257 1.427 . S
C250 H241 0.930 . S
C250 C248 1.378 . S
C250 C251 1.367 . S
C251 C250 1.367 . S
C251 C253 1.433 . S
C252 C248 1.350 . S
C252 C249 1.463 . S
C252 N256 1.427 . S
C253 H243 0.929 . S
C253 C251 1.433 . S
C253 N256 1.384 . S
C254 H245 0.929 . S
C254 C246 1.378 . S
C254 C249 1.350 . S
C255 H242 0.929 . S
C255 C247 1.433 . S
C255 N257 1.384 . S
N256 C252 1.427 . S
N256 C253 1.384 . S
N257 C249 1.427 . S
N257 C255 1.384 . S
H258 C264 0.930 . S
H259 C268 0.930 . S
H260 C273 0.929 . S
H261 C271 0.929 . S
H262 C266 0.929 . S
H263 C272 0.929 . S
C264 H258 0.930 . S
C264 C265 1.367 . S
C264 C272 1.378 . S
C265 C264 1.367 . S
C265 C273 1.433 . S
C266 H262 0.929 . S
C266 C268 1.378 . S
C266 C270 1.350 . S
C267 C270 1.463 . S
C267 C272 1.350 . S
C267 N275 1.427 . S
C268 H259 0.930 . S
C268 C266 1.378 . S
C268 C269 1.367 . S
C269 C268 1.367 . S
C269 C271 1.433 . S
C270 C266 1.350 . S
C270 C267 1.463 . S
C270 N274 1.427 . S
C271 H261 0.929 . S
C271 C269 1.433 . S
C271 N274 1.384 . S
C272 H263 0.929 . S
C272 C264 1.378 . S
C272 C267 1.350 . S
C273 H260 0.929 . S
C273 C265 1.433 . S
C273 N275 1.384 . S
N274 C270 1.427 . S
N274 C271 1.384 . S
N275 C267 1.427 . S
N275 C273 1.384 . S
H276 C282 0.930 . S
H277 C286 0.930 . S
H278 C291 0.929 . S
H279 C289 0.929 . S
H280 C284 0.929 . S
H281 C290 0.929 . S
C282 H276 0.930 . S
C282 C283 1.367 . S
C282 C290 1.378 1_554 S
C283 C282 1.367 . S
C283 C291 1.433 . S
C284 H280 0.929 . S
C284 C286 1.378 1_554 S
C284 C288 1.350 1_554 S
C285 C288 1.463 1_554 S
C285 C290 1.350 1_554 S
C285 N293 1.427 . S
C286 H277 0.930 . S
C286 C284 1.378 1_556 S
C286 C287 1.367 . S
C287 C286 1.367 . S
C287 C289 1.433 . S
C288 C284 1.350 1_556 S
C288 C285 1.463 1_556 S
C288 N292 1.427 . S
C289 H279 0.929 . S
C289 C287 1.433 . S
C289 N292 1.384 . S
C290 H281 0.929 . S
C290 C282 1.378 1_556 S
C290 C285 1.350 1_556 S
C291 H278 0.929 . S
C291 C283 1.433 . S
C291 N293 1.384 . S
N292 C288 1.427 . S
N292 C289 1.384 . S
N293 C285 1.427 . S
N293 C291 1.384 . S
H294 C300 0.930 . S
H295 C304 0.930 . S
H296 C309 0.929 . S
H297 C307 0.929 . S
H298 C302 0.932 . S
H299 C308 0.932 . S
C300 H294 0.930 . S
C300 C301 1.367 . S
C300 C308 1.378 . S
C301 C300 1.367 . S
C301 C309 1.433 . S
C302 H298 0.932 . S
C302 C304 1.378 . S
C302 C306 1.350 . S
C303 C306 1.463 1_566 S
C303 C308 1.350 . S
C303 N311 1.427 . S
C304 H295 0.930 . S
C304 C302 1.378 . S
C304 C305 1.367 . S
C305 C304 1.367 . S
C305 C307 1.433 . S
C306 C302 1.350 . S
C306 C303 1.463 1_544 S
C306 N310 1.427 . S
C307 H297 0.929 . S
C307 C305 1.433 . S
C307 N310 1.384 . S
C308 H299 0.932 . S
C308 C300 1.378 . S
C308 C303 1.350 . S
C309 H296 0.929 . S
C309 C301 1.433 . S
C309 N311 1.384 . S
N310 C306 1.427 . S
N310 C307 1.384 . S
N311 C303 1.427 . S
N311 C309 1.384 . S
H312 C318 0.930 . S
H313 C322 0.930 . S
H314 C327 0.929 . S
H315 C325 0.929 . S
H316 C320 0.929 . S
H317 C326 0.929 . S
C318 H312 0.930 . S
C318 C319 1.367 . S
C318 C326 1.378 . S
C319 C318 1.367 . S
C319 C327 1.433 . S
C320 H316 0.929 . S
C320 C322 1.378 . S
C320 C324 1.350 . S
C321 C324 1.463 1_456 S
C321 C326 1.350 . S
C321 N329 1.427 . S
C322 H313 0.930 . S
C322 C320 1.378 . S
C322 C323 1.367 . S
C323 C322 1.367 . S
C323 C325 1.433 . S
C324 C320 1.350 . S
C324 C321 1.463 1_654 S
C324 N328 1.427 . S
C325 H315 0.929 . S
C325 C323 1.433 . S
C325 N328 1.384 . S
C326 H317 0.929 . S
C326 C318 1.378 . S
C326 C321 1.350 . S
C327 H314 0.929 . S
C327 C319 1.433 . S
C327 N329 1.384 . S
N328 C324 1.427 . S
N328 C325 1.384 . S
N329 C321 1.427 . S
N329 C327 1.384 . S
C121 C26 0.745 . S
C125 C2 0.745 . S
C139 C40 0.757 . S
C143 C64 0.757 1_556 S
C157 C78 0.745 1_554 S
C161 C102 0.745 . S
C175 C99 2.421 . S
C179 C4 2.421 . S
C193 C93 1.322 . S
C197 C28 1.319 . S
C211 C96 1.582 . S
C215 C19 1.581 . S
C229 C42 2.426 . S
C233 C23 2.426 . S
C247 C66 1.309 . S
C251 C17 1.311 . S
C265 C57 1.584 . S
C269 C20 1.585 . S
C283 C61 2.411 . S
C287 C80 2.411 . S
C301 C104 1.309 . S
C305 C55 1.309 . S
C319 C95 1.581 . S
C323 C58 1.581 . S
