# Generated by pormake.
# Topology wgs, (5)-cn, num edge types: 1
# Building blocks:
#     Node 0, Type 0, BuildingBlock: XOMCOT_clean_sbu_1, # of connection points: 5
#     Node 1, Type 0, BuildingBlock: XOMCOT_clean_sbu_1, # of connection points: 5
#     Node 2, Type 0, BuildingBlock: XOMCOT_clean_sbu_1, # of connection points: 5
#     Node 3, Type 0, BuildingBlock: XOMCOT_clean_sbu_1, # of connection points: 5
#     Node 4, Type 0, BuildingBlock: XOMCOT_clean_sbu_1, # of connection points: 5
#     Node 5, Type 0, BuildingBlock: XOMCOT_clean_sbu_1, # of connection points: 5
#     Node 6, Type 0, BuildingBlock: XOMCOT_clean_sbu_1, # of connection points: 5
#     Node 7, Type 0, BuildingBlock: XOMCOT_clean_sbu_1, # of connection points: 5
#     Node 8, Type 0, BuildingBlock: XOMCOT_clean_sbu_1, # of connection points: 5
#     Node 9, Type 0, BuildingBlock: XOMCOT_clean_sbu_1, # of connection points: 5
#     Node 10, Type 0, BuildingBlock: XOMCOT_clean_sbu_1, # of connection points: 5
#     Node 11, Type 0, BuildingBlock: XOMCOT_clean_sbu_1, # of connection points: 5
#     Node 12, Type 0, BuildingBlock: XOMCOT_clean_sbu_1, # of connection points: 5
#     Node 13, Type 0, BuildingBlock: XOMCOT_clean_sbu_1, # of connection points: 5
#     Node 14, Type 0, BuildingBlock: XOMCOT_clean_sbu_1, # of connection points: 5
#     Node 15, Type 0, BuildingBlock: XOMCOT_clean_sbu_1, # of connection points: 5
#     Node 16, Type 0, BuildingBlock: XOMCOT_clean_sbu_1, # of connection points: 5
#     Node 17, Type 0, BuildingBlock: XOMCOT_clean_sbu_1, # of connection points: 5
#     Node 18, Type 0, BuildingBlock: XOMCOT_clean_sbu_1, # of connection points: 5
#     Node 19, Type 0, BuildingBlock: XOMCOT_clean_sbu_1, # of connection points: 5
#     Node 20, Type 0, BuildingBlock: XOMCOT_clean_sbu_1, # of connection points: 5
#     Node 21, Type 0, BuildingBlock: XOMCOT_clean_sbu_1, # of connection points: 5
#     Node 22, Type 0, BuildingBlock: XOMCOT_clean_sbu_1, # of connection points: 5
#     Node 23, Type 0, BuildingBlock: XOMCOT_clean_sbu_1, # of connection points: 5
#     Node 24, Type 0, BuildingBlock: XOMCOT_clean_sbu_1, # of connection points: 5
#     Node 25, Type 0, BuildingBlock: XOMCOT_clean_sbu_1, # of connection points: 5
#     Node 26, Type 0, BuildingBlock: XOMCOT_clean_sbu_1, # of connection points: 5
#     Node 27, Type 0, BuildingBlock: XOMCOT_clean_sbu_1, # of connection points: 5
#     Node 28, Type 0, BuildingBlock: XOMCOT_clean_sbu_1, # of connection points: 5
#     Node 29, Type 0, BuildingBlock: XOMCOT_clean_sbu_1, # of connection points: 5
#     Node 30, Type 0, BuildingBlock: XOMCOT_clean_sbu_1, # of connection points: 5
#     Node 31, Type 0, BuildingBlock: XOMCOT_clean_sbu_1, # of connection points: 5
#     Edge 32, Type (0, 0), BuildingBlock: TEMPAE_clean_linker_10, # of connection points: 2
#     Edge 33, Type (0, 0), BuildingBlock: TEMPAE_clean_linker_10, # of connection points: 2
#     Edge 34, Type (0, 0), BuildingBlock: TEMPAE_clean_linker_10, # of connection points: 2
#     Edge 35, Type (0, 0), BuildingBlock: TEMPAE_clean_linker_10, # of connection points: 2
#     Edge 36, Type (0, 0), BuildingBlock: TEMPAE_clean_linker_10, # of connection points: 2
#     Edge 37, Type (0, 0), BuildingBlock: TEMPAE_clean_linker_10, # of connection points: 2
#     Edge 38, Type (0, 0), BuildingBlock: TEMPAE_clean_linker_10, # of connection points: 2
#     Edge 39, Type (0, 0), BuildingBlock: TEMPAE_clean_linker_10, # of connection points: 2
#     Edge 40, Type (0, 0), BuildingBlock: TEMPAE_clean_linker_10, # of connection points: 2
#     Edge 41, Type (0, 0), BuildingBlock: TEMPAE_clean_linker_10, # of connection points: 2
#     Edge 42, Type (0, 0), BuildingBlock: TEMPAE_clean_linker_10, # of connection points: 2
#     Edge 43, Type (0, 0), BuildingBlock: TEMPAE_clean_linker_10, # of connection points: 2
#     Edge 44, Type (0, 0), BuildingBlock: TEMPAE_clean_linker_10, # of connection points: 2
#     Edge 45, Type (0, 0), BuildingBlock: TEMPAE_clean_linker_10, # of connection points: 2
#     Edge 46, Type (0, 0), BuildingBlock: TEMPAE_clean_linker_10, # of connection points: 2
#     Edge 47, Type (0, 0), BuildingBlock: TEMPAE_clean_linker_10, # of connection points: 2
#     Edge 48, Type (0, 0), BuildingBlock: TEMPAE_clean_linker_10, # of connection points: 2
#     Edge 49, Type (0, 0), BuildingBlock: TEMPAE_clean_linker_10, # of connection points: 2
#     Edge 50, Type (0, 0), BuildingBlock: TEMPAE_clean_linker_10, # of connection points: 2
#     Edge 51, Type (0, 0), BuildingBlock: TEMPAE_clean_linker_10, # of connection points: 2
#     Edge 52, Type (0, 0), BuildingBlock: TEMPAE_clean_linker_10, # of connection points: 2
#     Edge 53, Type (0, 0), BuildingBlock: TEMPAE_clean_linker_10, # of connection points: 2
#     Edge 54, Type (0, 0), BuildingBlock: TEMPAE_clean_linker_10, # of connection points: 2
#     Edge 55, Type (0, 0), BuildingBlock: TEMPAE_clean_linker_10, # of connection points: 2
#     Edge 56, Type (0, 0), BuildingBlock: TEMPAE_clean_linker_10, # of connection points: 2
#     Edge 57, Type (0, 0), BuildingBlock: TEMPAE_clean_linker_10, # of connection points: 2
#     Edge 58, Type (0, 0), BuildingBlock: TEMPAE_clean_linker_10, # of connection points: 2
#     Edge 59, Type (0, 0), BuildingBlock: TEMPAE_clean_linker_10, # of connection points: 2
#     Edge 60, Type (0, 0), BuildingBlock: TEMPAE_clean_linker_10, # of connection points: 2
#     Edge 61, Type (0, 0), BuildingBlock: TEMPAE_clean_linker_10, # of connection points: 2
#     Edge 62, Type (0, 0), BuildingBlock: TEMPAE_clean_linker_10, # of connection points: 2
#     Edge 63, Type (0, 0), BuildingBlock: TEMPAE_clean_linker_10, # of connection points: 2
#     Edge 64, Type (0, 0), BuildingBlock: TEMPAE_clean_linker_10, # of connection points: 2
#     Edge 65, Type (0, 0), BuildingBlock: TEMPAE_clean_linker_10, # of connection points: 2
#     Edge 66, Type (0, 0), BuildingBlock: TEMPAE_clean_linker_10, # of connection points: 2
#     Edge 67, Type (0, 0), BuildingBlock: TEMPAE_clean_linker_10, # of connection points: 2
#     Edge 68, Type (0, 0), BuildingBlock: TEMPAE_clean_linker_10, # of connection points: 2
#     Edge 69, Type (0, 0), BuildingBlock: TEMPAE_clean_linker_10, # of connection points: 2
#     Edge 70, Type (0, 0), BuildingBlock: TEMPAE_clean_linker_10, # of connection points: 2
#     Edge 71, Type (0, 0), BuildingBlock: TEMPAE_clean_linker_10, # of connection points: 2
#     Edge 72, Type (0, 0), BuildingBlock: TEMPAE_clean_linker_10, # of connection points: 2
#     Edge 73, Type (0, 0), BuildingBlock: TEMPAE_clean_linker_10, # of connection points: 2
#     Edge 74, Type (0, 0), BuildingBlock: TEMPAE_clean_linker_10, # of connection points: 2
#     Edge 75, Type (0, 0), BuildingBlock: TEMPAE_clean_linker_10, # of connection points: 2
#     Edge 76, Type (0, 0), BuildingBlock: TEMPAE_clean_linker_10, # of connection points: 2
#     Edge 77, Type (0, 0), BuildingBlock: TEMPAE_clean_linker_10, # of connection points: 2
#     Edge 78, Type (0, 0), BuildingBlock: TEMPAE_clean_linker_10, # of connection points: 2
#     Edge 79, Type (0, 0), BuildingBlock: TEMPAE_clean_linker_10, # of connection points: 2
#     Edge 80, Type (0, 0), BuildingBlock: TEMPAE_clean_linker_10, # of connection points: 2
#     Edge 81, Type (0, 0), BuildingBlock: TEMPAE_clean_linker_10, # of connection points: 2
#     Edge 82, Type (0, 0), BuildingBlock: TEMPAE_clean_linker_10, # of connection points: 2
#     Edge 83, Type (0, 0), BuildingBlock: TEMPAE_clean_linker_10, # of connection points: 2
#     Edge 84, Type (0, 0), BuildingBlock: TEMPAE_clean_linker_10, # of connection points: 2
#     Edge 85, Type (0, 0), BuildingBlock: TEMPAE_clean_linker_10, # of connection points: 2
#     Edge 86, Type (0, 0), BuildingBlock: TEMPAE_clean_linker_10, # of connection points: 2
#     Edge 87, Type (0, 0), BuildingBlock: TEMPAE_clean_linker_10, # of connection points: 2
#     Edge 88, Type (0, 0), BuildingBlock: TEMPAE_clean_linker_10, # of connection points: 2
#     Edge 89, Type (0, 0), BuildingBlock: TEMPAE_clean_linker_10, # of connection points: 2
#     Edge 90, Type (0, 0), BuildingBlock: TEMPAE_clean_linker_10, # of connection points: 2
#     Edge 91, Type (0, 0), BuildingBlock: TEMPAE_clean_linker_10, # of connection points: 2
#     Edge 92, Type (0, 0), BuildingBlock: TEMPAE_clean_linker_10, # of connection points: 2
#     Edge 93, Type (0, 0), BuildingBlock: TEMPAE_clean_linker_10, # of connection points: 2
#     Edge 94, Type (0, 0), BuildingBlock: TEMPAE_clean_linker_10, # of connection points: 2
#     Edge 95, Type (0, 0), BuildingBlock: TEMPAE_clean_linker_10, # of connection points: 2
#     Edge 96, Type (0, 0), BuildingBlock: TEMPAE_clean_linker_10, # of connection points: 2
#     Edge 97, Type (0, 0), BuildingBlock: TEMPAE_clean_linker_10, # of connection points: 2
#     Edge 98, Type (0, 0), BuildingBlock: TEMPAE_clean_linker_10, # of connection points: 2
#     Edge 99, Type (0, 0), BuildingBlock: TEMPAE_clean_linker_10, # of connection points: 2
#     Edge 100, Type (0, 0), BuildingBlock: TEMPAE_clean_linker_10, # of connection points: 2
#     Edge 101, Type (0, 0), BuildingBlock: TEMPAE_clean_linker_10, # of connection points: 2
#     Edge 102, Type (0, 0), BuildingBlock: TEMPAE_clean_linker_10, # of connection points: 2
#     Edge 103, Type (0, 0), BuildingBlock: TEMPAE_clean_linker_10, # of connection points: 2
#     Edge 104, Type (0, 0), BuildingBlock: TEMPAE_clean_linker_10, # of connection points: 2
#     Edge 105, Type (0, 0), BuildingBlock: TEMPAE_clean_linker_10, # of connection points: 2
#     Edge 106, Type (0, 0), BuildingBlock: TEMPAE_clean_linker_10, # of connection points: 2
#     Edge 107, Type (0, 0), BuildingBlock: TEMPAE_clean_linker_10, # of connection points: 2
#     Edge 108, Type (0, 0), BuildingBlock: TEMPAE_clean_linker_10, # of connection points: 2
#     Edge 109, Type (0, 0), BuildingBlock: TEMPAE_clean_linker_10, # of connection points: 2
#     Edge 110, Type (0, 0), BuildingBlock: TEMPAE_clean_linker_10, # of connection points: 2
#     Edge 111, Type (0, 0), BuildingBlock: TEMPAE_clean_linker_10, # of connection points: 2
# Relax obj value: 0.229
# Max RMSD: 0.261
# Mean RMSD: 0.261
data_MOF--net-wgs--node1-XOMCOT_clean_sbu_1--edge1-TEMPAE_clean_linker_10
_symmetry_space_group_name_H-M    P1
_symmetry_Int_Tables_number       1
_symmetry_cell_setting            triclinic
loop_
_symmetry_equiv_pos_as_xyz
'x, y, z'
_cell_length_a     30.652098
_cell_length_b     30.693722
_cell_length_c     140.3872
_cell_angle_alpha  89.968487
_cell_angle_beta   90.003624
_cell_angle_gamma 90.067849
loop_
_atom_site_label
_atom_site_type_symbol
_atom_site_fract_x
_atom_site_fract_y
_atom_site_fract_z
_atom_type_partial_charge
C0 C 0.27766 0.06576 0.33745 0.0
C1 C 0.27415 0.06811 0.34714 0.0
N2 N 0.31446 0.072 0.35086 0.0
N3 N 0.31996 0.06819 0.33491 0.0
C4 C 0.34183 0.07227 0.34327 0.0
H5 H 0.25079 0.06317 0.33249 0.0
Co6 Co 0.33472 0.06802 0.32193 0.0
C7 C 0.42832 0.09385 0.32756 0.0
O8 O 0.44373 0.06036 0.33231 0.0
N9 N 0.34848 0.06893 0.30873 0.0
C10 C 0.36062 0.09699 0.29433 0.0
C11 C 0.35837 0.10566 0.30385 0.0
C12 C 0.34484 0.03807 0.30186 0.0
N13 N 0.35179 0.05458 0.29306 0.0
O14 O 0.35772 0.0115 0.32317 0.0
H15 H 0.36001 0.13791 0.30685 0.0
H16 H 0.33465 0.00487 0.30315 0.0
O17 O 0.38962 0.09381 0.32432 0.0
C18 C 0.32364 0.98865 0.32185 0.0
O19 O 0.28703 0.00884 0.31977 0.0
N20 N 0.30861 0.1215 0.32074 0.0
C21 C 0.2609 0.19631 0.31768 0.0
C22 C 0.2997 0.19794 0.32299 0.0
C23 C 0.32304 0.15973 0.32455 0.0
C24 C 0.27088 0.11936 0.31566 0.0
C25 C 0.24654 0.15656 0.31398 0.0
H26 H 0.3522 0.16083 0.32887 0.0
H27 H 0.25991 0.08843 0.31285 0.0
H28 H 0.37686 0.07515 0.34383 0.0
H29 H 0.24398 0.06775 0.35115 0.0
H30 H 0.36631 0.12051 0.28871 0.0
H31 H 0.31108 0.22812 0.32613 0.0
H32 H 0.21668 0.15426 0.30988 0.0
C33 C 0.16968 0.03253 0.58756 0.0
C34 C 0.16338 0.02783 0.5972 0.0
N35 N 0.1584 0.06765 0.60104 0.0
N36 N 0.16808 0.07515 0.58525 0.0
C37 C 0.16194 0.09593 0.59368 0.0
H38 H 0.17355 0.00633 0.58249 0.0
Co39 Co 0.16651 0.09551 0.57261 0.0
C40 C 0.13876 0.18764 0.57678 0.0
O41 O 0.16968 0.20791 0.57204 0.0
N42 N 0.16406 0.11513 0.5599 0.0
C43 C 0.13967 0.14363 0.54634 0.0
C44 C 0.13309 0.14079 0.556 0.0
C45 C 0.18865 0.10219 0.55239 0.0
N46 N 0.17452 0.11908 0.54403 0.0
O47 O 0.22144 0.12207 0.57427 0.0
H48 H 0.10615 0.15519 0.55983 0.0
H49 H 0.21512 0.07914 0.55295 0.0
O50 O 0.13728 0.14629 0.57693 0.0
C51 C 0.24781 0.09195 0.572 0.0
O52 O 0.23224 0.05353 0.56964 0.0
N53 N 0.11442 0.06627 0.5708 0.0
C54 C 0.04484 0.00878 0.56974 0.0
C55 C 0.03907 0.0509 0.57342 0.0
C56 C 0.07443 0.0791 0.57398 0.0
C57 C 0.12001 0.02668 0.56661 0.0
C58 C 0.0856 -0.00287 0.56605 0.0
H59 H 0.06949 0.11042 0.57722 0.0
H60 H 0.15203 0.01724 0.56412 0.0
H61 H 0.15824 0.13081 0.5944 0.0
H62 H 0.16203 -0.0026 0.60109 0.0
H63 H 0.11981 0.16201 0.5414 0.0
H64 H 0.00767 0.06169 0.57605 0.0
H65 H 0.09133 0.965 0.56312 0.0
C66 C 0.20198 0.92607 0.83748 0.0
C67 C 0.20708 0.92484 0.84719 0.0
N68 N 0.16759 0.91903 0.85121 0.0
N69 N 0.15942 0.92137 0.83531 0.0
C70 C 0.13914 0.91719 0.84386 0.0
H71 H 0.22794 0.9284 0.83229 0.0
Co72 Co 0.13896 0.91519 0.82277 0.0
C73 C 0.04532 0.89008 0.82649 0.0
O74 O 0.02694 0.91699 0.82042 0.0
N75 N 0.11895 0.90865 0.81011 0.0
C76 C 0.09182 0.88069 0.79673 0.0
C77 C 0.09644 0.87482 0.8064 0.0
C78 C 0.12789 0.93437 0.80252 0.0
N79 N 0.11174 0.91822 0.79429 0.0
O80 O 0.11642 0.9728 0.82313 0.0
H81 H 0.08519 0.84691 0.81042 0.0
H82 H 0.14761 0.96348 0.80288 0.0
O83 O 0.08652 0.8898 0.82748 0.0
C84 C 0.15007 -0.00546 0.82068 0.0
O85 O 0.1862 0.97297 0.81888 0.0
N86 N 0.16486 0.86078 0.82226 0.0
C87 C 0.21922 0.7885 0.82278 0.0
C88 C 0.18536 0.7932 0.82943 0.0
C89 C 0.15836 0.82951 0.82901 0.0
C90 C 0.19702 0.85658 0.81564 0.0
C91 C 0.22411 0.82026 0.81566 0.0
H92 H 0.13432 0.83381 0.83452 0.0
H93 H 0.20265 0.8823 0.81052 0.0
H94 H 0.10443 0.91211 0.84468 0.0
H95 H 0.23776 0.92637 0.851 0.0
H96 H 0.0754 0.85877 0.79187 0.0
H97 H 0.18077 0.77012 0.83518 0.0
H98 H 0.24912 0.81763 0.81025 0.0
C99 C 0.29 0.94713 0.08744 0.0
C100 C 0.28898 0.95072 0.0972 0.0
N101 N 0.3041 0.9133 0.10094 0.0
N102 N 0.30529 0.90746 0.08504 0.0
C103 C 0.31358 0.88754 0.09345 0.0
H104 H 0.28116 0.97223 0.08239 0.0
Co105 Co 0.31461 0.88911 0.07254 0.0
C106 C 0.33977 0.79662 0.07594 0.0
O107 O 0.31126 0.77964 0.07001 0.0
N108 N 0.32404 0.87125 0.05988 0.0
C109 C 0.35593 0.84747 0.04663 0.0
C110 C 0.35932 0.85033 0.05638 0.0
C111 C 0.2999 0.88096 0.05209 0.0
N112 N 0.31851 0.86686 0.04394 0.0
O113 O 0.25927 0.86172 0.07259 0.0
H114 H 0.38661 0.83919 0.06061 0.0
H115 H 0.27027 0.89988 0.05227 0.0
O116 O 0.3418 0.8376 0.07707 0.0
C117 C 0.23156 0.88974 0.06988 0.0
O118 O 0.24489 0.92927 0.06776 0.0
N119 N 0.36799 0.9181 0.07249 0.0
C120 C 0.44514 0.96585 0.07186 0.0
C121 C 0.4396 0.93232 0.07854 0.0
C122 C 0.40072 0.90893 0.07876 0.0
C123 C 0.37222 0.9512 0.06609 0.0
C124 C 0.41077 0.97528 0.06558 0.0
H125 H 0.39679 0.88411 0.08412 0.0
H126 H 0.34554 0.95878 0.06133 0.0
H127 H 0.32646 0.85498 0.09415 0.0
H128 H 0.27929 0.97911 0.10126 0.0
H129 H 0.37947 0.83276 0.04187 0.0
H130 H 0.46477 0.92467 0.08369 0.0
H131 H 0.4137 0.00075 0.06028 0.0
C132 C 0.29059 0.95749 0.18244 0.0
C133 C 0.2937 0.95664 0.17271 0.0
N134 N 0.32442 0.92749 0.17031 0.0
N135 N 0.31982 0.92954 0.18623 0.0
C136 C 0.33961 0.91107 0.17859 0.0
H137 H 0.26781 0.97698 0.18646 0.0
Co138 Co 0.32662 0.92022 0.19931 0.0
C139 C 0.41752 0.89423 0.20164 0.0
O140 O 0.42212 0.9206 0.20894 0.0
N141 N 0.33265 0.91023 0.2127 0.0
C142 C 0.33501 0.87647 0.22681 0.0
C143 C 0.33409 0.87091 0.21711 0.0
C144 C 0.33416 0.93913 0.22001 0.0
N145 N 0.33526 0.91936 0.22856 0.0
O146 O 0.35374 0.97538 0.20039 0.0
H147 H 0.33422 0.83974 0.21356 0.0
H148 H 0.33382 0.97408 0.21926 0.0
O149 O 0.38155 0.89251 0.19714 0.0
C150 C 0.32255 0.00112 0.20233 0.0
O151 O 0.28355 0.98437 0.20375 0.0
N152 N 0.29658 0.86858 0.19813 0.0
C153 C 0.24395 0.79578 0.19928 0.0
C154 C 0.28688 0.79215 0.19592 0.0
C155 C 0.31274 0.82934 0.19524 0.0
C156 C 0.25432 0.87293 0.20094 0.0
C157 C 0.22718 0.83675 0.20155 0.0
H158 H 0.34591 0.82612 0.19276 0.0
H159 H 0.24221 0.90457 0.20303 0.0
H160 H 0.36452 0.88622 0.17906 0.0
H161 H 0.27424 0.97529 0.16773 0.0
H162 H 0.33572 0.85112 0.23218 0.0
H163 H 0.30034 0.76081 0.19394 0.0
H164 H 0.194 0.84049 0.20407 0.0
C165 C 0.31968 0.03107 0.43451 0.0
C166 C 0.32664 0.02718 0.42492 0.0
N167 N 0.33078 0.06738 0.4212 0.0
N168 N 0.31921 0.07355 0.43695 0.0
C169 C 0.32576 0.09508 0.42862 0.0
H170 H 0.31711 0.00439 0.43952 0.0
Co171 Co 0.31837 0.08925 0.44994 0.0
C172 C 0.3318 0.18263 0.44385 0.0
O173 O 0.29496 0.19013 0.43937 0.0
N174 N 0.31818 0.10394 0.46296 0.0
C175 C 0.34091 0.13036 0.47686 0.0
C176 C 0.35091 0.12531 0.46741 0.0
C177 C 0.28901 0.09525 0.46997 0.0
N178 N 0.30207 0.11138 0.47848 0.0
O179 O 0.26064 0.10878 0.44872 0.0
H180 H 0.38093 0.13543 0.46403 0.0
H181 H 0.25881 0.07766 0.46889 0.0
O182 O 0.34036 0.14556 0.44739 0.0
C183 C 0.23747 0.07459 0.44908 0.0
O184 O 0.25655 0.03705 0.45077 0.0
N185 N 0.37417 0.06761 0.45105 0.0
C186 C 0.44927 0.01756 0.45009 0.0
C187 C 0.44449 0.05476 0.44434 0.0
C188 C 0.40695 0.07985 0.44505 0.0
C189 C 0.37864 0.03276 0.45694 0.0
C190 C 0.41647 0.00794 0.45676 0.0
H191 H 0.4028 0.10699 0.44023 0.0
H192 H 0.35192 0.02312 0.46152 0.0
H193 H 0.32926 0.12999 0.42803 0.0
H194 H 0.32905 -0.00305 0.42098 0.0
H195 H 0.36113 0.14582 0.4822 0.0
H196 H 0.46826 0.06345 0.43897 0.0
H197 H 0.41916 0.98073 0.46163 0.0
C198 C 0.20181 0.03542 0.68469 0.0
C199 C 0.20463 0.03606 0.67496 0.0
N200 N 0.16675 0.05118 0.67137 0.0
N201 N 0.1624 0.05011 0.68739 0.0
C202 C 0.14149 0.05957 0.67911 0.0
H203 H 0.22761 0.02637 0.68955 0.0
Co204 Co 0.15101 0.05743 0.70044 0.0
C205 C 0.06135 0.0991 0.69707 0.0
O206 O 0.03533 0.06508 0.69728 0.0
N207 N 0.14041 0.06448 0.71367 0.0
C208 C 0.12036 0.09312 0.7276 0.0
C209 C 0.1249 0.10067 0.718 0.0
C210 C 0.1462 0.03579 0.72091 0.0
N211 N 0.13386 0.05236 0.72938 0.0
O212 O 0.11611 0.00619 0.70037 0.0
H213 H 0.11742 0.13086 0.71444 0.0
H214 H 0.15859 0.00316 0.72008 0.0
O215 O 0.10227 0.09436 0.69801 0.0
C216 C 0.14239 0.97529 0.70216 0.0
O217 O 0.18391 0.98436 0.70341 0.0
N218 N 0.18709 0.10622 0.70046 0.0
C219 C 0.23812 0.18063 0.70146 0.0
C220 C 0.20526 0.177 0.69459 0.0
C221 C 0.1804 0.13934 0.69415 0.0
C222 C 0.22099 0.10771 0.70674 0.0
C223 C 0.24693 0.14502 0.70741 0.0
H224 H 0.15489 0.13742 0.68886 0.0
H225 H 0.22708 0.08039 0.71142 0.0
H226 H 0.10896 0.07313 0.67877 0.0
H227 H 0.23332 0.02758 0.67088 0.0
H228 H 0.10816 0.11573 0.73288 0.0
H229 H 0.19836 0.20337 0.68968 0.0
H230 H 0.27248 0.14655 0.71273 0.0
C231 C 0.16412 0.96218 0.93384 0.0
C232 C 0.15599 0.96245 0.92426 0.0
N233 N 0.15195 0.92099 0.92129 0.0
N234 N 0.16509 0.92077 0.93704 0.0
C235 C 0.15799 0.89611 0.92916 0.0
H236 H 0.16801 0.99064 0.9383 0.0
Co237 Co 0.16939 0.91032 0.95022 0.0
C238 C 0.14239 0.8168 0.94649 0.0
O239 O 0.1777 0.80206 0.94229 0.0
N240 N 0.17278 0.90067 0.96342 0.0
C241 C 0.15212 0.884 0.97819 0.0
C242 C 0.13855 0.88923 0.96897 0.0
C243 C 0.20692 0.90303 0.96954 0.0
N244 N 0.19495 0.89269 0.97852 0.0
O245 O 0.22431 0.8829 0.94863 0.0
H246 H 0.10536 0.886 0.96653 0.0
H247 H 0.23973 0.91204 0.96749 0.0
O248 O 0.13972 0.85624 0.94915 0.0
C249 C 0.25402 0.91088 0.94706 0.0
O250 O 0.24299 0.952 0.94613 0.0
N251 N 0.11684 0.9395 0.95187 0.0
C252 C 0.04318 0.9907 0.95416 0.0
C253 C 0.04013 0.94977 0.94979 0.0
C254 C 0.07758 0.92483 0.94857 0.0
C255 C 0.12037 0.97906 0.95619 0.0
C256 C 0.0838 0.00545 0.95738 0.0
H257 H 0.07496 0.89431 0.94479 0.0
H258 H 0.15198 0.99035 0.95857 0.0
H259 H 0.1557 0.86099 0.92918 0.0
H260 H 0.1532 0.99104 0.91978 0.0
H261 H 0.13205 0.8752 0.98424 0.0
H262 H 0.0093 0.93785 0.94705 0.0
H263 H 0.08722 0.03704 0.96073 0.0
C264 C 0.70515 0.92609 0.68531 0.0
C265 C 0.70751 0.92407 0.67559 0.0
N266 N 0.66696 0.91849 0.67209 0.0
N267 N 0.66337 0.92155 0.68808 0.0
C268 C 0.64056 0.91681 0.67985 0.0
H269 H 0.73246 0.92964 0.69012 0.0
Co270 Co 0.65009 0.92021 0.70115 0.0
C271 C 0.55891 0.88144 0.69749 0.0
O272 O 0.53412 0.91586 0.69626 0.0
N273 N 0.63742 0.91858 0.71432 0.0
C274 C 0.62109 0.8914 0.72855 0.0
C275 C 0.62543 0.88227 0.71906 0.0
C276 C 0.64004 0.94966 0.72118 0.0
N277 N 0.62999 0.93394 0.72995 0.0
O278 O 0.61865 0.97289 0.69992 0.0
H279 H 0.6216 0.85051 0.7159 0.0
H280 H 0.64934 0.98302 0.71976 0.0
O281 O 0.59952 0.88567 0.69904 0.0
C282 C 0.64872 0.00139 0.70004 0.0
O283 O 0.68921 0.98883 0.70141 0.0
N284 N 0.68363 0.86996 0.70229 0.0
C285 C 0.73612 0.79724 0.70405 0.0
C286 C 0.7014 0.79729 0.69761 0.0
C287 C 0.67611 0.83449 0.69667 0.0
C288 C 0.71835 0.87102 0.70836 0.0
C289 C 0.74526 0.83464 0.70937 0.0
H290 H 0.65045 0.83479 0.69139 0.0
H291 H 0.72509 0.90019 0.71242 0.0
H292 H 0.60558 0.91226 0.67955 0.0
H293 H 0.73722 0.9256 0.67144 0.0
H294 H 0.61337 0.86779 0.73402 0.0
H295 H 0.69436 0.76901 0.69325 0.0
H296 H 0.77256 0.83555 0.71426 0.0
C297 C 0.81562 0.9523 0.43623 0.0
C298 C 0.81845 0.95837 0.42659 0.0
N299 N 0.82395 0.91928 0.42239 0.0
N300 N 0.81939 0.90959 0.43823 0.0
C301 C 0.82469 0.89006 0.42964 0.0
H302 H 0.81194 0.97762 0.44152 0.0
Co303 Co 0.82 0.89035 0.45085 0.0
C304 C 0.83222 0.79688 0.4491 0.0
O305 O 0.79662 0.79067 0.45412 0.0
N306 N 0.82147 0.87234 0.46371 0.0
C307 C 0.84692 0.84634 0.47745 0.0
C308 C 0.85529 0.85166 0.46791 0.0
C309 C 0.79363 0.88078 0.47097 0.0
N310 N 0.80825 0.86494 0.47935 0.0
O311 O 0.76336 0.8683 0.44938 0.0
H312 H 0.88507 0.84249 0.46431 0.0
H313 H 0.76362 0.89886 0.47026 0.0
O314 O 0.84473 0.83546 0.44708 0.0
C315 C 0.7382 0.89924 0.45168 0.0
O316 O 0.75515 0.93693 0.45416 0.0
N317 N 0.87366 0.91561 0.4524 0.0
C318 C 0.94477 0.97 0.45381 0.0
C319 C 0.94742 0.93186 0.44835 0.0
C320 C 0.91101 0.90476 0.4477 0.0
C321 C 0.87124 0.95192 0.45794 0.0
C322 C 0.90675 0.97966 0.4588 0.0
H323 H 0.91212 0.87652 0.44311 0.0
H324 H 0.8408 0.96023 0.46138 0.0
H325 H 0.82886 0.85531 0.42871 0.0
H326 H 0.81736 0.98946 0.42296 0.0
H327 H 0.86834 0.8316 0.48267 0.0
H328 H 0.97672 0.92408 0.44439 0.0
H329 H 0.90402 0.00916 0.46299 0.0
C330 C 0.7752 0.0515 0.18362 0.0
C331 C 0.77352 0.05618 0.17391 0.0
N332 N 0.81367 0.06656 0.17076 0.0
N333 N 0.81623 0.05881 0.18667 0.0
C334 C 0.83928 0.06743 0.17862 0.0
H335 H 0.74764 0.04545 0.18824 0.0
Co336 Co 0.8288 0.06389 0.19975 0.0
C337 C 0.92192 0.09729 0.19512 0.0
O338 O 0.94508 0.06223 0.19335 0.0
N339 N 0.84149 0.06958 0.21291 0.0
C340 C 0.85985 0.10046 0.22667 0.0
C341 C 0.85367 0.10718 0.21713 0.0
C342 C 0.84063 0.04024 0.22014 0.0
N343 N 0.8519 0.05824 0.22861 0.0
O344 O 0.85605 0.00844 0.19961 0.0
H345 H 0.85666 0.13814 0.21358 0.0
H346 H 0.83219 0.00631 0.21924 0.0
O347 O 0.88171 0.09417 0.19719 0.0
C348 C 0.82363 0.98295 0.20076 0.0
O349 O 0.78473 0.0001 0.20197 0.0
N350 N 0.7985 0.11635 0.19991 0.0
C351 C 0.74932 0.19212 0.20087 0.0
C352 C 0.78362 0.18842 0.19431 0.0
C353 C 0.80748 0.14994 0.19385 0.0
C354 C 0.76406 0.11852 0.20601 0.0
C355 C 0.73932 0.15641 0.20671 0.0
H356 H 0.8333 0.14724 0.18865 0.0
H357 H 0.75621 0.09085 0.21047 0.0
H358 H 0.87328 0.07684 0.17854 0.0
H359 H 0.74464 0.05332 0.16952 0.0
H360 H 0.8684 0.12528 0.23181 0.0
H361 H 0.79161 0.21478 0.18948 0.0
H362 H 0.71302 0.15787 0.21185 0.0
C363 C 0.68531 0.00796 0.93569 0.0
C364 C 0.68568 0.00662 0.92592 0.0
N365 N 0.67262 0.04565 0.92259 0.0
N366 N 0.67224 0.04771 0.93856 0.0
C367 C 0.66453 0.07009 0.93041 0.0
H368 H 0.69402 0.98163 0.94045 0.0
Co369 Co 0.66818 0.06381 0.95138 0.0
C370 C 0.6211 0.14765 0.94967 0.0
O371 O 0.65308 0.17027 0.95347 0.0
N372 N 0.66426 0.07995 0.96427 0.0
C373 C 0.63659 0.09852 0.97831 0.0
C374 C 0.62746 0.09174 0.96886 0.0
C375 C 0.69538 0.07952 0.97112 0.0
N376 N 0.6793 0.09059 0.97977 0.0
O377 O 0.71564 0.10292 0.94964 0.0
H378 H 0.59558 0.09418 0.96561 0.0
H379 H 0.7288 0.06983 0.96987 0.0
O380 O 0.6256 0.10706 0.94823 0.0
C381 C 0.74914 0.0787 0.95017 0.0
O382 O 0.74396 0.03702 0.95199 0.0
N383 N 0.6236 0.02319 0.9531 0.0
C384 C 0.5562 0.96548 0.95668 0.0
C385 C 0.5534 -0.00519 0.9491 0.0
C386 C 0.58773 0.02319 0.94735 0.0
C387 C 0.62802 -0.00707 0.96017 0.0
C388 C 0.59412 0.96386 0.96219 0.0
H389 H 0.58524 0.04552 0.94143 0.0
H390 H 0.65743 -0.00781 0.96442 0.0
H391 H 0.65392 0.1037 0.93019 0.0
H392 H 0.69447 0.97885 0.92158 0.0
H393 H 0.61334 0.10838 0.98369 0.0
H394 H 0.52448 -0.00375 0.94466 0.0
H395 H 0.59713 0.94107 0.96804 0.0
C396 C 0.70539 0.0409 0.83981 0.0
C397 C 0.7067 0.04176 0.8496 0.0
N398 N 0.66681 0.05258 0.85279 0.0
N399 N 0.66499 0.05182 0.83686 0.0
C400 C 0.64189 0.0581 0.84497 0.0
H401 H 0.73269 0.03501 0.8351 0.0
Co402 Co 0.65033 0.06241 0.82414 0.0
C403 C 0.5624 0.10202 0.82719 0.0
O404 O 0.54037 0.06981 0.82333 0.0
N405 N 0.63548 0.07284 0.81126 0.0
C406 C 0.61429 0.10622 0.79797 0.0
C407 C 0.61891 0.11015 0.80766 0.0
C408 C 0.64129 0.04697 0.80355 0.0
N409 N 0.62848 0.06649 0.79537 0.0
O410 O 0.61474 0.01197 0.82431 0.0
H411 H 0.61185 0.13908 0.81177 0.0
H412 H 0.65485 0.01453 0.80387 0.0
O413 O 0.6036 0.09946 0.828 0.0
C414 C 0.64078 0.98111 0.82239 0.0
O415 O 0.68175 0.99036 0.82051 0.0
N416 N 0.68754 0.11083 0.82405 0.0
C417 C 0.73807 0.18598 0.82313 0.0
C418 C 0.71035 0.17846 0.83088 0.0
C419 C 0.68526 0.14091 0.83118 0.0
C420 C 0.71728 0.11547 0.81689 0.0
C421 C 0.74249 0.15332 0.8162 0.0
H422 H 0.66328 0.13656 0.83711 0.0
H423 H 0.72034 0.09052 0.8115 0.0
H424 H 0.60837 0.0691 0.84517 0.0
H425 H 0.73507 0.03646 0.85404 0.0
H426 H 0.60265 0.13123 0.79316 0.0
H427 H 0.7072 0.20191 0.83661 0.0
H428 H 0.76388 0.15757 0.81013 0.0
C429 C 0.67177 0.9502 0.58873 0.0
C430 C 0.66444 0.9544 0.59832 0.0
N431 N 0.65612 0.91467 0.60193 0.0
N432 N 0.66831 0.90797 0.5862 0.0
C433 C 0.65893 0.88688 0.59447 0.0
H434 H 0.67672 0.97677 0.58379 0.0
Co435 Co 0.66628 0.89284 0.57322 0.0
C436 C 0.65736 0.79908 0.57945 0.0
O437 O 0.69449 0.7935 0.58395 0.0
N438 N 0.66328 0.87846 0.56014 0.0
C439 C 0.63702 0.85273 0.54649 0.0
C440 C 0.62995 0.85649 0.5561 0.0
C441 C 0.68992 0.88844 0.55275 0.0
N442 N 0.67473 0.87307 0.54434 0.0
O443 O 0.72527 0.87542 0.57356 0.0
H444 H 0.60148 0.84486 0.55987 0.0
H445 H 0.71924 0.9077 0.55343 0.0
O446 O 0.64694 0.83566 0.5759 0.0
C447 C 0.74612 0.90993 0.57148 0.0
O448 O 0.72384 0.946 0.57014 0.0
N449 N 0.60978 0.91311 0.57279 0.0
C450 C 0.53348 0.96129 0.57373 0.0
C451 C 0.53816 0.92305 0.57915 0.0
C452 C 0.57672 0.8991 0.57853 0.0
C453 C 0.60519 0.94898 0.56721 0.0
C454 C 0.56695 0.97301 0.56741 0.0
H455 H 0.58098 0.87099 0.58308 0.0
H456 H 0.63212 0.95988 0.56284 0.0
H457 H 0.65129 0.85259 0.59497 0.0
H458 H 0.66419 0.98459 0.6023 0.0
H459 H 0.6158 0.83615 0.54152 0.0
H460 H 0.51333 0.91279 0.58416 0.0
H461 H 0.56429 0.00129 0.56283 0.0
C462 C 0.7838 0.92906 0.33872 0.0
C463 C 0.78061 0.92417 0.34841 0.0
N464 N 0.82086 0.91738 0.35194 0.0
N465 N 0.82588 0.92514 0.33607 0.0
C466 C 0.84798 0.91888 0.34434 0.0
H467 H 0.7568 0.93271 0.33383 0.0
Co468 Co 0.84193 0.92088 0.32314 0.0
C469 C 0.93446 0.88312 0.32882 0.0
O470 O 0.96164 0.91406 0.3314 0.0
N471 N 0.8582 0.91678 0.31005 0.0
C472 C 0.88418 0.88989 0.29646 0.0
C473 C 0.87932 0.88289 0.30603 0.0
C474 C 0.85057 0.94418 0.30264 0.0
N475 N 0.86624 0.92859 0.29428 0.0
O476 O 0.8662 0.97732 0.32382 0.0
H477 H 0.88979 0.8541 0.3097 0.0
H478 H 0.83382 0.97495 0.30331 0.0
O479 O 0.89577 0.89284 0.32632 0.0
C480 C 0.83192 -0.00074 0.32199 0.0
O481 O 0.79592 0.97792 0.31988 0.0
N482 N 0.81367 0.86737 0.32249 0.0
C483 C 0.76168 0.79339 0.32208 0.0
C484 C 0.79184 0.79964 0.32945 0.0
C485 C 0.81729 0.83703 0.32956 0.0
C486 C 0.78335 0.86263 0.31547 0.0
C487 C 0.75755 0.8254 0.31502 0.0
H488 H 0.84033 0.84138 0.3353 0.0
H489 H 0.77868 0.88811 0.31026 0.0
H490 H 0.88263 0.9125 0.34474 0.0
H491 H 0.75075 0.9243 0.35253 0.0
H492 H 0.89881 0.86736 0.29148 0.0
H493 H 0.7954 0.77618 0.33516 0.0
H494 H 0.73461 0.82183 0.30921 0.0
C495 C 0.81962 0.03204 0.08623 0.0
C496 C 0.8218 0.02468 0.09586 0.0
N497 N 0.82414 0.06342 0.10037 0.0
N498 N 0.82061 0.07522 0.08458 0.0
C499 C 0.82323 0.09364 0.09334 0.0
H500 H 0.81885 0.00742 0.08072 0.0
Co501 Co 0.82344 0.09887 0.0723 0.0
C502 C 0.84368 0.19212 0.07797 0.0
O503 O 0.81183 0.21193 0.07345 0.0
N504 N 0.82644 0.12191 0.05984 0.0
C505 C 0.84367 0.15978 0.04681 0.0
C506 C 0.85161 0.15455 0.0564 0.0
C507 C 0.80468 0.10694 0.0521 0.0
N508 N 0.81437 0.12956 0.04414 0.0
O509 O 0.76551 0.1195 0.07356 0.0
H510 H 0.87525 0.1728 0.06048 0.0
H511 H 0.78237 0.07967 0.05222 0.0
O512 O 0.84772 0.151 0.07745 0.0
C513 C 0.74211 0.0876 0.07083 0.0
O514 O 0.76128 0.05116 0.06828 0.0
N515 N 0.87861 0.07525 0.07093 0.0
C516 C 0.95148 0.02168 0.07068 0.0
C517 C 0.94889 0.05661 0.0771 0.0
C518 C 0.91202 0.08301 0.07712 0.0
C519 C 0.88124 0.04259 0.06441 0.0
C520 C 0.91767 0.01564 0.06408 0.0
H521 H 0.90911 0.10735 0.0826 0.0
H522 H 0.85388 0.0359 0.05977 0.0
H523 H 0.82479 0.1284 0.09454 0.0
H524 H 0.82297 -0.00695 0.09926 0.0
H525 H 0.85917 0.18302 0.04209 0.0
H526 H 0.97389 0.06205 0.08242 0.0
H527 H 0.91869 0.98949 0.05891 0.0
C528 C 0.78152 0.57137 0.8367 0.0
C529 C 0.77533 0.57419 0.84638 0.0
N530 N 0.81464 0.57703 0.85063 0.0
N531 N 0.82456 0.57225 0.83478 0.0
C532 C 0.84402 0.57565 0.84344 0.0
H533 H 0.75617 0.56988 0.83135 0.0
Co534 Co 0.84706 0.57346 0.82235 0.0
C535 C 0.94157 0.59032 0.82708 0.0
O536 O 0.95901 0.55929 0.82189 0.0
N537 N 0.86892 0.57525 0.80979 0.0
C538 C 0.90467 0.5941 0.79661 0.0
C539 C 0.89935 0.60249 0.80616 0.0
C540 C 0.85524 0.55167 0.8022 0.0
N541 N 0.87673 0.56225 0.79413 0.0
O542 O 0.86612 0.51515 0.82366 0.0
H543 H 0.9159 0.62779 0.81012 0.0
H544 H 0.82976 0.52738 0.80251 0.0
O545 O 0.90049 0.59569 0.82721 0.0
C546 C 0.83391 0.49196 0.82102 0.0
O547 O 0.79727 0.51135 0.81865 0.0
N548 N 0.8251 0.62905 0.82088 0.0
C549 C 0.77432 0.70348 0.82019 0.0
C550 C 0.8134 0.70327 0.82538 0.0
C551 C 0.83826 0.6653 0.82573 0.0
C552 C 0.78863 0.62962 0.81536 0.0
C553 C 0.7626 0.6666 0.81492 0.0
H554 H 0.86639 0.66456 0.83032 0.0
H555 H 0.77848 0.60029 0.81171 0.0
H556 H 0.87894 0.57692 0.84448 0.0
H557 H 0.74417 0.57519 0.85 0.0
H558 H 0.9264 0.61105 0.79178 0.0
H559 H 0.82318 0.73121 0.82958 0.0
H560 H 0.73277 0.66589 0.81078 0.0
C561 C 0.67351 0.5326 0.08724 0.0
C562 C 0.66926 0.52705 0.09691 0.0
N563 N 0.66432 0.56651 0.10095 0.0
N564 N 0.67079 0.57535 0.08514 0.0
C565 C 0.66591 0.59539 0.09368 0.0
H566 H 0.67615 0.50694 0.08199 0.0
Co567 Co 0.6652 0.59625 0.07267 0.0
C568 C 0.63802 0.68717 0.07679 0.0
O569 O 0.66822 0.70569 0.07151 0.0
N570 N 0.65881 0.61664 0.06007 0.0
C571 C 0.62913 0.64354 0.04685 0.0
C572 C 0.62435 0.63873 0.05653 0.0
C573 C 0.68376 0.60785 0.05234 0.0
N574 N 0.66649 0.62393 0.04419 0.0
O575 O 0.71956 0.62453 0.07378 0.0
H576 H 0.59641 0.64908 0.06065 0.0
H577 H 0.71356 0.58918 0.05262 0.0
O578 O 0.63566 0.64595 0.07737 0.0
C579 C 0.74731 0.59623 0.07124 0.0
O580 O 0.73366 0.55733 0.0687 0.0
N581 N 0.61325 0.56578 0.07153 0.0
C582 C 0.54369 0.50809 0.07085 0.0
C583 C 0.54279 0.54393 0.07703 0.0
C584 C 0.57808 0.57239 0.07731 0.0
C585 C 0.61441 0.53158 0.06536 0.0
C586 C 0.57961 0.5024 0.06483 0.0
H587 H 0.57778 0.59843 0.08246 0.0
H588 H 0.64315 0.5262 0.06105 0.0
H589 H 0.66125 0.6301 0.09454 0.0
H590 H 0.66896 0.49628 0.10069 0.0
H591 H 0.60582 0.65865 0.04211 0.0
H592 H 0.51524 0.5496 0.0817 0.0
H593 H 0.58134 0.47498 0.05999 0.0
C594 C 0.69487 0.44253 0.33803 0.0
C595 C 0.6988 0.4405 0.3477 0.0
N596 N 0.66147 0.42443 0.3514 0.0
N597 N 0.6554 0.42767 0.33541 0.0
C598 C 0.6356 0.41646 0.34372 0.0
H599 H 0.72033 0.45215 0.33313 0.0
Co600 Co 0.64514 0.42027 0.32238 0.0
C601 C 0.5523 0.39351 0.32727 0.0
O602 O 0.53635 0.42837 0.33142 0.0
N603 N 0.63608 0.41206 0.30901 0.0
C604 C 0.63054 0.37953 0.29485 0.0
C605 C 0.63426 0.37321 0.3045 0.0
C606 C 0.63261 0.44148 0.30183 0.0
N607 N 0.6297 0.42267 0.29313 0.0
O608 O 0.61762 0.47491 0.32193 0.0
H609 H 0.63661 0.34178 0.30792 0.0
H610 H 0.63213 0.47617 0.30287 0.0
O611 O 0.59152 0.39233 0.3244 0.0
C612 C 0.64808 0.50119 0.31982 0.0
O613 O 0.68709 0.48572 0.31793 0.0
N614 N 0.67524 0.36843 0.32309 0.0
C615 C 0.73264 0.29955 0.32547 0.0
C616 C 0.68906 0.29597 0.32848 0.0
C617 C 0.66092 0.33116 0.32737 0.0
C618 C 0.71706 0.37233 0.31998 0.0
C619 C 0.74647 0.33833 0.32114 0.0
H620 H 0.62813 0.32853 0.33011 0.0
H621 H 0.72785 0.40266 0.31684 0.0
H622 H 0.60363 0.40168 0.34413 0.0
H623 H 0.72808 0.44852 0.35162 0.0
H624 H 0.63003 0.35402 0.28955 0.0
H625 H 0.67673 0.26631 0.33169 0.0
H626 H 0.77987 0.34274 0.31882 0.0
C627 C 0.81133 0.4535 0.58692 0.0
C628 C 0.81628 0.46002 0.59654 0.0
N629 N 0.82253 0.42106 0.60074 0.0
N630 N 0.81458 0.41063 0.58501 0.0
C631 C 0.82081 0.39152 0.59361 0.0
H632 H 0.80758 0.4786 0.58158 0.0
Co633 Co 0.81855 0.38922 0.5726 0.0
C634 C 0.83875 0.29539 0.57601 0.0
O635 O 0.81038 0.27991 0.56987 0.0
N636 N 0.82332 0.3687 0.56 0.0
C637 C 0.85123 0.34165 0.54663 0.0
C638 C 0.85717 0.34634 0.55628 0.0
C639 C 0.79751 0.3776 0.55242 0.0
N640 N 0.81366 0.36149 0.54417 0.0
O641 O 0.76102 0.3673 0.57354 0.0
H642 H 0.88533 0.33551 0.56027 0.0
H643 H 0.7678 0.39626 0.55289 0.0
O644 O 0.84208 0.33621 0.57731 0.0
C645 C 0.73531 0.39768 0.57107 0.0
O646 O 0.75171 0.43531 0.56839 0.0
N647 N 0.87379 0.41353 0.57169 0.0
C648 C 0.94881 0.46401 0.57154 0.0
C649 C 0.94736 0.42526 0.5768 0.0
C650 C 0.90918 0.40065 0.57689 0.0
C651 C 0.87521 0.45021 0.56626 0.0
C652 C 0.91252 0.47611 0.56609 0.0
H653 H 0.90772 0.37265 0.5815 0.0
H654 H 0.8465 0.46025 0.56235 0.0
H655 H 0.82605 0.35699 0.5946 0.0
H656 H 0.81598 0.49116 0.60015 0.0
H657 H 0.87389 0.32631 0.54177 0.0
H658 H 0.97468 0.41523 0.58118 0.0
H659 H 0.91271 0.50576 0.5619 0.0
C660 C 0.77841 0.41198 0.68504 0.0
C661 C 0.77418 0.41032 0.67535 0.0
N662 N 0.81426 0.41119 0.67144 0.0
N663 N 0.821 0.41368 0.68739 0.0
C664 C 0.84231 0.41294 0.67891 0.0
H665 H 0.75183 0.41212 0.69009 0.0
Co666 Co 0.83734 0.41615 0.70033 0.0
C667 C 0.9296 0.39538 0.69452 0.0
O668 O 0.93999 0.43294 0.69065 0.0
N669 N 0.85267 0.41756 0.71326 0.0
C670 C 0.87556 0.3927 0.72724 0.0
C671 C 0.87175 0.38373 0.71775 0.0
C672 C 0.84447 0.44674 0.72028 0.0
N673 N 0.85797 0.43214 0.72892 0.0
O674 O 0.86208 0.47193 0.69852 0.0
H675 H 0.88053 0.3533 0.71441 0.0
H676 H 0.82743 0.47715 0.71914 0.0
O677 O 0.89166 0.38832 0.69783 0.0
C678 C 0.83048 0.4986 0.6982 0.0
O679 O 0.79049 0.48386 0.69918 0.0
N680 N 0.81004 0.3633 0.70227 0.0
C681 C 0.75737 0.29125 0.7049 0.0
C682 C 0.79752 0.28711 0.70021 0.0
C683 C 0.82336 0.32395 0.69883 0.0
C684 C 0.77173 0.36751 0.70709 0.0
C685 C 0.74454 0.33178 0.70842 0.0
H686 H 0.85321 0.32097 0.69479 0.0
H687 H 0.76172 0.39925 0.70962 0.0
H688 H 0.87737 0.41449 0.67817 0.0
H689 H 0.74373 0.40841 0.67147 0.0
H690 H 0.88979 0.37127 0.73251 0.0
H691 H 0.80784 0.2561 0.6973 0.0
H692 H 0.71354 0.33585 0.71202 0.0
C693 C 0.81713 0.52776 0.93376 0.0
C694 C 0.82378 0.52704 0.92411 0.0
N695 N 0.82992 0.56818 0.92107 0.0
N696 N 0.81924 0.56913 0.93694 0.0
C697 C 0.82661 0.59334 0.92898 0.0
H698 H 0.8121 0.4996 0.93826 0.0
Co699 Co 0.81665 0.58091 0.95013 0.0
C700 C 0.84915 0.67295 0.94631 0.0
O701 O 0.81365 0.69138 0.94296 0.0
N702 N 0.81525 0.59239 0.96345 0.0
C703 C 0.84158 0.6055 0.97794 0.0
C704 C 0.85183 0.59954 0.96859 0.0
C705 C 0.7827 0.59431 0.97002 0.0
N706 N 0.79805 0.60261 0.97892 0.0
O707 O 0.76271 0.60993 0.94847 0.0
H708 H 0.8846 0.59886 0.96584 0.0
H709 H 0.74856 0.58983 0.96834 0.0
O710 O 0.84928 0.63299 0.94865 0.0
C711 C 0.73641 0.57783 0.94874 0.0
O712 O 0.75247 0.5388 0.95035 0.0
N713 N 0.8672 0.54882 0.95175 0.0
C714 C 0.93797 0.49684 0.95612 0.0
C715 C 0.9438 0.53556 0.95097 0.0
C716 C 0.90766 0.56085 0.94867 0.0
C717 C 0.86084 0.51056 0.95648 0.0
C718 C 0.89597 0.4838 0.95872 0.0
H719 H 0.91232 0.5901 0.94451 0.0
H720 H 0.82827 0.50128 0.95865 0.0
H721 H 0.83088 0.62831 0.92899 0.0
H722 H 0.8241 0.49832 0.91964 0.0
H723 H 0.86487 0.6102 0.98364 0.0
H724 H 0.97591 0.54572 0.94861 0.0
H725 H 0.89053 0.45363 0.96255 0.0
C726 C 0.71481 0.54623 0.18504 0.0
C727 C 0.71877 0.54581 0.17531 0.0
N728 N 0.68056 0.55855 0.17143 0.0
N729 N 0.67436 0.55929 0.1874 0.0
C730 C 0.65406 0.56646 0.17896 0.0
H731 H 0.74016 0.53846 0.19013 0.0
Co732 Co 0.65609 0.5668 0.20004 0.0
C733 C 0.57059 0.60851 0.19534 0.0
O734 O 0.54726 0.57361 0.19721 0.0
N735 N 0.63765 0.57422 0.2128 0.0
C736 C 0.60843 0.60102 0.2261 0.0
C737 C 0.61555 0.60824 0.21655 0.0
C738 C 0.64458 0.54736 0.22031 0.0
N739 N 0.62688 0.56277 0.22844 0.0
O740 O 0.61906 0.51751 0.19884 0.0
H741 H 0.60582 0.63709 0.21269 0.0
H742 H 0.6624 0.51709 0.21989 0.0
O743 O 0.61196 0.60708 0.19598 0.0
C744 C 0.64447 0.48658 0.2012 0.0
O745 O 0.68533 0.49554 0.20325 0.0
N746 N 0.69543 0.61242 0.20142 0.0
C747 C 0.75769 0.6769 0.2039 0.0
C748 C 0.72812 0.67916 0.19631 0.0
C749 C 0.69715 0.64644 0.19518 0.0
C750 C 0.72529 0.60873 0.20858 0.0
C751 C 0.75632 0.64127 0.21008 0.0
H752 H 0.67496 0.64812 0.18921 0.0
H753 H 0.72493 0.58049 0.21318 0.0
H754 H 0.62064 0.57736 0.17835 0.0
H755 H 0.74815 0.53788 0.17141 0.0
H756 H 0.59192 0.6227 0.23099 0.0
H757 H 0.72842 0.70649 0.19142 0.0
H758 H 0.77899 0.63863 0.21598 0.0
C759 C 0.68816 0.44849 0.4336 0.0
C760 C 0.68188 0.44991 0.42391 0.0
N761 N 0.66794 0.4105 0.42102 0.0
N762 N 0.67776 0.4085 0.43685 0.0
C763 C 0.66625 0.38564 0.42896 0.0
H764 H 0.69735 0.4756 0.43809 0.0
Co765 Co 0.67324 0.3964 0.4499 0.0
C766 C 0.63114 0.30684 0.44603 0.0
O767 O 0.66475 0.28057 0.44526 0.0
N768 N 0.66831 0.38413 0.46312 0.0
C769 C 0.63777 0.36782 0.47705 0.0
C770 C 0.6309 0.37202 0.46746 0.0
C771 C 0.69762 0.38701 0.47034 0.0
N772 N 0.67987 0.37707 0.47891 0.0
O773 O 0.7252 0.3633 0.44915 0.0
H774 H 0.59994 0.36784 0.46392 0.0
H775 H 0.73132 0.39621 0.46938 0.0
O776 O 0.6368 0.34725 0.44753 0.0
C777 C 0.75453 0.39163 0.45081 0.0
O778 O 0.74266 0.4317 0.45284 0.0
N779 N 0.62391 0.43181 0.45052 0.0
C780 C 0.54927 0.48198 0.4526 0.0
C781 C 0.55217 0.45083 0.44533 0.0
C782 C 0.58983 0.42621 0.44439 0.0
C783 C 0.62331 0.46452 0.45708 0.0
C784 C 0.58589 0.48971 0.45835 0.0
H785 H 0.59099 0.4017 0.43889 0.0
H786 H 0.6514 0.46998 0.46159 0.0
H787 H 0.654 0.35259 0.42908 0.0
H788 H 0.68583 0.47813 0.41936 0.0
H789 H 0.61309 0.35974 0.48227 0.0
H790 H 0.52525 0.44491 0.4405 0.0
H791 H 0.58517 0.51383 0.46397 0.0
C792 C 0.21156 0.40693 0.18493 0.0
C793 C 0.21597 0.40162 0.17534 0.0
N794 N 0.17607 0.40195 0.17127 0.0
N795 N 0.16906 0.41 0.18722 0.0
C796 C 0.14802 0.40707 0.17871 0.0
H797 H 0.23811 0.4082 0.18999 0.0
Co798 Co 0.15285 0.41445 0.20022 0.0
C799 C 0.06179 0.39126 0.19442 0.0
O800 O 0.05196 0.42813 0.19019 0.0
N801 N 0.13786 0.41791 0.21316 0.0
C802 C 0.11325 0.39749 0.22738 0.0
C803 C 0.11824 0.38546 0.21805 0.0
C804 C 0.14591 0.44897 0.21978 0.0
N805 N 0.13076 0.43728 0.22847 0.0
O806 O 0.12656 0.46871 0.19798 0.0
H807 H 0.11016 0.35396 0.21513 0.0
H808 H 0.16293 0.47916 0.21832 0.0
O809 O 0.09937 0.38478 0.19796 0.0
C810 C 0.15753 0.4959 0.19723 0.0
O811 O 0.19793 0.4823 0.19817 0.0
N812 N 0.18163 0.36301 0.20253 0.0
C813 C 0.24302 0.2971 0.20234 0.0
C814 C 0.20113 0.2902 0.19854 0.0
C815 C 0.17092 0.32393 0.19857 0.0
C816 C 0.22051 0.3691 0.20702 0.0
C817 C 0.25202 0.33657 0.20694 0.0
H818 H 0.14033 0.31942 0.19488 0.0
H819 H 0.22839 0.40075 0.20994 0.0
H820 H 0.11302 0.40869 0.178 0.0
H821 H 0.24691 0.39774 0.17178 0.0
H822 H 0.09959 0.37781 0.23305 0.0
H823 H 0.19228 0.25957 0.19523 0.0
H824 H 0.2838 0.34326 0.20998 0.0
C825 C 0.31018 0.4679 0.9345 0.0
C826 C 0.3127 0.47109 0.9248 0.0
N827 N 0.31745 0.43078 0.9211 0.0
N828 N 0.3138 0.42585 0.9371 0.0
C829 C 0.31794 0.40376 0.92877 0.0
H830 H 0.30799 0.49487 0.93944 0.0
Co831 Co 0.31757 0.41025 0.95006 0.0
C832 C 0.3833 0.33872 0.94685 0.0
O833 O 0.41659 0.36259 0.94951 0.0
N834 N 0.32024 0.39487 0.96318 0.0
C835 C 0.34164 0.36841 0.97721 0.0
C836 C 0.35331 0.37532 0.9679 0.0
C837 C 0.28912 0.40058 0.96995 0.0
N838 N 0.30132 0.38432 0.9785 0.0
O839 O 0.26239 0.38312 0.94928 0.0
H840 H 0.38459 0.36724 0.96497 0.0
H841 H 0.25795 0.41593 0.96865 0.0
O842 O 0.34467 0.35418 0.94681 0.0
C843 C 0.23408 0.41326 0.94945 0.0
O844 O 0.24708 0.45391 0.95018 0.0
N845 N 0.37014 0.44193 0.95095 0.0
C846 C 0.43409 0.50658 0.95098 0.0
C847 C 0.43257 0.47546 0.94369 0.0
C848 C 0.39993 0.44397 0.94371 0.0
C849 C 0.37095 0.47243 0.95803 0.0
C850 C 0.40309 0.5046 0.95828 0.0
H851 H 0.39798 0.4218 0.93775 0.0
H852 H 0.34526 0.47344 0.9633 0.0
H853 H 0.32218 0.36883 0.92839 0.0
H854 H 0.31276 0.50137 0.92087 0.0
H855 H 0.36164 0.35359 0.98268 0.0
H856 H 0.45624 0.47559 0.93796 0.0
H857 H 0.40279 0.52855 0.96394 0.0
C858 C 0.28215 0.55479 0.68499 0.0
C859 C 0.27875 0.56099 0.67533 0.0
N860 N 0.31882 0.56937 0.67187 0.0
N861 N 0.32412 0.55972 0.68764 0.0
C862 C 0.34596 0.56809 0.67944 0.0
H863 H 0.25535 0.54986 0.68988 0.0
Co864 Co 0.34009 0.56517 0.7004 0.0
C865 C 0.4329 0.58235 0.69963 0.0
O866 O 0.44001 0.54947 0.70542 0.0
N867 N 0.35563 0.57161 0.71339 0.0
C868 C 0.37339 0.60322 0.72717 0.0
C869 C 0.36878 0.60925 0.71752 0.0
C870 C 0.35281 0.5431 0.72073 0.0
N871 N 0.36354 0.56157 0.72912 0.0
O872 O 0.36448 0.50881 0.70007 0.0
H873 H 0.37352 0.63969 0.71377 0.0
H874 H 0.34133 0.51004 0.72011 0.0
O875 O 0.39434 0.59095 0.69687 0.0
C876 C 0.33441 0.48217 0.70223 0.0
O877 O 0.29542 0.49713 0.70432 0.0
N878 N 0.31278 0.6189 0.70067 0.0
C879 C 0.25796 0.69102 0.70028 0.0
C880 C 0.29473 0.68882 0.69429 0.0
C881 C 0.32207 0.65256 0.69466 0.0
C882 C 0.27761 0.62043 0.70656 0.0
C883 C 0.25042 0.65658 0.70666 0.0
H884 H 0.34935 0.65059 0.6898 0.0
H885 H 0.2703 0.59295 0.71112 0.0
H886 H 0.38031 0.57615 0.67909 0.0
H887 H 0.24897 0.56091 0.67118 0.0
H888 H 0.38249 0.62759 0.73238 0.0
H889 H 0.30169 0.71404 0.68912 0.0
H890 H 0.22348 0.65708 0.71164 0.0
C891 C 0.19905 0.54621 0.4354 0.0
C892 C 0.19975 0.54359 0.42566 0.0
N893 N 0.18042 0.57939 0.42205 0.0
N894 N 0.17956 0.58355 0.43804 0.0
C895 C 0.16852 0.6033 0.42973 0.0
H896 H 0.21028 0.52139 0.44028 0.0
Co897 Co 0.16724 0.59427 0.45087 0.0
C898 C 0.13412 0.69069 0.44636 0.0
O899 O 0.16184 0.71949 0.44298 0.0
N900 N 0.15493 0.60447 0.46424 0.0
C901 C 0.12231 0.60439 0.47851 0.0
C902 C 0.1164 0.59967 0.46887 0.0
C903 C 0.18344 0.61351 0.47143 0.0
N904 N 0.16469 0.61259 0.48014 0.0
O905 O 0.22462 0.6151 0.45242 0.0
H906 H 0.08566 0.59103 0.46565 0.0
H907 H 0.21788 0.61897 0.47046 0.0
O908 O 0.1474 0.65223 0.44816 0.0
C909 C 0.24799 0.58384 0.45544 0.0
O910 O 0.22924 0.54679 0.45776 0.0
N911 N 0.11281 0.56928 0.44894 0.0
C912 C 0.04076 0.51649 0.44542 0.0
C913 C 0.04553 0.55655 0.44068 0.0
C914 C 0.0823 0.58227 0.44244 0.0
C915 C 0.10968 0.52967 0.45323 0.0
C916 C 0.07348 0.50328 0.45177 0.0
H917 H 0.08648 0.61219 0.4385 0.0
H918 H 0.13557 0.51871 0.45788 0.0
H919 H 0.15099 0.63381 0.42932 0.0
H920 H 0.21174 0.51625 0.42156 0.0
H921 H 0.09741 0.60072 0.48391 0.0
H922 H 0.02159 0.56755 0.43555 0.0
H923 H 0.0712 0.47288 0.45565 0.0
C924 C 0.20008 0.56492 0.33976 0.0
C925 C 0.20088 0.57238 0.34939 0.0
N926 N 0.15974 0.57896 0.35232 0.0
N927 N 0.15861 0.56705 0.33655 0.0
C928 C 0.1345 0.57543 0.34446 0.0
H929 H 0.22838 0.56043 0.33528 0.0
Co930 Co 0.14722 0.56817 0.32336 0.0
C931 C 0.05411 0.58468 0.32783 0.0
O932 O 0.0453 0.54572 0.33118 0.0
N933 N 0.13666 0.57075 0.31018 0.0
C934 C 0.11745 0.5993 0.29627 0.0
C935 C 0.11873 0.60575 0.3059 0.0
C936 C 0.14666 0.54342 0.30292 0.0
N937 N 0.13541 0.56029 0.29432 0.0
O938 O 0.12125 0.51314 0.32392 0.0
H939 H 0.10846 0.63504 0.30952 0.0
H940 H 0.16312 0.51257 0.30389 0.0
O941 O 0.09243 0.59537 0.32526 0.0
C942 C 0.15211 0.48588 0.3243 0.0
O943 O 0.19262 0.49979 0.32404 0.0
N944 N 0.17581 0.62051 0.32272 0.0
C945 C 0.23454 0.68859 0.32404 0.0
C946 C 0.1921 0.69289 0.32772 0.0
C947 C 0.16312 0.65808 0.32707 0.0
C948 C 0.21606 0.61639 0.31875 0.0
C949 C 0.24612 0.65012 0.31934 0.0
H950 H 0.13147 0.66066 0.33041 0.0
H951 H 0.22551 0.58575 0.31557 0.0
H952 H 0.09977 0.58127 0.34445 0.0
H953 H 0.22956 0.57382 0.35388 0.0
H954 H 0.10438 0.62197 0.2911 0.0
H955 H 0.18166 0.72257 0.33121 0.0
H956 H 0.27855 0.6455 0.31645 0.0
C957 C 0.15879 0.45924 0.08636 0.0
C958 C 0.15446 0.46561 0.09597 0.0
N959 N 0.15461 0.42651 0.10042 0.0
N960 N 0.1617 0.41634 0.08456 0.0
C961 C 0.15944 0.39711 0.09325 0.0
H962 H 0.15782 0.4843 0.08095 0.0
Co963 Co 0.15988 0.39433 0.07208 0.0
C964 C 0.14328 0.29885 0.07592 0.0
O965 O 0.17105 0.28255 0.06975 0.0
N966 N 0.15741 0.37331 0.05947 0.0
C967 C 0.13344 0.34303 0.04607 0.0
C968 C 0.12663 0.347 0.05571 0.0
C969 C 0.1822 0.3854 0.05192 0.0
N970 N 0.16831 0.36746 0.04364 0.0
O971 O 0.21916 0.3776 0.07302 0.0
H972 H 0.0999 0.33271 0.05966 0.0
H973 H 0.20872 0.40851 0.0524 0.0
O974 O 0.13969 0.33985 0.07686 0.0
C975 C 0.23973 0.4127 0.07122 0.0
O976 O 0.21704 0.44756 0.06897 0.0
N977 N 0.10311 0.41419 0.0711 0.0
C978 C 0.02844 0.46473 0.07215 0.0
C979 C 0.03306 0.42787 0.07796 0.0
C980 C 0.07085 0.40301 0.07734 0.0
C981 C 0.09812 0.44832 0.06502 0.0
C982 C 0.06075 0.47392 0.06536 0.0
H983 H 0.07552 0.37727 0.08246 0.0
H984 H 0.12451 0.45737 0.0603 0.0
H985 H 0.16013 0.36222 0.09423 0.0
H986 H 0.1502 0.49706 0.09928 0.0
H987 H 0.11376 0.32389 0.04123 0.0
H988 H 0.00909 0.41989 0.08335 0.0
H989 H 0.05797 0.5016 0.06062 0.0
C990 C 0.27903 0.43823 0.83837 0.0
C991 C 0.27583 0.43238 0.84804 0.0
N992 N 0.31351 0.41514 0.85121 0.0
N993 N 0.31856 0.4248 0.8354 0.0
C994 C 0.33915 0.41118 0.84342 0.0
H995 H 0.25336 0.44963 0.83372 0.0
Co996 Co 0.33177 0.41917 0.82248 0.0
C997 C 0.42306 0.39382 0.82218 0.0
O998 O 0.43161 0.42315 0.81562 0.0
N999 N 0.34409 0.41261 0.80933 0.0
C1000 C 0.35759 0.38144 0.79528 0.0
C1001 C 0.35374 0.37459 0.80493 0.0
C1002 C 0.34287 0.44215 0.80215 0.0
N1003 N 0.35089 0.42398 0.79359 0.0
O1004 O 0.36071 0.47359 0.82275 0.0
H1005 H 0.35737 0.34358 0.80849 0.0
H1006 H 0.33511 0.47615 0.80302 0.0
O1007 O 0.38471 0.38987 0.82553 0.0
C1008 C 0.33231 0.50212 0.82072 0.0
O1009 O 0.29222 0.48952 0.81884 0.0
N1010 N 0.30038 0.3677 0.82231 0.0
C1011 C 0.24295 0.2977 0.8223 0.0
C1012 C 0.28447 0.29391 0.82647 0.0
C1013 C 0.31265 0.32954 0.8265 0.0
C1014 C 0.26041 0.37203 0.81821 0.0
C1015 C 0.23109 0.33734 0.8181 0.0
H1016 H 0.3439 0.32641 0.82998 0.0
H1017 H 0.25111 0.40297 0.81512 0.0
H1018 H 0.37121 0.3965 0.84351 0.0
H1019 H 0.24761 0.43956 0.8524 0.0
H1020 H 0.36484 0.35717 0.78992 0.0
H1021 H 0.29521 0.26362 0.82966 0.0
H1022 H 0.19925 0.34177 0.8149 0.0
C1023 C 0.28779 0.54416 0.58859 0.0
C1024 C 0.2863 0.54133 0.59831 0.0
N1025 N 0.30158 0.57885 0.60201 0.0
N1026 N 0.30383 0.58329 0.58604 0.0
C1027 C 0.31201 0.60399 0.5944 0.0
H1028 H 0.27926 0.51853 0.58365 0.0
Co1029 Co 0.31346 0.59473 0.57312 0.0
C1030 C 0.35659 0.68479 0.57772 0.0
O1031 O 0.32531 0.71282 0.57953 0.0
N1032 N 0.32254 0.60545 0.55987 0.0
C1033 C 0.35517 0.61316 0.54574 0.0
C1034 C 0.36149 0.60953 0.55541 0.0
C1035 C 0.29301 0.60792 0.55268 0.0
N1036 N 0.31206 0.61238 0.54407 0.0
O1037 O 0.26069 0.62685 0.57285 0.0
H1038 H 0.39283 0.60819 0.55889 0.0
H1039 H 0.25816 0.60502 0.55357 0.0
O1040 O 0.34737 0.6455 0.57569 0.0
C1041 C 0.23151 0.59845 0.57116 0.0
O1042 O 0.24347 0.55846 0.5691 0.0
N1043 N 0.36381 0.56049 0.57377 0.0
C1044 C 0.43701 0.50738 0.57508 0.0
C1045 C 0.43133 0.54228 0.58136 0.0
C1046 C 0.39441 0.56816 0.58064 0.0
C1047 C 0.36721 0.52503 0.56799 0.0
C1048 C 0.40402 0.49828 0.56842 0.0
H1049 H 0.39085 0.59489 0.58557 0.0
H1050 H 0.34163 0.51799 0.56291 0.0
H1051 H 0.32627 0.63617 0.59489 0.0
H1052 H 0.27646 0.51289 0.60233 0.0
H1053 H 0.38025 0.61565 0.54034 0.0
H1054 H 0.45529 0.54973 0.5868 0.0
H1055 H 0.40701 0.47144 0.56347 0.0
C1056 C 0.35973 0.91738 0.32568 0.0
C1057 C 0.32352 0.94095 0.32244 0.0
C1058 C 0.35736 0.87185 0.32666 0.0
C1059 C 0.31798 0.85023 0.32432 0.0
C1060 C 0.28178 0.87406 0.32088 0.0
C1061 C 0.28516 0.91897 0.31995 0.0
C1062 C 0.3965 0.84703 0.33025 0.0
C1063 C 0.23893 0.85239 0.31832 0.0
C1064 C 0.29219 0.73683 0.31725 0.0
C1065 C 0.26629 0.72443 0.32501 0.0
C1066 C 0.31591 0.77575 0.31748 0.0
C1067 C 0.31269 0.80286 0.32558 0.0
C1068 C 0.29137 0.78763 0.33388 0.0
C1069 C 0.26833 0.74838 0.33349 0.0
C1070 C 0.339 0.7906 0.30855 0.0
C1071 C 0.28741 0.81548 0.3427 0.0
H1072 H 0.38945 0.93446 0.32758 0.0
H1073 H 0.25714 0.93693 0.31736 0.0
H1074 H 0.38769 0.82804 0.3367 0.0
H1075 H 0.40735 0.82336 0.32478 0.0
H1076 H 0.42425 0.86891 0.33202 0.0
H1077 H 0.21414 0.87603 0.31576 0.0
H1078 H 0.24412 0.82779 0.31265 0.0
H1079 H 0.22535 0.83527 0.32462 0.0
H1080 H 0.29117 0.71811 0.3107 0.0
H1081 H 0.24962 0.73787 0.33964 0.0
H1082 H 0.36887 0.8094 0.31029 0.0
H1083 H 0.31698 0.81221 0.30442 0.0
H1084 H 0.348 0.76257 0.30395 0.0
H1085 H 0.31787 0.83398 0.34405 0.0
H1086 H 0.27959 0.79555 0.34908 0.0
H1087 H 0.26068 0.8394 0.34166 0.0
C1088 C 0.31637 0.10276 0.58085 0.0
C1089 C 0.29493 0.09747 0.57215 0.0
C1090 C 0.35993 0.08958 0.58184 0.0
C1091 C 0.38166 0.07111 0.57391 0.0
C1092 C 0.36156 0.07126 0.56484 0.0
C1093 C 0.31812 0.08429 0.56409 0.0
C1094 C 0.38052 0.09038 0.5916 0.0
C1095 C 0.38385 0.05251 0.55616 0.0
C1096 C 0.49942 0.03537 0.57402 0.0
C1097 C 0.49487 0.98991 0.5748 0.0
C1098 C 0.46297 0.06274 0.5741 0.0
C1099 C 0.42116 0.04432 0.5753 0.0
C1100 C 0.41651 -0.00114 0.57678 0.0
C1101 C 0.4534 0.97211 0.57638 0.0
C1102 C 0.46904 0.11093 0.57239 0.0
C1103 C 0.3723 0.97814 0.57829 0.0
H1104 H 0.29791 0.11256 0.58709 0.0
H1105 H 0.30103 0.0802 0.55738 0.0
H1106 H 0.37709 0.05773 0.59492 0.0
H1107 H 0.41584 0.098 0.59118 0.0
H1108 H 0.36443 0.11459 0.59631 0.0
H1109 H 0.36699 0.06195 0.54947 0.0
H1110 H 0.41832 0.06339 0.55577 0.0
H1111 H 0.38381 0.01641 0.55665 0.0
H1112 H 0.53151 0.04967 0.57315 0.0
H1113 H 0.44942 0.93712 0.57696 0.0
H1114 H 0.45 0.13024 0.5776 0.0
H1115 H 0.45666 0.11934 0.56519 0.0
H1116 H 0.50385 0.12084 0.57282 0.0
H1117 H 0.35387 -0.00407 0.58387 0.0
H1118 H 0.37486 0.94338 0.58043 0.0
H1119 H 0.3531 0.97999 0.5716 0.0
C1120 C 0.18874 0.062 0.81624 0.0
C1121 C 0.15052 0.04232 0.81966 0.0
C1122 C 0.19359 0.10708 0.81616 0.0
C1123 C 0.15896 0.13349 0.81943 0.0
C1124 C 0.11885 0.11419 0.82217 0.0
C1125 C 0.11516 0.06846 0.82235 0.0
C1126 C 0.23707 0.12611 0.81316 0.0
C1127 C 0.08075 0.14163 0.82534 0.0
C1128 C 0.20997 0.23271 0.83019 0.0
C1129 C 0.2128 0.25997 0.82221 0.0
C1130 C 0.18796 0.19285 0.8297 0.0
C1131 C 0.16789 0.18031 0.82104 0.0
C1132 C 0.16646 0.20982 0.81331 0.0
C1133 C 0.18933 0.24931 0.81395 0.0
C1134 C 0.19041 0.16225 0.83811 0.0
C1135 C 0.14454 0.19799 0.80403 0.0
H1136 H 0.21597 0.04212 0.81394 0.0
H1137 H 0.08528 0.05334 0.82483 0.0
H1138 H 0.23237 0.15114 0.80757 0.0
H1139 H 0.25282 0.14225 0.81935 0.0
H1140 H 0.25979 0.10098 0.81038 0.0
H1141 H 0.04973 0.12288 0.82523 0.0
H1142 H 0.08646 0.15322 0.83271 0.0
H1143 H 0.0772 0.17078 0.82072 0.0
H1144 H 0.22689 0.24153 0.83669 0.0
H1145 H 0.1911 0.27038 0.80776 0.0
H1146 H 0.21368 0.13556 0.83649 0.0
H1147 H 0.15817 0.14718 0.83952 0.0
H1148 H 0.20164 0.17904 0.84468 0.0
H1149 H 0.16677 0.17727 0.79976 0.0
H1150 H 0.13661 0.22744 0.79977 0.0
H1151 H 0.11416 0.17918 0.80531 0.0
C1152 C 0.16255 0.89162 0.06121 0.0
C1153 C 0.18492 0.88072 0.06954 0.0
C1154 C 0.11833 0.90241 0.06153 0.0
C1155 C 0.09679 0.90293 0.07044 0.0
C1156 C 0.11772 0.88556 0.0786 0.0
C1157 C 0.16205 0.87452 0.07804 0.0
C1158 C 0.09692 0.91968 0.05261 0.0
C1159 C 0.09547 0.8846 0.08817 0.0
C1160 C 0.03063 0.00573 0.07285 0.0
C1161 C 0.98826 0.99059 0.07116 0.0
C1162 C 0.06586 0.97691 0.07315 0.0
C1163 C 0.05858 0.93185 0.07157 0.0
C1164 C 0.01577 0.91608 0.07018 0.0
C1165 C 0.981 0.94569 0.07001 0.0
C1166 C 0.11113 -0.00495 0.0748 0.0
C1167 C 0.00677 0.86833 0.06851 0.0
H1168 H 0.18066 0.89617 0.05464 0.0
H1169 H 0.17976 0.86619 0.08448 0.0
H1170 H 0.06247 0.90884 0.05214 0.0
H1171 H 0.09712 0.95584 0.05279 0.0
H1172 H 0.11445 0.90902 0.04609 0.0
H1173 H 0.1107 0.86014 0.09297 0.0
H1174 H 0.0986 0.91709 0.09157 0.0
H1175 H 0.0602 0.87716 0.08746 0.0
H1176 H 0.03649 0.04036 0.07369 0.0
H1177 H 0.94811 0.93365 0.06895 0.0
H1178 H 0.13118 0.99067 0.06829 0.0
H1179 H 0.12747 0.97722 0.08068 0.0
H1180 H 0.11065 0.03028 0.07661 0.0
H1181 H 0.0164 0.85966 0.06114 0.0
H1182 H 0.97167 0.86032 0.06943 0.0
H1183 H 0.02623 0.84776 0.07342 0.0
C1184 C 0.27865 0.23817 0.19299 0.0
C1185 C 0.27699 0.26329 0.20132 0.0
C1186 C 0.30271 0.19961 0.19272 0.0
C1187 C 0.32608 0.18667 0.20093 0.0
C1188 C 0.33117 0.21601 0.2086 0.0
C1189 C 0.30566 0.25381 0.20883 0.0
C1190 C 0.29765 0.16983 0.18424 0.0
C1191 C 0.35877 0.20458 0.21713 0.0
C1192 C 0.29463 0.0725 0.20732 0.0
C1193 C 0.32851 0.04833 0.20327 0.0
C1194 C 0.29493 0.11775 0.20705 0.0
C1195 C 0.33067 0.13956 0.20277 0.0
C1196 C 0.36688 0.11551 0.19938 0.0
C1197 C 0.36523 0.06976 0.1996 0.0
C1198 C 0.25541 0.14187 0.2108 0.0
C1199 C 0.40625 0.13746 0.19507 0.0
H1200 H 0.25855 0.24688 0.18693 0.0
H1201 H 0.3057 0.27376 0.21519 0.0
H1202 H 0.32941 0.1551 0.18229 0.0
H1203 H 0.27489 0.14294 0.18608 0.0
H1204 H 0.28441 0.18729 0.17794 0.0
H1205 H 0.36921 0.2343 0.22103 0.0
H1206 H 0.3395 0.18398 0.22209 0.0
H1207 H 0.38809 0.18587 0.21495 0.0
H1208 H 0.26664 0.05599 0.21038 0.0
H1209 H 0.39172 0.051 0.19656 0.0
H1210 H 0.23982 0.16069 0.20497 0.0
H1211 H 0.2653 0.16523 0.21642 0.0
H1212 H 0.23051 0.11959 0.21387 0.0
H1213 H 0.40267 0.13817 0.18721 0.0
H1214 H 0.43635 0.1188 0.19671 0.0
H1215 H 0.41033 0.1714 0.19764 0.0
C1216 C 0.16485 0.10859 0.4518 0.0
C1217 C 0.1903 0.0755 0.44781 0.0
C1218 C 0.11944 0.10353 0.45247 0.0
C1219 C 0.10008 0.06469 0.44904 0.0
C1220 C 0.12553 0.03355 0.44411 0.0
C1221 C 0.17048 0.03937 0.44359 0.0
C1222 C 0.09314 0.13784 0.45756 0.0
C1223 C 0.10608 -0.00806 0.44019 0.0
C1224 C 0.01241 -0.0002 0.46077 0.0
C1225 C 0.98052 0.00132 0.4537 0.0
C1226 C 0.05007 0.02523 0.45995 0.0
C1227 C 0.05545 0.05214 0.45182 0.0
C1228 C 0.02097 0.05713 0.44523 0.0
C1229 C 0.98376 0.03112 0.44621 0.0
C1230 C 0.08599 0.01961 0.46721 0.0
C1231 C 0.02514 0.0864 0.43664 0.0
H1232 H 0.18055 0.13667 0.455 0.0
H1233 H 0.19049 0.01433 0.44034 0.0
H1234 H 0.05967 0.14038 0.45461 0.0
H1235 H 0.09033 0.12894 0.4652 0.0
H1236 H 0.10922 0.17024 0.45712 0.0
H1237 H 0.12977 0.97338 0.43579 0.0
H1238 H 0.09536 0.97076 0.44616 0.0
H1239 H 0.07704 -0.00084 0.43575 0.0
H1240 H 0.00899 0.97698 0.46663 0.0
H1241 H 0.95819 0.03246 0.44087 0.0
H1242 H 0.10016 0.05161 0.46918 0.0
H1243 H 0.1125 -0.00045 0.46409 0.0
H1244 H 0.07416 0.00317 0.47377 0.0
H1245 H 0.04289 0.11681 0.43845 0.0
H1246 H -0.00733 0.09496 0.43366 0.0
H1247 H 0.044 0.06933 0.43103 0.0
C1248 C 0.14226 0.90756 0.7113 0.0
C1249 C 0.12867 0.92993 0.70314 0.0
C1250 C 0.14989 0.86274 0.711 0.0
C1251 C 0.14418 0.84042 0.70228 0.0
C1252 C 0.12329 0.86156 0.69455 0.0
C1253 C 0.11585 0.90664 0.69506 0.0
C1254 C 0.17073 0.84111 0.71952 0.0
C1255 C 0.1149 0.83826 0.68529 0.0
C1256 C 0.24305 0.7705 0.69778 0.0
C1257 C 0.22746 0.72868 0.69991 0.0
C1258 C 0.21523 0.80657 0.69789 0.0
C1259 C 0.17092 0.80106 0.70053 0.0
C1260 C 0.15448 0.75895 0.70241 0.0
C1261 C 0.1828 0.72317 0.70193 0.0
C1262 C 0.23399 0.85098 0.69562 0.0
C1263 C 0.10781 0.75163 0.70545 0.0
H1264 H 0.15182 0.92577 0.71758 0.0
H1265 H 0.10523 0.92417 0.68877 0.0
H1266 H 0.15854 0.80731 0.72041 0.0
H1267 H 0.20657 0.83952 0.71843 0.0
H1268 H 0.16441 0.85958 0.72618 0.0
H1269 H 0.08904 0.8548 0.68108 0.0
H1270 H 0.14531 0.83813 0.681 0.0
H1271 H 0.10514 0.8039 0.68653 0.0
H1272 H 0.27739 0.77555 0.69634 0.0
H1273 H 0.16986 0.69093 0.7033 0.0
H1274 H 0.23495 0.87108 0.70218 0.0
H1275 H 0.21315 0.86813 0.69036 0.0
H1276 H 0.26761 0.84896 0.69269 0.0
H1277 H 0.10516 0.75722 0.71324 0.0
H1278 H 0.09707 0.71771 0.70398 0.0
H1279 H 0.08521 0.77453 0.70185 0.0
C1280 C 0.51089 0.90017 0.95384 0.0
C1281 C 0.51789 0.93881 0.95888 0.0
C1282 C 0.46874 0.88279 0.95303 0.0
C1283 C 0.43334 0.90528 0.95722 0.0
C1284 C 0.44138 0.94133 0.96328 0.0
C1285 C 0.48382 0.95781 0.96401 0.0
C1286 C 0.46155 0.84388 0.94666 0.0
C1287 C 0.40463 0.96616 0.96793 0.0
C1288 C 0.33092 0.92526 0.94312 0.0
C1289 C 0.30042 0.90031 0.94812 0.0
C1290 C 0.37499 0.92467 0.94564 0.0
C1291 C 0.38866 0.89879 0.95345 0.0
C1292 C 0.35848 0.87108 0.9581 0.0
C1293 C 0.31446 0.87188 0.95531 0.0
C1294 C 0.40614 0.95453 0.94041 0.0
C1295 C 0.37177 0.8435 0.96651 0.0
H1296 H 0.53753 0.8859 0.94984 0.0
H1297 H 0.48959 0.98802 0.96782 0.0
H1298 H 0.43566 0.82235 0.94956 0.0
H1299 H 0.45079 0.85526 0.93954 0.0
H1300 H 0.49195 0.82465 0.94576 0.0
H1301 H 0.41661 0.98739 0.97379 0.0
H1302 H 0.38852 0.98713 0.96254 0.0
H1303 H 0.37966 0.94358 0.97083 0.0
H1304 H 0.31986 0.94713 0.93755 0.0
H1305 H 0.29064 0.8529 0.95924 0.0
H1306 H 0.43598 0.93661 0.93827 0.0
H1307 H 0.41632 0.9815 0.94518 0.0
H1308 H 0.39118 0.96898 0.93393 0.0
H1309 H 0.4039 0.82792 0.96526 0.0
H1310 H 0.34724 0.8178 0.96808 0.0
H1311 H 0.37496 0.86454 0.97289 0.0
C1312 C 0.68737 0.2557 0.70068 0.0
C1313 C 0.72754 0.25398 0.70542 0.0
C1314 C 0.66153 0.21826 0.69979 0.0
C1315 C 0.67629 0.17877 0.70384 0.0
C1316 C 0.71518 0.17801 0.70932 0.0
C1317 C 0.74072 0.21567 0.70993 0.0
C1318 C 0.62052 0.2202 0.69387 0.0
C1319 C 0.73163 0.13662 0.7139 0.0
C1320 C 0.61807 0.07103 0.70579 0.0
C1321 C 0.64067 0.04779 0.6988 0.0
C1322 C 0.62557 0.11586 0.70694 0.0
C1323 C 0.65639 0.13687 0.70098 0.0
C1324 C 0.67491 0.11426 0.69319 0.0
C1325 C 0.66672 0.0698 0.6922 0.0
C1326 C 0.60463 0.1392 0.71521 0.0
C1327 C 0.70793 0.13537 0.68665 0.0
H1328 H 0.6775 0.28565 0.6972 0.0
H1329 H 0.77172 0.21487 0.71365 0.0
H1330 H 0.62685 0.20527 0.6868 0.0
H1331 H 0.59382 0.20142 0.69728 0.0
H1332 H 0.60945 0.25426 0.69272 0.0
H1333 H 0.759 0.14291 0.71891 0.0
H1334 H 0.70498 0.12007 0.71784 0.0
H1335 H 0.74325 0.11393 0.7083 0.0
H1336 H 0.5983 0.05356 0.71094 0.0
H1337 H 0.68423 0.05131 0.68684 0.0
H1338 H 0.59692 0.17348 0.71336 0.0
H1339 H 0.62766 0.13963 0.72131 0.0
H1340 H 0.57424 0.12254 0.71753 0.0
H1341 H 0.69693 0.16823 0.68442 0.0
H1342 H 0.714 0.11548 0.68017 0.0
H1343 H 0.73934 0.13927 0.69049 0.0
C1344 C 0.66868 0.91183 0.4597 0.0
C1345 C 0.69112 0.89398 0.45199 0.0
C1346 C 0.62409 0.91985 0.45909 0.0
C1347 C 0.60219 0.91073 0.45045 0.0
C1348 C 0.62371 0.88768 0.44309 0.0
C1349 C 0.66845 0.87925 0.44398 0.0
C1350 C 0.60204 0.94345 0.46721 0.0
C1351 C 0.60128 0.87701 0.43382 0.0
C1352 C 0.48398 0.94357 0.45097 0.0
C1353 C 0.48754 0.9884 0.44901 0.0
C1354 C 0.52077 0.91664 0.45094 0.0
C1355 C 0.56157 0.93462 0.44846 0.0
C1356 C 0.56473 0.9787 0.44557 0.0
C1357 C 0.52796 0.00532 0.44613 0.0
C1358 C 0.51642 0.87 0.45422 0.0
C1359 C 0.60766 -0.00128 0.44255 0.0
H1360 H 0.68662 0.9226 0.46593 0.0
H1361 H 0.68629 0.86528 0.43805 0.0
H1362 H 0.5995 0.97862 0.46545 0.0
H1363 H 0.56853 0.93083 0.46837 0.0
H1364 H 0.62072 0.9403 0.47396 0.0
H1365 H 0.61708 0.84887 0.43024 0.0
H1366 H 0.56621 0.86959 0.43489 0.0
H1367 H 0.60362 0.90557 0.42899 0.0
H1368 H 0.45267 0.9295 0.4528 0.0
H1369 H 0.53164 0.03976 0.44467 0.0
H1370 H 0.52826 0.86738 0.46167 0.0
H1371 H 0.53664 0.84789 0.44981 0.0
H1372 H 0.48201 0.85864 0.45401 0.0
H1373 H 0.62879 0.00331 0.44889 0.0
H1374 H 0.60314 0.03092 0.43907 0.0
H1375 H 0.62509 0.97693 0.43753 0.0
C1376 C 0.86314 0.91508 0.20567 0.0
C1377 C 0.82765 0.93541 0.20124 0.0
C1378 C 0.86256 0.86984 0.20735 0.0
C1379 C 0.82598 0.84505 0.20438 0.0
C1380 C 0.79078 0.86563 0.19966 0.0
C1381 C 0.79213 0.91048 0.19817 0.0
C1382 C 0.90017 0.84884 0.21253 0.0
C1383 C 0.751 0.84055 0.19636 0.0
C1384 C 0.81572 0.72718 0.19838 0.0
C1385 C 0.78734 0.71368 0.20559 0.0
C1386 C 0.83434 0.76882 0.19859 0.0
C1387 C 0.82321 0.79753 0.20609 0.0
C1388 C 0.79875 0.78198 0.21396 0.0
C1389 C 0.78114 0.73987 0.21363 0.0
C1390 C 0.86079 0.78393 0.19015 0.0
C1391 C 0.78598 0.81151 0.22208 0.0
H1392 H 0.89024 0.93468 0.20818 0.0
H1393 H 0.76472 0.92636 0.19473 0.0
H1394 H 0.88843 0.834 0.21926 0.0
H1395 H 0.91408 0.82217 0.20815 0.0
H1396 H 0.92646 0.87253 0.21423 0.0
H1397 H 0.72687 0.86165 0.19268 0.0
H1398 H 0.76077 0.81417 0.1914 0.0
H1399 H 0.73464 0.82507 0.20255 0.0
H1400 H 0.82062 0.70645 0.19221 0.0
H1401 H 0.75905 0.72915 0.21919 0.0
H1402 H 0.88803 0.80532 0.19244 0.0
H1403 H 0.83957 0.8031 0.18531 0.0
H1404 H 0.87431 0.75601 0.18608 0.0
H1405 H 0.81291 0.83405 0.22397 0.0
H1406 H 0.77655 0.79256 0.22851 0.0
H1407 H 0.75754 0.83153 0.2199 0.0
C1408 C 0.00472 0.06062 0.95089 0.0
C1409 C 0.00423 0.01861 0.9548 0.0
C1410 C 0.96605 0.08473 0.95005 0.0
C1411 C 0.92639 0.06625 0.95326 0.0
C1412 C 0.92651 0.02512 0.95787 0.0
C1413 C 0.96548 0.00167 0.95853 0.0
C1414 C 0.9672 0.12843 0.94514 0.0
C1415 C 0.88498 0.00442 0.96153 0.0
C1416 C 0.815 0.11506 0.95631 0.0
C1417 C 0.79351 0.0946 0.94875 0.0
C1418 C 0.86043 0.11118 0.95729 0.0
C1419 C 0.88392 0.08584 0.95061 0.0
C1420 C 0.86282 0.07054 0.94228 0.0
C1421 C 0.81764 0.07526 0.94146 0.0
C1422 C 0.88194 0.129 0.96613 0.0
C1423 C 0.88648 0.04332 0.93496 0.0
H1424 H 0.03485 0.07357 0.94799 0.0
H1425 H 0.96544 0.96934 0.96165 0.0
H1426 H 0.95407 0.12503 0.93781 0.0
H1427 H 0.94641 0.15231 0.94895 0.0
H1428 H 0.00092 0.14156 0.94465 0.0
H1429 H 0.8914 0.97436 0.96571 0.0
H1430 H 0.86683 0.02765 0.96609 0.0
H1431 H 0.86359 -0.00418 0.95543 0.0
H1432 H 0.79601 0.12957 0.96201 0.0
H1433 H 0.80058 0.05914 0.93567 0.0
H1434 H 0.91605 0.13918 0.96469 0.0
H1435 H 0.88267 0.10326 0.97168 0.0
H1436 H 0.86353 0.15721 0.96902 0.0
H1437 H 0.91908 0.05716 0.93335 0.0
H1438 H 0.8677 0.04066 0.92821 0.0
H1439 H 0.89137 0.00996 0.93783 0.0
C1440 C 0.70032 0.73321 0.82341 0.0
C1441 C 0.74401 0.74052 0.82091 0.0
C1442 C 0.67118 0.76802 0.82444 0.0
C1443 C 0.68618 0.8109 0.8228 0.0
C1444 C 0.73035 0.81838 0.82023 0.0
C1445 C 0.75885 0.783 0.81938 0.0
C1446 C 0.62464 0.759 0.82734 0.0
C1447 C 0.74758 0.86377 0.81838 0.0
C1448 C 0.62353 0.90993 0.81557 0.0
C1449 C 0.62943 0.93547 0.82371 0.0
C1450 C 0.6365 0.86618 0.81554 0.0
C1451 C 0.65643 0.8486 0.82378 0.0
C1452 C 0.65631 0.87259 0.83239 0.0
C1453 C 0.64242 0.91601 0.83225 0.0
C1454 C 0.63496 0.84122 0.80629 0.0
C1455 C 0.67707 0.85506 0.84136 0.0
H1456 H 0.68918 0.70022 0.82475 0.0
H1457 H 0.79267 0.78844 0.81744 0.0
H1458 H 0.61707 0.77629 0.83408 0.0
H1459 H 0.60193 0.77158 0.82184 0.0
H1460 H 0.61828 0.72366 0.82838 0.0
H1461 H 0.78268 0.86381 0.81641 0.0
H1462 H 0.72885 0.87925 0.81253 0.0
H1463 H 0.74335 0.88427 0.82482 0.0
H1464 H 0.61388 0.92541 0.80895 0.0
H1465 H 0.64743 0.93625 0.83849 0.0
H1466 H 0.62758 0.80631 0.80754 0.0
H1467 H 0.66731 0.84324 0.80276 0.0
H1468 H 0.61016 0.85489 0.80135 0.0
H1469 H 0.67032 0.8198 0.84225 0.0
H1470 H 0.66541 0.87273 0.84777 0.0
H1471 H 0.71298 0.85931 0.84089 0.0
C1472 C 0.98126 0.97604 0.57804 0.0
C1473 C 0.00841 0.97728 0.57003 0.0
C1474 C 0.94217 0.95275 0.5779 0.0
C1475 C 0.93056 0.92936 0.56959 0.0
C1476 C 0.96037 0.92601 0.56194 0.0
C1477 C -0.00103 0.95057 0.56219 0.0
C1478 C 0.91122 0.95739 0.58622 0.0
C1479 C 0.94975 0.89993 0.55313 0.0
C1480 C 0.82037 0.87606 0.57272 0.0
C1481 C 0.79334 0.91019 0.56972 0.0
C1482 C 0.86592 0.87975 0.57191 0.0
C1483 C 0.88409 0.91854 0.56815 0.0
C1484 C 0.8566 0.95132 0.56441 0.0
C1485 C 0.8116 0.94659 0.56521 0.0
C1486 C 0.89442 0.8435 0.57562 0.0
C1487 C 0.87452 -0.00679 0.56027 0.0
H1488 H 0.98943 -0.0047 0.58427 0.0
H1489 H 0.02024 0.95087 0.55602 0.0
H1490 H 0.88337 0.97838 0.5841 0.0
H1491 H 0.89781 0.92525 0.58831 0.0
H1492 H 0.92724 0.97233 0.59252 0.0
H1493 H 0.9798 0.8908 0.54919 0.0
H1494 H 0.93139 0.86989 0.55497 0.0
H1495 H 0.92902 0.91971 0.54832 0.0
H1496 H 0.80617 0.84746 0.57603 0.0
H1497 H 0.79074 0.9725 0.56262 0.0
H1498 H 0.90538 0.85152 0.58295 0.0
H1499 H 0.92393 0.83945 0.57113 0.0
H1500 H 0.87646 0.81206 0.5759 0.0
H1501 H 0.89098 0.01225 0.56595 0.0
H1502 H 0.84861 0.01389 0.55708 0.0
H1503 H 0.89908 0.98613 0.55469 0.0
C1504 C 0.79217 0.0675 0.31917 0.0
C1505 C 0.82989 0.04698 0.32256 0.0
C1506 C 0.78532 0.11179 0.32055 0.0
C1507 C 0.81755 0.13666 0.32527 0.0
C1508 C 0.8567 0.11676 0.32839 0.0
C1509 C 0.86241 0.07171 0.32703 0.0
C1510 C 0.74284 0.13158 0.31714 0.0
C1511 C 0.89174 0.14271 0.33337 0.0
C1512 C 0.79211 0.252 0.31918 0.0
C1513 C 0.76295 0.26238 0.32653 0.0
C1514 C 0.81554 0.21295 0.31934 0.0
C1515 C 0.80871 0.18333 0.32691 0.0
C1516 C 0.78293 0.19562 0.33482 0.0
C1517 C 0.76049 0.23527 0.33456 0.0
C1518 C 0.84327 0.20116 0.31084 0.0
C1519 C 0.77467 0.16483 0.34301 0.0
H1520 H 0.76708 0.04867 0.3156 0.0
H1521 H 0.89154 0.05579 0.32968 0.0
H1522 H 0.72495 0.14604 0.32324 0.0
H1523 H 0.74945 0.15808 0.31197 0.0
H1524 H 0.72116 0.1073 0.31367 0.0
H1525 H 0.92188 0.12333 0.33451 0.0
H1526 H 0.90004 0.17221 0.32917 0.0
H1527 H 0.87956 0.15392 0.34039 0.0
H1528 H 0.79436 0.27274 0.31295 0.0
H1529 H 0.73916 0.24387 0.34042 0.0
H1530 H 0.8243 0.17959 0.30603 0.0
H1531 H 0.87295 0.18322 0.31307 0.0
H1532 H 0.8532 0.23052 0.30674 0.0
H1533 H 0.74986 0.14039 0.34084 0.0
H1534 H 0.76222 0.18227 0.34939 0.0
H1535 H 0.80476 0.14696 0.34498 0.0
C1536 C 0.67407 0.07651 0.06201 0.0
C1537 C 0.69455 0.08923 0.07046 0.0
C1538 C 0.63036 0.06346 0.06199 0.0
C1539 C 0.60713 0.06236 0.07069 0.0
C1540 C 0.62674 0.07864 0.07912 0.0
C1541 C 0.6705 0.09221 0.07889 0.0
C1542 C 0.61056 0.04687 0.05282 0.0
C1543 C 0.6031 0.07753 0.08854 0.0
C1544 C 0.48615 0.03615 0.07006 0.0
C1545 C 0.48649 0.99091 0.07153 0.0
C1546 C 0.52516 0.06007 0.06982 0.0
C1547 C 0.56527 0.03825 0.07119 0.0
C1548 C 0.56581 -0.00736 0.07272 0.0
C1549 C 0.52645 0.96951 0.0728 0.0
C1550 C 0.52355 0.10854 0.06804 0.0
C1551 C 0.60802 0.96812 0.07419 0.0
H1552 H 0.69317 0.07389 0.05553 0.0
H1553 H 0.6869 0.10125 0.08544 0.0
H1554 H 0.60892 0.01077 0.05303 0.0
H1555 H 0.57679 0.05917 0.05194 0.0
H1556 H 0.6301 0.05661 0.0465 0.0
H1557 H 0.62002 0.09735 0.09404 0.0
H1558 H 0.56919 0.08958 0.08775 0.0
H1559 H 0.60125 0.04337 0.09111 0.0
H1560 H 0.45534 0.05297 0.0692 0.0
H1561 H 0.52703 0.93447 0.07375 0.0
H1562 H 0.54227 0.11659 0.06151 0.0
H1563 H 0.53916 0.12621 0.07403 0.0
H1564 H 0.48964 0.12066 0.06719 0.0
H1565 H 0.62863 0.97078 0.06772 0.0
H1566 H 0.60254 0.93302 0.07573 0.0
H1567 H 0.62664 0.98262 0.08018 0.0
C1568 C 0.85031 0.41874 0.82768 0.0
C1569 C 0.83656 0.44461 0.82006 0.0
C1570 C 0.84183 0.37377 0.82767 0.0
C1571 C 0.82 0.35483 0.81979 0.0
C1572 C 0.81023 0.38043 0.81169 0.0
C1573 C 0.81813 0.42523 0.81198 0.0
C1574 C 0.8521 0.34755 0.83648 0.0
C1575 C 0.78759 0.36145 0.80308 0.0
C1576 C 0.80273 0.23234 0.81869 0.0
C1577 C 0.75989 0.22883 0.82213 0.0
C1578 C 0.82304 0.27322 0.81787 0.0
C1579 C 0.80009 0.31105 0.82068 0.0
C1580 C 0.75682 0.30763 0.82411 0.0
C1581 C 0.73712 0.2667 0.82465 0.0
C1582 C 0.86874 0.27604 0.81392 0.0
C1583 C 0.73102 0.34722 0.82715 0.0
H1584 H 0.86423 0.4341 0.83393 0.0
H1585 H 0.80776 0.44555 0.80608 0.0
H1586 H 0.82139 0.34085 0.84041 0.0
H1587 H 0.86667 0.3157 0.83456 0.0
H1588 H 0.87478 0.3651 0.84132 0.0
H1589 H 0.79008 0.38332 0.79679 0.0
H1590 H 0.80154 0.32925 0.8012 0.0
H1591 H 0.7525 0.35654 0.8047 0.0
H1592 H 0.8205 0.20318 0.81674 0.0
H1593 H 0.70351 0.26446 0.82701 0.0
H1594 H 0.89077 0.29125 0.81924 0.0
H1595 H 0.86907 0.29716 0.8075 0.0
H1596 H 0.88197 0.24357 0.81197 0.0
H1597 H 0.74949 0.366 0.83257 0.0
H1598 H 0.69869 0.33847 0.83018 0.0
H1599 H 0.72568 0.36899 0.82095 0.0
C1600 C 0.94935 0.4782 0.07507 0.0
C1601 C 0.99128 0.49472 0.07347 0.0
C1602 C 0.91359 0.50619 0.07584 0.0
C1603 C 0.91998 0.55173 0.07487 0.0
C1604 C 0.96249 0.56878 0.0738 0.0
C1605 C -0.00224 0.53999 0.07313 0.0
C1606 C 0.86865 0.48673 0.07714 0.0
C1607 C 0.97051 0.61711 0.07287 0.0
C1608 C 0.81856 0.59386 0.06356 0.0
C1609 C 0.7941 0.60395 0.07165 0.0
C1610 C 0.86235 0.58209 0.06439 0.0
C1611 C 0.88139 0.57992 0.07356 0.0
C1612 C 0.85839 0.59595 0.08157 0.0
C1613 C 0.81452 0.60795 0.08051 0.0
C1614 C 0.88597 0.56595 0.05563 0.0
C1615 C 0.87788 0.59489 0.09143 0.0
H1616 H 0.9442 0.44327 0.07536 0.0
H1617 H 0.03039 0.55295 0.0722 0.0
H1618 H 0.85115 0.50336 0.08302 0.0
H1619 H 0.84929 0.49144 0.07054 0.0
H1620 H 0.8699 0.4513 0.07874 0.0
H1621 H 0.00549 0.62549 0.07386 0.0
H1622 H 0.96037 0.62807 0.06567 0.0
H1623 H 0.95084 0.63553 0.07813 0.0
H1624 H 0.80227 0.59082 0.05673 0.0
H1625 H 0.79512 0.61551 0.08675 0.0
H1626 H 0.88654 0.52978 0.0557 0.0
H1627 H 0.92025 0.57752 0.05556 0.0
H1628 H 0.86971 0.57676 0.04897 0.0
H1629 H 0.87305 0.56199 0.09454 0.0
H1630 H 0.86182 0.61894 0.09619 0.0
H1631 H 0.91344 0.60158 0.09126 0.0
C1632 C 0.69077 0.75557 0.31908 0.0
C1633 C 0.73478 0.75358 0.32179 0.0
C1634 C 0.66553 0.71765 0.31846 0.0
C1635 C 0.68473 0.67724 0.32078 0.0
C1636 C 0.7288 0.67517 0.32377 0.0
C1637 C 0.75342 0.71337 0.32414 0.0
C1638 C 0.61886 0.72061 0.31509 0.0
C1639 C 0.75048 0.63245 0.3263 0.0
C1640 C 0.62905 0.57209 0.32684 0.0
C1641 C 0.641 0.54773 0.31886 0.0
C1642 C 0.6389 0.61662 0.32723 0.0
C1643 C 0.66046 0.63629 0.31941 0.0
C1644 C 0.66699 0.61272 0.31088 0.0
C1645 C 0.6575 0.56834 0.31075 0.0
C1646 C 0.63168 0.64083 0.33645 0.0
C1647 C 0.6895 0.63262 0.30235 0.0
H1648 H 0.67609 0.78674 0.3174 0.0
H1649 H 0.78761 0.71159 0.32608 0.0
H1650 H 0.61514 0.70256 0.3083 0.0
H1651 H 0.59673 0.7051 0.32035 0.0
H1652 H 0.6083 0.75483 0.31396 0.0
H1653 H 0.78383 0.63711 0.32923 0.0
H1654 H 0.73066 0.6145 0.33163 0.0
H1655 H 0.75292 0.61166 0.31986 0.0
H1656 H 0.61666 0.55558 0.33312 0.0
H1657 H 0.66676 0.549 0.30462 0.0
H1658 H 0.62132 0.67488 0.3351 0.0
H1659 H 0.66281 0.64201 0.34048 0.0
H1660 H 0.60681 0.62449 0.34097 0.0
H1661 H 0.67813 0.66642 0.30109 0.0
H1662 H 0.68388 0.61316 0.29579 0.0
H1663 H 0.72518 0.63387 0.30368 0.0
C1664 C 0.51793 0.50382 0.57648 0.0
C1665 C 0.47809 0.48206 0.57527 0.0
C1666 C 0.55741 0.48116 0.57634 0.0
C1667 C 0.55714 0.43556 0.57483 0.0
C1668 C 0.51708 0.41311 0.57384 0.0
C1669 C 0.47788 0.43669 0.57408 0.0
C1670 C 0.5995 0.50642 0.57744 0.0
C1671 C 0.51573 0.36454 0.57223 0.0
C1672 C 0.66353 0.40487 0.56351 0.0
C1673 C 0.68797 0.39312 0.57151 0.0
C1674 C 0.61906 0.41416 0.56433 0.0
C1675 C 0.59923 0.41281 0.57343 0.0
C1676 C 0.62303 0.39719 0.58138 0.0
C1677 C 0.66741 0.38713 0.5803 0.0
C1678 C 0.5947 0.43002 0.55565 0.0
C1679 C 0.6032 0.39582 0.59121 0.0
H1680 H 0.51843 0.53893 0.57728 0.0
H1681 H 0.4471 0.41966 0.57329 0.0
H1682 H 0.62027 0.49131 0.58301 0.0
H1683 H 0.61803 0.5056 0.57066 0.0
H1684 H 0.59377 0.54104 0.57939 0.0
H1685 H 0.48196 0.35142 0.57252 0.0
H1686 H 0.52979 0.35692 0.56514 0.0
H1687 H 0.53587 0.34749 0.57763 0.0
H1688 H 0.67988 0.40961 0.55673 0.0
H1689 H 0.68683 0.37864 0.58649 0.0
H1690 H 0.59111 0.46595 0.55602 0.0
H1691 H 0.56148 0.41571 0.55536 0.0
H1692 H 0.61214 0.42184 0.54894 0.0
H1693 H 0.60268 0.42927 0.59421 0.0
H1694 H 0.6223 0.37473 0.59611 0.0
H1695 H 0.56905 0.3839 0.59097 0.0
C1696 C 0.74481 0.7205 0.70888 0.0
C1697 C 0.76294 0.75803 0.70488 0.0
C1698 C 0.76616 0.68045 0.7081 0.0
C1699 C 0.806 0.67812 0.703 0.0
C1700 C 0.82553 0.71654 0.6994 0.0
C1701 C 0.8037 0.75636 0.70044 0.0
C1702 C 0.74438 0.64021 0.7121 0.0
C1703 C 0.86755 0.7151 0.69382 0.0
C1704 C 0.85855 0.56732 0.70501 0.0
C1705 C 0.83685 0.54557 0.69765 0.0
C1706 C 0.85176 0.61204 0.70645 0.0
C1707 C 0.82315 0.63483 0.70029 0.0
C1708 C 0.80503 0.61359 0.69226 0.0
C1709 C 0.81179 0.56893 0.6911 0.0
C1710 C 0.87126 0.63351 0.71513 0.0
C1711 C 0.77466 0.63677 0.68546 0.0
H1712 H 0.71299 0.72224 0.71225 0.0
H1713 H 0.81709 0.78567 0.69726 0.0
H1714 H 0.73175 0.61989 0.70617 0.0
H1715 H 0.76821 0.62024 0.71613 0.0
H1716 H 0.71667 0.6484 0.71687 0.0
H1717 H 0.8814 0.74814 0.69266 0.0
H1718 H 0.8921 0.69471 0.69753 0.0
H1719 H 0.86136 0.7 0.68676 0.0
H1720 H 0.87728 0.54872 0.71015 0.0
H1721 H 0.79486 0.5516 0.68547 0.0
H1722 H 0.84601 0.63573 0.72077 0.0
H1723 H 0.8823 0.66711 0.71349 0.0
H1724 H 0.89924 0.6146 0.71799 0.0
H1725 H 0.7426 0.64182 0.68897 0.0
H1726 H 0.76922 0.61776 0.67884 0.0
H1727 H 0.78778 0.66927 0.68352 0.0
C1728 C 0.66738 0.62202 0.94939 0.0
C1729 C 0.68889 0.58243 0.94779 0.0
C1730 C 0.62148 0.62354 0.94971 0.0
C1731 C 0.59736 0.58454 0.94848 0.0
C1732 C 0.61921 0.54512 0.94636 0.0
C1733 C 0.66454 0.54475 0.94597 0.0
C1734 C 0.59914 0.66623 0.95179 0.0
C1735 C 0.59498 0.50258 0.94493 0.0
C1736 C 0.49366 0.54646 0.95934 0.0
C1737 C 0.46917 0.53962 0.95106 0.0
C1738 C 0.53385 0.56811 0.95891 0.0
C1739 C 0.54961 0.58268 0.94997 0.0
C1740 C 0.52192 0.58175 0.94192 0.0
C1741 C 0.48189 0.55994 0.94255 0.0
C1742 C 0.56208 0.56928 0.96771 0.0
C1743 C 0.53704 0.598 0.93233 0.0
H1744 H 0.68626 0.65124 0.95076 0.0
H1745 H 0.68105 0.51423 0.94453 0.0
H1746 H 0.56918 0.66995 0.94743 0.0
H1747 H 0.58925 0.66704 0.95938 0.0
H1748 H 0.62104 0.69442 0.95043 0.0
H1749 H 0.61713 0.47525 0.94307 0.0
H1750 H 0.57728 0.49371 0.95155 0.0
H1751 H 0.57052 0.50594 0.93916 0.0
H1752 H 0.4836 0.53132 0.96597 0.0
H1753 H 0.46211 0.55596 0.9362 0.0
H1754 H 0.58108 0.59998 0.96807 0.0
H1755 H 0.58558 0.54181 0.96746 0.0
H1756 H 0.54231 0.56601 0.97431 0.0
H1757 H 0.55751 0.62763 0.93307 0.0
H1758 H 0.50899 0.60537 0.92758 0.0
H1759 H 0.55712 0.57246 0.92886 0.0
C1760 C 0.6784 0.23178 0.20249 0.0
C1761 C 0.72395 0.23297 0.20154 0.0
C1762 C 0.65403 0.27035 0.20292 0.0
C1763 C 0.67577 0.31086 0.20227 0.0
C1764 C 0.72184 0.31225 0.20146 0.0
C1765 C 0.74536 0.27326 0.20113 0.0
C1766 C 0.60509 0.2678 0.20395 0.0
C1767 C 0.74637 0.35494 0.20086 0.0
C1768 C 0.62987 0.41677 0.19335 0.0
C1769 C 0.63093 0.44111 0.20175 0.0
C1770 C 0.63982 0.37218 0.19352 0.0
C1771 C 0.65093 0.35224 0.2023 0.0
C1772 C 0.64614 0.37564 0.21091 0.0
C1773 C 0.63612 0.42005 0.21051 0.0
C1774 C 0.64433 0.34818 0.1842 0.0
C1775 C 0.65746 0.35567 0.22042 0.0
H1776 H 0.66169 0.20066 0.20273 0.0
H1777 H 0.78064 0.2743 0.20059 0.0
H1778 H 0.5943 0.28734 0.21016 0.0
H1779 H 0.58927 0.28187 0.19754 0.0
H1780 H 0.59343 0.23377 0.20487 0.0
H1781 H 0.78219 0.3502 0.20023 0.0
H1782 H 0.73499 0.37389 0.19461 0.0
H1783 H 0.73983 0.37481 0.2073 0.0
H1784 H 0.62659 0.43345 0.18657 0.0
H1785 H 0.63736 0.43929 0.21699 0.0
H1786 H 0.63161 0.31445 0.1848 0.0
H1787 H 0.6794 0.34606 0.18228 0.0
H1788 H 0.6269 0.36512 0.17833 0.0
H1789 H 0.64629 0.32135 0.22085 0.0
H1790 H 0.64288 0.37431 0.22641 0.0
H1791 H 0.69343 0.35586 0.22134 0.0
C1792 C 0.96013 0.50757 0.44341 0.0
C1793 C 0.00164 0.48871 0.44402 0.0
C1794 C 0.92254 0.48157 0.44343 0.0
C1795 C 0.9266 0.4357 0.44424 0.0
C1796 C 0.96836 0.41635 0.44428 0.0
C1797 C 0.00542 0.44309 0.44406 0.0
C1798 C 0.87842 0.50347 0.44321 0.0
C1799 C 0.97399 0.36768 0.44518 0.0
C1800 C 0.82834 0.39397 0.45729 0.0
C1801 C 0.80104 0.38321 0.44968 0.0
C1802 C 0.87152 0.40673 0.45569 0.0
C1803 C 0.88716 0.4092 0.44621 0.0
C1804 C 0.86125 0.3932 0.43863 0.0
C1805 C 0.81816 0.38015 0.44047 0.0
C1806 C 0.89829 0.4228 0.46401 0.0
C1807 C 0.87682 0.39504 0.42844 0.0
H1808 H 0.95684 0.54273 0.44341 0.0
H1809 H 0.03746 0.42822 0.44425 0.0
H1810 H 0.85683 0.4874 0.43792 0.0
H1811 H 0.86263 0.50039 0.45029 0.0
H1812 H 0.88087 0.53864 0.44141 0.0
H1813 H 0.00802 0.35735 0.44366 0.0
H1814 H 0.96561 0.35747 0.45254 0.0
H1815 H 0.95161 0.35023 0.44027 0.0
H1816 H 0.81463 0.39675 0.46439 0.0
H1817 H 0.79655 0.37255 0.43458 0.0
H1818 H 0.89886 0.45896 0.46397 0.0
H1819 H 0.9325 0.41133 0.46346 0.0
H1820 H 0.88457 0.41183 0.47093 0.0
H1821 H 0.87252 0.42866 0.42569 0.0
H1822 H 0.85791 0.37252 0.42382 0.0
H1823 H 0.91195 0.38682 0.42791 0.0
C1824 C 0.17691 0.75294 0.19584 0.0
C1825 C 0.21708 0.75662 0.2005 0.0
C1826 C 0.15442 0.7132 0.19578 0.0
C1827 C 0.17271 0.67701 0.20055 0.0
C1828 C 0.21098 0.6821 0.2061 0.0
C1829 C 0.23304 0.72191 0.20592 0.0
C1830 C 0.11355 0.70888 0.18987 0.0
C1831 C 0.23098 0.64446 0.21149 0.0
C1832 C 0.12435 0.56447 0.20291 0.0
C1833 C 0.14992 0.54241 0.19623 0.0
C1834 C 0.12847 0.60973 0.20397 0.0
C1835 C 0.15839 0.63251 0.19811 0.0
C1836 C 0.18061 0.61056 0.19069 0.0
C1837 C 0.1763 0.56553 0.1899 0.0
C1838 C 0.10446 0.63199 0.21198 0.0
C1839 C 0.21265 0.63372 0.18424 0.0
H1840 H 0.16454 0.78022 0.19174 0.0
H1841 H 0.2637 0.72544 0.2097 0.0
H1842 H 0.12158 0.69236 0.18306 0.0
H1843 H 0.08885 0.68865 0.19359 0.0
H1844 H 0.09906 0.74115 0.1882 0.0
H1845 H 0.25594 0.65558 0.21669 0.0
H1846 H 0.20555 0.62576 0.21535 0.0
H1847 H 0.24691 0.62196 0.20637 0.0
H1848 H 0.10441 0.54605 0.20787 0.0
H1849 H 0.196 0.54792 0.18476 0.0
H1850 H 0.09446 0.66545 0.20995 0.0
H1851 H 0.1264 0.63458 0.21824 0.0
H1852 H 0.07509 0.61321 0.21415 0.0
H1853 H 0.19846 0.66445 0.18148 0.0
H1854 H 0.22255 0.61318 0.1781 0.0
H1855 H 0.24241 0.64224 0.18835 0.0
C1856 C 0.01181 0.48704 0.96292 0.0
C1857 C 0.9758 0.46925 0.95822 0.0
C1858 C 0.0517 0.46505 0.963 0.0
C1859 C 0.05548 0.42516 0.958 0.0
C1860 C 0.01785 0.40477 0.95425 0.0
C1861 C 0.97809 0.42718 0.95442 0.0
C1862 C 0.09085 0.48713 0.96741 0.0
C1863 C 0.02058 0.36196 0.94902 0.0
C1864 C 0.15992 0.42898 0.94417 0.0
C1865 C 0.18747 0.40442 0.94997 0.0
C1866 C 0.11568 0.43277 0.9463 0.0
C1867 C 0.09905 0.41197 0.95456 0.0
C1868 C 0.12612 0.38408 0.96 0.0
C1869 C 0.17041 0.38042 0.95758 0.0
C1870 C 0.08789 0.46261 0.94025 0.0
C1871 C 0.1098 0.36166 0.96887 0.0
H1872 H 0.00945 0.51934 0.96602 0.0
H1873 H 0.94985 0.41344 0.95086 0.0
H1874 H 0.11185 0.46311 0.97112 0.0
H1875 H 0.11062 0.50265 0.96171 0.0
H1876 H 0.08107 0.51279 0.97256 0.0
H1877 H 0.9881 0.34608 0.94843 0.0
H1878 H 0.03314 0.36786 0.94171 0.0
H1879 H 0.04345 0.33936 0.95263 0.0
H1880 H 0.17366 0.4477 0.93833 0.0
H1881 H 0.19227 0.36206 0.96214 0.0
H1882 H 0.08053 0.49283 0.94428 0.0
H1883 H 0.0564 0.44679 0.93846 0.0
H1884 H 0.10446 0.47197 0.93351 0.0
H1885 H 0.11297 0.38427 0.975 0.0
H1886 H 0.12933 0.33208 0.97048 0.0
H1887 H 0.07494 0.35235 0.96823 0.0
C1888 C 0.23746 0.26118 0.70254 0.0
C1889 C 0.26139 0.22236 0.70257 0.0
C1890 C 0.2584 0.30149 0.70293 0.0
C1891 C 0.3045 0.30294 0.70345 0.0
C1892 C 0.32888 0.26388 0.70383 0.0
C1893 C 0.30692 0.22379 0.70337 0.0
C1894 C 0.23109 0.34248 0.70261 0.0
C1895 C 0.37798 0.26455 0.70455 0.0
C1896 C 0.34329 0.41129 0.69435 0.0
C1897 C 0.34197 0.43547 0.70275 0.0
C1898 C 0.33529 0.36637 0.69454 0.0
C1899 C 0.32644 0.34581 0.70337 0.0
C1900 C 0.33005 0.36957 0.71196 0.0
C1901 C 0.33716 0.41451 0.71153 0.0
C1902 C 0.33101 0.34222 0.68522 0.0
C1903 C 0.32139 0.34878 0.72153 0.0
H1904 H 0.20217 0.25999 0.70213 0.0
H1905 H 0.32536 0.19368 0.70339 0.0
H1906 H 0.23694 0.36228 0.70909 0.0
H1907 H 0.24057 0.36263 0.69638 0.0
H1908 H 0.1956 0.3354 0.70212 0.0
H1909 H 0.3919 0.23132 0.7053 0.0
H1910 H 0.39202 0.28 0.6981 0.0
H1911 H 0.38828 0.28446 0.71075 0.0
H1912 H 0.34634 0.42807 0.68757 0.0
H1913 H 0.3358 0.43361 0.71801 0.0
H1914 H 0.2959 0.33722 0.6836 0.0
H1915 H 0.34646 0.30964 0.68567 0.0
H1916 H 0.34594 0.36056 0.67922 0.0
H1917 H 0.28565 0.34625 0.72266 0.0
H1918 H 0.33536 0.36842 0.72744 0.0
H1919 H 0.33512 0.31539 0.72186 0.0
C1920 C 0.46834 0.48123 0.45362 0.0
C1921 C 0.50747 0.50465 0.45431 0.0
C1922 C 0.42812 0.5019 0.45463 0.0
C1923 C 0.42699 0.5471 0.45657 0.0
C1924 C 0.46628 0.57071 0.45772 0.0
C1925 C 0.50626 0.5492 0.4565 0.0
C1926 C 0.38687 0.47539 0.45339 0.0
C1927 C 0.46597 0.61869 0.46005 0.0
C1928 C 0.32048 0.59434 0.44829 0.0
C1929 C 0.29509 0.58778 0.45641 0.0
C1930 C 0.36511 0.58467 0.44843 0.0
C1931 C 0.38427 0.56925 0.45698 0.0
C1932 C 0.35939 0.56737 0.46546 0.0
C1933 C 0.31464 0.5759 0.46502 0.0
C1934 C 0.39034 0.58601 0.4392 0.0
C1935 C 0.37882 0.55209 0.47476 0.0
H1936 H 0.46909 0.44658 0.4522 0.0
H1937 H 0.53645 0.56744 0.45704 0.0
H1938 H 0.36684 0.47696 0.45996 0.0
H1939 H 0.36701 0.48905 0.44749 0.0
H1940 H 0.39369 0.4406 0.45179 0.0
H1941 H 0.49924 0.63147 0.46149 0.0
H1942 H 0.45177 0.63723 0.45402 0.0
H1943 H 0.44512 0.62484 0.46637 0.0
H1944 H 0.30475 0.60291 0.44162 0.0
H1945 H 0.29448 0.57082 0.47128 0.0
H1946 H 0.39569 0.55222 0.43664 0.0
H1947 H 0.42285 0.6011 0.44027 0.0
H1948 H 0.37268 0.60433 0.43357 0.0
H1949 H 0.38048 0.51598 0.47478 0.0
H1950 H 0.3587 0.56245 0.48094 0.0
H1951 H 0.41247 0.56473 0.47568 0.0
C1952 C 0.2528 0.275 0.31404 0.0
C1953 C 0.23377 0.23534 0.31663 0.0
C1954 C 0.22844 0.31338 0.31428 0.0
C1955 C 0.18434 0.31166 0.3173 0.0
C1956 C 0.16416 0.27127 0.31921 0.0
C1957 C 0.18926 0.23336 0.31886 0.0
C1958 C 0.25086 0.35605 0.31204 0.0
C1959 C 0.11725 0.26843 0.32242 0.0
C1960 C 0.1626 0.4135 0.33096 0.0
C1961 C 0.14439 0.43945 0.32385 0.0
C1962 C 0.17148 0.36972 0.32921 0.0
C1963 C 0.16261 0.35243 0.32007 0.0
C1964 C 0.1399 0.3775 0.31322 0.0
C1965 C 0.13072 0.42116 0.31524 0.0
C1966 C 0.19527 0.34376 0.33675 0.0
C1967 C 0.13014 0.36017 0.30339 0.0
H1968 H 0.2871 0.27615 0.31215 0.0
H1969 H 0.17466 0.20252 0.32088 0.0
H1970 H 0.23025 0.37633 0.3073 0.0
H1971 H 0.25605 0.37458 0.31874 0.0
H1972 H 0.28307 0.35112 0.30858 0.0
H1973 H 0.1044 0.23465 0.32193 0.0
H1974 H 0.11486 0.27922 0.32994 0.0
H1975 H 0.09626 0.29025 0.3181 0.0
H1976 H 0.17338 0.42839 0.33756 0.0
H1977 H 0.11722 0.44198 0.30973 0.0
H1978 H 0.23014 0.34062 0.33472 0.0
H1979 H 0.18152 0.31044 0.33734 0.0
H1980 H 0.19361 0.35965 0.34385 0.0
H1981 H 0.15979 0.36323 0.2989 0.0
H1982 H 0.1035 0.37886 0.29991 0.0
H1983 H 0.12095 0.32523 0.30363 0.0
C1984 C 0.48964 0.46174 0.07933 0.0
C1985 C 0.50677 0.47729 0.07073 0.0
C1986 C 0.44962 0.43982 0.07955 0.0
C1987 C 0.42628 0.43385 0.07096 0.0
C1988 C 0.44575 0.44533 0.06215 0.0
C1989 C 0.486 0.46701 0.06214 0.0
C1990 C 0.43022 0.42772 0.08907 0.0
C1991 C 0.4219 0.43939 0.05284 0.0
C1992 C 0.31462 0.37947 0.07112 0.0
C1993 C 0.28753 0.41612 0.07167 0.0
C1994 C 0.36027 0.38433 0.07094 0.0
C1995 C 0.37859 0.42667 0.07138 0.0
C1996 C 0.35116 0.46352 0.07218 0.0
C1997 C 0.3061 0.45772 0.0723 0.0
C1998 C 0.38879 0.34451 0.07008 0.0
C1999 C 0.36928 0.50933 0.07278 0.0
H2000 H 0.50639 0.46889 0.08596 0.0
H2001 H 0.49948 0.47884 0.05548 0.0
H2002 H 0.40621 0.45293 0.0912 0.0
H2003 H 0.41274 0.39612 0.08867 0.0
H2004 H 0.45558 0.42564 0.09471 0.0
H2005 H 0.44437 0.44159 0.04664 0.0
H2006 H 0.40484 0.40752 0.05263 0.0
H2007 H 0.39686 0.46527 0.0521 0.0
H2008 H 0.3002 0.34729 0.07062 0.0
H2009 H 0.28529 0.48615 0.07285 0.0
H2010 H 0.4135 0.34413 0.07585 0.0
H2011 H 0.40677 0.34548 0.06323 0.0
H2012 H 0.36961 0.31381 0.0704 0.0
H2013 H 0.39147 0.51226 0.07899 0.0
H2014 H 0.34326 0.53429 0.07349 0.0
H2015 H 0.38859 0.51684 0.0663 0.0
C2016 C 0.32702 0.57085 0.81199 0.0
C2017 C 0.34291 0.54827 0.8199 0.0
C2018 C 0.32084 0.61581 0.81237 0.0
C2019 C 0.32991 0.63799 0.82097 0.0
C2020 C 0.35226 0.61631 0.82843 0.0
C2021 C 0.35861 0.57113 0.82779 0.0
C2022 C 0.29809 0.6379 0.80414 0.0
C2023 C 0.36364 0.63922 0.83759 0.0
C2024 C 0.29365 0.7556 0.82081 0.0
C2025 C 0.24946 0.75094 0.8233 0.0
C2026 C 0.32154 0.71946 0.82054 0.0
C2027 C 0.30493 0.67805 0.82301 0.0
C2028 C 0.26125 0.67368 0.82618 0.0
C2029 C 0.23392 0.71001 0.82614 0.0
C2030 C 0.3678 0.72535 0.8171 0.0
C2031 C 0.24238 0.63006 0.82906 0.0
H2032 H 0.31541 0.55286 0.80584 0.0
H2033 H 0.37114 0.55332 0.83388 0.0
H2034 H 0.26273 0.64064 0.80575 0.0
H2035 H 0.31101 0.67126 0.80301 0.0
H2036 H 0.30174 0.61909 0.79743 0.0
H2037 H 0.39115 0.62276 0.84128 0.0
H2038 H 0.3724 0.67381 0.83632 0.0
H2039 H 0.33492 0.63849 0.8424 0.0
H2040 H 0.30636 0.78735 0.81889 0.0
H2041 H 0.19984 0.70583 0.82798 0.0
H2042 H 0.36983 0.71548 0.80951 0.0
H2043 H 0.39075 0.70455 0.82117 0.0
H2044 H 0.37857 0.75983 0.81764 0.0
H2045 H 0.23926 0.6089 0.82269 0.0
H2046 H 0.20964 0.63325 0.83238 0.0
H2047 H 0.26428 0.61338 0.83418 0.0
C2048 C 0.98186 0.53722 0.57417 0.0
C2049 C 0.98719 0.49283 0.57214 0.0
C2050 C 0.01804 0.56499 0.57489 0.0
C2051 C 0.06027 0.54788 0.57341 0.0
C2052 C 0.0658 0.50289 0.57145 0.0
C2053 C 0.0291 0.47584 0.57089 0.0
C2054 C 0.01113 0.61251 0.57718 0.0
C2055 C 0.11043 0.48337 0.56982 0.0
C2056 C 0.15859 0.60819 0.56447 0.0
C2057 C 0.18518 0.60649 0.57254 0.0
C2058 C 0.11529 0.59373 0.5649 0.0
C2059 C 0.09905 0.57669 0.57359 0.0
C2060 C 0.12429 0.58005 0.582 0.0
C2061 C 0.16731 0.59519 0.58137 0.0
C2062 C 0.08916 0.59122 0.55581 0.0
C2063 C 0.10825 0.56221 0.59139 0.0
H2064 H 0.94935 0.55009 0.57531 0.0
H2065 H 0.03307 0.44148 0.56932 0.0
H2066 H 0.03058 0.62176 0.58353 0.0
H2067 H 0.02269 0.63293 0.57117 0.0
H2068 H 0.9763 0.62019 0.57857 0.0
H2069 H 0.10901 0.44767 0.56855 0.0
H2070 H 0.12609 0.49905 0.56357 0.0
H2071 H 0.13166 0.48951 0.57608 0.0
H2072 H 0.17295 0.61623 0.55763 0.0
H2073 H 0.18848 0.59308 0.58755 0.0
H2074 H 0.05469 0.60048 0.55707 0.0
H2075 H 0.08942 0.55719 0.55314 0.0
H2076 H 0.10292 0.61266 0.55018 0.0
H2077 H 0.07317 0.56953 0.59247 0.0
H2078 H 0.12714 0.57563 0.59748 0.0
H2079 H 0.11205 0.52626 0.59142 0.0
C2080 C 0.49312 0.34144 0.33221 0.0
C2081 C 0.52672 0.35338 0.326 0.0
C2082 C 0.47575 0.29902 0.33191 0.0
C2083 C 0.49416 0.26799 0.32558 0.0
C2084 C 0.52604 0.28111 0.3189 0.0
C2085 C 0.54054 0.324 0.319 0.0
C2086 C 0.43872 0.28747 0.33853 0.0
C2087 C 0.54604 0.25026 0.31173 0.0
C2088 C 0.48129 0.15023 0.33346 0.0
C2089 C 0.45306 0.1346 0.32643 0.0
C2090 C 0.49645 0.19349 0.33307 0.0
C2091 C 0.48044 0.22186 0.32587 0.0
C2092 C 0.45328 0.20531 0.3186 0.0
C2093 C 0.44239 0.16139 0.31872 0.0
C2094 C 0.52865 0.20874 0.34049 0.0
C2095 C 0.43433 0.23317 0.31074 0.0
H2096 H 0.4816 0.36441 0.33751 0.0
H2097 H 0.56476 0.33389 0.31384 0.0
H2098 H 0.41729 0.26188 0.33546 0.0
H2099 H 0.45224 0.27519 0.34534 0.0
H2100 H 0.41854 0.31656 0.34017 0.0
H2101 H 0.57973 0.26045 0.30981 0.0
H2102 H 0.54725 0.21622 0.31436 0.0
H2103 H 0.5264 0.25101 0.30509 0.0
H2104 H 0.49037 0.12937 0.33937 0.0
H2105 H 0.42347 0.14845 0.31294 0.0
H2106 H 0.5107 0.22408 0.34646 0.0
H2107 H 0.55177 0.23313 0.33753 0.0
H2108 H 0.54768 0.18104 0.34342 0.0
H2109 H 0.39958 0.22436 0.30953 0.0
H2110 H 0.45188 0.22628 0.30399 0.0
H2111 H 0.43606 0.26859 0.31223 0.0
C2112 C 0.08323 0.2467 0.57497 0.0
C2113 C 0.09889 0.2103 0.57991 0.0
C2114 C 0.03951 0.25969 0.57596 0.0
C2115 C 0.01112 0.23501 0.58186 0.0
C2116 C 0.02792 0.20074 0.58747 0.0
C2117 C 0.07189 0.18954 0.58659 0.0
C2118 C 0.02299 0.29783 0.5702 0.0
C2119 C -0.00119 0.1732 0.59373 0.0
C2120 C 0.9007 0.28415 0.58698 0.0
C2121 C 0.87642 0.26932 0.57916 0.0
C2122 C 0.94434 0.27215 0.58817 0.0
C2123 C 0.96346 0.24306 0.5816 0.0
C2124 C 0.93749 0.22369 0.57439 0.0
C2125 C 0.89413 0.23739 0.57319 0.0
C2126 C 0.97085 0.29393 0.59589 0.0
C2127 C 0.95645 0.19106 0.56749 0.0
H2128 H 0.10404 0.26301 0.56983 0.0
H2129 H 0.08422 0.16187 0.59056 0.0
H2130 H 0.00221 0.28572 0.5643 0.0
H2131 H 0.00255 0.31952 0.57468 0.0
H2132 H 0.0501 0.31728 0.56711 0.0
H2133 H 0.01789 0.15218 0.59864 0.0
H2134 H 0.97648 0.19381 0.598 0.0
H2135 H 0.97835 0.15187 0.58916 0.0
H2136 H 0.88678 0.30836 0.5917 0.0
H2137 H 0.87549 0.22577 0.56714 0.0
H2138 H -0.0073 0.31856 0.5926 0.0
H2139 H 0.99175 0.27 0.59965 0.0
H2140 H 0.94985 0.31065 0.6012 0.0
H2141 H 0.97917 0.20791 0.56256 0.0
H2142 H 0.93077 0.1747 0.5632 0.0
H2143 H 0.97544 0.16586 0.57136 0.0
C2144 C 0.9508 0.6526 0.83798 0.0
C2145 C 0.96751 0.62763 0.83046 0.0
C2146 C 0.96271 0.69626 0.83912 0.0
C2147 C -0.00663 0.7148 0.8328 0.0
C2148 C 0.01475 0.68807 0.82601 0.0
C2149 C 0.00121 0.64462 0.82485 0.0
C2150 C 0.93924 0.72342 0.84647 0.0
C2151 C 0.04935 0.7063 0.81947 0.0
C2152 C 0.98812 0.83243 0.82467 0.0
C2153 C 0.02227 0.85082 0.82995 0.0
C2154 C 0.97617 0.78864 0.82605 0.0
C2155 C -6e-05 0.76272 0.83262 0.0
C2156 C 0.03159 0.78234 0.83855 0.0
C2157 C 0.0413 0.82652 0.83732 0.0
C2158 C 0.94025 0.76936 0.82001 0.0
C2159 C 0.05853 0.75626 0.84551 0.0
H2160 H 0.92514 0.63922 0.84242 0.0
H2161 H 0.01428 0.62541 0.81903 0.0
H2162 H 0.96268 0.74353 0.85058 0.0
H2163 H 0.91649 0.74601 0.84281 0.0
H2164 H 0.92016 0.70304 0.85152 0.0
H2165 H 0.03387 0.72786 0.8141 0.0
H2166 H 0.07307 0.72627 0.82355 0.0
H2167 H 0.0673 0.68016 0.81566 0.0
H2168 H 0.97291 0.85111 0.81902 0.0
H2169 H 0.06662 0.84112 0.84166 0.0
H2170 H 0.918 0.74919 0.82443 0.0
H2171 H 0.9547 0.74777 0.81451 0.0
H2172 H 0.92078 0.7949 0.81636 0.0
H2173 H 0.07166 0.77722 0.8513 0.0
H2174 H 0.08664 0.74183 0.84166 0.0
H2175 H 0.03966 0.72922 0.84875 0.0
C2176 C 0.40262 0.7886 0.08682 0.0
C2177 C 0.37783 0.77168 0.07927 0.0
C2178 C 0.44609 0.77642 0.08812 0.0
C2179 C 0.46446 0.74504 0.08199 0.0
C2180 C 0.43791 0.7236 0.07517 0.0
C2181 C 0.39476 0.73757 0.0738 0.0
C2182 C 0.4732 0.79989 0.0955 0.0
C2183 C 0.456 0.68804 0.06888 0.0
C2184 C 0.58305 0.74611 0.07461 0.0
C2185 C 0.59926 0.71127 0.07997 0.0
C2186 C 0.5396 0.75958 0.07571 0.0
C2187 C 0.51204 0.73693 0.08215 0.0
C2188 C 0.5295 0.70435 0.08814 0.0
C2189 C 0.57333 0.69283 0.08715 0.0
C2190 C 0.52235 0.79582 0.06948 0.0
C2191 C 0.50174 0.6798 0.09525 0.0
H2192 H 0.38912 0.81403 0.09126 0.0
H2193 H 0.37562 0.72408 0.06802 0.0
H2194 H 0.49009 0.77613 0.10016 0.0
H2195 H 0.49869 0.81959 0.09188 0.0
H2196 H 0.45326 0.82191 0.10002 0.0
H2197 H 0.42994 0.67095 0.06484 0.0
H2198 H 0.47941 0.70231 0.06372 0.0
H2199 H 0.47403 0.66378 0.07323 0.0
H2200 H 0.6031 0.76058 0.06908 0.0
H2201 H 0.58641 0.66672 0.0915 0.0
H2202 H 0.503 0.81923 0.07376 0.0
H2203 H 0.50033 0.78195 0.06398 0.0
H2204 H 0.549 0.81382 0.06582 0.0
H2205 H 0.49817 0.69966 0.10179 0.0
H2206 H 0.51685 0.64826 0.09729 0.0
H2207 H 0.46862 0.67317 0.0924 0.0
C2208 C 0.57599 0.68952 0.19413 0.0
C2209 C 0.54972 0.65198 0.19455 0.0
C2210 C 0.55796 0.73128 0.19476 0.0
C2211 C 0.51236 0.73585 0.19574 0.0
C2212 C 0.48529 0.69836 0.19573 0.0
C2213 C 0.50433 0.65677 0.19516 0.0
C2214 C 0.58794 0.7704 0.19476 0.0
C2215 C 0.43637 0.70217 0.19669 0.0
C2216 C 0.46623 0.83625 0.20782 0.0
C2217 C 0.44884 0.85884 0.20004 0.0
C2218 C 0.48793 0.79649 0.2065 0.0
C2219 C 0.49308 0.77973 0.19717 0.0
C2220 C 0.4782 0.80411 0.18925 0.0
C2221 C 0.45562 0.84315 0.1908 0.0
C2222 C 0.50307 0.77128 0.21513 0.0
C2223 C 0.48427 0.78801 0.17918 0.0
H2224 H 0.61105 0.68646 0.19367 0.0
H2225 H 0.48374 0.62808 0.19548 0.0
H2226 H 0.57722 0.79437 0.18932 0.0
H2227 H 0.58647 0.78686 0.20178 0.0
H2228 H 0.62241 0.7614 0.1933 0.0
H2229 H 0.41972 0.67014 0.19605 0.0
H2230 H 0.42814 0.71651 0.20372 0.0
H2231 H 0.42326 0.72438 0.19115 0.0
H2232 H 0.46032 0.84813 0.21498 0.0
H2233 H 0.44206 0.86079 0.1848 0.0
H2234 H 0.53783 0.76197 0.21436 0.0
H2235 H 0.4839 0.74071 0.21576 0.0
H2236 H 0.4992 0.79014 0.22183 0.0
H2237 H 0.51864 0.77814 0.17798 0.0
H2238 H 0.47534 0.81312 0.17382 0.0
H2239 H 0.46357 0.75884 0.178 0.0
C2240 C 0.55154 0.31889 0.44826 0.0
C2241 C 0.5856 0.29047 0.44578 0.0
C2242 C 0.50796 0.30603 0.44789 0.0
C2243 C 0.49777 0.26309 0.44516 0.0
C2244 C 0.53173 0.2333 0.44299 0.0
C2245 C 0.57544 0.24749 0.44324 0.0
C2246 C 0.47287 0.33857 0.45043 0.0
C2247 C 0.52178 0.18636 0.44063 0.0
C2248 C 0.38858 0.21913 0.45311 0.0
C2249 C 0.36671 0.21501 0.44442 0.0
C2250 C 0.43145 0.23433 0.45349 0.0
C2251 C 0.45157 0.24899 0.445 0.0
C2252 C 0.42746 0.25007 0.43638 0.0
C2253 C 0.38528 0.23212 0.43613 0.0
C2254 C 0.45505 0.23291 0.46294 0.0
C2255 C 0.44704 0.26809 0.42734 0.0
H2256 H 0.55866 0.35152 0.4506 0.0
H2257 H 0.60146 0.22502 0.44148 0.0
H2258 H 0.45019 0.34269 0.44434 0.0
H2259 H 0.45346 0.32653 0.45655 0.0
H2260 H 0.4866 0.37087 0.45234 0.0
H2261 H 0.55182 0.16695 0.43939 0.0
H2262 H 0.50304 0.17123 0.44654 0.0
H2263 H 0.50109 0.18463 0.43415 0.0
H2264 H 0.37315 0.20742 0.45956 0.0
H2265 H 0.36821 0.22882 0.42941 0.0
H2266 H 0.44971 0.26408 0.46676 0.0
H2267 H 0.49069 0.22806 0.4621 0.0
H2268 H 0.44213 0.20636 0.46754 0.0
H2269 H 0.46155 0.30067 0.42869 0.0
H2270 H 0.4225 0.27102 0.42155 0.0
H2271 H 0.47366 0.24639 0.42488 0.0
C2272 C -5e-05 0.15339 0.69546 0.0
C2273 C 0.04406 0.14428 0.69716 0.0
C2274 C 0.98463 0.19663 0.69559 0.0
C2275 C 0.01419 0.23124 0.69742 0.0
C2276 C 0.05818 0.22206 0.6995 0.0
C2277 C 0.07249 0.17893 0.6993 0.0
C2278 C 0.93693 0.20546 0.69376 0.0
C2279 C 0.09033 0.25778 0.70191 0.0
C2280 C 0.97981 0.34074 0.68742 0.0
C2281 C 0.96137 0.36002 0.69547 0.0
C2282 C -0.00059 0.29949 0.68808 0.0
C2283 C -0.00062 0.27717 0.69694 0.0
C2284 C 0.98398 0.2984 0.70521 0.0
C2285 C 0.9658 0.33994 0.70437 0.0
C2286 C 0.01787 0.27868 0.67922 0.0
C2287 C 0.98324 0.27652 0.71485 0.0
H2288 H 0.97755 0.12691 0.69398 0.0
H2289 H 0.10627 0.17264 0.70091 0.0
H2290 H 0.92298 0.2247 0.69972 0.0
H2291 H 0.9333 0.22521 0.68719 0.0
H2292 H 0.91771 0.17498 0.69295 0.0
H2293 H 0.12255 0.24468 0.70412 0.0
H2294 H 0.0951 0.27915 0.69562 0.0
H2295 H 0.0775 0.27838 0.70777 0.0
H2296 H 0.97642 0.3565 0.68055 0.0
H2297 H 0.95296 0.35588 0.71064 0.0
H2298 H -0.00266 0.25041 0.67716 0.0
H2299 H 0.05125 0.26626 0.68063 0.0
H2300 H 0.01923 0.30181 0.67314 0.0
H2301 H 0.95205 0.25845 0.71562 0.0
H2302 H 0.9849 0.30092 0.72069 0.0
H2303 H 0.01034 0.25301 0.71577 0.0
C2304 C 0.89952 0.73491 0.94209 0.0
C2305 C 0.89057 0.69714 0.94734 0.0
C2306 C 0.94121 0.75411 0.94245 0.0
C2307 C 0.97433 0.7346 0.94807 0.0
C2308 C 0.96463 0.69793 0.95374 0.0
C2309 C 0.92288 0.68005 0.95335 0.0
C2310 C 0.95007 0.79491 0.93677 0.0
C2311 C -0.00182 0.67724 0.9602 0.0
C2312 C 0.09144 0.75814 0.94089 0.0
C2313 C 0.10292 0.78986 0.94759 0.0
C2314 C 0.04979 0.73891 0.94113 0.0
C2315 C 0.01915 0.75258 0.94809 0.0
C2316 C 0.03167 0.78281 0.95516 0.0
C2317 C 0.07366 0.80024 0.9549 0.0
C2318 C 0.03815 0.70468 0.93385 0.0
C2319 C 0.00122 0.79746 0.96299 0.0
H2320 H 0.87453 0.74866 0.93754 0.0
H2321 H 0.91596 0.65183 0.95766 0.0
H2322 H 0.96487 0.82021 0.94142 0.0
H2323 H 0.97385 0.78767 0.93103 0.0
H2324 H 0.91996 0.80835 0.9335 0.0
H2325 H 0.98791 0.64437 0.96267 0.0
H2326 H 0.03017 0.67428 0.95656 0.0
H2327 H 0.00285 0.69809 0.96657 0.0
H2328 H 0.11417 0.7497 0.93527 0.0
H2329 H 0.08308 0.82328 0.96033 0.0
H2330 H 0.01248 0.71742 0.92902 0.0
H2331 H 0.02466 0.67537 0.93744 0.0
H2332 H 0.06672 0.69478 0.92949 0.0
H2333 H 0.00876 0.83135 0.96525 0.0
H2334 H 0.00585 0.77612 0.96929 0.0
H2335 H 0.96643 0.79594 0.96085 0.0
C2336 C 0.56766 0.80259 0.70097 0.0
C2337 C 0.54047 0.83682 0.69802 0.0
C2338 C 0.55327 0.75963 0.70122 0.0
C2339 C 0.50959 0.75042 0.69886 0.0
C2340 C 0.48086 0.78469 0.69629 0.0
C2341 C 0.49684 0.82769 0.69577 0.0
C2342 C 0.58509 0.7241 0.70397 0.0
C2343 C 0.43342 0.77586 0.69413 0.0
C2344 C 0.47692 0.63708 0.69101 0.0
C2345 C 0.46292 0.61913 0.69963 0.0
C2346 C 0.49433 0.67929 0.69074 0.0
C2347 C 0.49442 0.70472 0.69915 0.0
C2348 C 0.48144 0.686 0.70792 0.0
C2349 C 0.46745 0.64268 0.70808 0.0
C2350 C 0.51119 0.69713 0.68142 0.0
C2351 C 0.47884 0.71246 0.71698 0.0
H2352 H 0.60065 0.809 0.70316 0.0
H2353 H 0.47531 0.85393 0.69364 0.0
H2354 H 0.57455 0.70838 0.7107 0.0
H2355 H 0.58575 0.6985 0.69839 0.0
H2356 H 0.6188 0.73667 0.70497 0.0
H2357 H 0.41444 0.80637 0.6932 0.0
H2358 H 0.43071 0.75637 0.6875 0.0
H2359 H 0.41847 0.75642 0.69995 0.0
H2360 H 0.47292 0.61866 0.68448 0.0
H2361 H 0.45631 0.62853 0.71473 0.0
H2362 H 0.54374 0.71232 0.68244 0.0
H2363 H 0.48885 0.72281 0.67877 0.0
H2364 H 0.51393 0.67143 0.67588 0.0
H2365 H 0.50889 0.7319 0.7181 0.0
H2366 H 0.47334 0.69166 0.72335 0.0
H2367 H 0.45126 0.73571 0.71639 0.0
C2368 C 0.88639 0.75492 0.45799 0.0
C2369 C 0.86625 0.7637 0.44927 0.0
C2370 C 0.92942 0.74002 0.45828 0.0
C2371 C 0.95045 0.72884 0.44964 0.0
C2372 C 0.92681 0.73009 0.44097 0.0
C2373 C 0.88563 0.74984 0.4408 0.0
C2374 C 0.95253 0.73928 0.46779 0.0
C2375 C 0.94575 0.7128 0.4318 0.0
C2376 C 0.07151 0.74312 0.4451 0.0
C2377 C 0.08789 0.70261 0.44799 0.0
C2378 C 0.02699 0.75286 0.44611 0.0
C2379 C -0.00205 0.72023 0.44947 0.0
C2380 C 0.01464 0.67999 0.45269 0.0
C2381 C 0.05954 0.67282 0.4523 0.0
C2382 C 0.01127 0.79812 0.44361 0.0
C2383 C 0.98593 0.64406 0.45657 0.0
H2384 H 0.87038 0.76431 0.46455 0.0
H2385 H 0.86946 0.75596 0.43406 0.0
H2386 H 0.94807 0.70678 0.4711 0.0
H2387 H 0.988 0.74579 0.46711 0.0
H2388 H 0.93847 0.76374 0.47275 0.0
H2389 H 0.91955 0.70348 0.42672 0.0
H2390 H 0.96595 0.73831 0.42836 0.0
H2391 H 0.96674 0.68396 0.43314 0.0
H2392 H 0.09333 0.76724 0.44208 0.0
H2393 H 0.0722 0.64305 0.45514 0.0
H2394 H 0.98657 0.80961 0.44882 0.0
H2395 H -0.00421 0.7978 0.43648 0.0
H2396 H 0.03855 0.82197 0.44343 0.0
H2397 H 0.98602 0.6457 0.46446 0.0
H2398 H -0.00096 0.61158 0.45459 0.0
H2399 H 0.95177 0.64627 0.45401 0.0
C2400 C 0.01041 0.33956 0.18659 0.0
C2401 C 0.03093 0.35487 0.19482 0.0
C2402 C 0.99041 0.29835 0.18656 0.0
C2403 C 0.99233 0.27203 0.19486 0.0
C2404 C 0.01046 0.28897 0.20334 0.0
C2405 C 0.02851 0.33068 0.20324 0.0
C2406 C 0.96854 0.28234 0.17759 0.0
C2407 C 0.01204 0.26362 0.21258 0.0
C2408 C 0.91632 0.17688 0.19815 0.0
C2409 C 0.94154 0.14147 0.19503 0.0
C2410 C 0.93204 0.21943 0.19792 0.0
C2411 C 0.97485 0.2271 0.19471 0.0
C2412 C 0.00155 0.19168 0.19187 0.0
C2413 C 0.98439 0.14909 0.19197 0.0
C2414 C 0.90295 0.256 0.20133 0.0
C2415 C 0.0484 0.19884 0.18895 0.0
H2416 H 0.01205 0.3586 0.18009 0.0
H2417 H 0.0424 0.34368 0.20972 0.0
H2418 H 0.98732 0.25469 0.17459 0.0
H2419 H 0.93524 0.27019 0.17923 0.0
H2420 H 0.96609 0.30827 0.17209 0.0
H2421 H 0.98624 0.27603 0.21741 0.0
H2422 H 0.00725 0.22809 0.21163 0.0
H2423 H 0.04381 0.26893 0.21621 0.0
H2424 H 0.88393 0.17169 0.20084 0.0
H2425 H 0.00446 0.12197 0.1897 0.0
H2426 H 0.90272 0.28306 0.19608 0.0
H2427 H 0.9158 0.2691 0.20814 0.0
H2428 H 0.8688 0.24507 0.20253 0.0
H2429 H 0.04983 0.2208 0.18268 0.0
H2430 H 0.06523 0.16788 0.18716 0.0
H2431 H 0.06642 0.2151 0.19483 0.0
C2432 C 0.39739 0.26942 0.95484 0.0
C2433 C 0.39073 0.29182 0.94628 0.0
C2434 C 0.42602 0.23393 0.9552 0.0
C2435 C 0.44791 0.22124 0.94679 0.0
C2436 C 0.43404 0.23799 0.93791 0.0
C2437 C 0.40608 0.27412 0.93775 0.0
C2438 C 0.43763 0.21457 0.96474 0.0
C2439 C 0.45353 0.22186 0.92871 0.0
C2440 C 0.57084 0.21168 0.94876 0.0
C2441 C 0.57696 0.16659 0.94867 0.0
C2442 C 0.5288 0.22952 0.9482 0.0
C2443 C 0.49196 0.2015 0.94752 0.0
C2444 C 0.49792 0.15589 0.94753 0.0
C2445 C 0.5403 0.13909 0.94813 0.0
C2446 C 0.52386 0.27852 0.94837 0.0
C2447 C 0.46028 0.12416 0.94716 0.0
H2448 H 0.38484 0.28299 0.96143 0.0
H2449 H 0.40034 0.29127 0.93111 0.0
H2450 H 0.44131 0.17871 0.96418 0.0
H2451 H 0.4693 0.22822 0.96717 0.0
H2452 H 0.41253 0.22199 0.97022 0.0
H2453 H 0.43257 0.23022 0.92252 0.0
H2454 H 0.48598 0.23722 0.92765 0.0
H2455 H 0.45819 0.186 0.92895 0.0
H2456 H 0.59891 0.23307 0.94928 0.0
H2457 H 0.54438 0.10412 0.94837 0.0
H2458 H 0.50157 0.28831 0.95422 0.0
H2459 H 0.50926 0.28986 0.94158 0.0
H2460 H 0.55553 0.29553 0.94938 0.0
H2461 H 0.45616 0.10907 0.95429 0.0
H2462 H 0.46769 0.09735 0.9421 0.0
H2463 H 0.42897 0.13946 0.94506 0.0
C2464 C 0.49784 0.15255 0.82687 0.0
C2465 C 0.54251 0.14571 0.82834 0.0
C2466 C 0.48072 0.19503 0.82659 0.0
C2467 C 0.50914 0.23119 0.82767 0.0
C2468 C 0.55383 0.22441 0.82952 0.0
C2469 C 0.56977 0.18188 0.82991 0.0
C2470 C 0.43257 0.20133 0.82479 0.0
C2471 C 0.58549 0.26194 0.83055 0.0
C2472 C 0.47252 0.33655 0.81615 0.0
C2473 C 0.45321 0.35775 0.82389 0.0
C2474 C 0.49187 0.29555 0.81732 0.0
C2475 C 0.49245 0.27612 0.82648 0.0
C2476 C 0.4759 0.29908 0.83442 0.0
C2477 C 0.45589 0.33952 0.83301 0.0
C2478 C 0.50939 0.27201 0.80869 0.0
C2479 C 0.47761 0.28011 0.84434 0.0
H2480 H 0.4765 0.12491 0.82567 0.0
H2481 H 0.60429 0.17738 0.83101 0.0
H2482 H 0.41826 0.22265 0.83036 0.0
H2483 H 0.42775 0.21783 0.81784 0.0
H2484 H 0.41444 0.16997 0.82471 0.0
H2485 H 0.59198 0.27625 0.82343 0.0
H2486 H 0.57169 0.28805 0.8351 0.0
H2487 H 0.61715 0.25138 0.83363 0.0
H2488 H 0.46972 0.35052 0.80908 0.0
H2489 H 0.44084 0.3562 0.83896 0.0
H2490 H 0.48976 0.2422 0.80738 0.0
H2491 H 0.54351 0.26152 0.80996 0.0
H2492 H 0.50848 0.29257 0.80218 0.0
H2493 H 0.45702 0.2504 0.84467 0.0
H2494 H 0.46599 0.3035 0.84982 0.0
H2495 H 0.51147 0.27029 0.84612 0.0
C2496 C 0.41669 0.73992 0.58031 0.0
C2497 C 0.40321 0.69803 0.57762 0.0
C2498 C 0.46128 0.75108 0.58033 0.0
C2499 C 0.49285 0.7191 0.57794 0.0
C2500 C 0.47936 0.67716 0.57512 0.0
C2501 C 0.43488 0.66774 0.57475 0.0
C2502 C 0.47467 0.79705 0.58283 0.0
C2503 C 0.51182 0.64196 0.57259 0.0
C2504 C 0.60305 0.76005 0.57002 0.0
C2505 C 0.62437 0.76476 0.57877 0.0
C2506 C 0.56038 0.74433 0.56956 0.0
C2507 C 0.53994 0.72999 0.57803 0.0
C2508 C 0.56396 0.72845 0.58666 0.0
C2509 C 0.60593 0.74688 0.58699 0.0
C2510 C 0.53604 0.74778 0.56023 0.0
C2511 C 0.54416 0.7104 0.59567 0.0
H2512 H 0.39255 0.76394 0.58235 0.0
H2513 H 0.42516 0.63622 0.57218 0.0
H2514 H 0.49461 0.7969 0.58942 0.0
H2515 H 0.49526 0.81093 0.57707 0.0
H2516 H 0.44613 0.81874 0.58394 0.0
H2517 H 0.49564 0.61132 0.57028 0.0
H2518 H 0.53369 0.65305 0.56678 0.0
H2519 H 0.53266 0.63476 0.57886 0.0
H2520 H 0.61835 0.77263 0.56363 0.0
H2521 H 0.62261 0.75044 0.59375 0.0
H2522 H 0.51394 0.77636 0.56053 0.0
H2523 H 0.5156 0.71862 0.55889 0.0
H2524 H 0.55856 0.75228 0.5541 0.0
H2525 H 0.51965 0.73367 0.59847 0.0
H2526 H 0.56918 0.70483 0.60127 0.0
H2527 H 0.52708 0.67921 0.5942 0.0
C2528 C 0.01831 0.64217 0.3187 0.0
C2529 C 0.02085 0.61843 0.32718 0.0
C2530 C 0.00087 0.68409 0.3186 0.0
C2531 C 0.98422 0.70168 0.32716 0.0
C2532 C 0.98154 0.67547 0.33545 0.0
C2533 C 0.00054 0.63392 0.33541 0.0
C2534 C 0.00431 0.7107 0.30957 0.0
C2535 C 0.96166 0.69255 0.34454 0.0
C2536 C 0.99081 0.82402 0.3309 0.0
C2537 C 0.94858 0.83688 0.3283 0.0
C2538 C 0.00317 0.77993 0.33042 0.0
C2539 C 0.97214 0.74819 0.32756 0.0
C2540 C 0.9299 0.76099 0.32485 0.0
C2541 C 0.91924 0.80505 0.32506 0.0
C2542 C 0.04937 0.76722 0.3329 0.0
C2543 C 0.89573 0.72824 0.32179 0.0
H2544 H 0.03309 0.62919 0.3123 0.0
H2545 H 0.00262 0.61524 0.34195 0.0
H2546 H 0.974 0.72937 0.30822 0.0
H2547 H 0.03131 0.73456 0.31034 0.0
H2548 H 0.0112 0.69001 0.30325 0.0
H2549 H 0.95661 0.66628 0.34988 0.0
H2550 H 0.98352 0.71755 0.34768 0.0
H2551 H 0.92986 0.70842 0.34306 0.0
H2552 H 0.0142 0.84826 0.33323 0.0
H2553 H 0.88769 0.8142 0.32254 0.0
H2554 H 0.0644 0.74935 0.32687 0.0
H2555 H 0.04927 0.74488 0.33912 0.0
H2556 H 0.07005 0.79591 0.33461 0.0
H2557 H 0.90803 0.708 0.31583 0.0
H2558 H 0.86487 0.74403 0.31949 0.0
H2559 H 0.88835 0.7059 0.32779 0.0
C2560 C 0.08255 0.28894 0.0873 0.0
C2561 C 0.1059 0.27311 0.07944 0.0
C2562 C 0.03885 0.27751 0.08875 0.0
C2563 C 0.01876 0.24772 0.08246 0.0
C2564 C 0.04391 0.22722 0.07526 0.0
C2565 C 0.08727 0.24056 0.07375 0.0
C2566 C 0.01329 0.30068 0.09641 0.0
C2567 C 0.02406 0.1937 0.06868 0.0
C2568 C 0.90958 0.19618 0.08804 0.0
C2569 C 0.88275 0.21596 0.08121 0.0
C2570 C 0.95375 0.20715 0.0888 0.0
C2571 C 0.97088 0.24034 0.08291 0.0
C2572 C 0.94255 0.26439 0.07689 0.0
C2573 C 0.89869 0.25153 0.07601 0.0
C2574 C 0.98264 0.18024 0.09522 0.0
C2575 C 0.95931 0.30149 0.07083 0.0
H2576 H 0.09722 0.31353 0.09182 0.0
H2577 H 0.10516 0.2281 0.06768 0.0
H2578 H 0.99184 0.32539 0.09304 0.0
H2579 H 0.99206 0.27765 0.10036 0.0
H2580 H 0.03498 0.31758 0.10157 0.0
H2581 H 0.04923 0.17644 0.06443 0.0
H2582 H 0.00511 0.1693 0.07281 0.0
H2583 H 0.00115 0.20997 0.0637 0.0
H2584 H 0.89688 0.16935 0.09223 0.0
H2585 H 0.87804 0.26702 0.07073 0.0
H2586 H 0.00604 0.20108 0.09916 0.0
H2587 H 0.00192 0.15732 0.09079 0.0
H2588 H 0.96339 0.1609 0.10043 0.0
H2589 H 0.9323 0.32086 0.06769 0.0
H2590 H 0.9795 0.28829 0.06494 0.0
H2591 H 0.98036 0.32351 0.0751 0.0
C2592 C 0.29693 0.05373 0.36749 0.0
C2593 C 0.32442 0.07453 0.36092 0.0
C2594 C 0.30328 0.05783 0.37732 0.0
C2595 C 0.33846 0.08316 0.38079 0.0
C2596 C 0.36705 0.10377 0.37423 0.0
C2597 C 0.35979 0.09909 0.36434 0.0
C2598 C 0.27214 0.03486 0.384 0.0
C2599 C 0.4051 0.13076 0.37766 0.0
C2600 C 0.31993 0.11253 0.40677 0.0
C2601 C 0.33985 0.07714 0.41133 0.0
C2602 C 0.32236 0.1173 0.39679 0.0
C2603 C 0.34538 0.08602 0.39131 0.0
C2604 C 0.36874 0.0526 0.39601 0.0
C2605 C 0.36565 0.04859 0.40594 0.0
C2606 C 0.29739 0.15372 0.39208 0.0
C2607 C 0.39404 0.01876 0.39051 0.0
H2608 H 0.27018 0.03389 0.36491 0.0
H2609 H 0.38108 0.1154 0.35932 0.0
H2610 H 0.29022 0.01116 0.38847 0.0
H2611 H 0.25671 0.05881 0.38886 0.0
H2612 H 0.24593 0.01713 0.38014 0.0
H2613 H 0.42231 0.14734 0.37171 0.0
H2614 H 0.39381 0.15571 0.38281 0.0
H2615 H 0.42873 0.10962 0.38145 0.0
H2616 H 0.3002 0.13483 0.41091 0.0
H2617 H 0.38211 0.02188 0.40947 0.0
H2618 H 0.26774 0.14023 0.38862 0.0
H2619 H 0.31737 0.16931 0.38643 0.0
H2620 H 0.28716 0.17901 0.39727 0.0
H2621 H 0.3709 -0.00348 0.38685 0.0
H2622 H 0.41538 -0.00106 0.39521 0.0
H2623 H 0.41448 0.03436 0.38495 0.0
C2624 C 0.11833 0.05139 0.6158 0.0
C2625 C 0.14925 0.07661 0.61092 0.0
C2626 C 0.11406 0.05387 0.62575 0.0
C2627 C 0.1422 0.08148 0.63101 0.0
C2628 C 0.17121 0.10952 0.62603 0.0
C2629 C 0.1741 0.10702 0.61602 0.0
C2630 C 0.08187 0.0242 0.63067 0.0
C2631 C 0.20195 0.13937 0.63131 0.0
C2632 C 0.1287 0.0903 0.65815 0.0
C2633 C 0.15783 0.05805 0.66133 0.0
C2634 C 0.12304 0.09865 0.64831 0.0
C2635 C 0.14728 0.07443 0.64152 0.0
C2636 C 0.17616 0.0416 0.64472 0.0
C2637 C 0.18055 0.03355 0.6545 0.0
C2638 C 0.09135 0.13339 0.64517 0.0
C2639 C 0.20278 0.01483 0.63781 0.0
H2640 H 0.09858 0.02841 0.61183 0.0
H2641 H 0.19794 0.12656 0.61223 0.0
H2642 H 0.09962 -0.00333 0.63402 0.0
H2643 H 0.06441 0.04184 0.63641 0.0
H2644 H 0.0575 0.01062 0.62562 0.0
H2645 H 0.21714 0.16384 0.6265 0.0
H2646 H 0.18469 0.15665 0.63713 0.0
H2647 H 0.2283 0.11972 0.63461 0.0
H2648 H 0.11105 0.10956 0.66333 0.0
H2649 H 0.20218 0.00777 0.6568 0.0
H2650 H 0.06592 0.11885 0.64053 0.0
H2651 H 0.10855 0.15848 0.64089 0.0
H2652 H 0.07516 0.14957 0.6513 0.0
H2653 H 0.18079 -0.00424 0.63311 0.0
H2654 H 0.22516 -0.00816 0.64148 0.0
H2655 H 0.22252 0.03657 0.63319 0.0
C2656 C 0.18467 0.93658 0.86789 0.0
C2657 C 0.15907 0.91392 0.86127 0.0
C2658 C 0.17883 0.93099 0.87771 0.0
C2659 C 0.14664 0.90167 0.8811 0.0
C2660 C 0.1206 0.87842 0.87447 0.0
C2661 C 0.12688 0.88511 0.86461 0.0
C2662 C 0.20702 0.95698 0.88448 0.0
C2663 C 0.08612 0.84669 0.87776 0.0
C2664 C 0.16722 0.87518 0.90717 0.0
C2665 C 0.14297 0.90809 0.91161 0.0
C2666 C 0.16577 0.86977 0.8972 0.0
C2667 C 0.13941 0.89789 0.8916 0.0
C2668 C 0.11167 0.92812 0.8962 0.0
C2669 C 0.11387 0.93283 0.90612 0.0
C2670 C 0.19515 0.83648 0.8926 0.0
C2671 C 0.08264 0.95844 0.89059 0.0
H2672 H 0.20917 0.95923 0.86534 0.0
H2673 H 0.10731 0.86713 0.85952 0.0
H2674 H 0.18621 0.97805 0.88901 0.0
H2675 H 0.22514 0.93468 0.88927 0.0
H2676 H 0.23095 0.97795 0.88069 0.0
H2677 H 0.07302 0.82682 0.87179 0.0
H2678 H 0.09949 0.82452 0.88328 0.0
H2679 H 0.05871 0.8648 0.88105 0.0
H2680 H 0.1896 0.8559 0.91141 0.0
H2681 H 0.09444 0.9577 0.90958 0.0
H2682 H 0.22343 0.85327 0.88929 0.0
H2683 H 0.17761 0.81884 0.88686 0.0
H2684 H 0.20765 0.81244 0.89785 0.0
H2685 H 0.10306 0.98323 0.88694 0.0
H2686 H 0.05883 0.97561 0.89522 0.0
H2687 H 0.0645 0.94031 0.88502 0.0
C2688 C 0.35163 0.88891 0.11409 0.0
C2689 C 0.31124 0.90449 0.11087 0.0
C2690 C 0.36066 0.88586 0.1239 0.0
C2691 C 0.32808 0.89774 0.13058 0.0
C2692 C 0.28637 0.9108 0.12728 0.0
C2693 C 0.27873 0.91459 0.11748 0.0
C2694 C 0.40567 0.87242 0.1271 0.0
C2695 C 0.25032 0.92286 0.13412 0.0
C2696 C 0.32857 0.87468 0.15716 0.0
C2697 C 0.33633 0.91656 0.16073 0.0
C2698 C 0.3292 0.86678 0.14728 0.0
C2699 C 0.33825 0.9016 0.14093 0.0
C2700 C 0.35023 0.94283 0.14463 0.0
C2701 C 0.34861 0.94987 0.15448 0.0
C2702 C 0.31631 0.82237 0.14364 0.0
C2703 C 0.361 0.98069 0.13817 0.0
H2704 H 0.3768 0.88134 0.10892 0.0
H2705 H 0.24745 0.9262 0.11493 0.0
H2706 H 0.42285 0.90102 0.13015 0.0
H2707 H 0.4036 0.84739 0.13278 0.0
H2708 H 0.42554 0.85937 0.12113 0.0
H2709 H 0.21868 0.92805 0.13044 0.0
H2710 H 0.24601 0.89692 0.13955 0.0
H2711 H 0.25913 0.95328 0.13794 0.0
H2712 H 0.31872 0.84911 0.16204 0.0
H2713 H 0.35461 0.98216 0.15732 0.0
H2714 H 0.33746 0.81235 0.13762 0.0
H2715 H 0.28229 0.82362 0.14095 0.0
H2716 H 0.31812 0.79721 0.14932 0.0
H2717 H 0.38381 0.97043 0.13247 0.0
H2718 H 0.37582 0.0083 0.14214 0.0
H2719 H 0.33071 -0.00754 0.13469 0.0
C2720 C 0.62103 0.88996 0.6588 0.0
C2721 C 0.65625 0.91521 0.66206 0.0
C2722 C 0.61349 0.88427 0.64893 0.0
C2723 C 0.64208 0.90395 0.64223 0.0
C2724 C 0.67699 0.93008 0.64554 0.0
C2725 C 0.68322 0.9357 0.65534 0.0
C2726 C 0.57556 0.85665 0.64569 0.0
C2727 C 0.70822 0.95208 0.63872 0.0
C2728 C 0.66312 0.87046 0.6166 0.0
C2729 C 0.64457 0.90565 0.6117 0.0
C2730 C 0.65915 0.86694 0.62657 0.0
C2731 C 0.63572 0.89914 0.63172 0.0
C2732 C 0.6133 0.9321 0.62664 0.0
C2733 C 0.61824 0.93508 0.61673 0.0
C2734 C 0.68325 0.83104 0.63168 0.0
C2735 C 0.58722 0.9666 0.63176 0.0
H2736 H 0.60008 0.87387 0.66392 0.0
H2737 H 0.70972 0.95627 0.65775 0.0
H2738 H 0.55637 0.87397 0.64017 0.0
H2739 H 0.58798 0.8262 0.64242 0.0
H2740 H 0.55354 0.84784 0.65168 0.0
H2741 H 0.73443 0.9703 0.64247 0.0
H2742 H 0.72366 0.92745 0.63403 0.0
H2743 H 0.69022 0.97519 0.63409 0.0
H2744 H 0.68326 0.84754 0.61272 0.0
H2745 H 0.60298 0.96173 0.61292 0.0
H2746 H 0.66241 0.81628 0.63727 0.0
H2747 H 0.71247 0.84486 0.63524 0.0
H2748 H 0.69408 0.80504 0.62671 0.0
H2749 H 0.56649 0.95177 0.63737 0.0
H2750 H 0.56608 0.98529 0.6268 0.0
H2751 H 0.60983 0.98975 0.6353 0.0
C2752 C 0.86601 0.92637 0.36642 0.0
C2753 C 0.8308 0.9068 0.36171 0.0
C2754 C 0.87083 0.92225 0.37637 0.0
C2755 C 0.83996 0.89762 0.38166 0.0
C2756 C 0.80684 0.87458 0.37676 0.0
C2757 C 0.80256 0.87966 0.36687 0.0
C2758 C 0.90682 0.94709 0.3813 0.0
C2759 C 0.7736 0.84738 0.38203 0.0
C2760 C 0.85298 0.87808 0.40848 0.0
C2761 C 0.82744 0.91195 0.41224 0.0
C2762 C 0.85803 0.87301 0.39854 0.0
C2763 C 0.83697 0.90243 0.39224 0.0
C2764 C 0.81082 0.93621 0.39604 0.0
C2765 C 0.80629 0.94035 0.40592 0.0
C2766 C 0.8861 0.83653 0.39477 0.0
C2767 C 0.78724 0.96808 0.38964 0.0
H2768 H 0.88801 0.94713 0.36243 0.0
H2769 H 0.77593 0.86365 0.36319 0.0
H2770 H 0.89271 0.97565 0.38503 0.0
H2771 H 0.92291 0.92642 0.38674 0.0
H2772 H 0.93185 0.95894 0.37619 0.0
H2773 H 0.75441 0.82635 0.37713 0.0
H2774 H 0.7897 0.82646 0.38742 0.0
H2775 H 0.75067 0.86918 0.38585 0.0
H2776 H 0.86968 0.85618 0.41331 0.0
H2777 H 0.78575 0.96598 0.40872 0.0
H2778 H 0.91415 0.8503 0.39078 0.0
H2779 H 0.86721 0.81619 0.3897 0.0
H2780 H 0.89878 0.81533 0.40056 0.0
H2781 H 0.8109 0.98482 0.38491 0.0
H2782 H 0.76909 -0.00683 0.39373 0.0
H2783 H 0.76376 0.9504 0.38503 0.0
C2784 C 0.84911 0.10653 0.11437 0.0
C2785 C 0.82764 0.07 0.11055 0.0
C2786 C 0.85328 0.11204 0.12431 0.0
C2787 C 0.83558 0.08028 0.13056 0.0
C2788 C 0.81409 0.04342 0.12671 0.0
C2789 C 0.81031 0.03887 0.11681 0.0
C2790 C 0.8767 0.15164 0.12812 0.0
C2791 C 0.79426 0.0089 0.13306 0.0
C2792 C 0.86257 0.06196 0.15673 0.0
C2793 C 0.82451 0.07772 0.16105 0.0
C2794 C 0.86875 0.06589 0.1468 0.0
C2795 C 0.8362 0.08619 0.14114 0.0
C2796 C 0.79987 0.1057 0.14566 0.0
C2797 C 0.79447 0.10111 0.15552 0.0
C2798 C 0.90839 0.04539 0.14229 0.0
C2799 C 0.76468 0.12832 0.13998 0.0
H2800 H 0.86316 0.13046 0.10959 0.0
H2801 H 0.79304 0.01099 0.11397 0.0
H2802 H 0.85588 0.16902 0.13334 0.0
H2803 H 0.90666 0.14133 0.13193 0.0
H2804 H 0.88606 0.17471 0.12237 0.0
H2805 H 0.77993 0.98151 0.12894 0.0
H2806 H 0.8194 -0.00442 0.13794 0.0
H2807 H 0.76823 0.02351 0.13752 0.0
H2808 H 0.88602 0.04419 0.161 0.0
H2809 H 0.7656 0.11435 0.1589 0.0
H2810 H 0.9227 0.06743 0.13686 0.0
H2811 H 0.89865 0.0149 0.13861 0.0
H2812 H 0.93379 0.03735 0.14766 0.0
H2813 H 0.77924 0.15102 0.13472 0.0
H2814 H 0.74194 0.14685 0.14462 0.0
H2815 H 0.74557 0.10369 0.13597 0.0
C2816 C 0.63135 0.03275 0.86784 0.0
C2817 C 0.65586 0.0623 0.86249 0.0
C2818 C 0.62811 0.03721 0.87779 0.0
C2819 C 0.64967 0.07229 0.8824 0.0
C2820 C 0.67095 0.10445 0.87684 0.0
C2821 C 0.67429 0.09871 0.86694 0.0
C2822 C 0.60492 0.0023 0.88342 0.0
C2823 C 0.69325 0.14302 0.88139 0.0
C2824 C 0.63368 0.08228 0.90933 0.0
C2825 C 0.66895 0.0575 0.91269 0.0
C2826 C 0.62743 0.0889 0.89947 0.0
C2827 C 0.65726 0.07038 0.8929 0.0
C2828 C 0.6941 0.04745 0.89634 0.0
C2829 C 0.69937 0.0413 0.90616 0.0
C2830 C 0.58807 0.11404 0.89611 0.0
C2831 C 0.72729 0.02785 0.88964 0.0
H2832 H 0.61723 0.00468 0.86432 0.0
H2833 H 0.69299 0.12158 0.8627 0.0
H2834 H 0.62933 0.98229 0.88728 0.0
H2835 H 0.58309 0.01713 0.88882 0.0
H2836 H 0.58532 0.98044 0.87878 0.0
H2837 H 0.70034 0.16908 0.87612 0.0
H2838 H 0.6729 0.1568 0.88719 0.0
H2839 H 0.72456 0.13234 0.8846 0.0
H2840 H 0.61007 0.09482 0.91437 0.0
H2841 H 0.7271 0.02297 0.90876 0.0
H2842 H 0.56356 0.09103 0.89319 0.0
H2843 H 0.59704 0.13692 0.8903 0.0
H2844 H 0.57264 0.13272 0.90198 0.0
H2845 H 0.71138 0.0029 0.88509 0.0
H2846 H 0.75485 0.01229 0.89349 0.0
H2847 H 0.74068 0.05334 0.88485 0.0
C2848 C 0.8567 0.60658 0.86434 0.0
C2849 C 0.82248 0.58088 0.86075 0.0
C2850 C 0.86281 0.61176 0.87425 0.0
C2851 C 0.83459 0.58999 0.88071 0.0
C2852 C 0.80028 0.56386 0.87708 0.0
C2853 C 0.79459 0.55987 0.8672 0.0
C2854 C 0.8995 0.64029 0.87779 0.0
C2855 C 0.76977 0.53941 0.88363 0.0
C2856 C 0.8651 0.55384 0.90564 0.0
C2857 C 0.83852 0.58049 0.91131 0.0
C2858 C 0.8671 0.55906 0.89572 0.0
C2859 C 0.84173 0.59177 0.89127 0.0
C2860 C 0.8178 0.62133 0.89704 0.0
C2861 C 0.81652 0.61538 0.90702 0.0
C2862 C 0.89353 0.52708 0.88994 0.0
C2863 C 0.79101 0.65722 0.89262 0.0
H2864 H 0.87811 0.62328 0.85939 0.0
H2865 H 0.76847 0.53959 0.86448 0.0
H2866 H 0.88752 0.66301 0.88335 0.0
H2867 H 0.92508 0.61975 0.88111 0.0
H2868 H 0.91464 0.65953 0.87195 0.0
H2869 H 0.7444 0.52094 0.87967 0.0
H2870 H 0.78859 0.51616 0.88807 0.0
H2871 H 0.7533 0.56249 0.88853 0.0
H2872 H 0.88285 0.52739 0.90897 0.0
H2873 H 0.79606 0.63615 0.91137 0.0
H2874 H 0.9134 0.54435 0.88453 0.0
H2875 H 0.87116 0.50474 0.8861 0.0
H2876 H 0.9156 0.50723 0.89448 0.0
H2877 H 0.80996 0.67428 0.887 0.0
H2878 H 0.78011 0.68142 0.89799 0.0
H2879 H 0.76171 0.64295 0.88917 0.0
C2880 C 0.6796 0.60735 0.11574 0.0
C2881 C 0.6565 0.57476 0.11091 0.0
C2882 C 0.67783 0.61036 0.12575 0.0
C2883 C 0.65178 0.58052 0.13099 0.0
C2884 C 0.6252 0.55039 0.12601 0.0
C2885 C 0.62829 0.54755 0.11605 0.0
C2886 C 0.70642 0.64318 0.13076 0.0
C2887 C 0.59576 0.51902 0.13124 0.0
C2888 C 0.69588 0.53987 0.15465 0.0
C2889 C 0.67146 0.56345 0.16135 0.0
C2890 C 0.68992 0.54569 0.14484 0.0
C2891 C 0.65807 0.57538 0.1415 0.0
C2892 C 0.63232 0.5986 0.14818 0.0
C2893 C 0.63949 0.59256 0.15803 0.0
C2894 C 0.71797 0.51992 0.13802 0.0
C2895 C 0.59773 0.63028 0.14494 0.0
H2896 H 0.70118 0.62855 0.11175 0.0
H2897 H 0.60963 0.52303 0.11228 0.0
H2898 H 0.68764 0.6607 0.13631 0.0
H2899 H 0.73362 0.62599 0.13437 0.0
H2900 H 0.72047 0.6674 0.12573 0.0
H2901 H 0.57244 0.50255 0.12637 0.0
H2902 H 0.61585 0.49373 0.1348 0.0
H2903 H 0.57706 0.53622 0.13686 0.0
H2904 H 0.71984 0.51652 0.15708 0.0
H2905 H 0.62061 0.61124 0.1631 0.0
H2906 H 0.73576 0.54238 0.13318 0.0
H2907 H 0.69712 0.49868 0.13352 0.0
H2908 H 0.74218 0.49914 0.14176 0.0
H2909 H 0.61359 0.65989 0.14201 0.0
H2910 H 0.57596 0.64024 0.15087 0.0
H2911 H 0.57757 0.61591 0.13917 0.0
C2912 C 0.67244 0.366 0.40643 0.0
C2913 C 0.65328 0.40006 0.41156 0.0
C2914 C 0.66576 0.3622 0.39652 0.0
C2915 C 0.63889 0.39288 0.39175 0.0
C2916 C 0.61557 0.42402 0.39717 0.0
C2917 C 0.62355 0.42761 0.40698 0.0
C2918 C 0.69099 0.32827 0.39106 0.0
C2919 C 0.58553 0.45649 0.39247 0.0
C2920 C 0.67937 0.43816 0.36826 0.0
C2921 C 0.65355 0.41669 0.36146 0.0
C2922 C 0.6755 0.42947 0.378 0.0
C2923 C 0.64355 0.39968 0.38124 0.0
C2924 C 0.61596 0.37883 0.37452 0.0
C2925 C 0.62162 0.38717 0.36468 0.0
C2926 C 0.70586 0.45259 0.38483 0.0
C2927 C 0.58087 0.34752 0.37769 0.0
H2928 H 0.69525 0.3446 0.41001 0.0
H2929 H 0.60822 0.45347 0.41102 0.0
H2930 H 0.66998 0.31258 0.38562 0.0
H2931 H 0.7185 0.3442 0.38727 0.0
H2932 H 0.70446 0.30271 0.39583 0.0
H2933 H 0.56371 0.47252 0.39772 0.0
H2934 H 0.60526 0.48208 0.38891 0.0
H2935 H 0.56525 0.44044 0.38694 0.0
H2936 H 0.703 0.46222 0.36601 0.0
H2937 H 0.6014 0.37024 0.35955 0.0
H2938 H 0.72312 0.42851 0.38937 0.0
H2939 H 0.68682 0.47415 0.38961 0.0
H2940 H 0.73068 0.47273 0.3811 0.0
H2941 H 0.59614 0.31675 0.38014 0.0
H2942 H 0.55774 0.33971 0.37184 0.0
H2943 H 0.56228 0.36112 0.38378 0.0
C2944 C 0.79344 0.43177 0.65514 0.0
C2945 C 0.82324 0.41178 0.66133 0.0
C2946 C 0.79853 0.4298 0.64524 0.0
C2947 C 0.83471 0.40754 0.64132 0.0
C2948 C 0.86574 0.3881 0.6475 0.0
C2949 C 0.85974 0.39059 0.65747 0.0
C2950 C 0.76474 0.45134 0.63897 0.0
C2951 C 0.90498 0.36449 0.64359 0.0
C2952 C 0.81451 0.37708 0.61543 0.0
C2953 C 0.83139 0.41367 0.61072 0.0
C2954 C 0.81814 0.37288 0.62539 0.0
C2955 C 0.83955 0.40583 0.63073 0.0
C2956 C 0.85954 0.44103 0.62588 0.0
C2957 C 0.85504 0.4446 0.61596 0.0
C2958 C 0.79643 0.33476 0.63027 0.0
C2959 C 0.88321 0.47658 0.63123 0.0
H2960 H 0.76573 0.44904 0.65807 0.0
H2961 H 0.88282 0.37501 0.66221 0.0
H2962 H 0.78039 0.47652 0.63444 0.0
H2963 H 0.74983 0.42687 0.63415 0.0
H2964 H 0.73832 0.46702 0.64316 0.0
H2965 H 0.92435 0.34842 0.64928 0.0
H2966 H 0.89462 0.3395 0.63834 0.0
H2967 H 0.92636 0.38787 0.63976 0.0
H2968 H 0.7964 0.35301 0.6114 0.0
H2969 H 0.86917 0.47233 0.61231 0.0
H2970 H 0.76707 0.3463 0.63414 0.0
H2971 H 0.8187 0.32001 0.63559 0.0
H2972 H 0.78623 0.30922 0.62512 0.0
H2973 H 0.85922 0.49667 0.63519 0.0
H2974 H 0.90192 0.49828 0.62638 0.0
H2975 H 0.90595 0.46238 0.63653 0.0
C2976 C 0.12406 0.39781 0.1575 0.0
C2977 C 0.16698 0.39904 0.16109 0.0
C2978 C 0.11584 0.39751 0.14759 0.0
C2979 C 0.15124 0.39836 0.14109 0.0
C2980 C 0.19435 0.3979 0.14464 0.0
C2981 C 0.20159 0.39834 0.15448 0.0
C2982 C 0.06934 0.39749 0.14406 0.0
C2983 C 0.23326 0.39898 0.13801 0.0
C2984 C 0.14682 0.37621 0.11436 0.0
C2985 C 0.14938 0.41871 0.11059 0.0
C2986 C 0.14434 0.36887 0.12427 0.0
C2987 C 0.14435 0.40474 0.13062 0.0
C2988 C 0.14459 0.44751 0.12688 0.0
C2989 C 0.14724 0.45391 0.11701 0.0
C2990 C 0.14379 0.32268 0.12796 0.0
C2991 C 0.14467 0.48685 0.13336 0.0
H2992 H 0.09678 0.39772 0.16239 0.0
H2993 H 0.23498 0.39924 0.15688 0.0
H2994 H 0.06262 0.42813 0.14014 0.0
H2995 H 0.06425 0.37023 0.13899 0.0
H2996 H 0.04541 0.3944 0.14997 0.0
H2997 H 0.26469 0.39525 0.14187 0.0
H2998 H 0.23074 0.37264 0.13264 0.0
H2999 H 0.23394 0.43044 0.13411 0.0
H3000 H 0.14761 0.34844 0.10963 0.0
H3001 H 0.14887 0.48698 0.11444 0.0
H3002 H 0.11846 0.31878 0.13354 0.0
H3003 H 0.17572 0.31506 0.13128 0.0
H3004 H 0.13759 0.29865 0.1222 0.0
H3005 H 0.11842 0.4841 0.13876 0.0
H3006 H 0.14013 0.51778 0.12937 0.0
H3007 H 0.17619 0.48861 0.13723 0.0
C3008 C 0.28921 0.38413 0.86646 0.0
C3009 C 0.3225 0.40244 0.8609 0.0
C3010 C 0.29391 0.37933 0.87635 0.0
C3011 C 0.33268 0.39378 0.88083 0.0
C3012 C 0.36812 0.40811 0.87512 0.0
C3013 C 0.36265 0.41217 0.86518 0.0
C3014 C 0.25574 0.36261 0.88208 0.0
C3015 C 0.4104 0.42282 0.87958 0.0
C3016 C 0.30984 0.45128 0.90415 0.0
C3017 C 0.32221 0.42052 0.91105 0.0
C3018 C 0.31502 0.44338 0.8944 0.0
C3019 C 0.33198 0.40299 0.89128 0.0
C3020 C 0.34468 0.37146 0.89813 0.0
C3021 C 0.33971 0.3806 0.90794 0.0
C3022 C 0.30128 0.47826 0.8874 0.0
C3023 C 0.36242 0.32773 0.89515 0.0
H3024 H 0.25858 0.3754 0.86311 0.0
H3025 H 0.38861 0.42585 0.86088 0.0
H3026 H 0.2669 0.339 0.88754 0.0
H3027 H 0.24003 0.39021 0.88585 0.0
H3028 H 0.23084 0.3466 0.87751 0.0
H3029 H 0.43706 0.42519 0.87424 0.0
H3030 H 0.40573 0.45539 0.88285 0.0
H3031 H 0.4205 0.4001 0.88532 0.0
H3032 H 0.29527 0.48175 0.90631 0.0
H3033 H 0.34968 0.3565 0.91313 0.0
H3034 H 0.27349 0.46637 0.88305 0.0
H3035 H 0.32849 0.48586 0.88246 0.0
H3036 H 0.29125 0.5089 0.89099 0.0
H3037 H 0.33488 0.30614 0.89313 0.0
H3038 H 0.38076 0.31176 0.90101 0.0
H3039 H 0.38411 0.33076 0.88885 0.0
C3040 C 0.34252 0.61266 0.61543 0.0
C3041 C 0.3077 0.58715 0.61206 0.0
C3042 C 0.35091 0.61631 0.62529 0.0
C3043 C 0.32417 0.59352 0.63188 0.0
C3044 C 0.28836 0.56887 0.62848 0.0
C3045 C 0.28036 0.56649 0.61868 0.0
C3046 C 0.38893 0.64355 0.62864 0.0
C3047 C 0.25878 0.54406 0.63519 0.0
C3048 C 0.35588 0.55558 0.65664 0.0
C3049 C 0.32858 0.58158 0.66223 0.0
C3050 C 0.35793 0.56149 0.6467 0.0
C3051 C 0.33265 0.59472 0.64235 0.0
C3052 C 0.30858 0.62377 0.64816 0.0
C3053 C 0.3063 0.6164 0.65801 0.0
C3054 C 0.38383 0.52962 0.64081 0.0
C3055 C 0.28225 0.66042 0.64388 0.0
H3056 H 0.36395 0.62857 0.61037 0.0
H3057 H 0.2528 0.54765 0.61616 0.0
H3058 H 0.37892 0.66508 0.6346 0.0
H3059 H 0.41509 0.62193 0.63135 0.0
H3060 H 0.40265 0.66394 0.62282 0.0
H3061 H 0.23299 0.52559 0.63136 0.0
H3062 H 0.27822 0.52075 0.63949 0.0
H3063 H 0.2428 0.56692 0.6402 0.0
H3064 H 0.37298 0.52867 0.65996 0.0
H3065 H 0.28556 0.63669 0.66241 0.0
H3066 H 0.40318 0.54695 0.63531 0.0
H3067 H 0.36108 0.50732 0.63705 0.0
H3068 H 0.40625 0.50973 0.64525 0.0
H3069 H 0.30126 0.67753 0.63829 0.0
H3070 H 0.27201 0.68446 0.64935 0.0
H3071 H 0.25252 0.64691 0.64047 0.0
C3072 C 0.13484 0.61035 0.40901 0.0
C3073 C 0.17193 0.58732 0.41206 0.0
C3074 C 0.12501 0.61459 0.39923 0.0
C3075 C 0.15275 0.5951 0.39236 0.0
C3076 C 0.1906 0.5727 0.39542 0.0
C3077 C 0.19978 0.56943 0.40517 0.0
C3078 C 0.08465 0.63916 0.39625 0.0
C3079 C 0.22137 0.55158 0.3884 0.0
C3080 C 0.12274 0.56001 0.36729 0.0
C3081 C 0.14738 0.58949 0.36192 0.0
C3082 C 0.12069 0.56363 0.37728 0.0
C3083 C 0.1434 0.59791 0.38193 0.0
C3084 C 0.16441 0.63027 0.37638 0.0
C3085 C 0.16664 0.62531 0.36645 0.0
C3086 C 0.09797 0.52834 0.38289 0.0
C3087 C 0.18811 0.66793 0.38096 0.0
H3088 H 0.11292 0.62401 0.41427 0.0
H3089 H 0.22895 0.55244 0.40743 0.0
H3090 H 0.09289 0.66385 0.39076 0.0
H3091 H 0.06089 0.61628 0.393 0.0
H3092 H 0.06868 0.65574 0.40235 0.0
H3093 H 0.24889 0.5346 0.39196 0.0
H3094 H 0.20343 0.52757 0.38397 0.0
H3095 H 0.23503 0.57656 0.38352 0.0
H3096 H 0.1082 0.53219 0.36375 0.0
H3097 H 0.1856 0.64808 0.36223 0.0
H3098 H 0.07826 0.54259 0.38873 0.0
H3099 H 0.12278 0.50677 0.38618 0.0
H3100 H 0.07639 0.50814 0.37831 0.0
H3101 H 0.16842 0.68202 0.38683 0.0
H3102 H 0.19577 0.69405 0.37574 0.0
H3103 H 0.2192 0.65616 0.38408 0.0
C3104 C 0.36963 0.96792 0.24023 0.0
C3105 C 0.33559 0.93985 0.23772 0.0
C3106 C 0.37161 0.98625 0.24937 0.0
C3107 C 0.33789 0.97723 0.256 0.0
C3108 C 0.30255 0.95012 0.25332 0.0
C3109 C 0.30226 0.9311 0.24424 0.0
C3110 C 0.41015 0.01446 0.25201 0.0
C3111 C 0.26514 0.94121 0.26005 0.0
C3112 C 0.36149 0.9915 0.28241 0.0
C3113 C 0.34575 0.03363 0.284 0.0
C3114 C 0.35905 0.97259 0.27331 0.0
C3115 C 0.33961 -0.00383 0.26573 0.0
C3116 C 0.3223 0.03815 0.26742 0.0
C3117 C 0.32583 0.05642 0.27652 0.0
C3118 C 0.37833 0.92796 0.27173 0.0
C3119 C 0.3005 0.064 0.25959 0.0
H3120 H 0.39527 0.97437 0.2351 0.0
H3121 H 0.27579 0.90969 0.24216 0.0
H3122 H 0.39888 0.04733 0.25416 0.0
H3123 H 0.4274 0.0001 0.25821 0.0
H3124 H 0.4337 0.01803 0.24604 0.0
H3125 H 0.23908 0.92129 0.25668 0.0
H3126 H 0.2772 0.92379 0.26645 0.0
H3127 H 0.2507 0.97238 0.26251 0.0
H3128 H 0.37704 0.9741 0.28821 0.0
H3129 H 0.31295 0.08874 0.27781 0.0
H3130 H 0.40454 0.92989 0.26629 0.0
H3131 H 0.35303 0.90544 0.26895 0.0
H3132 H 0.39217 0.91388 0.27837 0.0
H3133 H 0.32428 0.07106 0.25384 0.0
H3134 H 0.28702 0.09538 0.26221 0.0
H3135 H 0.27361 0.04471 0.25639 0.0
C3136 C 0.23552 0.10025 0.53316 0.0
C3137 C 0.19156 0.11141 0.53456 0.0
C3138 C 0.25286 0.09569 0.52393 0.0
C3139 C 0.22572 0.10274 0.51589 0.0
C3140 C 0.18102 0.11227 0.51727 0.0
C3141 C 0.16451 0.11626 0.52656 0.0
C3142 C 0.30062 0.08497 0.52277 0.0
C3143 C 0.1509 0.12008 0.50893 0.0
C3144 C 0.27951 0.14607 0.49342 0.0
C3145 C 0.28032 0.10922 0.48755 0.0
C3146 C 0.26156 0.14434 0.5026 0.0
C3147 C 0.24471 0.10445 0.5061 0.0
C3148 C 0.24528 0.06701 0.50018 0.0
C3149 C 0.26266 0.06999 0.49091 0.0
C3150 C 0.26078 0.18529 0.50856 0.0
C3151 C 0.22848 0.0237 0.50372 0.0
H3152 H 0.25678 0.09647 0.53927 0.0
H3153 H 0.13029 0.12366 0.52752 0.0
H3154 H 0.30485 0.05787 0.51762 0.0
H3155 H 0.31813 0.11367 0.51985 0.0
H3156 H 0.31612 0.0757 0.52963 0.0
H3157 H 0.11642 0.12437 0.51118 0.0
H3158 H 0.1614 0.14979 0.50504 0.0
H3159 H 0.15261 0.09248 0.50385 0.0
H3160 H 0.293 0.1764 0.49078 0.0
H3161 H 0.26389 0.04138 0.48639 0.0
H3162 H 0.27997 0.18033 0.51517 0.0
H3163 H 0.2268 0.19285 0.51072 0.0
H3164 H 0.27435 0.21386 0.5047 0.0
H3165 H 0.24745 0.01338 0.51006 0.0
H3166 H 0.2308 -0.00218 0.49821 0.0
H3167 H 0.19394 0.02674 0.50598 0.0
C3168 C 0.12101 0.98156 0.78356 0.0
C3169 C 0.11666 0.9364 0.78485 0.0
C3170 C 0.12543 -0.00028 0.77441 0.0
C3171 C 0.12553 0.97211 0.76633 0.0
C3172 C 0.12172 0.92648 0.76758 0.0
C3173 C 0.1173 0.90922 0.77681 0.0
C3174 C 0.12937 0.04855 0.77339 0.0
C3175 C 0.12181 0.8959 0.75916 0.0
C3176 C 0.09172 0.0238 0.74284 0.0
C3177 C 0.13199 0.03026 0.73838 0.0
C3178 C 0.08911 0.00382 0.75182 0.0
C3179 C 0.1279 0.99115 0.75656 0.0
C3180 C 0.16877 -0.00245 0.75202 0.0
C3181 C 0.17025 0.01656 0.7429 0.0
C3182 C 0.04484 -0.00331 0.75628 0.0
C3183 C 0.2109 0.98533 0.7569 0.0
H3184 H 0.12013 0.00287 0.7897 0.0
H3185 H 0.11473 0.87429 0.77774 0.0
H3186 H 0.15931 0.05691 0.76934 0.0
H3187 H 0.10119 0.06134 0.7693 0.0
H3188 H 0.13052 0.06537 0.7804 0.0
H3189 H 0.11977 0.86117 0.76136 0.0
H3190 H 0.09376 0.90333 0.75444 0.0
H3191 H 0.15193 0.90059 0.7549 0.0
H3192 H 0.06229 0.03435 0.73924 0.0
H3193 H 0.2013 0.02199 0.7394 0.0
H3194 H 0.04233 0.01559 0.76299 0.0
H3195 H 0.04056 0.9618 0.75814 0.0
H3196 H 0.01781 0.00664 0.75148 0.0
H3197 H 0.21457 0.0045 0.76356 0.0
H3198 H 0.23983 0.99135 0.75232 0.0
H3199 H 0.21034 0.95043 0.75895 0.0
C3200 C 0.25789 0.87469 0.03246 0.0
C3201 C 0.30281 0.8734 0.03436 0.0
C3202 C 0.24225 0.87993 0.02312 0.0
C3203 C 0.27227 0.88429 0.0155 0.0
C3204 C 0.3176 0.88409 0.01741 0.0
C3205 C 0.3323 0.87847 0.0268 0.0
C3206 C 0.19362 0.87978 0.02139 0.0
C3207 C 0.35061 0.8892 1.0095 0.0
C3208 C 0.23143 0.85102 0.99101 0.0
C3209 C 0.22097 0.8913 0.98698 0.0
C3210 C 0.24936 0.84836 1.00019 0.0
C3211 C 0.2563 0.88704 1.00549 0.0
C3212 C 0.24675 0.92799 1.0013 0.0
C3213 C 0.22922 0.92959 0.99205 0.0
C3214 C 0.25922 0.8041 1.00435 0.0
C3215 C 0.25316 0.9699 1.00674 0.0
H3216 H 0.23496 0.87054 0.03826 0.0
H3217 H 0.367 0.87837 0.02825 0.0
H3218 H 0.18389 0.90934 0.01736 0.0
H3219 H 0.18463 0.85116 0.01697 0.0
H3220 H 0.17464 0.87851 0.02812 0.0
H3221 H 0.38462 0.89042 0.01222 0.0
H3222 H 0.34773 0.86153 1.00445 0.0
H3223 H 0.34403 0.91946 1.00542 0.0
H3224 H 0.22405 0.82157 0.98707 0.0
H3225 H 0.21995 0.96054 0.98894 0.0
H3226 H 0.23793 0.79812 1.01061 0.0
H3227 H 0.29349 0.80287 1.00688 0.0
H3228 H 0.25407 0.77743 0.99913 0.0
H3229 H 0.23059 0.97073 0.01292 0.0
H3230 H 0.24699 -0.00093 1.00226 0.0
H3231 H 0.28685 0.97176 1.0096 0.0
C3232 C 0.59898 0.06206 0.77904 0.0
C3233 C 0.63024 0.04939 0.78579 0.0
C3234 C 0.60004 0.04603 0.76967 0.0
C3235 C 0.63336 0.01668 0.76694 0.0
C3236 C 0.66548 0.00425 0.77368 0.0
C3237 C 0.66338 0.02054 0.78304 0.0
C3238 C 0.56482 0.0597 0.76277 0.0
C3239 C 0.70165 0.97319 0.77104 0.0
C3240 C 0.60727 0.93815 0.74684 0.0
C3241 C 0.6298 0.95627 0.73906 0.0
C3242 C 0.60868 0.95723 0.7559 0.0
C3243 C 0.63237 -0.00375 0.75728 0.0
C3244 C 0.65423 0.01566 0.74945 0.0
C3245 C 0.65288 -0.00464 0.74044 0.0
C3246 C 0.58485 0.93535 0.76403 0.0
C3247 C 0.67936 0.05764 0.75062 0.0
H3248 H 0.57301 0.08391 0.78114 0.0
H3249 H 0.68797 0.01109 0.78818 0.0
H3250 H 0.57963 0.07304 0.75618 0.0
H3251 H 0.54506 0.03092 0.7607 0.0
H3252 H 0.54267 0.08462 0.76585 0.0
H3253 H 0.72556 0.96881 0.77691 0.0
H3254 H 0.68765 0.94092 0.7692 0.0
H3255 H 0.71918 0.98526 0.76464 0.0
H3256 H 0.58822 0.90881 0.74589 0.0
H3257 H 0.67052 0.00978 0.73455 0.0
H3258 H 0.56006 0.95779 0.76703 0.0
H3259 H 0.60811 0.92745 0.76983 0.0
H3260 H 0.56826 0.90482 0.76179 0.0
H3261 H 0.65757 0.08347 0.75342 0.0
H3262 H 0.69387 0.06908 0.74381 0.0
H3263 H 0.7059 0.05308 0.7559 0.0
C3264 C 0.78672 0.83286 0.49465 0.0
C3265 C 0.78834 0.86893 0.48857 0.0
C3266 C 0.76838 0.83612 0.50378 0.0
C3267 C 0.75239 0.87684 0.50699 0.0
C3268 C 0.75452 0.91361 0.50089 0.0
C3269 C 0.7719 0.90904 0.49168 0.0
C3270 C 0.76565 0.79584 0.50993 0.0
C3271 C 0.73893 0.9578 0.50415 0.0
C3272 C 0.66826 0.87233 0.52678 0.0
C3273 C 0.69404 0.87747 0.53498 0.0
C3274 C 0.68668 0.87315 0.51764 0.0
C3275 C 0.73203 0.88017 0.5166 0.0
C3276 C 0.75809 0.88746 0.52478 0.0
C3277 C 0.73887 0.88569 0.53387 0.0
C3278 C 0.65774 0.86495 0.50911 0.0
C3279 C 0.80647 0.89593 0.52394 0.0
H3280 H 0.7993 0.80189 0.49218 0.0
H3281 H 0.77378 0.93699 0.48698 0.0
H3282 H 0.78407 0.80096 0.51664 0.0
H3283 H 0.73117 0.78942 0.5119 0.0
H3284 H 0.77888 0.76654 0.5063 0.0
H3285 H 0.74385 0.98331 0.49864 0.0
H3286 H 0.70375 0.95638 0.50597 0.0
H3287 H 0.75666 0.96757 0.5107 0.0
H3288 H 0.63349 0.86722 0.52747 0.0
H3289 H 0.75928 0.8896 0.54011 0.0
H3290 H 0.66835 0.8348 0.50542 0.0
H3291 H 0.66069 0.8921 0.50394 0.0
H3292 H 0.62286 0.86134 0.51111 0.0
H3293 H 0.8231 0.8662 0.52131 0.0
H3294 H 0.8213 0.90535 0.53086 0.0
H3295 H 0.81274 0.92222 0.51868 0.0
C3296 C 0.83165 0.97866 0.2826 0.0
C3297 C 0.86388 0.94789 0.28488 0.0
C3298 C 0.82854 -0.00373 0.27336 0.0
C3299 C 0.85813 0.98257 0.26621 0.0
C3300 C 0.89076 0.95174 0.26847 0.0
C3301 C 0.89344 0.93513 0.27775 0.0
C3302 C 0.79366 0.02958 0.27125 0.0
C3303 C 0.92308 0.93636 0.26107 0.0
C3304 C 0.82992 0.00043 0.24003 0.0
C3305 C 0.85432 0.03792 0.23789 0.0
C3306 C 0.83071 0.98203 0.24922 0.0
C3307 C 0.8563 0.00171 0.25645 0.0
C3308 C 0.88135 0.03915 0.2543 0.0
C3309 C 0.88033 0.05649 0.24507 0.0
C3310 C 0.80403 0.94168 0.25122 0.0
C3311 C 0.90926 0.06107 0.26177 0.0
H3312 H 0.80842 0.98858 0.28798 0.0
H3313 H 0.91913 0.91225 0.27943 0.0
H3314 H 0.80891 0.06033 0.26875 0.0
H3315 H 0.77225 0.01767 0.26543 0.0
H3316 H 0.77317 0.03684 0.27758 0.0
H3317 H 0.94567 0.91121 0.2639 0.0
H3318 H 0.90551 0.92257 0.25485 0.0
H3319 H 0.9427 0.96429 0.25845 0.0
H3320 H 0.80956 0.98589 0.23459 0.0
H3321 H 0.90022 0.08471 0.24347 0.0
H3322 H 0.77992 0.9485 0.25692 0.0
H3323 H 0.82551 0.91518 0.25383 0.0
H3324 H 0.78633 0.92995 0.24481 0.0
H3325 H 0.88877 0.07086 0.26793 0.0
H3326 H 0.92621 0.09044 0.25899 0.0
H3327 H 0.93414 0.03796 0.26448 0.0
C3328 C 0.74656 0.1018 0.98932 0.0
C3329 C 0.70182 0.09222 0.98881 0.0
C3330 C 0.76776 0.10601 0.99818 0.0
C3331 C 0.74359 0.10072 1.00672 0.0
C3332 C 0.69879 0.08982 1.00622 0.0
C3333 C 0.67863 0.08547 0.99731 0.0
C3334 C 0.81575 0.11704 0.99841 0.0
C3335 C 0.67171 0.08387 0.01512 0.0
C3336 C 0.79744 0.08043 0.03077 0.0
C3337 C 0.79768 0.12235 0.0347 0.0
C3338 C 0.78162 0.07312 0.0215 0.0
C3339 C 0.76429 0.10839 0.01619 0.0
C3340 C 0.76428 0.15077 0.0202 0.0
C3341 C 0.78164 0.15731 0.02935 0.0
C3342 C 0.78327 0.0277 0.0174 0.0
C3343 C 0.7449 0.18902 0.01493 0.0
H3344 H 0.76474 0.10715 0.98281 0.0
H3345 H 0.64439 0.07692 0.99701 0.0
H3346 H 0.82043 0.14982 1.00158 0.0
H3347 H 0.8335 0.09347 1.00298 0.0
H3348 H 0.8306 0.11687 0.99119 0.0
H3349 H 0.63743 0.07469 0.01351 0.0
H3350 H 0.68618 0.05825 0.01971 0.0
H3351 H 0.67154 0.11456 0.0193 0.0
H3352 H 0.81032 0.05356 0.03491 0.0
H3353 H 0.78165 0.1896 0.03247 0.0
H3354 H 0.80047 0.02812 1.01044 0.0
H3355 H 0.7497 0.01562 0.01607 0.0
H3356 H 0.8001 0.0044 0.02221 0.0
H3357 H 0.76148 0.19331 1.00797 0.0
H3358 H 0.74765 0.21987 0.01902 0.0
H3359 H 0.7099 0.18271 0.01344 0.0
C3360 C 0.90673 0.53722 0.77881 0.0
C3361 C 0.87066 0.54424 0.78474 0.0
C3362 C 0.90163 0.52003 0.76962 0.0
C3363 C 0.85925 0.51055 0.76615 0.0
C3364 C 0.82258 0.51795 0.77208 0.0
C3365 C 0.82878 0.53421 0.78136 0.0
C3366 C 0.94172 0.51129 0.76366 0.0
C3367 C 0.77686 0.50879 0.76862 0.0
C3368 C 0.85156 0.49778 0.73917 0.0
C3369 C 0.85358 0.45234 0.73818 0.0
C3370 C 0.85141 0.51728 0.74826 0.0
C3371 C 0.85388 0.49073 0.75652 0.0
C3372 C 0.85417 0.4449 0.75555 0.0
C3373 C 0.85344 0.42639 0.74643 0.0
C3374 C 0.85002 0.56628 0.74902 0.0
C3375 C 0.85717 0.41525 0.76412 0.0
H3376 H 0.93912 0.54445 0.78147 0.0
H3377 H 0.80084 0.53998 0.78591 0.0
H3378 H 0.94324 0.4762 0.76179 0.0
H3379 H 0.93995 0.52987 0.7569 0.0
H3380 H 0.97233 0.52032 0.76741 0.0
H3381 H 0.75172 0.51849 0.77391 0.0
H3382 H 0.77074 0.52654 0.76186 0.0
H3383 H 0.77302 0.47355 0.76709 0.0
H3384 H 0.85152 0.51813 0.73286 0.0
H3385 H 0.85346 0.39127 0.74579 0.0
H3386 H 0.88146 0.57845 0.7519 0.0
H3387 H 0.82403 0.57637 0.75406 0.0
H3388 H 0.84404 0.58212 0.74202 0.0
H3389 H 0.88844 0.4211 0.76789 0.0
H3390 H 0.8554 0.38024 0.76215 0.0
H3391 H 0.83049 0.42243 0.76921 0.0
C3392 C 0.7936 0.63038 0.99536 0.0
C3393 C 0.77479 0.60668 0.98784 0.0
C3394 C 0.77456 0.63149 1.00442 0.0
C3395 C 0.7348 0.60933 1.00603 0.0
C3396 C 0.71458 0.58656 0.99842 0.0
C3397 C 0.73491 0.58534 0.98941 0.0
C3398 C 0.79746 0.65604 0.0123 0.0
C3399 C 0.67184 0.56302 0.99985 0.0
C3400 C 0.7099 0.58429 0.03205 0.0
C3401 C 0.68287 0.61937 0.03457 0.0
C3402 C 0.72585 0.57973 0.0227 0.0
C3403 C 0.71452 0.61095 0.01569 0.0
C3404 C 0.68683 0.64603 0.01815 0.0
C3405 C 0.6715 0.64986 0.02754 0.0
C3406 C 0.75562 0.54203 0.02039 0.0
C3407 C 0.67427 0.68025 1.01093 0.0
H3408 H 0.82368 0.64807 0.99419 0.0
H3409 H 0.72017 0.56686 0.98368 0.0
H3410 H 0.77599 0.68219 0.01507 0.0
H3411 H 0.80461 0.6337 0.01832 0.0
H3412 H 0.82859 0.671 1.0099 0.0
H3413 H 0.65967 0.54789 0.99317 0.0
H3414 H 0.67581 0.53717 1.00531 0.0
H3415 H 0.6468 0.586 1.00255 0.0
H3416 H 0.71842 0.56016 0.03736 0.0
H3417 H 0.65122 0.6774 0.02942 0.0
H3418 H 0.78839 0.55452 0.01842 0.0
H3419 H 0.74288 0.52376 0.01416 0.0
H3420 H 0.75924 0.51915 0.02647 0.0
H3421 H 0.70369 0.69867 1.00868 0.0
H3422 H 0.65 0.7037 0.01378 0.0
H3423 H 0.6605 0.6646 1.00447 0.0
C3424 C 0.66514 0.52155 0.24103 0.0
C3425 C 0.62767 0.54296 0.23775 0.0
C3426 C 0.6665 0.5031 0.25019 0.0
C3427 C 0.62912 0.50526 0.25612 0.0
C3428 C 0.59111 0.52656 0.25279 0.0
C3429 C 0.591 0.54548 0.24368 0.0
C3430 C 0.7079 0.48133 0.25354 0.0
C3431 C 0.55037 0.52902 0.25881 0.0
C3432 C 0.61578 0.42076 0.27573 0.0
C3433 C 0.62864 0.44392 0.2839 0.0
C3434 C 0.61629 0.44018 0.26667 0.0
C3435 C 0.62926 0.4842 0.2657 0.0
C3436 C 0.6417 0.50812 0.27388 0.0
C3437 C 0.6415 0.48768 0.28285 0.0
C3438 C 0.60288 0.41349 0.25811 0.0
C3439 C 0.65553 0.55524 0.27316 0.0
H3440 H 0.69365 0.52004 0.23648 0.0
H3441 H 0.56191 0.56166 0.2411 0.0
H3442 H 0.71903 0.49626 0.26031 0.0
H3443 H 0.70159 0.44635 0.25498 0.0
H3444 H 0.73462 0.48393 0.24822 0.0
H3445 H 0.52363 0.54701 0.2552 0.0
H3446 H 0.5387 0.49567 0.2605 0.0
H3447 H 0.55768 0.54538 0.26567 0.0
H3448 H 0.60505 0.38732 0.27637 0.0
H3449 H 0.65214 0.50604 0.289 0.0
H3450 H 0.62986 0.41254 0.25285 0.0
H3451 H 0.57448 0.42886 0.25455 0.0
H3452 H 0.59409 0.37949 0.26005 0.0
H3453 H 0.68441 0.55813 0.26843 0.0
H3454 H 0.66375 0.56949 0.2802 0.0
H3455 H 0.62902 0.57485 0.26991 0.0
C3456 C 0.73875 0.40079 0.48995 0.0
C3457 C 0.70066 0.37659 0.48818 0.0
C3458 C 0.75853 0.4007 0.499 0.0
C3459 C 0.73969 0.37602 0.50648 0.0
C3460 C 0.70125 0.35176 0.50476 0.0
C3461 C 0.6825 0.35208 0.49565 0.0
C3462 C 0.79963 0.42687 0.50056 0.0
C3463 C 0.67999 0.32509 0.51253 0.0
C3464 C 0.80786 0.33692 0.52742 0.0
C3465 C 0.79578 0.36603 0.53467 0.0
C3466 C 0.79093 0.34071 0.51816 0.0
C3467 C 0.76067 0.37415 0.51607 0.0
C3468 C 0.7485 0.40392 0.52329 0.0
C3469 C 0.76627 0.39961 0.53249 0.0
C3470 C 0.80479 0.30828 0.51067 0.0
C3471 C 0.71614 0.43991 0.52136 0.0
H3472 H 0.75291 0.42022 0.4843 0.0
H3473 H 0.65369 0.33254 0.49438 0.0
H3474 H 0.79454 0.4508 0.50638 0.0
H3475 H 0.82651 0.405 0.50282 0.0
H3476 H 0.81 0.44465 0.49405 0.0
H3477 H 0.6494 0.30912 0.5101 0.0
H3478 H 0.70282 0.29952 0.51504 0.0
H3479 H 0.67231 0.34614 0.51873 0.0
H3480 H 0.83006 0.31051 0.529 0.0
H3481 H 0.75712 0.4228 0.53793 0.0
H3482 H 0.8174 0.32562 0.5043 0.0
H3483 H 0.77622 0.28875 0.50835 0.0
H3484 H 0.83042 0.2857 0.51329 0.0
H3485 H 0.72741 0.46016 0.51529 0.0
H3486 H 0.71122 0.46134 0.52764 0.0
H3487 H 0.6842 0.42567 0.51931 0.0
C3488 C 0.17577 0.46868 0.24127 0.0
C3489 C 0.13466 0.45968 0.2374 0.0
C3490 C 0.17992 0.48403 0.25068 0.0
C3491 C 0.14193 0.49139 0.25622 0.0
C3492 C 0.1003 0.48362 0.25217 0.0
C3493 C 0.09727 0.46726 0.24286 0.0
C3494 C 0.22486 0.49111 0.25479 0.0
C3495 C 0.05891 0.49218 0.25769 0.0
C3496 C 0.14292 0.49715 0.28338 0.0
C3497 C 0.14172 0.54231 0.2849 0.0
C3498 C 0.14489 0.47995 0.27407 0.0
C3499 C 0.14525 0.50859 0.26613 0.0
C3500 C 0.14574 0.55409 0.26766 0.0
C3501 C 0.14449 0.57027 0.27699 0.0
C3502 C 0.1451 0.43117 0.27274 0.0
C3503 C 0.14568 0.58586 0.25944 0.0
H3504 H 0.2046 0.46182 0.23706 0.0
H3505 H 0.06561 0.4598 0.23983 0.0
H3506 H 0.22839 0.52518 0.2573 0.0
H3507 H 0.22952 0.46961 0.26106 0.0
H3508 H 0.25106 0.48425 0.24953 0.0
H3509 H 0.02916 0.48573 0.2534 0.0
H3510 H 0.05795 0.4713 0.26414 0.0
H3511 H 0.05818 0.52657 0.26012 0.0
H3512 H 0.14085 0.47527 0.28942 0.0
H3513 H 0.14499 0.60517 0.27806 0.0
H3514 H 0.17185 0.42154 0.26785 0.0
H3515 H 0.11399 0.42068 0.26941 0.0
H3516 H 0.1491 0.41347 0.27959 0.0
H3517 H 0.17336 0.57909 0.25458 0.0
H3518 H 0.14794 0.62027 0.26184 0.0
H3519 H 0.11522 0.5819 0.25525 0.0
C3520 C 0.25679 0.42106 0.99078 0.0
C3521 C 0.27744 0.38355 0.98733 0.0
C3522 C 0.23799 0.42167 0.99994 0.0
C3523 C 0.23903 0.38354 1.00566 0.0
C3524 C 0.2585 0.34519 1.00202 0.0
C3525 C 0.2778 0.34584 0.99296 0.0
C3526 C 0.21826 0.46341 1.00362 0.0
C3527 C 0.25949 0.30352 1.00774 0.0
C3528 C 0.22915 0.38695 0.03274 0.0
C3529 C 0.18557 0.37424 0.03414 0.0
C3530 C 0.24656 0.39172 0.02351 0.0
C3531 C 0.21993 0.3833 0.01546 0.0
C3532 C 0.1757 0.37159 0.01682 0.0
C3533 C 0.15908 0.36745 0.0261 0.0
C3534 C 0.29383 0.4046 0.02238 0.0
C3535 C 0.14619 0.36211 1.00845 0.0
H3536 H 0.25699 0.45032 0.98646 0.0
H3537 H 0.29355 0.3168 0.99024 0.0
H3538 H 0.1839 0.45787 1.00579 0.0
H3539 H 0.23628 0.47437 1.01004 0.0
H3540 H 0.21913 0.48991 0.99823 0.0
H3541 H 0.27432 0.27611 1.00372 0.0
H3542 H 0.27845 0.30856 0.01438 0.0
H3543 H 0.22589 0.29411 1.00985 0.0
H3544 H 0.25007 0.3921 0.03885 0.0
H3545 H 0.12515 0.35868 0.02703 0.0
H3546 H 0.29677 0.43257 0.01741 0.0
H3547 H 0.31243 0.37714 0.01924 0.0
H3548 H 0.30916 0.41361 0.02927 0.0
H3549 H 0.14615 0.39001 1.00343 0.0
H3550 H 0.11206 0.35543 1.01068 0.0
H3551 H 0.15861 0.33338 1.0045 0.0
C3552 C 0.38887 0.50819 0.74089 0.0
C3553 C 0.36077 0.54211 0.73837 0.0
C3554 C 0.38748 0.48996 0.75007 0.0
C3555 C 0.35616 0.50513 0.75672 0.0
C3556 C 0.3271 0.53892 0.75408 0.0
C3557 C 0.3303 0.55751 0.74496 0.0
C3558 C 0.41984 0.4549 0.75269 0.0
C3559 C 0.29235 0.55506 0.76082 0.0
C3560 C 0.32832 0.42691 0.77681 0.0
C3561 C 0.35096 0.44529 0.78448 0.0
C3562 C 0.32864 0.44679 0.76781 0.0
C3563 C 0.35348 0.48519 0.76638 0.0
C3564 C 0.3764 0.50393 0.77414 0.0
C3565 C 0.37423 0.4841 0.78315 0.0
C3566 C 0.30246 0.42666 0.75983 0.0
C3567 C 0.40417 0.54416 0.77285 0.0
H3568 H 0.41249 0.49675 0.73572 0.0
H3569 H 0.30856 0.58367 0.74289 0.0
H3570 H 0.43832 0.46473 0.75914 0.0
H3571 H 0.40239 0.42424 0.75443 0.0
H3572 H 0.44337 0.44822 0.74685 0.0
H3573 H 0.27143 0.58052 0.75754 0.0
H3574 H 0.27133 0.5275 0.76311 0.0
H3575 H 0.30764 0.56876 0.76732 0.0
H3576 H 0.30992 0.39717 0.77793 0.0
H3577 H 0.39183 0.49805 0.78911 0.0
H3578 H 0.32466 0.41524 0.75412 0.0
H3579 H 0.28048 0.45138 0.75663 0.0
H3580 H 0.28249 0.39861 0.76229 0.0
H3581 H 0.42998 0.53773 0.76749 0.0
H3582 H 0.41993 0.55464 0.7796 0.0
H3583 H 0.38408 0.57144 0.77011 0.0
C3584 C 0.22447 0.63819 0.49068 0.0
C3585 C 0.18627 0.61372 0.48931 0.0
C3586 C 0.24572 0.63895 0.49958 0.0
C3587 C 0.22871 0.61422 0.50727 0.0
C3588 C 0.19051 0.58905 0.50588 0.0
C3589 C 0.16974 0.58928 0.49696 0.0
C3590 C 0.28618 0.6665 0.50079 0.0
C3591 C 0.17175 0.56144 0.51379 0.0
C3592 C 0.30475 0.58429 0.52773 0.0
C3593 C 0.29103 0.61286 0.5349 0.0
C3594 C 0.28459 0.58413 0.51873 0.0
C3595 C 0.25081 0.61432 0.51676 0.0
C3596 C 0.2373 0.64372 0.52397 0.0
C3597 C 0.25707 0.64209 0.53302 0.0
C3598 C 0.29902 0.55123 0.51139 0.0
C3599 C 0.20219 0.67709 0.52211 0.0
H3600 H 0.2374 0.65724 0.48483 0.0
H3601 H 0.14091 0.56944 0.49593 0.0
H3602 H 0.28104 0.6906 0.50657 0.0
H3603 H 0.31411 0.64573 0.50292 0.0
H3604 H 0.29504 0.68419 0.49416 0.0
H3605 H 0.1424 0.54295 0.51149 0.0
H3606 H 0.19664 0.53798 0.51636 0.0
H3607 H 0.16267 0.58234 0.51992 0.0
H3608 H 0.33075 0.56145 0.52926 0.0
H3609 H 0.24677 0.66429 0.53858 0.0
H3610 H 0.31143 0.56818 0.50496 0.0
H3611 H 0.2708 0.53103 0.50914 0.0
H3612 H 0.325 0.52933 0.51413 0.0
H3613 H 0.21134 0.69751 0.51589 0.0
H3614 H 0.1966 0.6987 0.52833 0.0
H3615 H 0.17108 0.66054 0.52031 0.0
loop_
_geom_bond_atom_site_label_1
_geom_bond_atom_site_label_2
_geom_bond_distance
_geom_bond_site_symmetry_2
_ccdc_geom_bond_type
C0 C1 1.351 . S
C0 N3 1.368 . S
C0 H5 0.931 . S
C1 C0 1.351 . S
C1 N2 1.373 . S
C1 H29 0.930 . S
N2 C1 1.373 . S
N2 C4 1.340 . S
N3 C0 1.368 . S
N3 C4 1.321 . S
N3 Co6 2.135 . S
C4 N2 1.340 . S
C4 N3 1.321 . S
C4 H28 0.930 . S
H5 C0 0.931 . S
Co6 N3 2.135 . S
Co6 N9 2.121 . S
Co6 O14 2.055 . S
Co6 O17 2.039 . S
Co6 N20 2.140 . S
C7 O8 1.227 . S
C7 O17 1.265 . S
O8 C7 1.227 . S
N9 Co6 2.121 . S
N9 C11 1.375 . S
N9 C12 1.313 . S
C10 C11 1.338 . S
C10 N13 1.377 . S
C10 H30 0.930 . S
C11 N9 1.375 . S
C11 C10 1.338 . S
C11 H15 0.931 . S
C12 N9 1.313 . S
C12 N13 1.344 . S
C12 H16 0.930 . S
N13 C10 1.377 . S
N13 C12 1.344 . S
O14 Co6 2.055 . S
O14 C18 1.253 . S
H15 C11 0.931 . S
H16 C12 0.930 . S
O17 Co6 2.039 . S
O17 C7 1.265 . S
C18 O14 1.253 . S
C18 O19 1.227 . S
O19 C18 1.227 . S
N20 Co6 2.140 . S
N20 C23 1.346 . S
N20 C24 1.345 . S
C21 C22 1.387 . S
C21 C25 1.391 . S
C22 C21 1.387 . S
C22 C23 1.369 . S
C22 H31 0.929 . S
C23 N20 1.346 . S
C23 C22 1.369 . S
C23 H26 0.928 . S
C24 N20 1.345 . S
C24 C25 1.371 . S
C24 H27 0.931 . S
C25 C21 1.391 . S
C25 C24 1.371 . S
C25 H32 0.930 . S
H26 C23 0.928 . S
H27 C24 0.931 . S
H28 C4 0.930 . S
H29 C1 0.930 . S
H30 C10 0.930 . S
H31 C22 0.929 . S
H32 C25 0.930 . S
C33 C34 1.351 . S
C33 N36 1.368 . S
C33 H38 0.931 . S
C34 C33 1.351 . S
C34 N35 1.373 . S
C34 H62 0.930 . S
N35 C34 1.373 . S
N35 C37 1.340 . S
N36 C33 1.368 . S
N36 C37 1.321 . S
N36 Co39 2.135 . S
C37 N35 1.340 . S
C37 N36 1.321 . S
C37 H61 0.930 . S
H38 C33 0.931 . S
Co39 N36 2.135 . S
Co39 N42 2.121 . S
Co39 O47 2.055 . S
Co39 O50 2.039 . S
Co39 N53 2.140 . S
C40 O41 1.227 . S
C40 O50 1.265 . S
O41 C40 1.227 . S
N42 Co39 2.121 . S
N42 C44 1.375 . S
N42 C45 1.313 . S
C43 C44 1.338 . S
C43 N46 1.377 . S
C43 H63 0.930 . S
C44 N42 1.375 . S
C44 C43 1.338 . S
C44 H48 0.931 . S
C45 N42 1.313 . S
C45 N46 1.344 . S
C45 H49 0.930 . S
N46 C43 1.377 . S
N46 C45 1.344 . S
O47 Co39 2.055 . S
O47 C51 1.253 . S
H48 C44 0.931 . S
H49 C45 0.930 . S
O50 Co39 2.039 . S
O50 C40 1.265 . S
C51 O47 1.253 . S
C51 O52 1.227 . S
O52 C51 1.227 . S
N53 Co39 2.140 . S
N53 C56 1.346 . S
N53 C57 1.345 . S
C54 C55 1.387 . S
C54 C58 1.392 . S
C55 C54 1.387 . S
C55 C56 1.369 . S
C55 H64 0.939 . S
C56 N53 1.346 . S
C56 C55 1.369 . S
C56 H59 0.928 . S
C57 N53 1.345 . S
C57 C58 1.380 . S
C57 H60 0.931 . S
C58 C54 1.392 . S
C58 C57 1.380 . S
C58 H65 0.921 1_545 S
H59 C56 0.928 . S
H60 C57 0.931 . S
H61 C37 0.930 . S
H62 C34 0.930 . S
H63 C43 0.930 . S
H64 C55 0.939 . S
H65 C58 0.921 1_565 S
C66 C67 1.351 . S
C66 N69 1.368 . S
C66 H71 0.931 . S
C67 C66 1.351 . S
C67 N68 1.373 . S
C67 H95 0.930 . S
N68 C67 1.373 . S
N68 C70 1.340 . S
N69 C66 1.368 . S
N69 C70 1.321 . S
N69 Co72 2.135 . S
C70 N68 1.340 . S
C70 N69 1.321 . S
C70 H94 0.930 . S
H71 C66 0.931 . S
Co72 N69 2.135 . S
Co72 N75 2.121 . S
Co72 O80 2.055 . S
Co72 O83 2.039 . S
Co72 N86 2.140 . S
C73 O74 1.227 . S
C73 O83 1.265 . S
O74 C73 1.227 . S
N75 Co72 2.121 . S
N75 C77 1.375 . S
N75 C78 1.313 . S
C76 C77 1.338 . S
C76 N79 1.377 . S
C76 H96 0.930 . S
C77 N75 1.375 . S
C77 C76 1.338 . S
C77 H81 0.931 . S
C78 N75 1.313 . S
C78 N79 1.344 . S
C78 H82 0.930 . S
N79 C76 1.377 . S
N79 C78 1.344 . S
O80 Co72 2.055 . S
O80 C84 1.253 . S
H81 C77 0.931 . S
H82 C78 0.930 . S
O83 Co72 2.039 . S
O83 C73 1.265 . S
C84 O80 1.253 . S
C84 O85 1.227 . S
O85 C84 1.227 . S
N86 Co72 2.140 . S
N86 C89 1.346 . S
N86 C90 1.345 . S
C87 C88 1.387 . S
C87 C91 1.391 . S
C88 C87 1.387 . S
C88 C89 1.369 . S
C88 H97 0.929 . S
C89 N86 1.346 . S
C89 C88 1.369 . S
C89 H92 0.928 . S
C90 N86 1.345 . S
C90 C91 1.371 . S
C90 H93 0.931 . S
C91 C87 1.391 . S
C91 C90 1.371 . S
C91 H98 0.930 . S
H92 C89 0.928 . S
H93 C90 0.931 . S
H94 C70 0.930 . S
H95 C67 0.930 . S
H96 C76 0.930 . S
H97 C88 0.929 . S
H98 C91 0.930 . S
C99 C100 1.351 . S
C99 N102 1.368 . S
C99 H104 0.931 . S
C100 C99 1.351 . S
C100 N101 1.373 . S
C100 H128 0.930 . S
N101 C100 1.373 . S
N101 C103 1.340 . S
N102 C99 1.368 . S
N102 C103 1.321 . S
N102 Co105 2.135 . S
C103 N101 1.340 . S
C103 N102 1.321 . S
C103 H127 0.930 . S
H104 C99 0.931 . S
Co105 N102 2.135 . S
Co105 N108 2.121 . S
Co105 O113 2.055 . S
Co105 O116 2.039 . S
Co105 N119 2.140 . S
C106 O107 1.227 . S
C106 O116 1.265 . S
O107 C106 1.227 . S
N108 Co105 2.121 . S
N108 C110 1.375 . S
N108 C111 1.313 . S
C109 C110 1.338 . S
C109 N112 1.377 . S
C109 H129 0.930 . S
C110 N108 1.375 . S
C110 C109 1.338 . S
C110 H114 0.931 . S
C111 N108 1.313 . S
C111 N112 1.344 . S
C111 H115 0.930 . S
N112 C109 1.377 . S
N112 C111 1.344 . S
O113 Co105 2.055 . S
O113 C117 1.253 . S
H114 C110 0.931 . S
H115 C111 0.930 . S
O116 Co105 2.039 . S
O116 C106 1.265 . S
C117 O113 1.253 . S
C117 O118 1.227 . S
O118 C117 1.227 . S
N119 Co105 2.140 . S
N119 C122 1.346 . S
N119 C123 1.345 . S
C120 C121 1.387 . S
C120 C124 1.392 . S
C121 C120 1.387 . S
C121 C122 1.369 . S
C121 H130 0.929 . S
C122 N119 1.346 . S
C122 C121 1.369 . S
C122 H125 0.928 . S
C123 N119 1.345 . S
C123 C124 1.380 . S
C123 H126 0.931 . S
C124 C120 1.392 . S
C124 C123 1.380 . S
C124 H131 0.921 1_565 S
H125 C122 0.928 . S
H126 C123 0.931 . S
H127 C103 0.930 . S
H128 C100 0.930 . S
H129 C109 0.930 . S
H130 C121 0.929 . S
H131 C124 0.921 1_545 S
C132 C133 1.351 . S
C132 N135 1.368 . S
C132 H137 0.931 . S
C133 C132 1.351 . S
C133 N134 1.373 . S
C133 H161 0.930 . S
N134 C133 1.373 . S
N134 C136 1.340 . S
N135 C132 1.368 . S
N135 C136 1.321 . S
N135 Co138 2.135 . S
C136 N134 1.340 . S
C136 N135 1.321 . S
C136 H160 0.930 . S
H137 C132 0.931 . S
Co138 N135 2.135 . S
Co138 N141 2.121 . S
Co138 O146 2.055 . S
Co138 O149 2.039 . S
Co138 N152 2.140 . S
C139 O140 1.227 . S
C139 O149 1.265 . S
O140 C139 1.227 . S
N141 Co138 2.121 . S
N141 C143 1.375 . S
N141 C144 1.313 . S
C142 C143 1.338 . S
C142 N145 1.377 . S
C142 H162 0.930 . S
C143 N141 1.375 . S
C143 C142 1.338 . S
C143 H147 0.931 . S
C144 N141 1.313 . S
C144 N145 1.344 . S
C144 H148 0.930 . S
N145 C142 1.377 . S
N145 C144 1.344 . S
O146 Co138 2.055 . S
O146 C150 1.253 . S
H147 C143 0.931 . S
H148 C144 0.930 . S
O149 Co138 2.039 . S
O149 C139 1.265 . S
C150 O146 1.253 . S
C150 O151 1.227 . S
O151 C150 1.227 . S
N152 Co138 2.140 . S
N152 C155 1.346 . S
N152 C156 1.345 . S
C153 C154 1.387 . S
C153 C157 1.391 . S
C154 C153 1.387 . S
C154 C155 1.369 . S
C154 H163 0.929 . S
C155 N152 1.346 . S
C155 C154 1.369 . S
C155 H158 0.928 . S
C156 N152 1.345 . S
C156 C157 1.371 . S
C156 H159 0.931 . S
C157 C153 1.391 . S
C157 C156 1.371 . S
C157 H164 0.930 . S
H158 C155 0.928 . S
H159 C156 0.931 . S
H160 C136 0.930 . S
H161 C133 0.930 . S
H162 C142 0.930 . S
H163 C154 0.929 . S
H164 C157 0.930 . S
C165 C166 1.351 . S
C165 N168 1.368 . S
C165 H170 0.931 . S
C166 C165 1.351 . S
C166 N167 1.373 . S
C166 H194 0.930 . S
N167 C166 1.373 . S
N167 C169 1.340 . S
N168 C165 1.368 . S
N168 C169 1.321 . S
N168 Co171 2.135 . S
C169 N167 1.340 . S
C169 N168 1.321 . S
C169 H193 0.930 . S
H170 C165 0.931 . S
Co171 N168 2.135 . S
Co171 N174 2.121 . S
Co171 O179 2.055 . S
Co171 O182 2.039 . S
Co171 N185 2.140 . S
C172 O173 1.227 . S
C172 O182 1.265 . S
O173 C172 1.227 . S
N174 Co171 2.121 . S
N174 C176 1.375 . S
N174 C177 1.313 . S
C175 C176 1.338 . S
C175 N178 1.377 . S
C175 H195 0.930 . S
C176 N174 1.375 . S
C176 C175 1.338 . S
C176 H180 0.931 . S
C177 N174 1.313 . S
C177 N178 1.344 . S
C177 H181 0.930 . S
N178 C175 1.377 . S
N178 C177 1.344 . S
O179 Co171 2.055 . S
O179 C183 1.253 . S
H180 C176 0.931 . S
H181 C177 0.930 . S
O182 Co171 2.039 . S
O182 C172 1.265 . S
C183 O179 1.253 . S
C183 O184 1.227 . S
O184 C183 1.227 . S
N185 Co171 2.140 . S
N185 C188 1.346 . S
N185 C189 1.345 . S
C186 C187 1.387 . S
C186 C190 1.392 . S
C187 C186 1.387 . S
C187 C188 1.369 . S
C187 H196 0.929 . S
C188 N185 1.346 . S
C188 C187 1.369 . S
C188 H191 0.928 . S
C189 N185 1.345 . S
C189 C190 1.380 . S
C189 H192 0.931 . S
C190 C186 1.392 . S
C190 C189 1.380 . S
C190 H197 0.921 1_545 S
H191 C188 0.928 . S
H192 C189 0.931 . S
H193 C169 0.930 . S
H194 C166 0.930 . S
H195 C175 0.930 . S
H196 C187 0.929 . S
H197 C190 0.921 1_565 S
C198 C199 1.351 . S
C198 N201 1.368 . S
C198 H203 0.931 . S
C199 C198 1.351 . S
C199 N200 1.373 . S
C199 H227 0.930 . S
N200 C199 1.373 . S
N200 C202 1.340 . S
N201 C198 1.368 . S
N201 C202 1.321 . S
N201 Co204 2.135 . S
C202 N200 1.340 . S
C202 N201 1.321 . S
C202 H226 0.930 . S
H203 C198 0.931 . S
Co204 N201 2.135 . S
Co204 N207 2.121 . S
Co204 O212 2.055 . S
Co204 O215 2.039 . S
Co204 N218 2.140 . S
C205 O206 1.227 . S
C205 O215 1.265 . S
O206 C205 1.227 . S
N207 Co204 2.121 . S
N207 C209 1.375 . S
N207 C210 1.313 . S
C208 C209 1.338 . S
C208 N211 1.377 . S
C208 H228 0.930 . S
C209 N207 1.375 . S
C209 C208 1.338 . S
C209 H213 0.931 . S
C210 N207 1.313 . S
C210 N211 1.344 . S
C210 H214 0.930 . S
N211 C208 1.377 . S
N211 C210 1.344 . S
O212 Co204 2.055 . S
O212 C216 1.253 . S
H213 C209 0.931 . S
H214 C210 0.930 . S
O215 Co204 2.039 . S
O215 C205 1.265 . S
C216 O212 1.253 . S
C216 O217 1.227 . S
O217 C216 1.227 . S
N218 Co204 2.140 . S
N218 C221 1.346 . S
N218 C222 1.345 . S
C219 C220 1.387 . S
C219 C223 1.391 . S
C220 C219 1.387 . S
C220 C221 1.369 . S
C220 H229 0.929 . S
C221 N218 1.346 . S
C221 C220 1.369 . S
C221 H224 0.928 . S
C222 N218 1.345 . S
C222 C223 1.371 . S
C222 H225 0.931 . S
C223 C219 1.391 . S
C223 C222 1.371 . S
C223 H230 0.930 . S
H224 C221 0.928 . S
H225 C222 0.931 . S
H226 C202 0.930 . S
H227 C199 0.930 . S
H228 C208 0.930 . S
H229 C220 0.929 . S
H230 C223 0.930 . S
C231 C232 1.351 . S
C231 N234 1.368 . S
C231 H236 0.931 . S
C232 C231 1.351 . S
C232 N233 1.373 . S
C232 H260 0.930 . S
N233 C232 1.373 . S
N233 C235 1.340 . S
N234 C231 1.368 . S
N234 C235 1.321 . S
N234 Co237 2.135 . S
C235 N233 1.340 . S
C235 N234 1.321 . S
C235 H259 0.930 . S
H236 C231 0.931 . S
Co237 N234 2.135 . S
Co237 N240 2.121 . S
Co237 O245 2.055 . S
Co237 O248 2.039 . S
Co237 N251 2.140 . S
C238 O239 1.227 . S
C238 O248 1.265 . S
O239 C238 1.227 . S
N240 Co237 2.121 . S
N240 C242 1.375 . S
N240 C243 1.313 . S
C241 C242 1.338 . S
C241 N244 1.377 . S
C241 H261 0.930 . S
C242 N240 1.375 . S
C242 C241 1.338 . S
C242 H246 0.931 . S
C243 N240 1.313 . S
C243 N244 1.344 . S
C243 H247 0.930 . S
N244 C241 1.377 . S
N244 C243 1.344 . S
O245 Co237 2.055 . S
O245 C249 1.253 . S
H246 C242 0.931 . S
H247 C243 0.930 . S
O248 Co237 2.039 . S
O248 C238 1.265 . S
C249 O245 1.253 . S
C249 O250 1.227 . S
O250 C249 1.227 . S
N251 Co237 2.140 . S
N251 C254 1.346 . S
N251 C255 1.345 . S
C252 C253 1.387 . S
C252 C256 1.392 . S
C253 C252 1.387 . S
C253 C254 1.369 . S
C253 H262 0.939 . S
C254 N251 1.346 . S
C254 C253 1.369 . S
C254 H257 0.928 . S
C255 N251 1.345 . S
C255 C256 1.380 . S
C255 H258 0.931 . S
C256 C252 1.392 . S
C256 C255 1.380 . S
C256 H263 0.921 1_565 S
H257 C254 0.928 . S
H258 C255 0.931 . S
H259 C235 0.930 . S
H260 C232 0.930 . S
H261 C241 0.930 . S
H262 C253 0.939 . S
H263 C256 0.921 1_545 S
C264 C265 1.351 . S
C264 N267 1.368 . S
C264 H269 0.931 . S
C265 C264 1.351 . S
C265 N266 1.373 . S
C265 H293 0.930 . S
N266 C265 1.373 . S
N266 C268 1.340 . S
N267 C264 1.368 . S
N267 C268 1.321 . S
N267 Co270 2.135 . S
C268 N266 1.340 . S
C268 N267 1.321 . S
C268 H292 0.930 . S
H269 C264 0.931 . S
Co270 N267 2.135 . S
Co270 N273 2.121 . S
Co270 O278 2.055 . S
Co270 O281 2.039 . S
Co270 N284 2.140 . S
C271 O272 1.227 . S
C271 O281 1.265 . S
O272 C271 1.227 . S
N273 Co270 2.121 . S
N273 C275 1.375 . S
N273 C276 1.313 . S
C274 C275 1.338 . S
C274 N277 1.377 . S
C274 H294 0.930 . S
C275 N273 1.375 . S
C275 C274 1.338 . S
C275 H279 0.931 . S
C276 N273 1.313 . S
C276 N277 1.344 . S
C276 H280 0.930 . S
N277 C274 1.377 . S
N277 C276 1.344 . S
O278 Co270 2.055 . S
O278 C282 1.253 . S
H279 C275 0.931 . S
H280 C276 0.930 . S
O281 Co270 2.039 . S
O281 C271 1.265 . S
C282 O278 1.253 . S
C282 O283 1.227 . S
O283 C282 1.227 . S
N284 Co270 2.140 . S
N284 C287 1.346 . S
N284 C288 1.345 . S
C285 C286 1.387 . S
C285 C289 1.391 . S
C286 C285 1.387 . S
C286 C287 1.369 . S
C286 H295 0.929 . S
C287 N284 1.346 . S
C287 C286 1.369 . S
C287 H290 0.928 . S
C288 N284 1.345 . S
C288 C289 1.371 . S
C288 H291 0.931 . S
C289 C285 1.391 . S
C289 C288 1.371 . S
C289 H296 0.930 . S
H290 C287 0.928 . S
H291 C288 0.931 . S
H292 C268 0.930 . S
H293 C265 0.930 . S
H294 C274 0.930 . S
H295 C286 0.929 . S
H296 C289 0.930 . S
C297 C298 1.351 . S
C297 N300 1.368 . S
C297 H302 0.931 . S
C298 C297 1.351 . S
C298 N299 1.373 . S
C298 H326 0.930 . S
N299 C298 1.373 . S
N299 C301 1.340 . S
N300 C297 1.368 . S
N300 C301 1.321 . S
N300 Co303 2.135 . S
C301 N299 1.340 . S
C301 N300 1.321 . S
C301 H325 0.930 . S
H302 C297 0.931 . S
Co303 N300 2.135 . S
Co303 N306 2.121 . S
Co303 O311 2.055 . S
Co303 O314 2.039 . S
Co303 N317 2.140 . S
C304 O305 1.227 . S
C304 O314 1.265 . S
O305 C304 1.227 . S
N306 Co303 2.121 . S
N306 C308 1.375 . S
N306 C309 1.313 . S
C307 C308 1.338 . S
C307 N310 1.377 . S
C307 H327 0.930 . S
C308 N306 1.375 . S
C308 C307 1.338 . S
C308 H312 0.931 . S
C309 N306 1.313 . S
C309 N310 1.344 . S
C309 H313 0.930 . S
N310 C307 1.377 . S
N310 C309 1.344 . S
O311 Co303 2.055 . S
O311 C315 1.253 . S
H312 C308 0.931 . S
H313 C309 0.930 . S
O314 Co303 2.039 . S
O314 C304 1.265 . S
C315 O311 1.253 . S
C315 O316 1.227 . S
O316 C315 1.227 . S
N317 Co303 2.140 . S
N317 C320 1.346 . S
N317 C321 1.345 . S
C318 C319 1.387 . S
C318 C322 1.392 . S
C319 C318 1.387 . S
C319 C320 1.369 . S
C319 H328 0.939 . S
C320 N317 1.346 . S
C320 C319 1.369 . S
C320 H323 0.928 . S
C321 N317 1.345 . S
C321 C322 1.380 . S
C321 H324 0.931 . S
C322 C318 1.392 . S
C322 C321 1.380 . S
C322 H329 0.921 1_565 S
H323 C320 0.928 . S
H324 C321 0.931 . S
H325 C301 0.930 . S
H326 C298 0.930 . S
H327 C307 0.930 . S
H328 C319 0.939 . S
H329 C322 0.921 1_545 S
C330 C331 1.351 . S
C330 N333 1.368 . S
C330 H335 0.931 . S
C331 C330 1.351 . S
C331 N332 1.373 . S
C331 H359 0.930 . S
N332 C331 1.373 . S
N332 C334 1.340 . S
N333 C330 1.368 . S
N333 C334 1.321 . S
N333 Co336 2.135 . S
C334 N332 1.340 . S
C334 N333 1.321 . S
C334 H358 0.930 . S
H335 C330 0.931 . S
Co336 N333 2.135 . S
Co336 N339 2.121 . S
Co336 O344 2.055 . S
Co336 O347 2.039 . S
Co336 N350 2.140 . S
C337 O338 1.227 . S
C337 O347 1.265 . S
O338 C337 1.227 . S
N339 Co336 2.121 . S
N339 C341 1.375 . S
N339 C342 1.313 . S
C340 C341 1.338 . S
C340 N343 1.377 . S
C340 H360 0.930 . S
C341 N339 1.375 . S
C341 C340 1.338 . S
C341 H345 0.931 . S
C342 N339 1.313 . S
C342 N343 1.344 . S
C342 H346 0.930 . S
N343 C340 1.377 . S
N343 C342 1.344 . S
O344 Co336 2.055 . S
O344 C348 1.253 . S
H345 C341 0.931 . S
H346 C342 0.930 . S
O347 Co336 2.039 . S
O347 C337 1.265 . S
C348 O344 1.253 . S
C348 O349 1.227 . S
O349 C348 1.227 . S
N350 Co336 2.140 . S
N350 C353 1.346 . S
N350 C354 1.345 . S
C351 C352 1.387 . S
C351 C355 1.391 . S
C352 C351 1.387 . S
C352 C353 1.369 . S
C352 H361 0.929 . S
C353 N350 1.346 . S
C353 C352 1.369 . S
C353 H356 0.928 . S
C354 N350 1.345 . S
C354 C355 1.371 . S
C354 H357 0.931 . S
C355 C351 1.391 . S
C355 C354 1.371 . S
C355 H362 0.930 . S
H356 C353 0.928 . S
H357 C354 0.931 . S
H358 C334 0.930 . S
H359 C331 0.930 . S
H360 C340 0.930 . S
H361 C352 0.929 . S
H362 C355 0.930 . S
C363 C364 1.351 . S
C363 N366 1.368 . S
C363 H368 0.931 . S
C364 C363 1.351 . S
C364 N365 1.373 . S
C364 H392 0.930 . S
N365 C364 1.373 . S
N365 C367 1.340 . S
N366 C363 1.368 . S
N366 C367 1.321 . S
N366 Co369 2.135 . S
C367 N365 1.340 . S
C367 N366 1.321 . S
C367 H391 0.930 . S
H368 C363 0.931 . S
Co369 N366 2.135 . S
Co369 N372 2.121 . S
Co369 O377 2.055 . S
Co369 O380 2.039 . S
Co369 N383 2.140 . S
C370 O371 1.227 . S
C370 O380 1.265 . S
O371 C370 1.227 . S
N372 Co369 2.121 . S
N372 C374 1.375 . S
N372 C375 1.313 . S
C373 C374 1.338 . S
C373 N376 1.377 . S
C373 H393 0.930 . S
C374 N372 1.375 . S
C374 C373 1.338 . S
C374 H378 0.931 . S
C375 N372 1.313 . S
C375 N376 1.344 . S
C375 H379 0.930 . S
N376 C373 1.377 . S
N376 C375 1.344 . S
O377 Co369 2.055 . S
O377 C381 1.253 . S
H378 C374 0.931 . S
H379 C375 0.930 . S
O380 Co369 2.039 . S
O380 C370 1.265 . S
C381 O377 1.253 . S
C381 O382 1.227 . S
O382 C381 1.227 . S
N383 Co369 2.140 . S
N383 C386 1.346 . S
N383 C387 1.345 . S
C384 C385 1.387 . S
C384 C388 1.392 . S
C385 C384 1.387 . S
C385 C386 1.369 . S
C385 H394 0.929 . S
C386 N383 1.346 . S
C386 C385 1.369 . S
C386 H389 0.928 . S
C387 N383 1.345 . S
C387 C388 1.380 . S
C387 H390 0.931 . S
C388 C384 1.392 . S
C388 C387 1.380 . S
C388 H395 0.921 1_545 S
H389 C386 0.928 . S
H390 C387 0.931 . S
H391 C367 0.930 . S
H392 C364 0.930 . S
H393 C373 0.930 . S
H394 C385 0.929 . S
H395 C388 0.921 1_565 S
C396 C397 1.351 . S
C396 N399 1.368 . S
C396 H401 0.931 . S
C397 C396 1.351 . S
C397 N398 1.373 . S
C397 H425 0.930 . S
N398 C397 1.373 . S
N398 C400 1.340 . S
N399 C396 1.368 . S
N399 C400 1.321 . S
N399 Co402 2.135 . S
C400 N398 1.340 . S
C400 N399 1.321 . S
C400 H424 0.930 . S
H401 C396 0.931 . S
Co402 N399 2.135 . S
Co402 N405 2.121 . S
Co402 O410 2.055 . S
Co402 O413 2.039 . S
Co402 N416 2.140 . S
C403 O404 1.227 . S
C403 O413 1.265 . S
O404 C403 1.227 . S
N405 Co402 2.121 . S
N405 C407 1.375 . S
N405 C408 1.313 . S
C406 C407 1.338 . S
C406 N409 1.377 . S
C406 H426 0.930 . S
C407 N405 1.375 . S
C407 C406 1.338 . S
C407 H411 0.931 . S
C408 N405 1.313 . S
C408 N409 1.344 . S
C408 H412 0.930 . S
N409 C406 1.377 . S
N409 C408 1.344 . S
O410 Co402 2.055 . S
O410 C414 1.253 . S
H411 C407 0.931 . S
H412 C408 0.930 . S
O413 Co402 2.039 . S
O413 C403 1.265 . S
C414 O410 1.253 . S
C414 O415 1.227 . S
O415 C414 1.227 . S
N416 Co402 2.140 . S
N416 C419 1.346 . S
N416 C420 1.345 . S
C417 C418 1.387 . S
C417 C421 1.391 . S
C418 C417 1.387 . S
C418 C419 1.369 . S
C418 H427 0.929 . S
C419 N416 1.346 . S
C419 C418 1.369 . S
C419 H422 0.928 . S
C420 N416 1.345 . S
C420 C421 1.371 . S
C420 H423 0.931 . S
C421 C417 1.391 . S
C421 C420 1.371 . S
C421 H428 0.930 . S
H422 C419 0.928 . S
H423 C420 0.931 . S
H424 C400 0.930 . S
H425 C397 0.930 . S
H426 C406 0.930 . S
H427 C418 0.929 . S
H428 C421 0.930 . S
C429 C430 1.351 . S
C429 N432 1.368 . S
C429 H434 0.931 . S
C430 C429 1.351 . S
C430 N431 1.373 . S
C430 H458 0.930 . S
N431 C430 1.373 . S
N431 C433 1.340 . S
N432 C429 1.368 . S
N432 C433 1.321 . S
N432 Co435 2.135 . S
C433 N431 1.340 . S
C433 N432 1.321 . S
C433 H457 0.930 . S
H434 C429 0.931 . S
Co435 N432 2.135 . S
Co435 N438 2.121 . S
Co435 O443 2.055 . S
Co435 O446 2.039 . S
Co435 N449 2.140 . S
C436 O437 1.227 . S
C436 O446 1.265 . S
O437 C436 1.227 . S
N438 Co435 2.121 . S
N438 C440 1.375 . S
N438 C441 1.313 . S
C439 C440 1.338 . S
C439 N442 1.377 . S
C439 H459 0.930 . S
C440 N438 1.375 . S
C440 C439 1.338 . S
C440 H444 0.931 . S
C441 N438 1.313 . S
C441 N442 1.344 . S
C441 H445 0.930 . S
N442 C439 1.377 . S
N442 C441 1.344 . S
O443 Co435 2.055 . S
O443 C447 1.253 . S
H444 C440 0.931 . S
H445 C441 0.930 . S
O446 Co435 2.039 . S
O446 C436 1.265 . S
C447 O443 1.253 . S
C447 O448 1.227 . S
O448 C447 1.227 . S
N449 Co435 2.140 . S
N449 C452 1.346 . S
N449 C453 1.345 . S
C450 C451 1.387 . S
C450 C454 1.392 . S
C451 C450 1.387 . S
C451 C452 1.369 . S
C451 H460 0.929 . S
C452 N449 1.346 . S
C452 C451 1.369 . S
C452 H455 0.928 . S
C453 N449 1.345 . S
C453 C454 1.380 . S
C453 H456 0.931 . S
C454 C450 1.392 . S
C454 C453 1.380 . S
C454 H461 0.921 1_565 S
H455 C452 0.928 . S
H456 C453 0.931 . S
H457 C433 0.930 . S
H458 C430 0.930 . S
H459 C439 0.930 . S
H460 C451 0.929 . S
H461 C454 0.921 1_545 S
C462 C463 1.351 . S
C462 N465 1.368 . S
C462 H467 0.931 . S
C463 C462 1.351 . S
C463 N464 1.373 . S
C463 H491 0.930 . S
N464 C463 1.373 . S
N464 C466 1.340 . S
N465 C462 1.368 . S
N465 C466 1.321 . S
N465 Co468 2.135 . S
C466 N464 1.340 . S
C466 N465 1.321 . S
C466 H490 0.930 . S
H467 C462 0.931 . S
Co468 N465 2.135 . S
Co468 N471 2.121 . S
Co468 O476 2.055 . S
Co468 O479 2.039 . S
Co468 N482 2.140 . S
C469 O470 1.227 . S
C469 O479 1.265 . S
O470 C469 1.227 . S
N471 Co468 2.121 . S
N471 C473 1.375 . S
N471 C474 1.313 . S
C472 C473 1.338 . S
C472 N475 1.377 . S
C472 H492 0.930 . S
C473 N471 1.375 . S
C473 C472 1.338 . S
C473 H477 0.931 . S
C474 N471 1.313 . S
C474 N475 1.344 . S
C474 H478 0.930 . S
N475 C472 1.377 . S
N475 C474 1.344 . S
O476 Co468 2.055 . S
O476 C480 1.253 . S
H477 C473 0.931 . S
H478 C474 0.930 . S
O479 Co468 2.039 . S
O479 C469 1.265 . S
C480 O476 1.253 . S
C480 O481 1.227 . S
O481 C480 1.227 . S
N482 Co468 2.140 . S
N482 C485 1.346 . S
N482 C486 1.345 . S
C483 C484 1.387 . S
C483 C487 1.391 . S
C484 C483 1.387 . S
C484 C485 1.369 . S
C484 H493 0.929 . S
C485 N482 1.346 . S
C485 C484 1.369 . S
C485 H488 0.928 . S
C486 N482 1.345 . S
C486 C487 1.371 . S
C486 H489 0.931 . S
C487 C483 1.391 . S
C487 C486 1.371 . S
C487 H494 0.930 . S
H488 C485 0.928 . S
H489 C486 0.931 . S
H490 C466 0.930 . S
H491 C463 0.930 . S
H492 C472 0.930 . S
H493 C484 0.929 . S
H494 C487 0.930 . S
C495 C496 1.351 . S
C495 N498 1.368 . S
C495 H500 0.931 . S
C496 C495 1.351 . S
C496 N497 1.373 . S
C496 H524 0.930 . S
N497 C496 1.373 . S
N497 C499 1.340 . S
N498 C495 1.368 . S
N498 C499 1.321 . S
N498 Co501 2.135 . S
C499 N497 1.340 . S
C499 N498 1.321 . S
C499 H523 0.930 . S
H500 C495 0.931 . S
Co501 N498 2.135 . S
Co501 N504 2.121 . S
Co501 O509 2.055 . S
Co501 O512 2.039 . S
Co501 N515 2.140 . S
C502 O503 1.227 . S
C502 O512 1.265 . S
O503 C502 1.227 . S
N504 Co501 2.121 . S
N504 C506 1.375 . S
N504 C507 1.313 . S
C505 C506 1.338 . S
C505 N508 1.377 . S
C505 H525 0.930 . S
C506 N504 1.375 . S
C506 C505 1.338 . S
C506 H510 0.931 . S
C507 N504 1.313 . S
C507 N508 1.344 . S
C507 H511 0.930 . S
N508 C505 1.377 . S
N508 C507 1.344 . S
O509 Co501 2.055 . S
O509 C513 1.253 . S
H510 C506 0.931 . S
H511 C507 0.930 . S
O512 Co501 2.039 . S
O512 C502 1.265 . S
C513 O509 1.253 . S
C513 O514 1.227 . S
O514 C513 1.227 . S
N515 Co501 2.140 . S
N515 C518 1.346 . S
N515 C519 1.345 . S
C516 C517 1.387 . S
C516 C520 1.392 . S
C517 C516 1.387 . S
C517 C518 1.369 . S
C517 H526 0.939 . S
C518 N515 1.346 . S
C518 C517 1.369 . S
C518 H521 0.928 . S
C519 N515 1.345 . S
C519 C520 1.380 . S
C519 H522 0.931 . S
C520 C516 1.392 . S
C520 C519 1.380 . S
C520 H527 0.921 1_545 S
H521 C518 0.928 . S
H522 C519 0.931 . S
H523 C499 0.930 . S
H524 C496 0.930 . S
H525 C505 0.930 . S
H526 C517 0.939 . S
H527 C520 0.921 1_565 S
C528 C529 1.351 . S
C528 N531 1.368 . S
C528 H533 0.931 . S
C529 C528 1.351 . S
C529 N530 1.373 . S
C529 H557 0.930 . S
N530 C529 1.373 . S
N530 C532 1.340 . S
N531 C528 1.368 . S
N531 C532 1.321 . S
N531 Co534 2.135 . S
C532 N530 1.340 . S
C532 N531 1.321 . S
C532 H556 0.930 . S
H533 C528 0.931 . S
Co534 N531 2.135 . S
Co534 N537 2.121 . S
Co534 O542 2.055 . S
Co534 O545 2.039 . S
Co534 N548 2.140 . S
C535 O536 1.227 . S
C535 O545 1.265 . S
O536 C535 1.227 . S
N537 Co534 2.121 . S
N537 C539 1.375 . S
N537 C540 1.313 . S
C538 C539 1.338 . S
C538 N541 1.377 . S
C538 H558 0.930 . S
C539 N537 1.375 . S
C539 C538 1.338 . S
C539 H543 0.931 . S
C540 N537 1.313 . S
C540 N541 1.344 . S
C540 H544 0.930 . S
N541 C538 1.377 . S
N541 C540 1.344 . S
O542 Co534 2.055 . S
O542 C546 1.253 . S
H543 C539 0.931 . S
H544 C540 0.930 . S
O545 Co534 2.039 . S
O545 C535 1.265 . S
C546 O542 1.253 . S
C546 O547 1.227 . S
O547 C546 1.227 . S
N548 Co534 2.140 . S
N548 C551 1.346 . S
N548 C552 1.345 . S
C549 C550 1.387 . S
C549 C553 1.391 . S
C550 C549 1.387 . S
C550 C551 1.369 . S
C550 H559 0.929 . S
C551 N548 1.346 . S
C551 C550 1.369 . S
C551 H554 0.928 . S
C552 N548 1.345 . S
C552 C553 1.371 . S
C552 H555 0.931 . S
C553 C549 1.391 . S
C553 C552 1.371 . S
C553 H560 0.930 . S
H554 C551 0.928 . S
H555 C552 0.931 . S
H556 C532 0.930 . S
H557 C529 0.930 . S
H558 C538 0.930 . S
H559 C550 0.929 . S
H560 C553 0.930 . S
C561 C562 1.351 . S
C561 N564 1.368 . S
C561 H566 0.931 . S
C562 C561 1.351 . S
C562 N563 1.373 . S
C562 H590 0.930 . S
N563 C562 1.373 . S
N563 C565 1.340 . S
N564 C561 1.368 . S
N564 C565 1.321 . S
N564 Co567 2.135 . S
C565 N563 1.340 . S
C565 N564 1.321 . S
C565 H589 0.930 . S
H566 C561 0.931 . S
Co567 N564 2.135 . S
Co567 N570 2.121 . S
Co567 O575 2.055 . S
Co567 O578 2.039 . S
Co567 N581 2.140 . S
C568 O569 1.227 . S
C568 O578 1.265 . S
O569 C568 1.227 . S
N570 Co567 2.121 . S
N570 C572 1.375 . S
N570 C573 1.313 . S
C571 C572 1.338 . S
C571 N574 1.377 . S
C571 H591 0.930 . S
C572 N570 1.375 . S
C572 C571 1.338 . S
C572 H576 0.931 . S
C573 N570 1.313 . S
C573 N574 1.344 . S
C573 H577 0.930 . S
N574 C571 1.377 . S
N574 C573 1.344 . S
O575 Co567 2.055 . S
O575 C579 1.253 . S
H576 C572 0.931 . S
H577 C573 0.930 . S
O578 Co567 2.039 . S
O578 C568 1.265 . S
C579 O575 1.253 . S
C579 O580 1.227 . S
O580 C579 1.227 . S
N581 Co567 2.140 . S
N581 C584 1.346 . S
N581 C585 1.345 . S
C582 C583 1.387 . S
C582 C586 1.391 . S
C583 C582 1.387 . S
C583 C584 1.369 . S
C583 H592 0.929 . S
C584 N581 1.346 . S
C584 C583 1.369 . S
C584 H587 0.928 . S
C585 N581 1.345 . S
C585 C586 1.371 . S
C585 H588 0.931 . S
C586 C582 1.391 . S
C586 C585 1.371 . S
C586 H593 0.930 . S
H587 C584 0.928 . S
H588 C585 0.931 . S
H589 C565 0.930 . S
H590 C562 0.930 . S
H591 C571 0.930 . S
H592 C583 0.929 . S
H593 C586 0.930 . S
C594 C595 1.351 . S
C594 N597 1.368 . S
C594 H599 0.931 . S
C595 C594 1.351 . S
C595 N596 1.373 . S
C595 H623 0.930 . S
N596 C595 1.373 . S
N596 C598 1.340 . S
N597 C594 1.368 . S
N597 C598 1.321 . S
N597 Co600 2.135 . S
C598 N596 1.340 . S
C598 N597 1.321 . S
C598 H622 0.930 . S
H599 C594 0.931 . S
Co600 N597 2.135 . S
Co600 N603 2.121 . S
Co600 O608 2.055 . S
Co600 O611 2.039 . S
Co600 N614 2.140 . S
C601 O602 1.227 . S
C601 O611 1.265 . S
O602 C601 1.227 . S
N603 Co600 2.121 . S
N603 C605 1.375 . S
N603 C606 1.313 . S
C604 C605 1.338 . S
C604 N607 1.377 . S
C604 H624 0.930 . S
C605 N603 1.375 . S
C605 C604 1.338 . S
C605 H609 0.931 . S
C606 N603 1.313 . S
C606 N607 1.344 . S
C606 H610 0.930 . S
N607 C604 1.377 . S
N607 C606 1.344 . S
O608 Co600 2.055 . S
O608 C612 1.253 . S
H609 C605 0.931 . S
H610 C606 0.930 . S
O611 Co600 2.039 . S
O611 C601 1.265 . S
C612 O608 1.253 . S
C612 O613 1.227 . S
O613 C612 1.227 . S
N614 Co600 2.140 . S
N614 C617 1.346 . S
N614 C618 1.345 . S
C615 C616 1.387 . S
C615 C619 1.391 . S
C616 C615 1.387 . S
C616 C617 1.369 . S
C616 H625 0.929 . S
C617 N614 1.346 . S
C617 C616 1.369 . S
C617 H620 0.928 . S
C618 N614 1.345 . S
C618 C619 1.371 . S
C618 H621 0.931 . S
C619 C615 1.391 . S
C619 C618 1.371 . S
C619 H626 0.930 . S
H620 C617 0.928 . S
H621 C618 0.931 . S
H622 C598 0.930 . S
H623 C595 0.930 . S
H624 C604 0.930 . S
H625 C616 0.929 . S
H626 C619 0.930 . S
C627 C628 1.351 . S
C627 N630 1.368 . S
C627 H632 0.931 . S
C628 C627 1.351 . S
C628 N629 1.373 . S
C628 H656 0.930 . S
N629 C628 1.373 . S
N629 C631 1.340 . S
N630 C627 1.368 . S
N630 C631 1.321 . S
N630 Co633 2.135 . S
C631 N629 1.340 . S
C631 N630 1.321 . S
C631 H655 0.930 . S
H632 C627 0.931 . S
Co633 N630 2.135 . S
Co633 N636 2.121 . S
Co633 O641 2.055 . S
Co633 O644 2.039 . S
Co633 N647 2.140 . S
C634 O635 1.227 . S
C634 O644 1.265 . S
O635 C634 1.227 . S
N636 Co633 2.121 . S
N636 C638 1.375 . S
N636 C639 1.313 . S
C637 C638 1.338 . S
C637 N640 1.377 . S
C637 H657 0.930 . S
C638 N636 1.375 . S
C638 C637 1.338 . S
C638 H642 0.931 . S
C639 N636 1.313 . S
C639 N640 1.344 . S
C639 H643 0.930 . S
N640 C637 1.377 . S
N640 C639 1.344 . S
O641 Co633 2.055 . S
O641 C645 1.253 . S
H642 C638 0.931 . S
H643 C639 0.930 . S
O644 Co633 2.039 . S
O644 C634 1.265 . S
C645 O641 1.253 . S
C645 O646 1.227 . S
O646 C645 1.227 . S
N647 Co633 2.140 . S
N647 C650 1.346 . S
N647 C651 1.345 . S
C648 C649 1.387 . S
C648 C652 1.391 . S
C649 C648 1.387 . S
C649 C650 1.369 . S
C649 H658 0.939 . S
C650 N647 1.346 . S
C650 C649 1.369 . S
C650 H653 0.928 . S
C651 N647 1.345 . S
C651 C652 1.371 . S
C651 H654 0.931 . S
C652 C648 1.391 . S
C652 C651 1.371 . S
C652 H659 0.930 . S
H653 C650 0.928 . S
H654 C651 0.931 . S
H655 C631 0.930 . S
H656 C628 0.930 . S
H657 C637 0.930 . S
H658 C649 0.939 . S
H659 C652 0.930 . S
C660 C661 1.351 . S
C660 N663 1.368 . S
C660 H665 0.931 . S
C661 C660 1.351 . S
C661 N662 1.373 . S
C661 H689 0.930 . S
N662 C661 1.373 . S
N662 C664 1.340 . S
N663 C660 1.368 . S
N663 C664 1.321 . S
N663 Co666 2.135 . S
C664 N662 1.340 . S
C664 N663 1.321 . S
C664 H688 0.930 . S
H665 C660 0.931 . S
Co666 N663 2.135 . S
Co666 N669 2.121 . S
Co666 O674 2.055 . S
Co666 O677 2.039 . S
Co666 N680 2.140 . S
C667 O668 1.227 . S
C667 O677 1.265 . S
O668 C667 1.227 . S
N669 Co666 2.121 . S
N669 C671 1.375 . S
N669 C672 1.313 . S
C670 C671 1.338 . S
C670 N673 1.377 . S
C670 H690 0.930 . S
C671 N669 1.375 . S
C671 C670 1.338 . S
C671 H675 0.931 . S
C672 N669 1.313 . S
C672 N673 1.344 . S
C672 H676 0.930 . S
N673 C670 1.377 . S
N673 C672 1.344 . S
O674 Co666 2.055 . S
O674 C678 1.253 . S
H675 C671 0.931 . S
H676 C672 0.930 . S
O677 Co666 2.039 . S
O677 C667 1.265 . S
C678 O674 1.253 . S
C678 O679 1.227 . S
O679 C678 1.227 . S
N680 Co666 2.140 . S
N680 C683 1.346 . S
N680 C684 1.345 . S
C681 C682 1.387 . S
C681 C685 1.391 . S
C682 C681 1.387 . S
C682 C683 1.369 . S
C682 H691 0.929 . S
C683 N680 1.346 . S
C683 C682 1.369 . S
C683 H686 0.928 . S
C684 N680 1.345 . S
C684 C685 1.371 . S
C684 H687 0.931 . S
C685 C681 1.391 . S
C685 C684 1.371 . S
C685 H692 0.930 . S
H686 C683 0.928 . S
H687 C684 0.931 . S
H688 C664 0.930 . S
H689 C661 0.930 . S
H690 C670 0.930 . S
H691 C682 0.929 . S
H692 C685 0.930 . S
C693 C694 1.351 . S
C693 N696 1.368 . S
C693 H698 0.931 . S
C694 C693 1.351 . S
C694 N695 1.373 . S
C694 H722 0.930 . S
N695 C694 1.373 . S
N695 C697 1.340 . S
N696 C693 1.368 . S
N696 C697 1.321 . S
N696 Co699 2.135 . S
C697 N695 1.340 . S
C697 N696 1.321 . S
C697 H721 0.930 . S
H698 C693 0.931 . S
Co699 N696 2.135 . S
Co699 N702 2.121 . S
Co699 O707 2.055 . S
Co699 O710 2.039 . S
Co699 N713 2.140 . S
C700 O701 1.227 . S
C700 O710 1.265 . S
O701 C700 1.227 . S
N702 Co699 2.121 . S
N702 C704 1.375 . S
N702 C705 1.313 . S
C703 C704 1.338 . S
C703 N706 1.377 . S
C703 H723 0.930 . S
C704 N702 1.375 . S
C704 C703 1.338 . S
C704 H708 0.931 . S
C705 N702 1.313 . S
C705 N706 1.344 . S
C705 H709 0.930 . S
N706 C703 1.377 . S
N706 C705 1.344 . S
O707 Co699 2.055 . S
O707 C711 1.253 . S
H708 C704 0.931 . S
H709 C705 0.930 . S
O710 Co699 2.039 . S
O710 C700 1.265 . S
C711 O707 1.253 . S
C711 O712 1.227 . S
O712 C711 1.227 . S
N713 Co699 2.140 . S
N713 C716 1.346 . S
N713 C717 1.345 . S
C714 C715 1.387 . S
C714 C718 1.391 . S
C715 C714 1.387 . S
C715 C716 1.369 . S
C715 H724 0.939 . S
C716 N713 1.346 . S
C716 C715 1.369 . S
C716 H719 0.928 . S
C717 N713 1.345 . S
C717 C718 1.371 . S
C717 H720 0.931 . S
C718 C714 1.391 . S
C718 C717 1.371 . S
C718 H725 0.930 . S
H719 C716 0.928 . S
H720 C717 0.931 . S
H721 C697 0.930 . S
H722 C694 0.930 . S
H723 C703 0.930 . S
H724 C715 0.939 . S
H725 C718 0.930 . S
C726 C727 1.351 . S
C726 N729 1.368 . S
C726 H731 0.931 . S
C727 C726 1.351 . S
C727 N728 1.373 . S
C727 H755 0.930 . S
N728 C727 1.373 . S
N728 C730 1.340 . S
N729 C726 1.368 . S
N729 C730 1.321 . S
N729 Co732 2.135 . S
C730 N728 1.340 . S
C730 N729 1.321 . S
C730 H754 0.930 . S
H731 C726 0.931 . S
Co732 N729 2.135 . S
Co732 N735 2.121 . S
Co732 O740 2.055 . S
Co732 O743 2.039 . S
Co732 N746 2.140 . S
C733 O734 1.227 . S
C733 O743 1.265 . S
O734 C733 1.227 . S
N735 Co732 2.121 . S
N735 C737 1.375 . S
N735 C738 1.313 . S
C736 C737 1.338 . S
C736 N739 1.377 . S
C736 H756 0.930 . S
C737 N735 1.375 . S
C737 C736 1.338 . S
C737 H741 0.931 . S
C738 N735 1.313 . S
C738 N739 1.344 . S
C738 H742 0.930 . S
N739 C736 1.377 . S
N739 C738 1.344 . S
O740 Co732 2.055 . S
O740 C744 1.253 . S
H741 C737 0.931 . S
H742 C738 0.930 . S
O743 Co732 2.039 . S
O743 C733 1.265 . S
C744 O740 1.253 . S
C744 O745 1.227 . S
O745 C744 1.227 . S
N746 Co732 2.140 . S
N746 C749 1.346 . S
N746 C750 1.345 . S
C747 C748 1.387 . S
C747 C751 1.391 . S
C748 C747 1.387 . S
C748 C749 1.369 . S
C748 H757 0.929 . S
C749 N746 1.346 . S
C749 C748 1.369 . S
C749 H752 0.928 . S
C750 N746 1.345 . S
C750 C751 1.371 . S
C750 H753 0.931 . S
C751 C747 1.391 . S
C751 C750 1.371 . S
C751 H758 0.930 . S
H752 C749 0.928 . S
H753 C750 0.931 . S
H754 C730 0.930 . S
H755 C727 0.930 . S
H756 C736 0.930 . S
H757 C748 0.929 . S
H758 C751 0.930 . S
C759 C760 1.351 . S
C759 N762 1.368 . S
C759 H764 0.931 . S
C760 C759 1.351 . S
C760 N761 1.373 . S
C760 H788 0.930 . S
N761 C760 1.373 . S
N761 C763 1.340 . S
N762 C759 1.368 . S
N762 C763 1.321 . S
N762 Co765 2.135 . S
C763 N761 1.340 . S
C763 N762 1.321 . S
C763 H787 0.930 . S
H764 C759 0.931 . S
Co765 N762 2.135 . S
Co765 N768 2.121 . S
Co765 O773 2.055 . S
Co765 O776 2.039 . S
Co765 N779 2.140 . S
C766 O767 1.227 . S
C766 O776 1.265 . S
O767 C766 1.227 . S
N768 Co765 2.121 . S
N768 C770 1.375 . S
N768 C771 1.313 . S
C769 C770 1.338 . S
C769 N772 1.377 . S
C769 H789 0.930 . S
C770 N768 1.375 . S
C770 C769 1.338 . S
C770 H774 0.931 . S
C771 N768 1.313 . S
C771 N772 1.344 . S
C771 H775 0.930 . S
N772 C769 1.377 . S
N772 C771 1.344 . S
O773 Co765 2.055 . S
O773 C777 1.253 . S
H774 C770 0.931 . S
H775 C771 0.930 . S
O776 Co765 2.039 . S
O776 C766 1.265 . S
C777 O773 1.253 . S
C777 O778 1.227 . S
O778 C777 1.227 . S
N779 Co765 2.140 . S
N779 C782 1.346 . S
N779 C783 1.345 . S
C780 C781 1.387 . S
C780 C784 1.391 . S
C781 C780 1.387 . S
C781 C782 1.369 . S
C781 H790 0.929 . S
C782 N779 1.346 . S
C782 C781 1.369 . S
C782 H785 0.928 . S
C783 N779 1.345 . S
C783 C784 1.371 . S
C783 H786 0.931 . S
C784 C780 1.391 . S
C784 C783 1.371 . S
C784 H791 0.930 . S
H785 C782 0.928 . S
H786 C783 0.931 . S
H787 C763 0.930 . S
H788 C760 0.930 . S
H789 C769 0.930 . S
H790 C781 0.929 . S
H791 C784 0.930 . S
C792 C793 1.351 . S
C792 N795 1.368 . S
C792 H797 0.931 . S
C793 C792 1.351 . S
C793 N794 1.373 . S
C793 H821 0.930 . S
N794 C793 1.373 . S
N794 C796 1.340 . S
N795 C792 1.368 . S
N795 C796 1.321 . S
N795 Co798 2.135 . S
C796 N794 1.340 . S
C796 N795 1.321 . S
C796 H820 0.930 . S
H797 C792 0.931 . S
Co798 N795 2.135 . S
Co798 N801 2.121 . S
Co798 O806 2.055 . S
Co798 O809 2.039 . S
Co798 N812 2.140 . S
C799 O800 1.227 . S
C799 O809 1.265 . S
O800 C799 1.227 . S
N801 Co798 2.121 . S
N801 C803 1.375 . S
N801 C804 1.313 . S
C802 C803 1.338 . S
C802 N805 1.377 . S
C802 H822 0.930 . S
C803 N801 1.375 . S
C803 C802 1.338 . S
C803 H807 0.931 . S
C804 N801 1.313 . S
C804 N805 1.344 . S
C804 H808 0.930 . S
N805 C802 1.377 . S
N805 C804 1.344 . S
O806 Co798 2.055 . S
O806 C810 1.253 . S
H807 C803 0.931 . S
H808 C804 0.930 . S
O809 Co798 2.039 . S
O809 C799 1.265 . S
C810 O806 1.253 . S
C810 O811 1.227 . S
O811 C810 1.227 . S
N812 Co798 2.140 . S
N812 C815 1.346 . S
N812 C816 1.345 . S
C813 C814 1.387 . S
C813 C817 1.391 . S
C814 C813 1.387 . S
C814 C815 1.369 . S
C814 H823 0.929 . S
C815 N812 1.346 . S
C815 C814 1.369 . S
C815 H818 0.928 . S
C816 N812 1.345 . S
C816 C817 1.371 . S
C816 H819 0.931 . S
C817 C813 1.391 . S
C817 C816 1.371 . S
C817 H824 0.930 . S
H818 C815 0.928 . S
H819 C816 0.931 . S
H820 C796 0.930 . S
H821 C793 0.930 . S
H822 C802 0.930 . S
H823 C814 0.929 . S
H824 C817 0.930 . S
C825 C826 1.351 . S
C825 N828 1.368 . S
C825 H830 0.931 . S
C826 C825 1.351 . S
C826 N827 1.373 . S
C826 H854 0.930 . S
N827 C826 1.373 . S
N827 C829 1.340 . S
N828 C825 1.368 . S
N828 C829 1.321 . S
N828 Co831 2.135 . S
C829 N827 1.340 . S
C829 N828 1.321 . S
C829 H853 0.930 . S
H830 C825 0.931 . S
Co831 N828 2.135 . S
Co831 N834 2.121 . S
Co831 O839 2.055 . S
Co831 O842 2.039 . S
Co831 N845 2.140 . S
C832 O833 1.227 . S
C832 O842 1.265 . S
O833 C832 1.227 . S
N834 Co831 2.121 . S
N834 C836 1.375 . S
N834 C837 1.313 . S
C835 C836 1.338 . S
C835 N838 1.377 . S
C835 H855 0.930 . S
C836 N834 1.375 . S
C836 C835 1.338 . S
C836 H840 0.931 . S
C837 N834 1.313 . S
C837 N838 1.344 . S
C837 H841 0.930 . S
N838 C835 1.377 . S
N838 C837 1.344 . S
O839 Co831 2.055 . S
O839 C843 1.253 . S
H840 C836 0.931 . S
H841 C837 0.930 . S
O842 Co831 2.039 . S
O842 C832 1.265 . S
C843 O839 1.253 . S
C843 O844 1.227 . S
O844 C843 1.227 . S
N845 Co831 2.140 . S
N845 C848 1.346 . S
N845 C849 1.345 . S
C846 C847 1.387 . S
C846 C850 1.391 . S
C847 C846 1.387 . S
C847 C848 1.369 . S
C847 H856 0.929 . S
C848 N845 1.346 . S
C848 C847 1.369 . S
C848 H851 0.928 . S
C849 N845 1.345 . S
C849 C850 1.371 . S
C849 H852 0.931 . S
C850 C846 1.391 . S
C850 C849 1.371 . S
C850 H857 0.930 . S
H851 C848 0.928 . S
H852 C849 0.931 . S
H853 C829 0.930 . S
H854 C826 0.930 . S
H855 C835 0.930 . S
H856 C847 0.929 . S
H857 C850 0.930 . S
C858 C859 1.351 . S
C858 N861 1.368 . S
C858 H863 0.931 . S
C859 C858 1.351 . S
C859 N860 1.373 . S
C859 H887 0.930 . S
N860 C859 1.373 . S
N860 C862 1.340 . S
N861 C858 1.368 . S
N861 C862 1.321 . S
N861 Co864 2.135 . S
C862 N860 1.340 . S
C862 N861 1.321 . S
C862 H886 0.930 . S
H863 C858 0.931 . S
Co864 N861 2.135 . S
Co864 N867 2.121 . S
Co864 O872 2.055 . S
Co864 O875 2.039 . S
Co864 N878 2.140 . S
C865 O866 1.227 . S
C865 O875 1.265 . S
O866 C865 1.227 . S
N867 Co864 2.121 . S
N867 C869 1.375 . S
N867 C870 1.313 . S
C868 C869 1.338 . S
C868 N871 1.377 . S
C868 H888 0.930 . S
C869 N867 1.375 . S
C869 C868 1.338 . S
C869 H873 0.931 . S
C870 N867 1.313 . S
C870 N871 1.344 . S
C870 H874 0.930 . S
N871 C868 1.377 . S
N871 C870 1.344 . S
O872 Co864 2.055 . S
O872 C876 1.253 . S
H873 C869 0.931 . S
H874 C870 0.930 . S
O875 Co864 2.039 . S
O875 C865 1.265 . S
C876 O872 1.253 . S
C876 O877 1.227 . S
O877 C876 1.227 . S
N878 Co864 2.140 . S
N878 C881 1.346 . S
N878 C882 1.345 . S
C879 C880 1.387 . S
C879 C883 1.391 . S
C880 C879 1.387 . S
C880 C881 1.369 . S
C880 H889 0.929 . S
C881 N878 1.346 . S
C881 C880 1.369 . S
C881 H884 0.928 . S
C882 N878 1.345 . S
C882 C883 1.371 . S
C882 H885 0.931 . S
C883 C879 1.391 . S
C883 C882 1.371 . S
C883 H890 0.930 . S
H884 C881 0.928 . S
H885 C882 0.931 . S
H886 C862 0.930 . S
H887 C859 0.930 . S
H888 C868 0.930 . S
H889 C880 0.929 . S
H890 C883 0.930 . S
C891 C892 1.351 . S
C891 N894 1.368 . S
C891 H896 0.931 . S
C892 C891 1.351 . S
C892 N893 1.373 . S
C892 H920 0.930 . S
N893 C892 1.373 . S
N893 C895 1.340 . S
N894 C891 1.368 . S
N894 C895 1.321 . S
N894 Co897 2.135 . S
C895 N893 1.340 . S
C895 N894 1.321 . S
C895 H919 0.930 . S
H896 C891 0.931 . S
Co897 N894 2.135 . S
Co897 N900 2.121 . S
Co897 O905 2.055 . S
Co897 O908 2.039 . S
Co897 N911 2.140 . S
C898 O899 1.227 . S
C898 O908 1.265 . S
O899 C898 1.227 . S
N900 Co897 2.121 . S
N900 C902 1.375 . S
N900 C903 1.313 . S
C901 C902 1.338 . S
C901 N904 1.377 . S
C901 H921 0.930 . S
C902 N900 1.375 . S
C902 C901 1.338 . S
C902 H906 0.931 . S
C903 N900 1.313 . S
C903 N904 1.344 . S
C903 H907 0.930 . S
N904 C901 1.377 . S
N904 C903 1.344 . S
O905 Co897 2.055 . S
O905 C909 1.253 . S
H906 C902 0.931 . S
H907 C903 0.930 . S
O908 Co897 2.039 . S
O908 C898 1.265 . S
C909 O905 1.253 . S
C909 O910 1.227 . S
O910 C909 1.227 . S
N911 Co897 2.140 . S
N911 C914 1.346 . S
N911 C915 1.345 . S
C912 C913 1.387 . S
C912 C916 1.391 . S
C913 C912 1.387 . S
C913 C914 1.369 . S
C913 H922 0.939 . S
C914 N911 1.346 . S
C914 C913 1.369 . S
C914 H917 0.928 . S
C915 N911 1.345 . S
C915 C916 1.371 . S
C915 H918 0.931 . S
C916 C912 1.391 . S
C916 C915 1.371 . S
C916 H923 0.930 . S
H917 C914 0.928 . S
H918 C915 0.931 . S
H919 C895 0.930 . S
H920 C892 0.930 . S
H921 C901 0.930 . S
H922 C913 0.939 . S
H923 C916 0.930 . S
C924 C925 1.351 . S
C924 N927 1.368 . S
C924 H929 0.931 . S
C925 C924 1.351 . S
C925 N926 1.373 . S
C925 H953 0.930 . S
N926 C925 1.373 . S
N926 C928 1.340 . S
N927 C924 1.368 . S
N927 C928 1.321 . S
N927 Co930 2.135 . S
C928 N926 1.340 . S
C928 N927 1.321 . S
C928 H952 0.930 . S
H929 C924 0.931 . S
Co930 N927 2.135 . S
Co930 N933 2.121 . S
Co930 O938 2.055 . S
Co930 O941 2.039 . S
Co930 N944 2.140 . S
C931 O932 1.227 . S
C931 O941 1.265 . S
O932 C931 1.227 . S
N933 Co930 2.121 . S
N933 C935 1.375 . S
N933 C936 1.313 . S
C934 C935 1.338 . S
C934 N937 1.377 . S
C934 H954 0.930 . S
C935 N933 1.375 . S
C935 C934 1.338 . S
C935 H939 0.931 . S
C936 N933 1.313 . S
C936 N937 1.344 . S
C936 H940 0.930 . S
N937 C934 1.377 . S
N937 C936 1.344 . S
O938 Co930 2.055 . S
O938 C942 1.253 . S
H939 C935 0.931 . S
H940 C936 0.930 . S
O941 Co930 2.039 . S
O941 C931 1.265 . S
C942 O938 1.253 . S
C942 O943 1.227 . S
O943 C942 1.227 . S
N944 Co930 2.140 . S
N944 C947 1.346 . S
N944 C948 1.345 . S
C945 C946 1.387 . S
C945 C949 1.391 . S
C946 C945 1.387 . S
C946 C947 1.369 . S
C946 H955 0.929 . S
C947 N944 1.346 . S
C947 C946 1.369 . S
C947 H950 0.928 . S
C948 N944 1.345 . S
C948 C949 1.371 . S
C948 H951 0.931 . S
C949 C945 1.391 . S
C949 C948 1.371 . S
C949 H956 0.930 . S
H950 C947 0.928 . S
H951 C948 0.931 . S
H952 C928 0.930 . S
H953 C925 0.930 . S
H954 C934 0.930 . S
H955 C946 0.929 . S
H956 C949 0.930 . S
C957 C958 1.351 . S
C957 N960 1.368 . S
C957 H962 0.931 . S
C958 C957 1.351 . S
C958 N959 1.373 . S
C958 H986 0.930 . S
N959 C958 1.373 . S
N959 C961 1.340 . S
N960 C957 1.368 . S
N960 C961 1.321 . S
N960 Co963 2.135 . S
C961 N959 1.340 . S
C961 N960 1.321 . S
C961 H985 0.930 . S
H962 C957 0.931 . S
Co963 N960 2.135 . S
Co963 N966 2.121 . S
Co963 O971 2.055 . S
Co963 O974 2.039 . S
Co963 N977 2.140 . S
C964 O965 1.227 . S
C964 O974 1.265 . S
O965 C964 1.227 . S
N966 Co963 2.121 . S
N966 C968 1.375 . S
N966 C969 1.313 . S
C967 C968 1.338 . S
C967 N970 1.377 . S
C967 H987 0.930 . S
C968 N966 1.375 . S
C968 C967 1.338 . S
C968 H972 0.931 . S
C969 N966 1.313 . S
C969 N970 1.344 . S
C969 H973 0.930 . S
N970 C967 1.377 . S
N970 C969 1.344 . S
O971 Co963 2.055 . S
O971 C975 1.253 . S
H972 C968 0.931 . S
H973 C969 0.930 . S
O974 Co963 2.039 . S
O974 C964 1.265 . S
C975 O971 1.253 . S
C975 O976 1.227 . S
O976 C975 1.227 . S
N977 Co963 2.140 . S
N977 C980 1.346 . S
N977 C981 1.345 . S
C978 C979 1.387 . S
C978 C982 1.391 . S
C979 C978 1.387 . S
C979 C980 1.369 . S
C979 H988 0.939 . S
C980 N977 1.346 . S
C980 C979 1.369 . S
C980 H983 0.928 . S
C981 N977 1.345 . S
C981 C982 1.371 . S
C981 H984 0.931 . S
C982 C978 1.391 . S
C982 C981 1.371 . S
C982 H989 0.930 . S
H983 C980 0.928 . S
H984 C981 0.931 . S
H985 C961 0.930 . S
H986 C958 0.930 . S
H987 C967 0.930 . S
H988 C979 0.939 . S
H989 C982 0.930 . S
C990 C991 1.351 . S
C990 N993 1.368 . S
C990 H995 0.931 . S
C991 C990 1.351 . S
C991 N992 1.373 . S
C991 H1019 0.930 . S
N992 C991 1.373 . S
N992 C994 1.340 . S
N993 C990 1.368 . S
N993 C994 1.321 . S
N993 Co996 2.135 . S
C994 N992 1.340 . S
C994 N993 1.321 . S
C994 H1018 0.930 . S
H995 C990 0.931 . S
Co996 N993 2.135 . S
Co996 N999 2.121 . S
Co996 O1004 2.055 . S
Co996 O1007 2.039 . S
Co996 N1010 2.140 . S
C997 O998 1.227 . S
C997 O1007 1.265 . S
O998 C997 1.227 . S
N999 Co996 2.121 . S
N999 C1001 1.375 . S
N999 C1002 1.313 . S
C1000 C1001 1.338 . S
C1000 N1003 1.377 . S
C1000 H1020 0.930 . S
C1001 N999 1.375 . S
C1001 C1000 1.338 . S
C1001 H1005 0.931 . S
C1002 N999 1.313 . S
C1002 N1003 1.344 . S
C1002 H1006 0.930 . S
N1003 C1000 1.377 . S
N1003 C1002 1.344 . S
O1004 Co996 2.055 . S
O1004 C1008 1.253 . S
H1005 C1001 0.931 . S
H1006 C1002 0.930 . S
O1007 Co996 2.039 . S
O1007 C997 1.265 . S
C1008 O1004 1.253 . S
C1008 O1009 1.227 . S
O1009 C1008 1.227 . S
N1010 Co996 2.140 . S
N1010 C1013 1.346 . S
N1010 C1014 1.345 . S
C1011 C1012 1.387 . S
C1011 C1015 1.391 . S
C1012 C1011 1.387 . S
C1012 C1013 1.369 . S
C1012 H1021 0.929 . S
C1013 N1010 1.346 . S
C1013 C1012 1.369 . S
C1013 H1016 0.928 . S
C1014 N1010 1.345 . S
C1014 C1015 1.371 . S
C1014 H1017 0.931 . S
C1015 C1011 1.391 . S
C1015 C1014 1.371 . S
C1015 H1022 0.930 . S
H1016 C1013 0.928 . S
H1017 C1014 0.931 . S
H1018 C994 0.930 . S
H1019 C991 0.930 . S
H1020 C1000 0.930 . S
H1021 C1012 0.929 . S
H1022 C1015 0.930 . S
C1023 C1024 1.351 . S
C1023 N1026 1.368 . S
C1023 H1028 0.931 . S
C1024 C1023 1.351 . S
C1024 N1025 1.373 . S
C1024 H1052 0.930 . S
N1025 C1024 1.373 . S
N1025 C1027 1.340 . S
N1026 C1023 1.368 . S
N1026 C1027 1.321 . S
N1026 Co1029 2.135 . S
C1027 N1025 1.340 . S
C1027 N1026 1.321 . S
C1027 H1051 0.930 . S
H1028 C1023 0.931 . S
Co1029 N1026 2.135 . S
Co1029 N1032 2.121 . S
Co1029 O1037 2.055 . S
Co1029 O1040 2.039 . S
Co1029 N1043 2.140 . S
C1030 O1031 1.227 . S
C1030 O1040 1.265 . S
O1031 C1030 1.227 . S
N1032 Co1029 2.121 . S
N1032 C1034 1.375 . S
N1032 C1035 1.313 . S
C1033 C1034 1.338 . S
C1033 N1036 1.377 . S
C1033 H1053 0.930 . S
C1034 N1032 1.375 . S
C1034 C1033 1.338 . S
C1034 H1038 0.931 . S
C1035 N1032 1.313 . S
C1035 N1036 1.344 . S
C1035 H1039 0.930 . S
N1036 C1033 1.377 . S
N1036 C1035 1.344 . S
O1037 Co1029 2.055 . S
O1037 C1041 1.253 . S
H1038 C1034 0.931 . S
H1039 C1035 0.930 . S
O1040 Co1029 2.039 . S
O1040 C1030 1.265 . S
C1041 O1037 1.253 . S
C1041 O1042 1.227 . S
O1042 C1041 1.227 . S
N1043 Co1029 2.140 . S
N1043 C1046 1.346 . S
N1043 C1047 1.345 . S
C1044 C1045 1.387 . S
C1044 C1048 1.391 . S
C1045 C1044 1.387 . S
C1045 C1046 1.369 . S
C1045 H1054 0.929 . S
C1046 N1043 1.346 . S
C1046 C1045 1.369 . S
C1046 H1049 0.928 . S
C1047 N1043 1.345 . S
C1047 C1048 1.371 . S
C1047 H1050 0.931 . S
C1048 C1044 1.391 . S
C1048 C1047 1.371 . S
C1048 H1055 0.930 . S
H1049 C1046 0.928 . S
H1050 C1047 0.931 . S
H1051 C1027 0.930 . S
H1052 C1024 0.930 . S
H1053 C1033 0.930 . S
H1054 C1045 0.929 . S
H1055 C1048 0.930 . S
C1056 C1057 1.391 . S
C1056 C1058 1.394 . S
C1056 H1072 0.931 . S
C1057 C1056 1.391 . S
C1057 C1061 1.376 . S
C1058 C1056 1.394 . S
C1058 C1059 1.369 . S
C1058 C1062 1.531 . S
C1059 C1058 1.369 . S
C1059 C1060 1.410 . S
C1059 C1067 1.503 . S
C1060 C1059 1.410 . S
C1060 C1061 1.392 . S
C1060 C1063 1.511 . S
C1061 C1057 1.376 . S
C1061 C1060 1.392 . S
C1061 H1073 0.929 . S
C1062 C1058 1.531 . S
C1062 H1074 0.960 . S
C1062 H1075 0.962 . S
C1062 H1076 0.960 . S
C1063 C1060 1.511 . S
C1063 H1077 0.961 . S
C1063 H1078 0.961 . S
C1063 H1079 0.961 . S
C1064 C1065 1.370 . S
C1064 C1066 1.363 . S
C1064 H1080 0.931 . S
C1065 C1064 1.370 . S
C1065 C1069 1.408 . S
C1066 C1064 1.363 . S
C1066 C1067 1.370 . S
C1066 C1070 1.524 . S
C1067 C1059 1.503 . S
C1067 C1066 1.370 . S
C1067 C1068 1.403 . S
C1068 C1067 1.403 . S
C1068 C1069 1.404 . S
C1068 C1071 1.539 . S
C1069 C1065 1.408 . S
C1069 C1068 1.404 . S
C1069 H1081 0.930 . S
C1070 C1066 1.524 . S
C1070 H1082 0.956 . S
C1070 H1083 0.961 . S
C1070 H1084 0.961 . S
C1071 C1068 1.539 . S
C1071 H1085 0.958 . S
C1071 H1086 0.961 . S
C1071 H1087 0.960 . S
H1072 C1056 0.931 . S
H1073 C1061 0.929 . S
H1074 C1062 0.960 . S
H1075 C1062 0.962 . S
H1076 C1062 0.960 . S
H1077 C1063 0.961 . S
H1078 C1063 0.961 . S
H1079 C1063 0.961 . S
H1080 C1064 0.931 . S
H1081 C1069 0.930 . S
H1082 C1070 0.956 . S
H1083 C1070 0.961 . S
H1084 C1070 0.961 . S
H1085 C1071 0.958 . S
H1086 C1071 0.961 . S
H1087 C1071 0.960 . S
C1088 C1089 1.391 . S
C1088 C1090 1.394 . S
C1088 H1104 0.931 . S
C1089 C1088 1.391 . S
C1089 C1093 1.376 . S
C1090 C1088 1.394 . S
C1090 C1091 1.369 . S
C1090 C1094 1.531 . S
C1091 C1090 1.369 . S
C1091 C1092 1.410 . S
C1091 C1099 1.503 . S
C1092 C1091 1.410 . S
C1092 C1093 1.392 . S
C1092 C1095 1.511 1_545 S
C1093 C1089 1.376 . S
C1093 C1092 1.392 . S
C1093 H1105 0.929 . S
C1094 C1090 1.531 . S
C1094 H1106 0.960 . S
C1094 H1107 0.962 . S
C1094 H1108 0.960 . S
C1095 C1092 1.511 1_565 S
C1095 H1109 0.961 . S
C1095 H1110 0.961 . S
C1095 H1111 0.961 . S
C1096 C1097 1.370 . S
C1096 C1098 1.363 . S
C1096 H1112 0.931 . S
C1097 C1096 1.370 . S
C1097 C1101 1.408 1_545 S
C1098 C1096 1.363 . S
C1098 C1099 1.370 . S
C1098 C1102 1.524 . S
C1099 C1091 1.503 . S
C1099 C1098 1.370 . S
C1099 C1100 1.403 1_545 S
C1100 C1099 1.403 1_565 S
C1100 C1101 1.404 . S
C1100 C1103 1.539 . S
C1101 C1097 1.408 1_565 S
C1101 C1100 1.404 . S
C1101 H1113 0.930 . S
C1102 C1098 1.524 . S
C1102 H1114 0.956 . S
C1102 H1115 0.961 . S
C1102 H1116 0.961 . S
C1103 C1100 1.539 . S
C1103 H1117 0.958 . S
C1103 H1118 0.961 . S
C1103 H1119 0.960 . S
H1104 C1088 0.931 . S
H1105 C1093 0.929 . S
H1106 C1094 0.960 . S
H1107 C1094 0.962 . S
H1108 C1094 0.960 . S
H1109 C1095 0.961 . S
H1110 C1095 0.961 . S
H1111 C1095 0.961 . S
H1112 C1096 0.931 . S
H1113 C1101 0.930 . S
H1114 C1102 0.956 . S
H1115 C1102 0.961 . S
H1116 C1102 0.961 . S
H1117 C1103 0.958 . S
H1118 C1103 0.961 . S
H1119 C1103 0.960 . S
C1120 C1121 1.391 . S
C1120 C1122 1.394 . S
C1120 H1136 0.931 . S
C1121 C1120 1.391 . S
C1121 C1125 1.376 . S
C1122 C1120 1.394 . S
C1122 C1123 1.369 . S
C1122 C1126 1.531 . S
C1123 C1122 1.369 . S
C1123 C1124 1.410 . S
C1123 C1131 1.503 . S
C1124 C1123 1.410 . S
C1124 C1125 1.392 . S
C1124 C1127 1.511 . S
C1125 C1121 1.376 . S
C1125 C1124 1.392 . S
C1125 H1137 0.929 . S
C1126 C1122 1.531 . S
C1126 H1138 0.960 . S
C1126 H1139 0.962 . S
C1126 H1140 0.960 . S
C1127 C1124 1.511 . S
C1127 H1141 0.961 . S
C1127 H1142 0.961 . S
C1127 H1143 0.961 . S
C1128 C1129 1.370 . S
C1128 C1130 1.363 . S
C1128 H1144 0.931 . S
C1129 C1128 1.370 . S
C1129 C1133 1.408 . S
C1130 C1128 1.363 . S
C1130 C1131 1.370 . S
C1130 C1134 1.524 . S
C1131 C1123 1.503 . S
C1131 C1130 1.370 . S
C1131 C1132 1.403 . S
C1132 C1131 1.403 . S
C1132 C1133 1.404 . S
C1132 C1135 1.539 . S
C1133 C1129 1.408 . S
C1133 C1132 1.404 . S
C1133 H1145 0.930 . S
C1134 C1130 1.524 . S
C1134 H1146 0.956 . S
C1134 H1147 0.961 . S
C1134 H1148 0.961 . S
C1135 C1132 1.539 . S
C1135 H1149 0.958 . S
C1135 H1150 0.961 . S
C1135 H1151 0.960 . S
H1136 C1120 0.931 . S
H1137 C1125 0.929 . S
H1138 C1126 0.960 . S
H1139 C1126 0.962 . S
H1140 C1126 0.960 . S
H1141 C1127 0.961 . S
H1142 C1127 0.961 . S
H1143 C1127 0.961 . S
H1144 C1128 0.931 . S
H1145 C1133 0.930 . S
H1146 C1134 0.956 . S
H1147 C1134 0.961 . S
H1148 C1134 0.961 . S
H1149 C1135 0.958 . S
H1150 C1135 0.961 . S
H1151 C1135 0.960 . S
C1152 C1153 1.391 . S
C1152 C1154 1.394 . S
C1152 H1168 0.931 . S
C1153 C1152 1.391 . S
C1153 C1157 1.376 . S
C1154 C1152 1.394 . S
C1154 C1155 1.369 . S
C1154 C1158 1.531 . S
C1155 C1154 1.369 . S
C1155 C1156 1.410 . S
C1155 C1163 1.503 . S
C1156 C1155 1.410 . S
C1156 C1157 1.392 . S
C1156 C1159 1.511 . S
C1157 C1153 1.376 . S
C1157 C1156 1.392 . S
C1157 H1169 0.929 . S
C1158 C1154 1.531 . S
C1158 H1170 0.960 . S
C1158 H1171 0.962 1_565 S
C1158 H1172 0.960 . S
C1159 C1156 1.511 . S
C1159 H1173 0.961 . S
C1159 H1174 0.961 . S
C1159 H1175 0.961 . S
C1160 C1161 1.370 1_545 S
C1160 C1162 1.363 . S
C1160 H1176 0.931 . S
C1161 C1160 1.370 1_565 S
C1161 C1165 1.408 . S
C1162 C1160 1.363 . S
C1162 C1163 1.370 1_545 S
C1162 C1166 1.524 . S
C1163 C1155 1.503 . S
C1163 C1162 1.370 1_565 S
C1163 C1164 1.403 . S
C1164 C1163 1.403 . S
C1164 C1165 1.404 . S
C1164 C1167 1.539 . S
C1165 C1161 1.408 . S
C1165 C1164 1.404 . S
C1165 H1177 0.930 . S
C1166 C1162 1.524 . S
C1166 H1178 0.956 . S
C1166 H1179 0.961 . S
C1166 H1180 0.961 . S
C1167 C1164 1.539 . S
C1167 H1181 0.958 . S
C1167 H1182 0.961 . S
C1167 H1183 0.960 . S
H1168 C1152 0.931 . S
H1169 C1157 0.929 . S
H1170 C1158 0.960 . S
H1171 C1158 0.962 1_545 S
H1172 C1158 0.960 . S
H1173 C1159 0.961 . S
H1174 C1159 0.961 . S
H1175 C1159 0.961 . S
H1176 C1160 0.931 . S
H1177 C1165 0.930 . S
H1178 C1166 0.956 . S
H1179 C1166 0.961 . S
H1180 C1166 0.961 . S
H1181 C1167 0.958 . S
H1182 C1167 0.961 . S
H1183 C1167 0.960 . S
C1184 C1185 1.391 . S
C1184 C1186 1.394 . S
C1184 H1200 0.931 . S
C1185 C1184 1.391 . S
C1185 C1189 1.376 . S
C1186 C1184 1.394 . S
C1186 C1187 1.369 . S
C1186 C1190 1.531 . S
C1187 C1186 1.369 . S
C1187 C1188 1.410 . S
C1187 C1195 1.503 . S
C1188 C1187 1.410 . S
C1188 C1189 1.392 . S
C1188 C1191 1.511 . S
C1189 C1185 1.376 . S
C1189 C1188 1.392 . S
C1189 H1201 0.929 . S
C1190 C1186 1.531 . S
C1190 H1202 0.960 . S
C1190 H1203 0.962 . S
C1190 H1204 0.960 . S
C1191 C1188 1.511 . S
C1191 H1205 0.961 . S
C1191 H1206 0.961 . S
C1191 H1207 0.961 . S
C1192 C1193 1.370 . S
C1192 C1194 1.363 . S
C1192 H1208 0.931 . S
C1193 C1192 1.370 . S
C1193 C1197 1.408 . S
C1194 C1192 1.363 . S
C1194 C1195 1.370 . S
C1194 C1198 1.524 . S
C1195 C1187 1.503 . S
C1195 C1194 1.370 . S
C1195 C1196 1.403 . S
C1196 C1195 1.403 . S
C1196 C1197 1.404 . S
C1196 C1199 1.539 . S
C1197 C1193 1.408 . S
C1197 C1196 1.404 . S
C1197 H1209 0.930 . S
C1198 C1194 1.524 . S
C1198 H1210 0.956 . S
C1198 H1211 0.961 . S
C1198 H1212 0.961 . S
C1199 C1196 1.539 . S
C1199 H1213 0.958 . S
C1199 H1214 0.961 . S
C1199 H1215 0.960 . S
H1200 C1184 0.931 . S
H1201 C1189 0.929 . S
H1202 C1190 0.960 . S
H1203 C1190 0.962 . S
H1204 C1190 0.960 . S
H1205 C1191 0.961 . S
H1206 C1191 0.961 . S
H1207 C1191 0.961 . S
H1208 C1192 0.931 . S
H1209 C1197 0.930 . S
H1210 C1198 0.956 . S
H1211 C1198 0.961 . S
H1212 C1198 0.961 . S
H1213 C1199 0.958 . S
H1214 C1199 0.961 . S
H1215 C1199 0.960 . S
C1216 C1217 1.391 . S
C1216 C1218 1.394 . S
C1216 H1232 0.931 . S
C1217 C1216 1.391 . S
C1217 C1221 1.376 . S
C1218 C1216 1.394 . S
C1218 C1219 1.369 . S
C1218 C1222 1.531 . S
C1219 C1218 1.369 . S
C1219 C1220 1.410 . S
C1219 C1227 1.503 . S
C1220 C1219 1.410 . S
C1220 C1221 1.392 . S
C1220 C1223 1.511 1_545 S
C1221 C1217 1.376 . S
C1221 C1220 1.392 . S
C1221 H1233 0.942 . S
C1222 C1218 1.531 . S
C1222 H1234 0.960 . S
C1222 H1235 0.962 . S
C1222 H1236 0.960 . S
C1223 C1220 1.511 1_565 S
C1223 H1237 0.961 . S
C1223 H1238 0.961 . S
C1223 H1239 0.961 . S
C1224 C1225 1.371 . S
C1224 C1226 1.364 . S
C1224 H1240 0.929 1_545 S
C1225 C1224 1.371 . S
C1225 C1229 1.408 . S
C1226 C1224 1.364 . S
C1226 C1227 1.370 . S
C1226 C1230 1.524 1_545 S
C1227 C1219 1.503 . S
C1227 C1226 1.370 . S
C1227 C1228 1.403 . S
C1228 C1227 1.403 . S
C1228 C1229 1.404 . S
C1228 C1231 1.539 . S
C1229 C1225 1.408 . S
C1229 C1228 1.404 . S
C1229 H1241 0.930 . S
C1230 C1226 1.524 1_565 S
C1230 H1242 0.956 1_565 S
C1230 H1243 0.961 . S
C1230 H1244 0.961 . S
C1231 C1228 1.539 . S
C1231 H1245 0.958 . S
C1231 H1246 0.961 . S
C1231 H1247 0.960 . S
H1232 C1216 0.931 . S
H1233 C1221 0.942 . S
H1234 C1222 0.960 . S
H1235 C1222 0.962 . S
H1236 C1222 0.960 . S
H1237 C1223 0.961 . S
H1238 C1223 0.961 . S
H1239 C1223 0.961 . S
H1240 C1224 0.929 1_565 S
H1241 C1229 0.930 . S
H1242 C1230 0.956 1_545 S
H1243 C1230 0.961 . S
H1244 C1230 0.961 . S
H1245 C1231 0.958 . S
H1246 C1231 0.961 . S
H1247 C1231 0.960 . S
C1248 C1249 1.391 . S
C1248 C1250 1.394 . S
C1248 H1264 0.931 . S
C1249 C1248 1.391 . S
C1249 C1253 1.376 . S
C1250 C1248 1.394 . S
C1250 C1251 1.369 . S
C1250 C1254 1.531 . S
C1251 C1250 1.369 . S
C1251 C1252 1.410 . S
C1251 C1259 1.503 . S
C1252 C1251 1.410 . S
C1252 C1253 1.392 . S
C1252 C1255 1.511 . S
C1253 C1249 1.376 . S
C1253 C1252 1.392 . S
C1253 H1265 0.929 . S
C1254 C1250 1.531 . S
C1254 H1266 0.960 . S
C1254 H1267 0.962 . S
C1254 H1268 0.960 . S
C1255 C1252 1.511 . S
C1255 H1269 0.961 . S
C1255 H1270 0.961 . S
C1255 H1271 0.961 . S
C1256 C1257 1.370 . S
C1256 C1258 1.363 . S
C1256 H1272 0.931 . S
C1257 C1256 1.370 . S
C1257 C1261 1.408 . S
C1258 C1256 1.363 . S
C1258 C1259 1.370 . S
C1258 C1262 1.524 . S
C1259 C1251 1.503 . S
C1259 C1258 1.370 . S
C1259 C1260 1.403 . S
C1260 C1259 1.403 . S
C1260 C1261 1.404 . S
C1260 C1263 1.539 . S
C1261 C1257 1.408 . S
C1261 C1260 1.404 . S
C1261 H1273 0.930 . S
C1262 C1258 1.524 . S
C1262 H1274 0.956 . S
C1262 H1275 0.961 . S
C1262 H1276 0.961 . S
C1263 C1260 1.539 . S
C1263 H1277 0.958 . S
C1263 H1278 0.961 . S
C1263 H1279 0.960 . S
H1264 C1248 0.931 . S
H1265 C1253 0.929 . S
H1266 C1254 0.960 . S
H1267 C1254 0.962 . S
H1268 C1254 0.960 . S
H1269 C1255 0.961 . S
H1270 C1255 0.961 . S
H1271 C1255 0.961 . S
H1272 C1256 0.931 . S
H1273 C1261 0.930 . S
H1274 C1262 0.956 . S
H1275 C1262 0.961 . S
H1276 C1262 0.961 . S
H1277 C1263 0.958 . S
H1278 C1263 0.961 . S
H1279 C1263 0.960 . S
C1280 C1281 1.391 . S
C1280 C1282 1.394 . S
C1280 H1296 0.931 . S
C1281 C1280 1.391 . S
C1281 C1285 1.376 1_565 S
C1282 C1280 1.394 . S
C1282 C1283 1.369 . S
C1282 C1286 1.531 . S
C1283 C1282 1.369 . S
C1283 C1284 1.410 1_565 S
C1283 C1291 1.503 . S
C1284 C1283 1.410 1_545 S
C1284 C1285 1.392 . S
C1284 C1287 1.511 . S
C1285 C1281 1.376 1_545 S
C1285 C1284 1.392 . S
C1285 H1297 0.929 . S
C1286 C1282 1.531 . S
C1286 H1298 0.960 . S
C1286 H1299 0.962 . S
C1286 H1300 0.960 . S
C1287 C1284 1.511 . S
C1287 H1301 0.961 . S
C1287 H1302 0.961 . S
C1287 H1303 0.961 . S
C1288 C1289 1.370 . S
C1288 C1290 1.363 . S
C1288 H1304 0.931 . S
C1289 C1288 1.370 . S
C1289 C1293 1.408 . S
C1290 C1288 1.363 . S
C1290 C1291 1.370 . S
C1290 C1294 1.524 1_565 S
C1291 C1283 1.503 . S
C1291 C1290 1.370 . S
C1291 C1292 1.403 . S
C1292 C1291 1.403 . S
C1292 C1293 1.404 . S
C1292 C1295 1.539 . S
C1293 C1289 1.408 . S
C1293 C1292 1.404 . S
C1293 H1305 0.930 . S
C1294 C1290 1.524 1_545 S
C1294 H1306 0.956 1_545 S
C1294 H1307 0.961 . S
C1294 H1308 0.961 . S
C1295 C1292 1.539 . S
C1295 H1309 0.958 . S
C1295 H1310 0.961 . S
C1295 H1311 0.960 . S
H1296 C1280 0.931 . S
H1297 C1285 0.929 . S
H1298 C1286 0.960 . S
H1299 C1286 0.962 . S
H1300 C1286 0.960 . S
H1301 C1287 0.961 . S
H1302 C1287 0.961 . S
H1303 C1287 0.961 . S
H1304 C1288 0.931 . S
H1305 C1293 0.930 . S
H1306 C1294 0.956 1_565 S
H1307 C1294 0.961 . S
H1308 C1294 0.961 . S
H1309 C1295 0.958 . S
H1310 C1295 0.961 . S
H1311 C1295 0.960 . S
C1312 C1313 1.391 . S
C1312 C1314 1.394 . S
C1312 H1328 0.931 . S
C1313 C1312 1.391 . S
C1313 C1317 1.376 . S
C1314 C1312 1.394 . S
C1314 C1315 1.369 . S
C1314 C1318 1.531 . S
C1315 C1314 1.369 . S
C1315 C1316 1.410 . S
C1315 C1323 1.503 . S
C1316 C1315 1.410 . S
C1316 C1317 1.392 . S
C1316 C1319 1.511 . S
C1317 C1313 1.376 . S
C1317 C1316 1.392 . S
C1317 H1329 0.929 . S
C1318 C1314 1.531 . S
C1318 H1330 0.960 . S
C1318 H1331 0.962 . S
C1318 H1332 0.960 . S
C1319 C1316 1.511 . S
C1319 H1333 0.961 . S
C1319 H1334 0.961 . S
C1319 H1335 0.961 . S
C1320 C1321 1.370 . S
C1320 C1322 1.363 . S
C1320 H1336 0.931 . S
C1321 C1320 1.370 . S
C1321 C1325 1.408 . S
C1322 C1320 1.363 . S
C1322 C1323 1.370 . S
C1322 C1326 1.524 . S
C1323 C1315 1.503 . S
C1323 C1322 1.370 . S
C1323 C1324 1.403 . S
C1324 C1323 1.403 . S
C1324 C1325 1.404 . S
C1324 C1327 1.539 . S
C1325 C1321 1.408 . S
C1325 C1324 1.404 . S
C1325 H1337 0.930 . S
C1326 C1322 1.524 . S
C1326 H1338 0.956 . S
C1326 H1339 0.961 . S
C1326 H1340 0.961 . S
C1327 C1324 1.539 . S
C1327 H1341 0.958 . S
C1327 H1342 0.961 . S
C1327 H1343 0.960 . S
H1328 C1312 0.931 . S
H1329 C1317 0.929 . S
H1330 C1318 0.960 . S
H1331 C1318 0.962 . S
H1332 C1318 0.960 . S
H1333 C1319 0.961 . S
H1334 C1319 0.961 . S
H1335 C1319 0.961 . S
H1336 C1320 0.931 . S
H1337 C1325 0.930 . S
H1338 C1326 0.956 . S
H1339 C1326 0.961 . S
H1340 C1326 0.961 . S
H1341 C1327 0.958 . S
H1342 C1327 0.961 . S
H1343 C1327 0.960 . S
C1344 C1345 1.391 . S
C1344 C1346 1.394 . S
C1344 H1360 0.929 . S
C1345 C1344 1.391 . S
C1345 C1349 1.376 . S
C1346 C1344 1.394 . S
C1346 C1347 1.369 . S
C1346 C1350 1.531 1_565 S
C1347 C1346 1.369 . S
C1347 C1348 1.410 . S
C1347 C1355 1.503 . S
C1348 C1347 1.410 . S
C1348 C1349 1.392 . S
C1348 C1351 1.511 . S
C1349 C1345 1.376 . S
C1349 C1348 1.392 . S
C1349 H1361 0.929 . S
C1350 C1346 1.531 1_545 S
C1350 H1362 0.960 . S
C1350 H1363 0.962 . S
C1350 H1364 0.960 . S
C1351 C1348 1.511 . S
C1351 H1365 0.961 . S
C1351 H1366 0.961 . S
C1351 H1367 0.961 . S
C1352 C1353 1.370 . S
C1352 C1354 1.363 . S
C1352 H1368 0.931 . S
C1353 C1352 1.370 . S
C1353 C1357 1.408 1_565 S
C1354 C1352 1.363 . S
C1354 C1355 1.370 . S
C1354 C1358 1.524 . S
C1355 C1347 1.503 . S
C1355 C1354 1.370 . S
C1355 C1356 1.403 1_565 S
C1356 C1355 1.403 1_545 S
C1356 C1357 1.404 . S
C1356 C1359 1.539 . S
C1357 C1353 1.408 1_545 S
C1357 C1356 1.404 . S
C1357 H1369 0.930 . S
C1358 C1354 1.524 . S
C1358 H1370 0.956 . S
C1358 H1371 0.961 . S
C1358 H1372 0.961 . S
C1359 C1356 1.539 . S
C1359 H1373 0.958 . S
C1359 H1374 0.961 . S
C1359 H1375 0.960 . S
H1360 C1344 0.929 . S
H1361 C1349 0.929 . S
H1362 C1350 0.960 . S
H1363 C1350 0.962 . S
H1364 C1350 0.960 . S
H1365 C1351 0.961 . S
H1366 C1351 0.961 . S
H1367 C1351 0.961 . S
H1368 C1352 0.931 . S
H1369 C1357 0.930 . S
H1370 C1358 0.956 . S
H1371 C1358 0.961 . S
H1372 C1358 0.961 . S
H1373 C1359 0.958 . S
H1374 C1359 0.961 . S
H1375 C1359 0.960 . S
C1376 C1377 1.391 . S
C1376 C1378 1.394 . S
C1376 H1392 0.931 . S
C1377 C1376 1.391 . S
C1377 C1381 1.376 . S
C1378 C1376 1.394 . S
C1378 C1379 1.369 . S
C1378 C1382 1.531 . S
C1379 C1378 1.369 . S
C1379 C1380 1.410 . S
C1379 C1387 1.503 . S
C1380 C1379 1.410 . S
C1380 C1381 1.392 . S
C1380 C1383 1.511 . S
C1381 C1377 1.376 . S
C1381 C1380 1.392 . S
C1381 H1393 0.929 . S
C1382 C1378 1.531 . S
C1382 H1394 0.960 . S
C1382 H1395 0.962 . S
C1382 H1396 0.960 . S
C1383 C1380 1.511 . S
C1383 H1397 0.961 . S
C1383 H1398 0.961 . S
C1383 H1399 0.961 . S
C1384 C1385 1.370 . S
C1384 C1386 1.363 . S
C1384 H1400 0.931 . S
C1385 C1384 1.370 . S
C1385 C1389 1.408 . S
C1386 C1384 1.363 . S
C1386 C1387 1.370 . S
C1386 C1390 1.524 . S
C1387 C1379 1.503 . S
C1387 C1386 1.370 . S
C1387 C1388 1.403 . S
C1388 C1387 1.403 . S
C1388 C1389 1.404 . S
C1388 C1391 1.539 . S
C1389 C1385 1.408 . S
C1389 C1388 1.404 . S
C1389 H1401 0.930 . S
C1390 C1386 1.524 . S
C1390 H1402 0.956 . S
C1390 H1403 0.961 . S
C1390 H1404 0.961 . S
C1391 C1388 1.539 . S
C1391 H1405 0.958 . S
C1391 H1406 0.961 . S
C1391 H1407 0.960 . S
H1392 C1376 0.931 . S
H1393 C1381 0.929 . S
H1394 C1382 0.960 . S
H1395 C1382 0.962 . S
H1396 C1382 0.960 . S
H1397 C1383 0.961 . S
H1398 C1383 0.961 . S
H1399 C1383 0.961 . S
H1400 C1384 0.931 . S
H1401 C1389 0.930 . S
H1402 C1390 0.956 . S
H1403 C1390 0.961 . S
H1404 C1390 0.961 . S
H1405 C1391 0.958 . S
H1406 C1391 0.961 . S
H1407 C1391 0.960 . S
C1408 C1409 1.391 . S
C1408 C1410 1.394 . S
C1408 H1424 0.931 . S
C1409 C1408 1.391 . S
C1409 C1413 1.376 1_545 S
C1410 C1408 1.394 . S
C1410 C1411 1.369 . S
C1410 C1414 1.531 . S
C1411 C1410 1.369 . S
C1411 C1412 1.410 1_545 S
C1411 C1419 1.503 . S
C1412 C1411 1.410 1_565 S
C1412 C1413 1.392 . S
C1412 C1415 1.511 . S
C1413 C1409 1.376 1_565 S
C1413 C1412 1.392 . S
C1413 H1425 0.929 . S
C1414 C1410 1.531 . S
C1414 H1426 0.960 . S
C1414 H1427 0.962 . S
C1414 H1428 0.960 . S
C1415 C1412 1.511 . S
C1415 H1429 0.961 . S
C1415 H1430 0.961 . S
C1415 H1431 0.961 . S
C1416 C1417 1.370 . S
C1416 C1418 1.363 . S
C1416 H1432 0.931 . S
C1417 C1416 1.370 . S
C1417 C1421 1.408 . S
C1418 C1416 1.363 . S
C1418 C1419 1.370 . S
C1418 C1422 1.524 . S
C1419 C1411 1.503 . S
C1419 C1418 1.370 . S
C1419 C1420 1.403 . S
C1420 C1419 1.403 . S
C1420 C1421 1.404 . S
C1420 C1423 1.539 1_545 S
C1421 C1417 1.408 . S
C1421 C1420 1.404 . S
C1421 H1433 0.930 . S
C1422 C1418 1.524 . S
C1422 H1434 0.956 . S
C1422 H1435 0.961 . S
C1422 H1436 0.961 . S
C1423 C1420 1.539 1_565 S
C1423 H1437 0.958 . S
C1423 H1438 0.961 . S
C1423 H1439 0.960 . S
H1424 C1408 0.931 . S
H1425 C1413 0.929 . S
H1426 C1414 0.960 . S
H1427 C1414 0.962 . S
H1428 C1414 0.960 . S
H1429 C1415 0.961 . S
H1430 C1415 0.961 . S
H1431 C1415 0.961 . S
H1432 C1416 0.931 . S
H1433 C1421 0.930 . S
H1434 C1422 0.956 . S
H1435 C1422 0.961 . S
H1436 C1422 0.961 . S
H1437 C1423 0.958 . S
H1438 C1423 0.961 . S
H1439 C1423 0.960 . S
C1440 C1441 1.391 . S
C1440 C1442 1.394 . S
C1440 H1456 0.931 . S
C1441 C1440 1.391 . S
C1441 C1445 1.376 . S
C1442 C1440 1.394 . S
C1442 C1443 1.369 . S
C1442 C1446 1.531 . S
C1443 C1442 1.369 . S
C1443 C1444 1.410 . S
C1443 C1451 1.503 . S
C1444 C1443 1.410 . S
C1444 C1445 1.392 . S
C1444 C1447 1.511 . S
C1445 C1441 1.376 . S
C1445 C1444 1.392 . S
C1445 H1457 0.929 . S
C1446 C1442 1.531 . S
C1446 H1458 0.960 . S
C1446 H1459 0.962 . S
C1446 H1460 0.960 . S
C1447 C1444 1.511 . S
C1447 H1461 0.961 . S
C1447 H1462 0.961 . S
C1447 H1463 0.961 . S
C1448 C1449 1.370 . S
C1448 C1450 1.363 . S
C1448 H1464 0.931 . S
C1449 C1448 1.370 . S
C1449 C1453 1.408 . S
C1450 C1448 1.363 . S
C1450 C1451 1.370 . S
C1450 C1454 1.524 . S
C1451 C1443 1.503 . S
C1451 C1450 1.370 . S
C1451 C1452 1.403 . S
C1452 C1451 1.403 . S
C1452 C1453 1.404 . S
C1452 C1455 1.539 . S
C1453 C1449 1.408 . S
C1453 C1452 1.404 . S
C1453 H1465 0.930 . S
C1454 C1450 1.524 . S
C1454 H1466 0.956 . S
C1454 H1467 0.961 . S
C1454 H1468 0.961 . S
C1455 C1452 1.539 . S
C1455 H1469 0.958 . S
C1455 H1470 0.961 . S
C1455 H1471 0.960 . S
H1456 C1440 0.931 . S
H1457 C1445 0.929 . S
H1458 C1446 0.960 . S
H1459 C1446 0.962 . S
H1460 C1446 0.960 . S
H1461 C1447 0.961 . S
H1462 C1447 0.961 . S
H1463 C1447 0.961 . S
H1464 C1448 0.931 . S
H1465 C1453 0.930 . S
H1466 C1454 0.956 . S
H1467 C1454 0.961 . S
H1468 C1454 0.961 . S
H1469 C1455 0.958 . S
H1470 C1455 0.961 . S
H1471 C1455 0.960 . S
C1472 C1473 1.391 1_545 S
C1472 C1474 1.394 . S
C1472 H1488 0.931 . S
C1473 C1472 1.391 1_565 S
C1473 C1477 1.376 . S
C1474 C1472 1.394 . S
C1474 C1475 1.369 1_545 S
C1474 C1478 1.531 . S
C1475 C1474 1.369 1_565 S
C1475 C1476 1.410 . S
C1475 C1483 1.503 . S
C1476 C1475 1.410 . S
C1476 C1477 1.392 . S
C1476 C1479 1.511 . S
C1477 C1473 1.376 . S
C1477 C1476 1.392 . S
C1477 H1489 0.929 . S
C1478 C1474 1.531 . S
C1478 H1490 0.960 . S
C1478 H1491 0.962 . S
C1478 H1492 0.960 . S
C1479 C1476 1.511 . S
C1479 H1493 0.961 . S
C1479 H1494 0.961 . S
C1479 H1495 0.961 . S
C1480 C1481 1.370 . S
C1480 C1482 1.363 . S
C1480 H1496 0.931 . S
C1481 C1480 1.370 . S
C1481 C1485 1.408 . S
C1482 C1480 1.363 . S
C1482 C1483 1.370 . S
C1482 C1486 1.524 . S
C1483 C1475 1.503 . S
C1483 C1482 1.370 . S
C1483 C1484 1.403 . S
C1484 C1483 1.403 . S
C1484 C1485 1.404 . S
C1484 C1487 1.539 1_565 S
C1485 C1481 1.408 . S
C1485 C1484 1.404 . S
C1485 H1497 0.926 1_565 S
C1486 C1482 1.524 . S
C1486 H1498 0.956 . S
C1486 H1499 0.961 . S
C1486 H1500 0.961 . S
C1487 C1484 1.539 1_545 S
C1487 H1501 0.958 . S
C1487 H1502 0.961 . S
C1487 H1503 0.960 . S
H1488 C1472 0.931 . S
H1489 C1477 0.929 . S
H1490 C1478 0.960 . S
H1491 C1478 0.962 . S
H1492 C1478 0.960 . S
H1493 C1479 0.961 . S
H1494 C1479 0.961 . S
H1495 C1479 0.961 . S
H1496 C1480 0.931 . S
H1497 C1485 0.926 1_545 S
H1498 C1486 0.956 . S
H1499 C1486 0.961 . S
H1500 C1486 0.961 . S
H1501 C1487 0.958 . S
H1502 C1487 0.961 . S
H1503 C1487 0.960 . S
C1504 C1505 1.391 . S
C1504 C1506 1.394 . S
C1504 H1520 0.931 . S
C1505 C1504 1.391 . S
C1505 C1509 1.376 . S
C1506 C1504 1.394 . S
C1506 C1507 1.369 . S
C1506 C1510 1.531 . S
C1507 C1506 1.369 . S
C1507 C1508 1.410 . S
C1507 C1515 1.503 . S
C1508 C1507 1.410 . S
C1508 C1509 1.392 . S
C1508 C1511 1.511 . S
C1509 C1505 1.376 . S
C1509 C1508 1.392 . S
C1509 H1521 0.929 . S
C1510 C1506 1.531 . S
C1510 H1522 0.960 . S
C1510 H1523 0.962 . S
C1510 H1524 0.960 . S
C1511 C1508 1.511 . S
C1511 H1525 0.961 . S
C1511 H1526 0.961 . S
C1511 H1527 0.961 . S
C1512 C1513 1.370 . S
C1512 C1514 1.363 . S
C1512 H1528 0.931 . S
C1513 C1512 1.370 . S
C1513 C1517 1.408 . S
C1514 C1512 1.363 . S
C1514 C1515 1.370 . S
C1514 C1518 1.524 . S
C1515 C1507 1.503 . S
C1515 C1514 1.370 . S
C1515 C1516 1.403 . S
C1516 C1515 1.403 . S
C1516 C1517 1.404 . S
C1516 C1519 1.539 . S
C1517 C1513 1.408 . S
C1517 C1516 1.404 . S
C1517 H1529 0.930 . S
C1518 C1514 1.524 . S
C1518 H1530 0.956 . S
C1518 H1531 0.961 . S
C1518 H1532 0.961 . S
C1519 C1516 1.539 . S
C1519 H1533 0.958 . S
C1519 H1534 0.961 . S
C1519 H1535 0.960 . S
H1520 C1504 0.931 . S
H1521 C1509 0.929 . S
H1522 C1510 0.960 . S
H1523 C1510 0.962 . S
H1524 C1510 0.960 . S
H1525 C1511 0.961 . S
H1526 C1511 0.961 . S
H1527 C1511 0.961 . S
H1528 C1512 0.931 . S
H1529 C1517 0.930 . S
H1530 C1518 0.956 . S
H1531 C1518 0.961 . S
H1532 C1518 0.961 . S
H1533 C1519 0.958 . S
H1534 C1519 0.961 . S
H1535 C1519 0.960 . S
C1536 C1537 1.391 . S
C1536 C1538 1.394 . S
C1536 H1552 0.931 . S
C1537 C1536 1.391 . S
C1537 C1541 1.376 . S
C1538 C1536 1.394 . S
C1538 C1539 1.369 . S
C1538 C1542 1.531 . S
C1539 C1538 1.369 . S
C1539 C1540 1.410 . S
C1539 C1547 1.503 . S
C1540 C1539 1.410 . S
C1540 C1541 1.392 . S
C1540 C1543 1.511 . S
C1541 C1537 1.376 . S
C1541 C1540 1.392 . S
C1541 H1553 0.929 . S
C1542 C1538 1.531 . S
C1542 H1554 0.960 1_545 S
C1542 H1555 0.962 . S
C1542 H1556 0.960 1_545 S
C1543 C1540 1.511 . S
C1543 H1557 0.961 . S
C1543 H1558 0.961 . S
C1543 H1559 0.961 . S
C1544 C1545 1.370 . S
C1544 C1546 1.363 . S
C1544 H1560 0.931 . S
C1545 C1544 1.370 . S
C1545 C1549 1.408 1_545 S
C1546 C1544 1.363 . S
C1546 C1547 1.370 . S
C1546 C1550 1.524 . S
C1547 C1539 1.503 . S
C1547 C1546 1.370 . S
C1547 C1548 1.403 1_545 S
C1548 C1547 1.403 1_565 S
C1548 C1549 1.404 . S
C1548 C1551 1.539 . S
C1549 C1545 1.408 1_565 S
C1549 C1548 1.404 . S
C1549 H1561 0.930 . S
C1550 C1546 1.524 . S
C1550 H1562 0.956 . S
C1550 H1563 0.961 . S
C1550 H1564 0.961 . S
C1551 C1548 1.539 . S
C1551 H1565 0.958 . S
C1551 H1566 0.961 . S
C1551 H1567 0.960 . S
H1552 C1536 0.931 . S
H1553 C1541 0.929 . S
H1554 C1542 0.960 1_565 S
H1555 C1542 0.962 . S
H1556 C1542 0.960 1_565 S
H1557 C1543 0.961 . S
H1558 C1543 0.961 . S
H1559 C1543 0.961 . S
H1560 C1544 0.931 . S
H1561 C1549 0.930 . S
H1562 C1550 0.956 . S
H1563 C1550 0.961 . S
H1564 C1550 0.961 . S
H1565 C1551 0.958 . S
H1566 C1551 0.961 . S
H1567 C1551 0.960 . S
C1568 C1569 1.391 . S
C1568 C1570 1.394 . S
C1568 H1584 0.931 . S
C1569 C1568 1.391 . S
C1569 C1573 1.376 . S
C1570 C1568 1.394 . S
C1570 C1571 1.369 . S
C1570 C1574 1.531 . S
C1571 C1570 1.369 . S
C1571 C1572 1.410 . S
C1571 C1579 1.503 . S
C1572 C1571 1.410 . S
C1572 C1573 1.392 . S
C1572 C1575 1.511 . S
C1573 C1569 1.376 . S
C1573 C1572 1.392 . S
C1573 H1585 0.929 . S
C1574 C1570 1.531 . S
C1574 H1586 0.960 . S
C1574 H1587 0.962 . S
C1574 H1588 0.960 . S
C1575 C1572 1.511 . S
C1575 H1589 0.961 . S
C1575 H1590 0.961 . S
C1575 H1591 0.961 . S
C1576 C1577 1.370 . S
C1576 C1578 1.363 . S
C1576 H1592 0.931 . S
C1577 C1576 1.370 . S
C1577 C1581 1.408 . S
C1578 C1576 1.363 . S
C1578 C1579 1.370 . S
C1578 C1582 1.524 . S
C1579 C1571 1.503 . S
C1579 C1578 1.370 . S
C1579 C1580 1.403 . S
C1580 C1579 1.403 . S
C1580 C1581 1.404 . S
C1580 C1583 1.539 . S
C1581 C1577 1.408 . S
C1581 C1580 1.404 . S
C1581 H1593 0.930 . S
C1582 C1578 1.524 . S
C1582 H1594 0.956 . S
C1582 H1595 0.961 . S
C1582 H1596 0.961 . S
C1583 C1580 1.539 . S
C1583 H1597 0.958 . S
C1583 H1598 0.961 . S
C1583 H1599 0.960 . S
H1584 C1568 0.931 . S
H1585 C1573 0.929 . S
H1586 C1574 0.960 . S
H1587 C1574 0.962 . S
H1588 C1574 0.960 . S
H1589 C1575 0.961 . S
H1590 C1575 0.961 . S
H1591 C1575 0.961 . S
H1592 C1576 0.931 . S
H1593 C1581 0.930 . S
H1594 C1582 0.956 . S
H1595 C1582 0.961 . S
H1596 C1582 0.961 . S
H1597 C1583 0.958 . S
H1598 C1583 0.961 . S
H1599 C1583 0.960 . S
C1600 C1601 1.391 . S
C1600 C1602 1.394 . S
C1600 H1616 0.931 . S
C1601 C1600 1.391 . S
C1601 C1605 1.376 . S
C1602 C1600 1.394 . S
C1602 C1603 1.369 . S
C1602 C1606 1.531 . S
C1603 C1602 1.369 . S
C1603 C1604 1.410 . S
C1603 C1611 1.503 . S
C1604 C1603 1.410 . S
C1604 C1605 1.392 . S
C1604 C1607 1.511 . S
C1605 C1601 1.376 . S
C1605 C1604 1.392 . S
C1605 H1617 0.929 . S
C1606 C1602 1.531 . S
C1606 H1618 0.960 . S
C1606 H1619 0.962 . S
C1606 H1620 0.960 . S
C1607 C1604 1.511 . S
C1607 H1621 0.961 . S
C1607 H1622 0.961 . S
C1607 H1623 0.961 . S
C1608 C1609 1.370 . S
C1608 C1610 1.363 . S
C1608 H1624 0.931 . S
C1609 C1608 1.370 . S
C1609 C1613 1.408 . S
C1610 C1608 1.363 . S
C1610 C1611 1.370 . S
C1610 C1614 1.524 . S
C1611 C1603 1.503 . S
C1611 C1610 1.370 . S
C1611 C1612 1.403 . S
C1612 C1611 1.403 . S
C1612 C1613 1.404 . S
C1612 C1615 1.539 . S
C1613 C1609 1.408 . S
C1613 C1612 1.404 . S
C1613 H1625 0.930 . S
C1614 C1610 1.524 . S
C1614 H1626 0.956 . S
C1614 H1627 0.961 . S
C1614 H1628 0.961 . S
C1615 C1612 1.539 . S
C1615 H1629 0.958 . S
C1615 H1630 0.961 . S
C1615 H1631 0.960 . S
H1616 C1600 0.931 . S
H1617 C1605 0.929 . S
H1618 C1606 0.960 . S
H1619 C1606 0.962 . S
H1620 C1606 0.960 . S
H1621 C1607 0.961 . S
H1622 C1607 0.961 . S
H1623 C1607 0.961 . S
H1624 C1608 0.931 . S
H1625 C1613 0.930 . S
H1626 C1614 0.956 . S
H1627 C1614 0.961 . S
H1628 C1614 0.961 . S
H1629 C1615 0.958 . S
H1630 C1615 0.961 . S
H1631 C1615 0.960 . S
C1632 C1633 1.391 . S
C1632 C1634 1.394 . S
C1632 H1648 0.931 . S
C1633 C1632 1.391 . S
C1633 C1637 1.376 . S
C1634 C1632 1.394 . S
C1634 C1635 1.369 . S
C1634 C1638 1.531 . S
C1635 C1634 1.369 . S
C1635 C1636 1.410 . S
C1635 C1643 1.503 . S
C1636 C1635 1.410 . S
C1636 C1637 1.392 . S
C1636 C1639 1.511 . S
C1637 C1633 1.376 . S
C1637 C1636 1.392 . S
C1637 H1649 0.929 . S
C1638 C1634 1.531 . S
C1638 H1650 0.960 . S
C1638 H1651 0.962 . S
C1638 H1652 0.960 . S
C1639 C1636 1.511 . S
C1639 H1653 0.961 . S
C1639 H1654 0.961 . S
C1639 H1655 0.961 . S
C1640 C1641 1.370 . S
C1640 C1642 1.363 . S
C1640 H1656 0.931 . S
C1641 C1640 1.370 . S
C1641 C1645 1.408 . S
C1642 C1640 1.363 . S
C1642 C1643 1.370 . S
C1642 C1646 1.524 . S
C1643 C1635 1.503 . S
C1643 C1642 1.370 . S
C1643 C1644 1.403 . S
C1644 C1643 1.403 . S
C1644 C1645 1.404 . S
C1644 C1647 1.539 . S
C1645 C1641 1.408 . S
C1645 C1644 1.404 . S
C1645 H1657 0.930 . S
C1646 C1642 1.524 . S
C1646 H1658 0.956 . S
C1646 H1659 0.961 . S
C1646 H1660 0.961 . S
C1647 C1644 1.539 . S
C1647 H1661 0.958 . S
C1647 H1662 0.961 . S
C1647 H1663 0.960 . S
H1648 C1632 0.931 . S
H1649 C1637 0.929 . S
H1650 C1638 0.960 . S
H1651 C1638 0.962 . S
H1652 C1638 0.960 . S
H1653 C1639 0.961 . S
H1654 C1639 0.961 . S
H1655 C1639 0.961 . S
H1656 C1640 0.931 . S
H1657 C1645 0.930 . S
H1658 C1646 0.956 . S
H1659 C1646 0.961 . S
H1660 C1646 0.961 . S
H1661 C1647 0.958 . S
H1662 C1647 0.961 . S
H1663 C1647 0.960 . S
C1664 C1665 1.391 . S
C1664 C1666 1.394 . S
C1664 H1680 0.931 . S
C1665 C1664 1.391 . S
C1665 C1669 1.376 . S
C1666 C1664 1.394 . S
C1666 C1667 1.369 . S
C1666 C1670 1.531 . S
C1667 C1666 1.369 . S
C1667 C1668 1.410 . S
C1667 C1675 1.503 . S
C1668 C1667 1.410 . S
C1668 C1669 1.392 . S
C1668 C1671 1.511 . S
C1669 C1665 1.376 . S
C1669 C1668 1.392 . S
C1669 H1681 0.929 . S
C1670 C1666 1.531 . S
C1670 H1682 0.960 . S
C1670 H1683 0.962 . S
C1670 H1684 0.960 . S
C1671 C1668 1.511 . S
C1671 H1685 0.961 . S
C1671 H1686 0.961 . S
C1671 H1687 0.961 . S
C1672 C1673 1.370 . S
C1672 C1674 1.363 . S
C1672 H1688 0.931 . S
C1673 C1672 1.370 . S
C1673 C1677 1.408 . S
C1674 C1672 1.363 . S
C1674 C1675 1.370 . S
C1674 C1678 1.524 . S
C1675 C1667 1.503 . S
C1675 C1674 1.370 . S
C1675 C1676 1.403 . S
C1676 C1675 1.403 . S
C1676 C1677 1.404 . S
C1676 C1679 1.539 . S
C1677 C1673 1.408 . S
C1677 C1676 1.404 . S
C1677 H1689 0.930 . S
C1678 C1674 1.524 . S
C1678 H1690 0.956 . S
C1678 H1691 0.961 . S
C1678 H1692 0.961 . S
C1679 C1676 1.539 . S
C1679 H1693 0.958 . S
C1679 H1694 0.961 . S
C1679 H1695 0.960 . S
H1680 C1664 0.931 . S
H1681 C1669 0.929 . S
H1682 C1670 0.960 . S
H1683 C1670 0.962 . S
H1684 C1670 0.960 . S
H1685 C1671 0.961 . S
H1686 C1671 0.961 . S
H1687 C1671 0.961 . S
H1688 C1672 0.931 . S
H1689 C1677 0.930 . S
H1690 C1678 0.956 . S
H1691 C1678 0.961 . S
H1692 C1678 0.961 . S
H1693 C1679 0.958 . S
H1694 C1679 0.961 . S
H1695 C1679 0.960 . S
C1696 C1697 1.391 . S
C1696 C1698 1.394 . S
C1696 H1712 0.931 . S
C1697 C1696 1.391 . S
C1697 C1701 1.376 . S
C1698 C1696 1.394 . S
C1698 C1699 1.369 . S
C1698 C1702 1.531 . S
C1699 C1698 1.369 . S
C1699 C1700 1.410 . S
C1699 C1707 1.503 . S
C1700 C1699 1.410 . S
C1700 C1701 1.392 . S
C1700 C1703 1.511 . S
C1701 C1697 1.376 . S
C1701 C1700 1.392 . S
C1701 H1713 0.929 . S
C1702 C1698 1.531 . S
C1702 H1714 0.960 . S
C1702 H1715 0.962 . S
C1702 H1716 0.960 . S
C1703 C1700 1.511 . S
C1703 H1717 0.961 . S
C1703 H1718 0.961 . S
C1703 H1719 0.961 . S
C1704 C1705 1.370 . S
C1704 C1706 1.363 . S
C1704 H1720 0.931 . S
C1705 C1704 1.370 . S
C1705 C1709 1.408 . S
C1706 C1704 1.363 . S
C1706 C1707 1.370 . S
C1706 C1710 1.524 . S
C1707 C1699 1.503 . S
C1707 C1706 1.370 . S
C1707 C1708 1.403 . S
C1708 C1707 1.403 . S
C1708 C1709 1.404 . S
C1708 C1711 1.539 . S
C1709 C1705 1.408 . S
C1709 C1708 1.404 . S
C1709 H1721 0.930 . S
C1710 C1706 1.524 . S
C1710 H1722 0.956 . S
C1710 H1723 0.961 . S
C1710 H1724 0.961 . S
C1711 C1708 1.539 . S
C1711 H1725 0.958 . S
C1711 H1726 0.961 . S
C1711 H1727 0.960 . S
H1712 C1696 0.931 . S
H1713 C1701 0.929 . S
H1714 C1702 0.960 . S
H1715 C1702 0.962 . S
H1716 C1702 0.960 . S
H1717 C1703 0.961 . S
H1718 C1703 0.961 . S
H1719 C1703 0.961 . S
H1720 C1704 0.931 . S
H1721 C1709 0.930 . S
H1722 C1710 0.956 . S
H1723 C1710 0.961 . S
H1724 C1710 0.961 . S
H1725 C1711 0.958 . S
H1726 C1711 0.961 . S
H1727 C1711 0.960 . S
C1728 C1729 1.391 . S
C1728 C1730 1.394 . S
C1728 H1744 0.931 . S
C1729 C1728 1.391 . S
C1729 C1733 1.376 . S
C1730 C1728 1.394 . S
C1730 C1731 1.369 . S
C1730 C1734 1.531 . S
C1731 C1730 1.369 . S
C1731 C1732 1.410 . S
C1731 C1739 1.503 . S
C1732 C1731 1.410 . S
C1732 C1733 1.392 . S
C1732 C1735 1.511 . S
C1733 C1729 1.376 . S
C1733 C1732 1.392 . S
C1733 H1745 0.929 . S
C1734 C1730 1.531 . S
C1734 H1746 0.960 . S
C1734 H1747 0.962 . S
C1734 H1748 0.960 . S
C1735 C1732 1.511 . S
C1735 H1749 0.961 . S
C1735 H1750 0.961 . S
C1735 H1751 0.961 . S
C1736 C1737 1.370 . S
C1736 C1738 1.363 . S
C1736 H1752 0.931 . S
C1737 C1736 1.370 . S
C1737 C1741 1.408 . S
C1738 C1736 1.363 . S
C1738 C1739 1.370 . S
C1738 C1742 1.524 . S
C1739 C1731 1.503 . S
C1739 C1738 1.370 . S
C1739 C1740 1.403 . S
C1740 C1739 1.403 . S
C1740 C1741 1.404 . S
C1740 C1743 1.539 . S
C1741 C1737 1.408 . S
C1741 C1740 1.404 . S
C1741 H1753 0.930 . S
C1742 C1738 1.524 . S
C1742 H1754 0.956 . S
C1742 H1755 0.961 . S
C1742 H1756 0.961 . S
C1743 C1740 1.539 . S
C1743 H1757 0.958 . S
C1743 H1758 0.961 . S
C1743 H1759 0.960 . S
H1744 C1728 0.931 . S
H1745 C1733 0.929 . S
H1746 C1734 0.960 . S
H1747 C1734 0.962 . S
H1748 C1734 0.960 . S
H1749 C1735 0.961 . S
H1750 C1735 0.961 . S
H1751 C1735 0.961 . S
H1752 C1736 0.931 . S
H1753 C1741 0.930 . S
H1754 C1742 0.956 . S
H1755 C1742 0.961 . S
H1756 C1742 0.961 . S
H1757 C1743 0.958 . S
H1758 C1743 0.961 . S
H1759 C1743 0.960 . S
C1760 C1761 1.391 . S
C1760 C1762 1.394 . S
C1760 H1776 0.931 . S
C1761 C1760 1.391 . S
C1761 C1765 1.376 . S
C1762 C1760 1.394 . S
C1762 C1763 1.369 . S
C1762 C1766 1.531 . S
C1763 C1762 1.369 . S
C1763 C1764 1.410 . S
C1763 C1771 1.503 . S
C1764 C1763 1.410 . S
C1764 C1765 1.392 . S
C1764 C1767 1.511 . S
C1765 C1761 1.376 . S
C1765 C1764 1.392 . S
C1765 H1777 0.929 . S
C1766 C1762 1.531 . S
C1766 H1778 0.960 . S
C1766 H1779 0.962 . S
C1766 H1780 0.960 . S
C1767 C1764 1.511 . S
C1767 H1781 0.961 . S
C1767 H1782 0.961 . S
C1767 H1783 0.961 . S
C1768 C1769 1.370 . S
C1768 C1770 1.363 . S
C1768 H1784 0.931 . S
C1769 C1768 1.370 . S
C1769 C1773 1.408 . S
C1770 C1768 1.363 . S
C1770 C1771 1.370 . S
C1770 C1774 1.524 . S
C1771 C1763 1.503 . S
C1771 C1770 1.370 . S
C1771 C1772 1.403 . S
C1772 C1771 1.403 . S
C1772 C1773 1.404 . S
C1772 C1775 1.539 . S
C1773 C1769 1.408 . S
C1773 C1772 1.404 . S
C1773 H1785 0.930 . S
C1774 C1770 1.524 . S
C1774 H1786 0.956 . S
C1774 H1787 0.961 . S
C1774 H1788 0.961 . S
C1775 C1772 1.539 . S
C1775 H1789 0.958 . S
C1775 H1790 0.961 . S
C1775 H1791 0.960 . S
H1776 C1760 0.931 . S
H1777 C1765 0.929 . S
H1778 C1766 0.960 . S
H1779 C1766 0.962 . S
H1780 C1766 0.960 . S
H1781 C1767 0.961 . S
H1782 C1767 0.961 . S
H1783 C1767 0.961 . S
H1784 C1768 0.931 . S
H1785 C1773 0.930 . S
H1786 C1774 0.956 . S
H1787 C1774 0.961 . S
H1788 C1774 0.961 . S
H1789 C1775 0.958 . S
H1790 C1775 0.961 . S
H1791 C1775 0.960 . S
C1792 C1793 1.391 . S
C1792 C1794 1.394 . S
C1792 H1808 0.931 . S
C1793 C1792 1.391 . S
C1793 C1797 1.376 . S
C1794 C1792 1.394 . S
C1794 C1795 1.369 . S
C1794 C1798 1.531 . S
C1795 C1794 1.369 . S
C1795 C1796 1.410 . S
C1795 C1803 1.503 . S
C1796 C1795 1.410 . S
C1796 C1797 1.392 . S
C1796 C1799 1.511 . S
C1797 C1793 1.376 . S
C1797 C1796 1.392 . S
C1797 H1809 0.929 . S
C1798 C1794 1.531 . S
C1798 H1810 0.960 . S
C1798 H1811 0.962 . S
C1798 H1812 0.960 . S
C1799 C1796 1.511 . S
C1799 H1813 0.961 . S
C1799 H1814 0.961 . S
C1799 H1815 0.961 . S
C1800 C1801 1.370 . S
C1800 C1802 1.363 . S
C1800 H1816 0.931 . S
C1801 C1800 1.370 . S
C1801 C1805 1.408 . S
C1802 C1800 1.363 . S
C1802 C1803 1.370 . S
C1802 C1806 1.524 . S
C1803 C1795 1.503 . S
C1803 C1802 1.370 . S
C1803 C1804 1.403 . S
C1804 C1803 1.403 . S
C1804 C1805 1.404 . S
C1804 C1807 1.539 . S
C1805 C1801 1.408 . S
C1805 C1804 1.404 . S
C1805 H1817 0.930 . S
C1806 C1802 1.524 . S
C1806 H1818 0.956 . S
C1806 H1819 0.961 . S
C1806 H1820 0.961 . S
C1807 C1804 1.539 . S
C1807 H1821 0.958 . S
C1807 H1822 0.961 . S
C1807 H1823 0.960 . S
H1808 C1792 0.931 . S
H1809 C1797 0.929 . S
H1810 C1798 0.960 . S
H1811 C1798 0.962 . S
H1812 C1798 0.960 . S
H1813 C1799 0.961 . S
H1814 C1799 0.961 . S
H1815 C1799 0.961 . S
H1816 C1800 0.931 . S
H1817 C1805 0.930 . S
H1818 C1806 0.956 . S
H1819 C1806 0.961 . S
H1820 C1806 0.961 . S
H1821 C1807 0.958 . S
H1822 C1807 0.961 . S
H1823 C1807 0.960 . S
C1824 C1825 1.391 . S
C1824 C1826 1.394 . S
C1824 H1840 0.931 . S
C1825 C1824 1.391 . S
C1825 C1829 1.376 . S
C1826 C1824 1.394 . S
C1826 C1827 1.369 . S
C1826 C1830 1.531 . S
C1827 C1826 1.369 . S
C1827 C1828 1.410 . S
C1827 C1835 1.503 . S
C1828 C1827 1.410 . S
C1828 C1829 1.392 . S
C1828 C1831 1.511 . S
C1829 C1825 1.376 . S
C1829 C1828 1.392 . S
C1829 H1841 0.929 . S
C1830 C1826 1.531 . S
C1830 H1842 0.960 . S
C1830 H1843 0.962 . S
C1830 H1844 0.960 . S
C1831 C1828 1.511 . S
C1831 H1845 0.961 . S
C1831 H1846 0.961 . S
C1831 H1847 0.961 . S
C1832 C1833 1.370 . S
C1832 C1834 1.363 . S
C1832 H1848 0.931 . S
C1833 C1832 1.370 . S
C1833 C1837 1.408 . S
C1834 C1832 1.363 . S
C1834 C1835 1.370 . S
C1834 C1838 1.524 . S
C1835 C1827 1.503 . S
C1835 C1834 1.370 . S
C1835 C1836 1.403 . S
C1836 C1835 1.403 . S
C1836 C1837 1.404 . S
C1836 C1839 1.539 . S
C1837 C1833 1.408 . S
C1837 C1836 1.404 . S
C1837 H1849 0.930 . S
C1838 C1834 1.524 . S
C1838 H1850 0.956 . S
C1838 H1851 0.961 . S
C1838 H1852 0.961 . S
C1839 C1836 1.539 . S
C1839 H1853 0.958 . S
C1839 H1854 0.961 . S
C1839 H1855 0.960 . S
H1840 C1824 0.931 . S
H1841 C1829 0.929 . S
H1842 C1830 0.960 . S
H1843 C1830 0.962 . S
H1844 C1830 0.960 . S
H1845 C1831 0.961 . S
H1846 C1831 0.961 . S
H1847 C1831 0.961 . S
H1848 C1832 0.931 . S
H1849 C1837 0.930 . S
H1850 C1838 0.956 . S
H1851 C1838 0.961 . S
H1852 C1838 0.961 . S
H1853 C1839 0.958 . S
H1854 C1839 0.961 . S
H1855 C1839 0.960 . S
C1856 C1857 1.391 . S
C1856 C1858 1.394 . S
C1856 H1872 0.931 . S
C1857 C1856 1.391 . S
C1857 C1861 1.376 . S
C1858 C1856 1.394 . S
C1858 C1859 1.369 . S
C1858 C1862 1.531 . S
C1859 C1858 1.369 . S
C1859 C1860 1.410 . S
C1859 C1867 1.503 . S
C1860 C1859 1.410 . S
C1860 C1861 1.392 . S
C1860 C1863 1.511 . S
C1861 C1857 1.376 . S
C1861 C1860 1.392 . S
C1861 H1873 0.929 . S
C1862 C1858 1.531 . S
C1862 H1874 0.960 . S
C1862 H1875 0.962 . S
C1862 H1876 0.960 . S
C1863 C1860 1.511 . S
C1863 H1877 0.961 . S
C1863 H1878 0.961 . S
C1863 H1879 0.961 . S
C1864 C1865 1.370 . S
C1864 C1866 1.363 . S
C1864 H1880 0.931 . S
C1865 C1864 1.370 . S
C1865 C1869 1.408 . S
C1866 C1864 1.363 . S
C1866 C1867 1.370 . S
C1866 C1870 1.524 . S
C1867 C1859 1.503 . S
C1867 C1866 1.370 . S
C1867 C1868 1.403 . S
C1868 C1867 1.403 . S
C1868 C1869 1.404 . S
C1868 C1871 1.539 . S
C1869 C1865 1.408 . S
C1869 C1868 1.404 . S
C1869 H1881 0.930 . S
C1870 C1866 1.524 . S
C1870 H1882 0.956 . S
C1870 H1883 0.961 . S
C1870 H1884 0.961 . S
C1871 C1868 1.539 . S
C1871 H1885 0.958 . S
C1871 H1886 0.961 . S
C1871 H1887 0.960 . S
H1872 C1856 0.931 . S
H1873 C1861 0.929 . S
H1874 C1862 0.960 . S
H1875 C1862 0.962 . S
H1876 C1862 0.960 . S
H1877 C1863 0.961 . S
H1878 C1863 0.961 . S
H1879 C1863 0.961 . S
H1880 C1864 0.931 . S
H1881 C1869 0.930 . S
H1882 C1870 0.956 . S
H1883 C1870 0.961 . S
H1884 C1870 0.961 . S
H1885 C1871 0.958 . S
H1886 C1871 0.961 . S
H1887 C1871 0.960 . S
C1888 C1889 1.391 . S
C1888 C1890 1.394 . S
C1888 H1904 0.931 . S
C1889 C1888 1.391 . S
C1889 C1893 1.376 . S
C1890 C1888 1.394 . S
C1890 C1891 1.369 . S
C1890 C1894 1.531 . S
C1891 C1890 1.369 . S
C1891 C1892 1.410 . S
C1891 C1899 1.503 . S
C1892 C1891 1.410 . S
C1892 C1893 1.392 . S
C1892 C1895 1.511 . S
C1893 C1889 1.376 . S
C1893 C1892 1.392 . S
C1893 H1905 0.929 . S
C1894 C1890 1.531 . S
C1894 H1906 0.960 . S
C1894 H1907 0.962 . S
C1894 H1908 0.960 . S
C1895 C1892 1.511 . S
C1895 H1909 0.961 . S
C1895 H1910 0.961 . S
C1895 H1911 0.961 . S
C1896 C1897 1.370 . S
C1896 C1898 1.363 . S
C1896 H1912 0.931 . S
C1897 C1896 1.370 . S
C1897 C1901 1.408 . S
C1898 C1896 1.363 . S
C1898 C1899 1.370 . S
C1898 C1902 1.524 . S
C1899 C1891 1.503 . S
C1899 C1898 1.370 . S
C1899 C1900 1.403 . S
C1900 C1899 1.403 . S
C1900 C1901 1.404 . S
C1900 C1903 1.539 . S
C1901 C1897 1.408 . S
C1901 C1900 1.404 . S
C1901 H1913 0.930 . S
C1902 C1898 1.524 . S
C1902 H1914 0.956 . S
C1902 H1915 0.961 . S
C1902 H1916 0.961 . S
C1903 C1900 1.539 . S
C1903 H1917 0.958 . S
C1903 H1918 0.961 . S
C1903 H1919 0.960 . S
H1904 C1888 0.931 . S
H1905 C1893 0.929 . S
H1906 C1894 0.960 . S
H1907 C1894 0.962 . S
H1908 C1894 0.960 . S
H1909 C1895 0.961 . S
H1910 C1895 0.961 . S
H1911 C1895 0.961 . S
H1912 C1896 0.931 . S
H1913 C1901 0.930 . S
H1914 C1902 0.956 . S
H1915 C1902 0.961 . S
H1916 C1902 0.961 . S
H1917 C1903 0.958 . S
H1918 C1903 0.961 . S
H1919 C1903 0.960 . S
C1920 C1921 1.391 . S
C1920 C1922 1.394 . S
C1920 H1936 0.931 . S
C1921 C1920 1.391 . S
C1921 C1925 1.376 . S
C1922 C1920 1.394 . S
C1922 C1923 1.369 . S
C1922 C1926 1.531 . S
C1923 C1922 1.369 . S
C1923 C1924 1.410 . S
C1923 C1931 1.503 . S
C1924 C1923 1.410 . S
C1924 C1925 1.392 . S
C1924 C1927 1.511 . S
C1925 C1921 1.376 . S
C1925 C1924 1.392 . S
C1925 H1937 0.929 . S
C1926 C1922 1.531 . S
C1926 H1938 0.960 . S
C1926 H1939 0.962 . S
C1926 H1940 0.960 . S
C1927 C1924 1.511 . S
C1927 H1941 0.961 . S
C1927 H1942 0.961 . S
C1927 H1943 0.961 . S
C1928 C1929 1.370 . S
C1928 C1930 1.363 . S
C1928 H1944 0.931 . S
C1929 C1928 1.370 . S
C1929 C1933 1.408 . S
C1930 C1928 1.363 . S
C1930 C1931 1.370 . S
C1930 C1934 1.524 . S
C1931 C1923 1.503 . S
C1931 C1930 1.370 . S
C1931 C1932 1.403 . S
C1932 C1931 1.403 . S
C1932 C1933 1.404 . S
C1932 C1935 1.539 . S
C1933 C1929 1.408 . S
C1933 C1932 1.404 . S
C1933 H1945 0.930 . S
C1934 C1930 1.524 . S
C1934 H1946 0.956 . S
C1934 H1947 0.961 . S
C1934 H1948 0.961 . S
C1935 C1932 1.539 . S
C1935 H1949 0.958 . S
C1935 H1950 0.961 . S
C1935 H1951 0.960 . S
H1936 C1920 0.931 . S
H1937 C1925 0.929 . S
H1938 C1926 0.960 . S
H1939 C1926 0.962 . S
H1940 C1926 0.960 . S
H1941 C1927 0.961 . S
H1942 C1927 0.961 . S
H1943 C1927 0.961 . S
H1944 C1928 0.931 . S
H1945 C1933 0.930 . S
H1946 C1934 0.956 . S
H1947 C1934 0.961 . S
H1948 C1934 0.961 . S
H1949 C1935 0.958 . S
H1950 C1935 0.961 . S
H1951 C1935 0.960 . S
C1952 C1953 1.391 . S
C1952 C1954 1.394 . S
C1952 H1968 0.931 . S
C1953 C1952 1.391 . S
C1953 C1957 1.376 . S
C1954 C1952 1.394 . S
C1954 C1955 1.369 . S
C1954 C1958 1.531 . S
C1955 C1954 1.369 . S
C1955 C1956 1.410 . S
C1955 C1963 1.503 . S
C1956 C1955 1.410 . S
C1956 C1957 1.392 . S
C1956 C1959 1.511 . S
C1957 C1953 1.376 . S
C1957 C1956 1.392 . S
C1957 H1969 0.929 . S
C1958 C1954 1.531 . S
C1958 H1970 0.960 . S
C1958 H1971 0.962 . S
C1958 H1972 0.960 . S
C1959 C1956 1.511 . S
C1959 H1973 0.961 . S
C1959 H1974 0.961 . S
C1959 H1975 0.961 . S
C1960 C1961 1.370 . S
C1960 C1962 1.363 . S
C1960 H1976 0.931 . S
C1961 C1960 1.370 . S
C1961 C1965 1.408 . S
C1962 C1960 1.363 . S
C1962 C1963 1.370 . S
C1962 C1966 1.524 . S
C1963 C1955 1.503 . S
C1963 C1962 1.370 . S
C1963 C1964 1.403 . S
C1964 C1963 1.403 . S
C1964 C1965 1.404 . S
C1964 C1967 1.539 . S
C1965 C1961 1.408 . S
C1965 C1964 1.404 . S
C1965 H1977 0.930 . S
C1966 C1962 1.524 . S
C1966 H1978 0.956 . S
C1966 H1979 0.961 . S
C1966 H1980 0.961 . S
C1967 C1964 1.539 . S
C1967 H1981 0.958 . S
C1967 H1982 0.961 . S
C1967 H1983 0.960 . S
H1968 C1952 0.931 . S
H1969 C1957 0.929 . S
H1970 C1958 0.960 . S
H1971 C1958 0.962 . S
H1972 C1958 0.960 . S
H1973 C1959 0.961 . S
H1974 C1959 0.961 . S
H1975 C1959 0.961 . S
H1976 C1960 0.931 . S
H1977 C1965 0.930 . S
H1978 C1966 0.956 . S
H1979 C1966 0.961 . S
H1980 C1966 0.961 . S
H1981 C1967 0.958 . S
H1982 C1967 0.961 . S
H1983 C1967 0.960 . S
C1984 C1985 1.391 . S
C1984 C1986 1.394 . S
C1984 H2000 0.931 . S
C1985 C1984 1.391 . S
C1985 C1989 1.376 . S
C1986 C1984 1.394 . S
C1986 C1987 1.369 . S
C1986 C1990 1.531 . S
C1987 C1986 1.369 . S
C1987 C1988 1.410 . S
C1987 C1995 1.503 . S
C1988 C1987 1.410 . S
C1988 C1989 1.392 . S
C1988 C1991 1.511 . S
C1989 C1985 1.376 . S
C1989 C1988 1.392 . S
C1989 H2001 0.929 . S
C1990 C1986 1.531 . S
C1990 H2002 0.960 . S
C1990 H2003 0.962 . S
C1990 H2004 0.960 . S
C1991 C1988 1.511 . S
C1991 H2005 0.961 . S
C1991 H2006 0.961 . S
C1991 H2007 0.961 . S
C1992 C1993 1.370 . S
C1992 C1994 1.363 . S
C1992 H2008 0.931 . S
C1993 C1992 1.370 . S
C1993 C1997 1.408 . S
C1994 C1992 1.363 . S
C1994 C1995 1.370 . S
C1994 C1998 1.524 . S
C1995 C1987 1.503 . S
C1995 C1994 1.370 . S
C1995 C1996 1.403 . S
C1996 C1995 1.403 . S
C1996 C1997 1.404 . S
C1996 C1999 1.539 . S
C1997 C1993 1.408 . S
C1997 C1996 1.404 . S
C1997 H2009 0.930 . S
C1998 C1994 1.524 . S
C1998 H2010 0.956 . S
C1998 H2011 0.961 . S
C1998 H2012 0.961 . S
C1999 C1996 1.539 . S
C1999 H2013 0.958 . S
C1999 H2014 0.961 . S
C1999 H2015 0.960 . S
H2000 C1984 0.931 . S
H2001 C1989 0.929 . S
H2002 C1990 0.960 . S
H2003 C1990 0.962 . S
H2004 C1990 0.960 . S
H2005 C1991 0.961 . S
H2006 C1991 0.961 . S
H2007 C1991 0.961 . S
H2008 C1992 0.931 . S
H2009 C1997 0.930 . S
H2010 C1998 0.956 . S
H2011 C1998 0.961 . S
H2012 C1998 0.961 . S
H2013 C1999 0.958 . S
H2014 C1999 0.961 . S
H2015 C1999 0.960 . S
C2016 C2017 1.391 . S
C2016 C2018 1.394 . S
C2016 H2032 0.931 . S
C2017 C2016 1.391 . S
C2017 C2021 1.376 . S
C2018 C2016 1.394 . S
C2018 C2019 1.369 . S
C2018 C2022 1.531 . S
C2019 C2018 1.369 . S
C2019 C2020 1.410 . S
C2019 C2027 1.503 . S
C2020 C2019 1.410 . S
C2020 C2021 1.392 . S
C2020 C2023 1.511 . S
C2021 C2017 1.376 . S
C2021 C2020 1.392 . S
C2021 H2033 0.929 . S
C2022 C2018 1.531 . S
C2022 H2034 0.960 . S
C2022 H2035 0.962 . S
C2022 H2036 0.960 . S
C2023 C2020 1.511 . S
C2023 H2037 0.961 . S
C2023 H2038 0.961 . S
C2023 H2039 0.961 . S
C2024 C2025 1.370 . S
C2024 C2026 1.363 . S
C2024 H2040 0.931 . S
C2025 C2024 1.370 . S
C2025 C2029 1.408 . S
C2026 C2024 1.363 . S
C2026 C2027 1.370 . S
C2026 C2030 1.524 . S
C2027 C2019 1.503 . S
C2027 C2026 1.370 . S
C2027 C2028 1.403 . S
C2028 C2027 1.403 . S
C2028 C2029 1.404 . S
C2028 C2031 1.539 . S
C2029 C2025 1.408 . S
C2029 C2028 1.404 . S
C2029 H2041 0.930 . S
C2030 C2026 1.524 . S
C2030 H2042 0.956 . S
C2030 H2043 0.961 . S
C2030 H2044 0.961 . S
C2031 C2028 1.539 . S
C2031 H2045 0.958 . S
C2031 H2046 0.961 . S
C2031 H2047 0.960 . S
H2032 C2016 0.931 . S
H2033 C2021 0.929 . S
H2034 C2022 0.960 . S
H2035 C2022 0.962 . S
H2036 C2022 0.960 . S
H2037 C2023 0.961 . S
H2038 C2023 0.961 . S
H2039 C2023 0.961 . S
H2040 C2024 0.931 . S
H2041 C2029 0.930 . S
H2042 C2030 0.956 . S
H2043 C2030 0.961 . S
H2044 C2030 0.961 . S
H2045 C2031 0.958 . S
H2046 C2031 0.961 . S
H2047 C2031 0.960 . S
C2048 C2049 1.391 . S
C2048 C2050 1.394 . S
C2048 H2064 0.931 . S
C2049 C2048 1.391 . S
C2049 C2053 1.376 . S
C2050 C2048 1.394 . S
C2050 C2051 1.369 . S
C2050 C2054 1.531 . S
C2051 C2050 1.369 . S
C2051 C2052 1.410 . S
C2051 C2059 1.503 . S
C2052 C2051 1.410 . S
C2052 C2053 1.392 . S
C2052 C2055 1.511 . S
C2053 C2049 1.376 . S
C2053 C2052 1.392 . S
C2053 H2065 0.929 . S
C2054 C2050 1.531 . S
C2054 H2066 0.960 . S
C2054 H2067 0.962 . S
C2054 H2068 0.960 . S
C2055 C2052 1.511 . S
C2055 H2069 0.961 . S
C2055 H2070 0.961 . S
C2055 H2071 0.961 . S
C2056 C2057 1.370 . S
C2056 C2058 1.363 . S
C2056 H2072 0.931 . S
C2057 C2056 1.370 . S
C2057 C2061 1.408 . S
C2058 C2056 1.363 . S
C2058 C2059 1.370 . S
C2058 C2062 1.524 . S
C2059 C2051 1.503 . S
C2059 C2058 1.370 . S
C2059 C2060 1.403 . S
C2060 C2059 1.403 . S
C2060 C2061 1.404 . S
C2060 C2063 1.539 . S
C2061 C2057 1.408 . S
C2061 C2060 1.404 . S
C2061 H2073 0.930 . S
C2062 C2058 1.524 . S
C2062 H2074 0.956 . S
C2062 H2075 0.961 . S
C2062 H2076 0.961 . S
C2063 C2060 1.539 . S
C2063 H2077 0.958 . S
C2063 H2078 0.961 . S
C2063 H2079 0.960 . S
H2064 C2048 0.931 . S
H2065 C2053 0.929 . S
H2066 C2054 0.960 . S
H2067 C2054 0.962 . S
H2068 C2054 0.960 . S
H2069 C2055 0.961 . S
H2070 C2055 0.961 . S
H2071 C2055 0.961 . S
H2072 C2056 0.931 . S
H2073 C2061 0.930 . S
H2074 C2062 0.956 . S
H2075 C2062 0.961 . S
H2076 C2062 0.961 . S
H2077 C2063 0.958 . S
H2078 C2063 0.961 . S
H2079 C2063 0.960 . S
C2080 C2081 1.391 . S
C2080 C2082 1.394 . S
C2080 H2096 0.931 . S
C2081 C2080 1.391 . S
C2081 C2085 1.376 . S
C2082 C2080 1.394 . S
C2082 C2083 1.369 . S
C2082 C2086 1.531 . S
C2083 C2082 1.369 . S
C2083 C2084 1.410 . S
C2083 C2091 1.503 . S
C2084 C2083 1.410 . S
C2084 C2085 1.392 . S
C2084 C2087 1.511 . S
C2085 C2081 1.376 . S
C2085 C2084 1.392 . S
C2085 H2097 0.929 . S
C2086 C2082 1.531 . S
C2086 H2098 0.960 . S
C2086 H2099 0.962 . S
C2086 H2100 0.960 . S
C2087 C2084 1.511 . S
C2087 H2101 0.961 . S
C2087 H2102 0.961 . S
C2087 H2103 0.961 . S
C2088 C2089 1.370 . S
C2088 C2090 1.363 . S
C2088 H2104 0.931 . S
C2089 C2088 1.370 . S
C2089 C2093 1.408 . S
C2090 C2088 1.363 . S
C2090 C2091 1.370 . S
C2090 C2094 1.524 . S
C2091 C2083 1.503 . S
C2091 C2090 1.370 . S
C2091 C2092 1.403 . S
C2092 C2091 1.403 . S
C2092 C2093 1.404 . S
C2092 C2095 1.539 . S
C2093 C2089 1.408 . S
C2093 C2092 1.404 . S
C2093 H2105 0.930 . S
C2094 C2090 1.524 . S
C2094 H2106 0.956 . S
C2094 H2107 0.961 . S
C2094 H2108 0.961 . S
C2095 C2092 1.539 . S
C2095 H2109 0.958 . S
C2095 H2110 0.961 . S
C2095 H2111 0.960 . S
H2096 C2080 0.931 . S
H2097 C2085 0.929 . S
H2098 C2086 0.960 . S
H2099 C2086 0.962 . S
H2100 C2086 0.960 . S
H2101 C2087 0.961 . S
H2102 C2087 0.961 . S
H2103 C2087 0.961 . S
H2104 C2088 0.931 . S
H2105 C2093 0.930 . S
H2106 C2094 0.956 . S
H2107 C2094 0.961 . S
H2108 C2094 0.961 . S
H2109 C2095 0.958 . S
H2110 C2095 0.961 . S
H2111 C2095 0.960 . S
C2112 C2113 1.391 . S
C2112 C2114 1.394 . S
C2112 H2128 0.931 . S
C2113 C2112 1.391 . S
C2113 C2117 1.376 . S
C2114 C2112 1.394 . S
C2114 C2115 1.369 . S
C2114 C2118 1.531 . S
C2115 C2114 1.369 . S
C2115 C2116 1.410 . S
C2115 C2123 1.503 1_455 S
C2116 C2115 1.410 . S
C2116 C2117 1.392 . S
C2116 C2119 1.511 1_455 S
C2117 C2113 1.376 . S
C2117 C2116 1.392 . S
C2117 H2129 0.929 . S
C2118 C2114 1.531 . S
C2118 H2130 0.960 . S
C2118 H2131 0.962 . S
C2118 H2132 0.960 . S
C2119 C2116 1.511 1_655 S
C2119 H2133 0.961 1_655 S
C2119 H2134 0.961 . S
C2119 H2135 0.961 . S
C2120 C2121 1.370 . S
C2120 C2122 1.363 . S
C2120 H2136 0.931 . S
C2121 C2120 1.370 . S
C2121 C2125 1.408 . S
C2122 C2120 1.363 . S
C2122 C2123 1.370 . S
C2122 C2126 1.524 . S
C2123 C2115 1.503 1_655 S
C2123 C2122 1.370 . S
C2123 C2124 1.403 . S
C2124 C2123 1.403 . S
C2124 C2125 1.404 . S
C2124 C2127 1.539 . S
C2125 C2121 1.408 . S
C2125 C2124 1.404 . S
C2125 H2137 0.930 . S
C2126 C2122 1.524 . S
C2126 H2138 0.956 1_655 S
C2126 H2139 0.961 1_655 S
C2126 H2140 0.961 . S
C2127 C2124 1.539 . S
C2127 H2141 0.958 . S
C2127 H2142 0.961 . S
C2127 H2143 0.960 . S
H2128 C2112 0.931 . S
H2129 C2117 0.929 . S
H2130 C2118 0.960 . S
H2131 C2118 0.962 . S
H2132 C2118 0.960 . S
H2133 C2119 0.961 1_455 S
H2134 C2119 0.961 . S
H2135 C2119 0.961 . S
H2136 C2120 0.931 . S
H2137 C2125 0.930 . S
H2138 C2126 0.956 1_455 S
H2139 C2126 0.961 1_455 S
H2140 C2126 0.961 . S
H2141 C2127 0.958 . S
H2142 C2127 0.961 . S
H2143 C2127 0.960 . S
C2144 C2145 1.391 . S
C2144 C2146 1.394 . S
C2144 H2160 0.931 . S
C2145 C2144 1.391 . S
C2145 C2149 1.376 . S
C2146 C2144 1.394 . S
C2146 C2147 1.370 . S
C2146 C2150 1.531 . S
C2147 C2146 1.370 . S
C2147 C2148 1.409 1_655 S
C2147 C2155 1.502 1_655 S
C2148 C2147 1.409 1_455 S
C2148 C2149 1.392 1_455 S
C2148 C2151 1.511 . S
C2149 C2145 1.376 . S
C2149 C2148 1.392 1_655 S
C2149 H2161 0.929 . S
C2150 C2146 1.531 . S
C2150 H2162 0.972 . S
C2150 H2163 0.962 . S
C2150 H2164 0.960 . S
C2151 C2148 1.511 . S
C2151 H2165 0.961 . S
C2151 H2166 0.961 . S
C2151 H2167 0.961 . S
C2152 C2153 1.370 . S
C2152 C2154 1.363 1_455 S
C2152 H2168 0.931 1_455 S
C2153 C2152 1.370 . S
C2153 C2157 1.408 . S
C2154 C2152 1.363 1_655 S
C2154 C2155 1.370 1_655 S
C2154 C2158 1.524 . S
C2155 C2147 1.502 1_455 S
C2155 C2154 1.370 1_455 S
C2155 C2156 1.403 . S
C2156 C2155 1.403 . S
C2156 C2157 1.404 . S
C2156 C2159 1.539 . S
C2157 C2153 1.408 . S
C2157 C2156 1.404 . S
C2157 H2169 0.930 . S
C2158 C2154 1.524 . S
C2158 H2170 0.956 . S
C2158 H2171 0.961 . S
C2158 H2172 0.961 . S
C2159 C2156 1.539 . S
C2159 H2173 0.958 . S
C2159 H2174 0.961 . S
C2159 H2175 0.960 . S
H2160 C2144 0.931 . S
H2161 C2149 0.929 . S
H2162 C2150 0.972 . S
H2163 C2150 0.962 . S
H2164 C2150 0.960 . S
H2165 C2151 0.961 . S
H2166 C2151 0.961 . S
H2167 C2151 0.961 . S
H2168 C2152 0.931 1_655 S
H2169 C2157 0.930 . S
H2170 C2158 0.956 . S
H2171 C2158 0.961 . S
H2172 C2158 0.961 . S
H2173 C2159 0.958 . S
H2174 C2159 0.961 . S
H2175 C2159 0.960 . S
C2176 C2177 1.391 . S
C2176 C2178 1.394 . S
C2176 H2192 0.931 . S
C2177 C2176 1.391 . S
C2177 C2181 1.376 . S
C2178 C2176 1.394 . S
C2178 C2179 1.369 . S
C2178 C2182 1.531 . S
C2179 C2178 1.369 . S
C2179 C2180 1.410 . S
C2179 C2187 1.503 . S
C2180 C2179 1.410 . S
C2180 C2181 1.392 . S
C2180 C2183 1.511 . S
C2181 C2177 1.376 . S
C2181 C2180 1.392 . S
C2181 H2193 0.929 . S
C2182 C2178 1.531 . S
C2182 H2194 0.960 . S
C2182 H2195 0.962 . S
C2182 H2196 0.960 . S
C2183 C2180 1.511 . S
C2183 H2197 0.961 . S
C2183 H2198 0.961 . S
C2183 H2199 0.961 . S
C2184 C2185 1.370 . S
C2184 C2186 1.363 . S
C2184 H2200 0.931 . S
C2185 C2184 1.370 . S
C2185 C2189 1.408 . S
C2186 C2184 1.363 . S
C2186 C2187 1.370 . S
C2186 C2190 1.524 . S
C2187 C2179 1.503 . S
C2187 C2186 1.370 . S
C2187 C2188 1.403 . S
C2188 C2187 1.403 . S
C2188 C2189 1.404 . S
C2188 C2191 1.539 . S
C2189 C2185 1.408 . S
C2189 C2188 1.404 . S
C2189 H2201 0.930 . S
C2190 C2186 1.524 . S
C2190 H2202 0.956 . S
C2190 H2203 0.961 . S
C2190 H2204 0.961 . S
C2191 C2188 1.539 . S
C2191 H2205 0.958 . S
C2191 H2206 0.961 . S
C2191 H2207 0.960 . S
H2192 C2176 0.931 . S
H2193 C2181 0.929 . S
H2194 C2182 0.960 . S
H2195 C2182 0.962 . S
H2196 C2182 0.960 . S
H2197 C2183 0.961 . S
H2198 C2183 0.961 . S
H2199 C2183 0.961 . S
H2200 C2184 0.931 . S
H2201 C2189 0.930 . S
H2202 C2190 0.956 . S
H2203 C2190 0.961 . S
H2204 C2190 0.961 . S
H2205 C2191 0.958 . S
H2206 C2191 0.961 . S
H2207 C2191 0.960 . S
C2208 C2209 1.391 . S
C2208 C2210 1.394 . S
C2208 H2224 0.931 . S
C2209 C2208 1.391 . S
C2209 C2213 1.376 . S
C2210 C2208 1.394 . S
C2210 C2211 1.369 . S
C2210 C2214 1.531 . S
C2211 C2210 1.369 . S
C2211 C2212 1.410 . S
C2211 C2219 1.503 . S
C2212 C2211 1.410 . S
C2212 C2213 1.392 . S
C2212 C2215 1.511 . S
C2213 C2209 1.376 . S
C2213 C2212 1.392 . S
C2213 H2225 0.929 . S
C2214 C2210 1.531 . S
C2214 H2226 0.960 . S
C2214 H2227 0.962 . S
C2214 H2228 0.960 . S
C2215 C2212 1.511 . S
C2215 H2229 0.961 . S
C2215 H2230 0.961 . S
C2215 H2231 0.961 . S
C2216 C2217 1.370 . S
C2216 C2218 1.363 . S
C2216 H2232 0.931 . S
C2217 C2216 1.370 . S
C2217 C2221 1.408 . S
C2218 C2216 1.363 . S
C2218 C2219 1.370 . S
C2218 C2222 1.524 . S
C2219 C2211 1.503 . S
C2219 C2218 1.370 . S
C2219 C2220 1.403 . S
C2220 C2219 1.403 . S
C2220 C2221 1.404 . S
C2220 C2223 1.539 . S
C2221 C2217 1.408 . S
C2221 C2220 1.404 . S
C2221 H2233 0.930 . S
C2222 C2218 1.524 . S
C2222 H2234 0.956 . S
C2222 H2235 0.961 . S
C2222 H2236 0.961 . S
C2223 C2220 1.539 . S
C2223 H2237 0.958 . S
C2223 H2238 0.961 . S
C2223 H2239 0.960 . S
H2224 C2208 0.931 . S
H2225 C2213 0.929 . S
H2226 C2214 0.960 . S
H2227 C2214 0.962 . S
H2228 C2214 0.960 . S
H2229 C2215 0.961 . S
H2230 C2215 0.961 . S
H2231 C2215 0.961 . S
H2232 C2216 0.931 . S
H2233 C2221 0.930 . S
H2234 C2222 0.956 . S
H2235 C2222 0.961 . S
H2236 C2222 0.961 . S
H2237 C2223 0.958 . S
H2238 C2223 0.961 . S
H2239 C2223 0.960 . S
C2240 C2241 1.391 . S
C2240 C2242 1.394 . S
C2240 H2256 0.931 . S
C2241 C2240 1.391 . S
C2241 C2245 1.376 . S
C2242 C2240 1.394 . S
C2242 C2243 1.369 . S
C2242 C2246 1.531 . S
C2243 C2242 1.369 . S
C2243 C2244 1.410 . S
C2243 C2251 1.503 . S
C2244 C2243 1.410 . S
C2244 C2245 1.392 . S
C2244 C2247 1.511 . S
C2245 C2241 1.376 . S
C2245 C2244 1.392 . S
C2245 H2257 0.929 . S
C2246 C2242 1.531 . S
C2246 H2258 0.960 . S
C2246 H2259 0.962 . S
C2246 H2260 0.960 . S
C2247 C2244 1.511 . S
C2247 H2261 0.961 . S
C2247 H2262 0.961 . S
C2247 H2263 0.961 . S
C2248 C2249 1.370 . S
C2248 C2250 1.363 . S
C2248 H2264 0.931 . S
C2249 C2248 1.370 . S
C2249 C2253 1.408 . S
C2250 C2248 1.363 . S
C2250 C2251 1.370 . S
C2250 C2254 1.524 . S
C2251 C2243 1.503 . S
C2251 C2250 1.370 . S
C2251 C2252 1.403 . S
C2252 C2251 1.403 . S
C2252 C2253 1.404 . S
C2252 C2255 1.539 . S
C2253 C2249 1.408 . S
C2253 C2252 1.404 . S
C2253 H2265 0.930 . S
C2254 C2250 1.524 . S
C2254 H2266 0.956 . S
C2254 H2267 0.961 . S
C2254 H2268 0.961 . S
C2255 C2252 1.539 . S
C2255 H2269 0.958 . S
C2255 H2270 0.961 . S
C2255 H2271 0.960 . S
H2256 C2240 0.931 . S
H2257 C2245 0.929 . S
H2258 C2246 0.960 . S
H2259 C2246 0.962 . S
H2260 C2246 0.960 . S
H2261 C2247 0.961 . S
H2262 C2247 0.961 . S
H2263 C2247 0.961 . S
H2264 C2248 0.931 . S
H2265 C2253 0.930 . S
H2266 C2254 0.956 . S
H2267 C2254 0.961 . S
H2268 C2254 0.961 . S
H2269 C2255 0.958 . S
H2270 C2255 0.961 . S
H2271 C2255 0.960 . S
C2272 C2273 1.391 1_655 S
C2272 C2274 1.394 . S
C2272 H2288 0.931 . S
C2273 C2272 1.391 1_455 S
C2273 C2277 1.376 . S
C2274 C2272 1.394 . S
C2274 C2275 1.369 1_655 S
C2274 C2278 1.531 . S
C2275 C2274 1.369 1_455 S
C2275 C2276 1.410 . S
C2275 C2283 1.503 1_455 S
C2276 C2275 1.410 . S
C2276 C2277 1.392 . S
C2276 C2279 1.511 . S
C2277 C2273 1.376 . S
C2277 C2276 1.392 . S
C2277 H2289 0.929 . S
C2278 C2274 1.531 . S
C2278 H2290 0.960 . S
C2278 H2291 0.962 . S
C2278 H2292 0.960 . S
C2279 C2276 1.511 . S
C2279 H2293 0.961 . S
C2279 H2294 0.961 . S
C2279 H2295 0.961 . S
C2280 C2281 1.370 . S
C2280 C2282 1.363 . S
C2280 H2296 0.931 . S
C2281 C2280 1.370 . S
C2281 C2285 1.408 . S
C2282 C2280 1.363 . S
C2282 C2283 1.370 . S
C2282 C2286 1.524 1_655 S
C2283 C2275 1.503 1_655 S
C2283 C2282 1.370 . S
C2283 C2284 1.403 . S
C2284 C2283 1.403 . S
C2284 C2285 1.404 . S
C2284 C2287 1.539 . S
C2285 C2281 1.408 . S
C2285 C2284 1.404 . S
C2285 H2297 0.930 . S
C2286 C2282 1.524 1_455 S
C2286 H2298 0.956 1_455 S
C2286 H2299 0.961 . S
C2286 H2300 0.961 . S
C2287 C2284 1.539 . S
C2287 H2301 0.958 . S
C2287 H2302 0.961 . S
C2287 H2303 0.960 1_655 S
H2288 C2272 0.931 . S
H2289 C2277 0.929 . S
H2290 C2278 0.960 . S
H2291 C2278 0.962 . S
H2292 C2278 0.960 . S
H2293 C2279 0.961 . S
H2294 C2279 0.961 . S
H2295 C2279 0.961 . S
H2296 C2280 0.931 . S
H2297 C2285 0.930 . S
H2298 C2286 0.956 1_655 S
H2299 C2286 0.961 . S
H2300 C2286 0.961 . S
H2301 C2287 0.958 . S
H2302 C2287 0.961 . S
H2303 C2287 0.960 1_455 S
C2304 C2305 1.391 . S
C2304 C2306 1.394 . S
C2304 H2320 0.931 . S
C2305 C2304 1.391 . S
C2305 C2309 1.376 . S
C2306 C2304 1.394 . S
C2306 C2307 1.369 . S
C2306 C2310 1.531 . S
C2307 C2306 1.369 . S
C2307 C2308 1.410 . S
C2307 C2315 1.503 1_655 S
C2308 C2307 1.410 . S
C2308 C2309 1.392 . S
C2308 C2311 1.511 . S
C2309 C2305 1.376 . S
C2309 C2308 1.392 . S
C2309 H2321 0.929 . S
C2310 C2306 1.531 . S
C2310 H2322 0.960 . S
C2310 H2323 0.962 . S
C2310 H2324 0.960 . S
C2311 C2308 1.511 . S
C2311 H2325 0.961 . S
C2311 H2326 0.961 1_655 S
C2311 H2327 0.961 . S
C2312 C2313 1.370 . S
C2312 C2314 1.363 . S
C2312 H2328 0.931 . S
C2313 C2312 1.370 . S
C2313 C2317 1.408 . S
C2314 C2312 1.363 . S
C2314 C2315 1.370 . S
C2314 C2318 1.524 . S
C2315 C2307 1.503 1_455 S
C2315 C2314 1.370 . S
C2315 C2316 1.403 . S
C2316 C2315 1.403 . S
C2316 C2317 1.404 . S
C2316 C2319 1.539 . S
C2317 C2313 1.408 . S
C2317 C2316 1.404 . S
C2317 H2329 0.930 . S
C2318 C2314 1.524 . S
C2318 H2330 0.956 . S
C2318 H2331 0.961 . S
C2318 H2332 0.961 . S
C2319 C2316 1.539 . S
C2319 H2333 0.958 1_455 S
C2319 H2334 0.961 . S
C2319 H2335 0.960 1_455 S
H2320 C2304 0.931 . S
H2321 C2309 0.929 . S
H2322 C2310 0.960 . S
H2323 C2310 0.962 . S
H2324 C2310 0.960 . S
H2325 C2311 0.961 . S
H2326 C2311 0.961 1_455 S
H2327 C2311 0.961 . S
H2328 C2312 0.931 . S
H2329 C2317 0.930 . S
H2330 C2318 0.956 . S
H2331 C2318 0.961 . S
H2332 C2318 0.961 . S
H2333 C2319 0.958 1_655 S
H2334 C2319 0.961 . S
H2335 C2319 0.960 1_655 S
C2336 C2337 1.391 . S
C2336 C2338 1.394 . S
C2336 H2352 0.931 . S
C2337 C2336 1.391 . S
C2337 C2341 1.376 . S
C2338 C2336 1.394 . S
C2338 C2339 1.369 . S
C2338 C2342 1.531 . S
C2339 C2338 1.369 . S
C2339 C2340 1.410 . S
C2339 C2347 1.503 . S
C2340 C2339 1.410 . S
C2340 C2341 1.392 . S
C2340 C2343 1.511 . S
C2341 C2337 1.376 . S
C2341 C2340 1.392 . S
C2341 H2353 0.929 . S
C2342 C2338 1.531 . S
C2342 H2354 0.960 . S
C2342 H2355 0.962 . S
C2342 H2356 0.960 . S
C2343 C2340 1.511 . S
C2343 H2357 0.961 . S
C2343 H2358 0.961 . S
C2343 H2359 0.961 . S
C2344 C2345 1.370 . S
C2344 C2346 1.363 . S
C2344 H2360 0.931 . S
C2345 C2344 1.370 . S
C2345 C2349 1.408 . S
C2346 C2344 1.363 . S
C2346 C2347 1.370 . S
C2346 C2350 1.524 . S
C2347 C2339 1.503 . S
C2347 C2346 1.370 . S
C2347 C2348 1.403 . S
C2348 C2347 1.403 . S
C2348 C2349 1.404 . S
C2348 C2351 1.539 . S
C2349 C2345 1.408 . S
C2349 C2348 1.404 . S
C2349 H2361 0.930 . S
C2350 C2346 1.524 . S
C2350 H2362 0.956 . S
C2350 H2363 0.961 . S
C2350 H2364 0.961 . S
C2351 C2348 1.539 . S
C2351 H2365 0.958 . S
C2351 H2366 0.961 . S
C2351 H2367 0.960 . S
H2352 C2336 0.931 . S
H2353 C2341 0.929 . S
H2354 C2342 0.960 . S
H2355 C2342 0.962 . S
H2356 C2342 0.960 . S
H2357 C2343 0.961 . S
H2358 C2343 0.961 . S
H2359 C2343 0.961 . S
H2360 C2344 0.931 . S
H2361 C2349 0.930 . S
H2362 C2350 0.956 . S
H2363 C2350 0.961 . S
H2364 C2350 0.961 . S
H2365 C2351 0.958 . S
H2366 C2351 0.961 . S
H2367 C2351 0.960 . S
C2368 C2369 1.391 . S
C2368 C2370 1.394 . S
C2368 H2384 0.931 . S
C2369 C2368 1.391 . S
C2369 C2373 1.376 . S
C2370 C2368 1.394 . S
C2370 C2371 1.369 . S
C2370 C2374 1.531 . S
C2371 C2370 1.369 . S
C2371 C2372 1.410 . S
C2371 C2379 1.503 1_655 S
C2372 C2371 1.410 . S
C2372 C2373 1.392 . S
C2372 C2375 1.511 . S
C2373 C2369 1.376 . S
C2373 C2372 1.392 . S
C2373 H2385 0.929 . S
C2374 C2370 1.531 . S
C2374 H2386 0.960 1_655 S
C2374 H2387 0.962 1_655 S
C2374 H2388 0.960 . S
C2375 C2372 1.511 . S
C2375 H2389 0.961 . S
C2375 H2390 0.961 . S
C2375 H2391 0.961 . S
C2376 C2377 1.370 . S
C2376 C2378 1.363 . S
C2376 H2392 0.931 . S
C2377 C2376 1.370 . S
C2377 C2381 1.408 . S
C2378 C2376 1.363 . S
C2378 C2379 1.370 . S
C2378 C2382 1.524 . S
C2379 C2371 1.503 1_455 S
C2379 C2378 1.370 . S
C2379 C2380 1.403 . S
C2380 C2379 1.403 . S
C2380 C2381 1.404 . S
C2380 C2383 1.539 1_455 S
C2381 C2377 1.408 . S
C2381 C2380 1.404 . S
C2381 H2393 0.930 . S
C2382 C2378 1.524 . S
C2382 H2394 0.956 . S
C2382 H2395 0.961 . S
C2382 H2396 0.961 . S
C2383 C2380 1.539 1_655 S
C2383 H2397 0.958 . S
C2383 H2398 0.961 1_655 S
C2383 H2399 0.960 . S
H2384 C2368 0.931 . S
H2385 C2373 0.929 . S
H2386 C2374 0.960 1_455 S
H2387 C2374 0.962 1_455 S
H2388 C2374 0.960 . S
H2389 C2375 0.961 . S
H2390 C2375 0.961 . S
H2391 C2375 0.961 . S
H2392 C2376 0.931 . S
H2393 C2381 0.930 . S
H2394 C2382 0.956 . S
H2395 C2382 0.961 . S
H2396 C2382 0.961 . S
H2397 C2383 0.958 . S
H2398 C2383 0.961 1_455 S
H2399 C2383 0.960 . S
C2400 C2401 1.391 . S
C2400 C2402 1.394 . S
C2400 H2416 0.931 . S
C2401 C2400 1.391 . S
C2401 C2405 1.376 . S
C2402 C2400 1.394 . S
C2402 C2403 1.369 . S
C2402 C2406 1.531 1_455 S
C2403 C2402 1.369 . S
C2403 C2404 1.410 . S
C2403 C2411 1.503 1_455 S
C2404 C2403 1.410 . S
C2404 C2405 1.392 . S
C2404 C2407 1.511 . S
C2405 C2401 1.376 . S
C2405 C2404 1.392 . S
C2405 H2417 0.929 . S
C2406 C2402 1.531 1_655 S
C2406 H2418 0.960 . S
C2406 H2419 0.962 . S
C2406 H2420 0.960 . S
C2407 C2404 1.511 . S
C2407 H2421 0.961 . S
C2407 H2422 0.961 . S
C2407 H2423 0.961 . S
C2408 C2409 1.370 . S
C2408 C2410 1.363 . S
C2408 H2424 0.931 . S
C2409 C2408 1.370 . S
C2409 C2413 1.408 1_655 S
C2410 C2408 1.363 . S
C2410 C2411 1.370 . S
C2410 C2414 1.524 . S
C2411 C2403 1.503 1_655 S
C2411 C2410 1.370 . S
C2411 C2412 1.403 1_655 S
C2412 C2411 1.403 1_455 S
C2412 C2413 1.404 . S
C2412 C2415 1.539 . S
C2413 C2409 1.408 1_455 S
C2413 C2412 1.404 . S
C2413 H2425 0.930 . S
C2414 C2410 1.524 . S
C2414 H2426 0.956 . S
C2414 H2427 0.961 . S
C2414 H2428 0.961 . S
C2415 C2412 1.539 . S
C2415 H2429 0.958 . S
C2415 H2430 0.961 . S
C2415 H2431 0.960 . S
H2416 C2400 0.931 . S
H2417 C2405 0.929 . S
H2418 C2406 0.960 . S
H2419 C2406 0.962 . S
H2420 C2406 0.960 . S
H2421 C2407 0.961 . S
H2422 C2407 0.961 . S
H2423 C2407 0.961 . S
H2424 C2408 0.931 . S
H2425 C2413 0.930 . S
H2426 C2414 0.956 . S
H2427 C2414 0.961 . S
H2428 C2414 0.961 . S
H2429 C2415 0.958 . S
H2430 C2415 0.961 . S
H2431 C2415 0.960 . S
C2432 C2433 1.391 . S
C2432 C2434 1.394 . S
C2432 H2448 0.931 . S
C2433 C2432 1.391 . S
C2433 C2437 1.376 . S
C2434 C2432 1.394 . S
C2434 C2435 1.369 . S
C2434 C2438 1.531 . S
C2435 C2434 1.369 . S
C2435 C2436 1.410 . S
C2435 C2443 1.503 . S
C2436 C2435 1.410 . S
C2436 C2437 1.392 . S
C2436 C2439 1.511 . S
C2437 C2433 1.376 . S
C2437 C2436 1.392 . S
C2437 H2449 0.929 . S
C2438 C2434 1.531 . S
C2438 H2450 0.960 . S
C2438 H2451 0.962 . S
C2438 H2452 0.960 . S
C2439 C2436 1.511 . S
C2439 H2453 0.961 . S
C2439 H2454 0.961 . S
C2439 H2455 0.961 . S
C2440 C2441 1.370 . S
C2440 C2442 1.363 . S
C2440 H2456 0.931 . S
C2441 C2440 1.370 . S
C2441 C2445 1.408 . S
C2442 C2440 1.363 . S
C2442 C2443 1.370 . S
C2442 C2446 1.524 . S
C2443 C2435 1.503 . S
C2443 C2442 1.370 . S
C2443 C2444 1.403 . S
C2444 C2443 1.403 . S
C2444 C2445 1.404 . S
C2444 C2447 1.539 . S
C2445 C2441 1.408 . S
C2445 C2444 1.404 . S
C2445 H2457 0.930 . S
C2446 C2442 1.524 . S
C2446 H2458 0.956 . S
C2446 H2459 0.961 . S
C2446 H2460 0.961 . S
C2447 C2444 1.539 . S
C2447 H2461 0.958 . S
C2447 H2462 0.961 . S
C2447 H2463 0.960 . S
H2448 C2432 0.931 . S
H2449 C2437 0.929 . S
H2450 C2438 0.960 . S
H2451 C2438 0.962 . S
H2452 C2438 0.960 . S
H2453 C2439 0.961 . S
H2454 C2439 0.961 . S
H2455 C2439 0.961 . S
H2456 C2440 0.931 . S
H2457 C2445 0.930 . S
H2458 C2446 0.956 . S
H2459 C2446 0.961 . S
H2460 C2446 0.961 . S
H2461 C2447 0.958 . S
H2462 C2447 0.961 . S
H2463 C2447 0.960 . S
C2464 C2465 1.391 . S
C2464 C2466 1.394 . S
C2464 H2480 0.931 . S
C2465 C2464 1.391 . S
C2465 C2469 1.376 . S
C2466 C2464 1.394 . S
C2466 C2467 1.369 . S
C2466 C2470 1.531 . S
C2467 C2466 1.369 . S
C2467 C2468 1.410 . S
C2467 C2475 1.503 . S
C2468 C2467 1.410 . S
C2468 C2469 1.392 . S
C2468 C2471 1.511 . S
C2469 C2465 1.376 . S
C2469 C2468 1.392 . S
C2469 H2481 0.929 . S
C2470 C2466 1.531 . S
C2470 H2482 0.960 . S
C2470 H2483 0.962 . S
C2470 H2484 0.960 . S
C2471 C2468 1.511 . S
C2471 H2485 0.961 . S
C2471 H2486 0.961 . S
C2471 H2487 0.961 . S
C2472 C2473 1.370 . S
C2472 C2474 1.363 . S
C2472 H2488 0.931 . S
C2473 C2472 1.370 . S
C2473 C2477 1.408 . S
C2474 C2472 1.363 . S
C2474 C2475 1.370 . S
C2474 C2478 1.524 . S
C2475 C2467 1.503 . S
C2475 C2474 1.370 . S
C2475 C2476 1.403 . S
C2476 C2475 1.403 . S
C2476 C2477 1.404 . S
C2476 C2479 1.539 . S
C2477 C2473 1.408 . S
C2477 C2476 1.404 . S
C2477 H2489 0.930 . S
C2478 C2474 1.524 . S
C2478 H2490 0.956 . S
C2478 H2491 0.961 . S
C2478 H2492 0.961 . S
C2479 C2476 1.539 . S
C2479 H2493 0.958 . S
C2479 H2494 0.961 . S
C2479 H2495 0.960 . S
H2480 C2464 0.931 . S
H2481 C2469 0.929 . S
H2482 C2470 0.960 . S
H2483 C2470 0.962 . S
H2484 C2470 0.960 . S
H2485 C2471 0.961 . S
H2486 C2471 0.961 . S
H2487 C2471 0.961 . S
H2488 C2472 0.931 . S
H2489 C2477 0.930 . S
H2490 C2478 0.956 . S
H2491 C2478 0.961 . S
H2492 C2478 0.961 . S
H2493 C2479 0.958 . S
H2494 C2479 0.961 . S
H2495 C2479 0.960 . S
C2496 C2497 1.391 . S
C2496 C2498 1.394 . S
C2496 H2512 0.931 . S
C2497 C2496 1.391 . S
C2497 C2501 1.376 . S
C2498 C2496 1.394 . S
C2498 C2499 1.369 . S
C2498 C2502 1.531 . S
C2499 C2498 1.369 . S
C2499 C2500 1.410 . S
C2499 C2507 1.503 . S
C2500 C2499 1.410 . S
C2500 C2501 1.392 . S
C2500 C2503 1.511 . S
C2501 C2497 1.376 . S
C2501 C2500 1.392 . S
C2501 H2513 0.929 . S
C2502 C2498 1.531 . S
C2502 H2514 0.960 . S
C2502 H2515 0.962 . S
C2502 H2516 0.960 . S
C2503 C2500 1.511 . S
C2503 H2517 0.961 . S
C2503 H2518 0.961 . S
C2503 H2519 0.961 . S
C2504 C2505 1.370 . S
C2504 C2506 1.363 . S
C2504 H2520 0.931 . S
C2505 C2504 1.370 . S
C2505 C2509 1.408 . S
C2506 C2504 1.363 . S
C2506 C2507 1.370 . S
C2506 C2510 1.524 . S
C2507 C2499 1.503 . S
C2507 C2506 1.370 . S
C2507 C2508 1.403 . S
C2508 C2507 1.403 . S
C2508 C2509 1.404 . S
C2508 C2511 1.539 . S
C2509 C2505 1.408 . S
C2509 C2508 1.404 . S
C2509 H2521 0.930 . S
C2510 C2506 1.524 . S
C2510 H2522 0.956 . S
C2510 H2523 0.961 . S
C2510 H2524 0.961 . S
C2511 C2508 1.539 . S
C2511 H2525 0.958 . S
C2511 H2526 0.961 . S
C2511 H2527 0.960 . S
H2512 C2496 0.931 . S
H2513 C2501 0.929 . S
H2514 C2502 0.960 . S
H2515 C2502 0.962 . S
H2516 C2502 0.960 . S
H2517 C2503 0.961 . S
H2518 C2503 0.961 . S
H2519 C2503 0.961 . S
H2520 C2504 0.931 . S
H2521 C2509 0.930 . S
H2522 C2510 0.956 . S
H2523 C2510 0.961 . S
H2524 C2510 0.961 . S
H2525 C2511 0.958 . S
H2526 C2511 0.961 . S
H2527 C2511 0.960 . S
C2528 C2529 1.391 . S
C2528 C2530 1.394 . S
C2528 H2544 0.931 . S
C2529 C2528 1.391 . S
C2529 C2533 1.376 . S
C2530 C2528 1.394 . S
C2530 C2531 1.375 . S
C2530 C2534 1.531 . S
C2531 C2530 1.375 . S
C2531 C2532 1.408 1_455 S
C2531 C2539 1.499 1_455 S
C2532 C2531 1.408 1_655 S
C2532 C2533 1.392 1_655 S
C2532 C2535 1.511 . S
C2533 C2529 1.376 . S
C2533 C2532 1.392 1_455 S
C2533 H2545 0.929 . S
C2534 C2530 1.531 . S
C2534 H2546 0.960 . S
C2534 H2547 0.962 . S
C2534 H2548 0.960 . S
C2535 C2532 1.511 . S
C2535 H2549 0.961 . S
C2535 H2550 0.961 . S
C2535 H2551 0.961 . S
C2536 C2537 1.370 . S
C2536 C2538 1.363 1_655 S
C2536 H2552 0.931 1_655 S
C2537 C2536 1.370 . S
C2537 C2541 1.408 . S
C2538 C2536 1.363 1_455 S
C2538 C2539 1.370 1_455 S
C2538 C2542 1.524 . S
C2539 C2531 1.499 1_655 S
C2539 C2538 1.370 1_655 S
C2539 C2540 1.403 . S
C2540 C2539 1.403 . S
C2540 C2541 1.404 . S
C2540 C2543 1.539 . S
C2541 C2537 1.408 . S
C2541 C2540 1.404 . S
C2541 H2553 0.930 . S
C2542 C2538 1.524 . S
C2542 H2554 0.956 . S
C2542 H2555 0.961 . S
C2542 H2556 0.961 . S
C2543 C2540 1.539 . S
C2543 H2557 0.958 . S
C2543 H2558 0.961 . S
C2543 H2559 0.960 . S
H2544 C2528 0.931 . S
H2545 C2533 0.929 . S
H2546 C2534 0.960 . S
H2547 C2534 0.962 . S
H2548 C2534 0.960 . S
H2549 C2535 0.961 . S
H2550 C2535 0.961 . S
H2551 C2535 0.961 . S
H2552 C2536 0.931 1_455 S
H2553 C2541 0.930 . S
H2554 C2542 0.956 . S
H2555 C2542 0.961 . S
H2556 C2542 0.961 . S
H2557 C2543 0.958 . S
H2558 C2543 0.961 . S
H2559 C2543 0.960 . S
C2560 C2561 1.391 . S
C2560 C2562 1.394 . S
C2560 H2576 0.931 . S
C2561 C2560 1.391 . S
C2561 C2565 1.376 . S
C2562 C2560 1.394 . S
C2562 C2563 1.369 . S
C2562 C2566 1.531 1_455 S
C2563 C2562 1.369 . S
C2563 C2564 1.410 . S
C2563 C2571 1.503 1_455 S
C2564 C2563 1.410 . S
C2564 C2565 1.392 . S
C2564 C2567 1.511 . S
C2565 C2561 1.376 . S
C2565 C2564 1.392 . S
C2565 H2577 0.929 . S
C2566 C2562 1.531 1_655 S
C2566 H2578 0.960 . S
C2566 H2579 0.962 . S
C2566 H2580 0.960 1_655 S
C2567 C2564 1.511 . S
C2567 H2581 0.961 . S
C2567 H2582 0.961 . S
C2567 H2583 0.961 . S
C2568 C2569 1.370 . S
C2568 C2570 1.363 . S
C2568 H2584 0.931 . S
C2569 C2568 1.370 . S
C2569 C2573 1.408 . S
C2570 C2568 1.363 . S
C2570 C2571 1.370 . S
C2570 C2574 1.524 1_655 S
C2571 C2563 1.503 1_655 S
C2571 C2570 1.370 . S
C2571 C2572 1.403 . S
C2572 C2571 1.403 . S
C2572 C2573 1.404 . S
C2572 C2575 1.539 . S
C2573 C2569 1.408 . S
C2573 C2572 1.404 . S
C2573 H2585 0.930 . S
C2574 C2570 1.524 1_455 S
C2574 H2586 0.956 . S
C2574 H2587 0.961 . S
C2574 H2588 0.961 1_455 S
C2575 C2572 1.539 . S
C2575 H2589 0.958 . S
C2575 H2590 0.961 . S
C2575 H2591 0.960 . S
H2576 C2560 0.931 . S
H2577 C2565 0.929 . S
H2578 C2566 0.960 . S
H2579 C2566 0.962 . S
H2580 C2566 0.960 1_455 S
H2581 C2567 0.961 . S
H2582 C2567 0.961 . S
H2583 C2567 0.961 . S
H2584 C2568 0.931 . S
H2585 C2573 0.930 . S
H2586 C2574 0.956 . S
H2587 C2574 0.961 . S
H2588 C2574 0.961 1_655 S
H2589 C2575 0.958 . S
H2590 C2575 0.961 . S
H2591 C2575 0.960 . S
C2592 C2593 1.391 . S
C2592 C2594 1.394 . S
C2592 H2608 0.931 . S
C2593 C2592 1.391 . S
C2593 C2597 1.376 . S
C2594 C2592 1.394 . S
C2594 C2595 1.369 . S
C2594 C2598 1.531 . S
C2595 C2594 1.369 . S
C2595 C2596 1.410 . S
C2595 C2603 1.503 . S
C2596 C2595 1.410 . S
C2596 C2597 1.392 . S
C2596 C2599 1.511 . S
C2597 C2593 1.376 . S
C2597 C2596 1.392 . S
C2597 H2609 0.929 . S
C2598 C2594 1.531 . S
C2598 H2610 0.960 . S
C2598 H2611 0.962 . S
C2598 H2612 0.960 . S
C2599 C2596 1.511 . S
C2599 H2613 0.961 . S
C2599 H2614 0.961 . S
C2599 H2615 0.961 . S
C2600 C2601 1.370 . S
C2600 C2602 1.363 . S
C2600 H2616 0.931 . S
C2601 C2600 1.370 . S
C2601 C2605 1.408 . S
C2602 C2600 1.363 . S
C2602 C2603 1.370 . S
C2602 C2606 1.524 . S
C2603 C2595 1.503 . S
C2603 C2602 1.370 . S
C2603 C2604 1.403 . S
C2604 C2603 1.403 . S
C2604 C2605 1.404 . S
C2604 C2607 1.539 . S
C2605 C2601 1.408 . S
C2605 C2604 1.404 . S
C2605 H2617 0.930 . S
C2606 C2602 1.524 . S
C2606 H2618 0.956 . S
C2606 H2619 0.961 . S
C2606 H2620 0.961 . S
C2607 C2604 1.539 . S
C2607 H2621 0.958 . S
C2607 H2622 0.961 . S
C2607 H2623 0.960 . S
H2608 C2592 0.931 . S
H2609 C2597 0.929 . S
H2610 C2598 0.960 . S
H2611 C2598 0.962 . S
H2612 C2598 0.960 . S
H2613 C2599 0.961 . S
H2614 C2599 0.961 . S
H2615 C2599 0.961 . S
H2616 C2600 0.931 . S
H2617 C2605 0.930 . S
H2618 C2606 0.956 . S
H2619 C2606 0.961 . S
H2620 C2606 0.961 . S
H2621 C2607 0.958 . S
H2622 C2607 0.961 . S
H2623 C2607 0.960 . S
C2624 C2625 1.391 . S
C2624 C2626 1.394 . S
C2624 H2640 0.931 . S
C2625 C2624 1.391 . S
C2625 C2629 1.376 . S
C2626 C2624 1.394 . S
C2626 C2627 1.369 . S
C2626 C2630 1.531 . S
C2627 C2626 1.369 . S
C2627 C2628 1.410 . S
C2627 C2635 1.503 . S
C2628 C2627 1.410 . S
C2628 C2629 1.392 . S
C2628 C2631 1.511 . S
C2629 C2625 1.376 . S
C2629 C2628 1.392 . S
C2629 H2641 0.929 . S
C2630 C2626 1.531 . S
C2630 H2642 0.960 . S
C2630 H2643 0.962 . S
C2630 H2644 0.960 . S
C2631 C2628 1.511 . S
C2631 H2645 0.961 . S
C2631 H2646 0.961 . S
C2631 H2647 0.961 . S
C2632 C2633 1.370 . S
C2632 C2634 1.363 . S
C2632 H2648 0.931 . S
C2633 C2632 1.370 . S
C2633 C2637 1.408 . S
C2634 C2632 1.363 . S
C2634 C2635 1.370 . S
C2634 C2638 1.524 . S
C2635 C2627 1.503 . S
C2635 C2634 1.370 . S
C2635 C2636 1.403 . S
C2636 C2635 1.403 . S
C2636 C2637 1.404 . S
C2636 C2639 1.539 . S
C2637 C2633 1.408 . S
C2637 C2636 1.404 . S
C2637 H2649 0.930 . S
C2638 C2634 1.524 . S
C2638 H2650 0.956 . S
C2638 H2651 0.961 . S
C2638 H2652 0.961 . S
C2639 C2636 1.539 . S
C2639 H2653 0.958 . S
C2639 H2654 0.961 . S
C2639 H2655 0.960 . S
H2640 C2624 0.931 . S
H2641 C2629 0.929 . S
H2642 C2630 0.960 . S
H2643 C2630 0.962 . S
H2644 C2630 0.960 . S
H2645 C2631 0.961 . S
H2646 C2631 0.961 . S
H2647 C2631 0.961 . S
H2648 C2632 0.931 . S
H2649 C2637 0.930 . S
H2650 C2638 0.956 . S
H2651 C2638 0.961 . S
H2652 C2638 0.961 . S
H2653 C2639 0.958 . S
H2654 C2639 0.961 . S
H2655 C2639 0.960 . S
C2656 C2657 1.391 . S
C2656 C2658 1.394 . S
C2656 H2672 0.931 . S
C2657 C2656 1.391 . S
C2657 C2661 1.376 . S
C2658 C2656 1.394 . S
C2658 C2659 1.369 . S
C2658 C2662 1.531 . S
C2659 C2658 1.369 . S
C2659 C2660 1.410 . S
C2659 C2667 1.503 . S
C2660 C2659 1.410 . S
C2660 C2661 1.392 . S
C2660 C2663 1.511 . S
C2661 C2657 1.376 . S
C2661 C2660 1.392 . S
C2661 H2673 0.929 . S
C2662 C2658 1.531 . S
C2662 H2674 0.960 . S
C2662 H2675 0.962 . S
C2662 H2676 0.960 . S
C2663 C2660 1.511 . S
C2663 H2677 0.961 . S
C2663 H2678 0.961 . S
C2663 H2679 0.961 . S
C2664 C2665 1.370 . S
C2664 C2666 1.363 . S
C2664 H2680 0.931 . S
C2665 C2664 1.370 . S
C2665 C2669 1.408 . S
C2666 C2664 1.363 . S
C2666 C2667 1.370 . S
C2666 C2670 1.524 . S
C2667 C2659 1.503 . S
C2667 C2666 1.370 . S
C2667 C2668 1.403 . S
C2668 C2667 1.403 . S
C2668 C2669 1.404 . S
C2668 C2671 1.539 . S
C2669 C2665 1.408 . S
C2669 C2668 1.404 . S
C2669 H2681 0.930 . S
C2670 C2666 1.524 . S
C2670 H2682 0.956 . S
C2670 H2683 0.961 . S
C2670 H2684 0.961 . S
C2671 C2668 1.539 . S
C2671 H2685 0.958 . S
C2671 H2686 0.961 . S
C2671 H2687 0.960 . S
H2672 C2656 0.931 . S
H2673 C2661 0.929 . S
H2674 C2662 0.960 . S
H2675 C2662 0.962 . S
H2676 C2662 0.960 . S
H2677 C2663 0.961 . S
H2678 C2663 0.961 . S
H2679 C2663 0.961 . S
H2680 C2664 0.931 . S
H2681 C2669 0.930 . S
H2682 C2670 0.956 . S
H2683 C2670 0.961 . S
H2684 C2670 0.961 . S
H2685 C2671 0.958 . S
H2686 C2671 0.961 . S
H2687 C2671 0.960 . S
C2688 C2689 1.391 . S
C2688 C2690 1.394 . S
C2688 H2704 0.931 . S
C2689 C2688 1.391 . S
C2689 C2693 1.376 . S
C2690 C2688 1.394 . S
C2690 C2691 1.369 . S
C2690 C2694 1.531 . S
C2691 C2690 1.369 . S
C2691 C2692 1.410 . S
C2691 C2699 1.503 . S
C2692 C2691 1.410 . S
C2692 C2693 1.392 . S
C2692 C2695 1.511 . S
C2693 C2689 1.376 . S
C2693 C2692 1.392 . S
C2693 H2705 0.929 . S
C2694 C2690 1.531 . S
C2694 H2706 0.960 . S
C2694 H2707 0.962 . S
C2694 H2708 0.960 . S
C2695 C2692 1.511 . S
C2695 H2709 0.961 . S
C2695 H2710 0.961 . S
C2695 H2711 0.961 . S
C2696 C2697 1.370 . S
C2696 C2698 1.363 . S
C2696 H2712 0.931 . S
C2697 C2696 1.370 . S
C2697 C2701 1.408 . S
C2698 C2696 1.363 . S
C2698 C2699 1.370 . S
C2698 C2702 1.524 . S
C2699 C2691 1.503 . S
C2699 C2698 1.370 . S
C2699 C2700 1.403 . S
C2700 C2699 1.403 . S
C2700 C2701 1.404 . S
C2700 C2703 1.539 . S
C2701 C2697 1.408 . S
C2701 C2700 1.404 . S
C2701 H2713 0.930 . S
C2702 C2698 1.524 . S
C2702 H2714 0.956 . S
C2702 H2715 0.961 . S
C2702 H2716 0.961 . S
C2703 C2700 1.539 . S
C2703 H2717 0.958 . S
C2703 H2718 0.961 . S
C2703 H2719 0.960 . S
H2704 C2688 0.931 . S
H2705 C2693 0.929 . S
H2706 C2694 0.960 . S
H2707 C2694 0.962 . S
H2708 C2694 0.960 . S
H2709 C2695 0.961 . S
H2710 C2695 0.961 . S
H2711 C2695 0.961 . S
H2712 C2696 0.931 . S
H2713 C2701 0.930 . S
H2714 C2702 0.956 . S
H2715 C2702 0.961 . S
H2716 C2702 0.961 . S
H2717 C2703 0.958 . S
H2718 C2703 0.961 . S
H2719 C2703 0.960 . S
C2720 C2721 1.391 . S
C2720 C2722 1.394 . S
C2720 H2736 0.931 . S
C2721 C2720 1.391 . S
C2721 C2725 1.376 . S
C2722 C2720 1.394 . S
C2722 C2723 1.369 . S
C2722 C2726 1.531 . S
C2723 C2722 1.369 . S
C2723 C2724 1.410 . S
C2723 C2731 1.503 . S
C2724 C2723 1.410 . S
C2724 C2725 1.392 . S
C2724 C2727 1.511 . S
C2725 C2721 1.376 . S
C2725 C2724 1.392 . S
C2725 H2737 0.929 . S
C2726 C2722 1.531 . S
C2726 H2738 0.960 . S
C2726 H2739 0.962 . S
C2726 H2740 0.960 . S
C2727 C2724 1.511 . S
C2727 H2741 0.961 . S
C2727 H2742 0.961 . S
C2727 H2743 0.961 . S
C2728 C2729 1.370 . S
C2728 C2730 1.363 . S
C2728 H2744 0.931 . S
C2729 C2728 1.370 . S
C2729 C2733 1.408 . S
C2730 C2728 1.363 . S
C2730 C2731 1.370 . S
C2730 C2734 1.524 . S
C2731 C2723 1.503 . S
C2731 C2730 1.370 . S
C2731 C2732 1.403 . S
C2732 C2731 1.403 . S
C2732 C2733 1.404 . S
C2732 C2735 1.539 . S
C2733 C2729 1.408 . S
C2733 C2732 1.404 . S
C2733 H2745 0.930 . S
C2734 C2730 1.524 . S
C2734 H2746 0.956 . S
C2734 H2747 0.961 . S
C2734 H2748 0.961 . S
C2735 C2732 1.539 . S
C2735 H2749 0.958 . S
C2735 H2750 0.961 . S
C2735 H2751 0.960 . S
H2736 C2720 0.931 . S
H2737 C2725 0.929 . S
H2738 C2726 0.960 . S
H2739 C2726 0.962 . S
H2740 C2726 0.960 . S
H2741 C2727 0.961 . S
H2742 C2727 0.961 . S
H2743 C2727 0.961 . S
H2744 C2728 0.931 . S
H2745 C2733 0.930 . S
H2746 C2734 0.956 . S
H2747 C2734 0.961 . S
H2748 C2734 0.961 . S
H2749 C2735 0.958 . S
H2750 C2735 0.961 . S
H2751 C2735 0.960 . S
C2752 C2753 1.391 . S
C2752 C2754 1.394 . S
C2752 H2768 0.931 . S
C2753 C2752 1.391 . S
C2753 C2757 1.376 . S
C2754 C2752 1.394 . S
C2754 C2755 1.369 . S
C2754 C2758 1.531 . S
C2755 C2754 1.369 . S
C2755 C2756 1.410 . S
C2755 C2763 1.503 . S
C2756 C2755 1.410 . S
C2756 C2757 1.392 . S
C2756 C2759 1.511 . S
C2757 C2753 1.376 . S
C2757 C2756 1.392 . S
C2757 H2769 0.929 . S
C2758 C2754 1.531 . S
C2758 H2770 0.960 . S
C2758 H2771 0.962 . S
C2758 H2772 0.960 . S
C2759 C2756 1.511 . S
C2759 H2773 0.961 . S
C2759 H2774 0.961 . S
C2759 H2775 0.961 . S
C2760 C2761 1.370 . S
C2760 C2762 1.363 . S
C2760 H2776 0.931 . S
C2761 C2760 1.370 . S
C2761 C2765 1.408 . S
C2762 C2760 1.363 . S
C2762 C2763 1.370 . S
C2762 C2766 1.524 . S
C2763 C2755 1.503 . S
C2763 C2762 1.370 . S
C2763 C2764 1.403 . S
C2764 C2763 1.403 . S
C2764 C2765 1.404 . S
C2764 C2767 1.539 . S
C2765 C2761 1.408 . S
C2765 C2764 1.404 . S
C2765 H2777 0.930 . S
C2766 C2762 1.524 . S
C2766 H2778 0.956 . S
C2766 H2779 0.961 . S
C2766 H2780 0.961 . S
C2767 C2764 1.539 . S
C2767 H2781 0.958 . S
C2767 H2782 0.961 . S
C2767 H2783 0.960 . S
H2768 C2752 0.931 . S
H2769 C2757 0.929 . S
H2770 C2758 0.960 . S
H2771 C2758 0.962 . S
H2772 C2758 0.960 . S
H2773 C2759 0.961 . S
H2774 C2759 0.961 . S
H2775 C2759 0.961 . S
H2776 C2760 0.931 . S
H2777 C2765 0.930 . S
H2778 C2766 0.956 . S
H2779 C2766 0.961 . S
H2780 C2766 0.961 . S
H2781 C2767 0.958 . S
H2782 C2767 0.961 . S
H2783 C2767 0.960 . S
C2784 C2785 1.391 . S
C2784 C2786 1.394 . S
C2784 H2800 0.931 . S
C2785 C2784 1.391 . S
C2785 C2789 1.376 . S
C2786 C2784 1.394 . S
C2786 C2787 1.369 . S
C2786 C2790 1.531 . S
C2787 C2786 1.369 . S
C2787 C2788 1.410 . S
C2787 C2795 1.503 . S
C2788 C2787 1.410 . S
C2788 C2789 1.392 . S
C2788 C2791 1.511 . S
C2789 C2785 1.376 . S
C2789 C2788 1.392 . S
C2789 H2801 0.929 . S
C2790 C2786 1.531 . S
C2790 H2802 0.960 . S
C2790 H2803 0.962 . S
C2790 H2804 0.960 . S
C2791 C2788 1.511 . S
C2791 H2805 0.961 . S
C2791 H2806 0.961 . S
C2791 H2807 0.961 . S
C2792 C2793 1.370 . S
C2792 C2794 1.363 . S
C2792 H2808 0.931 . S
C2793 C2792 1.370 . S
C2793 C2797 1.408 . S
C2794 C2792 1.363 . S
C2794 C2795 1.370 . S
C2794 C2798 1.524 . S
C2795 C2787 1.503 . S
C2795 C2794 1.370 . S
C2795 C2796 1.403 . S
C2796 C2795 1.403 . S
C2796 C2797 1.404 . S
C2796 C2799 1.539 . S
C2797 C2793 1.408 . S
C2797 C2796 1.404 . S
C2797 H2809 0.930 . S
C2798 C2794 1.524 . S
C2798 H2810 0.956 . S
C2798 H2811 0.961 . S
C2798 H2812 0.961 . S
C2799 C2796 1.539 . S
C2799 H2813 0.958 . S
C2799 H2814 0.961 . S
C2799 H2815 0.960 . S
H2800 C2784 0.931 . S
H2801 C2789 0.929 . S
H2802 C2790 0.960 . S
H2803 C2790 0.962 . S
H2804 C2790 0.960 . S
H2805 C2791 0.961 . S
H2806 C2791 0.961 . S
H2807 C2791 0.961 . S
H2808 C2792 0.931 . S
H2809 C2797 0.930 . S
H2810 C2798 0.956 . S
H2811 C2798 0.961 . S
H2812 C2798 0.961 . S
H2813 C2799 0.958 . S
H2814 C2799 0.961 . S
H2815 C2799 0.960 . S
C2816 C2817 1.391 . S
C2816 C2818 1.394 . S
C2816 H2832 0.931 . S
C2817 C2816 1.391 . S
C2817 C2821 1.376 . S
C2818 C2816 1.394 . S
C2818 C2819 1.369 . S
C2818 C2822 1.531 . S
C2819 C2818 1.369 . S
C2819 C2820 1.410 . S
C2819 C2827 1.503 . S
C2820 C2819 1.410 . S
C2820 C2821 1.392 . S
C2820 C2823 1.511 . S
C2821 C2817 1.376 . S
C2821 C2820 1.392 . S
C2821 H2833 0.929 . S
C2822 C2818 1.531 . S
C2822 H2834 0.960 . S
C2822 H2835 0.962 . S
C2822 H2836 0.960 . S
C2823 C2820 1.511 . S
C2823 H2837 0.961 . S
C2823 H2838 0.961 . S
C2823 H2839 0.961 . S
C2824 C2825 1.370 . S
C2824 C2826 1.363 . S
C2824 H2840 0.931 . S
C2825 C2824 1.370 . S
C2825 C2829 1.408 . S
C2826 C2824 1.363 . S
C2826 C2827 1.370 . S
C2826 C2830 1.524 . S
C2827 C2819 1.503 . S
C2827 C2826 1.370 . S
C2827 C2828 1.403 . S
C2828 C2827 1.403 . S
C2828 C2829 1.404 . S
C2828 C2831 1.539 . S
C2829 C2825 1.408 . S
C2829 C2828 1.404 . S
C2829 H2841 0.930 . S
C2830 C2826 1.524 . S
C2830 H2842 0.956 . S
C2830 H2843 0.961 . S
C2830 H2844 0.961 . S
C2831 C2828 1.539 . S
C2831 H2845 0.958 . S
C2831 H2846 0.961 . S
C2831 H2847 0.960 . S
H2832 C2816 0.931 . S
H2833 C2821 0.929 . S
H2834 C2822 0.960 . S
H2835 C2822 0.962 . S
H2836 C2822 0.960 . S
H2837 C2823 0.961 . S
H2838 C2823 0.961 . S
H2839 C2823 0.961 . S
H2840 C2824 0.931 . S
H2841 C2829 0.930 . S
H2842 C2830 0.956 . S
H2843 C2830 0.961 . S
H2844 C2830 0.961 . S
H2845 C2831 0.958 . S
H2846 C2831 0.961 . S
H2847 C2831 0.960 . S
C2848 C2849 1.391 . S
C2848 C2850 1.394 . S
C2848 H2864 0.931 . S
C2849 C2848 1.391 . S
C2849 C2853 1.376 . S
C2850 C2848 1.394 . S
C2850 C2851 1.369 . S
C2850 C2854 1.531 . S
C2851 C2850 1.369 . S
C2851 C2852 1.410 . S
C2851 C2859 1.503 . S
C2852 C2851 1.410 . S
C2852 C2853 1.392 . S
C2852 C2855 1.511 . S
C2853 C2849 1.376 . S
C2853 C2852 1.392 . S
C2853 H2865 0.929 . S
C2854 C2850 1.531 . S
C2854 H2866 0.960 . S
C2854 H2867 0.962 . S
C2854 H2868 0.960 . S
C2855 C2852 1.511 . S
C2855 H2869 0.961 . S
C2855 H2870 0.961 . S
C2855 H2871 0.961 . S
C2856 C2857 1.370 . S
C2856 C2858 1.363 . S
C2856 H2872 0.931 . S
C2857 C2856 1.370 . S
C2857 C2861 1.408 . S
C2858 C2856 1.363 . S
C2858 C2859 1.370 . S
C2858 C2862 1.524 . S
C2859 C2851 1.503 . S
C2859 C2858 1.370 . S
C2859 C2860 1.403 . S
C2860 C2859 1.403 . S
C2860 C2861 1.404 . S
C2860 C2863 1.539 . S
C2861 C2857 1.408 . S
C2861 C2860 1.404 . S
C2861 H2873 0.930 . S
C2862 C2858 1.524 . S
C2862 H2874 0.956 . S
C2862 H2875 0.961 . S
C2862 H2876 0.961 . S
C2863 C2860 1.539 . S
C2863 H2877 0.958 . S
C2863 H2878 0.961 . S
C2863 H2879 0.960 . S
H2864 C2848 0.931 . S
H2865 C2853 0.929 . S
H2866 C2854 0.960 . S
H2867 C2854 0.962 . S
H2868 C2854 0.960 . S
H2869 C2855 0.961 . S
H2870 C2855 0.961 . S
H2871 C2855 0.961 . S
H2872 C2856 0.931 . S
H2873 C2861 0.930 . S
H2874 C2862 0.956 . S
H2875 C2862 0.961 . S
H2876 C2862 0.961 . S
H2877 C2863 0.958 . S
H2878 C2863 0.961 . S
H2879 C2863 0.960 . S
C2880 C2881 1.391 . S
C2880 C2882 1.394 . S
C2880 H2896 0.931 . S
C2881 C2880 1.391 . S
C2881 C2885 1.376 . S
C2882 C2880 1.394 . S
C2882 C2883 1.369 . S
C2882 C2886 1.531 . S
C2883 C2882 1.369 . S
C2883 C2884 1.410 . S
C2883 C2891 1.503 . S
C2884 C2883 1.410 . S
C2884 C2885 1.392 . S
C2884 C2887 1.511 . S
C2885 C2881 1.376 . S
C2885 C2884 1.392 . S
C2885 H2897 0.929 . S
C2886 C2882 1.531 . S
C2886 H2898 0.960 . S
C2886 H2899 0.962 . S
C2886 H2900 0.960 . S
C2887 C2884 1.511 . S
C2887 H2901 0.961 . S
C2887 H2902 0.961 . S
C2887 H2903 0.961 . S
C2888 C2889 1.370 . S
C2888 C2890 1.363 . S
C2888 H2904 0.931 . S
C2889 C2888 1.370 . S
C2889 C2893 1.408 . S
C2890 C2888 1.363 . S
C2890 C2891 1.370 . S
C2890 C2894 1.524 . S
C2891 C2883 1.503 . S
C2891 C2890 1.370 . S
C2891 C2892 1.403 . S
C2892 C2891 1.403 . S
C2892 C2893 1.404 . S
C2892 C2895 1.539 . S
C2893 C2889 1.408 . S
C2893 C2892 1.404 . S
C2893 H2905 0.930 . S
C2894 C2890 1.524 . S
C2894 H2906 0.956 . S
C2894 H2907 0.961 . S
C2894 H2908 0.961 . S
C2895 C2892 1.539 . S
C2895 H2909 0.958 . S
C2895 H2910 0.961 . S
C2895 H2911 0.960 . S
H2896 C2880 0.931 . S
H2897 C2885 0.929 . S
H2898 C2886 0.960 . S
H2899 C2886 0.962 . S
H2900 C2886 0.960 . S
H2901 C2887 0.961 . S
H2902 C2887 0.961 . S
H2903 C2887 0.961 . S
H2904 C2888 0.931 . S
H2905 C2893 0.930 . S
H2906 C2894 0.956 . S
H2907 C2894 0.961 . S
H2908 C2894 0.961 . S
H2909 C2895 0.958 . S
H2910 C2895 0.961 . S
H2911 C2895 0.960 . S
C2912 C2913 1.391 . S
C2912 C2914 1.394 . S
C2912 H2928 0.931 . S
C2913 C2912 1.391 . S
C2913 C2917 1.376 . S
C2914 C2912 1.394 . S
C2914 C2915 1.369 . S
C2914 C2918 1.531 . S
C2915 C2914 1.369 . S
C2915 C2916 1.410 . S
C2915 C2923 1.503 . S
C2916 C2915 1.410 . S
C2916 C2917 1.392 . S
C2916 C2919 1.511 . S
C2917 C2913 1.376 . S
C2917 C2916 1.392 . S
C2917 H2929 0.929 . S
C2918 C2914 1.531 . S
C2918 H2930 0.960 . S
C2918 H2931 0.962 . S
C2918 H2932 0.960 . S
C2919 C2916 1.511 . S
C2919 H2933 0.961 . S
C2919 H2934 0.961 . S
C2919 H2935 0.961 . S
C2920 C2921 1.370 . S
C2920 C2922 1.363 . S
C2920 H2936 0.931 . S
C2921 C2920 1.370 . S
C2921 C2925 1.408 . S
C2922 C2920 1.363 . S
C2922 C2923 1.370 . S
C2922 C2926 1.524 . S
C2923 C2915 1.503 . S
C2923 C2922 1.370 . S
C2923 C2924 1.403 . S
C2924 C2923 1.403 . S
C2924 C2925 1.404 . S
C2924 C2927 1.539 . S
C2925 C2921 1.408 . S
C2925 C2924 1.404 . S
C2925 H2937 0.930 . S
C2926 C2922 1.524 . S
C2926 H2938 0.956 . S
C2926 H2939 0.961 . S
C2926 H2940 0.961 . S
C2927 C2924 1.539 . S
C2927 H2941 0.958 . S
C2927 H2942 0.961 . S
C2927 H2943 0.960 . S
H2928 C2912 0.931 . S
H2929 C2917 0.929 . S
H2930 C2918 0.960 . S
H2931 C2918 0.962 . S
H2932 C2918 0.960 . S
H2933 C2919 0.961 . S
H2934 C2919 0.961 . S
H2935 C2919 0.961 . S
H2936 C2920 0.931 . S
H2937 C2925 0.930 . S
H2938 C2926 0.956 . S
H2939 C2926 0.961 . S
H2940 C2926 0.961 . S
H2941 C2927 0.958 . S
H2942 C2927 0.961 . S
H2943 C2927 0.960 . S
C2944 C2945 1.391 . S
C2944 C2946 1.394 . S
C2944 H2960 0.931 . S
C2945 C2944 1.391 . S
C2945 C2949 1.376 . S
C2946 C2944 1.394 . S
C2946 C2947 1.369 . S
C2946 C2950 1.531 . S
C2947 C2946 1.369 . S
C2947 C2948 1.410 . S
C2947 C2955 1.503 . S
C2948 C2947 1.410 . S
C2948 C2949 1.392 . S
C2948 C2951 1.511 . S
C2949 C2945 1.376 . S
C2949 C2948 1.392 . S
C2949 H2961 0.929 . S
C2950 C2946 1.531 . S
C2950 H2962 0.960 . S
C2950 H2963 0.962 . S
C2950 H2964 0.960 . S
C2951 C2948 1.511 . S
C2951 H2965 0.961 . S
C2951 H2966 0.961 . S
C2951 H2967 0.961 . S
C2952 C2953 1.370 . S
C2952 C2954 1.363 . S
C2952 H2968 0.931 . S
C2953 C2952 1.370 . S
C2953 C2957 1.408 . S
C2954 C2952 1.363 . S
C2954 C2955 1.370 . S
C2954 C2958 1.524 . S
C2955 C2947 1.503 . S
C2955 C2954 1.370 . S
C2955 C2956 1.403 . S
C2956 C2955 1.403 . S
C2956 C2957 1.404 . S
C2956 C2959 1.539 . S
C2957 C2953 1.408 . S
C2957 C2956 1.404 . S
C2957 H2969 0.930 . S
C2958 C2954 1.524 . S
C2958 H2970 0.956 . S
C2958 H2971 0.961 . S
C2958 H2972 0.961 . S
C2959 C2956 1.539 . S
C2959 H2973 0.958 . S
C2959 H2974 0.961 . S
C2959 H2975 0.960 . S
H2960 C2944 0.931 . S
H2961 C2949 0.929 . S
H2962 C2950 0.960 . S
H2963 C2950 0.962 . S
H2964 C2950 0.960 . S
H2965 C2951 0.961 . S
H2966 C2951 0.961 . S
H2967 C2951 0.961 . S
H2968 C2952 0.931 . S
H2969 C2957 0.930 . S
H2970 C2958 0.956 . S
H2971 C2958 0.961 . S
H2972 C2958 0.961 . S
H2973 C2959 0.958 . S
H2974 C2959 0.961 . S
H2975 C2959 0.960 . S
C2976 C2977 1.391 . S
C2976 C2978 1.394 . S
C2976 H2992 0.931 . S
C2977 C2976 1.391 . S
C2977 C2981 1.376 . S
C2978 C2976 1.394 . S
C2978 C2979 1.369 . S
C2978 C2982 1.531 . S
C2979 C2978 1.369 . S
C2979 C2980 1.410 . S
C2979 C2987 1.503 . S
C2980 C2979 1.410 . S
C2980 C2981 1.392 . S
C2980 C2983 1.511 . S
C2981 C2977 1.376 . S
C2981 C2980 1.392 . S
C2981 H2993 0.929 . S
C2982 C2978 1.531 . S
C2982 H2994 0.960 . S
C2982 H2995 0.962 . S
C2982 H2996 0.960 . S
C2983 C2980 1.511 . S
C2983 H2997 0.961 . S
C2983 H2998 0.961 . S
C2983 H2999 0.961 . S
C2984 C2985 1.370 . S
C2984 C2986 1.363 . S
C2984 H3000 0.931 . S
C2985 C2984 1.370 . S
C2985 C2989 1.408 . S
C2986 C2984 1.363 . S
C2986 C2987 1.370 . S
C2986 C2990 1.524 . S
C2987 C2979 1.503 . S
C2987 C2986 1.370 . S
C2987 C2988 1.403 . S
C2988 C2987 1.403 . S
C2988 C2989 1.404 . S
C2988 C2991 1.539 . S
C2989 C2985 1.408 . S
C2989 C2988 1.404 . S
C2989 H3001 0.930 . S
C2990 C2986 1.524 . S
C2990 H3002 0.956 . S
C2990 H3003 0.961 . S
C2990 H3004 0.961 . S
C2991 C2988 1.539 . S
C2991 H3005 0.958 . S
C2991 H3006 0.961 . S
C2991 H3007 0.960 . S
H2992 C2976 0.931 . S
H2993 C2981 0.929 . S
H2994 C2982 0.960 . S
H2995 C2982 0.962 . S
H2996 C2982 0.960 . S
H2997 C2983 0.961 . S
H2998 C2983 0.961 . S
H2999 C2983 0.961 . S
H3000 C2984 0.931 . S
H3001 C2989 0.930 . S
H3002 C2990 0.956 . S
H3003 C2990 0.961 . S
H3004 C2990 0.961 . S
H3005 C2991 0.958 . S
H3006 C2991 0.961 . S
H3007 C2991 0.960 . S
C3008 C3009 1.391 . S
C3008 C3010 1.394 . S
C3008 H3024 0.931 . S
C3009 C3008 1.391 . S
C3009 C3013 1.376 . S
C3010 C3008 1.394 . S
C3010 C3011 1.369 . S
C3010 C3014 1.531 . S
C3011 C3010 1.369 . S
C3011 C3012 1.410 . S
C3011 C3019 1.503 . S
C3012 C3011 1.410 . S
C3012 C3013 1.392 . S
C3012 C3015 1.511 . S
C3013 C3009 1.376 . S
C3013 C3012 1.392 . S
C3013 H3025 0.929 . S
C3014 C3010 1.531 . S
C3014 H3026 0.960 . S
C3014 H3027 0.962 . S
C3014 H3028 0.960 . S
C3015 C3012 1.511 . S
C3015 H3029 0.961 . S
C3015 H3030 0.961 . S
C3015 H3031 0.961 . S
C3016 C3017 1.370 . S
C3016 C3018 1.363 . S
C3016 H3032 0.931 . S
C3017 C3016 1.370 . S
C3017 C3021 1.408 . S
C3018 C3016 1.363 . S
C3018 C3019 1.370 . S
C3018 C3022 1.524 . S
C3019 C3011 1.503 . S
C3019 C3018 1.370 . S
C3019 C3020 1.403 . S
C3020 C3019 1.403 . S
C3020 C3021 1.404 . S
C3020 C3023 1.539 . S
C3021 C3017 1.408 . S
C3021 C3020 1.404 . S
C3021 H3033 0.930 . S
C3022 C3018 1.524 . S
C3022 H3034 0.956 . S
C3022 H3035 0.961 . S
C3022 H3036 0.961 . S
C3023 C3020 1.539 . S
C3023 H3037 0.958 . S
C3023 H3038 0.961 . S
C3023 H3039 0.960 . S
H3024 C3008 0.931 . S
H3025 C3013 0.929 . S
H3026 C3014 0.960 . S
H3027 C3014 0.962 . S
H3028 C3014 0.960 . S
H3029 C3015 0.961 . S
H3030 C3015 0.961 . S
H3031 C3015 0.961 . S
H3032 C3016 0.931 . S
H3033 C3021 0.930 . S
H3034 C3022 0.956 . S
H3035 C3022 0.961 . S
H3036 C3022 0.961 . S
H3037 C3023 0.958 . S
H3038 C3023 0.961 . S
H3039 C3023 0.960 . S
C3040 C3041 1.391 . S
C3040 C3042 1.394 . S
C3040 H3056 0.931 . S
C3041 C3040 1.391 . S
C3041 C3045 1.376 . S
C3042 C3040 1.394 . S
C3042 C3043 1.369 . S
C3042 C3046 1.531 . S
C3043 C3042 1.369 . S
C3043 C3044 1.410 . S
C3043 C3051 1.503 . S
C3044 C3043 1.410 . S
C3044 C3045 1.392 . S
C3044 C3047 1.511 . S
C3045 C3041 1.376 . S
C3045 C3044 1.392 . S
C3045 H3057 0.929 . S
C3046 C3042 1.531 . S
C3046 H3058 0.960 . S
C3046 H3059 0.962 . S
C3046 H3060 0.960 . S
C3047 C3044 1.511 . S
C3047 H3061 0.961 . S
C3047 H3062 0.961 . S
C3047 H3063 0.961 . S
C3048 C3049 1.370 . S
C3048 C3050 1.363 . S
C3048 H3064 0.931 . S
C3049 C3048 1.370 . S
C3049 C3053 1.408 . S
C3050 C3048 1.363 . S
C3050 C3051 1.370 . S
C3050 C3054 1.524 . S
C3051 C3043 1.503 . S
C3051 C3050 1.370 . S
C3051 C3052 1.403 . S
C3052 C3051 1.403 . S
C3052 C3053 1.404 . S
C3052 C3055 1.539 . S
C3053 C3049 1.408 . S
C3053 C3052 1.404 . S
C3053 H3065 0.930 . S
C3054 C3050 1.524 . S
C3054 H3066 0.956 . S
C3054 H3067 0.961 . S
C3054 H3068 0.961 . S
C3055 C3052 1.539 . S
C3055 H3069 0.958 . S
C3055 H3070 0.961 . S
C3055 H3071 0.960 . S
H3056 C3040 0.931 . S
H3057 C3045 0.929 . S
H3058 C3046 0.960 . S
H3059 C3046 0.962 . S
H3060 C3046 0.960 . S
H3061 C3047 0.961 . S
H3062 C3047 0.961 . S
H3063 C3047 0.961 . S
H3064 C3048 0.931 . S
H3065 C3053 0.930 . S
H3066 C3054 0.956 . S
H3067 C3054 0.961 . S
H3068 C3054 0.961 . S
H3069 C3055 0.958 . S
H3070 C3055 0.961 . S
H3071 C3055 0.960 . S
C3072 C3073 1.391 . S
C3072 C3074 1.394 . S
C3072 H3088 0.931 . S
C3073 C3072 1.391 . S
C3073 C3077 1.376 . S
C3074 C3072 1.394 . S
C3074 C3075 1.369 . S
C3074 C3078 1.531 . S
C3075 C3074 1.369 . S
C3075 C3076 1.410 . S
C3075 C3083 1.503 . S
C3076 C3075 1.410 . S
C3076 C3077 1.392 . S
C3076 C3079 1.511 . S
C3077 C3073 1.376 . S
C3077 C3076 1.392 . S
C3077 H3089 0.929 . S
C3078 C3074 1.531 . S
C3078 H3090 0.960 . S
C3078 H3091 0.962 . S
C3078 H3092 0.960 . S
C3079 C3076 1.511 . S
C3079 H3093 0.961 . S
C3079 H3094 0.961 . S
C3079 H3095 0.961 . S
C3080 C3081 1.370 . S
C3080 C3082 1.363 . S
C3080 H3096 0.931 . S
C3081 C3080 1.370 . S
C3081 C3085 1.408 . S
C3082 C3080 1.363 . S
C3082 C3083 1.370 . S
C3082 C3086 1.524 . S
C3083 C3075 1.503 . S
C3083 C3082 1.370 . S
C3083 C3084 1.403 . S
C3084 C3083 1.403 . S
C3084 C3085 1.404 . S
C3084 C3087 1.539 . S
C3085 C3081 1.408 . S
C3085 C3084 1.404 . S
C3085 H3097 0.930 . S
C3086 C3082 1.524 . S
C3086 H3098 0.956 . S
C3086 H3099 0.961 . S
C3086 H3100 0.961 . S
C3087 C3084 1.539 . S
C3087 H3101 0.958 . S
C3087 H3102 0.961 . S
C3087 H3103 0.960 . S
H3088 C3072 0.931 . S
H3089 C3077 0.929 . S
H3090 C3078 0.960 . S
H3091 C3078 0.962 . S
H3092 C3078 0.960 . S
H3093 C3079 0.961 . S
H3094 C3079 0.961 . S
H3095 C3079 0.961 . S
H3096 C3080 0.931 . S
H3097 C3085 0.930 . S
H3098 C3086 0.956 . S
H3099 C3086 0.961 . S
H3100 C3086 0.961 . S
H3101 C3087 0.958 . S
H3102 C3087 0.961 . S
H3103 C3087 0.960 . S
C3104 C3105 1.391 . S
C3104 C3106 1.394 . S
C3104 H3120 0.931 . S
C3105 C3104 1.391 . S
C3105 C3109 1.376 . S
C3106 C3104 1.394 . S
C3106 C3107 1.369 . S
C3106 C3110 1.531 1_565 S
C3107 C3106 1.369 . S
C3107 C3108 1.410 . S
C3107 C3115 1.503 1_565 S
C3108 C3107 1.410 . S
C3108 C3109 1.392 . S
C3108 C3111 1.511 . S
C3109 C3105 1.376 . S
C3109 C3108 1.392 . S
C3109 H3121 0.929 . S
C3110 C3106 1.531 1_545 S
C3110 H3122 0.960 . S
C3110 H3123 0.962 . S
C3110 H3124 0.960 . S
C3111 C3108 1.511 . S
C3111 H3125 0.961 . S
C3111 H3126 0.961 . S
C3111 H3127 0.961 . S
C3112 C3113 1.370 . S
C3112 C3114 1.363 1_545 S
C3112 H3128 0.931 . S
C3113 C3112 1.370 . S
C3113 C3117 1.408 . S
C3114 C3112 1.363 1_565 S
C3114 C3115 1.370 1_565 S
C3114 C3118 1.524 . S
C3115 C3107 1.503 1_545 S
C3115 C3114 1.370 1_545 S
C3115 C3116 1.403 . S
C3116 C3115 1.403 . S
C3116 C3117 1.404 . S
C3116 C3119 1.539 . S
C3117 C3113 1.408 . S
C3117 C3116 1.404 . S
C3117 H3129 0.930 . S
C3118 C3114 1.524 . S
C3118 H3130 0.956 . S
C3118 H3131 0.961 . S
C3118 H3132 0.961 . S
C3119 C3116 1.539 . S
C3119 H3133 0.958 . S
C3119 H3134 0.961 . S
C3119 H3135 0.960 . S
H3120 C3104 0.931 . S
H3121 C3109 0.929 . S
H3122 C3110 0.960 . S
H3123 C3110 0.962 . S
H3124 C3110 0.960 . S
H3125 C3111 0.961 . S
H3126 C3111 0.961 . S
H3127 C3111 0.961 . S
H3128 C3112 0.931 . S
H3129 C3117 0.930 . S
H3130 C3118 0.956 . S
H3131 C3118 0.961 . S
H3132 C3118 0.961 . S
H3133 C3119 0.958 . S
H3134 C3119 0.961 . S
H3135 C3119 0.960 . S
C3136 C3137 1.391 . S
C3136 C3138 1.394 . S
C3136 H3152 0.931 . S
C3137 C3136 1.391 . S
C3137 C3141 1.376 . S
C3138 C3136 1.394 . S
C3138 C3139 1.369 . S
C3138 C3142 1.531 . S
C3139 C3138 1.369 . S
C3139 C3140 1.410 . S
C3139 C3147 1.503 . S
C3140 C3139 1.410 . S
C3140 C3141 1.392 . S
C3140 C3143 1.511 . S
C3141 C3137 1.376 . S
C3141 C3140 1.392 . S
C3141 H3153 0.929 . S
C3142 C3138 1.531 . S
C3142 H3154 0.960 . S
C3142 H3155 0.962 . S
C3142 H3156 0.960 . S
C3143 C3140 1.511 . S
C3143 H3157 0.961 . S
C3143 H3158 0.961 . S
C3143 H3159 0.961 . S
C3144 C3145 1.370 . S
C3144 C3146 1.363 . S
C3144 H3160 0.931 . S
C3145 C3144 1.370 . S
C3145 C3149 1.408 . S
C3146 C3144 1.363 . S
C3146 C3147 1.370 . S
C3146 C3150 1.524 . S
C3147 C3139 1.503 . S
C3147 C3146 1.370 . S
C3147 C3148 1.403 . S
C3148 C3147 1.403 . S
C3148 C3149 1.404 . S
C3148 C3151 1.539 . S
C3149 C3145 1.408 . S
C3149 C3148 1.404 . S
C3149 H3161 0.930 . S
C3150 C3146 1.524 . S
C3150 H3162 0.956 . S
C3150 H3163 0.961 . S
C3150 H3164 0.961 . S
C3151 C3148 1.539 . S
C3151 H3165 0.958 1_545 S
C3151 H3166 0.961 1_545 S
C3151 H3167 0.960 . S
H3152 C3136 0.931 . S
H3153 C3141 0.929 . S
H3154 C3142 0.960 . S
H3155 C3142 0.962 . S
H3156 C3142 0.960 . S
H3157 C3143 0.961 . S
H3158 C3143 0.961 . S
H3159 C3143 0.961 . S
H3160 C3144 0.931 . S
H3161 C3149 0.930 . S
H3162 C3150 0.956 . S
H3163 C3150 0.961 . S
H3164 C3150 0.961 . S
H3165 C3151 0.958 1_565 S
H3166 C3151 0.961 1_565 S
H3167 C3151 0.960 . S
C3168 C3169 1.391 . S
C3168 C3170 1.394 1_565 S
C3168 H3184 0.926 1_565 S
C3169 C3168 1.391 . S
C3169 C3173 1.376 . S
C3170 C3168 1.394 1_545 S
C3170 C3171 1.369 1_545 S
C3170 C3174 1.531 . S
C3171 C3170 1.369 1_565 S
C3171 C3172 1.410 . S
C3171 C3179 1.503 1_565 S
C3172 C3171 1.410 . S
C3172 C3173 1.392 . S
C3172 C3175 1.511 . S
C3173 C3169 1.376 . S
C3173 C3172 1.392 . S
C3173 H3185 0.929 . S
C3174 C3170 1.531 . S
C3174 H3186 0.960 . S
C3174 H3187 0.962 . S
C3174 H3188 0.960 . S
C3175 C3172 1.511 . S
C3175 H3189 0.961 . S
C3175 H3190 0.961 . S
C3175 H3191 0.961 . S
C3176 C3177 1.370 . S
C3176 C3178 1.363 . S
C3176 H3192 0.931 . S
C3177 C3176 1.370 . S
C3177 C3181 1.408 . S
C3178 C3176 1.363 . S
C3178 C3179 1.370 . S
C3178 C3182 1.524 . S
C3179 C3171 1.503 1_545 S
C3179 C3178 1.370 . S
C3179 C3180 1.403 . S
C3180 C3179 1.403 . S
C3180 C3181 1.404 . S
C3180 C3183 1.539 . S
C3181 C3177 1.408 . S
C3181 C3180 1.404 . S
C3181 H3193 0.930 . S
C3182 C3178 1.524 . S
C3182 H3194 0.956 . S
C3182 H3195 0.961 1_545 S
C3182 H3196 0.961 . S
C3183 C3180 1.539 . S
C3183 H3197 0.958 . S
C3183 H3198 0.961 . S
C3183 H3199 0.960 1_545 S
H3184 C3168 0.926 1_545 S
H3185 C3173 0.929 . S
H3186 C3174 0.960 . S
H3187 C3174 0.962 . S
H3188 C3174 0.960 . S
H3189 C3175 0.961 . S
H3190 C3175 0.961 . S
H3191 C3175 0.961 . S
H3192 C3176 0.931 . S
H3193 C3181 0.930 . S
H3194 C3182 0.956 . S
H3195 C3182 0.961 1_565 S
H3196 C3182 0.961 . S
H3197 C3183 0.958 . S
H3198 C3183 0.961 . S
H3199 C3183 0.960 1_565 S
C3200 C3201 1.391 . S
C3200 C3202 1.394 . S
C3200 H3216 0.931 . S
C3201 C3200 1.391 . S
C3201 C3205 1.376 . S
C3202 C3200 1.394 . S
C3202 C3203 1.369 . S
C3202 C3206 1.531 . S
C3203 C3202 1.369 . S
C3203 C3204 1.410 . S
C3203 C3211 1.503 1_554 S
C3204 C3203 1.410 . S
C3204 C3205 1.392 . S
C3204 C3207 1.511 1_554 S
C3205 C3201 1.376 . S
C3205 C3204 1.392 . S
C3205 H3217 0.929 . S
C3206 C3202 1.531 . S
C3206 H3218 0.960 . S
C3206 H3219 0.962 . S
C3206 H3220 0.960 . S
C3207 C3204 1.511 1_556 S
C3207 H3221 0.961 . S
C3207 H3222 0.961 . S
C3207 H3223 0.961 . S
C3208 C3209 1.370 . S
C3208 C3210 1.363 . S
C3208 H3224 0.931 . S
C3209 C3208 1.370 . S
C3209 C3213 1.408 . S
C3210 C3208 1.363 . S
C3210 C3211 1.370 . S
C3210 C3214 1.524 . S
C3211 C3203 1.503 1_556 S
C3211 C3210 1.370 . S
C3211 C3212 1.403 . S
C3212 C3211 1.403 . S
C3212 C3213 1.404 . S
C3212 C3215 1.539 . S
C3213 C3209 1.408 . S
C3213 C3212 1.404 . S
C3213 H3225 0.930 . S
C3214 C3210 1.524 . S
C3214 H3226 0.899 1_556 S
C3214 H3227 0.961 . S
C3214 H3228 0.961 . S
C3215 C3212 1.539 . S
C3215 H3229 0.958 1_556 S
C3215 H3230 0.961 1_565 S
C3215 H3231 0.938 1_556 S
H3216 C3200 0.931 . S
H3217 C3205 0.929 . S
H3218 C3206 0.960 . S
H3219 C3206 0.962 . S
H3220 C3206 0.960 . S
H3221 C3207 0.961 . S
H3222 C3207 0.961 . S
H3223 C3207 0.961 . S
H3224 C3208 0.931 . S
H3225 C3213 0.930 . S
H3226 C3214 0.899 1_554 S
H3227 C3214 0.961 . S
H3228 C3214 0.961 . S
H3229 C3215 0.958 1_554 S
H3230 C3215 0.961 1_545 S
H3231 C3215 0.938 1_554 S
C3232 C3233 1.391 . S
C3232 C3234 1.394 . S
C3232 H3248 0.931 . S
C3233 C3232 1.391 . S
C3233 C3237 1.376 . S
C3234 C3232 1.394 . S
C3234 C3235 1.369 . S
C3234 C3238 1.531 . S
C3235 C3234 1.369 . S
C3235 C3236 1.410 . S
C3235 C3243 1.503 1_545 S
C3236 C3235 1.410 . S
C3236 C3237 1.392 . S
C3236 C3239 1.511 1_545 S
C3237 C3233 1.376 . S
C3237 C3236 1.392 . S
C3237 H3249 0.929 . S
C3238 C3234 1.531 . S
C3238 H3250 0.960 . S
C3238 H3251 0.962 . S
C3238 H3252 0.960 . S
C3239 C3236 1.511 1_565 S
C3239 H3253 0.961 . S
C3239 H3254 0.961 . S
C3239 H3255 0.961 1_565 S
C3240 C3241 1.370 . S
C3240 C3242 1.363 . S
C3240 H3256 0.931 . S
C3241 C3240 1.370 . S
C3241 C3245 1.408 . S
C3242 C3240 1.363 . S
C3242 C3243 1.370 . S
C3242 C3246 1.524 . S
C3243 C3235 1.503 1_565 S
C3243 C3242 1.370 . S
C3243 C3244 1.403 1_565 S
C3244 C3243 1.403 1_545 S
C3244 C3245 1.404 1_545 S
C3244 C3247 1.539 . S
C3245 C3241 1.408 . S
C3245 C3244 1.404 1_565 S
C3245 H3257 0.930 . S
C3246 C3242 1.524 . S
C3246 H3258 0.956 . S
C3246 H3259 0.961 . S
C3246 H3260 0.961 . S
C3247 C3244 1.539 . S
C3247 H3261 0.958 . S
C3247 H3262 0.961 . S
C3247 H3263 0.960 . S
H3248 C3232 0.931 . S
H3249 C3237 0.929 . S
H3250 C3238 0.960 . S
H3251 C3238 0.962 . S
H3252 C3238 0.960 . S
H3253 C3239 0.961 . S
H3254 C3239 0.961 . S
H3255 C3239 0.961 1_545 S
H3256 C3240 0.931 . S
H3257 C3245 0.930 . S
H3258 C3246 0.956 . S
H3259 C3246 0.961 . S
H3260 C3246 0.961 . S
H3261 C3247 0.958 . S
H3262 C3247 0.961 . S
H3263 C3247 0.960 . S
C3264 C3265 1.391 . S
C3264 C3266 1.394 . S
C3264 H3280 0.931 . S
C3265 C3264 1.391 . S
C3265 C3269 1.376 . S
C3266 C3264 1.394 . S
C3266 C3267 1.369 . S
C3266 C3270 1.531 . S
C3267 C3266 1.369 . S
C3267 C3268 1.410 . S
C3267 C3275 1.503 . S
C3268 C3267 1.410 . S
C3268 C3269 1.392 . S
C3268 C3271 1.511 . S
C3269 C3265 1.376 . S
C3269 C3268 1.392 . S
C3269 H3281 0.929 . S
C3270 C3266 1.531 . S
C3270 H3282 0.960 . S
C3270 H3283 0.962 . S
C3270 H3284 0.960 . S
C3271 C3268 1.511 . S
C3271 H3285 0.961 1_565 S
C3271 H3286 0.961 . S
C3271 H3287 0.961 . S
C3272 C3273 1.370 . S
C3272 C3274 1.363 . S
C3272 H3288 0.931 . S
C3273 C3272 1.370 . S
C3273 C3277 1.408 . S
C3274 C3272 1.363 . S
C3274 C3275 1.370 . S
C3274 C3278 1.524 . S
C3275 C3267 1.503 . S
C3275 C3274 1.370 . S
C3275 C3276 1.403 . S
C3276 C3275 1.403 . S
C3276 C3277 1.404 . S
C3276 C3279 1.539 . S
C3277 C3273 1.408 . S
C3277 C3276 1.404 . S
C3277 H3289 0.930 . S
C3278 C3274 1.524 . S
C3278 H3290 0.956 . S
C3278 H3291 0.961 . S
C3278 H3292 0.961 . S
C3279 C3276 1.539 . S
C3279 H3293 0.958 . S
C3279 H3294 0.961 . S
C3279 H3295 0.960 . S
H3280 C3264 0.931 . S
H3281 C3269 0.929 . S
H3282 C3270 0.960 . S
H3283 C3270 0.962 . S
H3284 C3270 0.960 . S
H3285 C3271 0.961 1_545 S
H3286 C3271 0.961 . S
H3287 C3271 0.961 . S
H3288 C3272 0.931 . S
H3289 C3277 0.930 . S
H3290 C3278 0.956 . S
H3291 C3278 0.961 . S
H3292 C3278 0.961 . S
H3293 C3279 0.958 . S
H3294 C3279 0.961 . S
H3295 C3279 0.960 . S
C3296 C3297 1.391 . S
C3296 C3298 1.394 1_565 S
C3296 H3312 0.931 . S
C3297 C3296 1.391 . S
C3297 C3301 1.376 . S
C3298 C3296 1.394 1_545 S
C3298 C3299 1.369 1_545 S
C3298 C3302 1.531 . S
C3299 C3298 1.369 1_565 S
C3299 C3300 1.410 . S
C3299 C3307 1.503 1_565 S
C3300 C3299 1.410 . S
C3300 C3301 1.392 . S
C3300 C3303 1.511 . S
C3301 C3297 1.376 . S
C3301 C3300 1.392 . S
C3301 H3313 0.929 . S
C3302 C3298 1.531 . S
C3302 H3314 0.960 . S
C3302 H3315 0.962 . S
C3302 H3316 0.960 . S
C3303 C3300 1.511 . S
C3303 H3317 0.961 . S
C3303 H3318 0.961 . S
C3303 H3319 0.961 . S
C3304 C3305 1.370 . S
C3304 C3306 1.374 . S
C3304 H3320 0.931 . S
C3305 C3304 1.370 . S
C3305 C3309 1.408 . S
C3306 C3304 1.374 . S
C3306 C3307 1.379 . S
C3306 C3310 1.506 1_545 S
C3307 C3299 1.503 1_545 S
C3307 C3306 1.379 . S
C3307 C3308 1.403 . S
C3308 C3307 1.403 . S
C3308 C3309 1.404 . S
C3308 C3311 1.539 . S
C3309 C3305 1.408 . S
C3309 C3308 1.404 . S
C3309 H3321 0.930 . S
C3310 C3306 1.506 1_565 S
C3310 H3322 0.956 . S
C3310 H3323 0.961 . S
C3310 H3324 0.961 . S
C3311 C3308 1.539 . S
C3311 H3325 0.958 . S
C3311 H3326 0.961 . S
C3311 H3327 0.960 . S
H3312 C3296 0.931 . S
H3313 C3301 0.929 . S
H3314 C3302 0.960 . S
H3315 C3302 0.962 . S
H3316 C3302 0.960 . S
H3317 C3303 0.961 . S
H3318 C3303 0.961 . S
H3319 C3303 0.961 . S
H3320 C3304 0.931 . S
H3321 C3309 0.930 . S
H3322 C3310 0.956 . S
H3323 C3310 0.961 . S
H3324 C3310 0.961 . S
H3325 C3311 0.958 . S
H3326 C3311 0.961 . S
H3327 C3311 0.960 . S
C3328 C3329 1.391 . S
C3328 C3330 1.394 . S
C3328 H3344 0.931 . S
C3329 C3328 1.391 . S
C3329 C3333 1.376 . S
C3330 C3328 1.394 . S
C3330 C3331 1.369 . S
C3330 C3334 1.531 . S
C3331 C3330 1.369 . S
C3331 C3332 1.410 . S
C3331 C3339 1.503 1_556 S
C3332 C3331 1.410 . S
C3332 C3333 1.392 . S
C3332 C3335 1.511 1_556 S
C3333 C3329 1.376 . S
C3333 C3332 1.392 . S
C3333 H3345 0.929 . S
C3334 C3330 1.531 . S
C3334 H3346 0.960 . S
C3334 H3347 0.962 . S
C3334 H3348 0.960 . S
C3335 C3332 1.511 1_554 S
C3335 H3349 0.961 . S
C3335 H3350 0.961 . S
C3335 H3351 0.961 . S
C3336 C3337 1.370 . S
C3336 C3338 1.363 . S
C3336 H3352 0.931 . S
C3337 C3336 1.370 . S
C3337 C3341 1.408 . S
C3338 C3336 1.363 . S
C3338 C3339 1.370 . S
C3338 C3342 1.556 . S
C3339 C3331 1.503 1_554 S
C3339 C3338 1.370 . S
C3339 C3340 1.403 . S
C3340 C3339 1.403 . S
C3340 C3341 1.404 . S
C3340 C3343 1.539 . S
C3341 C3337 1.408 . S
C3341 C3340 1.404 . S
C3341 H3353 0.930 . S
C3342 C3338 1.556 . S
C3342 H3354 0.911 1_554 S
C3342 H3355 0.947 1_554 S
C3342 H3356 0.984 . S
C3343 C3340 1.539 . S
C3343 H3357 0.958 . S
C3343 H3358 0.961 . S
C3343 H3359 0.960 . S
H3344 C3328 0.931 . S
H3345 C3333 0.929 . S
H3346 C3334 0.960 . S
H3347 C3334 0.962 . S
H3348 C3334 0.960 . S
H3349 C3335 0.961 . S
H3350 C3335 0.961 . S
H3351 C3335 0.961 . S
H3352 C3336 0.931 . S
H3353 C3341 0.930 . S
H3354 C3342 0.911 1_556 S
H3355 C3342 0.947 1_556 S
H3356 C3342 0.984 . S
H3357 C3343 0.958 . S
H3358 C3343 0.961 . S
H3359 C3343 0.960 . S
C3360 C3361 1.391 . S
C3360 C3362 1.394 . S
C3360 H3376 0.931 . S
C3361 C3360 1.391 . S
C3361 C3365 1.376 . S
C3362 C3360 1.394 . S
C3362 C3363 1.369 . S
C3362 C3366 1.531 . S
C3363 C3362 1.369 . S
C3363 C3364 1.410 . S
C3363 C3371 1.503 . S
C3364 C3363 1.410 . S
C3364 C3365 1.392 . S
C3364 C3367 1.511 . S
C3365 C3361 1.376 . S
C3365 C3364 1.392 . S
C3365 H3377 0.929 . S
C3366 C3362 1.531 . S
C3366 H3378 0.960 . S
C3366 H3379 0.962 . S
C3366 H3380 0.960 . S
C3367 C3364 1.511 . S
C3367 H3381 0.961 . S
C3367 H3382 0.961 . S
C3367 H3383 0.961 . S
C3368 C3369 1.370 . S
C3368 C3370 1.363 . S
C3368 H3384 0.931 . S
C3369 C3368 1.370 . S
C3369 C3373 1.408 . S
C3370 C3368 1.363 . S
C3370 C3371 1.370 . S
C3370 C3374 1.524 . S
C3371 C3363 1.503 . S
C3371 C3370 1.370 . S
C3371 C3372 1.403 . S
C3372 C3371 1.403 . S
C3372 C3373 1.404 . S
C3372 C3375 1.539 . S
C3373 C3369 1.408 . S
C3373 C3372 1.404 . S
C3373 H3385 0.930 . S
C3374 C3370 1.524 . S
C3374 H3386 0.956 . S
C3374 H3387 0.961 . S
C3374 H3388 0.961 . S
C3375 C3372 1.539 . S
C3375 H3389 0.958 . S
C3375 H3390 0.961 . S
C3375 H3391 0.960 . S
H3376 C3360 0.931 . S
H3377 C3365 0.929 . S
H3378 C3366 0.960 . S
H3379 C3366 0.962 . S
H3380 C3366 0.960 . S
H3381 C3367 0.961 . S
H3382 C3367 0.961 . S
H3383 C3367 0.961 . S
H3384 C3368 0.931 . S
H3385 C3373 0.930 . S
H3386 C3374 0.956 . S
H3387 C3374 0.961 . S
H3388 C3374 0.961 . S
H3389 C3375 0.958 . S
H3390 C3375 0.961 . S
H3391 C3375 0.960 . S
C3392 C3393 1.391 . S
C3392 C3394 1.394 . S
C3392 H3408 0.931 . S
C3393 C3392 1.391 . S
C3393 C3397 1.376 . S
C3394 C3392 1.394 . S
C3394 C3395 1.369 . S
C3394 C3398 1.531 1_556 S
C3395 C3394 1.369 . S
C3395 C3396 1.410 . S
C3395 C3403 1.503 1_556 S
C3396 C3395 1.410 . S
C3396 C3397 1.392 . S
C3396 C3399 1.511 . S
C3397 C3393 1.376 . S
C3397 C3396 1.392 . S
C3397 H3409 0.929 . S
C3398 C3394 1.531 1_554 S
C3398 H3410 0.960 . S
C3398 H3411 0.962 . S
C3398 H3412 0.960 . S
C3399 C3396 1.511 . S
C3399 H3413 0.961 . S
C3399 H3414 0.961 . S
C3399 H3415 0.961 . S
C3400 C3401 1.370 . S
C3400 C3402 1.363 . S
C3400 H3416 0.931 . S
C3401 C3400 1.370 . S
C3401 C3405 1.408 . S
C3402 C3400 1.363 . S
C3402 C3403 1.370 . S
C3402 C3406 1.524 . S
C3403 C3395 1.503 1_554 S
C3403 C3402 1.370 . S
C3403 C3404 1.403 . S
C3404 C3403 1.403 . S
C3404 C3405 1.404 . S
C3404 C3407 1.539 . S
C3405 C3401 1.408 . S
C3405 C3404 1.404 . S
C3405 H3417 0.930 . S
C3406 C3402 1.524 . S
C3406 H3418 0.956 . S
C3406 H3419 0.980 . S
C3406 H3420 0.961 . S
C3407 C3404 1.539 . S
C3407 H3421 0.958 . S
C3407 H3422 0.961 . S
C3407 H3423 0.960 1_554 S
H3408 C3392 0.931 . S
H3409 C3397 0.929 . S
H3410 C3398 0.960 . S
H3411 C3398 0.962 . S
H3412 C3398 0.960 . S
H3413 C3399 0.961 . S
H3414 C3399 0.961 . S
H3415 C3399 0.961 . S
H3416 C3400 0.931 . S
H3417 C3405 0.930 . S
H3418 C3406 0.956 . S
H3419 C3406 0.980 . S
H3420 C3406 0.961 . S
H3421 C3407 0.958 . S
H3422 C3407 0.961 . S
H3423 C3407 0.960 1_556 S
C3424 C3425 1.391 . S
C3424 C3426 1.394 . S
C3424 H3440 0.931 . S
C3425 C3424 1.391 . S
C3425 C3429 1.376 . S
C3426 C3424 1.394 . S
C3426 C3427 1.369 . S
C3426 C3430 1.531 . S
C3427 C3426 1.369 . S
C3427 C3428 1.410 . S
C3427 C3435 1.503 . S
C3428 C3427 1.410 . S
C3428 C3429 1.392 . S
C3428 C3431 1.511 . S
C3429 C3425 1.376 . S
C3429 C3428 1.392 . S
C3429 H3441 0.929 . S
C3430 C3426 1.531 . S
C3430 H3442 0.960 . S
C3430 H3443 0.962 . S
C3430 H3444 0.960 . S
C3431 C3428 1.511 . S
C3431 H3445 0.961 . S
C3431 H3446 0.961 . S
C3431 H3447 0.961 . S
C3432 C3433 1.370 . S
C3432 C3434 1.363 . S
C3432 H3448 0.931 . S
C3433 C3432 1.370 . S
C3433 C3437 1.408 . S
C3434 C3432 1.363 . S
C3434 C3435 1.370 . S
C3434 C3438 1.524 . S
C3435 C3427 1.503 . S
C3435 C3434 1.370 . S
C3435 C3436 1.403 . S
C3436 C3435 1.403 . S
C3436 C3437 1.404 . S
C3436 C3439 1.539 . S
C3437 C3433 1.408 . S
C3437 C3436 1.404 . S
C3437 H3449 0.930 . S
C3438 C3434 1.524 . S
C3438 H3450 0.956 . S
C3438 H3451 0.961 . S
C3438 H3452 0.961 . S
C3439 C3436 1.539 . S
C3439 H3453 0.958 . S
C3439 H3454 0.961 . S
C3439 H3455 0.960 . S
H3440 C3424 0.931 . S
H3441 C3429 0.929 . S
H3442 C3430 0.960 . S
H3443 C3430 0.962 . S
H3444 C3430 0.960 . S
H3445 C3431 0.961 . S
H3446 C3431 0.961 . S
H3447 C3431 0.961 . S
H3448 C3432 0.931 . S
H3449 C3437 0.930 . S
H3450 C3438 0.956 . S
H3451 C3438 0.961 . S
H3452 C3438 0.961 . S
H3453 C3439 0.958 . S
H3454 C3439 0.961 . S
H3455 C3439 0.960 . S
C3456 C3457 1.391 . S
C3456 C3458 1.394 . S
C3456 H3472 0.931 . S
C3457 C3456 1.391 . S
C3457 C3461 1.376 . S
C3458 C3456 1.394 . S
C3458 C3459 1.369 . S
C3458 C3462 1.531 . S
C3459 C3458 1.369 . S
C3459 C3460 1.410 . S
C3459 C3467 1.503 . S
C3460 C3459 1.410 . S
C3460 C3461 1.392 . S
C3460 C3463 1.511 . S
C3461 C3457 1.376 . S
C3461 C3460 1.392 . S
C3461 H3473 0.929 . S
C3462 C3458 1.531 . S
C3462 H3474 0.960 . S
C3462 H3475 0.962 . S
C3462 H3476 0.960 . S
C3463 C3460 1.511 . S
C3463 H3477 0.961 . S
C3463 H3478 0.961 . S
C3463 H3479 0.961 . S
C3464 C3465 1.370 . S
C3464 C3466 1.363 . S
C3464 H3480 0.931 . S
C3465 C3464 1.370 . S
C3465 C3469 1.408 . S
C3466 C3464 1.363 . S
C3466 C3467 1.370 . S
C3466 C3470 1.524 . S
C3467 C3459 1.503 . S
C3467 C3466 1.370 . S
C3467 C3468 1.403 . S
C3468 C3467 1.403 . S
C3468 C3469 1.404 . S
C3468 C3471 1.539 . S
C3469 C3465 1.408 . S
C3469 C3468 1.404 . S
C3469 H3481 0.930 . S
C3470 C3466 1.524 . S
C3470 H3482 0.956 . S
C3470 H3483 0.961 . S
C3470 H3484 0.961 . S
C3471 C3468 1.539 . S
C3471 H3485 0.958 . S
C3471 H3486 0.961 . S
C3471 H3487 0.960 . S
H3472 C3456 0.931 . S
H3473 C3461 0.929 . S
H3474 C3462 0.960 . S
H3475 C3462 0.962 . S
H3476 C3462 0.960 . S
H3477 C3463 0.961 . S
H3478 C3463 0.961 . S
H3479 C3463 0.961 . S
H3480 C3464 0.931 . S
H3481 C3469 0.930 . S
H3482 C3470 0.956 . S
H3483 C3470 0.961 . S
H3484 C3470 0.961 . S
H3485 C3471 0.958 . S
H3486 C3471 0.961 . S
H3487 C3471 0.960 . S
C3488 C3489 1.391 . S
C3488 C3490 1.394 . S
C3488 H3504 0.931 . S
C3489 C3488 1.391 . S
C3489 C3493 1.376 . S
C3490 C3488 1.394 . S
C3490 C3491 1.369 . S
C3490 C3494 1.531 . S
C3491 C3490 1.369 . S
C3491 C3492 1.410 . S
C3491 C3499 1.503 . S
C3492 C3491 1.410 . S
C3492 C3493 1.392 . S
C3492 C3495 1.511 . S
C3493 C3489 1.376 . S
C3493 C3492 1.392 . S
C3493 H3505 0.929 . S
C3494 C3490 1.531 . S
C3494 H3506 0.960 . S
C3494 H3507 0.962 . S
C3494 H3508 0.960 . S
C3495 C3492 1.511 . S
C3495 H3509 0.961 . S
C3495 H3510 0.961 . S
C3495 H3511 0.961 . S
C3496 C3497 1.370 . S
C3496 C3498 1.363 . S
C3496 H3512 0.931 . S
C3497 C3496 1.370 . S
C3497 C3501 1.408 . S
C3498 C3496 1.363 . S
C3498 C3499 1.370 . S
C3498 C3502 1.524 . S
C3499 C3491 1.503 . S
C3499 C3498 1.370 . S
C3499 C3500 1.403 . S
C3500 C3499 1.403 . S
C3500 C3501 1.404 . S
C3500 C3503 1.539 . S
C3501 C3497 1.408 . S
C3501 C3500 1.404 . S
C3501 H3513 0.930 . S
C3502 C3498 1.524 . S
C3502 H3514 0.956 . S
C3502 H3515 0.961 . S
C3502 H3516 0.961 . S
C3503 C3500 1.539 . S
C3503 H3517 0.958 . S
C3503 H3518 0.961 . S
C3503 H3519 0.960 . S
H3504 C3488 0.931 . S
H3505 C3493 0.929 . S
H3506 C3494 0.960 . S
H3507 C3494 0.962 . S
H3508 C3494 0.960 . S
H3509 C3495 0.961 . S
H3510 C3495 0.961 . S
H3511 C3495 0.961 . S
H3512 C3496 0.931 . S
H3513 C3501 0.930 . S
H3514 C3502 0.956 . S
H3515 C3502 0.961 . S
H3516 C3502 0.961 . S
H3517 C3503 0.958 . S
H3518 C3503 0.961 . S
H3519 C3503 0.960 . S
C3520 C3521 1.391 . S
C3520 C3522 1.394 . S
C3520 H3536 0.931 . S
C3521 C3520 1.391 . S
C3521 C3525 1.376 . S
C3522 C3520 1.394 . S
C3522 C3523 1.369 . S
C3522 C3526 1.531 . S
C3523 C3522 1.369 . S
C3523 C3524 1.410 . S
C3523 C3531 1.503 1_556 S
C3524 C3523 1.410 . S
C3524 C3525 1.392 . S
C3524 C3527 1.511 . S
C3525 C3521 1.376 . S
C3525 C3524 1.392 . S
C3525 H3537 0.929 . S
C3526 C3522 1.531 . S
C3526 H3538 0.960 . S
C3526 H3539 0.962 . S
C3526 H3540 0.960 . S
C3527 C3524 1.511 . S
C3527 H3541 0.961 . S
C3527 H3542 0.961 1_556 S
C3527 H3543 0.961 . S
C3528 C3529 1.370 . S
C3528 C3530 1.363 . S
C3528 H3544 0.931 . S
C3529 C3528 1.370 . S
C3529 C3533 1.408 . S
C3530 C3528 1.363 . S
C3530 C3531 1.370 . S
C3530 C3534 1.524 . S
C3531 C3523 1.503 1_554 S
C3531 C3530 1.370 . S
C3531 C3532 1.403 . S
C3532 C3531 1.403 . S
C3532 C3533 1.404 . S
C3532 C3535 1.539 1_554 S
C3533 C3529 1.408 . S
C3533 C3532 1.404 . S
C3533 H3545 0.930 . S
C3534 C3530 1.524 . S
C3534 H3546 0.956 . S
C3534 H3547 0.961 . S
C3534 H3548 0.961 . S
C3535 C3532 1.539 1_556 S
C3535 H3549 0.958 . S
C3535 H3550 0.961 . S
C3535 H3551 0.960 . S
H3536 C3520 0.931 . S
H3537 C3525 0.929 . S
H3538 C3526 0.960 . S
H3539 C3526 0.962 . S
H3540 C3526 0.960 . S
H3541 C3527 0.961 . S
H3542 C3527 0.961 1_554 S
H3543 C3527 0.961 . S
H3544 C3528 0.931 . S
H3545 C3533 0.930 . S
H3546 C3534 0.956 . S
H3547 C3534 0.961 . S
H3548 C3534 0.961 . S
H3549 C3535 0.958 . S
H3550 C3535 0.961 . S
H3551 C3535 0.960 . S
C3552 C3553 1.391 . S
C3552 C3554 1.394 . S
C3552 H3568 0.931 . S
C3553 C3552 1.391 . S
C3553 C3557 1.376 . S
C3554 C3552 1.394 . S
C3554 C3555 1.369 . S
C3554 C3558 1.531 . S
C3555 C3554 1.369 . S
C3555 C3556 1.410 . S
C3555 C3563 1.503 . S
C3556 C3555 1.410 . S
C3556 C3557 1.392 . S
C3556 C3559 1.511 . S
C3557 C3553 1.376 . S
C3557 C3556 1.392 . S
C3557 H3569 0.929 . S
C3558 C3554 1.531 . S
C3558 H3570 0.960 . S
C3558 H3571 0.962 . S
C3558 H3572 0.960 . S
C3559 C3556 1.511 . S
C3559 H3573 0.961 . S
C3559 H3574 0.961 . S
C3559 H3575 0.961 . S
C3560 C3561 1.370 . S
C3560 C3562 1.363 . S
C3560 H3576 0.931 . S
C3561 C3560 1.370 . S
C3561 C3565 1.408 . S
C3562 C3560 1.363 . S
C3562 C3563 1.370 . S
C3562 C3566 1.524 . S
C3563 C3555 1.503 . S
C3563 C3562 1.370 . S
C3563 C3564 1.403 . S
C3564 C3563 1.403 . S
C3564 C3565 1.404 . S
C3564 C3567 1.539 . S
C3565 C3561 1.408 . S
C3565 C3564 1.404 . S
C3565 H3577 0.930 . S
C3566 C3562 1.524 . S
C3566 H3578 0.956 . S
C3566 H3579 0.961 . S
C3566 H3580 0.961 . S
C3567 C3564 1.539 . S
C3567 H3581 0.958 . S
C3567 H3582 0.961 . S
C3567 H3583 0.960 . S
H3568 C3552 0.931 . S
H3569 C3557 0.929 . S
H3570 C3558 0.960 . S
H3571 C3558 0.962 . S
H3572 C3558 0.960 . S
H3573 C3559 0.961 . S
H3574 C3559 0.961 . S
H3575 C3559 0.961 . S
H3576 C3560 0.931 . S
H3577 C3565 0.930 . S
H3578 C3566 0.956 . S
H3579 C3566 0.961 . S
H3580 C3566 0.961 . S
H3581 C3567 0.958 . S
H3582 C3567 0.961 . S
H3583 C3567 0.960 . S
C3584 C3585 1.391 . S
C3584 C3586 1.394 . S
C3584 H3600 0.931 . S
C3585 C3584 1.391 . S
C3585 C3589 1.376 . S
C3586 C3584 1.394 . S
C3586 C3587 1.369 . S
C3586 C3590 1.531 . S
C3587 C3586 1.369 . S
C3587 C3588 1.410 . S
C3587 C3595 1.503 . S
C3588 C3587 1.410 . S
C3588 C3589 1.392 . S
C3588 C3591 1.511 . S
C3589 C3585 1.376 . S
C3589 C3588 1.392 . S
C3589 H3601 0.929 . S
C3590 C3586 1.531 . S
C3590 H3602 0.960 . S
C3590 H3603 0.962 . S
C3590 H3604 0.960 . S
C3591 C3588 1.511 . S
C3591 H3605 0.961 . S
C3591 H3606 0.961 . S
C3591 H3607 0.961 . S
C3592 C3593 1.370 . S
C3592 C3594 1.363 . S
C3592 H3608 0.931 . S
C3593 C3592 1.370 . S
C3593 C3597 1.408 . S
C3594 C3592 1.363 . S
C3594 C3595 1.370 . S
C3594 C3598 1.524 . S
C3595 C3587 1.503 . S
C3595 C3594 1.370 . S
C3595 C3596 1.403 . S
C3596 C3595 1.403 . S
C3596 C3597 1.404 . S
C3596 C3599 1.539 . S
C3597 C3593 1.408 . S
C3597 C3596 1.404 . S
C3597 H3609 0.930 . S
C3598 C3594 1.524 . S
C3598 H3610 0.956 . S
C3598 H3611 0.961 . S
C3598 H3612 0.961 . S
C3599 C3596 1.539 . S
C3599 H3613 0.958 . S
C3599 H3614 0.961 . S
C3599 H3615 0.960 . S
H3600 C3584 0.931 . S
H3601 C3589 0.929 . S
H3602 C3590 0.960 . S
H3603 C3590 0.962 . S
H3604 C3590 0.960 . S
H3605 C3591 0.961 . S
H3606 C3591 0.961 . S
H3607 C3591 0.961 . S
H3608 C3592 0.931 . S
H3609 C3597 0.930 . S
H3610 C3598 0.956 . S
H3611 C3598 0.961 . S
H3612 C3598 0.961 . S
H3613 C3599 0.958 . S
H3614 C3599 0.961 . S
H3615 C3599 0.960 . S
C1057 C18 1.164 1_565 S
C1065 C945 1.105 . S
C1089 C51 1.165 . S
C1097 C450 1.102 1_545 S
C1121 C84 1.143 1_545 S
C1129 C1011 1.128 . S
C1153 C117 1.141 . S
C1161 C516 1.136 1_465 S
C1185 C813 1.140 . S
C1193 C150 1.153 1_545 S
C1217 C183 1.152 . S
C1225 C318 1.123 1_445 S
C1249 C216 1.139 1_565 S
C1257 C879 1.134 . S
C1281 C384 1.144 1_565 S
C1289 C249 1.151 . S
C1313 C681 1.087 . S
C1321 C282 1.160 1_545 S
C1345 C315 1.165 . S
C1353 C186 1.107 1_565 S
C1377 C348 1.153 1_565 S
C1385 C747 1.107 . S
C1409 C252 1.084 1_645 S
C1417 C381 1.161 . S
C1441 C549 1.093 . S
C1449 C414 1.160 1_565 S
C1473 C54 1.089 1_665 S
C1481 C447 1.157 . S
C1505 C480 1.164 1_545 S
C1513 C615 1.106 . S
C1537 C513 1.165 . S
C1545 C120 1.102 1_545 S
C1569 C546 1.164 . S
C1577 C417 1.100 . S
C1601 C978 1.123 1_655 S
C1609 C579 1.156 . S
C1633 C483 1.097 . S
C1641 C612 1.157 . S
C1665 C1044 1.121 . S
C1673 C645 1.156 . S
C1697 C285 1.085 . S
C1705 C678 1.159 . S
C1729 C711 1.160 . S
C1737 C846 1.112 . S
C1761 C351 1.112 . S
C1769 C744 1.155 . S
C1793 C912 1.126 1_655 S
C1801 C777 1.156 . S
C1825 C153 1.086 . S
C1833 C810 1.160 . S
C1857 C714 1.144 1_455 S
C1865 C843 1.151 . S
C1889 C219 1.124 . S
C1897 C876 1.152 . S
C1921 C780 1.112 . S
C1929 C909 1.153 . S
C1953 C21 1.130 . S
C1961 C942 1.151 . S
C1985 C582 1.074 . S
C1993 C975 1.160 . S
C2017 C1008 1.165 . S
C2025 C87 1.105 . S
C2049 C648 1.102 1_455 S
C2057 C1041 1.160 . S
C2081 C601 0.741 . S
C2089 C7 0.622 . S
C2113 C40 0.610 . S
C2121 C634 0.680 . S
C2145 C535 0.752 . S
C2153 C73 0.595 . S
C2177 C106 0.705 . S
C2185 C568 0.607 . S
C2209 C733 0.622 . S
C2217 C139 0.640 . S
C2241 C766 0.596 . S
C2249 C172 0.651 . S
C2273 C205 0.684 . S
C2281 C667 0.653 . S
C2305 C700 0.734 . S
C2313 C238 0.627 . S
C2337 C271 0.702 . S
C2345 C865 0.629 . S
C2369 C304 0.755 . S
C2377 C898 0.601 . S
C2401 C799 0.532 . S
C2409 C337 0.691 . S
C2433 C832 0.762 . S
C2441 C370 0.595 . S
C2465 C403 0.642 . S
C2473 C997 0.647 . S
C2497 C1030 0.590 . S
C2505 C436 0.669 . S
C2529 C931 0.758 . S
C2537 C469 0.599 . S
C2561 C964 0.570 . S
C2569 C502 0.682 . S
C2593 N2 1.537 . S
C2601 N167 1.562 . S
C2625 N35 1.524 . S
C2633 N200 1.547 . S
C2657 N68 1.542 . S
C2665 N233 1.564 . S
C2689 N101 1.545 . S
C2697 N134 1.547 . S
C2721 N266 1.536 . S
C2729 N431 1.557 . S
C2753 N464 1.523 . S
C2761 N299 1.546 . S
C2785 N497 1.535 . S
C2793 N332 1.556 . S
C2817 N398 1.529 . S
C2825 N365 1.546 . S
C2849 N530 1.568 . S
C2857 N695 1.554 . S
C2881 N563 1.587 . S
C2889 N728 1.571 . S
C2913 N761 1.588 . S
C2921 N596 1.571 . S
C2945 N662 1.538 . S
C2953 N629 1.562 . S
C2977 N794 1.524 . S
C2985 N959 1.550 . S
C3009 N992 1.588 . S
C3017 N827 1.570 . S
C3041 N1025 1.552 . S
C3049 N860 1.564 . S
C3073 N893 1.554 . S
C3081 N926 1.565 . S
C3105 N145 1.678 . S
C3113 N13 1.682 . S
C3137 N46 1.690 . S
C3145 N178 1.684 . S
C3169 N79 1.690 . S
C3177 N211 1.684 . S
C3201 N112 1.689 . S
C3209 N244 1.684 . S
C3233 N409 1.682 . S
C3241 N277 1.681 . S
C3265 N310 1.677 . S
C3273 N442 1.678 . S
C3297 N475 1.662 . S
C3305 N343 1.674 . S
C3329 N376 1.659 . S
C3337 N508 1.671 . S
C3361 N541 1.672 . S
C3369 N673 1.680 . S
C3393 N706 1.658 . S
C3401 N574 1.673 . S
C3425 N739 1.678 . S
C3433 N607 1.677 . S
C3457 N772 1.687 . S
C3465 N640 1.681 . S
C3489 N805 1.673 . S
C3497 N937 1.678 . S
C3521 N838 1.669 . S
C3529 N970 1.677 . S
C3553 N871 1.666 . S
C3561 N1003 1.674 . S
C3585 N904 1.660 . S
C3593 N1036 1.672 . S
