# Generated by pormake.
# Topology kag, (6)-cn, num edge types: 1
# Building blocks:
#     Node 0, Type 0, BuildingBlock: BETFEN_clean_sbu_0, # of connection points: 6
#     Node 1, Type 0, BuildingBlock: BETFEN_clean_sbu_0, # of connection points: 6
#     Node 2, Type 0, BuildingBlock: BETFEN_clean_sbu_0, # of connection points: 6
#     Edge 3, Type (0, 0), BuildingBlock: XUDNAN_clean_linker_2, # of connection points: 2
#     Edge 4, Type (0, 0), BuildingBlock: XUDNAN_clean_linker_2, # of connection points: 2
#     Edge 5, Type (0, 0), BuildingBlock: XUDNAN_clean_linker_2, # of connection points: 2
#     Edge 6, Type (0, 0), BuildingBlock: XUDNAN_clean_linker_2, # of connection points: 2
#     Edge 7, Type (0, 0), BuildingBlock: XUDNAN_clean_linker_2, # of connection points: 2
#     Edge 8, Type (0, 0), BuildingBlock: XUDNAN_clean_linker_2, # of connection points: 2
#     Edge 9, Type (0, 0), BuildingBlock: XUDNAN_clean_linker_2, # of connection points: 2
#     Edge 10, Type (0, 0), BuildingBlock: XUDNAN_clean_linker_2, # of connection points: 2
#     Edge 11, Type (0, 0), BuildingBlock: XUDNAN_clean_linker_2, # of connection points: 2
# Relax obj value: 0.077
# Max RMSD: 0.196
# Mean RMSD: 0.102
data_MOF--net-kag--node1-BETFEN_clean_sbu_0--edge1-XUDNAN_clean_linker_2
_symmetry_space_group_name_H-M    P1
_symmetry_Int_Tables_number       1
_symmetry_cell_setting            triclinic
loop_
_symmetry_equiv_pos_as_xyz
'x, y, z'
_cell_length_a     31.568574
_cell_length_b     42.394383
_cell_length_c     14.722842
_cell_angle_alpha  95.233216
_cell_angle_beta   91.084746
_cell_angle_gamma 95.827289
loop_
_atom_site_label
_atom_site_type_symbol
_atom_site_fract_x
_atom_site_fract_y
_atom_site_fract_z
_atom_type_partial_charge
Pr0 Pr 1.05642 0.47445 1.00066 0.0
Pr1 Pr 0.06874 0.54967 0.99487 0.0
C2 C 1.05021 0.41231 0.02802 0.0
C3 C 1.01892 0.38409 0.006 0.0
C4 C 1.01059 0.3709 0.91555 0.0
C5 C 0.97952 0.34513 0.8959 0.0
C6 C 0.95595 0.33203 0.96611 0.0
C7 C 0.96481 0.34496 0.05666 0.0
C8 C 0.99604 0.37062 0.07635 0.0
C9 C 1.04058 0.49511 0.82856 0.0
C10 C 0.97134 0.51209 0.01264 0.0
C11 C 0.08067 0.60876 0.94033 0.0
C12 C 0.10716 0.63848 0.9705 0.0
C13 C 0.12544 0.64338 0.05888 0.0
C14 C 0.15127 0.6715 0.08654 0.0
C15 C 0.1595 0.69507 0.02601 0.0
C16 C 0.14147 0.68984 0.93711 0.0
C17 C 0.11546 0.66176 0.90968 0.0
C18 C 0.06867 0.53432 0.17828 0.0
C19 C 0.15571 0.51244 0.01785 0.0
O20 O 1.03854 0.43427 0.08795 0.0
O21 O 0.07115 0.42401 0.96049 0.0
O22 O 0.07058 0.50714 0.88348 0.0
O23 O 1.01857 0.47167 0.86258 0.0
O24 O 0.99339 0.53592 0.97586 0.0
O25 O 0.99059 0.48898 0.04437 0.0
O26 O 0.10124 0.58529 0.90665 0.0
O27 O 1.05013 0.59977 0.99432 0.0
O28 O 0.06524 0.51624 0.10581 0.0
O29 O 0.07425 0.56357 0.15745 0.0
O30 O 0.13011 0.48604 0.02384 0.0
O31 O 0.14106 0.53973 1.00255 0.0
H32 H 1.02777 0.3806 0.85969 0.0
H33 H 0.97408 0.33539 0.82558 0.0
H34 H 0.947 0.33571 0.11232 0.0
H35 H 1.00186 0.38028 0.14669 0.0
H36 H 0.11984 0.62542 0.10635 0.0
H37 H 0.16517 0.67464 0.155 0.0
H38 H 0.1469 0.70768 0.88924 0.0
H39 H 0.1018 0.65822 0.84097 0.0
Pr40 Pr 0.61328 0.02272 0.99594 0.0
Pr41 Pr 0.50902 0.99986 0.01997 0.0
C42 C 0.68747 0.04432 0.92609 0.0
C43 C 0.7115 0.07585 0.92279 0.0
C44 C 0.75563 0.07974 0.94019 0.0
C45 C 0.77874 0.10957 0.93726 0.0
C46 C 0.75807 0.13598 0.91618 0.0
C47 C 0.71379 0.13203 0.89942 0.0
C48 C 0.69068 0.10233 0.90324 0.0
C49 C 0.59085 0.01923 0.18113 0.0
C50 C 0.54393 0.07778 0.02308 0.0
C51 C 0.43421 0.98085 0.0926 0.0
C52 C 0.40505 0.95137 0.09507 0.0
C53 C 0.38123 0.93735 0.01747 0.0
C54 C 0.35374 0.90952 0.02217 0.0
C55 C 0.34953 0.89516 0.10446 0.0
C56 C 0.37372 0.90912 0.18163 0.0
C57 C 0.40097 0.93696 0.17705 0.0
C58 C 0.53 0.99844 0.83375 0.0
C59 C 0.57823 0.94489 0.98987 0.0
O60 O 0.65159 0.03911 0.87831 0.0
O61 O 0.68525 0.03309 0.00608 0.0
O62 O 0.56769 0.01493 0.10958 0.0
O63 O 0.6297 0.02728 0.15748 0.0
O64 O 0.51251 0.05578 0.03864 0.0
O65 O 0.58285 0.07108 1.00178 0.0
O66 O 0.47095 0.98155 0.13572 0.0
O67 O 0.43682 0.99436 0.01595 0.0
O68 O 0.55465 1.00683 0.90252 0.0
O69 O 0.49219 0.98973 0.86226 0.0
O70 O 0.60922 0.9668 0.97075 0.0
O71 O 0.54007 0.95179 0.01693 0.0
H72 H 0.77225 0.05965 0.95574 0.0
H73 H 0.81288 0.11185 0.94976 0.0
H74 H 0.69697 0.15199 0.88396 0.0
H75 H 0.65653 0.10011 0.89073 0.0
H76 H 0.38361 0.94789 0.95324 0.0
H77 H 0.3352 0.89962 0.96174 0.0
H78 H 0.37181 0.89845 0.2457 0.0
H79 H 0.41898 0.94724 0.23788 0.0
Pr80 Pr 0.56891 0.5472 0.00666 0.0
Pr81 Pr 0.55537 0.47567 1.00185 0.0
C82 C 0.57011 0.60982 0.98608 0.0
C83 C 0.5706 0.64441 0.97623 0.0
C84 C 0.5624 0.66574 0.05119 0.0
C85 C 0.56581 0.69863 0.04394 0.0
C86 C 0.57777 0.71102 0.96167 0.0
C87 C 0.58491 0.68956 0.88606 0.0
C88 C 0.5813 0.65667 0.89321 0.0
C89 C 0.57308 0.52376 0.17825 0.0
C90 C 0.47017 0.51143 0.02573 0.0
C91 C 0.55115 0.41246 0.01482 0.0
C92 C 0.54723 0.37739 0.0185 0.0
C93 C 0.51821 0.35781 0.95912 0.0
C94 C 0.51345 0.3248 0.96238 0.0
C95 C 0.53777 0.31038 0.02468 0.0
C96 C 0.5675 0.32984 0.08301 0.0
C97 C 0.57199 0.36307 0.08035 0.0
C98 C 0.54367 0.49791 0.83213 0.0
C99 C 0.65585 0.511 1.00334 0.0
O100 O 0.57437 0.58863 0.91729 0.0
O101 O 0.56461 0.59818 0.06465 0.0
O102 O 0.54629 0.51419 0.11509 0.0
O103 O 0.59946 0.54703 0.15498 0.0
O104 O 0.48958 0.48777 0.05342 0.0
O105 O 0.49268 0.53552 0.99119 0.0
O106 O 0.57068 0.43298 0.07772 0.0
O107 O 0.53435 0.42506 0.94683 0.0
O108 O 0.57446 0.50846 0.88686 0.0
O109 O 0.51853 0.47622 0.86593 0.0
O110 O 0.64109 0.53831 0.98973 0.0
O111 O 0.62968 0.48546 0.01537 0.0
H112 H 0.5541 0.65708 0.11619 0.0
H113 H 0.56041 0.71441 0.10373 0.0
H114 H 0.59356 0.69822 0.82126 0.0
H115 H 0.58772 0.64089 0.83412 0.0
H116 H 0.49874 0.36801 0.91039 0.0
H117 H 0.49068 0.31049 0.9157 0.0
H118 H 0.58655 0.31944 0.13206 0.0
H119 H 0.59473 0.37753 0.12672 0.0
H120 H 0.07728 0.54384 0.73013 0.0
H121 H 1.00309 0.45125 0.69901 0.0
H122 H 1.00401 0.45151 0.53259 0.0
H123 H 1.02289 0.5749 0.53987 0.0
H124 H 0.07015 0.59731 0.5036 0.0
H125 H 0.06483 0.59014 0.62184 0.0
H126 H 0.13612 0.56492 0.61828 0.0
H127 H 0.14157 0.57186 0.49992 0.0
H128 H 0.14291 0.53224 0.53434 0.0
H129 H 1.01492 0.45961 0.37066 0.0
H130 H 1.02927 0.47798 0.21941 0.0
H131 H 0.09238 0.5671 0.34694 0.0
C132 C 0.06121 0.52374 0.68803 0.0
C133 C 1.04034 0.49742 0.72817 0.0
C134 C 1.01931 0.4717 0.67059 0.0
C135 C 1.01974 0.47152 0.57555 0.0
C136 C 1.04071 0.4975 0.53805 0.0
C137 C 0.06052 0.52343 0.59192 0.0
C138 C 0.07928 0.54865 0.53238 0.0
C139 C 0.05801 0.57959 0.55051 0.0
C140 C 0.12786 0.55477 0.54713 0.0
C141 C 0.0674 0.53249 0.4372 0.0
C142 C 1.04549 0.50287 0.44281 0.0
C143 C 1.03187 0.48284 0.36527 0.0
C144 C 1.04045 0.49338 0.27945 0.0
C145 C 0.06209 0.52382 0.27104 0.0
C146 C 0.07568 0.54371 0.35125 0.0
H147 H 0.62135 0.04858 0.34956 0.0
H148 H 0.5343 0.97056 0.22422 0.0
H149 H 0.51225 0.95642 0.37649 0.0
H150 H 0.65465 1.00701 0.54177 0.0
H151 H 0.65771 0.04161 0.62336 0.0
H152 H 0.66689 0.04617 0.50455 0.0
H153 H 0.60783 0.08419 0.50202 0.0
H154 H 0.59876 0.07992 0.62093 0.0
H155 H 0.55524 0.07117 0.53848 0.0
H156 H 0.49859 0.95093 0.54028 0.0
H157 H 0.49198 0.95483 0.70682 0.0
H158 H 0.58918 0.03541 0.73501 0.0
C159 C 0.59751 0.02862 0.35454 0.0
C160 C 0.57814 1.01137 0.27443 0.0
C161 C 0.54769 0.98513 0.28393 0.0
C162 C 0.53565 0.97657 0.37047 0.0
C163 C 0.55469 0.99424 0.44789 0.0
C164 C 0.58501 0.01973 0.44125 0.0
C165 C 0.5999 0.03477 0.53637 0.0
C166 C 0.64763 0.03224 0.55243 0.0
C167 C 0.58982 0.06958 0.55025 0.0
C168 C 0.57295 0.01388 0.59724 0.0
C169 C 0.54737 0.99059 0.54394 0.0
C170 C 0.51864 0.96893 0.58258 0.0
C171 C 0.51518 0.97136 0.67766 0.0
C172 C 0.54032 0.99513 0.73473 0.0
C173 C 0.57018 0.0165 0.69375 0.0
H174 H 0.59902 0.53447 0.72712 0.0
H175 H 0.48412 0.46808 0.71253 0.0
H176 H 0.48226 0.4668 0.54636 0.0
H177 H 0.56495 0.57883 0.53872 0.0
H178 H 0.61774 0.58544 0.49496 0.0
H179 H 0.61086 0.58172 0.61489 0.0
H180 H 0.65973 0.5361 0.60628 0.0
H181 H 0.66632 0.53942 0.48609 0.0
H182 H 0.64682 0.50173 0.5254 0.0
H183 H 0.49401 0.46855 0.38525 0.0
H184 H 0.51281 0.47996 0.23032 0.0
H185 H 0.61739 0.54848 0.33885 0.0
C186 C 0.57339 0.51996 0.68863 0.0
C187 C 0.54206 0.50104 0.733 0.0
C188 C 0.50877 0.48254 0.68048 0.0
C189 C 0.50739 0.48153 0.58572 0.0
C190 C 0.5391 0.49959 0.54381 0.0
C191 C 0.57101 0.51904 0.59273 0.0
C192 C 0.60005 0.53665 0.52835 0.0
C193 C 0.59828 0.57281 0.54524 0.0
C194 C 0.64596 0.52795 0.53708 0.0
C195 C 0.57955 0.52353 0.43633 0.0
C196 C 0.54475 0.50193 0.44794 0.0
C197 C 0.52082 0.48574 0.37488 0.0
C198 C 0.53188 0.49239 0.28698 0.0
C199 C 0.56624 0.51538 0.2724 0.0
C200 C 0.59087 0.53088 0.3481 0.0
H201 H 0.22558 0.55265 0.96538 0.0
H202 H 0.19189 0.46715 0.10137 0.0
H203 H 0.26735 0.46007 0.12063 0.0
H204 H 0.31309 0.52311 0.84239 0.0
H205 H 0.34709 0.56016 0.85479 0.0
H206 H 0.29004 0.56043 0.8546 0.0
H207 H 0.2959 0.59414 0.01075 0.0
H208 H 0.353 0.59402 0.01136 0.0
H209 H 0.32308 0.57999 0.1054 0.0
H210 H 0.34424 0.46019 0.12349 0.0
H211 H 0.42126 0.46678 0.10802 0.0
H212 H 0.41119 0.55181 0.96764 0.0
C213 C 0.23423 0.53268 1.00003 0.0
C214 C 0.20235 0.51044 0.03171 0.0
C215 C 0.21521 0.48446 0.07584 0.0
C216 C 0.25822 0.48023 0.08755 0.0
C217 C 0.28863 0.5021 0.05485 0.0
C218 C 0.27763 0.52786 0.01196 0.0
C219 C 0.31767 0.54695 0.98126 0.0
C220 C 0.31691 0.5477 0.87705 0.0
C221 C 0.3227 0.58079 0.0301 0.0
C222 C 0.35246 0.5275 0.0127 0.0
C223 C 0.33444 0.50196 0.05557 0.0
C224 C 0.35883 0.48013 0.09025 0.0
C225 C 0.4029 0.48417 0.08076 0.0
C226 C 0.42293 0.50983 0.03633 0.0
C227 C 0.39713 0.532 1.00219 0.0
H228 H 0.82113 0.16611 0.03385 0.0
H229 H 0.75052 0.1768 0.78465 0.0
H230 H 0.79199 0.22881 0.77267 0.0
H231 H 0.82935 0.24958 0.12147 0.0
H232 H 0.88234 0.24938 0.16905 0.0
H233 H 0.84611 0.21348 0.15971 0.0
H234 H 0.9013 0.18365 0.06706 0.0
H235 H 0.9377 0.21943 0.07622 0.0
H236 H 0.92229 0.19939 0.96547 0.0
H237 H 0.84252 0.27878 0.78524 0.0
H238 H 0.89805 0.32364 0.8224 0.0
H239 H 0.93676 0.2798 0.0618 0.0
C240 C 0.8145 0.17937 0.97664 0.0
C241 C 0.78261 0.16744 0.91014 0.0
C242 C 0.77449 0.18567 0.8369 0.0
C243 C 0.79797 0.21516 0.82933 0.0
C244 C 0.82929 0.22616 0.89583 0.0
C245 C 0.83748 0.20892 0.9683 0.0
C246 C 0.87308 0.22604 0.03013 0.0
C247 C 0.85673 0.23516 0.12574 0.0
C248 C 0.91083 0.20593 0.03494 0.0
C249 C 0.8843 0.25525 0.97991 0.0
C250 C 0.85846 0.25496 0.903 0.0
C251 C 0.86299 0.27926 0.84526 0.0
C252 C 0.89486 0.30452 0.86658 0.0
C253 C 0.92199 0.30524 0.94478 0.0
C254 C 0.91632 0.28021 1.00211 0.0
H255 H 0.52961 0.89346 0.04974 0.0
H256 H 0.64468 0.91877 0.90411 0.0
H257 H 0.65668 0.862 0.88101 0.0
H258 H 0.5708 0.83059 0.16498 0.0
H259 H 0.52085 0.80567 0.15683 0.0
H260 H 0.52131 0.84833 0.1622 0.0
H261 H 0.47613 0.84274 0.0119 0.0
H262 H 0.47559 0.80008 1.00586 0.0
H263 H 0.49477 0.82128 0.9116 0.0
H264 H 0.65536 0.80231 0.87026 0.0
H265 H 0.64263 0.74426 0.87852 0.0
H266 H 0.52884 0.75748 0.03251 0.0
C267 C 0.55739 0.88715 0.01299 0.0
C268 C 0.58616 0.91076 0.97856 0.0
C269 C 0.62222 0.90129 0.93145 0.0
C270 C 0.62927 0.86904 0.91774 0.0
C271 C 0.60017 0.84644 0.95206 0.0
C272 C 0.56511 0.85507 0.9993 0.0
C273 C 0.53897 0.82607 0.02999 0.0
C274 C 0.53794 0.82777 0.13472 0.0
C275 C 0.49369 0.82233 0.98726 0.0
C276 C 0.5646 0.79974 0.99177 0.0
C277 C 0.59972 0.81203 0.94692 0.0
C278 C 0.62796 0.79242 0.90521 0.0
C279 C 0.62027 0.75941 0.90972 0.0
C280 C 0.58464 0.74615 0.95579 0.0
C281 C 0.55654 0.76679 0.99738 0.0
H282 H 0.91241 0.55556 0.97418 0.0
H283 H 0.92122 0.46032 0.05637 0.0
H284 H 0.84403 0.45158 0.06171 0.0
H285 H 0.82207 0.57207 0.118 0.0
H286 H 0.79604 0.59317 0.03581 0.0
H287 H 0.85317 0.59325 0.03709 0.0
H288 H 0.84966 0.57134 0.86697 0.0
H289 H 0.79252 0.57118 0.86523 0.0
H290 H 0.81619 0.53513 0.83139 0.0
H291 H 0.76757 0.45101 0.05789 0.0
H292 H 0.6924 0.45915 0.04784 0.0
H293 H 0.72603 0.55496 0.97031 0.0
C294 C 0.898 0.53294 0.99331 0.0
C295 C 0.92365 0.50875 0.01506 0.0
C296 C 0.90313 0.47951 0.03982 0.0
C297 C 0.85889 0.47412 0.04298 0.0
C298 C 0.83472 0.49813 0.02161 0.0
C299 C 0.85306 0.52705 0.99754 0.0
C300 C 0.81828 0.54846 0.97888 0.0
C301 C 0.82266 0.57853 0.04648 0.0
C302 C 0.81923 0.55703 0.8797 0.0
C303 C 0.77801 0.52674 0.9957 0.0
C304 C 0.78891 0.49789 0.02018 0.0
C305 C 0.75848 0.47351 0.03892 0.0
C306 C 0.71555 0.47848 0.03274 0.0
C307 C 0.70263 0.50773 0.00807 0.0
C308 C 0.73459 0.53232 0.98941 0.0
H309 H 0.22223 0.72678 0.93155 0.0
H310 H 0.15667 0.73168 0.18817 0.0
H311 H 0.19956 0.78254 0.23757 0.0
H312 H 0.32624 0.76036 0.02496 0.0
H313 H 0.33897 0.78207 0.92764 0.0
H314 H 0.30415 0.74546 0.91363 0.0
H315 H 0.24603 0.77472 0.83988 0.0
H316 H 0.28062 0.81141 0.85386 0.0
H317 H 0.22824 0.80955 0.90101 0.0
H318 H 0.24703 0.83376 0.25643 0.0
H319 H 0.29719 0.88164 0.24522 0.0
H320 H 0.33317 0.84313 0.97746 0.0
C321 C 0.21685 0.7386 0.99806 0.0
C322 C 0.18612 0.72526 0.05611 0.0
C323 C 0.18038 0.74127 0.14306 0.0
C324 C 0.20444 0.77022 0.17154 0.0
C325 C 0.23427 0.78278 0.11249 0.0
C326 C 0.24076 0.76745 0.02778 0.0
C327 C 0.27462 0.78625 0.97724 0.0
C328 C 0.31328 0.76741 0.95988 0.0
C329 C 0.25626 0.79606 0.88771 0.0
C330 C 0.28558 0.81483 0.04618 0.0
C331 C 0.26204 0.81226 0.12381 0.0
C332 C 0.26596 0.83592 0.19637 0.0
C333 C 0.29474 0.86296 0.18952 0.0
C334 C 0.31939 0.86615 0.11072 0.0
C335 C 0.31461 0.84161 0.0383 0.0
H336 H 0.59799 0.26753 0.03264 0.0
H337 H 0.46164 0.2738 0.02762 0.0
H338 H 0.44873 0.21552 0.03022 0.0
H339 H 0.59489 0.19536 0.88518 0.0
H340 H 0.63675 0.17936 0.94563 0.0
H341 H 0.63594 0.22182 0.94758 0.0
H342 H 0.63715 0.22681 0.12417 0.0
H343 H 0.63837 0.18436 0.12266 0.0
H344 H 0.59728 0.20349 0.18278 0.0
H345 H 0.45019 0.15666 0.03236 0.0
H346 H 0.46587 0.10077 0.02865 0.0
H347 H 0.60134 0.13175 0.02814 0.0
C348 C 0.56546 0.25663 0.03316 0.0
C349 C 0.53079 0.27527 0.0299 0.0
C350 C 0.48868 0.26002 0.0293 0.0
C351 C 0.48102 0.22693 0.03121 0.0
C352 C 0.51578 0.20922 0.03347 0.0
C353 C 0.55719 0.22344 0.03423 0.0
C354 C 0.58869 0.19862 0.0338 0.0
C355 C 0.61565 0.19882 0.9479 0.0
C356 C 0.61704 0.20362 0.12106 0.0
C357 C 0.55847 0.1683 0.03212 0.0
C358 C 0.51659 0.17504 0.03279 0.0
C359 C 0.48288 0.15107 0.0319 0.0
C360 C 0.49215 0.11934 0.02998 0.0
C361 C 0.53482 0.11167 0.02811 0.0
C362 C 0.56834 0.13667 0.02929 0.0
loop_
_geom_bond_atom_site_label_1
_geom_bond_atom_site_label_2
_geom_bond_distance
_geom_bond_site_symmetry_2
_ccdc_geom_bond_type
Pr0 C2 2.880 . S
Pr0 O20 2.562 1_556 S
Pr0 O21 2.490 . S
Pr0 O22 2.695 1_655 S
Pr0 O23 2.512 . S
Pr0 O25 2.437 . S
Pr0 O28 2.436 1_556 S
Pr0 O30 2.438 1_655 S
Pr1 C11 2.880 . S
Pr1 O22 2.436 1_554 S
Pr1 O24 2.438 1_455 S
Pr1 O26 2.562 1_554 S
Pr1 O27 2.490 . S
Pr1 O28 2.695 1_455 S
Pr1 O29 2.512 . S
Pr1 O31 2.437 . S
C2 Pr0 2.880 . S
C2 C3 1.491 . S
C2 O20 1.254 1_556 S
C2 O21 1.225 . S
C3 C2 1.491 . S
C3 C4 1.392 . S
C3 C8 1.356 1_556 S
C4 C3 1.392 . S
C4 C5 1.368 . S
C4 H32 0.929 . S
C5 C4 1.368 . S
C5 C6 1.386 . S
C5 H33 0.929 . S
C6 C5 1.386 . S
C6 C7 1.373 1_556 S
C7 C6 1.373 1_554 S
C7 C8 1.409 . S
C7 H34 0.931 . S
C8 C3 1.356 1_554 S
C8 C7 1.409 . S
C8 H35 0.930 . S
C9 O22 1.270 . S
C9 O23 1.248 1_455 S
C10 O24 1.267 1_556 S
C10 O25 1.278 . S
C11 Pr1 2.880 . S
C11 C12 1.491 . S
C11 O26 1.254 1_554 S
C11 O27 1.225 . S
C12 C11 1.491 . S
C12 C13 1.392 . S
C12 C17 1.356 1_554 S
C13 C12 1.392 . S
C13 C14 1.368 . S
C13 H36 0.929 . S
C14 C13 1.368 . S
C14 C15 1.386 . S
C14 H37 0.929 . S
C15 C14 1.386 . S
C15 C16 1.373 1_554 S
C16 C15 1.373 1_556 S
C16 C17 1.409 . S
C16 H38 0.931 . S
C17 C12 1.356 1_556 S
C17 C16 1.409 . S
C17 H39 0.930 . S
C18 O28 1.270 1_455 S
C18 O29 1.248 . S
C19 O30 1.267 1_554 S
C19 O31 1.278 . S
O20 Pr0 2.562 1_554 S
O20 C2 1.254 1_554 S
O21 Pr0 2.490 . S
O21 C2 1.225 . S
O22 Pr0 2.695 1_455 S
O22 Pr1 2.436 1_556 S
O22 C9 1.270 . S
O23 Pr0 2.512 . S
O23 C9 1.248 1_655 S
O24 Pr1 2.438 1_655 S
O24 C10 1.267 1_554 S
O25 Pr0 2.437 . S
O25 C10 1.278 . S
O26 Pr1 2.562 1_556 S
O26 C11 1.254 1_556 S
O27 Pr1 2.490 . S
O27 C11 1.225 . S
O28 Pr0 2.436 1_554 S
O28 Pr1 2.695 1_655 S
O28 C18 1.270 1_655 S
O29 Pr1 2.512 . S
O29 C18 1.248 . S
O30 Pr0 2.438 1_455 S
O30 C19 1.267 1_556 S
O31 Pr1 2.437 . S
O31 C19 1.278 . S
H32 C4 0.929 . S
H33 C5 0.929 . S
H34 C7 0.931 . S
H35 C8 0.930 . S
H36 C13 0.929 . S
H37 C14 0.929 . S
H38 C16 0.931 . S
H39 C17 0.930 . S
Pr40 C42 2.880 . S
Pr40 O60 2.562 1_554 S
Pr40 O61 2.490 . S
Pr40 O62 2.695 1_545 S
Pr40 O63 2.512 . S
Pr40 O65 2.437 . S
Pr40 O68 2.436 1_554 S
Pr40 O70 2.438 1_545 S
Pr41 C51 2.880 . S
Pr41 O62 2.436 1_556 S
Pr41 O64 2.438 1_565 S
Pr41 O66 2.562 1_556 S
Pr41 O67 2.490 . S
Pr41 O68 2.695 1_565 S
Pr41 O69 2.512 . S
Pr41 O71 2.437 . S
C42 Pr40 2.880 . S
C42 C43 1.491 1_554 S
C42 O60 1.254 1_554 S
C42 O61 1.225 . S
C43 C42 1.491 1_556 S
C43 C44 1.390 1_556 S
C43 C48 1.358 . S
C44 C43 1.390 1_554 S
C44 C45 1.368 . S
C44 H72 0.929 . S
C45 C44 1.368 . S
C45 C46 1.386 1_554 S
C45 H73 0.929 . S
C46 C45 1.386 1_556 S
C46 C47 1.373 . S
C47 C46 1.373 . S
C47 C48 1.409 . S
C47 H74 0.931 . S
C48 C43 1.358 . S
C48 C47 1.409 . S
C48 H75 0.930 . S
C49 O62 1.270 1_545 S
C49 O63 1.248 . S
C50 O64 1.266 1_554 S
C50 O65 1.278 . S
C51 Pr41 2.880 . S
C51 C52 1.490 1_556 S
C51 O66 1.254 1_556 S
C51 O67 1.225 . S
C52 C51 1.490 1_554 S
C52 C53 1.386 1_554 S
C52 C57 1.363 . S
C53 C52 1.386 1_556 S
C53 C54 1.368 . S
C53 H76 0.929 . S
C54 C53 1.368 . S
C54 C55 1.386 1_556 S
C54 H77 0.929 . S
C55 C54 1.386 1_554 S
C55 C56 1.373 . S
C56 C55 1.373 . S
C56 C57 1.409 . S
C56 H78 0.931 . S
C57 C52 1.363 . S
C57 C56 1.409 . S
C57 H79 0.930 . S
C58 O68 1.270 1_565 S
C58 O69 1.248 . S
C59 O70 1.267 1_556 S
C59 O71 1.278 . S
O60 Pr40 2.562 1_556 S
O60 C42 1.254 1_556 S
O61 Pr40 2.490 . S
O61 C42 1.225 . S
O62 Pr40 2.695 1_565 S
O62 Pr41 2.436 1_554 S
O62 C49 1.270 1_565 S
O63 Pr40 2.512 . S
O63 C49 1.248 . S
O64 Pr41 2.438 1_545 S
O64 C50 1.266 1_556 S
O65 Pr40 2.437 . S
O65 C50 1.278 . S
O66 Pr41 2.562 1_554 S
O66 C51 1.254 1_554 S
O67 Pr41 2.490 . S
O67 C51 1.225 . S
O68 Pr40 2.436 1_556 S
O68 Pr41 2.695 1_545 S
O68 C58 1.270 1_545 S
O69 Pr41 2.512 . S
O69 C58 1.248 . S
O70 Pr40 2.438 1_565 S
O70 C59 1.267 1_554 S
O71 Pr41 2.437 . S
O71 C59 1.278 . S
H72 C44 0.929 . S
H73 C45 0.929 . S
H74 C47 0.931 . S
H75 C48 0.930 . S
H76 C53 0.929 . S
H77 C54 0.929 . S
H78 C56 0.931 . S
H79 C57 0.930 . S
Pr80 C82 2.880 . S
Pr80 O100 2.562 1_554 S
Pr80 O101 2.490 . S
Pr80 O102 2.695 . S
Pr80 O103 2.512 . S
Pr80 O105 2.437 . S
Pr80 O108 2.436 1_554 S
Pr80 O110 2.438 . S
Pr81 C91 2.880 . S
Pr81 O102 2.436 1_556 S
Pr81 O104 2.438 . S
Pr81 O106 2.562 1_556 S
Pr81 O107 2.490 . S
Pr81 O108 2.695 . S
Pr81 O109 2.512 . S
Pr81 O111 2.437 . S
C82 Pr80 2.880 . S
C82 C83 1.491 . S
C82 O100 1.254 1_554 S
C82 O101 1.225 . S
C83 C82 1.491 . S
C83 C84 1.392 . S
C83 C88 1.356 1_554 S
C84 C83 1.392 . S
C84 C85 1.368 . S
C84 H112 0.929 . S
C85 C84 1.368 . S
C85 C86 1.392 . S
C85 H113 0.929 . S
C86 C85 1.392 . S
C86 C87 1.368 1_554 S
C87 C86 1.368 1_556 S
C87 C88 1.409 . S
C87 H114 0.931 . S
C88 C83 1.356 1_556 S
C88 C87 1.409 . S
C88 H115 0.930 . S
C89 O102 1.270 . S
C89 O103 1.248 . S
C90 O104 1.267 1_554 S
C90 O105 1.278 . S
C91 Pr81 2.880 . S
C91 C92 1.491 . S
C91 O106 1.254 1_556 S
C91 O107 1.225 . S
C92 C91 1.491 . S
C92 C93 1.392 . S
C92 C97 1.356 1_556 S
C93 C92 1.392 . S
C93 C94 1.368 . S
C93 H116 0.929 . S
C94 C93 1.368 . S
C94 C95 1.387 . S
C94 H117 0.929 . S
C95 C94 1.387 . S
C95 C96 1.372 1_556 S
C96 C95 1.372 1_554 S
C96 C97 1.409 . S
C96 H118 0.931 . S
C97 C92 1.356 1_554 S
C97 C96 1.409 . S
C97 H119 0.930 . S
C98 O108 1.270 . S
C98 O109 1.248 . S
C99 O110 1.267 1_556 S
C99 O111 1.278 . S
O100 Pr80 2.562 1_556 S
O100 C82 1.254 1_556 S
O101 Pr80 2.490 . S
O101 C82 1.225 . S
O102 Pr80 2.695 . S
O102 Pr81 2.436 1_554 S
O102 C89 1.270 . S
O103 Pr80 2.512 . S
O103 C89 1.248 . S
O104 Pr81 2.438 . S
O104 C90 1.267 1_556 S
O105 Pr80 2.437 . S
O105 C90 1.278 . S
O106 Pr81 2.562 1_554 S
O106 C91 1.254 1_554 S
O107 Pr81 2.490 . S
O107 C91 1.225 . S
O108 Pr80 2.436 1_556 S
O108 Pr81 2.695 . S
O108 C98 1.270 . S
O109 Pr81 2.512 . S
O109 C98 1.248 . S
O110 Pr80 2.438 . S
O110 C99 1.267 1_554 S
O111 Pr81 2.437 . S
O111 C99 1.278 . S
H112 C84 0.929 . S
H113 C85 0.929 . S
H114 C87 0.931 . S
H115 C88 0.930 . S
H116 C93 0.929 . S
H117 C94 0.929 . S
H118 C96 0.931 . S
H119 C97 0.930 . S
H120 C132 0.930 . S
H121 C134 0.930 . S
H122 C135 0.930 . S
H123 C139 0.959 . S
H124 C139 0.959 . S
H125 C139 0.961 . S
H126 C140 0.960 . S
H127 C140 0.961 . S
H128 C140 0.959 . S
H129 C143 0.929 . S
H130 C144 0.931 . S
H131 C146 0.930 . S
C132 H120 0.930 . S
C132 C133 1.399 . S
C132 C137 1.399 . S
C133 C132 1.399 . S
C133 C134 1.376 . S
C134 H121 0.930 . S
C134 C133 1.376 . S
C134 C135 1.388 . S
C135 H122 0.930 . S
C135 C134 1.388 . S
C135 C136 1.390 . S
C136 C135 1.390 . S
C136 C137 1.394 . S
C136 C142 1.465 . S
C137 C132 1.399 . S
C137 C136 1.394 . S
C137 C138 1.516 . S
C138 C137 1.516 . S
C138 C139 1.502 1_455 S
C138 C140 1.561 . S
C138 C141 1.526 . S
C139 H123 0.959 . S
C139 H124 0.959 . S
C139 H125 0.961 . S
C139 C138 1.502 1_655 S
C140 H126 0.960 . S
C140 H127 0.961 . S
C140 H128 0.959 . S
C140 C138 1.561 . S
C141 C138 1.526 . S
C141 C142 1.396 . S
C141 C146 1.390 . S
C142 C136 1.465 . S
C142 C141 1.396 . S
C142 C143 1.399 . S
C143 H129 0.929 . S
C143 C142 1.399 . S
C143 C144 1.385 . S
C144 H130 0.931 . S
C144 C143 1.385 . S
C144 C145 1.389 . S
C145 C144 1.389 . S
C145 C146 1.387 . S
C146 H131 0.930 . S
C146 C141 1.390 . S
C146 C145 1.387 . S
H147 C159 0.930 . S
H148 C161 0.930 . S
H149 C162 0.930 . S
H150 C166 0.959 . S
H151 C166 0.959 . S
H152 C166 0.961 . S
H153 C167 0.960 . S
H154 C167 0.961 . S
H155 C167 0.959 . S
H156 C170 0.929 . S
H157 C171 0.931 . S
H158 C173 0.930 . S
C159 H147 0.930 . S
C159 C160 1.399 1_545 S
C159 C164 1.399 . S
C160 C159 1.399 1_565 S
C160 C161 1.376 . S
C161 H148 0.930 . S
C161 C160 1.376 . S
C161 C162 1.388 . S
C162 H149 0.930 . S
C162 C161 1.388 . S
C162 C163 1.390 . S
C163 C162 1.390 . S
C163 C164 1.394 1_565 S
C163 C169 1.465 . S
C164 C159 1.399 . S
C164 C163 1.394 1_545 S
C164 C165 1.516 . S
C165 C164 1.516 . S
C165 C166 1.502 . S
C165 C167 1.561 . S
C165 C168 1.526 . S
C166 H150 0.959 . S
C166 H151 0.959 . S
C166 H152 0.961 . S
C166 C165 1.502 . S
C167 H153 0.960 . S
C167 H154 0.961 . S
C167 H155 0.959 . S
C167 C165 1.561 . S
C168 C165 1.526 . S
C168 C169 1.396 1_545 S
C168 C173 1.390 . S
C169 C163 1.465 . S
C169 C168 1.396 1_565 S
C169 C170 1.399 . S
C170 H156 0.929 . S
C170 C169 1.399 . S
C170 C171 1.385 . S
C171 H157 0.931 . S
C171 C170 1.385 . S
C171 C172 1.389 . S
C172 C171 1.389 . S
C172 C173 1.387 1_565 S
C173 H158 0.930 . S
C173 C168 1.390 . S
C173 C172 1.387 1_545 S
H174 C186 0.930 . S
H175 C188 0.930 . S
H176 C189 0.930 . S
H177 C193 0.959 . S
H178 C193 0.959 . S
H179 C193 0.961 . S
H180 C194 0.960 . S
H181 C194 0.961 . S
H182 C194 0.959 . S
H183 C197 0.929 . S
H184 C198 0.931 . S
H185 C200 0.930 . S
C186 H174 0.930 . S
C186 C187 1.399 . S
C186 C191 1.399 . S
C187 C186 1.399 . S
C187 C188 1.376 . S
C188 H175 0.930 . S
C188 C187 1.376 . S
C188 C189 1.388 . S
C189 H176 0.930 . S
C189 C188 1.388 . S
C189 C190 1.390 . S
C190 C189 1.390 . S
C190 C191 1.394 . S
C190 C196 1.465 . S
C191 C186 1.399 . S
C191 C190 1.394 . S
C191 C192 1.516 . S
C192 C191 1.516 . S
C192 C193 1.502 . S
C192 C194 1.561 . S
C192 C195 1.526 . S
C193 H177 0.959 . S
C193 H178 0.959 . S
C193 H179 0.961 . S
C193 C192 1.502 . S
C194 H180 0.960 . S
C194 H181 0.961 . S
C194 H182 0.959 . S
C194 C192 1.561 . S
C195 C192 1.526 . S
C195 C196 1.396 . S
C195 C200 1.390 . S
C196 C190 1.465 . S
C196 C195 1.396 . S
C196 C197 1.399 . S
C197 H183 0.929 . S
C197 C196 1.399 . S
C197 C198 1.385 . S
C198 H184 0.931 . S
C198 C197 1.385 . S
C198 C199 1.389 . S
C199 C198 1.389 . S
C199 C200 1.387 . S
C200 H185 0.930 . S
C200 C195 1.390 . S
C200 C199 1.387 . S
H201 C213 0.930 . S
H202 C215 0.930 . S
H203 C216 0.930 . S
H204 C220 0.959 . S
H205 C220 0.959 . S
H206 C220 0.961 . S
H207 C221 0.960 . S
H208 C221 0.961 . S
H209 C221 0.959 . S
H210 C224 0.929 . S
H211 C225 0.931 . S
H212 C227 0.930 . S
C213 H201 0.930 . S
C213 C214 1.399 1_556 S
C213 C218 1.399 . S
C214 C213 1.399 1_554 S
C214 C215 1.376 . S
C215 H202 0.930 . S
C215 C214 1.376 . S
C215 C216 1.388 . S
C216 H203 0.930 . S
C216 C215 1.388 . S
C216 C217 1.390 . S
C217 C216 1.390 . S
C217 C218 1.394 1_554 S
C217 C223 1.465 . S
C218 C213 1.399 . S
C218 C217 1.394 1_556 S
C218 C219 1.516 . S
C219 C218 1.516 . S
C219 C220 1.502 . S
C219 C221 1.561 . S
C219 C222 1.526 . S
C220 H204 0.959 . S
C220 H205 0.959 . S
C220 H206 0.961 . S
C220 C219 1.502 . S
C221 H207 0.960 . S
C221 H208 0.961 . S
C221 H209 0.959 . S
C221 C219 1.561 . S
C222 C219 1.526 . S
C222 C223 1.396 1_556 S
C222 C227 1.390 . S
C223 C217 1.465 . S
C223 C222 1.396 1_554 S
C223 C224 1.399 . S
C224 H210 0.929 . S
C224 C223 1.399 . S
C224 C225 1.385 . S
C225 H211 0.931 . S
C225 C224 1.385 . S
C225 C226 1.389 . S
C226 C225 1.389 . S
C226 C227 1.387 1_554 S
C227 H212 0.930 . S
C227 C222 1.390 . S
C227 C226 1.387 1_556 S
H228 C240 0.930 . S
H229 C242 0.930 . S
H230 C243 0.930 . S
H231 C247 0.959 . S
H232 C247 0.959 . S
H233 C247 0.961 . S
H234 C248 0.960 . S
H235 C248 0.961 . S
H236 C248 0.959 . S
H237 C251 0.929 . S
H238 C252 0.931 . S
H239 C254 0.930 . S
C240 H228 0.930 . S
C240 C241 1.399 1_554 S
C240 C245 1.399 . S
C241 C240 1.399 1_556 S
C241 C242 1.376 . S
C242 H229 0.930 . S
C242 C241 1.376 . S
C242 C243 1.388 . S
C243 H230 0.930 . S
C243 C242 1.388 . S
C243 C244 1.390 . S
C244 C243 1.390 . S
C244 C245 1.394 1_556 S
C244 C250 1.465 . S
C245 C240 1.399 . S
C245 C244 1.394 1_554 S
C245 C246 1.516 . S
C246 C245 1.516 . S
C246 C247 1.502 . S
C246 C248 1.561 . S
C246 C249 1.526 . S
C247 H231 0.959 . S
C247 H232 0.959 . S
C247 H233 0.961 . S
C247 C246 1.502 . S
C248 H234 0.960 . S
C248 H235 0.961 . S
C248 H236 0.959 . S
C248 C246 1.561 . S
C249 C246 1.526 . S
C249 C250 1.396 1_554 S
C249 C254 1.390 . S
C250 C244 1.465 . S
C250 C249 1.396 1_556 S
C250 C251 1.399 . S
C251 H237 0.929 . S
C251 C250 1.399 . S
C251 C252 1.385 . S
C252 H238 0.931 . S
C252 C251 1.385 . S
C252 C253 1.389 . S
C253 C252 1.389 . S
C253 C254 1.387 1_556 S
C254 H239 0.930 . S
C254 C249 1.390 . S
C254 C253 1.387 1_554 S
H255 C267 0.930 . S
H256 C269 0.930 . S
H257 C270 0.930 . S
H258 C274 0.959 . S
H259 C274 0.959 . S
H260 C274 0.961 . S
H261 C275 0.960 . S
H262 C275 0.961 . S
H263 C275 0.959 . S
H264 C278 0.929 . S
H265 C279 0.931 . S
H266 C281 0.930 . S
C267 H255 0.930 . S
C267 C268 1.399 1_554 S
C267 C272 1.399 . S
C268 C267 1.399 1_556 S
C268 C269 1.376 . S
C269 H256 0.930 . S
C269 C268 1.376 . S
C269 C270 1.388 . S
C270 H257 0.930 . S
C270 C269 1.388 . S
C270 C271 1.390 . S
C271 C270 1.390 . S
C271 C272 1.394 1_556 S
C271 C277 1.465 . S
C272 C267 1.399 . S
C272 C271 1.394 1_554 S
C272 C273 1.516 . S
C273 C272 1.516 . S
C273 C274 1.502 . S
C273 C275 1.561 . S
C273 C276 1.526 . S
C274 H258 0.959 . S
C274 H259 0.959 . S
C274 H260 0.961 . S
C274 C273 1.502 . S
C275 H261 0.960 . S
C275 H262 0.961 . S
C275 H263 0.959 . S
C275 C273 1.561 . S
C276 C273 1.526 . S
C276 C277 1.396 1_554 S
C276 C281 1.390 . S
C277 C271 1.465 . S
C277 C276 1.396 1_556 S
C277 C278 1.399 . S
C278 H264 0.929 . S
C278 C277 1.399 . S
C278 C279 1.385 . S
C279 H265 0.931 . S
C279 C278 1.385 . S
C279 C280 1.389 . S
C280 C279 1.389 . S
C280 C281 1.387 1_556 S
C281 H266 0.930 . S
C281 C276 1.390 . S
C281 C280 1.387 1_554 S
H282 C294 0.930 . S
H283 C296 0.930 . S
H284 C297 0.930 . S
H285 C301 0.959 . S
H286 C301 0.959 . S
H287 C301 0.961 . S
H288 C302 0.960 . S
H289 C302 0.961 . S
H290 C302 0.959 . S
H291 C305 0.929 . S
H292 C306 0.931 . S
H293 C308 0.930 . S
C294 H282 0.930 . S
C294 C295 1.399 1_556 S
C294 C299 1.399 . S
C295 C294 1.399 1_554 S
C295 C296 1.376 . S
C296 H283 0.930 . S
C296 C295 1.376 . S
C296 C297 1.388 . S
C297 H284 0.930 . S
C297 C296 1.388 . S
C297 C298 1.390 . S
C298 C297 1.390 . S
C298 C299 1.394 1_554 S
C298 C304 1.465 . S
C299 C294 1.399 . S
C299 C298 1.394 1_556 S
C299 C300 1.516 . S
C300 C299 1.516 . S
C300 C301 1.502 . S
C300 C302 1.561 . S
C300 C303 1.526 . S
C301 H285 0.959 . S
C301 H286 0.959 . S
C301 H287 0.961 . S
C301 C300 1.502 . S
C302 H288 0.960 . S
C302 H289 0.961 . S
C302 H290 0.959 . S
C302 C300 1.561 . S
C303 C300 1.526 . S
C303 C304 1.396 1_556 S
C303 C308 1.390 . S
C304 C298 1.465 . S
C304 C303 1.396 1_554 S
C304 C305 1.399 . S
C305 H291 0.929 . S
C305 C304 1.399 . S
C305 C306 1.385 . S
C306 H292 0.931 . S
C306 C305 1.385 . S
C306 C307 1.389 . S
C307 C306 1.389 . S
C307 C308 1.387 1_554 S
C308 H293 0.930 . S
C308 C303 1.390 . S
C308 C307 1.387 1_556 S
H309 C321 0.930 . S
H310 C323 0.930 . S
H311 C324 0.930 . S
H312 C328 0.959 1_554 S
H313 C328 0.959 . S
H314 C328 0.961 . S
H315 C329 0.960 . S
H316 C329 0.961 . S
H317 C329 0.959 . S
H318 C332 0.929 . S
H319 C333 0.931 . S
H320 C335 0.930 . S
C321 H309 0.930 . S
C321 C322 1.399 1_556 S
C321 C326 1.399 . S
C322 C321 1.399 1_554 S
C322 C323 1.376 . S
C323 H310 0.930 . S
C323 C322 1.376 . S
C323 C324 1.388 . S
C324 H311 0.930 . S
C324 C323 1.388 . S
C324 C325 1.390 . S
C325 C324 1.390 . S
C325 C326 1.394 1_554 S
C325 C331 1.465 . S
C326 C321 1.399 . S
C326 C325 1.394 1_556 S
C326 C327 1.516 . S
C327 C326 1.516 . S
C327 C328 1.502 . S
C327 C329 1.561 . S
C327 C330 1.526 . S
C328 H312 0.959 1_556 S
C328 H313 0.959 . S
C328 H314 0.961 . S
C328 C327 1.502 . S
C329 H315 0.960 . S
C329 H316 0.961 . S
C329 H317 0.959 . S
C329 C327 1.561 . S
C330 C327 1.526 . S
C330 C331 1.396 1_556 S
C330 C335 1.390 . S
C331 C325 1.465 . S
C331 C330 1.396 1_554 S
C331 C332 1.399 . S
C332 H318 0.929 . S
C332 C331 1.399 . S
C332 C333 1.385 . S
C333 H319 0.931 . S
C333 C332 1.385 . S
C333 C334 1.389 . S
C334 C333 1.389 . S
C334 C335 1.387 1_554 S
C335 H320 0.930 . S
C335 C330 1.390 . S
C335 C334 1.387 1_556 S
H336 C348 0.930 . S
H337 C350 0.930 . S
H338 C351 0.930 . S
H339 C355 0.959 . S
H340 C355 0.959 . S
H341 C355 0.961 . S
H342 C356 0.960 . S
H343 C356 0.961 . S
H344 C356 0.959 . S
H345 C359 0.929 . S
H346 C360 0.931 . S
H347 C362 0.930 . S
C348 H336 0.930 . S
C348 C349 1.399 1_554 S
C348 C353 1.399 . S
C349 C348 1.399 1_556 S
C349 C350 1.376 . S
C350 H337 0.930 . S
C350 C349 1.376 . S
C350 C351 1.388 . S
C351 H338 0.930 . S
C351 C350 1.388 . S
C351 C352 1.390 . S
C352 C351 1.390 . S
C352 C353 1.394 1_556 S
C352 C358 1.465 . S
C353 C348 1.399 . S
C353 C352 1.394 1_554 S
C353 C354 1.516 . S
C354 C353 1.516 . S
C354 C355 1.502 . S
C354 C356 1.561 . S
C354 C357 1.526 . S
C355 H339 0.959 . S
C355 H340 0.959 . S
C355 H341 0.961 . S
C355 C354 1.502 . S
C356 H342 0.960 . S
C356 H343 0.961 . S
C356 H344 0.959 . S
C356 C354 1.561 . S
C357 C354 1.526 . S
C357 C358 1.396 1_554 S
C357 C362 1.390 . S
C358 C352 1.465 . S
C358 C357 1.396 1_556 S
C358 C359 1.399 . S
C359 H345 0.929 . S
C359 C358 1.399 . S
C359 C360 1.385 . S
C360 H346 0.931 . S
C360 C359 1.385 . S
C360 C361 1.389 . S
C361 C360 1.389 . S
C361 C362 1.387 1_556 S
C362 H347 0.930 . S
C362 C357 1.390 . S
C362 C361 1.387 1_554 S
C133 C9 1.416 . S
C145 C18 1.480 . S
C160 C49 1.479 1_565 S
C172 C58 1.411 . S
C187 C98 1.420 . S
C199 C89 1.480 . S
C214 C19 2.600 . S
C226 C90 2.554 . S
C241 C46 0.903 . S
C253 C6 0.862 . S
C268 C59 2.012 . S
C280 C86 1.995 1_556 S
C295 C10 2.612 1_554 S
C307 C99 2.575 1_554 S
C322 C15 0.851 . S
C334 C55 0.909 . S
C349 C95 1.954 . S
C361 C50 2.040 1_556 S
