# Generated by pormake.
# Topology zfs, (5)-cn, num edge types: 1
# Building blocks:
#     Node 0, Type 0, BuildingBlock: BEQFEK_clean_sbu_0, # of connection points: 5
#     Node 1, Type 0, BuildingBlock: BEQFEK_clean_sbu_0, # of connection points: 5
#     Node 2, Type 0, BuildingBlock: BEQFEK_clean_sbu_0, # of connection points: 5
#     Node 3, Type 0, BuildingBlock: BEQFEK_clean_sbu_0, # of connection points: 5
#     Node 4, Type 0, BuildingBlock: BEQFEK_clean_sbu_0, # of connection points: 5
#     Node 5, Type 0, BuildingBlock: BEQFEK_clean_sbu_0, # of connection points: 5
#     Node 6, Type 0, BuildingBlock: BEQFEK_clean_sbu_0, # of connection points: 5
#     Node 7, Type 0, BuildingBlock: BEQFEK_clean_sbu_0, # of connection points: 5
#     Edge 8, Type (0, 0), BuildingBlock: OJICUG_clean_linker_0, # of connection points: 2
#     Edge 9, Type (0, 0), BuildingBlock: OJICUG_clean_linker_0, # of connection points: 2
#     Edge 10, Type (0, 0), BuildingBlock: OJICUG_clean_linker_0, # of connection points: 2
#     Edge 11, Type (0, 0), BuildingBlock: OJICUG_clean_linker_0, # of connection points: 2
#     Edge 12, Type (0, 0), BuildingBlock: OJICUG_clean_linker_0, # of connection points: 2
#     Edge 13, Type (0, 0), BuildingBlock: OJICUG_clean_linker_0, # of connection points: 2
#     Edge 14, Type (0, 0), BuildingBlock: OJICUG_clean_linker_0, # of connection points: 2
#     Edge 15, Type (0, 0), BuildingBlock: OJICUG_clean_linker_0, # of connection points: 2
#     Edge 16, Type (0, 0), BuildingBlock: OJICUG_clean_linker_0, # of connection points: 2
#     Edge 17, Type (0, 0), BuildingBlock: OJICUG_clean_linker_0, # of connection points: 2
#     Edge 18, Type (0, 0), BuildingBlock: OJICUG_clean_linker_0, # of connection points: 2
#     Edge 19, Type (0, 0), BuildingBlock: OJICUG_clean_linker_0, # of connection points: 2
#     Edge 20, Type (0, 0), BuildingBlock: OJICUG_clean_linker_0, # of connection points: 2
#     Edge 21, Type (0, 0), BuildingBlock: OJICUG_clean_linker_0, # of connection points: 2
#     Edge 22, Type (0, 0), BuildingBlock: OJICUG_clean_linker_0, # of connection points: 2
#     Edge 23, Type (0, 0), BuildingBlock: OJICUG_clean_linker_0, # of connection points: 2
#     Edge 24, Type (0, 0), BuildingBlock: OJICUG_clean_linker_0, # of connection points: 2
#     Edge 25, Type (0, 0), BuildingBlock: OJICUG_clean_linker_0, # of connection points: 2
#     Edge 26, Type (0, 0), BuildingBlock: OJICUG_clean_linker_0, # of connection points: 2
#     Edge 27, Type (0, 0), BuildingBlock: OJICUG_clean_linker_0, # of connection points: 2
# Relax obj value: 0.359
# Max RMSD: 0.164
# Mean RMSD: 0.164
data_MOF--net-zfs--node1-BEQFEK_clean_sbu_0--edge1-OJICUG_clean_linker_0
_symmetry_space_group_name_H-M    P1
_symmetry_Int_Tables_number       1
_symmetry_cell_setting            triclinic
loop_
_symmetry_equiv_pos_as_xyz
'x, y, z'
_cell_length_a     23.49221
_cell_length_b     23.67211
_cell_length_c     32.430216
_cell_angle_alpha  90.00083
_cell_angle_beta   90.004634
_cell_angle_gamma 89.99731
loop_
_atom_site_label
_atom_site_type_symbol
_atom_site_fract_x
_atom_site_fract_y
_atom_site_fract_z
_atom_type_partial_charge
Co0 Co 0.09721 0.28475 0.26785 0.0
Co1 Co 0.99759 0.29095 0.2058 0.0
C2 C 0.05075 0.39485 0.24645 0.0
O3 O 0.09042 0.36654 0.26297 0.0
O4 O 1.01176 0.37072 0.22561 0.0
C5 C 0.18449 0.30446 0.32784 0.0
O6 O 0.16343 0.35573 0.33048 0.0
C7 C 0.98415 0.32642 0.12269 0.0
C8 C 0.9127 0.27603 0.09872 0.0
C9 C 0.95681 0.31144 0.08653 0.0
N10 N 0.95824 0.30079 0.15459 0.0
N11 N 0.91412 0.27222 0.14029 0.0
C12 C 0.04145 0.35412 0.12549 0.0
H13 H 0.05844 0.35304 0.15727 0.0
H14 H 0.07203 0.33261 0.10462 0.0
H15 H 0.03786 0.39871 0.11527 0.0
C16 C 0.15329 0.22301 0.19855 0.0
N17 N 0.10936 0.2509 0.21619 0.0
N18 N 0.06505 0.24887 0.19166 0.0
C19 C 0.07861 0.21698 0.15857 0.0
C20 C 0.13534 0.20121 0.16086 0.0
C21 C 0.21108 0.21777 0.21747 0.0
H22 H 0.22262 0.25774 0.23327 0.0
H23 H 0.24367 0.20743 0.19388 0.0
H24 H 0.21023 0.18362 0.24091 0.0
O25 O 0.02747 0.25248 0.29561 0.0
O26 O 0.95562 0.25049 0.25076 0.0
H27 H 0.0487 0.15195 0.11757 0.0
H28 H 0.03761 0.22297 0.10089 0.0
C29 C 0.03672 0.19502 0.12799 0.0
H30 H 0.99345 0.19367 0.14144 0.0
H31 H 0.88884 0.2455 0.15817 0.0
O32 O 0.1624 0.269 0.30317 0.0
C33 C 0.97583 0.24033 0.2867 0.0
Co34 Co 0.75262 0.08919 0.51876 0.0
Co35 Co 0.74468 0.99333 0.45528 0.0
C36 C 0.64082 0.04724 0.49647 0.0
O37 O 0.66992 0.08586 0.51343 0.0
O38 O 0.66469 1.00852 0.4754 0.0
C39 C 0.74265 0.19555 0.56159 0.0
O40 O 0.70382 0.21078 0.53468 0.0
C41 C 0.70739 0.98107 0.37251 0.0
C42 C 0.75615 0.90899 0.34817 0.0
C43 C 0.72101 0.95335 0.33632 0.0
N44 N 0.73354 0.9551 0.40411 0.0
N45 N 0.76108 0.91064 0.38965 0.0
C46 C 0.68049 0.0384 0.37553 0.0
H47 H 0.68344 0.0557 0.40713 0.0
H48 H 0.70149 0.06813 0.35385 0.0
H49 H 0.63503 0.03532 0.36652 0.0
C50 C 0.81867 0.14601 0.45099 0.0
N51 N 0.78876 0.10283 0.46771 0.0
N52 N 0.78882 0.05992 0.44208 0.0
C53 C 0.82088 0.07376 0.409 0.0
C54 C 0.83933 0.12915 0.41264 0.0
C55 C 0.82589 0.20242 0.47106 0.0
H56 H 0.84619 0.19685 0.50169 0.0
H57 H 0.78341 0.2216 0.47605 0.0
H58 H 0.85186 0.2315 0.45198 0.0
O59 O 0.78202 0.01806 0.54515 0.0
O60 O 0.78435 0.9486 0.49901 0.0
H61 H 0.84005 0.98964 0.38846 0.0
H62 H 0.88253 0.0443 0.36485 0.0
C63 C 0.83943 0.03336 0.37641 0.0
H64 H 0.80954 0.03687 0.35036 0.0
H65 H 0.78782 0.88507 0.40731 0.0
O66 O 0.76833 0.14864 0.55822 0.0
C67 C 0.79368 0.96704 0.53547 0.0
Co68 Co 0.94135 0.74591 0.76785 0.0
Co69 Co 0.04094 0.73957 0.70579 0.0
C70 C 0.98775 0.63575 0.74655 0.0
O71 O 0.9481 0.6641 0.76306 0.0
O72 O 0.02672 0.65984 0.72567 0.0
C73 C 0.85343 0.72636 0.82747 0.0
O74 O 0.8737 0.67475 0.8298 0.0
C75 C 0.05436 0.70397 0.6227 0.0
C76 C 0.12585 0.75426 0.59872 0.0
C77 C 0.08171 0.71888 0.58654 0.0
N78 N 0.08028 0.72962 0.65459 0.0
N79 N 0.12443 0.75812 0.64028 0.0
C80 C 0.99702 0.67632 0.62551 0.0
H81 H 0.98006 0.67741 0.6573 0.0
H82 H 0.96646 0.69786 0.60465 0.0
H83 H 1.00057 0.63173 0.61529 0.0
C84 C 0.8853 0.80763 0.69854 0.0
N85 N 0.92921 0.77969 0.71617 0.0
N86 N 0.9735 0.78166 0.69163 0.0
C87 C 0.95995 0.81354 0.65853 0.0
C88 C 0.90324 0.82939 0.66084 0.0
C89 C 0.82754 0.81297 0.71749 0.0
H90 H 0.82849 0.84709 0.74094 0.0
H91 H 0.81593 0.77301 0.73327 0.0
H92 H 0.79495 0.82339 0.69391 0.0
O93 O 1.01111 0.77817 0.79558 0.0
O94 O 0.08295 0.78006 0.75072 0.0
H95 H 0.04512 0.83672 0.64135 0.0
H96 H 0.9899 0.87847 0.61746 0.0
C97 C 1.00183 0.83541 0.62792 0.0
H98 H 1.00088 0.80741 0.60084 0.0
H99 H 0.14973 0.78485 0.65815 0.0
O100 O 0.87619 0.76185 0.80315 0.0
C101 C 0.06276 0.79028 0.78665 0.0
Co102 Co 0.28594 0.94156 0.0187 0.0
Co103 Co 0.29384 0.03743 0.95522 0.0
C104 C 0.39772 0.98352 0.99643 0.0
O105 O 0.36863 0.9449 0.01338 0.0
O106 O 0.37384 0.02224 0.97536 0.0
C107 C 0.29594 0.8353 0.06167 0.0
O108 O 0.33487 0.82005 0.03485 0.0
C109 C 0.33113 0.04965 0.87244 0.0
C110 C 0.28235 0.1217 0.84808 0.0
C111 C 0.3175 0.07734 0.83624 0.0
N112 N 0.30498 0.07563 0.90403 0.0
N113 N 0.27743 0.12008 0.88956 0.0
C114 C 0.35804 0.99232 0.87548 0.0
H115 H 0.3551 0.97504 0.90709 0.0
H116 H 0.33702 0.96257 0.85382 0.0
H117 H 0.40349 0.9954 0.86646 0.0
C118 C 0.21995 0.8847 0.95092 0.0
N119 N 0.24981 0.92791 0.96765 0.0
N120 N 0.24972 0.97082 0.94201 0.0
C121 C 0.21768 0.95695 0.90893 0.0
C122 C 0.19927 0.90155 0.91257 0.0
C123 C 0.21278 0.82828 0.97099 0.0
H124 H 0.19228 0.83382 1.00154 0.0
H125 H 0.2553 0.80925 0.97613 0.0
H126 H 0.18703 0.79911 0.95182 0.0
O127 O 0.25656 1.0127 0.04507 0.0
O128 O 0.25417 0.08217 0.99894 0.0
H129 H 0.19846 0.04107 0.88839 0.0
H130 H 0.15599 0.98639 0.8648 0.0
C131 C 0.19908 0.99735 0.87635 0.0
H132 H 0.22896 0.99385 0.85029 0.0
H133 H 0.25068 0.14565 0.90721 0.0
O134 O 0.2702 0.88216 0.05818 0.0
C135 C 0.24487 0.06371 0.0354 0.0
Co136 Co 0.09704 0.74597 0.25253 0.0
Co137 Co 0.99749 0.73967 0.31463 0.0
C138 C 0.05067 0.63583 0.27392 0.0
O139 O 0.09031 0.66418 0.25739 0.0
O140 O 1.01169 0.65992 0.29479 0.0
C141 C 0.18442 0.72632 0.1926 0.0
O142 O 0.16355 0.67498 0.19002 0.0
C143 C 0.98402 0.70408 0.39772 0.0
C144 C 0.91255 0.75442 0.42169 0.0
C145 C 0.95666 0.71899 0.43387 0.0
N146 N 0.95814 0.72977 0.36582 0.0
N147 N 0.914 0.7583 0.38013 0.0
C148 C 0.04133 0.67637 0.39491 0.0
H149 H 0.05836 0.67754 0.36315 0.0
H150 H 0.07189 0.69781 0.41584 0.0
H151 H 0.03772 0.63176 0.40506 0.0
C152 C 0.15314 0.80774 0.3218 0.0
N153 N 0.10922 0.77981 0.30419 0.0
N154 N 0.06495 0.78175 0.32877 0.0
C155 C 0.07856 0.81361 0.36188 0.0
C156 C 0.13526 0.82947 0.35952 0.0
C157 C 0.21088 0.81308 0.30281 0.0
H158 H 0.20989 0.84718 0.27934 0.0
H159 H 0.22248 0.77311 0.28704 0.0
H160 H 0.2435 0.82353 0.32636 0.0
O161 O 0.02727 0.77822 0.2248 0.0
O162 O 0.95547 0.78015 0.26969 0.0
H163 H 0.99342 0.83677 0.37917 0.0
H164 H 0.04869 0.87845 0.40305 0.0
C165 C 0.03673 0.83541 0.39255 0.0
H166 H 0.03772 0.80735 0.4196 0.0
H167 H 0.88873 0.78505 0.36226 0.0
O168 O 0.16219 0.76179 0.21719 0.0
C169 C 0.97564 0.79034 0.23374 0.0
Co170 Co 0.28603 0.08916 0.50163 0.0
Co171 Co 0.29398 0.99326 0.56509 0.0
C172 C 0.39784 0.0472 0.52391 0.0
O173 O 0.36873 0.08581 0.50695 0.0
O174 O 0.37398 1.00847 0.54498 0.0
C175 C 0.29605 0.19546 0.45874 0.0
O176 O 0.33495 0.21067 0.48559 0.0
C177 C 0.33124 0.98092 0.64787 0.0
C178 C 0.28246 0.90883 0.67216 0.0
C179 C 0.3176 0.95317 0.68404 0.0
N180 N 0.3051 0.95499 0.61625 0.0
N181 N 0.27755 0.91052 0.63068 0.0
C182 C 0.35815 0.03825 0.64488 0.0
H183 H 0.35522 0.05558 0.61328 0.0
H184 H 0.33714 0.06797 0.66657 0.0
H185 H 0.40361 0.03515 0.6539 0.0
C186 C 0.22001 0.14596 0.56942 0.0
N187 N 0.2499 0.10278 0.55269 0.0
N188 N 0.24984 0.05986 0.57831 0.0
C189 C 0.2178 0.07371 0.6114 0.0
C190 C 0.19935 0.1291 0.60777 0.0
C191 C 0.2128 0.20238 0.54935 0.0
H192 H 0.19234 0.19683 0.51878 0.0
H193 H 0.25529 0.22147 0.54424 0.0
H194 H 0.18697 0.23151 0.56849 0.0
O195 O 0.25662 0.01803 0.47523 0.0
O196 O 0.2543 0.94856 0.52134 0.0
H197 H 0.19863 0.98958 0.63194 0.0
H198 H 0.15614 0.04424 0.65554 0.0
C199 C 0.19924 0.0333 0.64398 0.0
H200 H 0.22913 0.03682 0.67004 0.0
H201 H 0.25081 0.88497 0.61299 0.0
O202 O 0.27031 0.1486 0.46217 0.0
C203 C 0.24495 0.96702 0.4849 0.0
Co204 Co 0.94143 0.28467 0.75255 0.0
Co205 Co 0.04102 0.29085 0.81463 0.0
C206 C 0.98785 0.39478 0.77402 0.0
O207 O 0.9482 0.36646 0.75749 0.0
O208 O 0.02685 0.37065 0.79485 0.0
C209 C 0.85449 0.30446 0.69237 0.0
O210 O 0.87592 0.35556 0.68959 0.0
C211 C 0.05452 0.32633 0.89773 0.0
C212 C 0.12596 0.2759 0.92168 0.0
C213 C 0.08188 0.31134 0.93388 0.0
N214 N 0.08039 0.30066 0.86583 0.0
N215 N 0.1245 0.27207 0.88012 0.0
C216 C 0.99724 0.35407 0.89494 0.0
H217 H 0.98019 0.35293 0.86318 0.0
H218 H 0.96667 0.33266 0.91587 0.0
H219 H 1.00089 0.39869 0.90509 0.0
C220 C 0.88532 0.22291 0.82182 0.0
N221 N 0.92926 0.25079 0.80419 0.0
N222 N 0.97355 0.24878 0.82875 0.0
C223 C 0.95995 0.21692 0.86185 0.0
C224 C 0.90322 0.20114 0.85953 0.0
C225 C 0.82754 0.21767 0.80286 0.0
H226 H 0.82843 0.18354 0.77941 0.0
H227 H 0.816 0.25764 0.78708 0.0
H228 H 0.79493 0.20731 0.82644 0.0
O229 O 1.01117 0.25242 0.72478 0.0
O230 O 0.083 0.25042 0.76965 0.0
H231 H 0.04508 0.19363 0.87907 0.0
H232 H 0.98979 0.15198 0.90295 0.0
C233 C 1.00179 0.19502 0.89249 0.0
H234 H 1.00086 0.22303 0.91956 0.0
H235 H 0.14976 0.24533 0.86223 0.0
O236 O 0.87625 0.26901 0.7172 0.0
C237 C 0.0628 0.24027 0.73371 0.0
Co238 Co 0.75246 0.94161 1.0017 0.0
Co239 Co 0.74455 0.0375 0.06516 0.0
C240 C 0.64067 0.98358 0.02396 0.0
O241 O 0.66977 0.94496 1.00701 0.0
O242 O 0.66454 0.02231 0.04503 0.0
C243 C 0.74237 0.83544 0.9586 0.0
O244 O 0.7033 0.82021 0.98532 0.0
C245 C 0.70729 0.0498 0.14794 0.0
C246 C 0.7561 0.12187 0.17226 0.0
C247 C 0.72094 0.07752 0.18412 0.0
N248 N 0.73343 0.07575 0.11633 0.0
N249 N 0.76099 0.12021 0.13078 0.0
C250 C 0.68037 0.99248 0.14493 0.0
H251 H 0.68328 0.97518 0.11333 0.0
H252 H 0.7014 0.96274 0.1666 0.0
H253 H 0.63492 0.99558 0.15397 0.0
C254 C 0.81839 0.88475 0.0695 0.0
N255 N 0.78856 0.92797 0.05276 0.0
N256 N 0.78866 0.97089 0.07838 0.0
C257 C 0.82069 0.95701 0.11147 0.0
C258 C 0.83907 0.9016 0.10785 0.0
C259 C 0.82553 0.82832 0.04943 0.0
H260 H 0.8463 0.83382 0.01897 0.0
H261 H 0.78299 0.80944 0.04408 0.0
H262 H 0.85103 0.79905 0.06869 0.0
O263 O 0.78186 1.01274 0.97532 0.0
O264 O 0.78423 0.08222 0.02143 0.0
H265 H 0.83993 0.04114 0.132 0.0
H266 H 0.8824 0.98645 0.15559 0.0
C267 C 0.8393 0.99742 0.14405 0.0
H268 H 0.80944 0.99392 0.17011 0.0
H269 H 0.78773 0.14576 0.1131 0.0
O270 O 0.76821 0.88222 0.9622 0.0
C271 C 0.79354 0.06375 0.98498 0.0
C272 C 0.10142 0.54445 0.26364 0.0
C273 C 0.04992 0.57401 0.26785 0.0
H274 H 0.14184 0.46448 0.25406 0.0
C275 C 0.9983 0.54438 0.26432 0.0
H276 H 0.14181 0.56627 0.26617 0.0
C277 C 0.99832 0.48626 0.25609 0.0
C278 C 0.04995 0.45667 0.2525 0.0
H279 H 0.95802 0.56634 0.26708 0.0
H280 H 0.95805 0.46427 0.25338 0.0
C281 C 0.10144 0.48627 0.25664 0.0
C282 C 0.54862 0.99561 0.5061 0.0
C283 C 0.57849 0.04682 0.50256 0.0
H284 H 0.46797 0.95561 0.51702 0.0
C285 C 0.54867 0.09793 0.50674 0.0
H286 H 0.57073 0.95563 0.50337 0.0
C287 C 0.48996 0.09792 0.51365 0.0
C288 C 0.46017 0.04679 0.51783 0.0
H289 H 0.5707 0.138 0.50421 0.0
H290 H 0.46791 0.13798 0.51618 0.0
C291 C 0.49006 0.9956 0.5143 0.0
C292 C 0.93707 0.54435 0.75689 0.0
C293 C 0.98855 0.57394 0.75264 0.0
H294 H 0.8967 0.46436 0.76647 0.0
C295 C 0.04019 0.54434 0.75616 0.0
H296 H 0.89666 0.56615 0.75437 0.0
C297 C 0.04021 0.48621 0.76439 0.0
C298 C 0.9886 0.4566 0.768 0.0
H299 H 0.08045 0.56631 0.75338 0.0
H300 H 0.0805 0.46424 0.76708 0.0
C301 C 0.9371 0.48618 0.76388 0.0
C302 C 0.48985 0.93285 1.00673 0.0
C303 C 0.46004 0.98397 1.00254 0.0
H304 H 0.57061 0.89281 0.01622 0.0
C305 C 0.48991 0.03517 1.00608 0.0
H306 H 0.46783 0.89278 1.0042 0.0
C307 C 0.54846 0.03519 0.01431 0.0
C308 C 0.57835 0.98399 0.01786 0.0
H309 H 0.46779 0.07516 1.00335 0.0
H310 H 0.57055 0.07518 0.01704 0.0
C311 C 0.54856 0.93286 0.01367 0.0
C312 C 0.27859 0.20397 0.38454 0.0
C313 C 0.28253 0.23039 0.42305 0.0
H314 H 0.24577 0.20794 0.32342 0.0
C315 C 0.26372 0.28615 0.42787 0.0
H316 H 0.29347 0.161 0.38031 0.0
C317 C 0.23553 0.31304 0.39532 0.0
C318 C 0.22637 0.28409 0.35801 0.0
H319 H 0.26637 0.3069 0.45759 0.0
H320 H 0.21716 0.35441 0.40049 0.0
C321 C 0.25114 0.23077 0.35213 0.0
C322 C 0.77538 0.28617 0.59229 0.0
C323 C 0.75622 0.23055 0.59722 0.0
H324 H 0.82229 0.35427 0.61956 0.0
C325 C 0.7599 0.20428 0.63579 0.0
H326 H 0.77294 0.3068 0.56252 0.0
C327 C 0.78745 0.23106 0.66818 0.0
C328 C 0.81256 0.2842 0.6622 0.0
H329 H 0.74476 0.16141 0.6401 0.0
H330 H 0.79261 0.20832 0.69694 0.0
C331 C 0.80366 0.31304 0.62481 0.0
C332 C 0.77391 0.74467 0.92737 0.0
C333 C 0.75583 0.80071 0.92279 0.0
H334 H 0.81974 0.6761 0.89977 0.0
C335 C 0.7603 0.82745 0.88442 0.0
H336 H 0.77081 0.72367 0.95697 0.0
C337 C 0.78759 0.80062 0.85196 0.0
C338 C 0.81164 0.74693 0.85763 0.0
H339 H 0.74596 0.87062 0.88036 0.0
H340 H 0.79338 0.82365 0.82338 0.0
C341 C 0.80193 0.71774 0.89477 0.0
C342 C 0.26376 0.74461 0.09262 0.0
C343 C 0.2824 0.80044 0.09738 0.0
H344 H 0.21735 0.67629 0.12003 0.0
C345 C 0.27832 0.82694 0.13586 0.0
H346 H 0.26653 0.7238 0.06293 0.0
C347 C 0.25088 0.80015 0.16827 0.0
C348 C 0.22628 0.74674 0.16244 0.0
H349 H 0.29308 0.86996 0.14005 0.0
H350 H 0.2454 0.82303 0.19695 0.0
C351 C 0.23559 0.71772 0.12517 0.0
C352 C 1.00104 0.26133 0.02716 0.0
C353 C 0.98434 0.31238 0.04554 0.0
H354 H 0.05098 0.22118 0.98049 0.0
C355 C 1.00255 0.36356 0.02804 0.0
H356 H 0.9876 0.22123 0.03993 0.0
C357 C 0.03623 0.36353 0.99238 0.0
C358 C 0.05437 0.31232 0.97488 0.0
H359 H 0.99077 0.40345 0.042 0.0
H360 H 0.04807 0.4034 0.97842 0.0
C361 C 0.03761 0.2613 0.99327 0.0
C362 C 0.66829 0.03221 0.24244 0.0
C363 C 0.7199 0.05031 0.22504 0.0
H364 H 0.62814 0.98693 0.29201 0.0
C365 C 0.77134 0.03361 0.24331 0.0
H366 H 0.62812 0.04394 0.22845 0.0
C367 C 0.77136 0.99728 0.27713 0.0
C368 C 0.71992 0.98057 0.2954 0.0
H369 H 0.81174 0.04685 0.23045 0.0
H370 H 0.81177 0.98405 0.28998 0.0
C371 C 0.6683 0.99867 0.27801 0.0
C372 C 0.03596 0.66676 0.52805 0.0
C373 C 0.05417 0.71794 0.54555 0.0
H374 H 0.99046 0.62691 0.4784 0.0
C375 C 0.0375 0.76898 0.52716 0.0
H376 H 0.04774 0.62687 0.54201 0.0
C377 C 1.00093 0.76901 0.49326 0.0
C378 C 0.98417 0.71799 0.47487 0.0
H379 H 0.05094 0.80908 0.53993 0.0
H380 H 0.98756 0.80914 0.48048 0.0
C381 C 1.0023 0.66678 0.49237 0.0
C382 C 0.26719 0.99705 0.74322 0.0
C383 C 0.31865 0.98037 0.72497 0.0
H384 H 0.22675 0.04661 0.78989 0.0
C385 C 0.37025 0.99847 0.74238 0.0
H386 H 0.2268 0.98381 0.73035 0.0
C387 C 0.37022 0.03201 0.77796 0.0
C388 C 0.31859 0.0501 0.79533 0.0
H389 H 0.41042 0.98675 0.7284 0.0
H390 H 0.41037 0.04376 0.79196 0.0
C391 C 0.26716 0.03339 0.77705 0.0
C392 C 0.16509 0.18435 0.08754 0.0
C393 C 0.16757 0.16851 0.12936 0.0
H394 H 0.1879 0.16435 0.02511 0.0
C395 C 0.1975 0.11947 0.14015 0.0
H396 H 0.14237 0.22216 0.07839 0.0
C397 C 0.223 0.086 0.10963 0.0
C398 C 0.2198 0.10118 0.06761 0.0
H399 H 0.1996 0.106 0.17203 0.0
H400 H 0.24488 0.04783 0.11902 0.0
C401 C 0.19127 0.15132 0.05704 0.0
C402 C 0.8865 0.18957 0.30945 0.0
C403 C 0.93936 0.21405 0.31922 0.0
H404 H 0.81359 0.14387 0.33146 0.0
C405 C 0.95771 0.21258 0.36066 0.0
H406 H 0.87093 0.18975 0.27801 0.0
C407 C 0.92453 0.18676 0.3913 0.0
C408 C 0.87238 0.16144 0.38128 0.0
H409 H 0.99808 0.23109 0.36948 0.0
H410 H 0.94044 0.18519 0.42263 0.0
C411 C 0.85364 0.16326 0.34007 0.0
C412 C 0.84723 0.87938 0.55706 0.0
C413 C 0.81878 0.92956 0.56766 0.0
H414 H 0.89606 0.80847 0.57837 0.0
C415 C 0.81569 0.94475 0.60968 0.0
H416 H 0.85051 0.86635 0.52513 0.0
C417 C 0.8412 0.91124 0.64018 0.0
C418 C 0.87103 0.86215 0.62936 0.0
H419 H 0.79388 0.98295 0.61909 0.0
H420 H 0.83917 0.92472 0.67206 0.0
C421 C 0.87342 0.84632 0.58755 0.0
C422 C 0.08094 0.818 0.86061 0.0
C423 C 0.09925 0.81657 0.81916 0.0
H424 H 0.09825 0.84538 0.92259 0.0
C425 C 0.15207 0.84112 0.80938 0.0
H426 H 0.04061 0.79944 0.86945 0.0
C427 C 0.18492 0.86746 0.83999 0.0
C428 C 0.16623 0.86924 0.88121 0.0
H429 H 0.1676 0.84097 0.77793 0.0
H430 H 0.22494 0.8869 0.83136 0.0
C431 C 0.11412 0.84384 0.89125 0.0
C432 C 0.19731 0.91131 0.38019 0.0
C433 C 0.16751 0.8622 0.391 0.0
H434 H 0.24463 0.98301 0.40128 0.0
C435 C 0.16521 0.84631 0.4328 0.0
H436 H 0.19928 0.92482 0.34831 0.0
C437 C 0.19142 0.87935 0.46329 0.0
C438 C 0.21983 0.92956 0.4527 0.0
H439 H 0.1426 0.80845 0.44198 0.0
H440 H 0.1882 0.86628 0.49521 0.0
C441 C 0.22285 0.94479 0.41068 0.0
C442 C 0.185 0.16318 0.68034 0.0
C443 C 0.1663 0.16139 0.63913 0.0
H444 H 0.16769 0.18963 0.74241 0.0
C445 C 0.11416 0.18675 0.62909 0.0
H446 H 0.22504 0.14376 0.68897 0.0
C447 C 0.08097 0.21257 0.65974 0.0
C448 C 0.09929 0.214 0.70119 0.0
H449 H 0.09828 0.18521 0.59776 0.0
H450 H 0.04063 0.23111 0.6509 0.0
C451 C 0.15214 0.18948 0.71096 0.0
C452 C 0.84105 0.11941 0.88024 0.0
C453 C 0.87095 0.16847 0.89102 0.0
H454 H 0.79366 0.04779 0.90137 0.0
C455 C 0.87337 0.18435 0.93283 0.0
H456 H 0.839 0.10591 0.84836 0.0
C457 C 0.84715 0.15135 0.96334 0.0
C458 C 0.81864 0.10119 0.95276 0.0
H459 H 0.89606 0.22217 0.94199 0.0
H460 H 0.85047 0.16441 0.99526 0.0
C461 C 0.81551 0.08597 0.91075 0.0
C462 C 0.95737 0.81796 0.15978 0.0
C463 C 0.93913 0.81661 0.20124 0.0
H464 H 0.94001 0.84528 0.09779 0.0
C465 C 0.88634 0.84124 0.21104 0.0
H466 H 0.99767 0.79934 0.15092 0.0
C467 C 0.85347 0.86757 0.18044 0.0
C468 C 0.87212 0.86928 0.1392 0.0
H469 H 0.87085 0.84115 0.2425 0.0
H470 H 0.81349 0.88707 0.18908 0.0
C471 C 0.92418 0.8438 0.12914 0.0
loop_
_geom_bond_atom_site_label_1
_geom_bond_atom_site_label_2
_geom_bond_distance
_geom_bond_site_symmetry_2
_ccdc_geom_bond_type
Co0 O3 1.970 . S
Co0 N17 1.989 . S
Co0 O25 1.967 . S
Co0 O32 1.920 . S
Co1 O4 1.966 . S
Co1 N10 2.022 . S
Co1 N18 1.993 . S
Co1 O26 1.941 . S
C2 O3 1.258 . S
C2 O4 1.263 . S
O3 Co0 1.970 . S
O3 C2 1.258 . S
O4 Co1 1.966 . S
O4 C2 1.263 . S
C5 O6 1.235 . S
C5 O32 1.289 . S
O6 C5 1.235 . S
C7 C9 1.400 . S
C7 N10 1.351 . S
C7 C12 1.501 . S
C8 C9 1.387 1_655 S
C8 N11 1.341 . S
C9 C7 1.400 . S
C9 C8 1.387 1_455 S
N10 Co1 2.022 . S
N10 C7 1.351 . S
N10 N11 1.365 1_455 S
N11 C8 1.341 . S
N11 N10 1.365 1_655 S
N11 H31 0.862 . S
C12 C7 1.501 . S
C12 H13 0.961 . S
C12 H14 0.961 . S
C12 H15 0.960 . S
H13 C12 0.961 . S
H14 C12 0.961 . S
H15 C12 0.960 . S
C16 N17 1.342 . S
C16 C20 1.401 . S
C16 C21 1.499 . S
N17 Co0 1.989 . S
N17 C16 1.342 . S
N17 N18 1.388 . S
N18 Co1 1.993 . S
N18 N17 1.388 . S
N18 C19 1.346 . S
C19 N18 1.346 . S
C19 C20 1.396 . S
C19 C29 1.510 . S
C20 C16 1.401 . S
C20 C19 1.396 . S
C21 C16 1.499 . S
C21 H22 0.959 . S
C21 H23 0.960 . S
C21 H24 0.961 . S
H22 C21 0.959 . S
H23 C21 0.960 . S
H24 C21 0.961 . S
O25 Co0 1.967 . S
O25 C33 1.258 . S
O26 Co1 1.941 . S
O26 C33 1.266 . S
H27 C29 0.959 . S
H28 C29 0.961 . S
C29 C19 1.510 . S
C29 H27 0.959 . S
C29 H28 0.961 . S
C29 H30 0.960 . S
H30 C29 0.960 . S
H31 N11 0.862 . S
O32 Co0 1.920 . S
O32 C5 1.289 . S
C33 O25 1.258 . S
C33 O26 1.266 . S
Co34 O37 1.970 . S
Co34 N51 1.989 . S
Co34 O59 1.967 . S
Co34 O66 1.920 . S
Co35 O38 1.966 . S
Co35 N44 2.022 . S
Co35 N52 1.993 . S
Co35 O60 1.941 . S
C36 O37 1.258 . S
C36 O38 1.263 . S
O37 Co34 1.970 . S
O37 C36 1.258 . S
O38 Co35 1.966 . S
O38 C36 1.263 . S
C39 O40 1.235 . S
C39 O66 1.289 . S
O40 C39 1.235 . S
C41 C43 1.400 . S
C41 N44 1.351 . S
C41 C46 1.501 . S
C42 C43 1.387 1_565 S
C42 N45 1.341 . S
C43 C41 1.400 . S
C43 C42 1.387 1_545 S
N44 Co35 2.022 . S
N44 C41 1.351 . S
N44 N45 1.365 1_545 S
N45 C42 1.341 . S
N45 N44 1.365 1_565 S
N45 H65 0.862 . S
C46 C41 1.501 . S
C46 H47 0.961 . S
C46 H48 0.961 . S
C46 H49 0.960 . S
H47 C46 0.961 . S
H48 C46 0.961 . S
H49 C46 0.960 . S
C50 N51 1.342 . S
C50 C54 1.401 . S
C50 C55 1.499 . S
N51 Co34 1.989 . S
N51 C50 1.342 . S
N51 N52 1.388 . S
N52 Co35 1.993 . S
N52 N51 1.388 . S
N52 C53 1.346 . S
C53 N52 1.346 . S
C53 C54 1.396 . S
C53 C63 1.510 . S
C54 C50 1.401 . S
C54 C53 1.396 . S
C55 C50 1.499 . S
C55 H56 0.959 . S
C55 H57 0.960 . S
C55 H58 0.961 . S
H56 C55 0.959 . S
H57 C55 0.960 . S
H58 C55 0.961 . S
O59 Co34 1.967 . S
O59 C67 1.258 . S
O60 Co35 1.941 . S
O60 C67 1.266 . S
H61 C63 0.959 . S
H62 C63 0.961 . S
C63 C53 1.510 . S
C63 H61 0.959 . S
C63 H62 0.961 . S
C63 H64 0.960 . S
H64 C63 0.960 . S
H65 N45 0.862 . S
O66 Co34 1.920 . S
O66 C39 1.289 . S
C67 O59 1.258 . S
C67 O60 1.266 . S
Co68 O71 1.970 . S
Co68 N85 1.989 . S
Co68 O93 1.967 . S
Co68 O100 1.920 . S
Co69 O72 1.966 . S
Co69 N78 2.022 . S
Co69 N86 1.993 . S
Co69 O94 1.941 . S
C70 O71 1.258 . S
C70 O72 1.263 . S
O71 Co68 1.970 . S
O71 C70 1.258 . S
O72 Co69 1.966 . S
O72 C70 1.263 . S
C73 O74 1.235 . S
C73 O100 1.289 . S
O74 C73 1.235 . S
C75 C77 1.400 . S
C75 N78 1.351 . S
C75 C80 1.501 . S
C76 C77 1.387 1_455 S
C76 N79 1.341 . S
C77 C75 1.400 . S
C77 C76 1.387 1_655 S
N78 Co69 2.022 . S
N78 C75 1.351 . S
N78 N79 1.365 1_655 S
N79 C76 1.341 . S
N79 N78 1.365 1_455 S
N79 H99 0.862 . S
C80 C75 1.501 . S
C80 H81 0.961 . S
C80 H82 0.961 . S
C80 H83 0.960 . S
H81 C80 0.961 . S
H82 C80 0.961 . S
H83 C80 0.960 . S
C84 N85 1.342 . S
C84 C88 1.401 . S
C84 C89 1.499 . S
N85 Co68 1.989 . S
N85 C84 1.342 . S
N85 N86 1.388 . S
N86 Co69 1.993 . S
N86 N85 1.388 . S
N86 C87 1.346 . S
C87 N86 1.346 . S
C87 C88 1.396 . S
C87 C97 1.510 . S
C88 C84 1.401 . S
C88 C87 1.396 . S
C89 C84 1.499 . S
C89 H90 0.959 . S
C89 H91 0.960 . S
C89 H92 0.961 . S
H90 C89 0.959 . S
H91 C89 0.960 . S
H92 C89 0.961 . S
O93 Co68 1.967 . S
O93 C101 1.258 . S
O94 Co69 1.941 . S
O94 C101 1.266 . S
H95 C97 0.959 . S
H96 C97 0.961 . S
C97 C87 1.510 . S
C97 H95 0.959 . S
C97 H96 0.961 . S
C97 H98 0.960 . S
H98 C97 0.960 . S
H99 N79 0.862 . S
O100 Co68 1.920 . S
O100 C73 1.289 . S
C101 O93 1.258 . S
C101 O94 1.266 . S
Co102 O105 1.970 . S
Co102 N119 1.989 1_554 S
Co102 O127 1.967 . S
Co102 O134 1.920 . S
Co103 O106 1.966 . S
Co103 N112 2.022 . S
Co103 N120 1.993 . S
Co103 O128 1.941 . S
C104 O105 1.258 1_556 S
C104 O106 1.263 . S
O105 Co102 1.970 . S
O105 C104 1.258 1_554 S
O106 Co103 1.966 . S
O106 C104 1.263 . S
C107 O108 1.235 . S
C107 O134 1.289 . S
O108 C107 1.235 . S
C109 C111 1.400 . S
C109 N112 1.351 . S
C109 C114 1.501 . S
C110 C111 1.387 1_545 S
C110 N113 1.341 . S
C111 C109 1.400 . S
C111 C110 1.387 1_565 S
N112 Co103 2.022 . S
N112 C109 1.351 . S
N112 N113 1.365 1_565 S
N113 C110 1.341 . S
N113 N112 1.365 1_545 S
N113 H133 0.862 . S
C114 C109 1.501 . S
C114 H115 0.961 . S
C114 H116 0.961 . S
C114 H117 0.960 . S
H115 C114 0.961 . S
H116 C114 0.961 . S
H117 C114 0.960 . S
C118 N119 1.342 . S
C118 C122 1.401 . S
C118 C123 1.499 . S
N119 Co102 1.989 1_556 S
N119 C118 1.342 . S
N119 N120 1.388 . S
N120 Co103 1.993 . S
N120 N119 1.388 . S
N120 C121 1.346 . S
C121 N120 1.346 . S
C121 C122 1.396 . S
C121 C131 1.510 . S
C122 C118 1.401 . S
C122 C121 1.396 . S
C123 C118 1.499 . S
C123 H124 0.959 1_556 S
C123 H125 0.960 . S
C123 H126 0.961 . S
H124 C123 0.959 1_554 S
H125 C123 0.960 . S
H126 C123 0.961 . S
O127 Co102 1.967 . S
O127 C135 1.258 . S
O128 Co103 1.941 . S
O128 C135 1.266 1_556 S
H129 C131 0.959 . S
H130 C131 0.961 . S
C131 C121 1.510 . S
C131 H129 0.959 . S
C131 H130 0.961 . S
C131 H132 0.960 . S
H132 C131 0.960 . S
H133 N113 0.862 . S
O134 Co102 1.920 . S
O134 C107 1.289 . S
C135 O127 1.258 . S
C135 O128 1.266 1_554 S
Co136 O139 1.970 . S
Co136 N153 1.989 . S
Co136 O161 1.967 . S
Co136 O168 1.920 . S
Co137 O140 1.966 . S
Co137 N146 2.022 . S
Co137 N154 1.993 . S
Co137 O162 1.941 . S
C138 O139 1.258 . S
C138 O140 1.263 . S
O139 Co136 1.970 . S
O139 C138 1.258 . S
O140 Co137 1.966 . S
O140 C138 1.263 . S
C141 O142 1.235 . S
C141 O168 1.289 . S
O142 C141 1.235 . S
C143 C145 1.400 . S
C143 N146 1.351 . S
C143 C148 1.501 . S
C144 C145 1.387 1_655 S
C144 N147 1.341 . S
C145 C143 1.400 . S
C145 C144 1.387 1_455 S
N146 Co137 2.022 . S
N146 C143 1.351 . S
N146 N147 1.365 1_455 S
N147 C144 1.341 . S
N147 N146 1.365 1_655 S
N147 H167 0.862 . S
C148 C143 1.501 . S
C148 H149 0.961 . S
C148 H150 0.961 . S
C148 H151 0.960 . S
H149 C148 0.961 . S
H150 C148 0.961 . S
H151 C148 0.960 . S
C152 N153 1.342 . S
C152 C156 1.401 . S
C152 C157 1.499 . S
N153 Co136 1.989 . S
N153 C152 1.342 . S
N153 N154 1.388 . S
N154 Co137 1.993 . S
N154 N153 1.388 . S
N154 C155 1.346 . S
C155 N154 1.346 . S
C155 C156 1.396 . S
C155 C165 1.510 . S
C156 C152 1.401 . S
C156 C155 1.396 . S
C157 C152 1.499 . S
C157 H158 0.959 . S
C157 H159 0.960 . S
C157 H160 0.961 . S
H158 C157 0.959 . S
H159 C157 0.960 . S
H160 C157 0.961 . S
O161 Co136 1.967 . S
O161 C169 1.258 . S
O162 Co137 1.941 . S
O162 C169 1.266 . S
H163 C165 0.959 . S
H164 C165 0.961 . S
C165 C155 1.510 . S
C165 H163 0.959 . S
C165 H164 0.961 . S
C165 H166 0.960 . S
H166 C165 0.960 . S
H167 N147 0.862 . S
O168 Co136 1.920 . S
O168 C141 1.289 . S
C169 O161 1.258 . S
C169 O162 1.266 . S
Co170 O173 1.970 . S
Co170 N187 1.989 . S
Co170 O195 1.967 . S
Co170 O202 1.920 . S
Co171 O174 1.966 . S
Co171 N180 2.022 . S
Co171 N188 1.993 . S
Co171 O196 1.941 . S
C172 O173 1.258 . S
C172 O174 1.263 . S
O173 Co170 1.970 . S
O173 C172 1.258 . S
O174 Co171 1.966 . S
O174 C172 1.263 . S
C175 O176 1.235 . S
C175 O202 1.289 . S
O176 C175 1.235 . S
C177 C179 1.400 . S
C177 N180 1.351 . S
C177 C182 1.501 . S
C178 C179 1.387 1_565 S
C178 N181 1.341 . S
C179 C177 1.400 . S
C179 C178 1.387 1_545 S
N180 Co171 2.022 . S
N180 C177 1.351 . S
N180 N181 1.365 1_545 S
N181 C178 1.341 . S
N181 N180 1.365 1_565 S
N181 H201 0.862 . S
C182 C177 1.501 . S
C182 H183 0.961 . S
C182 H184 0.961 . S
C182 H185 0.960 . S
H183 C182 0.961 . S
H184 C182 0.961 . S
H185 C182 0.960 . S
C186 N187 1.342 . S
C186 C190 1.401 . S
C186 C191 1.499 . S
N187 Co170 1.989 . S
N187 C186 1.342 . S
N187 N188 1.388 . S
N188 Co171 1.993 . S
N188 N187 1.388 . S
N188 C189 1.346 . S
C189 N188 1.346 . S
C189 C190 1.396 . S
C189 C199 1.510 . S
C190 C186 1.401 . S
C190 C189 1.396 . S
C191 C186 1.499 . S
C191 H192 0.959 . S
C191 H193 0.960 . S
C191 H194 0.961 . S
H192 C191 0.959 . S
H193 C191 0.960 . S
H194 C191 0.961 . S
O195 Co170 1.967 . S
O195 C203 1.258 . S
O196 Co171 1.941 . S
O196 C203 1.266 . S
H197 C199 0.959 . S
H198 C199 0.961 . S
C199 C189 1.510 . S
C199 H197 0.959 . S
C199 H198 0.961 . S
C199 H200 0.960 . S
H200 C199 0.960 . S
H201 N181 0.862 . S
O202 Co170 1.920 . S
O202 C175 1.289 . S
C203 O195 1.258 . S
C203 O196 1.266 . S
Co204 O207 1.970 . S
Co204 N221 1.989 . S
Co204 O229 1.967 . S
Co204 O236 1.920 . S
Co205 O208 1.966 . S
Co205 N214 2.022 . S
Co205 N222 1.993 . S
Co205 O230 1.941 . S
C206 O207 1.258 . S
C206 O208 1.263 . S
O207 Co204 1.970 . S
O207 C206 1.258 . S
O208 Co205 1.966 . S
O208 C206 1.263 . S
C209 O210 1.235 . S
C209 O236 1.289 . S
O210 C209 1.235 . S
C211 C213 1.400 . S
C211 N214 1.351 . S
C211 C216 1.501 . S
C212 C213 1.387 1_455 S
C212 N215 1.341 . S
C213 C211 1.400 . S
C213 C212 1.387 1_655 S
N214 Co205 2.022 . S
N214 C211 1.351 . S
N214 N215 1.365 1_655 S
N215 C212 1.341 . S
N215 N214 1.365 1_455 S
N215 H235 0.862 . S
C216 C211 1.501 . S
C216 H217 0.961 . S
C216 H218 0.961 . S
C216 H219 0.960 . S
H217 C216 0.961 . S
H218 C216 0.961 . S
H219 C216 0.960 . S
C220 N221 1.342 . S
C220 C224 1.401 . S
C220 C225 1.499 . S
N221 Co204 1.989 . S
N221 C220 1.342 . S
N221 N222 1.388 . S
N222 Co205 1.993 . S
N222 N221 1.388 . S
N222 C223 1.346 . S
C223 N222 1.346 . S
C223 C224 1.396 . S
C223 C233 1.510 . S
C224 C220 1.401 . S
C224 C223 1.396 . S
C225 C220 1.499 . S
C225 H226 0.959 . S
C225 H227 0.960 . S
C225 H228 0.961 . S
H226 C225 0.959 . S
H227 C225 0.960 . S
H228 C225 0.961 . S
O229 Co204 1.967 . S
O229 C237 1.258 . S
O230 Co205 1.941 . S
O230 C237 1.266 . S
H231 C233 0.959 . S
H232 C233 0.961 . S
C233 C223 1.510 . S
C233 H231 0.959 . S
C233 H232 0.961 . S
C233 H234 0.960 . S
H234 C233 0.960 . S
H235 N215 0.862 . S
O236 Co204 1.920 . S
O236 C209 1.289 . S
C237 O229 1.258 . S
C237 O230 1.266 . S
Co238 O241 1.970 . S
Co238 N255 1.989 1_556 S
Co238 O263 1.967 . S
Co238 O270 1.920 . S
Co239 O242 1.966 . S
Co239 N248 2.022 . S
Co239 N256 1.993 . S
Co239 O264 1.941 . S
C240 O241 1.258 1_554 S
C240 O242 1.263 . S
O241 Co238 1.970 . S
O241 C240 1.258 1_556 S
O242 Co239 1.966 . S
O242 C240 1.263 . S
C243 O244 1.235 . S
C243 O270 1.289 . S
O244 C243 1.235 . S
C245 C247 1.400 . S
C245 N248 1.351 . S
C245 C250 1.501 . S
C246 C247 1.387 1_545 S
C246 N249 1.341 . S
C247 C245 1.400 . S
C247 C246 1.387 1_565 S
N248 Co239 2.022 . S
N248 C245 1.351 . S
N248 N249 1.365 1_565 S
N249 C246 1.341 . S
N249 N248 1.365 1_545 S
N249 H269 0.862 . S
C250 C245 1.501 . S
C250 H251 0.961 . S
C250 H252 0.961 . S
C250 H253 0.960 . S
H251 C250 0.961 . S
H252 C250 0.961 . S
H253 C250 0.960 . S
C254 N255 1.342 . S
C254 C258 1.401 . S
C254 C259 1.499 . S
N255 Co238 1.989 1_554 S
N255 C254 1.342 . S
N255 N256 1.388 . S
N256 Co239 1.993 . S
N256 N255 1.388 . S
N256 C257 1.346 . S
C257 N256 1.346 . S
C257 C258 1.396 . S
C257 C267 1.510 . S
C258 C254 1.401 . S
C258 C257 1.396 . S
C259 C254 1.499 . S
C259 H260 0.959 1_554 S
C259 H261 0.960 . S
C259 H262 0.961 . S
H260 C259 0.959 1_556 S
H261 C259 0.960 . S
H262 C259 0.961 . S
O263 Co238 1.967 . S
O263 C271 1.258 . S
O264 Co239 1.941 . S
O264 C271 1.266 1_554 S
H265 C267 0.959 . S
H266 C267 0.961 . S
C267 C257 1.510 . S
C267 H265 0.959 . S
C267 H266 0.961 . S
C267 H268 0.960 . S
H268 C267 0.960 . S
H269 N249 0.862 . S
O270 Co238 1.920 . S
O270 C243 1.289 . S
C271 O263 1.258 . S
C271 O264 1.266 1_556 S
C272 C273 1.387 . S
C272 H276 0.950 . S
C272 C281 1.390 . S
C273 C272 1.387 . S
C273 C275 1.387 . S
H274 C281 0.950 . S
C275 C273 1.387 . S
C275 C277 1.390 . S
C275 H279 0.950 . S
H276 C272 0.950 . S
C277 C275 1.390 . S
C277 C278 1.387 . S
C277 H280 0.950 . S
C278 C277 1.387 . S
C278 C281 1.387 . S
H279 C275 0.950 . S
H280 C277 0.950 . S
C281 C272 1.390 . S
C281 H274 0.950 . S
C281 C278 1.387 . S
C282 C283 1.387 . S
C282 H286 0.950 . S
C282 C291 1.390 . S
C283 C282 1.387 . S
C283 C285 1.387 . S
H284 C291 0.950 . S
C285 C283 1.387 . S
C285 C287 1.390 . S
C285 H289 0.950 . S
H286 C282 0.950 . S
C287 C285 1.390 . S
C287 C288 1.387 . S
C287 H290 0.950 . S
C288 C287 1.387 . S
C288 C291 1.387 . S
H289 C285 0.950 . S
H290 C287 0.950 . S
C291 C282 1.390 . S
C291 H284 0.950 . S
C291 C288 1.387 . S
C292 C293 1.387 . S
C292 H296 0.950 . S
C292 C301 1.390 . S
C293 C292 1.387 . S
C293 C295 1.387 . S
H294 C301 0.950 . S
C295 C293 1.387 . S
C295 C297 1.390 . S
C295 H299 0.950 . S
H296 C292 0.950 . S
C297 C295 1.390 . S
C297 C298 1.387 . S
C297 H300 0.950 . S
C298 C297 1.387 . S
C298 C301 1.387 . S
H299 C295 0.950 . S
H300 C297 0.950 . S
C301 C292 1.390 . S
C301 H294 0.950 . S
C301 C298 1.387 . S
C302 C303 1.387 . S
C302 H306 0.950 . S
C302 C311 1.390 1_556 S
C303 C302 1.387 . S
C303 C305 1.387 . S
H304 C311 0.950 . S
C305 C303 1.387 . S
C305 C307 1.390 1_556 S
C305 H309 0.950 . S
H306 C302 0.950 . S
C307 C305 1.390 1_554 S
C307 C308 1.387 . S
C307 H310 0.950 . S
C308 C307 1.387 . S
C308 C311 1.387 . S
H309 C305 0.950 . S
H310 C307 0.950 . S
C311 C302 1.390 1_554 S
C311 H304 0.950 . S
C311 C308 1.387 . S
C312 C313 1.387 . S
C312 H316 0.950 . S
C312 C321 1.390 . S
C313 C312 1.387 . S
C313 C315 1.387 . S
H314 C321 0.950 . S
C315 C313 1.387 . S
C315 C317 1.390 . S
C315 H319 0.950 . S
H316 C312 0.950 . S
C317 C315 1.390 . S
C317 C318 1.387 . S
C317 H320 0.950 . S
C318 C317 1.387 . S
C318 C321 1.387 . S
H319 C315 0.950 . S
H320 C317 0.950 . S
C321 C312 1.390 . S
C321 H314 0.950 . S
C321 C318 1.387 . S
C322 C323 1.387 . S
C322 H326 0.950 . S
C322 C331 1.390 . S
C323 C322 1.387 . S
C323 C325 1.387 . S
H324 C331 0.950 . S
C325 C323 1.387 . S
C325 C327 1.390 . S
C325 H329 0.950 . S
H326 C322 0.950 . S
C327 C325 1.390 . S
C327 C328 1.387 . S
C327 H330 0.950 . S
C328 C327 1.387 . S
C328 C331 1.387 . S
H329 C325 0.950 . S
H330 C327 0.950 . S
C331 C322 1.390 . S
C331 H324 0.950 . S
C331 C328 1.387 . S
C332 C333 1.387 . S
C332 H336 0.950 . S
C332 C341 1.390 . S
C333 C332 1.387 . S
C333 C335 1.387 . S
H334 C341 0.950 . S
C335 C333 1.387 . S
C335 C337 1.390 . S
C335 H339 0.950 . S
H336 C332 0.950 . S
C337 C335 1.390 . S
C337 C338 1.387 . S
C337 H340 0.950 . S
C338 C337 1.387 . S
C338 C341 1.387 . S
H339 C335 0.950 . S
H340 C337 0.950 . S
C341 C332 1.390 . S
C341 H334 0.950 . S
C341 C338 1.387 . S
C342 C343 1.387 . S
C342 H346 0.950 . S
C342 C351 1.390 . S
C343 C342 1.387 . S
C343 C345 1.387 . S
H344 C351 0.950 . S
C345 C343 1.387 . S
C345 C347 1.390 . S
C345 H349 0.950 . S
H346 C342 0.950 . S
C347 C345 1.390 . S
C347 C348 1.387 . S
C347 H350 0.950 . S
C348 C347 1.387 . S
C348 C351 1.387 . S
H349 C345 0.950 . S
H350 C347 0.950 . S
C351 C342 1.390 . S
C351 H344 0.950 . S
C351 C348 1.387 . S
C352 C353 1.387 . S
C352 H356 0.950 . S
C352 C361 1.390 1_454 S
C353 C352 1.387 . S
C353 C355 1.387 . S
H354 C361 0.950 . S
C355 C353 1.387 . S
C355 C357 1.390 1_454 S
C355 H359 0.950 . S
H356 C352 0.950 . S
C357 C355 1.390 1_656 S
C357 C358 1.387 . S
C357 H360 0.950 . S
C358 C357 1.387 . S
C358 C361 1.387 . S
H359 C355 0.950 . S
H360 C357 0.950 . S
C361 C352 1.390 1_656 S
C361 H354 0.950 . S
C361 C358 1.387 . S
C362 C363 1.387 . S
C362 H366 0.950 . S
C362 C371 1.390 1_565 S
C363 C362 1.387 . S
C363 C365 1.387 . S
H364 C371 0.950 . S
C365 C363 1.387 . S
C365 C367 1.390 1_565 S
C365 H369 0.950 . S
H366 C362 0.950 . S
C367 C365 1.390 1_545 S
C367 C368 1.387 . S
C367 H370 0.950 . S
C368 C367 1.387 . S
C368 C371 1.387 . S
H369 C365 0.950 . S
H370 C367 0.950 . S
C371 C362 1.390 1_545 S
C371 H364 0.950 . S
C371 C368 1.387 . S
C372 C373 1.387 . S
C372 H376 0.950 . S
C372 C381 1.390 1_655 S
C373 C372 1.387 . S
C373 C375 1.387 . S
H374 C381 0.950 . S
C375 C373 1.387 . S
C375 C377 1.390 1_655 S
C375 H379 0.950 . S
H376 C372 0.950 . S
C377 C375 1.390 1_455 S
C377 C378 1.387 . S
C377 H380 0.950 . S
C378 C377 1.387 . S
C378 C381 1.387 . S
H379 C375 0.950 . S
H380 C377 0.950 . S
C381 C372 1.390 1_455 S
C381 H374 0.950 . S
C381 C378 1.387 . S
C382 C383 1.387 . S
C382 H386 0.950 . S
C382 C391 1.390 1_545 S
C383 C382 1.387 . S
C383 C385 1.387 . S
H384 C391 0.950 . S
C385 C383 1.387 . S
C385 C387 1.390 1_545 S
C385 H389 0.950 . S
H386 C382 0.950 . S
C387 C385 1.390 1_565 S
C387 C388 1.387 . S
C387 H390 0.950 . S
C388 C387 1.387 . S
C388 C391 1.387 . S
H389 C385 0.950 . S
H390 C387 0.950 . S
C391 C382 1.390 1_565 S
C391 H384 0.950 . S
C391 C388 1.387 . S
C392 C393 1.387 . S
C392 H396 0.950 . S
C392 C401 1.390 . S
C393 C392 1.387 . S
C393 C395 1.387 . S
H394 C401 0.950 . S
C395 C393 1.387 . S
C395 C397 1.390 . S
C395 H399 0.950 . S
H396 C392 0.950 . S
C397 C395 1.390 . S
C397 C398 1.387 . S
C397 H400 0.950 . S
C398 C397 1.387 . S
C398 C401 1.387 . S
H399 C395 0.950 . S
H400 C397 0.950 . S
C401 C392 1.390 . S
C401 H394 0.950 . S
C401 C398 1.387 . S
C402 C403 1.387 . S
C402 H406 0.950 . S
C402 C411 1.390 . S
C403 C402 1.387 . S
C403 C405 1.387 . S
H404 C411 0.950 . S
C405 C403 1.387 . S
C405 C407 1.390 . S
C405 H409 0.950 . S
H406 C402 0.950 . S
C407 C405 1.390 . S
C407 C408 1.387 . S
C407 H410 0.950 . S
C408 C407 1.387 . S
C408 C411 1.387 . S
H409 C405 0.950 . S
H410 C407 0.950 . S
C411 C402 1.390 . S
C411 H404 0.950 . S
C411 C408 1.387 . S
C412 C413 1.387 . S
C412 H416 0.950 . S
C412 C421 1.390 . S
C413 C412 1.387 . S
C413 C415 1.387 . S
H414 C421 0.950 . S
C415 C413 1.387 . S
C415 C417 1.390 . S
C415 H419 0.950 . S
H416 C412 0.950 . S
C417 C415 1.390 . S
C417 C418 1.387 . S
C417 H420 0.950 . S
C418 C417 1.387 . S
C418 C421 1.387 . S
H419 C415 0.950 . S
H420 C417 0.950 . S
C421 C412 1.390 . S
C421 H414 0.950 . S
C421 C418 1.387 . S
C422 C423 1.387 . S
C422 H426 0.950 . S
C422 C431 1.390 . S
C423 C422 1.387 . S
C423 C425 1.387 . S
H424 C431 0.950 . S
C425 C423 1.387 . S
C425 C427 1.390 . S
C425 H429 0.950 . S
H426 C422 0.950 . S
C427 C425 1.390 . S
C427 C428 1.387 . S
C427 H430 0.950 . S
C428 C427 1.387 . S
C428 C431 1.387 . S
H429 C425 0.950 . S
H430 C427 0.950 . S
C431 C422 1.390 . S
C431 H424 0.950 . S
C431 C428 1.387 . S
C432 C433 1.387 . S
C432 H436 0.950 . S
C432 C441 1.390 . S
C433 C432 1.387 . S
C433 C435 1.387 . S
H434 C441 0.950 . S
C435 C433 1.387 . S
C435 C437 1.390 . S
C435 H439 0.950 . S
H436 C432 0.950 . S
C437 C435 1.390 . S
C437 C438 1.387 . S
C437 H440 0.950 . S
C438 C437 1.387 . S
C438 C441 1.387 . S
H439 C435 0.950 . S
H440 C437 0.950 . S
C441 C432 1.390 . S
C441 H434 0.950 . S
C441 C438 1.387 . S
C442 C443 1.387 . S
C442 H446 0.950 . S
C442 C451 1.390 . S
C443 C442 1.387 . S
C443 C445 1.387 . S
H444 C451 0.950 . S
C445 C443 1.387 . S
C445 C447 1.390 . S
C445 H449 0.950 . S
H446 C442 0.950 . S
C447 C445 1.390 . S
C447 C448 1.387 . S
C447 H450 0.950 . S
C448 C447 1.387 . S
C448 C451 1.387 . S
H449 C445 0.950 . S
H450 C447 0.950 . S
C451 C442 1.390 . S
C451 H444 0.950 . S
C451 C448 1.387 . S
C452 C453 1.387 . S
C452 H456 0.950 . S
C452 C461 1.390 . S
C453 C452 1.387 . S
C453 C455 1.387 . S
H454 C461 0.950 . S
C455 C453 1.387 . S
C455 C457 1.390 . S
C455 H459 0.950 . S
H456 C452 0.950 . S
C457 C455 1.390 . S
C457 C458 1.387 . S
C457 H460 0.950 . S
C458 C457 1.387 . S
C458 C461 1.387 . S
H459 C455 0.950 . S
H460 C457 0.950 . S
C461 C452 1.390 . S
C461 H454 0.950 . S
C461 C458 1.387 . S
C462 C463 1.387 . S
C462 H466 0.950 . S
C462 C471 1.390 . S
C463 C462 1.387 . S
C463 C465 1.387 . S
H464 C471 0.950 . S
C465 C463 1.387 . S
C465 C467 1.390 . S
C465 H469 0.950 . S
H466 C462 0.950 . S
C467 C465 1.390 . S
C467 C468 1.387 . S
C467 H470 0.950 . S
C468 C467 1.387 . S
C468 C471 1.387 . S
H469 C465 0.950 . S
H470 C467 0.950 . S
C471 C462 1.390 . S
C471 H464 0.950 . S
C471 C468 1.387 . S
C273 C138 1.148 . S
C278 C2 1.148 . S
C283 C36 1.148 . S
C288 C172 1.148 . S
C293 C70 1.148 . S
C298 C206 1.148 . S
C303 C104 1.148 . S
C308 C240 1.148 . S
C313 C175 0.837 . S
C318 C5 0.837 . S
C323 C39 0.839 . S
C328 C209 0.839 . S
C333 C243 0.839 . S
C338 C73 0.840 . S
C343 C107 0.839 . S
C348 C141 0.839 . S
C353 C9 0.884 . S
C358 C213 0.884 . S
C363 C247 0.881 . S
C368 C43 0.881 . S
C373 C77 0.881 . S
C378 C145 0.881 . S
C383 C179 0.884 . S
C388 C111 0.884 . S
C393 C20 2.359 . S
C398 C135 2.366 1_545 S
C403 C33 2.365 1_655 S
C408 C54 2.358 . S
C413 C67 2.365 1_565 S
C418 C88 2.358 . S
C423 C101 2.366 1_455 S
C428 C122 2.359 . S
C433 C156 2.359 . S
C438 C203 2.366 1_565 S
C443 C190 2.358 . S
C448 C237 2.365 1_455 S
C453 C224 2.359 . S
C458 C271 2.366 1_545 S
C463 C169 2.366 1_655 S
C468 C258 2.359 . S
