# Generated by pormake.
# Topology fcu, (12)-cn, num edge types: 1
# Building blocks:
#     Node 0, Type 0, BuildingBlock: FANWIC_clean_sbu_0, # of connection points: 12
#     Node 1, Type 0, BuildingBlock: FANWIC_clean_sbu_0, # of connection points: 12
#     Node 2, Type 0, BuildingBlock: FANWIC_clean_sbu_0, # of connection points: 12
#     Node 3, Type 0, BuildingBlock: FANWIC_clean_sbu_0, # of connection points: 12
#     Edge 4, Type (0, 0), BuildingBlock: XUDNAN_clean_linker_2, # of connection points: 2
#     Edge 5, Type (0, 0), BuildingBlock: XUDNAN_clean_linker_2, # of connection points: 2
#     Edge 6, Type (0, 0), BuildingBlock: XUDNAN_clean_linker_2, # of connection points: 2
#     Edge 7, Type (0, 0), BuildingBlock: XUDNAN_clean_linker_2, # of connection points: 2
#     Edge 8, Type (0, 0), BuildingBlock: XUDNAN_clean_linker_2, # of connection points: 2
#     Edge 9, Type (0, 0), BuildingBlock: XUDNAN_clean_linker_2, # of connection points: 2
#     Edge 10, Type (0, 0), BuildingBlock: XUDNAN_clean_linker_2, # of connection points: 2
#     Edge 11, Type (0, 0), BuildingBlock: XUDNAN_clean_linker_2, # of connection points: 2
#     Edge 12, Type (0, 0), BuildingBlock: XUDNAN_clean_linker_2, # of connection points: 2
#     Edge 13, Type (0, 0), BuildingBlock: XUDNAN_clean_linker_2, # of connection points: 2
#     Edge 14, Type (0, 0), BuildingBlock: XUDNAN_clean_linker_2, # of connection points: 2
#     Edge 15, Type (0, 0), BuildingBlock: XUDNAN_clean_linker_2, # of connection points: 2
#     Edge 16, Type (0, 0), BuildingBlock: XUDNAN_clean_linker_2, # of connection points: 2
#     Edge 17, Type (0, 0), BuildingBlock: XUDNAN_clean_linker_2, # of connection points: 2
#     Edge 18, Type (0, 0), BuildingBlock: XUDNAN_clean_linker_2, # of connection points: 2
#     Edge 19, Type (0, 0), BuildingBlock: XUDNAN_clean_linker_2, # of connection points: 2
#     Edge 20, Type (0, 0), BuildingBlock: XUDNAN_clean_linker_2, # of connection points: 2
#     Edge 21, Type (0, 0), BuildingBlock: XUDNAN_clean_linker_2, # of connection points: 2
#     Edge 22, Type (0, 0), BuildingBlock: XUDNAN_clean_linker_2, # of connection points: 2
#     Edge 23, Type (0, 0), BuildingBlock: XUDNAN_clean_linker_2, # of connection points: 2
#     Edge 24, Type (0, 0), BuildingBlock: XUDNAN_clean_linker_2, # of connection points: 2
#     Edge 25, Type (0, 0), BuildingBlock: XUDNAN_clean_linker_2, # of connection points: 2
#     Edge 26, Type (0, 0), BuildingBlock: XUDNAN_clean_linker_2, # of connection points: 2
#     Edge 27, Type (0, 0), BuildingBlock: XUDNAN_clean_linker_2, # of connection points: 2
# Relax obj value: 0.218
# Max RMSD: 0.293
# Mean RMSD: 0.293
data_MOF--net-fcu--node1-FANWIC_clean_sbu_0--edge1-XUDNAN_clean_linker_2
_symmetry_space_group_name_H-M    P1
_symmetry_Int_Tables_number       1
_symmetry_cell_setting            triclinic
loop_
_symmetry_equiv_pos_as_xyz
'x, y, z'
_cell_length_a     24.035411
_cell_length_b     24.989507
_cell_length_c     24.808314
_cell_angle_alpha  90.309818
_cell_angle_beta   89.328272
_cell_angle_gamma 90.477757
loop_
_atom_site_label
_atom_site_type_symbol
_atom_site_fract_x
_atom_site_fract_y
_atom_site_fract_z
_atom_type_partial_charge
Zn0 Zn 0.97102 -0.00441 0.91851 0.0
Zn1 Zn 0.91589 0.95381 0.03933 0.0
Zn2 Zn 0.97518 0.07879 0.02678 0.0
Zn3 Zn 0.86938 0.04043 0.97715 0.0
O4 O 0.94288 0.0129 0.99297 0.0
C5 C 0.01149 0.0822 0.13793 0.0
O6 O 0.05988 0.09524 0.11664 0.0
N7 N 0.0312 0.94246 0.91292 0.0
N8 N 0.06823 0.92871 0.94958 0.0
N9 N 0.08242 0.87729 0.87686 0.0
C10 C 0.0401 0.91138 0.86928 0.0
C11 C 0.09953 0.88924 0.92747 0.0
N12 N 0.97582 0.92214 0.07789 0.0
C13 C 0.05436 0.91019 0.11649 0.0
N14 N 0.02401 0.8651 0.12664 0.0
C15 C 0.97528 0.87434 0.10218 0.0
N16 N 0.02462 0.94483 0.0869 0.0
H17 H 0.93337 0.80243 0.07828 0.0
C18 C 0.92559 0.8378 0.10436 0.0
H19 H 0.88771 0.8586 0.09074 0.0
H20 H 0.91902 0.82314 0.14613 0.0
N21 N 0.05032 0.08173 -6e-05 0.0
C22 C 0.08502 0.12379 -0.00578 0.0
C23 C 0.12174 0.05764 0.95354 0.0
N24 N 0.07276 0.0406 0.97406 0.0
N25 N 0.13048 0.10965 0.9653 0.0
C26 C 0.07243 0.17905 0.01415 0.0
H27 H 0.0566 0.20334 0.98045 0.0
H28 H 0.04011 0.17782 0.04645 0.0
H29 H 0.11091 0.1986 0.0292 0.0
O30 O 0.83216 -0.00072 0.91887 0.0
O31 O 0.9065 0.97153 0.87313 0.0
C32 C 0.85401 0.97611 0.87812 0.0
O33 O 0.88158 0.89764 0.99205 0.0
O34 O 0.86997 0.11541 0.95224 0.0
O35 O 0.93247 0.14764 0.00867 0.0
O36 O 0.99698 0.06552 0.88873 0.0
O37 O 0.8237 0.04537 0.04497 0.0
O38 O 0.86117 0.98227 0.09456 0.0
O39 O 0.97073 0.0725 0.10727 0.0
C40 C 0.9136 0.86413 0.96899 0.0
O41 O 0.9675 0.86904 0.97508 0.0
C42 C 0.89302 0.15478 0.97564 0.0
C43 C 0.98812 0.08059 0.84088 0.0
O44 O 0.96212 0.0487 0.80717 0.0
C45 C 0.82715 0.02061 0.08936 0.0
H46 H 0.99157 0.95344 0.81147 0.0
H47 H 0.9675 0.88683 0.82712 0.0
H48 H 0.02792 0.8962 0.78443 0.0
C49 C 0.0049 0.91221 0.81997 0.0
Zn50 Zn 0.93926 0.49447 0.42732 0.0
Zn51 Zn 0.92703 0.47472 0.56436 0.0
Zn52 Zn 0.96689 0.59607 0.51095 0.0
Zn53 Zn 0.84821 0.54253 0.50577 0.0
O54 O 0.92823 0.52498 0.50231 0.0
C55 C 0.02835 0.60288 0.609 0.0
O56 O 0.06259 0.57527 0.57873 0.0
N57 N 0.98185 0.42852 0.42714 0.0
N58 N 0.03609 0.42321 0.43433 0.0
N59 N 0.00189 0.34347 0.40928 0.0
C60 C 0.96126 0.38045 0.41264 0.0
C61 C 0.04803 0.3714 0.42371 0.0
N62 N 0.99621 0.45634 0.59675 0.0
C63 C 0.07949 0.43709 0.62019 0.0
N64 N 0.04518 0.41244 0.65626 0.0
C65 C 0.99407 0.42515 0.64039 0.0
N66 N 0.04935 0.46473 0.58387 0.0
H67 H 0.94469 0.36202 0.67688 0.0
C68 C 0.94125 0.40503 0.6667 0.0
H69 H 0.90477 0.41017 0.64071 0.0
H70 H 0.9343 0.42743 0.7049 0.0
N71 N 0.03802 0.59222 0.47229 0.0
C72 C 0.07884 0.62926 0.4736 0.0
C73 C 0.10804 0.56461 0.42548 0.0
N74 N 0.05626 0.5514 0.44253 0.0
N75 N 0.12343 0.6125 0.44527 0.0
C76 C 0.07528 0.68119 0.50371 0.0
H77 H 0.08222 0.71476 0.47525 0.0
H78 H 0.03401 0.68566 0.5236 0.0
H79 H 0.10869 0.6833 0.53413 0.0
O80 O 0.80438 0.51771 0.4426 0.0
O81 O 0.86796 0.48147 0.38909 0.0
C82 C 0.818 0.49401 0.3992 0.0
O83 O 0.89164 0.40533 0.54006 0.0
O84 O 0.83833 0.62033 0.50349 0.0
O85 O 0.91952 0.65834 0.4836 0.0
O86 O 0.97256 0.54992 0.37809 0.0
O87 O 0.80751 0.51957 0.57277 0.0
O88 O 0.87902 0.50395 0.6248 0.0
O89 O 0.98096 0.61403 0.59022 0.0
C90 C 0.91675 0.36079 0.53539 0.0
O91 O 0.97066 0.35859 0.54293 0.0
C92 C 0.86697 0.66126 0.49081 0.0
C93 C 0.98814 0.53837 0.33039 0.0
O94 O 0.98417 0.48857 0.31353 0.0
C95 C 0.82746 0.51233 0.61925 0.0
H96 H 0.89034 0.3832 0.36164 0.0
H97 H 0.87495 0.39328 0.43196 0.0
H98 H 0.88976 0.32714 0.40714 0.0
C99 C 0.90061 0.37013 0.40293 0.0
Zn100 Zn 0.4311 -0.00121 0.42607 0.0
Zn101 Zn 0.4208 0.95373 0.5485 0.0
Zn102 Zn 0.46627 0.08704 0.51021 0.0
Zn103 Zn 0.34353 0.04255 0.51017 0.0
O104 O 0.42206 0.01885 0.50311 0.0
C105 C 0.46914 0.08906 0.6329 0.0
O106 O 0.45442 0.03856 0.63669 0.0
N107 N 0.48357 0.94097 0.41596 0.0
N108 N 0.53104 0.93453 0.4419 0.0
N109 N 0.52259 0.86779 0.38251 0.0
C110 C 0.47871 0.90073 0.38001 0.0
C111 C 0.55419 0.88946 0.42167 0.0
N112 N 0.48911 0.93773 0.5823 0.0
C113 C 0.57077 0.93632 0.61446 0.0
N114 N 0.54445 0.89359 0.63622 0.0
C115 C 0.49327 0.89598 0.61579 0.0
N116 N 0.53723 0.96401 0.58164 0.0
H117 H 0.45598 0.81765 0.62017 0.0
C118 C 0.44583 0.8595 0.63134 0.0
H119 H 0.40688 0.87057 0.6111 0.0
H120 H 0.43953 0.86088 0.67571 0.0
N121 N 0.54302 0.07944 0.48036 0.0
C122 C 0.59135 0.09044 0.50551 0.0
C123 C 0.61172 0.07358 0.42404 0.0
N124 N 0.55599 0.06902 0.42931 0.0
N125 N 0.63526 0.08755 0.47109 0.0
C126 C 0.59541 0.10837 0.56301 0.0
H127 H 0.63933 0.11336 0.57551 0.0
H128 H 0.57367 0.14704 0.56816 0.0
H129 H 0.57537 0.07806 0.58941 0.0
O130 O 0.2964 0.01614 0.44743 0.0
O131 O 0.35936 0.97986 0.39265 0.0
C132 C 0.3094 -0.0086 0.40407 0.0
O133 O 0.3978 0.88995 0.50448 0.0
O134 O 0.33876 0.12182 0.50377 0.0
O135 O 0.42239 0.14803 0.47449 0.0
O136 O 0.45569 0.06439 0.3867 0.0
O137 O 0.30778 0.02337 0.58257 0.0
O138 O 0.36634 0.96167 0.60942 0.0
O139 O 0.47308 0.11111 0.58698 0.0
C140 C 0.42739 0.84877 0.49537 0.0
O141 O 0.47893 0.84715 0.51188 0.0
C142 C 0.37082 0.15728 0.48366 0.0
C143 C 0.47154 0.06535 0.33773 0.0
O144 O 0.47173 0.02087 0.30938 0.0
C145 C 0.32369 -0.00983 0.61787 0.0
H146 H 0.42528 0.92914 0.31766 0.0
H147 H 0.39169 0.88856 0.36743 0.0
H148 H 0.4344 0.85745 0.31692 0.0
C149 C 0.43016 0.89328 0.34311 0.0
Zn150 Zn 0.46469 0.507 0.92671 0.0
Zn151 Zn 0.42663 0.44365 0.03481 0.0
Zn152 Zn 0.47946 0.56793 0.0491 0.0
Zn153 Zn 0.36199 0.53816 -0.00138 0.0
O154 O 0.43885 0.51494 0.00206 0.0
C155 C 0.47718 0.54188 0.17456 0.0
O156 O 0.46876 0.50148 0.20743 0.0
N157 N 0.51295 0.44317 0.91965 0.0
N158 N 0.55756 0.4332 0.94902 0.0
N159 N 0.5494 0.36705 0.88953 0.0
C160 C 0.50862 0.40326 0.88314 0.0
C161 C 0.57918 0.38669 0.93093 0.0
N162 N 0.49374 0.41796 0.06399 0.0
C163 C 0.57266 0.4165 0.10295 0.0
N164 N 0.5477 0.36911 0.11535 0.0
C165 C 0.49801 0.37212 0.09112 0.0
N166 N 0.53969 0.44618 0.07145 0.0
H167 H 0.45807 0.29498 0.0871 0.0
C168 C 0.44919 0.33578 0.10264 0.0
H169 H 0.41086 0.35071 0.08363 0.0
H170 H 0.4422 0.33276 0.14684 0.0
N171 N 0.55682 0.56984 0.0199 0.0
C172 C 0.60227 0.59984 0.03107 0.0
C173 C 0.62333 0.55125 0.96292 0.0
N174 N 0.57024 0.53991 0.97751 0.0
N175 N 0.64469 0.58859 -0.00341 0.0
C176 C 0.60383 0.64315 0.07286 0.0
H177 H 0.56802 0.67017 0.06736 0.0
H178 H 0.60104 0.62459 0.11325 0.0
H179 H 0.64287 0.66703 0.07071 0.0
O180 O 0.32395 0.51711 0.92875 0.0
O181 O 0.39906 0.50001 0.87878 0.0
C182 C 0.34681 0.50477 0.88383 0.0
O183 O 0.39826 0.39145 0.97997 0.0
O184 O 0.36077 0.61685 0.00168 0.0
O185 O 0.43779 0.64098 0.04496 0.0
O186 O 0.49971 0.577 0.90214 0.0
O187 O 0.31985 0.51588 0.06596 0.0
O188 O 0.37101 0.44945 0.09632 0.0
O189 O 0.47373 0.53296 0.12395 0.0
C190 C 0.42121 0.34805 0.96487 0.0
O191 O 0.46974 0.33455 0.98386 0.0
C192 C 0.3915 0.65246 0.02297 0.0
C193 C 0.5008 0.5861 0.85179 0.0
O194 O 0.48065 0.54973 0.81874 0.0
C195 C 0.33018 0.48116 0.10183 0.0
H196 H 0.42371 0.40913 0.85949 0.0
H197 H 0.46178 0.36051 0.82154 0.0
H198 H 0.47327 0.43118 0.80993 0.0
C199 C 0.46449 0.4004 0.84102 0.0
H200 H 0.93337 0.14993 0.17193 0.0
H201 H 0.06843 0.0525 0.22788 0.0
H202 H 0.06509 0.09878 0.31621 0.0
H203 H 0.98944 0.26187 0.21118 0.0
H204 H 0.92675 0.29696 0.22973 0.0
H205 H 0.9238 0.24375 0.18132 0.0
H206 H 0.84906 0.19459 0.23951 0.0
H207 H 0.85163 0.24847 0.28813 0.0
H208 H 0.86281 0.18055 0.30926 0.0
H209 H 0.05771 0.16657 0.39204 0.0
H210 H 0.05516 0.25308 0.44138 0.0
H211 H 0.94265 0.31461 0.322 0.0
C212 C 0.9599 0.13637 0.20404 0.0
C213 C 0.00031 0.09717 0.19409 0.0
C214 C 0.03674 0.08207 0.23545 0.0
C215 C 0.03475 0.10793 0.28579 0.0
C216 C 0.99667 0.14925 0.29338 0.0
C217 C 0.95996 0.16344 0.25325 0.0
C218 C 0.93316 0.21672 0.26498 0.0
C219 C 0.94405 0.25714 0.21914 0.0
C220 C 0.87046 0.20964 0.27615 0.0
C221 C 0.96352 0.23212 0.31567 0.0
C222 C 0.99738 0.19167 0.33344 0.0
C223 C 0.03089 0.1983 0.37865 0.0
C224 C 0.02997 0.24777 0.40586 0.0
C225 C 0.99825 0.29065 0.38583 0.0
C226 C 0.96502 0.28221 0.34011 0.0
H227 H 0.80537 0.96723 0.18348 0.0
H228 H 0.77478 0.11688 0.10179 0.0
H229 H 0.72102 0.14897 0.18047 0.0
H230 H 0.66732 0.95296 0.24309 0.0
H231 H 0.70046 0.9192 0.29792 0.0
H232 H 0.7326 0.91902 0.23331 0.0
H233 H 0.8194 0.95605 0.28861 0.0
H234 H 0.77896 0.96573 0.34946 0.0
H235 H 0.81475 0.02164 0.31895 0.0
H236 H 0.66641 0.16298 0.26775 0.0
H237 H 0.61591 0.15714 0.35507 0.0
H238 H 0.67902 -0.00202 0.37877 0.0
C239 C 0.78716 0.00668 0.18211 0.0
C240 C 0.79375 0.03921 0.13622 0.0
C241 C 0.76955 0.09078 0.13612 0.0
C242 C 0.7388 0.10939 0.18072 0.0
C243 C 0.73161 0.07555 0.22474 0.0
C244 C 0.7554 0.02545 0.2258 0.0
C245 C 0.73952 -0.00433 0.27658 0.0
C246 C 0.70791 0.94389 0.26192 0.0
C247 C 0.79125 0.98408 0.31037 0.0
C248 C 0.7023 0.03662 0.30408 0.0
C249 C 0.69876 0.08269 0.27363 0.0
C250 C 0.66778 0.12659 0.29109 0.0
C251 C 0.63884 0.12291 0.34037 0.0
C252 C 0.64104 0.07588 0.37146 0.0
C253 C 0.67436 0.03289 0.35388 0.0
H254 H 0.0208 0.84013 0.23261 0.0
H255 H 0.05434 0.77711 0.07304 0.0
H256 H 0.05784 0.68534 0.10976 0.0
H257 H 0.10826 0.73852 0.30825 0.0
H258 H 0.05861 0.73536 0.36308 0.0
H259 H 0.0682 0.79686 0.32653 0.0
H260 H 0.96296 0.79885 0.30665 0.0
H261 H 0.95288 0.73704 0.34238 0.0
H262 H 0.93076 0.74236 0.27348 0.0
H263 H 0.04067 0.60097 0.16021 0.0
H264 H 0.01754 0.52845 0.22393 0.0
H265 H 0.99809 0.6457 0.35246 0.0
C266 C 0.03132 0.80698 0.20625 0.0
C267 C 0.03873 0.81508 0.15038 0.0
C268 C 0.0502 0.77117 0.11611 0.0
C269 C 0.0519 0.71915 0.13659 0.0
C270 C 0.04259 0.71198 0.19162 0.0
C271 C 0.03404 0.75473 0.22639 0.0
C272 C 0.02107 0.73539 0.28309 0.0
C273 C 0.06682 0.75259 0.32251 0.0
C274 C 0.96349 0.75457 0.30249 0.0
C275 C 0.02152 0.67541 0.27413 0.0
C276 C 0.03386 0.66279 0.22112 0.0
C277 C 0.03222 0.61023 0.20216 0.0
C278 C 0.01901 0.5693 0.23866 0.0
C279 C 0.00643 0.58129 0.29326 0.0
C280 C 0.00824 0.63511 0.31113 0.0
H281 H 0.27619 0.90101 0.35039 0.0
H282 H 0.2572 0.07318 0.3563 0.0
H283 H 0.20613 0.07005 0.27019 0.0
H284 H 0.28194 0.88357 0.19953 0.0
H285 H 0.24238 0.82234 0.20574 0.0
H286 H 0.28759 0.84422 0.25914 0.0
H287 H 0.19416 0.84077 0.32593 0.0
H288 H 0.15869 0.81701 0.2668 0.0
H289 H 0.13425 0.87535 0.30278 0.0
H290 H 0.16521 0.04777 0.1789 0.0
H291 H 0.10195 0.0082 0.11199 0.0
H292 H 0.1336 0.85046 0.17508 0.0
C293 C 0.26028 0.93775 0.33387 0.0
C294 C 0.26957 0.98721 0.35996 0.0
C295 C 0.24925 0.03484 0.33713 0.0
C296 C 0.22146 0.03356 0.28778 0.0
C297 C 0.21383 0.98422 0.26238 0.0
C298 C 0.2306 0.93699 0.28563 0.0
C299 C 0.20968 0.88897 0.25409 0.0
C300 C 0.25816 0.85782 0.22824 0.0
C301 C 0.17201 0.85329 0.28943 0.0
C302 C 0.17654 0.9164 0.21121 0.0
C303 C 0.18251 0.97125 0.21468 0.0
C304 C 0.15817 0.00495 0.17767 0.0
C305 C 0.1217 0.98222 0.14031 0.0
C306 C 0.10721 0.9272 0.14243 0.0
C307 C 0.13889 0.89326 0.1752 0.0
H308 H 0.01183 0.79429 0.86672 0.0
H309 H 0.16712 0.85977 0.80648 0.0
H310 H 0.17832 0.7821 0.74584 0.0
H311 H 0.03217 0.64779 0.84163 0.0
H312 H 0.96359 0.63986 0.81385 0.0
H313 H 0.97611 0.68964 0.86527 0.0
H314 H 0.9374 0.7627 0.80298 0.0
H315 H 0.925 0.71348 0.75127 0.0
H316 H 0.96741 0.77158 0.73665 0.0
H317 H 0.17022 0.70048 0.68873 0.0
H318 H 0.13459 0.63677 0.6214 0.0
H319 H 0.97252 0.638 0.70051 0.0
C320 C 0.04937 0.79039 0.84249 0.0
C321 C 0.09188 0.82967 0.8454 0.0
C322 C 0.13767 0.82693 0.80936 0.0
C323 C 0.14362 0.78343 0.77399 0.0
C324 C 0.10131 0.74494 0.77249 0.0
C325 C 0.05393 0.7492 0.80428 0.0
C326 C 0.00872 0.71088 0.78535 0.0
C327 C 0.99433 0.66958 0.82914 0.0
C328 C 0.95659 0.7415 0.76801 0.0
C329 C 0.03797 0.68493 0.7375 0.0
C330 C 0.09215 0.70355 0.73261 0.0
C331 C 0.12782 0.68581 0.69188 0.0
C332 C 0.10713 0.64952 0.65386 0.0
C333 C 0.05061 0.63303 0.65543 0.0
C334 C 0.01583 0.6502 0.69839 0.0
H335 H 0.10879 0.07646 0.84809 0.0
H336 H 0.20332 0.98221 0.95973 0.0
H337 H 0.26155 0.94844 0.88366 0.0
H338 H 0.11361 0.98206 0.73041 0.0
H339 H 0.11971 0.03775 0.68467 0.0
H340 H 0.08237 0.04508 0.74769 0.0
H341 H 0.14632 0.12713 0.76872 0.0
H342 H 0.18676 0.11684 0.70795 0.0
H343 H 0.22041 0.11777 0.77242 0.0
H344 H 0.31179 0.92918 0.79544 0.0
H345 H 0.3549 0.93111 0.70493 0.0
H346 H 0.22792 0.04097 0.65174 0.0
C347 C 0.14009 0.04674 0.85597 0.0
C348 C 0.1507 0.03021 0.90895 0.0
C349 C 0.19393 -0.00614 0.91886 0.0
C350 C 0.22694 0.97454 0.87597 0.0
C351 C 0.21547 -0.0083 0.82379 0.0
C352 C 0.17299 0.02704 0.81379 0.0
C353 C 0.17292 0.04429 0.75547 0.0
C354 C 0.11896 0.02623 0.72787 0.0
C355 C 0.18212 0.10512 0.75089 0.0
C356 C 0.2225 0.01373 0.73393 0.0
C357 C 0.24603 0.98304 0.77378 0.0
C358 C 0.29338 0.9527 0.76391 0.0
C359 C 0.31757 0.95414 0.71221 0.0
C360 C 0.29479 0.98619 0.67094 0.0
C361 C 0.24624 0.0159 0.68213 0.0
H362 H 0.05712 0.30996 0.63136 0.0
H363 H 0.04867 0.42203 0.76412 0.0
H364 H 0.04346 0.34655 0.82887 0.0
H365 H 0.95504 0.22743 0.68047 0.0
H366 H 0.98447 0.16567 0.65593 0.0
H367 H 1e-05 0.22737 0.62182 0.0
H368 H 0.10437 0.21054 0.63238 0.0
H369 H 0.09147 0.14926 0.66858 0.0
H370 H 0.13317 0.2019 0.69834 0.0
H371 H 0.02651 0.25997 0.87652 0.0
H372 H 0.00019 0.16844 0.90482 0.0
H373 H 0.01292 0.1141 0.73891 0.0
C374 C 0.05706 0.31798 0.67432 0.0
C375 C 0.05584 0.37085 0.69371 0.0
C376 C 0.05185 0.38125 0.74953 0.0
C377 C 0.04856 0.33881 0.78615 0.0
C378 C 0.04851 0.28671 0.76565 0.0
C379 C 0.05265 0.27623 0.71095 0.0
C380 C 0.04365 0.21766 0.69841 0.0
C381 C 0.99277 0.20907 0.66204 0.0
C382 C 0.09631 0.19333 0.67296 0.0
C383 C 0.03288 0.1967 0.75457 0.0
C384 C 0.0365 0.237 0.79285 0.0
C385 C 0.02462 0.2279 0.84709 0.0
C386 C 0.00967 0.17596 0.86277 0.0
C387 C 0.00549 0.1344 0.82408 0.0
C388 C 0.01684 0.14504 0.76937 0.0
H389 H 0.5927 0.00962 0.69062 0.0
H390 H 0.66949 0.89791 0.57974 0.0
H391 H 0.75586 0.90005 0.63352 0.0
H392 H 0.72551 0.08539 0.72917 0.0
H393 H 0.70104 0.0917 0.79785 0.0
H394 H 0.65209 0.09164 0.74335 0.0
H395 H 0.5984 0.01239 0.78833 0.0
H396 H 0.64754 0.01307 0.84233 0.0
H397 H 0.63586 0.95237 0.80465 0.0
H398 H 0.82451 0.90033 0.70852 0.0
H399 H 0.8774 0.90913 0.79299 0.0
H400 H 0.75265 0.01803 0.85634 0.0
C401 C 0.6291 0.98832 0.67618 0.0
C402 C 0.62579 0.95404 0.63128 0.0
C403 C 0.67252 0.92458 0.6141 0.0
C404 C 0.72125 0.92545 0.64447 0.0
C405 C 0.7219 0.9563 0.69145 0.0
C406 C 0.67753 0.98829 0.70656 0.0
C407 C 0.68593 0.0128 0.76175 0.0
C408 C 0.69151 0.07401 0.75777 0.0
C409 C 0.63911 -0.00336 0.8015 0.0
C410 C 0.74043 0.98733 0.77647 0.0
C411 C 0.76095 0.95552 0.73522 0.0
C412 C 0.80946 0.92598 0.74071 0.0
C413 C 0.83886 0.93071 0.78899 0.0
C414 C 0.81901 0.96399 0.83126 0.0
C415 C 0.76867 -0.00818 0.82501 0.0
H416 H 0.42229 0.23939 0.97134 0.0
H417 H 0.34347 0.3717 0.89316 0.0
H418 H 0.27001 0.31205 0.85963 0.0
H419 H 0.35968 0.12442 0.87573 0.0
H420 H 0.35062 0.08243 0.93406 0.0
H421 H 0.41011 0.12675 0.92889 0.0
H422 H 0.38348 0.1679 0.0215 0.0
H423 H 0.32337 0.12536 0.02643 0.0
H424 H 0.31554 0.19696 0.03083 0.0
H425 H 0.19186 0.25283 0.86393 0.0
H426 H 0.11768 0.19409 0.9003 0.0
H427 H 0.23984 0.09824 0.98031 0.0
C428 C 0.39131 0.2546 0.94417 0.0
C429 C 0.38864 0.30974 0.93315 0.0
C430 C 0.34654 0.32936 0.89995 0.0
C431 C 0.30474 0.29562 0.88095 0.0
C432 C 0.30512 0.24227 0.89643 0.0
C433 C 0.34796 0.22124 0.92656 0.0
C434 C 0.33186 0.16681 0.94883 0.0
C435 C 0.36503 0.12247 0.92016 0.0
C436 C 0.33894 0.16422 0.01051 0.0
C437 C 0.27124 0.16449 0.93307 0.0
C438 C 0.25749 0.2071 0.9006 0.0
C439 C 0.20245 0.21832 0.88779 0.0
C440 C 0.16045 0.18566 0.90928 0.0
C441 C 0.17368 0.1428 0.94324 0.0
C442 C 0.22957 0.13103 0.95398 0.0
H443 H 0.37799 0.72344 0.94246 0.0
H444 H 0.3419 0.69586 0.11119 0.0
H445 H 0.26683 0.76301 0.10864 0.0
H446 H 0.33939 0.87379 0.94222 0.0
H447 H 0.31287 0.86491 0.87503 0.0
H448 H 0.37099 0.82597 0.89684 0.0
H449 H 0.31465 0.74094 0.86876 0.0
H450 H 0.25553 0.7805 0.85134 0.0
H451 H 0.24799 0.72798 0.90043 0.0
H452 H 0.18134 0.81603 0.08078 0.0
H453 H 0.10405 0.86049 0.03333 0.0
H454 H 0.20242 0.86117 0.88675 0.0
C455 C 0.35673 0.73434 0.97962 0.0
C456 C 0.36683 0.70601 0.02744 0.0
C457 C 0.33615 0.71879 0.07475 0.0
C458 C 0.29291 0.75636 0.07341 0.0
C459 C 0.28165 0.78141 0.02461 0.0
C460 C 0.31409 0.77225 0.979 0.0
C461 C 0.29058 0.80016 0.93036 0.0
C462 C 0.33084 0.84385 0.90997 0.0
C463 C 0.27637 0.75997 0.88512 0.0
C464 C 0.23844 0.82406 0.95493 0.0
C465 C 0.2337 0.81298 0.00926 0.0
C466 C 0.1857 0.82626 0.03859 0.0
C467 C 0.14194 0.8515 0.01152 0.0
C468 C 0.14627 0.86317 0.95592 0.0
C469 C 0.19597 0.85045 0.92815 0.0
H470 H 0.60984 0.31024 0.00376 0.0
H471 H 0.67455 0.41862 0.88257 0.0
H472 H 0.76828 0.38035 0.89232 0.0
H473 H 0.74016 0.30261 0.08752 0.0
H474 H 0.72974 0.23212 0.0996 0.0
H475 H 0.6707 0.27515 0.09124 0.0
H476 H 0.635 0.21405 0.01436 0.0
H477 H 0.69385 0.17103 0.02226 0.0
H478 H 0.67995 0.19999 0.95741 0.0
H479 H 0.85171 0.3224 0.90517 0.0
H480 H 0.91619 0.24643 0.91832 0.0
H481 H 0.79743 0.17397 0.02868 0.0
C482 C 0.64438 0.32694 0.9808 0.0
C483 C 0.63578 0.36843 0.94359 0.0
C484 C 0.68106 0.38821 0.9126 0.0
C485 C 0.73435 0.36659 0.91776 0.0
C486 C 0.74173 0.32499 0.95404 0.0
C487 C 0.69797 0.30539 0.98524 0.0
C488 C 0.71541 0.25628 0.01621 0.0
C489 C 0.71394 0.26721 0.07727 0.0
C490 C 0.67891 0.20747 0.00164 0.0
C491 C 0.77478 0.25002 -0.00442 0.0
C492 C 0.7897 0.29071 0.96069 0.0
C493 C 0.84103 0.29097 0.93339 0.0
C494 C 0.87753 0.24795 0.94111 0.0
C495 C 0.86215 0.20544 0.97555 0.0
C496 C 0.81066 0.20708 0.00359 0.0
H497 H 0.81441 0.8457 0.91991 0.0
H498 H 0.95952 0.76673 0.98312 0.0
H499 H 0.90751 0.68169 0.98692 0.0
H500 H 0.71824 0.79289 -0.00582 0.0
H501 H 0.66462 0.78018 0.9454 0.0
H502 H 0.71573 0.83158 0.93306 0.0
H503 H 0.74371 0.78763 0.84246 0.0
H504 H 0.69161 0.73632 0.85326 0.0
H505 H 0.76295 0.7181 0.84044 0.0
H506 H 0.83281 0.61916 0.0155 0.0
H507 H 0.74575 0.5687 0.03608 0.0
H508 H 0.6522 0.68006 0.94092 0.0
C509 C 0.83584 0.80972 0.9317 0.0
C510 C 0.89027 0.8125 0.95208 0.0
C511 C 0.91763 0.76521 0.96747 0.0
C512 C 0.8884 0.71674 0.96993 0.0
C513 C 0.83302 0.71611 0.95418 0.0
C514 C 0.80784 0.76048 0.93226 0.0
C515 C 0.74676 0.7498 0.92174 0.0
C516 C 0.7092 0.79107 0.95035 0.0
C517 C 0.73561 0.74782 0.86086 0.0
C518 C 0.74053 0.69498 0.94663 0.0
C519 C 0.79075 0.67635 0.96532 0.0
C520 C 0.79378 0.63156 -0.00154 0.0
C521 C 0.74447 0.60383 0.01078 0.0
C522 C 0.69379 0.62005 0.98826 0.0
C523 C 0.69146 0.66636 0.9565 0.0
H524 H 0.7366 0.54393 0.92833 0.0
H525 H 0.56886 0.51189 0.87588 0.0
H526 H 0.60224 0.49675 0.78445 0.0
H527 H 0.77748 0.61963 0.81335 0.0
H528 H 0.84748 0.5944 0.81013 0.0
H529 H 0.81124 0.59823 0.87394 0.0
H530 H 0.82557 0.49604 0.88993 0.0
H531 H 0.86453 0.49415 0.82741 0.0
H532 H 0.80628 0.4495 0.83737 0.0
H533 H 0.65136 0.49432 0.69705 0.0
H534 H 0.71576 0.49505 0.61919 0.0
H535 H 0.85378 0.5293 0.72589 0.0
C536 C 0.70617 0.53597 0.89799 0.0
C537 C 0.64827 0.53378 0.90986 0.0
C538 C 0.61221 0.51702 0.86835 0.0
C539 C 0.63114 0.50781 0.81582 0.0
C540 C 0.68741 0.51436 0.80502 0.0
C541 C 0.7248 0.5271 0.8449 0.0
C542 C 0.78331 0.53252 0.8217 0.0
C543 C 0.80621 0.58959 0.83029 0.0
C544 C 0.8222 0.49055 0.8456 0.0
C545 C 0.77234 0.52122 0.76257 0.0
C546 C 0.71657 0.51093 0.75414 0.0
C547 C 0.69532 0.5016 0.70301 0.0
C548 C 0.73219 0.50236 0.65905 0.0
C549 C 0.78973 0.51197 0.66655 0.0
C550 C 0.81006 0.52128 0.71909 0.0
H551 H 0.15686 0.36879 0.66584 0.0
H552 H 0.14401 0.52435 0.59202 0.0
H553 H 0.22281 0.55684 0.6456 0.0
H554 H 0.16012 0.41298 0.78794 0.0
H555 H 0.20816 0.36754 0.81759 0.0
H556 H 0.16943 0.34662 0.75989 0.0
H557 H 0.25699 0.32566 0.70398 0.0
H558 H 0.29855 0.34196 0.76197 0.0
H559 H 0.31218 0.37466 0.69857 0.0
H560 H 0.28356 0.57923 0.72492 0.0
H561 H 0.33066 0.58509 0.81332 0.0
H562 H 0.29091 0.41869 0.84265 0.0
C563 C 0.17004 0.40977 0.66092 0.0
C564 C 0.14003 0.44594 0.62921 0.0
C565 C 0.16355 0.49703 0.61909 0.0
C566 C 0.20896 0.51566 0.64906 0.0
C567 C 0.23147 0.48163 0.68725 0.0
C568 C 0.21402 0.42895 0.69183 0.0
C569 C 0.23752 0.40288 0.74142 0.0
C570 C 0.19102 0.38125 0.77884 0.0
C571 C 0.27877 0.35868 0.72554 0.0
C572 C 0.26705 0.45026 0.76633 0.0
C573 C 0.26493 0.49485 0.73368 0.0
C574 C 0.28649 0.54421 0.75017 0.0
C575 C 0.31215 0.54746 0.80064 0.0
C576 C 0.3141 0.50218 0.83446 0.0
C577 C 0.29091 0.45338 0.81723 0.0
H578 H 0.14468 0.61233 0.33426 0.0
H579 H 0.14206 0.45994 0.41627 0.0
H580 H 0.19899 0.4206 0.34158 0.0
H581 H 0.13992 0.56828 0.19763 0.0
H582 H 0.1892 0.6179 0.17433 0.0
H583 H 0.14684 0.63159 0.2329 0.0
H584 H 0.23529 0.65096 0.2879 0.0
H585 H 0.27802 0.63649 0.22957 0.0
H586 H 0.28856 0.60084 0.29154 0.0
H587 H 0.25628 0.39855 0.25652 0.0
H588 H 0.31076 0.39708 0.1709 0.0
H589 H 0.27661 0.56556 0.14832 0.0
C590 C 0.15561 0.57041 0.33626 0.0
C591 C 0.1381 0.53852 0.38021 0.0
C592 C 0.15341 0.48416 0.38182 0.0
C593 C 0.186 0.4618 0.33996 0.0
C594 C 0.20278 0.49449 0.29714 0.0
C595 C 0.18836 0.54784 0.2954 0.0
C596 C 0.21424 0.57559 0.24707 0.0
C597 C 0.16978 0.59975 0.21083 0.0
C598 C 0.25656 0.61848 0.26509 0.0
C599 C 0.24283 0.52888 0.21991 0.0
C600 C 0.23683 0.48256 0.24975 0.0
C601 C 0.26094 0.43459 0.23283 0.0
C602 C 0.29165 0.43407 0.18414 0.0
C603 C 0.29699 0.48093 0.15252 0.0
C604 C 0.27226 0.52879 0.17098 0.0
H605 H 0.66512 0.3674 0.14558 0.0
H606 H 0.58511 0.52129 0.12834 0.0
H607 H 0.64214 0.55836 0.20105 0.0
H608 H 0.66627 0.36569 0.2832 0.0
H609 H 0.7336 0.33566 0.29077 0.0
H610 H 0.69412 0.32306 0.23076 0.0
H611 H 0.77651 0.35753 0.17162 0.0
H612 H 0.81646 0.36922 0.23163 0.0
H613 H 0.80588 0.42288 0.18464 0.0
H614 H 0.68992 0.57249 0.28733 0.0
H615 H 0.74681 0.57099 0.36948 0.0
H616 H 0.80037 0.40999 0.32988 0.0
C617 C 0.66054 0.40914 0.1564 0.0
C618 C 0.61893 0.44087 0.13323 0.0
C619 C 0.61564 0.49586 0.14669 0.0
C620 C 0.64781 0.51732 0.18806 0.0
C621 C 0.68436 0.48356 0.21407 0.0
C622 C 0.69268 0.43124 0.19763 0.0
C623 C 0.73267 0.40296 0.23445 0.0
C624 C 0.70498 0.35396 0.26135 0.0
C625 C 0.78606 0.38725 0.20375 0.0
C626 C 0.74366 0.44709 0.27512 0.0
C627 C 0.71486 0.49298 0.26275 0.0
C628 C 0.71407 0.53746 0.29674 0.0
C629 C 0.74565 0.53592 0.34362 0.0
C630 C 0.77791 0.4905 0.35543 0.0
C631 C 0.77651 0.44536 0.32112 0.0
H632 H 0.33908 0.8432 0.4298 0.0
H633 H 0.45178 0.74548 0.52117 0.0
H634 H 0.39059 0.66671 0.50641 0.0
H635 H 0.22107 0.79989 0.47546 0.0
H636 H 0.18245 0.79783 0.41373 0.0
H637 H 0.24089 0.84242 0.42002 0.0
H638 H 0.28872 0.79931 0.33599 0.0
H639 H 0.23002 0.75407 0.32733 0.0
H640 H 0.29931 0.72833 0.33281 0.0
H641 H 0.3067 0.6055 0.49803 0.0
H642 H 0.21156 0.56655 0.49106 0.0
H643 H 0.15819 0.70453 0.40199 0.0
C644 C 0.35247 0.80466 0.44414 0.0
C645 C 0.40011 0.8 0.47585 0.0
C646 C 0.41558 0.74942 0.49592 0.0
C647 C 0.3811 0.70458 0.48783 0.0
C648 C 0.33288 0.71107 0.45793 0.0
C649 C 0.31959 0.75963 0.43519 0.0
C650 C 0.26348 0.7579 0.40895 0.0
C651 C 0.22477 0.80212 0.43081 0.0
C652 C 0.27062 0.76008 0.34751 0.0
C653 C 0.24407 0.70338 0.42602 0.0
C654 C 0.28523 0.67584 0.45254 0.0
C655 C 0.27484 0.62618 0.47603 0.0
C656 C 0.22099 0.60466 0.47234 0.0
C657 C 0.17868 0.63346 0.44639 0.0
C658 C 0.19046 0.6826 0.42215 0.0
H659 H 0.11748 0.3535 0.50791 0.0
H660 H 0.10577 0.33941 0.33447 0.0
H661 H 0.19895 0.29773 0.3305 0.0
H662 H 0.27325 0.37315 0.51583 0.0
H663 H 0.27575 0.33274 0.57576 0.0
H664 H 0.21462 0.37131 0.56155 0.0
H665 H 0.15548 0.28406 0.56979 0.0
H666 H 0.21702 0.24582 0.58173 0.0
H667 H 0.17195 0.22778 0.52683 0.0
H668 H 0.29066 0.25221 0.34602 0.0
H669 H 0.36322 0.19179 0.38032 0.0
H670 H 0.31107 0.22785 0.54403 0.0
C671 C 0.13552 0.34294 0.4691 0.0
C672 C 0.10542 0.35047 0.42131 0.0
C673 C 0.12885 0.33441 0.37132 0.0
C674 C 0.18178 0.31103 0.36875 0.0
C675 C 0.21062 0.30373 0.41662 0.0
C676 C 0.18789 0.3185 0.466 0.0
C677 C 0.22352 0.29924 0.51196 0.0
C678 C 0.2483 0.34692 0.54313 0.0
C679 C 0.19001 0.26198 0.54974 0.0
C680 C 0.2685 0.26939 0.48086 0.0
C681 C 0.26163 0.27437 0.42586 0.0
C682 C 0.29684 0.24857 0.38897 0.0
C683 C 0.33841 0.21482 0.40873 0.0
C684 C 0.34346 0.20625 0.46472 0.0
C685 C 0.30905 0.23506 0.50109 0.0
H686 H 0.7705 0.68775 0.54 0.0
H687 H 0.89118 0.74606 0.42263 0.0
H688 H 0.82682 0.81965 0.39926 0.0
H689 H 0.65252 0.70563 0.46384 0.0
H690 H 0.60921 0.72498 0.52037 0.0
H691 H 0.66794 0.68231 0.53061 0.0
H692 H 0.70169 0.74836 0.60193 0.0
H693 H 0.64917 0.79755 0.58907 0.0
H694 H 0.72159 0.81534 0.58336 0.0
H695 H 0.74158 0.87582 0.37863 0.0
H696 H 0.64657 0.91381 0.36772 0.0
H697 H 0.58556 0.82038 0.50113 0.0
C698 C 0.78406 0.71657 0.51002 0.0
C699 C 0.83575 0.71126 0.48291 0.0
C700 C 0.85197 0.74981 0.44414 0.0
C701 C 0.81552 0.79143 0.43054 0.0
C702 C 0.76368 0.794 0.45673 0.0
C703 C 0.74848 0.7577 0.49604 0.0
C704 C 0.68984 0.76666 0.51656 0.0
C705 C 0.65274 0.71695 0.50725 0.0
C706 C 0.69058 0.78292 0.5763 0.0
C707 C 0.67284 0.81253 0.48108 0.0
C708 C 0.7161 0.82799 0.44695 0.0
C709 C 0.70819 0.86534 0.40631 0.0
C710 C 0.65484 0.88677 0.40024 0.0
C711 C 0.61057 0.87136 0.43438 0.0
C712 C 0.61957 0.83419 0.4757 0.0
H713 H 0.64259 0.19387 0.47516 0.0
H714 H 0.74014 0.04944 0.47669 0.0
H715 H 0.82656 0.1041 0.48824 0.0
H716 H 0.74542 0.27731 0.40287 0.0
H717 H 0.72737 0.33619 0.44127 0.0
H718 H 0.6755 0.28532 0.42856 0.0
H719 H 0.65636 0.27724 0.53154 0.0
H720 H 0.70824 0.32779 0.54456 0.0
H721 H 0.71319 0.2631 0.57589 0.0
H722 H 0.90081 0.17635 0.50466 0.0
H723 H 0.95577 0.25801 0.52529 0.0
H724 H 0.80607 0.35319 0.51426 0.0
C725 C 0.68241 0.17414 0.47767 0.0
C726 C 0.68564 0.11805 0.4758 0.0
C727 C 0.73773 0.09266 0.47853 0.0
C728 C 0.78658 0.12333 0.48485 0.0
C729 C 0.78193 0.17899 0.48762 0.0
C730 C 0.73102 0.204 0.48374 0.0
C731 C 0.73618 0.26389 0.48995 0.0
C732 C 0.72017 0.29234 0.43755 0.0
C733 C 0.70146 0.28416 0.53836 0.0
C734 C 0.79772 0.26886 0.50008 0.0
C735 C 0.82382 0.21979 0.49765 0.0
C736 C 0.88076 0.21494 0.50645 0.0
C737 C 0.91155 0.26146 0.51833 0.0
C738 C 0.88506 0.31186 0.52178 0.0
C739 C 0.82752 0.31527 0.51222 0.0
H740 H 0.56682 0.35236 0.78361 0.0
H741 H 0.54192 0.26923 0.9343 0.0
H742 H 0.52865 0.18378 0.8849 0.0
H743 H 0.46191 0.29232 0.71827 0.0
H744 H 0.49482 0.28812 0.65271 0.0
H745 H 0.51597 0.33929 0.69945 0.0
H746 H 0.61822 0.30722 0.69324 0.0
H747 H 0.5977 0.25643 0.64539 0.0
H748 H 0.63381 0.23796 0.70567 0.0
H749 H 0.50294 0.11083 0.81766 0.0
H750 H 0.47134 0.05699 0.7393 0.0
H751 H 0.50916 0.19111 0.63414 0.0
C752 C 0.56099 0.31554 0.80587 0.0
C753 C 0.55556 0.31669 0.86228 0.0
C754 C 0.5467 0.26854 0.89089 0.0
C755 C 0.53901 0.22001 0.86315 0.0
C756 C 0.54122 0.22059 0.80695 0.0
C757 C 0.55294 0.26711 0.7787 0.0
C758 C 0.5462 0.25902 0.71878 0.0
C759 C 0.5021 0.29691 0.69602 0.0
C760 C 0.60233 0.26553 0.68902 0.0
C761 C 0.52647 0.20152 0.71783 0.0
C762 C 0.52482 0.17944 0.76873 0.0
C763 C 0.50493 0.12749 0.7775 0.0
C764 C 0.48664 0.09737 0.7329 0.0
C765 C 0.48765 0.11981 0.6806 0.0
C766 C 0.50805 0.17247 0.67343 0.0
H767 H 0.55428 0.7891 0.61874 0.0
H768 H 0.57035 0.91202 0.74024 0.0
H769 H 0.58177 0.84274 0.81032 0.0
H770 H 0.46772 0.7128 0.68603 0.0
H771 H 0.49306 0.64833 0.66448 0.0
H772 H 0.50461 0.70575 0.6227 0.0
H773 H 0.61048 0.68933 0.62271 0.0
H774 H 0.60017 0.63117 0.66441 0.0
H775 H 0.64672 0.68394 0.68561 0.0
H776 H 0.5702 0.76065 0.86805 0.0
H777 H 0.53634 0.67539 0.90739 0.0
H778 H 0.52493 0.60687 0.74684 0.0
C779 C 0.5633 0.80096 0.65979 0.0
C780 C 0.56372 0.85529 0.67433 0.0
C781 C 0.57262 0.87038 0.72846 0.0
C782 C 0.57871 0.83125 0.76833 0.0
C783 C 0.57591 0.77744 0.75295 0.0
C784 C 0.56921 0.76239 0.69959 0.0
C785 C 0.55805 0.70307 0.694 0.0
C786 C 0.50258 0.6919 0.66516 0.0
C787 C 0.60678 0.67524 0.66499 0.0
C788 C 0.55508 0.68764 0.7527 0.0
C789 C 0.56721 0.73048 0.78622 0.0
C790 C 0.5617 0.72664 0.84216 0.0
C791 C 0.54215 0.67821 0.86413 0.0
C792 C 0.52745 0.63487 0.83001 0.0
C793 C 0.53571 0.63938 0.7739 0.0
H794 H 0.48679 0.57032 0.28137 0.0
H795 H 0.49791 0.63409 0.12012 0.0
H796 H 0.52452 0.72249 0.15661 0.0
H797 H 0.42276 0.68545 0.33938 0.0
H798 H 0.458 0.67929 0.40273 0.0
H799 H 0.44465 0.6207 0.36244 0.0
H800 H 0.55044 0.5995 0.3648 0.0
H801 H 0.56334 0.65941 0.40368 0.0
H802 H 0.60001 0.64865 0.34081 0.0
H803 H 0.548 0.80367 0.21041 0.0
H804 H 0.5501 0.87673 0.27826 0.0
H805 H 0.51861 0.76246 0.40544 0.0
C806 C 0.49538 0.60273 0.25363 0.0
C807 C 0.49143 0.59519 0.19716 0.0
C808 C 0.50135 0.63903 0.16288 0.0
C809 C 0.51697 0.68916 0.18346 0.0
C810 C 0.52172 0.69497 0.23903 0.0
C811 C 0.51012 0.6533 0.27382 0.0
C812 C 0.5127 0.67172 0.3321 0.0
C813 C 0.45612 0.66382 0.36078 0.0
C814 C 0.55941 0.64311 0.36211 0.0
C815 C 0.52643 0.73052 0.32449 0.0
C816 C 0.5329 0.74266 0.27041 0.0
C817 C 0.54341 0.79465 0.25285 0.0
C818 C 0.54491 0.83571 0.29139 0.0
C819 C 0.53509 0.82452 0.34643 0.0
C820 C 0.52741 0.77127 0.36349 0.0
H821 H 0.50165 0.08428 0.23257 0.0
H822 H 0.48739 0.16098 0.38953 0.0
H823 H 0.5219 0.24547 0.35075 0.0
H824 H 0.62478 0.15621 0.1812 0.0
H825 H 0.59692 0.1617 0.1146 0.0
H826 H 0.57783 0.1055 0.15651 0.0
H827 H 0.47325 0.1292 0.14481 0.0
H828 H 0.49317 0.185 0.10318 0.0
H829 H 0.45006 0.19562 0.16211 0.0
H830 H 0.54886 0.32319 0.29436 0.0
H831 H 0.55627 0.39038 0.22173 0.0
H832 H 0.55785 0.26386 0.10229 0.0
C833 C 0.50673 0.11858 0.25897 0.0
C834 C 0.49239 0.11584 0.31421 0.0
C835 C 0.49811 0.16204 0.34711 0.0
C836 C 0.51822 0.21016 0.32557 0.0
C837 C 0.53265 0.21137 0.27112 0.0
C838 C 0.52645 0.16704 0.23804 0.0
C839 C 0.53798 0.18085 0.17965 0.0
C840 C 0.5873 0.1491 0.15661 0.0
C841 C 0.48551 0.17217 0.14546 0.0
C842 C 0.55222 0.23965 0.18529 0.0
C843 C 0.54909 0.25649 0.2384 0.0
C844 C 0.55306 0.3104 0.25278 0.0
C845 C 0.5579 0.34824 0.21153 0.0
C846 C 0.55952 0.33164 0.15702 0.0
C847 C 0.55886 0.27679 0.14402 0.0
loop_
_geom_bond_atom_site_label_1
_geom_bond_atom_site_label_2
_geom_bond_distance
_geom_bond_site_symmetry_2
_ccdc_geom_bond_type
Zn0 O4 1.993 . S
Zn0 N7 2.004 1_545 S
Zn0 O31 2.064 1_545 S
Zn0 O36 1.963 . S
Zn1 O4 1.970 1_564 S
Zn1 N12 2.004 . S
Zn1 O33 1.963 1_554 S
Zn1 O38 2.064 . S
Zn2 O4 1.971 1_554 S
Zn2 N21 2.004 1_655 S
Zn2 O35 2.064 . S
Zn2 O39 1.963 . S
Zn3 O4 1.913 . S
Zn3 O30 1.941 . S
Zn3 O34 1.941 1_556 S
Zn3 O37 1.941 1_556 S
O4 Zn0 1.993 . S
O4 Zn1 1.970 1_546 S
O4 Zn2 1.971 1_556 S
O4 Zn3 1.913 . S
C5 O6 1.237 1_655 S
C5 O39 1.268 . S
O6 C5 1.237 1_455 S
N7 Zn0 2.004 1_565 S
N7 N8 1.383 1_655 S
N7 C10 1.306 1_655 S
N8 N7 1.383 1_455 S
N8 C11 1.302 . S
N9 C10 1.368 . S
N9 C11 1.379 . S
C10 N7 1.306 1_455 S
C10 N9 1.368 . S
C10 C49 1.481 1_455 S
C11 N8 1.302 . S
C11 N9 1.379 . S
N12 Zn1 2.004 . S
N12 C15 1.306 1_655 S
N12 N16 1.383 1_655 S
C13 N14 1.379 . S
C13 N16 1.302 . S
N14 C13 1.379 . S
N14 C15 1.368 . S
C15 N12 1.306 1_455 S
C15 N14 1.368 . S
C15 C18 1.481 1_455 S
N16 N12 1.383 1_455 S
N16 C13 1.302 . S
H17 C18 0.969 . S
C18 C15 1.481 1_655 S
C18 H17 0.969 . S
C18 H19 0.970 . S
C18 H20 0.971 . S
H19 C18 0.970 . S
H20 C18 0.971 . S
N21 Zn2 2.004 1_455 S
N21 C22 1.306 . S
N21 N24 1.384 1_554 S
C22 N21 1.306 . S
C22 N25 1.368 1_554 S
C22 C26 1.481 . S
C23 N24 1.302 . S
C23 N25 1.379 . S
N24 N21 1.384 1_556 S
N24 C23 1.302 . S
N25 C22 1.368 1_556 S
N25 C23 1.379 . S
C26 C22 1.481 . S
C26 H27 0.971 . S
C26 H28 0.970 . S
C26 H29 0.969 . S
H27 C26 0.971 . S
H28 C26 0.970 . S
H29 C26 0.969 . S
O30 Zn3 1.941 . S
O30 C32 1.277 1_545 S
O31 Zn0 2.064 1_565 S
O31 C32 1.233 . S
C32 O30 1.277 1_565 S
C32 O31 1.233 . S
O33 Zn1 1.963 1_556 S
O33 C40 1.268 . S
O34 Zn3 1.941 1_554 S
O34 C42 1.277 1_554 S
O35 Zn2 2.064 . S
O35 C42 1.231 1_554 S
O36 Zn0 1.963 . S
O36 C43 1.268 . S
O37 Zn3 1.941 1_554 S
O37 C45 1.277 1_545 S
O38 Zn1 2.064 . S
O38 C45 1.233 . S
O39 Zn2 1.963 . S
O39 C5 1.268 . S
C40 O33 1.268 . S
C40 O41 1.237 1_556 S
O41 C40 1.237 1_554 S
C42 O34 1.277 1_556 S
C42 O35 1.231 1_556 S
C43 O36 1.268 . S
C43 O44 1.237 . S
O44 C43 1.237 . S
C45 O37 1.277 1_565 S
C45 O38 1.233 . S
H46 C49 0.970 . S
H47 C49 0.971 . S
H48 C49 0.969 1_455 S
C49 C10 1.481 1_655 S
C49 H46 0.970 . S
C49 H47 0.971 . S
C49 H48 0.969 1_655 S
Zn50 O54 1.978 . S
Zn50 N57 2.004 . S
Zn50 O81 2.064 . S
Zn50 O86 1.963 . S
Zn51 O54 1.978 . S
Zn51 N62 2.004 . S
Zn51 O83 1.963 . S
Zn51 O88 2.064 . S
Zn52 O54 1.978 . S
Zn52 N71 2.004 1_655 S
Zn52 O85 2.064 . S
Zn52 O89 1.963 . S
Zn53 O54 1.913 . S
Zn53 O80 1.941 . S
Zn53 O84 1.941 . S
Zn53 O87 1.941 . S
O54 Zn50 1.978 . S
O54 Zn51 1.978 . S
O54 Zn52 1.978 . S
O54 Zn53 1.913 . S
C55 O56 1.237 1_655 S
C55 O89 1.268 . S
O56 C55 1.237 1_455 S
N57 Zn50 2.004 . S
N57 N58 1.383 1_655 S
N57 C60 1.306 1_655 S
N58 N57 1.383 1_455 S
N58 C61 1.302 . S
N59 C60 1.368 . S
N59 C61 1.379 . S
C60 N57 1.306 1_455 S
C60 N59 1.368 . S
C60 C99 1.481 1_455 S
C61 N58 1.302 . S
C61 N59 1.379 . S
N62 Zn51 2.004 . S
N62 C65 1.306 1_655 S
N62 N66 1.383 1_655 S
C63 N64 1.379 . S
C63 N66 1.302 . S
N64 C63 1.379 . S
N64 C65 1.368 . S
C65 N62 1.306 1_455 S
C65 N64 1.368 . S
C65 C68 1.481 1_455 S
N66 N62 1.383 1_455 S
N66 C63 1.302 . S
H67 C68 0.969 . S
C68 C65 1.481 1_655 S
C68 H67 0.969 . S
C68 H69 0.970 . S
C68 H70 0.971 . S
H69 C68 0.970 . S
H70 C68 0.971 . S
N71 Zn52 2.004 1_455 S
N71 C72 1.306 . S
N71 N74 1.383 . S
C72 N71 1.306 . S
C72 N75 1.368 . S
C72 C76 1.481 . S
C73 N74 1.302 . S
C73 N75 1.379 . S
N74 N71 1.383 . S
N74 C73 1.302 . S
N75 C72 1.368 . S
N75 C73 1.379 . S
C76 C72 1.481 . S
C76 H77 0.971 . S
C76 H78 0.970 . S
C76 H79 0.969 . S
H77 C76 0.971 . S
H78 C76 0.970 . S
H79 C76 0.969 . S
O80 Zn53 1.941 . S
O80 C82 1.277 . S
O81 Zn50 2.064 . S
O81 C82 1.233 . S
C82 O80 1.277 . S
C82 O81 1.233 . S
O83 Zn51 1.963 . S
O83 C90 1.268 . S
O84 Zn53 1.941 . S
O84 C92 1.277 . S
O85 Zn52 2.064 . S
O85 C92 1.233 . S
O86 Zn50 1.963 . S
O86 C93 1.268 . S
O87 Zn53 1.941 . S
O87 C95 1.277 . S
O88 Zn51 2.064 . S
O88 C95 1.233 . S
O89 Zn52 1.963 . S
O89 C55 1.268 . S
C90 O83 1.268 . S
C90 O91 1.237 . S
O91 C90 1.237 . S
C92 O84 1.277 . S
C92 O85 1.233 . S
C93 O86 1.268 . S
C93 O94 1.237 . S
O94 C93 1.237 . S
C95 O87 1.277 . S
C95 O88 1.233 . S
H96 C99 0.970 . S
H97 C99 0.971 . S
H98 C99 0.969 1_455 S
C99 C60 1.481 1_655 S
C99 H96 0.970 . S
C99 H97 0.971 . S
C99 H98 0.969 1_655 S
Zn100 O104 1.978 . S
Zn100 N107 2.004 1_545 S
Zn100 O131 2.064 1_545 S
Zn100 O136 1.963 . S
Zn101 O104 1.978 1_565 S
Zn101 N112 2.004 . S
Zn101 O133 1.963 . S
Zn101 O138 2.064 . S
Zn102 O104 1.978 . S
Zn102 N121 2.004 . S
Zn102 O135 2.064 . S
Zn102 O139 1.963 . S
Zn103 O104 1.913 . S
Zn103 O130 1.941 . S
Zn103 O134 1.941 . S
Zn103 O137 1.941 . S
O104 Zn100 1.978 . S
O104 Zn101 1.978 1_545 S
O104 Zn102 1.978 . S
O104 Zn103 1.913 . S
C105 O106 1.237 . S
C105 O139 1.268 . S
O106 C105 1.237 . S
N107 Zn100 2.004 1_565 S
N107 N108 1.383 . S
N107 C110 1.306 . S
N108 N107 1.383 . S
N108 C111 1.302 . S
N109 C110 1.368 . S
N109 C111 1.379 . S
C110 N107 1.306 . S
C110 N109 1.368 . S
C110 C149 1.481 . S
C111 N108 1.302 . S
C111 N109 1.379 . S
N112 Zn101 2.004 . S
N112 C115 1.306 . S
N112 N116 1.383 . S
C113 N114 1.379 . S
C113 N116 1.302 . S
N114 C113 1.379 . S
N114 C115 1.368 . S
C115 N112 1.306 . S
C115 N114 1.368 . S
C115 C118 1.481 . S
N116 N112 1.383 . S
N116 C113 1.302 . S
H117 C118 0.969 . S
C118 C115 1.481 . S
C118 H117 0.969 . S
C118 H119 0.970 . S
C118 H120 0.971 . S
H119 C118 0.970 . S
H120 C118 0.971 . S
N121 Zn102 2.004 . S
N121 C122 1.306 . S
N121 N124 1.383 . S
C122 N121 1.306 . S
C122 N125 1.368 . S
C122 C126 1.481 . S
C123 N124 1.302 . S
C123 N125 1.379 . S
N124 N121 1.383 . S
N124 C123 1.302 . S
N125 C122 1.368 . S
N125 C123 1.379 . S
C126 C122 1.481 . S
C126 H127 0.971 . S
C126 H128 0.970 . S
C126 H129 0.969 . S
H127 C126 0.971 . S
H128 C126 0.970 . S
H129 C126 0.969 . S
O130 Zn103 1.941 . S
O130 C132 1.277 1_545 S
O131 Zn100 2.064 1_565 S
O131 C132 1.233 . S
C132 O130 1.277 1_565 S
C132 O131 1.233 . S
O133 Zn101 1.963 . S
O133 C140 1.268 . S
O134 Zn103 1.941 . S
O134 C142 1.277 . S
O135 Zn102 2.064 . S
O135 C142 1.233 . S
O136 Zn100 1.963 . S
O136 C143 1.268 . S
O137 Zn103 1.941 . S
O137 C145 1.277 1_545 S
O138 Zn101 2.064 . S
O138 C145 1.233 . S
O139 Zn102 1.963 . S
O139 C105 1.268 . S
C140 O133 1.268 . S
C140 O141 1.237 . S
O141 C140 1.237 . S
C142 O134 1.277 . S
C142 O135 1.233 . S
C143 O136 1.268 . S
C143 O144 1.237 . S
O144 C143 1.237 . S
C145 O137 1.277 1_565 S
C145 O138 1.233 . S
H146 C149 0.970 . S
H147 C149 0.971 . S
H148 C149 0.969 . S
C149 C110 1.481 . S
C149 H146 0.970 . S
C149 H147 0.971 . S
C149 H148 0.969 . S
Zn150 O154 1.993 . S
Zn150 N157 2.004 . S
Zn150 O181 2.064 . S
Zn150 O186 1.963 . S
Zn151 O154 1.970 1_554 S
Zn151 N162 2.004 . S
Zn151 O183 1.963 1_554 S
Zn151 O188 2.064 . S
Zn152 O154 1.971 1_554 S
Zn152 N171 2.004 . S
Zn152 O185 2.064 . S
Zn152 O189 1.963 . S
Zn153 O154 1.913 . S
Zn153 O180 1.941 . S
Zn153 O184 1.941 1_556 S
Zn153 O187 1.941 1_556 S
O154 Zn150 1.993 . S
O154 Zn151 1.970 1_556 S
O154 Zn152 1.971 1_556 S
O154 Zn153 1.913 . S
C155 O156 1.237 . S
C155 O189 1.268 . S
O156 C155 1.237 . S
N157 Zn150 2.004 . S
N157 N158 1.383 . S
N157 C160 1.306 . S
N158 N157 1.383 . S
N158 C161 1.302 . S
N159 C160 1.368 . S
N159 C161 1.379 . S
C160 N157 1.306 . S
C160 N159 1.368 . S
C160 C199 1.481 . S
C161 N158 1.302 . S
C161 N159 1.379 . S
N162 Zn151 2.004 . S
N162 C165 1.306 . S
N162 N166 1.383 . S
C163 N164 1.379 . S
C163 N166 1.302 . S
N164 C163 1.379 . S
N164 C165 1.368 . S
C165 N162 1.306 . S
C165 N164 1.368 . S
C165 C168 1.481 . S
N166 N162 1.383 . S
N166 C163 1.302 . S
H167 C168 0.969 . S
C168 C165 1.481 . S
C168 H167 0.969 . S
C168 H169 0.970 . S
C168 H170 0.971 . S
H169 C168 0.970 . S
H170 C168 0.971 . S
N171 Zn152 2.004 . S
N171 C172 1.306 . S
N171 N174 1.384 1_554 S
C172 N171 1.306 . S
C172 N175 1.368 1_554 S
C172 C176 1.481 . S
C173 N174 1.302 . S
C173 N175 1.379 . S
N174 N171 1.384 1_556 S
N174 C173 1.302 . S
N175 C172 1.368 1_556 S
N175 C173 1.379 . S
C176 C172 1.481 . S
C176 H177 0.971 . S
C176 H178 0.970 . S
C176 H179 0.969 . S
H177 C176 0.971 . S
H178 C176 0.970 . S
H179 C176 0.969 . S
O180 Zn153 1.941 . S
O180 C182 1.277 . S
O181 Zn150 2.064 . S
O181 C182 1.233 . S
C182 O180 1.277 . S
C182 O181 1.233 . S
O183 Zn151 1.963 1_556 S
O183 C190 1.268 . S
O184 Zn153 1.941 1_554 S
O184 C192 1.277 1_554 S
O185 Zn152 2.064 . S
O185 C192 1.231 1_554 S
O186 Zn150 1.963 . S
O186 C193 1.268 . S
O187 Zn153 1.941 1_554 S
O187 C195 1.277 . S
O188 Zn151 2.064 . S
O188 C195 1.233 . S
O189 Zn152 1.963 . S
O189 C155 1.268 . S
C190 O183 1.268 . S
C190 O191 1.237 1_556 S
O191 C190 1.237 1_554 S
C192 O184 1.277 1_556 S
C192 O185 1.231 1_556 S
C193 O186 1.268 . S
C193 O194 1.237 . S
O194 C193 1.237 . S
C195 O187 1.277 . S
C195 O188 1.233 . S
H196 C199 0.970 . S
H197 C199 0.971 . S
H198 C199 0.969 . S
C199 C160 1.481 . S
C199 H196 0.970 . S
C199 H197 0.971 . S
C199 H198 0.969 . S
H200 C212 0.930 . S
H201 C214 0.930 . S
H202 C215 0.930 . S
H203 C219 0.959 . S
H204 C219 0.959 . S
H205 C219 0.961 1_655 S
H206 C220 0.960 . S
H207 C220 0.961 . S
H208 C220 0.959 . S
H209 C223 0.929 . S
H210 C224 0.931 . S
H211 C226 0.930 . S
C212 H200 0.930 . S
C212 C213 1.399 . S
C212 C217 1.399 . S
C213 C212 1.399 . S
C213 C214 1.376 1_655 S
C214 H201 0.930 . S
C214 C213 1.376 1_455 S
C214 C215 1.388 . S
C215 H202 0.930 . S
C215 C214 1.388 . S
C215 C216 1.390 . S
C216 C215 1.390 . S
C216 C217 1.394 1_455 S
C216 C222 1.465 . S
C217 C212 1.399 . S
C217 C216 1.394 1_655 S
C217 C218 1.516 . S
C218 C217 1.516 . S
C218 C219 1.502 1_655 S
C218 C220 1.561 . S
C218 C221 1.526 1_655 S
C219 H203 0.959 . S
C219 H204 0.959 . S
C219 H205 0.961 1_455 S
C219 C218 1.502 1_455 S
C220 H206 0.960 . S
C220 H207 0.961 . S
C220 H208 0.959 . S
C220 C218 1.561 . S
C221 C218 1.526 1_455 S
C221 C222 1.396 . S
C221 C226 1.390 . S
C222 C216 1.465 . S
C222 C221 1.396 . S
C222 C223 1.399 . S
C223 H209 0.929 . S
C223 C222 1.399 . S
C223 C224 1.385 . S
C224 H210 0.931 . S
C224 C223 1.385 . S
C224 C225 1.389 . S
C225 C224 1.389 . S
C225 C226 1.387 . S
C226 H211 0.930 . S
C226 C221 1.390 . S
C226 C225 1.387 . S
H227 C239 0.930 . S
H228 C241 0.930 . S
H229 C242 0.930 . S
H230 C246 0.959 . S
H231 C246 0.959 . S
H232 C246 0.961 . S
H233 C247 0.960 . S
H234 C247 0.961 . S
H235 C247 0.959 . S
H236 C250 0.929 . S
H237 C251 0.931 . S
H238 C253 0.930 . S
C239 H227 0.930 . S
C239 C240 1.399 1_565 S
C239 C244 1.399 . S
C240 C239 1.399 1_545 S
C240 C241 1.376 . S
C241 H228 0.930 . S
C241 C240 1.376 . S
C241 C242 1.388 . S
C242 H229 0.930 . S
C242 C241 1.388 . S
C242 C243 1.390 . S
C243 C242 1.390 . S
C243 C244 1.394 1_545 S
C243 C249 1.465 . S
C244 C239 1.399 . S
C244 C243 1.394 1_565 S
C244 C245 1.516 . S
C245 C244 1.516 . S
C245 C246 1.502 . S
C245 C247 1.561 . S
C245 C248 1.526 1_565 S
C246 H230 0.959 . S
C246 H231 0.959 . S
C246 H232 0.961 . S
C246 C245 1.502 . S
C247 H233 0.960 . S
C247 H234 0.961 . S
C247 H235 0.959 . S
C247 C245 1.561 . S
C248 C245 1.526 1_545 S
C248 C249 1.396 . S
C248 C253 1.390 1_545 S
C249 C243 1.465 . S
C249 C248 1.396 . S
C249 C250 1.399 . S
C250 H236 0.929 . S
C250 C249 1.399 . S
C250 C251 1.385 . S
C251 H237 0.931 . S
C251 C250 1.385 . S
C251 C252 1.389 . S
C252 C251 1.389 . S
C252 C253 1.387 1_545 S
C253 H238 0.930 . S
C253 C248 1.390 1_565 S
C253 C252 1.387 1_565 S
H254 C266 0.930 . S
H255 C268 0.930 . S
H256 C269 0.930 1_655 S
H257 C273 0.959 . S
H258 C273 0.959 . S
H259 C273 0.961 . S
H260 C274 0.960 . S
H261 C274 0.961 . S
H262 C274 0.959 1_655 S
H263 C277 0.929 . S
H264 C278 0.931 . S
H265 C280 0.930 . S
C266 H254 0.930 . S
C266 C267 1.399 . S
C266 C271 1.399 . S
C267 C266 1.399 . S
C267 C268 1.376 . S
C268 H255 0.930 . S
C268 C267 1.376 . S
C268 C269 1.388 . S
C269 H256 0.930 1_455 S
C269 C268 1.388 . S
C269 C270 1.390 . S
C270 C269 1.390 . S
C270 C271 1.394 . S
C270 C276 1.465 . S
C271 C266 1.399 . S
C271 C270 1.394 . S
C271 C272 1.516 . S
C272 C271 1.516 . S
C272 C273 1.502 . S
C272 C274 1.561 . S
C272 C275 1.526 . S
C273 H257 0.959 . S
C273 H258 0.959 . S
C273 H259 0.961 . S
C273 C272 1.502 . S
C274 H260 0.960 . S
C274 H261 0.961 . S
C274 H262 0.959 1_455 S
C274 C272 1.561 . S
C275 C272 1.526 . S
C275 C276 1.396 . S
C275 C280 1.390 . S
C276 C270 1.465 . S
C276 C275 1.396 . S
C276 C277 1.399 1_455 S
C277 H263 0.929 . S
C277 C276 1.399 1_655 S
C277 C278 1.385 . S
C278 H264 0.931 . S
C278 C277 1.385 . S
C278 C279 1.389 1_655 S
C279 C278 1.389 1_455 S
C279 C280 1.387 . S
C280 H265 0.930 . S
C280 C275 1.390 . S
C280 C279 1.387 . S
H281 C293 0.930 . S
H282 C295 0.930 . S
H283 C296 0.930 . S
H284 C300 0.959 . S
H285 C300 0.959 . S
H286 C300 0.961 . S
H287 C301 0.960 . S
H288 C301 0.961 . S
H289 C301 0.959 . S
H290 C304 0.929 . S
H291 C305 0.931 . S
H292 C307 0.930 . S
C293 H281 0.930 . S
C293 C294 1.399 . S
C293 C298 1.399 . S
C294 C293 1.399 . S
C294 C295 1.376 1_565 S
C295 H282 0.930 . S
C295 C294 1.376 1_545 S
C295 C296 1.388 . S
C296 H283 0.930 . S
C296 C295 1.388 . S
C296 C297 1.390 . S
C297 C296 1.390 . S
C297 C298 1.394 1_545 S
C297 C303 1.465 . S
C298 C293 1.399 . S
C298 C297 1.394 1_565 S
C298 C299 1.516 . S
C299 C298 1.516 . S
C299 C300 1.502 . S
C299 C301 1.561 . S
C299 C302 1.526 . S
C300 H284 0.959 . S
C300 H285 0.959 . S
C300 H286 0.961 . S
C300 C299 1.502 . S
C301 H287 0.960 . S
C301 H288 0.961 . S
C301 H289 0.959 . S
C301 C299 1.561 . S
C302 C299 1.526 . S
C302 C303 1.396 1_565 S
C302 C307 1.390 . S
C303 C297 1.465 . S
C303 C302 1.396 1_545 S
C303 C304 1.399 . S
C304 H290 0.929 . S
C304 C303 1.399 . S
C304 C305 1.385 . S
C305 H291 0.931 . S
C305 C304 1.385 . S
C305 C306 1.389 1_545 S
C306 C305 1.389 1_565 S
C306 C307 1.387 . S
C307 H292 0.930 . S
C307 C302 1.390 . S
C307 C306 1.387 . S
H308 C320 0.930 1_655 S
H309 C322 0.930 . S
H310 C323 0.930 . S
H311 C327 0.959 . S
H312 C327 0.959 . S
H313 C327 0.961 . S
H314 C328 0.963 . S
H315 C328 0.961 1_655 S
H316 C328 0.959 . S
H317 C331 0.929 . S
H318 C332 0.931 . S
H319 C334 0.930 . S
C320 H308 0.930 1_455 S
C320 C321 1.399 . S
C320 C325 1.399 . S
C321 C320 1.399 . S
C321 C322 1.376 . S
C322 H309 0.930 . S
C322 C321 1.376 . S
C322 C323 1.388 . S
C323 H310 0.930 . S
C323 C322 1.388 . S
C323 C324 1.390 . S
C324 C323 1.390 . S
C324 C325 1.394 . S
C324 C330 1.465 . S
C325 C320 1.399 . S
C325 C324 1.394 . S
C325 C326 1.516 1_455 S
C326 C325 1.516 1_655 S
C326 C327 1.502 . S
C326 C328 1.561 1_655 S
C326 C329 1.526 . S
C327 H311 0.959 . S
C327 H312 0.959 . S
C327 H313 0.961 . S
C327 C326 1.502 . S
C328 H314 0.963 . S
C328 H315 0.961 1_455 S
C328 H316 0.959 . S
C328 C326 1.561 1_455 S
C329 C326 1.526 . S
C329 C330 1.396 1_655 S
C329 C334 1.390 . S
C330 C324 1.465 . S
C330 C329 1.396 1_455 S
C330 C331 1.399 . S
C331 H317 0.929 . S
C331 C330 1.399 . S
C331 C332 1.385 . S
C332 H318 0.931 . S
C332 C331 1.385 . S
C332 C333 1.390 1_455 S
C333 C332 1.390 1_655 S
C333 C334 1.386 . S
C334 H319 0.930 . S
C334 C329 1.390 . S
C334 C333 1.386 . S
H335 C347 0.930 . S
H336 C349 0.930 . S
H337 C350 0.930 . S
H338 C354 0.959 . S
H339 C354 0.959 . S
H340 C354 0.961 . S
H341 C355 0.960 . S
H342 C355 0.961 . S
H343 C355 0.959 . S
H344 C358 0.929 . S
H345 C359 0.931 . S
H346 C361 0.930 . S
C347 H335 0.930 . S
C347 C348 1.399 . S
C347 C352 1.399 . S
C348 C347 1.399 . S
C348 C349 1.376 1_545 S
C349 H336 0.930 . S
C349 C348 1.376 1_565 S
C349 C350 1.388 . S
C350 H337 0.930 . S
C350 C349 1.388 . S
C350 C351 1.390 1_565 S
C351 C350 1.390 1_545 S
C351 C352 1.394 . S
C351 C357 1.465 . S
C352 C347 1.399 . S
C352 C351 1.394 . S
C352 C353 1.516 . S
C353 C352 1.516 . S
C353 C354 1.502 . S
C353 C355 1.561 . S
C353 C356 1.526 . S
C354 H338 0.959 . S
C354 H339 0.959 . S
C354 H340 0.961 . S
C354 C353 1.502 . S
C355 H341 0.960 . S
C355 H342 0.961 . S
C355 H343 0.959 . S
C355 C353 1.561 . S
C356 C353 1.526 . S
C356 C357 1.396 . S
C356 C361 1.390 . S
C357 C351 1.465 . S
C357 C356 1.396 . S
C357 C358 1.399 1_545 S
C358 H344 0.929 . S
C358 C357 1.399 1_565 S
C358 C359 1.385 . S
C359 H345 0.931 . S
C359 C358 1.385 . S
C359 C360 1.389 1_565 S
C360 C359 1.389 1_545 S
C360 C361 1.387 . S
C361 H346 0.930 . S
C361 C356 1.390 . S
C361 C360 1.387 . S
H362 C374 0.930 . S
H363 C376 0.930 . S
H364 C377 0.930 . S
H365 C381 0.959 . S
H366 C381 0.959 . S
H367 C381 0.961 . S
H368 C382 0.960 . S
H369 C382 0.961 . S
H370 C382 0.959 . S
H371 C385 0.929 . S
H372 C386 0.931 . S
H373 C388 0.927 1_655 S
C374 H362 0.930 . S
C374 C375 1.399 . S
C374 C379 1.399 . S
C375 C374 1.399 . S
C375 C376 1.376 . S
C376 H363 0.930 . S
C376 C375 1.376 . S
C376 C377 1.388 . S
C377 H364 0.930 . S
C377 C376 1.388 . S
C377 C378 1.390 . S
C378 C377 1.390 . S
C378 C379 1.394 . S
C378 C384 1.465 . S
C379 C374 1.399 . S
C379 C378 1.394 . S
C379 C380 1.516 . S
C380 C379 1.516 . S
C380 C381 1.502 1_455 S
C380 C382 1.561 . S
C380 C383 1.526 . S
C381 H365 0.959 . S
C381 H366 0.959 . S
C381 H367 0.961 . S
C381 C380 1.502 1_655 S
C382 H368 0.960 . S
C382 H369 0.961 . S
C382 H370 0.959 . S
C382 C380 1.561 . S
C383 C380 1.526 . S
C383 C384 1.396 . S
C383 C388 1.390 . S
C384 C378 1.465 . S
C384 C383 1.396 . S
C384 C385 1.399 . S
C385 H371 0.929 . S
C385 C384 1.399 . S
C385 C386 1.385 . S
C386 H372 0.931 . S
C386 C385 1.385 . S
C386 C387 1.389 . S
C387 C386 1.389 . S
C387 C388 1.387 . S
C388 H373 0.927 1_455 S
C388 C383 1.390 . S
C388 C387 1.387 . S
H389 C401 0.930 . S
H390 C403 0.930 . S
H391 C404 0.930 . S
H392 C408 0.959 . S
H393 C408 0.959 . S
H394 C408 0.961 . S
H395 C409 0.960 . S
H396 C409 0.961 . S
H397 C409 0.959 . S
H398 C412 0.929 . S
H399 C413 0.931 . S
H400 C415 0.930 . S
C401 H389 0.930 . S
C401 C402 1.399 . S
C401 C406 1.399 . S
C402 C401 1.399 . S
C402 C403 1.376 1_565 S
C403 H390 0.930 . S
C403 C402 1.376 1_545 S
C403 C404 1.388 . S
C404 H391 0.930 . S
C404 C403 1.388 . S
C404 C405 1.380 1_545 S
C405 C404 1.380 1_565 S
C405 C406 1.404 . S
C405 C411 1.467 . S
C406 C401 1.399 . S
C406 C405 1.404 . S
C406 C407 1.516 . S
C407 C406 1.516 . S
C407 C408 1.502 . S
C407 C409 1.561 . S
C407 C410 1.526 . S
C408 H392 0.959 . S
C408 H393 0.959 . S
C408 H394 0.961 . S
C408 C407 1.502 . S
C409 H395 0.960 . S
C409 H396 0.961 . S
C409 H397 0.959 . S
C409 C407 1.561 . S
C410 C407 1.526 . S
C410 C411 1.396 . S
C410 C415 1.390 . S
C411 C405 1.467 . S
C411 C410 1.396 . S
C411 C412 1.399 1_565 S
C412 H398 0.929 . S
C412 C411 1.399 1_545 S
C412 C413 1.385 . S
C413 H399 0.931 . S
C413 C412 1.385 . S
C413 C414 1.389 1_545 S
C414 C413 1.389 1_565 S
C414 C415 1.387 . S
C415 H400 0.930 . S
C415 C410 1.390 . S
C415 C414 1.387 . S
H416 C428 0.930 . S
H417 C430 0.930 . S
H418 C431 0.930 . S
H419 C435 0.959 . S
H420 C435 0.959 . S
H421 C435 0.961 . S
H422 C436 0.960 . S
H423 C436 0.961 . S
H424 C436 0.959 . S
H425 C439 0.929 . S
H426 C440 0.931 . S
H427 C442 0.930 . S
C428 H416 0.930 . S
C428 C429 1.399 1_554 S
C428 C433 1.399 1_554 S
C429 C428 1.399 1_556 S
C429 C430 1.376 . S
C430 H417 0.930 . S
C430 C429 1.376 . S
C430 C431 1.388 . S
C431 H418 0.930 . S
C431 C430 1.388 . S
C431 C432 1.390 . S
C432 C431 1.390 . S
C432 C433 1.394 . S
C432 C438 1.465 . S
C433 C428 1.399 1_556 S
C433 C432 1.394 . S
C433 C434 1.516 1_556 S
C434 C433 1.516 1_554 S
C434 C435 1.502 . S
C434 C436 1.561 . S
C434 C437 1.526 1_554 S
C435 H419 0.959 . S
C435 H420 0.959 . S
C435 H421 0.961 . S
C435 C434 1.502 . S
C436 H422 0.960 . S
C436 H423 0.961 . S
C436 H424 0.959 . S
C436 C434 1.561 . S
C437 C434 1.526 1_556 S
C437 C438 1.396 . S
C437 C442 1.390 1_556 S
C438 C432 1.465 . S
C438 C437 1.396 . S
C438 C439 1.399 . S
C439 H425 0.929 . S
C439 C438 1.399 . S
C439 C440 1.385 . S
C440 H426 0.931 . S
C440 C439 1.385 . S
C440 C441 1.389 . S
C441 C440 1.389 . S
C441 C442 1.387 1_556 S
C442 H427 0.930 . S
C442 C437 1.390 1_554 S
C442 C441 1.387 1_554 S
H443 C455 0.930 . S
H444 C457 0.930 . S
H445 C458 0.930 . S
H446 C462 0.959 . S
H447 C462 0.959 . S
H448 C462 0.961 . S
H449 C463 0.960 . S
H450 C463 0.961 . S
H451 C463 0.959 . S
H452 C466 0.929 . S
H453 C467 0.931 . S
H454 C469 0.930 . S
C455 H443 0.930 . S
C455 C456 1.399 . S
C455 C460 1.399 . S
C456 C455 1.399 . S
C456 C457 1.376 1_556 S
C457 H444 0.930 . S
C457 C456 1.376 1_554 S
C457 C458 1.388 . S
C458 H445 0.930 . S
C458 C457 1.388 . S
C458 C459 1.390 . S
C459 C458 1.390 . S
C459 C460 1.394 1_554 S
C459 C465 1.465 . S
C460 C455 1.399 . S
C460 C459 1.394 1_556 S
C460 C461 1.516 . S
C461 C460 1.516 . S
C461 C462 1.502 . S
C461 C463 1.561 . S
C461 C464 1.526 . S
C462 H446 0.959 . S
C462 H447 0.959 . S
C462 H448 0.961 . S
C462 C461 1.502 . S
C463 H449 0.960 . S
C463 H450 0.961 . S
C463 H451 0.959 . S
C463 C461 1.561 . S
C464 C461 1.526 . S
C464 C465 1.396 1_556 S
C464 C469 1.390 . S
C465 C459 1.465 . S
C465 C464 1.396 1_554 S
C465 C466 1.399 . S
C466 H452 0.929 . S
C466 C465 1.399 . S
C466 C467 1.385 . S
C467 H453 0.931 . S
C467 C466 1.385 . S
C467 C468 1.389 1_554 S
C468 C467 1.389 1_556 S
C468 C469 1.387 . S
C469 H454 0.930 . S
C469 C464 1.390 . S
C469 C468 1.387 . S
H470 C482 0.930 . S
H471 C484 0.930 . S
H472 C485 0.930 . S
H473 C489 0.959 . S
H474 C489 0.959 . S
H475 C489 0.961 . S
H476 C490 0.960 . S
H477 C490 0.961 . S
H478 C490 0.959 . S
H479 C493 0.929 . S
H480 C494 0.931 . S
H481 C496 0.930 . S
C482 H470 0.930 . S
C482 C483 1.399 1_554 S
C482 C487 1.399 . S
C483 C482 1.399 1_556 S
C483 C484 1.376 . S
C484 H471 0.930 . S
C484 C483 1.376 . S
C484 C485 1.388 . S
C485 H472 0.930 . S
C485 C484 1.388 . S
C485 C486 1.390 . S
C486 C485 1.390 . S
C486 C487 1.394 1_556 S
C486 C492 1.465 . S
C487 C482 1.399 . S
C487 C486 1.394 1_554 S
C487 C488 1.516 . S
C488 C487 1.516 . S
C488 C489 1.502 . S
C488 C490 1.561 . S
C488 C491 1.526 . S
C489 H473 0.959 . S
C489 H474 0.959 . S
C489 H475 0.961 . S
C489 C488 1.502 . S
C490 H476 0.960 . S
C490 H477 0.961 . S
C490 H478 0.959 . S
C490 C488 1.561 . S
C491 C488 1.526 . S
C491 C492 1.396 1_554 S
C491 C496 1.390 . S
C492 C486 1.465 . S
C492 C491 1.396 1_556 S
C492 C493 1.399 . S
C493 H479 0.929 . S
C493 C492 1.399 . S
C493 C494 1.385 . S
C494 H480 0.931 . S
C494 C493 1.385 . S
C494 C495 1.389 . S
C495 C494 1.389 . S
C495 C496 1.387 1_556 S
C496 H481 0.930 . S
C496 C491 1.390 . S
C496 C495 1.387 1_554 S
H497 C509 0.930 . S
H498 C511 0.930 . S
H499 C512 0.930 . S
H500 C516 0.959 . S
H501 C516 0.959 . S
H502 C516 0.961 . S
H503 C517 0.960 . S
H504 C517 0.961 . S
H505 C517 0.959 . S
H506 C520 0.929 . S
H507 C521 0.931 . S
H508 C523 0.930 . S
C509 H497 0.930 . S
C509 C510 1.399 . S
C509 C514 1.399 . S
C510 C509 1.399 . S
C510 C511 1.376 1_556 S
C511 H498 0.930 . S
C511 C510 1.376 1_554 S
C511 C512 1.388 . S
C512 H499 0.930 . S
C512 C511 1.388 . S
C512 C513 1.390 1_554 S
C513 C512 1.390 1_556 S
C513 C514 1.394 . S
C513 C519 1.465 . S
C514 C509 1.399 . S
C514 C513 1.394 . S
C514 C515 1.516 . S
C515 C514 1.516 . S
C515 C516 1.502 . S
C515 C517 1.561 . S
C515 C518 1.526 . S
C516 H500 0.959 . S
C516 H501 0.959 . S
C516 H502 0.961 . S
C516 C515 1.502 . S
C517 H503 0.960 . S
C517 H504 0.961 . S
C517 H505 0.959 . S
C517 C515 1.561 . S
C518 C515 1.526 . S
C518 C519 1.396 . S
C518 C523 1.390 . S
C519 C513 1.465 . S
C519 C518 1.396 . S
C519 C520 1.399 1_556 S
C520 H506 0.929 . S
C520 C519 1.399 1_554 S
C520 C521 1.385 . S
C521 H507 0.931 . S
C521 C520 1.385 . S
C521 C522 1.389 1_554 S
C522 C521 1.389 1_556 S
C522 C523 1.387 . S
C523 H508 0.930 . S
C523 C518 1.390 . S
C523 C522 1.387 . S
H524 C536 0.930 . S
H525 C538 0.930 . S
H526 C539 0.930 . S
H527 C543 0.959 . S
H528 C543 0.959 . S
H529 C543 0.961 . S
H530 C544 0.960 . S
H531 C544 0.961 . S
H532 C544 0.959 . S
H533 C547 0.929 . S
H534 C548 0.931 . S
H535 C550 0.930 . S
C536 H524 0.930 . S
C536 C537 1.399 . S
C536 C541 1.399 . S
C537 C536 1.399 . S
C537 C538 1.376 . S
C538 H525 0.930 . S
C538 C537 1.376 . S
C538 C539 1.388 . S
C539 H526 0.930 . S
C539 C538 1.388 . S
C539 C540 1.390 . S
C540 C539 1.390 . S
C540 C541 1.394 . S
C540 C546 1.465 . S
C541 C536 1.399 . S
C541 C540 1.394 . S
C541 C542 1.516 . S
C542 C541 1.516 . S
C542 C543 1.502 . S
C542 C544 1.561 . S
C542 C545 1.526 . S
C543 H527 0.959 . S
C543 H528 0.959 . S
C543 H529 0.961 . S
C543 C542 1.502 . S
C544 H530 0.960 . S
C544 H531 0.961 . S
C544 H532 0.959 . S
C544 C542 1.561 . S
C545 C542 1.526 . S
C545 C546 1.396 . S
C545 C550 1.390 . S
C546 C540 1.465 . S
C546 C545 1.396 . S
C546 C547 1.399 . S
C547 H533 0.929 . S
C547 C546 1.399 . S
C547 C548 1.385 . S
C548 H534 0.931 . S
C548 C547 1.385 . S
C548 C549 1.389 . S
C549 C548 1.389 . S
C549 C550 1.387 . S
C550 H535 0.930 . S
C550 C545 1.390 . S
C550 C549 1.387 . S
H551 C563 0.930 . S
H552 C565 0.930 . S
H553 C566 0.930 . S
H554 C570 0.959 . S
H555 C570 0.959 . S
H556 C570 0.961 . S
H557 C571 0.960 . S
H558 C571 0.961 . S
H559 C571 0.959 . S
H560 C574 0.929 . S
H561 C575 0.931 . S
H562 C577 0.930 . S
C563 H551 0.930 . S
C563 C564 1.399 . S
C563 C568 1.399 . S
C564 C563 1.399 . S
C564 C565 1.376 . S
C565 H552 0.930 . S
C565 C564 1.376 . S
C565 C566 1.388 . S
C566 H553 0.930 . S
C566 C565 1.388 . S
C566 C567 1.390 . S
C567 C566 1.390 . S
C567 C568 1.394 . S
C567 C573 1.465 . S
C568 C563 1.399 . S
C568 C567 1.394 . S
C568 C569 1.516 . S
C569 C568 1.516 . S
C569 C570 1.502 . S
C569 C571 1.561 . S
C569 C572 1.526 . S
C570 H554 0.959 . S
C570 H555 0.959 . S
C570 H556 0.961 . S
C570 C569 1.502 . S
C571 H557 0.960 . S
C571 H558 0.961 . S
C571 H559 0.959 . S
C571 C569 1.561 . S
C572 C569 1.526 . S
C572 C573 1.396 . S
C572 C577 1.390 . S
C573 C567 1.465 . S
C573 C572 1.396 . S
C573 C574 1.399 . S
C574 H560 0.929 . S
C574 C573 1.399 . S
C574 C575 1.385 . S
C575 H561 0.931 . S
C575 C574 1.385 . S
C575 C576 1.389 . S
C576 C575 1.389 . S
C576 C577 1.387 . S
C577 H562 0.930 . S
C577 C572 1.390 . S
C577 C576 1.387 . S
H578 C590 0.930 . S
H579 C592 0.930 . S
H580 C593 0.930 . S
H581 C597 0.959 . S
H582 C597 0.959 . S
H583 C597 0.961 . S
H584 C598 0.960 . S
H585 C598 0.961 . S
H586 C598 0.959 . S
H587 C601 0.929 . S
H588 C602 0.931 . S
H589 C604 0.930 . S
C590 H578 0.930 . S
C590 C591 1.399 . S
C590 C595 1.399 . S
C591 C590 1.399 . S
C591 C592 1.376 . S
C592 H579 0.930 . S
C592 C591 1.376 . S
C592 C593 1.388 . S
C593 H580 0.930 . S
C593 C592 1.388 . S
C593 C594 1.390 . S
C594 C593 1.390 . S
C594 C595 1.394 . S
C594 C600 1.465 . S
C595 C590 1.399 . S
C595 C594 1.394 . S
C595 C596 1.516 . S
C596 C595 1.516 . S
C596 C597 1.502 . S
C596 C598 1.561 . S
C596 C599 1.526 . S
C597 H581 0.959 . S
C597 H582 0.959 . S
C597 H583 0.961 . S
C597 C596 1.502 . S
C598 H584 0.960 . S
C598 H585 0.961 . S
C598 H586 0.959 . S
C598 C596 1.561 . S
C599 C596 1.526 . S
C599 C600 1.396 . S
C599 C604 1.390 . S
C600 C594 1.465 . S
C600 C599 1.396 . S
C600 C601 1.399 . S
C601 H587 0.929 . S
C601 C600 1.399 . S
C601 C602 1.385 . S
C602 H588 0.931 . S
C602 C601 1.385 . S
C602 C603 1.389 . S
C603 C602 1.389 . S
C603 C604 1.387 . S
C604 H589 0.930 . S
C604 C599 1.390 . S
C604 C603 1.387 . S
H605 C617 0.930 . S
H606 C619 0.930 . S
H607 C620 0.930 . S
H608 C624 0.959 . S
H609 C624 0.959 . S
H610 C624 0.961 . S
H611 C625 0.960 . S
H612 C625 0.961 . S
H613 C625 0.959 . S
H614 C628 0.929 . S
H615 C629 0.931 . S
H616 C631 0.930 . S
C617 H605 0.930 . S
C617 C618 1.399 . S
C617 C622 1.399 . S
C618 C617 1.399 . S
C618 C619 1.376 . S
C619 H606 0.930 . S
C619 C618 1.376 . S
C619 C620 1.388 . S
C620 H607 0.930 . S
C620 C619 1.388 . S
C620 C621 1.390 . S
C621 C620 1.390 . S
C621 C622 1.394 . S
C621 C627 1.465 . S
C622 C617 1.399 . S
C622 C621 1.394 . S
C622 C623 1.516 . S
C623 C622 1.516 . S
C623 C624 1.502 . S
C623 C625 1.561 . S
C623 C626 1.526 . S
C624 H608 0.959 . S
C624 H609 0.959 . S
C624 H610 0.961 . S
C624 C623 1.502 . S
C625 H611 0.960 . S
C625 H612 0.961 . S
C625 H613 0.959 . S
C625 C623 1.561 . S
C626 C623 1.526 . S
C626 C627 1.396 . S
C626 C631 1.390 . S
C627 C621 1.465 . S
C627 C626 1.396 . S
C627 C628 1.399 . S
C628 H614 0.929 . S
C628 C627 1.399 . S
C628 C629 1.385 . S
C629 H615 0.931 . S
C629 C628 1.385 . S
C629 C630 1.389 . S
C630 C629 1.389 . S
C630 C631 1.387 . S
C631 H616 0.930 . S
C631 C626 1.390 . S
C631 C630 1.387 . S
H632 C644 0.930 . S
H633 C646 0.930 . S
H634 C647 0.930 . S
H635 C651 0.959 . S
H636 C651 0.959 . S
H637 C651 0.961 . S
H638 C652 0.960 . S
H639 C652 0.961 . S
H640 C652 0.959 . S
H641 C655 0.929 . S
H642 C656 0.931 . S
H643 C658 0.930 . S
C644 H632 0.930 . S
C644 C645 1.399 . S
C644 C649 1.399 . S
C645 C644 1.399 . S
C645 C646 1.376 . S
C646 H633 0.930 . S
C646 C645 1.376 . S
C646 C647 1.388 . S
C647 H634 0.930 . S
C647 C646 1.388 . S
C647 C648 1.390 . S
C648 C647 1.390 . S
C648 C649 1.394 . S
C648 C654 1.465 . S
C649 C644 1.399 . S
C649 C648 1.394 . S
C649 C650 1.516 . S
C650 C649 1.516 . S
C650 C651 1.502 . S
C650 C652 1.561 . S
C650 C653 1.526 . S
C651 H635 0.959 . S
C651 H636 0.959 . S
C651 H637 0.961 . S
C651 C650 1.502 . S
C652 H638 0.960 . S
C652 H639 0.961 . S
C652 H640 0.959 . S
C652 C650 1.561 . S
C653 C650 1.526 . S
C653 C654 1.396 . S
C653 C658 1.390 . S
C654 C648 1.465 . S
C654 C653 1.396 . S
C654 C655 1.399 . S
C655 H641 0.929 . S
C655 C654 1.399 . S
C655 C656 1.385 . S
C656 H642 0.931 . S
C656 C655 1.385 . S
C656 C657 1.389 . S
C657 C656 1.389 . S
C657 C658 1.387 . S
C658 H643 0.930 . S
C658 C653 1.390 . S
C658 C657 1.387 . S
H659 C671 0.930 . S
H660 C673 0.930 . S
H661 C674 0.930 . S
H662 C678 0.959 . S
H663 C678 0.959 . S
H664 C678 0.961 . S
H665 C679 0.960 . S
H666 C679 0.961 . S
H667 C679 0.959 . S
H668 C682 0.929 . S
H669 C683 0.931 . S
H670 C685 0.930 . S
C671 H659 0.930 . S
C671 C672 1.399 . S
C671 C676 1.399 . S
C672 C671 1.399 . S
C672 C673 1.376 . S
C673 H660 0.930 . S
C673 C672 1.376 . S
C673 C674 1.388 . S
C674 H661 0.930 . S
C674 C673 1.388 . S
C674 C675 1.390 . S
C675 C674 1.390 . S
C675 C676 1.394 . S
C675 C681 1.465 . S
C676 C671 1.399 . S
C676 C675 1.394 . S
C676 C677 1.516 . S
C677 C676 1.516 . S
C677 C678 1.502 . S
C677 C679 1.561 . S
C677 C680 1.526 . S
C678 H662 0.959 . S
C678 H663 0.959 . S
C678 H664 0.961 . S
C678 C677 1.502 . S
C679 H665 0.960 . S
C679 H666 0.961 . S
C679 H667 0.959 . S
C679 C677 1.561 . S
C680 C677 1.526 . S
C680 C681 1.396 . S
C680 C685 1.390 . S
C681 C675 1.465 . S
C681 C680 1.396 . S
C681 C682 1.399 . S
C682 H668 0.929 . S
C682 C681 1.399 . S
C682 C683 1.385 . S
C683 H669 0.931 . S
C683 C682 1.385 . S
C683 C684 1.389 . S
C684 C683 1.389 . S
C684 C685 1.387 . S
C685 H670 0.930 . S
C685 C680 1.390 . S
C685 C684 1.387 . S
H686 C698 0.930 . S
H687 C700 0.930 . S
H688 C701 0.930 . S
H689 C705 0.959 . S
H690 C705 0.959 . S
H691 C705 0.961 . S
H692 C706 0.960 . S
H693 C706 0.961 . S
H694 C706 0.959 . S
H695 C709 0.929 . S
H696 C710 0.931 . S
H697 C712 0.930 . S
C698 H686 0.930 . S
C698 C699 1.399 . S
C698 C703 1.399 . S
C699 C698 1.399 . S
C699 C700 1.376 . S
C700 H687 0.930 . S
C700 C699 1.376 . S
C700 C701 1.388 . S
C701 H688 0.930 . S
C701 C700 1.388 . S
C701 C702 1.390 . S
C702 C701 1.390 . S
C702 C703 1.394 . S
C702 C708 1.465 . S
C703 C698 1.399 . S
C703 C702 1.394 . S
C703 C704 1.516 . S
C704 C703 1.516 . S
C704 C705 1.502 . S
C704 C706 1.561 . S
C704 C707 1.526 . S
C705 H689 0.959 . S
C705 H690 0.959 . S
C705 H691 0.961 . S
C705 C704 1.502 . S
C706 H692 0.960 . S
C706 H693 0.961 . S
C706 H694 0.959 . S
C706 C704 1.561 . S
C707 C704 1.526 . S
C707 C708 1.396 . S
C707 C712 1.390 . S
C708 C702 1.465 . S
C708 C707 1.396 . S
C708 C709 1.399 . S
C709 H695 0.929 . S
C709 C708 1.399 . S
C709 C710 1.385 . S
C710 H696 0.931 . S
C710 C709 1.385 . S
C710 C711 1.389 . S
C711 C710 1.389 . S
C711 C712 1.387 . S
C712 H697 0.930 . S
C712 C707 1.390 . S
C712 C711 1.387 . S
H713 C725 0.930 . S
H714 C727 0.930 . S
H715 C728 0.930 . S
H716 C732 0.959 . S
H717 C732 0.959 . S
H718 C732 0.961 . S
H719 C733 0.960 . S
H720 C733 0.961 . S
H721 C733 0.959 . S
H722 C736 0.929 . S
H723 C737 0.931 . S
H724 C739 0.930 . S
C725 H713 0.930 . S
C725 C726 1.399 . S
C725 C730 1.399 . S
C726 C725 1.399 . S
C726 C727 1.376 . S
C727 H714 0.930 . S
C727 C726 1.376 . S
C727 C728 1.388 . S
C728 H715 0.930 . S
C728 C727 1.388 . S
C728 C729 1.390 . S
C729 C728 1.390 . S
C729 C730 1.394 . S
C729 C735 1.465 . S
C730 C725 1.399 . S
C730 C729 1.394 . S
C730 C731 1.516 . S
C731 C730 1.516 . S
C731 C732 1.502 . S
C731 C733 1.561 . S
C731 C734 1.526 . S
C732 H716 0.959 . S
C732 H717 0.959 . S
C732 H718 0.961 . S
C732 C731 1.502 . S
C733 H719 0.960 . S
C733 H720 0.961 . S
C733 H721 0.959 . S
C733 C731 1.561 . S
C734 C731 1.526 . S
C734 C735 1.396 . S
C734 C739 1.390 . S
C735 C729 1.465 . S
C735 C734 1.396 . S
C735 C736 1.399 . S
C736 H722 0.929 . S
C736 C735 1.399 . S
C736 C737 1.385 . S
C737 H723 0.931 . S
C737 C736 1.385 . S
C737 C738 1.389 . S
C738 C737 1.389 . S
C738 C739 1.387 . S
C739 H724 0.930 . S
C739 C734 1.390 . S
C739 C738 1.387 . S
H740 C752 0.930 . S
H741 C754 0.930 . S
H742 C755 0.930 . S
H743 C759 0.959 . S
H744 C759 0.959 . S
H745 C759 0.961 . S
H746 C760 0.960 . S
H747 C760 0.961 . S
H748 C760 0.959 . S
H749 C763 0.929 . S
H750 C764 0.931 . S
H751 C766 0.930 . S
C752 H740 0.930 . S
C752 C753 1.399 . S
C752 C757 1.399 . S
C753 C752 1.399 . S
C753 C754 1.376 . S
C754 H741 0.930 . S
C754 C753 1.376 . S
C754 C755 1.388 . S
C755 H742 0.930 . S
C755 C754 1.388 . S
C755 C756 1.390 . S
C756 C755 1.390 . S
C756 C757 1.394 . S
C756 C762 1.465 . S
C757 C752 1.399 . S
C757 C756 1.394 . S
C757 C758 1.516 . S
C758 C757 1.516 . S
C758 C759 1.502 . S
C758 C760 1.561 . S
C758 C761 1.526 . S
C759 H743 0.959 . S
C759 H744 0.959 . S
C759 H745 0.961 . S
C759 C758 1.502 . S
C760 H746 0.960 . S
C760 H747 0.961 . S
C760 H748 0.959 . S
C760 C758 1.561 . S
C761 C758 1.526 . S
C761 C762 1.396 . S
C761 C766 1.390 . S
C762 C756 1.465 . S
C762 C761 1.396 . S
C762 C763 1.399 . S
C763 H749 0.929 . S
C763 C762 1.399 . S
C763 C764 1.385 . S
C764 H750 0.931 . S
C764 C763 1.385 . S
C764 C765 1.389 . S
C765 C764 1.389 . S
C765 C766 1.387 . S
C766 H751 0.930 . S
C766 C761 1.390 . S
C766 C765 1.387 . S
H767 C779 0.930 . S
H768 C781 0.930 . S
H769 C782 0.930 . S
H770 C786 0.959 . S
H771 C786 0.959 . S
H772 C786 0.961 . S
H773 C787 0.960 . S
H774 C787 0.961 . S
H775 C787 0.959 . S
H776 C790 0.929 . S
H777 C791 0.931 . S
H778 C793 0.930 . S
C779 H767 0.930 . S
C779 C780 1.399 . S
C779 C784 1.399 . S
C780 C779 1.399 . S
C780 C781 1.376 . S
C781 H768 0.930 . S
C781 C780 1.376 . S
C781 C782 1.388 . S
C782 H769 0.930 . S
C782 C781 1.388 . S
C782 C783 1.390 . S
C783 C782 1.390 . S
C783 C784 1.394 . S
C783 C789 1.465 . S
C784 C779 1.399 . S
C784 C783 1.394 . S
C784 C785 1.516 . S
C785 C784 1.516 . S
C785 C786 1.502 . S
C785 C787 1.561 . S
C785 C788 1.526 . S
C786 H770 0.959 . S
C786 H771 0.959 . S
C786 H772 0.961 . S
C786 C785 1.502 . S
C787 H773 0.960 . S
C787 H774 0.961 . S
C787 H775 0.959 . S
C787 C785 1.561 . S
C788 C785 1.526 . S
C788 C789 1.396 . S
C788 C793 1.390 . S
C789 C783 1.465 . S
C789 C788 1.396 . S
C789 C790 1.399 . S
C790 H776 0.929 . S
C790 C789 1.399 . S
C790 C791 1.385 . S
C791 H777 0.931 . S
C791 C790 1.385 . S
C791 C792 1.389 . S
C792 C791 1.389 . S
C792 C793 1.387 . S
C793 H778 0.930 . S
C793 C788 1.390 . S
C793 C792 1.387 . S
H794 C806 0.930 . S
H795 C808 0.930 . S
H796 C809 0.930 . S
H797 C813 0.959 . S
H798 C813 0.959 . S
H799 C813 0.961 . S
H800 C814 0.960 . S
H801 C814 0.961 . S
H802 C814 0.959 . S
H803 C817 0.929 . S
H804 C818 0.931 . S
H805 C820 0.930 . S
C806 H794 0.930 . S
C806 C807 1.399 . S
C806 C811 1.399 . S
C807 C806 1.399 . S
C807 C808 1.376 . S
C808 H795 0.930 . S
C808 C807 1.376 . S
C808 C809 1.388 . S
C809 H796 0.930 . S
C809 C808 1.388 . S
C809 C810 1.390 . S
C810 C809 1.390 . S
C810 C811 1.394 . S
C810 C816 1.465 . S
C811 C806 1.399 . S
C811 C810 1.394 . S
C811 C812 1.516 . S
C812 C811 1.516 . S
C812 C813 1.502 . S
C812 C814 1.561 . S
C812 C815 1.526 . S
C813 H797 0.959 . S
C813 H798 0.959 . S
C813 H799 0.961 . S
C813 C812 1.502 . S
C814 H800 0.960 . S
C814 H801 0.961 . S
C814 H802 0.959 . S
C814 C812 1.561 . S
C815 C812 1.526 . S
C815 C816 1.396 . S
C815 C820 1.390 . S
C816 C810 1.465 . S
C816 C815 1.396 . S
C816 C817 1.399 . S
C817 H803 0.929 . S
C817 C816 1.399 . S
C817 C818 1.385 . S
C818 H804 0.931 . S
C818 C817 1.385 . S
C818 C819 1.389 . S
C819 C818 1.389 . S
C819 C820 1.387 . S
C820 H805 0.930 . S
C820 C815 1.390 . S
C820 C819 1.387 . S
H821 C833 0.930 . S
H822 C835 0.930 . S
H823 C836 0.930 . S
H824 C840 0.959 . S
H825 C840 0.959 . S
H826 C840 0.961 . S
H827 C841 0.960 . S
H828 C841 0.961 . S
H829 C841 0.959 . S
H830 C844 0.929 . S
H831 C845 0.931 . S
H832 C847 0.930 . S
C833 H821 0.930 . S
C833 C834 1.399 . S
C833 C838 1.399 . S
C834 C833 1.399 . S
C834 C835 1.376 . S
C835 H822 0.930 . S
C835 C834 1.376 . S
C835 C836 1.388 . S
C836 H823 0.930 . S
C836 C835 1.388 . S
C836 C837 1.390 . S
C837 C836 1.390 . S
C837 C838 1.394 . S
C837 C843 1.465 . S
C838 C833 1.399 . S
C838 C837 1.394 . S
C838 C839 1.516 . S
C839 C838 1.516 . S
C839 C840 1.502 . S
C839 C841 1.561 . S
C839 C842 1.526 . S
C840 H824 0.959 . S
C840 H825 0.959 . S
C840 H826 0.961 . S
C840 C839 1.502 . S
C841 H827 0.960 . S
C841 H828 0.961 . S
C841 H829 0.959 . S
C841 C839 1.561 . S
C842 C839 1.526 . S
C842 C843 1.396 . S
C842 C847 1.390 . S
C843 C837 1.465 . S
C843 C842 1.396 . S
C843 C844 1.399 . S
C844 H830 0.929 . S
C844 C843 1.399 . S
C844 C845 1.385 . S
C845 H831 0.931 . S
C845 C844 1.385 . S
C845 C846 1.389 . S
C846 C845 1.389 . S
C846 C847 1.387 . S
C847 H832 0.930 . S
C847 C842 1.390 . S
C847 C846 1.387 . S
C213 C5 1.192 . S
C225 N59 1.281 . S
C240 C45 1.678 1_545 S
C252 C123 1.596 . S
C267 N14 1.490 . S
C279 C93 1.667 1_455 S
C294 C132 1.287 . S
C306 C13 1.193 . S
C321 N9 1.310 . S
C333 C55 1.151 . S
C348 C23 1.642 . S
C360 C145 1.672 1_545 S
C375 N64 1.598 . S
C387 C43 1.701 1_455 S
C402 C113 1.266 . S
C414 C32 1.243 . S
C429 C190 0.926 . S
C441 N25 0.919 . S
C456 C192 1.818 . S
C468 C11 1.943 . S
C483 C161 1.883 . S
C495 C42 1.876 . S
C510 C40 0.833 . S
C522 N175 0.894 . S
C537 C173 1.621 . S
C549 C95 1.678 . S
C564 C63 1.266 . S
C576 C182 1.239 . S
C591 C73 1.657 . S
C603 C195 1.666 . S
C618 C163 1.270 . S
C630 C82 1.236 . S
C645 C140 0.808 . S
C657 N75 0.877 . S
C672 C61 1.904 . S
C684 C142 1.847 . S
C699 C92 1.902 . S
C711 C111 1.868 . S
C726 N125 0.856 . S
C738 C90 0.776 . S
C753 N159 1.298 . S
C765 C105 1.182 . S
C780 N114 1.546 . S
C792 C193 1.688 . S
C807 C155 1.025 . S
C819 N109 1.287 . S
C834 C143 1.684 . S
C846 N164 1.539 . S
