# Generated by pormake.
# Topology ukb, (4)-cn, num edge types: 1
# Building blocks:
#     Node 0, Type 0, BuildingBlock: NAHDIM_clean_sbu_0, # of connection points: 4
#     Node 1, Type 0, BuildingBlock: NAHDIM_clean_sbu_0, # of connection points: 4
#     Node 2, Type 0, BuildingBlock: NAHDIM_clean_sbu_0, # of connection points: 4
#     Node 3, Type 0, BuildingBlock: NAHDIM_clean_sbu_0, # of connection points: 4
#     Node 4, Type 0, BuildingBlock: NAHDIM_clean_sbu_0, # of connection points: 4
#     Node 5, Type 0, BuildingBlock: NAHDIM_clean_sbu_0, # of connection points: 4
#     Node 6, Type 0, BuildingBlock: NAHDIM_clean_sbu_0, # of connection points: 4
#     Node 7, Type 0, BuildingBlock: NAHDIM_clean_sbu_0, # of connection points: 4
#     Node 8, Type 0, BuildingBlock: NAHDIM_clean_sbu_0, # of connection points: 4
#     Node 9, Type 0, BuildingBlock: NAHDIM_clean_sbu_0, # of connection points: 4
#     Node 10, Type 0, BuildingBlock: NAHDIM_clean_sbu_0, # of connection points: 4
#     Node 11, Type 0, BuildingBlock: NAHDIM_clean_sbu_0, # of connection points: 4
#     Node 12, Type 0, BuildingBlock: NAHDIM_clean_sbu_0, # of connection points: 4
#     Node 13, Type 0, BuildingBlock: NAHDIM_clean_sbu_0, # of connection points: 4
#     Node 14, Type 0, BuildingBlock: NAHDIM_clean_sbu_0, # of connection points: 4
#     Node 15, Type 0, BuildingBlock: NAHDIM_clean_sbu_0, # of connection points: 4
#     Edge 16, Type (0, 0), BuildingBlock: XIVTED_clean_linker_0, # of connection points: 2
#     Edge 17, Type (0, 0), BuildingBlock: XIVTED_clean_linker_0, # of connection points: 2
#     Edge 18, Type (0, 0), BuildingBlock: XIVTED_clean_linker_0, # of connection points: 2
#     Edge 19, Type (0, 0), BuildingBlock: XIVTED_clean_linker_0, # of connection points: 2
#     Edge 20, Type (0, 0), BuildingBlock: XIVTED_clean_linker_0, # of connection points: 2
#     Edge 21, Type (0, 0), BuildingBlock: XIVTED_clean_linker_0, # of connection points: 2
#     Edge 22, Type (0, 0), BuildingBlock: XIVTED_clean_linker_0, # of connection points: 2
#     Edge 23, Type (0, 0), BuildingBlock: XIVTED_clean_linker_0, # of connection points: 2
#     Edge 24, Type (0, 0), BuildingBlock: XIVTED_clean_linker_0, # of connection points: 2
#     Edge 25, Type (0, 0), BuildingBlock: XIVTED_clean_linker_0, # of connection points: 2
#     Edge 26, Type (0, 0), BuildingBlock: XIVTED_clean_linker_0, # of connection points: 2
#     Edge 27, Type (0, 0), BuildingBlock: XIVTED_clean_linker_0, # of connection points: 2
#     Edge 28, Type (0, 0), BuildingBlock: XIVTED_clean_linker_0, # of connection points: 2
#     Edge 29, Type (0, 0), BuildingBlock: XIVTED_clean_linker_0, # of connection points: 2
#     Edge 30, Type (0, 0), BuildingBlock: XIVTED_clean_linker_0, # of connection points: 2
#     Edge 31, Type (0, 0), BuildingBlock: XIVTED_clean_linker_0, # of connection points: 2
#     Edge 32, Type (0, 0), BuildingBlock: XIVTED_clean_linker_0, # of connection points: 2
#     Edge 33, Type (0, 0), BuildingBlock: XIVTED_clean_linker_0, # of connection points: 2
#     Edge 34, Type (0, 0), BuildingBlock: XIVTED_clean_linker_0, # of connection points: 2
#     Edge 35, Type (0, 0), BuildingBlock: XIVTED_clean_linker_0, # of connection points: 2
#     Edge 36, Type (0, 0), BuildingBlock: XIVTED_clean_linker_0, # of connection points: 2
#     Edge 37, Type (0, 0), BuildingBlock: XIVTED_clean_linker_0, # of connection points: 2
#     Edge 38, Type (0, 0), BuildingBlock: XIVTED_clean_linker_0, # of connection points: 2
#     Edge 39, Type (0, 0), BuildingBlock: XIVTED_clean_linker_0, # of connection points: 2
#     Edge 40, Type (0, 0), BuildingBlock: XIVTED_clean_linker_0, # of connection points: 2
#     Edge 41, Type (0, 0), BuildingBlock: XIVTED_clean_linker_0, # of connection points: 2
#     Edge 42, Type (0, 0), BuildingBlock: XIVTED_clean_linker_0, # of connection points: 2
#     Edge 43, Type (0, 0), BuildingBlock: XIVTED_clean_linker_0, # of connection points: 2
#     Edge 44, Type (0, 0), BuildingBlock: XIVTED_clean_linker_0, # of connection points: 2
#     Edge 45, Type (0, 0), BuildingBlock: XIVTED_clean_linker_0, # of connection points: 2
#     Edge 46, Type (0, 0), BuildingBlock: XIVTED_clean_linker_0, # of connection points: 2
#     Edge 47, Type (0, 0), BuildingBlock: XIVTED_clean_linker_0, # of connection points: 2
# Relax obj value: 0.149
# Max RMSD: 0.159
# Mean RMSD: 0.159
data_MOF--net-ukb--node1-NAHDIM_clean_sbu_0--edge1-XIVTED_clean_linker_0
_symmetry_space_group_name_H-M    P1
_symmetry_Int_Tables_number       1
_symmetry_cell_setting            triclinic
loop_
_symmetry_equiv_pos_as_xyz
'x, y, z'
_cell_length_a     43.323798
_cell_length_b     43.293785
_cell_length_c     37.999809
_cell_angle_alpha  89.939142
_cell_angle_beta   90.05829
_cell_angle_gamma 90.052192
loop_
_atom_site_label
_atom_site_type_symbol
_atom_site_fract_x
_atom_site_fract_y
_atom_site_fract_z
_atom_type_partial_charge
C0 C 0.43478 0.19287 0.20284 0.0
O1 O 0.43876 0.19158 0.16862 0.0
O2 O 0.49616 0.2259 0.1513 0.0
Zn3 Zn 0.49855 0.21292 0.20216 0.0
O4 O 0.52537 0.17534 0.20795 0.0
C5 C 0.51496 0.27541 0.22115 0.0
O6 O 0.49513 0.28254 0.19626 0.0
O7 O 0.45668 0.20266 0.22214 0.0
C8 C 0.55238 0.17419 0.19503 0.0
O9 O 0.56246 0.19752 0.17611 0.0
C10 C 0.49815 0.20744 0.12543 0.0
O11 O 0.50106 0.17768 0.13136 0.0
O12 O 0.51906 0.2472 0.2291 0.0
C13 C 0.29033 0.44921 0.69227 0.0
O14 O 0.2847 0.44857 0.65831 0.0
O15 O 0.27532 0.50891 0.63243 0.0
Zn16 Zn 0.27668 0.51454 0.68502 0.0
O17 O 0.31003 0.54514 0.697 0.0
C18 C 0.21578 0.54099 0.68018 0.0
O19 O 0.22151 0.5389 0.64634 0.0
O20 O 0.28722 0.47444 0.70897 0.0
C21 C 0.30861 0.57292 0.68634 0.0
O22 O 0.28472 0.58177 0.66755 0.0
C23 C 0.29772 0.51533 0.61215 0.0
O24 O 0.32388 0.52514 0.62563 0.0
O25 O 0.23582 0.53136 0.70208 0.0
C26 C 0.05136 0.29971 0.19541 0.0
O27 O 0.04971 0.2927 0.16185 0.0
O28 O 0.98675 0.27815 0.14326 0.0
Zn29 Zn 0.98469 0.29122 0.19395 0.0
O30 O 0.95909 0.32962 0.199 0.0
C31 C 0.96595 0.22979 0.21461 0.0
O32 O 0.98615 0.22117 0.19081 0.0
O33 O 0.02693 0.29946 0.21392 0.0
C34 C 0.93194 0.32996 0.18635 0.0
O35 O 0.92211 0.30586 0.16856 0.0
C36 C 0.98863 0.29739 0.1181 0.0
O37 O 0.98967 0.32707 0.12515 0.0
O38 O 0.9626 0.25833 0.22115 0.0
C39 C 0.18873 0.04522 0.70233 0.0
O40 O 0.18588 0.03501 0.66994 0.0
O41 O 0.23118 0.98802 0.65877 0.0
Zn42 Zn 0.22103 0.98795 0.71054 0.0
O43 O 0.18969 0.95424 0.72016 0.0
C44 C 0.28652 0.98462 0.72938 0.0
O45 O 0.29102 0.00092 0.70066 0.0
O46 O 0.20333 0.02901 0.72472 0.0
C47 C 0.19957 0.92753 0.72838 0.0
O48 O 0.22947 0.92282 0.73 0.0
C49 C 0.24663 0.9663 0.64486 0.0
O50 O 0.25652 0.94352 0.66474 0.0
O51 O 0.25913 0.97832 0.73888 0.0
C52 C 0.43862 0.30736 0.80398 0.0
O53 O 0.44401 0.30853 0.83796 0.0
O54 O 0.49961 0.27081 0.85204 0.0
Zn55 Zn 0.50154 0.28533 0.80168 0.0
O56 O 0.52972 0.32211 0.79709 0.0
C57 C 0.51508 0.22307 0.77932 0.0
O58 O 0.49647 0.21566 0.80528 0.0
O59 O 0.45952 0.29729 0.78354 0.0
C60 C 0.55776 0.32006 0.80662 0.0
O61 O 0.56758 0.29413 0.8207 0.0
C62 C 0.50329 0.28874 0.87816 0.0
O63 O 0.50812 0.31831 0.87259 0.0
O64 O 0.51974 0.25139 0.77236 0.0
C65 C 0.20104 0.44554 0.29262 0.0
O66 O 0.19886 0.4525 0.32616 0.0
O67 O 0.23186 0.50643 0.34051 0.0
Zn68 Zn 0.21833 0.50881 0.28982 0.0
O69 O 0.17818 0.53196 0.286 0.0
C70 C 0.27845 0.52483 0.26114 0.0
O71 O 0.28789 0.50062 0.27903 0.0
O72 O 0.21056 0.46602 0.27121 0.0
C73 C 0.17021 0.5534 0.3069 0.0
O74 O 0.18863 0.56104 0.33295 0.0
C75 C 0.25084 0.52506 0.35466 0.0
O76 O 0.26248 0.54774 0.33591 0.0
O77 O 0.24995 0.53169 0.2612 0.0
C78 C 0.04885 0.2084 0.79132 0.0
O79 O 0.04886 0.21617 0.82471 0.0
O80 O 0.98867 0.23895 0.84451 0.0
Zn81 Zn 0.98428 0.22688 0.79366 0.0
O82 O 0.95412 0.1918 0.78937 0.0
C83 C 0.97593 0.29054 0.77525 0.0
O84 O 0.99757 0.29424 0.79912 0.0
O85 O 0.02453 0.21238 0.77314 0.0
C86 C 0.92705 0.19344 0.80202 0.0
O87 O 0.91859 0.21864 0.81864 0.0
C88 C 0.98744 0.21958 0.8696 0.0
O89 O 0.98396 0.1901 0.86245 0.0
O90 O 0.96729 0.26336 0.76734 0.0
C91 C 0.29664 0.04003 0.31111 0.0
O92 O 0.30319 0.03331 0.34399 0.0
O93 O 0.27264 0.97859 0.36468 0.0
Zn94 Zn 0.27827 0.9768 0.312 0.0
O95 O 0.31639 0.95229 0.30036 0.0
C96 C 0.24252 0.92506 0.29575 0.0
O97 O 0.26569 0.91302 0.31336 0.0
O98 O 0.28398 0.01956 0.29194 0.0
C99 C 0.32869 0.95395 0.27008 0.0
O100 O 0.31708 0.97302 0.24666 0.0
C101 C 0.2867 0.96002 0.38506 0.0
O102 O 0.30534 0.93928 0.37156 0.0
O103 O 0.24194 0.95414 0.29094 0.0
C104 C 0.54784 0.80485 0.79181 0.0
O105 O 0.54148 0.80749 0.82547 0.0
O106 O 0.48954 0.77046 0.84194 0.0
Zn107 Zn 0.48566 0.78377 0.79124 0.0
O108 O 0.46056 0.82277 0.78794 0.0
C109 C 0.47121 0.72286 0.76289 0.0
O110 O 0.49574 0.71399 0.78056 0.0
O111 O 0.52754 0.79357 0.77134 0.0
C112 C 0.43953 0.83003 0.8097 0.0
O113 O 0.43375 0.81167 0.83643 0.0
C114 C 0.47151 0.75104 0.85634 0.0
O115 O 0.44899 0.73882 0.83784 0.0
O116 O 0.46364 0.7512 0.76305 0.0
C117 C 0.68915 0.55026 0.29897 0.0
O118 O 0.69013 0.54623 0.33321 0.0
O119 O 0.71685 0.48681 0.34912 0.0
Zn120 Zn 0.70765 0.48584 0.297 0.0
O121 O 0.67204 0.45707 0.28774 0.0
C122 C 0.77189 0.47296 0.27971 0.0
O123 O 0.77807 0.49003 0.30741 0.0
O124 O 0.69642 0.52803 0.27879 0.0
C125 C 0.67417 0.42895 0.29703 0.0
O126 O 0.69945 0.41952 0.31286 0.0
C127 C 0.69574 0.48117 0.37145 0.0
O128 O 0.66763 0.47527 0.36034 0.0
O129 O 0.74398 0.46892 0.27055 0.0
C130 C 0.94632 0.69343 0.80478 0.0
O131 O 0.95123 0.68884 0.8385 0.0
O132 O 0.00664 0.71676 0.86094 0.0
Zn133 Zn 0.0092 0.71402 0.80795 0.0
O134 O 0.03685 0.67876 0.79412 0.0
C135 C 0.05765 0.7549 0.7983 0.0
O136 O 0.0698 0.73273 0.81745 0.0
O137 O 0.96748 0.70579 0.78634 0.0
C138 C 0.04042 0.67245 0.76175 0.0
O139 O 0.02496 0.68837 0.73814 0.0
C140 C 0.0245 0.70109 0.88063 0.0
O141 O 0.04466 0.68234 0.86623 0.0
O142 O 0.02931 0.75296 0.78981 0.0
C143 C 0.82425 0.97789 0.29607 0.0
O144 O 0.837 0.00049 0.31394 0.0
O145 O 0.7682 0.02004 0.35518 0.0
Zn146 Zn 0.7765 0.02011 0.30285 0.0
O147 O 0.80743 0.05311 0.29088 0.0
C148 C 0.71119 0.03037 0.28863 0.0
O149 O 0.70735 0.02057 0.32106 0.0
O150 O 0.79578 0.9797 0.28818 0.0
C151 C 0.80364 0.08174 0.29653 0.0
O152 O 0.7779 0.09135 0.31111 0.0
C153 C 0.78733 0.0317 0.37684 0.0
O154 O 0.81307 0.04388 0.36498 0.0
O155 O 0.73812 0.03045 0.27541 0.0
C156 C 0.55133 0.70363 0.18989 0.0
O157 O 0.54977 0.70673 0.15555 0.0
O158 O 0.48956 0.72595 0.13476 0.0
Zn159 Zn 0.48671 0.7213 0.18742 0.0
O160 O 0.45701 0.68696 0.19862 0.0
C161 C 0.47028 0.78593 0.19182 0.0
O162 O 0.48264 0.78696 0.16029 0.0
O163 O 0.52775 0.70979 0.20846 0.0
C164 C 0.42894 0.68845 0.18908 0.0
O165 O 0.41927 0.71302 0.172 0.0
C166 C 0.48392 0.70375 0.11386 0.0
O167 O 0.47676 0.67651 0.12674 0.0
O168 O 0.47028 0.76056 0.20871 0.0
C169 C 0.80074 0.54715 0.6945 0.0
O170 O 0.80619 0.53951 0.66164 0.0
O171 O 0.75991 0.49136 0.64377 0.0
Zn172 Zn 0.77296 0.48724 0.6944 0.0
O173 O 0.80913 0.45807 0.69652 0.0
C174 C 0.71065 0.4755 0.72098 0.0
O175 O 0.70246 0.49817 0.69995 0.0
O176 O 0.78562 0.52859 0.71388 0.0
C177 C 0.83203 0.46247 0.71686 0.0
O178 O 0.83272 0.48726 0.73674 0.0
C179 C 0.74339 0.47069 0.62929 0.0
O180 O 0.73431 0.44679 0.64793 0.0
O181 O 0.73895 0.46804 0.72314 0.0
C182 C 0.9669 0.81514 0.20622 0.0
O183 O 0.98806 0.8234 0.18328 0.0
O184 O 0.00452 0.7546 0.15561 0.0
Zn185 Zn 0.00736 0.76587 0.20685 0.0
O186 O 0.04354 0.7948 0.21372 0.0
C187 C 0.01049 0.70069 0.22715 0.0
O188 O 0.99638 0.69555 0.19711 0.0
O189 O 0.96916 0.7889 0.22099 0.0
C190 C 0.06988 0.78463 0.22283 0.0
O191 O 0.07369 0.75476 0.22707 0.0
C192 C 0.02628 0.74013 0.14049 0.0
O193 O 0.05062 0.73195 0.1589 0.0
O194 O 0.01515 0.72835 0.23695 0.0
C195 C 0.69158 0.95954 0.6973 0.0
O196 O 0.68825 0.9669 0.66396 0.0
O197 O 0.72422 0.02062 0.64928 0.0
Zn198 Zn 0.71216 0.02214 0.70054 0.0
O199 O 0.67378 0.04781 0.70605 0.0
C200 C 0.77343 0.03379 0.72979 0.0
O201 O 0.78151 0.00906 0.71203 0.0
O202 O 0.70267 0.97944 0.7184 0.0
C203 C 0.67076 0.07349 0.69021 0.0
O204 O 0.69277 0.08293 0.66901 0.0
C205 C 0.74408 0.03877 0.63589 0.0
O206 O 0.75765 0.05943 0.65592 0.0
O207 O 0.74546 0.04255 0.72916 0.0
H208 H 0.41949 0.19041 0.27274 0.0
H209 H 0.29449 0.05825 0.24192 0.0
H210 H 0.38773 0.16182 0.17008 0.0
H211 H 0.32618 0.08762 0.34432 0.0
H212 H 0.32176 0.10192 0.2155 0.0
H213 H 0.37896 0.15911 0.29957 0.0
C214 C 0.40373 0.17789 0.2558 0.0
C215 C 0.40737 0.17832 0.21911 0.0
C216 C 0.32239 0.09906 0.2438 0.0
C217 C 0.36106 0.14216 0.2497 0.0
C218 C 0.30676 0.07414 0.25892 0.0
C219 C 0.30848 0.06896 0.29534 0.0
C220 C 0.33996 0.11883 0.26524 0.0
C221 C 0.32457 0.09044 0.31607 0.0
C222 C 0.38058 0.15998 0.27115 0.0
C223 C 0.38604 0.16189 0.19849 0.0
N224 N 0.34001 0.11418 0.30069 0.0
N225 N 0.36408 0.14412 0.21409 0.0
H226 H 0.31169 0.39596 0.66203 0.0
H227 H 0.39361 0.33914 0.83909 0.0
H228 H 0.30171 0.44124 0.76256 0.0
H229 H 0.41928 0.30792 0.73528 0.0
H230 H 0.35109 0.3684 0.81316 0.0
H231 H 0.34216 0.35551 0.6905 0.0
C232 C 0.31549 0.39717 0.69018 0.0
C233 C 0.30456 0.42229 0.70987 0.0
C234 C 0.36583 0.35486 0.79612 0.0
C235 C 0.33944 0.37614 0.74251 0.0
C236 C 0.39008 0.33808 0.81089 0.0
C237 C 0.41035 0.32145 0.78925 0.0
C238 C 0.36177 0.35494 0.75946 0.0
C239 C 0.40447 0.32075 0.75292 0.0
C240 C 0.33297 0.37412 0.70637 0.0
C241 C 0.31005 0.42252 0.74628 0.0
N242 N 0.38088 0.33752 0.73912 0.0
N243 N 0.32736 0.39997 0.76137 0.0
H244 H 0.10334 0.31825 0.1602 0.0
H245 H 0.1735 0.39963 0.3308 0.0
H246 H 0.06492 0.31037 0.26462 0.0
H247 H 0.19747 0.42511 0.22437 0.0
H248 H 0.14323 0.35656 0.3079 0.0
H249 H 0.14698 0.34704 0.18465 0.0
C250 C 0.10433 0.32208 0.18834 0.0
C251 C 0.08018 0.31239 0.21035 0.0
C252 C 0.15546 0.37133 0.28959 0.0
C253 C 0.12996 0.34526 0.23838 0.0
C254 C 0.17282 0.39591 0.30263 0.0
C255 C 0.18753 0.41641 0.27941 0.0
C256 C 0.15279 0.36719 0.25309 0.0
C257 C 0.18612 0.41016 0.2432 0.0
C258 C 0.1292 0.33859 0.20223 0.0
C259 C 0.08279 0.31785 0.24662 0.0
N260 N 0.16866 0.38633 0.2311 0.0
N261 N 0.10706 0.3342 0.25945 0.0
H262 H 0.15293 0.08347 0.66204 0.0
H263 H 0.10031 0.18691 0.82541 0.0
H264 H 0.18885 0.07261 0.76736 0.0
H265 H 0.05665 0.18935 0.72325 0.0
H266 H 0.13901 0.1514 0.80208 0.0
H267 H 0.12352 0.12828 0.68173 0.0
C268 C 0.15485 0.09064 0.68925 0.0
C269 C 0.17308 0.07401 0.71319 0.0
C270 C 0.12115 0.15997 0.78468 0.0
C271 C 0.13941 0.12531 0.73592 0.0
C272 C 0.0991 0.18035 0.79795 0.0
C273 C 0.07494 0.19079 0.77638 0.0
C274 C 0.11904 0.15001 0.7496 0.0
C275 C 0.07465 0.18161 0.74096 0.0
C276 C 0.13802 0.11624 0.70048 0.0
C277 C 0.17485 0.08455 0.74807 0.0
N278 N 0.09617 0.16152 0.72877 0.0
N279 N 0.15801 0.10938 0.75845 0.0
H280 H 0.5657 0.80904 0.72273 0.0
H281 H 0.69109 0.93838 0.76533 0.0
H282 H 0.59386 0.83441 0.82783 0.0
H283 H 0.66184 0.91423 0.66024 0.0
H284 H 0.66242 0.89413 0.78816 0.0
H285 H 0.60742 0.84082 0.69904 0.0
C286 C 0.58093 0.82091 0.74086 0.0
C287 C 0.57592 0.81951 0.77731 0.0
C288 C 0.66258 0.89827 0.76005 0.0
C289 C 0.62355 0.85614 0.75036 0.0
C290 C 0.67898 0.92355 0.74699 0.0
C291 C 0.67842 0.93035 0.71088 0.0
C292 C 0.64535 0.87976 0.73687 0.0
C293 C 0.66258 0.91012 0.68833 0.0
C294 C 0.60473 0.83911 0.72731 0.0
C295 C 0.59657 0.83516 0.79953 0.0
N296 N 0.64635 0.88599 0.70175 0.0
N297 N 0.61921 0.85315 0.78569 0.0
H298 H 0.60107 0.67734 0.15711 0.0
H299 H 0.66201 0.5983 0.33408 0.0
H300 H 0.56298 0.69513 0.26007 0.0
H301 H 0.68621 0.56744 0.22968 0.0
H302 H 0.63429 0.64188 0.30814 0.0
H303 H 0.64095 0.64536 0.18434 0.0
C304 C 0.60135 0.67494 0.18549 0.0
C305 C 0.57833 0.68851 0.2063 0.0
C306 C 0.64597 0.62576 0.29095 0.0
C307 C 0.62382 0.65185 0.23755 0.0
C308 C 0.66187 0.60089 0.30572 0.0
C309 C 0.67603 0.5789 0.28398 0.0
C310 C 0.64432 0.62869 0.25419 0.0
C311 C 0.67526 0.58359 0.24743 0.0
C312 C 0.62408 0.65658 0.20099 0.0
C313 C 0.58001 0.68474 0.24296 0.0
N314 N 0.65939 0.60781 0.23367 0.0
N315 N 0.60216 0.6665 0.25738 0.0
H316 H 0.93268 0.69105 0.7343 0.0
H317 H 0.79829 0.56729 0.76281 0.0
H318 H 0.89768 0.66397 0.83612 0.0
H319 H 0.83714 0.58997 0.66143 0.0
H320 H 0.82837 0.60904 0.78911 0.0
H321 H 0.89171 0.66091 0.70641 0.0
C322 C 0.91611 0.67917 0.75082 0.0
C323 C 0.91891 0.67966 0.78762 0.0
C324 C 0.83007 0.60511 0.76104 0.0
C325 C 0.87212 0.64491 0.75584 0.0
C326 C 0.81285 0.58128 0.74598 0.0
C327 C 0.81552 0.57482 0.70992 0.0
C328 C 0.85019 0.62257 0.73993 0.0
C329 C 0.8346 0.59388 0.6894 0.0
C330 C 0.89277 0.66188 0.73486 0.0
C331 C 0.89666 0.66395 0.80766 0.0
N332 N 0.85146 0.61667 0.70476 0.0
N333 N 0.87443 0.64693 0.79151 0.0
H334 H 0.88604 0.97957 0.28595 0.0
H335 H 0.91278 0.80408 0.242 0.0
H336 H 0.80716 0.91927 0.27541 0.0
H337 H 0.96704 0.87715 0.19547 0.0
H338 H 0.87568 0.84305 0.26287 0.0
H339 H 0.9189 0.93896 0.26238 0.0
C340 C 0.87564 0.95767 0.27886 0.0
C341 C 0.84383 0.95273 0.28259 0.0
C342 C 0.89561 0.85031 0.2478 0.0
C343 C 0.88143 0.90613 0.25581 0.0
C344 C 0.91678 0.82822 0.23603 0.0
C345 C 0.94305 0.83746 0.21711 0.0
C346 C 0.90133 0.88169 0.24125 0.0
C347 C 0.94712 0.86898 0.20994 0.0
C348 C 0.89439 0.93462 0.2652 0.0
C349 C 0.83159 0.92396 0.27275 0.0
N350 N 0.92671 0.88998 0.22241 0.0
N351 N 0.85053 0.90148 0.26001 0.0
H352 H 0.51441 0.33776 0.20842 0.0
H353 H 0.67019 0.36812 0.31607 0.0
H354 H 0.56156 0.26783 0.26911 0.0
H355 H 0.62038 0.43973 0.26097 0.0
H356 H 0.62917 0.33166 0.3014 0.0
H357 H 0.55125 0.37614 0.22999 0.0
C358 C 0.53232 0.33051 0.22653 0.0
C359 C 0.53501 0.29947 0.23676 0.0
C360 C 0.62711 0.35538 0.29265 0.0
C361 C 0.57741 0.34324 0.26134 0.0
C362 C 0.65058 0.37622 0.30097 0.0
C363 C 0.64883 0.40699 0.28954 0.0
C364 C 0.60173 0.3653 0.27258 0.0
C365 C 0.62276 0.41619 0.27021 0.0
C366 C 0.55339 0.35244 0.2388 0.0
C367 C 0.55865 0.29145 0.26037 0.0
N368 N 0.60033 0.39539 0.26217 0.0
N369 N 0.57905 0.31314 0.27163 0.0
H370 H 0.16896 0.56448 0.64007 0.0
H371 H 0.07945 0.63861 0.80347 0.0
H372 H 0.19781 0.553 0.74809 0.0
H373 H 0.05419 0.65368 0.69486 0.0
H374 H 0.12005 0.60333 0.7842 0.0
H375 H 0.12401 0.59327 0.66021 0.0
C376 C 0.16577 0.56784 0.66807 0.0
C377 C 0.18734 0.55648 0.69242 0.0
C378 C 0.1055 0.61422 0.76461 0.0
C379 C 0.13585 0.58959 0.71569 0.0
C380 C 0.08228 0.63434 0.77558 0.0
C381 C 0.06351 0.6493 0.75071 0.0
C382 C 0.11001 0.60901 0.7285 0.0
C383 C 0.06821 0.64281 0.71495 0.0
C384 C 0.14006 0.58433 0.67956 0.0
C385 C 0.18186 0.56145 0.72838 0.0
N386 N 0.09108 0.62328 0.70492 0.0
N387 N 0.15673 0.5778 0.73892 0.0
H388 H 0.80533 0.14436 0.30747 0.0
H389 H 0.96572 0.1669 0.20645 0.0
H390 H 0.85855 0.06913 0.2643 0.0
H391 H 0.91745 0.24093 0.25889 0.0
H392 H 0.92735 0.13048 0.22882 0.0
H393 H 0.84657 0.18009 0.29076 0.0
C394 C 0.82567 0.13535 0.29452 0.0
C395 C 0.82841 0.10374 0.28712 0.0
C396 C 0.92527 0.15466 0.23564 0.0
C397 C 0.87567 0.14444 0.26795 0.0
C398 C 0.94721 0.17547 0.2229 0.0
C399 C 0.94472 0.20704 0.23063 0.0
C400 C 0.90055 0.16553 0.25607 0.0
C401 C 0.92026 0.21681 0.25216 0.0
C402 C 0.84925 0.15574 0.28507 0.0
C403 C 0.85537 0.09333 0.27042 0.0
N404 N 0.89901 0.19616 0.2639 0.0
N405 N 0.87787 0.11364 0.26128 0.0
H406 H 0.34707 0.98231 0.7085 0.0
H407 H 0.38898 0.84945 0.84686 0.0
H408 H 0.28528 0.95032 0.78985 0.0
H409 H 0.44602 0.87352 0.75782 0.0
H410 H 0.35467 0.89237 0.83232 0.0
H411 H 0.3875 0.94904 0.73257 0.0
C412 C 0.34214 0.9687 0.73175 0.0
C413 C 0.31261 0.96881 0.7469 0.0
C414 C 0.37484 0.88842 0.81614 0.0
C415 C 0.35867 0.9305 0.77438 0.0
C416 C 0.39446 0.86391 0.82444 0.0
C417 C 0.4202 0.85762 0.80326 0.0
C418 C 0.38099 0.90678 0.78645 0.0
C419 C 0.42625 0.87729 0.77467 0.0
C420 C 0.3652 0.94959 0.74539 0.0
C421 C 0.30759 0.95073 0.77707 0.0
N422 N 0.40665 0.90083 0.76694 0.0
N423 N 0.33028 0.93209 0.78959 0.0
H424 H 0.51581 0.16074 0.79212 0.0
H425 H 0.65847 0.1308 0.66319 0.0
H426 H 0.55601 0.23063 0.72516 0.0
H427 H 0.62237 0.06231 0.73489 0.0
H428 H 0.61686 0.16568 0.68023 0.0
H429 H 0.55031 0.12247 0.76602 0.0
C430 C 0.53165 0.16799 0.77167 0.0
C431 C 0.53324 0.19902 0.76109 0.0
C432 C 0.6179 0.14294 0.69206 0.0
C433 C 0.57289 0.15536 0.73124 0.0
C434 C 0.64166 0.12298 0.68231 0.0
C435 C 0.64412 0.09369 0.69791 0.0
C436 C 0.59645 0.13359 0.71764 0.0
C437 C 0.62153 0.08477 0.72238 0.0
C438 C 0.55139 0.14613 0.75683 0.0
C439 C 0.55414 0.20703 0.73437 0.0
N440 N 0.59878 0.10473 0.73169 0.0
N441 N 0.5733 0.1854 0.72058 0.0
H442 H 0.44202 0.63348 0.22159 0.0
H443 H 0.26651 0.5762 0.22145 0.0
H444 H 0.36716 0.68462 0.17428 0.0
H445 H 0.34165 0.52311 0.26524 0.0
H446 H 0.30353 0.61467 0.20095 0.0
H447 H 0.40608 0.5917 0.23534 0.0
C448 C 0.41803 0.63593 0.21404 0.0
C449 C 0.40755 0.6627 0.19693 0.0
C450 C 0.31197 0.59451 0.21482 0.0
C451 C 0.36628 0.61487 0.21258 0.0
C452 C 0.29084 0.57248 0.2265 0.0
C453 C 0.30096 0.54646 0.24532 0.0
C454 C 0.34351 0.59066 0.22213 0.0
C455 C 0.33278 0.54284 0.25092 0.0
C456 C 0.39753 0.61201 0.22184 0.0
C457 C 0.37625 0.66448 0.18762 0.0
N458 N 0.3529 0.56482 0.23962 0.0
N459 N 0.35671 0.64095 0.1957 0.0
H460 H 0.83558 0.40658 0.68334 0.0
H461 H 0.98392 0.35153 0.79211 0.0
H462 H 0.88408 0.46424 0.7578 0.0
H463 H 0.92935 0.29114 0.72642 0.0
H464 H 0.95191 0.39501 0.7735 0.0
H465 H 0.87391 0.36607 0.69272 0.0
C466 C 0.85441 0.41083 0.70147 0.0
C467 C 0.85643 0.43876 0.72008 0.0
C468 C 0.9471 0.37229 0.76294 0.0
C469 C 0.90039 0.39241 0.73098 0.0
C470 C 0.96543 0.34744 0.77348 0.0
C471 C 0.95912 0.31756 0.76108 0.0
C472 C 0.92229 0.36725 0.73983 0.0
C473 C 0.93492 0.31372 0.73688 0.0
C474 C 0.87628 0.38766 0.70684 0.0
C475 C 0.88145 0.443 0.74309 0.0
N476 N 0.91725 0.33823 0.72725 0.0
N477 N 0.90233 0.42 0.74805 0.0
H478 H 0.07016 0.84802 0.21841 0.0
H479 H 0.24095 0.86222 0.29685 0.0
H480 H 0.12823 0.77027 0.24448 0.0
H481 H 0.18756 0.94144 0.2643 0.0
H482 H 0.19968 0.82854 0.2767 0.0
H483 H 0.11264 0.8829 0.2338 0.0
C484 C 0.09186 0.83827 0.22721 0.0
C485 C 0.09559 0.80615 0.23031 0.0
C486 C 0.19693 0.85327 0.27381 0.0
C487 C 0.14416 0.8459 0.24802 0.0
C488 C 0.22052 0.87258 0.2854 0.0
C489 C 0.21768 0.90475 0.28241 0.0
C490 C 0.17006 0.86609 0.25922 0.0
C491 C 0.19069 0.91676 0.26715 0.0
C492 C 0.11608 0.8582 0.23598 0.0
C493 C 0.12421 0.79483 0.24177 0.0
N494 N 0.16782 0.89741 0.25625 0.0
N495 N 0.1473 0.81467 0.25033 0.0
H496 H 0.31215 0.63438 0.66968 0.0
H497 H 0.47451 0.65966 0.76664 0.0
H498 H 0.36254 0.56141 0.7217 0.0
H499 H 0.41956 0.73368 0.72333 0.0
H500 H 0.4363 0.62252 0.74524 0.0
H501 H 0.3536 0.67036 0.68455 0.0
C502 C 0.33195 0.62589 0.68418 0.0
C503 C 0.33377 0.59486 0.69464 0.0
C504 C 0.43272 0.64688 0.74023 0.0
C505 C 0.38139 0.63594 0.71168 0.0
C506 C 0.4546 0.6681 0.75232 0.0
C507 C 0.45014 0.69986 0.74699 0.0
C508 C 0.40623 0.65751 0.72263 0.0
C509 C 0.42387 0.70944 0.72826 0.0
C510 C 0.35563 0.64646 0.69265 0.0
C511 C 0.36007 0.58517 0.71326 0.0
N512 N 0.40286 0.68837 0.71693 0.0
N513 N 0.3828 0.60565 0.72125 0.0
H514 H 0.94253 0.38003 0.22886 0.0
H515 H 0.76657 0.43538 0.22222 0.0
H516 H 0.87251 0.33788 0.16372 0.0
H517 H 0.83389 0.47229 0.29477 0.0
H518 H 0.80692 0.40432 0.19506 0.0
H519 H 0.90492 0.41869 0.24766 0.0
C520 C 0.91934 0.37908 0.21821 0.0
C521 C 0.91056 0.35547 0.19494 0.0
C522 C 0.81294 0.41936 0.21676 0.0
C523 C 0.86741 0.39959 0.21649 0.0
C524 C 0.78989 0.43716 0.2323 0.0
C525 C 0.79677 0.45627 0.26109 0.0
C526 C 0.84315 0.42057 0.2301 0.0
C527 C 0.82748 0.45773 0.27281 0.0
C528 C 0.89787 0.40113 0.22904 0.0
C529 C 0.88024 0.35548 0.18192 0.0
N530 N 0.8495 0.43992 0.25743 0.0
N531 N 0.85972 0.37705 0.19306 0.0
H532 H 0.0403 0.80827 0.76383 0.0
H533 H 0.21425 0.86964 0.7508 0.0
H534 H 0.11973 0.76083 0.80617 0.0
H535 H 0.13596 0.92729 0.72571 0.0
H536 H 0.17922 0.828 0.76642 0.0
H537 H 0.07425 0.85082 0.74534 0.0
C538 C 0.06481 0.80678 0.7692 0.0
C539 C 0.07719 0.78098 0.78663 0.0
C540 C 0.1696 0.84973 0.75753 0.0
C541 C 0.11598 0.82927 0.76548 0.0
C542 C 0.18964 0.87356 0.7485 0.0
C543 C 0.17805 0.90209 0.73704 0.0
C544 C 0.13758 0.85424 0.75503 0.0
C545 C 0.14589 0.90569 0.73455 0.0
C546 C 0.08413 0.83105 0.75871 0.0
C547 C 0.10909 0.78025 0.79294 0.0
N548 N 0.12671 0.88201 0.7435 0.0
N549 N 0.1273 0.80395 0.78233 0.0
H550 H 0.54168 0.12641 0.24079 0.0
H551 H 0.71319 0.05971 0.22478 0.0
H552 H 0.61049 0.16283 0.16985 0.0
H553 H 0.6508 0.03618 0.30923 0.0
H554 H 0.67252 0.09064 0.19769 0.0
H555 H 0.57824 0.08667 0.25946 0.0
C556 C 0.56436 0.12588 0.22886 0.0
C557 C 0.57315 0.14822 0.20397 0.0
C558 C 0.66764 0.07848 0.22198 0.0
C559 C 0.61509 0.10276 0.22526 0.0
C560 C 0.69082 0.06069 0.23744 0.0
C561 C 0.68553 0.04558 0.26959 0.0
C562 C 0.63889 0.08115 0.2387 0.0
C563 C 0.65601 0.04764 0.28461 0.0
C564 C 0.58524 0.10322 0.23961 0.0
C565 C 0.60281 0.14628 0.18934 0.0
N566 N 0.63388 0.06532 0.26918 0.0
N567 N 0.62277 0.12408 0.20036 0.0
H568 H 0.44406 0.79256 0.25693 0.0
H569 H 0.3608 0.95139 0.20808 0.0
H570 H 0.45892 0.84118 0.15914 0.0
H571 H 0.35365 0.90743 0.3098 0.0
H572 H 0.39901 0.91282 0.19079 0.0
H573 H 0.41317 0.8359 0.27795 0.0
C574 C 0.44103 0.81245 0.23997 0.0
C575 C 0.45392 0.81313 0.2061 0.0
C576 C 0.38927 0.91176 0.21699 0.0
C577 C 0.41837 0.86278 0.22994 0.0
C578 C 0.36743 0.93378 0.22689 0.0
C579 C 0.35382 0.93251 0.26034 0.0
C580 C 0.39742 0.88817 0.24065 0.0
C581 C 0.36342 0.90924 0.28367 0.0
C582 C 0.42339 0.83722 0.252 0.0
C583 C 0.44934 0.83959 0.18537 0.0
N584 N 0.38443 0.88785 0.27327 0.0
N585 N 0.43172 0.86324 0.1975 0.0
H586 H 0.64755 0.48006 0.71654 0.0
H587 H 0.61916 0.32315 0.82326 0.0
H588 H 0.72 0.42696 0.76588 0.0
H589 H 0.5462 0.37517 0.77345 0.0
H590 H 0.65571 0.36363 0.80702 0.0
H591 H 0.60942 0.4447 0.74175 0.0
C592 C 0.65544 0.46117 0.73295 0.0
C593 C 0.68706 0.45634 0.73884 0.0
C594 C 0.63167 0.36632 0.79983 0.0
C595 C 0.64355 0.41569 0.76762 0.0
C596 C 0.61076 0.34318 0.80911 0.0
C597 C 0.5796 0.34562 0.79945 0.0
C598 C 0.62142 0.39209 0.78059 0.0
C599 C 0.57005 0.37222 0.78128 0.0
C600 C 0.63365 0.44095 0.74728 0.0
C601 C 0.6959 0.43149 0.76039 0.0
N602 N 0.59091 0.39431 0.77222 0.0
N603 N 0.6743 0.41201 0.77376 0.0
H604 H 0.12625 0.54272 0.25649 0.0
H605 H 0.0416 0.70331 0.2898 0.0
H606 H 0.14893 0.60446 0.34187 0.0
H607 H 0.01694 0.64044 0.20623 0.0
H608 H 0.07601 0.66416 0.31409 0.0
H609 H 0.08182 0.57503 0.24224 0.0
C610 C 0.12177 0.56295 0.27244 0.0
C611 C 0.14161 0.57111 0.30015 0.0
C612 C 0.06278 0.65874 0.29071 0.0
C613 C 0.09074 0.60828 0.28388 0.0
C614 C 0.04302 0.68108 0.27685 0.0
C615 C 0.02665 0.67532 0.24562 0.0
C616 C 0.06641 0.63048 0.2731 0.0
C617 C 0.02928 0.646 0.23019 0.0
C618 C 0.09633 0.58137 0.26431 0.0
C619 C 0.13444 0.59741 0.32008 0.0
N620 N 0.04914 0.62483 0.24381 0.0
N621 N 0.10978 0.61523 0.31133 0.0
H622 H 0.86626 0.19063 0.82161 0.0
H623 H 0.83646 0.028 0.72719 0.0
H624 H 0.93753 0.13775 0.77007 0.0
H625 H 0.76416 0.08541 0.76981 0.0
H626 H 0.87474 0.06476 0.74927 0.0
H627 H 0.82949 0.14925 0.80908 0.0
C628 C 0.87424 0.17025 0.80784 0.0
C629 C 0.90497 0.1678 0.79659 0.0
C630 C 0.8505 0.06917 0.75402 0.0
C631 C 0.86297 0.12032 0.78214 0.0
C632 C 0.82863 0.04813 0.74153 0.0
C633 C 0.79703 0.05377 0.74636 0.0
C634 C 0.8407 0.096 0.77152 0.0
C635 C 0.78826 0.08023 0.7652 0.0
C636 C 0.85321 0.14663 0.80067 0.0
C637 C 0.91401 0.14076 0.779 0.0
N638 N 0.80995 0.10045 0.77687 0.0
N639 N 0.89307 0.11816 0.77216 0.0
H640 H 0.49652 0.26788 0.10442 0.0
H641 H 0.49736 0.2284 0.89874 0.0
H642 H 0.4992 0.17488 0.06357 0.0
H643 H 0.50601 0.32084 0.94016 0.0
H644 H 0.49533 0.20842 0.95882 0.0
H645 H 0.49718 0.2877 0.04431 0.0
C646 C 0.49717 0.25159 0.08281 0.0
C647 C 0.49784 0.21963 0.08907 0.0
C648 C 0.49768 0.23307 0.95477 0.0
C649 C 0.49862 0.24225 0.02009 0.0
C650 C 0.4988 0.24452 0.92046 0.0
C651 C 0.50189 0.27637 0.9144 0.0
C652 C 0.49953 0.25361 0.98327 0.0
C653 C 0.50367 0.29613 0.94358 0.0
C654 C 0.49761 0.26296 0.04847 0.0
C655 C 0.49871 0.19968 0.06 0.0
N656 N 0.50243 0.28442 0.97674 0.0
N657 N 0.49906 0.21132 0.02676 0.0
H658 H 0.22491 0.48618 0.40308 0.0
H659 H 0.33542 0.53873 0.56077 0.0
H660 H 0.29582 0.55562 0.39156 0.0
H661 H 0.25001 0.48901 0.57589 0.0
H662 H 0.32564 0.53933 0.49732 0.0
H663 H 0.23817 0.4814 0.46529 0.0
C664 C 0.24334 0.50037 0.4136 0.0
C665 C 0.25917 0.52148 0.39213 0.0
C666 C 0.30914 0.5282 0.51456 0.0
C667 C 0.27453 0.51598 0.4633 0.0
C668 C 0.31476 0.52771 0.55073 0.0
C669 C 0.29341 0.51394 0.57365 0.0
C670 C 0.28213 0.51457 0.50124 0.0
C671 C 0.267 0.50006 0.55921 0.0
C672 C 0.25086 0.49765 0.44913 0.0
C673 C 0.28288 0.5392 0.4072 0.0
N674 N 0.26209 0.50076 0.52393 0.0
N675 N 0.28986 0.53606 0.4419 0.0
H676 H 0.99326 0.33178 0.05776 0.0
H677 H 0.98508 0.18494 0.92996 0.0
H678 H 0.98633 0.23767 0.09469 0.0
H679 H 0.99357 0.27897 0.89317 0.0
H680 H 0.98644 0.20372 0.99056 0.0
H681 H 0.99422 0.31279 0.99725 0.0
C682 C 0.99197 0.30713 0.05317 0.0
C683 C 0.98965 0.2863 0.08134 0.0
C684 C 0.98807 0.22023 0.96922 0.0
C685 C 0.99073 0.26438 0.01214 0.0
C686 C 0.98732 0.20951 0.9346 0.0
C687 C 0.98915 0.2304 0.90643 0.0
C688 C 0.99064 0.25208 0.97574 0.0
C689 C 0.99204 0.26201 0.91405 0.0
C690 C 0.99254 0.29629 0.0186 0.0
C691 C 0.9881 0.25459 0.07379 0.0
N692 N 0.99263 0.27187 0.94796 0.0
N693 N 0.98862 0.24461 0.03993 0.0
H694 H 0.31095 0.92206 0.43556 0.0
H695 H 0.22726 0.00822 0.59549 0.0
H696 H 0.25139 0.00114 0.42223 0.0
H697 H 0.28094 0.92485 0.60726 0.0
H698 H 0.2377 0.00746 0.53232 0.0
H699 H 0.30206 0.92419 0.49891 0.0
C700 C 0.29603 0.93991 0.44594 0.0
C701 C 0.28183 0.96141 0.42352 0.0
C702 C 0.24721 0.98935 0.54873 0.0
C703 C 0.27155 0.96398 0.49611 0.0
C704 C 0.24129 0.98978 0.58482 0.0
C705 C 0.25318 0.96651 0.6067 0.0
C706 C 0.26522 0.96552 0.53441 0.0
C707 C 0.27122 0.94321 0.5914 0.0
C708 C 0.29094 0.94109 0.48215 0.0
C709 C 0.26275 0.98404 0.43851 0.0
N710 N 0.27667 0.94331 0.55621 0.0
N711 N 0.25816 0.98472 0.47387 0.0
H712 H 0.50877 0.77909 0.90492 0.0
H713 H 0.46236 0.66541 0.06213 0.0
H714 H 0.44299 0.7048 0.89325 0.0
H715 H 0.50588 0.75405 0.07817 0.0
H716 H 0.46086 0.67572 -0.00116 0.0
H717 H 0.51366 0.7664 0.96734 0.0
C718 C 0.49543 0.76003 0.91545 0.0
C719 C 0.47532 0.74306 0.89389 0.0
C720 C 0.47078 0.69286 0.01624 0.0
C721 C 0.48093 0.72837 0.96523 0.0
C722 C 0.47177 0.68695 0.05233 0.0
C723 C 0.48415 0.70897 0.07546 0.0
C724 C 0.48255 0.72083 0.00318 0.0
C725 C 0.49597 0.73651 0.06131 0.0
C726 C 0.49818 0.75287 0.95109 0.0
C727 C 0.45863 0.71861 0.90896 0.0
N728 N 0.49489 0.74164 0.02607 0.0
N729 N 0.46183 0.71197 0.94373 0.0
H730 H 0.69995 0.43758 0.59319 0.0
H731 H 0.74727 0.50333 0.40484 0.0
H732 H 0.76857 0.50896 0.57958 0.0
H733 H 0.66018 0.45802 0.42463 0.0
H734 H 0.75844 0.5017 0.468 0.0
H735 H 0.68787 0.44084 0.53041 0.0
C736 C 0.71245 0.45395 0.57701 0.0
C737 C 0.7353 0.47302 0.59161 0.0
C738 C 0.73685 0.49223 0.45847 0.0
C739 C 0.72177 0.47668 0.5198 0.0
C740 C 0.73051 0.49304 0.42246 0.0
C741 C 0.70274 0.4808 0.40949 0.0
C742 C 0.71547 0.47867 0.48157 0.0
C743 C 0.68182 0.46783 0.43351 0.0
C744 C 0.70548 0.45587 0.54122 0.0
C745 C 0.75071 0.49389 0.56942 0.0
N746 N 0.68869 0.46693 0.46837 0.0
N747 N 0.74381 0.49502 0.53455 0.0
H748 H 0.98162 0.75774 0.0935 0.0
H749 H 0.06251 0.67476 0.92966 0.0
H750 H 0.06672 0.70628 0.10098 0.0
H751 H 0.98442 0.73607 0.91964 0.0
H752 H 0.06191 0.68277 0.9932 0.0
H753 H 0.97988 0.74682 0.03046 0.0
C754 C -0.0001 0.74406 0.08192 0.0
C755 C 0.02443 0.733 0.10253 0.0
C756 C 0.04487 0.69444 0.97712 0.0
C757 C 0.02254 0.7204 0.0304 0.0
C758 C 0.04515 0.68983 0.94082 0.0
C759 C 0.02356 0.70487 0.91926 0.0
C760 C 0.02277 0.71416 0.99206 0.0
C761 C 0.00159 0.7241 0.93523 0.0
C762 C -0.00109 0.73788 0.04591 0.0
C763 C 0.04744 0.71538 0.0861 0.0
N764 N 0.00179 0.72823 0.97068 0.0
N765 N 0.04594 0.70966 0.051 0.0
H766 H 0.7885 0.07059 0.59979 0.0
H767 H 0.73881 0.00459 0.41148 0.0
H768 H 0.71571 0.00356 0.58543 0.0
H769 H 0.82074 0.05933 0.42908 0.0
H770 H 0.72844 0.00568 0.47474 0.0
H771 H 0.79921 0.06847 0.53678 0.0
C772 C 0.77477 0.0554 0.5834 0.0
C773 C 0.75116 0.03724 0.5979 0.0
C774 C 0.74872 0.01739 0.46473 0.0
C775 C 0.76323 0.03478 0.5257 0.0
C776 C 0.75462 0.01683 0.42863 0.0
C777 C 0.78069 0.03189 0.41497 0.0
C778 C 0.76891 0.03329 0.48729 0.0
C779 C 0.80039 0.04736 0.43843 0.0
C780 C 0.78094 0.05416 0.54742 0.0
C781 C 0.73417 0.01794 0.57538 0.0
N782 N 0.79405 0.04772 0.4734 0.0
N783 N 0.74047 0.01729 0.54037 0.0
loop_
_geom_bond_atom_site_label_1
_geom_bond_atom_site_label_2
_geom_bond_distance
_geom_bond_site_symmetry_2
_ccdc_geom_bond_type
C0 O1 1.160 . S
C0 O7 1.185 . S
O1 C0 1.160 . S
O2 Zn3 1.899 . S
O2 C10 1.284 . S
Zn3 O2 1.899 . S
Zn3 O4 2.032 . S
Zn3 O7 2.086 . S
Zn3 O12 1.977 . S
O4 Zn3 2.032 . S
O4 C8 1.278 . S
C5 O6 1.203 . S
C5 O12 1.267 . S
O6 C5 1.203 . S
O7 C0 1.185 . S
O7 Zn3 2.086 . S
C8 O4 1.278 . S
C8 O9 1.211 . S
O9 C8 1.211 . S
C10 O2 1.284 . S
C10 O11 1.273 . S
O11 C10 1.273 . S
O12 Zn3 1.977 . S
O12 C5 1.267 . S
C13 O14 1.160 . S
C13 O20 1.185 . S
O14 C13 1.160 . S
O15 Zn16 1.899 . S
O15 C23 1.284 . S
Zn16 O15 1.899 . S
Zn16 O17 2.032 . S
Zn16 O20 2.086 . S
Zn16 O25 1.977 . S
O17 Zn16 2.032 . S
O17 C21 1.278 . S
C18 O19 1.203 . S
C18 O25 1.267 . S
O19 C18 1.203 . S
O20 C13 1.185 . S
O20 Zn16 2.086 . S
C21 O17 1.278 . S
C21 O22 1.211 . S
O22 C21 1.211 . S
C23 O15 1.284 . S
C23 O24 1.273 . S
O24 C23 1.273 . S
O25 Zn16 1.977 . S
O25 C18 1.267 . S
C26 O27 1.160 . S
C26 O33 1.185 . S
O27 C26 1.160 . S
O28 Zn29 1.899 . S
O28 C36 1.284 . S
Zn29 O28 1.899 . S
Zn29 O30 2.032 . S
Zn29 O33 2.086 1_655 S
Zn29 O38 1.977 . S
O30 Zn29 2.032 . S
O30 C34 1.278 . S
C31 O32 1.203 . S
C31 O38 1.267 . S
O32 C31 1.203 . S
O33 C26 1.185 . S
O33 Zn29 2.086 1_455 S
C34 O30 1.278 . S
C34 O35 1.211 . S
O35 C34 1.211 . S
C36 O28 1.284 . S
C36 O37 1.273 . S
O37 C36 1.273 . S
O38 Zn29 1.977 . S
O38 C31 1.267 . S
C39 O40 1.160 . S
C39 O46 1.185 . S
O40 C39 1.160 . S
O41 Zn42 1.899 . S
O41 C49 1.284 . S
Zn42 O41 1.899 . S
Zn42 O43 2.032 . S
Zn42 O46 2.086 1_565 S
Zn42 O51 1.977 . S
O43 Zn42 2.032 . S
O43 C47 1.278 . S
C44 O45 1.203 . S
C44 O51 1.267 . S
O45 C44 1.203 . S
O46 C39 1.185 . S
O46 Zn42 2.086 1_545 S
C47 O43 1.278 . S
C47 O48 1.211 . S
O48 C47 1.211 . S
C49 O41 1.284 . S
C49 O50 1.273 . S
O50 C49 1.273 . S
O51 Zn42 1.977 . S
O51 C44 1.267 . S
C52 O53 1.160 . S
C52 O59 1.185 . S
O53 C52 1.160 . S
O54 Zn55 1.899 . S
O54 C62 1.284 . S
Zn55 O54 1.899 . S
Zn55 O56 2.032 . S
Zn55 O59 2.086 . S
Zn55 O64 1.977 . S
O56 Zn55 2.032 . S
O56 C60 1.278 . S
C57 O58 1.203 . S
C57 O64 1.267 . S
O58 C57 1.203 . S
O59 C52 1.185 . S
O59 Zn55 2.086 . S
C60 O56 1.278 . S
C60 O61 1.211 . S
O61 C60 1.211 . S
C62 O54 1.284 . S
C62 O63 1.273 . S
O63 C62 1.273 . S
O64 Zn55 1.977 . S
O64 C57 1.267 . S
C65 O66 1.160 . S
C65 O72 1.185 . S
O66 C65 1.160 . S
O67 Zn68 1.899 . S
O67 C75 1.284 . S
Zn68 O67 1.899 . S
Zn68 O69 2.032 . S
Zn68 O72 2.086 . S
Zn68 O77 1.977 . S
O69 Zn68 2.032 . S
O69 C73 1.278 . S
C70 O71 1.203 . S
C70 O77 1.267 . S
O71 C70 1.203 . S
O72 C65 1.185 . S
O72 Zn68 2.086 . S
C73 O69 1.278 . S
C73 O74 1.211 . S
O74 C73 1.211 . S
C75 O67 1.284 . S
C75 O76 1.273 . S
O76 C75 1.273 . S
O77 Zn68 1.977 . S
O77 C70 1.267 . S
C78 O79 1.160 . S
C78 O85 1.185 . S
O79 C78 1.160 . S
O80 Zn81 1.899 . S
O80 C88 1.284 . S
Zn81 O80 1.899 . S
Zn81 O82 2.032 . S
Zn81 O85 2.086 1_655 S
Zn81 O90 1.977 . S
O82 Zn81 2.032 . S
O82 C86 1.278 . S
C83 O84 1.203 . S
C83 O90 1.267 . S
O84 C83 1.203 . S
O85 C78 1.185 . S
O85 Zn81 2.086 1_455 S
C86 O82 1.278 . S
C86 O87 1.211 . S
O87 C86 1.211 . S
C88 O80 1.284 . S
C88 O89 1.273 . S
O89 C88 1.273 . S
O90 Zn81 1.977 . S
O90 C83 1.267 . S
C91 O92 1.160 . S
C91 O98 1.185 . S
O92 C91 1.160 . S
O93 Zn94 1.899 . S
O93 C101 1.284 . S
Zn94 O93 1.899 . S
Zn94 O95 2.032 . S
Zn94 O98 2.086 1_565 S
Zn94 O103 1.977 . S
O95 Zn94 2.032 . S
O95 C99 1.278 . S
C96 O97 1.203 . S
C96 O103 1.267 . S
O97 C96 1.203 . S
O98 C91 1.185 . S
O98 Zn94 2.086 1_545 S
C99 O95 1.278 . S
C99 O100 1.211 . S
O100 C99 1.211 . S
C101 O93 1.284 . S
C101 O102 1.273 . S
O102 C101 1.273 . S
O103 Zn94 1.977 . S
O103 C96 1.267 . S
C104 O105 1.160 . S
C104 O111 1.185 . S
O105 C104 1.160 . S
O106 Zn107 1.899 . S
O106 C114 1.284 . S
Zn107 O106 1.899 . S
Zn107 O108 2.032 . S
Zn107 O111 2.086 . S
Zn107 O116 1.977 . S
O108 Zn107 2.032 . S
O108 C112 1.278 . S
C109 O110 1.203 . S
C109 O116 1.267 . S
O110 C109 1.203 . S
O111 C104 1.185 . S
O111 Zn107 2.086 . S
C112 O108 1.278 . S
C112 O113 1.211 . S
O113 C112 1.211 . S
C114 O106 1.284 . S
C114 O115 1.273 . S
O115 C114 1.273 . S
O116 Zn107 1.977 . S
O116 C109 1.267 . S
C117 O118 1.160 . S
C117 O124 1.185 . S
O118 C117 1.160 . S
O119 Zn120 1.899 . S
O119 C127 1.284 . S
Zn120 O119 1.899 . S
Zn120 O121 2.032 . S
Zn120 O124 2.086 . S
Zn120 O129 1.977 . S
O121 Zn120 2.032 . S
O121 C125 1.278 . S
C122 O123 1.203 . S
C122 O129 1.267 . S
O123 C122 1.203 . S
O124 C117 1.185 . S
O124 Zn120 2.086 . S
C125 O121 1.278 . S
C125 O126 1.211 . S
O126 C125 1.211 . S
C127 O119 1.284 . S
C127 O128 1.273 . S
O128 C127 1.273 . S
O129 Zn120 1.977 . S
O129 C122 1.267 . S
C130 O131 1.160 . S
C130 O137 1.185 . S
O131 C130 1.160 . S
O132 Zn133 1.899 . S
O132 C140 1.284 . S
Zn133 O132 1.899 . S
Zn133 O134 2.032 . S
Zn133 O137 2.086 1_455 S
Zn133 O142 1.977 . S
O134 Zn133 2.032 . S
O134 C138 1.278 . S
C135 O136 1.203 . S
C135 O142 1.267 . S
O136 C135 1.203 . S
O137 C130 1.185 . S
O137 Zn133 2.086 1_655 S
C138 O134 1.278 . S
C138 O139 1.211 . S
O139 C138 1.211 . S
C140 O132 1.284 . S
C140 O141 1.273 . S
O141 C140 1.273 . S
O142 Zn133 1.977 . S
O142 C135 1.267 . S
C143 O144 1.160 . S
C143 O150 1.185 . S
O144 C143 1.160 . S
O145 Zn146 1.899 . S
O145 C153 1.284 . S
Zn146 O145 1.899 . S
Zn146 O147 2.032 . S
Zn146 O150 2.086 1_545 S
Zn146 O155 1.977 . S
O147 Zn146 2.032 . S
O147 C151 1.278 . S
C148 O149 1.203 . S
C148 O155 1.267 . S
O149 C148 1.203 . S
O150 C143 1.185 . S
O150 Zn146 2.086 1_565 S
C151 O147 1.278 . S
C151 O152 1.211 . S
O152 C151 1.211 . S
C153 O145 1.284 . S
C153 O154 1.273 . S
O154 C153 1.273 . S
O155 Zn146 1.977 . S
O155 C148 1.267 . S
C156 O157 1.160 . S
C156 O163 1.185 . S
O157 C156 1.160 . S
O158 Zn159 1.899 . S
O158 C166 1.284 . S
Zn159 O158 1.899 . S
Zn159 O160 2.032 . S
Zn159 O163 2.086 . S
Zn159 O168 1.977 . S
O160 Zn159 2.032 . S
O160 C164 1.278 . S
C161 O162 1.203 . S
C161 O168 1.267 . S
O162 C161 1.203 . S
O163 C156 1.185 . S
O163 Zn159 2.086 . S
C164 O160 1.278 . S
C164 O165 1.211 . S
O165 C164 1.211 . S
C166 O158 1.284 . S
C166 O167 1.273 . S
O167 C166 1.273 . S
O168 Zn159 1.977 . S
O168 C161 1.267 . S
C169 O170 1.160 . S
C169 O176 1.185 . S
O170 C169 1.160 . S
O171 Zn172 1.899 . S
O171 C179 1.284 . S
Zn172 O171 1.899 . S
Zn172 O173 2.032 . S
Zn172 O176 2.086 . S
Zn172 O181 1.977 . S
O173 Zn172 2.032 . S
O173 C177 1.278 . S
C174 O175 1.203 . S
C174 O181 1.267 . S
O175 C174 1.203 . S
O176 C169 1.185 . S
O176 Zn172 2.086 . S
C177 O173 1.278 . S
C177 O178 1.211 . S
O178 C177 1.211 . S
C179 O171 1.284 . S
C179 O180 1.273 . S
O180 C179 1.273 . S
O181 Zn172 1.977 . S
O181 C174 1.267 . S
C182 O183 1.160 . S
C182 O189 1.185 . S
O183 C182 1.160 . S
O184 Zn185 1.899 . S
O184 C192 1.284 . S
Zn185 O184 1.899 . S
Zn185 O186 2.032 . S
Zn185 O189 2.086 1_455 S
Zn185 O194 1.977 . S
O186 Zn185 2.032 . S
O186 C190 1.278 . S
C187 O188 1.203 . S
C187 O194 1.267 . S
O188 C187 1.203 . S
O189 C182 1.185 . S
O189 Zn185 2.086 1_655 S
C190 O186 1.278 . S
C190 O191 1.211 . S
O191 C190 1.211 . S
C192 O184 1.284 . S
C192 O193 1.273 . S
O193 C192 1.273 . S
O194 Zn185 1.977 . S
O194 C187 1.267 . S
C195 O196 1.160 . S
C195 O202 1.185 . S
O196 C195 1.160 . S
O197 Zn198 1.899 . S
O197 C205 1.284 . S
Zn198 O197 1.899 . S
Zn198 O199 2.032 . S
Zn198 O202 2.086 1_545 S
Zn198 O207 1.977 . S
O199 Zn198 2.032 . S
O199 C203 1.278 . S
C200 O201 1.203 . S
C200 O207 1.267 . S
O201 C200 1.203 . S
O202 C195 1.185 . S
O202 Zn198 2.086 1_565 S
C203 O199 1.278 . S
C203 O204 1.211 . S
O204 C203 1.211 . S
C205 O197 1.284 . S
C205 O206 1.273 . S
O206 C205 1.273 . S
O207 Zn198 1.977 . S
O207 C200 1.267 . S
H208 C214 0.930 . S
H209 C218 0.930 . S
H210 C223 0.929 . S
H211 C221 0.929 . S
H212 C216 0.929 . S
H213 C222 0.929 . S
C214 H208 0.930 . S
C214 C215 1.367 . S
C214 C222 1.378 . S
C215 C214 1.367 . S
C215 C223 1.433 . S
C216 H212 0.929 . S
C216 C218 1.378 . S
C216 C220 1.350 . S
C217 C220 1.463 . S
C217 C222 1.350 . S
C217 N225 1.427 . S
C218 H209 0.930 . S
C218 C216 1.378 . S
C218 C219 1.367 . S
C219 C218 1.367 . S
C219 C221 1.433 . S
C220 C216 1.350 . S
C220 C217 1.463 . S
C220 N224 1.427 . S
C221 H211 0.929 . S
C221 C219 1.433 . S
C221 N224 1.384 . S
C222 H213 0.929 . S
C222 C214 1.378 . S
C222 C217 1.350 . S
C223 H210 0.929 . S
C223 C215 1.433 . S
C223 N225 1.384 . S
N224 C220 1.427 . S
N224 C221 1.384 . S
N225 C217 1.427 . S
N225 C223 1.384 . S
H226 C232 0.930 . S
H227 C236 0.930 . S
H228 C241 0.929 . S
H229 C239 0.929 . S
H230 C234 0.929 . S
H231 C240 0.929 . S
C232 H226 0.930 . S
C232 C233 1.367 . S
C232 C240 1.378 . S
C233 C232 1.367 . S
C233 C241 1.433 . S
C234 H230 0.929 . S
C234 C236 1.378 . S
C234 C238 1.350 . S
C235 C238 1.463 . S
C235 C240 1.350 . S
C235 N243 1.427 . S
C236 H227 0.930 . S
C236 C234 1.378 . S
C236 C237 1.367 . S
C237 C236 1.367 . S
C237 C239 1.433 . S
C238 C234 1.350 . S
C238 C235 1.463 . S
C238 N242 1.427 . S
C239 H229 0.929 . S
C239 C237 1.433 . S
C239 N242 1.384 . S
C240 H231 0.929 . S
C240 C232 1.378 . S
C240 C235 1.350 . S
C241 H228 0.929 . S
C241 C233 1.433 . S
C241 N243 1.384 . S
N242 C238 1.427 . S
N242 C239 1.384 . S
N243 C235 1.427 . S
N243 C241 1.384 . S
H244 C250 0.930 . S
H245 C254 0.930 . S
H246 C259 0.929 . S
H247 C257 0.929 . S
H248 C252 0.929 . S
H249 C258 0.929 . S
C250 H244 0.930 . S
C250 C251 1.367 . S
C250 C258 1.378 . S
C251 C250 1.367 . S
C251 C259 1.433 . S
C252 H248 0.929 . S
C252 C254 1.378 . S
C252 C256 1.350 . S
C253 C256 1.463 . S
C253 C258 1.350 . S
C253 N261 1.427 . S
C254 H245 0.930 . S
C254 C252 1.378 . S
C254 C255 1.367 . S
C255 C254 1.367 . S
C255 C257 1.433 . S
C256 C252 1.350 . S
C256 C253 1.463 . S
C256 N260 1.427 . S
C257 H247 0.929 . S
C257 C255 1.433 . S
C257 N260 1.384 . S
C258 H249 0.929 . S
C258 C250 1.378 . S
C258 C253 1.350 . S
C259 H246 0.929 . S
C259 C251 1.433 . S
C259 N261 1.384 . S
N260 C256 1.427 . S
N260 C257 1.384 . S
N261 C253 1.427 . S
N261 C259 1.384 . S
H262 C268 0.930 . S
H263 C272 0.930 . S
H264 C277 0.929 . S
H265 C275 0.929 . S
H266 C270 0.929 . S
H267 C276 0.929 . S
C268 H262 0.930 . S
C268 C269 1.367 . S
C268 C276 1.378 . S
C269 C268 1.367 . S
C269 C277 1.433 . S
C270 H266 0.929 . S
C270 C272 1.378 . S
C270 C274 1.350 . S
C271 C274 1.463 . S
C271 C276 1.350 . S
C271 N279 1.427 . S
C272 H263 0.930 . S
C272 C270 1.378 . S
C272 C273 1.367 . S
C273 C272 1.367 . S
C273 C275 1.433 . S
C274 C270 1.350 . S
C274 C271 1.463 . S
C274 N278 1.427 . S
C275 H265 0.929 . S
C275 C273 1.433 . S
C275 N278 1.384 . S
C276 H267 0.929 . S
C276 C268 1.378 . S
C276 C271 1.350 . S
C277 H264 0.929 . S
C277 C269 1.433 . S
C277 N279 1.384 . S
N278 C274 1.427 . S
N278 C275 1.384 . S
N279 C271 1.427 . S
N279 C277 1.384 . S
H280 C286 0.930 . S
H281 C290 0.930 . S
H282 C295 0.929 . S
H283 C293 0.929 . S
H284 C288 0.929 . S
H285 C294 0.929 . S
C286 H280 0.930 . S
C286 C287 1.367 . S
C286 C294 1.378 . S
C287 C286 1.367 . S
C287 C295 1.433 . S
C288 H284 0.929 . S
C288 C290 1.378 . S
C288 C292 1.350 . S
C289 C292 1.463 . S
C289 C294 1.350 . S
C289 N297 1.427 . S
C290 H281 0.930 . S
C290 C288 1.378 . S
C290 C291 1.367 . S
C291 C290 1.367 . S
C291 C293 1.433 . S
C292 C288 1.350 . S
C292 C289 1.463 . S
C292 N296 1.427 . S
C293 H283 0.929 . S
C293 C291 1.433 . S
C293 N296 1.384 . S
C294 H285 0.929 . S
C294 C286 1.378 . S
C294 C289 1.350 . S
C295 H282 0.929 . S
C295 C287 1.433 . S
C295 N297 1.384 . S
N296 C292 1.427 . S
N296 C293 1.384 . S
N297 C289 1.427 . S
N297 C295 1.384 . S
H298 C304 0.930 . S
H299 C308 0.930 . S
H300 C313 0.929 . S
H301 C311 0.929 . S
H302 C306 0.929 . S
H303 C312 0.929 . S
C304 H298 0.930 . S
C304 C305 1.367 . S
C304 C312 1.378 . S
C305 C304 1.367 . S
C305 C313 1.433 . S
C306 H302 0.929 . S
C306 C308 1.378 . S
C306 C310 1.350 . S
C307 C310 1.463 . S
C307 C312 1.350 . S
C307 N315 1.427 . S
C308 H299 0.930 . S
C308 C306 1.378 . S
C308 C309 1.367 . S
C309 C308 1.367 . S
C309 C311 1.433 . S
C310 C306 1.350 . S
C310 C307 1.463 . S
C310 N314 1.427 . S
C311 H301 0.929 . S
C311 C309 1.433 . S
C311 N314 1.384 . S
C312 H303 0.929 . S
C312 C304 1.378 . S
C312 C307 1.350 . S
C313 H300 0.929 . S
C313 C305 1.433 . S
C313 N315 1.384 . S
N314 C310 1.427 . S
N314 C311 1.384 . S
N315 C307 1.427 . S
N315 C313 1.384 . S
H316 C322 0.930 . S
H317 C326 0.930 . S
H318 C331 0.929 . S
H319 C329 0.929 . S
H320 C324 0.929 . S
H321 C330 0.929 . S
C322 H316 0.930 . S
C322 C323 1.367 . S
C322 C330 1.378 . S
C323 C322 1.367 . S
C323 C331 1.433 . S
C324 H320 0.929 . S
C324 C326 1.378 . S
C324 C328 1.350 . S
C325 C328 1.463 . S
C325 C330 1.350 . S
C325 N333 1.427 . S
C326 H317 0.930 . S
C326 C324 1.378 . S
C326 C327 1.367 . S
C327 C326 1.367 . S
C327 C329 1.433 . S
C328 C324 1.350 . S
C328 C325 1.463 . S
C328 N332 1.427 . S
C329 H319 0.929 . S
C329 C327 1.433 . S
C329 N332 1.384 . S
C330 H321 0.929 . S
C330 C322 1.378 . S
C330 C325 1.350 . S
C331 H318 0.929 . S
C331 C323 1.433 . S
C331 N333 1.384 . S
N332 C328 1.427 . S
N332 C329 1.384 . S
N333 C325 1.427 . S
N333 C331 1.384 . S
H334 C340 0.930 . S
H335 C344 0.930 . S
H336 C349 0.929 . S
H337 C347 0.929 . S
H338 C342 0.929 . S
H339 C348 0.929 . S
C340 H334 0.930 . S
C340 C341 1.367 . S
C340 C348 1.378 . S
C341 C340 1.367 . S
C341 C349 1.433 . S
C342 H338 0.929 . S
C342 C344 1.378 . S
C342 C346 1.350 . S
C343 C346 1.463 . S
C343 C348 1.350 . S
C343 N351 1.427 . S
C344 H335 0.930 . S
C344 C342 1.378 . S
C344 C345 1.367 . S
C345 C344 1.367 . S
C345 C347 1.433 . S
C346 C342 1.350 . S
C346 C343 1.463 . S
C346 N350 1.427 . S
C347 H337 0.929 . S
C347 C345 1.433 . S
C347 N350 1.384 . S
C348 H339 0.929 . S
C348 C340 1.378 . S
C348 C343 1.350 . S
C349 H336 0.929 . S
C349 C341 1.433 . S
C349 N351 1.384 . S
N350 C346 1.427 . S
N350 C347 1.384 . S
N351 C343 1.427 . S
N351 C349 1.384 . S
H352 C358 0.930 . S
H353 C362 0.930 . S
H354 C367 0.929 . S
H355 C365 0.929 . S
H356 C360 0.929 . S
H357 C366 0.929 . S
C358 H352 0.930 . S
C358 C359 1.367 . S
C358 C366 1.378 . S
C359 C358 1.367 . S
C359 C367 1.433 . S
C360 H356 0.929 . S
C360 C362 1.378 . S
C360 C364 1.350 . S
C361 C364 1.463 . S
C361 C366 1.350 . S
C361 N369 1.427 . S
C362 H353 0.930 . S
C362 C360 1.378 . S
C362 C363 1.367 . S
C363 C362 1.367 . S
C363 C365 1.433 . S
C364 C360 1.350 . S
C364 C361 1.463 . S
C364 N368 1.427 . S
C365 H355 0.929 . S
C365 C363 1.433 . S
C365 N368 1.384 . S
C366 H357 0.929 . S
C366 C358 1.378 . S
C366 C361 1.350 . S
C367 H354 0.929 . S
C367 C359 1.433 . S
C367 N369 1.384 . S
N368 C364 1.427 . S
N368 C365 1.384 . S
N369 C361 1.427 . S
N369 C367 1.384 . S
H370 C376 0.930 . S
H371 C380 0.930 . S
H372 C385 0.929 . S
H373 C383 0.929 . S
H374 C378 0.929 . S
H375 C384 0.929 . S
C376 H370 0.930 . S
C376 C377 1.367 . S
C376 C384 1.378 . S
C377 C376 1.367 . S
C377 C385 1.433 . S
C378 H374 0.929 . S
C378 C380 1.378 . S
C378 C382 1.350 . S
C379 C382 1.463 . S
C379 C384 1.350 . S
C379 N387 1.427 . S
C380 H371 0.930 . S
C380 C378 1.378 . S
C380 C381 1.367 . S
C381 C380 1.367 . S
C381 C383 1.433 . S
C382 C378 1.350 . S
C382 C379 1.463 . S
C382 N386 1.427 . S
C383 H373 0.929 . S
C383 C381 1.433 . S
C383 N386 1.384 . S
C384 H375 0.929 . S
C384 C376 1.378 . S
C384 C379 1.350 . S
C385 H372 0.929 . S
C385 C377 1.433 . S
C385 N387 1.384 . S
N386 C382 1.427 . S
N386 C383 1.384 . S
N387 C379 1.427 . S
N387 C385 1.384 . S
H388 C394 0.930 . S
H389 C398 0.930 . S
H390 C403 0.929 . S
H391 C401 0.929 . S
H392 C396 0.929 . S
H393 C402 0.929 . S
C394 H388 0.930 . S
C394 C395 1.367 . S
C394 C402 1.378 . S
C395 C394 1.367 . S
C395 C403 1.433 . S
C396 H392 0.929 . S
C396 C398 1.378 . S
C396 C400 1.350 . S
C397 C400 1.463 . S
C397 C402 1.350 . S
C397 N405 1.427 . S
C398 H389 0.930 . S
C398 C396 1.378 . S
C398 C399 1.367 . S
C399 C398 1.367 . S
C399 C401 1.433 . S
C400 C396 1.350 . S
C400 C397 1.463 . S
C400 N404 1.427 . S
C401 H391 0.929 . S
C401 C399 1.433 . S
C401 N404 1.384 . S
C402 H393 0.929 . S
C402 C394 1.378 . S
C402 C397 1.350 . S
C403 H390 0.929 . S
C403 C395 1.433 . S
C403 N405 1.384 . S
N404 C400 1.427 . S
N404 C401 1.384 . S
N405 C397 1.427 . S
N405 C403 1.384 . S
H406 C412 0.930 . S
H407 C416 0.930 . S
H408 C421 0.929 . S
H409 C419 0.929 . S
H410 C414 0.929 . S
H411 C420 0.929 . S
C412 H406 0.930 . S
C412 C413 1.367 . S
C412 C420 1.378 . S
C413 C412 1.367 . S
C413 C421 1.433 . S
C414 H410 0.929 . S
C414 C416 1.378 . S
C414 C418 1.350 . S
C415 C418 1.463 . S
C415 C420 1.350 . S
C415 N423 1.427 . S
C416 H407 0.930 . S
C416 C414 1.378 . S
C416 C417 1.367 . S
C417 C416 1.367 . S
C417 C419 1.433 . S
C418 C414 1.350 . S
C418 C415 1.463 . S
C418 N422 1.427 . S
C419 H409 0.929 . S
C419 C417 1.433 . S
C419 N422 1.384 . S
C420 H411 0.929 . S
C420 C412 1.378 . S
C420 C415 1.350 . S
C421 H408 0.929 . S
C421 C413 1.433 . S
C421 N423 1.384 . S
N422 C418 1.427 . S
N422 C419 1.384 . S
N423 C415 1.427 . S
N423 C421 1.384 . S
H424 C430 0.930 . S
H425 C434 0.930 . S
H426 C439 0.929 . S
H427 C437 0.929 . S
H428 C432 0.929 . S
H429 C438 0.929 . S
C430 H424 0.930 . S
C430 C431 1.367 . S
C430 C438 1.378 . S
C431 C430 1.367 . S
C431 C439 1.433 . S
C432 H428 0.929 . S
C432 C434 1.378 . S
C432 C436 1.350 . S
C433 C436 1.463 . S
C433 C438 1.350 . S
C433 N441 1.427 . S
C434 H425 0.930 . S
C434 C432 1.378 . S
C434 C435 1.367 . S
C435 C434 1.367 . S
C435 C437 1.433 . S
C436 C432 1.350 . S
C436 C433 1.463 . S
C436 N440 1.427 . S
C437 H427 0.929 . S
C437 C435 1.433 . S
C437 N440 1.384 . S
C438 H429 0.929 . S
C438 C430 1.378 . S
C438 C433 1.350 . S
C439 H426 0.929 . S
C439 C431 1.433 . S
C439 N441 1.384 . S
N440 C436 1.427 . S
N440 C437 1.384 . S
N441 C433 1.427 . S
N441 C439 1.384 . S
H442 C448 0.930 . S
H443 C452 0.930 . S
H444 C457 0.929 . S
H445 C455 0.929 . S
H446 C450 0.929 . S
H447 C456 0.929 . S
C448 H442 0.930 . S
C448 C449 1.367 . S
C448 C456 1.378 . S
C449 C448 1.367 . S
C449 C457 1.433 . S
C450 H446 0.929 . S
C450 C452 1.378 . S
C450 C454 1.350 . S
C451 C454 1.463 . S
C451 C456 1.350 . S
C451 N459 1.427 . S
C452 H443 0.930 . S
C452 C450 1.378 . S
C452 C453 1.367 . S
C453 C452 1.367 . S
C453 C455 1.433 . S
C454 C450 1.350 . S
C454 C451 1.463 . S
C454 N458 1.427 . S
C455 H445 0.929 . S
C455 C453 1.433 . S
C455 N458 1.384 . S
C456 H447 0.929 . S
C456 C448 1.378 . S
C456 C451 1.350 . S
C457 H444 0.929 . S
C457 C449 1.433 . S
C457 N459 1.384 . S
N458 C454 1.427 . S
N458 C455 1.384 . S
N459 C451 1.427 . S
N459 C457 1.384 . S
H460 C466 0.930 . S
H461 C470 0.930 . S
H462 C475 0.929 . S
H463 C473 0.929 . S
H464 C468 0.929 . S
H465 C474 0.929 . S
C466 H460 0.930 . S
C466 C467 1.367 . S
C466 C474 1.378 . S
C467 C466 1.367 . S
C467 C475 1.433 . S
C468 H464 0.929 . S
C468 C470 1.378 . S
C468 C472 1.350 . S
C469 C472 1.463 . S
C469 C474 1.350 . S
C469 N477 1.427 . S
C470 H461 0.930 . S
C470 C468 1.378 . S
C470 C471 1.367 . S
C471 C470 1.367 . S
C471 C473 1.433 . S
C472 C468 1.350 . S
C472 C469 1.463 . S
C472 N476 1.427 . S
C473 H463 0.929 . S
C473 C471 1.433 . S
C473 N476 1.384 . S
C474 H465 0.929 . S
C474 C466 1.378 . S
C474 C469 1.350 . S
C475 H462 0.929 . S
C475 C467 1.433 . S
C475 N477 1.384 . S
N476 C472 1.427 . S
N476 C473 1.384 . S
N477 C469 1.427 . S
N477 C475 1.384 . S
H478 C484 0.930 . S
H479 C488 0.930 . S
H480 C493 0.929 . S
H481 C491 0.929 . S
H482 C486 0.929 . S
H483 C492 0.929 . S
C484 H478 0.930 . S
C484 C485 1.367 . S
C484 C492 1.378 . S
C485 C484 1.367 . S
C485 C493 1.433 . S
C486 H482 0.929 . S
C486 C488 1.378 . S
C486 C490 1.350 . S
C487 C490 1.463 . S
C487 C492 1.350 . S
C487 N495 1.427 . S
C488 H479 0.930 . S
C488 C486 1.378 . S
C488 C489 1.367 . S
C489 C488 1.367 . S
C489 C491 1.433 . S
C490 C486 1.350 . S
C490 C487 1.463 . S
C490 N494 1.427 . S
C491 H481 0.929 . S
C491 C489 1.433 . S
C491 N494 1.384 . S
C492 H483 0.929 . S
C492 C484 1.378 . S
C492 C487 1.350 . S
C493 H480 0.929 . S
C493 C485 1.433 . S
C493 N495 1.384 . S
N494 C490 1.427 . S
N494 C491 1.384 . S
N495 C487 1.427 . S
N495 C493 1.384 . S
H496 C502 0.930 . S
H497 C506 0.930 . S
H498 C511 0.929 . S
H499 C509 0.929 . S
H500 C504 0.929 . S
H501 C510 0.929 . S
C502 H496 0.930 . S
C502 C503 1.367 . S
C502 C510 1.378 . S
C503 C502 1.367 . S
C503 C511 1.433 . S
C504 H500 0.929 . S
C504 C506 1.378 . S
C504 C508 1.350 . S
C505 C508 1.463 . S
C505 C510 1.350 . S
C505 N513 1.427 . S
C506 H497 0.930 . S
C506 C504 1.378 . S
C506 C507 1.367 . S
C507 C506 1.367 . S
C507 C509 1.433 . S
C508 C504 1.350 . S
C508 C505 1.463 . S
C508 N512 1.427 . S
C509 H499 0.929 . S
C509 C507 1.433 . S
C509 N512 1.384 . S
C510 H501 0.929 . S
C510 C502 1.378 . S
C510 C505 1.350 . S
C511 H498 0.929 . S
C511 C503 1.433 . S
C511 N513 1.384 . S
N512 C508 1.427 . S
N512 C509 1.384 . S
N513 C505 1.427 . S
N513 C511 1.384 . S
H514 C520 0.930 . S
H515 C524 0.930 . S
H516 C529 0.929 . S
H517 C527 0.929 . S
H518 C522 0.929 . S
H519 C528 0.929 . S
C520 H514 0.930 . S
C520 C521 1.367 . S
C520 C528 1.378 . S
C521 C520 1.367 . S
C521 C529 1.433 . S
C522 H518 0.929 . S
C522 C524 1.378 . S
C522 C526 1.350 . S
C523 C526 1.463 . S
C523 C528 1.350 . S
C523 N531 1.427 . S
C524 H515 0.930 . S
C524 C522 1.378 . S
C524 C525 1.367 . S
C525 C524 1.367 . S
C525 C527 1.433 . S
C526 C522 1.350 . S
C526 C523 1.463 . S
C526 N530 1.427 . S
C527 H517 0.929 . S
C527 C525 1.433 . S
C527 N530 1.384 . S
C528 H519 0.929 . S
C528 C520 1.378 . S
C528 C523 1.350 . S
C529 H516 0.929 . S
C529 C521 1.433 . S
C529 N531 1.384 . S
N530 C526 1.427 . S
N530 C527 1.384 . S
N531 C523 1.427 . S
N531 C529 1.384 . S
H532 C538 0.930 . S
H533 C542 0.930 . S
H534 C547 0.929 . S
H535 C545 0.929 . S
H536 C540 0.929 . S
H537 C546 0.929 . S
C538 H532 0.930 . S
C538 C539 1.367 . S
C538 C546 1.378 . S
C539 C538 1.367 . S
C539 C547 1.433 . S
C540 H536 0.929 . S
C540 C542 1.378 . S
C540 C544 1.350 . S
C541 C544 1.463 . S
C541 C546 1.350 . S
C541 N549 1.427 . S
C542 H533 0.930 . S
C542 C540 1.378 . S
C542 C543 1.367 . S
C543 C542 1.367 . S
C543 C545 1.433 . S
C544 C540 1.350 . S
C544 C541 1.463 . S
C544 N548 1.427 . S
C545 H535 0.929 . S
C545 C543 1.433 . S
C545 N548 1.384 . S
C546 H537 0.929 . S
C546 C538 1.378 . S
C546 C541 1.350 . S
C547 H534 0.929 . S
C547 C539 1.433 . S
C547 N549 1.384 . S
N548 C544 1.427 . S
N548 C545 1.384 . S
N549 C541 1.427 . S
N549 C547 1.384 . S
H550 C556 0.930 . S
H551 C560 0.930 . S
H552 C565 0.929 . S
H553 C563 0.929 . S
H554 C558 0.929 . S
H555 C564 0.929 . S
C556 H550 0.930 . S
C556 C557 1.367 . S
C556 C564 1.378 . S
C557 C556 1.367 . S
C557 C565 1.433 . S
C558 H554 0.929 . S
C558 C560 1.378 . S
C558 C562 1.350 . S
C559 C562 1.463 . S
C559 C564 1.350 . S
C559 N567 1.427 . S
C560 H551 0.930 . S
C560 C558 1.378 . S
C560 C561 1.367 . S
C561 C560 1.367 . S
C561 C563 1.433 . S
C562 C558 1.350 . S
C562 C559 1.463 . S
C562 N566 1.427 . S
C563 H553 0.929 . S
C563 C561 1.433 . S
C563 N566 1.384 . S
C564 H555 0.929 . S
C564 C556 1.378 . S
C564 C559 1.350 . S
C565 H552 0.929 . S
C565 C557 1.433 . S
C565 N567 1.384 . S
N566 C562 1.427 . S
N566 C563 1.384 . S
N567 C559 1.427 . S
N567 C565 1.384 . S
H568 C574 0.930 . S
H569 C578 0.930 . S
H570 C583 0.929 . S
H571 C581 0.929 . S
H572 C576 0.929 . S
H573 C582 0.929 . S
C574 H568 0.930 . S
C574 C575 1.367 . S
C574 C582 1.378 . S
C575 C574 1.367 . S
C575 C583 1.433 . S
C576 H572 0.929 . S
C576 C578 1.378 . S
C576 C580 1.350 . S
C577 C580 1.463 . S
C577 C582 1.350 . S
C577 N585 1.427 . S
C578 H569 0.930 . S
C578 C576 1.378 . S
C578 C579 1.367 . S
C579 C578 1.367 . S
C579 C581 1.433 . S
C580 C576 1.350 . S
C580 C577 1.463 . S
C580 N584 1.427 . S
C581 H571 0.929 . S
C581 C579 1.433 . S
C581 N584 1.384 . S
C582 H573 0.929 . S
C582 C574 1.378 . S
C582 C577 1.350 . S
C583 H570 0.929 . S
C583 C575 1.433 . S
C583 N585 1.384 . S
N584 C580 1.427 . S
N584 C581 1.384 . S
N585 C577 1.427 . S
N585 C583 1.384 . S
H586 C592 0.930 . S
H587 C596 0.930 . S
H588 C601 0.929 . S
H589 C599 0.929 . S
H590 C594 0.929 . S
H591 C600 0.929 . S
C592 H586 0.930 . S
C592 C593 1.367 . S
C592 C600 1.378 . S
C593 C592 1.367 . S
C593 C601 1.433 . S
C594 H590 0.929 . S
C594 C596 1.378 . S
C594 C598 1.350 . S
C595 C598 1.463 . S
C595 C600 1.350 . S
C595 N603 1.427 . S
C596 H587 0.930 . S
C596 C594 1.378 . S
C596 C597 1.367 . S
C597 C596 1.367 . S
C597 C599 1.433 . S
C598 C594 1.350 . S
C598 C595 1.463 . S
C598 N602 1.427 . S
C599 H589 0.929 . S
C599 C597 1.433 . S
C599 N602 1.384 . S
C600 H591 0.929 . S
C600 C592 1.378 . S
C600 C595 1.350 . S
C601 H588 0.929 . S
C601 C593 1.433 . S
C601 N603 1.384 . S
N602 C598 1.427 . S
N602 C599 1.384 . S
N603 C595 1.427 . S
N603 C601 1.384 . S
H604 C610 0.930 . S
H605 C614 0.930 . S
H606 C619 0.929 . S
H607 C617 0.929 . S
H608 C612 0.929 . S
H609 C618 0.929 . S
C610 H604 0.930 . S
C610 C611 1.367 . S
C610 C618 1.378 . S
C611 C610 1.367 . S
C611 C619 1.433 . S
C612 H608 0.929 . S
C612 C614 1.378 . S
C612 C616 1.350 . S
C613 C616 1.463 . S
C613 C618 1.350 . S
C613 N621 1.427 . S
C614 H605 0.930 . S
C614 C612 1.378 . S
C614 C615 1.367 . S
C615 C614 1.367 . S
C615 C617 1.433 . S
C616 C612 1.350 . S
C616 C613 1.463 . S
C616 N620 1.427 . S
C617 H607 0.929 . S
C617 C615 1.433 . S
C617 N620 1.384 . S
C618 H609 0.929 . S
C618 C610 1.378 . S
C618 C613 1.350 . S
C619 H606 0.929 . S
C619 C611 1.433 . S
C619 N621 1.384 . S
N620 C616 1.427 . S
N620 C617 1.384 . S
N621 C613 1.427 . S
N621 C619 1.384 . S
H622 C628 0.930 . S
H623 C632 0.930 . S
H624 C637 0.929 . S
H625 C635 0.929 . S
H626 C630 0.929 . S
H627 C636 0.929 . S
C628 H622 0.930 . S
C628 C629 1.367 . S
C628 C636 1.378 . S
C629 C628 1.367 . S
C629 C637 1.433 . S
C630 H626 0.929 . S
C630 C632 1.378 . S
C630 C634 1.350 . S
C631 C634 1.463 . S
C631 C636 1.350 . S
C631 N639 1.427 . S
C632 H623 0.930 . S
C632 C630 1.378 . S
C632 C633 1.367 . S
C633 C632 1.367 . S
C633 C635 1.433 . S
C634 C630 1.350 . S
C634 C631 1.463 . S
C634 N638 1.427 . S
C635 H625 0.929 . S
C635 C633 1.433 . S
C635 N638 1.384 . S
C636 H627 0.929 . S
C636 C628 1.378 . S
C636 C631 1.350 . S
C637 H624 0.929 . S
C637 C629 1.433 . S
C637 N639 1.384 . S
N638 C634 1.427 . S
N638 C635 1.384 . S
N639 C631 1.427 . S
N639 C637 1.384 . S
H640 C646 0.930 . S
H641 C650 0.930 . S
H642 C655 0.929 . S
H643 C653 0.929 . S
H644 C648 0.929 . S
H645 C654 0.929 . S
C646 H640 0.930 . S
C646 C647 1.367 . S
C646 C654 1.378 . S
C647 C646 1.367 . S
C647 C655 1.433 . S
C648 H644 0.929 . S
C648 C650 1.378 . S
C648 C652 1.350 . S
C649 C652 1.463 1_554 S
C649 C654 1.350 . S
C649 N657 1.427 . S
C650 H641 0.930 . S
C650 C648 1.378 . S
C650 C651 1.367 . S
C651 C650 1.367 . S
C651 C653 1.433 . S
C652 C648 1.350 . S
C652 C649 1.463 1_556 S
C652 N656 1.427 . S
C653 H643 0.929 . S
C653 C651 1.433 . S
C653 N656 1.384 . S
C654 H645 0.929 . S
C654 C646 1.378 . S
C654 C649 1.350 . S
C655 H642 0.929 . S
C655 C647 1.433 . S
C655 N657 1.384 . S
N656 C652 1.427 . S
N656 C653 1.384 . S
N657 C649 1.427 . S
N657 C655 1.384 . S
H658 C664 0.930 . S
H659 C668 0.930 . S
H660 C673 0.929 . S
H661 C671 0.929 . S
H662 C666 0.929 . S
H663 C672 0.929 . S
C664 H658 0.930 . S
C664 C665 1.367 . S
C664 C672 1.378 . S
C665 C664 1.367 . S
C665 C673 1.433 . S
C666 H662 0.929 . S
C666 C668 1.378 . S
C666 C670 1.350 . S
C667 C670 1.463 . S
C667 C672 1.350 . S
C667 N675 1.427 . S
C668 H659 0.930 . S
C668 C666 1.378 . S
C668 C669 1.367 . S
C669 C668 1.367 . S
C669 C671 1.433 . S
C670 C666 1.350 . S
C670 C667 1.463 . S
C670 N674 1.427 . S
C671 H661 0.929 . S
C671 C669 1.433 . S
C671 N674 1.384 . S
C672 H663 0.929 . S
C672 C664 1.378 . S
C672 C667 1.350 . S
C673 H660 0.929 . S
C673 C665 1.433 . S
C673 N675 1.384 . S
N674 C670 1.427 . S
N674 C671 1.384 . S
N675 C667 1.427 . S
N675 C673 1.384 . S
H676 C682 0.930 1_455 S
H677 C686 0.930 . S
H678 C691 0.929 . S
H679 C689 0.929 1_455 S
H680 C684 0.929 . S
H681 C690 0.929 1_455 S
C682 H676 0.930 1_655 S
C682 C683 1.367 . S
C682 C690 1.378 . S
C683 C682 1.367 . S
C683 C691 1.433 . S
C684 H680 0.929 . S
C684 C686 1.378 . S
C684 C688 1.350 . S
C685 C688 1.463 1_554 S
C685 C690 1.350 . S
C685 N693 1.427 . S
C686 H677 0.930 . S
C686 C684 1.378 . S
C686 C687 1.367 . S
C687 C686 1.367 . S
C687 C689 1.433 . S
C688 C684 1.350 . S
C688 C685 1.463 1_556 S
C688 N692 1.427 . S
C689 H679 0.929 1_655 S
C689 C687 1.433 . S
C689 N692 1.384 . S
C690 H681 0.929 1_655 S
C690 C682 1.378 . S
C690 C685 1.350 . S
C691 H678 0.929 . S
C691 C683 1.433 . S
C691 N693 1.384 . S
N692 C688 1.427 . S
N692 C689 1.384 . S
N693 C685 1.427 . S
N693 C691 1.384 . S
H694 C700 0.930 . S
H695 C704 0.947 . S
H696 C709 0.929 . S
H697 C707 0.929 . S
H698 C702 0.946 . S
H699 C708 0.929 . S
C700 H694 0.930 . S
C700 C701 1.367 . S
C700 C708 1.378 . S
C701 C700 1.367 . S
C701 C709 1.433 1_565 S
C702 H698 0.946 . S
C702 C704 1.378 . S
C702 C706 1.333 1_545 S
C703 C706 1.463 . S
C703 C708 1.350 . S
C703 N711 1.407 1_565 S
C704 H695 0.947 . S
C704 C702 1.378 . S
C704 C705 1.350 1_545 S
C705 C704 1.350 1_565 S
C705 C707 1.433 . S
C706 C702 1.333 1_565 S
C706 C703 1.463 . S
C706 N710 1.427 . S
C707 H697 0.929 . S
C707 C705 1.433 . S
C707 N710 1.384 . S
C708 H699 0.929 . S
C708 C700 1.378 . S
C708 C703 1.350 . S
C709 H696 0.929 . S
C709 C701 1.433 1_545 S
C709 N711 1.384 . S
N710 C706 1.427 . S
N710 C707 1.384 . S
N711 C703 1.407 1_545 S
N711 C709 1.384 . S
H712 C718 0.930 . S
H713 C722 0.930 . S
H714 C727 0.929 . S
H715 C725 0.929 . S
H716 C720 0.929 . S
H717 C726 0.929 . S
C718 H712 0.930 . S
C718 C719 1.367 . S
C718 C726 1.378 . S
C719 C718 1.367 . S
C719 C727 1.433 . S
C720 H716 0.929 . S
C720 C722 1.378 . S
C720 C724 1.350 . S
C721 C724 1.463 1_556 S
C721 C726 1.350 . S
C721 N729 1.427 . S
C722 H713 0.930 . S
C722 C720 1.378 . S
C722 C723 1.367 . S
C723 C722 1.367 . S
C723 C725 1.433 . S
C724 C720 1.350 . S
C724 C721 1.463 1_554 S
C724 N728 1.427 . S
C725 H715 0.929 . S
C725 C723 1.433 . S
C725 N728 1.384 . S
C726 H717 0.929 . S
C726 C718 1.378 . S
C726 C721 1.350 . S
C727 H714 0.929 . S
C727 C719 1.433 . S
C727 N729 1.384 . S
N728 C724 1.427 . S
N728 C725 1.384 . S
N729 C721 1.427 . S
N729 C727 1.384 . S
H730 C736 0.930 . S
H731 C740 0.930 . S
H732 C745 0.929 . S
H733 C743 0.929 . S
H734 C738 0.929 . S
H735 C744 0.929 . S
C736 H730 0.930 . S
C736 C737 1.367 . S
C736 C744 1.378 . S
C737 C736 1.367 . S
C737 C745 1.433 . S
C738 H734 0.929 . S
C738 C740 1.378 . S
C738 C742 1.350 . S
C739 C742 1.463 . S
C739 C744 1.350 . S
C739 N747 1.427 . S
C740 H731 0.930 . S
C740 C738 1.378 . S
C740 C741 1.367 . S
C741 C740 1.367 . S
C741 C743 1.433 . S
C742 C738 1.350 . S
C742 C739 1.463 . S
C742 N746 1.427 . S
C743 H733 0.929 . S
C743 C741 1.433 . S
C743 N746 1.384 . S
C744 H735 0.929 . S
C744 C736 1.378 . S
C744 C739 1.350 . S
C745 H732 0.929 . S
C745 C737 1.433 . S
C745 N747 1.384 . S
N746 C742 1.427 . S
N746 C743 1.384 . S
N747 C739 1.427 . S
N747 C745 1.384 . S
H748 C754 0.930 . S
H749 C758 0.930 . S
H750 C763 0.929 . S
H751 C761 0.929 . S
H752 C756 0.929 . S
H753 C762 0.929 . S
C754 H748 0.930 . S
C754 C755 1.367 1_655 S
C754 C762 1.378 . S
C755 C754 1.367 1_455 S
C755 C763 1.433 . S
C756 H752 0.929 . S
C756 C758 1.378 . S
C756 C760 1.350 . S
C757 C760 1.463 1_554 S
C757 C762 1.350 1_455 S
C757 N765 1.427 . S
C758 H749 0.930 . S
C758 C756 1.378 . S
C758 C759 1.367 . S
C759 C758 1.367 . S
C759 C761 1.433 1_455 S
C760 C756 1.350 . S
C760 C757 1.463 1_556 S
C760 N764 1.427 1_455 S
C761 H751 0.929 . S
C761 C759 1.433 1_655 S
C761 N764 1.384 . S
C762 H753 0.929 . S
C762 C754 1.378 . S
C762 C757 1.350 1_655 S
C763 H750 0.929 . S
C763 C755 1.433 . S
C763 N765 1.384 . S
N764 C760 1.427 1_655 S
N764 C761 1.384 . S
N765 C757 1.427 . S
N765 C763 1.384 . S
H766 C772 0.930 . S
H767 C776 0.930 . S
H768 C781 0.929 . S
H769 C779 0.929 . S
H770 C774 0.929 . S
H771 C780 0.929 . S
C772 H766 0.930 . S
C772 C773 1.367 . S
C772 C780 1.378 . S
C773 C772 1.367 . S
C773 C781 1.433 1_545 S
C774 H770 0.929 . S
C774 C776 1.378 . S
C774 C778 1.350 1_565 S
C775 C778 1.463 . S
C775 C780 1.350 . S
C775 N783 1.427 1_545 S
C776 H767 0.930 . S
C776 C774 1.378 . S
C776 C777 1.367 1_565 S
C777 C776 1.367 1_545 S
C777 C779 1.433 . S
C778 C774 1.350 1_545 S
C778 C775 1.463 . S
C778 N782 1.427 . S
C779 H769 0.929 . S
C779 C777 1.433 . S
C779 N782 1.384 . S
C780 H771 0.929 . S
C780 C772 1.378 . S
C780 C775 1.350 . S
C781 H768 0.929 . S
C781 C773 1.433 1_565 S
C781 N783 1.384 . S
N782 C778 1.427 . S
N782 C779 1.384 . S
N783 C775 1.427 1_565 S
N783 C781 1.384 . S
C215 C0 1.169 . S
C219 C91 1.166 . S
C233 C13 1.157 . S
C237 C52 1.154 . S
C251 C26 1.153 . S
C255 C65 1.156 . S
C269 C39 1.153 . S
C273 C78 1.153 . S
C287 C104 1.170 . S
C291 C195 1.168 . S
C305 C156 1.153 . S
C309 C117 1.153 . S
C323 C130 1.170 . S
C327 C169 1.169 . S
C341 C143 1.162 . S
C345 C182 1.166 . S
C359 C5 1.261 . S
C363 C125 1.302 . S
C377 C18 1.243 . S
C381 C138 1.313 . S
C395 C151 1.311 . S
C399 C31 1.246 . S
C413 C44 1.246 . S
C417 C112 1.310 . S
C431 C57 1.248 . S
C435 C203 1.308 . S
C449 C164 1.303 . S
C453 C70 1.262 . S
C467 C177 1.313 . S
C471 C83 1.243 . S
C485 C190 1.313 . S
C489 C96 1.243 . S
C503 C21 1.308 . S
C507 C109 1.250 . S
C521 C34 1.304 . S
C525 C122 1.260 . S
C539 C135 1.265 . S
C543 C47 1.301 . S
C557 C8 1.313 . S
C561 C148 1.245 . S
C575 C161 1.264 . S
C579 C99 1.302 . S
C593 C174 1.254 . S
C597 C60 1.305 . S
C611 C73 1.305 . S
C615 C187 1.260 . S
C629 C86 1.304 . S
C633 C200 1.257 . S
C647 C10 1.511 . S
C651 C62 1.515 . S
C665 C75 1.516 . S
C669 C23 1.509 . S
C683 C36 1.514 . S
C687 C88 1.510 . S
C701 C101 1.509 . S
C705 C49 1.515 . S
C719 C114 1.516 . S
C723 C166 1.509 . S
C737 C179 1.510 . S
C741 C127 1.516 . S
C755 C192 1.515 . S
C759 C140 1.509 . S
C773 C205 1.509 . S
C777 C153 1.517 . S
