# Generated by pormake.
# Topology zff, (5)-cn, num edge types: 1
# Building blocks:
#     Node 0, Type 0, BuildingBlock: XOMCOT_clean_sbu_1, # of connection points: 5
#     Node 1, Type 0, BuildingBlock: XOMCOT_clean_sbu_1, # of connection points: 5
#     Node 2, Type 0, BuildingBlock: XOMCOT_clean_sbu_1, # of connection points: 5
#     Node 3, Type 0, BuildingBlock: XOMCOT_clean_sbu_1, # of connection points: 5
#     Node 4, Type 0, BuildingBlock: XOMCOT_clean_sbu_1, # of connection points: 5
#     Node 5, Type 0, BuildingBlock: XOMCOT_clean_sbu_1, # of connection points: 5
#     Node 6, Type 0, BuildingBlock: XOMCOT_clean_sbu_1, # of connection points: 5
#     Node 7, Type 0, BuildingBlock: XOMCOT_clean_sbu_1, # of connection points: 5
#     Node 8, Type 0, BuildingBlock: XOMCOT_clean_sbu_1, # of connection points: 5
#     Node 9, Type 0, BuildingBlock: XOMCOT_clean_sbu_1, # of connection points: 5
#     Node 10, Type 0, BuildingBlock: XOMCOT_clean_sbu_1, # of connection points: 5
#     Node 11, Type 0, BuildingBlock: XOMCOT_clean_sbu_1, # of connection points: 5
#     Node 12, Type 0, BuildingBlock: XOMCOT_clean_sbu_1, # of connection points: 5
#     Node 13, Type 0, BuildingBlock: XOMCOT_clean_sbu_1, # of connection points: 5
#     Node 14, Type 0, BuildingBlock: XOMCOT_clean_sbu_1, # of connection points: 5
#     Node 15, Type 0, BuildingBlock: XOMCOT_clean_sbu_1, # of connection points: 5
#     Edge 16, Type (0, 0), BuildingBlock: UVAHIK_clean_linker_0, # of connection points: 2
#     Edge 17, Type (0, 0), BuildingBlock: UVAHIK_clean_linker_0, # of connection points: 2
#     Edge 18, Type (0, 0), BuildingBlock: UVAHIK_clean_linker_0, # of connection points: 2
#     Edge 19, Type (0, 0), BuildingBlock: UVAHIK_clean_linker_0, # of connection points: 2
#     Edge 20, Type (0, 0), BuildingBlock: UVAHIK_clean_linker_0, # of connection points: 2
#     Edge 21, Type (0, 0), BuildingBlock: UVAHIK_clean_linker_0, # of connection points: 2
#     Edge 22, Type (0, 0), BuildingBlock: UVAHIK_clean_linker_0, # of connection points: 2
#     Edge 23, Type (0, 0), BuildingBlock: UVAHIK_clean_linker_0, # of connection points: 2
#     Edge 24, Type (0, 0), BuildingBlock: UVAHIK_clean_linker_0, # of connection points: 2
#     Edge 25, Type (0, 0), BuildingBlock: UVAHIK_clean_linker_0, # of connection points: 2
#     Edge 26, Type (0, 0), BuildingBlock: UVAHIK_clean_linker_0, # of connection points: 2
#     Edge 27, Type (0, 0), BuildingBlock: UVAHIK_clean_linker_0, # of connection points: 2
#     Edge 28, Type (0, 0), BuildingBlock: UVAHIK_clean_linker_0, # of connection points: 2
#     Edge 29, Type (0, 0), BuildingBlock: UVAHIK_clean_linker_0, # of connection points: 2
#     Edge 30, Type (0, 0), BuildingBlock: UVAHIK_clean_linker_0, # of connection points: 2
#     Edge 31, Type (0, 0), BuildingBlock: UVAHIK_clean_linker_0, # of connection points: 2
#     Edge 32, Type (0, 0), BuildingBlock: UVAHIK_clean_linker_0, # of connection points: 2
#     Edge 33, Type (0, 0), BuildingBlock: UVAHIK_clean_linker_0, # of connection points: 2
#     Edge 34, Type (0, 0), BuildingBlock: UVAHIK_clean_linker_0, # of connection points: 2
#     Edge 35, Type (0, 0), BuildingBlock: UVAHIK_clean_linker_0, # of connection points: 2
#     Edge 36, Type (0, 0), BuildingBlock: UVAHIK_clean_linker_0, # of connection points: 2
#     Edge 37, Type (0, 0), BuildingBlock: UVAHIK_clean_linker_0, # of connection points: 2
#     Edge 38, Type (0, 0), BuildingBlock: UVAHIK_clean_linker_0, # of connection points: 2
#     Edge 39, Type (0, 0), BuildingBlock: UVAHIK_clean_linker_0, # of connection points: 2
#     Edge 40, Type (0, 0), BuildingBlock: UVAHIK_clean_linker_0, # of connection points: 2
#     Edge 41, Type (0, 0), BuildingBlock: UVAHIK_clean_linker_0, # of connection points: 2
#     Edge 42, Type (0, 0), BuildingBlock: UVAHIK_clean_linker_0, # of connection points: 2
#     Edge 43, Type (0, 0), BuildingBlock: UVAHIK_clean_linker_0, # of connection points: 2
#     Edge 44, Type (0, 0), BuildingBlock: UVAHIK_clean_linker_0, # of connection points: 2
#     Edge 45, Type (0, 0), BuildingBlock: UVAHIK_clean_linker_0, # of connection points: 2
#     Edge 46, Type (0, 0), BuildingBlock: UVAHIK_clean_linker_0, # of connection points: 2
#     Edge 47, Type (0, 0), BuildingBlock: UVAHIK_clean_linker_0, # of connection points: 2
#     Edge 48, Type (0, 0), BuildingBlock: UVAHIK_clean_linker_0, # of connection points: 2
#     Edge 49, Type (0, 0), BuildingBlock: UVAHIK_clean_linker_0, # of connection points: 2
#     Edge 50, Type (0, 0), BuildingBlock: UVAHIK_clean_linker_0, # of connection points: 2
#     Edge 51, Type (0, 0), BuildingBlock: UVAHIK_clean_linker_0, # of connection points: 2
#     Edge 52, Type (0, 0), BuildingBlock: UVAHIK_clean_linker_0, # of connection points: 2
#     Edge 53, Type (0, 0), BuildingBlock: UVAHIK_clean_linker_0, # of connection points: 2
#     Edge 54, Type (0, 0), BuildingBlock: UVAHIK_clean_linker_0, # of connection points: 2
#     Edge 55, Type (0, 0), BuildingBlock: UVAHIK_clean_linker_0, # of connection points: 2
# Relax obj value: 0.163
# Max RMSD: 0.198
# Mean RMSD: 0.198
data_MOF--net-zff--node1-XOMCOT_clean_sbu_1--edge1-UVAHIK_clean_linker_0
_symmetry_space_group_name_H-M    P1
_symmetry_Int_Tables_number       1
_symmetry_cell_setting            triclinic
loop_
_symmetry_equiv_pos_as_xyz
'x, y, z'
_cell_length_a     47.213976
_cell_length_b     47.062823
_cell_length_c     82.349043
_cell_angle_alpha  90.163772
_cell_angle_beta   89.868925
_cell_angle_gamma 89.862764
loop_
_atom_site_label
_atom_site_type_symbol
_atom_site_fract_x
_atom_site_fract_y
_atom_site_fract_z
_atom_type_partial_charge
C0 C 0.97632 0.35597 0.41435 0.0
C1 C 0.97278 0.35642 0.43087 0.0
N2 N 0.98892 0.33576 0.43742 0.0
N3 N 0.99461 0.33518 0.41027 0.0
C4 C 0.00197 0.32303 0.42458 0.0
H5 H 0.96613 0.36993 0.40573 0.0
Co6 Co 0.00327 0.32993 0.38834 0.0
C7 C 0.03192 0.27501 0.38525 0.0
O8 O 0.01451 0.2687 0.37339 0.0
N9 N 0.01168 0.32619 0.36537 0.0
C10 C 0.00827 0.31758 0.33871 0.0
C11 C -0.00421 0.31388 0.35361 0.0
C12 C 0.034 0.33715 0.35696 0.0
N13 N 0.03226 0.33244 0.34074 0.0
O14 O 0.0341 0.35504 0.39127 0.0
H15 H 0.97633 0.3024 0.35545 0.0
H16 H 0.05131 0.34853 0.36251 0.0
O17 O 0.029 0.29841 0.39301 0.0
C18 C 0.02994 0.38073 0.38729 0.0
O19 O 0.00872 0.38662 0.37756 0.0
N20 N 0.97107 0.30668 0.38687 0.0
C21 C 0.91806 0.28104 0.38984 0.0
C22 C 0.94207 0.26891 0.39704 0.0
C23 C 0.96817 0.28239 0.39576 0.0
C24 C 0.9478 0.31927 0.38018 0.0
C25 C 0.92116 0.30647 0.38119 0.0
H26 H 0.98557 0.27398 0.40272 0.0
H27 H 0.94991 0.3397 0.37431 0.0
H28 H 0.01667 0.30545 0.42558 0.0
H29 H 0.95888 0.37064 0.4375 0.0
H30 H -0.0002 0.31054 0.32719 0.0
H31 H 0.94061 0.24949 0.40401 0.0
H32 H 0.90302 0.31696 0.37583 0.0
C33 C 0.70511 0.97228 0.40944 0.0
C34 C 0.70034 0.96422 0.42524 0.0
N35 N 0.68805 0.98606 0.43321 0.0
N36 N 0.69651 -0.00061 0.40737 0.0
C37 C 0.68531 0.00683 0.42195 0.0
H38 H 0.71454 0.95915 0.40009 0.0
Co39 Co 0.69838 0.01954 0.38752 0.0
C40 C 0.71943 0.06653 0.41076 0.0
O41 O 0.72391 0.05173 0.42401 0.0
N42 N 0.69986 0.03961 0.3675 0.0
C43 C 0.71622 0.06763 0.34789 0.0
C44 C 0.72214 0.05533 0.3626 0.0
C45 C 0.68056 0.04277 0.35542 0.0
N46 N 0.68994 0.05989 0.34331 0.0
O47 O 0.66 0.02945 0.39034 0.0
H48 H 0.74155 0.05792 0.36939 0.0
H49 H 0.65976 0.03328 0.35561 0.0
O50 O 0.71048 0.05443 0.39788 0.0
C51 C 0.64668 0.00853 0.38426 0.0
O52 O 0.66112 0.98879 0.37648 0.0
N53 N 0.73547 0.00677 0.38438 0.0
C54 C 0.7781 0.96625 0.38428 0.0
C55 C 0.77876 0.98868 0.3955 0.0
C56 C 0.75701 0.00894 0.39537 0.0
C57 C 0.73663 0.98722 0.37219 0.0
C58 C 0.75788 0.96672 0.37188 0.0
H59 H 0.75593 0.02402 0.40517 0.0
H60 H 0.71916 0.98542 0.36377 0.0
H61 H 0.67531 0.02716 0.42427 0.0
H62 H 0.70625 0.94404 0.43052 0.0
H63 H 0.73042 0.08115 0.34109 0.0
H64 H 0.79408 0.98887 0.40527 0.0
H65 H 0.75693 0.94982 0.36294 0.0
C66 C 0.0176 0.65584 0.41425 0.0
C67 C 0.02036 0.65759 0.43076 0.0
N68 N -0.00151 0.67282 0.43672 0.0
N69 N 0.99426 0.67008 0.40957 0.0
C70 C 0.98268 0.68003 0.42359 0.0
H71 H 0.03164 0.64458 0.40607 0.0
Co72 Co 0.98597 0.67035 0.38744 0.0
C73 C 0.94914 0.71842 0.38015 0.0
O74 O 0.96416 0.72205 0.36688 0.0
N75 N 0.97842 0.66857 0.36445 0.0
C76 C 0.98326 0.66918 0.33748 0.0
C77 C -0.00373 0.6745 0.35202 0.0
C78 C 0.95453 0.65936 0.35683 0.0
N79 N 0.95698 0.65956 0.34041 0.0
O80 O 0.95904 0.64146 0.39142 0.0
H81 H 0.0176 0.68219 0.35307 0.0
H82 H 0.93567 0.65259 0.36321 0.0
O83 O 0.95598 0.69897 0.39027 0.0
C84 C 0.96576 0.61629 0.38741 0.0
O85 O 0.98676 0.61244 0.37714 0.0
N86 N 0.01447 0.6981 0.38493 0.0
C87 C 0.06263 0.732 0.38833 0.0
C88 C 0.03595 0.74206 0.39311 0.0
C89 C 0.01233 0.72462 0.39168 0.0
C90 C 0.04043 0.68778 0.38053 0.0
C91 C 0.06472 0.7046 0.38174 0.0
H92 H 0.99295 0.732 0.39718 0.0
H93 H 0.04244 0.66589 0.37661 0.0
H94 H 0.96329 0.69231 0.42418 0.0
H95 H 0.03692 0.6478 0.43791 0.0
H96 H 0.99286 0.67145 0.3256 0.0
H97 H 0.03346 0.76295 0.3985 0.0
H98 H 0.08508 0.69573 0.37835 0.0
C99 C 0.34064 0.01211 0.41564 0.0
C100 C 0.33976 0.01631 0.4321 0.0
N101 N 0.31717 0.00246 0.43812 0.0
N102 N 0.31873 0.9957 0.41107 0.0
C103 C 0.30474 0.98985 0.42511 0.0
H104 H 0.35591 0.02116 0.40733 0.0
Co105 Co 0.3132 0.99006 0.38883 0.0
C106 C 0.26416 0.9533 0.38424 0.0
O107 O 0.25637 0.96992 0.37225 0.0
N108 N 0.30933 0.98512 0.36559 0.0
C109 C 0.30456 0.99402 0.33913 0.0
C110 C 0.30047 0.00439 0.35455 0.0
C111 C 0.3184 0.9629 0.35626 0.0
N112 N 0.31612 0.9679 0.34008 0.0
O113 O 0.34277 0.963 0.38915 0.0
H114 H 0.29212 0.02519 0.35717 0.0
H115 H 0.32725 0.94363 0.36128 0.0
O116 O 0.28612 0.95942 0.39262 0.0
C117 C 0.36589 0.97095 0.38276 0.0
O118 O 0.36683 0.9953 0.37502 0.0
N119 N 0.28555 0.01873 0.38957 0.0
C120 C 0.25204 0.06726 0.39334 0.0
C121 C 0.24207 0.04055 0.39824 0.0
C122 C 0.25943 0.01668 0.39665 0.0
C123 C 0.29624 0.04475 0.38575 0.0
C124 C 0.27971 0.06922 0.38723 0.0
H125 H 0.25202 -0.00303 0.40171 0.0
H126 H 0.31786 0.04641 0.38146 0.0
H127 H 0.28528 0.97779 0.4257 0.0
H128 H 0.35449 0.02891 0.43914 0.0
H129 H 0.30046 0.00568 0.32808 0.0
H130 H 0.22107 0.03804 0.40334 0.0
H131 H 0.28871 0.08952 0.38387 0.0
C132 C 0.96259 0.69961 0.63534 0.0
C133 C 0.95447 0.69708 0.61937 0.0
N134 N 0.97626 0.68608 0.61081 0.0
N135 N 0.98968 0.69089 0.63696 0.0
C136 C -0.00297 0.68178 0.62188 0.0
H137 H 0.94953 0.70767 0.64513 0.0
Co138 Co 0.01021 0.69008 0.65675 0.0
C139 C 0.05463 0.71786 0.63439 0.0
O140 O 0.03885 0.72285 0.6216 0.0
N141 N 0.03047 0.68881 0.67659 0.0
C142 C 0.05776 0.7031 0.69701 0.0
C143 C 0.04635 0.71044 0.6823 0.0
C144 C 0.03272 0.66838 0.68815 0.0
N145 N 0.0492 0.67664 0.70078 0.0
O146 O 0.02231 0.65296 0.65155 0.0
H147 H 0.04938 0.73049 0.67615 0.0
H148 H 0.02217 0.64804 0.68747 0.0
O149 O 0.04406 0.70617 0.64698 0.0
C150 C 0.00187 0.63687 0.65557 0.0
O151 O 0.9803 0.64819 0.66342 0.0
N152 N -0.00426 0.72588 0.66231 0.0
C153 C 0.95597 0.76883 0.66688 0.0
C154 C 0.97663 0.77109 0.65466 0.0
C155 C -0.00348 0.74933 0.65261 0.0
C156 C 0.97783 0.72482 0.67528 0.0
C157 C 0.95806 0.74632 0.67795 0.0
H158 H 0.01018 0.75006 0.64217 0.0
H159 H 0.97712 0.70595 0.68274 0.0
H160 H 0.01739 0.67235 0.61907 0.0
H161 H 0.93431 0.70369 0.61441 0.0
H162 H 0.07166 0.71621 0.70429 0.0
H163 H 0.97581 0.78799 0.64578 0.0
H164 H 0.94305 0.74408 0.68783 0.0
C165 C 0.33532 0.97282 0.63231 0.0
C166 C 0.33126 0.96964 0.61595 0.0
N167 N 0.31415 0.99065 0.6108 0.0
N168 N 0.32069 0.99557 0.63771 0.0
C169 C 0.30815 0.00639 0.62424 0.0
H170 H 0.34828 0.95936 0.63992 0.0
Co171 Co 0.32249 0.00382 0.65992 0.0
C172 C 0.27446 0.03955 0.66911 0.0
O173 O 0.27212 0.02417 0.68231 0.0
N174 N 0.32629 0.01133 0.68292 0.0
C175 C 0.32621 0.00681 0.70993 0.0
C176 C 0.31993 0.99385 0.69546 0.0
C177 C 0.33683 0.03491 0.6904 0.0
N178 N 0.33696 0.0326 0.70681 0.0
O179 O 0.34994 0.03177 0.65503 0.0
H180 H 0.31083 0.97299 0.69454 0.0
H181 H 0.34414 0.05354 0.68399 0.0
O182 O 0.29291 0.03306 0.65829 0.0
C183 C 0.37556 0.02564 0.65804 0.0
O184 O 0.38103 0.00418 0.66772 0.0
N185 N 0.29627 0.97436 0.66332 0.0
C186 C 0.26481 0.92437 0.66081 0.0
C187 C 0.25279 0.95066 0.65679 0.0
C188 C 0.26901 0.97528 0.65778 0.0
C189 C 0.30835 0.94888 0.66717 0.0
C190 C 0.29284 0.92368 0.66635 0.0
H191 H 0.26006 0.99448 0.65287 0.0
H192 H 0.33059 0.94804 0.6703 0.0
H193 H 0.29474 0.02507 0.62429 0.0
H194 H 0.34063 0.95335 0.60833 0.0
H195 H 0.32358 -0.00233 0.72189 0.0
H196 H 0.23134 0.95206 0.65221 0.0
H197 H 0.30317 0.90372 0.66914 0.0
C198 C 0.01597 0.28215 0.6343 0.0
C199 C 0.02115 0.2815 0.61794 0.0
N200 N -0.00274 0.28881 0.61006 0.0
N201 N 0.98867 0.28923 0.63707 0.0
C202 C 0.97778 0.2933 0.62198 0.0
H203 H 0.0316 0.27851 0.64363 0.0
Co204 Co 0.9743 0.29606 0.65837 0.0
C205 C 0.91682 0.2782 0.64658 0.0
O206 O 0.91143 0.30118 0.63812 0.0
N207 N 0.96033 0.30296 0.67967 0.0
C208 C 0.94392 0.29438 0.70456 0.0
C209 C 0.95157 0.28245 0.68997 0.0
C210 C 0.95724 0.32743 0.68832 0.0
N211 N 0.94741 0.32266 0.70356 0.0
O212 O 0.95841 0.33074 0.65113 0.0
H213 H 0.95109 0.26002 0.68715 0.0
H214 H 0.96255 0.34824 0.68368 0.0
O215 O 0.94026 0.27543 0.654 0.0
C216 C 0.97896 0.34777 0.64905 0.0
O217 O 0.00456 0.33965 0.65326 0.0
N218 N 0.99206 0.26281 0.66538 0.0
C219 C 0.03148 0.21956 0.66947 0.0
C220 C 0.00675 0.21483 0.66046 0.0
C221 C 0.98721 0.23682 0.65852 0.0
C222 C 0.01469 0.26706 0.6753 0.0
C223 C 0.03468 0.24561 0.67758 0.0
H224 H 0.96968 0.23365 0.65031 0.0
H225 H 0.01849 0.28797 0.68032 0.0
H226 H 0.9565 0.30085 0.6198 0.0
H227 H 0.04129 0.27641 0.61235 0.0
H228 H 0.9361 0.28314 0.71511 0.0
H229 H 0.00341 0.1949 0.65414 0.0
H230 H 0.0536 0.25027 0.6845 0.0
C231 C 0.65159 0.01207 0.63214 0.0
C232 C 0.6516 0.01878 0.61591 0.0
N233 N 0.66193 0.99642 0.60748 0.0
N234 N 0.66195 0.98564 0.63407 0.0
C235 C 0.66797 0.97649 0.61883 0.0
H236 H 0.64428 0.02551 0.64198 0.0
Co237 Co 0.6647 0.9683 0.65439 0.0
C238 C 0.69151 0.91392 0.64684 0.0
O239 O 0.66901 0.90079 0.65245 0.0
N240 N 0.66701 0.95107 0.67516 0.0
C241 C 0.68485 0.9313 0.69745 0.0
C242 C 0.69113 0.94274 0.68252 0.0
C243 C 0.64633 0.94461 0.68601 0.0
N244 N 0.65658 0.93247 0.69973 0.0
O245 O 0.63418 0.9446 0.64827 0.0
H246 H 0.71209 0.94474 0.67732 0.0
H247 H 0.62417 0.94899 0.684 0.0
O248 O 0.6918 0.94096 0.64622 0.0
C249 C 0.61009 0.95557 0.65102 0.0
O250 O 0.60869 0.97885 0.65983 0.0
N251 N 0.6939 0.99344 0.65977 0.0
C252 C 0.7291 0.04041 0.66291 0.0
C253 C 0.73484 0.01949 0.65126 0.0
C254 C 0.717 0.99613 0.64988 0.0
C255 C 0.68873 0.01288 0.67174 0.0
C256 C 0.70637 0.03652 0.67366 0.0
H257 H 0.72054 0.98155 0.63994 0.0
H258 H 0.66989 0.01094 0.67915 0.0
H259 H 0.67661 0.9557 0.61612 0.0
H260 H 0.64398 0.03845 0.61072 0.0
H261 H 0.70009 0.92241 0.70581 0.0
H262 H 0.75221 0.0219 0.64276 0.0
H263 H 0.70125 0.05247 0.68271 0.0
C264 C 0.44977 0.79683 0.90958 0.0
C265 C 0.44808 0.79917 0.92613 0.0
N266 N 0.4744 0.79731 0.93227 0.0
N267 N 0.47702 0.7936 0.90506 0.0
C268 C 0.49174 0.79374 0.91923 0.0
H269 H 0.43216 0.79786 0.90123 0.0
Co270 Co 0.48534 0.79235 0.8828 0.0
C271 C 0.542 0.76865 0.87809 0.0
O272 O 0.532 0.75527 0.86533 0.0
N273 N 0.49232 0.79251 0.85975 0.0
C274 C 0.4913 0.78431 0.83304 0.0
C275 C 0.48033 0.77672 0.84785 0.0
C276 C 0.51029 0.80999 0.85154 0.0
N277 N 0.5102 0.80525 0.8353 0.0
O278 O 0.49301 0.83159 0.88335 0.0
H279 H 0.46463 0.76045 0.84946 0.0
H280 H 0.52365 0.82557 0.85742 0.0
O281 O 0.52551 0.78374 0.88701 0.0
C282 C 0.47121 0.8463 0.87995 0.0
O283 O 0.44765 0.83308 0.87612 0.0
N284 N 0.47517 0.75386 0.8829 0.0
C285 C 0.44952 0.70115 0.88727 0.0
C286 C 0.47699 0.70605 0.89302 0.0
C287 C 0.48936 0.73275 0.89089 0.0
C288 C 0.44799 0.74969 0.87794 0.0
C289 C 0.43504 0.72331 0.87957 0.0
H290 H 0.50952 0.73669 0.89657 0.0
H291 H 0.43603 0.7673 0.87302 0.0
H292 H 0.51457 0.79219 0.91996 0.0
H293 H 0.4289 0.80214 0.93317 0.0
H294 H 0.48538 0.77533 0.82142 0.0
H295 H 0.48841 0.6897 0.89954 0.0
H296 H 0.41334 0.72072 0.87559 0.0
C297 C 0.13374 0.47795 0.91199 0.0
C298 C 0.13149 0.47133 0.9282 0.0
N299 N 0.15362 0.4829 0.93607 0.0
N300 N 0.15774 0.49277 0.9093 0.0
C301 C 0.16883 0.49619 0.92439 0.0
H302 H 0.11758 0.47414 0.90296 0.0
Co303 Co 0.16496 0.51301 0.8898 0.0
C304 C 0.22321 0.51192 0.90358 0.0
O305 O 0.22198 0.48431 0.90587 0.0
N306 N 0.17044 0.53423 0.87064 0.0
C307 C 0.18426 0.56751 0.85326 0.0
C308 C 0.18811 0.55642 0.86852 0.0
C309 C 0.15585 0.53247 0.8565 0.0
N310 N 0.16385 0.55259 0.84568 0.0
O311 O 0.14792 0.5449 0.90024 0.0
H312 H 0.20231 0.56473 0.87763 0.0
H313 H 0.1392 0.51714 0.85437 0.0
O314 O 0.20185 0.52526 0.89784 0.0
C315 C 0.1235 0.5538 0.89625 0.0
O316 O 0.11367 0.54713 0.88184 0.0
N317 N 0.18158 0.48061 0.87956 0.0
C318 C 0.21133 0.43131 0.87146 0.0
C319 C 0.22268 0.45813 0.86798 0.0
C320 C 0.20723 0.48256 0.87189 0.0
C321 C 0.16853 0.45483 0.88056 0.0
C322 C 0.18326 0.42982 0.87694 0.0
H323 H 0.2171 0.503 0.87007 0.0
H324 H 0.14706 0.45323 0.88482 0.0
H325 H 0.18647 0.50992 0.92705 0.0
H326 H 0.11378 0.46069 0.93389 0.0
H327 H 0.19482 0.58605 0.84841 0.0
H328 H 0.24412 0.46037 0.86346 0.0
H329 H 0.17318 0.40951 0.87904 0.0
C330 C 0.52868 0.19559 0.91099 0.0
C331 C 0.53207 0.19683 0.92747 0.0
N332 N 0.50705 0.20373 0.93429 0.0
N333 N 0.50163 0.20176 0.90714 0.0
C334 C 0.48871 0.20641 0.92168 0.0
H335 H 0.54515 0.19086 0.90224 0.0
Co336 Co 0.49146 0.20343 0.88507 0.0
C337 C 0.44546 0.24479 0.88275 0.0
O338 O 0.45994 0.25733 0.87123 0.0
N339 N 0.48197 0.20404 0.86215 0.0
C340 C 0.47958 0.21441 0.83568 0.0
C341 C 0.491 0.22198 0.85037 0.0
C342 C 0.46506 0.18552 0.85392 0.0
N343 N 0.46332 0.19137 0.83786 0.0
O344 O 0.47341 0.16782 0.88716 0.0
H345 H 0.50452 0.24016 0.85212 0.0
H346 H 0.45388 0.16809 0.85954 0.0
O347 O 0.45571 0.2232 0.89012 0.0
C348 C 0.49256 0.14926 0.88463 0.0
O349 O 0.51809 0.15795 0.88067 0.0
N350 N 0.51252 0.23697 0.88363 0.0
C351 C 0.55491 0.27794 0.88616 0.0
C352 C 0.52865 0.28185 0.89391 0.0
C353 C 0.50799 0.26074 0.89285 0.0
C354 C 0.53804 0.23266 0.87626 0.0
C355 C 0.55933 0.25299 0.87714 0.0
H356 H 0.48913 0.26286 0.9002 0.0
H357 H 0.54221 0.2127 0.87015 0.0
H358 H 0.46665 0.21232 0.92298 0.0
H359 H 0.55155 0.19276 0.93398 0.0
H360 H 0.48335 0.22488 0.82419 0.0
H361 H 0.52442 0.30055 0.90122 0.0
H362 H 0.57958 0.24843 0.8715 0.0
C363 C 0.83764 0.55025 0.91105 0.0
C364 C 0.83967 0.55599 0.92736 0.0
N365 N 0.83623 0.53157 0.93562 0.0
N366 N 0.83225 0.52238 0.90876 0.0
C367 C 0.83274 0.51143 0.924 0.0
H368 H 0.84074 0.56562 0.90153 0.0
Co369 Co 0.82889 0.50392 0.88828 0.0
C370 C 0.78394 0.4732 0.90804 0.0
O371 O 0.77781 0.49489 0.91752 0.0
N372 N 0.82645 0.48571 0.86771 0.0
C373 C 0.80813 0.46551 0.84559 0.0
C374 C 0.8023 0.47639 0.86074 0.0
C375 C 0.84683 0.47977 0.8565 0.0
N376 N 0.83615 0.46757 0.84291 0.0
O377 O 0.8592 0.47989 0.89455 0.0
H378 H 0.78156 0.47736 0.86626 0.0
H379 H 0.869 0.48469 0.85805 0.0
O380 O 0.80252 0.47579 0.89684 0.0
C381 C 0.88344 0.49033 0.89164 0.0
O382 O 0.88506 0.51353 0.88285 0.0
N383 N 0.79972 0.52946 0.88215 0.0
C384 C 0.76375 0.57623 0.88013 0.0
C385 C 0.75307 0.5494 0.88406 0.0
C386 C 0.77132 0.52614 0.88472 0.0
C387 C 0.80963 0.55445 0.87604 0.0
C388 C 0.79205 0.57838 0.87513 0.0
H389 H 0.76229 0.50591 0.88766 0.0
H390 H 0.83193 0.55649 0.87323 0.0
H391 H 0.83031 0.48904 0.92652 0.0
H392 H 0.84389 0.5766 0.93266 0.0
H393 H 0.79294 0.45641 0.83723 0.0
H394 H 0.73093 0.54662 0.88718 0.0
H395 H 0.80095 0.59865 0.87164 0.0
C396 C 0.48356 0.14098 0.1279 0.0
C397 C 0.47903 0.14405 0.11159 0.0
N398 N 0.49317 0.16717 0.10641 0.0
N399 N 0.50067 0.16183 0.13322 0.0
C400 C 0.50637 0.17758 0.11981 0.0
H401 H 0.47472 0.12461 0.13557 0.0
Co402 Co 0.508 0.16346 0.15545 0.0
C403 C 0.54641 0.21085 0.16226 0.0
O404 O 0.53183 0.21592 0.17556 0.0
N405 N 0.51439 0.16327 0.17853 0.0
C406 C 0.50728 0.16557 0.2053 0.0
C407 C 0.49549 0.16998 0.19032 0.0
C408 C 0.53764 0.1545 0.18694 0.0
N409 N 0.53382 0.15574 0.20326 0.0
O410 O 0.535 0.13388 0.15246 0.0
H411 H 0.47418 0.17742 0.18848 0.0
H412 H 0.557 0.14727 0.18119 0.0
O413 O 0.53833 0.19143 0.1524 0.0
C414 C 0.52818 0.10923 0.15733 0.0
O415 O 0.50691 0.10674 0.16754 0.0
N416 N 0.47944 0.19111 0.15717 0.0
C417 C 0.43025 0.2237 0.15443 0.0
C418 C 0.45687 0.23566 0.15132 0.0
C419 C 0.48118 0.21883 0.15237 0.0
C420 C 0.45364 0.17904 0.15988 0.0
C421 C 0.4288 0.195 0.15881 0.0
H422 H 0.50087 0.22788 0.14831 0.0
H423 H 0.4524 0.1566 0.16261 0.0
H424 H 0.5191 0.19667 0.11996 0.0
H425 H 0.46632 0.13015 0.10408 0.0
H426 H 0.49667 0.16855 0.21684 0.0
H427 H 0.45876 0.25745 0.14725 0.0
H428 H 0.40864 0.18485 0.16114 0.0
C429 C 0.83003 0.47963 0.1335 0.0
C430 C 0.83392 0.47644 0.1171 0.0
N431 N 0.82067 0.49796 0.10943 0.0
N432 N 0.81439 0.50304 0.13639 0.0
C433 C 0.80911 0.51403 0.12148 0.0
H434 H 0.83811 0.46572 0.14285 0.0
Co435 Co 0.80543 0.51299 0.15777 0.0
C436 C 0.75486 0.54928 0.15497 0.0
O437 O 0.74093 0.53215 0.16463 0.0
N438 N 0.79753 0.5228 0.18027 0.0
C439 C 0.78068 0.52319 0.20571 0.0
C440 C 0.77694 0.51288 0.19023 0.0
C441 C 0.81318 0.53967 0.19028 0.0
N442 N 0.80371 0.53992 0.20582 0.0
O443 O 0.83594 0.5387 0.1572 0.0
H444 H 0.76007 0.4987 0.18674 0.0
H445 H 0.83183 0.55107 0.1865 0.0
O446 O 0.78031 0.54367 0.15074 0.0
C447 C 0.85858 0.52728 0.16233 0.0
O448 O 0.8574 0.50209 0.16912 0.0
N449 N 0.77708 0.48507 0.15735 0.0
C450 C 0.74419 0.43623 0.15373 0.0
C451 C 0.73948 0.46009 0.14392 0.0
C452 C 0.75655 0.48405 0.14568 0.0
C453 C 0.78267 0.46169 0.16654 0.0
C454 C 0.76612 0.43726 0.16519 0.0
H455 H 0.75402 0.5013 0.13718 0.0
H456 H 0.80043 0.46189 0.17482 0.0
H457 H 0.79673 0.53308 0.1195 0.0
H458 H 0.84602 0.45967 0.1113 0.0
H459 H 0.76744 0.51848 0.2161 0.0
H460 H 0.72356 0.45981 0.13448 0.0
H461 H 0.77071 0.41927 0.17292 0.0
C462 C 0.50423 0.83702 0.13033 0.0
C463 C 0.51125 0.83631 0.11414 0.0
N464 N 0.49379 0.81806 0.10645 0.0
N465 N 0.48238 0.81933 0.13309 0.0
C466 C 0.4764 0.80809 0.11829 0.0
H467 H 0.51398 0.85026 0.13948 0.0
Co468 Co 0.46507 0.81578 0.15361 0.0
C469 C 0.41372 0.78391 0.14577 0.0
O470 O 0.39812 0.80425 0.15214 0.0
N471 N 0.44785 0.8126 0.17455 0.0
C472 C 0.43063 0.79389 0.1974 0.0
C473 C 0.44147 0.78808 0.18223 0.0
C474 C 0.44031 0.83309 0.18542 0.0
N475 N 0.42987 0.82225 0.19944 0.0
O476 O 0.43891 0.84428 0.14722 0.0
H477 H 0.44437 0.76709 0.17717 0.0
H478 H 0.44282 0.85558 0.18337 0.0
O479 O 0.44055 0.78654 0.1453 0.0
C480 C 0.44803 0.86903 0.15036 0.0
O481 O 0.47063 0.87153 0.15952 0.0
N482 N 0.49282 0.78912 0.15938 0.0
C483 C 0.54181 0.75592 0.16079 0.0
C484 C 0.51523 0.74342 0.15807 0.0
C485 C 0.49106 0.76041 0.15719 0.0
C486 C 0.51786 0.80126 0.16368 0.0
C487 C 0.54273 0.78514 0.16426 0.0
H488 H 0.47131 0.75031 0.15418 0.0
H489 H 0.5189 0.824 0.1655 0.0
H490 H 0.45945 0.79311 0.11622 0.0
H491 H 0.52743 0.84914 0.10845 0.0
H492 H 0.42352 0.77839 0.20619 0.0
H493 H 0.51317 0.7208 0.156 0.0
H494 H 0.56261 0.79589 0.16643 0.0
C495 C 0.19712 0.51755 0.13406 0.0
C496 C 0.19514 0.52355 0.11776 0.0
N497 N 0.19097 0.49903 0.10959 0.0
N498 N 0.19434 0.48936 0.13626 0.0
C499 C 0.1904 0.47862 0.12116 0.0
H500 H 0.20051 0.53274 0.14374 0.0
Co501 Co 0.19616 0.47141 0.15651 0.0
C502 C 0.19531 0.4112 0.14816 0.0
O503 O 0.17304 0.40768 0.15753 0.0
N504 N 0.19791 0.4532 0.17711 0.0
C505 C 0.21303 0.42575 0.19732 0.0
C506 C 0.21945 0.43664 0.18228 0.0
C507 C 0.17866 0.45205 0.18937 0.0
N508 N 0.18727 0.43538 0.20183 0.0
O509 O 0.15692 0.4643 0.15498 0.0
H510 H 0.23841 0.4321 0.17533 0.0
H511 H 0.15856 0.46303 0.18917 0.0
O512 O 0.20569 0.43592 0.14626 0.0
C513 C 0.14465 0.48632 0.16061 0.0
O514 O 0.16013 0.50617 0.16748 0.0
N515 N 0.23419 0.48137 0.15794 0.0
C516 C 0.28268 0.51436 0.1553 0.0
C517 C 0.27808 0.49163 0.14457 0.0
C518 C 0.25358 0.47526 0.14609 0.0
C519 C 0.23951 0.5017 0.1693 0.0
C520 C 0.26382 0.51834 0.1683 0.0
H521 H 0.24893 0.45973 0.1368 0.0
H522 H 0.22353 0.50679 0.17829 0.0
H523 H 0.18763 0.45622 0.11867 0.0
H524 H 0.19638 0.54448 0.11241 0.0
H525 H 0.22604 0.41106 0.20412 0.0
H526 H 0.2922 0.48787 0.1344 0.0
H527 H 0.26634 0.53588 0.17672 0.0
C528 C 0.96349 0.59691 0.41531 0.0
C529 C 0.95914 0.59296 0.39855 0.0
C530 C 0.96912 0.57357 0.42525 0.0
C531 C 0.01489 0.52576 0.42731 0.0
H532 H 0.98006 0.45136 0.42775 0.0
C533 C 0.04385 0.43073 0.39169 0.0
C534 C 0.04005 0.40345 0.39804 0.0
C535 C 0.04164 0.45439 0.40183 0.0
C536 C 0.99012 0.47201 0.42838 0.0
H537 H 0.9532 0.56193 0.37948 0.0
H538 H 0.96125 0.52104 0.39702 0.0
H539 H 0.95021 0.49371 0.42744 0.0
H540 H 0.03488 0.37904 0.42015 0.0
H541 H 0.02886 0.42059 0.43767 0.0
H542 H 0.05466 0.50395 0.42543 0.0
C543 C 0.9609 0.54207 0.40242 0.0
C544 C 0.97298 0.4962 0.42818 0.0
C545 C 0.95633 0.56539 0.39236 0.0
C546 C 0.03776 0.39994 0.41495 0.0
C547 C 0.03441 0.42366 0.42502 0.0
C548 C 0.03201 0.50155 0.42706 0.0
C549 C 0.96927 0.54612 0.41864 0.0
C550 C 0.98528 0.52309 0.42649 0.0
C551 C 0.03465 0.45099 0.41831 0.0
C552 C 0.0196 0.47455 0.42641 0.0
H553 H 0.96589 0.61803 0.42035 0.0
H554 H 0.97581 0.57712 0.43767 0.0
H555 H 0.02481 0.54635 0.42587 0.0
H556 H 0.04559 0.43388 0.37869 0.0
H557 H 0.04167 0.47531 0.39635 0.0
C558 C 0.60084 0.98884 0.37576 0.0
C559 C 0.61661 0.00355 0.38743 0.0
C560 C 0.5742 0.97834 0.37958 0.0
C561 C 0.51462 0.98508 0.40775 0.0
H562 H 0.49374 0.91428 0.38667 0.0
C563 C 0.39934 0.95259 0.40328 0.0
C564 C 0.39246 0.95686 0.38689 0.0
C565 C 0.42749 0.94798 0.40774 0.0
C566 C 0.49949 0.93366 0.39298 0.0
H567 H 0.617 0.01972 0.41207 0.0
H568 H 0.56993 0.00113 0.4189 0.0
H569 H 0.54309 0.92959 0.38645 0.0
H570 H 0.4082 0.95683 0.36222 0.0
H571 H 0.45723 0.9475 0.36991 0.0
H572 H 0.47071 0.98957 0.41369 0.0
C573 C 0.57816 -0.00209 0.40675 0.0
C574 C 0.52757 0.94266 0.39268 0.0
C575 C 0.60488 0.00878 0.40282 0.0
C576 C 0.41322 0.95339 0.3749 0.0
C577 C 0.44114 0.94797 0.37932 0.0
C578 C 0.48658 0.97582 0.40827 0.0
C579 C 0.56294 0.98189 0.39527 0.0
C580 C 0.53505 0.9693 0.39918 0.0
C581 C 0.44869 0.94683 0.3958 0.0
C582 C 0.47862 0.95085 0.4001 0.0
H583 H 0.60953 0.98468 0.36379 0.0
H584 H 0.56258 0.96706 0.37026 0.0
H585 H 0.51971 0.00563 0.41291 0.0
H586 H 0.38353 0.9556 0.41269 0.0
H587 H 0.43298 0.94736 0.4205 0.0
C588 C 0.95328 0.39365 0.64544 0.0
C589 C 0.97542 0.3753 0.6411 0.0
C590 C 0.95398 0.42202 0.64047 0.0
C591 C 0.95873 0.48184 0.62701 0.0
H592 H 0.03373 0.51097 0.63659 0.0
C593 C 0.01992 0.59569 0.63907 0.0
C594 C 1e-05 0.60723 0.64996 0.0
C595 C 0.01644 0.56807 0.63308 0.0
C596 C 0.01283 0.50326 0.63345 0.0
H597 H 0.0136 0.37053 0.62671 0.0
H598 H 0.01435 0.4197 0.61757 0.0
H599 H 0.02672 0.46018 0.6338 0.0
H600 H 0.96104 0.59894 0.66318 0.0
H601 H 0.95534 0.55102 0.653 0.0
H602 H 0.94471 0.52511 0.62761 0.0
C603 C -0.00294 0.41274 0.62525 0.0
C604 C 0.00876 0.47409 0.63183 0.0
C605 C -0.00339 0.38465 0.63044 0.0
C606 C 0.97674 0.59071 0.65478 0.0
C607 C 0.97324 0.56334 0.64877 0.0
C608 C 0.96282 0.51107 0.62866 0.0
C609 C 0.97664 0.43209 0.63093 0.0
C610 C 0.98148 0.46301 0.62919 0.0
C611 C 0.99293 0.55175 0.63782 0.0
C612 C 0.98971 0.5219 0.63255 0.0
H613 H 0.93675 0.3867 0.65367 0.0
H614 H 0.93798 0.43645 0.64512 0.0
H615 H 0.93758 0.47394 0.62471 0.0
H616 H 0.03792 0.60806 0.63505 0.0
H617 H 0.03199 0.55953 0.62468 0.0
C618 C 0.58919 0.9558 0.62359 0.0
C619 C 0.58636 0.9495 0.64019 0.0
C620 C 0.56523 0.96199 0.61431 0.0
C621 C 0.5171 0.00702 0.61397 0.0
H622 H 0.44299 0.97201 0.61539 0.0
C623 C 0.42534 0.03784 0.65196 0.0
C624 C 0.39761 0.03395 0.64644 0.0
C625 C 0.44803 0.03474 0.64124 0.0
C626 C 0.46349 0.98215 0.61427 0.0
H627 H 0.55682 0.94125 0.65967 0.0
H628 H 0.51483 0.95032 0.64327 0.0
H629 H 0.4852 0.94211 0.61414 0.0
H630 H 0.37139 0.02686 0.62523 0.0
H631 H 0.41129 0.01969 0.60668 0.0
H632 H 0.49552 0.04686 0.61677 0.0
C633 C 0.53541 0.95088 0.63743 0.0
C634 C 0.4876 0.96498 0.61357 0.0
C635 C 0.55937 0.94569 0.64684 0.0
C636 C 0.39266 0.03014 0.62974 0.0
C637 C 0.41542 0.02605 0.6191 0.0
C638 C 0.493 0.02417 0.61507 0.0
C639 C 0.53827 0.96095 0.62145 0.0
C640 C 0.51454 0.97729 0.61458 0.0
C641 C 0.44324 0.02677 0.62501 0.0
C642 C 0.46617 0.01168 0.61639 0.0
H643 H 0.6099 0.95921 0.61829 0.0
H644 H 0.56788 0.97003 0.60209 0.0
H645 H 0.53771 0.01698 0.61488 0.0
H646 H 0.42956 0.04059 0.6648 0.0
H647 H 0.46933 0.03509 0.64613 0.0
C648 C 0.44677 0.89321 0.87833 0.0
C649 C 0.47186 0.87756 0.88051 0.0
C650 C 0.44713 0.92281 0.87897 0.0
C651 C 0.49457 0.98324 0.87367 0.0
H652 H 0.43856 0.02533 0.89863 0.0
C653 C 0.51016 0.10013 0.8878 0.0
C654 C 0.4871 0.11862 0.88578 0.0
C655 C 0.50624 0.07091 0.88754 0.0
C656 C 0.45407 0.01384 0.89145 0.0
H657 H 0.51697 0.88052 0.88512 0.0
H658 H 0.51759 0.93234 0.88621 0.0
H659 H 0.43598 0.97341 0.89729 0.0
H660 H 0.44164 0.12127 0.88254 0.0
H661 H 0.43471 0.06955 0.88184 0.0
H662 H 0.51271 0.02339 0.86778 0.0
C663 C 0.4977 0.92166 0.88391 0.0
C664 C 0.45265 0.9842 0.8907 0.0
C665 C 0.49733 0.89203 0.88336 0.0
C666 C 0.45974 0.10737 0.88411 0.0
C667 C 0.45581 0.07788 0.88374 0.0
C668 C 0.49593 0.01275 0.87436 0.0
C669 C 0.4726 0.9373 0.8817 0.0
C670 C 0.47317 0.96867 0.88201 0.0
C671 C 0.47919 0.05945 0.8851 0.0
C672 C 0.47603 0.02832 0.88349 0.0
H673 H 0.42679 0.88263 0.87615 0.0
H674 H 0.42755 0.93438 0.87708 0.0
H675 H 0.51028 0.97182 0.86658 0.0
H676 H 0.53144 0.10823 0.88941 0.0
H677 H 0.52453 0.05725 0.88909 0.0
C678 C 0.90552 0.48288 0.91862 0.0
C679 C 0.90796 0.4826 0.90161 0.0
C680 C 0.92965 0.48616 0.92827 0.0
C681 C 0.9795 0.5288 0.93451 0.0
H682 H 0.0519 0.49079 0.92964 0.0
C683 C 0.07606 0.57072 0.90507 0.0
C684 C 0.10274 0.55987 0.90924 0.0
C685 C 0.0526 0.56506 0.91485 0.0
C686 C 0.03186 0.50148 0.93173 0.0
H687 H 0.93718 0.48219 0.88136 0.0
H688 H 0.97946 0.48609 0.89821 0.0
H689 H 0.00829 0.46404 0.92575 0.0
H690 H 0.12684 0.53956 0.92843 0.0
H691 H 0.08557 0.5281 0.94495 0.0
H692 H 0.00314 0.56713 0.9381 0.0
C693 C 0.959 0.48432 0.9041 0.0
C694 C 0.00694 0.48611 0.92945 0.0
C695 C 0.93488 0.4821 0.89446 0.0
C696 C 0.10638 0.54753 0.92466 0.0
C697 C 0.08278 0.54107 0.93422 0.0
C698 C 0.00446 0.54433 0.93643 0.0
C699 C 0.95644 0.48802 0.92098 0.0
C700 C 0.9807 0.50008 0.92983 0.0
C701 C 0.05552 0.548 0.92874 0.0
C702 C 0.03081 0.53112 0.93398 0.0
H703 H 0.88493 0.4835 0.9244 0.0
H704 H 0.92724 0.48925 0.94124 0.0
H705 H 0.95944 0.54004 0.93472 0.0
H706 H 0.07274 0.58071 0.89338 0.0
H707 H 0.0318 0.57073 0.91035 0.0
C708 C 0.4366 0.91956 0.14644 0.0
C709 C 0.44156 0.89278 0.13955 0.0
C710 C 0.44346 0.94405 0.1378 0.0
C711 C 0.4633 0.99306 0.11582 0.0
H712 H 0.54401 0.98193 0.12218 0.0
C713 C 0.53423 0.0865 0.13031 0.0
C714 C 0.53543 0.08433 0.14734 0.0
C715 C 0.52869 0.06242 0.12087 0.0
C716 C 0.52174 0.98531 0.11967 0.0
H717 H 0.45431 0.87027 0.11775 0.0
H718 H 0.46802 0.91316 0.103 0.0
H719 H 0.51305 0.94075 0.11913 0.0
H720 H 0.53631 0.05524 0.16761 0.0
H721 H 0.52856 0.01293 0.15104 0.0
H722 H 0.47176 0.03759 0.11775 0.0
C723 C 0.45801 0.91527 0.11479 0.0
C724 C 0.504 0.96182 0.11789 0.0
C725 C 0.45013 0.8908 0.12324 0.0
C726 C 0.53551 0.05738 0.15452 0.0
C727 C 0.53105 0.03323 0.14503 0.0
C728 C 0.48114 0.01657 0.11716 0.0
C729 C 0.45628 0.9419 0.12243 0.0
C730 C 0.47447 0.96554 0.11709 0.0
C731 C 0.52567 0.03586 0.12833 0.0
C732 C 0.51018 0.01274 0.1202 0.0
H733 H 0.43039 0.92148 0.15907 0.0
H734 H 0.4422 0.96436 0.14401 0.0
H735 H 0.44059 0.99636 0.11539 0.0
H736 H 0.53419 0.10708 0.12446 0.0
H737 H 0.52446 0.06486 0.10803 0.0
C738 C 0.89465 0.54136 0.14219 0.0
C739 C 0.8862 0.53928 0.15849 0.0
C740 C 0.92334 0.54402 0.13833 0.0
C741 C 0.98197 0.51459 0.14005 0.0
H742 H 0.03799 0.56378 0.15973 0.0
C743 C 0.0998 0.50809 0.16974 0.0
C744 C 0.11438 0.49164 0.15825 0.0
C745 C 0.07247 0.51761 0.1666 0.0
C746 C 0.02261 0.54976 0.1542 0.0
H747 H 0.89988 0.54066 0.1835 0.0
H748 H 0.94997 0.54673 0.17681 0.0
H749 H 0.98834 0.57833 0.15946 0.0
H750 H 0.11209 0.47167 0.13457 0.0
H751 H 0.06411 0.48881 0.12882 0.0
H752 H 0.0155 0.48479 0.1361 0.0
C753 C 0.93465 0.54609 0.16704 0.0
C754 C 0.99434 0.55834 0.15385 0.0
C755 C 0.90613 0.5426 0.17088 0.0
C756 C 0.10095 0.48401 0.14371 0.0
C757 C 0.07362 0.49398 0.1404 0.0
C758 C 0.01017 0.50573 0.14067 0.0
C759 C 0.94357 0.54537 0.15077 0.0
C760 C 0.97373 0.54037 0.14728 0.0
C761 C 0.05933 0.5114 0.1517 0.0
C762 C 0.03058 0.52272 0.14838 0.0
H763 H 0.87947 0.53828 0.13249 0.0
H764 H 0.9299 0.5432 0.12572 0.0
H765 H 0.96626 0.50024 0.1351 0.0
H766 H 0.10978 0.51409 0.18108 0.0
H767 H 0.06175 0.53005 0.17584 0.0
C768 C 0.06482 0.36885 0.32937 0.0
C769 C 0.0505 0.34279 0.3279 0.0
C770 C 0.08016 0.38003 0.31622 0.0
C771 C 0.0859 0.37411 0.27111 0.0
H772 H 0.15601 0.41541 0.27709 0.0
C773 C 0.14211 0.42981 0.2172 0.0
C774 C 0.17185 0.42793 0.21648 0.0
C775 C 0.12726 0.42116 0.23112 0.0
C776 C 0.13654 0.40379 0.27515 0.0
H777 H 0.04245 0.30742 0.31167 0.0
H778 H 0.06935 0.3265 0.28898 0.0
H779 H 0.13139 0.396 0.30063 0.0
H780 H 0.20914 0.41625 0.23033 0.0
H781 H 0.18341 0.40061 0.25424 0.0
H782 H 0.09141 0.3811 0.24563 0.0
C783 C 0.06812 0.33884 0.30008 0.0
C784 C 0.12221 0.39291 0.28872 0.0
C785 C 0.05275 0.32778 0.31315 0.0
C786 C 0.18628 0.41769 0.23024 0.0
C787 C 0.17146 0.40902 0.24412 0.0
C788 C 0.10023 0.38493 0.25756 0.0
C789 C 0.08166 0.36537 0.30128 0.0
C790 C 0.09677 0.3777 0.2869 0.0
C791 C 0.1417 0.41037 0.24475 0.0
C792 C 0.12587 0.3998 0.25934 0.0
H793 H 0.06331 0.38112 0.34048 0.0
H794 H 0.0901 0.4006 0.31762 0.0
H795 H 0.06615 0.36297 0.26916 0.0
H796 H 0.13013 0.43737 0.20689 0.0
H797 H 0.10439 0.42293 0.23117 0.0
C798 C 0.57235 0.1249 0.21409 0.0
C799 C 0.55279 0.14722 0.21618 0.0
C800 C 0.58867 0.11517 0.22724 0.0
C801 C 0.61301 0.13624 0.26873 0.0
H802 H 0.62423 0.05539 0.27494 0.0
C803 C 0.68358 0.09361 0.32044 0.0
C804 C 0.67509 0.06895 0.32877 0.0
C805 C 0.66964 0.10246 0.30635 0.0
C806 C 0.62112 0.07804 0.27347 0.0
H807 H 0.53608 0.17752 0.23363 0.0
H808 H 0.56389 0.16053 0.25636 0.0
H809 H 0.59894 0.07238 0.25097 0.0
H810 H 0.64493 0.03426 0.32847 0.0
H811 H 0.62015 0.0501 0.30409 0.0
H812 H 0.63432 0.14201 0.29137 0.0
C813 C 0.56689 0.15047 0.24464 0.0
C814 C 0.60693 0.08783 0.25958 0.0
C815 C 0.55063 0.16007 0.23159 0.0
C816 C 0.65204 0.05345 0.32253 0.0
C817 C 0.638 0.06238 0.30839 0.0
C818 C 0.62712 0.1265 0.28258 0.0
C819 C 0.58599 0.12771 0.24276 0.0
C820 C 0.60249 0.11709 0.25706 0.0
C821 C 0.64656 0.0871 0.30011 0.0
C822 C 0.63137 0.09725 0.28522 0.0
H823 H 0.57443 0.11441 0.20244 0.0
H824 H 0.60337 0.0978 0.22526 0.0
H825 H 0.61037 0.15894 0.26718 0.0
H826 H 0.70091 0.10646 0.32484 0.0
H827 H 0.6772 0.12136 0.30026 0.0
C828 C 0.81224 0.54236 0.23557 0.0
C829 C 0.81673 0.55325 0.21986 0.0
C830 C 0.82531 0.55465 0.24913 0.0
C831 C 0.8605 0.62072 0.26347 0.0
H832 H 0.89147 0.57159 0.29676 0.0
C833 C 0.93779 0.66181 0.3125 0.0
C834 C 0.93704 0.65009 0.3282 0.0
C835 C 0.92084 0.65095 0.30005 0.0
C836 C 0.88255 0.5857 0.28774 0.0
H837 H 0.83843 0.58614 0.20632 0.0
H838 H 0.86148 0.60734 0.22991 0.0
H839 H 0.86709 0.55085 0.27352 0.0
H840 H 0.91699 0.61815 0.34317 0.0
H841 H 0.88689 0.59933 0.32145 0.0
H842 H 0.87608 0.65556 0.27762 0.0
C843 C 0.8476 0.58935 0.23175 0.0
C844 C 0.86859 0.57377 0.27435 0.0
C845 C 0.83458 0.57697 0.21815 0.0
C846 C 0.91802 0.62777 0.33126 0.0
C847 C 0.90103 0.61677 0.31873 0.0
C848 C 0.87441 0.63265 0.27687 0.0
C849 C 0.84325 0.57828 0.24744 0.0
C850 C 0.85755 0.59109 0.26194 0.0
C851 C 0.90248 0.62798 0.30288 0.0
C852 C 0.8859 0.61532 0.28915 0.0
H853 H 0.79898 0.52395 0.23744 0.0
H854 H 0.82117 0.54569 0.261 0.0
H855 H 0.85185 0.63479 0.25435 0.0
H856 H 0.95188 0.67925 0.30974 0.0
H857 H 0.92286 0.66005 0.28805 0.0
C858 C 0.42381 0.82569 0.22929 0.0
C859 C 0.42001 0.83735 0.21374 0.0
C860 C 0.41341 0.83958 0.24317 0.0
C861 C 0.384 0.90964 0.25773 0.0
H862 H 0.35858 0.86432 0.29421 0.0
C863 C 0.3177 0.95698 0.31049 0.0
C864 C 0.32648 0.95093 0.32648 0.0
C865 C 0.32942 0.94264 0.29715 0.0
C866 C 0.3658 0.87729 0.28418 0.0
H867 H 0.40214 0.87284 0.20063 0.0
H868 H 0.38305 0.89669 0.22466 0.0
H869 H 0.37791 0.8409 0.27015 0.0
H870 H 0.35423 0.92381 0.34066 0.0
H871 H 0.37395 0.89818 0.31733 0.0
H872 H 0.37083 0.94595 0.27167 0.0
C873 C 0.39482 0.87716 0.22631 0.0
C874 C 0.37708 0.86387 0.27033 0.0
C875 C 0.40569 0.86345 0.21244 0.0
C876 C 0.34664 0.92911 0.32866 0.0
C877 C 0.3581 0.91442 0.31525 0.0
C878 C 0.37231 0.92298 0.27146 0.0
C879 C 0.3984 0.86542 0.24194 0.0
C880 C 0.38641 0.87981 0.25684 0.0
C881 C 0.34998 0.92139 0.2993 0.0
C882 C 0.36302 0.907 0.28487 0.0
H883 H 0.43514 0.80584 0.23075 0.0
H884 H 0.41741 0.83003 0.25488 0.0
H885 H 0.39142 0.92289 0.24789 0.0
H886 H 0.30178 0.97298 0.30815 0.0
H887 H 0.32225 0.94816 0.28507 0.0
C888 C 0.16855 0.57206 0.81794 0.0
C889 C 0.15178 0.55921 0.82997 0.0
C890 C 0.15659 0.58157 0.80341 0.0
C891 C 0.09243 0.57828 0.77699 0.0
H892 H 0.12008 0.65143 0.76247 0.0
C893 C 0.0597 0.63139 0.71529 0.0
C894 C 0.05671 0.66116 0.71535 0.0
C895 C 0.06972 0.61706 0.72914 0.0
C896 C 0.11188 0.63109 0.76637 0.0
H897 H 0.10926 0.54535 0.83579 0.0
H898 H 0.08817 0.5622 0.8104 0.0
H899 H 0.14039 0.62971 0.78645 0.0
H900 H 0.06 0.69881 0.73042 0.0
H901 H 0.07705 0.67413 0.75434 0.0
H902 H 0.0634 0.58021 0.75693 0.0
C903 C 0.11075 0.56468 0.81217 0.0
C904 C 0.12387 0.61837 0.78006 0.0
C905 C 0.12282 0.55499 0.82676 0.0
C906 C 0.06273 0.676 0.72977 0.0
C907 C 0.07259 0.66178 0.74353 0.0
C908 C 0.0804 0.59106 0.76319 0.0
C909 C 0.12737 0.57873 0.80045 0.0
C910 C 0.11438 0.59178 0.78562 0.0
C911 C 0.07688 0.6322 0.74335 0.0
C912 C 0.08985 0.61778 0.75776 0.0
H913 H 0.19101 0.57512 0.81986 0.0
H914 H 0.17028 0.59154 0.79454 0.0
H915 H 0.08467 0.55772 0.78081 0.0
H916 H 0.05534 0.61932 0.70438 0.0
H917 H 0.0728 0.59428 0.72851 0.0
C918 C 0.43736 0.19054 0.81178 0.0
C919 C 0.44828 0.17604 0.82531 0.0
C920 C 0.4245 0.17577 0.799 0.0
C921 C 0.39381 0.10518 0.78764 0.0
H922 H 0.4033 0.13406 0.74392 0.0
C923 C 0.33371 0.05462 0.73399 0.0
C924 C 0.34744 0.05226 0.71889 0.0
C925 C 0.34536 0.07085 0.74656 0.0
C926 C 0.40061 0.12545 0.756 0.0
H927 H 0.45397 0.1345 0.83602 0.0
H928 H 0.43213 0.10849 0.8136 0.0
H929 H 0.42529 0.15874 0.76657 0.0
H930 H 0.38393 0.06567 0.705 0.0
H931 H 0.40483 0.09364 0.72705 0.0
H932 H 0.37021 0.0712 0.77702 0.0
C933 C 0.43293 0.13145 0.81296 0.0
C934 C 0.41292 0.13993 0.76911 0.0
C935 C 0.44552 0.14633 0.82586 0.0
C936 C 0.37274 0.06734 0.71646 0.0
C937 C 0.38467 0.08336 0.72915 0.0
C938 C 0.38174 0.09056 0.77452 0.0
C939 C 0.42243 0.14593 0.79923 0.0
C940 C 0.40959 0.13014 0.78517 0.0
C941 C 0.37139 0.08495 0.74451 0.0
C942 C 0.38474 0.10055 0.75848 0.0
H943 H 0.43872 0.21346 0.81109 0.0
H944 H 0.41607 0.18789 0.78895 0.0
H945 H 0.39042 0.09698 0.79975 0.0
H946 H 0.31398 0.04355 0.73614 0.0
H947 H 0.33392 0.07214 0.75794 0.0
C948 C 0.83867 0.46248 0.81306 0.0
C949 C 0.85089 0.4583 0.82841 0.0
C950 C 0.85147 0.45154 0.799 0.0
C951 C 0.91841 0.41675 0.78332 0.0
H952 H 0.86846 0.3926 0.74863 0.0
C953 C 0.94949 0.33645 0.73247 0.0
C954 C 0.94144 0.34272 0.71644 0.0
C955 C 0.94089 0.35378 0.74543 0.0
C956 C 0.88275 0.39955 0.75811 0.0
H957 H 0.88636 0.43959 0.84104 0.0
H958 H 0.90826 0.41929 0.81668 0.0
H959 H 0.84871 0.41553 0.77261 0.0
H960 H 0.9184 0.37234 0.70139 0.0
H961 H 0.90257 0.4025 0.7242 0.0
H962 H 0.95224 0.39907 0.76896 0.0
C963 C 0.88918 0.43181 0.81529 0.0
C964 C 0.87145 0.41291 0.77193 0.0
C965 C 0.87661 0.44336 0.82935 0.0
C966 C 0.92511 0.3672 0.7136 0.0
C967 C 0.9159 0.38426 0.72666 0.0
C968 C 0.92962 0.40287 0.76961 0.0
C969 C 0.87664 0.4354 0.79986 0.0
C970 C 0.88904 0.42174 0.78484 0.0
C971 C 0.92345 0.37754 0.74275 0.0
C972 C 0.91192 0.39404 0.75685 0.0
H973 H 0.81903 0.47424 0.81195 0.0
H974 H 0.84142 0.45574 0.78746 0.0
H975 H 0.93292 0.4236 0.79269 0.0
H976 H 0.96206 0.3177 0.73498 0.0
H977 H 0.94692 0.34789 0.75765 0.0
C978 C 0.53385 0.80445 0.80845 0.0
C979 C 0.5264 0.81926 0.8227 0.0
C980 C 0.54775 0.81813 0.79567 0.0
C981 C 0.589 0.88294 0.78484 0.0
H982 H 0.56902 0.86019 0.74106 0.0
C983 C 0.65477 0.91771 0.72872 0.0
C984 C 0.64094 0.9224 0.71381 0.0
C985 C 0.64012 0.90691 0.74217 0.0
C986 C 0.5747 0.86715 0.75316 0.0
H987 H 0.52834 0.86016 0.83473 0.0
H988 H 0.55238 0.88433 0.81229 0.0
H989 H 0.545 0.83868 0.76403 0.0
H990 H 0.60025 0.91959 0.70173 0.0
H991 H 0.57461 0.90161 0.72522 0.0
H992 H 0.61822 0.91195 0.77389 0.0
C993 C 0.54774 0.86191 0.81108 0.0
C994 C 0.56116 0.85442 0.76643 0.0
C995 C 0.53393 0.84808 0.82398 0.0
C996 C 0.61176 0.91648 0.71293 0.0
C997 C 0.59705 0.90577 0.72642 0.0
C998 C 0.60248 0.89578 0.77154 0.0
C999 C 0.55452 0.84719 0.79662 0.0
C1000 C 0.5683 0.86184 0.7825 0.0
C1001 C 0.61105 0.90058 0.74123 0.0
C1002 C 0.59573 0.8879 0.75547 0.0
H1003 H 0.52895 0.7821 0.80717 0.0
H1004 H 0.55327 0.80576 0.78501 0.0
H1005 H 0.59527 0.88918 0.79697 0.0
H1006 H 0.67706 0.92232 0.73011 0.0
H1007 H 0.65185 0.90297 0.75322 0.0
C1008 C 0.07808 0.26322 0.39884 0.0
C1009 C 0.05504 0.255 0.38914 0.0
C1010 C 0.10129 0.24495 0.40081 0.0
C1011 C 0.13635 0.18569 0.3796 0.0
H1012 H 0.17474 0.17207 0.42042 0.0
C1013 C 0.23363 0.11317 0.38211 0.0
C1014 C 0.23363 0.09281 0.39455 0.0
C1015 C 0.21477 0.13603 0.38256 0.0
C1016 C 0.16419 0.17568 0.40894 0.0
H1017 H 0.03741 0.22061 0.37476 0.0
H1018 H 0.0774 0.18887 0.37838 0.0
H1019 H 0.13475 0.20528 0.4195 0.0
H1020 H 0.21493 0.0815 0.41775 0.0
H1021 H 0.18133 0.12085 0.41825 0.0
H1022 H 0.16481 0.15555 0.36909 0.0
C1023 C 0.07801 0.20961 0.38412 0.0
C1024 C 0.14149 0.19484 0.4084 0.0
C1025 C 0.05501 0.22778 0.38212 0.0
C1026 C 0.21509 0.09649 0.40779 0.0
C1027 C 0.19612 0.1193 0.40821 0.0
C1028 C 0.15892 0.16663 0.38014 0.0
C1029 C 0.10172 0.21824 0.39311 0.0
C1030 C 0.12704 0.19961 0.39376 0.0
C1031 C 0.19535 0.13899 0.39542 0.0
C1032 C 0.17291 0.1611 0.39484 0.0
H1033 H 0.07865 0.28409 0.40442 0.0
H1034 H 0.11929 0.25212 0.40783 0.0
H1035 H 0.12594 0.18929 0.36808 0.0
H1036 H 0.24753 0.11094 0.3717 0.0
H1037 H 0.21501 0.15109 0.37264 0.0
C1038 C 0.87103 0.26495 0.37897 0.0
C1039 C 0.88992 0.26763 0.39204 0.0
C1040 C 0.84573 0.24987 0.38082 0.0
C1041 C 0.79832 0.21671 0.41179 0.0
H1042 H 0.78548 0.161 0.37786 0.0
C1043 C 0.74559 0.10823 0.42226 0.0
C1044 C 0.72944 0.09622 0.4097 0.0
C1045 C 0.75867 0.13457 0.42015 0.0
C1046 C 0.7883 0.17679 0.38732 0.0
H1047 H 0.89615 0.25847 0.41759 0.0
H1048 H 0.8527 0.23156 0.42069 0.0
H1049 H 0.82048 0.19801 0.37376 0.0
H1050 H 0.71231 0.10358 0.38562 0.0
H1051 H 0.7352 0.14943 0.38195 0.0
H1052 H 0.76702 0.19441 0.42564 0.0
C1053 C 0.85714 0.24119 0.40903 0.0
C1054 C 0.80839 0.19808 0.38495 0.0
C1055 C 0.88232 0.25624 0.40719 0.0
C1056 C 0.72505 0.11197 0.39543 0.0
C1057 C 0.73816 0.13825 0.39331 0.0
C1058 C 0.77831 0.19529 0.41419 0.0
C1059 C 0.83882 0.23726 0.39579 0.0
C1060 C 0.81422 0.21781 0.39733 0.0
C1061 C 0.75583 0.14941 0.40544 0.0
C1062 C 0.77364 0.17466 0.40214 0.0
H1063 H 0.8763 0.27356 0.36716 0.0
H1064 H 0.83189 0.24753 0.37044 0.0
H1065 H 0.80194 0.23192 0.42145 0.0
H1066 H 0.74928 0.09673 0.43344 0.0
H1067 H 0.77231 0.14252 0.42968 0.0
C1068 C 0.92 0.74742 0.3997 0.0
C1069 C 0.9266 0.73917 0.38372 0.0
C1070 C 0.90124 0.77007 0.40251 0.0
C1071 C 0.84547 0.81267 0.38267 0.0
H1072 H 0.87095 0.87468 0.41007 0.0
C1073 C 0.77973 0.91408 0.38832 0.0
C1074 C 0.79439 0.93992 0.38719 0.0
C1075 C 0.7943 0.88873 0.39076 0.0
C1076 C 0.86361 0.85754 0.40236 0.0
H1077 H 0.91796 0.74693 0.35827 0.0
H1078 H 0.88528 0.78587 0.36314 0.0
H1079 H 0.89807 0.83025 0.40912 0.0
H1080 H 0.83554 0.95988 0.38849 0.0
H1081 H 0.86151 0.91508 0.39219 0.0
H1082 H 0.81194 0.84003 0.37521 0.0
C1083 C 0.89444 0.77514 0.3735 0.0
C1084 C 0.87889 0.832 0.402 0.0
C1085 C 0.91329 0.75292 0.37071 0.0
C1086 C 0.82389 0.94012 0.38915 0.0
C1087 C 0.83862 0.91454 0.39141 0.0
C1088 C 0.83029 0.83807 0.383 0.0
C1089 C 0.88854 0.7843 0.38939 0.0
C1090 C 0.87027 0.80958 0.39186 0.0
C1091 C 0.82396 0.88851 0.39195 0.0
C1092 C 0.83938 0.86099 0.39264 0.0
H1093 H 0.93019 0.73723 0.40992 0.0
H1094 H 0.89693 0.77668 0.41489 0.0
H1095 H 0.83822 0.79567 0.37482 0.0
H1096 H 0.75685 0.9135 0.38733 0.0
H1097 H 0.78227 0.86921 0.39155 0.0
C1098 C 0.09117 0.76451 0.40588 0.0
C1099 C 0.08813 0.74963 0.39117 0.0
C1100 C 0.11365 0.78324 0.40813 0.0
C1101 C 0.18296 0.80658 0.39186 0.0
H1102 H 0.15818 0.88068 0.40709 0.0
C1103 C 0.25693 0.90543 0.39698 0.0
C1104 C 0.2461 0.92893 0.38851 0.0
C1105 C 0.23977 0.8817 0.39989 0.0
C1106 C 0.16547 0.86003 0.40298 0.0
H1107 H 0.10709 0.74147 0.36763 0.0
H1108 H 0.14643 0.77455 0.3715 0.0
H1109 H 0.12507 0.84112 0.40716 0.0
H1110 H 0.20875 0.94651 0.37692 0.0
H1111 H 0.17891 0.90558 0.38224 0.0
H1112 H 0.22317 0.82612 0.38712 0.0
C1113 C 0.13148 0.77152 0.38133 0.0
C1114 C 0.1466 0.83731 0.40311 0.0
C1115 C 0.10893 0.75269 0.37908 0.0
C1116 C 0.21774 0.92867 0.38342 0.0
C1117 C 0.20058 0.90531 0.38655 0.0
C1118 C 0.20198 0.82935 0.39186 0.0
C1119 C 0.13363 0.78753 0.39573 0.0
C1120 C 0.15492 0.8105 0.39722 0.0
C1121 C 0.21145 0.88151 0.39466 0.0
C1122 C 0.19312 0.85643 0.39703 0.0
H1123 H 0.07587 0.76201 0.41559 0.0
H1124 H 0.11506 0.79487 0.41947 0.0
H1125 H 0.19 0.78608 0.38738 0.0
H1126 H 0.27877 0.90509 0.40097 0.0
H1127 H 0.24857 0.86356 0.40619 0.0
C1128 C 0.23357 0.89428 0.64342 0.0
C1129 C 0.2489 0.89775 0.65789 0.0
C1130 C 0.21797 0.86965 0.64063 0.0
C1131 C 0.18135 0.81302 0.6623 0.0
H1132 H 0.17482 0.78022 0.6192 0.0
C1133 C 0.10034 0.72532 0.64912 0.0
C1134 C 0.0832 0.73052 0.6355 0.0
C1135 C 0.12539 0.74051 0.65142 0.0
C1136 C 0.17642 0.78914 0.6313 0.0
H1137 H 0.26053 0.87784 0.68061 0.0
H1138 H 0.23311 0.83452 0.67574 0.0
H1139 H 0.21013 0.81696 0.62435 0.0
H1140 H 0.07993 0.75434 0.61306 0.0
H1141 H 0.12341 0.78099 0.61715 0.0
H1142 H 0.14703 0.78604 0.66913 0.0
C1143 C 0.23309 0.85105 0.66661 0.0
C1144 C 0.19662 0.81016 0.63425 0.0
C1145 C 0.24886 0.87572 0.66937 0.0
C1146 C 0.09257 0.74988 0.62372 0.0
C1147 C 0.11762 0.76508 0.62603 0.0
C1148 C 0.16115 0.79203 0.65934 0.0
C1149 C 0.21732 0.84786 0.65225 0.0
C1150 C 0.19879 0.82284 0.64968 0.0
C1151 C 0.13388 0.76115 0.64014 0.0
C1152 C 0.15797 0.78037 0.64371 0.0
H1153 H 0.23361 0.91067 0.6342 0.0
H1154 H 0.20579 0.86803 0.62954 0.0
H1155 H 0.18228 0.82259 0.67426 0.0
H1156 H 0.09399 0.71016 0.6583 0.0
H1157 H 0.13774 0.73661 0.66227 0.0
C1158 C 0.24252 0.07633 0.68041 0.0
C1159 C 0.254 0.06275 0.6667 0.0
C1160 C 0.22068 0.09598 0.67879 0.0
C1161 C 0.16056 0.11186 0.65327 0.0
H1162 H 0.15624 0.18002 0.67977 0.0
C1163 C 0.06365 0.18771 0.65349 0.0
C1164 C 0.05553 0.19932 0.66856 0.0
C1165 C 0.08844 0.17167 0.65206 0.0
C1166 C 0.15702 0.16092 0.67242 0.0
H1167 H 0.25245 0.05961 0.64047 0.0
H1168 H 0.21351 0.09407 0.6376 0.0
H1169 H 0.20038 0.15313 0.67849 0.0
H1170 H 0.06635 0.2022 0.69407 0.0
H1171 H 0.10949 0.17379 0.69165 0.0
H1172 H 0.11694 0.11919 0.64756 0.0
C1173 C 0.22166 0.08943 0.64959 0.0
C1174 C 0.18235 0.14568 0.67159 0.0
C1175 C 0.24397 0.06994 0.65121 0.0
C1176 C 0.07222 0.19373 0.68228 0.0
C1177 C 0.09699 0.17763 0.68086 0.0
C1178 C 0.13514 0.12709 0.65414 0.0
C1179 C 0.20959 0.1023 0.66343 0.0
C1180 C 0.1842 0.12069 0.66228 0.0
C1181 C 0.10566 0.16691 0.66567 0.0
C1182 C 0.13295 0.15146 0.664 0.0
H1183 H 0.25 0.07125 0.69249 0.0
H1184 H 0.21163 0.1053 0.68968 0.0
H1185 H 0.16131 0.09247 0.64616 0.0
H1186 H 0.05154 0.19209 0.64263 0.0
H1187 H 0.09466 0.16394 0.64017 0.0
C1188 C 0.7599 0.07694 0.67629 0.0
C1189 C 0.74516 0.06729 0.66258 0.0
C1190 C 0.77665 0.10139 0.67533 0.0
C1191 C 0.78802 0.16718 0.65253 0.0
H1192 H 0.86676 0.15827 0.66469 0.0
C1193 C 0.87298 0.2523 0.63752 0.0
C1194 C 0.89524 0.25576 0.64862 0.0
C1195 C 0.85338 0.23022 0.63953 0.0
C1196 C 0.84475 0.16145 0.66152 0.0
H1197 H 0.73508 0.07603 0.63743 0.0
H1198 H 0.76385 0.11906 0.63586 0.0
H1199 H 0.83402 0.11912 0.66871 0.0
H1200 H 0.91375 0.23954 0.67084 0.0
H1201 H 0.87924 0.20237 0.67475 0.0
H1202 H 0.79848 0.2097 0.64563 0.0
C1203 C 0.76273 0.10767 0.64726 0.0
C1204 C 0.82603 0.1389 0.6638 0.0
C1205 C 0.74648 0.08301 0.64813 0.0
C1206 C 0.89709 0.23726 0.66193 0.0
C1207 C 0.87733 0.21569 0.66411 0.0
C1208 C 0.80666 0.18999 0.6505 0.0
C1209 C 0.77834 0.11683 0.66076 0.0
C1210 C 0.79755 0.14149 0.65926 0.0
C1211 C 0.85544 0.2115 0.65282 0.0
C1212 C 0.83533 0.18739 0.65493 0.0
H1213 H 0.75913 0.06511 0.68755 0.0
H1214 H 0.78844 0.10815 0.68593 0.0
H1215 H 0.76609 0.16968 0.64896 0.0
H1216 H 0.87108 0.2662 0.62712 0.0
H1217 H 0.83702 0.22751 0.63047 0.0
C1218 C 0.93081 0.81534 0.66167 0.0
C1219 C 0.92994 0.78665 0.6664 0.0
C1220 C 0.90568 0.83069 0.65942 0.0
C1221 C 0.82923 0.82978 0.66931 0.0
H1222 H 0.82071 0.87397 0.62993 0.0
C1223 C 0.72023 0.86945 0.6494 0.0
C1224 C 0.71855 0.89825 0.64508 0.0
C1225 C 0.74652 0.85604 0.65078 0.0
C1226 C 0.82287 0.86188 0.64103 0.0
H1227 H 0.90177 0.75168 0.6723 0.0
H1228 H 0.85848 0.77841 0.66871 0.0
H1229 H 0.8664 0.85197 0.63615 0.0
H1230 H 0.74307 0.93491 0.63755 0.0
H1231 H 0.78888 0.91155 0.64006 0.0
H1232 H 0.78582 0.83946 0.67421 0.0
C1233 C 0.87848 0.78924 0.667 0.0
C1234 C 0.84904 0.84943 0.64464 0.0
C1235 C 0.90343 0.77393 0.66915 0.0
C1236 C 0.7436 0.91277 0.64105 0.0
C1237 C 0.7699 0.89935 0.64242 0.0
C1238 C 0.80315 0.84216 0.66572 0.0
C1239 C 0.87926 0.81766 0.66193 0.0
C1240 C 0.85237 0.83298 0.65873 0.0
C1241 C 0.77167 0.87113 0.64783 0.0
C1242 C 0.79956 0.85807 0.65146 0.0
H1243 H 0.95086 0.8258 0.65951 0.0
H1244 H 0.9069 0.85269 0.65565 0.0
H1245 H 0.83128 0.81762 0.6804 0.0
H1246 H 0.70136 0.85755 0.65247 0.0
H1247 H 0.74721 0.83405 0.65461 0.0
C1248 C 0.57804 0.75419 0.89867 0.0
C1249 C 0.57137 0.76249 0.88278 0.0
C1250 C 0.60396 0.74075 0.90184 0.0
C1251 C 0.67412 0.72142 0.88405 0.0
H1252 H 0.65871 0.64753 0.90269 0.0
C1253 C 0.74351 0.62278 0.87063 0.0
C1254 C 0.74595 0.60182 0.88263 0.0
C1255 C 0.72577 0.64631 0.87309 0.0
C1256 C 0.66375 0.66823 0.89778 0.0
H1257 H 0.58705 0.76594 0.85815 0.0
H1258 H 0.63229 0.74317 0.86369 0.0
H1259 H 0.62274 0.68435 0.90392 0.0
H1260 H 0.7333 0.58979 0.90696 0.0
H1261 H 0.70304 0.63097 0.91145 0.0
H1262 H 0.71495 0.705 0.87754 0.0
C1263 C 0.61778 0.74675 0.87371 0.0
C1264 C 0.64306 0.68942 0.89854 0.0
C1265 C 0.59183 0.75968 0.8705 0.0
C1266 C 0.73126 0.60533 0.89735 0.0
C1267 C 0.7139 0.62894 0.8999 0.0
C1268 C 0.69497 0.70027 0.88341 0.0
C1269 C 0.6236 0.73592 0.88922 0.0
C1270 C 0.6477 0.71598 0.8913 0.0
C1271 C 0.71047 0.6495 0.88771 0.0
C1272 C 0.68975 0.67314 0.88989 0.0
H1273 H 0.56243 0.75596 0.90828 0.0
H1274 H 0.60801 0.73276 0.91394 0.0
H1275 H 0.67833 0.74178 0.87845 0.0
H1276 H 0.75467 0.62056 0.85918 0.0
H1277 H 0.7234 0.66149 0.86334 0.0
C1278 C 0.43313 0.66368 0.90656 0.0
C1279 C 0.43462 0.67422 0.89064 0.0
C1280 C 0.41519 0.641 0.91025 0.0
C1281 C 0.37252 0.58304 0.89255 0.0
H1282 H 0.31835 0.6018 0.92645 0.0
C1283 C 0.25037 0.55699 0.907 0.0
C1284 C 0.25007 0.52718 0.90618 0.0
C1285 C 0.27599 0.57161 0.90794 0.0
C1286 C 0.3335 0.59616 0.91707 0.0
H1287 H 0.42013 0.66836 0.86593 0.0
H1288 H 0.38901 0.62852 0.87231 0.0
H1289 H 0.35962 0.63214 0.92224 0.0
H1290 H 0.27628 0.48925 0.90614 0.0
H1291 H 0.32118 0.51497 0.90752 0.0
H1292 H 0.34576 0.54766 0.887 0.0
C1293 C 0.40161 0.63776 0.88195 0.0
C1294 C 0.35721 0.61335 0.91474 0.0
C1295 C 0.41924 0.66063 0.87831 0.0
C1296 C 0.27586 0.51224 0.9068 0.0
C1297 C 0.30153 0.5269 0.90751 0.0
C1298 C 0.34896 0.56565 0.89501 0.0
C1299 C 0.39877 0.62828 0.89803 0.0
C1300 C 0.37651 0.6074 0.90216 0.0
C1301 C 0.30182 0.55673 0.90789 0.0
C1302 C 0.32882 0.57254 0.90699 0.0
H1303 H 0.44462 0.67395 0.91631 0.0
H1304 H 0.41345 0.63399 0.92273 0.0
H1305 H 0.38716 0.57794 0.88282 0.0
H1306 H 0.23082 0.56906 0.90659 0.0
H1307 H 0.27562 0.59462 0.90804 0.0
C1308 C 0.41816 0.28629 0.89224 0.0
C1309 C 0.41838 0.2577 0.88748 0.0
C1310 C 0.39299 0.30183 0.89212 0.0
C1311 C 0.31483 0.29833 0.88724 0.0
H1312 H 0.32678 0.37195 0.86734 0.0
C1313 C 0.22942 0.38686 0.88449 0.0
C1314 C 0.22974 0.40567 0.87124 0.0
C1315 C 0.24987 0.36548 0.88585 0.0
C1316 C 0.32292 0.35133 0.87269 0.0
H1317 H 0.39268 0.2223 0.87963 0.0
H1318 H 0.34833 0.24959 0.8792 0.0
H1319 H 0.36698 0.34131 0.87259 0.0
H1320 H 0.25046 0.41543 0.84844 0.0
H1321 H 0.28587 0.37776 0.85063 0.0
H1322 H 0.27049 0.3084 0.887 0.0
C1323 C 0.36749 0.25993 0.88333 0.0
C1324 C 0.3461 0.33392 0.876 0.0
C1325 C 0.39278 0.24424 0.88365 0.0
C1326 C 0.24991 0.40152 0.8589 0.0
C1327 C 0.27025 0.38002 0.8602 0.0
C1328 C 0.2915 0.31584 0.8839 0.0
C1329 C 0.36761 0.28923 0.88687 0.0
C1330 C 0.34244 0.30735 0.88348 0.0
C1331 C 0.27106 0.36234 0.87397 0.0
C1332 C 0.29531 0.34263 0.87664 0.0
H1333 H 0.43778 0.29708 0.89511 0.0
H1334 H 0.3937 0.32415 0.89533 0.0
H1335 H 0.31129 0.27796 0.89297 0.0
H1336 H 0.2144 0.38971 0.89433 0.0
H1337 H 0.24997 0.35248 0.89668 0.0
C1338 C 0.74388 0.44515 0.91977 0.0
C1339 C 0.76479 0.44843 0.90774 0.0
C1340 C 0.72314 0.42422 0.91818 0.0
C1341 C 0.68469 0.38732 0.88662 0.0
H1342 H 0.65859 0.33773 0.92102 0.0
C1343 C 0.59769 0.30389 0.87581 0.0
C1344 C 0.57846 0.29844 0.88848 0.0
C1345 C 0.62114 0.32131 0.87837 0.0
C1346 C 0.66535 0.35173 0.91136 0.0
H1347 H 0.78138 0.43112 0.88515 0.0
H1348 H 0.74488 0.39494 0.88232 0.0
H1349 H 0.69941 0.36846 0.92565 0.0
H1350 H 0.56877 0.30745 0.91377 0.0
H1351 H 0.60877 0.33899 0.91796 0.0
H1352 H 0.65026 0.3716 0.87248 0.0
C1353 C 0.74451 0.4087 0.89289 0.0
C1354 C 0.68883 0.36914 0.914 0.0
C1355 C 0.76544 0.42936 0.89457 0.0
C1356 C 0.58288 0.31146 0.90365 0.0
C1357 C 0.60616 0.32916 0.90615 0.0
C1358 C 0.66103 0.37024 0.88405 0.0
C1359 C 0.7228 0.40641 0.90448 0.0
C1360 C 0.6987 0.38705 0.90164 0.0
C1361 C 0.62578 0.33404 0.8936 0.0
C1362 C 0.65103 0.35222 0.89638 0.0
H1363 H 0.74293 0.45939 0.93011 0.0
H1364 H 0.70657 0.42288 0.92727 0.0
H1365 H 0.69161 0.40134 0.87699 0.0
H1366 H 0.59479 0.29448 0.86392 0.0
H1367 H 0.63593 0.32431 0.86845 0.0
C1368 C 0.58124 0.23268 0.14278 0.0
C1369 C 0.57114 0.2289 0.1587 0.0
C1370 C 0.60353 0.25159 0.13973 0.0
C1371 C 0.66224 0.28963 0.15992 0.0
H1372 H 0.64948 0.34852 0.12792 0.0
C1373 C 0.7397 0.38309 0.15225 0.0
C1374 C 0.72697 0.41011 0.1516 0.0
C1375 C 0.72339 0.35853 0.15057 0.0
C1376 C 0.65338 0.33215 0.13686 0.0
H1377 H 0.5771 0.24093 0.18391 0.0
H1378 H 0.61577 0.27348 0.17863 0.0
H1379 H 0.6166 0.30857 0.12978 0.0
H1380 H 0.68714 0.43246 0.14849 0.0
H1381 H 0.65868 0.38963 0.14563 0.0
H1382 H 0.69818 0.31369 0.16755 0.0
C1383 C 0.60664 0.262 0.1685 0.0
C1384 C 0.63475 0.30913 0.13779 0.0
C1385 C 0.58428 0.24353 0.1715 0.0
C1386 C 0.69765 0.41199 0.14889 0.0
C1387 C 0.68135 0.38744 0.14719 0.0
C1388 C 0.68089 0.31252 0.15895 0.0
C1389 C 0.61632 0.26652 0.15259 0.0
C1390 C 0.63855 0.2881 0.14966 0.0
C1391 C 0.69399 0.36042 0.14816 0.0
C1392 C 0.67624 0.33443 0.14771 0.0
H1393 H 0.57143 0.22167 0.13269 0.0
H1394 H 0.61065 0.25468 0.12735 0.0
H1395 H 0.66581 0.27356 0.16909 0.0
H1396 H 0.76234 0.3809 0.15398 0.0
H1397 H 0.73381 0.33803 0.15118 0.0
C1398 C 0.59271 0.74475 0.16792 0.0
C1399 C 0.56832 0.73899 0.1587 0.0
C1400 C 0.61772 0.72931 0.16535 0.0
C1401 C 0.65173 0.67862 0.1359 0.0
H1402 H 0.69572 0.65615 0.17344 0.0
C1403 C 0.71316 0.57417 0.1437 0.0
C1404 C 0.74082 0.57553 0.14978 0.0
C1405 C 0.69719 0.59892 0.14187 0.0
C1406 C 0.68396 0.66274 0.1628 0.0
H1407 H 0.55167 0.71271 0.1392 0.0
H1408 H 0.59413 0.6848 0.13557 0.0
H1409 H 0.65712 0.69015 0.17672 0.0
H1410 H 0.77402 0.6034 0.15834 0.0
H1411 H 0.74546 0.64697 0.15574 0.0
H1412 H 0.67733 0.6492 0.12233 0.0
C1413 C 0.59443 0.70176 0.14448 0.0
C1414 C 0.66183 0.68228 0.16465 0.0
C1415 C 0.56967 0.71742 0.14686 0.0
C1416 C 0.75283 0.60205 0.15338 0.0
C1417 C 0.73652 0.62682 0.15199 0.0
C1418 C 0.67346 0.65865 0.13414 0.0
C1419 C 0.61888 0.70751 0.15362 0.0
C1420 C 0.64486 0.68986 0.1513 0.0
C1421 C 0.70838 0.62529 0.14655 0.0
C1422 C 0.6893 0.65011 0.14765 0.0
H1423 H 0.59251 0.76106 0.17722 0.0
H1424 H 0.63616 0.73458 0.17254 0.0
H1425 H 0.63975 0.68456 0.12523 0.0
H1426 H 0.70349 0.55384 0.14102 0.0
H1427 H 0.67544 0.59722 0.13782 0.0
C1428 C 0.30473 0.54813 0.13569 0.0
C1429 C 0.30365 0.53678 0.15145 0.0
C1430 C 0.31996 0.57292 0.13257 0.0
C1431 C 0.37422 0.62177 0.14837 0.0
H1432 H 0.32914 0.68013 0.1274 0.0
C1433 C 0.37256 0.75038 0.1457 0.0
C1434 C 0.40102 0.75599 0.14189 0.0
C1435 C 0.36178 0.72285 0.14427 0.0
C1436 C 0.342 0.66401 0.1332 0.0
H1437 H 0.31915 0.54142 0.17606 0.0
H1438 H 0.34608 0.58471 0.17056 0.0
H1439 H 0.31032 0.63204 0.13002 0.0
H1440 H 0.43986 0.73747 0.13236 0.0
H1441 H 0.42111 0.68938 0.13021 0.0
H1442 H 0.40565 0.65395 0.15185 0.0
C1443 C 0.33506 0.57442 0.16064 0.0
C1444 C 0.33136 0.63645 0.13458 0.0
C1445 C 0.31958 0.54974 0.16381 0.0
C1446 C 0.418 0.73379 0.13575 0.0
C1447 C 0.40732 0.70624 0.1345 0.0
C1448 C 0.38501 0.64926 0.14681 0.0
C1449 C 0.33461 0.58674 0.14511 0.0
C1450 C 0.34719 0.61516 0.14239 0.0
C1451 C 0.37929 0.70039 0.13909 0.0
C1452 C 0.36881 0.67074 0.13943 0.0
H1453 H 0.29238 0.53888 0.12595 0.0
H1454 H 0.31949 0.58183 0.12045 0.0
H1455 H 0.38687 0.60574 0.1544 0.0
H1456 H 0.35888 0.76698 0.15041 0.0
H1457 H 0.34009 0.71891 0.14794 0.0
C1458 C 0.21191 0.36141 0.15254 0.0
C1459 C 0.21292 0.38658 0.14344 0.0
C1460 C 0.23308 0.34082 0.15075 0.0
C1461 C 0.30803 0.3375 0.13859 0.0
H1462 H 0.29919 0.2572 0.14755 0.0
C1463 C 0.40235 0.2686 0.1581 0.0
C1464 C 0.40408 0.24066 0.15216 0.0
C1465 C 0.37802 0.28488 0.15553 0.0
C1466 C 0.30204 0.27951 0.14483 0.0
H1467 H 0.23505 0.40871 0.1242 0.0
H1468 H 0.27136 0.37233 0.12061 0.0
H1469 H 0.2573 0.28687 0.14386 0.0
H1470 H 0.38184 0.20794 0.13873 0.0
H1471 H 0.33946 0.23649 0.13406 0.0
H1472 H 0.35267 0.33017 0.13931 0.0
C1473 C 0.25491 0.36891 0.12957 0.0
C1474 C 0.278 0.29658 0.14287 0.0
C1475 C 0.23397 0.38964 0.13151 0.0
C1476 C 0.38093 0.22929 0.14366 0.0
C1477 C 0.35665 0.24565 0.14099 0.0
C1478 C 0.33199 0.32044 0.14043 0.0
C1479 C 0.25546 0.34487 0.13968 0.0
C1480 C 0.28071 0.32589 0.13997 0.0
C1481 C 0.35495 0.2737 0.14683 0.0
C1482 C 0.32933 0.29134 0.14387 0.0
H1483 H 0.19602 0.35852 0.16189 0.0
H1484 H 0.23286 0.3227 0.15882 0.0
H1485 H 0.31104 0.36003 0.13662 0.0
H1486 H 0.41975 0.27778 0.16485 0.0
H1487 H 0.37722 0.30619 0.16051 0.0
C1488 C -0.00284 0.30155 0.46 0.0
C1489 C 0.99077 0.32915 0.45457 0.0
C1490 C -0.00322 0.29512 0.47667 0.0
C1491 C 0.96754 0.3215 0.51603 0.0
H1492 H 0.02633 0.27521 0.5354 0.0
C1493 C 0.96807 0.29096 0.58485 0.0
C1494 C 0.99452 0.29268 0.59265 0.0
C1495 C 0.96607 0.29365 0.56787 0.0
C1496 C 0.00973 0.28821 0.53019 0.0
H1497 H 0.98051 0.3719 0.46264 0.0
H1498 H 0.97971 0.36074 0.49138 0.0
H1499 H 0.02642 0.28312 0.50611 0.0
H1500 H 0.03937 0.30006 0.58849 0.0
H1501 H 0.03587 0.30437 0.55931 0.0
H1502 H 0.95126 0.32715 0.54017 0.0
C1503 C 0.9843 0.34382 0.48282 0.0
C1504 C 0.00964 0.29251 0.51335 0.0
C1505 C 0.9848 0.35023 0.46626 0.0
C1506 C 0.0187 0.29773 0.58303 0.0
C1507 C 0.01672 0.30025 0.56617 0.0
C1508 C 0.96753 0.31706 0.53286 0.0
C1509 C 0.98992 0.31614 0.48829 0.0
C1510 C 0.98884 0.30963 0.50606 0.0
C1511 C 0.99047 0.29801 0.5583 0.0
C1512 C 0.98892 0.30077 0.54022 0.0
H1513 H 0.00168 0.28475 0.45137 0.0
H1514 H 0.00118 0.27354 0.48044 0.0
H1515 H 0.95093 0.33447 0.51082 0.0
H1516 H 0.94901 0.28699 0.5918 0.0
H1517 H 0.94548 0.29178 0.56221 0.0
C1518 C 0.66411 0.96832 0.58186 0.0
C1519 C 0.6652 0.9946 0.59002 0.0
C1520 C 0.66611 0.96699 0.56486 0.0
C1521 C 0.68982 0.00877 0.52895 0.0
H1522 H 0.64107 0.95769 0.50489 0.0
C1523 C 0.68227 0.01349 0.45883 0.0
C1524 C 0.68192 0.98742 0.45044 0.0
C1525 C 0.67908 0.01439 0.47577 0.0
C1526 C 0.65505 0.9719 0.51141 0.0
H1527 H 0.67007 0.04 0.58656 0.0
H1528 H 0.67308 0.03775 0.55714 0.0
H1529 H 0.63893 0.95849 0.5345 0.0
H1530 H 0.67658 0.94196 0.45336 0.0
H1531 H 0.67144 0.94348 0.48276 0.0
H1532 H 0.70599 0.02217 0.50591 0.0
C1533 C 0.67085 0.01809 0.56381 0.0
C1534 C 0.65385 0.97231 0.52843 0.0
C1535 C 0.66878 0.01941 0.58074 0.0
C1536 C 0.67734 0.9624 0.45939 0.0
C1537 C 0.67409 0.9633 0.47629 0.0
C1538 C 0.69101 0.00836 0.51196 0.0
C1539 C 0.66943 0.9919 0.55559 0.0
C1540 C 0.67117 0.99081 0.53745 0.0
C1541 C 0.67534 0.98926 0.48477 0.0
C1542 C 0.67361 0.98997 0.50292 0.0
H1543 H 0.66117 0.94881 0.58858 0.0
H1544 H 0.66522 0.9464 0.55897 0.0
H1545 H 0.70384 0.02296 0.53545 0.0
H1546 H 0.68592 0.03317 0.45241 0.0
H1547 H 0.67972 0.03484 0.48182 0.0
C1548 C 0.95274 0.67954 0.5841 0.0
C1549 C 0.97765 0.68255 0.59333 0.0
C1550 C 0.95379 0.67841 0.5671 0.0
C1551 C 0.00284 0.66551 0.5324 0.0
H1552 H 0.94614 0.70619 0.50752 0.0
C1553 C 0.01724 0.68296 0.464 0.0
C1554 C 0.99386 0.6787 0.45375 0.0
C1555 C 0.01388 0.68445 0.48083 0.0
C1556 C 0.96196 0.69447 0.51426 0.0
H1557 H 0.0233 0.68646 0.59166 0.0
H1558 H 0.02518 0.68442 0.56211 0.0
H1559 H 0.94328 0.70573 0.53716 0.0
H1560 H 0.94833 0.67395 0.45314 0.0
H1561 H 0.94224 0.67655 0.48279 0.0
H1562 H 0.02158 0.65431 0.50959 0.0
C1563 C 0.00477 0.68261 0.56804 0.0
C1564 C 0.96033 0.69416 0.53129 0.0
C1565 C 0.00371 0.68373 0.58505 0.0
C1566 C 0.96669 0.67742 0.46073 0.0
C1567 C 0.96328 0.67882 0.47771 0.0
C1568 C 0.00447 0.66584 0.51542 0.0
C1569 C 0.97979 0.6802 0.5588 0.0
C1570 C 0.9809 0.67986 0.54061 0.0
C1571 C 0.98699 0.6816 0.48799 0.0
C1572 C 0.98425 0.68057 0.5061 0.0
H1573 H 0.93231 0.6781 0.59001 0.0
H1574 H 0.93417 0.67598 0.56047 0.0
H1575 H 0.01872 0.65376 0.53908 0.0
H1576 H 0.03838 0.68457 0.45897 0.0
H1577 H 0.03253 0.68745 0.48827 0.0
C1578 C 0.29982 0.97082 0.58431 0.0
C1579 C 0.30548 0.99464 0.59413 0.0
C1580 C 0.29567 0.97365 0.56758 0.0
C1581 C 0.31535 0.02027 0.53365 0.0
H1582 H 0.26332 0.9733 0.50906 0.0
C1583 C 0.31097 0.02833 0.46396 0.0
C1584 C 0.30835 0.00308 0.45494 0.0
C1585 C 0.30641 0.02865 0.48074 0.0
C1586 C 0.27818 0.98639 0.51569 0.0
H1587 H 0.31012 0.04032 0.59414 0.0
H1588 H 0.30283 0.04548 0.56473 0.0
H1589 H 0.26225 0.97226 0.53872 0.0
H1590 H 0.2978 0.95852 0.45638 0.0
H1591 H 0.29032 0.95871 0.4859 0.0
H1592 H 0.33197 0.03378 0.51079 0.0
C1593 C 0.30176 0.02448 0.57004 0.0
C1594 C 0.27749 0.98589 0.53274 0.0
C1595 C 0.30563 0.02164 0.5869 0.0
C1596 C 0.29978 0.9783 0.46302 0.0
C1597 C 0.29552 0.9785 0.47995 0.0
C1598 C 0.31617 0.02065 0.51664 0.0
C1599 C 0.29727 0.00041 0.56011 0.0
C1600 C 0.29622 0.00267 0.54197 0.0
C1601 C 0.29944 0.0036 0.48913 0.0
C1602 C 0.29771 0.00363 0.50735 0.0
H1603 H 0.29941 0.94976 0.58956 0.0
H1604 H 0.2925 0.95461 0.5604 0.0
H1605 H 0.33049 0.03306 0.54028 0.0
H1606 H 0.3171 0.04787 0.45802 0.0
H1607 H 0.30879 0.0486 0.48718 0.0
C1608 C 0.46671 0.82006 0.95889 0.0
C1609 C 0.48124 0.80001 0.94931 0.0
C1610 C 0.46982 0.82055 0.97576 0.0
C1611 C 0.51369 0.79384 1.01024 0.0
H1612 H 0.44597 0.8127 0.03476 0.0
C1613 C 0.51691 0.81856 0.07927 0.0
C1614 C 0.49333 0.81209 0.08911 0.0
C1615 C 0.51608 0.81467 0.06241 0.0
C1616 C 0.46506 0.80699 0.02821 0.0
H1617 H 0.51122 0.76527 0.94988 0.0
H1618 H 0.51648 0.76564 0.97958 0.0
H1619 H 0.44397 0.81048 1.00537 0.0
H1620 H 0.45056 0.7954 0.08857 0.0
H1621 H 0.44943 0.78774 0.05931 0.0
H1622 H 0.53453 0.78951 0.03319 0.0
C1623 C 0.50286 0.78133 0.974 0.0
C1624 C 0.46404 0.80619 1.01122 0.0
C1625 C 0.49995 0.78108 0.95697 0.0
C1626 C 0.46918 0.80066 0.08154 0.0
C1627 C 0.46843 0.79657 0.06463 0.0
C1628 C 0.51466 0.79445 0.02729 0.0
C1629 C 0.48728 0.8007 0.98368 0.0
C1630 C 0.48842 0.80006 1.00191 0.0
C1631 C 0.49175 0.80388 0.05475 0.0
C1632 C 0.49043 0.80138 0.03656 0.0
H1633 H 0.45245 0.83517 0.95329 0.0
H1634 H 0.45818 0.83643 0.9826 0.0
H1635 H 0.53295 0.78909 1.0036 0.0
H1636 H 0.53615 0.82689 0.08452 0.0
H1637 H 0.53441 0.82088 0.05535 0.0
C1638 C 0.19969 0.51597 0.08152 0.0
C1639 C 0.18812 0.4957 0.09217 0.0
C1640 C 0.19652 0.51329 0.0647 0.0
C1641 C 0.15215 0.47872 0.03324 0.0
H1642 H 0.21397 0.49974 1.00465 0.0
C1643 C 0.14694 0.46192 0.96343 0.0
C1644 C 0.15817 0.48341 0.95347 0.0
C1645 C 0.15093 0.46248 0.98028 0.0
C1646 C 0.19636 0.49407 1.01243 0.0
H1647 H 0.16413 0.45653 0.09322 0.0
H1648 H 0.15893 0.4516 0.06383 0.0
H1649 H 0.22045 0.50193 0.03397 0.0
H1650 H 0.18213 0.52271 0.95375 0.0
H1651 H 0.18912 0.52364 0.983 0.0
H1652 H 0.12803 0.47097 1.01167 0.0
C1653 C 0.17025 0.4698 0.06857 0.0
C1654 C 0.20008 0.49531 0.02929 0.0
C1655 C 0.17349 0.47246 0.08545 0.0
C1656 C 0.17358 0.50547 0.96088 0.0
C1657 C 0.17758 0.50602 0.97774 0.0
C1658 C 0.14843 0.47747 1.01636 0.0
C1659 C 0.18168 0.49023 0.05795 0.0
C1660 C 0.17798 0.48783 0.03995 0.0
C1661 C 0.1663 0.48455 0.9877 0.0
C1662 C 0.17043 0.48529 1.00571 0.0
H1663 H 0.21142 0.53395 0.08616 0.0
H1664 H 0.20536 0.52962 0.05698 0.0
H1665 H 0.13451 0.47318 0.04103 0.0
H1666 H 0.13531 0.44439 0.95817 0.0
H1667 H 0.14228 0.44534 0.98749 0.0
C1668 C 0.51686 0.19135 0.08321 0.0
C1669 C 0.49307 0.17781 0.08992 0.0
C1670 C 0.51747 0.19862 0.06665 0.0
C1671 C 0.47116 0.20701 0.0299 0.0
H1672 H 0.54052 0.19086 1.00639 0.0
C1673 C 0.47736 0.19785 0.95908 0.0
C1674 C 0.50234 0.20733 0.95155 0.0
C1675 C 0.47505 0.19767 0.97614 0.0
C1676 C 0.52103 0.19589 1.01275 0.0
H1677 H 0.4506 0.16303 0.08463 0.0
H1678 H 0.45181 0.17507 0.05603 0.0
H1679 H 0.5393 0.18536 0.03574 0.0
H1680 H 0.54348 0.22608 0.95595 0.0
H1681 H 0.53938 0.22613 0.98539 0.0
H1682 H 0.4528 0.21702 1.00677 0.0
C1683 C 0.47006 0.18023 0.06341 0.0
C1684 C 0.52037 0.1928 0.02966 0.0
C1685 C 0.4695 0.17295 0.07985 0.0
C1686 C 0.52419 0.21806 0.96138 0.0
C1687 C 0.52188 0.21797 0.9783 0.0
C1688 C 0.47181 0.21004 1.01294 0.0
C1689 C 0.4942 0.19272 0.05645 0.0
C1690 C 0.49538 0.1981 0.03851 0.0
C1691 C 0.49764 0.20706 0.98598 0.0
C1692 C 0.49674 0.20442 1.00411 0.0
H1693 H 0.53535 0.19539 0.09061 0.0
H1694 H 0.53631 0.2086 0.06181 0.0
H1695 H 0.4516 0.2117 0.03626 0.0
H1696 H 0.46024 0.18934 0.95184 0.0
H1697 H 0.45605 0.18905 0.9816 0.0
C1698 C 0.82879 0.55182 0.96319 0.0
C1699 C 0.83495 0.52833 0.95312 0.0
C1700 C 0.82688 0.54886 0.98005 0.0
C1701 C 0.84686 0.5009 1.01402 0.0
H1702 H 0.79019 0.54405 0.03782 0.0
C1703 C 0.82298 0.47878 0.08143 0.0
C1704 C 0.81963 0.50211 0.09201 0.0
C1705 C 0.82415 0.48256 0.06462 0.0
C1706 C 0.80633 0.53208 0.03139 0.0
H1707 H 0.84413 0.48315 0.95327 0.0
H1708 H 0.84014 0.47784 0.98263 0.0
H1709 H 0.79362 0.54886 1.00837 0.0
H1710 H 0.81397 0.54778 0.09296 0.0
H1711 H 0.81578 0.55442 0.06345 0.0
H1712 H 0.85937 0.48392 0.03702 0.0
C1713 C 0.83716 0.49875 0.97743 0.0
C1714 C 0.80835 0.53483 1.01447 0.0
C1715 C 0.83916 0.50172 0.96051 0.0
C1716 C 0.81645 0.52933 0.08521 0.0
C1717 C 0.81753 0.53312 0.06829 0.0
C1718 C 0.84475 0.49806 0.03091 0.0
C1719 C 0.83092 0.52228 0.98746 0.0
C1720 C 0.82864 0.51925 1.00552 0.0
C1721 C 0.82187 0.50978 0.0578 0.0
C1722 C 0.8244 0.51352 0.03983 0.0
H1723 H 0.82499 0.57261 0.95807 0.0
H1724 H 0.82243 0.56759 0.9873 0.0
H1725 H 0.86312 0.48896 1.00767 0.0
H1726 H 0.82473 0.4574 0.08612 0.0
H1727 H 0.82677 0.46401 0.05694 0.0
loop_
_geom_bond_atom_site_label_1
_geom_bond_atom_site_label_2
_geom_bond_distance
_geom_bond_site_symmetry_2
_ccdc_geom_bond_type
C0 C1 1.351 . S
C0 N3 1.368 1_655 S
C0 H5 0.931 . S
C1 C0 1.351 . S
C1 N2 1.373 1_655 S
C1 H29 0.930 . S
N2 C1 1.373 1_455 S
N2 C4 1.340 . S
N3 C0 1.368 1_455 S
N3 C4 1.321 . S
N3 Co6 2.135 . S
C4 N2 1.340 . S
C4 N3 1.321 . S
C4 H28 0.930 . S
H5 C0 0.931 . S
Co6 N3 2.135 . S
Co6 N9 2.121 . S
Co6 O14 2.055 . S
Co6 O17 2.039 . S
Co6 N20 2.140 1_455 S
C7 O8 1.227 . S
C7 O17 1.265 . S
O8 C7 1.227 . S
N9 Co6 2.121 . S
N9 C11 1.375 . S
N9 C12 1.313 . S
C10 C11 1.338 . S
C10 N13 1.377 . S
C10 H30 0.930 . S
C11 N9 1.375 . S
C11 C10 1.338 . S
C11 H15 0.931 . S
C12 N9 1.313 . S
C12 N13 1.344 . S
C12 H16 0.930 . S
N13 C10 1.377 . S
N13 C12 1.344 . S
O14 Co6 2.055 . S
O14 C18 1.253 . S
H15 C11 0.931 . S
H16 C12 0.930 . S
O17 Co6 2.039 . S
O17 C7 1.265 . S
C18 O14 1.253 . S
C18 O19 1.227 1_455 S
O19 C18 1.227 1_655 S
N20 Co6 2.140 1_655 S
N20 C23 1.346 . S
N20 C24 1.345 . S
C21 C22 1.387 . S
C21 C25 1.391 . S
C22 C21 1.387 . S
C22 C23 1.369 . S
C22 H31 0.929 . S
C23 N20 1.346 . S
C23 C22 1.369 . S
C23 H26 0.928 . S
C24 N20 1.345 . S
C24 C25 1.371 . S
C24 H27 0.931 . S
C25 C21 1.391 . S
C25 C24 1.371 . S
C25 H32 0.930 . S
H26 C23 0.928 . S
H27 C24 0.931 . S
H28 C4 0.930 . S
H29 C1 0.930 . S
H30 C10 0.930 . S
H31 C22 0.929 . S
H32 C25 0.930 . S
C33 C34 1.351 . S
C33 N36 1.368 1_565 S
C33 H38 0.931 . S
C34 C33 1.351 . S
C34 N35 1.373 1_565 S
C34 H62 0.930 . S
N35 C34 1.373 1_545 S
N35 C37 1.340 . S
N36 C33 1.368 1_545 S
N36 C37 1.321 . S
N36 Co39 2.135 . S
C37 N35 1.340 . S
C37 N36 1.321 . S
C37 H61 0.930 . S
H38 C33 0.931 . S
Co39 N36 2.135 . S
Co39 N42 2.121 . S
Co39 O47 2.055 . S
Co39 O50 2.039 . S
Co39 N53 2.140 1_545 S
C40 O41 1.227 . S
C40 O50 1.265 . S
O41 C40 1.227 . S
N42 Co39 2.121 . S
N42 C44 1.375 . S
N42 C45 1.313 . S
C43 C44 1.338 . S
C43 N46 1.377 . S
C43 H63 0.930 . S
C44 N42 1.375 . S
C44 C43 1.338 . S
C44 H48 0.931 . S
C45 N42 1.313 . S
C45 N46 1.344 . S
C45 H49 0.930 . S
N46 C43 1.377 . S
N46 C45 1.344 . S
O47 Co39 2.055 . S
O47 C51 1.253 . S
H48 C44 0.931 . S
H49 C45 0.930 . S
O50 Co39 2.039 . S
O50 C40 1.265 . S
C51 O47 1.253 . S
C51 O52 1.227 1_545 S
O52 C51 1.227 1_565 S
N53 Co39 2.140 1_565 S
N53 C56 1.346 . S
N53 C57 1.345 . S
C54 C55 1.387 . S
C54 C58 1.391 . S
C55 C54 1.387 . S
C55 C56 1.369 . S
C55 H64 0.929 . S
C56 N53 1.346 . S
C56 C55 1.369 . S
C56 H59 0.928 . S
C57 N53 1.345 . S
C57 C58 1.371 . S
C57 H60 0.931 . S
C58 C54 1.391 . S
C58 C57 1.371 . S
C58 H65 0.930 . S
H59 C56 0.928 . S
H60 C57 0.931 . S
H61 C37 0.930 . S
H62 C34 0.930 . S
H63 C43 0.930 . S
H64 C55 0.929 . S
H65 C58 0.930 . S
C66 C67 1.351 . S
C66 N69 1.368 1_455 S
C66 H71 0.931 . S
C67 C66 1.351 . S
C67 N68 1.373 1_455 S
C67 H95 0.930 . S
N68 C67 1.373 1_655 S
N68 C70 1.340 . S
N69 C66 1.368 1_655 S
N69 C70 1.321 . S
N69 Co72 2.135 . S
C70 N68 1.340 . S
C70 N69 1.321 . S
C70 H94 0.930 . S
H71 C66 0.931 . S
Co72 N69 2.135 . S
Co72 N75 2.121 . S
Co72 O80 2.055 . S
Co72 O83 2.039 . S
Co72 N86 2.140 1_655 S
C73 O74 1.227 . S
C73 O83 1.265 . S
O74 C73 1.227 . S
N75 Co72 2.121 . S
N75 C77 1.375 . S
N75 C78 1.313 . S
C76 C77 1.338 . S
C76 N79 1.377 . S
C76 H96 0.930 . S
C77 N75 1.375 . S
C77 C76 1.338 . S
C77 H81 0.931 . S
C78 N75 1.313 . S
C78 N79 1.344 . S
C78 H82 0.930 . S
N79 C76 1.377 . S
N79 C78 1.344 . S
O80 Co72 2.055 . S
O80 C84 1.253 . S
H81 C77 0.931 . S
H82 C78 0.930 . S
O83 Co72 2.039 . S
O83 C73 1.265 . S
C84 O80 1.253 . S
C84 O85 1.227 1_655 S
O85 C84 1.227 1_455 S
N86 Co72 2.140 1_455 S
N86 C89 1.346 . S
N86 C90 1.345 . S
C87 C88 1.387 . S
C87 C91 1.391 . S
C88 C87 1.387 . S
C88 C89 1.369 . S
C88 H97 0.929 . S
C89 N86 1.346 . S
C89 C88 1.369 . S
C89 H92 0.928 . S
C90 N86 1.345 . S
C90 C91 1.371 . S
C90 H93 0.931 . S
C91 C87 1.391 . S
C91 C90 1.371 . S
C91 H98 0.930 . S
H92 C89 0.928 . S
H93 C90 0.931 . S
H94 C70 0.930 . S
H95 C67 0.930 . S
H96 C76 0.930 . S
H97 C88 0.929 . S
H98 C91 0.930 . S
C99 C100 1.351 . S
C99 N102 1.368 1_545 S
C99 H104 0.931 . S
C100 C99 1.351 . S
C100 N101 1.373 1_545 S
C100 H128 0.930 . S
N101 C100 1.373 1_565 S
N101 C103 1.340 . S
N102 C99 1.368 1_565 S
N102 C103 1.321 . S
N102 Co105 2.135 . S
C103 N101 1.340 . S
C103 N102 1.321 . S
C103 H127 0.930 . S
H104 C99 0.931 . S
Co105 N102 2.135 . S
Co105 N108 2.121 . S
Co105 O113 2.055 . S
Co105 O116 2.039 . S
Co105 N119 2.140 1_565 S
C106 O107 1.227 . S
C106 O116 1.265 . S
O107 C106 1.227 . S
N108 Co105 2.121 . S
N108 C110 1.375 . S
N108 C111 1.313 . S
C109 C110 1.338 . S
C109 N112 1.377 . S
C109 H129 0.930 . S
C110 N108 1.375 . S
C110 C109 1.338 . S
C110 H114 0.931 . S
C111 N108 1.313 . S
C111 N112 1.344 . S
C111 H115 0.930 . S
N112 C109 1.377 . S
N112 C111 1.344 . S
O113 Co105 2.055 . S
O113 C117 1.253 . S
H114 C110 0.931 . S
H115 C111 0.930 . S
O116 Co105 2.039 . S
O116 C106 1.265 . S
C117 O113 1.253 . S
C117 O118 1.227 1_565 S
O118 C117 1.227 1_545 S
N119 Co105 2.140 1_545 S
N119 C122 1.346 . S
N119 C123 1.345 . S
C120 C121 1.387 . S
C120 C124 1.391 . S
C121 C120 1.387 . S
C121 C122 1.369 . S
C121 H130 0.929 . S
C122 N119 1.346 . S
C122 C121 1.369 . S
C122 H125 0.928 . S
C123 N119 1.345 . S
C123 C124 1.371 . S
C123 H126 0.931 . S
C124 C120 1.391 . S
C124 C123 1.371 . S
C124 H131 0.930 . S
H125 C122 0.928 . S
H126 C123 0.931 . S
H127 C103 0.930 . S
H128 C100 0.930 . S
H129 C109 0.930 . S
H130 C121 0.929 . S
H131 C124 0.930 . S
C132 C133 1.351 . S
C132 N135 1.368 1_655 S
C132 H137 0.931 . S
C133 C132 1.351 . S
C133 N134 1.373 1_655 S
C133 H161 0.930 . S
N134 C133 1.373 1_455 S
N134 C136 1.340 . S
N135 C132 1.368 1_455 S
N135 C136 1.321 . S
N135 Co138 2.135 . S
C136 N134 1.340 . S
C136 N135 1.321 . S
C136 H160 0.930 . S
H137 C132 0.931 . S
Co138 N135 2.135 . S
Co138 N141 2.121 . S
Co138 O146 2.055 . S
Co138 O149 2.039 . S
Co138 N152 2.140 1_455 S
C139 O140 1.227 . S
C139 O149 1.265 . S
O140 C139 1.227 . S
N141 Co138 2.121 . S
N141 C143 1.375 . S
N141 C144 1.313 . S
C142 C143 1.338 . S
C142 N145 1.377 . S
C142 H162 0.930 . S
C143 N141 1.375 . S
C143 C142 1.338 . S
C143 H147 0.931 . S
C144 N141 1.313 . S
C144 N145 1.344 . S
C144 H148 0.930 . S
N145 C142 1.377 . S
N145 C144 1.344 . S
O146 Co138 2.055 . S
O146 C150 1.253 . S
H147 C143 0.931 . S
H148 C144 0.930 . S
O149 Co138 2.039 . S
O149 C139 1.265 . S
C150 O146 1.253 . S
C150 O151 1.227 1_455 S
O151 C150 1.227 1_655 S
N152 Co138 2.140 1_655 S
N152 C155 1.346 . S
N152 C156 1.345 . S
C153 C154 1.387 . S
C153 C157 1.391 . S
C154 C153 1.387 . S
C154 C155 1.369 . S
C154 H163 0.929 . S
C155 N152 1.346 . S
C155 C154 1.369 . S
C155 H158 0.928 . S
C156 N152 1.345 . S
C156 C157 1.371 . S
C156 H159 0.931 . S
C157 C153 1.391 . S
C157 C156 1.371 . S
C157 H164 0.930 . S
H158 C155 0.928 . S
H159 C156 0.931 . S
H160 C136 0.930 . S
H161 C133 0.930 . S
H162 C142 0.930 . S
H163 C154 0.929 . S
H164 C157 0.930 . S
C165 C166 1.351 . S
C165 N168 1.368 1_565 S
C165 H170 0.931 . S
C166 C165 1.351 . S
C166 N167 1.373 1_565 S
C166 H194 0.930 . S
N167 C166 1.373 1_545 S
N167 C169 1.340 . S
N168 C165 1.368 1_545 S
N168 C169 1.321 . S
N168 Co171 2.135 . S
C169 N167 1.340 . S
C169 N168 1.321 . S
C169 H193 0.930 . S
H170 C165 0.931 . S
Co171 N168 2.135 . S
Co171 N174 2.121 . S
Co171 O179 2.055 . S
Co171 O182 2.039 . S
Co171 N185 2.140 1_545 S
C172 O173 1.227 . S
C172 O182 1.265 . S
O173 C172 1.227 . S
N174 Co171 2.121 . S
N174 C176 1.375 . S
N174 C177 1.313 . S
C175 C176 1.338 . S
C175 N178 1.377 . S
C175 H195 0.930 . S
C176 N174 1.375 . S
C176 C175 1.338 . S
C176 H180 0.931 . S
C177 N174 1.313 . S
C177 N178 1.344 . S
C177 H181 0.930 . S
N178 C175 1.377 . S
N178 C177 1.344 . S
O179 Co171 2.055 . S
O179 C183 1.253 . S
H180 C176 0.931 . S
H181 C177 0.930 . S
O182 Co171 2.039 . S
O182 C172 1.265 . S
C183 O179 1.253 . S
C183 O184 1.227 1_545 S
O184 C183 1.227 1_565 S
N185 Co171 2.140 1_565 S
N185 C188 1.346 . S
N185 C189 1.345 . S
C186 C187 1.387 . S
C186 C190 1.391 . S
C187 C186 1.387 . S
C187 C188 1.369 . S
C187 H196 0.929 . S
C188 N185 1.346 . S
C188 C187 1.369 . S
C188 H191 0.928 . S
C189 N185 1.345 . S
C189 C190 1.371 . S
C189 H192 0.931 . S
C190 C186 1.391 . S
C190 C189 1.371 . S
C190 H197 0.930 . S
H191 C188 0.928 . S
H192 C189 0.931 . S
H193 C169 0.930 . S
H194 C166 0.930 . S
H195 C175 0.930 . S
H196 C187 0.929 . S
H197 C190 0.930 . S
C198 C199 1.351 . S
C198 N201 1.368 1_455 S
C198 H203 0.931 . S
C199 C198 1.351 . S
C199 N200 1.373 1_455 S
C199 H227 0.930 . S
N200 C199 1.373 1_655 S
N200 C202 1.340 . S
N201 C198 1.368 1_655 S
N201 C202 1.321 . S
N201 Co204 2.135 . S
C202 N200 1.340 . S
C202 N201 1.321 . S
C202 H226 0.930 . S
H203 C198 0.931 . S
Co204 N201 2.135 . S
Co204 N207 2.121 . S
Co204 O212 2.055 . S
Co204 O215 2.039 . S
Co204 N218 2.140 1_655 S
C205 O206 1.227 . S
C205 O215 1.265 . S
O206 C205 1.227 . S
N207 Co204 2.121 . S
N207 C209 1.375 . S
N207 C210 1.313 . S
C208 C209 1.338 . S
C208 N211 1.377 . S
C208 H228 0.930 . S
C209 N207 1.375 . S
C209 C208 1.338 . S
C209 H213 0.931 . S
C210 N207 1.313 . S
C210 N211 1.344 . S
C210 H214 0.930 . S
N211 C208 1.377 . S
N211 C210 1.344 . S
O212 Co204 2.055 . S
O212 C216 1.253 . S
H213 C209 0.931 . S
H214 C210 0.930 . S
O215 Co204 2.039 . S
O215 C205 1.265 . S
C216 O212 1.253 . S
C216 O217 1.227 1_655 S
O217 C216 1.227 1_455 S
N218 Co204 2.140 1_455 S
N218 C221 1.346 . S
N218 C222 1.345 . S
C219 C220 1.387 . S
C219 C223 1.391 . S
C220 C219 1.387 . S
C220 C221 1.369 . S
C220 H229 0.929 . S
C221 N218 1.346 . S
C221 C220 1.369 . S
C221 H224 0.928 . S
C222 N218 1.345 . S
C222 C223 1.371 . S
C222 H225 0.931 . S
C223 C219 1.391 . S
C223 C222 1.371 . S
C223 H230 0.930 . S
H224 C221 0.928 . S
H225 C222 0.931 . S
H226 C202 0.930 . S
H227 C199 0.930 . S
H228 C208 0.930 . S
H229 C220 0.929 . S
H230 C223 0.930 . S
C231 C232 1.351 . S
C231 N234 1.368 1_545 S
C231 H236 0.931 . S
C232 C231 1.351 . S
C232 N233 1.373 1_545 S
C232 H260 0.930 . S
N233 C232 1.373 1_565 S
N233 C235 1.340 . S
N234 C231 1.368 1_565 S
N234 C235 1.321 . S
N234 Co237 2.135 . S
C235 N233 1.340 . S
C235 N234 1.321 . S
C235 H259 0.930 . S
H236 C231 0.931 . S
Co237 N234 2.135 . S
Co237 N240 2.121 . S
Co237 O245 2.055 . S
Co237 O248 2.039 . S
Co237 N251 2.140 1_565 S
C238 O239 1.227 . S
C238 O248 1.265 . S
O239 C238 1.227 . S
N240 Co237 2.121 . S
N240 C242 1.375 . S
N240 C243 1.313 . S
C241 C242 1.338 . S
C241 N244 1.377 . S
C241 H261 0.930 . S
C242 N240 1.375 . S
C242 C241 1.338 . S
C242 H246 0.931 . S
C243 N240 1.313 . S
C243 N244 1.344 . S
C243 H247 0.930 . S
N244 C241 1.377 . S
N244 C243 1.344 . S
O245 Co237 2.055 . S
O245 C249 1.253 . S
H246 C242 0.931 . S
H247 C243 0.930 . S
O248 Co237 2.039 . S
O248 C238 1.265 . S
C249 O245 1.253 . S
C249 O250 1.227 1_565 S
O250 C249 1.227 1_545 S
N251 Co237 2.140 1_545 S
N251 C254 1.346 . S
N251 C255 1.345 . S
C252 C253 1.387 . S
C252 C256 1.391 . S
C253 C252 1.387 . S
C253 C254 1.369 . S
C253 H262 0.929 . S
C254 N251 1.346 . S
C254 C253 1.369 . S
C254 H257 0.928 . S
C255 N251 1.345 . S
C255 C256 1.371 . S
C255 H258 0.931 . S
C256 C252 1.391 . S
C256 C255 1.371 . S
C256 H263 0.930 . S
H257 C254 0.928 . S
H258 C255 0.931 . S
H259 C235 0.930 . S
H260 C232 0.930 . S
H261 C241 0.930 . S
H262 C253 0.929 . S
H263 C256 0.930 . S
C264 C265 1.351 . S
C264 N267 1.368 . S
C264 H269 0.931 . S
C265 C264 1.351 . S
C265 N266 1.373 . S
C265 H293 0.930 . S
N266 C265 1.373 . S
N266 C268 1.340 . S
N267 C264 1.368 . S
N267 C268 1.321 . S
N267 Co270 2.135 . S
C268 N266 1.340 . S
C268 N267 1.321 . S
C268 H292 0.930 . S
H269 C264 0.931 . S
Co270 N267 2.135 . S
Co270 N273 2.121 . S
Co270 O278 2.055 . S
Co270 O281 2.039 . S
Co270 N284 2.140 . S
C271 O272 1.227 . S
C271 O281 1.265 . S
O272 C271 1.227 . S
N273 Co270 2.121 . S
N273 C275 1.375 . S
N273 C276 1.313 . S
C274 C275 1.338 . S
C274 N277 1.377 . S
C274 H294 0.930 . S
C275 N273 1.375 . S
C275 C274 1.338 . S
C275 H279 0.931 . S
C276 N273 1.313 . S
C276 N277 1.344 . S
C276 H280 0.930 . S
N277 C274 1.377 . S
N277 C276 1.344 . S
O278 Co270 2.055 . S
O278 C282 1.253 . S
H279 C275 0.931 . S
H280 C276 0.930 . S
O281 Co270 2.039 . S
O281 C271 1.265 . S
C282 O278 1.253 . S
C282 O283 1.227 . S
O283 C282 1.227 . S
N284 Co270 2.140 . S
N284 C287 1.346 . S
N284 C288 1.345 . S
C285 C286 1.387 . S
C285 C289 1.391 . S
C286 C285 1.387 . S
C286 C287 1.369 . S
C286 H295 0.929 . S
C287 N284 1.346 . S
C287 C286 1.369 . S
C287 H290 0.928 . S
C288 N284 1.345 . S
C288 C289 1.371 . S
C288 H291 0.931 . S
C289 C285 1.391 . S
C289 C288 1.371 . S
C289 H296 0.930 . S
H290 C287 0.928 . S
H291 C288 0.931 . S
H292 C268 0.930 . S
H293 C265 0.930 . S
H294 C274 0.930 . S
H295 C286 0.929 . S
H296 C289 0.930 . S
C297 C298 1.351 . S
C297 N300 1.368 . S
C297 H302 0.931 . S
C298 C297 1.351 . S
C298 N299 1.373 . S
C298 H326 0.930 . S
N299 C298 1.373 . S
N299 C301 1.340 . S
N300 C297 1.368 . S
N300 C301 1.321 . S
N300 Co303 2.135 . S
C301 N299 1.340 . S
C301 N300 1.321 . S
C301 H325 0.930 . S
H302 C297 0.931 . S
Co303 N300 2.135 . S
Co303 N306 2.121 . S
Co303 O311 2.055 . S
Co303 O314 2.039 . S
Co303 N317 2.140 . S
C304 O305 1.227 . S
C304 O314 1.265 . S
O305 C304 1.227 . S
N306 Co303 2.121 . S
N306 C308 1.375 . S
N306 C309 1.313 . S
C307 C308 1.338 . S
C307 N310 1.377 . S
C307 H327 0.930 . S
C308 N306 1.375 . S
C308 C307 1.338 . S
C308 H312 0.931 . S
C309 N306 1.313 . S
C309 N310 1.344 . S
C309 H313 0.930 . S
N310 C307 1.377 . S
N310 C309 1.344 . S
O311 Co303 2.055 . S
O311 C315 1.253 . S
H312 C308 0.931 . S
H313 C309 0.930 . S
O314 Co303 2.039 . S
O314 C304 1.265 . S
C315 O311 1.253 . S
C315 O316 1.227 . S
O316 C315 1.227 . S
N317 Co303 2.140 . S
N317 C320 1.346 . S
N317 C321 1.345 . S
C318 C319 1.387 . S
C318 C322 1.391 . S
C319 C318 1.387 . S
C319 C320 1.369 . S
C319 H328 0.929 . S
C320 N317 1.346 . S
C320 C319 1.369 . S
C320 H323 0.928 . S
C321 N317 1.345 . S
C321 C322 1.371 . S
C321 H324 0.931 . S
C322 C318 1.391 . S
C322 C321 1.371 . S
C322 H329 0.930 . S
H323 C320 0.928 . S
H324 C321 0.931 . S
H325 C301 0.930 . S
H326 C298 0.930 . S
H327 C307 0.930 . S
H328 C319 0.929 . S
H329 C322 0.930 . S
C330 C331 1.351 . S
C330 N333 1.368 . S
C330 H335 0.931 . S
C331 C330 1.351 . S
C331 N332 1.373 . S
C331 H359 0.930 . S
N332 C331 1.373 . S
N332 C334 1.340 . S
N333 C330 1.368 . S
N333 C334 1.321 . S
N333 Co336 2.135 . S
C334 N332 1.340 . S
C334 N333 1.321 . S
C334 H358 0.930 . S
H335 C330 0.931 . S
Co336 N333 2.135 . S
Co336 N339 2.121 . S
Co336 O344 2.055 . S
Co336 O347 2.039 . S
Co336 N350 2.140 . S
C337 O338 1.227 . S
C337 O347 1.265 . S
O338 C337 1.227 . S
N339 Co336 2.121 . S
N339 C341 1.375 . S
N339 C342 1.313 . S
C340 C341 1.338 . S
C340 N343 1.377 . S
C340 H360 0.930 . S
C341 N339 1.375 . S
C341 C340 1.338 . S
C341 H345 0.931 . S
C342 N339 1.313 . S
C342 N343 1.344 . S
C342 H346 0.930 . S
N343 C340 1.377 . S
N343 C342 1.344 . S
O344 Co336 2.055 . S
O344 C348 1.253 . S
H345 C341 0.931 . S
H346 C342 0.930 . S
O347 Co336 2.039 . S
O347 C337 1.265 . S
C348 O344 1.253 . S
C348 O349 1.227 . S
O349 C348 1.227 . S
N350 Co336 2.140 . S
N350 C353 1.346 . S
N350 C354 1.345 . S
C351 C352 1.387 . S
C351 C355 1.391 . S
C352 C351 1.387 . S
C352 C353 1.369 . S
C352 H361 0.929 . S
C353 N350 1.346 . S
C353 C352 1.369 . S
C353 H356 0.928 . S
C354 N350 1.345 . S
C354 C355 1.371 . S
C354 H357 0.931 . S
C355 C351 1.391 . S
C355 C354 1.371 . S
C355 H362 0.930 . S
H356 C353 0.928 . S
H357 C354 0.931 . S
H358 C334 0.930 . S
H359 C331 0.930 . S
H360 C340 0.930 . S
H361 C352 0.929 . S
H362 C355 0.930 . S
C363 C364 1.351 . S
C363 N366 1.368 . S
C363 H368 0.931 . S
C364 C363 1.351 . S
C364 N365 1.373 . S
C364 H392 0.930 . S
N365 C364 1.373 . S
N365 C367 1.340 . S
N366 C363 1.368 . S
N366 C367 1.321 . S
N366 Co369 2.135 . S
C367 N365 1.340 . S
C367 N366 1.321 . S
C367 H391 0.930 . S
H368 C363 0.931 . S
Co369 N366 2.135 . S
Co369 N372 2.121 . S
Co369 O377 2.055 . S
Co369 O380 2.039 . S
Co369 N383 2.140 . S
C370 O371 1.227 . S
C370 O380 1.265 . S
O371 C370 1.227 . S
N372 Co369 2.121 . S
N372 C374 1.375 . S
N372 C375 1.313 . S
C373 C374 1.338 . S
C373 N376 1.377 . S
C373 H393 0.930 . S
C374 N372 1.375 . S
C374 C373 1.338 . S
C374 H378 0.931 . S
C375 N372 1.313 . S
C375 N376 1.344 . S
C375 H379 0.930 . S
N376 C373 1.377 . S
N376 C375 1.344 . S
O377 Co369 2.055 . S
O377 C381 1.253 . S
H378 C374 0.931 . S
H379 C375 0.930 . S
O380 Co369 2.039 . S
O380 C370 1.265 . S
C381 O377 1.253 . S
C381 O382 1.227 . S
O382 C381 1.227 . S
N383 Co369 2.140 . S
N383 C386 1.346 . S
N383 C387 1.345 . S
C384 C385 1.387 . S
C384 C388 1.391 . S
C385 C384 1.387 . S
C385 C386 1.369 . S
C385 H394 0.929 . S
C386 N383 1.346 . S
C386 C385 1.369 . S
C386 H389 0.928 . S
C387 N383 1.345 . S
C387 C388 1.371 . S
C387 H390 0.931 . S
C388 C384 1.391 . S
C388 C387 1.371 . S
C388 H395 0.930 . S
H389 C386 0.928 . S
H390 C387 0.931 . S
H391 C367 0.930 . S
H392 C364 0.930 . S
H393 C373 0.930 . S
H394 C385 0.929 . S
H395 C388 0.930 . S
C396 C397 1.351 . S
C396 N399 1.368 . S
C396 H401 0.931 . S
C397 C396 1.351 . S
C397 N398 1.373 . S
C397 H425 0.930 . S
N398 C397 1.373 . S
N398 C400 1.340 . S
N399 C396 1.368 . S
N399 C400 1.321 . S
N399 Co402 2.135 . S
C400 N398 1.340 . S
C400 N399 1.321 . S
C400 H424 0.930 . S
H401 C396 0.931 . S
Co402 N399 2.135 . S
Co402 N405 2.121 . S
Co402 O410 2.055 . S
Co402 O413 2.039 . S
Co402 N416 2.140 . S
C403 O404 1.227 . S
C403 O413 1.265 . S
O404 C403 1.227 . S
N405 Co402 2.121 . S
N405 C407 1.375 . S
N405 C408 1.313 . S
C406 C407 1.338 . S
C406 N409 1.377 . S
C406 H426 0.930 . S
C407 N405 1.375 . S
C407 C406 1.338 . S
C407 H411 0.931 . S
C408 N405 1.313 . S
C408 N409 1.344 . S
C408 H412 0.930 . S
N409 C406 1.377 . S
N409 C408 1.344 . S
O410 Co402 2.055 . S
O410 C414 1.253 . S
H411 C407 0.931 . S
H412 C408 0.930 . S
O413 Co402 2.039 . S
O413 C403 1.265 . S
C414 O410 1.253 . S
C414 O415 1.227 . S
O415 C414 1.227 . S
N416 Co402 2.140 . S
N416 C419 1.346 . S
N416 C420 1.345 . S
C417 C418 1.387 . S
C417 C421 1.391 . S
C418 C417 1.387 . S
C418 C419 1.369 . S
C418 H427 0.929 . S
C419 N416 1.346 . S
C419 C418 1.369 . S
C419 H422 0.928 . S
C420 N416 1.345 . S
C420 C421 1.371 . S
C420 H423 0.931 . S
C421 C417 1.391 . S
C421 C420 1.371 . S
C421 H428 0.930 . S
H422 C419 0.928 . S
H423 C420 0.931 . S
H424 C400 0.930 . S
H425 C397 0.930 . S
H426 C406 0.930 . S
H427 C418 0.929 . S
H428 C421 0.930 . S
C429 C430 1.351 . S
C429 N432 1.368 . S
C429 H434 0.931 . S
C430 C429 1.351 . S
C430 N431 1.373 . S
C430 H458 0.930 . S
N431 C430 1.373 . S
N431 C433 1.340 . S
N432 C429 1.368 . S
N432 C433 1.321 . S
N432 Co435 2.135 . S
C433 N431 1.340 . S
C433 N432 1.321 . S
C433 H457 0.930 . S
H434 C429 0.931 . S
Co435 N432 2.135 . S
Co435 N438 2.121 . S
Co435 O443 2.055 . S
Co435 O446 2.039 . S
Co435 N449 2.140 . S
C436 O437 1.227 . S
C436 O446 1.265 . S
O437 C436 1.227 . S
N438 Co435 2.121 . S
N438 C440 1.375 . S
N438 C441 1.313 . S
C439 C440 1.338 . S
C439 N442 1.377 . S
C439 H459 0.930 . S
C440 N438 1.375 . S
C440 C439 1.338 . S
C440 H444 0.931 . S
C441 N438 1.313 . S
C441 N442 1.344 . S
C441 H445 0.930 . S
N442 C439 1.377 . S
N442 C441 1.344 . S
O443 Co435 2.055 . S
O443 C447 1.253 . S
H444 C440 0.931 . S
H445 C441 0.930 . S
O446 Co435 2.039 . S
O446 C436 1.265 . S
C447 O443 1.253 . S
C447 O448 1.227 . S
O448 C447 1.227 . S
N449 Co435 2.140 . S
N449 C452 1.346 . S
N449 C453 1.345 . S
C450 C451 1.387 . S
C450 C454 1.391 . S
C451 C450 1.387 . S
C451 C452 1.369 . S
C451 H460 0.929 . S
C452 N449 1.346 . S
C452 C451 1.369 . S
C452 H455 0.928 . S
C453 N449 1.345 . S
C453 C454 1.371 . S
C453 H456 0.931 . S
C454 C450 1.391 . S
C454 C453 1.371 . S
C454 H461 0.930 . S
H455 C452 0.928 . S
H456 C453 0.931 . S
H457 C433 0.930 . S
H458 C430 0.930 . S
H459 C439 0.930 . S
H460 C451 0.929 . S
H461 C454 0.930 . S
C462 C463 1.351 . S
C462 N465 1.368 . S
C462 H467 0.931 . S
C463 C462 1.351 . S
C463 N464 1.373 . S
C463 H491 0.930 . S
N464 C463 1.373 . S
N464 C466 1.340 . S
N465 C462 1.368 . S
N465 C466 1.321 . S
N465 Co468 2.135 . S
C466 N464 1.340 . S
C466 N465 1.321 . S
C466 H490 0.930 . S
H467 C462 0.931 . S
Co468 N465 2.135 . S
Co468 N471 2.121 . S
Co468 O476 2.055 . S
Co468 O479 2.039 . S
Co468 N482 2.140 . S
C469 O470 1.227 . S
C469 O479 1.265 . S
O470 C469 1.227 . S
N471 Co468 2.121 . S
N471 C473 1.375 . S
N471 C474 1.313 . S
C472 C473 1.338 . S
C472 N475 1.377 . S
C472 H492 0.930 . S
C473 N471 1.375 . S
C473 C472 1.338 . S
C473 H477 0.931 . S
C474 N471 1.313 . S
C474 N475 1.344 . S
C474 H478 0.930 . S
N475 C472 1.377 . S
N475 C474 1.344 . S
O476 Co468 2.055 . S
O476 C480 1.253 . S
H477 C473 0.931 . S
H478 C474 0.930 . S
O479 Co468 2.039 . S
O479 C469 1.265 . S
C480 O476 1.253 . S
C480 O481 1.227 . S
O481 C480 1.227 . S
N482 Co468 2.140 . S
N482 C485 1.346 . S
N482 C486 1.345 . S
C483 C484 1.387 . S
C483 C487 1.391 . S
C484 C483 1.387 . S
C484 C485 1.369 . S
C484 H493 0.929 . S
C485 N482 1.346 . S
C485 C484 1.369 . S
C485 H488 0.928 . S
C486 N482 1.345 . S
C486 C487 1.371 . S
C486 H489 0.931 . S
C487 C483 1.391 . S
C487 C486 1.371 . S
C487 H494 0.930 . S
H488 C485 0.928 . S
H489 C486 0.931 . S
H490 C466 0.930 . S
H491 C463 0.930 . S
H492 C472 0.930 . S
H493 C484 0.929 . S
H494 C487 0.930 . S
C495 C496 1.351 . S
C495 N498 1.368 . S
C495 H500 0.931 . S
C496 C495 1.351 . S
C496 N497 1.373 . S
C496 H524 0.930 . S
N497 C496 1.373 . S
N497 C499 1.340 . S
N498 C495 1.368 . S
N498 C499 1.321 . S
N498 Co501 2.135 . S
C499 N497 1.340 . S
C499 N498 1.321 . S
C499 H523 0.930 . S
H500 C495 0.931 . S
Co501 N498 2.135 . S
Co501 N504 2.121 . S
Co501 O509 2.055 . S
Co501 O512 2.039 . S
Co501 N515 2.140 . S
C502 O503 1.227 . S
C502 O512 1.265 . S
O503 C502 1.227 . S
N504 Co501 2.121 . S
N504 C506 1.375 . S
N504 C507 1.313 . S
C505 C506 1.338 . S
C505 N508 1.377 . S
C505 H525 0.930 . S
C506 N504 1.375 . S
C506 C505 1.338 . S
C506 H510 0.931 . S
C507 N504 1.313 . S
C507 N508 1.344 . S
C507 H511 0.930 . S
N508 C505 1.377 . S
N508 C507 1.344 . S
O509 Co501 2.055 . S
O509 C513 1.253 . S
H510 C506 0.931 . S
H511 C507 0.930 . S
O512 Co501 2.039 . S
O512 C502 1.265 . S
C513 O509 1.253 . S
C513 O514 1.227 . S
O514 C513 1.227 . S
N515 Co501 2.140 . S
N515 C518 1.346 . S
N515 C519 1.345 . S
C516 C517 1.387 . S
C516 C520 1.391 . S
C517 C516 1.387 . S
C517 C518 1.369 . S
C517 H526 0.929 . S
C518 N515 1.346 . S
C518 C517 1.369 . S
C518 H521 0.928 . S
C519 N515 1.345 . S
C519 C520 1.371 . S
C519 H522 0.931 . S
C520 C516 1.391 . S
C520 C519 1.371 . S
C520 H527 0.930 . S
H521 C518 0.928 . S
H522 C519 0.931 . S
H523 C499 0.930 . S
H524 C496 0.930 . S
H525 C505 0.930 . S
H526 C517 0.929 . S
H527 C520 0.930 . S
C528 C529 1.349 . S
C528 C530 1.327 . S
C528 H553 0.950 . S
C529 C528 1.349 . S
C529 C545 1.349 1_655 S
C530 C528 1.327 . S
C530 C549 1.429 . S
C530 H554 0.950 . S
C531 C548 1.574 . S
C531 C550 1.368 1_455 S
C531 H555 0.949 . S
H532 C536 0.949 . S
C533 C534 1.349 . S
C533 C535 1.327 . S
C533 H556 0.950 . S
C534 C533 1.349 . S
C534 C546 1.349 1_455 S
C535 C533 1.327 . S
C535 C551 1.429 . S
C535 H557 0.950 . S
C536 H532 0.949 . S
C536 C544 1.574 . S
C536 C552 1.368 1_655 S
H537 C545 0.950 . S
H538 C543 0.950 . S
H539 C544 0.949 . S
H540 C546 0.950 . S
H541 C547 0.950 . S
H542 C548 0.949 . S
C543 H538 0.950 . S
C543 C545 1.327 . S
C543 C549 1.429 1_455 S
C544 C536 1.574 . S
C544 H539 0.949 . S
C544 C550 1.368 . S
C545 C529 1.349 1_455 S
C545 H537 0.950 . S
C545 C543 1.327 . S
C546 C534 1.349 1_655 S
C546 H540 0.950 . S
C546 C547 1.327 . S
C547 H541 0.950 . S
C547 C546 1.327 . S
C547 C551 1.429 1_655 S
C548 C531 1.574 . S
C548 H542 0.949 . S
C548 C552 1.368 . S
C549 C530 1.429 . S
C549 C543 1.429 1_655 S
C549 C550 1.523 . S
C550 C531 1.368 1_655 S
C550 C544 1.368 . S
C550 C549 1.523 . S
C551 C535 1.429 . S
C551 C547 1.429 1_455 S
C551 C552 1.523 . S
C552 C536 1.368 1_455 S
C552 C548 1.368 . S
C552 C551 1.523 . S
H553 C528 0.950 . S
H554 C530 0.950 . S
H555 C531 0.949 . S
H556 C533 0.950 . S
H557 C535 0.950 . S
C558 C559 1.349 1_565 S
C558 C560 1.327 . S
C558 H583 0.950 . S
C559 C558 1.349 1_545 S
C559 C575 1.349 . S
C560 C558 1.327 . S
C560 C579 1.429 1_565 S
C560 H584 0.950 . S
C561 C578 1.574 . S
C561 C580 1.368 . S
C561 H585 0.949 . S
H562 C566 0.949 . S
C563 C564 1.349 1_545 S
C563 C565 1.327 . S
C563 H586 0.950 . S
C564 C563 1.349 1_565 S
C564 C576 1.349 . S
C565 C563 1.327 . S
C565 C581 1.429 1_545 S
C565 H587 0.950 . S
C566 H562 0.949 . S
C566 C574 1.574 . S
C566 C582 1.368 . S
H567 C575 0.950 . S
H568 C573 0.950 . S
H569 C574 0.949 . S
H570 C576 0.950 . S
H571 C577 0.950 . S
H572 C578 0.949 . S
C573 H568 0.950 . S
C573 C575 1.327 . S
C573 C579 1.429 . S
C574 C566 1.574 . S
C574 H569 0.949 . S
C574 C580 1.368 1_565 S
C575 C559 1.349 . S
C575 H567 0.950 . S
C575 C573 1.327 . S
C576 C564 1.349 . S
C576 H570 0.950 . S
C576 C577 1.327 . S
C577 H571 0.950 . S
C577 C576 1.327 . S
C577 C581 1.429 . S
C578 C561 1.574 . S
C578 H572 0.949 . S
C578 C582 1.368 1_545 S
C579 C560 1.429 1_545 S
C579 C573 1.429 . S
C579 C580 1.523 . S
C580 C561 1.368 . S
C580 C574 1.368 1_545 S
C580 C579 1.523 . S
C581 C565 1.429 1_565 S
C581 C577 1.429 . S
C581 C582 1.523 . S
C582 C566 1.368 . S
C582 C578 1.368 1_565 S
C582 C581 1.523 . S
H583 C558 0.950 . S
H584 C560 0.950 . S
H585 C561 0.949 . S
H586 C563 0.950 . S
H587 C565 0.950 . S
C588 C589 1.349 1_455 S
C588 C590 1.327 . S
C588 H613 0.950 . S
C589 C588 1.349 1_655 S
C589 C605 1.349 . S
C590 C588 1.327 . S
C590 C609 1.429 1_455 S
C590 H614 0.950 . S
C591 C608 1.574 . S
C591 C610 1.368 . S
C591 H615 0.949 . S
H592 C596 0.949 . S
C593 C594 1.349 1_655 S
C593 C595 1.327 . S
C593 H616 0.950 . S
C594 C593 1.349 1_455 S
C594 C606 1.349 . S
C595 C593 1.327 . S
C595 C611 1.429 1_655 S
C595 H617 0.950 . S
C596 H592 0.949 . S
C596 C604 1.574 . S
C596 C612 1.368 . S
H597 C605 0.950 . S
H598 C603 0.950 . S
H599 C604 0.949 . S
H600 C606 0.950 . S
H601 C607 0.950 . S
H602 C608 0.949 . S
C603 H598 0.950 . S
C603 C605 1.327 . S
C603 C609 1.429 . S
C604 C596 1.574 . S
C604 H599 0.949 . S
C604 C610 1.368 1_455 S
C605 C589 1.349 . S
C605 H597 0.950 . S
C605 C603 1.327 . S
C606 C594 1.349 . S
C606 H600 0.950 . S
C606 C607 1.327 . S
C607 H601 0.950 . S
C607 C606 1.327 . S
C607 C611 1.429 . S
C608 C591 1.574 . S
C608 H602 0.949 . S
C608 C612 1.368 1_655 S
C609 C590 1.429 1_655 S
C609 C603 1.429 . S
C609 C610 1.523 . S
C610 C591 1.368 . S
C610 C604 1.368 1_655 S
C610 C609 1.523 . S
C611 C595 1.429 1_455 S
C611 C607 1.429 . S
C611 C612 1.523 . S
C612 C596 1.368 . S
C612 C608 1.368 1_455 S
C612 C611 1.523 . S
H613 C588 0.950 . S
H614 C590 0.950 . S
H615 C591 0.949 . S
H616 C593 0.950 . S
H617 C595 0.950 . S
C618 C619 1.349 . S
C618 C620 1.327 . S
C618 H643 0.950 . S
C619 C618 1.349 . S
C619 C635 1.349 1_565 S
C620 C618 1.327 . S
C620 C639 1.429 . S
C620 H644 0.950 . S
C621 C638 1.574 . S
C621 C640 1.368 1_545 S
C621 H645 0.949 . S
H622 C626 0.949 . S
C623 C624 1.349 . S
C623 C625 1.327 . S
C623 H646 0.950 . S
C624 C623 1.349 . S
C624 C636 1.349 1_545 S
C625 C623 1.327 . S
C625 C641 1.429 . S
C625 H647 0.950 . S
C626 H622 0.949 . S
C626 C634 1.574 . S
C626 C642 1.368 1_565 S
H627 C635 0.950 . S
H628 C633 0.950 . S
H629 C634 0.949 . S
H630 C636 0.950 . S
H631 C637 0.950 . S
H632 C638 0.949 . S
C633 H628 0.950 . S
C633 C635 1.327 . S
C633 C639 1.429 1_545 S
C634 C626 1.574 . S
C634 H629 0.949 . S
C634 C640 1.368 . S
C635 C619 1.349 1_545 S
C635 H627 0.950 . S
C635 C633 1.327 . S
C636 C624 1.349 1_565 S
C636 H630 0.950 . S
C636 C637 1.327 . S
C637 H631 0.950 . S
C637 C636 1.327 . S
C637 C641 1.429 1_565 S
C638 C621 1.574 . S
C638 H632 0.949 . S
C638 C642 1.368 . S
C639 C620 1.429 . S
C639 C633 1.429 1_565 S
C639 C640 1.523 . S
C640 C621 1.368 1_565 S
C640 C634 1.368 . S
C640 C639 1.523 . S
C641 C625 1.429 . S
C641 C637 1.429 1_545 S
C641 C642 1.523 . S
C642 C626 1.368 1_545 S
C642 C638 1.368 . S
C642 C641 1.523 . S
H643 C618 0.950 . S
H644 C620 0.950 . S
H645 C621 0.949 . S
H646 C623 0.950 . S
H647 C625 0.950 . S
C648 C649 1.349 . S
C648 C650 1.327 . S
C648 H673 0.950 . S
C649 C648 1.349 . S
C649 C665 1.349 . S
C650 C648 1.327 . S
C650 C669 1.429 . S
C650 H674 0.950 . S
C651 C668 1.574 1_565 S
C651 C670 1.368 . S
C651 H675 0.949 . S
H652 C656 0.949 . S
C653 C654 1.349 . S
C653 C655 1.327 . S
C653 H676 0.950 . S
C654 C653 1.349 . S
C654 C666 1.349 . S
C655 C653 1.327 . S
C655 C671 1.429 . S
C655 H677 0.950 . S
C656 H652 0.949 . S
C656 C664 1.574 1_545 S
C656 C672 1.368 . S
H657 C665 0.950 . S
H658 C663 0.950 . S
H659 C664 0.949 . S
H660 C666 0.950 . S
H661 C667 0.950 . S
H662 C668 0.949 . S
C663 H658 0.950 . S
C663 C665 1.327 . S
C663 C669 1.429 . S
C664 C656 1.574 1_565 S
C664 H659 0.949 . S
C664 C670 1.368 . S
C665 C649 1.349 . S
C665 H657 0.950 . S
C665 C663 1.327 . S
C666 C654 1.349 . S
C666 H660 0.950 . S
C666 C667 1.327 . S
C667 H661 0.950 . S
C667 C666 1.327 . S
C667 C671 1.429 . S
C668 C651 1.574 1_545 S
C668 H662 0.949 . S
C668 C672 1.368 . S
C669 C650 1.429 . S
C669 C663 1.429 . S
C669 C670 1.523 . S
C670 C651 1.368 . S
C670 C664 1.368 . S
C670 C669 1.523 . S
C671 C655 1.429 . S
C671 C667 1.429 . S
C671 C672 1.523 . S
C672 C656 1.368 . S
C672 C668 1.368 . S
C672 C671 1.523 . S
H673 C648 0.950 . S
H674 C650 0.950 . S
H675 C651 0.949 . S
H676 C653 0.950 . S
H677 C655 0.950 . S
C678 C679 1.349 . S
C678 C680 1.327 . S
C678 H703 0.950 . S
C679 C678 1.349 . S
C679 C695 1.349 . S
C680 C678 1.327 . S
C680 C699 1.429 . S
C680 H704 0.950 . S
C681 C698 1.574 1_655 S
C681 C700 1.368 . S
C681 H705 0.949 . S
H682 C686 0.949 . S
C683 C684 1.349 . S
C683 C685 1.327 . S
C683 H706 0.950 . S
C684 C683 1.349 . S
C684 C696 1.349 . S
C685 C683 1.327 . S
C685 C701 1.429 . S
C685 H707 0.950 . S
C686 H682 0.949 . S
C686 C694 1.574 1_455 S
C686 C702 1.368 . S
H687 C695 0.950 . S
H688 C693 0.950 . S
H689 C694 0.949 . S
H690 C696 0.950 . S
H691 C697 0.950 . S
H692 C698 0.949 . S
C693 H688 0.950 . S
C693 C695 1.327 . S
C693 C699 1.429 . S
C694 C686 1.574 1_655 S
C694 H689 0.949 . S
C694 C700 1.368 . S
C695 C679 1.349 . S
C695 H687 0.950 . S
C695 C693 1.327 . S
C696 C684 1.349 . S
C696 H690 0.950 . S
C696 C697 1.327 . S
C697 H691 0.950 . S
C697 C696 1.327 . S
C697 C701 1.429 . S
C698 C681 1.574 1_455 S
C698 H692 0.949 . S
C698 C702 1.368 . S
C699 C680 1.429 . S
C699 C693 1.429 . S
C699 C700 1.523 . S
C700 C681 1.368 . S
C700 C694 1.368 . S
C700 C699 1.523 . S
C701 C685 1.429 . S
C701 C697 1.429 . S
C701 C702 1.523 . S
C702 C686 1.368 . S
C702 C698 1.368 . S
C702 C701 1.523 . S
H703 C678 0.950 . S
H704 C680 0.950 . S
H705 C681 0.949 . S
H706 C683 0.950 . S
H707 C685 0.950 . S
C708 C709 1.349 . S
C708 C710 1.327 . S
C708 H733 0.950 . S
C709 C708 1.349 . S
C709 C725 1.349 . S
C710 C708 1.327 . S
C710 C729 1.429 . S
C710 H734 0.950 . S
C711 C728 1.574 1_565 S
C711 C730 1.368 . S
C711 H735 0.949 . S
H712 C716 0.949 . S
C713 C714 1.349 . S
C713 C715 1.327 . S
C713 H736 0.950 . S
C714 C713 1.349 . S
C714 C726 1.349 . S
C715 C713 1.327 . S
C715 C731 1.429 . S
C715 H737 0.950 . S
C716 H712 0.949 . S
C716 C724 1.574 1_545 S
C716 C732 1.368 . S
H717 C725 0.950 . S
H718 C723 0.950 . S
H719 C724 0.949 . S
H720 C726 0.950 . S
H721 C727 0.950 . S
H722 C728 0.949 . S
C723 H718 0.950 . S
C723 C725 1.327 . S
C723 C729 1.429 . S
C724 C716 1.574 1_565 S
C724 H719 0.949 . S
C724 C730 1.368 . S
C725 C709 1.349 . S
C725 H717 0.950 . S
C725 C723 1.327 . S
C726 C714 1.349 . S
C726 H720 0.950 . S
C726 C727 1.327 . S
C727 H721 0.950 . S
C727 C726 1.327 . S
C727 C731 1.429 . S
C728 C711 1.574 1_545 S
C728 H722 0.949 . S
C728 C732 1.368 . S
C729 C710 1.429 . S
C729 C723 1.429 . S
C729 C730 1.523 . S
C730 C711 1.368 . S
C730 C724 1.368 . S
C730 C729 1.523 . S
C731 C715 1.429 . S
C731 C727 1.429 . S
C731 C732 1.523 . S
C732 C716 1.368 . S
C732 C728 1.368 . S
C732 C731 1.523 . S
H733 C708 0.950 . S
H734 C710 0.950 . S
H735 C711 0.949 . S
H736 C713 0.950 . S
H737 C715 0.950 . S
C738 C739 1.349 . S
C738 C740 1.327 . S
C738 H763 0.950 . S
C739 C738 1.349 . S
C739 C755 1.349 . S
C740 C738 1.327 . S
C740 C759 1.429 . S
C740 H764 0.950 . S
C741 C758 1.574 1_655 S
C741 C760 1.368 . S
C741 H765 0.949 . S
H742 C746 0.949 . S
C743 C744 1.349 . S
C743 C745 1.327 . S
C743 H766 0.950 . S
C744 C743 1.349 . S
C744 C756 1.349 . S
C745 C743 1.327 . S
C745 C761 1.429 . S
C745 H767 0.950 . S
C746 H742 0.949 . S
C746 C754 1.574 1_455 S
C746 C762 1.368 . S
H747 C755 0.950 . S
H748 C753 0.950 . S
H749 C754 0.949 . S
H750 C756 0.950 . S
H751 C757 0.950 . S
H752 C758 0.949 . S
C753 H748 0.950 . S
C753 C755 1.327 . S
C753 C759 1.429 . S
C754 C746 1.574 1_655 S
C754 H749 0.949 . S
C754 C760 1.368 . S
C755 C739 1.349 . S
C755 H747 0.950 . S
C755 C753 1.327 . S
C756 C744 1.349 . S
C756 H750 0.950 . S
C756 C757 1.327 . S
C757 H751 0.950 . S
C757 C756 1.327 . S
C757 C761 1.429 . S
C758 C741 1.574 1_455 S
C758 H752 0.949 . S
C758 C762 1.368 . S
C759 C740 1.429 . S
C759 C753 1.429 . S
C759 C760 1.523 . S
C760 C741 1.368 . S
C760 C754 1.368 . S
C760 C759 1.523 . S
C761 C745 1.429 . S
C761 C757 1.429 . S
C761 C762 1.523 . S
C762 C746 1.368 . S
C762 C758 1.368 . S
C762 C761 1.523 . S
H763 C738 0.950 . S
H764 C740 0.950 . S
H765 C741 0.949 . S
H766 C743 0.950 . S
H767 C745 0.950 . S
C768 C769 1.349 . S
C768 C770 1.327 . S
C768 H793 0.950 . S
C769 C768 1.349 . S
C769 C785 1.349 . S
C770 C768 1.327 . S
C770 C789 1.429 . S
C770 H794 0.950 . S
C771 C788 1.574 . S
C771 C790 1.368 . S
C771 H795 0.949 . S
H772 C776 0.949 . S
C773 C774 1.349 . S
C773 C775 1.327 . S
C773 H796 0.950 . S
C774 C773 1.349 . S
C774 C786 1.349 . S
C775 C773 1.327 . S
C775 C791 1.429 . S
C775 H797 0.950 . S
C776 H772 0.949 . S
C776 C784 1.574 . S
C776 C792 1.368 . S
H777 C785 0.950 . S
H778 C783 0.950 . S
H779 C784 0.949 . S
H780 C786 0.950 . S
H781 C787 0.950 . S
H782 C788 0.949 . S
C783 H778 0.950 . S
C783 C785 1.327 . S
C783 C789 1.429 . S
C784 C776 1.574 . S
C784 H779 0.949 . S
C784 C790 1.368 . S
C785 C769 1.349 . S
C785 H777 0.950 . S
C785 C783 1.327 . S
C786 C774 1.349 . S
C786 H780 0.950 . S
C786 C787 1.327 . S
C787 H781 0.950 . S
C787 C786 1.327 . S
C787 C791 1.429 . S
C788 C771 1.574 . S
C788 H782 0.949 . S
C788 C792 1.368 . S
C789 C770 1.429 . S
C789 C783 1.429 . S
C789 C790 1.523 . S
C790 C771 1.368 . S
C790 C784 1.368 . S
C790 C789 1.523 . S
C791 C775 1.429 . S
C791 C787 1.429 . S
C791 C792 1.523 . S
C792 C776 1.368 . S
C792 C788 1.368 . S
C792 C791 1.523 . S
H793 C768 0.950 . S
H794 C770 0.950 . S
H795 C771 0.949 . S
H796 C773 0.950 . S
H797 C775 0.950 . S
C798 C799 1.349 . S
C798 C800 1.327 . S
C798 H823 0.950 . S
C799 C798 1.349 . S
C799 C815 1.349 . S
C800 C798 1.327 . S
C800 C819 1.429 . S
C800 H824 0.950 . S
C801 C818 1.574 . S
C801 C820 1.368 . S
C801 H825 0.949 . S
H802 C806 0.949 . S
C803 C804 1.349 . S
C803 C805 1.327 . S
C803 H826 0.950 . S
C804 C803 1.349 . S
C804 C816 1.349 . S
C805 C803 1.327 . S
C805 C821 1.429 . S
C805 H827 0.950 . S
C806 H802 0.949 . S
C806 C814 1.574 . S
C806 C822 1.368 . S
H807 C815 0.950 . S
H808 C813 0.950 . S
H809 C814 0.949 . S
H810 C816 0.950 . S
H811 C817 0.950 . S
H812 C818 0.949 . S
C813 H808 0.950 . S
C813 C815 1.327 . S
C813 C819 1.429 . S
C814 C806 1.574 . S
C814 H809 0.949 . S
C814 C820 1.368 . S
C815 C799 1.349 . S
C815 H807 0.950 . S
C815 C813 1.327 . S
C816 C804 1.349 . S
C816 H810 0.950 . S
C816 C817 1.327 . S
C817 H811 0.950 . S
C817 C816 1.327 . S
C817 C821 1.429 . S
C818 C801 1.574 . S
C818 H812 0.949 . S
C818 C822 1.368 . S
C819 C800 1.429 . S
C819 C813 1.429 . S
C819 C820 1.523 . S
C820 C801 1.368 . S
C820 C814 1.368 . S
C820 C819 1.523 . S
C821 C805 1.429 . S
C821 C817 1.429 . S
C821 C822 1.523 . S
C822 C806 1.368 . S
C822 C818 1.368 . S
C822 C821 1.523 . S
H823 C798 0.950 . S
H824 C800 0.950 . S
H825 C801 0.949 . S
H826 C803 0.950 . S
H827 C805 0.950 . S
C828 C829 1.349 . S
C828 C830 1.327 . S
C828 H853 0.950 . S
C829 C828 1.349 . S
C829 C845 1.349 . S
C830 C828 1.327 . S
C830 C849 1.429 . S
C830 H854 0.950 . S
C831 C848 1.574 . S
C831 C850 1.368 . S
C831 H855 0.949 . S
H832 C836 0.949 . S
C833 C834 1.349 . S
C833 C835 1.327 . S
C833 H856 0.950 . S
C834 C833 1.349 . S
C834 C846 1.349 . S
C835 C833 1.327 . S
C835 C851 1.429 . S
C835 H857 0.950 . S
C836 H832 0.949 . S
C836 C844 1.574 . S
C836 C852 1.368 . S
H837 C845 0.950 . S
H838 C843 0.950 . S
H839 C844 0.949 . S
H840 C846 0.950 . S
H841 C847 0.950 . S
H842 C848 0.949 . S
C843 H838 0.950 . S
C843 C845 1.327 . S
C843 C849 1.429 . S
C844 C836 1.574 . S
C844 H839 0.949 . S
C844 C850 1.368 . S
C845 C829 1.349 . S
C845 H837 0.950 . S
C845 C843 1.327 . S
C846 C834 1.349 . S
C846 H840 0.950 . S
C846 C847 1.327 . S
C847 H841 0.950 . S
C847 C846 1.327 . S
C847 C851 1.429 . S
C848 C831 1.574 . S
C848 H842 0.949 . S
C848 C852 1.368 . S
C849 C830 1.429 . S
C849 C843 1.429 . S
C849 C850 1.523 . S
C850 C831 1.368 . S
C850 C844 1.368 . S
C850 C849 1.523 . S
C851 C835 1.429 . S
C851 C847 1.429 . S
C851 C852 1.523 . S
C852 C836 1.368 . S
C852 C848 1.368 . S
C852 C851 1.523 . S
H853 C828 0.950 . S
H854 C830 0.950 . S
H855 C831 0.949 . S
H856 C833 0.950 . S
H857 C835 0.950 . S
C858 C859 1.349 . S
C858 C860 1.327 . S
C858 H883 0.950 . S
C859 C858 1.349 . S
C859 C875 1.349 . S
C860 C858 1.327 . S
C860 C879 1.429 . S
C860 H884 0.950 . S
C861 C878 1.574 . S
C861 C880 1.368 . S
C861 H885 0.949 . S
H862 C866 0.949 . S
C863 C864 1.349 . S
C863 C865 1.327 . S
C863 H886 0.950 . S
C864 C863 1.349 . S
C864 C876 1.349 . S
C865 C863 1.327 . S
C865 C881 1.429 . S
C865 H887 0.950 . S
C866 H862 0.949 . S
C866 C874 1.574 . S
C866 C882 1.368 . S
H867 C875 0.950 . S
H868 C873 0.950 . S
H869 C874 0.949 . S
H870 C876 0.950 . S
H871 C877 0.950 . S
H872 C878 0.949 . S
C873 H868 0.950 . S
C873 C875 1.327 . S
C873 C879 1.429 . S
C874 C866 1.574 . S
C874 H869 0.949 . S
C874 C880 1.368 . S
C875 C859 1.349 . S
C875 H867 0.950 . S
C875 C873 1.327 . S
C876 C864 1.349 . S
C876 H870 0.950 . S
C876 C877 1.327 . S
C877 H871 0.950 . S
C877 C876 1.327 . S
C877 C881 1.429 . S
C878 C861 1.574 . S
C878 H872 0.949 . S
C878 C882 1.368 . S
C879 C860 1.429 . S
C879 C873 1.429 . S
C879 C880 1.523 . S
C880 C861 1.368 . S
C880 C874 1.368 . S
C880 C879 1.523 . S
C881 C865 1.429 . S
C881 C877 1.429 . S
C881 C882 1.523 . S
C882 C866 1.368 . S
C882 C878 1.368 . S
C882 C881 1.523 . S
H883 C858 0.950 . S
H884 C860 0.950 . S
H885 C861 0.949 . S
H886 C863 0.950 . S
H887 C865 0.950 . S
C888 C889 1.349 . S
C888 C890 1.327 . S
C888 H913 0.950 . S
C889 C888 1.349 . S
C889 C905 1.349 . S
C890 C888 1.327 . S
C890 C909 1.429 . S
C890 H914 0.950 . S
C891 C908 1.574 . S
C891 C910 1.368 . S
C891 H915 0.949 . S
H892 C896 0.949 . S
C893 C894 1.349 . S
C893 C895 1.327 . S
C893 H916 0.950 . S
C894 C893 1.349 . S
C894 C906 1.349 . S
C895 C893 1.327 . S
C895 C911 1.429 . S
C895 H917 0.950 . S
C896 H892 0.949 . S
C896 C904 1.574 . S
C896 C912 1.368 . S
H897 C905 0.950 . S
H898 C903 0.950 . S
H899 C904 0.949 . S
H900 C906 0.950 . S
H901 C907 0.950 . S
H902 C908 0.949 . S
C903 H898 0.950 . S
C903 C905 1.327 . S
C903 C909 1.429 . S
C904 C896 1.574 . S
C904 H899 0.949 . S
C904 C910 1.368 . S
C905 C889 1.349 . S
C905 H897 0.950 . S
C905 C903 1.327 . S
C906 C894 1.349 . S
C906 H900 0.950 . S
C906 C907 1.327 . S
C907 H901 0.950 . S
C907 C906 1.327 . S
C907 C911 1.429 . S
C908 C891 1.574 . S
C908 H902 0.949 . S
C908 C912 1.368 . S
C909 C890 1.429 . S
C909 C903 1.429 . S
C909 C910 1.523 . S
C910 C891 1.368 . S
C910 C904 1.368 . S
C910 C909 1.523 . S
C911 C895 1.429 . S
C911 C907 1.429 . S
C911 C912 1.523 . S
C912 C896 1.368 . S
C912 C908 1.368 . S
C912 C911 1.523 . S
H913 C888 0.950 . S
H914 C890 0.950 . S
H915 C891 0.949 . S
H916 C893 0.950 . S
H917 C895 0.950 . S
C918 C919 1.349 . S
C918 C920 1.327 . S
C918 H943 0.950 . S
C919 C918 1.349 . S
C919 C935 1.349 . S
C920 C918 1.327 . S
C920 C939 1.429 . S
C920 H944 0.950 . S
C921 C938 1.574 . S
C921 C940 1.368 . S
C921 H945 0.949 . S
H922 C926 0.949 . S
C923 C924 1.349 . S
C923 C925 1.327 . S
C923 H946 0.950 . S
C924 C923 1.349 . S
C924 C936 1.349 . S
C925 C923 1.327 . S
C925 C941 1.429 . S
C925 H947 0.950 . S
C926 H922 0.949 . S
C926 C934 1.574 . S
C926 C942 1.368 . S
H927 C935 0.950 . S
H928 C933 0.950 . S
H929 C934 0.949 . S
H930 C936 0.950 . S
H931 C937 0.950 . S
H932 C938 0.949 . S
C933 H928 0.950 . S
C933 C935 1.327 . S
C933 C939 1.429 . S
C934 C926 1.574 . S
C934 H929 0.949 . S
C934 C940 1.368 . S
C935 C919 1.349 . S
C935 H927 0.950 . S
C935 C933 1.327 . S
C936 C924 1.349 . S
C936 H930 0.950 . S
C936 C937 1.327 . S
C937 H931 0.950 . S
C937 C936 1.327 . S
C937 C941 1.429 . S
C938 C921 1.574 . S
C938 H932 0.949 . S
C938 C942 1.368 . S
C939 C920 1.429 . S
C939 C933 1.429 . S
C939 C940 1.523 . S
C940 C921 1.368 . S
C940 C934 1.368 . S
C940 C939 1.523 . S
C941 C925 1.429 . S
C941 C937 1.429 . S
C941 C942 1.523 . S
C942 C926 1.368 . S
C942 C938 1.368 . S
C942 C941 1.523 . S
H943 C918 0.950 . S
H944 C920 0.950 . S
H945 C921 0.949 . S
H946 C923 0.950 . S
H947 C925 0.950 . S
C948 C949 1.349 . S
C948 C950 1.327 . S
C948 H973 0.950 . S
C949 C948 1.349 . S
C949 C965 1.349 . S
C950 C948 1.327 . S
C950 C969 1.429 . S
C950 H974 0.950 . S
C951 C968 1.574 . S
C951 C970 1.368 . S
C951 H975 0.949 . S
H952 C956 0.949 . S
C953 C954 1.349 . S
C953 C955 1.327 . S
C953 H976 0.950 . S
C954 C953 1.349 . S
C954 C966 1.349 . S
C955 C953 1.327 . S
C955 C971 1.429 . S
C955 H977 0.950 . S
C956 H952 0.949 . S
C956 C964 1.574 . S
C956 C972 1.368 . S
H957 C965 0.950 . S
H958 C963 0.950 . S
H959 C964 0.949 . S
H960 C966 0.950 . S
H961 C967 0.950 . S
H962 C968 0.949 . S
C963 H958 0.950 . S
C963 C965 1.327 . S
C963 C969 1.429 . S
C964 C956 1.574 . S
C964 H959 0.949 . S
C964 C970 1.368 . S
C965 C949 1.349 . S
C965 H957 0.950 . S
C965 C963 1.327 . S
C966 C954 1.349 . S
C966 H960 0.950 . S
C966 C967 1.327 . S
C967 H961 0.950 . S
C967 C966 1.327 . S
C967 C971 1.429 . S
C968 C951 1.574 . S
C968 H962 0.949 . S
C968 C972 1.368 . S
C969 C950 1.429 . S
C969 C963 1.429 . S
C969 C970 1.523 . S
C970 C951 1.368 . S
C970 C964 1.368 . S
C970 C969 1.523 . S
C971 C955 1.429 . S
C971 C967 1.429 . S
C971 C972 1.523 . S
C972 C956 1.368 . S
C972 C968 1.368 . S
C972 C971 1.523 . S
H973 C948 0.950 . S
H974 C950 0.950 . S
H975 C951 0.949 . S
H976 C953 0.950 . S
H977 C955 0.950 . S
C978 C979 1.349 . S
C978 C980 1.327 . S
C978 H1003 0.950 . S
C979 C978 1.349 . S
C979 C995 1.349 . S
C980 C978 1.327 . S
C980 C999 1.429 . S
C980 H1004 0.950 . S
C981 C998 1.574 . S
C981 C1000 1.368 . S
C981 H1005 0.949 . S
H982 C986 0.949 . S
C983 C984 1.349 . S
C983 C985 1.327 . S
C983 H1006 0.950 . S
C984 C983 1.349 . S
C984 C996 1.349 . S
C985 C983 1.327 . S
C985 C1001 1.429 . S
C985 H1007 0.950 . S
C986 H982 0.949 . S
C986 C994 1.574 . S
C986 C1002 1.368 . S
H987 C995 0.950 . S
H988 C993 0.950 . S
H989 C994 0.949 . S
H990 C996 0.950 . S
H991 C997 0.950 . S
H992 C998 0.949 . S
C993 H988 0.950 . S
C993 C995 1.327 . S
C993 C999 1.429 . S
C994 C986 1.574 . S
C994 H989 0.949 . S
C994 C1000 1.368 . S
C995 C979 1.349 . S
C995 H987 0.950 . S
C995 C993 1.327 . S
C996 C984 1.349 . S
C996 H990 0.950 . S
C996 C997 1.327 . S
C997 H991 0.950 . S
C997 C996 1.327 . S
C997 C1001 1.429 . S
C998 C981 1.574 . S
C998 H992 0.949 . S
C998 C1002 1.368 . S
C999 C980 1.429 . S
C999 C993 1.429 . S
C999 C1000 1.523 . S
C1000 C981 1.368 . S
C1000 C994 1.368 . S
C1000 C999 1.523 . S
C1001 C985 1.429 . S
C1001 C997 1.429 . S
C1001 C1002 1.523 . S
C1002 C986 1.368 . S
C1002 C998 1.368 . S
C1002 C1001 1.523 . S
H1003 C978 0.950 . S
H1004 C980 0.950 . S
H1005 C981 0.949 . S
H1006 C983 0.950 . S
H1007 C985 0.950 . S
C1008 C1009 1.349 . S
C1008 C1010 1.327 . S
C1008 H1033 0.950 . S
C1009 C1008 1.349 . S
C1009 C1025 1.349 . S
C1010 C1008 1.327 . S
C1010 C1029 1.429 . S
C1010 H1034 0.950 . S
C1011 C1028 1.574 . S
C1011 C1030 1.368 . S
C1011 H1035 0.949 . S
H1012 C1016 0.949 . S
C1013 C1014 1.349 . S
C1013 C1015 1.327 . S
C1013 H1036 0.950 . S
C1014 C1013 1.349 . S
C1014 C1026 1.349 . S
C1015 C1013 1.327 . S
C1015 C1031 1.429 . S
C1015 H1037 0.950 . S
C1016 H1012 0.949 . S
C1016 C1024 1.574 . S
C1016 C1032 1.368 . S
H1017 C1025 0.950 . S
H1018 C1023 0.950 . S
H1019 C1024 0.949 . S
H1020 C1026 0.950 . S
H1021 C1027 0.950 . S
H1022 C1028 0.949 . S
C1023 H1018 0.950 . S
C1023 C1025 1.327 . S
C1023 C1029 1.429 . S
C1024 C1016 1.574 . S
C1024 H1019 0.949 . S
C1024 C1030 1.368 . S
C1025 C1009 1.349 . S
C1025 H1017 0.950 . S
C1025 C1023 1.327 . S
C1026 C1014 1.349 . S
C1026 H1020 0.950 . S
C1026 C1027 1.327 . S
C1027 H1021 0.950 . S
C1027 C1026 1.327 . S
C1027 C1031 1.429 . S
C1028 C1011 1.574 . S
C1028 H1022 0.949 . S
C1028 C1032 1.368 . S
C1029 C1010 1.429 . S
C1029 C1023 1.429 . S
C1029 C1030 1.523 . S
C1030 C1011 1.368 . S
C1030 C1024 1.368 . S
C1030 C1029 1.523 . S
C1031 C1015 1.429 . S
C1031 C1027 1.429 . S
C1031 C1032 1.523 . S
C1032 C1016 1.368 . S
C1032 C1028 1.368 . S
C1032 C1031 1.523 . S
H1033 C1008 0.950 . S
H1034 C1010 0.950 . S
H1035 C1011 0.949 . S
H1036 C1013 0.950 . S
H1037 C1015 0.950 . S
C1038 C1039 1.349 . S
C1038 C1040 1.327 . S
C1038 H1063 0.950 . S
C1039 C1038 1.349 . S
C1039 C1055 1.349 . S
C1040 C1038 1.327 . S
C1040 C1059 1.429 . S
C1040 H1064 0.950 . S
C1041 C1058 1.574 . S
C1041 C1060 1.368 . S
C1041 H1065 0.949 . S
H1042 C1046 0.949 . S
C1043 C1044 1.349 . S
C1043 C1045 1.327 . S
C1043 H1066 0.950 . S
C1044 C1043 1.349 . S
C1044 C1056 1.349 . S
C1045 C1043 1.327 . S
C1045 C1061 1.429 . S
C1045 H1067 0.950 . S
C1046 H1042 0.949 . S
C1046 C1054 1.574 . S
C1046 C1062 1.368 . S
H1047 C1055 0.950 . S
H1048 C1053 0.950 . S
H1049 C1054 0.949 . S
H1050 C1056 0.950 . S
H1051 C1057 0.950 . S
H1052 C1058 0.949 . S
C1053 H1048 0.950 . S
C1053 C1055 1.327 . S
C1053 C1059 1.429 . S
C1054 C1046 1.574 . S
C1054 H1049 0.949 . S
C1054 C1060 1.368 . S
C1055 C1039 1.349 . S
C1055 H1047 0.950 . S
C1055 C1053 1.327 . S
C1056 C1044 1.349 . S
C1056 H1050 0.950 . S
C1056 C1057 1.327 . S
C1057 H1051 0.950 . S
C1057 C1056 1.327 . S
C1057 C1061 1.429 . S
C1058 C1041 1.574 . S
C1058 H1052 0.949 . S
C1058 C1062 1.368 . S
C1059 C1040 1.429 . S
C1059 C1053 1.429 . S
C1059 C1060 1.523 . S
C1060 C1041 1.368 . S
C1060 C1054 1.368 . S
C1060 C1059 1.523 . S
C1061 C1045 1.429 . S
C1061 C1057 1.429 . S
C1061 C1062 1.523 . S
C1062 C1046 1.368 . S
C1062 C1058 1.368 . S
C1062 C1061 1.523 . S
H1063 C1038 0.950 . S
H1064 C1040 0.950 . S
H1065 C1041 0.949 . S
H1066 C1043 0.950 . S
H1067 C1045 0.950 . S
C1068 C1069 1.349 . S
C1068 C1070 1.327 . S
C1068 H1093 0.950 . S
C1069 C1068 1.349 . S
C1069 C1085 1.349 . S
C1070 C1068 1.327 . S
C1070 C1089 1.429 . S
C1070 H1094 0.950 . S
C1071 C1088 1.574 . S
C1071 C1090 1.368 . S
C1071 H1095 0.949 . S
H1072 C1076 0.949 . S
C1073 C1074 1.349 . S
C1073 C1075 1.327 . S
C1073 H1096 0.950 . S
C1074 C1073 1.349 . S
C1074 C1086 1.349 . S
C1075 C1073 1.327 . S
C1075 C1091 1.429 . S
C1075 H1097 0.950 . S
C1076 H1072 0.949 . S
C1076 C1084 1.574 . S
C1076 C1092 1.368 . S
H1077 C1085 0.950 . S
H1078 C1083 0.950 . S
H1079 C1084 0.949 . S
H1080 C1086 0.950 . S
H1081 C1087 0.950 . S
H1082 C1088 0.949 . S
C1083 H1078 0.950 . S
C1083 C1085 1.327 . S
C1083 C1089 1.429 . S
C1084 C1076 1.574 . S
C1084 H1079 0.949 . S
C1084 C1090 1.368 . S
C1085 C1069 1.349 . S
C1085 H1077 0.950 . S
C1085 C1083 1.327 . S
C1086 C1074 1.349 . S
C1086 H1080 0.950 . S
C1086 C1087 1.327 . S
C1087 H1081 0.950 . S
C1087 C1086 1.327 . S
C1087 C1091 1.429 . S
C1088 C1071 1.574 . S
C1088 H1082 0.949 . S
C1088 C1092 1.368 . S
C1089 C1070 1.429 . S
C1089 C1083 1.429 . S
C1089 C1090 1.523 . S
C1090 C1071 1.368 . S
C1090 C1084 1.368 . S
C1090 C1089 1.523 . S
C1091 C1075 1.429 . S
C1091 C1087 1.429 . S
C1091 C1092 1.523 . S
C1092 C1076 1.368 . S
C1092 C1088 1.368 . S
C1092 C1091 1.523 . S
H1093 C1068 0.950 . S
H1094 C1070 0.950 . S
H1095 C1071 0.949 . S
H1096 C1073 0.950 . S
H1097 C1075 0.950 . S
C1098 C1099 1.349 . S
C1098 C1100 1.327 . S
C1098 H1123 0.950 . S
C1099 C1098 1.349 . S
C1099 C1115 1.349 . S
C1100 C1098 1.327 . S
C1100 C1119 1.429 . S
C1100 H1124 0.950 . S
C1101 C1118 1.574 . S
C1101 C1120 1.368 . S
C1101 H1125 0.949 . S
H1102 C1106 0.949 . S
C1103 C1104 1.349 . S
C1103 C1105 1.327 . S
C1103 H1126 0.950 . S
C1104 C1103 1.349 . S
C1104 C1116 1.349 . S
C1105 C1103 1.327 . S
C1105 C1121 1.429 . S
C1105 H1127 0.950 . S
C1106 H1102 0.949 . S
C1106 C1114 1.574 . S
C1106 C1122 1.368 . S
H1107 C1115 0.950 . S
H1108 C1113 0.950 . S
H1109 C1114 0.949 . S
H1110 C1116 0.950 . S
H1111 C1117 0.950 . S
H1112 C1118 0.949 . S
C1113 H1108 0.950 . S
C1113 C1115 1.327 . S
C1113 C1119 1.429 . S
C1114 C1106 1.574 . S
C1114 H1109 0.949 . S
C1114 C1120 1.368 . S
C1115 C1099 1.349 . S
C1115 H1107 0.950 . S
C1115 C1113 1.327 . S
C1116 C1104 1.349 . S
C1116 H1110 0.950 . S
C1116 C1117 1.327 . S
C1117 H1111 0.950 . S
C1117 C1116 1.327 . S
C1117 C1121 1.429 . S
C1118 C1101 1.574 . S
C1118 H1112 0.949 . S
C1118 C1122 1.368 . S
C1119 C1100 1.429 . S
C1119 C1113 1.429 . S
C1119 C1120 1.523 . S
C1120 C1101 1.368 . S
C1120 C1114 1.368 . S
C1120 C1119 1.523 . S
C1121 C1105 1.429 . S
C1121 C1117 1.429 . S
C1121 C1122 1.523 . S
C1122 C1106 1.368 . S
C1122 C1118 1.368 . S
C1122 C1121 1.523 . S
H1123 C1098 0.950 . S
H1124 C1100 0.950 . S
H1125 C1101 0.949 . S
H1126 C1103 0.950 . S
H1127 C1105 0.950 . S
C1128 C1129 1.349 . S
C1128 C1130 1.327 . S
C1128 H1153 0.950 . S
C1129 C1128 1.349 . S
C1129 C1145 1.349 . S
C1130 C1128 1.327 . S
C1130 C1149 1.429 . S
C1130 H1154 0.950 . S
C1131 C1148 1.574 . S
C1131 C1150 1.368 . S
C1131 H1155 0.949 . S
H1132 C1136 0.949 . S
C1133 C1134 1.349 . S
C1133 C1135 1.327 . S
C1133 H1156 0.950 . S
C1134 C1133 1.349 . S
C1134 C1146 1.349 . S
C1135 C1133 1.327 . S
C1135 C1151 1.429 . S
C1135 H1157 0.950 . S
C1136 H1132 0.949 . S
C1136 C1144 1.574 . S
C1136 C1152 1.368 . S
H1137 C1145 0.950 . S
H1138 C1143 0.950 . S
H1139 C1144 0.949 . S
H1140 C1146 0.950 . S
H1141 C1147 0.950 . S
H1142 C1148 0.949 . S
C1143 H1138 0.950 . S
C1143 C1145 1.327 . S
C1143 C1149 1.429 . S
C1144 C1136 1.574 . S
C1144 H1139 0.949 . S
C1144 C1150 1.368 . S
C1145 C1129 1.349 . S
C1145 H1137 0.950 . S
C1145 C1143 1.327 . S
C1146 C1134 1.349 . S
C1146 H1140 0.950 . S
C1146 C1147 1.327 . S
C1147 H1141 0.950 . S
C1147 C1146 1.327 . S
C1147 C1151 1.429 . S
C1148 C1131 1.574 . S
C1148 H1142 0.949 . S
C1148 C1152 1.368 . S
C1149 C1130 1.429 . S
C1149 C1143 1.429 . S
C1149 C1150 1.523 . S
C1150 C1131 1.368 . S
C1150 C1144 1.368 . S
C1150 C1149 1.523 . S
C1151 C1135 1.429 . S
C1151 C1147 1.429 . S
C1151 C1152 1.523 . S
C1152 C1136 1.368 . S
C1152 C1148 1.368 . S
C1152 C1151 1.523 . S
H1153 C1128 0.950 . S
H1154 C1130 0.950 . S
H1155 C1131 0.949 . S
H1156 C1133 0.950 . S
H1157 C1135 0.950 . S
C1158 C1159 1.349 . S
C1158 C1160 1.327 . S
C1158 H1183 0.950 . S
C1159 C1158 1.349 . S
C1159 C1175 1.349 . S
C1160 C1158 1.327 . S
C1160 C1179 1.429 . S
C1160 H1184 0.950 . S
C1161 C1178 1.574 . S
C1161 C1180 1.368 . S
C1161 H1185 0.949 . S
H1162 C1166 0.949 . S
C1163 C1164 1.349 . S
C1163 C1165 1.327 . S
C1163 H1186 0.950 . S
C1164 C1163 1.349 . S
C1164 C1176 1.349 . S
C1165 C1163 1.327 . S
C1165 C1181 1.429 . S
C1165 H1187 0.950 . S
C1166 H1162 0.949 . S
C1166 C1174 1.574 . S
C1166 C1182 1.368 . S
H1167 C1175 0.950 . S
H1168 C1173 0.950 . S
H1169 C1174 0.949 . S
H1170 C1176 0.950 . S
H1171 C1177 0.950 . S
H1172 C1178 0.949 . S
C1173 H1168 0.950 . S
C1173 C1175 1.327 . S
C1173 C1179 1.429 . S
C1174 C1166 1.574 . S
C1174 H1169 0.949 . S
C1174 C1180 1.368 . S
C1175 C1159 1.349 . S
C1175 H1167 0.950 . S
C1175 C1173 1.327 . S
C1176 C1164 1.349 . S
C1176 H1170 0.950 . S
C1176 C1177 1.327 . S
C1177 H1171 0.950 . S
C1177 C1176 1.327 . S
C1177 C1181 1.429 . S
C1178 C1161 1.574 . S
C1178 H1172 0.949 . S
C1178 C1182 1.368 . S
C1179 C1160 1.429 . S
C1179 C1173 1.429 . S
C1179 C1180 1.523 . S
C1180 C1161 1.368 . S
C1180 C1174 1.368 . S
C1180 C1179 1.523 . S
C1181 C1165 1.429 . S
C1181 C1177 1.429 . S
C1181 C1182 1.523 . S
C1182 C1166 1.368 . S
C1182 C1178 1.368 . S
C1182 C1181 1.523 . S
H1183 C1158 0.950 . S
H1184 C1160 0.950 . S
H1185 C1161 0.949 . S
H1186 C1163 0.950 . S
H1187 C1165 0.950 . S
C1188 C1189 1.349 . S
C1188 C1190 1.327 . S
C1188 H1213 0.950 . S
C1189 C1188 1.349 . S
C1189 C1205 1.349 . S
C1190 C1188 1.327 . S
C1190 C1209 1.429 . S
C1190 H1214 0.950 . S
C1191 C1208 1.574 . S
C1191 C1210 1.368 . S
C1191 H1215 0.949 . S
H1192 C1196 0.949 . S
C1193 C1194 1.349 . S
C1193 C1195 1.327 . S
C1193 H1216 0.950 . S
C1194 C1193 1.349 . S
C1194 C1206 1.349 . S
C1195 C1193 1.327 . S
C1195 C1211 1.429 . S
C1195 H1217 0.950 . S
C1196 H1192 0.949 . S
C1196 C1204 1.574 . S
C1196 C1212 1.368 . S
H1197 C1205 0.950 . S
H1198 C1203 0.950 . S
H1199 C1204 0.949 . S
H1200 C1206 0.950 . S
H1201 C1207 0.950 . S
H1202 C1208 0.949 . S
C1203 H1198 0.950 . S
C1203 C1205 1.327 . S
C1203 C1209 1.429 . S
C1204 C1196 1.574 . S
C1204 H1199 0.949 . S
C1204 C1210 1.368 . S
C1205 C1189 1.349 . S
C1205 H1197 0.950 . S
C1205 C1203 1.327 . S
C1206 C1194 1.349 . S
C1206 H1200 0.950 . S
C1206 C1207 1.327 . S
C1207 H1201 0.950 . S
C1207 C1206 1.327 . S
C1207 C1211 1.429 . S
C1208 C1191 1.574 . S
C1208 H1202 0.949 . S
C1208 C1212 1.368 . S
C1209 C1190 1.429 . S
C1209 C1203 1.429 . S
C1209 C1210 1.523 . S
C1210 C1191 1.368 . S
C1210 C1204 1.368 . S
C1210 C1209 1.523 . S
C1211 C1195 1.429 . S
C1211 C1207 1.429 . S
C1211 C1212 1.523 . S
C1212 C1196 1.368 . S
C1212 C1208 1.368 . S
C1212 C1211 1.523 . S
H1213 C1188 0.950 . S
H1214 C1190 0.950 . S
H1215 C1191 0.949 . S
H1216 C1193 0.950 . S
H1217 C1195 0.950 . S
C1218 C1219 1.349 . S
C1218 C1220 1.327 . S
C1218 H1243 0.950 . S
C1219 C1218 1.349 . S
C1219 C1235 1.349 . S
C1220 C1218 1.327 . S
C1220 C1239 1.429 . S
C1220 H1244 0.950 . S
C1221 C1238 1.574 . S
C1221 C1240 1.368 . S
C1221 H1245 0.949 . S
H1222 C1226 0.949 . S
C1223 C1224 1.349 . S
C1223 C1225 1.327 . S
C1223 H1246 0.950 . S
C1224 C1223 1.349 . S
C1224 C1236 1.349 . S
C1225 C1223 1.327 . S
C1225 C1241 1.429 . S
C1225 H1247 0.950 . S
C1226 H1222 0.949 . S
C1226 C1234 1.574 . S
C1226 C1242 1.368 . S
H1227 C1235 0.950 . S
H1228 C1233 0.950 . S
H1229 C1234 0.949 . S
H1230 C1236 0.950 . S
H1231 C1237 0.950 . S
H1232 C1238 0.949 . S
C1233 H1228 0.950 . S
C1233 C1235 1.327 . S
C1233 C1239 1.429 . S
C1234 C1226 1.574 . S
C1234 H1229 0.949 . S
C1234 C1240 1.368 . S
C1235 C1219 1.349 . S
C1235 H1227 0.950 . S
C1235 C1233 1.327 . S
C1236 C1224 1.349 . S
C1236 H1230 0.950 . S
C1236 C1237 1.327 . S
C1237 H1231 0.950 . S
C1237 C1236 1.327 . S
C1237 C1241 1.429 . S
C1238 C1221 1.574 . S
C1238 H1232 0.949 . S
C1238 C1242 1.368 . S
C1239 C1220 1.429 . S
C1239 C1233 1.429 . S
C1239 C1240 1.523 . S
C1240 C1221 1.368 . S
C1240 C1234 1.368 . S
C1240 C1239 1.523 . S
C1241 C1225 1.429 . S
C1241 C1237 1.429 . S
C1241 C1242 1.523 . S
C1242 C1226 1.368 . S
C1242 C1238 1.368 . S
C1242 C1241 1.523 . S
H1243 C1218 0.950 . S
H1244 C1220 0.950 . S
H1245 C1221 0.949 . S
H1246 C1223 0.950 . S
H1247 C1225 0.950 . S
C1248 C1249 1.349 . S
C1248 C1250 1.327 . S
C1248 H1273 0.950 . S
C1249 C1248 1.349 . S
C1249 C1265 1.349 . S
C1250 C1248 1.327 . S
C1250 C1269 1.429 . S
C1250 H1274 0.950 . S
C1251 C1268 1.574 . S
C1251 C1270 1.368 . S
C1251 H1275 0.949 . S
H1252 C1256 0.949 . S
C1253 C1254 1.349 . S
C1253 C1255 1.327 . S
C1253 H1276 0.950 . S
C1254 C1253 1.349 . S
C1254 C1266 1.349 . S
C1255 C1253 1.327 . S
C1255 C1271 1.429 . S
C1255 H1277 0.950 . S
C1256 H1252 0.949 . S
C1256 C1264 1.574 . S
C1256 C1272 1.368 . S
H1257 C1265 0.950 . S
H1258 C1263 0.950 . S
H1259 C1264 0.949 . S
H1260 C1266 0.950 . S
H1261 C1267 0.950 . S
H1262 C1268 0.949 . S
C1263 H1258 0.950 . S
C1263 C1265 1.327 . S
C1263 C1269 1.429 . S
C1264 C1256 1.574 . S
C1264 H1259 0.949 . S
C1264 C1270 1.368 . S
C1265 C1249 1.349 . S
C1265 H1257 0.950 . S
C1265 C1263 1.327 . S
C1266 C1254 1.349 . S
C1266 H1260 0.950 . S
C1266 C1267 1.327 . S
C1267 H1261 0.950 . S
C1267 C1266 1.327 . S
C1267 C1271 1.429 . S
C1268 C1251 1.574 . S
C1268 H1262 0.949 . S
C1268 C1272 1.368 . S
C1269 C1250 1.429 . S
C1269 C1263 1.429 . S
C1269 C1270 1.523 . S
C1270 C1251 1.368 . S
C1270 C1264 1.368 . S
C1270 C1269 1.523 . S
C1271 C1255 1.429 . S
C1271 C1267 1.429 . S
C1271 C1272 1.523 . S
C1272 C1256 1.368 . S
C1272 C1268 1.368 . S
C1272 C1271 1.523 . S
H1273 C1248 0.950 . S
H1274 C1250 0.950 . S
H1275 C1251 0.949 . S
H1276 C1253 0.950 . S
H1277 C1255 0.950 . S
C1278 C1279 1.349 . S
C1278 C1280 1.327 . S
C1278 H1303 0.950 . S
C1279 C1278 1.349 . S
C1279 C1295 1.349 . S
C1280 C1278 1.327 . S
C1280 C1299 1.429 . S
C1280 H1304 0.950 . S
C1281 C1298 1.574 . S
C1281 C1300 1.368 . S
C1281 H1305 0.949 . S
H1282 C1286 0.949 . S
C1283 C1284 1.349 . S
C1283 C1285 1.327 . S
C1283 H1306 0.950 . S
C1284 C1283 1.349 . S
C1284 C1296 1.349 . S
C1285 C1283 1.327 . S
C1285 C1301 1.429 . S
C1285 H1307 0.950 . S
C1286 H1282 0.949 . S
C1286 C1294 1.574 . S
C1286 C1302 1.368 . S
H1287 C1295 0.950 . S
H1288 C1293 0.950 . S
H1289 C1294 0.949 . S
H1290 C1296 0.950 . S
H1291 C1297 0.950 . S
H1292 C1298 0.949 . S
C1293 H1288 0.950 . S
C1293 C1295 1.327 . S
C1293 C1299 1.429 . S
C1294 C1286 1.574 . S
C1294 H1289 0.949 . S
C1294 C1300 1.368 . S
C1295 C1279 1.349 . S
C1295 H1287 0.950 . S
C1295 C1293 1.327 . S
C1296 C1284 1.349 . S
C1296 H1290 0.950 . S
C1296 C1297 1.327 . S
C1297 H1291 0.950 . S
C1297 C1296 1.327 . S
C1297 C1301 1.429 . S
C1298 C1281 1.574 . S
C1298 H1292 0.949 . S
C1298 C1302 1.368 . S
C1299 C1280 1.429 . S
C1299 C1293 1.429 . S
C1299 C1300 1.523 . S
C1300 C1281 1.368 . S
C1300 C1294 1.368 . S
C1300 C1299 1.523 . S
C1301 C1285 1.429 . S
C1301 C1297 1.429 . S
C1301 C1302 1.523 . S
C1302 C1286 1.368 . S
C1302 C1298 1.368 . S
C1302 C1301 1.523 . S
H1303 C1278 0.950 . S
H1304 C1280 0.950 . S
H1305 C1281 0.949 . S
H1306 C1283 0.950 . S
H1307 C1285 0.950 . S
C1308 C1309 1.349 . S
C1308 C1310 1.327 . S
C1308 H1333 0.950 . S
C1309 C1308 1.349 . S
C1309 C1325 1.349 . S
C1310 C1308 1.327 . S
C1310 C1329 1.429 . S
C1310 H1334 0.950 . S
C1311 C1328 1.574 . S
C1311 C1330 1.368 . S
C1311 H1335 0.949 . S
H1312 C1316 0.949 . S
C1313 C1314 1.349 . S
C1313 C1315 1.327 . S
C1313 H1336 0.950 . S
C1314 C1313 1.349 . S
C1314 C1326 1.349 . S
C1315 C1313 1.327 . S
C1315 C1331 1.429 . S
C1315 H1337 0.950 . S
C1316 H1312 0.949 . S
C1316 C1324 1.574 . S
C1316 C1332 1.368 . S
H1317 C1325 0.950 . S
H1318 C1323 0.950 . S
H1319 C1324 0.949 . S
H1320 C1326 0.950 . S
H1321 C1327 0.950 . S
H1322 C1328 0.949 . S
C1323 H1318 0.950 . S
C1323 C1325 1.327 . S
C1323 C1329 1.429 . S
C1324 C1316 1.574 . S
C1324 H1319 0.949 . S
C1324 C1330 1.368 . S
C1325 C1309 1.349 . S
C1325 H1317 0.950 . S
C1325 C1323 1.327 . S
C1326 C1314 1.349 . S
C1326 H1320 0.950 . S
C1326 C1327 1.327 . S
C1327 H1321 0.950 . S
C1327 C1326 1.327 . S
C1327 C1331 1.429 . S
C1328 C1311 1.574 . S
C1328 H1322 0.949 . S
C1328 C1332 1.368 . S
C1329 C1310 1.429 . S
C1329 C1323 1.429 . S
C1329 C1330 1.523 . S
C1330 C1311 1.368 . S
C1330 C1324 1.368 . S
C1330 C1329 1.523 . S
C1331 C1315 1.429 . S
C1331 C1327 1.429 . S
C1331 C1332 1.523 . S
C1332 C1316 1.368 . S
C1332 C1328 1.368 . S
C1332 C1331 1.523 . S
H1333 C1308 0.950 . S
H1334 C1310 0.950 . S
H1335 C1311 0.949 . S
H1336 C1313 0.950 . S
H1337 C1315 0.950 . S
C1338 C1339 1.349 . S
C1338 C1340 1.327 . S
C1338 H1363 0.950 . S
C1339 C1338 1.349 . S
C1339 C1355 1.349 . S
C1340 C1338 1.327 . S
C1340 C1359 1.429 . S
C1340 H1364 0.950 . S
C1341 C1358 1.574 . S
C1341 C1360 1.368 . S
C1341 H1365 0.949 . S
H1342 C1346 0.949 . S
C1343 C1344 1.349 . S
C1343 C1345 1.327 . S
C1343 H1366 0.950 . S
C1344 C1343 1.349 . S
C1344 C1356 1.349 . S
C1345 C1343 1.327 . S
C1345 C1361 1.429 . S
C1345 H1367 0.950 . S
C1346 H1342 0.949 . S
C1346 C1354 1.574 . S
C1346 C1362 1.368 . S
H1347 C1355 0.950 . S
H1348 C1353 0.950 . S
H1349 C1354 0.949 . S
H1350 C1356 0.950 . S
H1351 C1357 0.950 . S
H1352 C1358 0.949 . S
C1353 H1348 0.950 . S
C1353 C1355 1.327 . S
C1353 C1359 1.429 . S
C1354 C1346 1.574 . S
C1354 H1349 0.949 . S
C1354 C1360 1.368 . S
C1355 C1339 1.349 . S
C1355 H1347 0.950 . S
C1355 C1353 1.327 . S
C1356 C1344 1.349 . S
C1356 H1350 0.950 . S
C1356 C1357 1.327 . S
C1357 H1351 0.950 . S
C1357 C1356 1.327 . S
C1357 C1361 1.429 . S
C1358 C1341 1.574 . S
C1358 H1352 0.949 . S
C1358 C1362 1.368 . S
C1359 C1340 1.429 . S
C1359 C1353 1.429 . S
C1359 C1360 1.523 . S
C1360 C1341 1.368 . S
C1360 C1354 1.368 . S
C1360 C1359 1.523 . S
C1361 C1345 1.429 . S
C1361 C1357 1.429 . S
C1361 C1362 1.523 . S
C1362 C1346 1.368 . S
C1362 C1358 1.368 . S
C1362 C1361 1.523 . S
H1363 C1338 0.950 . S
H1364 C1340 0.950 . S
H1365 C1341 0.949 . S
H1366 C1343 0.950 . S
H1367 C1345 0.950 . S
C1368 C1369 1.349 . S
C1368 C1370 1.327 . S
C1368 H1393 0.950 . S
C1369 C1368 1.349 . S
C1369 C1385 1.349 . S
C1370 C1368 1.327 . S
C1370 C1389 1.429 . S
C1370 H1394 0.950 . S
C1371 C1388 1.574 . S
C1371 C1390 1.368 . S
C1371 H1395 0.949 . S
H1372 C1376 0.949 . S
C1373 C1374 1.349 . S
C1373 C1375 1.327 . S
C1373 H1396 0.950 . S
C1374 C1373 1.349 . S
C1374 C1386 1.349 . S
C1375 C1373 1.327 . S
C1375 C1391 1.429 . S
C1375 H1397 0.950 . S
C1376 H1372 0.949 . S
C1376 C1384 1.574 . S
C1376 C1392 1.368 . S
H1377 C1385 0.950 . S
H1378 C1383 0.950 . S
H1379 C1384 0.949 . S
H1380 C1386 0.950 . S
H1381 C1387 0.950 . S
H1382 C1388 0.949 . S
C1383 H1378 0.950 . S
C1383 C1385 1.327 . S
C1383 C1389 1.429 . S
C1384 C1376 1.574 . S
C1384 H1379 0.949 . S
C1384 C1390 1.368 . S
C1385 C1369 1.349 . S
C1385 H1377 0.950 . S
C1385 C1383 1.327 . S
C1386 C1374 1.349 . S
C1386 H1380 0.950 . S
C1386 C1387 1.327 . S
C1387 H1381 0.950 . S
C1387 C1386 1.327 . S
C1387 C1391 1.429 . S
C1388 C1371 1.574 . S
C1388 H1382 0.949 . S
C1388 C1392 1.368 . S
C1389 C1370 1.429 . S
C1389 C1383 1.429 . S
C1389 C1390 1.523 . S
C1390 C1371 1.368 . S
C1390 C1384 1.368 . S
C1390 C1389 1.523 . S
C1391 C1375 1.429 . S
C1391 C1387 1.429 . S
C1391 C1392 1.523 . S
C1392 C1376 1.368 . S
C1392 C1388 1.368 . S
C1392 C1391 1.523 . S
H1393 C1368 0.950 . S
H1394 C1370 0.950 . S
H1395 C1371 0.949 . S
H1396 C1373 0.950 . S
H1397 C1375 0.950 . S
C1398 C1399 1.349 . S
C1398 C1400 1.327 . S
C1398 H1423 0.950 . S
C1399 C1398 1.349 . S
C1399 C1415 1.349 . S
C1400 C1398 1.327 . S
C1400 C1419 1.429 . S
C1400 H1424 0.950 . S
C1401 C1418 1.574 . S
C1401 C1420 1.368 . S
C1401 H1425 0.949 . S
H1402 C1406 0.949 . S
C1403 C1404 1.349 . S
C1403 C1405 1.327 . S
C1403 H1426 0.950 . S
C1404 C1403 1.349 . S
C1404 C1416 1.349 . S
C1405 C1403 1.327 . S
C1405 C1421 1.429 . S
C1405 H1427 0.950 . S
C1406 H1402 0.949 . S
C1406 C1414 1.574 . S
C1406 C1422 1.368 . S
H1407 C1415 0.950 . S
H1408 C1413 0.950 . S
H1409 C1414 0.949 . S
H1410 C1416 0.950 . S
H1411 C1417 0.950 . S
H1412 C1418 0.949 . S
C1413 H1408 0.950 . S
C1413 C1415 1.327 . S
C1413 C1419 1.429 . S
C1414 C1406 1.574 . S
C1414 H1409 0.949 . S
C1414 C1420 1.368 . S
C1415 C1399 1.349 . S
C1415 H1407 0.950 . S
C1415 C1413 1.327 . S
C1416 C1404 1.349 . S
C1416 H1410 0.950 . S
C1416 C1417 1.327 . S
C1417 H1411 0.950 . S
C1417 C1416 1.327 . S
C1417 C1421 1.429 . S
C1418 C1401 1.574 . S
C1418 H1412 0.949 . S
C1418 C1422 1.368 . S
C1419 C1400 1.429 . S
C1419 C1413 1.429 . S
C1419 C1420 1.523 . S
C1420 C1401 1.368 . S
C1420 C1414 1.368 . S
C1420 C1419 1.523 . S
C1421 C1405 1.429 . S
C1421 C1417 1.429 . S
C1421 C1422 1.523 . S
C1422 C1406 1.368 . S
C1422 C1418 1.368 . S
C1422 C1421 1.523 . S
H1423 C1398 0.950 . S
H1424 C1400 0.950 . S
H1425 C1401 0.949 . S
H1426 C1403 0.950 . S
H1427 C1405 0.950 . S
C1428 C1429 1.349 . S
C1428 C1430 1.327 . S
C1428 H1453 0.950 . S
C1429 C1428 1.349 . S
C1429 C1445 1.349 . S
C1430 C1428 1.327 . S
C1430 C1449 1.429 . S
C1430 H1454 0.950 . S
C1431 C1448 1.574 . S
C1431 C1450 1.368 . S
C1431 H1455 0.949 . S
H1432 C1436 0.949 . S
C1433 C1434 1.349 . S
C1433 C1435 1.327 . S
C1433 H1456 0.950 . S
C1434 C1433 1.349 . S
C1434 C1446 1.349 . S
C1435 C1433 1.327 . S
C1435 C1451 1.429 . S
C1435 H1457 0.950 . S
C1436 H1432 0.949 . S
C1436 C1444 1.574 . S
C1436 C1452 1.368 . S
H1437 C1445 0.950 . S
H1438 C1443 0.950 . S
H1439 C1444 0.949 . S
H1440 C1446 0.950 . S
H1441 C1447 0.950 . S
H1442 C1448 0.949 . S
C1443 H1438 0.950 . S
C1443 C1445 1.327 . S
C1443 C1449 1.429 . S
C1444 C1436 1.574 . S
C1444 H1439 0.949 . S
C1444 C1450 1.368 . S
C1445 C1429 1.349 . S
C1445 H1437 0.950 . S
C1445 C1443 1.327 . S
C1446 C1434 1.349 . S
C1446 H1440 0.950 . S
C1446 C1447 1.327 . S
C1447 H1441 0.950 . S
C1447 C1446 1.327 . S
C1447 C1451 1.429 . S
C1448 C1431 1.574 . S
C1448 H1442 0.949 . S
C1448 C1452 1.368 . S
C1449 C1430 1.429 . S
C1449 C1443 1.429 . S
C1449 C1450 1.523 . S
C1450 C1431 1.368 . S
C1450 C1444 1.368 . S
C1450 C1449 1.523 . S
C1451 C1435 1.429 . S
C1451 C1447 1.429 . S
C1451 C1452 1.523 . S
C1452 C1436 1.368 . S
C1452 C1448 1.368 . S
C1452 C1451 1.523 . S
H1453 C1428 0.950 . S
H1454 C1430 0.950 . S
H1455 C1431 0.949 . S
H1456 C1433 0.950 . S
H1457 C1435 0.950 . S
C1458 C1459 1.349 . S
C1458 C1460 1.327 . S
C1458 H1483 0.950 . S
C1459 C1458 1.349 . S
C1459 C1475 1.349 . S
C1460 C1458 1.327 . S
C1460 C1479 1.429 . S
C1460 H1484 0.950 . S
C1461 C1478 1.574 . S
C1461 C1480 1.368 . S
C1461 H1485 0.949 . S
H1462 C1466 0.949 . S
C1463 C1464 1.349 . S
C1463 C1465 1.327 . S
C1463 H1486 0.950 . S
C1464 C1463 1.349 . S
C1464 C1476 1.349 . S
C1465 C1463 1.327 . S
C1465 C1481 1.429 . S
C1465 H1487 0.950 . S
C1466 H1462 0.949 . S
C1466 C1474 1.574 . S
C1466 C1482 1.368 . S
H1467 C1475 0.950 . S
H1468 C1473 0.950 . S
H1469 C1474 0.949 . S
H1470 C1476 0.950 . S
H1471 C1477 0.950 . S
H1472 C1478 0.949 . S
C1473 H1468 0.950 . S
C1473 C1475 1.327 . S
C1473 C1479 1.429 . S
C1474 C1466 1.574 . S
C1474 H1469 0.949 . S
C1474 C1480 1.368 . S
C1475 C1459 1.349 . S
C1475 H1467 0.950 . S
C1475 C1473 1.327 . S
C1476 C1464 1.349 . S
C1476 H1470 0.950 . S
C1476 C1477 1.327 . S
C1477 H1471 0.950 . S
C1477 C1476 1.327 . S
C1477 C1481 1.429 . S
C1478 C1461 1.574 . S
C1478 H1472 0.949 . S
C1478 C1482 1.368 . S
C1479 C1460 1.429 . S
C1479 C1473 1.429 . S
C1479 C1480 1.523 . S
C1480 C1461 1.368 . S
C1480 C1474 1.368 . S
C1480 C1479 1.523 . S
C1481 C1465 1.429 . S
C1481 C1477 1.429 . S
C1481 C1482 1.523 . S
C1482 C1466 1.368 . S
C1482 C1478 1.368 . S
C1482 C1481 1.523 . S
H1483 C1458 0.950 . S
H1484 C1460 0.950 . S
H1485 C1461 0.949 . S
H1486 C1463 0.950 . S
H1487 C1465 0.950 . S
C1488 C1489 1.349 . S
C1488 C1490 1.327 . S
C1488 H1513 0.950 . S
C1489 C1488 1.349 . S
C1489 C1505 1.349 1_455 S
C1490 C1488 1.327 . S
C1490 C1509 1.429 . S
C1490 H1514 0.950 . S
C1491 C1508 1.574 . S
C1491 C1510 1.368 1_655 S
C1491 H1515 0.949 . S
H1492 C1496 0.949 . S
C1493 C1494 1.349 . S
C1493 C1495 1.327 . S
C1493 H1516 0.950 . S
C1494 C1493 1.349 . S
C1494 C1506 1.349 1_655 S
C1495 C1493 1.327 . S
C1495 C1511 1.429 . S
C1495 H1517 0.950 . S
C1496 H1492 0.949 . S
C1496 C1504 1.574 . S
C1496 C1512 1.368 1_455 S
H1497 C1505 0.950 . S
H1498 C1503 0.950 . S
H1499 C1504 0.949 . S
H1500 C1506 0.950 . S
H1501 C1507 0.950 . S
H1502 C1508 0.949 . S
C1503 H1498 0.950 . S
C1503 C1505 1.327 . S
C1503 C1509 1.429 1_655 S
C1504 C1496 1.574 . S
C1504 H1499 0.949 . S
C1504 C1510 1.368 . S
C1505 C1489 1.349 1_655 S
C1505 H1497 0.950 . S
C1505 C1503 1.327 . S
C1506 C1494 1.349 1_455 S
C1506 H1500 0.950 . S
C1506 C1507 1.327 . S
C1507 H1501 0.950 . S
C1507 C1506 1.327 . S
C1507 C1511 1.429 1_455 S
C1508 C1491 1.574 . S
C1508 H1502 0.949 . S
C1508 C1512 1.368 . S
C1509 C1490 1.429 . S
C1509 C1503 1.429 1_455 S
C1509 C1510 1.523 . S
C1510 C1491 1.368 1_455 S
C1510 C1504 1.368 . S
C1510 C1509 1.523 . S
C1511 C1495 1.429 . S
C1511 C1507 1.429 1_655 S
C1511 C1512 1.523 . S
C1512 C1496 1.368 1_655 S
C1512 C1508 1.368 . S
C1512 C1511 1.523 . S
H1513 C1488 0.950 . S
H1514 C1490 0.950 . S
H1515 C1491 0.949 . S
H1516 C1493 0.950 . S
H1517 C1495 0.950 . S
C1518 C1519 1.349 . S
C1518 C1520 1.327 . S
C1518 H1543 0.950 . S
C1519 C1518 1.349 . S
C1519 C1535 1.349 1_565 S
C1520 C1518 1.327 . S
C1520 C1539 1.429 . S
C1520 H1544 0.950 . S
C1521 C1538 1.574 . S
C1521 C1540 1.368 1_545 S
C1521 H1545 0.949 . S
H1522 C1526 0.949 . S
C1523 C1524 1.349 . S
C1523 C1525 1.327 . S
C1523 H1546 0.950 . S
C1524 C1523 1.349 . S
C1524 C1536 1.349 1_545 S
C1525 C1523 1.327 . S
C1525 C1541 1.429 . S
C1525 H1547 0.950 . S
C1526 H1522 0.949 . S
C1526 C1534 1.574 . S
C1526 C1542 1.368 1_565 S
H1527 C1535 0.950 . S
H1528 C1533 0.950 . S
H1529 C1534 0.949 . S
H1530 C1536 0.950 . S
H1531 C1537 0.950 . S
H1532 C1538 0.949 . S
C1533 H1528 0.950 . S
C1533 C1535 1.327 . S
C1533 C1539 1.429 1_545 S
C1534 C1526 1.574 . S
C1534 H1529 0.949 . S
C1534 C1540 1.368 . S
C1535 C1519 1.349 1_545 S
C1535 H1527 0.950 . S
C1535 C1533 1.327 . S
C1536 C1524 1.349 1_565 S
C1536 H1530 0.950 . S
C1536 C1537 1.327 . S
C1537 H1531 0.950 . S
C1537 C1536 1.327 . S
C1537 C1541 1.429 1_565 S
C1538 C1521 1.574 . S
C1538 H1532 0.949 . S
C1538 C1542 1.368 . S
C1539 C1520 1.429 . S
C1539 C1533 1.429 1_565 S
C1539 C1540 1.523 . S
C1540 C1521 1.368 1_565 S
C1540 C1534 1.368 . S
C1540 C1539 1.523 . S
C1541 C1525 1.429 . S
C1541 C1537 1.429 1_545 S
C1541 C1542 1.523 . S
C1542 C1526 1.368 1_545 S
C1542 C1538 1.368 . S
C1542 C1541 1.523 . S
H1543 C1518 0.950 . S
H1544 C1520 0.950 . S
H1545 C1521 0.949 . S
H1546 C1523 0.950 . S
H1547 C1525 0.950 . S
C1548 C1549 1.349 1_655 S
C1548 C1550 1.327 . S
C1548 H1573 0.950 . S
C1549 C1548 1.349 1_455 S
C1549 C1565 1.349 . S
C1550 C1548 1.327 . S
C1550 C1569 1.429 1_655 S
C1550 H1574 0.950 . S
C1551 C1568 1.574 . S
C1551 C1570 1.368 . S
C1551 H1575 0.949 . S
H1552 C1556 0.949 . S
C1553 C1554 1.349 1_455 S
C1553 C1555 1.327 . S
C1553 H1576 0.950 . S
C1554 C1553 1.349 1_655 S
C1554 C1566 1.349 . S
C1555 C1553 1.327 . S
C1555 C1571 1.429 1_455 S
C1555 H1577 0.950 . S
C1556 H1552 0.949 . S
C1556 C1564 1.574 . S
C1556 C1572 1.368 . S
H1557 C1565 0.950 . S
H1558 C1563 0.950 . S
H1559 C1564 0.949 . S
H1560 C1566 0.950 . S
H1561 C1567 0.950 . S
H1562 C1568 0.949 . S
C1563 H1558 0.950 . S
C1563 C1565 1.327 . S
C1563 C1569 1.429 . S
C1564 C1556 1.574 . S
C1564 H1559 0.949 . S
C1564 C1570 1.368 1_655 S
C1565 C1549 1.349 . S
C1565 H1557 0.950 . S
C1565 C1563 1.327 . S
C1566 C1554 1.349 . S
C1566 H1560 0.950 . S
C1566 C1567 1.327 . S
C1567 H1561 0.950 . S
C1567 C1566 1.327 . S
C1567 C1571 1.429 . S
C1568 C1551 1.574 . S
C1568 H1562 0.949 . S
C1568 C1572 1.368 1_455 S
C1569 C1550 1.429 1_455 S
C1569 C1563 1.429 . S
C1569 C1570 1.523 . S
C1570 C1551 1.368 . S
C1570 C1564 1.368 1_455 S
C1570 C1569 1.523 . S
C1571 C1555 1.429 1_655 S
C1571 C1567 1.429 . S
C1571 C1572 1.523 . S
C1572 C1556 1.368 . S
C1572 C1568 1.368 1_655 S
C1572 C1571 1.523 . S
H1573 C1548 0.950 . S
H1574 C1550 0.950 . S
H1575 C1551 0.949 . S
H1576 C1553 0.950 . S
H1577 C1555 0.950 . S
C1578 C1579 1.349 1_565 S
C1578 C1580 1.327 . S
C1578 H1603 0.950 . S
C1579 C1578 1.349 1_545 S
C1579 C1595 1.349 . S
C1580 C1578 1.327 . S
C1580 C1599 1.429 1_565 S
C1580 H1604 0.950 . S
C1581 C1598 1.574 . S
C1581 C1600 1.368 . S
C1581 H1605 0.949 . S
H1582 C1586 0.949 . S
C1583 C1584 1.349 1_545 S
C1583 C1585 1.327 . S
C1583 H1606 0.950 . S
C1584 C1583 1.349 1_565 S
C1584 C1596 1.349 . S
C1585 C1583 1.327 . S
C1585 C1601 1.429 1_545 S
C1585 H1607 0.950 . S
C1586 H1582 0.949 . S
C1586 C1594 1.574 . S
C1586 C1602 1.368 . S
H1587 C1595 0.950 . S
H1588 C1593 0.950 . S
H1589 C1594 0.949 . S
H1590 C1596 0.950 . S
H1591 C1597 0.950 . S
H1592 C1598 0.949 . S
C1593 H1588 0.950 . S
C1593 C1595 1.327 . S
C1593 C1599 1.429 . S
C1594 C1586 1.574 . S
C1594 H1589 0.949 . S
C1594 C1600 1.368 1_565 S
C1595 C1579 1.349 . S
C1595 H1587 0.950 . S
C1595 C1593 1.327 . S
C1596 C1584 1.349 . S
C1596 H1590 0.950 . S
C1596 C1597 1.327 . S
C1597 H1591 0.950 . S
C1597 C1596 1.327 . S
C1597 C1601 1.429 . S
C1598 C1581 1.574 . S
C1598 H1592 0.949 . S
C1598 C1602 1.368 1_545 S
C1599 C1580 1.429 1_545 S
C1599 C1593 1.429 . S
C1599 C1600 1.523 . S
C1600 C1581 1.368 . S
C1600 C1594 1.368 1_545 S
C1600 C1599 1.523 . S
C1601 C1585 1.429 1_565 S
C1601 C1597 1.429 . S
C1601 C1602 1.523 . S
C1602 C1586 1.368 . S
C1602 C1598 1.368 1_565 S
C1602 C1601 1.523 . S
H1603 C1578 0.950 . S
H1604 C1580 0.950 . S
H1605 C1581 0.949 . S
H1606 C1583 0.950 . S
H1607 C1585 0.950 . S
C1608 C1609 1.349 . S
C1608 C1610 1.327 . S
C1608 H1633 0.950 . S
C1609 C1608 1.349 . S
C1609 C1625 1.349 . S
C1610 C1608 1.327 . S
C1610 C1629 1.429 . S
C1610 H1634 0.950 . S
C1611 C1628 1.574 1_556 S
C1611 C1630 1.368 . S
C1611 H1635 0.949 . S
H1612 C1616 0.949 . S
C1613 C1614 1.349 . S
C1613 C1615 1.327 . S
C1613 H1636 0.950 . S
C1614 C1613 1.349 . S
C1614 C1626 1.349 . S
C1615 C1613 1.327 . S
C1615 C1631 1.429 . S
C1615 H1637 0.950 . S
C1616 H1612 0.949 . S
C1616 C1624 1.574 1_554 S
C1616 C1632 1.368 . S
H1617 C1625 0.950 . S
H1618 C1623 0.950 . S
H1619 C1624 0.949 . S
H1620 C1626 0.950 . S
H1621 C1627 0.950 . S
H1622 C1628 0.949 . S
C1623 H1618 0.950 . S
C1623 C1625 1.327 . S
C1623 C1629 1.429 . S
C1624 C1616 1.574 1_556 S
C1624 H1619 0.949 . S
C1624 C1630 1.368 . S
C1625 C1609 1.349 . S
C1625 H1617 0.950 . S
C1625 C1623 1.327 . S
C1626 C1614 1.349 . S
C1626 H1620 0.950 . S
C1626 C1627 1.327 . S
C1627 H1621 0.950 . S
C1627 C1626 1.327 . S
C1627 C1631 1.429 . S
C1628 C1611 1.574 1_554 S
C1628 H1622 0.949 . S
C1628 C1632 1.368 . S
C1629 C1610 1.429 . S
C1629 C1623 1.429 . S
C1629 C1630 1.523 . S
C1630 C1611 1.368 . S
C1630 C1624 1.368 . S
C1630 C1629 1.523 . S
C1631 C1615 1.429 . S
C1631 C1627 1.429 . S
C1631 C1632 1.523 . S
C1632 C1616 1.368 . S
C1632 C1628 1.368 . S
C1632 C1631 1.523 . S
H1633 C1608 0.950 . S
H1634 C1610 0.950 . S
H1635 C1611 0.949 . S
H1636 C1613 0.950 . S
H1637 C1615 0.950 . S
C1638 C1639 1.349 . S
C1638 C1640 1.327 . S
C1638 H1663 0.950 . S
C1639 C1638 1.349 . S
C1639 C1655 1.349 . S
C1640 C1638 1.327 . S
C1640 C1659 1.429 . S
C1640 H1664 0.950 . S
C1641 C1658 1.574 1_554 S
C1641 C1660 1.368 . S
C1641 H1665 0.949 . S
H1642 C1646 0.949 . S
C1643 C1644 1.349 . S
C1643 C1645 1.327 . S
C1643 H1666 0.950 . S
C1644 C1643 1.349 . S
C1644 C1656 1.349 . S
C1645 C1643 1.327 . S
C1645 C1661 1.429 . S
C1645 H1667 0.950 . S
C1646 H1642 0.949 . S
C1646 C1654 1.574 1_556 S
C1646 C1662 1.368 . S
H1647 C1655 0.950 . S
H1648 C1653 0.950 . S
H1649 C1654 0.949 . S
H1650 C1656 0.950 . S
H1651 C1657 0.950 . S
H1652 C1658 0.949 . S
C1653 H1648 0.950 . S
C1653 C1655 1.327 . S
C1653 C1659 1.429 . S
C1654 C1646 1.574 1_554 S
C1654 H1649 0.949 . S
C1654 C1660 1.368 . S
C1655 C1639 1.349 . S
C1655 H1647 0.950 . S
C1655 C1653 1.327 . S
C1656 C1644 1.349 . S
C1656 H1650 0.950 . S
C1656 C1657 1.327 . S
C1657 H1651 0.950 . S
C1657 C1656 1.327 . S
C1657 C1661 1.429 . S
C1658 C1641 1.574 1_556 S
C1658 H1652 0.949 . S
C1658 C1662 1.368 . S
C1659 C1640 1.429 . S
C1659 C1653 1.429 . S
C1659 C1660 1.523 . S
C1660 C1641 1.368 . S
C1660 C1654 1.368 . S
C1660 C1659 1.523 . S
C1661 C1645 1.429 . S
C1661 C1657 1.429 . S
C1661 C1662 1.523 . S
C1662 C1646 1.368 . S
C1662 C1658 1.368 . S
C1662 C1661 1.523 . S
H1663 C1638 0.950 . S
H1664 C1640 0.950 . S
H1665 C1641 0.949 . S
H1666 C1643 0.950 . S
H1667 C1645 0.950 . S
C1668 C1669 1.349 . S
C1668 C1670 1.327 . S
C1668 H1693 0.950 . S
C1669 C1668 1.349 . S
C1669 C1685 1.349 . S
C1670 C1668 1.327 . S
C1670 C1689 1.429 . S
C1670 H1694 0.950 . S
C1671 C1688 1.574 1_554 S
C1671 C1690 1.368 . S
C1671 H1695 0.949 . S
H1672 C1676 0.949 . S
C1673 C1674 1.349 . S
C1673 C1675 1.327 . S
C1673 H1696 0.950 . S
C1674 C1673 1.349 . S
C1674 C1686 1.349 . S
C1675 C1673 1.327 . S
C1675 C1691 1.429 . S
C1675 H1697 0.950 . S
C1676 H1672 0.949 . S
C1676 C1684 1.574 1_556 S
C1676 C1692 1.368 . S
H1677 C1685 0.950 . S
H1678 C1683 0.950 . S
H1679 C1684 0.949 . S
H1680 C1686 0.950 . S
H1681 C1687 0.950 . S
H1682 C1688 0.949 . S
C1683 H1678 0.950 . S
C1683 C1685 1.327 . S
C1683 C1689 1.429 . S
C1684 C1676 1.574 1_554 S
C1684 H1679 0.949 . S
C1684 C1690 1.368 . S
C1685 C1669 1.349 . S
C1685 H1677 0.950 . S
C1685 C1683 1.327 . S
C1686 C1674 1.349 . S
C1686 H1680 0.950 . S
C1686 C1687 1.327 . S
C1687 H1681 0.950 . S
C1687 C1686 1.327 . S
C1687 C1691 1.429 . S
C1688 C1671 1.574 1_556 S
C1688 H1682 0.949 . S
C1688 C1692 1.368 . S
C1689 C1670 1.429 . S
C1689 C1683 1.429 . S
C1689 C1690 1.523 . S
C1690 C1671 1.368 . S
C1690 C1684 1.368 . S
C1690 C1689 1.523 . S
C1691 C1675 1.429 . S
C1691 C1687 1.429 . S
C1691 C1692 1.523 . S
C1692 C1676 1.368 . S
C1692 C1688 1.368 . S
C1692 C1691 1.523 . S
H1693 C1668 0.950 . S
H1694 C1670 0.950 . S
H1695 C1671 0.949 . S
H1696 C1673 0.950 . S
H1697 C1675 0.950 . S
C1698 C1699 1.349 . S
C1698 C1700 1.327 . S
C1698 H1723 0.950 . S
C1699 C1698 1.349 . S
C1699 C1715 1.349 . S
C1700 C1698 1.327 . S
C1700 C1719 1.429 . S
C1700 H1724 0.950 . S
C1701 C1718 1.574 1_556 S
C1701 C1720 1.368 . S
C1701 H1725 0.949 . S
H1702 C1706 0.949 . S
C1703 C1704 1.349 . S
C1703 C1705 1.327 . S
C1703 H1726 0.950 . S
C1704 C1703 1.349 . S
C1704 C1716 1.349 . S
C1705 C1703 1.327 . S
C1705 C1721 1.429 . S
C1705 H1727 0.950 . S
C1706 H1702 0.949 . S
C1706 C1714 1.574 1_554 S
C1706 C1722 1.368 . S
H1707 C1715 0.950 . S
H1708 C1713 0.950 . S
H1709 C1714 0.949 . S
H1710 C1716 0.950 . S
H1711 C1717 0.950 . S
H1712 C1718 0.949 . S
C1713 H1708 0.950 . S
C1713 C1715 1.327 . S
C1713 C1719 1.429 . S
C1714 C1706 1.574 1_556 S
C1714 H1709 0.949 . S
C1714 C1720 1.368 . S
C1715 C1699 1.349 . S
C1715 H1707 0.950 . S
C1715 C1713 1.327 . S
C1716 C1704 1.349 . S
C1716 H1710 0.950 . S
C1716 C1717 1.327 . S
C1717 H1711 0.950 . S
C1717 C1716 1.327 . S
C1717 C1721 1.429 . S
C1718 C1701 1.574 1_554 S
C1718 H1712 0.949 . S
C1718 C1722 1.368 . S
C1719 C1700 1.429 . S
C1719 C1713 1.429 . S
C1719 C1720 1.523 . S
C1720 C1701 1.368 . S
C1720 C1714 1.368 . S
C1720 C1719 1.523 . S
C1721 C1705 1.429 . S
C1721 C1717 1.429 . S
C1721 C1722 1.523 . S
C1722 C1706 1.368 . S
C1722 C1718 1.368 . S
C1722 C1721 1.523 . S
H1723 C1698 0.950 . S
H1724 C1700 0.950 . S
H1725 C1701 0.949 . S
H1726 C1703 0.950 . S
H1727 C1705 0.950 . S
C529 C84 0.194 . S
C534 C18 0.194 . S
C559 C51 0.194 . S
C564 C117 0.194 . S
C589 C216 0.194 . S
C594 C150 0.194 . S
C619 C249 0.194 . S
C624 C183 0.194 . S
C649 C282 0.194 . S
C654 C348 0.194 . S
C679 C381 0.194 . S
C684 C315 0.194 . S
C709 C480 0.194 . S
C714 C414 0.194 . S
C739 C447 0.194 . S
C744 C513 0.194 . S
C769 N13 1.790 . S
C774 N508 1.790 . S
C799 N409 1.790 . S
C804 N46 1.790 . S
C829 N442 1.790 . S
C834 N79 1.790 . S
C859 N475 1.790 . S
C864 N112 1.790 . S
C889 N310 1.790 . S
C894 N145 1.790 . S
C919 N343 1.790 . S
C924 N178 1.790 . S
C949 N376 1.790 . S
C954 N211 1.790 . S
C979 N277 1.790 . S
C984 N244 1.790 . S
C1009 C7 1.274 . S
C1014 C120 1.277 . S
C1039 C21 1.277 . S
C1044 C40 1.274 . S
C1069 C73 1.274 . S
C1074 C54 1.277 . S
C1099 C87 1.277 . S
C1104 C106 1.274 . S
C1129 C186 1.277 . S
C1134 C139 1.274 . S
C1159 C172 1.274 . S
C1164 C219 1.277 . S
C1189 C252 1.277 . S
C1194 C205 1.274 . S
C1219 C153 1.277 . S
C1224 C238 1.274 . S
C1249 C271 1.274 . S
C1254 C384 1.277 . S
C1279 C285 1.277 . S
C1284 C304 1.274 . S
C1309 C337 1.274 . S
C1314 C318 1.277 . S
C1339 C370 1.274 . S
C1344 C351 1.277 . S
C1369 C403 1.274 . S
C1374 C450 1.277 . S
C1399 C483 1.277 . S
C1404 C436 1.274 . S
C1429 C516 1.277 . S
C1434 C469 1.274 . S
C1459 C502 1.274 . S
C1464 C417 1.277 . S
C1489 N2 1.602 . S
C1494 N200 1.602 . S
C1519 N233 1.602 . S
C1524 N35 1.602 . S
C1549 N134 1.602 . S
C1554 N68 1.602 . S
C1579 N167 1.602 . S
C1584 N101 1.602 . S
C1609 N266 1.602 . S
C1614 N464 1.602 . S
C1639 N497 1.602 . S
C1644 N299 1.602 . S
C1669 N398 1.602 . S
C1674 N332 1.602 . S
C1699 N365 1.602 . S
C1704 N431 1.602 . S
