# Generated by pormake.
# Topology ung, (4)-cn, num edge types: 1
# Building blocks:
#     Node 0, Type 0, BuildingBlock: QUQFOY_clean_sbu_1, # of connection points: 4
#     Node 1, Type 0, BuildingBlock: QUQFOY_clean_sbu_1, # of connection points: 4
#     Node 2, Type 0, BuildingBlock: QUQFOY_clean_sbu_1, # of connection points: 4
#     Node 3, Type 0, BuildingBlock: QUQFOY_clean_sbu_1, # of connection points: 4
#     Node 4, Type 0, BuildingBlock: QUQFOY_clean_sbu_1, # of connection points: 4
#     Node 5, Type 0, BuildingBlock: QUQFOY_clean_sbu_1, # of connection points: 4
#     Node 6, Type 0, BuildingBlock: QUQFOY_clean_sbu_1, # of connection points: 4
#     Node 7, Type 0, BuildingBlock: QUQFOY_clean_sbu_1, # of connection points: 4
#     Node 8, Type 0, BuildingBlock: QUQFOY_clean_sbu_1, # of connection points: 4
#     Node 9, Type 0, BuildingBlock: QUQFOY_clean_sbu_1, # of connection points: 4
#     Node 10, Type 0, BuildingBlock: QUQFOY_clean_sbu_1, # of connection points: 4
#     Node 11, Type 0, BuildingBlock: QUQFOY_clean_sbu_1, # of connection points: 4
#     Node 12, Type 0, BuildingBlock: QUQFOY_clean_sbu_1, # of connection points: 4
#     Node 13, Type 0, BuildingBlock: QUQFOY_clean_sbu_1, # of connection points: 4
#     Node 14, Type 0, BuildingBlock: QUQFOY_clean_sbu_1, # of connection points: 4
#     Node 15, Type 0, BuildingBlock: QUQFOY_clean_sbu_1, # of connection points: 4
#     Node 16, Type 0, BuildingBlock: QUQFOY_clean_sbu_1, # of connection points: 4
#     Node 17, Type 0, BuildingBlock: QUQFOY_clean_sbu_1, # of connection points: 4
#     Edge 18, Type (0, 0), BuildingBlock: EZIPEK_clean_linker_0, # of connection points: 2
#     Edge 19, Type (0, 0), BuildingBlock: EZIPEK_clean_linker_0, # of connection points: 2
#     Edge 20, Type (0, 0), BuildingBlock: EZIPEK_clean_linker_0, # of connection points: 2
#     Edge 21, Type (0, 0), BuildingBlock: EZIPEK_clean_linker_0, # of connection points: 2
#     Edge 22, Type (0, 0), BuildingBlock: EZIPEK_clean_linker_0, # of connection points: 2
#     Edge 23, Type (0, 0), BuildingBlock: EZIPEK_clean_linker_0, # of connection points: 2
#     Edge 24, Type (0, 0), BuildingBlock: EZIPEK_clean_linker_0, # of connection points: 2
#     Edge 25, Type (0, 0), BuildingBlock: EZIPEK_clean_linker_0, # of connection points: 2
#     Edge 26, Type (0, 0), BuildingBlock: EZIPEK_clean_linker_0, # of connection points: 2
#     Edge 27, Type (0, 0), BuildingBlock: EZIPEK_clean_linker_0, # of connection points: 2
#     Edge 28, Type (0, 0), BuildingBlock: EZIPEK_clean_linker_0, # of connection points: 2
#     Edge 29, Type (0, 0), BuildingBlock: EZIPEK_clean_linker_0, # of connection points: 2
#     Edge 30, Type (0, 0), BuildingBlock: EZIPEK_clean_linker_0, # of connection points: 2
#     Edge 31, Type (0, 0), BuildingBlock: EZIPEK_clean_linker_0, # of connection points: 2
#     Edge 32, Type (0, 0), BuildingBlock: EZIPEK_clean_linker_0, # of connection points: 2
#     Edge 33, Type (0, 0), BuildingBlock: EZIPEK_clean_linker_0, # of connection points: 2
#     Edge 34, Type (0, 0), BuildingBlock: EZIPEK_clean_linker_0, # of connection points: 2
#     Edge 35, Type (0, 0), BuildingBlock: EZIPEK_clean_linker_0, # of connection points: 2
#     Edge 36, Type (0, 0), BuildingBlock: EZIPEK_clean_linker_0, # of connection points: 2
#     Edge 37, Type (0, 0), BuildingBlock: EZIPEK_clean_linker_0, # of connection points: 2
#     Edge 38, Type (0, 0), BuildingBlock: EZIPEK_clean_linker_0, # of connection points: 2
#     Edge 39, Type (0, 0), BuildingBlock: EZIPEK_clean_linker_0, # of connection points: 2
#     Edge 40, Type (0, 0), BuildingBlock: EZIPEK_clean_linker_0, # of connection points: 2
#     Edge 41, Type (0, 0), BuildingBlock: EZIPEK_clean_linker_0, # of connection points: 2
#     Edge 42, Type (0, 0), BuildingBlock: EZIPEK_clean_linker_0, # of connection points: 2
#     Edge 43, Type (0, 0), BuildingBlock: EZIPEK_clean_linker_0, # of connection points: 2
#     Edge 44, Type (0, 0), BuildingBlock: EZIPEK_clean_linker_0, # of connection points: 2
#     Edge 45, Type (0, 0), BuildingBlock: EZIPEK_clean_linker_0, # of connection points: 2
#     Edge 46, Type (0, 0), BuildingBlock: EZIPEK_clean_linker_0, # of connection points: 2
#     Edge 47, Type (0, 0), BuildingBlock: EZIPEK_clean_linker_0, # of connection points: 2
#     Edge 48, Type (0, 0), BuildingBlock: EZIPEK_clean_linker_0, # of connection points: 2
#     Edge 49, Type (0, 0), BuildingBlock: EZIPEK_clean_linker_0, # of connection points: 2
#     Edge 50, Type (0, 0), BuildingBlock: EZIPEK_clean_linker_0, # of connection points: 2
#     Edge 51, Type (0, 0), BuildingBlock: EZIPEK_clean_linker_0, # of connection points: 2
#     Edge 52, Type (0, 0), BuildingBlock: EZIPEK_clean_linker_0, # of connection points: 2
#     Edge 53, Type (0, 0), BuildingBlock: EZIPEK_clean_linker_0, # of connection points: 2
# Relax obj value: 0.077
# Max RMSD: 0.179
# Mean RMSD: 0.148
data_MOF--net-ung--node1-QUQFOY_clean_sbu_1--edge1-EZIPEK_clean_linker_0
_symmetry_space_group_name_H-M    P1
_symmetry_Int_Tables_number       1
_symmetry_cell_setting            triclinic
loop_
_symmetry_equiv_pos_as_xyz
'x, y, z'
_cell_length_a     51.798212
_cell_length_b     61.615303
_cell_length_c     16.650677
_cell_angle_alpha  90.742528
_cell_angle_beta   94.6318
_cell_angle_gamma 125.19596
loop_
_atom_site_label
_atom_site_type_symbol
_atom_site_fract_x
_atom_site_fract_y
_atom_site_fract_z
_atom_type_partial_charge
O0 O 0.05893 0.57436 0.34726 0.0
Cd1 Cd 0.06267 0.59531 0.25013 0.0
Cd2 Cd 0.01284 0.58987 0.30113 0.0
O3 O 1.00793 0.55649 0.35054 0.0
O4 O 0.07926 0.58466 0.16388 0.0
O5 O 0.0297 0.57262 0.15763 0.0
C6 C 0.05055 0.57064 0.12818 0.0
C7 C 0.97837 0.5936 0.2118 0.0
C8 C 0.03265 0.55729 0.37351 0.0
C9 C 0.07624 0.64256 0.33854 0.0
O10 O 0.04873 0.62591 0.36015 0.0
O11 O 0.08608 0.63587 0.28187 0.0
O12 O 0.97322 0.58942 0.2866 0.0
O13 O 1.00114 0.5934 0.18697 0.0
O14 O 0.44885 0.48754 0.28565 0.0
Cd15 Cd 0.42651 0.46187 0.18654 0.0
Cd16 Cd 0.44899 0.43845 0.25836 0.0
O17 O 0.4818 0.47629 0.31639 0.0
O18 O 0.42996 0.4831 0.09236 0.0
O19 O 0.45754 0.46601 0.11402 0.0
C20 C 0.45249 0.48125 0.07402 0.0
C21 C 0.45158 0.40691 0.18656 0.0
C22 C 0.47281 0.49143 0.3279 0.0
C23 C 0.38243 0.4175 0.27681 0.0
O24 O 0.40763 0.42079 0.30869 0.0
O25 O 0.3826 0.42843 0.21193 0.0
O26 O 0.46255 0.41365 0.26205 0.0
O27 O 0.44262 0.42025 0.15026 0.0
O28 O 0.56636 0.02683 0.18024 0.0
Cd29 Cd 0.59286 0.03087 0.28156 0.0
Cd30 Cd 0.58594 0.98946 0.21277 0.0
O31 O 0.54609 0.98459 0.14974 0.0
O32 O 0.58204 0.04753 0.36377 0.0
O33 O 0.56866 1.00622 0.36553 0.0
C34 C 0.56615 0.02448 0.39339 0.0
C35 C 0.59072 0.96182 0.29975 0.0
C36 C 0.54718 1.00547 0.13687 0.0
C37 C 0.64565 0.04302 0.19577 0.0
O38 O 0.62653 0.01896 0.167 0.0
O39 O 0.63964 0.05152 0.25689 0.0
O40 O 0.58268 0.95522 0.22312 0.0
O41 O 0.59421 0.98319 0.32643 0.0
O42 O 0.05868 0.50748 0.84495 0.0
Cd43 Cd 0.06593 0.49211 0.74726 0.0
Cd44 Cd 0.01649 0.44683 0.79479 0.0
O45 O 1.00892 0.47327 0.85139 0.0
O46 O 0.0822 0.51961 0.66505 0.0
O47 O 0.03423 0.48153 0.65117 0.0
C48 C 0.05426 0.50448 0.62547 0.0
C49 C 0.98328 0.40966 0.70099 0.0
C50 C 0.03231 0.49728 0.87356 0.0
C51 C 0.08255 0.45979 0.83064 0.0
O52 O 0.05427 0.44754 0.84946 0.0
O53 O 0.09205 0.47681 0.7774 0.0
O54 O 0.97949 0.40762 0.777 0.0
O55 O 1.00339 0.43306 0.67809 0.0
O56 O 0.5411 0.55864 0.64157 0.0
Cd57 Cd 0.56892 0.57469 0.74773 0.0
Cd58 Cd 0.56882 0.61487 0.69928 0.0
O59 O 0.52832 0.58697 0.62359 0.0
O60 O 0.55543 0.54318 0.81144 0.0
O61 O 0.54728 0.57379 0.84303 0.0
C62 C 0.54259 0.55118 0.85538 0.0
C63 C 0.57819 0.64773 0.79387 0.0
C64 C 0.52527 0.56557 0.6026 0.0
C65 C 0.62497 0.61377 0.67479 0.0
O66 O 0.60848 0.62229 0.65276 0.0
O67 O 0.61625 0.59674 0.72775 0.0
O68 O 0.57518 0.65006 0.71725 0.0
O69 O 0.5735 0.62588 0.81684 0.0
O70 O 0.4799 0.01297 0.82728 0.0
Cd71 Cd 0.45243 1.00754 0.72515 0.0
Cd72 Cd 0.46909 0.05441 0.78612 0.0
O73 O 0.50663 0.05663 0.85126 0.0
O74 O 0.45805 0.98536 0.64879 0.0
O75 O 0.47666 0.0276 0.63447 0.0
C76 C 0.47557 1.00694 0.6125 0.0
C77 C 0.46361 0.07979 0.69274 0.0
C78 C 0.50194 0.03443 0.86681 0.0
C79 C 0.40543 1.00523 0.8133 0.0
O80 O 0.42854 0.02882 0.83742 0.0
O81 O 0.40691 0.99328 0.75244 0.0
O82 O 0.4706 0.08754 0.76886 0.0
O83 O 0.46351 0.05969 0.66987 0.0
O84 O 0.71831 0.90413 0.68493 0.0
Cd85 Cd 0.7215 0.92453 0.58654 0.0
Cd86 Cd 0.67283 0.92052 0.63671 0.0
O87 O 0.66801 0.88821 0.69261 0.0
O88 O 0.73952 0.9145 0.50299 0.0
O89 O 0.68908 0.90028 0.49465 0.0
C90 C 0.71093 0.89931 0.46689 0.0
C91 C 0.6388 0.92228 0.53861 0.0
C92 C 0.69222 0.88814 0.71358 0.0
C93 C 0.73411 0.97308 0.66937 0.0
O94 O 0.70712 0.95702 0.69439 0.0
O95 O 0.74331 0.96532 0.6138 0.0
O96 O 0.63133 0.91649 0.61133 0.0
O97 O 0.66417 0.92489 0.52079 0.0
O98 O 0.15391 0.82642 0.66999 0.0
Cd99 Cd 0.12703 0.80398 0.56864 0.0
Cd100 Cd 0.14245 0.77407 0.62509 0.0
O101 O 0.18126 0.80927 0.68569 0.0
O102 O 0.1337 0.83029 0.48885 0.0
O103 O 0.15177 0.80531 0.48074 0.0
C104 C 0.15144 0.82494 0.45603 0.0
C105 C 0.1365 0.74065 0.53927 0.0
C106 C 0.17639 0.82656 0.70628 0.0
C107 C 0.08041 0.76213 0.66003 0.0
O108 O 0.10339 0.76086 0.6838 0.0
O109 O 0.08181 0.77494 0.59878 0.0
O110 O 0.14861 0.7448 0.61364 0.0
O111 O 0.13092 0.75722 0.51193 0.0
O112 O 0.19708 0.32033 0.66189 0.0
Cd113 Cd 0.22101 0.31944 0.57633 0.0
Cd114 Cd 0.27411 0.35525 0.64422 0.0
O115 O 0.24141 0.35984 0.69926 0.0
O116 O 0.20038 0.31623 0.46417 0.0
O117 O 0.2376 0.35483 0.52977 0.0
C118 C 0.21753 0.34205 0.46718 0.0
C119 C 0.30305 0.37192 0.53133 0.0
C120 C 0.21184 0.34206 0.70526 0.0
C121 C 0.26352 0.30644 0.67317 0.0
O122 O 0.27988 0.33031 0.70332 0.0
O123 O 0.24198 0.29886 0.61365 0.0
O124 O 0.31173 0.38681 0.59753 0.0
O125 O 0.27835 0.3477 0.52901 0.0
O126 O 0.71328 0.83432 0.18149 0.0
Cd127 Cd 0.72165 0.8197 0.08392 0.0
Cd128 Cd 0.67146 0.77345 0.12928 0.0
O129 O 0.66516 0.79875 0.19722 0.0
O130 O 0.74083 0.8492 0.009 0.0
O131 O 0.69267 0.81156 0.9836 0.0
C132 C 0.71395 0.83519 0.96415 0.0
C133 C 0.6366 0.73829 0.03121 0.0
C134 C 0.68784 0.82324 0.21511 0.0
C135 C 0.73717 0.78518 0.15954 0.0
O136 O 0.70857 0.77208 0.17622 0.0
O137 O 0.74756 0.8041 0.11265 0.0
O138 O 0.63349 0.73489 0.10719 0.0
O139 O 0.65715 0.76207 0.01125 0.0
O140 O 0.24243 0.89859 0.02778 0.0
Cd141 Cd 0.26657 0.92106 0.13112 0.0
Cd142 Cd 0.24792 0.94845 0.06849 0.0
O143 O 0.21117 0.912 0.00893 0.0
O144 O 0.26019 0.89489 0.21121 0.0
O145 O 0.23934 0.91783 0.21481 0.0
C146 C 0.24084 0.89892 0.24105 0.0
C147 C 0.25003 0.98084 0.14985 0.0
C148 C 0.21875 0.89634 0.99003 0.0
C149 C 0.31254 0.96299 0.04237 0.0
O150 O 0.28861 0.96261 0.01555 0.0
O151 O 0.31189 0.95154 0.1064 0.0
O152 O 0.24096 0.9775 0.07327 0.0
O153 O 0.25496 0.96431 0.18092 0.0
O154 O 0.18708 0.3862 0.14363 0.0
Cd155 Cd 0.14285 0.36616 0.07958 0.0
Cd156 Cd 0.14392 0.40426 0.16266 0.0
O157 O 0.17769 0.40451 0.23939 0.0
O158 O 0.14748 0.34173 0.0137 0.0
O159 O 0.1408 0.37093 0.95984 0.0
C160 C 0.14802 0.35427 0.95198 0.0
C161 C 0.14192 0.42811 0.05944 0.0
C162 C 0.19103 0.39375 0.21722 0.0
C163 C 0.09113 0.35011 0.1888 0.0
O164 O 0.10113 0.37438 0.19491 0.0
O165 O 0.10434 0.34245 0.14654 0.0
O166 O 0.14312 0.43539 0.13387 0.0
O167 O 0.14621 0.40976 0.04572 0.0
O168 O 0.3906 0.23982 0.02146 0.0
Cd169 Cd 0.39612 0.26145 0.92463 0.0
Cd170 Cd 0.3448 0.25476 0.96123 0.0
O171 O 0.33931 0.22209 0.01648 0.0
O172 O 0.4139 0.2514 0.84077 0.0
O173 O 0.36388 0.2385 0.83168 0.0
C174 C 0.38534 0.23693 0.80406 0.0
C175 C 0.30949 0.25716 0.87025 0.0
C176 C 0.36347 0.22264 0.04342 0.0
C177 C 0.40517 0.30812 1.00706 0.0
O178 O 0.37715 0.29088 0.02458 0.0
O179 O 0.41724 0.30181 0.95571 0.0
O180 O 0.30294 0.25014 0.94271 0.0
O181 O 0.33436 0.26004 0.847 0.0
O182 O 0.82702 0.15962 0.01865 0.0
Cd183 Cd 0.79795 0.14161 0.91506 0.0
Cd184 Cd 0.80489 0.1043 0.96061 0.0
O185 O 0.84517 0.13486 0.03285 0.0
O186 O 0.8096 0.17176 0.84621 0.0
O187 O 0.81871 0.14143 0.81989 0.0
C188 C 0.82302 0.16372 0.80467 0.0
C189 C 0.79628 0.07191 0.86545 0.0
C190 C 0.84559 0.15499 0.0551 0.0
C191 C 0.74542 0.09976 0.99231 0.0
O192 O 0.7647 0.09369 0.01045 0.0
O193 O 0.75126 0.11664 0.94025 0.0
O194 O 0.80141 0.07027 0.94169 0.0
O195 O 0.79932 0.09317 0.84317 0.0
O196 O 0.90946 0.70893 0.88285 0.0
Cd197 Cd 0.93587 0.70956 0.97684 0.0
Cd198 Cd 0.92207 0.66415 0.914 0.0
O199 O 0.887 0.66632 0.84797 0.0
O200 O 0.92959 0.72588 0.07207 0.0
O201 O 0.90626 0.68245 0.04782 0.0
C202 C 0.9086 0.70156 0.08854 0.0
C203 C 0.92537 0.63622 1.0016 0.0
C204 C 0.88994 0.68822 0.8371 0.0
C205 C 0.98324 0.71176 0.87882 0.0
O206 O 0.96263 0.68703 0.86238 0.0
O207 O 0.98007 0.72416 0.93526 0.0
O208 O 0.91471 0.62832 0.9263 0.0
O209 O 0.93105 0.65849 0.02791 0.0
O210 O 0.3815 0.16883 0.51512 0.0
Cd211 Cd 0.38819 0.15278 0.41727 0.0
Cd212 Cd 0.33883 0.10813 0.47253 0.0
O213 O 0.33388 0.13422 0.53928 0.0
O214 O 0.40808 0.18197 0.34127 0.0
O215 O 0.35933 0.14504 0.31676 0.0
C216 C 0.38119 0.16834 0.29648 0.0
C217 C 0.30382 0.07293 0.37549 0.0
C218 C 0.35707 0.15875 0.55272 0.0
C219 C 0.40395 0.11878 0.49588 0.0
O220 O 0.37617 0.10702 0.51757 0.0
O221 O 0.41342 0.13642 0.44462 0.0
O222 O 0.30143 0.06942 0.45167 0.0
O223 O 0.32341 0.09688 0.35541 0.0
O224 O 0.91974 0.22858 0.37613 0.0
Cd225 Cd 0.9436 0.25162 0.47889 0.0
Cd226 Cd 0.92891 0.28144 0.41085 0.0
O227 O 0.89231 0.2453 0.34801 0.0
O228 O 0.93461 0.22654 0.56511 0.0
O229 O 0.91554 0.25086 0.55514 0.0
C230 C 0.91552 0.23201 0.58796 0.0
C231 C 0.93104 0.31465 0.48833 0.0
C232 C 0.89777 0.22788 0.33421 0.0
C233 C 0.99338 0.29407 0.39679 0.0
O234 O 0.9708 0.29494 0.36584 0.0
O235 O 0.99004 0.28101 0.45869 0.0
O236 O 0.92389 0.3117 0.41084 0.0
O237 O 0.93418 0.29749 0.52199 0.0
O238 O 0.81253 0.67836 0.50784 0.0
Cd239 Cd 0.78387 0.66927 0.40598 0.0
Cd240 Cd 0.78829 0.71335 0.45559 0.0
O241 O 0.82151 0.71699 0.5454 0.0
O242 O 0.79585 0.65126 0.33163 0.0
O243 O 0.80652 0.69135 0.31651 0.0
C244 C 0.8105 0.67329 0.2961 0.0
C245 C 0.78909 0.74234 0.36479 0.0
C246 C 0.82509 0.69838 0.55778 0.0
C247 C 0.72764 0.66021 0.47555 0.0
O248 O 0.7438 0.6854 0.48415 0.0
O249 O 0.73721 0.6487 0.43569 0.0
O250 O 0.78805 0.74572 0.44094 0.0
O251 O 0.7937 0.72483 0.34255 0.0
C252 C 0.02094 0.5055 0.01181 0.0
C253 C 0.03028 0.5142 0.93401 0.0
C254 C 0.05115 0.56003 0.98224 0.0
C255 C 0.04113 0.55113 0.059 0.0
N256 N 1.00849 0.51436 0.13992 0.0
N257 N 0.04618 0.54815 0.83977 0.0
C258 C 0.0232 0.5235 0.07127 0.0
C259 C 0.04286 0.54103 0.91763 0.0
N260 N 0.01226 0.48083 0.03157 0.0
N261 N 0.06895 0.58667 0.97124 0.0
H262 H 0.03961 0.5346 0.79093 0.0
H263 H 0.05234 0.56665 0.82277 0.0
H264 H 0.074 0.60101 0.01598 0.0
H265 H 0.08023 0.59466 0.91957 0.0
H266 H 1.00911 0.47484 0.09032 0.0
H267 H 0.01092 0.46706 0.99137 0.0
H268 H 0.99245 0.49418 0.14805 0.0
H269 H 0.00986 0.5268 0.18562 0.0
C270 C 0.48668 0.51646 0.88318 0.0
C271 C 0.51962 0.53325 0.91123 0.0
C272 C 0.50785 0.51771 0.04664 0.0
C273 C 0.47523 0.49913 0.01717 0.0
N274 N 0.43403 0.47825 0.9056 0.0
N275 N 0.56233 0.54717 0.01531 0.0
C276 C 0.46469 0.49787 0.93492 0.0
C277 C 0.53044 0.53299 0.99165 0.0
N278 N 0.4764 0.51854 0.8073 0.0
N279 N 0.51701 0.5219 0.12791 0.0
H280 H 0.57951 0.55923 0.97716 0.0
H281 H 0.57173 0.54536 0.07042 0.0
H282 H 0.50107 0.51197 0.17059 0.0
H283 H 0.53976 0.53709 0.15356 0.0
H284 H 0.45255 0.50915 0.78638 0.0
H285 H 0.49186 0.53116 0.76663 0.0
H286 H 0.42566 0.4744 0.84449 0.0
H287 H 0.41741 0.46431 0.94186 0.0
C288 C 0.50933 0.01461 0.07566 0.0
C289 C 0.53056 1.00757 0.06458 0.0
C290 C 0.53966 0.02609 0.93226 0.0
C291 C 0.51679 0.03133 0.94064 0.0
N292 N 0.47676 0.02795 0.01537 0.0
N293 N 0.56129 1.00182 0.97657 0.0
C294 C 0.50083 0.02496 0.01124 0.0
C295 C 0.54409 1.01164 0.99069 0.0
N296 N 0.49785 1.01187 0.14866 0.0
N297 N 0.55784 0.03583 0.86948 0.0
H298 H 0.56518 0.99125 0.01818 0.0
H299 H 0.56938 1.00212 0.92106 0.0
H300 H 0.5561 0.04791 0.82947 0.0
H301 H 0.57676 0.03459 0.86255 0.0
H302 H 0.48569 0.01979 0.1647 0.0
H303 H 0.50166 1.00239 0.19462 0.0
H304 H 0.4614 0.02044 0.06016 0.0
H305 H 0.47118 0.03698 0.97152 0.0
C306 C 0.55392 0.03322 0.52768 0.0
C307 C 0.54308 0.01825 0.4522 0.0
C308 C 0.48751 0.99416 0.48338 0.0
C309 C 0.49841 1.00977 0.55767 0.0
N310 N 0.54164 0.03962 0.65945 0.0
N311 N 0.49985 0.98589 0.35379 0.0
C312 C 0.53154 0.02819 0.58206 0.0
C313 C 0.50995 0.99874 0.42936 0.0
N314 N 0.58568 0.0525 0.54692 0.0
N315 N 0.4557 0.97491 0.46487 0.0
H316 H 0.51521 0.98844 0.31226 0.0
H317 H 0.47623 0.9737 0.3293 0.0
H318 H 0.43857 0.97225 0.50053 0.0
H319 H 0.44604 0.9606 0.41663 0.0
H320 H 0.59498 0.06679 0.59516 0.0
H321 H 0.60304 0.05512 0.5122 0.0
H322 H 0.56526 0.05101 0.68425 0.0
H323 H 0.52615 0.03587 0.70211 0.0
C324 C 0.0478 0.52685 0.41692 0.0
C325 C 0.03224 0.53918 0.43273 0.0
C326 C 0.02397 0.52198 0.56728 0.0
C327 C 0.04447 0.5141 0.55639 0.0
N328 N 0.07696 0.50965 0.47189 0.0
N329 N 0.00973 0.5518 0.52924 0.0
C330 C 0.05665 0.51666 0.48136 0.0
C331 C 0.02098 0.53732 0.50915 0.0
N332 N 0.05341 0.52433 0.33974 0.0
N333 N 1.00747 0.51503 0.63338 0.0
H334 H 1.008 0.5641 0.49038 0.0
H335 H 1.00491 0.55362 0.58753 0.0
H336 H 1.00916 0.50409 0.67801 0.0
H337 H 0.98977 0.5179 0.63992 0.0
H338 H 0.06184 0.51334 0.3229 0.0
H339 H 0.04662 0.53101 0.29084 0.0
H340 H 0.08965 0.51402 0.422 0.0
H341 H 0.08259 0.50081 0.51637 0.0
C342 C 0.47796 0.5258 0.52575 0.0
C343 C 0.50799 0.55029 0.52518 0.0
C344 C 0.51654 0.53532 0.39937 0.0
C345 C 0.48621 0.5109 0.39872 0.0
N346 N 0.43654 0.48299 0.45687 0.0
N347 N 0.55302 0.58107 0.45556 0.0
C348 C 0.46635 0.50626 0.46042 0.0
C349 C 0.52624 0.55592 0.45953 0.0
N350 N 0.46133 0.52099 0.59084 0.0
N351 N 0.53642 0.53845 0.34427 0.0
H352 H 0.56049 0.59647 0.4991 0.0
H353 H 0.5662 0.58732 0.4063 0.0
H354 H 0.53022 0.52345 0.30076 0.0
H355 H 0.55999 0.55483 0.34593 0.0
H356 H 0.4412 0.50248 0.60131 0.0
H357 H 0.46846 0.53582 0.63624 0.0
H358 H 0.41946 0.47965 0.49369 0.0
H359 H 0.4283 0.46699 0.41509 0.0
C360 C 0.70007 0.83896 0.36101 0.0
C361 C 0.68725 0.83889 0.28239 0.0
C362 C 0.68955 0.87846 0.32411 0.0
C363 C 0.70234 0.87847 0.40291 0.0
N364 N 0.71248 0.85519 0.50182 0.0
N365 N 0.66467 0.85511 0.19128 0.0
C366 C 0.70547 0.85767 0.42294 0.0
C367 C 0.68025 0.85755 0.26482 0.0
N368 N 0.70835 0.82182 0.37562 0.0
N369 N 0.68759 0.89904 0.30525 0.0
H370 H 0.65772 0.83996 0.14729 0.0
H371 H 0.65642 0.86657 0.17585 0.0
H372 H 0.69426 0.91462 0.34713 0.0
H373 H 0.68131 0.90175 0.24726 0.0
H374 H 0.72182 0.82327 0.42806 0.0
H375 H 0.70328 0.80689 0.33315 0.0
H376 H 0.71144 0.83875 0.52148 0.0
H377 H 0.71668 0.86841 0.54926 0.0
C378 C 0.20753 0.85744 0.42282 0.0
C379 C 0.17419 0.84309 0.39934 0.0
C380 C 0.18478 0.86557 0.27295 0.0
C381 C 0.2181 0.88032 0.29704 0.0
N382 N 0.26165 0.88938 0.39068 0.0
N383 N 0.13079 0.83498 0.30706 0.0
C384 C 0.22957 0.87589 0.37073 0.0
C385 C 0.16278 0.84766 0.3259 0.0
N386 N 0.2181 0.85473 0.49752 0.0
N387 N 0.17412 0.86727 0.19693 0.0
H388 H 0.11384 0.81997 0.34026 0.0
H389 H 0.12086 0.84011 0.26099 0.0
H390 H 0.18904 0.87983 0.15547 0.0
H391 H 0.15061 0.85475 0.1716 0.0
H392 H 0.24166 0.86636 0.5226 0.0
H393 H 0.2031 0.84179 0.53817 0.0
H394 H 0.27206 0.88487 0.43726 0.0
H395 H 0.27842 0.90489 0.35849 0.0
C396 C 0.21707 0.38098 0.42025 0.0
C397 C 0.21413 0.35689 0.40201 0.0
C398 C 0.19442 0.35617 0.264 0.0
C399 C 0.20186 0.38226 0.27856 0.0
N400 N 0.22906 0.42205 0.36869 0.0
N401 N 0.21122 0.32785 0.29709 0.0
C402 C 0.2163 0.39562 0.35597 0.0
C403 C 0.20677 0.34667 0.32074 0.0
N404 N 0.21788 0.38892 0.49784 0.0
N405 N 0.17282 0.33899 0.20185 0.0
H406 H 0.22207 0.32152 0.33596 0.0
H407 H 0.20774 0.32125 0.23657 0.0
H408 H 0.15765 0.34219 0.16843 0.0
H409 H 0.16603 0.31948 0.19333 0.0
H410 H 0.21773 0.40535 0.51243 0.0
H411 H 0.21404 0.37711 0.5458 0.0
H412 H 0.24189 0.43292 0.42321 0.0
H413 H 0.22996 0.43357 0.32216 0.0
C414 C 0.15156 0.32599 0.85239 0.0
C415 C 0.16057 0.35159 0.87843 0.0
C416 C 0.19946 0.37079 0.7793 0.0
C417 C 0.19451 0.34579 0.76487 0.0
N418 N 0.17096 0.30111 0.80806 0.0
N419 N 0.1988 0.39954 0.87729 0.0
C420 C 0.1718 0.32368 0.80658 0.0
C421 C 0.18589 0.3744 0.84447 0.0
N422 N 0.12377 0.30381 0.87194 0.0
N423 N 0.21644 0.39101 0.7305 0.0
H424 H 0.19125 0.4037 0.9275 0.0
H425 H 0.21949 0.41631 0.85948 0.0
H426 H 0.22644 0.38935 0.68121 0.0
H427 H 0.21772 0.40851 0.73419 0.0
H428 H 0.11499 0.28468 0.84871 0.0
H429 H 0.10793 0.3049 0.90367 0.0
H430 H 0.15647 0.28555 0.84349 0.0
H431 H 0.18749 0.29929 0.78319 0.0
C432 C 0.70321 0.86828 0.92146 0.0
C433 C 0.70582 0.8473 0.89961 0.0
C434 C 0.68994 0.84845 0.75762 0.0
C435 C 0.69185 0.87176 0.77831 0.0
N436 N 0.70244 0.90534 0.8784 0.0
N437 N 0.70313 0.81783 0.79735 0.0
C438 C 0.69882 0.88197 0.85993 0.0
C439 C 0.69925 0.83727 0.81778 0.0
N440 N 0.70372 0.87448 1.00106 0.0
N441 N 0.6788 0.83692 0.6806 0.0
H442 H 0.70982 0.80922 0.83999 0.0
H443 H 0.70193 0.81152 0.73803 0.0
H444 H 0.6714 0.84458 0.63616 0.0
H445 H 0.67422 0.81867 0.66249 0.0
H446 H 0.6984 0.8875 0.02024 0.0
H447 H 0.70655 0.86478 0.04816 0.0
H448 H 0.7116 0.91562 0.93513 0.0
H449 H 0.6981 0.91539 0.83557 0.0
C450 C 0.19009 0.85035 0.92562 0.0
C451 C 0.20415 0.87783 0.91696 0.0
C452 C 0.20879 0.87189 0.77428 0.0
C453 C 0.19208 0.84413 0.78111 0.0
N454 N 0.16383 0.8061 0.86074 0.0
N455 N 0.22454 0.91469 0.83194 0.0
C456 C 0.18216 0.83312 0.8563 0.0
C457 C 0.21262 0.88855 0.84074 0.0
N458 N 0.18483 0.84084 1.00069 0.0
N459 N 0.22174 0.88228 0.70432 0.0
H460 H 0.22872 0.92786 0.87944 0.0
H461 H 0.22806 0.92299 0.77638 0.0
H462 H 0.21992 0.87038 0.65604 0.0
H463 H 0.23676 0.90256 0.69675 0.0
H464 H 0.17873 0.822 0.01297 0.0
H465 H 0.18815 0.8524 0.05199 0.0
H466 H 0.15226 0.7967 0.91085 0.0
H467 H 0.15852 0.79274 0.81247 0.0
C468 C 0.37772 0.19441 0.75997 0.0
C469 C 0.37607 0.21597 0.7399 0.0
C470 C 0.35311 0.19518 0.60209 0.0
C471 C 0.35846 0.17554 0.61975 0.0
N472 N 0.37815 0.15727 0.71261 0.0
N473 N 0.36343 0.23787 0.64213 0.0
C474 C 0.37114 0.17524 0.69813 0.0
C475 C 0.36374 0.21649 0.66114 0.0
N476 N 0.38443 0.19166 0.83881 0.0
N477 N 0.33768 0.19323 0.52884 0.0
H478 H 0.3711 0.25374 0.6839 0.0
H479 H 0.35762 0.24089 0.58407 0.0
H480 H 0.32969 0.17777 0.48502 0.0
H481 H 0.33053 0.20548 0.51358 0.0
H482 H 0.3823 0.17477 0.85844 0.0
H483 H 0.38943 0.20517 0.88629 0.0
H484 H 0.39142 0.15832 0.76486 0.0
H485 H 0.37233 0.1421 0.67016 0.0
C486 C 0.83645 0.18754 0.67664 0.0
C487 C 0.84646 0.18135 0.74899 0.0
C488 C 0.90216 0.21137 0.72095 0.0
C489 C 0.89191 0.21539 0.64477 0.0
N490 N 0.84866 0.20358 0.54356 0.0
N491 N 0.88853 0.1849 0.83668 0.0
C492 C 0.85889 0.20266 0.62097 0.0
C493 C 0.87921 0.19244 0.76993 0.0
N494 N 0.80547 0.17883 0.66071 0.0
N495 N 0.93381 0.22665 0.74837 0.0
H496 H 0.87308 0.17244 0.87747 0.0
H497 H 0.91132 0.1896 0.84904 0.0
H498 H 0.95124 0.2412 0.71504 0.0
H499 H 0.94259 0.22682 0.80706 0.0
H500 H 0.79756 0.18545 0.61413 0.0
H501 H 0.78793 0.16632 0.6974 0.0
H502 H 0.82484 0.19213 0.52011 0.0
H503 H 0.86389 0.21386 0.4998 0.0
C504 C 0.83941 0.67359 0.75294 0.0
C505 C 0.87286 0.69104 0.76706 0.0
C506 C 0.87389 0.71708 0.65473 0.0
C507 C 0.84099 0.69766 0.63445 0.0
N508 N 0.79256 0.65531 0.65888 0.0
N509 N 0.92288 0.72764 0.72446 0.0
C510 C 0.82377 0.67532 0.68202 0.0
C511 C 0.89037 0.71248 0.7166 0.0
N512 N 0.82235 0.65614 0.80897 0.0
N513 N 0.88961 0.73973 0.61413 0.0
H514 H 0.93654 0.72554 0.76857 0.0
H515 H 0.93659 0.74094 0.68266 0.0
H516 H 0.87902 0.74311 0.56472 0.0
H517 H 0.91262 0.75614 0.63317 0.0
H518 H 0.79771 0.6453 0.80682 0.0
H519 H 0.83285 0.65426 0.86196 0.0
H520 H 0.7804 0.63711 0.68491 0.0
H521 H 0.77911 0.65585 0.61017 0.0
C522 C 0.86788 0.69536 0.27697 0.0
C523 C 0.83546 0.67978 0.24342 0.0
C524 C 0.85177 0.68148 0.10848 0.0
C525 C 0.88395 0.69508 0.14265 0.0
N526 N 0.9225 0.71227 0.25966 0.0
N527 N 0.79596 0.6548 0.13021 0.0
C528 C 0.89202 0.7014 0.22703 0.0
C529 C 0.82723 0.6718 0.16003 0.0
N530 N 0.87562 0.7047 0.35644 0.0
N531 N 0.84482 0.67902 0.02646 0.0
H532 H 0.77743 0.64795 0.16612 0.0
H533 H 0.78841 0.64585 0.07163 0.0
H534 H 0.86215 0.68659 0.98662 0.0
H535 H 0.82238 0.67186 0.99804 0.0
H536 H 0.8988 0.71868 0.38223 0.0
H537 H 0.85867 0.69974 0.39604 0.0
H538 H 0.92933 0.71465 0.32147 0.0
H539 H 0.94073 0.7172 0.22455 0.0
C540 C 0.36737 0.17052 0.14948 0.0
C541 C 0.37377 0.18066 0.23114 0.0
C542 C 0.36797 0.21585 0.18988 0.0
C543 C 0.36161 0.20576 0.10831 0.0
N544 N 0.34836 0.17074 0.01113 0.0
N545 N 0.37206 0.20837 0.33139 0.0
C546 C 0.35907 0.18212 0.08837 0.0
C547 C 0.37169 0.202 0.25206 0.0
N548 N 0.37046 0.15054 0.13019 0.0
N549 N 0.37148 0.23921 0.20766 0.0
H550 H 0.37447 0.19859 0.3789 0.0
H551 H 0.36714 0.22171 0.35 0.0
H552 H 0.36702 0.24907 0.16435 0.0
H553 H 0.38037 0.24956 0.26432 0.0
H554 H 0.36932 0.14402 0.07121 0.0
H555 H 0.37635 0.14158 0.17357 0.0
H556 H 0.34341 0.15235 0.99326 0.0
H557 H 0.3417 0.17876 0.96608 0.0
C558 C 0.89351 0.21815 0.18636 0.0
C559 C 0.88256 0.20875 0.26243 0.0
C560 C 0.85286 0.1625 0.20518 0.0
C561 C 0.86423 0.172 0.12965 0.0
N562 N 0.90095 0.20769 0.05277 0.0
N563 N 0.85665 0.17238 0.34884 0.0
C564 C 0.88632 0.19955 0.12184 0.0
C565 C 0.86376 0.181 0.27323 0.0
N566 N 0.91085 0.24484 0.17581 0.0
N567 N 0.83052 0.13591 0.21094 0.0
H568 H 0.86251 0.18522 0.39921 0.0
H569 H 0.84654 0.15278 0.36268 0.0
H570 H 0.82303 0.12164 0.16351 0.0
H571 H 0.81822 0.12802 0.26124 0.0
H572 H 0.91675 0.25272 0.11989 0.0
H573 H 0.91763 0.25925 0.22211 0.0
H574 H 0.91935 0.22728 0.04458 0.0
H575 H 0.89679 0.19409 1.00665 0.0
C576 C 0.11221 0.6933 0.35304 0.0
C577 C 0.0975 0.66844 0.3879 0.0
C578 C 0.10923 0.6908 0.52207 0.0
C579 C 0.12592 0.71605 0.48867 0.0
N580 N 0.15049 0.74123 0.37445 0.0
N581 N 0.09259 0.64526 0.50772 0.0
C582 C 0.12971 0.71728 0.40467 0.0
C583 C 0.09967 0.66784 0.47316 0.0
N584 N 0.10824 0.69414 0.27134 0.0
N585 N 0.09985 0.688 0.59794 0.0
H586 H 0.08648 0.62826 0.47377 0.0
H587 H 0.09641 0.64459 0.56982 0.0
H588 H 0.10314 0.70345 0.63424 0.0
H589 H 0.08507 0.66947 0.62089 0.0
H590 H 0.1155 0.7116 0.24368 0.0
H591 H 0.09546 0.6771 0.23171 0.0
H592 H 0.15615 0.74302 0.31514 0.0
H593 H 0.1647 0.75895 0.41097 0.0
C594 C 0.34484 0.37753 0.34648 0.0
C595 C 0.35447 0.40297 0.32301 0.0
C596 C 0.32402 0.40495 0.42475 0.0
C597 C 0.31992 0.3822 0.45818 0.0
N598 N 0.32907 0.34791 0.45473 0.0
N599 N 0.35537 0.4423 0.34438 0.0
C600 C 0.3306 0.36849 0.4194 0.0
C601 C 0.34424 0.41693 0.36241 0.0
N602 N 0.34989 0.36229 0.2992 0.0
N603 N 0.30798 0.41471 0.45085 0.0
H604 H 0.36968 0.45178 0.29828 0.0
H605 H 0.35202 0.45457 0.3788 0.0
H606 H 0.29249 0.40618 0.4953 0.0
H607 H 0.30755 0.42951 0.42268 0.0
H608 H 0.34105 0.3426 0.30898 0.0
H609 H 0.36023 0.36862 0.24527 0.0
H610 H 0.33947 0.33902 0.43331 0.0
H611 H 0.32009 0.34129 0.50991 0.0
C612 C 0.60689 0.94106 0.49946 0.0
C613 C 0.62039 0.92747 0.47747 0.0
C614 C 0.61277 0.93463 0.33523 0.0
C615 C 0.59704 0.94634 0.35687 0.0
N616 N 0.56853 0.95023 0.45747 0.0
N617 N 0.6244 0.90294 0.37065 0.0
C618 C 0.59051 0.94601 0.43826 0.0
C619 C 0.61938 0.92144 0.39408 0.0
N620 N 0.61151 0.95124 0.57683 0.0
N621 N 0.62363 0.9375 0.26131 0.0
H622 H 0.62733 0.89167 0.41167 0.0
H623 H 0.62161 0.89653 0.31029 0.0
H624 H 0.62184 0.94853 0.21741 0.0
H625 H 0.63781 0.93133 0.24712 0.0
H626 H 0.60428 0.96326 0.59241 0.0
H627 H 0.62574 0.95071 0.62333 0.0
H628 H 0.56146 0.94828 0.51539 0.0
H629 H 0.55458 0.95224 0.41368 0.0
C630 C 0.7034 0.07819 0.18008 0.0
C631 C 0.67125 0.06188 0.14676 0.0
C632 C 0.68713 0.07386 0.01025 0.0
C633 C 0.71925 0.09006 0.04356 0.0
N634 N 0.75699 0.11498 0.16056 0.0
N635 N 0.63239 0.05231 0.03536 0.0
C636 C 0.72705 0.0946 0.12882 0.0
C637 C 0.66305 0.06226 0.06331 0.0
N638 N 0.71158 0.0771 0.25922 0.0
N639 N 0.67955 0.06847 0.92857 0.0
H640 H 0.61447 0.04501 0.07348 0.0
H641 H 0.62562 0.0542 0.97669 0.0
H642 H 0.6966 0.07681 0.8878 0.0
H643 H 0.65654 0.05428 0.90186 0.0
H644 H 0.73503 0.08642 0.2841 0.0
H645 H 0.69488 0.06522 0.29856 0.0
H646 H 0.76326 0.12076 0.22209 0.0
H647 H 0.77451 0.12796 0.12442 0.0
C648 C 0.91719 0.59839 0.08233 0.0
C649 C 0.93778 0.62377 0.05234 0.0
C650 C 0.98326 0.63005 0.13504 0.0
C651 C 0.96338 0.60377 0.15969 0.0
N652 N 0.91212 0.56162 0.15089 0.0
N653 N 0.9913 0.661 0.03554 0.0
C654 C 0.93044 0.58753 0.13187 0.0
C655 C 0.97106 0.63878 0.07451 0.0
N656 N 0.88508 0.58508 0.06531 0.0
N657 N 0.01356 0.64719 0.17199 0.0
H658 H 0.98355 0.66789 0.98934 0.0
H659 H 0.01589 0.67102 0.04305 0.0
H660 H 0.02334 0.64199 0.21845 0.0
H661 H 0.02789 0.66741 0.16261 0.0
H662 H 0.86857 0.5678 0.09181 0.0
H663 H 0.8749 0.59236 0.02819 0.0
H664 H 0.88872 0.54789 0.12611 0.0
H665 H 0.92111 0.55334 0.18771 0.0
C666 C 0.438 0.35882 0.01465 0.0
C667 C 0.42396 0.33465 0.05345 0.0
C668 C 0.4302 0.35809 0.18138 0.0
C669 C 0.44572 0.38268 0.14415 0.0
N670 N 0.47216 0.40713 0.03078 0.0
N671 N 0.41781 0.31377 0.1787 0.0
C672 C 0.45217 0.38326 0.06242 0.0
C673 C 0.42391 0.33521 0.13856 0.0
N674 N 0.43634 0.35845 0.93233 0.0
N675 N 0.4188 0.35565 0.25444 0.0
H676 H 0.41424 0.29703 0.14933 0.0
H677 H 0.42006 0.31402 0.24156 0.0
H678 H 0.42007 0.37095 0.28618 0.0
H679 H 0.40456 0.33736 0.27918 0.0
H680 H 0.44299 0.37513 0.90079 0.0
H681 H 0.42605 0.34107 0.89518 0.0
H682 H 0.47988 0.40874 0.97386 0.0
H683 H 0.48373 0.42528 0.06492 0.0
C684 C 0.92283 0.34112 0.58767 0.0
C685 C 0.9423 0.33984 0.53536 0.0
C686 C 0.98838 0.3832 0.59476 0.0
C687 C 0.96857 0.38568 0.64298 0.0
N688 N 0.91576 0.36897 0.67441 0.0
N689 N 0.99213 0.36188 0.47764 0.0
C690 C 0.9354 0.36514 0.63649 0.0
C691 C 0.9745 0.3617 0.53489 0.0
N692 N 0.89252 0.31925 0.59154 0.0
N693 N 0.02075 0.40018 0.60992 0.0
H694 H 0.98344 0.34614 0.43444 0.0
H695 H 0.0145 0.37863 0.46843 0.0
H696 H 0.03245 0.4155 0.65549 0.0
H697 H 0.03619 0.39732 0.58327 0.0
H698 H 0.87822 0.31775 0.63479 0.0
H699 H 0.88233 0.30189 0.55415 0.0
H700 H 0.89108 0.35589 0.66594 0.0
H701 H 0.92403 0.38649 0.70881 0.0
C702 C 0.68305 0.64366 0.66143 0.0
C703 C 0.65239 0.62186 0.63024 0.0
C704 C 0.67079 0.62355 0.49728 0.0
C705 C 0.70179 0.64519 0.52878 0.0
N706 N 0.7391 0.6711 0.64711 0.0
N707 N 0.61803 0.58703 0.52578 0.0
C708 C 0.70843 0.65377 0.61282 0.0
C709 C 0.64665 0.61045 0.55044 0.0
N710 N 0.68769 0.6555 0.73633 0.0
N711 N 0.66391 0.61655 0.41616 0.0
H712 H 0.59996 0.57703 0.56348 0.0
H713 H 0.61318 0.57634 0.47107 0.0
H714 H 0.68088 0.62589 0.37544 0.0
H715 H 0.64096 0.60292 0.38825 0.0
H716 H 0.70849 0.67374 0.75804 0.0
H717 H 0.6699 0.64792 0.77499 0.0
H718 H 0.74534 0.6754 0.70923 0.0
H719 H 0.75878 0.67942 0.61499 0.0
C720 C 0.4526 0.12864 0.58291 0.0
C721 C 0.4242 0.11064 0.53136 0.0
C722 C 0.42181 0.07297 0.58625 0.0
C723 C 0.45123 0.0908 0.63463 0.0
N724 N 0.4981 0.1356 0.66499 0.0
N725 N 0.38774 0.06656 0.46656 0.0
C726 C 0.46777 0.11869 0.62856 0.0
C727 C 0.41099 0.08312 0.52705 0.0
N728 N 0.46417 0.15493 0.59189 0.0
N729 N 0.40268 0.04662 0.60091 0.0
H730 H 0.37963 0.07356 0.42159 0.0
H731 H 0.3792 0.04666 0.45619 0.0
H732 H 0.40787 0.03836 0.6482 0.0
H733 H 0.3797 0.03355 0.57228 0.0
H734 H 0.48251 0.16831 0.63574 0.0
H735 H 0.45405 0.16305 0.5591 0.0
H736 H 0.51242 0.15588 0.65641 0.0
H737 H 0.50998 0.12891 0.69763 0.0
C738 C 0.35071 0.99921 0.96028 0.0
C739 C 0.33889 0.97406 0.99057 0.0
C740 C 0.37035 0.96825 0.90156 0.0
C741 C 0.37872 0.99181 0.86413 0.0
N742 N 0.37065 0.02636 0.84669 0.0
N743 N 0.33181 0.93172 0.97507 0.0
C744 C 0.36686 1.00621 0.89006 0.0
C745 C 0.34711 0.9577 0.95721 0.0
N746 N 0.34724 0.01673 1.00019 0.0
N747 N 0.38558 0.9566 0.88784 0.0
H748 H 0.31421 0.92275 0.01413 0.0
H749 H 0.33461 0.91836 0.94502 0.0
H750 H 0.40321 0.96369 0.8491 0.0
H751 H 0.38268 0.94123 0.92095 0.0
H752 H 0.35765 0.03625 0.9847 0.0
H753 H 0.33704 1.01262 0.05444 0.0
H754 H 0.36012 0.03605 0.85901 0.0
H755 H 0.38145 0.03138 0.79319 0.0
C756 C 0.09361 0.42703 0.87177 0.0
C757 C 0.10384 0.45384 0.87413 0.0
C758 C 0.14507 0.46492 0.98449 0.0
C759 C 0.13077 0.43735 0.99156 0.0
N760 N 0.08686 0.39169 0.94933 0.0
N761 N 0.13845 0.49862 0.93637 0.0
C762 C 0.10409 0.41822 0.93647 0.0
C763 C 0.1297 0.47303 0.93071 0.0
N764 N 0.07352 0.40988 0.80764 0.0
N765 N 0.17351 0.4833 0.02822 0.0
H766 H 0.12824 0.50545 0.8974 0.0
H767 H 0.15445 0.51264 0.98282 0.0
H768 H 0.18547 0.47793 0.06706 0.0
H769 H 0.18659 0.50361 0.02021 0.0
H770 H 0.06745 0.39062 0.79874 0.0
H771 H 0.06594 0.41606 0.75893 0.0
H772 H 0.06541 0.37745 0.91538 0.0
H773 H 0.09164 0.38403 0.99915 0.0
C774 C 0.57325 0.67285 0.9062 0.0
C775 C 0.59218 0.67116 0.85289 0.0
C776 C 0.63995 0.71198 0.92084 0.0
C777 C 0.62079 0.71517 0.96946 0.0
N778 N 0.56873 0.70061 1.00089 0.0
N779 N 0.64304 0.69087 0.80195 0.0
C780 C 0.58726 0.69605 0.96035 0.0
C781 C 0.62531 0.69138 0.85763 0.0
N782 N 0.54195 0.65217 0.90549 0.0
N783 N 0.67228 0.72749 0.93846 0.0
H784 H 0.63402 0.6753 0.75789 0.0
H785 H 0.66626 0.70685 0.7957 0.0
H786 H 0.68423 0.74224 0.9857 0.0
H787 H 0.68718 0.72398 0.91178 0.0
H788 H 0.52762 0.65072 0.94853 0.0
H789 H 0.53079 0.63548 0.86455 0.0
H790 H 0.54403 0.68889 0.99106 0.0
H791 H 0.57815 0.71752 0.03976 0.0
C792 C 0.78313 1.01107 0.75435 0.0
C793 C 0.75401 1.00097 0.70593 0.0
C794 C 0.75317 0.03768 0.76039 0.0
C795 C 0.78303 0.04857 0.80639 0.0
N796 N 0.82964 0.04891 0.83342 0.0
N797 N 0.71614 1.00846 0.64625 0.0
C798 C 0.79904 0.03627 0.799 0.0
C799 C 0.74073 0.01564 0.70344 0.0
N800 N 0.79471 0.99602 0.76137 0.0
N801 N 0.73542 0.04696 0.77506 0.0
H802 H 0.7067 0.99253 0.60312 0.0
H803 H 0.70743 0.01991 0.63631 0.0
H804 H 0.74248 0.0621 0.81902 0.0
H805 H 0.71207 0.03775 0.74947 0.0
H806 H 0.81368 1.00087 0.80314 0.0
H807 H 0.78402 0.97767 0.72924 0.0
H808 H 0.84369 0.04226 0.82365 0.0
H809 H 0.84198 0.06743 0.86575 0.0
C810 C 0.06214 0.76125 0.7949 0.0
C811 C 0.05439 0.75162 0.71228 0.0
C812 C 0.99908 0.7199 0.73675 0.0
C813 C 1.00792 0.72635 0.82209 0.0
N814 N 0.04973 0.75062 0.93208 0.0
N815 N 0.01631 0.71935 0.6062 0.0
C816 C 0.03995 0.74649 0.85121 0.0
C817 C 0.02307 0.73035 0.68348 0.0
N818 N 0.09052 0.78489 0.81925 0.0
N819 N 0.96784 0.70472 0.70548 0.0
H820 H 0.03315 0.72672 0.56494 0.0
H821 H 0.99468 0.70163 0.58523 0.0
H822 H 0.94892 0.69698 0.74013 0.0
H823 H 0.96064 0.70216 0.64378 0.0
H824 H 0.09624 0.79408 0.87721 0.0
H825 H 0.10685 0.7967 0.77901 0.0
H826 H 0.07353 0.76326 0.95548 0.0
H827 H 0.03462 0.73942 0.97523 0.0
C828 C 0.26526 0.28752 0.80207 0.0
C829 C 0.26698 0.28731 0.7177 0.0
C830 C 0.28643 0.25933 0.73277 0.0
C831 C 0.2915 0.26492 0.81824 0.0
N832 N 0.29165 0.29047 0.93125 0.0
N833 N 0.28063 0.27378 0.60151 0.0
C834 C 0.28205 0.28029 0.85257 0.0
C835 C 0.27758 0.27312 0.68225 0.0
N836 N 0.24816 0.29534 0.83427 0.0
N837 N 0.28947 0.24058 0.7 0.0
H838 H 0.27391 0.28332 0.56303 0.0
H839 H 0.29166 0.26633 0.57401 0.0
H840 H 0.2944 0.22927 0.73531 0.0
H841 H 0.28371 0.23427 0.63881 0.0
H842 H 0.24396 0.29372 0.89485 0.0
H843 H 0.23534 0.30058 0.79844 0.0
H844 H 0.28752 0.30375 0.95554 0.0
H845 H 0.30726 0.28886 0.96954 0.0
C846 C 0.05145 0.3267 0.38075 0.0
C847 C 0.02087 0.30451 0.34989 0.0
C848 C 0.03741 0.30959 0.21323 0.0
C849 C 0.06785 0.33206 0.24386 0.0
N850 N 0.10695 0.35667 0.35898 0.0
N851 N 0.98752 0.26989 0.24372 0.0
C852 C 0.07587 0.33889 0.32854 0.0
C853 C 0.01482 0.29432 0.2682 0.0
N854 N 0.05676 0.33698 0.45833 0.0
N855 N 0.02953 0.30365 0.13173 0.0
H856 H 0.97093 0.25796 0.28329 0.0
H857 H 0.98286 0.26034 0.1869 0.0
H858 H 0.04564 0.31429 0.08985 0.0
H859 H 1.0065 0.28938 0.1054 0.0
H860 H 0.07754 0.35507 0.48112 0.0
H861 H 0.03953 0.32821 0.49857 0.0
H862 H 0.11457 0.36063 0.42059 0.0
H863 H 0.12553 0.36537 0.3226 0.0
C864 C 0.75644 0.73922 0.23848 0.0
C865 C 0.78047 0.75521 0.30345 0.0
C866 C 0.78089 0.79372 0.26368 0.0
C867 C 0.75775 0.77775 0.19757 0.0
N868 N 0.73206 0.73851 0.10724 0.0
N869 N 0.82102 0.79912 0.3651 0.0
C870 C 0.74862 0.75161 0.17995 0.0
C871 C 0.79449 0.78299 0.31197 0.0
N872 N 0.73892 0.71203 0.23592 0.0
N873 N 0.7887 0.81859 0.28285 0.0
H874 H 0.83186 0.79191 0.39985 0.0
H875 H 0.83395 0.81981 0.36887 0.0
H876 H 0.77989 0.8273 0.24763 0.0
H877 H 0.80244 0.82991 0.33595 0.0
H878 H 0.71919 0.69973 0.19393 0.0
H879 H 0.74135 0.70153 0.28078 0.0
H880 H 0.72688 0.72011 0.08801 0.0
H881 H 0.72704 0.74771 0.06276 0.0
C882 C 0.24299 1.00457 0.26201 0.0
C883 C 0.26027 1.00547 0.19867 0.0
C884 C 0.30597 0.04954 0.25345 0.0
C885 C 0.288 0.04992 0.31317 0.0
N886 N 0.23682 0.02976 0.36249 0.0
N887 N 0.30493 0.03193 0.12192 0.0
C888 C 0.25569 0.02796 0.31414 0.0
C889 C 0.2905 0.02909 0.19001 0.0
N890 N 0.21465 0.98134 0.27284 0.0
N891 N 0.33836 0.06724 0.26056 0.0
H892 H 0.29471 0.01735 0.07416 0.0
H893 H 0.32556 0.04987 0.10943 0.0
H894 H 0.35158 0.08107 0.30969 0.0
H895 H 0.35258 0.06591 0.22289 0.0
H896 H 0.20263 0.97849 0.32324 0.0
H897 H 0.20407 0.96439 0.23325 0.0
H898 H 0.21243 0.01536 0.36051 0.0
H899 H 0.24493 0.04689 0.3988 0.0
loop_
_geom_bond_atom_site_label_1
_geom_bond_atom_site_label_2
_geom_bond_distance
_geom_bond_site_symmetry_2
_ccdc_geom_bond_type
O0 Cd1 2.223 . S
O0 C8 1.315 . S
Cd1 O0 2.223 . S
Cd1 O4 2.297 . S
Cd1 O5 2.439 . S
Cd1 O11 2.240 . S
Cd2 O3 2.240 1_655 S
Cd2 O10 2.223 1_655 S
Cd2 O12 2.297 . S
Cd2 O13 2.439 . S
O3 Cd2 2.240 1_455 S
O3 C8 1.279 . S
O4 Cd1 2.297 . S
O4 C6 1.247 . S
O5 Cd1 2.439 . S
O5 C6 1.208 . S
C6 O4 1.247 . S
C6 O5 1.208 . S
C7 O12 1.247 . S
C7 O13 1.208 . S
C8 O0 1.315 . S
C8 O3 1.279 . S
C9 O10 1.315 . S
C9 O11 1.279 . S
O10 Cd2 2.223 1_455 S
O10 C9 1.315 . S
O11 Cd1 2.240 . S
O11 C9 1.279 . S
O12 Cd2 2.297 . S
O12 C7 1.247 . S
O13 Cd2 2.439 . S
O13 C7 1.208 . S
O14 Cd15 2.223 . S
O14 C22 1.315 . S
Cd15 O14 2.223 . S
Cd15 O18 2.297 . S
Cd15 O19 2.439 . S
Cd15 O25 2.240 . S
Cd16 O17 2.240 . S
Cd16 O24 2.223 . S
Cd16 O26 2.297 . S
Cd16 O27 2.439 . S
O17 Cd16 2.240 . S
O17 C22 1.279 . S
O18 Cd15 2.297 . S
O18 C20 1.247 . S
O19 Cd15 2.439 . S
O19 C20 1.208 . S
C20 O18 1.247 . S
C20 O19 1.208 . S
C21 O26 1.247 . S
C21 O27 1.208 . S
C22 O14 1.315 . S
C22 O17 1.279 . S
C23 O24 1.315 . S
C23 O25 1.279 . S
O24 Cd16 2.223 . S
O24 C23 1.315 . S
O25 Cd15 2.240 . S
O25 C23 1.279 . S
O26 Cd16 2.297 . S
O26 C21 1.247 . S
O27 Cd16 2.439 . S
O27 C21 1.208 . S
O28 Cd29 2.223 . S
O28 C36 1.315 . S
Cd29 O28 2.223 . S
Cd29 O32 2.297 . S
Cd29 O33 2.439 . S
Cd29 O39 2.240 . S
Cd30 O31 2.240 . S
Cd30 O38 2.225 1_565 S
Cd30 O40 2.297 . S
Cd30 O41 2.439 . S
O31 Cd30 2.240 . S
O31 C36 1.279 1_565 S
O32 Cd29 2.297 . S
O32 C34 1.247 . S
O33 Cd29 2.439 . S
O33 C34 1.208 . S
C34 O32 1.247 . S
C34 O33 1.208 . S
C35 O40 1.247 . S
C35 O41 1.208 . S
C36 O28 1.315 . S
C36 O31 1.279 1_545 S
C37 O38 1.311 . S
C37 O39 1.279 . S
O38 Cd30 2.225 1_545 S
O38 C37 1.311 . S
O39 Cd29 2.240 . S
O39 C37 1.279 . S
O40 Cd30 2.297 . S
O40 C35 1.247 . S
O41 Cd30 2.439 . S
O41 C35 1.208 . S
O42 Cd43 2.223 . S
O42 C50 1.315 . S
Cd43 O42 2.223 . S
Cd43 O46 2.297 . S
Cd43 O47 2.439 . S
Cd43 O53 2.240 . S
Cd44 O45 2.240 . S
Cd44 O52 2.223 1_655 S
Cd44 O54 2.297 . S
Cd44 O55 2.439 . S
O45 Cd44 2.240 . S
O45 C50 1.279 1_655 S
O46 Cd43 2.297 . S
O46 C48 1.247 . S
O47 Cd43 2.439 . S
O47 C48 1.208 . S
C48 O46 1.247 . S
C48 O47 1.208 . S
C49 O54 1.247 . S
C49 O55 1.208 . S
C50 O42 1.315 . S
C50 O45 1.279 1_455 S
C51 O52 1.315 . S
C51 O53 1.279 . S
O52 Cd44 2.223 1_455 S
O52 C51 1.315 . S
O53 Cd43 2.240 . S
O53 C51 1.279 . S
O54 Cd44 2.297 . S
O54 C49 1.247 . S
O55 Cd44 2.439 . S
O55 C49 1.208 . S
O56 Cd57 2.223 . S
O56 C64 1.315 . S
Cd57 O56 2.223 . S
Cd57 O60 2.297 . S
Cd57 O61 2.439 . S
Cd57 O67 2.240 . S
Cd58 O59 2.240 . S
Cd58 O66 2.223 . S
Cd58 O68 2.297 . S
Cd58 O69 2.439 . S
O59 Cd58 2.240 . S
O59 C64 1.279 . S
O60 Cd57 2.297 . S
O60 C62 1.247 . S
O61 Cd57 2.439 . S
O61 C62 1.208 . S
C62 O60 1.247 . S
C62 O61 1.208 . S
C63 O68 1.247 . S
C63 O69 1.208 . S
C64 O56 1.315 . S
C64 O59 1.279 . S
C65 O66 1.315 . S
C65 O67 1.279 . S
O66 Cd58 2.223 . S
O66 C65 1.315 . S
O67 Cd57 2.240 . S
O67 C65 1.279 . S
O68 Cd58 2.297 . S
O68 C63 1.247 . S
O69 Cd58 2.439 . S
O69 C63 1.208 . S
O70 Cd71 2.223 . S
O70 C78 1.315 . S
Cd71 O70 2.223 . S
Cd71 O74 2.297 . S
Cd71 O75 2.439 . S
Cd71 O81 2.240 . S
Cd72 O73 2.240 . S
Cd72 O80 2.223 . S
Cd72 O82 2.297 . S
Cd72 O83 2.439 . S
O73 Cd72 2.240 . S
O73 C78 1.279 . S
O74 Cd71 2.297 . S
O74 C76 1.247 . S
O75 Cd71 2.439 . S
O75 C76 1.208 . S
C76 O74 1.247 . S
C76 O75 1.208 . S
C77 O82 1.247 . S
C77 O83 1.208 . S
C78 O70 1.315 . S
C78 O73 1.279 . S
C79 O80 1.315 . S
C79 O81 1.279 . S
O80 Cd72 2.223 . S
O80 C79 1.315 . S
O81 Cd71 2.240 . S
O81 C79 1.279 . S
O82 Cd72 2.297 . S
O82 C77 1.247 . S
O83 Cd72 2.439 . S
O83 C77 1.208 . S
O84 Cd85 2.223 . S
O84 C92 1.315 . S
Cd85 O84 2.223 . S
Cd85 O88 2.297 . S
Cd85 O89 2.439 . S
Cd85 O95 2.240 . S
Cd86 O87 2.240 . S
Cd86 O94 2.223 . S
Cd86 O96 2.297 . S
Cd86 O97 2.439 . S
O87 Cd86 2.240 . S
O87 C92 1.279 . S
O88 Cd85 2.297 . S
O88 C90 1.247 . S
O89 Cd85 2.439 . S
O89 C90 1.208 . S
C90 O88 1.247 . S
C90 O89 1.208 . S
C91 O96 1.247 . S
C91 O97 1.208 . S
C92 O84 1.315 . S
C92 O87 1.279 . S
C93 O94 1.315 . S
C93 O95 1.279 . S
O94 Cd86 2.223 . S
O94 C93 1.315 . S
O95 Cd85 2.240 . S
O95 C93 1.279 . S
O96 Cd86 2.297 . S
O96 C91 1.247 . S
O97 Cd86 2.439 . S
O97 C91 1.208 . S
O98 Cd99 2.223 . S
O98 C106 1.315 . S
Cd99 O98 2.223 . S
Cd99 O102 2.297 . S
Cd99 O103 2.439 . S
Cd99 O109 2.240 . S
Cd100 O101 2.240 . S
Cd100 O108 2.223 . S
Cd100 O110 2.297 . S
Cd100 O111 2.439 . S
O101 Cd100 2.240 . S
O101 C106 1.279 . S
O102 Cd99 2.297 . S
O102 C104 1.247 . S
O103 Cd99 2.439 . S
O103 C104 1.208 . S
C104 O102 1.247 . S
C104 O103 1.208 . S
C105 O110 1.247 . S
C105 O111 1.208 . S
C106 O98 1.315 . S
C106 O101 1.279 . S
C107 O108 1.315 . S
C107 O109 1.279 . S
O108 Cd100 2.223 . S
O108 C107 1.315 . S
O109 Cd99 2.240 . S
O109 C107 1.279 . S
O110 Cd100 2.297 . S
O110 C105 1.247 . S
O111 Cd100 2.439 . S
O111 C105 1.208 . S
O112 Cd113 2.223 . S
O112 C120 1.315 . S
Cd113 O112 2.223 . S
Cd113 O116 2.297 . S
Cd113 O117 2.439 . S
Cd113 O123 2.240 . S
Cd114 O115 2.240 . S
Cd114 O122 2.223 . S
Cd114 O124 2.297 . S
Cd114 O125 2.439 . S
O115 Cd114 2.240 . S
O115 C120 1.279 . S
O116 Cd113 2.297 . S
O116 C118 1.247 . S
O117 Cd113 2.439 . S
O117 C118 1.208 . S
C118 O116 1.247 . S
C118 O117 1.208 . S
C119 O124 1.247 . S
C119 O125 1.208 . S
C120 O112 1.315 . S
C120 O115 1.279 . S
C121 O122 1.315 . S
C121 O123 1.279 . S
O122 Cd114 2.223 . S
O122 C121 1.315 . S
O123 Cd113 2.240 . S
O123 C121 1.279 . S
O124 Cd114 2.297 . S
O124 C119 1.247 . S
O125 Cd114 2.439 . S
O125 C119 1.208 . S
O126 Cd127 2.223 . S
O126 C134 1.315 . S
Cd127 O126 2.223 . S
Cd127 O130 2.297 1_554 S
Cd127 O131 2.439 1_554 S
Cd127 O137 2.240 . S
Cd128 O129 2.240 . S
Cd128 O136 2.223 . S
Cd128 O138 2.297 . S
Cd128 O139 2.439 1_554 S
O129 Cd128 2.240 . S
O129 C134 1.279 . S
O130 Cd127 2.297 1_556 S
O130 C132 1.247 . S
O131 Cd127 2.439 1_556 S
O131 C132 1.208 . S
C132 O130 1.247 . S
C132 O131 1.208 . S
C133 O138 1.247 1_556 S
C133 O139 1.208 . S
C134 O126 1.315 . S
C134 O129 1.279 . S
C135 O136 1.315 . S
C135 O137 1.279 . S
O136 Cd128 2.223 . S
O136 C135 1.315 . S
O137 Cd127 2.240 . S
O137 C135 1.279 . S
O138 Cd128 2.297 . S
O138 C133 1.247 1_554 S
O139 Cd128 2.439 1_556 S
O139 C133 1.208 . S
O140 Cd141 2.223 1_556 S
O140 C148 1.315 . S
Cd141 O140 2.223 1_554 S
Cd141 O144 2.297 . S
Cd141 O145 2.439 . S
Cd141 O151 2.240 . S
Cd142 O143 2.240 . S
Cd142 O150 2.223 1_554 S
Cd142 O152 2.297 . S
Cd142 O153 2.439 . S
O143 Cd142 2.240 . S
O143 C148 1.279 1_554 S
O144 Cd141 2.297 . S
O144 C146 1.247 . S
O145 Cd141 2.439 . S
O145 C146 1.208 . S
C146 O144 1.247 . S
C146 O145 1.208 . S
C147 O152 1.247 . S
C147 O153 1.208 . S
C148 O140 1.315 . S
C148 O143 1.279 1_556 S
C149 O150 1.315 . S
C149 O151 1.279 1_556 S
O150 Cd142 2.223 1_556 S
O150 C149 1.315 . S
O151 Cd141 2.240 . S
O151 C149 1.279 1_554 S
O152 Cd142 2.297 . S
O152 C147 1.247 . S
O153 Cd142 2.439 . S
O153 C147 1.208 . S
O154 Cd155 2.223 . S
O154 C162 1.315 . S
Cd155 O154 2.223 . S
Cd155 O158 2.297 1_554 S
Cd155 O159 2.439 1_554 S
Cd155 O165 2.240 . S
Cd156 O157 2.240 . S
Cd156 O164 2.223 . S
Cd156 O166 2.297 . S
Cd156 O167 2.439 1_554 S
O157 Cd156 2.240 . S
O157 C162 1.279 . S
O158 Cd155 2.297 1_556 S
O158 C160 1.247 . S
O159 Cd155 2.439 1_556 S
O159 C160 1.208 . S
C160 O158 1.247 . S
C160 O159 1.208 . S
C161 O166 1.247 . S
C161 O167 1.208 1_554 S
C162 O154 1.315 . S
C162 O157 1.279 . S
C163 O164 1.315 . S
C163 O165 1.279 . S
O164 Cd156 2.223 . S
O164 C163 1.315 . S
O165 Cd155 2.240 . S
O165 C163 1.279 . S
O166 Cd156 2.297 . S
O166 C161 1.247 . S
O167 Cd156 2.439 1_556 S
O167 C161 1.208 1_556 S
O168 Cd169 2.223 1_554 S
O168 C176 1.315 . S
Cd169 O168 2.223 1_556 S
Cd169 O172 2.297 . S
Cd169 O173 2.439 . S
Cd169 O179 2.240 . S
Cd170 O171 2.240 . S
Cd170 O178 2.223 1_556 S
Cd170 O180 2.297 . S
Cd170 O181 2.439 . S
O171 Cd170 2.240 . S
O171 C176 1.279 1_556 S
O172 Cd169 2.297 . S
O172 C174 1.247 . S
O173 Cd169 2.439 . S
O173 C174 1.208 . S
C174 O172 1.247 . S
C174 O173 1.208 . S
C175 O180 1.247 . S
C175 O181 1.208 . S
C176 O168 1.315 . S
C176 O171 1.279 1_554 S
C177 O178 1.315 . S
C177 O179 1.279 1_554 S
O178 Cd170 2.223 1_554 S
O178 C177 1.315 . S
O179 Cd169 2.240 . S
O179 C177 1.279 1_556 S
O180 Cd170 2.297 . S
O180 C175 1.247 . S
O181 Cd170 2.439 . S
O181 C175 1.208 . S
O182 Cd183 2.223 1_554 S
O182 C190 1.315 . S
Cd183 O182 2.223 1_556 S
Cd183 O186 2.297 . S
Cd183 O187 2.439 . S
Cd183 O193 2.240 . S
Cd184 O185 2.240 . S
Cd184 O192 2.223 1_556 S
Cd184 O194 2.297 . S
Cd184 O195 2.439 . S
O185 Cd184 2.240 . S
O185 C190 1.279 1_556 S
O186 Cd183 2.297 . S
O186 C188 1.247 . S
O187 Cd183 2.439 . S
O187 C188 1.208 . S
C188 O186 1.247 . S
C188 O187 1.208 . S
C189 O194 1.247 . S
C189 O195 1.208 . S
C190 O182 1.315 . S
C190 O185 1.279 1_554 S
C191 O192 1.315 . S
C191 O193 1.279 1_554 S
O192 Cd184 2.223 1_554 S
O192 C191 1.315 . S
O193 Cd183 2.240 . S
O193 C191 1.279 1_556 S
O194 Cd184 2.297 . S
O194 C189 1.247 . S
O195 Cd184 2.439 . S
O195 C189 1.208 . S
O196 Cd197 2.223 . S
O196 C204 1.315 . S
Cd197 O196 2.223 . S
Cd197 O200 2.297 . S
Cd197 O201 2.439 1_556 S
Cd197 O207 2.240 . S
Cd198 O199 2.240 . S
Cd198 O206 2.223 . S
Cd198 O208 2.297 . S
Cd198 O209 2.439 . S
O199 Cd198 2.240 . S
O199 C204 1.279 . S
O200 Cd197 2.297 . S
O200 C202 1.247 1_556 S
O201 Cd197 2.439 1_554 S
O201 C202 1.208 . S
C202 O200 1.247 1_554 S
C202 O201 1.208 . S
C203 O208 1.247 . S
C203 O209 1.208 . S
C204 O196 1.315 . S
C204 O199 1.279 . S
C205 O206 1.315 . S
C205 O207 1.279 . S
O206 Cd198 2.223 . S
O206 C205 1.315 . S
O207 Cd197 2.240 . S
O207 C205 1.279 . S
O208 Cd198 2.297 . S
O208 C203 1.247 . S
O209 Cd198 2.439 . S
O209 C203 1.208 . S
O210 Cd211 2.223 . S
O210 C218 1.315 . S
Cd211 O210 2.223 . S
Cd211 O214 2.297 . S
Cd211 O215 2.439 . S
Cd211 O221 2.240 . S
Cd212 O213 2.240 . S
Cd212 O220 2.223 . S
Cd212 O222 2.297 . S
Cd212 O223 2.439 . S
O213 Cd212 2.240 . S
O213 C218 1.279 . S
O214 Cd211 2.297 . S
O214 C216 1.247 . S
O215 Cd211 2.439 . S
O215 C216 1.208 . S
C216 O214 1.247 . S
C216 O215 1.208 . S
C217 O222 1.247 . S
C217 O223 1.208 . S
C218 O210 1.315 . S
C218 O213 1.279 . S
C219 O220 1.315 . S
C219 O221 1.279 . S
O220 Cd212 2.223 . S
O220 C219 1.315 . S
O221 Cd211 2.240 . S
O221 C219 1.279 . S
O222 Cd212 2.297 . S
O222 C217 1.247 . S
O223 Cd212 2.439 . S
O223 C217 1.208 . S
O224 Cd225 2.223 . S
O224 C232 1.315 . S
Cd225 O224 2.223 . S
Cd225 O228 2.297 . S
Cd225 O229 2.439 . S
Cd225 O235 2.240 . S
Cd226 O227 2.240 . S
Cd226 O234 2.223 . S
Cd226 O236 2.297 . S
Cd226 O237 2.439 . S
O227 Cd226 2.240 . S
O227 C232 1.279 . S
O228 Cd225 2.297 . S
O228 C230 1.247 . S
O229 Cd225 2.439 . S
O229 C230 1.208 . S
C230 O228 1.247 . S
C230 O229 1.208 . S
C231 O236 1.247 . S
C231 O237 1.208 . S
C232 O224 1.315 . S
C232 O227 1.279 . S
C233 O234 1.315 . S
C233 O235 1.279 . S
O234 Cd226 2.223 . S
O234 C233 1.315 . S
O235 Cd225 2.240 . S
O235 C233 1.279 . S
O236 Cd226 2.297 . S
O236 C231 1.247 . S
O237 Cd226 2.439 . S
O237 C231 1.208 . S
O238 Cd239 2.223 . S
O238 C246 1.315 . S
Cd239 O238 2.223 . S
Cd239 O242 2.297 . S
Cd239 O243 2.439 . S
Cd239 O249 2.240 . S
Cd240 O241 2.240 . S
Cd240 O248 2.223 . S
Cd240 O250 2.297 . S
Cd240 O251 2.439 . S
O241 Cd240 2.240 . S
O241 C246 1.279 . S
O242 Cd239 2.297 . S
O242 C244 1.247 . S
O243 Cd239 2.439 . S
O243 C244 1.208 . S
C244 O242 1.247 . S
C244 O243 1.208 . S
C245 O250 1.247 . S
C245 O251 1.208 . S
C246 O238 1.315 . S
C246 O241 1.279 . S
C247 O248 1.315 . S
C247 O249 1.279 . S
O248 Cd240 2.223 . S
O248 C247 1.315 . S
O249 Cd239 2.240 . S
O249 C247 1.279 . S
O250 Cd240 2.297 . S
O250 C245 1.247 . S
O251 Cd240 2.439 . S
O251 C245 1.208 . S
C252 C253 1.363 1_655 S
C252 C258 1.379 1_656 S
C252 N260 1.356 . S
C253 C252 1.363 1_455 S
C253 C259 1.363 . S
C254 C255 1.363 1_556 S
C254 C259 1.379 . S
C254 N261 1.356 . S
C255 C254 1.363 1_554 S
C255 C258 1.363 . S
N256 C258 1.356 1_655 S
N256 H268 0.984 . S
N256 H269 0.985 1_655 S
N257 C259 1.356 . S
N257 H262 0.984 . S
N257 H263 0.985 . S
C258 C252 1.379 1_454 S
C258 C255 1.363 . S
C258 N256 1.356 1_455 S
C259 C253 1.363 . S
C259 C254 1.379 . S
C259 N257 1.356 . S
N260 C252 1.356 . S
N260 H266 0.984 . S
N260 H267 0.984 . S
N261 C254 1.356 . S
N261 H264 0.984 1_556 S
N261 H265 0.985 . S
H262 N257 0.984 . S
H263 N257 0.985 . S
H264 N261 0.984 1_554 S
H265 N261 0.985 . S
H266 N260 0.984 . S
H267 N260 0.984 . S
H268 N256 0.984 . S
H269 N256 0.985 1_455 S
C270 C271 1.363 . S
C270 C276 1.379 1_556 S
C270 N278 1.356 . S
C271 C270 1.363 . S
C271 C277 1.363 1_556 S
C272 C273 1.363 . S
C272 C277 1.379 . S
C272 N279 1.356 . S
C273 C272 1.363 . S
C273 C276 1.363 . S
N274 C276 1.356 . S
N274 H286 0.984 . S
N274 H287 0.985 . S
N275 C277 1.356 . S
N275 H280 0.984 1_554 S
N275 H281 0.985 . S
C276 C270 1.379 1_554 S
C276 C273 1.363 . S
C276 N274 1.356 . S
C277 C271 1.363 1_554 S
C277 C272 1.379 . S
C277 N275 1.356 . S
N278 C270 1.356 . S
N278 H284 0.984 . S
N278 H285 0.984 . S
N279 C272 1.356 . S
N279 H282 0.984 . S
N279 H283 0.985 . S
H280 N275 0.984 1_556 S
H281 N275 0.985 . S
H282 N279 0.984 . S
H283 N279 0.985 . S
H284 N278 0.984 . S
H285 N278 0.984 . S
H286 N274 0.984 . S
H287 N274 0.985 . S
C288 C289 1.363 . S
C288 C294 1.379 . S
C288 N296 1.356 . S
C289 C288 1.363 . S
C289 C295 1.363 1_554 S
C290 C291 1.363 . S
C290 C295 1.379 . S
C290 N297 1.356 . S
C291 C290 1.363 . S
C291 C294 1.363 1_556 S
N292 C294 1.356 . S
N292 H304 0.984 . S
N292 H305 0.985 . S
N293 C295 1.356 1_565 S
N293 H298 0.994 . S
N293 H299 0.985 . S
C294 C288 1.379 . S
C294 C291 1.363 1_554 S
C294 N292 1.356 . S
C295 C289 1.363 1_556 S
C295 C290 1.379 . S
C295 N293 1.356 1_545 S
N296 C288 1.356 . S
N296 H302 0.984 . S
N296 H303 0.984 . S
N297 C290 1.356 . S
N297 H300 0.984 . S
N297 H301 0.985 . S
H298 N293 0.994 . S
H299 N293 0.985 . S
H300 N297 0.984 . S
H301 N297 0.985 . S
H302 N296 0.984 . S
H303 N296 0.984 . S
H304 N292 0.984 . S
H305 N292 0.985 . S
C306 C307 1.363 . S
C306 C312 1.379 . S
C306 N314 1.356 . S
C307 C306 1.363 . S
C307 C313 1.363 . S
C308 C309 1.363 . S
C308 C313 1.379 . S
C308 N315 1.356 1_545 S
C309 C308 1.363 . S
C309 C312 1.363 . S
N310 C312 1.356 . S
N310 H322 0.984 . S
N310 H323 0.985 . S
N311 C313 1.356 1_565 S
N311 H316 0.984 . S
N311 H317 0.985 . S
C312 C306 1.379 . S
C312 C309 1.363 . S
C312 N310 1.356 . S
C313 C307 1.363 . S
C313 C308 1.379 . S
C313 N311 1.356 1_545 S
N314 C306 1.356 . S
N314 H320 0.984 . S
N314 H321 0.984 . S
N315 C308 1.356 1_565 S
N315 H318 0.984 1_565 S
N315 H319 0.985 . S
H316 N311 0.984 . S
H317 N311 0.985 . S
H318 N315 0.984 1_545 S
H319 N315 0.985 . S
H320 N314 0.984 . S
H321 N314 0.984 . S
H322 N310 0.984 . S
H323 N310 0.985 . S
C324 C325 1.363 . S
C324 C330 1.379 . S
C324 N332 1.356 . S
C325 C324 1.363 . S
C325 C331 1.363 . S
C326 C327 1.363 . S
C326 C331 1.379 . S
C326 N333 1.356 . S
C327 C326 1.363 . S
C327 C330 1.363 . S
N328 C330 1.356 . S
N328 H340 0.984 . S
N328 H341 0.985 . S
N329 C331 1.356 . S
N329 H334 0.984 . S
N329 H335 0.985 . S
C330 C324 1.379 . S
C330 C327 1.363 . S
C330 N328 1.356 . S
C331 C325 1.363 . S
C331 C326 1.379 . S
C331 N329 1.356 . S
N332 C324 1.356 . S
N332 H338 0.984 . S
N332 H339 0.984 . S
N333 C326 1.356 . S
N333 H336 0.984 . S
N333 H337 0.985 . S
H334 N329 0.984 . S
H335 N329 0.985 . S
H336 N333 0.984 . S
H337 N333 0.985 . S
H338 N332 0.984 . S
H339 N332 0.984 . S
H340 N328 0.984 . S
H341 N328 0.985 . S
C342 C343 1.363 . S
C342 C348 1.379 . S
C342 N350 1.356 . S
C343 C342 1.363 . S
C343 C349 1.363 . S
C344 C345 1.363 . S
C344 C349 1.379 . S
C344 N351 1.356 . S
C345 C344 1.363 . S
C345 C348 1.363 . S
N346 C348 1.356 . S
N346 H358 0.984 . S
N346 H359 0.985 . S
N347 C349 1.356 . S
N347 H352 0.984 . S
N347 H353 0.985 . S
C348 C342 1.379 . S
C348 C345 1.363 . S
C348 N346 1.356 . S
C349 C343 1.363 . S
C349 C344 1.379 . S
C349 N347 1.356 . S
N350 C342 1.356 . S
N350 H356 0.984 . S
N350 H357 0.984 . S
N351 C344 1.356 . S
N351 H354 0.984 . S
N351 H355 0.985 . S
H352 N347 0.984 . S
H353 N347 0.985 . S
H354 N351 0.984 . S
H355 N351 0.985 . S
H356 N350 0.984 . S
H357 N350 0.984 . S
H358 N346 0.984 . S
H359 N346 0.985 . S
C360 C361 1.363 . S
C360 C366 1.379 . S
C360 N368 1.356 . S
C361 C360 1.363 . S
C361 C367 1.363 . S
C362 C363 1.363 . S
C362 C367 1.379 . S
C362 N369 1.356 . S
C363 C362 1.363 . S
C363 C366 1.363 . S
N364 C366 1.356 . S
N364 H376 0.984 . S
N364 H377 0.985 . S
N365 C367 1.356 . S
N365 H370 0.984 . S
N365 H371 0.985 . S
C366 C360 1.379 . S
C366 C363 1.363 . S
C366 N364 1.356 . S
C367 C361 1.363 . S
C367 C362 1.379 . S
C367 N365 1.356 . S
N368 C360 1.356 . S
N368 H374 0.984 . S
N368 H375 0.984 . S
N369 C362 1.356 . S
N369 H372 0.984 . S
N369 H373 0.985 . S
H370 N365 0.984 . S
H371 N365 0.985 . S
H372 N369 0.984 . S
H373 N369 0.985 . S
H374 N368 0.984 . S
H375 N368 0.984 . S
H376 N364 0.984 . S
H377 N364 0.985 . S
C378 C379 1.363 . S
C378 C384 1.379 . S
C378 N386 1.356 . S
C379 C378 1.363 . S
C379 C385 1.363 . S
C380 C381 1.363 . S
C380 C385 1.379 . S
C380 N387 1.356 . S
C381 C380 1.363 . S
C381 C384 1.363 . S
N382 C384 1.356 . S
N382 H394 0.984 . S
N382 H395 0.985 . S
N383 C385 1.356 . S
N383 H388 0.984 . S
N383 H389 0.985 . S
C384 C378 1.379 . S
C384 C381 1.363 . S
C384 N382 1.356 . S
C385 C379 1.363 . S
C385 C380 1.379 . S
C385 N383 1.356 . S
N386 C378 1.356 . S
N386 H392 0.984 . S
N386 H393 0.984 . S
N387 C380 1.356 . S
N387 H390 0.984 . S
N387 H391 0.985 . S
H388 N383 0.984 . S
H389 N383 0.985 . S
H390 N387 0.984 . S
H391 N387 0.985 . S
H392 N386 0.984 . S
H393 N386 0.984 . S
H394 N382 0.984 . S
H395 N382 0.985 . S
C396 C397 1.363 . S
C396 C402 1.379 . S
C396 N404 1.356 . S
C397 C396 1.363 . S
C397 C403 1.363 . S
C398 C399 1.363 . S
C398 C403 1.379 . S
C398 N405 1.356 . S
C399 C398 1.363 . S
C399 C402 1.363 . S
N400 C402 1.356 . S
N400 H412 0.984 . S
N400 H413 0.985 . S
N401 C403 1.356 . S
N401 H406 0.984 . S
N401 H407 0.985 . S
C402 C396 1.379 . S
C402 C399 1.363 . S
C402 N400 1.356 . S
C403 C397 1.363 . S
C403 C398 1.379 . S
C403 N401 1.356 . S
N404 C396 1.356 . S
N404 H410 0.984 . S
N404 H411 0.984 . S
N405 C398 1.356 . S
N405 H408 0.984 . S
N405 H409 0.985 . S
H406 N401 0.984 . S
H407 N401 0.985 . S
H408 N405 0.984 . S
H409 N405 0.985 . S
H410 N404 0.984 . S
H411 N404 0.984 . S
H412 N400 0.984 . S
H413 N400 0.985 . S
C414 C415 1.363 . S
C414 C420 1.379 . S
C414 N422 1.356 . S
C415 C414 1.363 . S
C415 C421 1.363 . S
C416 C417 1.363 . S
C416 C421 1.379 . S
C416 N423 1.356 . S
C417 C416 1.363 . S
C417 C420 1.363 . S
N418 C420 1.356 . S
N418 H430 0.984 . S
N418 H431 0.985 . S
N419 C421 1.356 . S
N419 H424 0.984 . S
N419 H425 0.985 . S
C420 C414 1.379 . S
C420 C417 1.363 . S
C420 N418 1.356 . S
C421 C415 1.363 . S
C421 C416 1.379 . S
C421 N419 1.356 . S
N422 C414 1.356 . S
N422 H428 0.984 . S
N422 H429 0.984 . S
N423 C416 1.356 . S
N423 H426 0.984 . S
N423 H427 0.985 . S
H424 N419 0.984 . S
H425 N419 0.985 . S
H426 N423 0.984 . S
H427 N423 0.985 . S
H428 N422 0.984 . S
H429 N422 0.984 . S
H430 N418 0.984 . S
H431 N418 0.985 . S
C432 C433 1.363 . S
C432 C438 1.379 . S
C432 N440 1.356 . S
C433 C432 1.363 . S
C433 C439 1.363 . S
C434 C435 1.363 . S
C434 C439 1.379 . S
C434 N441 1.356 . S
C435 C434 1.363 . S
C435 C438 1.363 . S
N436 C438 1.356 . S
N436 H448 0.984 . S
N436 H449 0.985 . S
N437 C439 1.356 . S
N437 H442 0.984 . S
N437 H443 0.985 . S
C438 C432 1.379 . S
C438 C435 1.363 . S
C438 N436 1.356 . S
C439 C433 1.363 . S
C439 C434 1.379 . S
C439 N437 1.356 . S
N440 C432 1.356 . S
N440 H446 0.984 . S
N440 H447 0.981 1_556 S
N441 C434 1.356 . S
N441 H444 0.984 . S
N441 H445 0.985 . S
H442 N437 0.984 . S
H443 N437 0.985 . S
H444 N441 0.984 . S
H445 N441 0.985 . S
H446 N440 0.984 . S
H447 N440 0.981 1_554 S
H448 N436 0.984 . S
H449 N436 0.985 . S
C450 C451 1.363 . S
C450 C456 1.379 . S
C450 N458 1.356 . S
C451 C450 1.363 . S
C451 C457 1.363 . S
C452 C453 1.363 . S
C452 C457 1.379 . S
C452 N459 1.356 . S
C453 C452 1.363 . S
C453 C456 1.363 . S
N454 C456 1.356 . S
N454 H466 0.984 . S
N454 H467 0.985 . S
N455 C457 1.356 . S
N455 H460 0.984 . S
N455 H461 0.985 . S
C456 C450 1.379 . S
C456 C453 1.363 . S
C456 N454 1.356 . S
C457 C451 1.363 . S
C457 C452 1.379 . S
C457 N455 1.356 . S
N458 C450 1.356 . S
N458 H464 0.984 . S
N458 H465 0.984 . S
N459 C452 1.356 . S
N459 H462 0.984 . S
N459 H463 0.985 . S
H460 N455 0.984 . S
H461 N455 0.985 . S
H462 N459 0.984 . S
H463 N459 0.985 . S
H464 N458 0.984 . S
H465 N458 0.984 . S
H466 N454 0.984 . S
H467 N454 0.985 . S
C468 C469 1.363 . S
C468 C474 1.379 . S
C468 N476 1.356 . S
C469 C468 1.363 . S
C469 C475 1.363 . S
C470 C471 1.363 . S
C470 C475 1.379 . S
C470 N477 1.356 . S
C471 C470 1.363 . S
C471 C474 1.363 . S
N472 C474 1.356 . S
N472 H484 0.984 . S
N472 H485 0.985 . S
N473 C475 1.356 . S
N473 H478 0.984 . S
N473 H479 0.985 . S
C474 C468 1.379 . S
C474 C471 1.363 . S
C474 N472 1.356 . S
C475 C469 1.363 . S
C475 C470 1.379 . S
C475 N473 1.356 . S
N476 C468 1.356 . S
N476 H482 0.984 . S
N476 H483 0.984 . S
N477 C470 1.356 . S
N477 H480 0.984 . S
N477 H481 0.985 . S
H478 N473 0.984 . S
H479 N473 0.985 . S
H480 N477 0.984 . S
H481 N477 0.985 . S
H482 N476 0.984 . S
H483 N476 0.984 . S
H484 N472 0.984 . S
H485 N472 0.985 . S
C486 C487 1.363 . S
C486 C492 1.379 . S
C486 N494 1.356 . S
C487 C486 1.363 . S
C487 C493 1.363 . S
C488 C489 1.363 . S
C488 C493 1.379 . S
C488 N495 1.356 . S
C489 C488 1.363 . S
C489 C492 1.363 . S
N490 C492 1.356 . S
N490 H502 0.984 . S
N490 H503 0.985 . S
N491 C493 1.356 . S
N491 H496 0.984 . S
N491 H497 0.985 . S
C492 C486 1.379 . S
C492 C489 1.363 . S
C492 N490 1.356 . S
C493 C487 1.363 . S
C493 C488 1.379 . S
C493 N491 1.356 . S
N494 C486 1.356 . S
N494 H500 0.984 . S
N494 H501 0.984 . S
N495 C488 1.356 . S
N495 H498 0.984 . S
N495 H499 0.985 . S
H496 N491 0.984 . S
H497 N491 0.985 . S
H498 N495 0.984 . S
H499 N495 0.985 . S
H500 N494 0.984 . S
H501 N494 0.984 . S
H502 N490 0.984 . S
H503 N490 0.985 . S
C504 C505 1.363 . S
C504 C510 1.379 . S
C504 N512 1.356 . S
C505 C504 1.363 . S
C505 C511 1.363 . S
C506 C507 1.363 . S
C506 C511 1.379 . S
C506 N513 1.356 . S
C507 C506 1.363 . S
C507 C510 1.363 . S
N508 C510 1.356 . S
N508 H520 0.984 . S
N508 H521 0.985 . S
N509 C511 1.356 . S
N509 H514 0.984 . S
N509 H515 0.985 . S
C510 C504 1.379 . S
C510 C507 1.363 . S
C510 N508 1.356 . S
C511 C505 1.363 . S
C511 C506 1.379 . S
C511 N509 1.356 . S
N512 C504 1.356 . S
N512 H518 0.984 . S
N512 H519 0.984 . S
N513 C506 1.356 . S
N513 H516 0.984 . S
N513 H517 0.985 . S
H514 N509 0.984 . S
H515 N509 0.985 . S
H516 N513 0.984 . S
H517 N513 0.985 . S
H518 N512 0.984 . S
H519 N512 0.984 . S
H520 N508 0.984 . S
H521 N508 0.985 . S
C522 C523 1.363 . S
C522 C528 1.379 . S
C522 N530 1.356 . S
C523 C522 1.363 . S
C523 C529 1.363 . S
C524 C525 1.363 . S
C524 C529 1.379 . S
C524 N531 1.356 . S
C525 C524 1.363 . S
C525 C528 1.363 . S
N526 C528 1.356 . S
N526 H538 0.984 . S
N526 H539 0.985 . S
N527 C529 1.356 . S
N527 H532 0.984 . S
N527 H533 0.985 . S
C528 C522 1.379 . S
C528 C525 1.363 . S
C528 N526 1.356 . S
C529 C523 1.363 . S
C529 C524 1.379 . S
C529 N527 1.356 . S
N530 C522 1.356 . S
N530 H536 0.984 . S
N530 H537 0.984 . S
N531 C524 1.356 . S
N531 H534 0.984 . S
N531 H535 0.985 . S
H532 N527 0.984 . S
H533 N527 0.985 . S
H534 N531 0.984 . S
H535 N531 0.985 . S
H536 N530 0.984 . S
H537 N530 0.984 . S
H538 N526 0.984 . S
H539 N526 0.985 . S
C540 C541 1.363 . S
C540 C546 1.379 . S
C540 N548 1.356 . S
C541 C540 1.363 . S
C541 C547 1.363 . S
C542 C543 1.363 . S
C542 C547 1.379 . S
C542 N549 1.356 . S
C543 C542 1.363 . S
C543 C546 1.363 . S
N544 C546 1.356 . S
N544 H556 0.984 1_554 S
N544 H557 0.985 1_554 S
N545 C547 1.356 . S
N545 H550 0.984 . S
N545 H551 0.985 . S
C546 C540 1.379 . S
C546 C543 1.363 . S
C546 N544 1.356 . S
C547 C541 1.363 . S
C547 C542 1.379 . S
C547 N545 1.356 . S
N548 C540 1.356 . S
N548 H554 0.984 . S
N548 H555 0.984 . S
N549 C542 1.356 . S
N549 H552 0.984 . S
N549 H553 0.985 . S
H550 N545 0.984 . S
H551 N545 0.985 . S
H552 N549 0.984 . S
H553 N549 0.985 . S
H554 N548 0.984 . S
H555 N548 0.984 . S
H556 N544 0.984 1_556 S
H557 N544 0.985 1_556 S
C558 C559 1.363 . S
C558 C564 1.379 . S
C558 N566 1.356 . S
C559 C558 1.363 . S
C559 C565 1.363 . S
C560 C561 1.363 . S
C560 C565 1.379 . S
C560 N567 1.356 . S
C561 C560 1.363 . S
C561 C564 1.363 . S
N562 C564 1.359 . S
N562 H574 0.982 1_554 S
N562 H575 0.984 1_554 S
N563 C565 1.356 . S
N563 H568 0.984 . S
N563 H569 0.985 . S
C564 C558 1.379 . S
C564 C561 1.363 . S
C564 N562 1.359 . S
C565 C559 1.363 . S
C565 C560 1.379 . S
C565 N563 1.356 . S
N566 C558 1.356 . S
N566 H572 0.984 . S
N566 H573 0.984 . S
N567 C560 1.356 . S
N567 H570 0.984 . S
N567 H571 0.985 . S
H568 N563 0.984 . S
H569 N563 0.985 . S
H570 N567 0.984 . S
H571 N567 0.985 . S
H572 N566 0.984 . S
H573 N566 0.984 . S
H574 N562 0.982 1_556 S
H575 N562 0.984 1_556 S
C576 C577 1.363 . S
C576 C582 1.379 . S
C576 N584 1.356 . S
C577 C576 1.363 . S
C577 C583 1.363 . S
C578 C579 1.363 . S
C578 C583 1.379 . S
C578 N585 1.356 . S
C579 C578 1.363 . S
C579 C582 1.363 . S
N580 C582 1.356 . S
N580 H592 0.984 . S
N580 H593 0.985 . S
N581 C583 1.356 . S
N581 H586 0.984 . S
N581 H587 0.985 . S
C582 C576 1.379 . S
C582 C579 1.363 . S
C582 N580 1.356 . S
C583 C577 1.363 . S
C583 C578 1.379 . S
C583 N581 1.356 . S
N584 C576 1.356 . S
N584 H590 0.984 . S
N584 H591 0.984 . S
N585 C578 1.356 . S
N585 H588 0.984 . S
N585 H589 0.985 . S
H586 N581 0.984 . S
H587 N581 0.985 . S
H588 N585 0.984 . S
H589 N585 0.985 . S
H590 N584 0.984 . S
H591 N584 0.984 . S
H592 N580 0.984 . S
H593 N580 0.985 . S
C594 C595 1.363 . S
C594 C600 1.379 . S
C594 N602 1.356 . S
C595 C594 1.363 . S
C595 C601 1.363 . S
C596 C597 1.363 . S
C596 C601 1.379 . S
C596 N603 1.356 . S
C597 C596 1.363 . S
C597 C600 1.363 . S
N598 C600 1.356 . S
N598 H610 0.984 . S
N598 H611 0.985 . S
N599 C601 1.356 . S
N599 H604 0.984 . S
N599 H605 0.985 . S
C600 C594 1.379 . S
C600 C597 1.363 . S
C600 N598 1.356 . S
C601 C595 1.363 . S
C601 C596 1.379 . S
C601 N599 1.356 . S
N602 C594 1.356 . S
N602 H608 0.984 . S
N602 H609 0.984 . S
N603 C596 1.356 . S
N603 H606 0.984 . S
N603 H607 0.985 . S
H604 N599 0.984 . S
H605 N599 0.985 . S
H606 N603 0.984 . S
H607 N603 0.985 . S
H608 N602 0.984 . S
H609 N602 0.984 . S
H610 N598 0.984 . S
H611 N598 0.985 . S
C612 C613 1.363 . S
C612 C618 1.379 . S
C612 N620 1.356 . S
C613 C612 1.363 . S
C613 C619 1.363 . S
C614 C615 1.363 . S
C614 C619 1.379 . S
C614 N621 1.356 . S
C615 C614 1.363 . S
C615 C618 1.363 . S
N616 C618 1.356 . S
N616 H628 0.984 . S
N616 H629 0.985 . S
N617 C619 1.356 . S
N617 H622 0.984 . S
N617 H623 0.985 . S
C618 C612 1.379 . S
C618 C615 1.363 . S
C618 N616 1.356 . S
C619 C613 1.363 . S
C619 C614 1.379 . S
C619 N617 1.356 . S
N620 C612 1.356 . S
N620 H626 0.984 . S
N620 H627 0.984 . S
N621 C614 1.356 . S
N621 H624 0.984 . S
N621 H625 0.985 . S
H622 N617 0.984 . S
H623 N617 0.985 . S
H624 N621 0.984 . S
H625 N621 0.985 . S
H626 N620 0.984 . S
H627 N620 0.984 . S
H628 N616 0.984 . S
H629 N616 0.985 . S
C630 C631 1.363 . S
C630 C636 1.379 . S
C630 N638 1.356 . S
C631 C630 1.363 . S
C631 C637 1.363 . S
C632 C633 1.363 . S
C632 C637 1.379 . S
C632 N639 1.356 1_554 S
C633 C632 1.363 . S
C633 C636 1.363 . S
N634 C636 1.356 . S
N634 H646 0.984 . S
N634 H647 0.985 . S
N635 C637 1.356 . S
N635 H640 0.984 . S
N635 H641 0.985 1_544 S
C636 C630 1.379 . S
C636 C633 1.363 . S
C636 N634 1.356 . S
C637 C631 1.363 . S
C637 C632 1.379 . S
C637 N635 1.356 . S
N638 C630 1.356 . S
N638 H644 0.984 . S
N638 H645 0.984 . S
N639 C632 1.356 1_556 S
N639 H642 0.984 . S
N639 H643 0.985 . S
H640 N635 0.984 . S
H641 N635 0.985 1_566 S
H642 N639 0.984 . S
H643 N639 0.985 . S
H644 N638 0.984 . S
H645 N638 0.984 . S
H646 N634 0.984 . S
H647 N634 0.985 . S
C648 C649 1.362 1_554 S
C648 C654 1.379 . S
C648 N656 1.356 1_554 S
C649 C648 1.362 1_556 S
C649 C655 1.362 1_556 S
C650 C651 1.363 . S
C650 C655 1.379 . S
C650 N657 1.356 1_655 S
C651 C650 1.363 . S
C651 C654 1.363 . S
N652 C654 1.356 . S
N652 H664 0.984 . S
N652 H665 0.985 . S
N653 C655 1.356 1_556 S
N653 H658 0.984 . S
N653 H659 0.985 1_656 S
C654 C648 1.379 . S
C654 C651 1.363 . S
C654 N652 1.356 . S
C655 C649 1.362 1_554 S
C655 C650 1.379 . S
C655 N653 1.356 1_554 S
N656 C648 1.356 1_556 S
N656 H662 0.984 . S
N656 H663 0.984 . S
N657 C650 1.356 1_455 S
N657 H660 0.984 . S
N657 H661 0.985 . S
H658 N653 0.984 . S
H659 N653 0.985 1_454 S
H660 N657 0.984 . S
H661 N657 0.985 . S
H662 N656 0.984 . S
H663 N656 0.984 . S
H664 N652 0.984 . S
H665 N652 0.985 . S
C666 C667 1.363 . S
C666 C672 1.379 . S
C666 N674 1.356 1_554 S
C667 C666 1.363 . S
C667 C673 1.363 . S
C668 C669 1.363 . S
C668 C673 1.379 . S
C668 N675 1.356 . S
C669 C668 1.363 . S
C669 C672 1.363 . S
N670 C672 1.356 . S
N670 H682 0.984 . S
N670 H683 0.985 . S
N671 C673 1.356 . S
N671 H676 0.984 . S
N671 H677 0.985 . S
C672 C666 1.379 . S
C672 C669 1.363 . S
C672 N670 1.356 . S
C673 C667 1.363 . S
C673 C668 1.379 . S
C673 N671 1.356 . S
N674 C666 1.356 1_556 S
N674 H680 0.984 . S
N674 H681 0.984 . S
N675 C668 1.356 . S
N675 H678 0.984 . S
N675 H679 0.985 . S
H676 N671 0.984 . S
H677 N671 0.985 . S
H678 N675 0.984 . S
H679 N675 0.985 . S
H680 N674 0.984 . S
H681 N674 0.984 . S
H682 N670 0.984 . S
H683 N670 0.985 . S
C684 C685 1.363 . S
C684 C690 1.379 . S
C684 N692 1.356 . S
C685 C684 1.363 . S
C685 C691 1.363 . S
C686 C687 1.363 . S
C686 C691 1.379 . S
C686 N693 1.356 . S
C687 C686 1.363 . S
C687 C690 1.363 . S
N688 C690 1.356 . S
N688 H700 0.984 . S
N688 H701 0.985 . S
N689 C691 1.356 . S
N689 H694 0.984 . S
N689 H695 0.985 . S
C690 C684 1.379 . S
C690 C687 1.363 . S
C690 N688 1.356 . S
C691 C685 1.363 . S
C691 C686 1.379 . S
C691 N689 1.356 . S
N692 C684 1.356 . S
N692 H698 0.984 . S
N692 H699 0.984 . S
N693 C686 1.356 . S
N693 H696 0.984 . S
N693 H697 0.985 1_655 S
H694 N689 0.984 . S
H695 N689 0.985 . S
H696 N693 0.984 . S
H697 N693 0.985 1_455 S
H698 N692 0.984 . S
H699 N692 0.984 . S
H700 N688 0.984 . S
H701 N688 0.985 . S
C702 C703 1.363 . S
C702 C708 1.379 . S
C702 N710 1.356 . S
C703 C702 1.363 . S
C703 C709 1.363 . S
C704 C705 1.363 . S
C704 C709 1.379 . S
C704 N711 1.356 . S
C705 C704 1.363 . S
C705 C708 1.363 . S
N706 C708 1.356 . S
N706 H718 0.984 . S
N706 H719 0.985 . S
N707 C709 1.356 . S
N707 H712 0.984 . S
N707 H713 0.985 . S
C708 C702 1.379 . S
C708 C705 1.363 . S
C708 N706 1.356 . S
C709 C703 1.363 . S
C709 C704 1.379 . S
C709 N707 1.356 . S
N710 C702 1.356 . S
N710 H716 0.984 . S
N710 H717 0.984 . S
N711 C704 1.356 . S
N711 H714 0.984 . S
N711 H715 0.985 . S
H712 N707 0.984 . S
H713 N707 0.985 . S
H714 N711 0.984 . S
H715 N711 0.985 . S
H716 N710 0.984 . S
H717 N710 0.984 . S
H718 N706 0.984 . S
H719 N706 0.985 . S
C720 C721 1.363 . S
C720 C726 1.379 . S
C720 N728 1.356 . S
C721 C720 1.363 . S
C721 C727 1.363 . S
C722 C723 1.363 . S
C722 C727 1.379 . S
C722 N729 1.356 . S
C723 C722 1.363 . S
C723 C726 1.363 . S
N724 C726 1.356 . S
N724 H736 0.984 . S
N724 H737 0.985 . S
N725 C727 1.356 . S
N725 H730 0.984 . S
N725 H731 0.985 . S
C726 C720 1.379 . S
C726 C723 1.363 . S
C726 N724 1.356 . S
C727 C721 1.363 . S
C727 C722 1.379 . S
C727 N725 1.356 . S
N728 C720 1.356 . S
N728 H734 0.984 . S
N728 H735 0.984 . S
N729 C722 1.356 . S
N729 H732 0.984 . S
N729 H733 0.985 . S
H730 N725 0.984 . S
H731 N725 0.985 . S
H732 N729 0.984 . S
H733 N729 0.985 . S
H734 N728 0.984 . S
H735 N728 0.984 . S
H736 N724 0.984 . S
H737 N724 0.985 . S
C738 C739 1.363 . S
C738 C744 1.379 1_565 S
C738 N746 1.356 1_556 S
C739 C738 1.363 . S
C739 C745 1.363 . S
C740 C741 1.363 1_565 S
C740 C745 1.379 . S
C740 N747 1.356 . S
C741 C740 1.363 1_545 S
C741 C744 1.363 . S
N742 C744 1.356 . S
N742 H754 0.984 1_556 S
N742 H755 0.985 . S
N743 C745 1.356 . S
N743 H748 0.984 . S
N743 H749 0.985 . S
C744 C738 1.379 1_545 S
C744 C741 1.363 . S
C744 N742 1.356 . S
C745 C739 1.363 . S
C745 C740 1.379 . S
C745 N743 1.356 . S
N746 C738 1.356 1_554 S
N746 H752 0.979 1_565 S
N746 H753 0.984 . S
N747 C740 1.356 . S
N747 H750 0.984 . S
N747 H751 0.985 . S
H748 N743 0.984 . S
H749 N743 0.985 . S
H750 N747 0.984 . S
H751 N747 0.985 . S
H752 N746 0.979 1_545 S
H753 N746 0.984 . S
H754 N742 0.984 1_554 S
H755 N742 0.985 . S
C756 C757 1.363 . S
C756 C762 1.379 . S
C756 N764 1.356 . S
C757 C756 1.363 . S
C757 C763 1.363 . S
C758 C759 1.363 . S
C758 C763 1.379 . S
C758 N765 1.356 . S
C759 C758 1.363 . S
C759 C762 1.363 . S
N760 C762 1.356 . S
N760 H772 0.984 . S
N760 H773 0.985 . S
N761 C763 1.356 . S
N761 H766 0.984 . S
N761 H767 0.985 . S
C762 C756 1.379 . S
C762 C759 1.363 . S
C762 N760 1.356 . S
C763 C757 1.363 . S
C763 C758 1.379 . S
C763 N761 1.356 . S
N764 C756 1.356 . S
N764 H770 0.984 1_455 S
N764 H771 0.984 . S
N765 C758 1.356 . S
N765 H768 0.988 . S
N765 H769 0.985 . S
H766 N761 0.984 . S
H767 N761 0.985 . S
H768 N765 0.988 . S
H769 N765 0.985 . S
H770 N764 0.984 1_655 S
H771 N764 0.984 . S
H772 N760 0.984 . S
H773 N760 0.985 . S
C774 C775 1.363 . S
C774 C780 1.379 . S
C774 N782 1.356 . S
C775 C774 1.363 . S
C775 C781 1.363 . S
C776 C777 1.363 . S
C776 C781 1.379 . S
C776 N783 1.356 . S
C777 C776 1.363 . S
C777 C780 1.363 . S
N778 C780 1.356 1_554 S
N778 H790 0.984 . S
N778 H791 0.985 . S
N779 C781 1.356 . S
N779 H784 0.984 . S
N779 H785 0.985 . S
C780 C774 1.379 . S
C780 C777 1.363 . S
C780 N778 1.356 1_556 S
C781 C775 1.363 . S
C781 C776 1.379 . S
C781 N779 1.356 . S
N782 C774 1.356 . S
N782 H788 0.984 . S
N782 H789 0.984 . S
N783 C776 1.356 . S
N783 H786 0.984 . S
N783 H787 0.985 . S
H784 N779 0.984 . S
H785 N779 0.985 . S
H786 N783 0.984 . S
H787 N783 0.985 . S
H788 N782 0.984 . S
H789 N782 0.984 . S
H790 N778 0.984 . S
H791 N778 0.985 . S
C792 C793 1.363 . S
C792 C798 1.379 . S
C792 N800 1.356 . S
C793 C792 1.363 . S
C793 C799 1.363 . S
C794 C795 1.363 1_565 S
C794 C799 1.379 . S
C794 N801 1.356 1_565 S
C795 C794 1.363 1_545 S
C795 C798 1.363 1_545 S
N796 C798 1.356 . S
N796 H808 0.984 . S
N796 H809 0.985 1_565 S
N797 C799 1.356 . S
N797 H802 0.984 . S
N797 H803 0.985 . S
C798 C792 1.379 . S
C798 C795 1.363 1_565 S
C798 N796 1.356 . S
C799 C793 1.363 . S
C799 C794 1.379 . S
C799 N797 1.356 . S
N800 C792 1.356 . S
N800 H806 0.984 . S
N800 H807 0.984 . S
N801 C794 1.356 1_545 S
N801 H804 0.984 . S
N801 H805 0.985 . S
H802 N797 0.984 . S
H803 N797 0.985 . S
H804 N801 0.984 . S
H805 N801 0.985 . S
H806 N800 0.984 . S
H807 N800 0.984 . S
H808 N796 0.984 . S
H809 N796 0.985 1_545 S
C810 C811 1.363 . S
C810 C816 1.379 . S
C810 N818 1.356 . S
C811 C810 1.363 . S
C811 C817 1.363 . S
C812 C813 1.363 . S
C812 C817 1.379 . S
C812 N819 1.356 1_455 S
C813 C812 1.363 . S
C813 C816 1.363 . S
N814 C816 1.356 . S
N814 H826 0.984 . S
N814 H827 0.985 1_455 S
N815 C817 1.356 . S
N815 H820 0.984 . S
N815 H821 0.985 . S
C816 C810 1.379 . S
C816 C813 1.363 . S
C816 N814 1.356 . S
C817 C811 1.363 . S
C817 C812 1.379 . S
C817 N815 1.356 . S
N818 C810 1.356 . S
N818 H824 0.984 . S
N818 H825 0.984 . S
N819 C812 1.356 1_655 S
N819 H822 0.984 . S
N819 H823 0.985 . S
H820 N815 0.984 . S
H821 N815 0.985 . S
H822 N819 0.984 . S
H823 N819 0.985 . S
H824 N818 0.984 . S
H825 N818 0.984 . S
H826 N814 0.984 . S
H827 N814 0.985 1_655 S
C828 C829 1.363 . S
C828 C834 1.379 . S
C828 N836 1.356 . S
C829 C828 1.363 . S
C829 C835 1.363 . S
C830 C831 1.363 . S
C830 C835 1.379 . S
C830 N837 1.356 . S
C831 C830 1.363 . S
C831 C834 1.363 . S
N832 C834 1.356 . S
N832 H844 0.984 . S
N832 H845 0.985 . S
N833 C835 1.356 . S
N833 H838 0.984 . S
N833 H839 0.985 . S
C834 C828 1.379 . S
C834 C831 1.363 . S
C834 N832 1.356 . S
C835 C829 1.363 . S
C835 C830 1.379 . S
C835 N833 1.356 . S
N836 C828 1.356 . S
N836 H842 0.984 . S
N836 H843 0.984 . S
N837 C830 1.356 . S
N837 H840 0.984 . S
N837 H841 0.985 . S
H838 N833 0.984 . S
H839 N833 0.985 . S
H840 N837 0.984 . S
H841 N837 0.985 . S
H842 N836 0.984 . S
H843 N836 0.984 . S
H844 N832 0.984 . S
H845 N832 0.985 . S
C846 C847 1.363 1_455 S
C846 C852 1.379 . S
C846 N854 1.354 1_455 S
C847 C846 1.363 1_655 S
C847 C853 1.363 . S
C848 C849 1.363 . S
C848 C853 1.379 1_455 S
C848 N855 1.356 . S
C849 C848 1.363 . S
C849 C852 1.363 . S
N850 C852 1.356 . S
N850 H862 0.984 . S
N850 H863 0.985 . S
N851 C853 1.356 . S
N851 H856 0.984 . S
N851 H857 0.985 . S
C852 C846 1.379 . S
C852 C849 1.363 . S
C852 N850 1.356 . S
C853 C847 1.363 . S
C853 C848 1.379 1_655 S
C853 N851 1.356 . S
N854 C846 1.354 1_655 S
N854 H860 0.971 1_655 S
N854 H861 1.001 . S
N855 C848 1.356 . S
N855 H858 0.984 . S
N855 H859 0.985 1_455 S
H856 N851 0.984 . S
H857 N851 0.985 . S
H858 N855 0.984 . S
H859 N855 0.985 1_655 S
H860 N854 0.971 1_455 S
H861 N854 1.001 . S
H862 N850 0.984 . S
H863 N850 0.985 . S
C864 C865 1.363 . S
C864 C870 1.379 . S
C864 N872 1.356 . S
C865 C864 1.363 . S
C865 C871 1.363 . S
C866 C867 1.363 . S
C866 C871 1.379 . S
C866 N873 1.356 . S
C867 C866 1.363 . S
C867 C870 1.363 . S
N868 C870 1.356 . S
N868 H880 0.984 . S
N868 H881 0.985 . S
N869 C871 1.356 . S
N869 H874 0.984 . S
N869 H875 0.985 . S
C870 C864 1.379 . S
C870 C867 1.363 . S
C870 N868 1.356 . S
C871 C865 1.363 . S
C871 C866 1.379 . S
C871 N869 1.356 . S
N872 C864 1.356 . S
N872 H878 0.984 . S
N872 H879 0.984 . S
N873 C866 1.356 . S
N873 H876 0.984 . S
N873 H877 0.985 . S
H874 N869 0.984 . S
H875 N869 0.985 . S
H876 N873 0.984 . S
H877 N873 0.985 . S
H878 N872 0.984 . S
H879 N872 0.984 . S
H880 N868 0.984 . S
H881 N868 0.985 . S
C882 C883 1.363 . S
C882 C888 1.379 1_565 S
C882 N890 1.356 . S
C883 C882 1.363 . S
C883 C889 1.363 1_565 S
C884 C885 1.363 . S
C884 C889 1.379 . S
C884 N891 1.356 . S
C885 C884 1.363 . S
C885 C888 1.363 . S
N886 C888 1.356 . S
N886 H898 0.984 1_545 S
N886 H899 0.985 . S
N887 C889 1.356 . S
N887 H892 0.984 1_545 S
N887 H893 0.985 . S
C888 C882 1.379 1_545 S
C888 C885 1.363 . S
C888 N886 1.356 . S
C889 C883 1.363 1_545 S
C889 C884 1.379 . S
C889 N887 1.356 . S
N890 C882 1.356 . S
N890 H896 0.984 . S
N890 H897 0.984 . S
N891 C884 1.356 . S
N891 H894 0.984 . S
N891 H895 0.985 . S
H892 N887 0.984 1_565 S
H893 N887 0.985 . S
H894 N891 0.984 . S
H895 N891 0.985 . S
H896 N890 0.984 . S
H897 N890 0.984 . S
H898 N886 0.984 1_565 S
H899 N886 0.985 . S
C253 C50 1.386 . S
C255 C6 1.482 . S
C271 C62 1.523 . S
C273 C20 1.503 . S
C289 C36 1.606 . S
C291 C78 1.577 . S
C307 C34 1.454 . S
C309 C76 1.443 . S
C325 C8 1.387 . S
C327 C48 1.425 . S
C343 C64 1.592 . S
C345 C22 1.522 . S
C361 C134 1.317 . S
C363 C90 1.377 . S
C379 C104 1.429 . S
C381 C146 1.437 . S
C397 C118 1.439 . S
C399 C162 1.366 . S
C415 C160 1.560 . S
C417 C120 1.495 . S
C433 C132 1.486 . S
C435 C92 1.412 . S
C451 C148 1.631 . S
C453 C106 1.606 . S
C469 C174 1.508 . S
C471 C218 1.462 . S
C487 C188 1.475 . S
C489 C230 1.483 . S
C505 C204 1.576 . S
C507 C246 1.545 . S
C523 C244 1.430 . S
C525 C202 1.438 . S
C541 C216 1.439 . S
C543 C176 1.350 . S
C559 C232 1.525 . S
C561 C190 1.505 . S
C577 C9 1.446 . S
C579 C105 1.514 . S
C595 C23 1.474 . S
C597 C119 1.473 . S
C613 C91 1.277 . S
C615 C35 1.279 . S
C631 C37 1.596 . S
C633 C191 1.647 . S
C649 C203 1.207 . S
C651 C7 1.204 . S
C667 C177 1.600 . S
C669 C21 1.566 . S
C685 C231 1.246 . S
C687 C49 1.243 . S
C703 C65 1.545 . S
C705 C247 1.615 . S
C721 C219 1.450 . S
C723 C77 1.487 . S
C739 C149 1.586 . S
C741 C79 1.635 . S
C757 C51 1.318 . S
C759 C161 1.380 1_556 S
C775 C63 1.188 . S
C777 C133 1.186 . S
C793 C93 1.368 . S
C795 C189 1.409 . S
C811 C107 1.597 . S
C813 C205 1.537 1_455 S
C829 C121 1.330 . S
C831 C175 1.346 . S
C847 C233 1.531 . S
C849 C163 1.557 . S
C865 C245 1.487 . S
C867 C135 1.436 . S
C883 C147 1.277 . S
C885 C217 1.276 . S
