# Generated by pormake.
# Topology bcs, (6)-cn, num edge types: 1
# Building blocks:
#     Node 0, Type 0, BuildingBlock: NUHQIS_clean_sbu_0, # of connection points: 6
#     Node 1, Type 0, BuildingBlock: NUHQIS_clean_sbu_0, # of connection points: 6
#     Node 2, Type 0, BuildingBlock: NUHQIS_clean_sbu_0, # of connection points: 6
#     Node 3, Type 0, BuildingBlock: NUHQIS_clean_sbu_0, # of connection points: 6
#     Node 4, Type 0, BuildingBlock: NUHQIS_clean_sbu_0, # of connection points: 6
#     Node 5, Type 0, BuildingBlock: NUHQIS_clean_sbu_0, # of connection points: 6
#     Node 6, Type 0, BuildingBlock: NUHQIS_clean_sbu_0, # of connection points: 6
#     Node 7, Type 0, BuildingBlock: NUHQIS_clean_sbu_0, # of connection points: 6
#     Node 8, Type 0, BuildingBlock: NUHQIS_clean_sbu_0, # of connection points: 6
#     Node 9, Type 0, BuildingBlock: NUHQIS_clean_sbu_0, # of connection points: 6
#     Node 10, Type 0, BuildingBlock: NUHQIS_clean_sbu_0, # of connection points: 6
#     Node 11, Type 0, BuildingBlock: NUHQIS_clean_sbu_0, # of connection points: 6
#     Node 12, Type 0, BuildingBlock: NUHQIS_clean_sbu_0, # of connection points: 6
#     Node 13, Type 0, BuildingBlock: NUHQIS_clean_sbu_0, # of connection points: 6
#     Node 14, Type 0, BuildingBlock: NUHQIS_clean_sbu_0, # of connection points: 6
#     Node 15, Type 0, BuildingBlock: NUHQIS_clean_sbu_0, # of connection points: 6
#     Edge 16, Type (0, 0), BuildingBlock: OJICUG_clean_linker_0, # of connection points: 2
#     Edge 17, Type (0, 0), BuildingBlock: OJICUG_clean_linker_0, # of connection points: 2
#     Edge 18, Type (0, 0), BuildingBlock: OJICUG_clean_linker_0, # of connection points: 2
#     Edge 19, Type (0, 0), BuildingBlock: OJICUG_clean_linker_0, # of connection points: 2
#     Edge 20, Type (0, 0), BuildingBlock: OJICUG_clean_linker_0, # of connection points: 2
#     Edge 21, Type (0, 0), BuildingBlock: OJICUG_clean_linker_0, # of connection points: 2
#     Edge 22, Type (0, 0), BuildingBlock: OJICUG_clean_linker_0, # of connection points: 2
#     Edge 23, Type (0, 0), BuildingBlock: OJICUG_clean_linker_0, # of connection points: 2
#     Edge 24, Type (0, 0), BuildingBlock: OJICUG_clean_linker_0, # of connection points: 2
#     Edge 25, Type (0, 0), BuildingBlock: OJICUG_clean_linker_0, # of connection points: 2
#     Edge 26, Type (0, 0), BuildingBlock: OJICUG_clean_linker_0, # of connection points: 2
#     Edge 27, Type (0, 0), BuildingBlock: OJICUG_clean_linker_0, # of connection points: 2
#     Edge 28, Type (0, 0), BuildingBlock: OJICUG_clean_linker_0, # of connection points: 2
#     Edge 29, Type (0, 0), BuildingBlock: OJICUG_clean_linker_0, # of connection points: 2
#     Edge 30, Type (0, 0), BuildingBlock: OJICUG_clean_linker_0, # of connection points: 2
#     Edge 31, Type (0, 0), BuildingBlock: OJICUG_clean_linker_0, # of connection points: 2
#     Edge 32, Type (0, 0), BuildingBlock: OJICUG_clean_linker_0, # of connection points: 2
#     Edge 33, Type (0, 0), BuildingBlock: OJICUG_clean_linker_0, # of connection points: 2
#     Edge 34, Type (0, 0), BuildingBlock: OJICUG_clean_linker_0, # of connection points: 2
#     Edge 35, Type (0, 0), BuildingBlock: OJICUG_clean_linker_0, # of connection points: 2
#     Edge 36, Type (0, 0), BuildingBlock: OJICUG_clean_linker_0, # of connection points: 2
#     Edge 37, Type (0, 0), BuildingBlock: OJICUG_clean_linker_0, # of connection points: 2
#     Edge 38, Type (0, 0), BuildingBlock: OJICUG_clean_linker_0, # of connection points: 2
#     Edge 39, Type (0, 0), BuildingBlock: OJICUG_clean_linker_0, # of connection points: 2
#     Edge 40, Type (0, 0), BuildingBlock: OJICUG_clean_linker_0, # of connection points: 2
#     Edge 41, Type (0, 0), BuildingBlock: OJICUG_clean_linker_0, # of connection points: 2
#     Edge 42, Type (0, 0), BuildingBlock: OJICUG_clean_linker_0, # of connection points: 2
#     Edge 43, Type (0, 0), BuildingBlock: OJICUG_clean_linker_0, # of connection points: 2
#     Edge 44, Type (0, 0), BuildingBlock: OJICUG_clean_linker_0, # of connection points: 2
#     Edge 45, Type (0, 0), BuildingBlock: OJICUG_clean_linker_0, # of connection points: 2
#     Edge 46, Type (0, 0), BuildingBlock: OJICUG_clean_linker_0, # of connection points: 2
#     Edge 47, Type (0, 0), BuildingBlock: OJICUG_clean_linker_0, # of connection points: 2
#     Edge 48, Type (0, 0), BuildingBlock: OJICUG_clean_linker_0, # of connection points: 2
#     Edge 49, Type (0, 0), BuildingBlock: OJICUG_clean_linker_0, # of connection points: 2
#     Edge 50, Type (0, 0), BuildingBlock: OJICUG_clean_linker_0, # of connection points: 2
#     Edge 51, Type (0, 0), BuildingBlock: OJICUG_clean_linker_0, # of connection points: 2
#     Edge 52, Type (0, 0), BuildingBlock: OJICUG_clean_linker_0, # of connection points: 2
#     Edge 53, Type (0, 0), BuildingBlock: OJICUG_clean_linker_0, # of connection points: 2
#     Edge 54, Type (0, 0), BuildingBlock: OJICUG_clean_linker_0, # of connection points: 2
#     Edge 55, Type (0, 0), BuildingBlock: OJICUG_clean_linker_0, # of connection points: 2
#     Edge 56, Type (0, 0), BuildingBlock: OJICUG_clean_linker_0, # of connection points: 2
#     Edge 57, Type (0, 0), BuildingBlock: OJICUG_clean_linker_0, # of connection points: 2
#     Edge 58, Type (0, 0), BuildingBlock: OJICUG_clean_linker_0, # of connection points: 2
#     Edge 59, Type (0, 0), BuildingBlock: OJICUG_clean_linker_0, # of connection points: 2
#     Edge 60, Type (0, 0), BuildingBlock: OJICUG_clean_linker_0, # of connection points: 2
#     Edge 61, Type (0, 0), BuildingBlock: OJICUG_clean_linker_0, # of connection points: 2
#     Edge 62, Type (0, 0), BuildingBlock: OJICUG_clean_linker_0, # of connection points: 2
#     Edge 63, Type (0, 0), BuildingBlock: OJICUG_clean_linker_0, # of connection points: 2
# Relax obj value: 0.286
# Max RMSD: 0.284
# Mean RMSD: 0.193
data_MOF--net-bcs--node1-NUHQIS_clean_sbu_0--edge1-OJICUG_clean_linker_0
_symmetry_space_group_name_H-M    P1
_symmetry_Int_Tables_number       1
_symmetry_cell_setting            triclinic
loop_
_symmetry_equiv_pos_as_xyz
'x, y, z'
_cell_length_a     31.555172
_cell_length_b     34.86287
_cell_length_c     31.554289
_cell_angle_alpha  93.333121
_cell_angle_beta   87.32017
_cell_angle_gamma 125.48662
loop_
_atom_site_label
_atom_site_type_symbol
_atom_site_fract_x
_atom_site_fract_y
_atom_site_fract_z
_atom_type_partial_charge
Tb0 Tb 0.9881 0.97866 1.0144 0.0
Eu1 Eu 0.08716 0.03247 0.07765 0.0
C2 C 0.06339 0.94929 1.01553 0.0
C3 C 0.97361 0.94809 0.10802 0.0
C4 C 0.90031 0.94166 0.92207 0.0
C5 C 0.90536 0.93968 0.84486 0.0
C6 C 0.92011 0.93436 0.88391 0.0
C7 C 0.86554 0.95425 0.92036 0.0
C8 C 0.84998 0.95849 0.88139 0.0
C9 C 0.86944 0.9509 0.84335 0.0
C10 C 0.9134 0.93395 0.96352 0.0
O11 O 1.00082 0.04607 1.03343 0.0
O12 O 0.03464 0.05422 0.09848 0.0
O13 O 0.11513 0.07847 1.02146 0.0
O14 O 0.05281 0.02624 0.97298 0.0
C15 C 1.01098 0.06392 0.07264 0.0
O16 O 0.14169 0.09217 0.11955 0.0
O17 O 0.14815 0.03367 0.1083 0.0
O18 O 0.10035 0.99293 1.02626 0.0
O19 O 1.01465 0.93378 1.02228 0.0
O20 O 0.95425 0.95647 0.07703 0.0
O21 O 1.02339 0.96592 0.1096 0.0
C22 C 0.09787 0.06573 0.98247 0.0
O23 O 0.95148 0.92937 0.96384 0.0
O24 O 0.915 0.95979 0.99585 0.0
C25 C 0.17155 0.07125 0.17579 0.0
C26 C 0.1819 0.06019 0.26165 0.0
C27 C 0.14991 0.0738 0.25049 0.0
C28 C 0.14508 0.07971 0.20783 0.0
C29 C 0.20396 0.05845 0.187 0.0
C30 C 0.20931 0.05321 0.22927 0.0
C31 C 0.1642 0.07251 0.13037 0.0
H32 H 0.92222 0.9354 0.81593 0.0
H33 H 0.94703 0.92461 0.88412 0.0
H34 H 0.84968 0.96012 0.94917 0.0
H35 H 0.82344 0.96868 0.88102 0.0
H36 H 0.12713 0.07803 0.27448 0.0
H37 H 0.11934 0.08922 0.19991 0.0
H38 H 0.22441 0.0514 0.16281 0.0
H39 H 0.23291 0.04106 0.23614 0.0
Tb40 Tb 0.26972 0.72315 0.274 0.0
Eu41 Eu 0.20434 0.76897 0.28748 0.0
C42 C 0.17875 0.69265 0.21822 0.0
C43 C 0.30929 0.81564 0.22755 0.0
C44 C 0.30341 0.64028 0.28434 0.0
C45 C 0.31151 0.57559 0.28689 0.0
C46 C 0.31761 0.61212 0.26488 0.0
C47 C 0.28138 0.63074 0.32536 0.0
C48 C 0.27526 0.59429 0.34736 0.0
C49 C 0.29109 0.56689 0.32858 0.0
C50 C 0.30929 0.67821 0.26126 0.0
O51 O 0.29672 0.76498 0.33321 0.0
O52 O 0.28005 0.81929 0.32004 0.0
O53 O 0.19086 0.72771 0.3449 0.0
O54 O 0.20176 0.6742 0.31189 0.0
C55 C 0.30491 0.80638 0.34046 0.0
O56 O 0.15286 0.77688 0.32907 0.0
O57 O 0.16968 0.80331 0.26554 0.0
O58 O 0.15625 0.70066 0.24967 0.0
O59 O 0.2293 0.71592 0.21757 0.0
O60 O 0.32128 0.79023 0.24558 0.0
O61 O 0.26409 0.8096 0.23456 0.0
C62 C 0.18482 0.68724 0.34419 0.0
O63 O 0.26703 0.66694 0.24319 0.0
O64 O 0.33275 0.71914 0.28148 0.0
C65 C 0.14901 0.84098 0.3188 0.0
C66 C 0.15483 0.92241 0.34577 0.0
C67 C 0.19163 0.91534 0.35948 0.0
C68 C 0.1889 0.875 0.34586 0.0
C69 C 0.11046 0.84622 0.30748 0.0
C70 C 0.11325 0.8864 0.32071 0.0
C71 C 0.14631 0.7996 0.3019 0.0
H72 H 0.32471 0.55542 0.27194 0.0
H73 H 0.33403 0.61881 0.23299 0.0
H74 H 0.26954 0.65188 0.34051 0.0
H75 H 0.25914 0.58809 0.37935 0.0
H76 H 0.22383 0.94189 0.37908 0.0
H77 H 0.21864 0.87101 0.35545 0.0
H78 H 0.07906 0.81994 0.28701 0.0
H79 H 0.08456 0.89038 0.30855 0.0
Tb80 Tb 0.53925 0.02294 0.50633 0.0
Eu81 Eu 0.45803 0.94492 0.57384 0.0
C82 C 0.56053 0.04089 0.60218 0.0
C83 C 0.55121 0.94405 0.53082 0.0
C84 C 0.59862 0.12435 0.43996 0.0
C85 C 0.59923 0.19355 0.45532 0.0
C86 C 0.61049 0.16266 0.46707 0.0
C87 C 0.57868 0.11951 0.39964 0.0
C88 C 0.56757 0.15066 0.38776 0.0
C89 C 0.57677 0.18747 0.41589 0.0
C90 C 0.6003 0.08642 0.4558 0.0
O91 O 0.46616 0.97486 0.47372 0.0
O92 O 0.43983 0.90942 0.50953 0.0
O93 O 0.4206 0.97871 0.55263 0.0
O94 O 0.4967 0.04909 0.5362 0.0
C95 C 0.43922 0.92892 0.47568 0.0
O96 O 0.39144 0.87422 0.58998 0.0
O97 O 0.43146 0.92828 0.63945 0.0
O98 O 0.51047 0.01378 0.60938 0.0
O99 O 0.57978 0.03815 0.56539 0.0
O100 O 0.5535 0.9695 0.50064 0.0
O101 O 0.52377 0.93636 0.56596 0.0
C102 C 0.44717 0.02425 0.54748 0.0
O103 O 0.60869 0.08911 0.49623 0.0
O104 O 0.56282 0.04372 0.44345 0.0
C105 C 0.42072 0.85727 0.64889 0.0
C106 C 0.48804 0.83316 0.67014 0.0
C107 C 0.45684 0.81247 0.63395 0.0
C108 C 0.42342 0.82421 0.62355 0.0
C109 C 0.4488 0.87515 0.68678 0.0
C110 C 0.48284 0.86396 0.69688 0.0
C111 C 0.4027 0.88312 0.63026 0.0
H112 H 0.60782 0.22202 0.47745 0.0
H113 H 0.62648 0.16784 0.49822 0.0
H114 H 0.56936 0.09034 0.37809 0.0
H115 H 0.5499 0.14469 0.35727 0.0
H116 H 0.4581 0.78713 0.61346 0.0
H117 H 0.40215 0.80946 0.59422 0.0
H118 H 0.44778 0.90093 0.70683 0.0
H119 H 0.50637 0.88092 0.72486 0.0
Tb120 Tb 0.32555 0.22344 0.78473 0.0
Eu121 Eu 0.25691 0.26627 0.7978 0.0
C122 C 0.35098 0.29648 0.85865 0.0
C123 C 0.22974 0.17804 0.84385 0.0
C124 C 0.37624 0.16096 0.73258 0.0
C125 C 0.43296 0.15272 0.68472 0.0
C126 C 0.42558 0.17198 0.72187 0.0
C127 C 0.33436 0.13086 0.70533 0.0
C128 C 0.34165 0.1114 0.66824 0.0
C129 C 0.391 0.12203 0.65769 0.0
C130 C 0.36948 0.1825 0.77127 0.0
O131 O 0.2622 0.18733 0.73905 0.0
O132 O 0.24246 0.24037 0.73071 0.0
O133 O 0.32845 0.32072 0.76125 0.0
O134 O 0.35759 0.27588 0.73691 0.0
C135 C 0.24147 0.2037 0.71736 0.0
O136 O 0.1798 0.25058 0.81027 0.0
O137 O 0.24772 0.32311 0.81086 0.0
O138 O 0.30352 0.28483 0.85634 0.0
O139 O 0.37071 0.28258 0.8294 0.0
O140 O 0.27942 0.19612 0.84273 0.0
O141 O 0.21091 0.19097 0.81661 0.0
C142 C 0.35931 0.31443 0.73721 0.0
O143 O 0.39429 0.22816 0.77149 0.0
O144 O 0.32196 0.16164 0.78601 0.0
C145 C 0.18853 0.30118 0.86679 0.0
C146 C 0.19847 0.33715 0.95017 0.0
C147 C 0.17676 0.34783 0.91888 0.0
C148 C 0.17236 0.33032 0.87722 0.0
C149 C 0.20474 0.28631 0.89901 0.0
C150 C 0.21057 0.30487 0.94043 0.0
C151 C 0.19905 0.29407 0.82246 0.0
H152 H 0.47123 0.16077 0.6778 0.0
H153 H 0.45836 0.19529 0.74238 0.0
H154 H 0.29592 0.12212 0.71276 0.0
H155 H 0.30871 0.08789 0.64796 0.0
H156 H 0.16797 0.37337 0.9257 0.0
H157 H 0.16017 0.34236 0.85273 0.0
H158 H 0.21687 0.26332 0.89147 0.0
H159 H 0.22771 0.29659 0.96401 0.0
Tb160 Tb 0.06597 0.97698 0.55141 0.0
Eu161 Eu 0.98772 0.01783 0.54683 0.0
C162 C 0.96198 0.92433 0.50321 0.0
C163 C 0.07642 0.04055 0.47426 0.0
C164 C 0.14098 0.92923 0.59225 0.0
C165 C 0.21203 0.92588 0.61611 0.0
C166 C 0.19324 0.94428 0.58983 0.0
C167 C 0.10831 0.89559 0.62263 0.0
C168 C 0.12716 0.87728 0.64909 0.0
C169 C 0.17935 0.89157 0.6461 0.0
C170 C 0.12086 0.94549 0.56013 0.0
O171 O 0.08757 0.03122 0.59942 0.0
O172 O 0.06755 0.07753 0.56978 0.0
O173 O 0.96966 0.98439 0.61205 0.0
O174 O 1.00723 0.94314 0.60276 0.0
C175 C 0.09695 0.07239 0.59363 0.0
O176 O 0.96523 0.0673 0.55872 0.0
O177 O 0.91975 0.00607 0.51682 0.0
O178 O 0.9457 0.94035 0.5334 0.0
O179 O 1.01101 0.93964 0.50045 0.0
O180 O 0.09967 0.0285 0.49927 0.0
O181 O 0.03041 0.0315 0.4838 0.0
C182 C 0.97856 0.95396 0.62509 0.0
O183 O 0.07104 0.91928 0.55241 0.0
O184 O 0.14002 0.99028 0.55946 0.0
C185 C 0.91665 0.07196 0.50322 0.0
C186 C 0.88447 0.1153 0.44988 0.0
C187 C 0.88735 0.12293 0.49451 0.0
C188 C 0.903 0.10166 0.52054 0.0
C189 C 0.91475 0.06483 0.45866 0.0
C190 C 0.89913 0.08612 0.43256 0.0
C191 C 0.92657 0.04482 0.53216 0.0
H192 H 0.2525 0.93876 0.61278 0.0
H193 H 0.21963 0.96983 0.56677 0.0
H194 H 0.06774 0.88261 0.62543 0.0
H195 H 0.10009 0.85072 0.67112 0.0
H196 H 0.87751 0.14551 0.50965 0.0
H197 H 0.90336 0.10773 0.55463 0.0
H198 H 0.92426 0.04184 0.44385 0.0
H199 H 0.89716 0.07842 0.3987 0.0
Tb200 Tb 0.23564 0.74977 0.8362 0.0
Eu201 Eu 0.31499 0.75438 0.75917 0.0
C202 C 0.19758 0.67225 0.76415 0.0
C203 C 0.30338 0.7064 0.84761 0.0
C204 C 0.15851 0.77528 0.91171 0.0
C205 C 0.12062 0.79703 0.96869 0.0
C206 C 0.13916 0.77073 0.95345 0.0
C207 C 0.16 0.80733 0.88559 0.0
C208 C 0.14244 0.83442 0.90112 0.0
C209 C 0.12252 0.82953 0.94286 0.0
C210 C 0.17769 0.74695 0.89644 0.0
O211 O 0.30643 0.82087 0.84067 0.0
O212 O 0.36758 0.81327 0.80677 0.0
O213 O 0.28253 0.79307 0.73402 0.0
O214 O 0.23287 0.79339 0.7904 0.0
C215 C 0.35473 0.83461 0.83473 0.0
O216 O 0.38788 0.77278 0.72894 0.0
O217 O 0.31552 0.7251 0.69582 0.0
O218 O 0.24358 0.68121 0.76684 0.0
O219 O 0.18712 0.6991 0.78565 0.0
O220 O 0.26491 0.70995 0.86028 0.0
O221 O 0.32825 0.72255 0.81142 0.0
C222 C 0.25156 0.8042 0.75113 0.0
O223 O 0.16046 0.72391 0.86015 0.0
O224 O 0.22747 0.76742 0.89951 0.0
C225 C 0.3821 0.71234 0.68276 0.0
C226 C 0.42171 0.66024 0.65015 0.0
C227 C 0.44129 0.68898 0.68771 0.0
C228 C 0.4211 0.71374 0.70412 0.0
C229 C 0.36202 0.68355 0.64566 0.0
C230 C 0.38088 0.65745 0.62995 0.0
C231 C 0.36514 0.74338 0.69649 0.0
H232 H 0.10601 0.79284 1.00108 0.0
H233 H 0.13809 0.74651 0.97425 0.0
H234 H 0.17512 0.81166 0.85338 0.0
H235 H 0.14426 0.85911 0.88046 0.0
H236 H 0.4732 0.69356 0.70435 0.0
H237 H 0.43709 0.735 0.73309 0.0
H238 H 0.33189 0.68155 0.62837 0.0
H239 H 0.36305 0.6351 0.60183 0.0
Tb240 Tb 0.56315 0.97664 1.04655 0.0
Eu241 Eu 0.5029 0.03323 0.05044 0.0
C242 C 0.5815 0.04998 0.12163 0.0
C243 C 0.45866 0.9395 0.10064 0.0
C244 C 0.64147 0.92403 1.01946 0.0
C245 C 0.7185 0.92319 1.00921 0.0
C246 C 0.6917 0.93946 1.03132 0.0
C247 C 0.61872 0.89189 0.98461 0.0
C248 C 0.64557 0.87564 0.96239 0.0
C249 C 0.69592 0.89086 0.97438 0.0
C250 C 0.613 0.93949 1.04613 0.0
O251 O 0.50447 0.9411 0.99687 0.0
O252 O 0.48292 0.9934 0.98702 0.0
O253 O 0.57966 0.07742 1.01483 0.0
O254 O 0.59405 0.02159 0.99249 0.0
C255 C 0.48219 0.95607 0.9751 0.0
O256 O 0.43488 0.03458 1.04269 0.0
O257 O 0.50747 0.0978 0.06436 0.0
O258 O 0.53752 0.04433 0.11461 0.0
O259 O 0.60231 0.0358 0.09337 0.0
O260 O 0.50411 0.94562 0.0974 0.0
O261 O 0.44723 0.96282 0.07833 0.0
C262 C 0.60245 0.06287 0.98939 0.0
O263 O 0.63446 0.98461 0.05047 0.0
O264 O 0.56241 0.91549 1.04369 0.0
C265 C 0.42872 0.09014 0.08651 0.0
C266 C 0.37454 0.11977 0.13763 0.0
C267 C 0.35325 0.09275 0.0996 0.0
C268 C 0.37997 0.07828 0.07447 0.0
C269 C 0.44978 0.11644 0.12482 0.0
C270 C 0.42308 0.13096 0.14999 0.0
C271 C 0.45837 0.07815 0.05699 0.0
H272 H 0.75723 0.93636 1.01926 0.0
H273 H 0.71018 0.96393 0.05825 0.0
H274 H 0.57994 0.87881 0.97479 0.0
H275 H 0.62627 0.8503 0.9362 0.0
H276 H 0.31576 0.08265 0.08912 0.0
H277 H 0.36276 0.05834 1.04504 0.0
H278 H 0.48741 0.12663 0.13506 0.0
H279 H 0.44134 0.15213 0.17865 0.0
Tb280 Tb 0.19702 0.22669 0.25087 0.0
Eu281 Eu 0.29447 0.26704 0.31619 0.0
C282 C 0.2738 0.19259 0.23998 0.0
C283 C 0.1822 0.17148 0.33532 0.0
C284 C 0.11866 0.24412 0.179 0.0
C285 C 0.0858 0.26291 0.12047 0.0
C286 C 0.09707 0.23369 0.13838 0.0
C287 C 0.12967 0.28525 0.20094 0.0
C288 C 0.11886 0.31477 0.18288 0.0
C289 C 0.09647 0.30403 0.14237 0.0
C290 C 0.13074 0.21274 0.19737 0.0
O291 O 0.18313 0.26073 0.30404 0.0
O292 O 0.26662 0.31266 0.32674 0.0
O293 O 0.32632 0.29295 0.25175 0.0
O294 O 0.26157 0.29933 0.23604 0.0
C295 C 0.21815 0.29814 0.32636 0.0
O296 O 0.33132 0.26436 0.37124 0.0
O297 O 0.37052 0.3284 0.33601 0.0
O298 O 0.29381 0.21052 0.27771 0.0
O299 O 0.23896 0.19714 0.22358 0.0
O300 O 0.16776 0.16789 0.2953 0.0
O301 O 0.2233 0.21077 0.35101 0.0
C302 C 0.30969 0.31244 0.2303 0.0
O303 O 0.17577 0.22119 0.18706 0.0
O304 O 0.12052 0.20411 0.23761 0.0
C305 C 0.42133 0.30777 0.36457 0.0
C306 C 0.49859 0.29308 0.3728 0.0
C307 C 0.49668 0.32505 0.40074 0.0
C308 C 0.45777 0.33201 0.39684 0.0
C309 C 0.42672 0.28018 0.33386 0.0
C310 C 0.46506 0.27274 0.33798 0.0
C311 C 0.37424 0.30618 0.36579 0.0
H312 H 0.06928 0.25352 0.08907 0.0
H313 H 0.08891 0.20278 0.12031 0.0
H314 H 0.14685 0.29472 0.23208 0.0
H315 H 0.12752 0.34582 0.20099 0.0
H316 H 0.52284 0.34198 0.42732 0.0
H317 H 0.45422 0.35392 0.42042 0.0
H318 H 0.39886 0.26158 0.30854 0.0
H319 H 0.46518 0.24773 0.31605 0.0
Tb320 Tb 0.56384 0.47499 0.05929 0.0
Eu321 Eu 0.49644 0.52209 1.03366 0.0
C322 C 0.47333 0.4267 0.99472 0.0
C323 C 0.6038 0.54857 0.9871 0.0
C324 C 0.62557 0.41466 0.10446 0.0
C325 C 0.65088 0.36057 0.11061 0.0
C326 C 0.63095 0.37963 0.08691 0.0
C327 C 0.63954 0.42927 0.14717 0.0
C328 C 0.65991 0.41036 0.17097 0.0
C329 C 0.66672 0.376 0.15298 0.0
C330 C 0.61188 0.43865 0.07554 0.0
O331 O 0.57259 0.52348 0.11017 0.0
O332 O 0.56513 0.57504 0.07406 0.0
O333 O 0.45246 0.47704 0.09023 0.0
O334 O 0.49239 0.43835 0.09719 0.0
C335 C 0.58155 0.56505 0.10644 0.0
O336 O 0.46555 0.56563 1.04386 0.0
O337 O 0.45853 0.53014 0.98241 0.0
O338 O 0.4522 0.44565 1.01508 0.0
O339 O 0.52232 0.44312 0.99995 0.0
O340 O 0.61626 0.53439 1.01906 0.0
O341 O 0.55713 0.5387 0.98313 0.0
C342 C 0.45646 0.44567 0.10776 0.0
O343 O 0.56559 0.41506 0.0592 0.0
O344 O 0.63042 0.483 0.08269 0.0
C345 C 0.42346 0.57719 0.98525 0.0
C346 C 0.38086 0.61902 0.94402 0.0
C347 C 0.39564 0.63025 0.98705 0.0
C348 C 0.4167 0.60971 1.00731 0.0
C349 C 0.40715 0.56494 0.94285 0.0
C350 C 0.38626 0.58526 0.92274 0.0
C351 C 0.45016 0.55802 1.00451 0.0
H352 H 0.6539 0.33363 0.09535 0.0
H353 H 0.62092 0.36769 0.05409 0.0
H354 H 0.63677 0.45668 0.16167 0.0
H355 H 0.67197 0.42405 0.20311 0.0
H356 H 0.39231 0.65587 1.00488 0.0
H357 H 0.42877 0.62014 1.03998 0.0
H358 H 0.41102 0.53975 0.92471 0.0
H359 H 0.37385 0.57391 0.89025 0.0
Tb360 Tb 0.75149 0.25087 0.33425 0.0
Eu361 Eu 0.83003 0.25799 0.25551 0.0
C362 C 0.711 0.16924 0.2621 0.0
C363 C 0.81562 0.20321 0.34155 0.0
C364 C 0.69852 0.29548 0.41712 0.0
C365 C 0.66602 0.34351 0.41002 0.0
C366 C 0.68041 0.31478 0.3918 0.0
C367 C 0.70565 0.30848 0.46052 0.0
C368 C 0.69261 0.3382 0.47865 0.0
C369 C 0.67115 0.35543 0.45405 0.0
C370 C 0.70815 0.26043 0.39966 0.0
O371 O 0.81936 0.32237 0.3259 0.0
O372 O 0.88028 0.31003 0.30731 0.0
O373 O 0.7931 0.2946 0.23347 0.0
O374 O 0.7351 0.28354 0.28734 0.0
C375 C 0.86641 0.33385 0.32945 0.0
O376 O 0.90689 0.28562 0.22698 0.0
O377 O 0.83793 0.24053 0.18937 0.0
O378 O 0.75921 0.18368 0.25449 0.0
O379 O 0.69904 0.19132 0.29026 0.0
O380 O 0.78261 0.21262 0.35721 0.0
O381 O 0.83639 0.21537 0.30311 0.0
C382 C 0.75595 0.29846 0.24952 0.0
O383 O 0.6832 0.23528 0.36568 0.0
O384 O 0.75642 0.27433 0.39812 0.0
C385 C 0.90814 0.23428 0.17361 0.0
C386 C 0.94432 0.18084 0.13904 0.0
C387 C 0.96665 0.21009 0.17583 0.0
C388 C 0.94891 0.23654 0.19283 0.0
C389 C 0.88653 0.20585 0.13646 0.0
C390 C 0.90418 0.17937 0.1195 0.0
C391 C 0.88803 0.26146 0.19127 0.0
H392 H 0.64932 0.3549 0.38932 0.0
H393 H 0.67546 0.30623 0.35804 0.0
H394 H 0.72045 0.29482 0.48074 0.0
H395 H 0.6995 0.34738 0.51215 0.0
H396 H 0.99827 0.21297 0.19142 0.0
H397 H 0.96707 0.25859 0.22112 0.0
H398 H 0.85544 0.20371 0.12062 0.0
H399 H 0.88549 0.15698 0.0915 0.0
Tb400 Tb 0.06331 0.48724 0.54488 0.0
Eu401 Eu 0.9922 0.52694 0.54752 0.0
C402 C 0.0779 0.5602 0.61718 0.0
C403 C 0.96268 0.44052 0.60098 0.0
C404 C 0.13085 0.43368 0.50763 0.0
C405 C 0.19665 0.42986 0.46964 0.0
C406 C 0.18298 0.45055 0.50119 0.0
C407 C 0.09251 0.39649 0.4814 0.0
C408 C 0.10618 0.37544 0.45006 0.0
C409 C 0.15839 0.39155 0.44426 0.0
C410 C 0.11743 0.45563 0.54149 0.0
O411 O 1.00155 0.44136 0.49961 0.0
O412 O 0.97821 0.49017 0.48392 0.0
O413 O 0.07009 0.581 0.5188 0.0
O414 O 0.08659 0.52976 0.48945 0.0
C415 C 0.97863 0.45322 0.47503 0.0
O416 O 0.91652 0.51538 0.55372 0.0
O417 O 0.98543 0.58461 0.53944 0.0
O418 O 0.03117 0.54924 0.61097 0.0
O419 O 0.10076 0.5481 0.58913 0.0
O420 O 1.01221 0.4577 0.59988 0.0
O421 O 0.94397 0.4555 0.57565 0.0
C422 C 0.09269 0.57026 0.48953 0.0
O423 O 0.1369 0.50001 0.53721 0.0
O424 O 0.06877 0.43134 0.55393 0.0
C425 C 0.92258 0.58055 0.58515 0.0
C426 C 0.89556 0.62008 0.65113 0.0
C427 C 0.86073 0.59304 0.61798 0.0
C428 C 0.87431 0.57357 0.58509 0.0
C429 C 0.95672 0.60598 0.61892 0.0
C430 C 0.9434 0.62586 0.65162 0.0
C431 C 0.9364 0.55992 0.55067 0.0
H432 H 0.2372 0.44368 0.46538 0.0
H433 H 0.21314 0.47961 0.52072 0.0
H434 H 0.05194 0.38322 0.48542 0.0
H435 H 0.07573 0.3458 0.43124 0.0
H436 H 0.82317 0.58727 0.61722 0.0
H437 H 0.84727 0.55325 0.55957 0.0
H438 H 0.99393 0.61098 0.61973 0.0
H439 H 0.97113 0.64679 0.67655 0.0
Tb440 Tb 0.80043 0.74666 0.29219 0.0
Eu441 Eu 0.73349 0.79137 0.30181 0.0
C442 C 0.8316 0.82744 0.35874 0.0
C443 C 0.71657 0.71337 0.36356 0.0
C444 C 0.84765 0.6865 0.23617 0.0
C445 C 0.87627 0.64667 0.19171 0.0
C446 C 0.88137 0.67308 0.22857 0.0
C447 C 0.81045 0.67531 0.20587 0.0
C448 C 0.80478 0.64836 0.16944 0.0
C449 C 0.83708 0.63319 0.16247 0.0
C450 C 0.84945 0.71108 0.27581 0.0
O451 O 0.72473 0.69628 0.26465 0.0
O452 O 0.70678 0.74617 0.2416 0.0
O453 O 0.8042 0.83942 0.26116 0.0
O454 O 0.81322 0.78235 0.2343 0.0
C455 C 0.70097 0.7057 0.23866 0.0
O456 O 0.65917 0.78261 0.30642 0.0
O457 O 0.73146 0.8528 0.30956 0.0
O458 O 0.78419 0.8165 0.359 0.0
O459 O 0.84852 0.81232 0.32815 0.0
O460 O 0.76419 0.72664 0.35446 0.0
O461 O 0.69348 0.72691 0.34142 0.0
C462 C 0.82486 0.82491 0.23357 0.0
O463 O 0.87006 0.75574 0.27241 0.0
O464 O 0.80563 0.68985 0.29724 0.0
C465 C 0.66278 0.83967 0.35378 0.0
C466 C 0.63496 0.86814 0.42896 0.0
C467 C 0.65513 0.89692 0.39358 0.0
C468 C 0.6688 0.88276 0.35638 0.0
C469 C 0.6426 0.81063 0.38901 0.0
C470 C 0.62827 0.8246 0.42624 0.0
C471 C 0.68107 0.82737 0.31519 0.0
H472 H 0.90111 0.63465 0.18716 0.0
H473 H 0.91045 0.68181 0.25157 0.0
H474 H 0.78471 0.68623 0.21102 0.0
H475 H 0.7743 0.63824 0.14736 0.0
H476 H 0.65965 0.93023 0.39444 0.0
H477 H 0.68456 0.90572 0.32968 0.0
H478 H 0.63832 0.77743 0.3879 0.0
H479 H 0.61264 0.80176 0.453 0.0
Tb480 Tb 0.80453 0.21549 0.77365 0.0
Eu481 Eu 0.73948 0.26061 0.79613 0.0
C482 C 0.69958 0.17577 0.73034 0.0
C483 C 0.83089 0.30352 0.72619 0.0
C484 C 0.83823 0.13104 0.74359 0.0
C485 C 0.86173 0.08096 0.71106 0.0
C486 C 0.86725 0.12378 0.71354 0.0
C487 C 0.79973 0.09361 0.76798 0.0
C488 C 0.79466 0.05112 0.76598 0.0
C489 C 0.82783 0.04529 0.7393 0.0
C490 C 0.85164 0.17862 0.7517 0.0
O491 O 0.84461 0.26539 0.82624 0.0
O492 O 0.82084 0.31571 0.81843 0.0
O493 O 0.7375 0.2228 0.85149 0.0
O494 O 0.73958 0.16573 0.81522 0.0
C495 C 0.85155 0.30611 0.83385 0.0
O496 O 0.70272 0.27836 0.84579 0.0
O497 O 0.69482 0.28736 0.77999 0.0
O498 O 0.68423 0.18973 0.76323 0.0
O499 O 0.74865 0.19285 0.72453 0.0
O500 O 0.84948 0.28385 0.74529 0.0
O501 O 0.78458 0.29352 0.73576 0.0
C502 C 0.7263 0.1804 0.84924 0.0
O503 O 0.83379 0.19277 0.72494 0.0
O504 O 0.84681 0.18987 0.79089 0.0
C505 C 0.70107 0.34237 0.83049 0.0
C506 C 0.73074 0.43551 0.83651 0.0
C507 C 0.76748 0.42587 0.84278 0.0
C508 C 0.75279 0.37957 0.83949 0.0
C509 C 0.66346 0.35132 0.82823 0.0
C510 C 0.6781 0.39755 0.8313 0.0
C511 C 0.68706 0.29505 0.8196 0.0
H512 H 0.88687 0.07722 0.68939 0.0
H513 H 0.89635 0.15214 0.69376 0.0
H514 H 0.77611 0.09827 0.79073 0.0
H515 H 0.76815 0.02483 0.78842 0.0
H516 H 0.80817 0.45432 0.84721 0.0
H517 H 0.78227 0.37307 0.84167 0.0
H518 H 0.62335 0.32284 0.82149 0.0
H519 H 0.64883 0.40359 0.82576 0.0
Tb520 Tb 0.77413 0.74762 0.79549 0.0
Eu521 Eu 0.87262 0.77953 0.85735 0.0
C522 C 0.8449 0.71536 0.77516 0.0
C523 C 0.75831 0.68613 0.87177 0.0
C524 C 0.67347 0.7394 0.73285 0.0
C525 C 0.60857 0.73406 0.69005 0.0
C526 C 0.63523 0.71563 0.70183 0.0
C527 C 0.68574 0.7821 0.75157 0.0
C528 C 0.65884 0.80032 0.74011 0.0
C529 C 0.6198 0.77622 0.70952 0.0
C530 C 0.69982 0.71921 0.74629 0.0
O531 O 0.76445 0.7843 0.8482 0.0
O532 O 0.84174 0.82173 0.88527 0.0
O533 O 0.90455 0.82903 0.80062 0.0
O534 O 0.83048 0.82207 0.78296 0.0
C535 C 0.79582 0.81371 0.8783 0.0
O536 O 0.90761 0.78505 0.9182 0.0
O537 O 0.95027 0.79408 0.86 0.0
O538 O 0.85152 0.71627 0.81581 0.0
O539 O 0.82719 0.7376 0.76079 0.0
O540 O 0.74901 0.68588 0.83157 0.0
O541 O 0.79991 0.72235 0.88993 0.0
C542 C 0.8808 0.84227 0.77808 0.0
O543 O 0.74809 0.74077 0.73372 0.0
O544 O 0.69383 0.70959 0.7863 0.0
C545 C 0.95629 0.75088 0.91366 0.0
C546 C 0.97554 0.68378 0.93847 0.0
C547 C 0.94166 0.69133 0.96225 0.0
C548 C 0.93215 0.72403 0.95005 0.0
C549 C 0.99063 0.74396 0.89017 0.0
C550 C 0.99986 0.71103 0.90214 0.0
C551 C 0.94649 0.78616 0.90039 0.0
H552 H 0.57828 0.71479 0.66663 0.0
H553 H 0.62557 0.68262 0.68718 0.0
H554 H 0.71562 0.8009 0.77538 0.0
H555 H 0.66834 0.8331 0.7552 0.0
H556 H 0.92282 0.67251 0.99096 0.0
H557 H 0.90598 0.72847 0.9695 0.0
H558 H 1.01045 0.76402 0.86217 0.0
H559 H 1.02578 0.70671 0.88225 0.0
Tb560 Tb 0.51015 0.48427 0.52089 0.0
Eu561 Eu 0.60506 0.54566 0.58865 0.0
C562 C 0.59745 0.46536 0.5293 0.0
C563 C 0.49967 0.45058 0.61566 0.0
C564 C 0.39724 0.43183 0.45155 0.0
C565 C 0.35811 0.43737 0.39016 0.0
C566 C 0.38879 0.42571 0.40777 0.0
C567 C 0.37107 0.44566 0.47805 0.0
C568 C 0.34007 0.45689 0.46057 0.0
C569 C 0.33538 0.4552 0.41627 0.0
C570 C 0.43935 0.43123 0.46813 0.0
O571 O 0.48871 0.52975 0.54871 0.0
O572 O 0.55183 0.56944 0.60005 0.0
O573 O 0.63246 0.57813 0.52484 0.0
O574 O 0.555 0.55459 0.49698 0.0
C575 C 0.51007 0.55998 0.58136 0.0
O576 O 0.63401 0.58511 0.64901 0.0
O577 O 0.68825 0.58975 0.60123 0.0
O578 O 0.60987 0.48514 0.56759 0.0
O579 O 0.56856 0.4704 0.50485 0.0
O580 O 0.47809 0.4514 0.58151 0.0
O581 O 0.5497 0.47912 0.6225 0.0
C582 C 0.60586 0.58272 0.49749 0.0
O583 O 0.48589 0.4668 0.45763 0.0
O584 O 0.43608 0.42242 0.50814 0.0
C585 C 0.70826 0.59375 0.67358 0.0
C586 C 0.74544 0.57123 0.74029 0.0
C587 C 0.72866 0.60054 0.74812 0.0
C588 C 0.71051 0.61196 0.71494 0.0
C589 C 0.72717 0.56624 0.66537 0.0
C590 C 0.74574 0.55527 0.69833 0.0
C591 C 0.68205 0.60026 0.64038 0.0
H592 H 0.35566 0.43581 0.35593 0.0
H593 H 0.40892 0.41519 0.38692 0.0
H594 H 0.37706 0.45067 0.51202 0.0
H595 H 0.32241 0.46959 0.48175 0.0
H596 H 0.72803 0.61335 0.78005 0.0
H597 H 0.69616 0.63334 0.72186 0.0
H598 H 0.7256 0.55144 0.63385 0.0
H599 H 0.75733 0.5318 0.69114 0.0
Tb600 Tb 0.97755 0.4555 1.04439 0.0
Eu601 Eu 0.095 0.51784 1.00477 0.0
C602 C 1.00263 0.43516 0.95557 0.0
C603 C 0.05329 0.42664 0.06355 0.0
C604 C 0.84746 0.42234 0.0645 0.0
C605 C 0.82616 0.47117 1.0333 0.0
C606 C 0.84437 0.44307 1.02879 0.0
C607 C 0.82592 0.4252 0.10331 0.0
C608 C 0.80681 0.45259 0.1076 0.0
C609 C 0.81022 0.47823 0.07329 0.0
C610 C 0.88261 0.40749 0.06383 0.0
O611 O 1.02012 0.52003 0.08403 0.0
O612 O 0.09627 0.52767 0.07494 0.0
O613 O 0.06701 0.5641 0.99692 0.0
O614 O 0.97913 0.50733 1.00577 0.0
C615 C 0.06821 0.53941 0.09518 0.0
O616 O 0.17494 0.58128 1.00685 0.0
O617 O 0.15308 0.52531 0.95934 0.0
O618 O 0.03906 0.47976 0.95135 0.0
O619 O 0.98955 0.41837 0.99344 0.0
O620 O 1.01299 0.42674 0.07667 0.0
O621 O 0.08475 0.45351 1.03259 0.0
C622 C 1.01829 0.55013 0.99477 0.0
O623 O 0.90045 0.40492 1.02644 0.0
O624 O 0.91941 0.42908 0.09205 0.0
C625 C 0.22959 0.5556 0.99542 0.0
C626 C 0.26452 0.50245 1.0199 0.0
C627 C 0.24632 0.52046 0.05076 0.0
C628 C 0.2289 0.54695 1.03859 0.0
C629 C 0.25479 0.5435 0.96583 0.0
C630 C 0.27264 0.51753 0.97806 0.0
C631 C 0.19128 0.56241 0.97985 0.0
H632 H 0.82901 0.49077 1.00657 0.0
H633 H 0.86058 0.44147 0.99826 0.0
H634 H 0.82837 0.40994 0.13122 0.0
H635 H 0.79491 0.45791 0.13888 0.0
H636 H 0.2392 0.50892 0.08309 0.0
H637 H 0.20917 0.55545 0.06214 0.0
H638 H 0.25505 0.54912 0.93237 0.0
H639 H 0.28565 0.5035 0.95337 0.0
C640 C 0.21799 0.15091 0.91766 0.0
C641 C 0.19623 0.14831 0.87887 0.0
H642 H 0.20369 0.12752 0.98134 0.0
C643 C 0.14193 0.11907 0.87462 0.0
H644 H 0.25974 0.17365 0.92193 0.0
C645 C 0.10992 0.0924 0.90843 0.0
C646 C 0.1316 0.0953 0.94738 0.0
H647 H 0.12418 0.11661 0.84507 0.0
H648 H 0.06816 0.06977 0.90415 0.0
C649 C 0.18591 0.12496 0.95178 0.0
C650 C 0.22296 0.04715 0.31931 0.0
C651 C 0.17945 0.04368 0.3046 0.0
H652 H 0.24939 0.00934 0.34433 0.0
C653 C 0.13045 0.01056 0.32276 0.0
H654 H 0.2617 0.07411 0.30776 0.0
C655 C 0.12345 0.97405 0.34555 0.0
C656 C 0.16502 0.96993 0.34877 0.0
H657 H 0.09622 0.00812 0.31383 0.0
H658 H 0.08418 0.94536 0.35431 0.0
C659 C 0.21577 0.00981 0.34068 0.0
C660 C 0.38861 0.85081 0.43737 0.0
C661 C 0.40658 0.89835 0.44007 0.0
H662 H 0.34268 0.78449 0.40342 0.0
C663 C 0.39228 0.91589 0.40905 0.0
H664 H 0.39943 0.83646 0.46071 0.0
C665 C 0.35937 0.88599 0.37641 0.0
C666 C 0.34093 0.83829 0.37401 0.0
H667 H 0.40564 0.95243 0.41044 0.0
H668 H 0.34834 0.90022 0.35314 0.0
C669 C 0.35633 0.8211 0.40447 0.0
C670 C 0.36378 0.04904 0.61469 0.0
C671 C 0.39832 0.09815 0.62088 0.0
H672 H 0.35169 0.98671 0.58541 0.0
C673 C 0.44343 0.12318 0.59533 0.0
H674 H 0.32857 0.02887 0.63384 0.0
C675 C 0.45676 0.09908 0.56753 0.0
C676 C 0.42531 0.04953 0.56515 0.0
H677 H 0.47003 0.16121 0.59879 0.0
H678 H 0.49368 0.11921 0.55053 0.0
C679 C 0.37714 0.02488 0.58695 0.0
C680 C 0.23719 0.86337 0.65808 0.0
C681 C 0.19925 0.87046 0.67345 0.0
H682 H 0.28313 0.83751 0.66947 0.0
C683 C 0.18019 0.85657 0.71524 0.0
H684 H 0.25284 0.87278 0.62613 0.0
C685 C 0.19779 0.83621 0.74028 0.0
C686 C 0.23513 0.82853 0.7247 0.0
H687 H 0.15171 0.86173 0.72903 0.0
H688 H 0.18144 0.82597 0.77195 0.0
C689 C 0.2546 0.84273 0.68308 0.0
C690 C 0.43412 0.86989 0.87925 0.0
C691 C 0.39391 0.87176 0.86474 0.0
H692 H 0.49297 0.89438 0.92587 0.0
C693 C 0.38595 0.9043 0.88471 0.0
H694 H 0.44078 0.84475 0.86499 0.0
C695 C 0.41598 0.93291 0.91938 0.0
C696 C 0.45406 0.92904 0.93562 0.0
H697 H 0.35511 0.90645 0.87448 0.0
H698 H 0.40767 0.95656 0.93462 0.0
C699 C 0.46355 0.89791 0.91454 0.0
C700 C 0.31884 0.15111 0.14452 0.0
C701 C 0.34682 0.13681 0.16383 0.0
H702 H 0.27378 0.1794 0.15294 0.0
C703 C 0.34872 0.13971 0.20851 0.0
H704 H 0.31689 0.15017 0.11029 0.0
C705 C 0.32419 0.15679 0.23294 0.0
C706 C 0.29629 0.17106 0.21366 0.0
H707 H 0.36901 0.12852 0.22484 0.0
H708 H 0.32704 0.15868 0.26718 0.0
C709 C 0.29405 0.16802 0.16904 0.0
C710 C 0.07424 0.0709 0.40319 0.0
C711 C 0.10305 0.06803 0.43453 0.0
H712 H 0.07559 0.10418 0.34691 0.0
C713 C 0.15744 0.09533 0.4291 0.0
H714 H 0.0322 0.0503 0.40576 0.0
C715 C 0.18217 0.12664 0.39549 0.0
C716 C 0.1536 0.13132 0.36546 0.0
H717 H 0.18123 0.0944 0.45209 0.0
H718 H 0.22432 0.14857 0.3938 0.0
C719 C 0.09904 0.10169 0.36903 0.0
C720 C 0.96409 0.1432 0.07747 0.0
C721 C 0.96202 0.15135 0.12158 0.0
H722 H 0.98084 0.10921 1.02734 0.0
C723 C 0.97648 0.13054 0.14904 0.0
H724 H 0.95416 0.1592 0.05521 0.0
C725 C 0.9927 0.10269 0.13298 0.0
C726 C 0.99431 0.09422 0.08898 0.0
H727 H 0.97473 0.13524 0.18314 0.0
H728 H 1.00335 0.08726 0.15527 0.0
C729 C 0.97971 0.11474 0.06139 0.0
C730 C 0.12481 0.6444 0.45291 0.0
C731 C 0.1194 0.60148 0.45347 0.0
H732 H 0.14928 0.70489 0.41793 0.0
C733 C 0.13624 0.58718 0.41794 0.0
H734 H 0.11218 0.65642 0.47975 0.0
C735 C 0.15713 0.61483 0.38226 0.0
C736 C 0.1618 0.65742 0.3815 0.0
H737 H 0.13238 0.55418 0.41728 0.0
H738 H 0.16931 0.60263 0.35524 0.0
C739 C 0.14581 0.67208 0.41733 0.0
C740 C 0.54929 0.81165 0.64749 0.0
C741 C 0.52496 0.82183 0.68023 0.0
H742 H 0.59829 0.78891 0.63123 0.0
C743 C 0.53478 0.8194 0.72268 0.0
H744 H 0.54405 0.81454 0.61445 0.0
C745 C 0.56666 0.80564 0.73209 0.0
C746 C 0.58915 0.79383 0.69932 0.0
H747 H 0.51604 0.826 0.74879 0.0
H748 H 0.57224 0.8026 0.76503 0.0
C749 C 0.58065 0.7973 0.65697 0.0
C750 C 0.38818 0.36766 0.96158 0.0
C751 C 0.44202 0.38934 0.96236 0.0
H752 H 0.31743 0.32119 0.92856 0.0
C753 C 0.4654 0.37729 0.93048 0.0
H754 H 0.36885 0.37569 0.98601 0.0
C755 C 0.43562 0.34578 0.89713 0.0
C756 C 0.38219 0.32596 0.89542 0.0
H757 H 0.50686 0.39346 0.9304 0.0
H758 H 0.45474 0.3382 0.87211 0.0
C759 C 0.35863 0.33635 0.92853 0.0
C760 C 0.84558 0.86301 0.43208 0.0
C761 C 0.86493 0.85262 0.39565 0.0
H762 H 0.86078 0.89293 0.49521 0.0
C763 C 0.91554 0.86393 0.39566 0.0
H764 H 0.80652 0.85425 0.43316 0.0
C765 C 0.94644 0.88564 0.4313 0.0
C766 C 0.92735 0.89655 0.46757 0.0
H767 H 0.93148 0.8561 0.36813 0.0
H768 H 0.9856 0.89465 0.43004 0.0
C769 C 0.8765 0.88473 0.46777 0.0
C770 C 0.46008 0.59521 0.57226 0.0
C771 C 0.48651 0.58465 0.59851 0.0
H772 H 0.42174 0.62883 0.56663 0.0
C773 C 0.49105 0.59857 0.64174 0.0
H774 H 0.45626 0.58542 0.53871 0.0
C775 C 0.46939 0.62193 0.65842 0.0
C776 C 0.44372 0.63371 0.63223 0.0
H777 H 0.51073 0.59065 0.66306 0.0
H778 H 0.47262 0.63017 0.69218 0.0
C779 C 0.43975 0.61995 0.58865 0.0
C780 C 0.65307 0.14 0.95398 0.0
C781 C 0.63685 0.09316 0.95452 0.0
H782 H 0.69403 0.20387 0.92101 0.0
C783 C 0.65212 0.07521 0.92062 0.0
H784 H 0.64237 0.15509 0.97956 0.0
C785 C 0.68191 0.10337 0.88638 0.0
C786 C 0.69717 0.15 0.88565 0.0
H787 H 0.64011 0.0391 0.92002 0.0
H788 H 0.6923 0.08848 0.86037 0.0
C789 C 0.6829 0.16802 0.92018 0.0
C790 C 0.10943 0.41453 0.10739 0.0
C791 C 0.06367 0.39534 0.08442 0.0
H792 H 0.1558 0.40145 0.14334 0.0
C793 C 1.02795 0.34596 0.0817 0.0
H794 H 0.13761 0.45242 0.1103 0.0
C795 C 0.03854 0.31653 0.10023 0.0
C796 C 0.0847 0.33558 0.12294 0.0
H797 H 0.99209 0.33001 0.06457 0.0
H798 H 1.01021 0.27872 0.09706 0.0
C799 C 0.11968 0.38518 0.12654 0.0
C800 C 0.69718 0.60681 0.96558 0.0
C801 C 0.64422 0.57906 0.95523 0.0
H802 H 0.77485 0.66251 0.94722 0.0
C803 C 0.62989 0.58332 0.91512 0.0
H804 H 0.70951 0.60432 0.99614 0.0
C805 C 0.66741 0.61618 0.88677 0.0
C806 C 0.71992 0.64608 0.89829 0.0
H807 H 0.58942 0.56206 0.906 0.0
H808 H 0.65489 0.61973 0.85676 0.0
C809 C 0.73457 0.64025 0.93756 0.0
C810 C 0.74207 0.32409 0.18022 0.0
C811 C 0.73549 0.32014 0.22456 0.0
H812 H 0.72561 0.34347 0.12321 0.0
C813 C 0.70615 0.33488 0.24504 0.0
H814 H 0.76384 0.31285 0.16301 0.0
C815 C 0.68445 0.35302 0.22222 0.0
C816 C 0.69055 0.35675 0.17774 0.0
H817 H 0.69963 0.3323 0.27907 0.0
H818 H 0.66179 0.36312 0.23965 0.0
C819 C 0.71957 0.34152 0.15724 0.0
C820 C 0.96415 0.3939 0.41775 0.0
C821 C 0.95255 0.42456 0.4361 0.0
H822 H 0.94686 0.3419 0.36858 0.0
C823 C 0.91554 0.42784 0.41686 0.0
H824 H 0.99291 0.39101 0.43164 0.0
C825 C 0.88916 0.39973 0.38102 0.0
C826 C 0.89981 0.36828 0.36321 0.0
H827 H 0.90579 0.45121 0.43016 0.0
H828 H 0.85955 0.40188 0.36781 0.0
C829 C 0.93827 0.36624 0.38138 0.0
C830 C 0.68841 0.64259 0.46012 0.0
C831 C 0.6342 0.61825 0.46478 0.0
H832 H 0.75683 0.69162 0.42453 0.0
C833 C 0.60745 0.62702 0.43698 0.0
H834 H 0.71023 0.63674 0.48104 0.0
C835 C 0.63435 0.65882 0.40459 0.0
C836 C 0.68835 0.68203 0.39922 0.0
H837 H 0.5657 0.60896 0.4399 0.0
H838 H 0.61265 0.66439 0.38324 0.0
C839 C 0.71515 0.67398 0.4276 0.0
C840 C 0.91362 0.32526 0.8904 0.0
C841 C 0.8941 0.34079 0.86198 0.0
H842 H 0.96394 0.34367 0.9424 0.0
C843 C 0.91489 0.38896 0.86156 0.0
H844 H 0.89834 0.28833 0.89144 0.0
C845 C 0.95362 0.42088 0.89018 0.0
C846 C 0.97088 0.40461 0.91993 0.0
H847 H 0.9007 0.40177 0.83968 0.0
H848 H 0.96786 0.45764 0.89064 0.0
C849 C 0.95126 0.35683 0.91943 0.0
C850 C 0.90427 0.85362 0.18874 0.0
C851 C 0.8635 0.85721 0.20214 0.0
H852 H 0.97246 0.8809 0.1491 0.0
C853 C 0.86067 0.89217 0.1858 0.0
H854 H 0.90755 0.8272 0.20133 0.0
C855 C 0.89705 0.92205 0.1554 0.0
C856 C 0.93769 0.91837 0.14192 0.0
H857 H 0.82972 0.89569 0.19578 0.0
H858 H 0.89349 0.94815 0.14243 0.0
C859 C 0.9416 0.88448 0.15927 0.0
C860 C 0.79461 0.96614 0.76647 0.0
C861 C 0.8357 0.00864 0.74898 0.0
H862 H 0.7734 0.91394 0.81147 0.0
C863 C 0.88689 0.02162 0.75224 0.0
H864 H 0.75458 0.95402 0.76309 0.0
C865 C 0.89743 0.99786 0.77908 0.0
C866 C 0.85702 0.96121 0.80303 0.0
H867 H 0.91972 0.05372 0.73888 0.0
H868 H 0.93764 0.0121 0.78518 0.0
C869 C 0.80527 0.94297 0.79399 0.0
C870 C 0.60879 0.11567 0.70433 0.0
C871 C 0.66287 0.14179 0.69782 0.0
H872 H 0.53364 0.06263 0.67911 0.0
C873 C 0.68268 0.13454 0.65969 0.0
H874 H 0.59248 0.12047 0.73342 0.0
C875 C 0.64937 0.10176 0.62883 0.0
C876 C 0.59537 0.07521 0.63535 0.0
H877 H 0.72419 0.15422 0.65345 0.0
H878 H 0.66612 0.09719 0.5999 0.0
C879 C 0.57525 0.08246 0.67334 0.0
C880 C 0.54738 0.87238 0.51143 0.0
C881 C 0.57734 0.92093 0.5215 0.0
H882 H 0.54267 0.81705 0.47335 0.0
C883 C 0.62987 0.94922 0.50894 0.0
H884 H 0.50649 0.85019 0.52033 0.0
C885 C 0.65051 0.9305 0.48222 0.0
C886 C 0.61864 0.88334 0.46728 0.0
H887 H 0.65343 0.98686 0.51619 0.0
H888 H 0.69001 0.95393 0.47022 0.0
C889 C 0.56799 0.85358 0.48432 0.0
C890 C 0.81187 0.16584 0.4106 0.0
C891 C 0.83158 0.17912 0.36888 0.0
H892 H 0.81166 0.13537 0.46798 0.0
C893 C 0.86857 0.17068 0.35413 0.0
H894 H 0.78343 0.17149 0.42355 0.0
C895 C 0.88534 0.15019 0.37995 0.0
C896 C 0.86598 0.13715 0.42184 0.0
H897 H 0.8853 0.18045 0.32249 0.0
H898 H 0.91451 0.14549 0.36708 0.0
C899 C 0.82865 0.14531 0.43647 0.0
C900 C 0.62559 0.12721 0.22374 0.0
C901 C 0.67134 0.13128 0.23264 0.0
H902 H 0.56141 0.09866 0.18163 0.0
C903 C 0.68398 0.10457 0.20715 0.0
H904 H 0.61488 0.14756 0.24234 0.0
C905 C 0.65399 0.07725 0.17208 0.0
C906 C 0.61013 0.07546 0.16146 0.0
H907 H 0.71875 0.10652 0.21303 0.0
H908 H 0.66623 0.05862 0.15255 0.0
C909 C 0.59526 0.09953 0.18857 0.0
C910 C 0.74471 0.84797 0.88337 0.0
C911 C 0.77596 0.83802 0.90372 0.0
H912 H 0.69701 0.87324 0.88864 0.0
C913 C 0.78165 0.84637 0.94792 0.0
H914 H 0.73902 0.84173 0.84942 0.0
C915 C 0.75642 0.86402 0.97094 0.0
C916 C 0.72465 0.87349 0.95034 0.0
H917 H 0.80437 0.83814 0.9648 0.0
H918 H 0.76084 0.86914 1.00503 0.0
C919 C 0.71993 0.86564 0.90607 0.0
C920 C 0.91072 0.9232 0.68589 0.0
C921 C 0.95547 0.9294 0.66667 0.0
H922 H 0.8521 0.89106 0.7354 0.0
C923 C 0.97757 0.9099 0.68696 0.0
H924 H 0.8924 0.93755 0.67164 0.0
C925 C 0.95518 0.88416 0.72417 0.0
C926 C 0.90915 0.87603 0.74231 0.0
H927 H 1.01224 0.91402 0.67374 0.0
H928 H 0.97296 0.86894 0.73771 0.0
C929 C 0.88761 0.89647 0.72271 0.0
C930 C 0.13884 0.90872 0.95589 0.0
C931 C 0.10597 0.85966 0.96013 0.0
H932 H 0.15147 0.97536 0.97066 0.0
C933 C 0.05828 0.84002 0.98222 0.0
H934 H 0.17603 0.92493 0.93942 0.0
C935 C 0.04363 0.86884 0.9994 0.0
C936 C 0.07718 0.91804 0.99602 0.0
H937 H 0.03233 0.80235 0.98616 0.0
H938 H 1.00665 0.85273 1.01619 0.0
C939 C 0.1249 0.9376 0.97404 0.0
C940 C 0.94747 0.3864 0.65729 0.0
C941 C 0.9283 0.40529 0.63265 0.0
H942 H 0.93196 0.33974 0.70596 0.0
C943 C 0.87661 0.39066 0.63908 0.0
H944 H 0.98709 0.39688 0.65316 0.0
C945 C 0.8448 0.35779 0.66971 0.0
C946 C 0.86409 0.33884 0.69421 0.0
H947 H 0.86077 0.40473 0.62066 0.0
H948 H 0.80512 0.34711 0.67398 0.0
C949 C 0.91575 0.35352 0.68762 0.0
C950 C 0.56567 0.23194 0.36296 0.0
C951 C 0.56155 0.21854 0.40496 0.0
H952 H 0.55176 0.26868 0.32005 0.0
C953 C 0.54177 0.23438 0.43666 0.0
H954 H 0.58204 0.2214 0.33797 0.0
C955 C 0.52494 0.26166 0.42648 0.0
C956 C 0.52714 0.27354 0.38428 0.0
H957 H 0.53699 0.22401 0.46919 0.0
H958 H 0.50717 0.27084 0.4514 0.0
C959 C 0.54898 0.25951 0.35277 0.0
C960 C 0.61801 0.64509 0.14095 0.0
C961 C 0.61078 0.60126 0.14048 0.0
H962 H 0.65204 0.71274 0.17273 0.0
C963 C 0.63221 0.59201 0.173 0.0
H964 H 0.6019 0.65324 0.11634 0.0
C965 C 0.66057 0.62577 0.20501 0.0
C966 C 0.66832 0.66975 0.20548 0.0
H967 H 0.62761 0.55875 0.17368 0.0
H968 H 0.67685 0.61731 0.22923 0.0
C969 C 0.64652 0.67908 0.17329 0.0
C970 C 0.17221 0.1811 0.66535 0.0
C971 C 0.21025 0.17616 0.68002 0.0
H972 H 0.10573 0.15164 0.6257 0.0
C973 C 0.21517 0.14161 0.66103 0.0
H974 H 0.16786 0.20781 0.67925 0.0
C975 C 0.18005 0.10998 0.63059 0.0
C976 C 0.13925 0.11222 0.61856 0.0
H977 H 0.24485 0.13773 0.67088 0.0
H978 H 0.18346 0.08232 0.61784 0.0
C979 C 0.13678 0.14919 0.63467 0.0
C980 C 0.64047 0.38291 0.51783 0.0
C981 C 0.65382 0.38498 0.47411 0.0
H982 H 0.61372 0.40718 0.56966 0.0
C983 C 0.6496 0.4153 0.4497 0.0
H984 H 0.64146 0.35954 0.53814 0.0
C985 C 0.63155 0.44116 0.46778 0.0
C986 C 0.61867 0.43907 0.51124 0.0
H987 H 0.6605 0.4197 0.41643 0.0
H988 H 0.62821 0.46338 0.44764 0.0
C989 C 0.62402 0.41011 0.53619 0.0
C990 C 0.37118 0.90058 0.13735 0.0
C991 C 0.42006 0.90787 0.13297 0.0
H992 H 0.29781 0.86611 0.17088 0.0
C993 C 0.4325 0.88617 0.16099 0.0
H994 H 0.36039 0.91704 0.11643 0.0
C995 C 0.39693 0.85753 0.19227 0.0
C996 C 0.34773 0.84954 0.19636 0.0
H997 H 0.46984 0.89132 0.15893 0.0
H998 H 0.40811 0.84126 0.21305 0.0
C999 C 0.33536 0.87168 0.16875 0.0
C1000 C 0.95858 0.57631 0.98791 0.0
C1001 C 1.00689 0.58349 0.97932 0.0
H1002 H 0.9105 0.60075 0.98232 0.0
C1003 C 0.04408 0.62307 0.95592 0.0
H1004 H 0.92874 0.54617 1.00545 0.0
C1005 C 0.0334 0.65431 0.94186 0.0
C1006 C 0.98581 0.6484 0.95176 0.0
H1007 H 0.08156 0.62981 0.948 0.0
H1008 H 0.06312 0.68345 0.92348 0.0
C1009 C 0.94834 0.60822 0.97476 0.0
C1010 C 0.36726 0.40234 0.14325 0.0
C1011 C 0.4188 0.41563 0.14129 0.0
H1012 H 0.29145 0.35857 0.17292 0.0
C1013 C 0.4342 0.39721 0.17047 0.0
H1014 H 0.35429 0.41595 0.12107 0.0
C1015 C 0.39885 0.36493 0.19971 0.0
C1016 C 0.34671 0.34976 0.20076 0.0
H1017 H 0.47377 0.40721 0.17037 0.0
H1018 H 0.41255 0.35123 0.22107 0.0
C1019 C 0.33132 0.36943 0.17276 0.0
C1020 C 0.37138 0.65005 0.87699 0.0
C1021 C 0.3606 0.64216 0.92067 0.0
H1022 H 0.36182 0.67494 0.8206 0.0
C1023 C 0.32991 0.65585 0.94068 0.0
H1024 H 0.39587 0.64167 0.86011 0.0
C1025 C 0.30967 0.67533 0.91741 0.0
C1026 C 0.32055 0.68276 0.87361 0.0
H1027 H 0.32067 0.65079 0.97424 0.0
H1028 H 0.28631 0.68525 0.93387 0.0
C1029 C 0.35186 0.66975 0.8541 0.0
C1030 C 0.15073 0.58976 0.66723 0.0
C1031 C 0.10587 0.58636 0.65667 0.0
H1032 H 0.21375 0.61819 0.7098 0.0
C1033 C 0.08852 0.60804 0.68411 0.0
H1034 H 0.16484 0.57295 0.64723 0.0
C1035 C 0.11685 0.63426 0.72037 0.0
C1036 C 0.16276 0.63892 0.73001 0.0
H1037 H 0.05387 0.6058 0.67703 0.0
H1038 H 0.10366 0.65203 0.74004 0.0
C1039 C 0.17863 0.61548 0.70346 0.0
C1040 C 0.38226 0.37627 0.6866 0.0
C1041 C 0.39632 0.35117 0.70795 0.0
H1042 H 0.40407 0.42699 0.63972 0.0
C1043 C 0.44543 0.36007 0.6999 0.0
H1044 H 0.3445 0.36979 0.6922 0.0
C1045 C 0.47998 0.39357 0.67074 0.0
C1046 C 0.46513 0.41741 0.6483 0.0
H1047 H 0.45709 0.34115 0.71621 0.0
H1048 H 0.51757 0.39979 0.66481 0.0
C1049 C 0.41612 0.40865 0.65651 0.0
C1050 C 0.17574 0.64457 0.15635 0.0
C1051 C 0.14873 0.65479 0.18591 0.0
H1052 H 0.17162 0.60031 0.1054 0.0
C1053 C 0.09399 0.62702 0.18534 0.0
H1054 H 0.21787 0.66519 0.15575 0.0
C1055 C 0.06688 0.58916 0.15571 0.0
C1056 C 0.09439 0.57853 0.12699 0.0
H1057 H 0.07227 0.63421 0.2079 0.0
H1058 H 1.02475 0.568 0.15565 0.0
C1059 C 0.149 0.60689 0.12752 0.0
C1060 C 0.71633 0.49894 0.83485 0.0
C1061 C 0.74789 0.48318 0.82504 0.0
H1062 H 0.6911 0.54022 0.81542 0.0
C1063 C 0.78854 0.50729 0.79505 0.0
H1064 H 0.68543 0.48169 0.85852 0.0
C1065 C 0.79191 0.54083 0.77046 0.0
C1066 C 0.75499 0.55108 0.7756 0.0
H1067 H 0.81378 0.49632 0.78671 0.0
H1068 H 0.81986 0.55474 0.74444 0.0
C1069 C 0.71984 0.53273 0.81024 0.0
C1070 C 0.77606 0.55495 0.12706 0.0
C1071 C 0.82562 0.59799 0.12844 0.0
H1072 H 0.73244 0.48211 0.10693 0.0
C1073 C 0.86605 0.6034 0.10273 0.0
H1074 H 0.74431 0.54998 0.14681 0.0
C1075 C 0.8586 0.5647 0.07968 0.0
C1076 C 0.81088 0.52027 0.08257 0.0
H1077 H 0.90446 0.63643 0.10324 0.0
H1078 H 0.89177 0.56844 0.06356 0.0
C1079 C 0.76898 0.51618 0.1044 0.0
C1080 C 0.85957 0.66577 0.67137 0.0
C1081 C 0.8831 0.64436 0.68363 0.0
H1082 H 0.82887 0.7045 0.69062 0.0
C1083 C 0.89518 0.64713 0.72654 0.0
H1084 H 0.85097 0.66528 0.63843 0.0
C1085 C 0.88246 0.66987 0.75687 0.0
C1086 C 0.85835 0.69072 0.7444 0.0
H1087 H 0.91334 0.63083 0.73681 0.0
H1088 H 0.8915 0.67113 0.78984 0.0
C1089 C 0.84731 0.68863 0.70137 0.0
C1090 C 0.32549 0.52113 0.41568 0.0
C1091 C 0.31417 0.47852 0.3972 0.0
H1092 H 0.32671 0.58215 0.40843 0.0
C1093 C 0.28844 0.46209 0.35813 0.0
H1094 H 0.34607 0.53546 0.44533 0.0
C1095 C 0.27791 0.4895 0.3366 0.0
C1096 C 0.29251 0.53349 0.35403 0.0
H1097 H 0.27834 0.42903 0.34337 0.0
H1098 H 0.26018 0.47718 0.30567 0.0
C1099 C 0.31451 0.54814 0.39444 0.0
C1100 C 0.18551 0.37411 1.01377 0.0
C1101 C 0.21914 0.36841 0.98834 0.0
H1102 H 0.17558 0.42376 1.04546 0.0
C1103 C 0.27297 0.40383 0.98929 0.0
H1104 H 0.14391 0.34712 1.0135 0.0
C1105 C 0.29133 0.44812 1.00788 0.0
C1106 C 0.25577 0.45663 1.02566 0.0
H1107 H 0.29964 0.39993 0.96993 0.0
H1108 H 0.3315 0.47717 1.00234 0.0
C1109 C 0.20394 0.41812 1.03264 0.0
C1110 C 0.16345 0.3274 0.3449 0.0
C1111 C 0.20222 0.32191 0.35559 0.0
H1112 H 0.12028 0.35551 0.36419 0.0
C1113 C 0.22563 0.33851 0.39538 0.0
H1114 H 0.14489 0.31467 0.3143 0.0
C1115 C 0.21063 0.36035 0.4242 0.0
C1116 C 0.17295 0.3673 0.4134 0.0
H1117 H 0.25498 0.33383 0.4046 0.0
H1118 H 0.22841 0.3715 0.45513 0.0
C1119 C 0.14928 0.35046 0.37348 0.0
loop_
_geom_bond_atom_site_label_1
_geom_bond_atom_site_label_2
_geom_bond_distance
_geom_bond_site_symmetry_2
_ccdc_geom_bond_type
Tb0 C10 2.825 . S
Tb0 O11 2.347 1_566 S
Tb0 O14 2.366 1_665 S
Tb0 O19 2.418 . S
Tb0 O20 2.384 1_556 S
Tb0 O23 2.479 . S
Tb0 O24 2.471 1_565 S
Eu1 O12 2.418 . S
Eu1 O13 2.384 1_554 S
Eu1 O16 2.479 . S
Eu1 O17 2.471 1_545 S
Eu1 O18 2.347 1_544 S
Eu1 O21 2.366 1_445 S
Eu1 C31 2.825 . S
C2 O18 1.258 . S
C2 O19 1.257 1_455 S
C3 O20 1.255 . S
C3 O21 1.265 . S
C4 C6 1.380 1_545 S
C4 C7 1.374 . S
C4 C10 1.507 1_545 S
C5 C6 1.398 . S
C5 C9 1.370 1_565 S
C5 H32 0.934 . S
C6 C4 1.380 1_565 S
C6 C5 1.398 . S
C6 H33 0.931 . S
C7 C4 1.374 . S
C7 C8 1.390 . S
C7 H34 0.930 . S
C8 C7 1.390 . S
C8 C9 1.391 . S
C8 H35 0.930 . S
C9 C5 1.370 1_545 S
C9 C8 1.391 . S
C10 Tb0 2.825 . S
C10 C4 1.507 1_565 S
C10 O23 1.238 . S
C10 O24 1.247 1_565 S
O11 Tb0 2.347 1_544 S
O11 C15 1.259 1_655 S
O12 Eu1 2.418 . S
O12 C15 1.264 . S
O13 Eu1 2.384 1_556 S
O13 C22 1.255 . S
O14 Tb0 2.366 1_445 S
O14 C22 1.265 . S
C15 O11 1.259 1_455 S
C15 O12 1.264 . S
O16 Eu1 2.479 . S
O16 C31 1.238 . S
O17 Eu1 2.471 1_565 S
O17 C31 1.247 1_565 S
O18 Eu1 2.347 1_566 S
O18 C2 1.258 . S
O19 Tb0 2.418 . S
O19 C2 1.257 1_655 S
O20 Tb0 2.384 1_554 S
O20 C3 1.255 . S
O21 Eu1 2.366 1_665 S
O21 C3 1.265 . S
C22 O13 1.255 . S
C22 O14 1.265 . S
O23 Tb0 2.479 . S
O23 C10 1.238 . S
O24 Tb0 2.471 1_545 S
O24 C10 1.247 1_545 S
C25 C28 1.380 1_565 S
C25 C29 1.374 . S
C25 C31 1.507 1_565 S
C26 C27 1.387 1_565 S
C26 C30 1.391 . S
C27 C26 1.387 1_545 S
C27 C28 1.384 . S
C27 H36 0.930 . S
C28 C25 1.380 1_545 S
C28 C27 1.384 . S
C28 H37 0.931 . S
C29 C25 1.374 . S
C29 C30 1.390 . S
C29 H38 0.930 . S
C30 C26 1.391 . S
C30 C29 1.390 . S
C30 H39 0.930 . S
C31 Eu1 2.825 . S
C31 O16 1.238 . S
C31 O17 1.247 1_545 S
C31 C25 1.507 1_545 S
H32 C5 0.934 . S
H33 C6 0.931 . S
H34 C7 0.930 . S
H35 C8 0.930 . S
H36 C27 0.930 . S
H37 C28 0.931 . S
H38 C29 0.930 . S
H39 C30 0.930 . S
Tb40 C50 2.825 . S
Tb40 O51 2.347 . S
Tb40 O54 2.366 . S
Tb40 O59 2.418 . S
Tb40 O60 2.384 . S
Tb40 O63 2.479 . S
Tb40 O64 2.471 . S
Eu41 O52 2.418 . S
Eu41 O53 2.384 . S
Eu41 O56 2.479 . S
Eu41 O57 2.471 . S
Eu41 O58 2.347 . S
Eu41 O61 2.366 . S
Eu41 C71 2.825 . S
C42 O58 1.259 . S
C42 O59 1.265 . S
C43 O60 1.255 . S
C43 O61 1.265 . S
C44 C46 1.380 . S
C44 C47 1.374 . S
C44 C50 1.507 . S
C45 C46 1.384 . S
C45 C49 1.387 . S
C45 H72 0.930 . S
C46 C44 1.380 . S
C46 C45 1.384 . S
C46 H73 0.931 . S
C47 C44 1.374 . S
C47 C48 1.390 . S
C47 H74 0.930 . S
C48 C47 1.390 . S
C48 C49 1.391 . S
C48 H75 0.930 . S
C49 C45 1.387 . S
C49 C48 1.391 . S
C50 Tb40 2.825 . S
C50 C44 1.507 . S
C50 O63 1.238 . S
C50 O64 1.247 . S
O51 Tb40 2.347 . S
O51 C55 1.259 . S
O52 Eu41 2.418 . S
O52 C55 1.265 . S
O53 Eu41 2.384 . S
O53 C62 1.255 . S
O54 Tb40 2.366 . S
O54 C62 1.265 . S
C55 O51 1.259 . S
C55 O52 1.265 . S
O56 Eu41 2.479 . S
O56 C71 1.238 . S
O57 Eu41 2.471 . S
O57 C71 1.247 . S
O58 Eu41 2.347 . S
O58 C42 1.259 . S
O59 Tb40 2.418 . S
O59 C42 1.265 . S
O60 Tb40 2.384 . S
O60 C43 1.255 . S
O61 Eu41 2.366 . S
O61 C43 1.265 . S
C62 O53 1.255 . S
C62 O54 1.265 . S
O63 Tb40 2.479 . S
O63 C50 1.238 . S
O64 Tb40 2.471 . S
O64 C50 1.247 . S
C65 C68 1.380 . S
C65 C69 1.374 . S
C65 C71 1.507 . S
C66 C67 1.387 . S
C66 C70 1.391 . S
C67 C66 1.387 . S
C67 C68 1.384 . S
C67 H76 0.930 . S
C68 C65 1.380 . S
C68 C67 1.384 . S
C68 H77 0.931 . S
C69 C65 1.374 . S
C69 C70 1.390 . S
C69 H78 0.930 . S
C70 C66 1.391 . S
C70 C69 1.390 . S
C70 H79 0.930 . S
C71 Eu41 2.825 . S
C71 O56 1.238 . S
C71 O57 1.247 . S
C71 C65 1.507 . S
H72 C45 0.930 . S
H73 C46 0.931 . S
H74 C47 0.930 . S
H75 C48 0.930 . S
H76 C67 0.930 . S
H77 C68 0.931 . S
H78 C69 0.930 . S
H79 C70 0.930 . S
Tb80 C90 2.825 . S
Tb80 O91 2.347 1_545 S
Tb80 O94 2.366 . S
Tb80 O99 2.418 . S
Tb80 O100 2.384 . S
Tb80 O103 2.479 . S
Tb80 O104 2.471 . S
Eu81 O92 2.418 . S
Eu81 O93 2.384 . S
Eu81 O96 2.479 . S
Eu81 O97 2.471 . S
Eu81 O98 2.347 1_565 S
Eu81 O101 2.366 . S
Eu81 C111 2.825 . S
C82 O98 1.259 . S
C82 O99 1.265 . S
C83 O100 1.255 1_565 S
C83 O101 1.265 . S
C84 C86 1.380 . S
C84 C87 1.374 . S
C84 C90 1.507 . S
C85 C86 1.384 . S
C85 C89 1.387 . S
C85 H112 0.930 . S
C86 C84 1.380 . S
C86 C85 1.384 . S
C86 H113 0.931 . S
C87 C84 1.374 . S
C87 C88 1.390 . S
C87 H114 0.930 . S
C88 C87 1.390 . S
C88 C89 1.391 . S
C88 H115 0.930 . S
C89 C85 1.387 . S
C89 C88 1.391 . S
C90 Tb80 2.825 . S
C90 C84 1.507 . S
C90 O103 1.238 . S
C90 O104 1.247 . S
O91 Tb80 2.347 1_565 S
O91 C95 1.259 . S
O92 Eu81 2.418 . S
O92 C95 1.265 . S
O93 Eu81 2.384 . S
O93 C102 1.255 1_565 S
O94 Tb80 2.366 . S
O94 C102 1.265 . S
C95 O91 1.259 . S
C95 O92 1.265 . S
O96 Eu81 2.479 . S
O96 C111 1.238 . S
O97 Eu81 2.471 . S
O97 C111 1.247 . S
O98 Eu81 2.347 1_545 S
O98 C82 1.259 . S
O99 Tb80 2.418 . S
O99 C82 1.265 . S
O100 Tb80 2.384 . S
O100 C83 1.255 1_545 S
O101 Eu81 2.366 . S
O101 C83 1.265 . S
C102 O93 1.255 1_545 S
C102 O94 1.265 . S
O103 Tb80 2.479 . S
O103 C90 1.238 . S
O104 Tb80 2.471 . S
O104 C90 1.247 . S
C105 C108 1.380 . S
C105 C109 1.374 . S
C105 C111 1.507 . S
C106 C107 1.387 . S
C106 C110 1.391 . S
C107 C106 1.387 . S
C107 C108 1.384 . S
C107 H116 0.930 . S
C108 C105 1.380 . S
C108 C107 1.384 . S
C108 H117 0.931 . S
C109 C105 1.374 . S
C109 C110 1.390 . S
C109 H118 0.930 . S
C110 C106 1.391 . S
C110 C109 1.390 . S
C110 H119 0.930 . S
C111 Eu81 2.825 . S
C111 O96 1.238 . S
C111 O97 1.247 . S
C111 C105 1.507 . S
H112 C85 0.930 . S
H113 C86 0.931 . S
H114 C87 0.930 . S
H115 C88 0.930 . S
H116 C107 0.930 . S
H117 C108 0.931 . S
H118 C109 0.930 . S
H119 C110 0.930 . S
Tb120 C130 2.825 . S
Tb120 O131 2.347 . S
Tb120 O134 2.366 . S
Tb120 O139 2.418 . S
Tb120 O140 2.384 . S
Tb120 O143 2.479 . S
Tb120 O144 2.471 . S
Eu121 O132 2.418 . S
Eu121 O133 2.384 . S
Eu121 O136 2.479 . S
Eu121 O137 2.471 . S
Eu121 O138 2.347 . S
Eu121 O141 2.366 . S
Eu121 C151 2.825 . S
C122 O138 1.259 . S
C122 O139 1.265 . S
C123 O140 1.255 . S
C123 O141 1.265 . S
C124 C126 1.380 . S
C124 C127 1.374 . S
C124 C130 1.507 . S
C125 C126 1.384 . S
C125 C129 1.387 . S
C125 H152 0.930 . S
C126 C124 1.380 . S
C126 C125 1.384 . S
C126 H153 0.931 . S
C127 C124 1.374 . S
C127 C128 1.390 . S
C127 H154 0.930 . S
C128 C127 1.390 . S
C128 C129 1.391 . S
C128 H155 0.930 . S
C129 C125 1.387 . S
C129 C128 1.391 . S
C130 Tb120 2.825 . S
C130 C124 1.507 . S
C130 O143 1.238 . S
C130 O144 1.247 . S
O131 Tb120 2.347 . S
O131 C135 1.259 . S
O132 Eu121 2.418 . S
O132 C135 1.265 . S
O133 Eu121 2.384 . S
O133 C142 1.255 . S
O134 Tb120 2.366 . S
O134 C142 1.265 . S
C135 O131 1.259 . S
C135 O132 1.265 . S
O136 Eu121 2.479 . S
O136 C151 1.238 . S
O137 Eu121 2.471 . S
O137 C151 1.247 . S
O138 Eu121 2.347 . S
O138 C122 1.259 . S
O139 Tb120 2.418 . S
O139 C122 1.265 . S
O140 Tb120 2.384 . S
O140 C123 1.255 . S
O141 Eu121 2.366 . S
O141 C123 1.265 . S
C142 O133 1.255 . S
C142 O134 1.265 . S
O143 Tb120 2.479 . S
O143 C130 1.238 . S
O144 Tb120 2.471 . S
O144 C130 1.247 . S
C145 C148 1.380 . S
C145 C149 1.374 . S
C145 C151 1.507 . S
C146 C147 1.387 . S
C146 C150 1.391 . S
C147 C146 1.387 . S
C147 C148 1.384 . S
C147 H156 0.930 . S
C148 C145 1.380 . S
C148 C147 1.384 . S
C148 H157 0.931 . S
C149 C145 1.374 . S
C149 C150 1.390 . S
C149 H158 0.930 . S
C150 C146 1.391 . S
C150 C149 1.390 . S
C150 H159 0.930 . S
C151 Eu121 2.825 . S
C151 O136 1.238 . S
C151 O137 1.247 . S
C151 C145 1.507 . S
H152 C125 0.930 . S
H153 C126 0.931 . S
H154 C127 0.930 . S
H155 C128 0.930 . S
H156 C147 0.930 . S
H157 C148 0.931 . S
H158 C149 0.930 . S
H159 C150 0.930 . S
Tb160 C170 2.825 . S
Tb160 O171 2.347 1_565 S
Tb160 O174 2.366 1_455 S
Tb160 O179 2.418 1_455 S
Tb160 O180 2.384 1_565 S
Tb160 O183 2.479 . S
Tb160 O184 2.471 . S
Eu161 O172 2.418 1_655 S
Eu161 O173 2.384 1_545 S
Eu161 O176 2.479 . S
Eu161 O177 2.471 . S
Eu161 O178 2.347 1_545 S
Eu161 O181 2.366 1_655 S
Eu161 C191 2.825 . S
C162 O178 1.259 . S
C162 O179 1.265 . S
C163 O180 1.255 . S
C163 O181 1.265 . S
C164 C166 1.380 . S
C164 C167 1.374 . S
C164 C170 1.507 . S
C165 C166 1.384 . S
C165 C169 1.387 . S
C165 H192 0.930 . S
C166 C164 1.380 . S
C166 C165 1.384 . S
C166 H193 0.931 . S
C167 C164 1.374 . S
C167 C168 1.390 . S
C167 H194 0.930 . S
C168 C167 1.390 . S
C168 C169 1.391 . S
C168 H195 0.930 . S
C169 C165 1.387 . S
C169 C168 1.391 . S
C170 Tb160 2.825 . S
C170 C164 1.507 . S
C170 O183 1.238 . S
C170 O184 1.247 . S
O171 Tb160 2.347 1_545 S
O171 C175 1.259 . S
O172 Eu161 2.418 1_455 S
O172 C175 1.265 . S
O173 Eu161 2.384 1_565 S
O173 C182 1.255 . S
O174 Tb160 2.366 1_655 S
O174 C182 1.265 . S
C175 O171 1.259 . S
C175 O172 1.265 . S
O176 Eu161 2.479 . S
O176 C191 1.238 . S
O177 Eu161 2.471 . S
O177 C191 1.247 . S
O178 Eu161 2.347 1_565 S
O178 C162 1.259 . S
O179 Tb160 2.418 1_655 S
O179 C162 1.265 . S
O180 Tb160 2.384 1_545 S
O180 C163 1.255 . S
O181 Eu161 2.366 1_455 S
O181 C163 1.265 . S
C182 O173 1.255 . S
C182 O174 1.265 . S
O183 Tb160 2.479 . S
O183 C170 1.238 . S
O184 Tb160 2.471 . S
O184 C170 1.247 . S
C185 C188 1.380 . S
C185 C189 1.374 . S
C185 C191 1.507 . S
C186 C187 1.387 . S
C186 C190 1.391 . S
C187 C186 1.387 . S
C187 C188 1.384 . S
C187 H196 0.930 . S
C188 C185 1.380 . S
C188 C187 1.384 . S
C188 H197 0.931 . S
C189 C185 1.374 . S
C189 C190 1.390 . S
C189 H198 0.930 . S
C190 C186 1.391 . S
C190 C189 1.390 . S
C190 H199 0.930 . S
C191 Eu161 2.825 . S
C191 O176 1.238 . S
C191 O177 1.247 . S
C191 C185 1.507 . S
H192 C165 0.930 . S
H193 C166 0.931 . S
H194 C167 0.930 . S
H195 C168 0.930 . S
H196 C187 0.930 . S
H197 C188 0.931 . S
H198 C189 0.930 . S
H199 C190 0.930 . S
Tb200 C210 2.825 . S
Tb200 O211 2.347 . S
Tb200 O214 2.366 . S
Tb200 O219 2.418 . S
Tb200 O220 2.384 . S
Tb200 O223 2.479 . S
Tb200 O224 2.471 . S
Eu201 O212 2.418 . S
Eu201 O213 2.384 . S
Eu201 O216 2.479 . S
Eu201 O217 2.471 . S
Eu201 O218 2.347 . S
Eu201 O221 2.366 . S
Eu201 C231 2.825 . S
C202 O218 1.259 . S
C202 O219 1.265 . S
C203 O220 1.255 . S
C203 O221 1.265 . S
C204 C206 1.380 . S
C204 C207 1.374 . S
C204 C210 1.507 . S
C205 C206 1.384 . S
C205 C209 1.387 . S
C205 H232 0.930 1_455 S
C206 C204 1.380 . S
C206 C205 1.384 . S
C206 H233 0.931 . S
C207 C204 1.374 . S
C207 C208 1.390 . S
C207 H234 0.930 . S
C208 C207 1.390 . S
C208 C209 1.391 . S
C208 H235 0.930 . S
C209 C205 1.387 . S
C209 C208 1.391 . S
C210 Tb200 2.825 . S
C210 C204 1.507 . S
C210 O223 1.238 . S
C210 O224 1.247 . S
O211 Tb200 2.347 . S
O211 C215 1.259 . S
O212 Eu201 2.418 . S
O212 C215 1.265 . S
O213 Eu201 2.384 . S
O213 C222 1.255 . S
O214 Tb200 2.366 . S
O214 C222 1.265 . S
C215 O211 1.259 . S
C215 O212 1.265 . S
O216 Eu201 2.479 . S
O216 C231 1.238 . S
O217 Eu201 2.471 . S
O217 C231 1.247 . S
O218 Eu201 2.347 . S
O218 C202 1.259 . S
O219 Tb200 2.418 . S
O219 C202 1.265 . S
O220 Tb200 2.384 . S
O220 C203 1.255 . S
O221 Eu201 2.366 . S
O221 C203 1.265 . S
C222 O213 1.255 . S
C222 O214 1.265 . S
O223 Tb200 2.479 . S
O223 C210 1.238 . S
O224 Tb200 2.471 . S
O224 C210 1.247 . S
C225 C228 1.380 . S
C225 C229 1.374 . S
C225 C231 1.507 . S
C226 C227 1.387 . S
C226 C230 1.391 . S
C227 C226 1.387 . S
C227 C228 1.384 . S
C227 H236 0.930 . S
C228 C225 1.380 . S
C228 C227 1.384 . S
C228 H237 0.931 . S
C229 C225 1.374 . S
C229 C230 1.390 . S
C229 H238 0.930 . S
C230 C226 1.391 . S
C230 C229 1.390 . S
C230 H239 0.930 . S
C231 Eu201 2.825 . S
C231 O216 1.238 . S
C231 O217 1.247 . S
C231 C225 1.507 . S
H232 C205 0.930 1_655 S
H233 C206 0.931 . S
H234 C207 0.930 . S
H235 C208 0.930 . S
H236 C227 0.930 . S
H237 C228 0.931 . S
H238 C229 0.930 . S
H239 C230 0.930 . S
Tb240 C250 2.825 1_554 S
Tb240 O251 2.347 1_554 S
Tb240 O254 2.366 1_564 S
Tb240 O259 2.418 1_565 S
Tb240 O260 2.384 . S
Tb240 O263 2.479 1_554 S
Tb240 O264 2.471 1_554 S
Eu241 O252 2.418 1_545 S
Eu241 O253 2.384 . S
Eu241 O256 2.479 1_556 S
Eu241 O257 2.471 1_556 S
Eu241 O258 2.347 1_556 S
Eu241 O261 2.366 1_546 S
Eu241 C271 2.825 1_556 S
C242 O258 1.259 . S
C242 O259 1.265 . S
C243 O260 1.255 . S
C243 O261 1.265 . S
C244 C246 1.380 . S
C244 C247 1.374 . S
C244 C250 1.507 . S
C245 C246 1.384 . S
C245 C249 1.387 . S
C245 H272 0.930 . S
C246 C244 1.380 . S
C246 C245 1.384 . S
C246 H273 0.931 . S
C247 C244 1.374 . S
C247 C248 1.390 . S
C247 H274 0.930 . S
C248 C247 1.390 . S
C248 C249 1.391 . S
C248 H275 0.930 . S
C249 C245 1.387 . S
C249 C248 1.391 . S
C250 Tb240 2.825 1_556 S
C250 C244 1.507 . S
C250 O263 1.238 . S
C250 O264 1.247 . S
O251 Tb240 2.347 1_556 S
O251 C255 1.259 . S
O252 Eu241 2.418 1_565 S
O252 C255 1.265 . S
O253 Eu241 2.384 . S
O253 C262 1.255 . S
O254 Tb240 2.366 1_546 S
O254 C262 1.265 . S
C255 O251 1.259 . S
C255 O252 1.265 . S
O256 Eu241 2.479 1_554 S
O256 C271 1.238 . S
O257 Eu241 2.471 1_554 S
O257 C271 1.247 . S
O258 Eu241 2.347 1_554 S
O258 C242 1.259 . S
O259 Tb240 2.418 1_545 S
O259 C242 1.265 . S
O260 Tb240 2.384 . S
O260 C243 1.255 . S
O261 Eu241 2.366 1_564 S
O261 C243 1.265 . S
C262 O253 1.255 . S
C262 O254 1.265 . S
O263 Tb240 2.479 1_556 S
O263 C250 1.238 . S
O264 Tb240 2.471 1_556 S
O264 C250 1.247 . S
C265 C268 1.380 . S
C265 C269 1.374 . S
C265 C271 1.507 . S
C266 C267 1.387 . S
C266 C270 1.391 . S
C267 C266 1.387 . S
C267 C268 1.384 . S
C267 H276 0.930 . S
C268 C265 1.380 . S
C268 C267 1.384 . S
C268 H277 0.931 . S
C269 C265 1.374 . S
C269 C270 1.390 . S
C269 H278 0.930 . S
C270 C266 1.391 . S
C270 C269 1.390 . S
C270 H279 0.930 . S
C271 Eu241 2.825 1_554 S
C271 O256 1.238 . S
C271 O257 1.247 . S
C271 C265 1.507 . S
H272 C245 0.930 . S
H273 C246 0.931 . S
H274 C247 0.930 . S
H275 C248 0.930 . S
H276 C267 0.930 . S
H277 C268 0.931 . S
H278 C269 0.930 . S
H279 C270 0.930 . S
Tb280 C290 2.825 . S
Tb280 O291 2.347 . S
Tb280 O294 2.366 . S
Tb280 O299 2.418 . S
Tb280 O300 2.384 . S
Tb280 O303 2.479 . S
Tb280 O304 2.471 . S
Eu281 O292 2.418 . S
Eu281 O293 2.384 . S
Eu281 O296 2.479 . S
Eu281 O297 2.471 . S
Eu281 O298 2.347 . S
Eu281 O301 2.366 . S
Eu281 C311 2.825 . S
C282 O298 1.259 . S
C282 O299 1.265 . S
C283 O300 1.255 . S
C283 O301 1.265 . S
C284 C286 1.380 . S
C284 C287 1.374 . S
C284 C290 1.507 . S
C285 C286 1.384 . S
C285 C289 1.387 . S
C285 H312 0.930 . S
C286 C284 1.380 . S
C286 C285 1.384 . S
C286 H313 0.931 . S
C287 C284 1.374 . S
C287 C288 1.390 . S
C287 H314 0.930 . S
C288 C287 1.390 . S
C288 C289 1.391 . S
C288 H315 0.930 . S
C289 C285 1.387 . S
C289 C288 1.391 . S
C290 Tb280 2.825 . S
C290 C284 1.507 . S
C290 O303 1.238 . S
C290 O304 1.247 . S
O291 Tb280 2.347 . S
O291 C295 1.259 . S
O292 Eu281 2.418 . S
O292 C295 1.265 . S
O293 Eu281 2.384 . S
O293 C302 1.255 . S
O294 Tb280 2.366 . S
O294 C302 1.265 . S
C295 O291 1.259 . S
C295 O292 1.265 . S
O296 Eu281 2.479 . S
O296 C311 1.238 . S
O297 Eu281 2.471 . S
O297 C311 1.247 . S
O298 Eu281 2.347 . S
O298 C282 1.259 . S
O299 Tb280 2.418 . S
O299 C282 1.265 . S
O300 Tb280 2.384 . S
O300 C283 1.255 . S
O301 Eu281 2.366 . S
O301 C283 1.265 . S
C302 O293 1.255 . S
C302 O294 1.265 . S
O303 Tb280 2.479 . S
O303 C290 1.238 . S
O304 Tb280 2.471 . S
O304 C290 1.247 . S
C305 C308 1.380 . S
C305 C309 1.374 . S
C305 C311 1.507 . S
C306 C307 1.387 . S
C306 C310 1.391 . S
C307 C306 1.387 . S
C307 C308 1.384 . S
C307 H316 0.930 . S
C308 C305 1.380 . S
C308 C307 1.384 . S
C308 H317 0.931 . S
C309 C305 1.374 . S
C309 C310 1.390 . S
C309 H318 0.930 . S
C310 C306 1.391 . S
C310 C309 1.390 . S
C310 H319 0.930 . S
C311 Eu281 2.825 . S
C311 O296 1.238 . S
C311 O297 1.247 . S
C311 C305 1.507 . S
H312 C285 0.930 . S
H313 C286 0.931 . S
H314 C287 0.930 . S
H315 C288 0.930 . S
H316 C307 0.930 . S
H317 C308 0.931 . S
H318 C309 0.930 . S
H319 C310 0.930 . S
Tb320 C330 2.825 1_556 S
Tb320 O331 2.347 1_556 S
Tb320 O334 2.366 1_556 S
Tb320 O339 2.418 . S
Tb320 O340 2.384 . S
Tb320 O343 2.479 1_556 S
Tb320 O344 2.471 1_556 S
Eu321 O332 2.418 . S
Eu321 O333 2.384 . S
Eu321 O336 2.479 1_554 S
Eu321 O337 2.471 1_554 S
Eu321 O338 2.347 1_554 S
Eu321 O341 2.366 1_554 S
Eu321 C351 2.825 1_554 S
C322 O338 1.259 . S
C322 O339 1.265 . S
C323 O340 1.255 . S
C323 O341 1.265 . S
C324 C326 1.380 . S
C324 C327 1.374 . S
C324 C330 1.507 . S
C325 C326 1.384 . S
C325 C329 1.387 . S
C325 H352 0.930 . S
C326 C324 1.380 . S
C326 C325 1.384 . S
C326 H353 0.931 . S
C327 C324 1.374 . S
C327 C328 1.390 . S
C327 H354 0.930 . S
C328 C327 1.390 . S
C328 C329 1.391 . S
C328 H355 0.930 . S
C329 C325 1.387 . S
C329 C328 1.391 . S
C330 Tb320 2.825 1_554 S
C330 C324 1.507 . S
C330 O343 1.238 . S
C330 O344 1.247 . S
O331 Tb320 2.347 1_554 S
O331 C335 1.259 . S
O332 Eu321 2.418 . S
O332 C335 1.265 . S
O333 Eu321 2.384 . S
O333 C342 1.255 . S
O334 Tb320 2.366 1_554 S
O334 C342 1.265 . S
C335 O331 1.259 . S
C335 O332 1.265 . S
O336 Eu321 2.479 1_556 S
O336 C351 1.238 . S
O337 Eu321 2.471 1_556 S
O337 C351 1.247 . S
O338 Eu321 2.347 1_556 S
O338 C322 1.259 . S
O339 Tb320 2.418 . S
O339 C322 1.265 . S
O340 Tb320 2.384 . S
O340 C323 1.255 . S
O341 Eu321 2.366 1_556 S
O341 C323 1.265 . S
C342 O333 1.255 . S
C342 O334 1.265 . S
O343 Tb320 2.479 1_554 S
O343 C330 1.238 . S
O344 Tb320 2.471 1_554 S
O344 C330 1.247 . S
C345 C348 1.380 . S
C345 C349 1.374 . S
C345 C351 1.507 . S
C346 C347 1.387 . S
C346 C350 1.391 . S
C347 C346 1.387 . S
C347 C348 1.384 . S
C347 H356 0.930 . S
C348 C345 1.380 . S
C348 C347 1.384 . S
C348 H357 0.931 . S
C349 C345 1.374 . S
C349 C350 1.390 . S
C349 H358 0.930 . S
C350 C346 1.391 . S
C350 C349 1.390 . S
C350 H359 0.930 . S
C351 Eu321 2.825 1_556 S
C351 O336 1.238 . S
C351 O337 1.247 . S
C351 C345 1.507 . S
H352 C325 0.930 . S
H353 C326 0.931 . S
H354 C327 0.930 . S
H355 C328 0.930 . S
H356 C347 0.930 . S
H357 C348 0.931 . S
H358 C349 0.930 . S
H359 C350 0.930 . S
Tb360 C370 2.825 . S
Tb360 O371 2.347 . S
Tb360 O374 2.366 . S
Tb360 O379 2.418 . S
Tb360 O380 2.384 . S
Tb360 O383 2.479 . S
Tb360 O384 2.471 . S
Eu361 O372 2.418 . S
Eu361 O373 2.384 . S
Eu361 O376 2.479 . S
Eu361 O377 2.471 . S
Eu361 O378 2.347 . S
Eu361 O381 2.366 . S
Eu361 C391 2.825 . S
C362 O378 1.259 . S
C362 O379 1.265 . S
C363 O380 1.255 . S
C363 O381 1.265 . S
C364 C366 1.380 . S
C364 C367 1.374 . S
C364 C370 1.507 . S
C365 C366 1.384 . S
C365 C369 1.387 . S
C365 H392 0.930 . S
C366 C364 1.380 . S
C366 C365 1.384 . S
C366 H393 0.931 . S
C367 C364 1.374 . S
C367 C368 1.390 . S
C367 H394 0.930 . S
C368 C367 1.390 . S
C368 C369 1.391 . S
C368 H395 0.930 . S
C369 C365 1.387 . S
C369 C368 1.391 . S
C370 Tb360 2.825 . S
C370 C364 1.507 . S
C370 O383 1.238 . S
C370 O384 1.247 . S
O371 Tb360 2.347 . S
O371 C375 1.259 . S
O372 Eu361 2.418 . S
O372 C375 1.265 . S
O373 Eu361 2.384 . S
O373 C382 1.255 . S
O374 Tb360 2.366 . S
O374 C382 1.265 . S
C375 O371 1.259 . S
C375 O372 1.265 . S
O376 Eu361 2.479 . S
O376 C391 1.238 . S
O377 Eu361 2.471 . S
O377 C391 1.247 . S
O378 Eu361 2.347 . S
O378 C362 1.259 . S
O379 Tb360 2.418 . S
O379 C362 1.265 . S
O380 Tb360 2.384 . S
O380 C363 1.255 . S
O381 Eu361 2.366 . S
O381 C363 1.265 . S
C382 O373 1.255 . S
C382 O374 1.265 . S
O383 Tb360 2.479 . S
O383 C370 1.238 . S
O384 Tb360 2.471 . S
O384 C370 1.247 . S
C385 C388 1.380 . S
C385 C389 1.374 . S
C385 C391 1.507 . S
C386 C387 1.387 . S
C386 C390 1.391 . S
C387 C386 1.387 . S
C387 C388 1.384 . S
C387 H396 0.930 1_655 S
C388 C385 1.380 . S
C388 C387 1.384 . S
C388 H397 0.931 . S
C389 C385 1.374 . S
C389 C390 1.390 . S
C389 H398 0.930 . S
C390 C386 1.391 . S
C390 C389 1.390 . S
C390 H399 0.930 . S
C391 Eu361 2.825 . S
C391 O376 1.238 . S
C391 O377 1.247 . S
C391 C385 1.507 . S
H392 C365 0.930 . S
H393 C366 0.931 . S
H394 C367 0.930 . S
H395 C368 0.930 . S
H396 C387 0.930 1_455 S
H397 C388 0.931 . S
H398 C389 0.930 . S
H399 C390 0.930 . S
Tb400 C410 2.825 . S
Tb400 O411 2.347 1_455 S
Tb400 O414 2.366 . S
Tb400 O419 2.418 . S
Tb400 O420 2.384 1_455 S
Tb400 O423 2.479 . S
Tb400 O424 2.471 . S
Eu401 O412 2.418 . S
Eu401 O413 2.384 1_655 S
Eu401 O416 2.479 . S
Eu401 O417 2.471 . S
Eu401 O418 2.347 1_655 S
Eu401 O421 2.366 . S
Eu401 C431 2.825 . S
C402 O418 1.259 . S
C402 O419 1.265 . S
C403 O420 1.255 . S
C403 O421 1.265 . S
C404 C406 1.380 . S
C404 C407 1.374 . S
C404 C410 1.507 . S
C405 C406 1.384 . S
C405 C409 1.387 . S
C405 H432 0.930 . S
C406 C404 1.380 . S
C406 C405 1.384 . S
C406 H433 0.931 . S
C407 C404 1.374 . S
C407 C408 1.390 . S
C407 H434 0.930 . S
C408 C407 1.390 . S
C408 C409 1.391 . S
C408 H435 0.930 . S
C409 C405 1.387 . S
C409 C408 1.391 . S
C410 Tb400 2.825 . S
C410 C404 1.507 . S
C410 O423 1.238 . S
C410 O424 1.247 . S
O411 Tb400 2.347 1_655 S
O411 C415 1.259 . S
O412 Eu401 2.418 . S
O412 C415 1.265 . S
O413 Eu401 2.384 1_455 S
O413 C422 1.255 . S
O414 Tb400 2.366 . S
O414 C422 1.265 . S
C415 O411 1.259 . S
C415 O412 1.265 . S
O416 Eu401 2.479 . S
O416 C431 1.238 . S
O417 Eu401 2.471 . S
O417 C431 1.247 . S
O418 Eu401 2.347 1_455 S
O418 C402 1.259 . S
O419 Tb400 2.418 . S
O419 C402 1.265 . S
O420 Tb400 2.384 1_655 S
O420 C403 1.255 . S
O421 Eu401 2.366 . S
O421 C403 1.265 . S
C422 O413 1.255 . S
C422 O414 1.265 . S
O423 Tb400 2.479 . S
O423 C410 1.238 . S
O424 Tb400 2.471 . S
O424 C410 1.247 . S
C425 C428 1.380 . S
C425 C429 1.374 . S
C425 C431 1.507 . S
C426 C427 1.387 . S
C426 C430 1.391 . S
C427 C426 1.387 . S
C427 C428 1.384 . S
C427 H436 0.930 . S
C428 C425 1.380 . S
C428 C427 1.384 . S
C428 H437 0.931 . S
C429 C425 1.374 . S
C429 C430 1.390 . S
C429 H438 0.930 . S
C430 C426 1.391 . S
C430 C429 1.390 . S
C430 H439 0.930 . S
C431 Eu401 2.825 . S
C431 O416 1.238 . S
C431 O417 1.247 . S
C431 C425 1.507 . S
H432 C405 0.930 . S
H433 C406 0.931 . S
H434 C407 0.930 . S
H435 C408 0.930 . S
H436 C427 0.930 . S
H437 C428 0.931 . S
H438 C429 0.930 . S
H439 C430 0.930 . S
Tb440 C450 2.825 . S
Tb440 O451 2.347 . S
Tb440 O454 2.366 . S
Tb440 O459 2.418 . S
Tb440 O460 2.384 . S
Tb440 O463 2.479 . S
Tb440 O464 2.471 . S
Eu441 O452 2.418 . S
Eu441 O453 2.384 . S
Eu441 O456 2.479 . S
Eu441 O457 2.471 . S
Eu441 O458 2.347 . S
Eu441 O461 2.366 . S
Eu441 C471 2.825 . S
C442 O458 1.259 . S
C442 O459 1.265 . S
C443 O460 1.255 . S
C443 O461 1.265 . S
C444 C446 1.380 . S
C444 C447 1.374 . S
C444 C450 1.507 . S
C445 C446 1.384 . S
C445 C449 1.387 . S
C445 H472 0.930 . S
C446 C444 1.380 . S
C446 C445 1.384 . S
C446 H473 0.931 . S
C447 C444 1.374 . S
C447 C448 1.390 . S
C447 H474 0.930 . S
C448 C447 1.390 . S
C448 C449 1.391 . S
C448 H475 0.930 . S
C449 C445 1.387 . S
C449 C448 1.391 . S
C450 Tb440 2.825 . S
C450 C444 1.507 . S
C450 O463 1.238 . S
C450 O464 1.247 . S
O451 Tb440 2.347 . S
O451 C455 1.259 . S
O452 Eu441 2.418 . S
O452 C455 1.265 . S
O453 Eu441 2.384 . S
O453 C462 1.255 . S
O454 Tb440 2.366 . S
O454 C462 1.265 . S
C455 O451 1.259 . S
C455 O452 1.265 . S
O456 Eu441 2.479 . S
O456 C471 1.238 . S
O457 Eu441 2.471 . S
O457 C471 1.247 . S
O458 Eu441 2.347 . S
O458 C442 1.259 . S
O459 Tb440 2.418 . S
O459 C442 1.265 . S
O460 Tb440 2.384 . S
O460 C443 1.255 . S
O461 Eu441 2.366 . S
O461 C443 1.265 . S
C462 O453 1.255 . S
C462 O454 1.265 . S
O463 Tb440 2.479 . S
O463 C450 1.238 . S
O464 Tb440 2.471 . S
O464 C450 1.247 . S
C465 C468 1.380 . S
C465 C469 1.374 . S
C465 C471 1.507 . S
C466 C467 1.387 . S
C466 C470 1.391 . S
C467 C466 1.387 . S
C467 C468 1.384 . S
C467 H476 0.930 . S
C468 C465 1.380 . S
C468 C467 1.384 . S
C468 H477 0.931 . S
C469 C465 1.374 . S
C469 C470 1.390 . S
C469 H478 0.930 . S
C470 C466 1.391 . S
C470 C469 1.390 . S
C470 H479 0.930 . S
C471 Eu441 2.825 . S
C471 O456 1.238 . S
C471 O457 1.247 . S
C471 C465 1.507 . S
H472 C445 0.930 . S
H473 C446 0.931 . S
H474 C447 0.930 . S
H475 C448 0.930 . S
H476 C467 0.930 . S
H477 C468 0.931 . S
H478 C469 0.930 . S
H479 C470 0.930 . S
Tb480 C490 2.825 . S
Tb480 O491 2.347 . S
Tb480 O494 2.366 . S
Tb480 O499 2.418 . S
Tb480 O500 2.384 . S
Tb480 O503 2.479 . S
Tb480 O504 2.471 . S
Eu481 O492 2.418 . S
Eu481 O493 2.384 . S
Eu481 O496 2.479 . S
Eu481 O497 2.471 . S
Eu481 O498 2.347 . S
Eu481 O501 2.366 . S
Eu481 C511 2.825 . S
C482 O498 1.259 . S
C482 O499 1.265 . S
C483 O500 1.255 . S
C483 O501 1.265 . S
C484 C486 1.380 . S
C484 C487 1.374 . S
C484 C490 1.507 . S
C485 C486 1.384 . S
C485 C489 1.387 . S
C485 H512 0.930 . S
C486 C484 1.380 . S
C486 C485 1.384 . S
C486 H513 0.931 . S
C487 C484 1.374 . S
C487 C488 1.390 . S
C487 H514 0.930 . S
C488 C487 1.390 . S
C488 C489 1.391 . S
C488 H515 0.930 . S
C489 C485 1.387 . S
C489 C488 1.391 . S
C490 Tb480 2.825 . S
C490 C484 1.507 . S
C490 O503 1.238 . S
C490 O504 1.247 . S
O491 Tb480 2.347 . S
O491 C495 1.259 . S
O492 Eu481 2.418 . S
O492 C495 1.265 . S
O493 Eu481 2.384 . S
O493 C502 1.255 . S
O494 Tb480 2.366 . S
O494 C502 1.265 . S
C495 O491 1.259 . S
C495 O492 1.265 . S
O496 Eu481 2.479 . S
O496 C511 1.238 . S
O497 Eu481 2.471 . S
O497 C511 1.247 . S
O498 Eu481 2.347 . S
O498 C482 1.259 . S
O499 Tb480 2.418 . S
O499 C482 1.265 . S
O500 Tb480 2.384 . S
O500 C483 1.255 . S
O501 Eu481 2.366 . S
O501 C483 1.265 . S
C502 O493 1.255 . S
C502 O494 1.265 . S
O503 Tb480 2.479 . S
O503 C490 1.238 . S
O504 Tb480 2.471 . S
O504 C490 1.247 . S
C505 C508 1.380 . S
C505 C509 1.374 . S
C505 C511 1.507 . S
C506 C507 1.387 . S
C506 C510 1.391 . S
C507 C506 1.387 . S
C507 C508 1.384 . S
C507 H516 0.930 . S
C508 C505 1.380 . S
C508 C507 1.384 . S
C508 H517 0.931 . S
C509 C505 1.374 . S
C509 C510 1.390 . S
C509 H518 0.930 . S
C510 C506 1.391 . S
C510 C509 1.390 . S
C510 H519 0.930 . S
C511 Eu481 2.825 . S
C511 O496 1.238 . S
C511 O497 1.247 . S
C511 C505 1.507 . S
H512 C485 0.930 . S
H513 C486 0.931 . S
H514 C487 0.930 . S
H515 C488 0.930 . S
H516 C507 0.930 . S
H517 C508 0.931 . S
H518 C509 0.930 . S
H519 C510 0.930 . S
Tb520 C530 2.825 . S
Tb520 O531 2.347 . S
Tb520 O534 2.366 . S
Tb520 O539 2.418 . S
Tb520 O540 2.384 . S
Tb520 O543 2.479 . S
Tb520 O544 2.471 . S
Eu521 O532 2.418 . S
Eu521 O533 2.384 . S
Eu521 O536 2.479 . S
Eu521 O537 2.471 . S
Eu521 O538 2.347 . S
Eu521 O541 2.366 . S
Eu521 C551 2.825 . S
C522 O538 1.259 . S
C522 O539 1.265 . S
C523 O540 1.255 . S
C523 O541 1.265 . S
C524 C526 1.380 . S
C524 C527 1.374 . S
C524 C530 1.507 . S
C525 C526 1.384 . S
C525 C529 1.387 . S
C525 H552 0.930 . S
C526 C524 1.380 . S
C526 C525 1.384 . S
C526 H553 0.931 . S
C527 C524 1.374 . S
C527 C528 1.390 . S
C527 H554 0.930 . S
C528 C527 1.390 . S
C528 C529 1.391 . S
C528 H555 0.930 . S
C529 C525 1.387 . S
C529 C528 1.391 . S
C530 Tb520 2.825 . S
C530 C524 1.507 . S
C530 O543 1.238 . S
C530 O544 1.247 . S
O531 Tb520 2.347 . S
O531 C535 1.259 . S
O532 Eu521 2.418 . S
O532 C535 1.265 . S
O533 Eu521 2.384 . S
O533 C542 1.255 . S
O534 Tb520 2.366 . S
O534 C542 1.265 . S
C535 O531 1.259 . S
C535 O532 1.265 . S
O536 Eu521 2.479 . S
O536 C551 1.238 . S
O537 Eu521 2.471 . S
O537 C551 1.247 . S
O538 Eu521 2.347 . S
O538 C522 1.259 . S
O539 Tb520 2.418 . S
O539 C522 1.265 . S
O540 Tb520 2.384 . S
O540 C523 1.255 . S
O541 Eu521 2.366 . S
O541 C523 1.265 . S
C542 O533 1.255 . S
C542 O534 1.265 . S
O543 Tb520 2.479 . S
O543 C530 1.238 . S
O544 Tb520 2.471 . S
O544 C530 1.247 . S
C545 C548 1.380 . S
C545 C549 1.374 . S
C545 C551 1.507 . S
C546 C547 1.387 . S
C546 C550 1.391 . S
C547 C546 1.387 . S
C547 C548 1.384 . S
C547 H556 0.930 . S
C548 C545 1.380 . S
C548 C547 1.384 . S
C548 H557 0.931 . S
C549 C545 1.374 . S
C549 C550 1.390 . S
C549 H558 0.930 . S
C550 C546 1.391 . S
C550 C549 1.390 . S
C550 H559 0.930 . S
C551 Eu521 2.825 . S
C551 O536 1.238 . S
C551 O537 1.247 . S
C551 C545 1.507 . S
H552 C525 0.930 . S
H553 C526 0.931 . S
H554 C527 0.930 . S
H555 C528 0.930 . S
H556 C547 0.930 . S
H557 C548 0.931 . S
H558 C549 0.930 . S
H559 C550 0.930 . S
Tb560 C570 2.825 . S
Tb560 O571 2.347 . S
Tb560 O574 2.366 . S
Tb560 O579 2.418 . S
Tb560 O580 2.384 . S
Tb560 O583 2.479 . S
Tb560 O584 2.471 . S
Eu561 O572 2.418 . S
Eu561 O573 2.384 . S
Eu561 O576 2.479 . S
Eu561 O577 2.471 . S
Eu561 O578 2.347 . S
Eu561 O581 2.366 . S
Eu561 C591 2.825 . S
C562 O578 1.259 . S
C562 O579 1.265 . S
C563 O580 1.255 . S
C563 O581 1.265 . S
C564 C566 1.380 . S
C564 C567 1.374 . S
C564 C570 1.507 . S
C565 C566 1.384 . S
C565 C569 1.387 . S
C565 H592 0.930 . S
C566 C564 1.380 . S
C566 C565 1.384 . S
C566 H593 0.931 . S
C567 C564 1.374 . S
C567 C568 1.390 . S
C567 H594 0.930 . S
C568 C567 1.390 . S
C568 C569 1.391 . S
C568 H595 0.930 . S
C569 C565 1.387 . S
C569 C568 1.391 . S
C570 Tb560 2.825 . S
C570 C564 1.507 . S
C570 O583 1.238 . S
C570 O584 1.247 . S
O571 Tb560 2.347 . S
O571 C575 1.259 . S
O572 Eu561 2.418 . S
O572 C575 1.265 . S
O573 Eu561 2.384 . S
O573 C582 1.255 . S
O574 Tb560 2.366 . S
O574 C582 1.265 . S
C575 O571 1.259 . S
C575 O572 1.265 . S
O576 Eu561 2.479 . S
O576 C591 1.238 . S
O577 Eu561 2.471 . S
O577 C591 1.247 . S
O578 Eu561 2.347 . S
O578 C562 1.259 . S
O579 Tb560 2.418 . S
O579 C562 1.265 . S
O580 Tb560 2.384 . S
O580 C563 1.255 . S
O581 Eu561 2.366 . S
O581 C563 1.265 . S
C582 O573 1.255 . S
C582 O574 1.265 . S
O583 Tb560 2.479 . S
O583 C570 1.238 . S
O584 Tb560 2.471 . S
O584 C570 1.247 . S
C585 C588 1.380 . S
C585 C589 1.374 . S
C585 C591 1.507 . S
C586 C587 1.387 . S
C586 C590 1.391 . S
C587 C586 1.387 . S
C587 C588 1.384 . S
C587 H596 0.930 . S
C588 C585 1.380 . S
C588 C587 1.384 . S
C588 H597 0.931 . S
C589 C585 1.374 . S
C589 C590 1.390 . S
C589 H598 0.930 . S
C590 C586 1.391 . S
C590 C589 1.390 . S
C590 H599 0.930 . S
C591 Eu561 2.825 . S
C591 O576 1.238 . S
C591 O577 1.247 . S
C591 C585 1.507 . S
H592 C565 0.930 . S
H593 C566 0.931 . S
H594 C567 0.930 . S
H595 C568 0.930 . S
H596 C587 0.930 . S
H597 C588 0.931 . S
H598 C589 0.930 . S
H599 C590 0.930 . S
Tb600 C610 2.825 . S
Tb600 O611 2.347 1_655 S
Tb600 O614 2.366 1_554 S
Tb600 O619 2.418 1_554 S
Tb600 O620 2.384 . S
Tb600 O623 2.479 . S
Tb600 O624 2.471 . S
Eu601 O612 2.418 1_556 S
Eu601 O613 2.384 . S
Eu601 O616 2.479 . S
Eu601 O617 2.471 . S
Eu601 O618 2.347 1_455 S
Eu601 O621 2.366 1_556 S
Eu601 C631 2.825 . S
C602 O618 1.259 . S
C602 O619 1.265 . S
C603 O620 1.255 1_455 S
C603 O621 1.265 . S
C604 C606 1.380 . S
C604 C607 1.374 . S
C604 C610 1.507 . S
C605 C606 1.384 . S
C605 C609 1.387 . S
C605 H632 0.930 . S
C606 C604 1.380 . S
C606 C605 1.384 . S
C606 H633 0.931 . S
C607 C604 1.374 . S
C607 C608 1.390 . S
C607 H634 0.930 . S
C608 C607 1.390 . S
C608 C609 1.391 . S
C608 H635 0.930 . S
C609 C605 1.387 . S
C609 C608 1.391 . S
C610 Tb600 2.825 . S
C610 C604 1.507 . S
C610 O623 1.238 . S
C610 O624 1.247 . S
O611 Tb600 2.347 1_455 S
O611 C615 1.259 . S
O612 Eu601 2.418 1_554 S
O612 C615 1.265 . S
O613 Eu601 2.384 . S
O613 C622 1.255 1_455 S
O614 Tb600 2.366 1_556 S
O614 C622 1.265 . S
C615 O611 1.259 . S
C615 O612 1.265 . S
O616 Eu601 2.479 . S
O616 C631 1.238 . S
O617 Eu601 2.471 . S
O617 C631 1.247 . S
O618 Eu601 2.347 1_655 S
O618 C602 1.259 . S
O619 Tb600 2.418 1_556 S
O619 C602 1.265 . S
O620 Tb600 2.384 . S
O620 C603 1.255 1_655 S
O621 Eu601 2.366 1_554 S
O621 C603 1.265 . S
C622 O613 1.255 1_655 S
C622 O614 1.265 . S
O623 Tb600 2.479 . S
O623 C610 1.238 . S
O624 Tb600 2.471 . S
O624 C610 1.247 . S
C625 C628 1.380 . S
C625 C629 1.374 . S
C625 C631 1.507 . S
C626 C627 1.387 . S
C626 C630 1.391 . S
C627 C626 1.387 . S
C627 C628 1.384 . S
C627 H636 0.930 . S
C628 C625 1.380 . S
C628 C627 1.384 . S
C628 H637 0.931 . S
C629 C625 1.374 . S
C629 C630 1.390 . S
C629 H638 0.930 . S
C630 C626 1.391 . S
C630 C629 1.390 . S
C630 H639 0.930 . S
C631 Eu601 2.825 . S
C631 O616 1.238 . S
C631 O617 1.247 . S
C631 C625 1.507 . S
H632 C605 0.930 . S
H633 C606 0.931 . S
H634 C607 0.930 . S
H635 C608 0.930 . S
H636 C627 0.930 . S
H637 C628 0.931 . S
H638 C629 0.930 . S
H639 C630 0.930 . S
C640 C641 1.387 . S
C640 H644 0.950 . S
C640 C649 1.390 . S
C641 C640 1.387 . S
C641 C643 1.387 . S
H642 C649 0.950 . S
C643 C641 1.387 . S
C643 C645 1.390 . S
C643 H647 0.950 . S
H644 C640 0.950 . S
C645 C643 1.390 . S
C645 C646 1.387 . S
C645 H648 0.950 . S
C646 C645 1.387 . S
C646 C649 1.387 . S
H647 C643 0.950 . S
H648 C645 0.950 . S
C649 C640 1.390 . S
C649 H642 0.950 . S
C649 C646 1.387 . S
C650 C651 1.387 . S
C650 H654 0.950 . S
C650 C659 1.390 . S
C651 C650 1.387 . S
C651 C653 1.387 . S
H652 C659 0.950 . S
C653 C651 1.387 . S
C653 C655 1.390 . S
C653 H657 0.950 . S
H654 C650 0.950 . S
C655 C653 1.390 . S
C655 C656 1.387 . S
C655 H658 0.950 . S
C656 C655 1.387 . S
C656 C659 1.387 . S
H657 C653 0.950 . S
H658 C655 0.950 . S
C659 C650 1.390 . S
C659 H652 0.950 . S
C659 C656 1.387 . S
C660 C661 1.387 . S
C660 H664 0.950 . S
C660 C669 1.390 . S
C661 C660 1.387 . S
C661 C663 1.387 . S
H662 C669 0.950 . S
C663 C661 1.387 . S
C663 C665 1.390 . S
C663 H667 0.950 . S
H664 C660 0.950 . S
C665 C663 1.390 . S
C665 C666 1.387 . S
C665 H668 0.950 . S
C666 C665 1.387 . S
C666 C669 1.387 . S
H667 C663 0.950 . S
H668 C665 0.950 . S
C669 C660 1.390 . S
C669 H662 0.950 . S
C669 C666 1.387 . S
C670 C671 1.387 . S
C670 H674 0.950 . S
C670 C679 1.390 . S
C671 C670 1.387 . S
C671 C673 1.387 . S
H672 C679 0.950 . S
C673 C671 1.387 . S
C673 C675 1.390 . S
C673 H677 0.950 . S
H674 C670 0.950 . S
C675 C673 1.390 . S
C675 C676 1.387 . S
C675 H678 0.950 . S
C676 C675 1.387 . S
C676 C679 1.387 . S
H677 C673 0.950 . S
H678 C675 0.950 . S
C679 C670 1.390 . S
C679 H672 0.950 . S
C679 C676 1.387 . S
C680 C681 1.387 . S
C680 H684 0.950 . S
C680 C689 1.390 . S
C681 C680 1.387 . S
C681 C683 1.387 . S
H682 C689 0.950 . S
C683 C681 1.387 . S
C683 C685 1.390 . S
C683 H687 0.950 . S
H684 C680 0.950 . S
C685 C683 1.390 . S
C685 C686 1.387 . S
C685 H688 0.950 . S
C686 C685 1.387 . S
C686 C689 1.387 . S
H687 C683 0.950 . S
H688 C685 0.950 . S
C689 C680 1.390 . S
C689 H682 0.950 . S
C689 C686 1.387 . S
C690 C691 1.387 . S
C690 H694 0.950 . S
C690 C699 1.390 . S
C691 C690 1.387 . S
C691 C693 1.387 . S
H692 C699 0.950 . S
C693 C691 1.387 . S
C693 C695 1.390 . S
C693 H697 0.950 . S
H694 C690 0.950 . S
C695 C693 1.390 . S
C695 C696 1.387 . S
C695 H698 0.950 . S
C696 C695 1.387 . S
C696 C699 1.387 . S
H697 C693 0.950 . S
H698 C695 0.950 . S
C699 C690 1.390 . S
C699 H692 0.950 . S
C699 C696 1.387 . S
C700 C701 1.387 . S
C700 H704 0.950 . S
C700 C709 1.390 . S
C701 C700 1.387 . S
C701 C703 1.387 . S
H702 C709 0.950 . S
C703 C701 1.387 . S
C703 C705 1.390 . S
C703 H707 0.950 . S
H704 C700 0.950 . S
C705 C703 1.390 . S
C705 C706 1.387 . S
C705 H708 0.950 . S
C706 C705 1.387 . S
C706 C709 1.387 . S
H707 C703 0.950 . S
H708 C705 0.950 . S
C709 C700 1.390 . S
C709 H702 0.950 . S
C709 C706 1.387 . S
C710 C711 1.387 . S
C710 H714 0.950 . S
C710 C719 1.390 . S
C711 C710 1.387 . S
C711 C713 1.387 . S
H712 C719 0.950 . S
C713 C711 1.387 . S
C713 C715 1.390 . S
C713 H717 0.950 . S
H714 C710 0.950 . S
C715 C713 1.390 . S
C715 C716 1.387 . S
C715 H718 0.950 . S
C716 C715 1.387 . S
C716 C719 1.387 . S
H717 C713 0.950 . S
H718 C715 0.950 . S
C719 C710 1.390 . S
C719 H712 0.950 . S
C719 C716 1.387 . S
C720 C721 1.387 . S
C720 H724 0.950 . S
C720 C729 1.390 . S
C721 C720 1.387 . S
C721 C723 1.387 . S
H722 C729 0.950 . S
C723 C721 1.387 . S
C723 C725 1.390 . S
C723 H727 0.950 . S
H724 C720 0.950 . S
C725 C723 1.390 . S
C725 C726 1.387 . S
C725 H728 0.950 . S
C726 C725 1.387 . S
C726 C729 1.387 . S
H727 C723 0.950 . S
H728 C725 0.950 . S
C729 C720 1.390 . S
C729 H722 0.950 . S
C729 C726 1.387 . S
C730 C731 1.387 . S
C730 H734 0.950 . S
C730 C739 1.390 . S
C731 C730 1.387 . S
C731 C733 1.387 . S
H732 C739 0.950 . S
C733 C731 1.387 . S
C733 C735 1.390 . S
C733 H737 0.950 . S
H734 C730 0.950 . S
C735 C733 1.390 . S
C735 C736 1.387 . S
C735 H738 0.950 . S
C736 C735 1.387 . S
C736 C739 1.387 . S
H737 C733 0.950 . S
H738 C735 0.950 . S
C739 C730 1.390 . S
C739 H732 0.950 . S
C739 C736 1.387 . S
C740 C741 1.387 . S
C740 H744 0.950 . S
C740 C749 1.390 . S
C741 C740 1.387 . S
C741 C743 1.387 . S
H742 C749 0.950 . S
C743 C741 1.387 . S
C743 C745 1.390 . S
C743 H747 0.950 . S
H744 C740 0.950 . S
C745 C743 1.390 . S
C745 C746 1.387 . S
C745 H748 0.950 . S
C746 C745 1.387 . S
C746 C749 1.387 . S
H747 C743 0.950 . S
H748 C745 0.950 . S
C749 C740 1.390 . S
C749 H742 0.950 . S
C749 C746 1.387 . S
C750 C751 1.387 . S
C750 H754 0.950 . S
C750 C759 1.390 . S
C751 C750 1.387 . S
C751 C753 1.387 . S
H752 C759 0.950 . S
C753 C751 1.387 . S
C753 C755 1.390 . S
C753 H757 0.950 . S
H754 C750 0.950 . S
C755 C753 1.390 . S
C755 C756 1.387 . S
C755 H758 0.950 . S
C756 C755 1.387 . S
C756 C759 1.387 . S
H757 C753 0.950 . S
H758 C755 0.950 . S
C759 C750 1.390 . S
C759 H752 0.950 . S
C759 C756 1.387 . S
C760 C761 1.387 . S
C760 H764 0.950 . S
C760 C769 1.390 . S
C761 C760 1.387 . S
C761 C763 1.387 . S
H762 C769 0.950 . S
C763 C761 1.387 . S
C763 C765 1.390 . S
C763 H767 0.950 . S
H764 C760 0.950 . S
C765 C763 1.390 . S
C765 C766 1.387 . S
C765 H768 0.950 . S
C766 C765 1.387 . S
C766 C769 1.387 . S
H767 C763 0.950 . S
H768 C765 0.950 . S
C769 C760 1.390 . S
C769 H762 0.950 . S
C769 C766 1.387 . S
C770 C771 1.387 . S
C770 H774 0.950 . S
C770 C779 1.390 . S
C771 C770 1.387 . S
C771 C773 1.387 . S
H772 C779 0.950 . S
C773 C771 1.387 . S
C773 C775 1.390 . S
C773 H777 0.950 . S
H774 C770 0.950 . S
C775 C773 1.390 . S
C775 C776 1.387 . S
C775 H778 0.950 . S
C776 C775 1.387 . S
C776 C779 1.387 . S
H777 C773 0.950 . S
H778 C775 0.950 . S
C779 C770 1.390 . S
C779 H772 0.950 . S
C779 C776 1.387 . S
C780 C781 1.387 . S
C780 H784 0.950 . S
C780 C789 1.390 . S
C781 C780 1.387 . S
C781 C783 1.387 . S
H782 C789 0.950 . S
C783 C781 1.387 . S
C783 C785 1.390 . S
C783 H787 0.950 . S
H784 C780 0.950 . S
C785 C783 1.390 . S
C785 C786 1.387 . S
C785 H788 0.950 . S
C786 C785 1.387 . S
C786 C789 1.387 . S
H787 C783 0.950 . S
H788 C785 0.950 . S
C789 C780 1.390 . S
C789 H782 0.950 . S
C789 C786 1.387 . S
C790 C791 1.387 . S
C790 H794 0.950 . S
C790 C799 1.390 . S
C791 C790 1.387 . S
C791 C793 1.387 1_455 S
H792 C799 0.950 . S
C793 C791 1.387 1_655 S
C793 C795 1.390 . S
C793 H797 0.950 . S
H794 C790 0.950 . S
C795 C793 1.390 . S
C795 C796 1.387 1_655 S
C795 H798 0.950 . S
C796 C795 1.387 1_455 S
C796 C799 1.387 . S
H797 C793 0.950 . S
H798 C795 0.950 . S
C799 C790 1.390 . S
C799 H792 0.950 . S
C799 C796 1.387 . S
C800 C801 1.387 . S
C800 H804 0.950 . S
C800 C809 1.390 . S
C801 C800 1.387 . S
C801 C803 1.387 . S
H802 C809 0.950 . S
C803 C801 1.387 . S
C803 C805 1.390 . S
C803 H807 0.950 . S
H804 C800 0.950 . S
C805 C803 1.390 . S
C805 C806 1.387 . S
C805 H808 0.950 . S
C806 C805 1.387 . S
C806 C809 1.387 . S
H807 C803 0.950 . S
H808 C805 0.950 . S
C809 C800 1.390 . S
C809 H802 0.950 . S
C809 C806 1.387 . S
C810 C811 1.387 . S
C810 H814 0.950 . S
C810 C819 1.390 . S
C811 C810 1.387 . S
C811 C813 1.387 . S
H812 C819 0.950 . S
C813 C811 1.387 . S
C813 C815 1.390 . S
C813 H817 0.950 . S
H814 C810 0.950 . S
C815 C813 1.390 . S
C815 C816 1.387 . S
C815 H818 0.950 . S
C816 C815 1.387 . S
C816 C819 1.387 . S
H817 C813 0.950 . S
H818 C815 0.950 . S
C819 C810 1.390 . S
C819 H812 0.950 . S
C819 C816 1.387 . S
C820 C821 1.387 . S
C820 H824 0.950 . S
C820 C829 1.390 . S
C821 C820 1.387 . S
C821 C823 1.387 . S
H822 C829 0.950 . S
C823 C821 1.387 . S
C823 C825 1.390 . S
C823 H827 0.950 . S
H824 C820 0.950 . S
C825 C823 1.390 . S
C825 C826 1.387 . S
C825 H828 0.950 . S
C826 C825 1.387 . S
C826 C829 1.387 . S
H827 C823 0.950 . S
H828 C825 0.950 . S
C829 C820 1.390 . S
C829 H822 0.950 . S
C829 C826 1.387 . S
C830 C831 1.387 . S
C830 H834 0.950 . S
C830 C839 1.390 . S
C831 C830 1.387 . S
C831 C833 1.387 . S
H832 C839 0.950 . S
C833 C831 1.387 . S
C833 C835 1.390 . S
C833 H837 0.950 . S
H834 C830 0.950 . S
C835 C833 1.390 . S
C835 C836 1.387 . S
C835 H838 0.950 . S
C836 C835 1.387 . S
C836 C839 1.387 . S
H837 C833 0.950 . S
H838 C835 0.950 . S
C839 C830 1.390 . S
C839 H832 0.950 . S
C839 C836 1.387 . S
C840 C841 1.387 . S
C840 H844 0.950 . S
C840 C849 1.390 . S
C841 C840 1.387 . S
C841 C843 1.387 . S
H842 C849 0.950 . S
C843 C841 1.387 . S
C843 C845 1.390 . S
C843 H847 0.950 . S
H844 C840 0.950 . S
C845 C843 1.390 . S
C845 C846 1.387 . S
C845 H848 0.950 . S
C846 C845 1.387 . S
C846 C849 1.387 . S
H847 C843 0.950 . S
H848 C845 0.950 . S
C849 C840 1.390 . S
C849 H842 0.950 . S
C849 C846 1.387 . S
C850 C851 1.387 . S
C850 H854 0.950 . S
C850 C859 1.390 . S
C851 C850 1.387 . S
C851 C853 1.387 . S
H852 C859 0.950 . S
C853 C851 1.387 . S
C853 C855 1.390 . S
C853 H857 0.950 . S
H854 C850 0.950 . S
C855 C853 1.390 . S
C855 C856 1.387 . S
C855 H858 0.950 . S
C856 C855 1.387 . S
C856 C859 1.387 . S
H857 C853 0.950 . S
H858 C855 0.950 . S
C859 C850 1.390 . S
C859 H852 0.950 . S
C859 C856 1.387 . S
C860 C861 1.387 . S
C860 H864 0.950 . S
C860 C869 1.390 . S
C861 C860 1.387 . S
C861 C863 1.387 . S
H862 C869 0.950 . S
C863 C861 1.387 . S
C863 C865 1.390 . S
C863 H867 0.950 . S
H864 C860 0.950 . S
C865 C863 1.390 . S
C865 C866 1.387 . S
C865 H868 0.950 . S
C866 C865 1.387 . S
C866 C869 1.387 . S
H867 C863 0.950 . S
H868 C865 0.950 . S
C869 C860 1.390 . S
C869 H862 0.950 . S
C869 C866 1.387 . S
C870 C871 1.387 . S
C870 H874 0.950 . S
C870 C879 1.390 . S
C871 C870 1.387 . S
C871 C873 1.387 . S
H872 C879 0.950 . S
C873 C871 1.387 . S
C873 C875 1.390 . S
C873 H877 0.950 . S
H874 C870 0.950 . S
C875 C873 1.390 . S
C875 C876 1.387 . S
C875 H878 0.950 . S
C876 C875 1.387 . S
C876 C879 1.387 . S
H877 C873 0.950 . S
H878 C875 0.950 . S
C879 C870 1.390 . S
C879 H872 0.950 . S
C879 C876 1.387 . S
C880 C881 1.387 . S
C880 H884 0.950 . S
C880 C889 1.390 . S
C881 C880 1.387 . S
C881 C883 1.387 . S
H882 C889 0.950 . S
C883 C881 1.387 . S
C883 C885 1.390 . S
C883 H887 0.950 . S
H884 C880 0.950 . S
C885 C883 1.390 . S
C885 C886 1.387 . S
C885 H888 0.950 . S
C886 C885 1.387 . S
C886 C889 1.387 . S
H887 C883 0.950 . S
H888 C885 0.950 . S
C889 C880 1.390 . S
C889 H882 0.950 . S
C889 C886 1.387 . S
C890 C891 1.387 . S
C890 H894 0.950 . S
C890 C899 1.390 . S
C891 C890 1.387 . S
C891 C893 1.387 . S
H892 C899 0.950 . S
C893 C891 1.387 . S
C893 C895 1.390 . S
C893 H897 0.950 . S
H894 C890 0.950 . S
C895 C893 1.390 . S
C895 C896 1.387 . S
C895 H898 0.950 . S
C896 C895 1.387 . S
C896 C899 1.387 . S
H897 C893 0.950 . S
H898 C895 0.950 . S
C899 C890 1.390 . S
C899 H892 0.950 . S
C899 C896 1.387 . S
C900 C901 1.387 . S
C900 H904 0.950 . S
C900 C909 1.390 . S
C901 C900 1.387 . S
C901 C903 1.387 . S
H902 C909 0.950 . S
C903 C901 1.387 . S
C903 C905 1.390 . S
C903 H907 0.950 . S
H904 C900 0.950 . S
C905 C903 1.390 . S
C905 C906 1.387 . S
C905 H908 0.950 . S
C906 C905 1.387 . S
C906 C909 1.387 . S
H907 C903 0.950 . S
H908 C905 0.950 . S
C909 C900 1.390 . S
C909 H902 0.950 . S
C909 C906 1.387 . S
C910 C911 1.387 . S
C910 H914 0.950 . S
C910 C919 1.390 . S
C911 C910 1.387 . S
C911 C913 1.387 . S
H912 C919 0.950 . S
C913 C911 1.387 . S
C913 C915 1.390 . S
C913 H917 0.950 . S
H914 C910 0.950 . S
C915 C913 1.390 . S
C915 C916 1.387 . S
C915 H918 0.950 . S
C916 C915 1.387 . S
C916 C919 1.387 . S
H917 C913 0.950 . S
H918 C915 0.950 . S
C919 C910 1.390 . S
C919 H912 0.950 . S
C919 C916 1.387 . S
C920 C921 1.387 . S
C920 H924 0.950 . S
C920 C929 1.390 . S
C921 C920 1.387 . S
C921 C923 1.387 . S
H922 C929 0.950 . S
C923 C921 1.387 . S
C923 C925 1.390 . S
C923 H927 0.950 . S
H924 C920 0.950 . S
C925 C923 1.390 . S
C925 C926 1.387 . S
C925 H928 0.950 . S
C926 C925 1.387 . S
C926 C929 1.387 . S
H927 C923 0.950 . S
H928 C925 0.950 . S
C929 C920 1.390 . S
C929 H922 0.950 . S
C929 C926 1.387 . S
C930 C931 1.387 . S
C930 H934 0.950 . S
C930 C939 1.390 . S
C931 C930 1.387 . S
C931 C933 1.387 . S
H932 C939 0.950 . S
C933 C931 1.387 . S
C933 C935 1.390 . S
C933 H937 0.950 . S
H934 C930 0.950 . S
C935 C933 1.390 . S
C935 C936 1.387 . S
C935 H938 0.950 . S
C936 C935 1.387 . S
C936 C939 1.387 . S
H937 C933 0.950 . S
H938 C935 0.950 . S
C939 C930 1.390 . S
C939 H932 0.950 . S
C939 C936 1.387 . S
C940 C941 1.387 . S
C940 H944 0.950 . S
C940 C949 1.390 . S
C941 C940 1.387 . S
C941 C943 1.387 . S
H942 C949 0.950 . S
C943 C941 1.387 . S
C943 C945 1.390 . S
C943 H947 0.950 . S
H944 C940 0.950 . S
C945 C943 1.390 . S
C945 C946 1.387 . S
C945 H948 0.950 . S
C946 C945 1.387 . S
C946 C949 1.387 . S
H947 C943 0.950 . S
H948 C945 0.950 . S
C949 C940 1.390 . S
C949 H942 0.950 . S
C949 C946 1.387 . S
C950 C951 1.387 . S
C950 H954 0.950 . S
C950 C959 1.390 . S
C951 C950 1.387 . S
C951 C953 1.387 . S
H952 C959 0.950 . S
C953 C951 1.387 . S
C953 C955 1.390 . S
C953 H957 0.950 . S
H954 C950 0.950 . S
C955 C953 1.390 . S
C955 C956 1.387 . S
C955 H958 0.950 . S
C956 C955 1.387 . S
C956 C959 1.387 . S
H957 C953 0.950 . S
H958 C955 0.950 . S
C959 C950 1.390 . S
C959 H952 0.950 . S
C959 C956 1.387 . S
C960 C961 1.387 . S
C960 H964 0.950 . S
C960 C969 1.390 . S
C961 C960 1.387 . S
C961 C963 1.387 . S
H962 C969 0.950 . S
C963 C961 1.387 . S
C963 C965 1.390 . S
C963 H967 0.950 . S
H964 C960 0.950 . S
C965 C963 1.390 . S
C965 C966 1.387 . S
C965 H968 0.950 . S
C966 C965 1.387 . S
C966 C969 1.387 . S
H967 C963 0.950 . S
H968 C965 0.950 . S
C969 C960 1.390 . S
C969 H962 0.950 . S
C969 C966 1.387 . S
C970 C971 1.387 . S
C970 H974 0.950 . S
C970 C979 1.390 . S
C971 C970 1.387 . S
C971 C973 1.387 . S
H972 C979 0.950 . S
C973 C971 1.387 . S
C973 C975 1.390 . S
C973 H977 0.950 . S
H974 C970 0.950 . S
C975 C973 1.390 . S
C975 C976 1.387 . S
C975 H978 0.950 . S
C976 C975 1.387 . S
C976 C979 1.387 . S
H977 C973 0.950 . S
H978 C975 0.950 . S
C979 C970 1.390 . S
C979 H972 0.950 . S
C979 C976 1.387 . S
C980 C981 1.387 . S
C980 H984 0.950 . S
C980 C989 1.390 . S
C981 C980 1.387 . S
C981 C983 1.387 . S
H982 C989 0.950 . S
C983 C981 1.387 . S
C983 C985 1.390 . S
C983 H987 0.950 . S
H984 C980 0.950 . S
C985 C983 1.390 . S
C985 C986 1.387 . S
C985 H988 0.950 . S
C986 C985 1.387 . S
C986 C989 1.387 . S
H987 C983 0.950 . S
H988 C985 0.950 . S
C989 C980 1.390 . S
C989 H982 0.950 . S
C989 C986 1.387 . S
C990 C991 1.387 . S
C990 H994 0.950 . S
C990 C999 1.390 . S
C991 C990 1.387 . S
C991 C993 1.387 . S
H992 C999 0.950 . S
C993 C991 1.387 . S
C993 C995 1.390 . S
C993 H997 0.950 . S
H994 C990 0.950 . S
C995 C993 1.390 . S
C995 C996 1.387 . S
C995 H998 0.950 . S
C996 C995 1.387 . S
C996 C999 1.387 . S
H997 C993 0.950 . S
H998 C995 0.950 . S
C999 C990 1.390 . S
C999 H992 0.950 . S
C999 C996 1.387 . S
C1000 C1001 1.387 1_554 S
C1000 H1004 0.950 . S
C1000 C1009 1.390 . S
C1001 C1000 1.387 1_556 S
C1001 C1003 1.387 . S
H1002 C1009 0.950 . S
C1003 C1001 1.387 . S
C1003 C1005 1.390 . S
C1003 H1007 0.950 . S
H1004 C1000 0.950 . S
C1005 C1003 1.390 . S
C1005 C1006 1.387 . S
C1005 H1008 0.950 . S
C1006 C1005 1.387 . S
C1006 C1009 1.387 1_556 S
H1007 C1003 0.950 . S
H1008 C1005 0.950 . S
C1009 C1000 1.390 . S
C1009 H1002 0.950 . S
C1009 C1006 1.387 1_554 S
C1010 C1011 1.387 . S
C1010 H1014 0.950 . S
C1010 C1019 1.390 . S
C1011 C1010 1.387 . S
C1011 C1013 1.387 . S
H1012 C1019 0.950 . S
C1013 C1011 1.387 . S
C1013 C1015 1.390 . S
C1013 H1017 0.950 . S
H1014 C1010 0.950 . S
C1015 C1013 1.390 . S
C1015 C1016 1.387 . S
C1015 H1018 0.950 . S
C1016 C1015 1.387 . S
C1016 C1019 1.387 . S
H1017 C1013 0.950 . S
H1018 C1015 0.950 . S
C1019 C1010 1.390 . S
C1019 H1012 0.950 . S
C1019 C1016 1.387 . S
C1020 C1021 1.387 . S
C1020 H1024 0.950 . S
C1020 C1029 1.390 . S
C1021 C1020 1.387 . S
C1021 C1023 1.387 . S
H1022 C1029 0.950 . S
C1023 C1021 1.387 . S
C1023 C1025 1.390 . S
C1023 H1027 0.950 . S
H1024 C1020 0.950 . S
C1025 C1023 1.390 . S
C1025 C1026 1.387 . S
C1025 H1028 0.950 . S
C1026 C1025 1.387 . S
C1026 C1029 1.387 . S
H1027 C1023 0.950 . S
H1028 C1025 0.950 . S
C1029 C1020 1.390 . S
C1029 H1022 0.950 . S
C1029 C1026 1.387 . S
C1030 C1031 1.387 . S
C1030 H1034 0.950 . S
C1030 C1039 1.390 . S
C1031 C1030 1.387 . S
C1031 C1033 1.387 . S
H1032 C1039 0.950 . S
C1033 C1031 1.387 . S
C1033 C1035 1.390 . S
C1033 H1037 0.950 . S
H1034 C1030 0.950 . S
C1035 C1033 1.390 . S
C1035 C1036 1.387 . S
C1035 H1038 0.950 . S
C1036 C1035 1.387 . S
C1036 C1039 1.387 . S
H1037 C1033 0.950 . S
H1038 C1035 0.950 . S
C1039 C1030 1.390 . S
C1039 H1032 0.950 . S
C1039 C1036 1.387 . S
C1040 C1041 1.387 . S
C1040 H1044 0.950 . S
C1040 C1049 1.390 . S
C1041 C1040 1.387 . S
C1041 C1043 1.387 . S
H1042 C1049 0.950 . S
C1043 C1041 1.387 . S
C1043 C1045 1.390 . S
C1043 H1047 0.950 . S
H1044 C1040 0.950 . S
C1045 C1043 1.390 . S
C1045 C1046 1.387 . S
C1045 H1048 0.950 . S
C1046 C1045 1.387 . S
C1046 C1049 1.387 . S
H1047 C1043 0.950 . S
H1048 C1045 0.950 . S
C1049 C1040 1.390 . S
C1049 H1042 0.950 . S
C1049 C1046 1.387 . S
C1050 C1051 1.387 . S
C1050 H1054 0.950 . S
C1050 C1059 1.390 . S
C1051 C1050 1.387 . S
C1051 C1053 1.387 . S
H1052 C1059 0.950 . S
C1053 C1051 1.387 . S
C1053 C1055 1.390 . S
C1053 H1057 0.950 . S
H1054 C1050 0.950 . S
C1055 C1053 1.390 . S
C1055 C1056 1.387 . S
C1055 H1058 0.950 . S
C1056 C1055 1.387 . S
C1056 C1059 1.387 . S
H1057 C1053 0.950 . S
H1058 C1055 0.950 . S
C1059 C1050 1.390 . S
C1059 H1052 0.950 . S
C1059 C1056 1.387 . S
C1060 C1061 1.387 . S
C1060 H1064 0.950 . S
C1060 C1069 1.390 . S
C1061 C1060 1.387 . S
C1061 C1063 1.387 . S
H1062 C1069 0.950 . S
C1063 C1061 1.387 . S
C1063 C1065 1.390 . S
C1063 H1067 0.950 . S
H1064 C1060 0.950 . S
C1065 C1063 1.390 . S
C1065 C1066 1.387 . S
C1065 H1068 0.950 . S
C1066 C1065 1.387 . S
C1066 C1069 1.387 . S
H1067 C1063 0.950 . S
H1068 C1065 0.950 . S
C1069 C1060 1.390 . S
C1069 H1062 0.950 . S
C1069 C1066 1.387 . S
C1070 C1071 1.387 . S
C1070 H1074 0.950 . S
C1070 C1079 1.390 . S
C1071 C1070 1.387 . S
C1071 C1073 1.387 . S
H1072 C1079 0.950 . S
C1073 C1071 1.387 . S
C1073 C1075 1.390 . S
C1073 H1077 0.950 . S
H1074 C1070 0.950 . S
C1075 C1073 1.390 . S
C1075 C1076 1.387 . S
C1075 H1078 0.950 . S
C1076 C1075 1.387 . S
C1076 C1079 1.387 . S
H1077 C1073 0.950 . S
H1078 C1075 0.950 . S
C1079 C1070 1.390 . S
C1079 H1072 0.950 . S
C1079 C1076 1.387 . S
C1080 C1081 1.387 . S
C1080 H1084 0.950 . S
C1080 C1089 1.390 . S
C1081 C1080 1.387 . S
C1081 C1083 1.387 . S
H1082 C1089 0.950 . S
C1083 C1081 1.387 . S
C1083 C1085 1.390 . S
C1083 H1087 0.950 . S
H1084 C1080 0.950 . S
C1085 C1083 1.390 . S
C1085 C1086 1.387 . S
C1085 H1088 0.950 . S
C1086 C1085 1.387 . S
C1086 C1089 1.387 . S
H1087 C1083 0.950 . S
H1088 C1085 0.950 . S
C1089 C1080 1.390 . S
C1089 H1082 0.950 . S
C1089 C1086 1.387 . S
C1090 C1091 1.387 . S
C1090 H1094 0.950 . S
C1090 C1099 1.390 . S
C1091 C1090 1.387 . S
C1091 C1093 1.387 . S
H1092 C1099 0.950 . S
C1093 C1091 1.387 . S
C1093 C1095 1.390 . S
C1093 H1097 0.950 . S
H1094 C1090 0.950 . S
C1095 C1093 1.390 . S
C1095 C1096 1.387 . S
C1095 H1098 0.950 . S
C1096 C1095 1.387 . S
C1096 C1099 1.387 . S
H1097 C1093 0.950 . S
H1098 C1095 0.950 . S
C1099 C1090 1.390 . S
C1099 H1092 0.950 . S
C1099 C1096 1.387 . S
C1100 C1101 1.387 . S
C1100 H1104 0.950 . S
C1100 C1109 1.390 . S
C1101 C1100 1.387 . S
C1101 C1103 1.387 . S
H1102 C1109 0.950 . S
C1103 C1101 1.387 . S
C1103 C1105 1.390 . S
C1103 H1107 0.950 . S
H1104 C1100 0.950 . S
C1105 C1103 1.390 . S
C1105 C1106 1.387 . S
C1105 H1108 0.950 . S
C1106 C1105 1.387 . S
C1106 C1109 1.387 . S
H1107 C1103 0.950 . S
H1108 C1105 0.950 . S
C1109 C1100 1.390 . S
C1109 H1102 0.950 . S
C1109 C1106 1.387 . S
C1110 C1111 1.387 . S
C1110 H1114 0.950 . S
C1110 C1119 1.390 . S
C1111 C1110 1.387 . S
C1111 C1113 1.387 . S
H1112 C1119 0.950 . S
C1113 C1111 1.387 . S
C1113 C1115 1.390 . S
C1113 H1117 0.950 . S
H1114 C1110 0.950 . S
C1115 C1113 1.390 . S
C1115 C1116 1.387 . S
C1115 H1118 0.950 . S
C1116 C1115 1.387 . S
C1116 C1119 1.387 . S
H1117 C1113 0.950 . S
H1118 C1115 0.950 . S
C1119 C1110 1.390 . S
C1119 H1112 0.950 . S
C1119 C1116 1.387 . S
C641 C123 2.730 . S
C646 C22 2.696 . S
C651 C26 0.737 . S
C656 C66 0.726 . S
C661 C95 1.310 . S
C666 C55 1.285 . S
C671 C129 1.181 . S
C676 C102 1.243 . S
C681 C169 2.845 . S
C686 C222 2.818 . S
C691 C215 1.432 . S
C696 C255 1.396 . S
C701 C266 2.226 . S
C706 C282 2.345 . S
C711 C163 2.679 . S
C716 C283 2.641 . S
C721 C386 1.930 . S
C726 C15 1.933 1_655 S
C731 C422 2.086 . S
C736 C62 2.108 . S
C741 C106 1.113 . S
C746 C529 1.056 . S
C751 C322 1.783 . S
C756 C122 1.820 . S
C761 C442 0.977 . S
C766 C162 1.020 . S
C771 C575 1.830 . S
C776 C226 1.840 . S
C781 C262 2.315 . S
C786 C502 2.344 . S
C791 C603 2.542 . S
C796 C289 2.428 . S
C801 C323 2.028 . S
C806 C523 2.008 . S
C811 C382 2.814 . S
C816 C329 2.808 . S
C821 C415 1.261 . S
C826 C375 1.292 . S
C831 C582 2.007 . S
C836 C443 1.944 . S
C841 C495 1.329 . S
C846 C602 1.362 . S
C851 C462 2.730 . S
C856 C3 2.696 . S
C861 C489 0.726 . S
C866 C9 0.737 . S
C871 C482 1.283 . S
C876 C82 1.309 . S
C881 C83 1.246 . S
C886 C466 1.187 . S
C891 C363 2.817 . S
C896 C186 2.844 . S
C901 C362 1.431 . S
C906 C242 1.395 . S
C911 C535 2.345 . S
C916 C249 2.226 . S
C921 C182 2.678 . S
C926 C542 2.640 . S
C931 C209 1.931 . S
C936 C2 1.941 . S
C941 C403 2.086 . S
C946 C483 2.108 . S
C951 C89 1.113 . S
C956 C306 1.056 . S
C961 C335 1.784 . S
C966 C455 1.820 . S
C971 C135 0.977 . S
C976 C175 1.020 . S
C981 C369 1.841 . S
C986 C562 1.832 . S
C991 C243 2.314 . S
C996 C43 2.343 . S
C1001 C622 2.542 . S
C1006 C546 2.429 . S
C1011 C342 2.027 . S
C1016 C302 2.007 . S
C1021 C346 2.808 . S
C1026 C203 2.814 . S
C1031 C402 1.263 . S
C1036 C202 1.294 . S
C1041 C142 1.945 . S
C1046 C563 2.006 . S
C1051 C42 1.329 . S
C1056 C615 1.362 . S
C1061 C506 0.732 . S
C1066 C586 0.738 . S
C1071 C449 0.859 . S
C1076 C609 0.939 . S
C1081 C426 1.798 . S
C1086 C522 1.863 . S
C1091 C569 0.729 . S
C1096 C49 0.723 . S
C1101 C146 0.859 . S
C1106 C626 0.940 . S
C1111 C295 1.863 . S
C1116 C409 1.797 . S
