# Generated by pormake.
# Topology uot, (4)-cn, num edge types: 1
# Building blocks:
#     Node 0, Type 0, BuildingBlock: QUQFOY_clean_sbu_1, # of connection points: 4
#     Node 1, Type 0, BuildingBlock: QUQFOY_clean_sbu_1, # of connection points: 4
#     Node 2, Type 0, BuildingBlock: QUQFOY_clean_sbu_1, # of connection points: 4
#     Node 3, Type 0, BuildingBlock: QUQFOY_clean_sbu_1, # of connection points: 4
#     Node 4, Type 0, BuildingBlock: QUQFOY_clean_sbu_1, # of connection points: 4
#     Node 5, Type 0, BuildingBlock: QUQFOY_clean_sbu_1, # of connection points: 4
#     Node 6, Type 0, BuildingBlock: QUQFOY_clean_sbu_1, # of connection points: 4
#     Node 7, Type 0, BuildingBlock: QUQFOY_clean_sbu_1, # of connection points: 4
#     Node 8, Type 0, BuildingBlock: QUQFOY_clean_sbu_1, # of connection points: 4
#     Node 9, Type 0, BuildingBlock: QUQFOY_clean_sbu_1, # of connection points: 4
#     Node 10, Type 0, BuildingBlock: QUQFOY_clean_sbu_1, # of connection points: 4
#     Node 11, Type 0, BuildingBlock: QUQFOY_clean_sbu_1, # of connection points: 4
#     Node 12, Type 0, BuildingBlock: QUQFOY_clean_sbu_1, # of connection points: 4
#     Node 13, Type 0, BuildingBlock: QUQFOY_clean_sbu_1, # of connection points: 4
#     Node 14, Type 0, BuildingBlock: QUQFOY_clean_sbu_1, # of connection points: 4
#     Node 15, Type 0, BuildingBlock: QUQFOY_clean_sbu_1, # of connection points: 4
#     Edge 16, Type (0, 0), BuildingBlock: OJICUG_clean_linker_0, # of connection points: 2
#     Edge 17, Type (0, 0), BuildingBlock: OJICUG_clean_linker_0, # of connection points: 2
#     Edge 18, Type (0, 0), BuildingBlock: OJICUG_clean_linker_0, # of connection points: 2
#     Edge 19, Type (0, 0), BuildingBlock: OJICUG_clean_linker_0, # of connection points: 2
#     Edge 20, Type (0, 0), BuildingBlock: OJICUG_clean_linker_0, # of connection points: 2
#     Edge 21, Type (0, 0), BuildingBlock: OJICUG_clean_linker_0, # of connection points: 2
#     Edge 22, Type (0, 0), BuildingBlock: OJICUG_clean_linker_0, # of connection points: 2
#     Edge 23, Type (0, 0), BuildingBlock: OJICUG_clean_linker_0, # of connection points: 2
#     Edge 24, Type (0, 0), BuildingBlock: OJICUG_clean_linker_0, # of connection points: 2
#     Edge 25, Type (0, 0), BuildingBlock: OJICUG_clean_linker_0, # of connection points: 2
#     Edge 26, Type (0, 0), BuildingBlock: OJICUG_clean_linker_0, # of connection points: 2
#     Edge 27, Type (0, 0), BuildingBlock: OJICUG_clean_linker_0, # of connection points: 2
#     Edge 28, Type (0, 0), BuildingBlock: OJICUG_clean_linker_0, # of connection points: 2
#     Edge 29, Type (0, 0), BuildingBlock: OJICUG_clean_linker_0, # of connection points: 2
#     Edge 30, Type (0, 0), BuildingBlock: OJICUG_clean_linker_0, # of connection points: 2
#     Edge 31, Type (0, 0), BuildingBlock: OJICUG_clean_linker_0, # of connection points: 2
#     Edge 32, Type (0, 0), BuildingBlock: OJICUG_clean_linker_0, # of connection points: 2
#     Edge 33, Type (0, 0), BuildingBlock: OJICUG_clean_linker_0, # of connection points: 2
#     Edge 34, Type (0, 0), BuildingBlock: OJICUG_clean_linker_0, # of connection points: 2
#     Edge 35, Type (0, 0), BuildingBlock: OJICUG_clean_linker_0, # of connection points: 2
#     Edge 36, Type (0, 0), BuildingBlock: OJICUG_clean_linker_0, # of connection points: 2
#     Edge 37, Type (0, 0), BuildingBlock: OJICUG_clean_linker_0, # of connection points: 2
#     Edge 38, Type (0, 0), BuildingBlock: OJICUG_clean_linker_0, # of connection points: 2
#     Edge 39, Type (0, 0), BuildingBlock: OJICUG_clean_linker_0, # of connection points: 2
#     Edge 40, Type (0, 0), BuildingBlock: OJICUG_clean_linker_0, # of connection points: 2
#     Edge 41, Type (0, 0), BuildingBlock: OJICUG_clean_linker_0, # of connection points: 2
#     Edge 42, Type (0, 0), BuildingBlock: OJICUG_clean_linker_0, # of connection points: 2
#     Edge 43, Type (0, 0), BuildingBlock: OJICUG_clean_linker_0, # of connection points: 2
#     Edge 44, Type (0, 0), BuildingBlock: OJICUG_clean_linker_0, # of connection points: 2
#     Edge 45, Type (0, 0), BuildingBlock: OJICUG_clean_linker_0, # of connection points: 2
#     Edge 46, Type (0, 0), BuildingBlock: OJICUG_clean_linker_0, # of connection points: 2
#     Edge 47, Type (0, 0), BuildingBlock: OJICUG_clean_linker_0, # of connection points: 2
# Relax obj value: 0.059
# Max RMSD: 0.083
# Mean RMSD: 0.083
data_MOF--net-uot--node1-QUQFOY_clean_sbu_1--edge1-OJICUG_clean_linker_0
_symmetry_space_group_name_H-M    P1
_symmetry_Int_Tables_number       1
_symmetry_cell_setting            triclinic
loop_
_symmetry_equiv_pos_as_xyz
'x, y, z'
_cell_length_a     34.272277
_cell_length_b     34.279518
_cell_length_c     32.747648
_cell_angle_alpha  90.006162
_cell_angle_beta   89.998189
_cell_angle_gamma 90.006533
loop_
_atom_site_label
_atom_site_type_symbol
_atom_site_fract_x
_atom_site_fract_y
_atom_site_fract_z
_atom_type_partial_charge
O0 O 0.1796 0.39986 0.28661 0.0
Cd1 Cd 0.22592 0.43635 0.29767 0.0
Cd2 Cd 0.17727 0.45915 0.36199 0.0
O3 O 0.14522 0.41086 0.34244 0.0
O4 O 0.27016 0.41273 0.26677 0.0
O5 O 0.26941 0.41692 0.33411 0.0
C6 C 0.28655 0.40491 0.30126 0.0
C7 C 0.17885 0.47625 0.43167 0.0
C8 C 0.15016 0.39261 0.30893 0.0
C9 C 0.19438 0.51656 0.29238 0.0
O10 O 0.1759 0.50773 0.32474 0.0
O11 O 0.21838 0.49273 0.27642 0.0
O12 O 0.14731 0.47823 0.41046 0.0
O13 O 0.20961 0.46264 0.4139 0.0
O14 O 0.39997 0.83459 0.74219 0.0
Cd15 Cd 0.43649 0.78831 0.73108 0.0
Cd16 Cd 0.4592 0.83693 0.66679 0.0
O17 O 0.41091 0.86898 0.68637 0.0
O18 O 0.41292 0.74405 0.762 0.0
O19 O 0.41705 0.74481 0.69465 0.0
C20 C 0.40508 0.72767 0.72751 0.0
C21 C 0.47618 0.83515 0.59709 0.0
C22 C 0.39269 0.86403 0.71989 0.0
C23 C 0.51671 0.8199 0.73631 0.0
O24 O 0.50783 0.83838 0.70397 0.0
O25 O 0.49289 0.79588 0.75228 0.0
O26 O 0.4782 0.86674 0.61819 0.0
O27 O 0.4626 0.80444 0.61498 0.0
O28 O 0.83451 0.61322 0.2865 0.0
Cd29 Cd 0.78819 0.57675 0.29765 0.0
Cd30 Cd 0.83679 0.55411 0.362 0.0
O31 O 0.86888 0.60234 0.34235 0.0
O32 O 0.74394 0.6003 0.26671 0.0
O33 O 0.74471 0.59623 0.33406 0.0
C34 C 0.72756 0.60818 0.30119 0.0
C35 C 0.83507 0.53723 0.43173 0.0
C36 C 0.86395 0.62051 0.30881 0.0
C37 C 0.81974 0.49653 0.29253 0.0
O38 O 0.83821 0.50544 0.32487 0.0
O39 O 0.79575 0.52033 0.27652 0.0
O40 O 0.86665 0.53517 0.41059 0.0
O41 O 0.80435 0.55078 0.41385 0.0
O42 O 0.61349 0.17955 0.74258 0.0
Cd43 Cd 0.57698 0.22583 0.73149 0.0
Cd44 Cd 0.55425 0.1772 0.66713 0.0
O45 O 0.60253 0.14517 0.68674 0.0
O46 O 0.60055 0.27009 0.7624 0.0
O47 O 0.59641 0.26932 0.69506 0.0
C48 C 0.60839 0.28647 0.72791 0.0
C49 C 0.53726 0.17876 0.59742 0.0
C50 C 0.62076 0.15011 0.72026 0.0
C51 C 0.49675 0.19428 0.73668 0.0
O52 O 0.50562 0.17582 0.70432 0.0
O53 O 0.52057 0.21826 0.75268 0.0
O54 O 0.53524 0.14723 0.61864 0.0
O55 O 0.55083 0.20952 0.61521 0.0
O56 O 0.17927 0.6138 0.74187 0.0
Cd57 Cd 0.22558 0.57731 0.73081 0.0
Cd58 Cd 0.17694 0.55455 0.66648 0.0
O59 O 0.14488 0.60283 0.68604 0.0
O60 O 0.26978 0.60088 0.76181 0.0
O61 O 0.26913 0.59678 0.69447 0.0
C62 C 0.28622 0.60874 0.72736 0.0
C63 C 0.17866 0.53752 0.59679 0.0
C64 C 0.14983 0.62106 0.71956 0.0
C65 C 0.194 0.49709 0.73604 0.0
O66 O 0.17552 0.50595 0.70369 0.0
O67 O 0.21801 0.52091 0.752 0.0
O68 O 0.14708 0.53552 0.61792 0.0
O69 O 0.20939 0.55111 0.61464 0.0
O70 O 0.61376 0.834 0.28685 0.0
Cd71 Cd 0.57725 0.78769 0.29787 0.0
Cd72 Cd 0.55446 0.83633 0.36225 0.0
O73 O 0.60276 0.86836 0.34269 0.0
O74 O 0.60083 0.7435 0.26686 0.0
O75 O 0.5967 0.74414 0.3342 0.0
C76 C 0.60868 0.72705 0.30131 0.0
C77 C 0.53738 0.83481 0.43194 0.0
C78 C 0.62102 0.86343 0.30918 0.0
C79 C 0.49701 0.81924 0.29264 0.0
O80 O 0.50586 0.8377 0.32501 0.0
O81 O 0.52085 0.79527 0.27666 0.0
O82 O 0.53539 0.86632 0.4107 0.0
O83 O 0.55097 0.80404 0.41419 0.0
O84 O 0.83423 0.40034 0.74223 0.0
Cd85 Cd 0.78791 0.43681 0.73114 0.0
Cd86 Cd 0.83653 0.4595 0.66674 0.0
O87 O 0.86858 0.41125 0.68637 0.0
O88 O 0.7437 0.41327 0.76216 0.0
O89 O 0.74436 0.41731 0.69481 0.0
C90 C 0.72726 0.40538 0.72772 0.0
C91 C 0.83492 0.47642 0.59701 0.0
C92 C 0.86366 0.39306 0.71991 0.0
C93 C 0.81947 0.51704 0.73624 0.0
O94 O 0.83792 0.50815 0.70389 0.0
O95 O 0.79548 0.49323 0.75227 0.0
O96 O 0.86646 0.47847 0.61821 0.0
O97 O 0.80416 0.46286 0.61483 0.0
O98 O 0.40027 0.17901 0.28697 0.0
Cd99 Cd 0.43677 0.22532 0.29809 0.0
Cd100 Cd 0.45941 0.17672 0.36246 0.0
O101 O 0.41116 0.14465 0.34282 0.0
O102 O 0.41326 0.26952 0.26705 0.0
O103 O 0.41728 0.26887 0.3344 0.0
C104 C 0.40536 0.28596 0.3015 0.0
C105 C 0.47631 0.17849 0.43218 0.0
C106 C 0.39298 0.14958 0.30928 0.0
C107 C 0.517 0.19374 0.29299 0.0
O108 O 0.50809 0.17528 0.32534 0.0
O109 O 0.49321 0.21773 0.27698 0.0
O110 O 0.47835 0.1469 0.41107 0.0
O111 O 0.46275 0.20919 0.41429 0.0
O112 O 0.67927 0.90033 0.78683 0.0
Cd113 Cd 0.7256 0.9368 0.79797 0.0
Cd114 Cd 0.67699 0.95944 0.86235 0.0
O115 O 0.64491 0.91122 0.84269 0.0
O116 O 0.76982 0.91328 0.76695 0.0
O117 O 0.76913 0.91729 0.8343 0.0
C118 C 0.78624 0.90537 0.8014 0.0
C119 C 0.67871 0.97632 0.93208 0.0
C120 C 0.64983 0.89304 0.80914 0.0
C121 C 0.69405 0.01703 0.7929 0.0
O122 O 0.67558 0.00812 0.82524 0.0
O123 O 0.71804 0.99323 0.77687 0.0
O124 O 0.64714 0.97839 0.91094 0.0
O125 O 0.70944 0.96277 0.9142 0.0
O126 O 0.90031 0.33402 0.2422 0.0
Cd127 Cd 0.93682 0.28772 0.23112 0.0
Cd128 Cd 0.95954 0.33635 0.16673 0.0
O129 O 0.91126 0.36838 0.18635 0.0
O130 O 0.91327 0.24352 0.26215 0.0
O131 O 0.91735 0.24417 0.1948 0.0
C132 C 0.9054 0.22708 0.2277 0.0
C133 C 0.97653 0.33481 0.09702 0.0
C134 C 0.89304 0.36344 0.21987 0.0
C135 C 0.01706 0.31929 0.23627 0.0
O136 O 0.00818 0.33774 0.20391 0.0
O137 O 0.99323 0.29531 0.25228 0.0
O138 O 0.97855 0.36633 0.11825 0.0
O139 O 0.96296 0.30404 0.11479 0.0
O140 O 0.3342 0.11374 0.78701 0.0
Cd141 Cd 0.28787 0.07725 0.79802 0.0
Cd142 Cd 0.33652 0.05444 0.86238 0.0
O143 O 0.36857 0.10273 0.84284 0.0
O144 O 0.24369 0.10085 0.767 0.0
O145 O 0.2443 0.09672 0.83434 0.0
C146 C 0.22724 0.1087 0.80144 0.0
C147 C 0.33494 0.03734 0.93205 0.0
C148 C 0.36364 0.12098 0.80934 0.0
C149 C 0.31942 0.99703 0.79274 0.0
O150 O 0.33789 1.00586 0.82511 0.0
O151 O 0.29543 0.02087 0.77678 0.0
O152 O 0.36647 0.03535 0.91084 0.0
O153 O 0.30418 0.05094 0.91429 0.0
O154 O 0.11383 0.679 0.24191 0.0
Cd155 Cd 0.07731 0.72529 0.23084 0.0
Cd156 Cd 0.05461 0.67668 0.16649 0.0
O157 O 0.10289 0.64463 0.18606 0.0
O158 O 0.10085 0.7695 0.26187 0.0
O159 O 0.09677 0.76885 0.19452 0.0
C160 C 0.10872 0.78594 0.22742 0.0
C161 C 0.03763 0.67845 0.09679 0.0
C162 C 0.12111 0.64958 0.21958 0.0
C163 C 0.99709 0.69369 0.23602 0.0
O164 O 1.00597 0.67522 0.20367 0.0
O165 O 0.0209 0.71769 0.25201 0.0
O166 O 0.03561 0.64686 0.1179 0.0
O167 O 0.0512 0.70916 0.11468 0.0
O168 O 0.67957 0.11322 0.24261 0.0
Cd169 Cd 0.72588 0.07675 0.23146 0.0
Cd170 Cd 0.67726 0.05407 0.1671 0.0
O171 O 0.64521 0.10232 0.18675 0.0
O172 O 0.77015 0.10031 0.26237 0.0
O173 O 0.76935 0.09622 0.19502 0.0
C174 C 0.78652 0.10818 0.22788 0.0
C175 C 0.67886 0.03715 0.09737 0.0
C176 C 0.65014 0.12051 0.22029 0.0
C177 C 0.69434 0.99652 0.23658 0.0
O178 O 0.67587 1.00542 0.20424 0.0
O179 O 0.71833 0.02033 0.2526 0.0
O180 O 0.64732 0.0351 0.11857 0.0
O181 O 0.70962 0.05071 0.11519 0.0
O182 O 0.11352 0.33458 0.78657 0.0
Cd183 Cd 0.07702 0.28829 0.79772 0.0
Cd184 Cd 0.05438 0.33688 0.86205 0.0
O185 O 0.10263 0.36895 0.84241 0.0
O186 O 0.10056 0.24402 0.7668 0.0
O187 O 0.09648 0.24481 0.83415 0.0
C188 C 0.10842 0.22765 0.80128 0.0
C189 C 0.03748 0.33511 0.93177 0.0
C190 C 0.12081 0.36402 0.80887 0.0
C191 C 0.99679 0.31985 0.79259 0.0
O192 O 1.0057 0.33832 0.82493 0.0
O193 O 0.02059 0.29584 0.77658 0.0
O194 O 0.03543 0.3667 0.91067 0.0
O195 O 0.05104 0.30441 0.91386 0.0
O196 O 0.33452 0.8998 0.24223 0.0
Cd197 Cd 0.28822 0.9363 0.23116 0.0
Cd198 Cd 0.33685 0.95905 0.16685 0.0
O199 O 0.3689 0.91077 0.1864 0.0
O200 O 0.24397 0.91271 0.26208 0.0
O201 O 0.24471 0.91686 0.19474 0.0
C202 C 0.22758 0.90487 0.2276 0.0
C203 C 0.33512 0.97608 0.09716 0.0
C204 C 0.36396 0.89254 0.21991 0.0
C205 C 0.31979 0.01651 0.23642 0.0
O206 O 0.33827 0.00765 0.20407 0.0
O207 O 0.29578 0.99269 0.25238 0.0
O208 O 0.3667 0.97809 0.1183 0.0
O209 O 0.3044 0.96249 0.11502 0.0
O210 O 0.90004 0.67957 0.78658 0.0
Cd211 Cd 0.93655 0.72587 0.79764 0.0
Cd212 Cd 0.95935 0.67722 0.86196 0.0
O213 O 0.91104 0.64519 0.84239 0.0
O214 O 0.91295 0.77011 0.76672 0.0
O215 O 0.91713 0.76937 0.83406 0.0
C216 C 0.90513 0.7865 0.80121 0.0
C217 C 0.97643 0.67876 0.93165 0.0
C218 C 0.89279 0.65013 0.80889 0.0
C219 C 0.01678 0.69433 0.79235 0.0
O220 O 0.00794 0.67586 0.82471 0.0
O221 O 0.99294 0.71832 0.77639 0.0
O222 O 0.97842 0.64724 0.91041 0.0
O223 O 0.96283 0.70952 0.9139 0.0
C224 C 0.33485 0.36336 0.33968 0.0
C225 C 0.3217 0.37961 0.3027 0.0
H226 H 0.37197 0.32107 0.36848 0.0
C227 C 0.33987 0.36809 0.26615 0.0
H228 H 0.32148 0.37162 0.36838 0.0
C229 C 0.36867 0.33925 0.26621 0.0
C230 C 0.3801 0.32114 0.30281 0.0
H231 H 0.33072 0.38017 0.23713 0.0
H232 H 0.3808 0.33003 0.23723 0.0
C233 C 0.36379 0.33439 0.33974 0.0
C234 C 0.36833 0.67432 0.76264 0.0
C235 C 0.37981 0.69249 0.72609 0.0
H236 H 0.33032 0.63336 0.79159 0.0
C237 C 0.36355 0.67931 0.68912 0.0
H238 H 0.38043 0.68349 0.79165 0.0
C239 C 0.3346 0.65034 0.68908 0.0
C240 C 0.32139 0.63404 0.72602 0.0
H241 H 0.37177 0.69268 0.66041 0.0
H242 H 0.32126 0.64214 0.66035 0.0
C243 C 0.33952 0.64549 0.76261 0.0
C244 C 0.64542 0.67376 0.26607 0.0
C245 C 0.63396 0.69189 0.30266 0.0
H246 H 0.68341 0.63285 0.23703 0.0
C247 C 0.65024 0.67867 0.33959 0.0
H248 H 0.6333 0.68296 0.23708 0.0
C249 C 0.67921 0.64972 0.33957 0.0
C250 C 0.69239 0.63346 0.3026 0.0
H251 H 0.64204 0.692 0.36833 0.0
H252 H 0.69256 0.64149 0.36828 0.0
C253 C 0.67424 0.64495 0.26604 0.0
C254 C 0.64515 0.33983 0.76303 0.0
C255 C 0.63366 0.32164 0.72648 0.0
H256 H 0.68317 0.38079 0.79196 0.0
C257 C 0.64991 0.33481 0.6895 0.0
H258 H 0.63306 0.33067 0.79204 0.0
C259 C 0.67887 0.36378 0.68946 0.0
C260 C 0.69209 0.38009 0.72638 0.0
H261 H 0.64168 0.32144 0.6608 0.0
H262 H 0.6922 0.37197 0.66072 0.0
C263 C 0.67397 0.36865 0.76298 0.0
C264 C 0.83463 0.86379 0.83966 0.0
C265 C 0.82141 0.88009 0.80273 0.0
H266 H 0.87182 0.82147 0.86832 0.0
C267 C 0.83953 0.86865 0.76614 0.0
H268 H 0.8213 0.87198 0.8684 0.0
C269 C 0.86835 0.83983 0.76609 0.0
C270 C 0.87984 0.82166 0.80264 0.0
H271 H 0.83033 0.88078 0.73715 0.0
H272 H 0.88044 0.83067 0.73707 0.0
C273 C 0.86359 0.83483 0.83961 0.0
C274 C 0.83485 0.14972 0.18948 0.0
C275 C 0.82169 0.13346 0.22645 0.0
H276 H 0.87199 0.19201 0.1607 0.0
C277 C 0.83987 0.14495 0.263 0.0
H278 H 0.82148 0.14149 0.16078 0.0
C279 C 0.86869 0.17378 0.26295 0.0
C280 C 0.88012 0.1919 0.22636 0.0
H281 H 0.83071 0.13286 0.29202 0.0
H282 H 0.88082 0.18298 0.29194 0.0
C283 C 0.86381 0.17868 0.18943 0.0
C284 C 0.14993 0.17929 0.83968 0.0
C285 C 0.13369 0.19248 0.8027 0.0
H286 H 0.19218 0.14211 0.86845 0.0
C287 C 0.14517 0.1743 0.76615 0.0
H288 H 0.1417 0.19266 0.86838 0.0
C289 C 0.17397 0.14547 0.76619 0.0
C290 C 0.19208 0.13401 0.80278 0.0
H291 H 0.13309 0.18348 0.73714 0.0
H292 H 0.18317 0.13333 0.7372 0.0
C293 C 0.17887 0.15031 0.83972 0.0
C294 C 0.17425 0.86807 0.26272 0.0
C295 C 0.19241 0.87958 0.22617 0.0
H296 H 0.13331 0.83003 0.29166 0.0
C297 C 0.17924 0.86332 0.18919 0.0
H298 H 0.18342 0.88017 0.29174 0.0
C299 C 0.15028 0.83435 0.18915 0.0
C300 C 0.13399 0.82112 0.22608 0.0
H301 H 0.1926 0.87156 0.16049 0.0
H302 H 0.14209 0.82102 0.16041 0.0
C303 C 0.14544 0.83924 0.26268 0.0
C304 C 0.17718 0.55434 0.22942 0.0
C305 C 0.18418 0.55343 0.2717 0.0
H306 H 0.15121 0.58554 0.17945 0.0
C307 C 0.17508 0.58635 0.29525 0.0
H308 H 0.18362 0.5291 0.21068 0.0
C309 C 0.15725 0.61873 0.27744 0.0
C310 C 0.14712 0.61857 0.23578 0.0
H311 H 0.18019 0.58636 0.32791 0.0
H312 H 0.14921 0.64289 0.29703 0.0
C313 C 0.15841 0.58652 0.21163 0.0
C314 C 0.55456 0.83699 0.79927 0.0
C315 C 0.5536 0.83011 0.75697 0.0
H316 H 0.58584 0.86284 0.84927 0.0
C317 C 0.58649 0.83928 0.7334 0.0
H318 H 0.52935 0.83049 0.81803 0.0
C319 C 0.6189 0.85708 0.75121 0.0
C320 C 0.61879 0.86709 0.7929 0.0
H321 H 0.58645 0.83426 0.70072 0.0
H322 H 0.64303 0.86518 0.73161 0.0
C323 C 0.58677 0.85573 0.81706 0.0
C324 C 0.85567 0.42645 0.21187 0.0
C325 C 0.86703 0.39446 0.23606 0.0
H326 H 0.8304 0.48383 0.21083 0.0
C327 C 0.85698 0.39437 0.27774 0.0
H328 H 0.86282 0.42736 0.17966 0.0
C329 C 0.83914 0.42677 0.29551 0.0
C330 C 0.82996 0.45963 0.27191 0.0
H331 H 0.86508 0.37027 0.29736 0.0
H332 H 0.83409 0.42683 0.32818 0.0
C333 C 0.83689 0.45864 0.22962 0.0
C334 C 0.45891 0.17705 0.79961 0.0
C335 C 0.45985 0.18406 0.75733 0.0
H336 H 0.42766 0.15107 0.84954 0.0
C337 C 0.42694 0.17497 0.73375 0.0
H338 H 0.48413 0.18349 0.81837 0.0
C339 C 0.39454 0.15713 0.75152 0.0
C340 C 0.39467 0.14699 0.79318 0.0
H341 H 0.42697 0.18008 0.70109 0.0
H342 H 0.3704 0.14909 0.73191 0.0
C343 C 0.4267 0.15828 0.81735 0.0
C344 C 0.17462 0.42732 0.73313 0.0
C345 C 0.18379 0.46021 0.7567 0.0
H346 H 0.1487 0.37079 0.73135 0.0
C347 C 0.17689 0.45926 0.799 0.0
H348 H 0.17965 0.42735 0.70046 0.0
C349 C 0.15814 0.42706 0.81679 0.0
C350 C 0.14678 0.39505 0.79264 0.0
H351 H 0.18338 0.48447 0.81776 0.0
H352 H 0.15101 0.42801 0.849 0.0
C353 C 0.15681 0.39492 0.75095 0.0
C354 C 0.42702 0.85524 0.21193 0.0
C355 C 0.39498 0.86653 0.23609 0.0
H356 H 0.48444 0.83002 0.21094 0.0
C357 C 0.39483 0.85641 0.27775 0.0
H358 H 0.42799 0.86244 0.17974 0.0
C359 C 0.42722 0.83856 0.29554 0.0
C360 C 0.46013 0.82946 0.27197 0.0
H361 H 0.37068 0.86445 0.29735 0.0
H362 H 0.42723 0.83346 0.3282 0.0
C363 C 0.45921 0.83646 0.22969 0.0
C364 C 0.83666 0.55491 0.79916 0.0
C365 C 0.8297 0.55394 0.75687 0.0
H366 H 0.86262 0.58618 0.8491 0.0
C367 C 0.83884 0.58682 0.73328 0.0
H368 H 0.83019 0.52971 0.81794 0.0
C369 C 0.85669 0.61922 0.75105 0.0
C370 C 0.86678 0.61911 0.79272 0.0
H371 H 0.83376 0.58677 0.70061 0.0
H372 H 0.86477 0.64333 0.73143 0.0
C373 C 0.85544 0.58711 0.8169 0.0
C374 C 0.58712 0.15787 0.21232 0.0
C375 C 0.6191 0.14648 0.23651 0.0
H376 H 0.52973 0.18316 0.21128 0.0
C377 C 0.61917 0.15647 0.2782 0.0
H378 H 0.58622 0.15077 0.1801 0.0
C379 C 0.58677 0.1743 0.29599 0.0
C380 C 0.55391 0.18351 0.27238 0.0
H381 H 0.64327 0.14834 0.29783 0.0
H382 H 0.5867 0.17931 0.32866 0.0
C383 C 0.55491 0.17663 0.23008 0.0
C384 C 0.6769 0.05491 0.72999 0.0
C385 C 0.68382 0.05393 0.77228 0.0
H386 H 0.65099 0.08619 0.68004 0.0
C387 C 0.67464 0.08679 0.7959 0.0
H388 H 0.6834 0.02973 0.7112 0.0
C389 C 0.6568 0.11919 0.77813 0.0
C390 C 0.64676 0.11909 0.73645 0.0
H391 H 0.67968 0.08673 0.82857 0.0
H392 H 0.64869 0.14329 0.79776 0.0
C393 C 0.65813 0.08711 0.71225 0.0
C394 C 0.11925 0.35649 0.25109 0.0
C395 C 0.11913 0.3666 0.29276 0.0
H396 H 0.08681 0.33355 0.20066 0.0
C397 C 0.08711 0.35529 0.31694 0.0
H398 H 0.14338 0.36456 0.23148 0.0
C399 C 0.05491 0.3365 0.29919 0.0
C400 C 0.05395 0.32952 0.25691 0.0
H401 H 0.08617 0.36248 0.34913 0.0
H402 H 0.02969 0.33005 0.31797 0.0
C403 C 0.08685 0.33865 0.23332 0.0
C404 C 0.33874 0.92725 0.79559 0.0
C405 C 0.32963 0.96017 0.77204 0.0
H406 H 0.36463 0.87072 0.79735 0.0
C407 C 0.33661 0.95926 0.72976 0.0
H408 H 0.33364 0.92724 0.82825 0.0
C409 C 0.35539 0.92708 0.71197 0.0
C410 C 0.36669 0.89504 0.7361 0.0
H411 H 0.33017 0.98449 0.71102 0.0
H412 H 0.36258 0.92806 0.67978 0.0
C413 C 0.35657 0.89487 0.77776 0.0
C414 C 0.8949 0.65647 0.25089 0.0
C415 C 0.895 0.64647 0.29258 0.0
H416 H 0.92736 0.67929 0.20041 0.0
C417 C 0.92701 0.65784 0.31675 0.0
H418 H 0.87078 0.64836 0.23128 0.0
C419 C 0.95922 0.67658 0.29897 0.0
C420 C 0.96019 0.68347 0.25667 0.0
H421 H 0.92793 0.65074 0.34896 0.0
H422 H 0.98442 0.68309 0.31774 0.0
C423 C 0.92731 0.67428 0.23309 0.0
C424 C 0.67498 0.92675 0.23359 0.0
C425 C 0.68411 0.95963 0.2572 0.0
H426 H 0.64905 0.87023 0.23172 0.0
C427 C 0.67714 0.95865 0.29949 0.0
H428 H 0.68006 0.9268 0.20093 0.0
C429 C 0.65836 0.92645 0.31722 0.0
C430 C 0.64703 0.89445 0.29302 0.0
H431 H 0.68361 0.98385 0.31827 0.0
H432 H 0.65118 0.92737 0.34942 0.0
C433 C 0.65713 0.89435 0.25136 0.0
C434 C 0.92669 0.35571 0.71192 0.0
C435 C 0.8947 0.36708 0.73611 0.0
H436 H 0.98409 0.33045 0.71088 0.0
C437 C 0.89461 0.35707 0.77779 0.0
H438 H 0.9276 0.36284 0.67971 0.0
C439 C 0.92702 0.33925 0.79557 0.0
C440 C 0.95989 0.33006 0.77196 0.0
H441 H 0.8705 0.36518 0.79742 0.0
H442 H 0.92708 0.33422 0.82824 0.0
C443 C 0.9589 0.33696 0.72967 0.0
C444 C 0.35696 0.11868 0.25136 0.0
C445 C 0.367 0.11855 0.29304 0.0
H446 H 0.33411 0.08626 0.20087 0.0
C447 C 0.35566 0.08653 0.31719 0.0
H448 H 0.36505 0.14282 0.23177 0.0
C449 C 0.33691 0.05433 0.29939 0.0
C450 C 0.33 0.05339 0.2571 0.0
H451 H 0.36279 0.08558 0.3494 0.0
H452 H 0.33043 0.02912 0.31815 0.0
C453 C 0.33915 0.08629 0.23354 0.0
C454 C 0.08676 0.65835 0.71161 0.0
C455 C 0.11881 0.64707 0.73575 0.0
H456 H 0.02933 0.68355 0.71064 0.0
C457 C 0.11897 0.6572 0.77741 0.0
H458 H 0.08578 0.65114 0.67942 0.0
C459 C 0.08658 0.67504 0.79522 0.0
C460 C 0.05366 0.68413 0.77166 0.0
H461 H 0.14313 0.64916 0.797 0.0
H462 H 0.08658 0.68015 0.82788 0.0
C463 C 0.05457 0.67712 0.72939 0.0
C464 C 0.14421 0.51466 0.5339 0.0
C465 C 0.17943 0.52286 0.55414 0.0
H466 H 0.1165 0.49352 0.47977 0.0
C467 C 0.21482 0.51492 0.534 0.0
H468 H 0.11642 0.5203 0.54851 0.0
C469 C 0.21486 0.49886 0.49454 0.0
C470 C 0.17952 0.49093 0.47431 0.0
H471 H 0.24244 0.5206 0.54892 0.0
H472 H 0.24252 0.49316 0.4797 0.0
C473 C 0.14426 0.49915 0.49446 0.0
C474 C 0.51451 0.86945 0.49471 0.0
C475 C 0.52271 0.83417 0.47459 0.0
H476 H 0.49338 0.89733 0.54875 0.0
C477 C 0.51479 0.79886 0.49485 0.0
H478 H 0.52013 0.89719 0.47999 0.0
C479 C 0.49875 0.79894 0.53432 0.0
C480 C 0.49082 0.83434 0.55443 0.0
H481 H 0.52048 0.77119 0.48003 0.0
H482 H 0.49307 0.77133 0.54927 0.0
C483 C 0.49901 0.86953 0.53415 0.0
C484 C 0.79892 0.5148 0.49458 0.0
C485 C 0.83431 0.52268 0.47441 0.0
H486 H 0.77123 0.49321 0.54896 0.0
C487 C 0.86953 0.51453 0.49466 0.0
H488 H 0.77129 0.52045 0.47966 0.0
C489 C 0.86949 0.49913 0.53415 0.0
C490 C 0.83423 0.49098 0.55433 0.0
H491 H 0.89732 0.52012 0.48002 0.0
H492 H 0.89725 0.49354 0.54884 0.0
C493 C 0.79889 0.49886 0.53409 0.0
C494 C 0.49903 0.14408 0.49514 0.0
C495 C 0.49088 0.17928 0.47486 0.0
H496 H 0.52006 0.1164 0.54932 0.0
C497 C 0.49879 0.21467 0.495 0.0
H498 H 0.49342 0.11629 0.48052 0.0
C499 C 0.51476 0.21473 0.5345 0.0
C500 C 0.52265 0.17941 0.55476 0.0
H501 H 0.49314 0.24228 0.48006 0.0
H502 H 0.52044 0.24239 0.54934 0.0
C503 C 0.51447 0.14414 0.53461 0.0
C504 C 0.71489 0.0147 0.03445 0.0
C505 C 0.67955 0.02258 0.05469 0.0
H506 H 0.74249 0.99311 0.98001 0.0
C507 C 0.64429 0.01443 0.03451 0.0
H508 H 0.74255 0.02036 0.04932 0.0
C509 C 0.64425 0.99902 0.99502 0.0
C510 C 0.67947 0.99088 0.97477 0.0
H511 H 0.61653 0.02002 0.0492 0.0
H512 H 0.61647 0.99343 0.98038 0.0
C513 C 0.71486 0.99876 0.99494 0.0
C514 C 0.01475 0.3695 0.99474 0.0
C515 C 0.02291 0.33431 0.97445 0.0
H516 H 0.99371 0.39717 0.04893 0.0
C517 C 0.01501 0.29892 0.99458 0.0
H518 H 0.02035 0.3973 0.98013 0.0
C519 C 0.99903 0.29884 0.03407 0.0
C520 C 0.99113 0.33416 0.05435 0.0
H521 H 0.02066 0.2713 0.97963 0.0
H522 H 0.99336 0.27118 0.04891 0.0
C523 C 0.99931 0.36943 0.03421 0.0
C524 C 0.29892 0.01473 0.99492 0.0
C525 C 0.33426 0.02266 0.97469 0.0
H526 H 0.27134 0.993 0.0493 0.0
C527 C 0.36953 0.01444 0.99484 0.0
H528 H 0.27126 0.02043 0.98009 0.0
C529 C 0.36957 0.99893 0.03427 0.0
C530 C 0.33435 0.99074 0.05452 0.0
H531 H 0.39728 0.02007 0.98015 0.0
H532 H 0.39736 0.9933 0.04889 0.0
C533 C 0.29897 0.99868 0.03438 0.0
C534 C 0.99902 0.71472 0.99456 0.0
C535 C 0.9911 0.6794 0.9743 0.0
H536 H 0.02072 0.74226 0.04898 0.0
C537 C 0.99931 0.64413 0.99441 0.0
H538 H 0.99332 0.74238 0.97975 0.0
C539 C 0.01481 0.64406 0.03385 0.0
C540 C 0.02299 0.67925 0.05414 0.0
H541 H 0.9937 0.61639 0.97969 0.0
H542 H 0.02044 0.61626 0.04844 0.0
C543 C 0.01505 0.71465 0.03403 0.0
loop_
_geom_bond_atom_site_label_1
_geom_bond_atom_site_label_2
_geom_bond_distance
_geom_bond_site_symmetry_2
_ccdc_geom_bond_type
O0 Cd1 2.223 . S
O0 C8 1.315 . S
Cd1 O0 2.223 . S
Cd1 O4 2.297 . S
Cd1 O5 2.439 . S
Cd1 O11 2.240 . S
Cd2 O3 2.240 . S
Cd2 O10 2.223 . S
Cd2 O12 2.297 . S
Cd2 O13 2.439 . S
O3 Cd2 2.240 . S
O3 C8 1.279 . S
O4 Cd1 2.297 . S
O4 C6 1.247 . S
O5 Cd1 2.439 . S
O5 C6 1.208 . S
C6 O4 1.247 . S
C6 O5 1.208 . S
C7 O12 1.247 . S
C7 O13 1.208 . S
C8 O0 1.315 . S
C8 O3 1.279 . S
C9 O10 1.315 . S
C9 O11 1.279 . S
O10 Cd2 2.223 . S
O10 C9 1.315 . S
O11 Cd1 2.240 . S
O11 C9 1.279 . S
O12 Cd2 2.297 . S
O12 C7 1.247 . S
O13 Cd2 2.439 . S
O13 C7 1.208 . S
O14 Cd15 2.223 . S
O14 C22 1.315 . S
Cd15 O14 2.223 . S
Cd15 O18 2.297 . S
Cd15 O19 2.439 . S
Cd15 O25 2.240 . S
Cd16 O17 2.240 . S
Cd16 O24 2.223 . S
Cd16 O26 2.297 . S
Cd16 O27 2.439 . S
O17 Cd16 2.240 . S
O17 C22 1.279 . S
O18 Cd15 2.297 . S
O18 C20 1.247 . S
O19 Cd15 2.439 . S
O19 C20 1.208 . S
C20 O18 1.247 . S
C20 O19 1.208 . S
C21 O26 1.247 . S
C21 O27 1.208 . S
C22 O14 1.315 . S
C22 O17 1.279 . S
C23 O24 1.315 . S
C23 O25 1.279 . S
O24 Cd16 2.223 . S
O24 C23 1.315 . S
O25 Cd15 2.240 . S
O25 C23 1.279 . S
O26 Cd16 2.297 . S
O26 C21 1.247 . S
O27 Cd16 2.439 . S
O27 C21 1.208 . S
O28 Cd29 2.223 . S
O28 C36 1.315 . S
Cd29 O28 2.223 . S
Cd29 O32 2.297 . S
Cd29 O33 2.439 . S
Cd29 O39 2.240 . S
Cd30 O31 2.240 . S
Cd30 O38 2.223 . S
Cd30 O40 2.297 . S
Cd30 O41 2.439 . S
O31 Cd30 2.240 . S
O31 C36 1.279 . S
O32 Cd29 2.297 . S
O32 C34 1.247 . S
O33 Cd29 2.439 . S
O33 C34 1.208 . S
C34 O32 1.247 . S
C34 O33 1.208 . S
C35 O40 1.247 . S
C35 O41 1.208 . S
C36 O28 1.315 . S
C36 O31 1.279 . S
C37 O38 1.315 . S
C37 O39 1.279 . S
O38 Cd30 2.223 . S
O38 C37 1.315 . S
O39 Cd29 2.240 . S
O39 C37 1.279 . S
O40 Cd30 2.297 . S
O40 C35 1.247 . S
O41 Cd30 2.439 . S
O41 C35 1.208 . S
O42 Cd43 2.223 . S
O42 C50 1.315 . S
Cd43 O42 2.223 . S
Cd43 O46 2.297 . S
Cd43 O47 2.439 . S
Cd43 O53 2.240 . S
Cd44 O45 2.240 . S
Cd44 O52 2.223 . S
Cd44 O54 2.297 . S
Cd44 O55 2.439 . S
O45 Cd44 2.240 . S
O45 C50 1.279 . S
O46 Cd43 2.297 . S
O46 C48 1.247 . S
O47 Cd43 2.439 . S
O47 C48 1.208 . S
C48 O46 1.247 . S
C48 O47 1.208 . S
C49 O54 1.247 . S
C49 O55 1.208 . S
C50 O42 1.315 . S
C50 O45 1.279 . S
C51 O52 1.315 . S
C51 O53 1.279 . S
O52 Cd44 2.223 . S
O52 C51 1.315 . S
O53 Cd43 2.240 . S
O53 C51 1.279 . S
O54 Cd44 2.297 . S
O54 C49 1.247 . S
O55 Cd44 2.439 . S
O55 C49 1.208 . S
O56 Cd57 2.223 . S
O56 C64 1.315 . S
Cd57 O56 2.223 . S
Cd57 O60 2.297 . S
Cd57 O61 2.439 . S
Cd57 O67 2.240 . S
Cd58 O59 2.240 . S
Cd58 O66 2.223 . S
Cd58 O68 2.297 . S
Cd58 O69 2.439 . S
O59 Cd58 2.240 . S
O59 C64 1.279 . S
O60 Cd57 2.297 . S
O60 C62 1.247 . S
O61 Cd57 2.439 . S
O61 C62 1.208 . S
C62 O60 1.247 . S
C62 O61 1.208 . S
C63 O68 1.247 . S
C63 O69 1.208 . S
C64 O56 1.315 . S
C64 O59 1.279 . S
C65 O66 1.315 . S
C65 O67 1.279 . S
O66 Cd58 2.223 . S
O66 C65 1.315 . S
O67 Cd57 2.240 . S
O67 C65 1.279 . S
O68 Cd58 2.297 . S
O68 C63 1.247 . S
O69 Cd58 2.439 . S
O69 C63 1.208 . S
O70 Cd71 2.223 . S
O70 C78 1.315 . S
Cd71 O70 2.223 . S
Cd71 O74 2.297 . S
Cd71 O75 2.439 . S
Cd71 O81 2.240 . S
Cd72 O73 2.240 . S
Cd72 O80 2.223 . S
Cd72 O82 2.297 . S
Cd72 O83 2.439 . S
O73 Cd72 2.240 . S
O73 C78 1.279 . S
O74 Cd71 2.297 . S
O74 C76 1.247 . S
O75 Cd71 2.439 . S
O75 C76 1.208 . S
C76 O74 1.247 . S
C76 O75 1.208 . S
C77 O82 1.247 . S
C77 O83 1.208 . S
C78 O70 1.315 . S
C78 O73 1.279 . S
C79 O80 1.315 . S
C79 O81 1.279 . S
O80 Cd72 2.223 . S
O80 C79 1.315 . S
O81 Cd71 2.240 . S
O81 C79 1.279 . S
O82 Cd72 2.297 . S
O82 C77 1.247 . S
O83 Cd72 2.439 . S
O83 C77 1.208 . S
O84 Cd85 2.223 . S
O84 C92 1.315 . S
Cd85 O84 2.223 . S
Cd85 O88 2.297 . S
Cd85 O89 2.439 . S
Cd85 O95 2.240 . S
Cd86 O87 2.240 . S
Cd86 O94 2.223 . S
Cd86 O96 2.297 . S
Cd86 O97 2.439 . S
O87 Cd86 2.240 . S
O87 C92 1.279 . S
O88 Cd85 2.297 . S
O88 C90 1.247 . S
O89 Cd85 2.439 . S
O89 C90 1.208 . S
C90 O88 1.247 . S
C90 O89 1.208 . S
C91 O96 1.247 . S
C91 O97 1.208 . S
C92 O84 1.315 . S
C92 O87 1.279 . S
C93 O94 1.315 . S
C93 O95 1.279 . S
O94 Cd86 2.223 . S
O94 C93 1.315 . S
O95 Cd85 2.240 . S
O95 C93 1.279 . S
O96 Cd86 2.297 . S
O96 C91 1.247 . S
O97 Cd86 2.439 . S
O97 C91 1.208 . S
O98 Cd99 2.223 . S
O98 C106 1.315 . S
Cd99 O98 2.223 . S
Cd99 O102 2.297 . S
Cd99 O103 2.439 . S
Cd99 O109 2.240 . S
Cd100 O101 2.240 . S
Cd100 O108 2.223 . S
Cd100 O110 2.297 . S
Cd100 O111 2.439 . S
O101 Cd100 2.240 . S
O101 C106 1.279 . S
O102 Cd99 2.297 . S
O102 C104 1.247 . S
O103 Cd99 2.439 . S
O103 C104 1.208 . S
C104 O102 1.247 . S
C104 O103 1.208 . S
C105 O110 1.247 . S
C105 O111 1.208 . S
C106 O98 1.315 . S
C106 O101 1.279 . S
C107 O108 1.315 . S
C107 O109 1.279 . S
O108 Cd100 2.223 . S
O108 C107 1.315 . S
O109 Cd99 2.240 . S
O109 C107 1.279 . S
O110 Cd100 2.297 . S
O110 C105 1.247 . S
O111 Cd100 2.439 . S
O111 C105 1.208 . S
O112 Cd113 2.223 . S
O112 C120 1.315 . S
Cd113 O112 2.223 . S
Cd113 O116 2.297 . S
Cd113 O117 2.439 . S
Cd113 O123 2.240 . S
Cd114 O115 2.240 . S
Cd114 O122 2.223 . S
Cd114 O124 2.297 . S
Cd114 O125 2.439 . S
O115 Cd114 2.240 . S
O115 C120 1.279 . S
O116 Cd113 2.297 . S
O116 C118 1.247 . S
O117 Cd113 2.439 . S
O117 C118 1.208 . S
C118 O116 1.247 . S
C118 O117 1.208 . S
C119 O124 1.247 . S
C119 O125 1.208 . S
C120 O112 1.315 . S
C120 O115 1.279 . S
C121 O122 1.315 . S
C121 O123 1.279 . S
O122 Cd114 2.223 . S
O122 C121 1.315 . S
O123 Cd113 2.240 . S
O123 C121 1.279 . S
O124 Cd114 2.297 . S
O124 C119 1.247 . S
O125 Cd114 2.439 . S
O125 C119 1.208 . S
O126 Cd127 2.223 . S
O126 C134 1.315 . S
Cd127 O126 2.223 . S
Cd127 O130 2.297 . S
Cd127 O131 2.439 . S
Cd127 O137 2.240 . S
Cd128 O129 2.240 . S
Cd128 O136 2.223 . S
Cd128 O138 2.297 . S
Cd128 O139 2.439 . S
O129 Cd128 2.240 . S
O129 C134 1.279 . S
O130 Cd127 2.297 . S
O130 C132 1.247 . S
O131 Cd127 2.439 . S
O131 C132 1.208 . S
C132 O130 1.247 . S
C132 O131 1.208 . S
C133 O138 1.247 . S
C133 O139 1.208 . S
C134 O126 1.315 . S
C134 O129 1.279 . S
C135 O136 1.315 . S
C135 O137 1.279 . S
O136 Cd128 2.223 . S
O136 C135 1.315 . S
O137 Cd127 2.240 . S
O137 C135 1.279 . S
O138 Cd128 2.297 . S
O138 C133 1.247 . S
O139 Cd128 2.439 . S
O139 C133 1.208 . S
O140 Cd141 2.223 . S
O140 C148 1.315 . S
Cd141 O140 2.223 . S
Cd141 O144 2.297 . S
Cd141 O145 2.439 . S
Cd141 O151 2.240 . S
Cd142 O143 2.240 . S
Cd142 O150 2.223 . S
Cd142 O152 2.297 . S
Cd142 O153 2.439 . S
O143 Cd142 2.240 . S
O143 C148 1.279 . S
O144 Cd141 2.297 . S
O144 C146 1.247 . S
O145 Cd141 2.439 . S
O145 C146 1.208 . S
C146 O144 1.247 . S
C146 O145 1.208 . S
C147 O152 1.247 . S
C147 O153 1.208 . S
C148 O140 1.315 . S
C148 O143 1.279 . S
C149 O150 1.315 . S
C149 O151 1.279 . S
O150 Cd142 2.223 . S
O150 C149 1.315 . S
O151 Cd141 2.240 . S
O151 C149 1.279 . S
O152 Cd142 2.297 . S
O152 C147 1.247 . S
O153 Cd142 2.439 . S
O153 C147 1.208 . S
O154 Cd155 2.223 . S
O154 C162 1.315 . S
Cd155 O154 2.223 . S
Cd155 O158 2.297 . S
Cd155 O159 2.439 . S
Cd155 O165 2.240 . S
Cd156 O157 2.240 . S
Cd156 O164 2.223 . S
Cd156 O166 2.297 . S
Cd156 O167 2.439 . S
O157 Cd156 2.240 . S
O157 C162 1.279 . S
O158 Cd155 2.297 . S
O158 C160 1.247 . S
O159 Cd155 2.439 . S
O159 C160 1.208 . S
C160 O158 1.247 . S
C160 O159 1.208 . S
C161 O166 1.247 . S
C161 O167 1.208 . S
C162 O154 1.315 . S
C162 O157 1.279 . S
C163 O164 1.315 . S
C163 O165 1.279 . S
O164 Cd156 2.223 . S
O164 C163 1.315 . S
O165 Cd155 2.240 . S
O165 C163 1.279 . S
O166 Cd156 2.297 . S
O166 C161 1.247 . S
O167 Cd156 2.439 . S
O167 C161 1.208 . S
O168 Cd169 2.223 . S
O168 C176 1.315 . S
Cd169 O168 2.223 . S
Cd169 O172 2.297 . S
Cd169 O173 2.439 . S
Cd169 O179 2.240 . S
Cd170 O171 2.240 . S
Cd170 O178 2.223 . S
Cd170 O180 2.297 . S
Cd170 O181 2.439 . S
O171 Cd170 2.240 . S
O171 C176 1.279 . S
O172 Cd169 2.297 . S
O172 C174 1.247 . S
O173 Cd169 2.439 . S
O173 C174 1.208 . S
C174 O172 1.247 . S
C174 O173 1.208 . S
C175 O180 1.247 . S
C175 O181 1.208 . S
C176 O168 1.315 . S
C176 O171 1.279 . S
C177 O178 1.315 . S
C177 O179 1.279 . S
O178 Cd170 2.223 . S
O178 C177 1.315 . S
O179 Cd169 2.240 . S
O179 C177 1.279 . S
O180 Cd170 2.297 . S
O180 C175 1.247 . S
O181 Cd170 2.439 . S
O181 C175 1.208 . S
O182 Cd183 2.223 . S
O182 C190 1.315 . S
Cd183 O182 2.223 . S
Cd183 O186 2.297 . S
Cd183 O187 2.439 . S
Cd183 O193 2.240 . S
Cd184 O185 2.240 . S
Cd184 O192 2.223 . S
Cd184 O194 2.297 . S
Cd184 O195 2.439 . S
O185 Cd184 2.240 . S
O185 C190 1.279 . S
O186 Cd183 2.297 . S
O186 C188 1.247 . S
O187 Cd183 2.439 . S
O187 C188 1.208 . S
C188 O186 1.247 . S
C188 O187 1.208 . S
C189 O194 1.247 . S
C189 O195 1.208 . S
C190 O182 1.315 . S
C190 O185 1.279 . S
C191 O192 1.315 . S
C191 O193 1.279 . S
O192 Cd184 2.223 . S
O192 C191 1.315 . S
O193 Cd183 2.240 . S
O193 C191 1.279 . S
O194 Cd184 2.297 . S
O194 C189 1.247 . S
O195 Cd184 2.439 . S
O195 C189 1.208 . S
O196 Cd197 2.223 . S
O196 C204 1.315 . S
Cd197 O196 2.223 . S
Cd197 O200 2.297 . S
Cd197 O201 2.439 . S
Cd197 O207 2.240 . S
Cd198 O199 2.240 . S
Cd198 O206 2.223 . S
Cd198 O208 2.297 . S
Cd198 O209 2.439 . S
O199 Cd198 2.240 . S
O199 C204 1.279 . S
O200 Cd197 2.297 . S
O200 C202 1.247 . S
O201 Cd197 2.439 . S
O201 C202 1.208 . S
C202 O200 1.247 . S
C202 O201 1.208 . S
C203 O208 1.247 . S
C203 O209 1.208 . S
C204 O196 1.315 . S
C204 O199 1.279 . S
C205 O206 1.315 . S
C205 O207 1.279 . S
O206 Cd198 2.223 . S
O206 C205 1.315 . S
O207 Cd197 2.240 . S
O207 C205 1.279 . S
O208 Cd198 2.297 . S
O208 C203 1.247 . S
O209 Cd198 2.439 . S
O209 C203 1.208 . S
O210 Cd211 2.223 . S
O210 C218 1.315 . S
Cd211 O210 2.223 . S
Cd211 O214 2.297 . S
Cd211 O215 2.439 . S
Cd211 O221 2.240 . S
Cd212 O213 2.240 . S
Cd212 O220 2.223 . S
Cd212 O222 2.297 . S
Cd212 O223 2.439 . S
O213 Cd212 2.240 . S
O213 C218 1.279 . S
O214 Cd211 2.297 . S
O214 C216 1.247 . S
O215 Cd211 2.439 . S
O215 C216 1.208 . S
C216 O214 1.247 . S
C216 O215 1.208 . S
C217 O222 1.247 . S
C217 O223 1.208 . S
C218 O210 1.315 . S
C218 O213 1.279 . S
C219 O220 1.315 . S
C219 O221 1.279 . S
O220 Cd212 2.223 . S
O220 C219 1.315 . S
O221 Cd211 2.240 . S
O221 C219 1.279 . S
O222 Cd212 2.297 . S
O222 C217 1.247 . S
O223 Cd212 2.439 . S
O223 C217 1.208 . S
C224 C225 1.387 . S
C224 H228 0.950 . S
C224 C233 1.390 . S
C225 C224 1.387 . S
C225 C227 1.387 . S
H226 C233 0.950 . S
C227 C225 1.387 . S
C227 C229 1.390 . S
C227 H231 0.950 . S
H228 C224 0.950 . S
C229 C227 1.390 . S
C229 C230 1.387 . S
C229 H232 0.950 . S
C230 C229 1.387 . S
C230 C233 1.387 . S
H231 C227 0.950 . S
H232 C229 0.950 . S
C233 C224 1.390 . S
C233 H226 0.950 . S
C233 C230 1.387 . S
C234 C235 1.387 . S
C234 H238 0.950 . S
C234 C243 1.390 . S
C235 C234 1.387 . S
C235 C237 1.387 . S
H236 C243 0.950 . S
C237 C235 1.387 . S
C237 C239 1.390 . S
C237 H241 0.950 . S
H238 C234 0.950 . S
C239 C237 1.390 . S
C239 C240 1.387 . S
C239 H242 0.950 . S
C240 C239 1.387 . S
C240 C243 1.387 . S
H241 C237 0.950 . S
H242 C239 0.950 . S
C243 C234 1.390 . S
C243 H236 0.950 . S
C243 C240 1.387 . S
C244 C245 1.387 . S
C244 H248 0.950 . S
C244 C253 1.390 . S
C245 C244 1.387 . S
C245 C247 1.387 . S
H246 C253 0.950 . S
C247 C245 1.387 . S
C247 C249 1.390 . S
C247 H251 0.950 . S
H248 C244 0.950 . S
C249 C247 1.390 . S
C249 C250 1.387 . S
C249 H252 0.950 . S
C250 C249 1.387 . S
C250 C253 1.387 . S
H251 C247 0.950 . S
H252 C249 0.950 . S
C253 C244 1.390 . S
C253 H246 0.950 . S
C253 C250 1.387 . S
C254 C255 1.387 . S
C254 H258 0.950 . S
C254 C263 1.390 . S
C255 C254 1.387 . S
C255 C257 1.387 . S
H256 C263 0.950 . S
C257 C255 1.387 . S
C257 C259 1.390 . S
C257 H261 0.950 . S
H258 C254 0.950 . S
C259 C257 1.390 . S
C259 C260 1.387 . S
C259 H262 0.950 . S
C260 C259 1.387 . S
C260 C263 1.387 . S
H261 C257 0.950 . S
H262 C259 0.950 . S
C263 C254 1.390 . S
C263 H256 0.950 . S
C263 C260 1.387 . S
C264 C265 1.387 . S
C264 H268 0.950 . S
C264 C273 1.390 . S
C265 C264 1.387 . S
C265 C267 1.387 . S
H266 C273 0.950 . S
C267 C265 1.387 . S
C267 C269 1.390 . S
C267 H271 0.950 . S
H268 C264 0.950 . S
C269 C267 1.390 . S
C269 C270 1.387 . S
C269 H272 0.950 . S
C270 C269 1.387 . S
C270 C273 1.387 . S
H271 C267 0.950 . S
H272 C269 0.950 . S
C273 C264 1.390 . S
C273 H266 0.950 . S
C273 C270 1.387 . S
C274 C275 1.387 . S
C274 H278 0.950 . S
C274 C283 1.390 . S
C275 C274 1.387 . S
C275 C277 1.387 . S
H276 C283 0.950 . S
C277 C275 1.387 . S
C277 C279 1.390 . S
C277 H281 0.950 . S
H278 C274 0.950 . S
C279 C277 1.390 . S
C279 C280 1.387 . S
C279 H282 0.950 . S
C280 C279 1.387 . S
C280 C283 1.387 . S
H281 C277 0.950 . S
H282 C279 0.950 . S
C283 C274 1.390 . S
C283 H276 0.950 . S
C283 C280 1.387 . S
C284 C285 1.387 . S
C284 H288 0.950 . S
C284 C293 1.390 . S
C285 C284 1.387 . S
C285 C287 1.387 . S
H286 C293 0.950 . S
C287 C285 1.387 . S
C287 C289 1.390 . S
C287 H291 0.950 . S
H288 C284 0.950 . S
C289 C287 1.390 . S
C289 C290 1.387 . S
C289 H292 0.950 . S
C290 C289 1.387 . S
C290 C293 1.387 . S
H291 C287 0.950 . S
H292 C289 0.950 . S
C293 C284 1.390 . S
C293 H286 0.950 . S
C293 C290 1.387 . S
C294 C295 1.387 . S
C294 H298 0.950 . S
C294 C303 1.390 . S
C295 C294 1.387 . S
C295 C297 1.387 . S
H296 C303 0.950 . S
C297 C295 1.387 . S
C297 C299 1.390 . S
C297 H301 0.950 . S
H298 C294 0.950 . S
C299 C297 1.390 . S
C299 C300 1.387 . S
C299 H302 0.950 . S
C300 C299 1.387 . S
C300 C303 1.387 . S
H301 C297 0.950 . S
H302 C299 0.950 . S
C303 C294 1.390 . S
C303 H296 0.950 . S
C303 C300 1.387 . S
C304 C305 1.387 . S
C304 H308 0.950 . S
C304 C313 1.390 . S
C305 C304 1.387 . S
C305 C307 1.387 . S
H306 C313 0.950 . S
C307 C305 1.387 . S
C307 C309 1.390 . S
C307 H311 0.950 . S
H308 C304 0.950 . S
C309 C307 1.390 . S
C309 C310 1.387 . S
C309 H312 0.950 . S
C310 C309 1.387 . S
C310 C313 1.387 . S
H311 C307 0.950 . S
H312 C309 0.950 . S
C313 C304 1.390 . S
C313 H306 0.950 . S
C313 C310 1.387 . S
C314 C315 1.387 . S
C314 H318 0.950 . S
C314 C323 1.390 . S
C315 C314 1.387 . S
C315 C317 1.387 . S
H316 C323 0.950 . S
C317 C315 1.387 . S
C317 C319 1.390 . S
C317 H321 0.950 . S
H318 C314 0.950 . S
C319 C317 1.390 . S
C319 C320 1.387 . S
C319 H322 0.950 . S
C320 C319 1.387 . S
C320 C323 1.387 . S
H321 C317 0.950 . S
H322 C319 0.950 . S
C323 C314 1.390 . S
C323 H316 0.950 . S
C323 C320 1.387 . S
C324 C325 1.387 . S
C324 H328 0.950 . S
C324 C333 1.390 . S
C325 C324 1.387 . S
C325 C327 1.387 . S
H326 C333 0.950 . S
C327 C325 1.387 . S
C327 C329 1.390 . S
C327 H331 0.950 . S
H328 C324 0.950 . S
C329 C327 1.390 . S
C329 C330 1.387 . S
C329 H332 0.950 . S
C330 C329 1.387 . S
C330 C333 1.387 . S
H331 C327 0.950 . S
H332 C329 0.950 . S
C333 C324 1.390 . S
C333 H326 0.950 . S
C333 C330 1.387 . S
C334 C335 1.387 . S
C334 H338 0.950 . S
C334 C343 1.390 . S
C335 C334 1.387 . S
C335 C337 1.387 . S
H336 C343 0.950 . S
C337 C335 1.387 . S
C337 C339 1.390 . S
C337 H341 0.950 . S
H338 C334 0.950 . S
C339 C337 1.390 . S
C339 C340 1.387 . S
C339 H342 0.950 . S
C340 C339 1.387 . S
C340 C343 1.387 . S
H341 C337 0.950 . S
H342 C339 0.950 . S
C343 C334 1.390 . S
C343 H336 0.950 . S
C343 C340 1.387 . S
C344 C345 1.387 . S
C344 H348 0.950 . S
C344 C353 1.390 . S
C345 C344 1.387 . S
C345 C347 1.387 . S
H346 C353 0.950 . S
C347 C345 1.387 . S
C347 C349 1.390 . S
C347 H351 0.950 . S
H348 C344 0.950 . S
C349 C347 1.390 . S
C349 C350 1.387 . S
C349 H352 0.950 . S
C350 C349 1.387 . S
C350 C353 1.387 . S
H351 C347 0.950 . S
H352 C349 0.950 . S
C353 C344 1.390 . S
C353 H346 0.950 . S
C353 C350 1.387 . S
C354 C355 1.387 . S
C354 H358 0.950 . S
C354 C363 1.390 . S
C355 C354 1.387 . S
C355 C357 1.387 . S
H356 C363 0.950 . S
C357 C355 1.387 . S
C357 C359 1.390 . S
C357 H361 0.950 . S
H358 C354 0.950 . S
C359 C357 1.390 . S
C359 C360 1.387 . S
C359 H362 0.950 . S
C360 C359 1.387 . S
C360 C363 1.387 . S
H361 C357 0.950 . S
H362 C359 0.950 . S
C363 C354 1.390 . S
C363 H356 0.950 . S
C363 C360 1.387 . S
C364 C365 1.387 . S
C364 H368 0.950 . S
C364 C373 1.390 . S
C365 C364 1.387 . S
C365 C367 1.387 . S
H366 C373 0.950 . S
C367 C365 1.387 . S
C367 C369 1.390 . S
C367 H371 0.950 . S
H368 C364 0.950 . S
C369 C367 1.390 . S
C369 C370 1.387 . S
C369 H372 0.950 . S
C370 C369 1.387 . S
C370 C373 1.387 . S
H371 C367 0.950 . S
H372 C369 0.950 . S
C373 C364 1.390 . S
C373 H366 0.950 . S
C373 C370 1.387 . S
C374 C375 1.387 . S
C374 H378 0.950 . S
C374 C383 1.390 . S
C375 C374 1.387 . S
C375 C377 1.387 . S
H376 C383 0.950 . S
C377 C375 1.387 . S
C377 C379 1.390 . S
C377 H381 0.950 . S
H378 C374 0.950 . S
C379 C377 1.390 . S
C379 C380 1.387 . S
C379 H382 0.950 . S
C380 C379 1.387 . S
C380 C383 1.387 . S
H381 C377 0.950 . S
H382 C379 0.950 . S
C383 C374 1.390 . S
C383 H376 0.950 . S
C383 C380 1.387 . S
C384 C385 1.387 . S
C384 H388 0.950 . S
C384 C393 1.390 . S
C385 C384 1.387 . S
C385 C387 1.387 . S
H386 C393 0.950 . S
C387 C385 1.387 . S
C387 C389 1.390 . S
C387 H391 0.950 . S
H388 C384 0.950 . S
C389 C387 1.390 . S
C389 C390 1.387 . S
C389 H392 0.950 . S
C390 C389 1.387 . S
C390 C393 1.387 . S
H391 C387 0.950 . S
H392 C389 0.950 . S
C393 C384 1.390 . S
C393 H386 0.950 . S
C393 C390 1.387 . S
C394 C395 1.387 . S
C394 H398 0.950 . S
C394 C403 1.390 . S
C395 C394 1.387 . S
C395 C397 1.387 . S
H396 C403 0.950 . S
C397 C395 1.387 . S
C397 C399 1.390 . S
C397 H401 0.950 . S
H398 C394 0.950 . S
C399 C397 1.390 . S
C399 C400 1.387 . S
C399 H402 0.950 . S
C400 C399 1.387 . S
C400 C403 1.387 . S
H401 C397 0.950 . S
H402 C399 0.950 . S
C403 C394 1.390 . S
C403 H396 0.950 . S
C403 C400 1.387 . S
C404 C405 1.387 . S
C404 H408 0.950 . S
C404 C413 1.390 . S
C405 C404 1.387 . S
C405 C407 1.387 . S
H406 C413 0.950 . S
C407 C405 1.387 . S
C407 C409 1.390 . S
C407 H411 0.950 . S
H408 C404 0.950 . S
C409 C407 1.390 . S
C409 C410 1.387 . S
C409 H412 0.950 . S
C410 C409 1.387 . S
C410 C413 1.387 . S
H411 C407 0.950 . S
H412 C409 0.950 . S
C413 C404 1.390 . S
C413 H406 0.950 . S
C413 C410 1.387 . S
C414 C415 1.387 . S
C414 H418 0.950 . S
C414 C423 1.390 . S
C415 C414 1.387 . S
C415 C417 1.387 . S
H416 C423 0.950 . S
C417 C415 1.387 . S
C417 C419 1.390 . S
C417 H421 0.950 . S
H418 C414 0.950 . S
C419 C417 1.390 . S
C419 C420 1.387 . S
C419 H422 0.950 . S
C420 C419 1.387 . S
C420 C423 1.387 . S
H421 C417 0.950 . S
H422 C419 0.950 . S
C423 C414 1.390 . S
C423 H416 0.950 . S
C423 C420 1.387 . S
C424 C425 1.387 . S
C424 H428 0.950 . S
C424 C433 1.390 . S
C425 C424 1.387 . S
C425 C427 1.387 . S
H426 C433 0.950 . S
C427 C425 1.387 . S
C427 C429 1.390 . S
C427 H431 0.950 . S
H428 C424 0.950 . S
C429 C427 1.390 . S
C429 C430 1.387 . S
C429 H432 0.950 . S
C430 C429 1.387 . S
C430 C433 1.387 . S
H431 C427 0.950 . S
H432 C429 0.950 . S
C433 C424 1.390 . S
C433 H426 0.950 . S
C433 C430 1.387 . S
C434 C435 1.387 . S
C434 H438 0.950 . S
C434 C443 1.390 . S
C435 C434 1.387 . S
C435 C437 1.387 . S
H436 C443 0.950 . S
C437 C435 1.387 . S
C437 C439 1.390 . S
C437 H441 0.950 . S
H438 C434 0.950 . S
C439 C437 1.390 . S
C439 C440 1.387 . S
C439 H442 0.950 . S
C440 C439 1.387 . S
C440 C443 1.387 . S
H441 C437 0.950 . S
H442 C439 0.950 . S
C443 C434 1.390 . S
C443 H436 0.950 . S
C443 C440 1.387 . S
C444 C445 1.387 . S
C444 H448 0.950 . S
C444 C453 1.390 . S
C445 C444 1.387 . S
C445 C447 1.387 . S
H446 C453 0.950 . S
C447 C445 1.387 . S
C447 C449 1.390 . S
C447 H451 0.950 . S
H448 C444 0.950 . S
C449 C447 1.390 . S
C449 C450 1.387 . S
C449 H452 0.950 . S
C450 C449 1.387 . S
C450 C453 1.387 . S
H451 C447 0.950 . S
H452 C449 0.950 . S
C453 C444 1.390 . S
C453 H446 0.950 . S
C453 C450 1.387 . S
C454 C455 1.387 . S
C454 H458 0.950 . S
C454 C463 1.390 . S
C455 C454 1.387 . S
C455 C457 1.387 . S
H456 C463 0.950 . S
C457 C455 1.387 . S
C457 C459 1.390 . S
C457 H461 0.950 . S
H458 C454 0.950 . S
C459 C457 1.390 . S
C459 C460 1.387 . S
C459 H462 0.950 . S
C460 C459 1.387 . S
C460 C463 1.387 . S
H461 C457 0.950 . S
H462 C459 0.950 . S
C463 C454 1.390 . S
C463 H456 0.950 . S
C463 C460 1.387 . S
C464 C465 1.387 . S
C464 H468 0.950 . S
C464 C473 1.390 . S
C465 C464 1.387 . S
C465 C467 1.387 . S
H466 C473 0.950 . S
C467 C465 1.387 . S
C467 C469 1.390 . S
C467 H471 0.950 . S
H468 C464 0.950 . S
C469 C467 1.390 . S
C469 C470 1.387 . S
C469 H472 0.950 . S
C470 C469 1.387 . S
C470 C473 1.387 . S
H471 C467 0.950 . S
H472 C469 0.950 . S
C473 C464 1.390 . S
C473 H466 0.950 . S
C473 C470 1.387 . S
C474 C475 1.387 . S
C474 H478 0.950 . S
C474 C483 1.390 . S
C475 C474 1.387 . S
C475 C477 1.387 . S
H476 C483 0.950 . S
C477 C475 1.387 . S
C477 C479 1.390 . S
C477 H481 0.950 . S
H478 C474 0.950 . S
C479 C477 1.390 . S
C479 C480 1.387 . S
C479 H482 0.950 . S
C480 C479 1.387 . S
C480 C483 1.387 . S
H481 C477 0.950 . S
H482 C479 0.950 . S
C483 C474 1.390 . S
C483 H476 0.950 . S
C483 C480 1.387 . S
C484 C485 1.387 . S
C484 H488 0.950 . S
C484 C493 1.390 . S
C485 C484 1.387 . S
C485 C487 1.387 . S
H486 C493 0.950 . S
C487 C485 1.387 . S
C487 C489 1.390 . S
C487 H491 0.950 . S
H488 C484 0.950 . S
C489 C487 1.390 . S
C489 C490 1.387 . S
C489 H492 0.950 . S
C490 C489 1.387 . S
C490 C493 1.387 . S
H491 C487 0.950 . S
H492 C489 0.950 . S
C493 C484 1.390 . S
C493 H486 0.950 . S
C493 C490 1.387 . S
C494 C495 1.387 . S
C494 H498 0.950 . S
C494 C503 1.390 . S
C495 C494 1.387 . S
C495 C497 1.387 . S
H496 C503 0.950 . S
C497 C495 1.387 . S
C497 C499 1.390 . S
C497 H501 0.950 . S
H498 C494 0.950 . S
C499 C497 1.390 . S
C499 C500 1.387 . S
C499 H502 0.950 . S
C500 C499 1.387 . S
C500 C503 1.387 . S
H501 C497 0.950 . S
H502 C499 0.950 . S
C503 C494 1.390 . S
C503 H496 0.950 . S
C503 C500 1.387 . S
C504 C505 1.387 . S
C504 H508 0.950 . S
C504 C513 1.390 1_544 S
C505 C504 1.387 . S
C505 C507 1.387 . S
H506 C513 0.950 . S
C507 C505 1.387 . S
C507 C509 1.390 1_544 S
C507 H511 0.950 . S
H508 C504 0.950 . S
C509 C507 1.390 1_566 S
C509 C510 1.387 . S
C509 H512 0.950 . S
C510 C509 1.387 . S
C510 C513 1.387 . S
H511 C507 0.950 . S
H512 C509 0.950 . S
C513 C504 1.390 1_566 S
C513 H506 0.950 . S
C513 C510 1.387 . S
C514 C515 1.387 . S
C514 H518 0.950 . S
C514 C523 1.390 1_456 S
C515 C514 1.387 . S
C515 C517 1.387 . S
H516 C523 0.950 . S
C517 C515 1.387 . S
C517 C519 1.390 1_456 S
C517 H521 0.950 . S
H518 C514 0.950 . S
C519 C517 1.390 1_654 S
C519 C520 1.387 . S
C519 H522 0.950 . S
C520 C519 1.387 . S
C520 C523 1.387 . S
H521 C517 0.950 . S
H522 C519 0.950 . S
C523 C514 1.390 1_654 S
C523 H516 0.950 . S
C523 C520 1.387 . S
C524 C525 1.387 . S
C524 H528 0.950 . S
C524 C533 1.390 1_546 S
C525 C524 1.387 . S
C525 C527 1.387 . S
H526 C533 0.950 . S
C527 C525 1.387 . S
C527 C529 1.390 1_546 S
C527 H531 0.950 . S
H528 C524 0.950 . S
C529 C527 1.390 1_564 S
C529 C530 1.387 . S
C529 H532 0.950 . S
C530 C529 1.387 . S
C530 C533 1.387 . S
H531 C527 0.950 . S
H532 C529 0.950 . S
C533 C524 1.390 1_564 S
C533 H526 0.950 . S
C533 C530 1.387 . S
C534 C535 1.387 . S
C534 H538 0.950 . S
C534 C543 1.390 1_656 S
C535 C534 1.387 . S
C535 C537 1.387 . S
H536 C543 0.950 . S
C537 C535 1.387 . S
C537 C539 1.390 1_656 S
C537 H541 0.950 . S
H538 C534 0.950 . S
C539 C537 1.390 1_454 S
C539 C540 1.387 . S
C539 H542 0.950 . S
C540 C539 1.387 . S
C540 C543 1.387 . S
H541 C537 0.950 . S
H542 C539 0.950 . S
C543 C534 1.390 1_454 S
C543 H536 0.950 . S
C543 C540 1.387 . S
C225 C6 1.409 . S
C230 C104 1.410 . S
C235 C20 1.409 . S
C240 C62 1.410 . S
C245 C76 1.409 . S
C250 C34 1.410 . S
C255 C48 1.409 . S
C260 C90 1.410 . S
C265 C118 1.409 . S
C270 C216 1.410 . S
C275 C174 1.409 . S
C280 C132 1.410 . S
C285 C188 1.410 . S
C290 C146 1.409 . S
C295 C202 1.410 . S
C300 C160 1.409 . S
C305 C9 1.475 . S
C310 C162 1.515 . S
C315 C23 1.474 . S
C320 C120 1.515 . S
C325 C134 1.515 . S
C330 C37 1.475 . S
C335 C51 1.472 . S
C340 C148 1.516 . S
C345 C65 1.474 . S
C350 C190 1.515 . S
C355 C204 1.515 . S
C360 C79 1.473 . S
C365 C93 1.475 . S
C370 C218 1.515 . S
C375 C176 1.515 . S
C380 C107 1.473 . S
C385 C121 1.474 1_545 S
C390 C50 1.516 . S
C395 C8 1.515 . S
C400 C135 1.475 1_455 S
C405 C149 1.472 1_565 S
C410 C22 1.516 . S
C415 C36 1.516 . S
C420 C163 1.474 1_655 S
C425 C177 1.472 1_565 S
C430 C78 1.516 . S
C435 C92 1.515 . S
C440 C191 1.473 1_655 S
C445 C106 1.516 . S
C450 C205 1.473 1_545 S
C455 C64 1.516 . S
C460 C219 1.472 1_455 S
C465 C63 1.550 . S
C470 C7 1.550 . S
C475 C77 1.549 . S
C480 C21 1.549 . S
C485 C35 1.549 . S
C490 C91 1.549 . S
C495 C105 1.549 . S
C500 C49 1.549 . S
C505 C175 1.549 . S
C510 C119 1.549 . S
C515 C189 1.549 . S
C520 C133 1.549 . S
C525 C147 1.549 . S
C530 C203 1.549 . S
C535 C217 1.550 . S
C540 C161 1.550 . S
