# Generated by pormake.
# Topology fnu, (5)-cn, num edge types: 1
# Building blocks:
#     Node 0, Type 0, BuildingBlock: XOMCOT_clean_sbu_0, # of connection points: 5
#     Node 1, Type 0, BuildingBlock: XOMCOT_clean_sbu_0, # of connection points: 5
#     Node 2, Type 0, BuildingBlock: XOMCOT_clean_sbu_0, # of connection points: 5
#     Node 3, Type 0, BuildingBlock: XOMCOT_clean_sbu_0, # of connection points: 5
#     Node 4, Type 0, BuildingBlock: XOMCOT_clean_sbu_0, # of connection points: 5
#     Node 5, Type 0, BuildingBlock: XOMCOT_clean_sbu_0, # of connection points: 5
#     Edge 6, Type (0, 0), BuildingBlock: FUNLAD_clean_linker_0, # of connection points: 2
#     Edge 7, Type (0, 0), BuildingBlock: FUNLAD_clean_linker_0, # of connection points: 2
#     Edge 8, Type (0, 0), BuildingBlock: FUNLAD_clean_linker_0, # of connection points: 2
#     Edge 9, Type (0, 0), BuildingBlock: FUNLAD_clean_linker_0, # of connection points: 2
#     Edge 10, Type (0, 0), BuildingBlock: FUNLAD_clean_linker_0, # of connection points: 2
#     Edge 11, Type (0, 0), BuildingBlock: FUNLAD_clean_linker_0, # of connection points: 2
#     Edge 12, Type (0, 0), BuildingBlock: FUNLAD_clean_linker_0, # of connection points: 2
#     Edge 13, Type (0, 0), BuildingBlock: FUNLAD_clean_linker_0, # of connection points: 2
#     Edge 14, Type (0, 0), BuildingBlock: FUNLAD_clean_linker_0, # of connection points: 2
#     Edge 15, Type (0, 0), BuildingBlock: FUNLAD_clean_linker_0, # of connection points: 2
#     Edge 16, Type (0, 0), BuildingBlock: FUNLAD_clean_linker_0, # of connection points: 2
#     Edge 17, Type (0, 0), BuildingBlock: FUNLAD_clean_linker_0, # of connection points: 2
#     Edge 18, Type (0, 0), BuildingBlock: FUNLAD_clean_linker_0, # of connection points: 2
#     Edge 19, Type (0, 0), BuildingBlock: FUNLAD_clean_linker_0, # of connection points: 2
#     Edge 20, Type (0, 0), BuildingBlock: FUNLAD_clean_linker_0, # of connection points: 2
# Relax obj value: 0.170
# Max RMSD: 0.129
# Mean RMSD: 0.129
data_MOF--net-fnu--node1-XOMCOT_clean_sbu_0--edge1-FUNLAD_clean_linker_0
_symmetry_space_group_name_H-M    P1
_symmetry_Int_Tables_number       1
_symmetry_cell_setting            triclinic
loop_
_symmetry_equiv_pos_as_xyz
'x, y, z'
_cell_length_a     30.500224
_cell_length_b     32.750284
_cell_length_c     38.04622
_cell_angle_alpha  89.95614
_cell_angle_beta   98.720322
_cell_angle_gamma 122.48334
loop_
_atom_site_label
_atom_site_type_symbol
_atom_site_fract_x
_atom_site_fract_y
_atom_site_fract_z
_atom_type_partial_charge
Co0 Co 1.03906 1.00535 0.24933 0.0
C1 C 0.0536 1.01109 0.32873 0.0
C2 C 0.12406 0.06397 0.30972 0.0
C3 C 0.13422 0.07004 0.34641 0.0
N4 N 0.0738 1.02678 0.29862 0.0
N5 N 0.09 0.03687 0.35843 0.0
H6 H 1.01321 0.98181 0.32888 0.0
H7 H 0.15115 0.0862 0.29236 0.0
C8 C 0.12442 1.01548 0.20864 0.0
O9 O 0.08914 0.97841 0.18535 0.0
N10 N 1.00348 0.98456 0.20033 0.0
C11 C 0.95613 0.94412 0.18702 0.0
C12 C 0.9466 0.94398 0.15054 0.0
C13 C 1.0203 1.00978 0.17222 0.0
N14 N 0.98743 0.98507 0.14133 0.0
C15 C 0.96968 0.90698 0.26441 0.0
C16 C 1.02341 0.86986 0.2402 0.0
C17 C 0.96991 0.83758 0.24229 0.0
C18 C 0.9442 0.85662 0.25689 0.0
C19 C 0.0475 0.92002 0.24837 0.0
N20 N 1.01886 0.93832 0.25668 0.0
H21 H 0.9473 0.92064 0.27281 0.0
H22 H 0.08848 0.94362 0.24657 0.0
H23 H 0.93004 0.91635 0.20228 0.0
H24 H 0.05793 0.044 0.17424 0.0
O25 O 0.97701 1.00263 0.25994 0.0
O26 O 0.04562 0.06714 0.24368 0.0
O27 O 0.11063 1.02633 0.23571 0.0
C28 C 0.99848 0.04699 0.25117 0.0
H29 H 0.17089 0.09793 0.36296 0.0
H30 H 0.91304 0.91523 0.13218 0.0
H31 H 0.04605 0.85669 0.23116 0.0
H32 H 0.90327 0.8334 0.25985 0.0
Co33 Co 0.10531 0.11423 0.77755 0.0
C34 C 0.0765 0.08543 0.69869 0.0
C35 C 1.02115 0.09607 0.71906 0.0
C36 C 1.00579 0.08537 0.68265 0.0
N37 N 0.06514 0.09564 0.72926 0.0
N38 N 1.04069 0.07888 0.66972 0.0
H39 H 0.11111 0.08468 0.69729 0.0
H40 H 1.00193 0.10431 0.73693 0.0
C41 C 0.99644 1.02732 0.78368 0.0
O42 O 0.99637 1.00573 0.75456 0.0
N43 N 0.14633 0.13372 0.82537 0.0
C44 C 0.19935 0.1645 0.83478 0.0
C45 C 0.21448 0.1612 0.87006 0.0
C46 C 0.13018 0.11201 0.85492 0.0
N47 N 0.17091 0.12763 0.88216 0.0
C48 C 0.16642 0.07758 0.75898 0.0
C49 C 0.135 1.00686 0.80612 0.0
C50 C 0.18106 1.0213 0.79256 0.0
C51 C 0.19509 0.05568 0.76734 0.0
C52 C 0.10719 0.02928 0.79682 0.0
N53 N 0.12388 0.06561 0.77446 0.0
H54 H 0.18152 0.10725 0.74234 0.0
H55 H 0.07581 1.0206 0.81106 0.0
H56 H 0.22605 0.18588 0.81697 0.0
H57 H 0.08994 0.08352 0.85626 0.0
O58 O 0.16513 0.16952 0.76103 0.0
O59 O 0.10123 0.17111 0.78017 0.0
O60 O 1.03748 0.06873 0.7969 0.0
C61 C 0.14641 0.19505 0.76949 0.0
H62 H 0.9716 0.08289 0.66696 0.0
H63 H 0.25442 0.17965 0.88498 0.0
H64 H 0.12262 0.98121 0.8261 0.0
H65 H 0.22965 0.0676 0.75543 0.0
Co66 Co 0.73599 0.36866 0.57846 0.0
C67 C 0.73116 0.35443 0.65504 0.0
C68 C 0.81122 0.39873 0.6466 0.0
C69 C 0.81152 0.39564 0.68279 0.0
N70 N 0.76083 0.37275 0.62919 0.0
N71 N 0.76113 0.36794 0.68819 0.0
H72 H 0.68845 0.33229 0.64966 0.0
H73 H 0.84544 0.41992 0.63412 0.0
C74 C 0.82177 0.38372 0.5382 0.0
O75 O 0.7845 0.35351 0.51182 0.0
N76 N 0.70995 0.36546 0.52835 0.0
C77 C 0.66217 0.33177 0.50928 0.0
C78 C 0.65381 0.35016 0.47825 0.0
C79 C 0.72959 0.40387 0.50884 0.0
N80 N 0.69616 0.39554 0.47827 0.0
C81 C 0.65728 0.26722 0.57761 0.0
C82 C 0.71307 0.22998 0.55733 0.0
C83 C 0.65886 0.19791 0.55746 0.0
C84 C 0.63161 0.21719 0.56907 0.0
C85 C 0.73758 0.28008 0.56663 0.0
N86 N 0.70883 0.29868 0.57422 0.0
H87 H 0.63419 0.28053 0.58514 0.0
H88 H 0.77942 0.30326 0.56732 0.0
H89 H 0.63366 0.29757 0.518 0.0
H90 H 0.76625 0.43834 0.51794 0.0
O91 O 0.67331 0.36495 0.58816 0.0
O92 O 0.74795 0.43328 0.58405 0.0
O93 O 0.80922 0.39009 0.56763 0.0
C94 C 0.69846 0.41169 0.58697 0.0
H95 H 0.84624 0.41412 0.70356 0.0
H96 H 0.61877 0.33202 0.4577 0.0
H97 H 0.73635 0.21652 0.54999 0.0
H98 H 0.58988 0.19412 0.57002 0.0
Co99 Co 0.67663 0.33193 0.10508 0.0
C100 C 0.68039 0.33285 0.02712 0.0
C101 C 0.60931 0.27006 0.03823 0.0
C102 C 0.60916 0.26732 1.00206 0.0
N103 N 0.65383 0.31133 0.05404 0.0
N104 N 0.65389 0.30681 0.99495 0.0
H105 H 0.7185 0.36674 0.03097 0.0
H106 H 0.57938 0.2429 0.05193 0.0
C107 C 0.58554 0.26464 0.1435 0.0
O108 O 0.62014 0.2753 0.17275 0.0
N109 N 0.70124 0.35409 0.15534 0.0
C110 C 0.74424 0.35968 0.17637 0.0
C111 C 0.75384 0.38601 0.20793 0.0
C112 C 0.68596 0.37777 0.17408 0.0
N113 N 0.71722 0.39746 0.20628 0.0
C114 C 0.7499 0.30405 0.10099 0.0
C115 C 0.70396 0.2219 0.13711 0.0
C116 C 0.7557 0.24137 0.13126 0.0
C117 C 0.77747 0.28174 0.11139 0.0
C118 C 0.67758 0.24531 0.12606 0.0
N119 N 0.70201 0.28788 0.11037 0.0
H120 H 0.76862 0.336 0.08681 0.0
H121 H 0.63824 0.22921 0.13112 0.0
H122 H 0.76837 0.34736 0.16897 0.0
H123 H 0.65354 0.38178 0.16378 0.0
O124 O 0.74136 0.39051 0.09719 0.0
O125 O 0.66674 0.38571 0.09863 0.0
O126 O 0.6016 0.2808 0.11403 0.0
C127 C 0.71689 0.41297 0.0973 0.0
H128 H 0.57899 0.23753 0.98275 0.0
H129 H 0.7855 0.39611 0.23024 0.0
H130 H 0.68469 0.19005 0.15151 0.0
H131 H 0.81629 0.29697 0.10469 0.0
Co132 Co 0.47038 0.80204 0.91561 0.0
C133 C 0.45719 0.77363 0.98936 0.0
C134 C 0.5388 0.82131 0.98513 0.0
C135 C 0.5357 0.81144 0.02022 0.0
N136 N 0.48963 0.7975 0.96576 0.0
N137 N 0.48436 0.78154 0.02303 0.0
H138 H 0.41459 0.75144 0.98202 0.0
H139 H 0.57447 0.84541 0.97477 0.0
C140 C 0.55374 0.80876 0.87799 0.0
O141 O 0.51453 0.77741 0.85297 0.0
N142 N 0.45149 0.80862 0.86598 0.0
C143 C 0.48157 0.84806 0.84925 0.0
C144 C 0.4533 0.84478 0.81653 0.0
C145 C 0.40459 0.78265 0.84357 0.0
N146 N 0.40483 0.80369 0.81304 0.0
C147 C 0.38528 0.70215 0.89933 0.0
C148 C 0.44369 0.66212 0.89256 0.0
C149 C 0.38859 0.6331 0.88111 0.0
C150 C 0.35945 0.65335 0.88661 0.0
C151 C 0.46808 0.71116 0.9057 0.0
N152 N 0.43913 0.73176 0.90576 0.0
H153 H 0.36127 0.71635 0.90253 0.0
H154 H 0.51028 0.73255 0.91475 0.0
H155 H 0.52119 0.87773 0.86048 0.0
H156 H 0.37022 0.75023 0.84966 0.0
O157 O 0.40821 0.79928 0.92486 0.0
O158 O 0.48571 0.86729 0.92618 0.0
O159 O 0.54351 0.82089 0.90636 0.0
C160 C 0.43562 0.84642 0.92726 0.0
H161 H 0.56883 0.82676 0.04218 0.0
H162 H 0.46771 0.87038 0.79667 0.0
H163 H 0.46799 0.64775 0.89033 0.0
H164 H 0.31668 0.6319 0.88048 0.0
Co165 Co 0.36937 0.68173 0.43115 0.0
C166 C 0.38009 0.68747 0.3545 0.0
C167 C 0.29902 0.64984 0.36091 0.0
C168 C 0.30101 0.65299 0.32501 0.0
N169 N 0.34856 0.67134 0.37946 0.0
N170 N 0.35202 0.67687 0.32084 0.0
H171 H 0.42276 0.70802 0.36094 0.0
H172 H 0.26372 0.63387 0.37255 0.0
C173 C 0.27776 0.6009 0.46317 0.0
O174 O 0.31199 0.60026 0.48833 0.0
N175 N 0.39064 0.69354 0.48242 0.0
C176 C 0.43064 0.69373 0.50327 0.0
C177 C 0.42665 0.69815 0.53843 0.0
C178 C 0.36466 0.70032 0.50502 0.0
N179 N 0.38458 0.70145 0.53936 0.0
C180 C 0.44805 0.661 0.42567 0.0
C181 C 0.39701 0.56881 0.44791 0.0
C182 C 0.45206 0.59436 0.44987 0.0
C183 C 0.4765 0.63956 0.43586 0.0
C184 C 0.36968 0.59144 0.43666 0.0
N185 N 0.39644 0.63907 0.42952 0.0
H186 H 0.46933 0.69711 0.41731 0.0
H187 H 0.32758 0.57077 0.43491 0.0
H188 H 0.45964 0.68927 0.49397 0.0
H189 H 0.32885 0.69973 0.49626 0.0
O190 O 0.43379 0.74312 0.42751 0.0
O191 O 0.35875 0.7355 0.43241 0.0
O192 O 0.29397 0.62691 0.4369 0.0
C193 C 0.40868 0.76423 0.43087 0.0
H194 H 0.26721 0.63884 0.30366 0.0
H195 H 0.4517 0.69728 0.56144 0.0
H196 H 0.37548 0.53271 0.45665 0.0
H197 H 0.51815 0.6596 0.43444 0.0
C198 C 0.19466 0.03831 0.17099 0.0
C199 C 0.18052 0.04551 0.20297 0.0
C200 C 0.2469 0.06762 0.16496 0.0
C201 C 0.28666 0.10512 0.19082 0.0
C202 C 0.27247 0.1119 0.22284 0.0
C203 C 0.2203 0.0828 0.22878 0.0
C204 C 0.34357 0.13665 0.18655 0.0
C205 C 0.3618 0.14212 0.15532 0.0
C206 C 0.41938 0.17346 0.15248 0.0
C207 C 0.43415 0.19029 0.11943 0.0
C208 C 0.48776 0.21949 0.116 0.0
C209 C 0.52807 0.23226 0.14555 0.0
H210 H 0.45096 0.17228 0.20741 0.0
C211 C 0.51312 0.21457 0.17835 0.0
C212 C 0.45989 0.1856 0.18176 0.0
H213 H 0.5427 0.22308 0.20179 0.0
H214 H 0.16521 1.01007 0.15036 0.0
H215 H 0.25585 0.06017 0.14023 0.0
H216 H 0.30197 0.14009 0.2435 0.0
H217 H 0.21126 0.08963 0.2537 0.0
H218 H 0.37163 0.15765 0.21065 0.0
H219 H 0.33374 0.12443 0.1306 0.0
H220 H 0.40408 0.18122 0.09619 0.0
H221 H 0.49755 0.23225 0.09031 0.0
C222 C 0.9896 0.11477 0.22876 0.0
C223 C 0.96788 0.0703 0.24406 0.0
C224 C 0.95868 0.13359 0.21697 0.0
C225 C 0.90504 0.10859 0.22047 0.0
C226 C 0.88395 0.06484 0.23681 0.0
C227 C 0.91487 0.04594 0.24845 0.0
C228 C 0.86906 0.12508 0.20582 0.0
C229 C 0.88572 0.16963 0.19474 0.0
C230 C 0.85023 0.18603 0.17891 0.0
C231 C 0.87262 0.23605 0.17654 0.0
C232 C 0.84203 0.25362 0.1611 0.0
C233 C 0.7879 0.22168 0.14719 0.0
H234 H 0.77712 0.11492 0.16529 0.0
C235 C 0.76524 0.17149 0.14946 0.0
C236 C 0.79599 0.15382 0.16498 0.0
H237 H 0.72388 0.14569 0.13869 0.0
H238 H 1.03013 0.13429 0.22455 0.0
H239 H 0.97692 0.16677 0.20402 0.0
H240 H 0.8429 0.04453 0.2399 0.0
H241 H 0.89669 1.01141 0.25986 0.0
H242 H 0.82708 0.09927 0.20467 0.0
H243 H 0.92775 0.19659 0.19815 0.0
H244 H 0.91417 0.26191 0.18686 0.0
H245 H 0.86087 0.29255 0.16057 0.0
C246 C 0.72549 0.48946 0.12012 0.0
C247 C 0.74721 0.46683 0.10464 0.0
C248 C 0.75725 0.5386 0.13379 0.0
C249 C 0.81156 0.56639 0.13216 0.0
C250 C 0.83237 0.54438 0.11482 0.0
C251 C 0.80081 0.49518 0.10155 0.0
C252 C 0.84774 0.61818 0.14802 0.0
C253 C 0.83952 0.63729 0.17595 0.0
C254 C 0.87611 0.68848 0.19322 0.0
C255 C 0.86839 0.70063 0.22622 0.0
C256 C 0.89976 0.74835 0.24277 0.0
C257 C 0.93995 0.78559 0.22678 0.0
H258 H 0.92396 0.71873 0.15177 0.0
C259 C 0.94841 0.77337 0.19406 0.0
C260 C 0.91691 0.72564 0.17743 0.0
H261 H 0.97816 0.80116 0.18048 0.0
H262 H 0.68445 0.46866 0.12319 0.0
H263 H 0.73913 0.55445 0.14585 0.0
H264 H 0.87379 0.56485 0.11266 0.0
H265 H 0.8189 0.47892 0.08993 0.0
H266 H 0.88399 0.63998 0.13757 0.0
H267 H 0.80503 0.61381 0.18787 0.0
H268 H 0.83747 0.67309 0.23921 0.0
H269 H 0.89219 0.75611 0.26803 0.0
C270 C 0.15813 0.27527 0.78469 0.0
C271 C 0.17928 0.24915 0.77423 0.0
C272 C 0.19083 0.32517 0.7957 0.0
C273 C 0.24576 0.35041 0.7965 0.0
C274 C 0.26656 0.32453 0.7849 0.0
C275 C 0.23374 0.27462 0.77367 0.0
C276 C 0.28263 0.40244 0.81162 0.0
C277 C 0.26765 0.43437 0.81287 0.0
C278 C 0.30271 0.48588 0.82924 0.0
C279 C 0.28873 0.51901 0.81855 0.0
C280 C 0.31749 0.56666 0.83474 0.0
C281 C 0.36083 0.58273 0.86271 0.0
H282 H 0.35857 0.47741 0.86604 0.0
C283 C 0.37582 0.54996 0.87299 0.0
C284 C 0.34704 0.50203 0.8565 0.0
H285 H 0.40868 0.5608 0.89454 0.0
H286 H 0.11647 0.25674 0.78586 0.0
H287 H 0.17307 0.34311 0.80516 0.0
H288 H 0.30862 0.34274 0.78532 0.0
H289 H 0.25152 0.25559 0.7662 0.0
H290 H 0.32363 0.41486 0.82129 0.0
H291 H 0.22785 0.42291 0.80028 0.0
H292 H 0.25499 0.50789 0.79764 0.0
H293 H 0.30539 0.59096 0.8253 0.0
C294 C 0.65198 0.875 0.8892 0.0
C295 C 0.609 0.83017 0.87174 0.0
C296 C 0.70244 0.89646 0.87973 0.0
C297 C 0.71107 0.87323 0.85275 0.0
C298 C 0.6683 0.82772 0.83644 0.0
C299 C 0.61824 0.80676 0.84555 0.0
C300 C 0.76298 0.89399 0.84018 0.0
C301 C 0.80473 0.94075 0.84674 0.0
C302 C 0.85429 0.96078 0.83106 0.0
C303 C 0.90024 1.00522 0.84638 0.0
C304 C 0.94655 1.02636 0.8316 0.0
C305 C 0.94827 1.00385 0.80078 0.0
H306 H 0.82184 0.90479 0.78666 0.0
C307 C 0.90247 0.95929 0.78552 0.0
C308 C 0.85623 0.93816 0.80028 0.0
H309 H 0.90189 0.94094 0.76162 0.0
H310 H 0.64632 0.89412 0.90945 0.0
H311 H 0.73422 0.93108 0.89357 0.0
H312 H 0.67325 0.80847 0.81583 0.0
H313 H 0.58641 0.77211 0.83159 0.0
H314 H 0.76586 0.86892 0.82358 0.0
H315 H 0.80287 0.96594 0.86397 0.0
H316 H 0.90029 1.02394 0.86986 0.0
H317 H 0.98083 0.06073 0.84414 0.0
C318 C 0.19597 0.95744 0.81882 0.0
C319 C 0.21659 1.00429 0.80728 0.0
C320 C 0.22956 0.94313 0.83505 0.0
C321 C 0.2849 0.97528 0.84017 0.0
C322 C 0.30545 1.02148 0.8278 0.0
C323 C 0.27196 0.03595 0.81191 0.0
C324 C 0.32239 0.96151 0.8569 0.0
C325 C 0.31065 0.92772 0.88053 0.0
C326 C 0.34643 0.91149 0.89629 0.0
C327 C 0.32438 0.86793 0.91277 0.0
C328 C 0.35454 0.84865 0.92523 0.0
C329 C 0.408 0.87267 0.92199 0.0
H330 H 0.42024 0.97141 0.88342 0.0
C331 C 0.43122 0.91781 0.90759 0.0
C332 C 0.40087 0.93705 0.89486 0.0
H333 H 0.47219 0.9371 0.9044 0.0
H334 H 0.15371 0.93153 0.81519 0.0
H335 H 0.2119 0.90656 0.84296 0.0
H336 H 0.34779 0.04699 0.83105 0.0
H337 H 0.28979 0.07261 0.80414 0.0
H338 H 0.36114 0.98064 0.84947 0.0
H339 H 0.27197 0.90959 0.88814 0.0
H340 H 0.2829 0.84755 0.91479 0.0
H341 H 0.33526 0.81373 0.93605 0.0
C342 C 0.88997 0.40591 0.49924 0.0
C343 C 0.87812 0.41033 0.53293 0.0
C344 C 0.94224 0.43156 0.49323 0.0
C345 C 0.98462 0.46266 0.52076 0.0
C346 C 0.97286 0.46665 0.55456 0.0
C347 C 0.92041 0.44116 0.56054 0.0
C348 C 1.04139 0.48957 0.51581 0.0
C349 C 0.05758 0.49976 0.48376 0.0
C350 C 0.11434 0.52559 0.47894 0.0
C351 C 0.12894 0.54815 0.4474 0.0
C352 C 0.18151 0.57208 0.44175 0.0
C353 C 0.22091 0.57352 0.46733 0.0
H354 H 0.14446 0.50865 0.52843 0.0
C355 C 0.20603 0.55016 0.49856 0.0
C356 C 0.15375 0.5266 0.50428 0.0
H357 H 0.23498 0.5503 0.51902 0.0
H358 H 0.85869 0.38256 0.47721 0.0
H359 H 0.94909 0.42607 0.46707 0.0
H360 H 1.00445 0.48987 0.5765 0.0
H361 H 0.91307 0.44562 0.58679 0.0
H362 H 0.071 0.50275 0.53998 0.0
H363 H 1.02837 0.49029 0.45982 0.0
H364 H 0.09959 0.54769 0.4271 0.0
H365 H 0.19127 0.58964 0.41745 0.0
C366 C 0.69118 0.48046 0.56466 0.0
C367 C 0.6688 0.43584 0.57977 0.0
C368 C 0.65983 0.49805 0.55052 0.0
C369 C 0.60522 0.47158 0.55143 0.0
C370 C 0.58361 0.4281 0.56802 0.0
C371 C 0.61488 0.41048 0.582 0.0
C372 C 0.56875 0.48593 0.53355 0.0
C373 C 0.58481 0.53057 0.52306 0.0
C374 C 0.54851 0.54466 0.50464 0.0
C375 C 0.56653 0.59417 0.50611 0.0
C376 C 0.53516 0.60976 0.48854 0.0
C377 C 0.48479 0.57639 0.46831 0.0
H378 H 0.48296 0.4725 0.48204 0.0
C379 C 0.46647 0.52661 0.46681 0.0
C380 C 0.49795 0.5109 0.48467 0.0
H381 H 0.42822 0.49981 0.4513 0.0
H382 H 0.73233 0.50049 0.56186 0.0
H383 H 0.67836 0.53117 0.53748 0.0
H384 H 0.54186 0.40678 0.56924 0.0
H385 H 0.59618 0.37578 0.59317 0.0
H386 H 0.5267 0.45851 0.52961 0.0
H387 H 0.62638 0.55921 0.52942 0.0
H388 H 0.60514 0.62113 0.52119 0.0
H389 H 0.5504 0.64826 0.4913 0.0
C390 C 0.41669 0.84044 0.45418 0.0
C391 C 0.43789 0.81803 0.4378 0.0
C392 C 0.44773 0.89046 0.46547 0.0
C393 C 0.50071 0.91921 0.4605 0.0
C394 C 0.52078 0.89703 0.44254 0.0
C395 C 0.49002 0.84713 0.43162 0.0
C396 C 0.53635 0.97219 0.47334 0.0
C397 C 0.5305 0.99334 0.50124 0.0
C398 C 0.56681 0.04583 0.51575 0.0
C399 C 0.55943 0.0609 0.54774 0.0
C400 C 0.59039 0.10969 0.56186 0.0
C401 C 0.62989 0.14516 0.54443 0.0
H402 H 0.61437 0.07202 0.47378 0.0
C403 C 0.63843 0.13014 0.51292 0.0
C404 C 0.60722 0.08123 0.49863 0.0
H405 H 0.66798 0.15655 0.4985 0.0
H406 H 0.3767 0.81905 0.45941 0.0
H407 H 0.43007 0.90629 0.47814 0.0
H408 H 0.56108 0.91813 0.43786 0.0
H409 H 0.50762 0.8311 0.41903 0.0
H410 H 0.57031 0.99334 0.46049 0.0
H411 H 0.49815 0.97074 0.51523 0.0
H412 H 0.52902 0.03483 0.56179 0.0
H413 H 0.58299 0.11972 0.58638 0.0
C414 C 0.06597 0.04696 0.62263 0.0
C415 C 1.04076 0.06955 0.63254 0.0
C416 C 0.06554 0.03778 0.58651 0.0
C417 C 1.04014 0.05136 0.55939 0.0
C418 C 1.01463 0.07348 0.56939 0.0
C419 C 1.01508 0.08263 0.60535 0.0
C420 C 1.03868 0.04303 0.52048 0.0
C421 C 0.0732 0.03611 0.50743 0.0
C422 C 0.07481 0.03292 0.46853 0.0
C423 C 0.12271 0.04574 0.45843 0.0
C424 C 0.12717 0.04589 0.42242 0.0
C425 C 0.08363 0.03264 0.39539 0.0
H426 H 0.99242 1.00624 0.44806 0.0
C427 C 1.03493 1.01769 0.40531 0.0
C428 C 1.03051 1.01787 0.4415 0.0
H429 H 1.00064 1.00721 0.38515 0.0
H430 H 0.08532 0.0356 0.64275 0.0
H431 H 0.08443 1.01939 0.58013 0.0
H432 H 0.99467 0.08433 0.54925 0.0
H433 H 0.99581 0.10065 0.61176 0.0
H434 H 1.01019 0.04629 0.50193 0.0
H435 H 0.10453 0.03683 0.52584 0.0
H436 H 0.15731 0.05683 0.47853 0.0
H437 H 0.16499 0.05669 0.41571 0.0
C438 C 0.63317 0.29548 0.92847 0.0
C439 C 0.67036 0.31739 0.96041 0.0
C440 C 0.64899 0.30417 0.89506 0.0
C441 C 0.70267 0.3355 0.89246 0.0
C442 C 0.73973 0.35761 0.92437 0.0
C443 C 0.72391 0.34882 0.95779 0.0
C444 C 0.72218 0.34501 0.85751 0.0
C445 C 0.69098 0.33291 0.82492 0.0
C446 C 0.71062 0.34217 0.79006 0.0
C447 C 0.67696 0.33929 0.75908 0.0
C448 C 0.69313 0.3472 0.72578 0.0
C449 C 0.74355 0.35811 0.72237 0.0
H450 H 0.78763 0.35338 0.80922 0.0
C451 C 0.77701 0.36029 0.75325 0.0
C452 C 0.76081 0.35229 0.78657 0.0
H453 H 0.81569 0.36762 0.75167 0.0
H454 H 0.59152 0.27144 0.92914 0.0
H455 H 0.61879 0.28543 0.87158 0.0
H456 H 0.7814 0.38166 0.92351 0.0
H457 H 0.75397 0.36599 0.98155 0.0
H458 H 0.7646 0.3641 0.85912 0.0
H459 H 0.64896 0.31679 0.82326 0.0
H460 H 0.63795 0.33126 0.76065 0.0
H461 H 0.66633 0.34562 0.70285 0.0
C462 C 0.34103 0.69255 0.25708 0.0
C463 C 0.3718 0.6898 0.28748 0.0
C464 C 0.35968 0.70471 0.22471 0.0
C465 C 0.40978 0.71433 0.2216 0.0
C466 C 0.44075 0.71212 0.25209 0.0
C467 C 0.42207 0.69995 0.28449 0.0
C468 C 0.43209 0.72845 0.18779 0.0
C469 C 0.40312 0.72128 0.15495 0.0
C470 C 0.4253 0.73619 0.12113 0.0
C471 C 0.39328 0.73698 0.09064 0.0
C472 C 0.41213 0.75107 0.05846 0.0
C473 C 0.46368 0.7647 0.0557 0.0
H474 H 0.50232 0.74739 0.14027 0.0
C475 C 0.49536 0.76288 0.08596 0.0
C476 C 0.47654 0.74878 0.11814 0.0
H477 H 0.53483 0.772 0.08479 0.0
H478 H 0.30267 0.68618 0.25833 0.0
H479 H 0.3349 0.70743 0.20258 0.0
H480 H 0.47964 0.71962 0.25082 0.0
H481 H 0.44689 0.69797 0.30707 0.0
H482 H 0.47441 0.74539 0.19053 0.0
H483 H 0.36076 0.70405 0.15229 0.0
H484 H 0.35354 0.72723 0.09181 0.0
H485 H 0.38654 0.75225 0.03601 0.0
C486 C 1.03752 0.04296 0.09997 0.0
C487 C 1.00093 0.99509 0.10649 0.0
C488 C 0.05961 0.052 0.06927 0.0
C489 C 0.04506 1.01327 0.04443 0.0
C490 C 1.0053 0.96592 0.04931 0.0
C491 C 0.98361 0.95675 0.08031 0.0
C492 C 0.07008 1.02192 0.01283 0.0
C493 C 0.12167 0.05573 0.01418 0.0
C494 C 0.14391 0.07167 0.98138 0.0
C495 C 0.18161 0.12123 0.98023 0.0
C496 C 0.19363 0.13956 0.94752 0.0
C497 C 0.16795 0.10833 0.91593 0.0
H498 H 0.09612 1.00097 0.95049 0.0
C499 C 0.13492 0.0581 0.91754 0.0
C500 C 0.12331 0.03973 0.95013 0.0
H501 H 0.11626 0.0334 0.89334 0.0
H502 H 0.05042 0.0733 0.11921 0.0
H503 H 0.08843 0.08923 0.0652 0.0
H504 H 0.99278 0.93578 0.02994 0.0
H505 H 0.95561 0.91943 0.08457 0.0
H506 H 0.04471 1.00097 0.98788 0.0
H507 H 0.14636 0.07641 0.03942 0.0
H508 H 0.19857 0.1463 1.00419 0.0
H509 H 0.21972 0.17838 0.94658 0.0
C510 C 0.66177 0.41505 0.23587 0.0
C511 C 0.71168 0.42403 0.23347 0.0
C512 C 0.65502 0.43537 0.26516 0.0
C513 C 0.69787 0.46499 0.29267 0.0
C514 C 0.74869 0.4773 0.28865 0.0
C515 C 0.75538 0.45701 0.25931 0.0
C516 C 0.68603 0.47265 0.32763 0.0
C517 C 0.72355 0.49963 0.35624 0.0
C518 C 0.717 0.48306 0.39246 0.0
C519 C 0.76104 0.48811 0.41481 0.0
C520 C 0.7545 0.46109 0.44415 0.0
C521 C 0.7038 0.42872 0.45165 0.0
H522 H 0.63252 0.45187 0.38677 0.0
C523 C 0.66047 0.42752 0.43159 0.0
C524 C 0.66704 0.45488 0.40242 0.0
H525 H 0.62127 0.40426 0.43777 0.0
H526 H 0.62723 0.38985 0.21639 0.0
H527 H 0.61543 0.42505 0.26751 0.0
H528 H 0.78305 0.49964 0.30904 0.0
H529 H 0.79455 0.46565 0.25764 0.0
H530 H 0.6458 0.44698 0.33141 0.0
H531 H 0.76345 0.52643 0.35252 0.0
H532 H 0.80004 0.50985 0.40795 0.0
H533 H 0.78865 0.46305 0.45946 0.0
C534 C 0.32784 0.71621 0.57004 0.0
C535 C 0.35987 0.69753 0.56959 0.0
C536 C 0.30359 0.71204 0.59937 0.0
C537 C 0.31131 0.68932 0.62892 0.0
C538 C 0.34118 0.66862 0.62758 0.0
C539 C 0.36538 0.67285 0.59836 0.0
C540 C 0.29449 0.69087 0.6632 0.0
C541 C 0.28998 0.7273 0.67433 0.0
C542 C 0.3043 0.74494 0.71274 0.0
C543 C 0.33387 0.79536 0.72184 0.0
C544 C 0.36377 0.81482 0.75598 0.0
C545 C 0.36436 0.78411 0.78158 0.0
H546 H 0.27412 0.67494 0.73416 0.0
C547 C 0.32887 0.73356 0.77396 0.0
C548 C 0.29866 0.71409 0.73985 0.0
H549 H 0.32742 0.7088 0.79328 0.0
H550 H 0.32235 0.73492 0.54803 0.0
H551 H 0.27965 0.72727 0.5989 0.0
H552 H 0.34755 0.65062 0.64984 0.0
H553 H 0.38833 0.65664 0.59835 0.0
H554 H 0.29786 0.66788 0.68254 0.0
H555 H 0.28956 0.7521 0.65557 0.0
H556 H 0.33794 0.81997 0.70167 0.0
H557 H 0.38903 0.85395 0.76153 0.0
loop_
_geom_bond_atom_site_label_1
_geom_bond_atom_site_label_2
_geom_bond_distance
_geom_bond_site_symmetry_2
_ccdc_geom_bond_type
Co0 N4 2.148 . S
Co0 N10 2.128 . S
Co0 N20 2.194 1_445 S
Co0 O25 2.351 1_455 S
Co0 O26 2.155 . S
Co0 O27 2.096 . S
C1 N4 1.301 . S
C1 N5 1.328 . S
C1 H6 0.930 1_455 S
C2 C3 1.333 . S
C2 N4 1.317 . S
C2 H7 0.930 . S
C3 C2 1.333 . S
C3 N5 1.350 . S
C3 H29 0.931 . S
N4 Co0 2.148 . S
N4 C1 1.301 . S
N4 C2 1.317 . S
N5 C1 1.328 . S
N5 C3 1.350 . S
H6 C1 0.930 1_655 S
H7 C2 0.930 . S
C8 O9 1.224 . S
C8 O27 1.247 . S
O9 C8 1.224 . S
N10 Co0 2.128 . S
N10 C11 1.355 1_445 S
N10 C13 1.311 . S
C11 N10 1.355 1_665 S
C11 C12 1.363 . S
C11 H23 0.929 . S
C12 C11 1.363 . S
C12 N14 1.375 1_665 S
C12 H30 0.931 . S
C13 N10 1.311 . S
C13 N14 1.347 . S
C13 H24 0.929 . S
N14 C12 1.375 1_445 S
N14 C13 1.347 . S
C15 C18 1.365 . S
C15 N20 1.328 . S
C15 H21 0.929 . S
C16 C17 1.362 . S
C16 C19 1.378 1_655 S
C16 H31 0.929 1_655 S
C17 C16 1.362 . S
C17 C18 1.366 . S
C18 C15 1.365 . S
C18 C17 1.366 . S
C18 H32 0.930 . S
C19 C16 1.378 1_455 S
C19 N20 1.315 1_455 S
C19 H22 0.930 . S
N20 Co0 2.194 1_665 S
N20 C15 1.328 . S
N20 C19 1.315 1_655 S
H21 C15 0.929 . S
H22 C19 0.930 . S
H23 C11 0.929 . S
H24 C13 0.929 . S
O25 Co0 2.351 1_655 S
O25 C28 1.244 . S
O26 Co0 2.155 . S
O26 C28 1.240 1_455 S
O27 Co0 2.096 . S
O27 C8 1.247 . S
C28 O25 1.244 . S
C28 O26 1.240 1_655 S
H29 C3 0.931 . S
H30 C12 0.931 . S
H31 C16 0.929 1_455 S
H32 C18 0.930 . S
Co33 N37 2.148 1_455 S
Co33 N43 2.128 . S
Co33 N53 2.194 1_545 S
Co33 O58 2.351 . S
Co33 O59 2.155 . S
Co33 O60 2.096 1_445 S
C34 N37 1.301 1_455 S
C34 N38 1.328 1_455 S
C34 H39 0.930 . S
C35 C36 1.333 . S
C35 N37 1.317 1_565 S
C35 H40 0.930 . S
C36 C35 1.333 . S
C36 N38 1.350 1_565 S
C36 H62 0.931 . S
N37 Co33 2.148 1_655 S
N37 C34 1.301 1_655 S
N37 C35 1.317 1_545 S
N38 C34 1.328 1_655 S
N38 C36 1.350 1_545 S
H39 C34 0.930 . S
H40 C35 0.930 . S
C41 O42 1.224 . S
C41 O60 1.247 . S
O42 C41 1.224 . S
N43 Co33 2.128 . S
N43 C44 1.355 . S
N43 C46 1.311 1_455 S
C44 N43 1.355 . S
C44 C45 1.363 . S
C44 H56 0.929 . S
C45 C44 1.363 . S
C45 N47 1.375 . S
C45 H63 0.931 . S
C46 N43 1.311 1_655 S
C46 N47 1.347 1_655 S
C46 H57 0.929 . S
N47 C45 1.375 . S
N47 C46 1.347 1_455 S
C48 C51 1.365 1_545 S
C48 N53 1.328 1_545 S
C48 H54 0.929 . S
C49 C50 1.362 . S
C49 C52 1.378 . S
C49 H64 0.929 . S
C50 C49 1.362 . S
C50 C51 1.366 . S
C51 C48 1.365 1_565 S
C51 C50 1.366 . S
C51 H65 0.930 . S
C52 C49 1.378 . S
C52 N53 1.315 . S
C52 H55 0.930 1_455 S
N53 Co33 2.194 1_565 S
N53 C48 1.328 1_565 S
N53 C52 1.315 . S
H54 C48 0.929 . S
H55 C52 0.930 1_655 S
H56 C44 0.929 . S
H57 C46 0.929 . S
O58 Co33 2.351 . S
O58 C61 1.244 . S
O59 Co33 2.155 . S
O59 C61 1.240 . S
O60 Co33 2.096 1_665 S
O60 C41 1.247 . S
C61 O58 1.244 . S
C61 O59 1.240 . S
H62 C36 0.931 . S
H63 C45 0.931 . S
H64 C49 0.929 . S
H65 C51 0.930 . S
Co66 N70 2.148 . S
Co66 N76 2.128 . S
Co66 N86 2.194 . S
Co66 O91 2.351 . S
Co66 O92 2.155 . S
Co66 O93 2.096 . S
C67 N70 1.301 . S
C67 N71 1.328 . S
C67 H72 0.930 . S
C68 C69 1.333 . S
C68 N70 1.317 . S
C68 H73 0.930 . S
C69 C68 1.333 . S
C69 N71 1.350 . S
C69 H95 0.931 . S
N70 Co66 2.148 . S
N70 C67 1.301 . S
N70 C68 1.317 . S
N71 C67 1.328 . S
N71 C69 1.350 . S
H72 C67 0.930 . S
H73 C68 0.930 . S
C74 O75 1.224 . S
C74 O93 1.247 . S
O75 C74 1.224 . S
N76 Co66 2.128 . S
N76 C77 1.355 . S
N76 C79 1.311 . S
C77 N76 1.355 . S
C77 C78 1.363 . S
C77 H89 0.929 . S
C78 C77 1.363 . S
C78 N80 1.375 . S
C78 H96 0.931 . S
C79 N76 1.311 . S
C79 N80 1.347 . S
C79 H90 0.929 . S
N80 C78 1.375 . S
N80 C79 1.347 . S
C81 C84 1.365 . S
C81 N86 1.328 . S
C81 H87 0.929 . S
C82 C83 1.362 . S
C82 C85 1.378 . S
C82 H97 0.929 . S
C83 C82 1.362 . S
C83 C84 1.366 . S
C84 C81 1.365 . S
C84 C83 1.366 . S
C84 H98 0.930 . S
C85 C82 1.378 . S
C85 N86 1.315 . S
C85 H88 0.930 . S
N86 Co66 2.194 . S
N86 C81 1.328 . S
N86 C85 1.315 . S
H87 C81 0.929 . S
H88 C85 0.930 . S
H89 C77 0.929 . S
H90 C79 0.929 . S
O91 Co66 2.351 . S
O91 C94 1.244 . S
O92 Co66 2.155 . S
O92 C94 1.240 . S
O93 Co66 2.096 . S
O93 C74 1.247 . S
C94 O91 1.244 . S
C94 O92 1.240 . S
H95 C69 0.931 . S
H96 C78 0.931 . S
H97 C82 0.929 . S
H98 C84 0.930 . S
Co99 N103 2.148 . S
Co99 N109 2.128 . S
Co99 N119 2.194 . S
Co99 O124 2.351 . S
Co99 O125 2.155 . S
Co99 O126 2.096 . S
C100 N103 1.301 . S
C100 N104 1.328 . S
C100 H105 0.930 . S
C101 C102 1.333 . S
C101 N103 1.317 . S
C101 H106 0.930 . S
C102 C101 1.333 . S
C102 N104 1.350 . S
C102 H128 0.931 1_554 S
N103 Co99 2.148 . S
N103 C100 1.301 . S
N103 C101 1.317 . S
N104 C100 1.328 . S
N104 C102 1.350 . S
H105 C100 0.930 . S
H106 C101 0.930 . S
C107 O108 1.224 . S
C107 O126 1.247 . S
O108 C107 1.224 . S
N109 Co99 2.128 . S
N109 C110 1.355 . S
N109 C112 1.311 . S
C110 N109 1.355 . S
C110 C111 1.363 . S
C110 H122 0.929 . S
C111 C110 1.363 . S
C111 N113 1.375 . S
C111 H129 0.931 . S
C112 N109 1.311 . S
C112 N113 1.347 . S
C112 H123 0.929 . S
N113 C111 1.375 . S
N113 C112 1.347 . S
C114 C117 1.365 . S
C114 N119 1.328 . S
C114 H120 0.929 . S
C115 C116 1.362 . S
C115 C118 1.378 . S
C115 H130 0.929 . S
C116 C115 1.362 . S
C116 C117 1.366 . S
C117 C114 1.365 . S
C117 C116 1.366 . S
C117 H131 0.930 . S
C118 C115 1.378 . S
C118 N119 1.315 . S
C118 H121 0.930 . S
N119 Co99 2.194 . S
N119 C114 1.328 . S
N119 C118 1.315 . S
H120 C114 0.929 . S
H121 C118 0.930 . S
H122 C110 0.929 . S
H123 C112 0.929 . S
O124 Co99 2.351 . S
O124 C127 1.244 . S
O125 Co99 2.155 . S
O125 C127 1.240 . S
O126 Co99 2.096 . S
O126 C107 1.247 . S
C127 O124 1.244 . S
C127 O125 1.240 . S
H128 C102 0.931 1_556 S
H129 C111 0.931 . S
H130 C115 0.929 . S
H131 C117 0.930 . S
Co132 N136 2.148 . S
Co132 N142 2.128 . S
Co132 N152 2.194 . S
Co132 O157 2.351 . S
Co132 O158 2.155 . S
Co132 O159 2.096 . S
C133 N136 1.301 . S
C133 N137 1.328 . S
C133 H138 0.930 . S
C134 C135 1.333 . S
C134 N136 1.317 . S
C134 H139 0.930 . S
C135 C134 1.333 . S
C135 N137 1.350 . S
C135 H161 0.931 1_556 S
N136 Co132 2.148 . S
N136 C133 1.301 . S
N136 C134 1.317 . S
N137 C133 1.328 . S
N137 C135 1.350 . S
H138 C133 0.930 . S
H139 C134 0.930 . S
C140 O141 1.224 . S
C140 O159 1.247 . S
O141 C140 1.224 . S
N142 Co132 2.128 . S
N142 C143 1.355 . S
N142 C145 1.311 . S
C143 N142 1.355 . S
C143 C144 1.363 . S
C143 H155 0.929 . S
C144 C143 1.363 . S
C144 N146 1.375 . S
C144 H162 0.931 . S
C145 N142 1.311 . S
C145 N146 1.347 . S
C145 H156 0.929 . S
N146 C144 1.375 . S
N146 C145 1.347 . S
C147 C150 1.365 . S
C147 N152 1.328 . S
C147 H153 0.929 . S
C148 C149 1.362 . S
C148 C151 1.378 . S
C148 H163 0.929 . S
C149 C148 1.362 . S
C149 C150 1.366 . S
C150 C147 1.365 . S
C150 C149 1.366 . S
C150 H164 0.930 . S
C151 C148 1.378 . S
C151 N152 1.315 . S
C151 H154 0.930 . S
N152 Co132 2.194 . S
N152 C147 1.328 . S
N152 C151 1.315 . S
H153 C147 0.929 . S
H154 C151 0.930 . S
H155 C143 0.929 . S
H156 C145 0.929 . S
O157 Co132 2.351 . S
O157 C160 1.244 . S
O158 Co132 2.155 . S
O158 C160 1.240 . S
O159 Co132 2.096 . S
O159 C140 1.247 . S
C160 O157 1.244 . S
C160 O158 1.240 . S
H161 C135 0.931 1_554 S
H162 C144 0.931 . S
H163 C148 0.929 . S
H164 C150 0.930 . S
Co165 N169 2.148 . S
Co165 N175 2.128 . S
Co165 N185 2.194 . S
Co165 O190 2.351 . S
Co165 O191 2.155 . S
Co165 O192 2.096 . S
C166 N169 1.301 . S
C166 N170 1.328 . S
C166 H171 0.930 . S
C167 C168 1.333 . S
C167 N169 1.317 . S
C167 H172 0.930 . S
C168 C167 1.333 . S
C168 N170 1.350 . S
C168 H194 0.931 . S
N169 Co165 2.148 . S
N169 C166 1.301 . S
N169 C167 1.317 . S
N170 C166 1.328 . S
N170 C168 1.350 . S
H171 C166 0.930 . S
H172 C167 0.930 . S
C173 O174 1.224 . S
C173 O192 1.247 . S
O174 C173 1.224 . S
N175 Co165 2.128 . S
N175 C176 1.355 . S
N175 C178 1.311 . S
C176 N175 1.355 . S
C176 C177 1.363 . S
C176 H188 0.929 . S
C177 C176 1.363 . S
C177 N179 1.375 . S
C177 H195 0.931 . S
C178 N175 1.311 . S
C178 N179 1.347 . S
C178 H189 0.929 . S
N179 C177 1.375 . S
N179 C178 1.347 . S
C180 C183 1.365 . S
C180 N185 1.328 . S
C180 H186 0.929 . S
C181 C182 1.362 . S
C181 C184 1.378 . S
C181 H196 0.929 . S
C182 C181 1.362 . S
C182 C183 1.366 . S
C183 C180 1.365 . S
C183 C182 1.366 . S
C183 H197 0.930 . S
C184 C181 1.378 . S
C184 N185 1.315 . S
C184 H187 0.930 . S
N185 Co165 2.194 . S
N185 C180 1.328 . S
N185 C184 1.315 . S
H186 C180 0.929 . S
H187 C184 0.930 . S
H188 C176 0.929 . S
H189 C178 0.929 . S
O190 Co165 2.351 . S
O190 C193 1.244 . S
O191 Co165 2.155 . S
O191 C193 1.240 . S
O192 Co165 2.096 . S
O192 C173 1.247 . S
C193 O190 1.244 . S
C193 O191 1.240 . S
H194 C168 0.931 . S
H195 C177 0.931 . S
H196 C181 0.929 . S
H197 C183 0.930 . S
C198 C199 1.386 . S
C198 C200 1.383 . S
C198 H214 0.951 . S
C199 C198 1.386 . S
C199 C203 1.383 . S
C200 C198 1.383 . S
C200 C201 1.402 . S
C200 H215 0.951 . S
C201 C200 1.402 . S
C201 C202 1.375 . S
C201 C204 1.481 . S
C202 C201 1.375 . S
C202 C203 1.367 . S
C202 H216 0.951 . S
C203 C199 1.383 . S
C203 C202 1.367 . S
C203 H217 0.950 . S
C204 C201 1.481 . S
C204 C205 1.297 . S
C204 H218 0.950 . S
C205 C204 1.297 . S
C205 C206 1.479 . S
C205 H219 0.950 . S
C206 C205 1.479 . S
C206 C207 1.375 . S
C206 C212 1.404 . S
C207 C206 1.375 . S
C207 C208 1.369 . S
C207 H220 0.950 . S
C208 C207 1.369 . S
C208 C209 1.392 . S
C208 H221 0.951 . S
C209 C208 1.392 . S
C209 C211 1.384 . S
H210 C212 0.949 . S
C211 C209 1.384 . S
C211 C212 1.385 . S
C211 H213 0.950 . S
C212 C206 1.404 . S
C212 H210 0.949 . S
C212 C211 1.385 . S
H213 C211 0.950 . S
H214 C198 0.951 . S
H215 C200 0.951 . S
H216 C202 0.951 . S
H217 C203 0.950 . S
H218 C204 0.950 . S
H219 C205 0.950 . S
H220 C207 0.950 . S
H221 C208 0.951 . S
C222 C223 1.386 . S
C222 C224 1.383 . S
C222 H238 0.951 . S
C223 C222 1.386 . S
C223 C227 1.383 . S
C224 C222 1.383 . S
C224 C225 1.402 . S
C224 H239 0.951 . S
C225 C224 1.402 . S
C225 C226 1.375 . S
C225 C228 1.481 . S
C226 C225 1.375 . S
C226 C227 1.367 . S
C226 H240 0.951 . S
C227 C223 1.383 . S
C227 C226 1.367 . S
C227 H241 0.950 . S
C228 C225 1.481 . S
C228 C229 1.297 . S
C228 H242 0.950 . S
C229 C228 1.297 . S
C229 C230 1.479 . S
C229 H243 0.950 . S
C230 C229 1.479 . S
C230 C231 1.375 . S
C230 C236 1.404 . S
C231 C230 1.375 . S
C231 C232 1.369 . S
C231 H244 0.950 . S
C232 C231 1.369 . S
C232 C233 1.392 . S
C232 H245 0.951 . S
C233 C232 1.392 . S
C233 C235 1.384 . S
H234 C236 0.949 . S
C235 C233 1.384 . S
C235 C236 1.385 . S
C235 H237 0.950 . S
C236 C230 1.404 . S
C236 H234 0.949 . S
C236 C235 1.385 . S
H237 C235 0.950 . S
H238 C222 0.951 . S
H239 C224 0.951 . S
H240 C226 0.951 . S
H241 C227 0.950 . S
H242 C228 0.950 . S
H243 C229 0.950 . S
H244 C231 0.950 . S
H245 C232 0.951 . S
C246 C247 1.386 . S
C246 C248 1.383 . S
C246 H262 0.951 . S
C247 C246 1.386 . S
C247 C251 1.383 . S
C248 C246 1.383 . S
C248 C249 1.402 . S
C248 H263 0.951 . S
C249 C248 1.402 . S
C249 C250 1.375 . S
C249 C252 1.481 . S
C250 C249 1.375 . S
C250 C251 1.367 . S
C250 H264 0.951 . S
C251 C247 1.383 . S
C251 C250 1.367 . S
C251 H265 0.950 . S
C252 C249 1.481 . S
C252 C253 1.297 . S
C252 H266 0.950 . S
C253 C252 1.297 . S
C253 C254 1.479 . S
C253 H267 0.950 . S
C254 C253 1.479 . S
C254 C255 1.375 . S
C254 C260 1.404 . S
C255 C254 1.375 . S
C255 C256 1.369 . S
C255 H268 0.950 . S
C256 C255 1.369 . S
C256 C257 1.392 . S
C256 H269 0.951 . S
C257 C256 1.392 . S
C257 C259 1.384 . S
H258 C260 0.949 . S
C259 C257 1.384 . S
C259 C260 1.385 . S
C259 H261 0.950 . S
C260 C254 1.404 . S
C260 H258 0.949 . S
C260 C259 1.385 . S
H261 C259 0.950 . S
H262 C246 0.951 . S
H263 C248 0.951 . S
H264 C250 0.951 . S
H265 C251 0.950 . S
H266 C252 0.950 . S
H267 C253 0.950 . S
H268 C255 0.950 . S
H269 C256 0.951 . S
C270 C271 1.386 . S
C270 C272 1.383 . S
C270 H286 0.951 . S
C271 C270 1.386 . S
C271 C275 1.383 . S
C272 C270 1.383 . S
C272 C273 1.402 . S
C272 H287 0.951 . S
C273 C272 1.402 . S
C273 C274 1.375 . S
C273 C276 1.481 . S
C274 C273 1.375 . S
C274 C275 1.367 . S
C274 H288 0.951 . S
C275 C271 1.383 . S
C275 C274 1.367 . S
C275 H289 0.950 . S
C276 C273 1.481 . S
C276 C277 1.297 . S
C276 H290 0.950 . S
C277 C276 1.297 . S
C277 C278 1.479 . S
C277 H291 0.950 . S
C278 C277 1.479 . S
C278 C279 1.375 . S
C278 C284 1.404 . S
C279 C278 1.375 . S
C279 C280 1.369 . S
C279 H292 0.950 . S
C280 C279 1.369 . S
C280 C281 1.392 . S
C280 H293 0.951 . S
C281 C280 1.392 . S
C281 C283 1.384 . S
H282 C284 0.949 . S
C283 C281 1.384 . S
C283 C284 1.385 . S
C283 H285 0.950 . S
C284 C278 1.404 . S
C284 H282 0.949 . S
C284 C283 1.385 . S
H285 C283 0.950 . S
H286 C270 0.951 . S
H287 C272 0.951 . S
H288 C274 0.951 . S
H289 C275 0.950 . S
H290 C276 0.950 . S
H291 C277 0.950 . S
H292 C279 0.950 . S
H293 C280 0.951 . S
C294 C295 1.386 . S
C294 C296 1.383 . S
C294 H310 0.951 . S
C295 C294 1.386 . S
C295 C299 1.383 . S
C296 C294 1.383 . S
C296 C297 1.402 . S
C296 H311 0.951 . S
C297 C296 1.402 . S
C297 C298 1.375 . S
C297 C300 1.481 . S
C298 C297 1.375 . S
C298 C299 1.367 . S
C298 H312 0.951 . S
C299 C295 1.383 . S
C299 C298 1.367 . S
C299 H313 0.950 . S
C300 C297 1.481 . S
C300 C301 1.297 . S
C300 H314 0.950 . S
C301 C300 1.297 . S
C301 C302 1.479 . S
C301 H315 0.950 . S
C302 C301 1.479 . S
C302 C303 1.375 . S
C302 C308 1.404 . S
C303 C302 1.375 . S
C303 C304 1.369 . S
C303 H316 0.950 . S
C304 C303 1.369 . S
C304 C305 1.392 . S
C304 H317 0.951 . S
C305 C304 1.392 . S
C305 C307 1.384 . S
H306 C308 0.949 . S
C307 C305 1.384 . S
C307 C308 1.385 . S
C307 H309 0.950 . S
C308 C302 1.404 . S
C308 H306 0.949 . S
C308 C307 1.385 . S
H309 C307 0.950 . S
H310 C294 0.951 . S
H311 C296 0.951 . S
H312 C298 0.951 . S
H313 C299 0.950 . S
H314 C300 0.950 . S
H315 C301 0.950 . S
H316 C303 0.950 . S
H317 C304 0.951 . S
C318 C319 1.386 . S
C318 C320 1.383 . S
C318 H334 0.951 . S
C319 C318 1.386 . S
C319 C323 1.383 . S
C320 C318 1.383 . S
C320 C321 1.402 . S
C320 H335 0.951 . S
C321 C320 1.402 . S
C321 C322 1.375 . S
C321 C324 1.481 . S
C322 C321 1.375 . S
C322 C323 1.367 . S
C322 H336 0.951 . S
C323 C319 1.383 . S
C323 C322 1.367 . S
C323 H337 0.950 . S
C324 C321 1.481 . S
C324 C325 1.297 . S
C324 H338 0.950 . S
C325 C324 1.297 . S
C325 C326 1.479 . S
C325 H339 0.950 . S
C326 C325 1.479 . S
C326 C327 1.375 . S
C326 C332 1.404 . S
C327 C326 1.375 . S
C327 C328 1.369 . S
C327 H340 0.950 . S
C328 C327 1.369 . S
C328 C329 1.392 . S
C328 H341 0.951 . S
C329 C328 1.392 . S
C329 C331 1.384 . S
H330 C332 0.949 . S
C331 C329 1.384 . S
C331 C332 1.385 . S
C331 H333 0.950 . S
C332 C326 1.404 . S
C332 H330 0.949 . S
C332 C331 1.385 . S
H333 C331 0.950 . S
H334 C318 0.951 . S
H335 C320 0.951 . S
H336 C322 0.951 . S
H337 C323 0.950 . S
H338 C324 0.950 . S
H339 C325 0.950 . S
H340 C327 0.950 . S
H341 C328 0.951 . S
C342 C343 1.386 . S
C342 C344 1.383 . S
C342 H358 0.951 . S
C343 C342 1.386 . S
C343 C347 1.383 . S
C344 C342 1.383 . S
C344 C345 1.402 . S
C344 H359 0.951 . S
C345 C344 1.402 . S
C345 C346 1.375 . S
C345 C348 1.481 1_655 S
C346 C345 1.375 . S
C346 C347 1.367 . S
C346 H360 0.951 . S
C347 C343 1.383 . S
C347 C346 1.367 . S
C347 H361 0.950 . S
C348 C345 1.481 1_455 S
C348 C349 1.297 . S
C348 H362 0.950 . S
C349 C348 1.297 . S
C349 C350 1.479 . S
C349 H363 0.950 1_455 S
C350 C349 1.479 . S
C350 C351 1.375 . S
C350 C356 1.404 . S
C351 C350 1.375 . S
C351 C352 1.369 . S
C351 H364 0.950 . S
C352 C351 1.369 . S
C352 C353 1.392 . S
C352 H365 0.951 . S
C353 C352 1.392 . S
C353 C355 1.384 . S
H354 C356 0.949 . S
C355 C353 1.384 . S
C355 C356 1.385 . S
C355 H357 0.950 . S
C356 C350 1.404 . S
C356 H354 0.949 . S
C356 C355 1.385 . S
H357 C355 0.950 . S
H358 C342 0.951 . S
H359 C344 0.951 . S
H360 C346 0.951 . S
H361 C347 0.950 . S
H362 C348 0.950 . S
H363 C349 0.950 1_655 S
H364 C351 0.950 . S
H365 C352 0.951 . S
C366 C367 1.386 . S
C366 C368 1.383 . S
C366 H382 0.951 . S
C367 C366 1.386 . S
C367 C371 1.383 . S
C368 C366 1.383 . S
C368 C369 1.402 . S
C368 H383 0.951 . S
C369 C368 1.402 . S
C369 C370 1.375 . S
C369 C372 1.481 . S
C370 C369 1.375 . S
C370 C371 1.367 . S
C370 H384 0.951 . S
C371 C367 1.383 . S
C371 C370 1.367 . S
C371 H385 0.950 . S
C372 C369 1.481 . S
C372 C373 1.297 . S
C372 H386 0.950 . S
C373 C372 1.297 . S
C373 C374 1.479 . S
C373 H387 0.950 . S
C374 C373 1.479 . S
C374 C375 1.375 . S
C374 C380 1.404 . S
C375 C374 1.375 . S
C375 C376 1.369 . S
C375 H388 0.950 . S
C376 C375 1.369 . S
C376 C377 1.392 . S
C376 H389 0.951 . S
C377 C376 1.392 . S
C377 C379 1.384 . S
H378 C380 0.949 . S
C379 C377 1.384 . S
C379 C380 1.385 . S
C379 H381 0.950 . S
C380 C374 1.404 . S
C380 H378 0.949 . S
C380 C379 1.385 . S
H381 C379 0.950 . S
H382 C366 0.951 . S
H383 C368 0.951 . S
H384 C370 0.951 . S
H385 C371 0.950 . S
H386 C372 0.950 . S
H387 C373 0.950 . S
H388 C375 0.950 . S
H389 C376 0.951 . S
C390 C391 1.386 . S
C390 C392 1.383 . S
C390 H406 0.951 . S
C391 C390 1.386 . S
C391 C395 1.383 . S
C392 C390 1.383 . S
C392 C393 1.402 . S
C392 H407 0.951 . S
C393 C392 1.402 . S
C393 C394 1.375 . S
C393 C396 1.481 . S
C394 C393 1.375 . S
C394 C395 1.367 . S
C394 H408 0.951 . S
C395 C391 1.383 . S
C395 C394 1.367 . S
C395 H409 0.950 . S
C396 C393 1.481 . S
C396 C397 1.297 . S
C396 H410 0.950 . S
C397 C396 1.297 . S
C397 C398 1.479 1_565 S
C397 H411 0.950 . S
C398 C397 1.479 1_545 S
C398 C399 1.375 . S
C398 C404 1.404 . S
C399 C398 1.375 . S
C399 C400 1.369 . S
C399 H412 0.950 . S
C400 C399 1.369 . S
C400 C401 1.392 . S
C400 H413 0.951 . S
C401 C400 1.392 . S
C401 C403 1.384 . S
H402 C404 0.949 . S
C403 C401 1.384 . S
C403 C404 1.385 . S
C403 H405 0.950 . S
C404 C398 1.404 . S
C404 H402 0.949 . S
C404 C403 1.385 . S
H405 C403 0.950 . S
H406 C390 0.951 . S
H407 C392 0.951 . S
H408 C394 0.951 . S
H409 C395 0.950 . S
H410 C396 0.950 . S
H411 C397 0.950 . S
H412 C399 0.950 . S
H413 C400 0.951 . S
C414 C415 1.386 . S
C414 C416 1.383 . S
C414 H430 0.951 1_545 S
C415 C414 1.386 . S
C415 C419 1.383 1_455 S
C416 C414 1.383 . S
C416 C417 1.402 1_455 S
C416 H431 0.951 1_545 S
C417 C416 1.402 1_655 S
C417 C418 1.375 . S
C417 C420 1.481 . S
C418 C417 1.375 . S
C418 C419 1.367 . S
C418 H432 0.951 . S
C419 C415 1.383 1_655 S
C419 C418 1.367 . S
C419 H433 0.950 . S
C420 C417 1.481 . S
C420 C421 1.297 1_655 S
C420 H434 0.950 . S
C421 C420 1.297 1_455 S
C421 C422 1.479 . S
C421 H435 0.950 1_545 S
C422 C421 1.479 . S
C422 C423 1.375 1_545 S
C422 C428 1.404 1_455 S
C423 C422 1.375 1_565 S
C423 C424 1.369 1_565 S
C423 H436 0.950 . S
C424 C423 1.369 1_545 S
C424 C425 1.392 . S
C424 H437 0.951 1_545 S
C425 C424 1.392 . S
C425 C427 1.384 1_455 S
H426 C428 0.949 . S
C427 C425 1.384 1_655 S
C427 C428 1.385 . S
C427 H429 0.950 . S
C428 C422 1.404 1_655 S
C428 H426 0.949 . S
C428 C427 1.385 . S
H429 C427 0.950 . S
H430 C414 0.951 1_565 S
H431 C416 0.951 1_565 S
H432 C418 0.951 . S
H433 C419 0.950 . S
H434 C420 0.950 . S
H435 C421 0.950 1_565 S
H436 C423 0.950 . S
H437 C424 0.951 1_565 S
C438 C439 1.386 . S
C438 C440 1.383 . S
C438 H454 0.951 . S
C439 C438 1.386 . S
C439 C443 1.383 . S
C440 C438 1.383 . S
C440 C441 1.402 . S
C440 H455 0.951 . S
C441 C440 1.402 . S
C441 C442 1.375 . S
C441 C444 1.481 . S
C442 C441 1.375 . S
C442 C443 1.367 . S
C442 H456 0.951 . S
C443 C439 1.383 . S
C443 C442 1.367 . S
C443 H457 0.950 . S
C444 C441 1.481 . S
C444 C445 1.297 . S
C444 H458 0.950 . S
C445 C444 1.297 . S
C445 C446 1.479 . S
C445 H459 0.950 . S
C446 C445 1.479 . S
C446 C447 1.375 . S
C446 C452 1.404 . S
C447 C446 1.375 . S
C447 C448 1.369 . S
C447 H460 0.950 . S
C448 C447 1.369 . S
C448 C449 1.392 . S
C448 H461 0.951 . S
C449 C448 1.392 . S
C449 C451 1.384 . S
H450 C452 0.949 . S
C451 C449 1.384 . S
C451 C452 1.385 . S
C451 H453 0.950 . S
C452 C446 1.404 . S
C452 H450 0.949 . S
C452 C451 1.385 . S
H453 C451 0.950 . S
H454 C438 0.951 . S
H455 C440 0.951 . S
H456 C442 0.951 . S
H457 C443 0.950 . S
H458 C444 0.950 . S
H459 C445 0.950 . S
H460 C447 0.950 . S
H461 C448 0.951 . S
C462 C463 1.386 . S
C462 C464 1.383 . S
C462 H478 0.951 . S
C463 C462 1.386 . S
C463 C467 1.383 . S
C464 C462 1.383 . S
C464 C465 1.402 . S
C464 H479 0.951 . S
C465 C464 1.402 . S
C465 C466 1.375 . S
C465 C468 1.481 . S
C466 C465 1.375 . S
C466 C467 1.367 . S
C466 H480 0.951 . S
C467 C463 1.383 . S
C467 C466 1.367 . S
C467 H481 0.950 . S
C468 C465 1.481 . S
C468 C469 1.297 . S
C468 H482 0.950 . S
C469 C468 1.297 . S
C469 C470 1.479 . S
C469 H483 0.950 . S
C470 C469 1.479 . S
C470 C471 1.375 . S
C470 C476 1.404 . S
C471 C470 1.375 . S
C471 C472 1.369 . S
C471 H484 0.950 . S
C472 C471 1.369 . S
C472 C473 1.392 . S
C472 H485 0.951 . S
C473 C472 1.392 . S
C473 C475 1.384 . S
H474 C476 0.949 . S
C475 C473 1.384 . S
C475 C476 1.385 . S
C475 H477 0.950 . S
C476 C470 1.404 . S
C476 H474 0.949 . S
C476 C475 1.385 . S
H477 C475 0.950 . S
H478 C462 0.951 . S
H479 C464 0.951 . S
H480 C466 0.951 . S
H481 C467 0.950 . S
H482 C468 0.950 . S
H483 C469 0.950 . S
H484 C471 0.950 . S
H485 C472 0.951 . S
C486 C487 1.386 . S
C486 C488 1.383 . S
C486 H502 0.951 . S
C487 C486 1.386 . S
C487 C491 1.383 1_445 S
C488 C486 1.383 . S
C488 C489 1.392 1_545 S
C488 H503 0.951 . S
C489 C488 1.392 1_565 S
C489 C490 1.381 1_455 S
C489 C492 1.484 . S
C490 C489 1.381 1_655 S
C490 C491 1.367 . S
C490 H504 0.951 . S
C491 C487 1.383 1_665 S
C491 C490 1.367 . S
C491 H505 0.950 . S
C492 C489 1.484 . S
C492 C493 1.297 1_564 S
C492 H506 0.949 1_455 S
C493 C492 1.297 1_546 S
C493 C494 1.479 . S
C493 H507 0.946 1_556 S
C494 C493 1.479 . S
C494 C495 1.375 . S
C494 C500 1.404 1_445 S
C495 C494 1.375 . S
C495 C496 1.369 . S
C495 H508 0.950 . S
C496 C495 1.369 . S
C496 C497 1.392 . S
C496 H509 0.951 . S
C497 C496 1.392 . S
C497 C499 1.384 1_445 S
H498 C500 0.949 . S
C499 C497 1.384 1_665 S
C499 C500 1.385 . S
C499 H501 0.950 . S
C500 C494 1.404 1_665 S
C500 H498 0.949 . S
C500 C499 1.385 . S
H501 C499 0.950 . S
H502 C486 0.951 . S
H503 C488 0.951 . S
H504 C490 0.951 . S
H505 C491 0.950 . S
H506 C492 0.949 1_655 S
H507 C493 0.946 1_554 S
H508 C495 0.950 . S
H509 C496 0.951 . S
C510 C511 1.386 . S
C510 C512 1.383 . S
C510 H526 0.951 . S
C511 C510 1.386 . S
C511 C515 1.383 . S
C512 C510 1.383 . S
C512 C513 1.402 . S
C512 H527 0.951 . S
C513 C512 1.402 . S
C513 C514 1.375 . S
C513 C516 1.481 . S
C514 C513 1.375 . S
C514 C515 1.367 . S
C514 H528 0.951 . S
C515 C511 1.383 . S
C515 C514 1.367 . S
C515 H529 0.950 . S
C516 C513 1.481 . S
C516 C517 1.297 . S
C516 H530 0.950 . S
C517 C516 1.297 . S
C517 C518 1.479 . S
C517 H531 0.950 . S
C518 C517 1.479 . S
C518 C519 1.375 . S
C518 C524 1.404 . S
C519 C518 1.375 . S
C519 C520 1.369 . S
C519 H532 0.950 . S
C520 C519 1.369 . S
C520 C521 1.392 . S
C520 H533 0.951 . S
C521 C520 1.392 . S
C521 C523 1.384 . S
H522 C524 0.949 . S
C523 C521 1.384 . S
C523 C524 1.385 . S
C523 H525 0.950 . S
C524 C518 1.404 . S
C524 H522 0.949 . S
C524 C523 1.385 . S
H525 C523 0.950 . S
H526 C510 0.951 . S
H527 C512 0.951 . S
H528 C514 0.951 . S
H529 C515 0.950 . S
H530 C516 0.950 . S
H531 C517 0.950 . S
H532 C519 0.950 . S
H533 C520 0.951 . S
C534 C535 1.386 . S
C534 C536 1.383 . S
C534 H550 0.951 . S
C535 C534 1.386 . S
C535 C539 1.383 . S
C536 C534 1.383 . S
C536 C537 1.402 . S
C536 H551 0.951 . S
C537 C536 1.402 . S
C537 C538 1.375 . S
C537 C540 1.481 . S
C538 C537 1.375 . S
C538 C539 1.367 . S
C538 H552 0.951 . S
C539 C535 1.383 . S
C539 C538 1.367 . S
C539 H553 0.950 . S
C540 C537 1.481 . S
C540 C541 1.297 . S
C540 H554 0.950 . S
C541 C540 1.297 . S
C541 C542 1.479 . S
C541 H555 0.950 . S
C542 C541 1.479 . S
C542 C543 1.375 . S
C542 C548 1.404 . S
C543 C542 1.375 . S
C543 C544 1.369 . S
C543 H556 0.950 . S
C544 C543 1.369 . S
C544 C545 1.392 . S
C544 H557 0.951 . S
C545 C544 1.392 . S
C545 C547 1.384 . S
H546 C548 0.949 . S
C547 C545 1.384 . S
C547 C548 1.385 . S
C547 H549 0.950 . S
C548 C542 1.404 . S
C548 H546 0.949 . S
C548 C547 1.385 . S
H549 C547 0.950 . S
H550 C534 0.951 . S
H551 C536 0.951 . S
H552 C538 0.951 . S
H553 C539 0.950 . S
H554 C540 0.950 . S
H555 C541 0.950 . S
H556 C543 0.950 . S
H557 C544 0.951 . S
C199 C8 1.975 . S
C209 C107 1.940 . S
C223 C28 1.521 . S
C233 C116 1.576 . S
C247 C127 1.551 . S
C257 C17 1.579 . S
C271 C61 1.523 . S
C281 C149 1.582 . S
C295 C140 1.950 . S
C305 C41 1.962 . S
C319 C50 1.584 . S
C329 C160 1.500 . S
C343 C74 1.972 . S
C353 C173 1.965 . S
C367 C94 1.521 . S
C377 C182 1.577 . S
C391 C193 1.565 . S
C401 C83 1.566 . S
C415 N38 2.265 1_455 S
C425 N5 2.278 . S
C439 N104 2.283 1_556 S
C449 N71 2.247 . S
C463 N170 2.287 . S
C473 N137 2.268 1_554 S
C487 N14 0.766 . S
C497 N47 0.780 . S
C511 N113 0.808 . S
C521 N80 0.863 . S
C535 N179 0.782 . S
C545 N146 0.755 . S
