# Generated by pormake.
# Topology wjd, (6)-cn, num edge types: 1
# Building blocks:
#     Node 0, Type 0, BuildingBlock: BETDIP_clean_sbu_0, # of connection points: 6
#     Node 1, Type 0, BuildingBlock: BETDIP_clean_sbu_0, # of connection points: 6
#     Node 2, Type 0, BuildingBlock: BETDIP_clean_sbu_0, # of connection points: 6
#     Node 3, Type 0, BuildingBlock: BETDIP_clean_sbu_0, # of connection points: 6
#     Node 4, Type 0, BuildingBlock: BETDIP_clean_sbu_0, # of connection points: 6
#     Node 5, Type 0, BuildingBlock: BETDIP_clean_sbu_0, # of connection points: 6
#     Node 6, Type 0, BuildingBlock: BETDIP_clean_sbu_0, # of connection points: 6
#     Node 7, Type 0, BuildingBlock: BETDIP_clean_sbu_0, # of connection points: 6
#     Node 8, Type 0, BuildingBlock: BETDIP_clean_sbu_0, # of connection points: 6
#     Node 9, Type 0, BuildingBlock: BETDIP_clean_sbu_0, # of connection points: 6
#     Node 10, Type 0, BuildingBlock: BETDIP_clean_sbu_0, # of connection points: 6
#     Node 11, Type 0, BuildingBlock: BETDIP_clean_sbu_0, # of connection points: 6
#     Edge 12, Type (0, 0), BuildingBlock: ZUJKAS_clean_linker_0, # of connection points: 2
#     Edge 13, Type (0, 0), BuildingBlock: ZUJKAS_clean_linker_0, # of connection points: 2
#     Edge 14, Type (0, 0), BuildingBlock: ZUJKAS_clean_linker_0, # of connection points: 2
#     Edge 15, Type (0, 0), BuildingBlock: ZUJKAS_clean_linker_0, # of connection points: 2
#     Edge 16, Type (0, 0), BuildingBlock: ZUJKAS_clean_linker_0, # of connection points: 2
#     Edge 17, Type (0, 0), BuildingBlock: ZUJKAS_clean_linker_0, # of connection points: 2
#     Edge 18, Type (0, 0), BuildingBlock: ZUJKAS_clean_linker_0, # of connection points: 2
#     Edge 19, Type (0, 0), BuildingBlock: ZUJKAS_clean_linker_0, # of connection points: 2
#     Edge 20, Type (0, 0), BuildingBlock: ZUJKAS_clean_linker_0, # of connection points: 2
#     Edge 21, Type (0, 0), BuildingBlock: ZUJKAS_clean_linker_0, # of connection points: 2
#     Edge 22, Type (0, 0), BuildingBlock: ZUJKAS_clean_linker_0, # of connection points: 2
#     Edge 23, Type (0, 0), BuildingBlock: ZUJKAS_clean_linker_0, # of connection points: 2
#     Edge 24, Type (0, 0), BuildingBlock: ZUJKAS_clean_linker_0, # of connection points: 2
#     Edge 25, Type (0, 0), BuildingBlock: ZUJKAS_clean_linker_0, # of connection points: 2
#     Edge 26, Type (0, 0), BuildingBlock: ZUJKAS_clean_linker_0, # of connection points: 2
#     Edge 27, Type (0, 0), BuildingBlock: ZUJKAS_clean_linker_0, # of connection points: 2
#     Edge 28, Type (0, 0), BuildingBlock: ZUJKAS_clean_linker_0, # of connection points: 2
#     Edge 29, Type (0, 0), BuildingBlock: ZUJKAS_clean_linker_0, # of connection points: 2
#     Edge 30, Type (0, 0), BuildingBlock: ZUJKAS_clean_linker_0, # of connection points: 2
#     Edge 31, Type (0, 0), BuildingBlock: ZUJKAS_clean_linker_0, # of connection points: 2
#     Edge 32, Type (0, 0), BuildingBlock: ZUJKAS_clean_linker_0, # of connection points: 2
#     Edge 33, Type (0, 0), BuildingBlock: ZUJKAS_clean_linker_0, # of connection points: 2
#     Edge 34, Type (0, 0), BuildingBlock: ZUJKAS_clean_linker_0, # of connection points: 2
#     Edge 35, Type (0, 0), BuildingBlock: ZUJKAS_clean_linker_0, # of connection points: 2
#     Edge 36, Type (0, 0), BuildingBlock: ZUJKAS_clean_linker_0, # of connection points: 2
#     Edge 37, Type (0, 0), BuildingBlock: ZUJKAS_clean_linker_0, # of connection points: 2
#     Edge 38, Type (0, 0), BuildingBlock: ZUJKAS_clean_linker_0, # of connection points: 2
#     Edge 39, Type (0, 0), BuildingBlock: ZUJKAS_clean_linker_0, # of connection points: 2
#     Edge 40, Type (0, 0), BuildingBlock: ZUJKAS_clean_linker_0, # of connection points: 2
#     Edge 41, Type (0, 0), BuildingBlock: ZUJKAS_clean_linker_0, # of connection points: 2
#     Edge 42, Type (0, 0), BuildingBlock: ZUJKAS_clean_linker_0, # of connection points: 2
#     Edge 43, Type (0, 0), BuildingBlock: ZUJKAS_clean_linker_0, # of connection points: 2
#     Edge 44, Type (0, 0), BuildingBlock: ZUJKAS_clean_linker_0, # of connection points: 2
#     Edge 45, Type (0, 0), BuildingBlock: ZUJKAS_clean_linker_0, # of connection points: 2
#     Edge 46, Type (0, 0), BuildingBlock: ZUJKAS_clean_linker_0, # of connection points: 2
#     Edge 47, Type (0, 0), BuildingBlock: ZUJKAS_clean_linker_0, # of connection points: 2
# Relax obj value: 0.099
# Max RMSD: 0.201
# Mean RMSD: 0.201
data_MOF--net-wjd--node1-BETDIP_clean_sbu_0--edge1-ZUJKAS_clean_linker_0
_symmetry_space_group_name_H-M    P1
_symmetry_Int_Tables_number       1
_symmetry_cell_setting            triclinic
loop_
_symmetry_equiv_pos_as_xyz
'x, y, z'
_cell_length_a     48.984951
_cell_length_b     48.927773
_cell_length_c     66.672465
_cell_angle_alpha  90.128979
_cell_angle_beta   89.927735
_cell_angle_gamma 120.03875
loop_
_atom_site_label
_atom_site_type_symbol
_atom_site_fract_x
_atom_site_fract_y
_atom_site_fract_z
_atom_type_partial_charge
Tb0 Tb 0.36995 0.1774 0.14656 0.0
Tb1 Tb 0.33805 0.10878 0.15709 0.0
C2 C 0.4036 0.23658 0.14364 0.0
C3 C 0.43555 0.26396 0.14724 0.0
C4 C 0.44112 0.28319 0.1642 0.0
C5 C 0.46932 0.31192 0.16619 0.0
C6 C 0.49258 0.32228 0.15118 0.0
C7 C 0.48751 0.30247 0.13458 0.0
C8 C 0.45931 0.27369 0.1326 0.0
C9 C 0.34389 0.13705 0.11647 0.0
C10 C 0.41088 0.14414 0.15309 0.0
C11 C 0.30144 0.04998 0.15762 0.0
C12 C 0.26708 0.02895 0.15572 0.0
C13 C 0.24895 0.03598 0.14265 0.0
C14 C 0.21625 1.01594 0.14145 0.0
C15 C 0.20107 0.98853 0.15331 0.0
C16 C 0.21942 0.98174 0.1664 0.0
C17 C 0.25206 1.00172 0.16756 0.0
C18 C 0.36435 0.14697 0.18775 0.0
C19 C 0.29817 0.14451 0.15362 0.0
O20 O 0.38631 0.22214 0.15935 0.0
O21 O 0.40003 0.21691 0.12917 0.0
O22 O 0.35909 0.13509 0.13094 0.0
O23 O 0.34353 0.16327 0.11796 0.0
O24 O 0.40955 0.17049 0.15413 0.0
O25 O 0.38506 0.11612 0.15134 0.0
O26 O 0.3164 0.06572 0.14157 0.0
O27 O 0.31095 0.06744 0.1738 0.0
O28 O 0.34969 0.15104 0.17353 0.0
O29 O 0.36287 0.11991 0.18552 0.0
O30 O 0.29805 0.11734 0.153 0.0
O31 O 0.32464 0.1718 0.15345 0.0
H32 H 0.42312 0.27668 0.17559 0.0
H33 H 0.47222 0.32669 0.17905 0.0
H34 H 0.50511 0.30951 0.12288 0.0
H35 H 0.45573 0.25965 0.11925 0.0
H36 H 0.26001 0.05695 0.13338 0.0
H37 H 0.20293 0.02175 0.13107 0.0
H38 H 0.20852 0.96117 0.17602 0.0
H39 H 0.26559 0.99602 0.17784 0.0
Tb40 Tb 0.804 0.70338 0.41742 0.0
Tb41 Tb 0.8406 0.67168 0.42821 0.0
C42 C 0.78153 0.73969 0.41644 0.0
C43 C 0.79468 0.77397 0.41882 0.0
C44 C 0.82046 0.79195 0.43153 0.0
C45 C 0.83318 0.82464 0.4331 0.0
C46 C 0.82027 0.83993 0.42204 0.0
C47 C 0.79445 0.82175 0.40933 0.0
C48 C 0.78182 0.78912 0.40774 0.0
C49 C 0.81638 0.67748 0.38671 0.0
C50 C 0.87931 0.74375 0.42237 0.0
C51 C 0.8665 0.63845 0.43122 0.0
C52 C 0.86331 0.60744 0.4262 0.0
C53 C 0.88154 0.60548 0.41058 0.0
C54 C 0.88297 0.57795 0.40756 0.0
C55 C 0.86635 0.5517 0.42017 0.0
C56 C 0.84708 0.55317 0.43532 0.0
C57 C 0.84568 0.58079 0.43837 0.0
C58 C 0.82553 0.69728 0.45829 0.0
C59 C 0.76664 0.63044 0.42118 0.0
O60 O 0.78135 0.72417 0.43245 0.0
O61 O 0.79069 0.73094 0.40046 0.0
O62 O 0.83496 0.69193 0.4011 0.0
O63 O 0.7908 0.67888 0.38887 0.0
O64 O 0.85212 0.74351 0.42272 0.0
O65 O 0.88038 0.71742 0.42213 0.0
O66 O 0.87144 0.65783 0.41635 0.0
O67 O 0.84792 0.63956 0.44494 0.0
O68 O 0.8088 0.68219 0.44363 0.0
O69 O 0.85204 0.69751 0.45713 0.0
O70 O 0.79437 0.63197 0.41996 0.0
O71 O 0.76442 0.65623 0.42306 0.0
H72 H 0.83077 0.78075 0.44026 0.0
H73 H 0.85284 0.83787 0.44317 0.0
H74 H 0.78422 0.83281 0.40039 0.0
H75 H 0.7621 0.77569 0.39774 0.0
H76 H 0.89567 0.62568 0.40107 0.0
H77 H 0.89765 0.57746 0.39556 0.0
H78 H 0.83418 0.53348 0.44542 0.0
H79 H 0.83171 0.5816 0.45071 0.0
Tb80 Tb 0.86778 0.20758 0.14331 0.0
Tb81 Tb 0.93985 0.24205 0.1536 0.0
C82 C 0.80922 0.1837 0.13945 0.0
C83 C 0.78073 0.18612 0.14271 0.0
C84 C 0.77297 0.19363 0.16145 0.0
C85 C 0.74356 0.19154 0.16429 0.0
C86 C 0.72149 0.18156 0.14853 0.0
C87 C 0.72996 0.17522 0.12969 0.0
C88 C 0.75923 0.1775 0.12684 0.0
C89 C 0.90858 0.22442 0.11332 0.0
C90 C 0.90399 0.28048 0.1556 0.0
C91 C 0.99775 0.26474 0.14775 0.0
C92 C 1.01942 0.25302 0.15228 0.0
C93 C 0.04979 0.26807 0.14405 0.0
C94 C 0.06917 0.25484 0.14625 0.0
C95 C 0.05837 0.22619 0.15661 0.0
C96 C 0.02805 0.21153 0.16518 0.0
C97 C 1.00876 0.22485 0.16304 0.0
C98 C 0.90569 0.21786 0.18649 0.0
C99 C 0.8996 0.16669 0.14914 0.0
O100 O 0.82247 0.17846 0.15495 0.0
O101 O 0.82968 0.20258 0.12616 0.0
O102 O 0.91125 0.23969 0.12903 0.0
O103 O 0.88176 0.19834 0.11369 0.0
O104 O 0.8768 0.25353 0.15402 0.0
O105 O 0.93187 0.28219 0.15383 0.0
O106 O 0.97607 0.24769 0.13449 0.0
O107 O 0.98631 0.27258 0.16315 0.0
O108 O 0.89639 0.21708 0.16882 0.0
O109 O 0.93628 0.23283 0.18605 0.0
O110 O 0.92771 0.19273 0.14827 0.0
O111 O 0.87297 0.16733 0.14973 0.0
H112 H 0.78916 0.20025 0.17396 0.0
H113 H 0.73764 0.19656 0.17898 0.0
H114 H 0.71373 0.16804 0.11716 0.0
H115 H 0.7647 0.17152 0.11228 0.0
H116 H 0.05818 0.28956 0.13543 0.0
H117 H 0.09221 0.26653 0.13925 0.0
H118 H 1.01915 0.18967 0.17344 0.0
H119 H 0.98522 0.21275 0.16935 0.0
Tb120 Tb 0.33766 0.10753 0.42242 0.0
Tb121 Tb 0.36936 0.17566 0.43392 0.0
C122 C 0.29973 0.04908 0.42198 0.0
C123 C 0.26492 0.02958 0.42219 0.0
C124 C 0.24996 1.0078 0.43775 0.0
C125 C 0.21705 0.98979 0.43862 0.0
C126 C 0.19842 0.99302 0.42383 0.0
C127 C 0.21341 1.01481 0.40823 0.0
C128 C 0.24632 0.03304 0.40747 0.0
C129 C 0.3643 0.14629 0.39224 0.0
C130 C 0.29798 0.14364 0.42536 0.0
C131 C 0.40268 0.23459 0.43825 0.0
C132 C 0.43473 0.26221 0.43669 0.0
C133 C 0.45347 0.26836 0.41945 0.0
C134 C 0.48186 0.29707 0.41752 0.0
C135 C 0.49183 0.32013 0.43274 0.0
C136 C 0.47358 0.31319 0.45027 0.0
C137 C 0.44537 0.2846 0.45219 0.0
C138 C 0.34235 0.13441 0.46335 0.0
C139 C 0.41024 0.14229 0.42715 0.0
O140 O 0.31257 0.06512 0.43839 0.0
O141 O 0.31285 0.06567 0.40581 0.0
O142 O 0.3496 0.15025 0.40654 0.0
O143 O 0.36257 0.11906 0.39405 0.0
O144 O 0.29769 0.11639 0.42508 0.0
O145 O 0.32448 0.17079 0.4267 0.0
O146 O 0.38801 0.22087 0.4216 0.0
O147 O 0.39733 0.21441 0.45265 0.0
O148 O 0.35817 0.13295 0.44903 0.0
O149 O 0.34184 0.16054 0.46203 0.0
O150 O 0.40909 0.16876 0.4267 0.0
O151 O 0.38431 0.11427 0.42834 0.0
H152 H 0.26376 1.0048 0.44932 0.0
H153 H 0.20619 0.97297 0.4507 0.0
H154 H 0.19965 0.01803 0.39675 0.0
H155 H 0.25711 0.04992 0.39541 0.0
H156 H 0.44575 0.25147 0.40724 0.0
H157 H 0.49533 0.30172 0.4038 0.0
H158 H 0.48087 0.33013 0.46243 0.0
H159 H 0.43129 0.28038 0.4656 0.0
Tb160 Tb 0.83735 0.67088 0.14349 0.0
Tb161 Tb 0.80277 0.70916 0.1514 0.0
C162 C 0.86037 0.63506 0.14271 0.0
C163 C 0.85806 0.60551 0.15028 0.0
C164 C 0.87994 0.60717 0.16455 0.0
C165 C 0.88253 0.58062 0.16892 0.0
C166 C 0.86343 0.55178 0.15901 0.0
C167 C 0.84038 0.54968 0.14553 0.0
C168 C 0.83779 0.57627 0.14116 0.0
C169 C 0.81936 0.69108 0.11198 0.0
C170 C 0.76471 0.63516 0.15534 0.0
C171 C 0.77965 0.74351 0.14385 0.0
C172 C 0.78948 0.77653 0.14838 0.0
C173 C 0.77497 0.79108 0.13847 0.0
C174 C 0.78692 0.82355 0.14048 0.0
C175 C 0.8137 0.84208 0.15241 0.0
C176 C 0.82768 0.82714 0.16273 0.0
C177 C 0.8157 0.79464 0.16069 0.0
C178 C 0.82602 0.70128 0.18537 0.0
C179 C 0.8781 0.74429 0.14678 0.0
O180 O 0.8696 0.65881 0.15524 0.0
O181 O 0.8388 0.63287 0.1301 0.0
O182 O 0.80504 0.6807 0.12822 0.0
O183 O 0.84504 0.6896 0.11249 0.0
O184 O 0.79196 0.63546 0.15583 0.0
O185 O 0.76287 0.66084 0.15142 0.0
O186 O 0.79887 0.74012 0.13177 0.0
O187 O 0.77054 0.72389 0.1591 0.0
O188 O 0.82766 0.69194 0.16805 0.0
O189 O 0.81054 0.7163 0.18386 0.0
O190 O 0.85198 0.74615 0.14578 0.0
O191 O 0.87768 0.71714 0.14804 0.0
H192 H 0.89611 0.6294 0.1717 0.0
H193 H 0.90017 0.58294 0.17963 0.0
H194 H 0.82545 0.52794 0.1375 0.0
H195 H 0.82092 0.5742 0.12991 0.0
H196 H 0.75505 0.77751 0.12863 0.0
H197 H 0.77586 0.8343 0.13206 0.0
H198 H 0.8481 0.84061 0.1722 0.0
H199 H 0.82744 0.78379 0.16826 0.0
Tb200 Tb 0.93774 0.2382 0.41964 0.0
Tb201 Tb 0.86505 0.20254 0.42853 0.0
C202 C 0.99531 0.26047 0.42623 0.0
C203 C 1.01626 0.24713 0.42338 0.0
C204 C 1.00796 0.21725 0.43118 0.0
C205 C 0.02755 0.20451 0.42837 0.0
C206 C 0.05593 0.22124 0.41766 0.0
C207 C 0.06421 0.25112 0.40981 0.0
C208 C 0.04454 0.26393 0.41266 0.0
C209 C 0.90505 0.215 0.38607 0.0
C210 C 0.89806 0.16261 0.42357 0.0
C211 C 0.80625 0.17889 0.4303 0.0
C212 C 0.77969 0.18458 0.4268 0.0
C213 C 0.76699 0.18223 0.40754 0.0
C214 C 0.73872 0.18249 0.40509 0.0
C215 C 0.72255 0.18498 0.42183 0.0
C216 C 0.73597 0.18849 0.44096 0.0
C217 C 0.76411 0.18821 0.4434 0.0
C218 C 0.90435 0.21895 0.45925 0.0
C219 C 0.90168 0.2765 0.41833 0.0
O220 O 0.97342 0.24659 0.43993 0.0
O221 O 0.98463 0.26693 0.40992 0.0
O222 O 0.89502 0.21328 0.40364 0.0
O223 O 0.9356 0.23046 0.38702 0.0
O224 O 0.9259 0.18895 0.42492 0.0
O225 O 0.87122 0.16276 0.42227 0.0
O226 O 0.8209 0.17573 0.41473 0.0
O227 O 0.82542 0.19434 0.44512 0.0
O228 O 0.90754 0.23453 0.44363 0.0
O229 O 0.87768 0.19269 0.45837 0.0
O230 O 0.8745 0.24946 0.4197 0.0
O231 O 0.92963 0.27824 0.41955 0.0
H232 H 0.98636 0.20365 0.43959 0.0
H233 H 1.02068 0.18173 0.43494 0.0
H234 H 0.08577 0.2645 0.40131 0.0
H235 H 0.05137 0.28693 0.40646 0.0
H236 H 0.77827 0.17913 0.39444 0.0
H237 H 0.7292 0.1801 0.39013 0.0
H238 H 0.72397 0.18993 0.45423 0.0
H239 H 0.77298 0.18948 0.45846 0.0
Tb240 Tb 0.11369 0.32643 0.65132 0.0
Tb241 Tb 0.18629 0.36258 0.64181 0.0
C242 C 0.05575 0.29266 0.64489 0.0
C243 C 0.03282 0.25962 0.64956 0.0
C244 C 1.00303 0.24504 0.64052 0.0
C245 C 0.98252 0.21261 0.64283 0.0
C246 C 0.99158 0.19418 0.65414 0.0
C247 C 1.0213 0.20913 0.66354 0.0
C248 C 0.04174 0.24157 0.66125 0.0
C249 C 0.14686 0.33587 0.68458 0.0
C250 C 0.15221 0.28946 0.64739 0.0
C251 C 0.24519 0.39642 0.63937 0.0
C252 C 0.27327 0.42764 0.64295 0.0
C253 C 0.28075 0.44218 0.66193 0.0
C254 C 0.30985 0.46976 0.66511 0.0
C255 C 0.33196 0.48296 0.64942 0.0
C256 C 0.32376 0.46891 0.63033 0.0
C257 C 0.2948 0.4416 0.62717 0.0
C258 C 0.14618 0.33943 0.61144 0.0
C259 C 0.15114 0.40098 0.65245 0.0
O260 O 0.07754 0.29608 0.63208 0.0
O261 O 0.06731 0.3122 0.66018 0.0
O262 O 0.15665 0.3441 0.66696 0.0
O263 O 0.11627 0.32087 0.68387 0.0
O264 O 0.12449 0.28823 0.6466 0.0
O265 O 0.17937 0.31631 0.64795 0.0
O266 O 0.23065 0.3784 0.65486 0.0
O267 O 0.22583 0.39441 0.62514 0.0
O268 O 0.14358 0.35221 0.62709 0.0
O269 O 0.17278 0.33973 0.61203 0.0
O270 O 0.17803 0.40062 0.65117 0.0
O271 O 0.12298 0.37503 0.65102 0.0
H272 H 0.996 0.25856 0.63118 0.0
H273 H 0.96 0.20179 0.63518 0.0
H274 H 0.02887 0.19571 0.67252 0.0
H275 H 0.06484 0.25244 0.66818 0.0
H276 H 0.26458 0.43181 0.6744 0.0
H277 H 0.31553 0.48004 0.67999 0.0
H278 H 0.33999 0.47881 0.61785 0.0
H279 H 0.2896 0.43076 0.61243 0.0
Tb280 Tb 0.21368 0.85978 0.93215 0.0
Tb281 Tb 0.24834 0.93293 0.92556 0.0
C282 C 0.19175 0.80111 0.93315 0.0
C283 C 0.19616 0.77465 0.92665 0.0
C284 C 0.18842 0.76215 0.90711 0.0
C285 C 0.18729 0.73369 0.90239 0.0
C286 C 0.19377 0.71712 0.91709 0.0
C287 C 0.2028 0.73041 0.93635 0.0
C288 C 0.20389 0.75876 0.94106 0.0
C289 C 0.22763 0.89669 0.9641 0.0
C290 C 0.28714 0.89803 0.92174 0.0
C291 C 0.26925 0.98975 0.93446 0.0
C292 C 0.2572 1.01191 0.93177 0.0
C293 C 0.23481 1.01146 0.94522 0.0
C294 C 0.22268 0.03161 0.94255 0.0
C295 C 0.2327 0.05288 0.92643 0.0
C296 C 0.25545 0.05375 0.91313 0.0
C297 C 0.2676 0.03348 0.91578 0.0
C298 C 0.22807 0.90289 0.89087 0.0
C299 C 0.17273 0.89154 0.92655 0.0
O300 O 0.18361 0.81524 0.91968 0.0
O301 O 0.21146 0.82072 0.94655 0.0
O302 O 0.24412 0.90135 0.94872 0.0
O303 O 0.20173 0.86994 0.9622 0.0
O304 O 0.26011 0.87077 0.92111 0.0
O305 O 0.28864 0.92541 0.92565 0.0
O306 O 0.25287 0.96623 0.94674 0.0
O307 O 0.27824 0.98084 0.91833 0.0
O308 O 0.22526 0.89143 0.90812 0.0
O309 O 0.24315 0.93339 0.89285 0.0
O310 O 0.19839 0.91964 0.92913 0.0
O311 O 0.17378 0.86514 0.9251 0.0
H312 H 0.1821 0.77369 0.89568 0.0
H313 H 0.18063 0.72429 0.88734 0.0
H314 H 0.20748 0.71814 0.94815 0.0
H315 H 0.2094 0.7675 0.95632 0.0
H316 H 0.22646 0.99545 0.95787 0.0
H317 H 0.20574 0.03081 0.95333 0.0
H318 H 0.26358 0.06985 0.90053 0.0
H319 H 0.28496 0.03455 0.90524 0.0
Tb320 Tb 0.71584 0.79462 0.65099 0.0
Tb321 Tb 0.6782 0.82958 0.64257 0.0
C322 C 0.75058 0.77205 0.6431 0.0
C323 C 0.784 0.78267 0.64662 0.0
C324 C 0.80047 0.77544 0.63236 0.0
C325 C 0.83318 0.78911 0.63366 0.0
C326 C 0.84998 0.81024 0.64928 0.0
C327 C 0.8333 0.81675 0.66391 0.0
C328 C 0.80055 0.80327 0.66249 0.0
C329 C 0.70531 0.81618 0.68491 0.0
C330 C 0.7508 0.87034 0.64908 0.0
C331 C 0.64191 0.85181 0.64007 0.0
C332 C 0.6104 0.84684 0.64527 0.0
C333 C 0.60291 0.85169 0.66485 0.0
C334 C 0.57485 0.85187 0.6686 0.0
C335 C 0.55382 0.84729 0.65287 0.0
C336 C 0.5609 0.84129 0.63349 0.0
C337 C 0.58886 0.84115 0.62975 0.0
C338 C 0.70195 0.81433 0.61161 0.0
C339 C 0.6419 0.75638 0.65372 0.0
O340 O 0.74597 0.79021 0.63083 0.0
O341 O 0.73187 0.76349 0.65883 0.0
O342 O 0.69716 0.81839 0.66739 0.0
O343 O 0.72086 0.80115 0.68371 0.0
O344 O 0.75303 0.84442 0.64733 0.0
O345 O 0.72347 0.86958 0.64972 0.0
O346 O 0.66276 0.85923 0.65446 0.0
O347 O 0.6431 0.83277 0.62667 0.0
O348 O 0.68939 0.79834 0.62706 0.0
O349 O 0.7013 0.84042 0.61284 0.0
O350 O 0.64193 0.78353 0.65354 0.0
O351 O 0.66776 0.75454 0.65061 0.0
H352 H 0.78812 0.75998 0.61984 0.0
H353 H 0.84539 0.7834 0.62231 0.0
H354 H 0.8457 0.83313 0.67601 0.0
H355 H 0.78831 0.80969 0.6734 0.0
H356 H 0.61912 0.85635 0.67713 0.0
H357 H 0.56992 0.8562 0.68375 0.0
H358 H 0.54558 0.83818 0.62095 0.0
H359 H 0.59425 0.83788 0.61446 0.0
Tb360 Tb 0.18332 0.36867 0.92601 0.0
Tb361 Tb 0.11037 0.3295 0.91862 0.0
C362 C 0.24202 0.4052 0.92702 0.0
C363 C 0.26922 0.43469 0.91931 0.0
C364 C 0.28797 0.43328 0.9038 0.0
C365 C 0.31716 0.45961 0.89916 0.0
C366 C 0.32839 0.48795 0.90997 0.0
C367 C 0.3089 0.48984 0.92478 0.0
C368 C 0.27972 0.46348 0.92945 0.0
C369 C 0.14559 0.34663 0.95767 0.0
C370 C 0.14535 0.40323 0.91412 0.0
C371 C 0.05309 0.2947 0.92665 0.0
C372 C 0.03038 0.26133 0.92262 0.0
C373 C 1.00105 0.24674 0.93226 0.0
C374 C 0.98065 0.21422 0.93026 0.0
C375 C 0.98935 0.19571 0.91865 0.0
C376 C 1.01866 0.21064 0.90874 0.0
C377 C 0.03901 0.24317 0.91074 0.0
C378 C 0.1415 0.33837 0.88442 0.0
C379 C 0.15175 0.29562 0.92166 0.0
O380 O 0.22797 0.38106 0.91473 0.0
O381 O 0.22224 0.40748 0.93927 0.0
O382 O 0.14121 0.35771 0.94188 0.0
O383 O 0.17274 0.34822 0.95653 0.0
O384 O 0.17253 0.40339 0.91361 0.0
O385 O 0.11808 0.37748 0.91835 0.0
O386 O 0.07597 0.2992 0.93882 0.0
O387 O 0.06316 0.31362 0.91105 0.0
O388 O 0.15232 0.34771 0.90173 0.0
O389 O 0.111 0.32247 0.88602 0.0
O390 O 0.12358 0.29313 0.92369 0.0
O391 O 0.17805 0.32307 0.91996 0.0
H392 H 0.28079 0.41139 0.89584 0.0
H393 H 0.33137 0.4575 0.88747 0.0
H394 H 0.31692 0.51118 0.93353 0.0
H395 H 0.26614 0.46529 0.94168 0.0
H396 H 0.99426 0.26036 0.94175 0.0
H397 H 0.95848 0.20344 0.93832 0.0
H398 H 0.02594 0.19717 0.89952 0.0
H399 H 0.06177 0.25405 0.90336 0.0
Tb400 Tb 0.24696 0.92552 0.65905 0.0
Tb401 Tb 0.21082 0.85704 0.6482 0.0
C402 C 0.26789 0.98403 0.66014 0.0
C403 C 0.25326 1.00399 0.65838 0.0
C404 C 0.23243 0.9999 0.64263 0.0
C405 C 0.21805 0.01841 0.64173 0.0
C406 C 0.22391 0.04105 0.65666 0.0
C407 C 0.24472 0.04504 0.67236 0.0
C408 C 0.25932 0.02677 0.67316 0.0
C409 C 0.23546 0.88736 0.68962 0.0
C410 C 0.17161 0.88951 0.65524 0.0
C411 C 0.18556 0.79793 0.64487 0.0
C412 C 0.18937 0.77033 0.64931 0.0
C413 C 0.17337 0.75081 0.66572 0.0
C414 C 0.17216 0.72188 0.66826 0.0
C415 C 0.18677 0.71161 0.65438 0.0
C416 C 0.20391 0.73171 0.63842 0.0
C417 C 0.20507 0.76069 0.63585 0.0
C418 C 0.2245 0.89748 0.61829 0.0
C419 C 0.28495 0.89087 0.65499 0.0
O420 O 0.26825 0.96893 0.644 0.0
O421 O 0.26024 0.96634 0.67617 0.0
O422 O 0.21665 0.88298 0.67536 0.0
O423 O 0.26078 0.91461 0.68747 0.0
O424 O 0.19852 0.91673 0.65442 0.0
O425 O 0.17097 0.86232 0.65532 0.0
O426 O 0.18091 0.81209 0.66007 0.0
O427 O 0.20347 0.81786 0.63104 0.0
O428 O 0.24184 0.89952 0.63268 0.0
O429 O 0.19821 0.87099 0.61969 0.0
O430 O 0.25738 0.8644 0.6561 0.0
O431 O 0.28689 0.91876 0.65321 0.0
H432 H 0.22702 0.98224 0.63112 0.0
H433 H 0.20194 1.01467 0.62953 0.0
H434 H 0.25 0.06256 0.68394 0.0
H435 H 0.27523 0.03028 0.68544 0.0
H436 H 0.16072 0.75734 0.67624 0.0
H437 H 0.15917 0.7072 0.68088 0.0
H438 H 0.2152 0.72441 0.62736 0.0
H439 H 0.21723 0.7749 0.62288 0.0
Tb440 Tb 0.67677 0.82884 0.92733 0.0
Tb441 Tb 0.71542 0.79597 0.91545 0.0
C442 C 0.6413 0.85167 0.93208 0.0
C443 C 0.61058 0.84955 0.92854 0.0
C444 C 0.59738 0.84568 0.90931 0.0
C445 C 0.57056 0.84862 0.90644 0.0
C446 C 0.5569 0.85585 0.92271 0.0
C447 C 0.5695 0.85835 0.94199 0.0
C448 C 0.59599 0.85522 0.94485 0.0
C449 C 0.7004 0.81027 0.95658 0.0
C450 C 0.6411 0.75687 0.91331 0.0
C451 C 0.75057 0.77294 0.92023 0.0
C452 C 0.78362 0.78342 0.91546 0.0
C453 C 0.80273 0.81267 0.90615 0.0
C454 C 0.83524 0.82472 0.9044 0.0
C455 C 0.84916 0.80771 0.91195 0.0
C456 C 0.82962 0.77792 0.92066 0.0
C457 C 0.79716 0.76595 0.92243 0.0
C458 C 0.70493 0.82135 0.88346 0.0
C459 C 0.74959 0.87098 0.92162 0.0
O460 O 0.66101 0.85899 0.91701 0.0
O461 O 0.64209 0.8313 0.94446 0.0
O462 O 0.68861 0.79629 0.94037 0.0
O463 O 0.69863 0.8358 0.95725 0.0
O464 O 0.64052 0.78357 0.91542 0.0
O465 O 0.66745 0.75545 0.91485 0.0
O466 O 0.74695 0.79054 0.9336 0.0
O467 O 0.73099 0.76549 0.90504 0.0
O468 O 0.69632 0.82114 0.90127 0.0
O469 O 0.721 0.80683 0.88324 0.0
O470 O 0.75215 0.84518 0.92147 0.0
O471 O 0.7221 0.86991 0.92182 0.0
H472 H 0.6083 0.84142 0.89646 0.0
H473 H 0.56134 0.84657 0.89142 0.0
H474 H 0.55919 0.86337 0.95486 0.0
H475 H 0.60582 0.8584 0.9598 0.0
H476 H 0.79264 0.82661 0.90083 0.0
H477 H 0.84954 0.84755 0.89742 0.0
H478 H 0.83957 0.76439 0.9269 0.0
H479 H 0.7828 0.74356 0.92992 0.0
H480 H 0.12174 0.25502 0.16402 0.0
H481 H 0.15496 0.23085 0.1649 0.0
H482 H 0.0736 0.13946 0.15365 0.0
H483 H 0.04023 0.16358 0.15226 0.0
H484 H 0.14919 0.18114 0.19052 0.0
H485 H 0.13746 0.14848 0.10958 0.0
H486 H 0.12725 0.17675 0.11918 0.0
H487 H 0.10164 0.13538 0.12361 0.0
C488 C 0.11092 0.22982 0.16159 0.0
C489 C 0.07836 0.21128 0.15797 0.0
C490 C 0.1299 0.21601 0.16222 0.0
C491 C 0.11679 0.18343 0.15912 0.0
C492 C 0.08424 0.16471 0.15582 0.0
H493 H 0.23683 0.09504 0.15016 0.0
H494 H 0.18819 0.09805 0.15283 0.0
C495 C 0.06518 0.1785 0.15524 0.0
C496 C 0.13754 0.16944 0.15938 0.0
H497 H 0.17197 0.13902 0.12889 0.0
C498 C 0.15382 0.17149 0.17713 0.0
C499 C 0.14331 0.15657 0.14193 0.0
C500 C 0.12671 0.15423 0.12241 0.0
C501 C 0.17673 0.16231 0.17766 0.0
C502 C 0.18388 0.15126 0.15992 0.0
C503 C 0.16634 0.14744 0.14247 0.0
C504 C 0.2125 0.14836 0.15851 0.0
C505 C 0.1939 0.16551 0.19707 0.0
C506 C 0.24205 0.17564 0.16049 0.0
C507 C 0.26955 0.17408 0.15888 0.0
C508 C 0.26828 0.14513 0.15519 0.0
C509 C 0.2386 0.11766 0.15309 0.0
C510 C 0.21085 0.11933 0.15459 0.0
H511 H 0.17961 0.16474 0.21024 0.0
H512 H 0.19992 0.14654 0.19859 0.0
H513 H 0.21616 0.1886 0.19728 0.0
H514 H 0.24385 0.19835 0.16315 0.0
H515 H 0.29187 0.19577 0.16058 0.0
H516 H 0.1585 0.96051 0.393 0.0
H517 H 0.10148 0.92506 0.39452 0.0
H518 H 0.10227 0.94545 0.45758 0.0
H519 H 0.15953 0.98045 0.4562 0.0
H520 H 0.07077 0.88456 0.45152 0.0
H521 H 0.02761 0.93878 0.39688 0.0
H522 H 0.0568 0.93167 0.38575 0.0
H523 H 0.06753 0.95919 0.40628 0.0
C524 C 0.14643 0.95786 0.40711 0.0
C525 C 0.16348 0.97324 0.42449 0.0
C526 C 0.11376 0.93774 0.40794 0.0
C527 C 0.09736 0.93301 0.42608 0.0
C528 C 0.11432 0.94884 0.44338 0.0
H529 H 0.89021 0.80401 0.42976 0.0
H530 H 0.94176 0.85274 0.43221 0.0
C531 C 0.14705 0.96871 0.4426 0.0
C532 C 0.06318 0.90924 0.42738 0.0
H533 H 0.99222 0.88336 0.40408 0.0
C534 C 0.05356 0.88469 0.44137 0.0
C535 C 0.04042 0.90953 0.41441 0.0
C536 C 0.04857 0.93643 0.40015 0.0
C537 C 1.02236 0.85959 0.44195 0.0
C538 C 1.00029 0.85854 0.42786 0.0
C539 C 1.0093 0.88396 0.41467 0.0
C540 C 0.96882 0.8299 0.42551 0.0
C541 C 1.01349 0.83405 0.45745 0.0
C542 C 0.96699 0.80126 0.42034 0.0
C543 C 0.93787 0.77363 0.419 0.0
C544 C 0.90972 0.77396 0.4226 0.0
C545 C 0.91143 0.80293 0.42699 0.0
C546 C 0.94083 0.83075 0.42841 0.0
H547 H 0.02923 0.84305 0.47075 0.0
H548 H 0.98871 0.82429 0.46249 0.0
H549 H 1.01594 0.81457 0.45081 0.0
H550 H 0.98823 0.8002 0.41752 0.0
H551 H 0.93755 0.75191 0.41527 0.0
H552 H 0.84592 0.10937 0.1504 0.0
H553 H 0.84077 0.05743 0.15064 0.0
H554 H 0.94193 0.0996 0.14877 0.0
H555 H 0.94755 0.15247 0.14868 0.0
H556 H 0.86431 0.0328 0.12041 0.0
H557 H 0.9126 0.03535 0.19651 0.0
H558 H 0.89934 0.0624 0.18941 0.0
H559 H 0.93576 0.06756 0.17968 0.0
C560 C 0.86725 0.1079 0.1501 0.0
C561 C 0.89721 0.13525 0.14949 0.0
C562 C 0.86418 0.07805 0.15023 0.0
C563 C 0.89091 0.07467 0.14983 0.0
C564 C 0.92099 0.10177 0.14931 0.0
H565 H 0.87636 0.88766 0.15195 0.0
H566 H 0.89895 0.94507 0.15112 0.0
C567 C 0.92414 0.13191 0.14916 0.0
C568 C 0.88644 0.04241 0.14945 0.0
H569 H 0.88983 0.98715 0.17892 0.0
C570 C 0.8703 0.02292 0.13307 0.0
C571 C 0.89439 0.02968 0.16596 0.0
C572 C 0.91136 0.04963 0.184 0.0
C573 C 0.86078 0.99072 0.1331 0.0
C574 C 0.86718 0.97759 0.15007 0.0
C575 C 0.88479 0.99734 0.16601 0.0
C576 C 0.85388 0.94308 0.15194 0.0
C577 C 0.84331 0.97082 0.11514 0.0
C578 C 0.82112 0.92309 0.15322 0.0
C579 C 0.80813 0.89038 0.15388 0.0
C580 C 0.82768 0.87696 0.15328 0.0
C581 C 0.86062 0.89717 0.15263 0.0
C582 C 0.8736 0.92997 0.15205 0.0
H583 H 0.84746 0.9855 0.10155 0.0
H584 H 0.85049 0.95303 0.11192 0.0
H585 H 0.81762 0.95806 0.11833 0.0
H586 H 0.80555 0.93284 0.15351 0.0
H587 H 0.78275 0.87558 0.15476 0.0
H588 H 0.23728 0.09387 0.42018 0.0
H589 H 0.18926 0.09728 0.41509 0.0
H590 H 0.24415 0.19862 0.42037 0.0
H591 H 0.29161 0.19567 0.4254 0.0
H592 H 0.16366 0.12773 0.44137 0.0
H593 H 0.19659 0.18277 0.36624 0.0
H594 H 0.21401 0.16123 0.37708 0.0
H595 H 0.22793 0.20159 0.3842 0.0
C596 C 0.23903 0.11684 0.42027 0.0
C597 C 0.26835 0.1445 0.42306 0.0
C598 C 0.21164 0.11872 0.41733 0.0
C599 C 0.21339 0.14826 0.41695 0.0
C600 C 0.24245 0.17567 0.42017 0.0
H601 H 0.12036 0.25219 0.42006 0.0
H602 H 0.15481 0.22951 0.41785 0.0
C603 C 0.26958 0.17385 0.42315 0.0
C604 C 0.18518 0.15131 0.41372 0.0
H605 H 0.15935 0.1914 0.3849 0.0
C606 C 0.16213 0.1409 0.42878 0.0
C607 C 0.18336 0.16852 0.39726 0.0
C608 C 0.20664 0.17891 0.38016 0.0
C609 C 0.13856 0.14929 0.42853 0.0
C610 C 0.13808 0.16829 0.41273 0.0
C611 C 0.15999 0.17706 0.39707 0.0
C612 C 0.11687 0.18165 0.41309 0.0
C613 C 0.11557 0.1395 0.44575 0.0
C614 C 0.08423 0.16227 0.41075 0.0
C615 C 0.06446 0.17521 0.4118 0.0
C616 C 0.07705 0.20776 0.41525 0.0
C617 C 0.1099 0.22714 0.41715 0.0
C618 C 0.1296 0.2142 0.41602 0.0
H619 H 0.12156 0.1281 0.45804 0.0
H620 H 0.11501 0.16031 0.45193 0.0
H621 H 0.09152 0.1225 0.44028 0.0
H622 H 0.07405 0.13716 0.40817 0.0
H623 H 0.03932 0.15969 0.40991 0.0
H624 H 0.15456 1.0042 0.14996 0.0
H625 H 0.09731 0.9683 0.14928 0.0
H626 H 0.1117 0.88851 0.15352 0.0
H627 H 0.16869 0.92394 0.15383 0.0
H628 H 0.05936 0.91623 0.12219 0.0
H629 H 0.05207 0.8773 0.20098 0.0
H630 H 0.08564 0.91262 0.19132 0.0
H631 H 0.08157 0.87457 0.18652 0.0
C632 C 0.14556 0.97899 0.15054 0.0
C633 C 0.16629 0.96699 0.15216 0.0
C634 C 0.11284 0.95855 0.15025 0.0
C635 C 0.1003 0.92581 0.15172 0.0
C636 C 0.12089 0.91375 0.15282 0.0
H637 H 0.93578 0.74877 0.14847 0.0
H638 H 0.98735 0.79612 0.14982 0.0
C639 C 0.15349 0.93407 0.15305 0.0
C640 C 0.06573 0.90389 0.15209 0.0
H641 H 1.00782 0.84491 0.17999 0.0
C642 C 0.04787 0.90098 0.13493 0.0
C643 C 0.05081 0.88425 0.16882 0.0
C644 C 0.06841 0.88748 0.18804 0.0
C645 C 1.01587 0.8775 0.1336 0.0
C646 C 1.00148 0.85675 0.14994 0.0
C647 C 1.01897 0.86078 0.16745 0.0
C648 C 0.96955 0.82855 0.14845 0.0
C649 C 0.99813 0.87385 0.11439 0.0
C650 C 0.94225 0.83105 0.1472 0.0
C651 C 0.91235 0.80376 0.14644 0.0
C652 C 0.9094 0.77361 0.14694 0.0
C653 C 0.93696 0.77146 0.14805 0.0
C654 C 0.96659 0.79857 0.14885 0.0
H655 H 1.01373 0.88949 0.10231 0.0
H656 H 0.98658 0.84899 0.10909 0.0
H657 H 0.97934 0.87976 0.11719 0.0
H658 H 0.94404 0.85403 0.1471 0.0
H659 H 0.89164 0.8063 0.14567 0.0
H660 H 0.88248 0.88673 0.42362 0.0
H661 H 0.90359 0.94387 0.42633 0.0
H662 H 0.80895 0.92864 0.42652 0.0
H663 H 0.78771 0.87173 0.42437 0.0
H664 H 0.89465 0.9839 0.39997 0.0
H665 H 0.84897 0.98479 0.47579 0.0
H666 H 0.85126 0.95145 0.46616 0.0
H667 H 0.8189 0.95709 0.45926 0.0
C668 C 0.86617 0.89555 0.42451 0.0
C669 C 0.83338 0.87463 0.42383 0.0
C670 C 0.87828 0.9282 0.42593 0.0
C671 C 0.85783 0.94046 0.42692 0.0
C672 C 0.82516 0.91967 0.42614 0.0
H673 H 0.84509 0.10463 0.4218 0.0
H674 H 0.84097 0.05311 0.42327 0.0
C675 C 0.81306 0.88713 0.42468 0.0
C676 C 0.87029 0.975 0.42821 0.0
H677 H 0.86358 0.03052 0.45542 0.0
C678 C 0.88842 0.9943 0.41226 0.0
C679 C 0.86235 0.98853 0.44435 0.0
C680 C 0.84458 0.96945 0.46246 0.0
C681 C 0.89699 0.02636 0.4114 0.0
C682 C 0.88741 0.03935 0.42699 0.0
C683 C 0.87075 0.02044 0.44343 0.0
C684 C 0.89117 0.0713 0.42557 0.0
C685 C 0.91466 0.04567 0.39335 0.0
C686 C 0.92093 0.0988 0.42632 0.0
C687 C 0.92348 0.12866 0.42547 0.0
C688 C 0.89627 0.13139 0.42391 0.0
C689 C 0.86662 0.10364 0.42302 0.0
C690 C 0.86414 0.07403 0.42389 0.0
H691 H 0.91698 0.03104 0.38143 0.0
H692 H 0.90252 0.0577 0.38699 0.0
H693 H 0.93867 0.06417 0.39797 0.0
H694 H 0.94209 0.09718 0.42782 0.0
H695 H 0.94665 0.14949 0.42619 0.0
H696 H 0.19523 0.0545 0.6872 0.0
H697 H 0.17349 0.08992 0.68644 0.0
H698 H 0.19765 0.10845 0.62376 0.0
H699 H 0.21875 0.07251 0.62436 0.0
H700 H 0.20447 0.15076 0.67981 0.0
H701 H 0.11033 0.09598 0.62282 0.0
H702 H 0.12873 0.07541 0.63366 0.0
H703 H 0.14726 0.10244 0.61314 0.0
C704 C 0.19559 0.0659 0.67321 0.0
C705 C 0.20873 0.06078 0.65584 0.0
C706 C 0.18304 0.08603 0.67277 0.0
C707 C 0.18344 0.10154 0.65498 0.0
C708 C 0.19616 0.09609 0.63753 0.0
H709 H 0.2038 0.28301 0.64219 0.0
H710 H 0.20737 0.2354 0.64492 0.0
C711 C 0.20842 0.07568 0.63791 0.0
C712 C 0.17346 0.12569 0.65515 0.0
H713 H 0.1297 0.1512 0.62987 0.0
C714 C 0.18773 0.15051 0.66907 0.0
C715 C 0.15122 0.12525 0.64139 0.0
C716 C 0.13326 0.09813 0.62707 0.0
C717 C 0.1816 0.1756 0.66898 0.0
C718 C 0.16126 0.17637 0.65423 0.0
C719 C 0.14566 0.15081 0.64097 0.0
C720 C 0.15792 0.20466 0.65153 0.0
C721 C 0.19733 0.20128 0.68456 0.0
C722 C 0.12856 0.203 0.65351 0.0
C723 C 0.12631 0.2304 0.65179 0.0
C724 C 0.15342 0.25978 0.64803 0.0
C725 C 0.18249 0.26095 0.64541 0.0
C726 C 0.18465 0.23372 0.64702 0.0
H727 H 0.20353 0.19249 0.69818 0.0
H728 H 0.2195 0.22083 0.67826 0.0
H729 H 0.18192 0.21088 0.68903 0.0
H730 H 0.10758 0.1807 0.6568 0.0
H731 H 0.10355 0.22866 0.65381 0.0
H732 H 0.11707 0.83894 0.91742 0.0
H733 H 0.06501 0.83317 0.91539 0.0
H734 H 0.10392 0.93164 0.93006 0.0
H735 H 0.15692 0.93793 0.93198 0.0
H736 H 0.03387 0.84507 0.94705 0.0
H737 H 0.04853 0.91814 0.87953 0.0
H738 H 0.07538 0.90401 0.88518 0.0
H739 H 0.07698 0.93593 0.8994 0.0
C740 C 0.11484 0.85956 0.92019 0.0
C741 C 0.14131 0.88893 0.92496 0.0
C742 C 0.08493 0.85615 0.91899 0.0
C743 C 0.08059 0.88195 0.92246 0.0
C744 C 0.10685 0.9115 0.92706 0.0
H745 H 0.89471 0.86889 0.91994 0.0
H746 H 0.95174 0.89026 0.92266 0.0
C747 C 0.13706 0.915 0.92825 0.0
C748 C 0.04813 0.87687 0.92193 0.0
H749 H 0.99779 0.89042 0.89383 0.0
C750 C 0.02606 0.85527 0.93556 0.0
C751 C 0.03806 0.89032 0.90697 0.0
C752 C 0.06081 0.91329 0.89181 0.0
C753 C 0.994 0.84591 0.93422 0.0
C754 C 0.98366 0.85816 0.91868 0.0
C755 C 1.00586 0.88092 0.90562 0.0
C756 C 0.94965 0.8462 0.91529 0.0
C757 C 0.97134 0.82257 0.94928 0.0
C758 C 0.9298 0.81462 0.90966 0.0
C759 C 0.89731 0.80238 0.90796 0.0
C760 C 0.88401 0.82153 0.91182 0.0
C761 C 0.90418 0.85355 0.91668 0.0
C762 C 0.93675 0.86579 0.91835 0.0
H763 H 0.98369 0.82173 0.96303 0.0
H764 H 0.95305 0.82856 0.95362 0.0
H765 H 0.95928 0.79864 0.94248 0.0
H766 H 0.93942 0.79927 0.90691 0.0
H767 H 0.88256 0.77781 0.90382 0.0
H768 H 0.81306 0.88505 0.64722 0.0
H769 H 0.86017 0.93772 0.65043 0.0
H770 H 0.80083 0.97882 0.65785 0.0
H771 H 0.75417 0.92707 0.65478 0.0
H772 H 0.87684 0.99333 0.6263 0.0
H773 H 0.8612 1.01264 0.70633 0.0
H774 H 0.842 0.97391 0.69492 0.0
H775 H 0.82597 0.99965 0.69182 0.0
C776 C 0.8101 0.90532 0.64959 0.0
C777 C 0.77977 0.90172 0.6508 0.0
C778 C 0.83701 0.93535 0.65143 0.0
C779 C 0.83391 0.96204 0.65474 0.0
C780 C 0.80374 0.95846 0.65573 0.0
H781 H 0.92759 0.16134 0.65954 0.0
H782 H 0.89272 0.10407 0.66021 0.0
C783 C 0.77703 0.92873 0.65384 0.0
C784 C 0.86181 0.9941 0.65652 0.0
H785 H 0.89376 0.05913 0.68685 0.0
C786 C 0.88107 1.0076 0.63965 0.0
C787 C 0.86717 1.01259 0.67398 0.0
C788 C 0.84818 0.99888 0.69286 0.0
C789 C 0.9043 0.03975 0.63936 0.0
C790 C 0.90855 0.05861 0.6565 0.0
C791 C 0.8903 0.04467 0.67368 0.0
C792 C 0.93019 0.09325 0.65645 0.0
C793 C 0.92292 0.05368 0.62038 0.0
C794 C 0.96287 0.10615 0.65439 0.0
C795 C 0.98286 0.13892 0.65391 0.0
C796 C 0.97052 0.15937 0.65553 0.0
C797 C 0.93781 0.14629 0.65797 0.0
C798 C 0.91788 0.11357 0.65848 0.0
H799 H 0.91283 0.03732 0.60741 0.0
H800 H 0.92375 0.07619 0.61664 0.0
H801 H 0.9475 0.05887 0.62264 0.0
H802 H 0.97289 0.09089 0.65309 0.0
H803 H 1.00791 0.1482 0.65185 0.0
H804 H 0.10585 0.23384 0.92894 0.0
H805 H 0.11293 0.18748 0.93 0.0
H806 H 0.21092 0.24633 0.91434 0.0
H807 H 0.20437 0.2923 0.91336 0.0
H808 H 0.13816 0.16248 0.899 0.0
H809 H 0.21152 0.20306 0.96776 0.0
H810 H 0.18625 0.21826 0.96021 0.0
H811 H 0.22421 0.23274 0.94863 0.0
C812 C 0.12885 0.23683 0.92568 0.0
C813 C 0.15462 0.26689 0.92135 0.0
C814 C 0.13283 0.21036 0.92627 0.0
C815 C 0.16259 0.2137 0.9226 0.0
C816 C 0.18792 0.24341 0.9176 0.0
H817 H 0.26503 0.11565 0.91693 0.0
H818 H 0.24453 0.15206 0.91531 0.0
C819 C 0.18405 0.26969 0.91704 0.0
C820 C 0.16802 0.18664 0.92422 0.0
H821 H 0.21441 0.16345 0.94835 0.0
C822 C 0.15438 0.16228 0.90997 0.0
C823 C 0.1892 0.18657 0.93858 0.0
C824 C 0.20343 0.2114 0.95479 0.0
C825 C 0.16272 0.13866 0.90908 0.0
C826 C 0.18499 0.13946 0.92292 0.0
C827 C 0.19761 0.16313 0.93763 0.0
C828 C 0.1964 0.1166 0.92215 0.0
C829 C 0.14877 0.11386 0.89286 0.0
C830 C 0.17605 0.08459 0.92638 0.0
C831 C 0.18767 0.06371 0.92724 0.0
C832 C 0.2199 0.07452 0.92397 0.0
C833 C 0.24006 0.1065 0.91929 0.0
C834 C 0.22842 0.12736 0.91848 0.0
H835 H 0.13673 0.12004 0.88111 0.0
H836 H 0.16735 0.1105 0.88568 0.0
H837 H 0.13119 0.09102 0.89962 0.0
H838 H 0.15136 0.07591 0.92953 0.0
H839 H 0.17148 0.03913 0.93068 0.0
H840 H 0.15851 0.93641 0.64517 0.0
H841 H 0.10608 0.9317 0.64374 0.0
H842 H 0.06395 0.83631 0.6659 0.0
H843 H 0.11548 0.84056 0.66711 0.0
H844 H 0.03717 0.84216 0.63043 0.0
H845 H 0.0452 0.9275 0.68878 0.0
H846 H 0.07591 0.94174 0.67015 0.0
H847 H 0.07227 0.91258 0.68788 0.0
C848 C 0.13805 0.91463 0.64998 0.0
C849 C 0.14107 0.88875 0.65605 0.0
C850 C 0.10819 0.91201 0.64922 0.0
C851 C 0.08117 0.88364 0.65475 0.0
C852 C 0.08446 0.85834 0.66149 0.0
H853 H 0.88735 0.81722 0.68159 0.0
H854 H 0.94469 0.83946 0.68186 0.0
C855 C 0.114 0.86083 0.66211 0.0
C856 C 0.04899 0.87878 0.65234 0.0
H857 H 0.9966 0.89844 0.67189 0.0
C858 C 0.02835 0.85469 0.63933 0.0
C859 C 0.03761 0.89503 0.6641 0.0
C860 C 0.05872 0.92055 0.67864 0.0
C861 C 0.99635 0.8456 0.63822 0.0
C862 C 0.9848 0.86164 0.65009 0.0
C863 C 1.0056 0.88633 0.66274 0.0
C864 C 0.9508 0.85163 0.65034 0.0
C865 C 0.97496 0.8179 0.62504 0.0
C866 C 0.93541 0.85189 0.63268 0.0
C867 C 0.90271 0.8389 0.63244 0.0
C868 C 0.88487 0.82584 0.64995 0.0
C869 C 0.90052 0.8271 0.66788 0.0
C870 C 0.93323 0.83983 0.66806 0.0
H871 H 0.986 0.80367 0.62075 0.0
H872 H 0.95226 0.80219 0.63271 0.0
H873 H 0.96978 0.82672 0.61107 0.0
H874 H 0.94861 0.86151 0.61895 0.0
H875 H 0.89132 0.83886 0.61852 0.0
H876 H 0.92513 0.16279 0.9145 0.0
H877 H 0.8903 0.10554 0.91377 0.0
H878 H 0.9708 0.09244 0.91847 0.0
H879 H 1.00582 0.14974 0.91985 0.0
H880 H 0.88967 0.06121 0.88641 0.0
H881 H 0.9132 0.03786 0.96436 0.0
H882 H 0.92403 0.07696 0.95576 0.0
H883 H 0.9471 0.05936 0.94852 0.0
C884 C 0.93544 0.14776 0.91556 0.0
C885 C 0.96826 0.16088 0.91735 0.0
C886 C 0.91552 0.11505 0.91501 0.0
C887 C 0.92794 0.09474 0.91633 0.0
C888 C 0.96069 0.10767 0.91775 0.0
H889 H 0.81199 0.886 0.92102 0.0
H890 H 0.85874 0.93903 0.91853 0.0
C891 C 0.98068 0.14044 0.91831 0.0
C892 C 0.90631 0.06008 0.9161 0.0
H893 H 0.87653 0.9941 0.94545 0.0
C894 C 0.88704 0.04649 0.89924 0.0
C895 C 0.90309 0.04086 0.9328 0.0
C896 C 0.92274 0.0544 0.95148 0.0
C897 C 0.86393 1.0144 0.89887 0.0
C898 C 0.85972 0.99553 0.91591 0.0
C899 C 0.87993 1.00869 0.93242 0.0
C900 C 0.83208 0.96335 0.91771 0.0
C901 C 0.84367 1.00106 0.88041 0.0
C902 C 0.80186 0.95967 0.91849 0.0
C903 C 0.77535 0.92973 0.92001 0.0
C904 C 0.77837 0.90262 0.92082 0.0
C905 C 0.8088 0.90634 0.92038 0.0
C906 C 0.8355 0.93657 0.91895 0.0
H907 H 0.85536 1.01555 0.86692 0.0
H908 H 0.83807 0.97642 0.87755 0.0
H909 H 0.82114 1.0009 0.88271 0.0
H910 H 0.79877 0.98009 0.91791 0.0
H911 H 0.75241 0.92797 0.92039 0.0
H912 H 0.40134 0.14416 0.36309 0.0
H913 H 0.40703 0.16332 0.32877 0.0
H914 H 0.34917 0.20436 0.3427 0.0
H915 H 0.3434 0.18502 0.3774 0.0
H916 H 0.32794 0.16389 0.30991 0.0
H917 H 0.45493 0.24839 0.30092 0.0
H918 H 0.44854 0.21265 0.31256 0.0
H919 H 0.43619 0.23721 0.32524 0.0
C920 C 0.39047 0.15795 0.35899 0.0
C921 C 0.37188 0.16305 0.37285 0.0
C922 C 0.39393 0.16911 0.33939 0.0
C923 C 0.37889 0.18566 0.33317 0.0
C924 C 0.36126 0.19192 0.34723 0.0
H925 H 0.34586 0.18797 0.20233 0.0
H926 H 0.35098 0.20677 0.23719 0.0
C927 C 0.35804 0.18097 0.36702 0.0
C928 C 0.37848 0.19237 0.31147 0.0
H929 H 0.427 0.22011 0.27067 0.0
C930 C 0.34949 0.17701 0.30132 0.0
C931 C 0.4066 0.20956 0.30029 0.0
C932 C 0.43828 0.22816 0.31037 0.0
C933 C 0.34809 0.17588 0.28025 0.0
C934 C 0.37647 0.19097 0.26906 0.0
C935 C 0.40526 0.20843 0.27923 0.0
C936 C 0.37707 0.18442 0.24734 0.0
C937 C 0.31649 0.1564 0.27018 0.0
C938 C 0.39127 0.16698 0.2413 0.0
C939 C 0.38845 0.15639 0.22156 0.0
C940 C 0.37149 0.16314 0.20738 0.0
C941 C 0.35898 0.18237 0.21301 0.0
C942 C 0.36171 0.19291 0.23292 0.0
H943 H 0.29722 0.14305 0.28114 0.0
H944 H 0.31065 0.17216 0.26156 0.0
H945 H 0.31729 0.13938 0.25949 0.0
H946 H 0.40331 0.16022 0.25212 0.0
H947 H 0.39854 0.14182 0.21759 0.0
H948 H 0.77845 0.65043 0.35477 0.0
H949 H 0.79351 0.64648 0.32069 0.0
H950 H 0.89007 0.68427 0.33959 0.0
H951 H 0.87501 0.68937 0.37405 0.0
H952 H 0.88896 0.71494 0.30856 0.0
H953 H 0.81311 0.59031 0.28904 0.0
H954 H 0.78828 0.60385 0.2994 0.0
H955 H 0.81857 0.60369 0.31476 0.0
C956 C 0.80283 0.65734 0.35181 0.0
C957 C 0.82559 0.67043 0.36706 0.0
C958 C 0.81139 0.65467 0.33227 0.0
C959 C 0.84288 0.66444 0.32745 0.0
C960 C 0.86556 0.67628 0.34289 0.0
H961 H 0.84657 0.6592 0.19462 0.0
H962 H 0.86041 0.64902 0.22837 0.0
C963 C 0.85696 0.67915 0.36258 0.0
C964 C 0.85208 0.66629 0.30593 0.0
H965 H 0.82303 0.62824 0.2613 0.0
C966 C 0.87519 0.6956 0.29831 0.0
C967 C 0.83509 0.641 0.29233 0.0
C968 C 0.81268 0.60789 0.29941 0.0
C969 C 0.87903 0.70125 0.27757 0.0
C970 C 0.85859 0.67731 0.26408 0.0
C971 C 0.83818 0.64695 0.27157 0.0
C972 C 0.85393 0.68486 0.24317 0.0
C973 C 0.90391 0.73342 0.27037 0.0
C974 C 0.84558 0.70811 0.24026 0.0
C975 C 0.8378 0.71381 0.22129 0.0
C976 C 0.83783 0.69627 0.20461 0.0
C977 C 0.84672 0.67329 0.20722 0.0
C978 C 0.8545 0.66743 0.22646 0.0
H979 H 0.92491 0.74334 0.28033 0.0
H980 H 0.91146 0.73258 0.25478 0.0
H981 H 0.89437 0.74975 0.2709 0.0
H982 H 0.8439 0.72119 0.25287 0.0
H983 H 0.8309 0.73158 0.2198 0.0
H984 H 0.92176 0.19381 0.21723 0.0
H985 H 0.89816 0.18013 0.25044 0.0
H986 H 0.82512 0.19912 0.23147 0.0
H987 H 0.84884 0.21254 0.19759 0.0
H988 H 0.85951 0.23277 0.26668 0.0
H989 H 0.8185 0.1059 0.2746 0.0
H990 H 0.85696 0.12642 0.26344 0.0
H991 H 0.82388 0.12464 0.25043 0.0
C992 C 0.90014 0.19421 0.21993 0.0
C993 C 0.88701 0.20404 0.20487 0.0
C994 C 0.88655 0.18623 0.23892 0.0
C995 C 0.85961 0.18817 0.24345 0.0
C996 C 0.84569 0.19706 0.22823 0.0
H997 H 0.84604 0.20533 0.37585 0.0
H998 H 0.82265 0.1935 0.34184 0.0
C999 C 0.8591 0.20456 0.20891 0.0
C1000 C 0.84926 0.18465 0.26476 0.0
H1001 H 0.83892 0.13773 0.3052 0.0
C1002 C 0.8537 0.21161 0.27511 0.0
C1003 C 0.84158 0.15701 0.27575 0.0
C1004 C 0.83463 0.12676 0.26543 0.0
C1005 C 0.85425 0.21274 0.29622 0.0
C1006 C 0.85 0.18614 0.30719 0.0
C1007 C 0.84231 0.15817 0.29682 0.0
C1008 C 0.86061 0.1892 0.32838 0.0
C1009 C 0.86249 0.24332 0.30664 0.0
C1010 C 0.889 0.18974 0.33216 0.0
C1011 C 0.90224 0.19658 0.35127 0.0
C1012 C 0.88726 0.20266 0.36719 0.0
C1013 C 0.85788 0.20044 0.36383 0.0
C1014 C 0.84469 0.19393 0.34443 0.0
H1015 H 0.86564 0.26203 0.29592 0.0
H1016 H 0.84351 0.23933 0.31736 0.0
H1017 H 0.88462 0.25187 0.31534 0.0
H1018 H 0.90173 0.18622 0.32006 0.0
H1019 H 0.92489 0.19811 0.35344 0.0
H1020 H 0.20396 0.38699 0.69582 0.0
H1021 H 0.22662 0.39771 0.73 0.0
H1022 H 0.15175 0.30658 0.7492 0.0
H1023 H 0.12925 0.29622 0.71567 0.0
H1024 H 0.19224 0.39915 0.76408 0.0
H1025 H 0.22884 0.31066 0.77565 0.0
H1026 H 0.22457 0.32323 0.75093 0.0
H1027 H 0.19073 0.29298 0.76405 0.0
C1028 C 0.19309 0.36899 0.70727 0.0
C1029 C 0.16498 0.34073 0.70319 0.0
C1030 C 0.2059 0.37516 0.72676 0.0
C1031 C 0.19114 0.35274 0.74213 0.0
C1032 C 0.16402 0.32395 0.73758 0.0
H1033 H 0.11875 0.30391 0.85093 0.0
H1034 H 0.14267 0.31407 0.81778 0.0
C1035 C 0.15105 0.3181 0.7184 0.0
C1036 C 0.20073 0.36003 0.76353 0.0
H1037 H 0.20732 0.32346 0.80528 0.0
C1038 C 0.19691 0.38351 0.7731 0.0
C1039 C 0.20694 0.33974 0.77532 0.0
C1040 C 0.21334 0.31546 0.7659 0.0
C1041 C 0.19548 0.38477 0.79415 0.0
C1042 C 0.19807 0.36208 0.80583 0.0
C1043 C 0.2052 0.34079 0.79632 0.0
C1044 C 0.1862 0.35537 0.82678 0.0
C1045 C 0.18804 0.40823 0.80372 0.0
C1046 C 0.20308 0.37492 0.84305 0.0
C1047 C 0.18942 0.36889 0.86231 0.0
C1048 C 0.15865 0.34353 0.86529 0.0
C1049 C 0.14244 0.32367 0.84907 0.0
C1050 C 0.15611 0.3294 0.8301 0.0
H1051 H 0.18777 0.42501 0.79264 0.0
H1052 H 0.16461 0.39549 0.81114 0.0
H1053 H 0.20579 0.42186 0.81545 0.0
H1054 H 0.22639 0.39509 0.84077 0.0
H1055 H 0.2023 0.38463 0.87458 0.0
H1056 H 0.22644 0.92926 0.85608 0.0
H1057 H 0.21312 0.90557 0.82298 0.0
H1058 H 0.19193 0.81573 0.84788 0.0
H1059 H 0.20591 0.83994 0.88162 0.0
H1060 H 0.23012 0.83147 0.81466 0.0
H1061 H 0.13005 0.84792 0.79626 0.0
H1062 H 0.16156 0.88433 0.80582 0.0
H1063 H 0.14346 0.84994 0.82175 0.0
C1064 C 0.21852 0.90432 0.85465 0.0
C1065 C 0.21706 0.8864 0.87144 0.0
C1066 C 0.21059 0.8907 0.83568 0.0
C1067 C 0.20074 0.85866 0.83292 0.0
C1068 C 0.199 0.8404 0.8497 0.0
H1069 H 0.17703 0.84059 0.70242 0.0
H1070 H 0.1624 0.82042 0.73686 0.0
C1071 C 0.20689 0.85416 0.86893 0.0
C1072 C 0.1954 0.84602 0.8121 0.0
H1073 H 0.1648 0.85342 0.76787 0.0
C1074 C 0.21509 0.83528 0.80448 0.0
C1075 C 0.17511 0.84991 0.79878 0.0
C1076 C 0.15111 0.8583 0.80617 0.0
C1077 C 0.21769 0.83199 0.78371 0.0
C1078 C 0.20086 0.84056 0.77025 0.0
C1079 C 0.17839 0.84756 0.77802 0.0
C1080 C 0.20982 0.84761 0.74871 0.0
C1081 C 0.23947 0.82063 0.77644 0.0
C1082 C 0.2413 0.86917 0.74375 0.0
C1083 C 0.24961 0.88046 0.72422 0.0
C1084 C 0.2266 0.87093 0.70916 0.0
C1085 C 0.19526 0.84829 0.71375 0.0
C1086 C 0.1869 0.83682 0.73342 0.0
H1087 H 0.2389 0.80263 0.78683 0.0
H1088 H 0.2331 0.81028 0.76115 0.0
H1089 H 0.26404 0.84075 0.77623 0.0
H1090 H 0.25935 0.87877 0.75523 0.0
H1091 H 0.27397 0.89789 0.72114 0.0
H1092 H 0.73898 0.82849 0.71873 0.0
H1093 H 0.72733 0.84146 0.75174 0.0
H1094 H 0.64603 0.84228 0.72776 0.0
H1095 H 0.65804 0.82953 0.6941 0.0
H1096 H 0.71414 0.89611 0.7638 0.0
H1097 H 0.61803 0.77199 0.77587 0.0
H1098 H 0.64897 0.78003 0.75809 0.0
H1099 H 0.62107 0.79256 0.75278 0.0
C1100 C 0.71887 0.8319 0.72035 0.0
C1101 C 0.69938 0.82797 0.70389 0.0
C1102 C 0.71228 0.83938 0.73923 0.0
C1103 C 0.68581 0.84273 0.74222 0.0
C1104 C 0.66663 0.83981 0.72572 0.0
H1105 H 0.65127 0.82261 0.87245 0.0
H1106 H 0.63989 0.83475 0.83855 0.0
C1107 C 0.67354 0.83268 0.70655 0.0
C1108 C 0.67806 0.8471 0.76309 0.0
H1109 H 0.6425 0.80268 0.80462 0.0
C1110 C 0.69763 0.87601 0.77268 0.0
C1111 C 0.65641 0.82097 0.77465 0.0
C1112 C 0.63475 0.78953 0.76495 0.0
C1113 C 0.69811 0.87865 0.79369 0.0
C1114 C 0.67913 0.8515 0.8054 0.0
C1115 C 0.65717 0.82349 0.7957 0.0
C1116 C 0.68655 0.84968 0.82684 0.0
C1117 C 0.72045 0.91003 0.8032 0.0
C1118 C 0.71652 0.85444 0.83159 0.0
C1119 C 0.72278 0.84726 0.85063 0.0
C1120 C 0.69937 0.83536 0.86548 0.0
C1121 C 0.66985 0.83227 0.8613 0.0
C1122 C 0.66333 0.83902 0.84195 0.0
H1123 H 0.72324 0.92981 0.7936 0.0
H1124 H 0.71214 0.91237 0.81827 0.0
H1125 H 0.74403 0.91226 0.80478 0.0
H1126 H 0.7346 0.86183 0.82018 0.0
H1127 H 0.74564 0.84958 0.85344 0.0
H1128 H 0.18839 0.9007 0.99191 0.0
H1129 H 0.20283 0.94144 1.01795 0.0
H1130 H 0.3003 0.98447 0.99997 0.0
H1131 H 0.28598 0.94419 0.974 0.0
H1132 H 0.24399 0.95874 0.0504 0.0
H1133 H 0.28413 0.05852 0.99742 0.0
H1134 H 0.26117 0.01783 0.98957 0.0
H1135 H 0.30306 0.0357 0.99314 0.0
C1136 C 0.21288 0.9188 0.99363 0.0
C1137 C 0.23602 0.91956 0.98079 0.0
C1138 C 0.2211 0.9421 1.00845 0.0
C1139 C 0.25257 0.9665 1.01062 0.0
C1140 C 0.27577 0.96646 0.99826 0.0
H1141 H 0.35433 0.08868 0.10838 0.0
H1142 H 0.32871 0.04715 0.08317 0.0
C1143 C 0.2676 0.94327 0.98352 0.0
C1144 C 0.26153 0.99183 1.02593 0.0
H1145 H 0.30044 0.07209 1.03169 0.0
C1146 C 0.25601 0.9835 0.04629 0.0
C1147 C 0.27666 0.02418 1.02061 0.0
C1148 C 0.28133 0.03464 0.99899 0.0
C1149 C 0.26663 1.00664 0.06146 0.0
C1150 C 0.2837 0.039 0.05616 0.0
C1151 C 0.28778 0.04732 1.03578 0.0
C1152 C 0.29893 0.06442 0.07153 0.0
C1153 C 0.2596 0.99621 0.08305 0.0
C1154 C 0.29152 0.08866 0.07303 0.0
C1155 C 0.30627 0.11259 0.08751 0.0
C1156 C 0.32875 0.1127 0.10063 0.0
C1157 C 0.33664 0.08887 0.09874 0.0
C1158 C 0.32192 0.06503 0.08437 0.0
H1159 H 0.23872 0.97214 0.08433 0.0
H1160 H 0.28011 0.99559 0.08959 0.0
H1161 H 0.25529 1.01278 0.09207 0.0
H1162 H 0.27411 0.08888 0.06314 0.0
H1163 H 0.29984 0.13075 0.08858 0.0
H1164 H 0.8622 0.74067 0.48689 0.0
H1165 H 0.84494 0.76455 0.51286 0.0
H1166 H 0.74909 0.7093 0.49186 0.0
H1167 H 0.76625 0.68583 0.46591 0.0
H1168 H 0.76527 0.77048 0.49838 0.0
H1169 H 0.798 0.72401 0.56443 0.0
H1170 H 0.82984 0.7468 0.54741 0.0
H1171 H 0.7971 0.70982 0.5393 0.0
C1172 C 0.83745 0.73357 0.48794 0.0
C1173 C 0.81558 0.71145 0.47436 0.0
C1174 C 0.82757 0.74713 0.50281 0.0
C1175 C 0.7956 0.7385 0.50451 0.0
C1176 C 0.77386 0.71642 0.49089 0.0
H1177 H 0.69179 0.75548 0.60358 0.0
H1178 H 0.71598 0.73948 0.57738 0.0
C1179 C 0.78371 0.70301 0.47605 0.0
C1180 C 0.78445 0.75241 0.52026 0.0
H1181 H 0.77791 0.75807 0.57099 0.0
C1182 C 0.76816 0.76789 0.51426 0.0
C1183 C 0.78793 0.74879 0.54101 0.0
C1184 C 0.8039 0.73123 0.5485 0.0
C1185 C 0.75498 0.77946 0.52835 0.0
C1186 C 0.75864 0.77603 0.5491 0.0
C1187 C 0.77525 0.76089 0.55511 0.0
C1188 C 0.7439 0.78628 0.56482 0.0
C1189 C 0.73626 0.79421 0.52085 0.0
C1190 C 0.75146 0.81798 0.56659 0.0
C1191 C 0.73745 0.82716 0.58156 0.0
C1192 C 0.71598 0.80488 0.59519 0.0
C1193 C 0.70836 0.77321 0.59334 0.0
C1194 C 0.72226 0.76405 0.57839 0.0
H1195 H 0.7292 0.78811 0.50491 0.0
H1196 H 0.71469 0.78653 0.53002 0.0
H1197 H 0.75093 0.82028 0.52199 0.0
H1198 H 0.76849 0.83571 0.55657 0.0
H1199 H 0.74387 0.85175 0.58271 0.0
H1200 H 0.09635 0.35587 0.96527 0.0
H1201 H 0.05716 0.33294 0.99206 0.0
H1202 H 0.1028 0.28306 1.01417 0.0
H1203 H 0.1427 0.30679 0.98757 0.0
H1204 H 1.01467 0.27307 0.99984 0.0
H1205 H 0.09504 0.32277 0.06512 0.0
H1206 H 0.10776 0.336 0.03982 0.0
H1207 H 0.1047 0.29983 0.04862 0.0
C1208 C 0.09818 0.3402 0.97595 0.0
C1209 C 0.12261 0.33316 0.97437 0.0
C1210 C 0.07569 0.32701 0.99123 0.0
C1211 C 0.07709 0.30649 1.00537 0.0
C1212 C 0.10152 0.29936 1.00379 0.0
H1213 H 0.9138 0.1889 0.08333 0.0
H1214 H 0.9545 0.20668 0.05718 0.0
C1215 C 0.12425 0.31281 0.98853 0.0
C1216 C 0.0525 0.29229 1.02137 0.0
H1217 H 0.04156 0.28608 0.0722 0.0
C1218 C 1.02058 0.27589 1.01567 0.0
C1219 C 0.06008 0.29617 0.04207 0.0
C1220 C 0.09372 0.31489 0.04933 0.0
C1221 C 0.99615 0.26362 1.02997 0.0
C1222 C 1.00373 0.26705 0.05067 0.0
C1223 C 0.03566 0.28319 0.05637 0.0
C1224 C 0.97904 0.25564 0.06666 0.0
C1225 C 0.96248 0.24812 1.02271 0.0
C1226 C 0.97962 0.27689 0.08109 0.0
C1227 C 0.95666 0.26667 0.09615 0.0
C1228 C 0.93258 0.23491 0.09717 0.0
C1229 C 0.93194 0.21355 0.0828 0.0
C1230 C 0.95512 0.22376 0.06779 0.0
H1231 H 0.961 0.25498 1.00704 0.0
H1232 H 0.95206 0.22211 1.02305 0.0
H1233 H 0.94805 0.25443 1.03245 0.0
H1234 H 0.99776 0.30156 0.08062 0.0
H1235 H 0.95772 0.28369 0.107 0.0
H1236 H 0.29889 0.12852 0.49146 0.0
H1237 H 0.27469 0.0881 0.5177 0.0
H1238 H 0.32931 0.04619 0.49775 0.0
H1239 H 0.35317 0.08618 0.47148 0.0
H1240 H 0.26772 1.00167 0.50458 0.0
H1241 H 0.31572 0.08351 0.56954 0.0
H1242 H 0.29317 0.09239 0.55224 0.0
H1243 H 0.32975 0.09563 0.54427 0.0
C1244 C 0.30577 0.11072 0.49277 0.0
C1245 C 0.32786 0.11046 0.47942 0.0
C1246 C 0.29203 0.0877 0.5078 0.0
C1247 C 0.30043 0.06425 0.5099 0.0
C1248 C 0.32241 0.06398 0.49647 0.0
H1249 H 0.28316 0.94628 0.61018 0.0
H1250 H 0.29893 0.98605 0.58383 0.0
C1251 C 0.33605 0.08687 0.48146 0.0
C1252 C 0.28644 0.03983 0.52594 0.0
H1253 H 0.28096 0.02974 0.57682 0.0
C1254 C 0.27049 1.0078 0.52038 0.0
C1255 C 0.29029 0.0478 0.54658 0.0
C1256 C 0.30839 0.08167 0.5536 0.0
C1257 C 0.25864 0.9836 0.53482 0.0
C1258 C 0.2623 0.99157 0.55546 0.0
C1259 C 0.27793 0.0236 0.56102 0.0
C1260 C 0.25201 0.96721 0.57154 0.0
C1261 C 0.24334 0.94975 0.52783 0.0
C1262 C 0.22027 0.94338 0.57359 0.0
C1263 C 0.2112 0.92048 0.58869 0.0
C1264 C 0.23364 0.92125 0.60213 0.0
C1265 C 0.26527 0.94522 0.60014 0.0
C1266 C 0.27433 0.96797 0.58507 0.0
H1267 H 0.24906 0.94799 0.51191 0.0
H1268 H 0.25093 0.93603 0.53722 0.0
H1269 H 0.21736 0.93871 0.52912 0.0
H1270 H 0.20248 0.94261 0.56361 0.0
H1271 H 0.18662 0.90239 0.58997 0.0
H1272 H 0.84976 0.71938 0.07683 0.0
H1273 H 0.83038 0.73926 0.04981 0.0
H1274 H 0.74446 0.71007 0.08304 0.0
H1275 H 0.76267 0.6881 0.10905 0.0
H1276 H 0.72949 0.69685 0.04703 0.0
H1277 H 0.82977 0.81938 0.04716 0.0
H1278 H 0.84225 0.79147 0.04159 0.0
H1279 H 0.82564 0.79098 0.06582 0.0
C1280 C 0.82672 0.71717 0.07826 0.0
C1281 C 0.80803 0.7028 0.09526 0.0
C1282 C 0.81577 0.72892 0.06293 0.0
C1283 C 0.78625 0.72718 0.06453 0.0
C1284 C 0.7674 0.71209 0.08136 0.0
H1285 H 0.72897 0.83918 0.99191 0.0
H1286 H 0.74871 0.81868 1.01832 0.0
C1287 C 0.77795 0.69968 0.09635 0.0
C1288 C 0.77424 0.74005 0.0486 0.0
H1289 H 0.79305 0.80546 1.02035 0.0
C1290 C 0.74343 0.72071 0.04133 0.0
C1291 C 0.79196 0.77139 0.04128 0.0
C1292 C 0.82408 0.7946 0.04952 0.0
C1293 C 0.72992 0.73162 1.02713 0.0
C1294 C 0.74824 0.76234 1.01898 0.0
C1295 C 0.779 0.78179 1.0263 0.0
C1296 C 0.73592 0.77477 1.00299 0.0
C1297 C 0.6957 0.71028 1.02165 0.0
C1298 C 0.72223 0.7572 0.98545 0.0
C1299 C 0.71008 0.76847 0.9707 0.0
C1300 C 0.71264 0.79828 0.97262 0.0
C1301 C 0.72679 0.81619 0.98996 0.0
C1302 C 0.73823 0.80452 1.00501 0.0
H1303 H 0.68257 0.69352 1.03397 0.0
H1304 H 0.68382 0.72399 1.01823 0.0
H1305 H 0.6942 0.69605 1.00828 0.0
H1306 H 0.72097 0.73472 0.98306 0.0
H1307 H 0.69898 0.75391 0.95763 0.0
H1308 H 0.14045 0.29803 0.58175 0.0
H1309 H 0.09918 0.27443 0.55595 0.0
H1310 H 0.0568 0.32699 0.57903 0.0
H1311 H 0.09758 0.35011 0.60491 0.0
H1312 H 1.01285 0.26548 0.572 0.0
H1313 H 0.09061 0.31586 0.50554 0.0
H1314 H 0.10103 0.29329 0.52179 0.0
H1315 H 0.10408 0.32942 0.53073 0.0
C1316 C 0.12242 0.30465 0.58118 0.0
C1317 C 0.12217 0.32584 0.59534 0.0
C1318 C 0.0989 0.29125 0.56641 0.0
C1319 C 0.07499 0.29916 0.56537 0.0
C1320 C 0.07492 0.32047 0.57949 0.0
H1321 H 0.9512 0.27859 0.46741 0.0
H1322 H 0.99158 0.29594 0.49352 0.0
C1323 C 0.09829 0.33374 0.59425 0.0
C1324 C 0.04973 0.28514 0.54982 0.0
H1325 H 0.03674 0.27992 0.49922 0.0
C1326 C 1.01808 0.26856 0.55608 0.0
C1327 C 0.05649 0.28939 0.52903 0.0
C1328 C 0.08985 0.30818 0.5213 0.0
C1329 C 0.99308 0.25637 0.54219 0.0
C1330 C 0.99985 0.26033 0.52139 0.0
C1331 C 0.03151 0.27668 0.51514 0.0
C1332 C 0.97458 0.24929 0.50587 0.0
C1333 C 0.95967 0.24032 0.54996 0.0
C1334 C 0.95141 0.21723 0.50405 0.0
C1335 C 0.92809 0.20728 0.48915 0.0
C1336 C 0.92786 0.22916 0.47564 0.0
C1337 C 0.95091 0.26119 0.47757 0.0
C1338 C 0.97405 0.27111 0.49245 0.0
H1339 H 0.95866 0.24612 0.56596 0.0
H1340 H 0.94494 0.2472 0.54103 0.0
H1341 H 0.94924 0.21436 0.54873 0.0
H1342 H 0.95161 0.19982 0.51394 0.0
H1343 H 0.9107 0.18244 0.48792 0.0
H1344 H 0.70432 0.22066 0.16736 0.0
H1345 H 0.65097 0.21316 0.17043 0.0
H1346 H 0.61285 0.12397 0.13953 0.0
H1347 H 0.66579 0.13114 0.13654 0.0
H1348 H 0.60948 0.20323 0.13587 0.0
H1349 H 0.55669 0.10463 0.19071 0.0
H1350 H 0.59879 0.13026 0.18814 0.0
H1351 H 0.5774 0.09967 0.17002 0.0
C1352 C 0.68448 0.19928 0.16148 0.0
C1353 C 0.68924 0.17657 0.15162 0.0
C1354 C 0.65409 0.19508 0.16318 0.0
C1355 C 0.62798 0.16788 0.15536 0.0
C1356 C 0.63262 0.14493 0.14588 0.0
H1357 H 0.42662 0.09891 0.14397 0.0
H1358 H 0.47937 0.10472 0.14453 0.0
C1359 C 0.66292 0.14922 0.14403 0.0
C1360 C 0.59605 0.16421 0.15597 0.0
H1361 H 0.52179 0.11804 0.17471 0.0
C1362 C 0.59033 0.18479 0.14448 0.0
C1363 C 0.57108 0.13982 0.16698 0.0
C1364 C 0.57618 0.1174 0.1798 0.0
C1365 C 0.56013 0.18133 0.14342 0.0
C1366 C 0.53514 0.15716 0.15464 0.0
C1367 C 0.54091 0.13656 0.16614 0.0
C1368 C 0.50301 0.15323 0.15482 0.0
C1369 C 0.55515 0.20306 0.1298 0.0
C1370 C 0.49864 0.17826 0.16084 0.0
C1371 C 0.46871 0.17512 0.16034 0.0
C1372 C 0.44229 0.14665 0.15414 0.0
C1373 C 0.44648 0.12117 0.14877 0.0
C1374 C 0.4766 0.12446 0.14908 0.0
H1375 H 0.57346 0.21325 0.1179 0.0
H1376 H 0.53161 0.19051 0.12253 0.0
H1377 H 0.5567 0.22293 0.13875 0.0
H1378 H 0.51844 0.20035 0.16591 0.0
H1379 H 0.46632 0.1951 0.16488 0.0
H1380 H 0.76219 0.57397 0.4119 0.0
H1381 H 0.71519 0.5217 0.41194 0.0
H1382 H 0.6587 0.5626 0.42978 0.0
H1383 H 0.70564 0.61528 0.42931 0.0
H1384 H 0.67717 0.4902 0.44288 0.0
H1385 H 0.60729 0.50682 0.38377 0.0
H1386 H 0.64861 0.53455 0.38773 0.0
H1387 H 0.61931 0.53537 0.40362 0.0
C1388 C 0.73976 0.57198 0.41567 0.0
C1389 C 0.73771 0.59891 0.42054 0.0
C1390 C 0.71287 0.542 0.41569 0.0
C1391 C 0.68329 0.53818 0.42058 0.0
C1392 C 0.68111 0.56499 0.42547 0.0
H1393 H 0.49828 0.37745 0.44207 0.0
H1394 H 0.54514 0.42963 0.4387 0.0
C1395 C 0.70802 0.5951 0.42531 0.0
C1396 C 0.65515 0.50596 0.42145 0.0
H1397 H 0.58051 0.45979 0.40317 0.0
C1398 C 0.65613 0.4835 0.43407 0.0
C1399 C 0.62768 0.49718 0.40996 0.0
C1400 C 0.62567 0.51964 0.39536 0.0
C1401 C 0.63023 0.45278 0.43583 0.0
C1402 C 0.6027 0.44415 0.4245 0.0
C1403 C 0.60169 0.4665 0.41183 0.0
C1404 C 0.57432 0.41231 0.4261 0.0
C1405 C 0.63222 0.43003 0.45017 0.0
C1406 C 0.57506 0.38523 0.41989 0.0
C1407 C 0.54828 0.35525 0.42186 0.0
C1408 C 0.52031 0.35185 0.43014 0.0
C1409 C 0.5196 0.37915 0.43601 0.0
C1410 C 0.54628 0.40903 0.43395 0.0
H1411 H 0.65231 0.44222 0.46075 0.0
H1412 H 0.61009 0.41698 0.45895 0.0
H1413 H 0.63555 0.41251 0.44151 0.0
H1414 H 0.59637 0.38729 0.41353 0.0
H1415 H 0.54961 0.33473 0.41722 0.0
H1416 H 0.95291 0.34206 0.15641 0.0
H1417 H 0.9492 0.39001 0.16004 0.0
H1418 H 0.84807 0.33314 0.16488 0.0
H1419 H 0.85144 0.28541 0.1616 0.0
H1420 H 0.91724 0.41007 0.13518 0.0
H1421 H 0.86957 0.39264 0.21237 0.0
H1422 H 0.88711 0.37063 0.20243 0.0
H1423 H 0.84695 0.35913 0.19645 0.0
C1424 C 0.92992 0.33975 0.15849 0.0
C1425 C 0.90251 0.30979 0.15875 0.0
C1426 C 0.92784 0.36718 0.16053 0.0
C1427 C 0.89839 0.36515 0.16306 0.0
C1428 C 0.8711 0.33531 0.16343 0.0
H1429 H 0.81981 0.48855 0.16209 0.0
H1430 H 0.82989 0.44431 0.16362 0.0
C1431 C 0.87312 0.30798 0.16139 0.0
C1432 C 0.89574 0.39408 0.16416 0.0
H1433 H 0.86525 0.4309 0.19237 0.0
C1434 C 0.90626 0.41487 0.1478 0.0
C1435 C 0.88127 0.40024 0.18061 0.0
C1436 C 0.87085 0.37965 0.19905 0.0
C1437 C 0.90172 0.44103 0.14711 0.0
C1438 C 0.88666 0.4468 0.16336 0.0
C1439 C 0.87664 0.42634 0.17989 0.0
C1440 C 0.8807 0.47371 0.16331 0.0
C1441 C 0.91209 0.46167 0.12868 0.0
C1442 C 0.90591 0.50489 0.16304 0.0
C1443 C 0.90024 0.53017 0.16211 0.0
C1444 C 0.8692 0.52481 0.16151 0.0
C1445 C 0.84397 0.49351 0.1623 0.0
C1446 C 0.84969 0.46822 0.16328 0.0
H1447 H 0.91662 0.45005 0.11579 0.0
H1448 H 0.89402 0.46785 0.1242 0.0
H1449 H 0.93426 0.48393 0.13204 0.0
H1450 H 0.93002 0.50968 0.16334 0.0
H1451 H 0.92025 0.5539 0.16128 0.0
H1452 H 0.42432 0.09454 0.4295 0.0
H1453 H 0.47656 0.09939 0.427 0.0
H1454 H 0.51896 0.19997 0.41912 0.0
H1455 H 0.46724 0.19549 0.42147 0.0
H1456 H 0.53974 0.16949 0.39121 0.0
H1457 H 0.54662 0.13891 0.4707 0.0
H1458 H 0.51198 0.11149 0.45698 0.0
H1459 H 0.51872 0.15035 0.46234 0.0
C1460 C 0.44477 0.11768 0.42727 0.0
C1461 C 0.44155 0.14462 0.4258 0.0
C1462 C 0.47459 0.12042 0.4259 0.0
C1463 C 0.50161 0.15009 0.42304 0.0
C1464 C 0.4984 0.17688 0.42135 0.0
H1465 H 0.69913 0.21803 0.44165 0.0
H1466 H 0.64522 0.20875 0.4408 0.0
C1467 C 0.46875 0.17422 0.42278 0.0
C1468 C 0.53341 0.15359 0.42183 0.0
H1469 H 0.58952 0.14924 0.44973 0.0
C1470 C 0.5506 0.16488 0.40394 0.0
C1471 C 0.54755 0.14787 0.43856 0.0
C1472 C 0.53048 0.1367 0.45832 0.0
C1473 C 0.58168 0.17075 0.40236 0.0
C1474 C 0.59578 0.16499 0.41907 0.0
C1475 C 0.57854 0.15353 0.43692 0.0
C1476 C 0.62876 0.17155 0.41859 0.0
C1477 C 0.59951 0.18387 0.38303 0.0
C1478 C 0.63739 0.15385 0.40625 0.0
C1479 C 0.66816 0.15895 0.40679 0.0
C1480 C 0.69083 0.18181 0.41972 0.0
C1481 C 0.68219 0.19999 0.4317 0.0
C1482 C 0.65143 0.19479 0.4312 0.0
H1483 H 0.58756 0.19275 0.37302 0.0
H1484 H 0.62382 0.2034 0.3861 0.0
H1485 H 0.60133 0.16499 0.37495 0.0
H1486 H 0.62011 0.13549 0.39663 0.0
H1487 H 0.67381 0.14415 0.39762 0.0
H1488 H 0.52906 0.3527 0.18409 0.0
H1489 H 0.57414 0.40649 0.1859 0.0
H1490 H 0.56534 0.41849 0.12264 0.0
H1491 H 0.52029 0.36488 0.1207 0.0
H1492 H 0.62642 0.4395 0.13379 0.0
H1493 H 0.5718 0.48866 0.18452 0.0
H1494 H 0.57139 0.45424 0.19422 0.0
H1495 H 0.54919 0.45109 0.17201 0.0
C1496 C 0.5366 0.36685 0.17058 0.0
C1497 C 0.52099 0.35442 0.15225 0.0
C1498 C 0.56231 0.39765 0.17166 0.0
C1499 C 0.57278 0.41675 0.15448 0.0
C1500 C 0.55762 0.40424 0.13611 0.0
H1501 H 0.70353 0.62005 0.14767 0.0
H1502 H 0.65645 0.56732 0.14792 0.0
C1503 C 0.53198 0.37347 0.135 0.0
C1504 C 0.59999 0.44953 0.15546 0.0
H1505 H 0.62662 0.52139 0.17793 0.0
C1506 C 0.62642 0.45741 0.14341 0.0
C1507 C 0.5998 0.47305 0.16779 0.0
C1508 C 0.57142 0.46652 0.18023 0.0
C1509 C 0.65286 0.48794 0.1436 0.0
C1510 C 0.65317 0.51115 0.15648 0.0
C1511 C 0.6265 0.50349 0.16824 0.0
C1512 C 0.68107 0.54342 0.15789 0.0
C1513 C 0.68005 0.49519 0.12974 0.0
C1514 C 0.71029 0.54762 0.16407 0.0
C1515 C 0.73716 0.5776 0.1639 0.0
C1516 C 0.73539 0.60417 0.15772 0.0
C1517 C 0.70577 0.60014 0.15249 0.0
C1518 C 0.67884 0.57001 0.1526 0.0
H1519 H 0.67272 0.47797 0.11718 0.0
H1520 H 0.69027 0.51931 0.12337 0.0
H1521 H 0.69878 0.4939 0.1383 0.0
H1522 H 0.71244 0.52757 0.16869 0.0
H1523 H 0.75947 0.57978 0.16825 0.0
H1524 H 0.92122 0.55116 0.41363 0.0
H1525 H 0.9287 0.50547 0.41118 0.0
H1526 H 0.82916 0.44325 0.42072 0.0
H1527 H 0.82132 0.48888 0.42277 0.0
H1528 H 0.91398 0.45859 0.44087 0.0
H1529 H 0.84846 0.40699 0.37007 0.0
H1530 H 0.86158 0.44719 0.37757 0.0
H1531 H 0.82702 0.41512 0.38877 0.0
C1532 C 0.90079 0.52775 0.41488 0.0
C1533 C 0.87059 0.52369 0.41823 0.0
C1534 C 0.90517 0.50167 0.41362 0.0
C1535 C 0.87946 0.47096 0.41551 0.0
C1536 C 0.84927 0.46674 0.41889 0.0
H1537 H 0.84895 0.28219 0.41812 0.0
H1538 H 0.84587 0.33026 0.41691 0.0
C1539 C 0.84487 0.49285 0.42024 0.0
C1540 C 0.88443 0.44343 0.41464 0.0
H1541 H 0.86429 0.37583 0.3885 0.0
C1542 C 0.90333 0.44058 0.42935 0.0
C1543 C 0.87051 0.42002 0.39958 0.0
C1544 C 0.85097 0.42249 0.38297 0.0
C1545 C 0.90786 0.41439 0.4298 0.0
C1546 C 0.89369 0.39078 0.41484 0.0
C1547 C 0.87519 0.39394 0.39994 0.0
C1548 C 0.89628 0.36175 0.41498 0.0
C1549 C 0.92679 0.41171 0.44674 0.0
C1550 C 0.9257 0.36331 0.41394 0.0
C1551 C 0.92763 0.33569 0.41476 0.0
C1552 C 0.90013 0.30597 0.41642 0.0
C1553 C 0.87071 0.30457 0.41689 0.0
C1554 C 0.86884 0.3321 0.41617 0.0
H1555 H 0.92932 0.42745 0.4595 0.0
H1556 H 0.91568 0.38707 0.45232 0.0
H1557 H 0.95078 0.41864 0.44123 0.0
H1558 H 0.94717 0.38589 0.41254 0.0
H1559 H 0.95065 0.33767 0.41422 0.0
H1560 H 0.23091 0.69338 0.64857 0.0
H1561 H 0.22278 0.63969 0.64973 0.0
H1562 H 0.12501 0.60326 0.66486 0.0
H1563 H 0.13272 0.6566 0.66337 0.0
H1564 H 0.19848 0.59494 0.68312 0.0
H1565 H 0.12326 0.55108 0.61492 0.0
H1566 H 0.14816 0.59263 0.62023 0.0
H1567 H 0.11163 0.57002 0.63345 0.0
C1568 C 0.20766 0.67392 0.65205 0.0
C1569 C 0.18248 0.67931 0.65587 0.0
C1570 C 0.20309 0.6433 0.6528 0.0
C1571 C 0.17321 0.61749 0.65716 0.0
C1572 C 0.14816 0.62281 0.66123 0.0
H1573 H 0.10285 0.41383 0.65752 0.0
H1574 H 0.10714 0.46584 0.66027 0.0
C1575 C 0.15272 0.65338 0.66058 0.0
C1576 C 0.16826 0.58499 0.6575 0.0
H1577 H 0.13044 0.51394 0.63323 0.0
C1578 C 0.18362 0.5772 0.67223 0.0
C1579 C 0.14861 0.56185 0.64338 0.0
C1580 C 0.13209 0.56922 0.62698 0.0
C1581 C 0.17981 0.5468 0.67326 0.0
C1582 C 0.16075 0.5238 0.65884 0.0
C1583 C 0.14501 0.53152 0.64429 0.0
C1584 C 0.15805 0.49216 0.65797 0.0
C1585 C 0.1959 0.53951 0.68999 0.0
C1586 C 0.18515 0.48964 0.65557 0.0
C1587 C 0.18281 0.46006 0.65412 0.0
C1588 C 0.15322 0.4322 0.65475 0.0
C1589 C 0.12601 0.43474 0.65703 0.0
C1590 C 0.12842 0.46446 0.65859 0.0
H1591 H 0.20061 0.55539 0.70307 0.0
H1592 H 0.18146 0.51468 0.69509 0.0
H1593 H 0.2189 0.54317 0.68455 0.0
H1594 H 0.20819 0.51061 0.65447 0.0
H1595 H 0.20432 0.45918 0.65218 0.0
H1596 H 0.29323 0.84943 0.90659 0.0
H1597 H 0.341 0.84568 0.90435 0.0
H1598 H 0.39575 0.94006 0.92795 0.0
H1599 H 0.34794 0.94419 0.93024 0.0
H1600 H 0.40275 0.88887 0.88406 0.0
H1601 H 0.40923 0.87935 0.96693 0.0
H1602 H 0.37343 0.87161 0.95433 0.0
H1603 H 0.40493 0.91147 0.95757 0.0
C1604 C 0.31542 0.86956 0.91119 0.0
C1605 C 0.31668 0.89707 0.91875 0.0
C1606 C 0.34272 0.86735 0.90982 0.0
C1607 C 0.37179 0.89245 0.91615 0.0
C1608 C 0.37343 0.92034 0.92313 0.0
H1609 H 0.55209 0.90498 0.93782 0.0
H1610 H 0.50808 0.91481 0.93469 0.0
C1611 C 0.34611 0.92269 0.92436 0.0
C1612 C 0.40001 0.88873 0.91627 0.0
H1613 H 0.44919 0.87871 0.94773 0.0
C1614 C 0.41305 0.88674 0.89795 0.0
C1615 C 0.41321 0.88586 0.93442 0.0
C1616 C 0.39949 0.88695 0.95449 0.0
C1617 C 0.43935 0.88242 0.89731 0.0
C1618 C 0.45237 0.87915 0.91549 0.0
C1619 C 0.43925 0.88121 0.9338 0.0
C1620 C 0.47978 0.87392 0.91606 0.0
C1621 C 0.45332 0.88209 0.87719 0.0
C1622 C 0.47869 0.84769 0.90655 0.0
C1623 C 0.50402 0.84212 0.90823 0.0
C1624 C 0.53061 0.86235 0.91975 0.0
C1625 C 0.53174 0.88872 0.92906 0.0
C1626 C 0.50664 0.89443 0.92723 0.0
H1627 H 0.44676 0.89393 0.8655 0.0
H1628 H 0.47943 0.89394 0.87799 0.0
H1629 H 0.44416 0.85727 0.87241 0.0
H1630 H 0.45794 0.83108 0.89825 0.0
H1631 H 0.5024 0.82147 0.90105 0.0
H1632 H 0.58787 0.7514 0.66888 0.0
H1633 H 0.53609 0.70416 0.67162 0.0
H1634 H 0.5738 0.64796 0.64756 0.0
H1635 H 0.6261 0.69519 0.64524 0.0
H1636 H 0.50053 0.66768 0.64164 0.0
H1637 H 0.52386 0.59445 0.69445 0.0
H1638 H 0.55144 0.63587 0.69065 0.0
H1639 H 0.54955 0.607 0.67307 0.0
C1640 C 0.58533 0.72896 0.66438 0.0
C1641 C 0.61119 0.7271 0.65682 0.0
C1642 C 0.55564 0.70193 0.66597 0.0
C1643 C 0.55101 0.67239 0.66001 0.0
C1644 C 0.57688 0.67033 0.65272 0.0
H1645 H 0.38815 0.49045 0.63651 0.0
H1646 H 0.44071 0.53663 0.64039 0.0
C1647 C 0.60677 0.6974 0.6513 0.0
C1648 C 0.51869 0.64435 0.66015 0.0
H1649 H 0.47463 0.56852 0.67704 0.0
C1650 C 0.49483 0.64612 0.64956 0.0
C1651 C 0.51121 0.61619 0.67047 0.0
C1652 C 0.53529 0.61329 0.68297 0.0
C1653 C 0.46396 0.62035 0.64863 0.0
C1654 C 0.45664 0.59208 0.65868 0.0
C1655 C 0.48035 0.59028 0.66938 0.0
C1656 C 0.4248 0.56369 0.65742 0.0
C1657 C 0.43959 0.6232 0.63642 0.0
C1658 C 0.39847 0.5634 0.66603 0.0
C1659 C 0.36829 0.53698 0.66382 0.0
C1660 C 0.36398 0.51052 0.65286 0.0
C1661 C 0.3906 0.51068 0.64473 0.0
C1662 C 0.42068 0.53694 0.64705 0.0
H1663 H 0.45037 0.64445 0.62667 0.0
H1664 H 0.42607 0.60197 0.62686 0.0
H1665 H 0.42269 0.62496 0.64669 0.0
H1666 H 0.40124 0.58373 0.67428 0.0
H1667 H 0.34827 0.53757 0.67024 0.0
H1668 H 0.2302 0.69231 0.92954 0.0
H1669 H 0.21881 0.63782 0.92605 0.0
H1670 H 0.13509 0.61468 0.89211 0.0
H1671 H 0.14595 0.66899 0.89581 0.0
H1672 H 0.16209 0.58378 0.93999 0.0
H1673 H 0.18095 0.57831 0.85812 0.0
H1674 H 0.19671 0.61518 0.87164 0.0
H1675 H 0.15563 0.59351 0.86522 0.0
C1676 C 0.20943 0.6757 0.92125 0.0
C1677 C 0.18897 0.68506 0.91299 0.0
C1678 C 0.20302 0.6446 0.91922 0.0
C1679 C 0.17622 0.62229 0.90874 0.0
C1680 C 0.15617 0.63166 0.9 0.0
H1681 H 0.09853 0.41761 0.92088 0.0
H1682 H 0.10284 0.46966 0.91839 0.0
C1683 C 0.1625 0.66277 0.90207 0.0
C1684 C 0.16842 0.58886 0.90799 0.0
H1685 H 0.16184 0.53082 0.87639 0.0
C1686 C 0.16188 0.57211 0.92608 0.0
C1687 C 0.16827 0.57383 0.88983 0.0
C1688 C 0.17597 0.59109 0.87007 0.0
C1689 C 0.15549 0.54077 0.92654 0.0
C1690 C 0.15532 0.5257 0.90837 0.0
C1691 C 0.16164 0.54237 0.89025 0.0
C1692 C 0.15127 0.49358 0.90816 0.0
C1693 C 0.15 0.52435 0.94651 0.0
C1694 C 0.1767 0.48965 0.90262 0.0
C1695 C 0.17434 0.46009 0.904 0.0
C1696 C 0.14637 0.4337 0.91085 0.0
C1697 C 0.12042 0.43742 0.9156 0.0
C1698 C 0.12288 0.46715 0.91428 0.0
H1699 H 0.1565 0.54107 0.9593 0.0
H1700 H 0.12466 0.50636 0.94796 0.0
H1701 H 0.16382 0.51206 0.94757 0.0
H1702 H 0.19878 0.50972 0.8978 0.0
H1703 H 0.19475 0.45812 0.90006 0.0
H1704 H 0.34646 0.93831 0.6502 0.0
H1705 H 0.39402 0.93363 0.65173 0.0
H1706 H 0.33673 0.83412 0.66399 0.0
H1707 H 0.28931 0.83843 0.66257 0.0
H1708 H 0.39143 0.86803 0.68954 0.0
H1709 H 0.41891 0.88855 0.60803 0.0
H1710 H 0.41304 0.91741 0.62112 0.0
H1711 H 0.38061 0.87796 0.61807 0.0
C1712 C 0.344 0.91545 0.65325 0.0
C1713 C 0.31404 0.88873 0.65616 0.0
C1714 C 0.37117 0.91281 0.65406 0.0
C1715 C 0.3688 0.88347 0.65782 0.0
C1716 C 0.33903 0.85695 0.66105 0.0
H1717 H 0.49471 0.81188 0.63677 0.0
H1718 H 0.45046 0.8216 0.63919 0.0
C1719 C 0.31193 0.8595 0.66016 0.0
C1720 C 0.39713 0.87997 0.65817 0.0
H1721 H 0.45367 0.88023 0.62806 0.0
C1722 C 0.40522 0.87091 0.67616 0.0
C1723 C 0.41476 0.88341 0.64061 0.0
C1724 C 0.40641 0.89215 0.62079 0.0
C1725 C 0.43049 0.86503 0.67702 0.0
C1726 C 0.4481 0.86846 0.65945 0.0
C1727 C 0.44012 0.87771 0.64151 0.0
C1728 C 0.47434 0.86164 0.65916 0.0
C1729 C 0.43764 0.85436 0.69653 0.0
C1730 C 0.50231 0.88078 0.66975 0.0
C1731 C 0.52775 0.87542 0.6683 0.0
C1732 C 0.52569 0.85085 0.65618 0.0
C1733 C 0.49725 0.83123 0.64603 0.0
C1734 C 0.47191 0.83668 0.64744 0.0
H1735 H 0.41827 0.84713 0.70761 0.0
H1736 H 0.44172 0.83425 0.69397 0.0
H1737 H 0.45947 0.87405 0.7031 0.0
H1738 H 0.50479 0.90043 0.67866 0.0
H1739 H 0.54944 0.89131 0.67605 0.0
H1740 H 0.58291 0.75119 0.9101 0.0
H1741 H 0.53206 0.7032 0.90685 0.0
H1742 H 0.57804 0.64767 0.90539 0.0
H1743 H 0.62947 0.69585 0.90911 0.0
H1744 H 0.50802 0.65786 0.87754 0.0
H1745 H 0.51403 0.60589 0.95035 0.0
H1746 H 0.54129 0.64641 0.94381 0.0
H1747 H 0.54601 0.61511 0.9334 0.0
C1748 C 0.58244 0.72886 0.90908 0.0
C1749 C 0.61044 0.72747 0.91004 0.0
C1750 C 0.5532 0.70138 0.90717 0.0
C1751 C 0.55113 0.67178 0.90619 0.0
C1752 C 0.57901 0.67022 0.90656 0.0
H1753 H 0.38206 0.48464 0.90477 0.0
H1754 H 0.43634 0.52826 0.9019 0.0
C1755 C 0.60842 0.69781 0.90854 0.0
C1756 C 0.51957 0.64283 0.90501 0.0
H1757 H 0.46867 0.57598 0.93062 0.0
C1758 C 0.49947 0.63988 0.8891 0.0
C1759 C 0.5084 0.61938 0.92011 0.0
C1760 C 0.52838 0.62184 0.93799 0.0
C1761 C 0.46848 0.6143 0.88797 0.0
C1762 C 0.45714 0.59125 0.90327 0.0
C1763 C 0.47744 0.59373 0.91891 0.0
C1764 C 0.42399 0.56488 0.90373 0.0
C1765 C 0.44815 0.61213 0.87037 0.0
C1766 C 0.39898 0.57098 0.90571 0.0
C1767 C 0.36786 0.54608 0.90727 0.0
C1768 C 0.36115 0.51455 0.90692 0.0
C1769 C 0.38629 0.50858 0.90473 0.0
C1770 C 0.41738 0.53349 0.90324 0.0
H1771 H 0.46258 0.62649 0.85749 0.0
H1772 H 0.43326 0.58728 0.86536 0.0
H1773 H 0.43234 0.62119 0.87493 0.0
H1774 H 0.40358 0.59504 0.90647 0.0
H1775 H 0.34908 0.55151 0.90888 0.0
loop_
_geom_bond_atom_site_label_1
_geom_bond_atom_site_label_2
_geom_bond_distance
_geom_bond_site_symmetry_2
_ccdc_geom_bond_type
Tb0 C2 2.809 . S
Tb0 O20 2.484 . S
Tb0 O21 2.440 . S
Tb0 O22 2.658 . S
Tb0 O23 2.409 . S
Tb0 O24 2.378 . S
Tb0 O28 2.325 . S
Tb0 O31 2.341 . S
Tb1 C11 2.809 . S
Tb1 O22 2.325 . S
Tb1 O25 2.341 . S
Tb1 O26 2.484 . S
Tb1 O27 2.440 . S
Tb1 O28 2.658 . S
Tb1 O29 2.409 . S
Tb1 O30 2.378 . S
C2 Tb0 2.809 . S
C2 C3 1.514 . S
C2 O20 1.248 . S
C2 O21 1.266 . S
C3 C2 1.514 . S
C3 C4 1.359 . S
C3 C8 1.348 . S
C4 C3 1.359 . S
C4 C5 1.380 . S
C4 H32 0.929 . S
C5 C4 1.380 . S
C5 C6 1.347 . S
C5 H33 0.931 . S
C6 C5 1.347 . S
C6 C7 1.369 . S
C7 C6 1.369 . S
C7 C8 1.408 . S
C7 H34 0.930 . S
C8 C3 1.348 . S
C8 C7 1.408 . S
C8 H35 0.930 . S
C9 O22 1.281 . S
C9 O23 1.254 . S
C10 O24 1.236 . S
C10 O25 1.266 . S
C11 Tb1 2.809 . S
C11 C12 1.514 . S
C11 O26 1.248 . S
C11 O27 1.266 . S
C12 C11 1.514 . S
C12 C13 1.359 . S
C12 C17 1.348 . S
C13 C12 1.359 . S
C13 C14 1.380 1_545 S
C13 H36 0.929 . S
C14 C13 1.380 1_565 S
C14 C15 1.347 . S
C14 H37 0.931 . S
C15 C14 1.347 . S
C15 C16 1.369 . S
C16 C15 1.369 . S
C16 C17 1.408 1_565 S
C16 H38 0.930 . S
C17 C12 1.348 . S
C17 C16 1.408 1_545 S
C17 H39 0.930 . S
C18 O28 1.281 . S
C18 O29 1.254 . S
C19 O30 1.236 . S
C19 O31 1.266 . S
O20 Tb0 2.484 . S
O20 C2 1.248 . S
O21 Tb0 2.440 . S
O21 C2 1.266 . S
O22 Tb0 2.658 . S
O22 Tb1 2.325 . S
O22 C9 1.281 . S
O23 Tb0 2.409 . S
O23 C9 1.254 . S
O24 Tb0 2.378 . S
O24 C10 1.236 . S
O25 Tb1 2.341 . S
O25 C10 1.266 . S
O26 Tb1 2.484 . S
O26 C11 1.248 . S
O27 Tb1 2.440 . S
O27 C11 1.266 . S
O28 Tb0 2.325 . S
O28 Tb1 2.658 . S
O28 C18 1.281 . S
O29 Tb1 2.409 . S
O29 C18 1.254 . S
O30 Tb1 2.378 . S
O30 C19 1.236 . S
O31 Tb0 2.341 . S
O31 C19 1.266 . S
H32 C4 0.929 . S
H33 C5 0.931 . S
H34 C7 0.930 . S
H35 C8 0.930 . S
H36 C13 0.929 . S
H37 C14 0.931 . S
H38 C16 0.930 . S
H39 C17 0.930 . S
Tb40 C42 2.809 . S
Tb40 O60 2.484 . S
Tb40 O61 2.440 . S
Tb40 O62 2.658 . S
Tb40 O63 2.409 . S
Tb40 O64 2.378 . S
Tb40 O68 2.325 . S
Tb40 O71 2.341 . S
Tb41 C51 2.809 . S
Tb41 O62 2.325 . S
Tb41 O65 2.341 . S
Tb41 O66 2.484 . S
Tb41 O67 2.440 . S
Tb41 O68 2.658 . S
Tb41 O69 2.409 . S
Tb41 O70 2.378 . S
C42 Tb40 2.809 . S
C42 C43 1.514 . S
C42 O60 1.248 . S
C42 O61 1.266 . S
C43 C42 1.514 . S
C43 C44 1.359 . S
C43 C48 1.348 . S
C44 C43 1.359 . S
C44 C45 1.380 . S
C44 H72 0.929 . S
C45 C44 1.380 . S
C45 C46 1.347 . S
C45 H73 0.931 . S
C46 C45 1.347 . S
C46 C47 1.369 . S
C47 C46 1.369 . S
C47 C48 1.408 . S
C47 H74 0.930 . S
C48 C43 1.348 . S
C48 C47 1.408 . S
C48 H75 0.930 . S
C49 O62 1.281 . S
C49 O63 1.254 . S
C50 O64 1.236 . S
C50 O65 1.266 . S
C51 Tb41 2.809 . S
C51 C52 1.514 . S
C51 O66 1.248 . S
C51 O67 1.266 . S
C52 C51 1.514 . S
C52 C53 1.359 . S
C52 C57 1.348 . S
C53 C52 1.359 . S
C53 C54 1.380 . S
C53 H76 0.929 . S
C54 C53 1.380 . S
C54 C55 1.347 . S
C54 H77 0.931 . S
C55 C54 1.347 . S
C55 C56 1.369 . S
C56 C55 1.369 . S
C56 C57 1.408 . S
C56 H78 0.930 . S
C57 C52 1.348 . S
C57 C56 1.408 . S
C57 H79 0.930 . S
C58 O68 1.281 . S
C58 O69 1.254 . S
C59 O70 1.236 . S
C59 O71 1.266 . S
O60 Tb40 2.484 . S
O60 C42 1.248 . S
O61 Tb40 2.440 . S
O61 C42 1.266 . S
O62 Tb40 2.658 . S
O62 Tb41 2.325 . S
O62 C49 1.281 . S
O63 Tb40 2.409 . S
O63 C49 1.254 . S
O64 Tb40 2.378 . S
O64 C50 1.236 . S
O65 Tb41 2.341 . S
O65 C50 1.266 . S
O66 Tb41 2.484 . S
O66 C51 1.248 . S
O67 Tb41 2.440 . S
O67 C51 1.266 . S
O68 Tb40 2.325 . S
O68 Tb41 2.658 . S
O68 C58 1.281 . S
O69 Tb41 2.409 . S
O69 C58 1.254 . S
O70 Tb41 2.378 . S
O70 C59 1.236 . S
O71 Tb40 2.341 . S
O71 C59 1.266 . S
H72 C44 0.929 . S
H73 C45 0.931 . S
H74 C47 0.930 . S
H75 C48 0.930 . S
H76 C53 0.929 . S
H77 C54 0.931 . S
H78 C56 0.930 . S
H79 C57 0.930 . S
Tb80 C82 2.809 . S
Tb80 O100 2.484 . S
Tb80 O101 2.440 . S
Tb80 O102 2.658 . S
Tb80 O103 2.409 . S
Tb80 O104 2.378 . S
Tb80 O108 2.325 . S
Tb80 O111 2.341 . S
Tb81 C91 2.809 . S
Tb81 O102 2.325 . S
Tb81 O105 2.341 . S
Tb81 O106 2.484 . S
Tb81 O107 2.440 . S
Tb81 O108 2.658 . S
Tb81 O109 2.409 . S
Tb81 O110 2.378 . S
C82 Tb80 2.809 . S
C82 C83 1.514 . S
C82 O100 1.248 . S
C82 O101 1.266 . S
C83 C82 1.514 . S
C83 C84 1.359 . S
C83 C88 1.348 . S
C84 C83 1.359 . S
C84 C85 1.380 . S
C84 H112 0.929 . S
C85 C84 1.380 . S
C85 C86 1.347 . S
C85 H113 0.931 . S
C86 C85 1.347 . S
C86 C87 1.369 . S
C87 C86 1.369 . S
C87 C88 1.408 . S
C87 H114 0.930 . S
C88 C83 1.348 . S
C88 C87 1.408 . S
C88 H115 0.930 . S
C89 O102 1.281 . S
C89 O103 1.254 . S
C90 O104 1.236 . S
C90 O105 1.266 . S
C91 Tb81 2.809 . S
C91 C92 1.514 . S
C91 O106 1.248 . S
C91 O107 1.266 . S
C92 C91 1.514 . S
C92 C93 1.359 . S
C92 C97 1.348 . S
C93 C92 1.359 . S
C93 C94 1.380 1_655 S
C93 H116 0.929 . S
C94 C93 1.380 1_455 S
C94 C95 1.347 . S
C94 H117 0.931 . S
C95 C94 1.347 . S
C95 C96 1.369 . S
C96 C95 1.369 . S
C96 C97 1.408 1_455 S
C96 H118 0.930 . S
C97 C92 1.348 . S
C97 C96 1.408 1_655 S
C97 H119 0.930 . S
C98 O108 1.281 . S
C98 O109 1.254 . S
C99 O110 1.236 . S
C99 O111 1.266 . S
O100 Tb80 2.484 . S
O100 C82 1.248 . S
O101 Tb80 2.440 . S
O101 C82 1.266 . S
O102 Tb80 2.658 . S
O102 Tb81 2.325 . S
O102 C89 1.281 . S
O103 Tb80 2.409 . S
O103 C89 1.254 . S
O104 Tb80 2.378 . S
O104 C90 1.236 . S
O105 Tb81 2.341 . S
O105 C90 1.266 . S
O106 Tb81 2.484 . S
O106 C91 1.248 . S
O107 Tb81 2.440 . S
O107 C91 1.266 . S
O108 Tb80 2.325 . S
O108 Tb81 2.658 . S
O108 C98 1.281 . S
O109 Tb81 2.409 . S
O109 C98 1.254 . S
O110 Tb81 2.378 . S
O110 C99 1.236 . S
O111 Tb80 2.341 . S
O111 C99 1.266 . S
H112 C84 0.929 . S
H113 C85 0.931 . S
H114 C87 0.930 . S
H115 C88 0.930 . S
H116 C93 0.929 . S
H117 C94 0.931 . S
H118 C96 0.930 . S
H119 C97 0.930 . S
Tb120 C122 2.809 . S
Tb120 O140 2.484 . S
Tb120 O141 2.440 . S
Tb120 O142 2.658 . S
Tb120 O143 2.409 . S
Tb120 O144 2.378 . S
Tb120 O148 2.325 . S
Tb120 O151 2.341 . S
Tb121 C131 2.809 . S
Tb121 O142 2.325 . S
Tb121 O145 2.341 . S
Tb121 O146 2.484 . S
Tb121 O147 2.440 . S
Tb121 O148 2.658 . S
Tb121 O149 2.409 . S
Tb121 O150 2.378 . S
C122 Tb120 2.809 . S
C122 C123 1.514 . S
C122 O140 1.248 . S
C122 O141 1.266 . S
C123 C122 1.514 . S
C123 C124 1.359 . S
C123 C128 1.348 . S
C124 C123 1.359 . S
C124 C125 1.380 1_545 S
C124 H152 0.929 . S
C125 C124 1.380 1_565 S
C125 C126 1.347 . S
C125 H153 0.931 . S
C126 C125 1.347 . S
C126 C127 1.369 . S
C127 C126 1.369 . S
C127 C128 1.408 1_565 S
C127 H154 0.930 . S
C128 C123 1.348 . S
C128 C127 1.408 1_545 S
C128 H155 0.930 . S
C129 O142 1.281 . S
C129 O143 1.254 . S
C130 O144 1.236 . S
C130 O145 1.266 . S
C131 Tb121 2.809 . S
C131 C132 1.514 . S
C131 O146 1.248 . S
C131 O147 1.266 . S
C132 C131 1.514 . S
C132 C133 1.359 . S
C132 C137 1.348 . S
C133 C132 1.359 . S
C133 C134 1.380 . S
C133 H156 0.929 . S
C134 C133 1.380 . S
C134 C135 1.347 . S
C134 H157 0.931 . S
C135 C134 1.347 . S
C135 C136 1.369 . S
C136 C135 1.369 . S
C136 C137 1.408 . S
C136 H158 0.930 . S
C137 C132 1.348 . S
C137 C136 1.408 . S
C137 H159 0.930 . S
C138 O148 1.281 . S
C138 O149 1.254 . S
C139 O150 1.236 . S
C139 O151 1.266 . S
O140 Tb120 2.484 . S
O140 C122 1.248 . S
O141 Tb120 2.440 . S
O141 C122 1.266 . S
O142 Tb120 2.658 . S
O142 Tb121 2.325 . S
O142 C129 1.281 . S
O143 Tb120 2.409 . S
O143 C129 1.254 . S
O144 Tb120 2.378 . S
O144 C130 1.236 . S
O145 Tb121 2.341 . S
O145 C130 1.266 . S
O146 Tb121 2.484 . S
O146 C131 1.248 . S
O147 Tb121 2.440 . S
O147 C131 1.266 . S
O148 Tb120 2.325 . S
O148 Tb121 2.658 . S
O148 C138 1.281 . S
O149 Tb121 2.409 . S
O149 C138 1.254 . S
O150 Tb121 2.378 . S
O150 C139 1.236 . S
O151 Tb120 2.341 . S
O151 C139 1.266 . S
H152 C124 0.929 . S
H153 C125 0.931 . S
H154 C127 0.930 . S
H155 C128 0.930 . S
H156 C133 0.929 . S
H157 C134 0.931 . S
H158 C136 0.930 . S
H159 C137 0.930 . S
Tb160 C162 2.809 . S
Tb160 O180 2.484 . S
Tb160 O181 2.440 . S
Tb160 O182 2.658 . S
Tb160 O183 2.409 . S
Tb160 O184 2.378 . S
Tb160 O188 2.325 . S
Tb160 O191 2.341 . S
Tb161 C171 2.809 . S
Tb161 O182 2.325 . S
Tb161 O185 2.341 . S
Tb161 O186 2.484 . S
Tb161 O187 2.440 . S
Tb161 O188 2.658 . S
Tb161 O189 2.409 . S
Tb161 O190 2.378 . S
C162 Tb160 2.809 . S
C162 C163 1.514 . S
C162 O180 1.248 . S
C162 O181 1.266 . S
C163 C162 1.514 . S
C163 C164 1.359 . S
C163 C168 1.348 . S
C164 C163 1.359 . S
C164 C165 1.380 . S
C164 H192 0.929 . S
C165 C164 1.380 . S
C165 C166 1.347 . S
C165 H193 0.931 . S
C166 C165 1.347 . S
C166 C167 1.369 . S
C167 C166 1.369 . S
C167 C168 1.408 . S
C167 H194 0.930 . S
C168 C163 1.348 . S
C168 C167 1.408 . S
C168 H195 0.930 . S
C169 O182 1.281 . S
C169 O183 1.254 . S
C170 O184 1.236 . S
C170 O185 1.266 . S
C171 Tb161 2.809 . S
C171 C172 1.514 . S
C171 O186 1.248 . S
C171 O187 1.266 . S
C172 C171 1.514 . S
C172 C173 1.359 . S
C172 C177 1.348 . S
C173 C172 1.359 . S
C173 C174 1.380 . S
C173 H196 0.929 . S
C174 C173 1.380 . S
C174 C175 1.347 . S
C174 H197 0.931 . S
C175 C174 1.347 . S
C175 C176 1.369 . S
C176 C175 1.369 . S
C176 C177 1.408 . S
C176 H198 0.930 . S
C177 C172 1.348 . S
C177 C176 1.408 . S
C177 H199 0.930 . S
C178 O188 1.281 . S
C178 O189 1.254 . S
C179 O190 1.236 . S
C179 O191 1.266 . S
O180 Tb160 2.484 . S
O180 C162 1.248 . S
O181 Tb160 2.440 . S
O181 C162 1.266 . S
O182 Tb160 2.658 . S
O182 Tb161 2.325 . S
O182 C169 1.281 . S
O183 Tb160 2.409 . S
O183 C169 1.254 . S
O184 Tb160 2.378 . S
O184 C170 1.236 . S
O185 Tb161 2.341 . S
O185 C170 1.266 . S
O186 Tb161 2.484 . S
O186 C171 1.248 . S
O187 Tb161 2.440 . S
O187 C171 1.266 . S
O188 Tb160 2.325 . S
O188 Tb161 2.658 . S
O188 C178 1.281 . S
O189 Tb161 2.409 . S
O189 C178 1.254 . S
O190 Tb161 2.378 . S
O190 C179 1.236 . S
O191 Tb160 2.341 . S
O191 C179 1.266 . S
H192 C164 0.929 . S
H193 C165 0.931 . S
H194 C167 0.930 . S
H195 C168 0.930 . S
H196 C173 0.929 . S
H197 C174 0.931 . S
H198 C176 0.930 . S
H199 C177 0.930 . S
Tb200 C202 2.809 . S
Tb200 O220 2.484 . S
Tb200 O221 2.440 . S
Tb200 O222 2.658 . S
Tb200 O223 2.409 . S
Tb200 O224 2.378 . S
Tb200 O228 2.325 . S
Tb200 O231 2.341 . S
Tb201 C211 2.809 . S
Tb201 O222 2.325 . S
Tb201 O225 2.341 . S
Tb201 O226 2.484 . S
Tb201 O227 2.440 . S
Tb201 O228 2.658 . S
Tb201 O229 2.409 . S
Tb201 O230 2.378 . S
C202 Tb200 2.809 . S
C202 C203 1.514 . S
C202 O220 1.248 . S
C202 O221 1.266 . S
C203 C202 1.514 . S
C203 C204 1.359 . S
C203 C208 1.348 . S
C204 C203 1.359 . S
C204 C205 1.380 1_655 S
C204 H232 0.929 . S
C205 C204 1.380 1_455 S
C205 C206 1.347 . S
C205 H233 0.931 . S
C206 C205 1.347 . S
C206 C207 1.369 . S
C207 C206 1.369 . S
C207 C208 1.408 1_455 S
C207 H234 0.930 . S
C208 C203 1.348 . S
C208 C207 1.408 1_655 S
C208 H235 0.930 . S
C209 O222 1.281 . S
C209 O223 1.254 . S
C210 O224 1.236 . S
C210 O225 1.266 . S
C211 Tb201 2.809 . S
C211 C212 1.514 . S
C211 O226 1.248 . S
C211 O227 1.266 . S
C212 C211 1.514 . S
C212 C213 1.359 . S
C212 C217 1.348 . S
C213 C212 1.359 . S
C213 C214 1.380 . S
C213 H236 0.929 . S
C214 C213 1.380 . S
C214 C215 1.347 . S
C214 H237 0.931 . S
C215 C214 1.347 . S
C215 C216 1.369 . S
C216 C215 1.369 . S
C216 C217 1.408 . S
C216 H238 0.930 . S
C217 C212 1.348 . S
C217 C216 1.408 . S
C217 H239 0.930 . S
C218 O228 1.281 . S
C218 O229 1.254 . S
C219 O230 1.236 . S
C219 O231 1.266 . S
O220 Tb200 2.484 . S
O220 C202 1.248 . S
O221 Tb200 2.440 . S
O221 C202 1.266 . S
O222 Tb200 2.658 . S
O222 Tb201 2.325 . S
O222 C209 1.281 . S
O223 Tb200 2.409 . S
O223 C209 1.254 . S
O224 Tb200 2.378 . S
O224 C210 1.236 . S
O225 Tb201 2.341 . S
O225 C210 1.266 . S
O226 Tb201 2.484 . S
O226 C211 1.248 . S
O227 Tb201 2.440 . S
O227 C211 1.266 . S
O228 Tb200 2.325 . S
O228 Tb201 2.658 . S
O228 C218 1.281 . S
O229 Tb201 2.409 . S
O229 C218 1.254 . S
O230 Tb201 2.378 . S
O230 C219 1.236 . S
O231 Tb200 2.341 . S
O231 C219 1.266 . S
H232 C204 0.929 . S
H233 C205 0.931 . S
H234 C207 0.930 . S
H235 C208 0.930 . S
H236 C213 0.929 . S
H237 C214 0.931 . S
H238 C216 0.930 . S
H239 C217 0.930 . S
Tb240 C242 2.809 . S
Tb240 O260 2.484 . S
Tb240 O261 2.440 . S
Tb240 O262 2.658 . S
Tb240 O263 2.409 . S
Tb240 O264 2.378 . S
Tb240 O268 2.325 . S
Tb240 O271 2.341 . S
Tb241 C251 2.809 . S
Tb241 O262 2.325 . S
Tb241 O265 2.341 . S
Tb241 O266 2.484 . S
Tb241 O267 2.440 . S
Tb241 O268 2.658 . S
Tb241 O269 2.409 . S
Tb241 O270 2.378 . S
C242 Tb240 2.809 . S
C242 C243 1.514 . S
C242 O260 1.248 . S
C242 O261 1.266 . S
C243 C242 1.514 . S
C243 C244 1.359 . S
C243 C248 1.348 . S
C244 C243 1.359 . S
C244 C245 1.380 1_455 S
C244 H272 0.929 . S
C245 C244 1.380 1_655 S
C245 C246 1.347 . S
C245 H273 0.931 . S
C246 C245 1.347 . S
C246 C247 1.369 . S
C247 C246 1.369 . S
C247 C248 1.408 1_655 S
C247 H274 0.930 . S
C248 C243 1.348 . S
C248 C247 1.408 1_455 S
C248 H275 0.930 . S
C249 O262 1.281 . S
C249 O263 1.254 . S
C250 O264 1.236 . S
C250 O265 1.266 . S
C251 Tb241 2.809 . S
C251 C252 1.514 . S
C251 O266 1.248 . S
C251 O267 1.266 . S
C252 C251 1.514 . S
C252 C253 1.359 . S
C252 C257 1.348 . S
C253 C252 1.359 . S
C253 C254 1.380 . S
C253 H276 0.929 . S
C254 C253 1.380 . S
C254 C255 1.347 . S
C254 H277 0.931 . S
C255 C254 1.347 . S
C255 C256 1.369 . S
C256 C255 1.369 . S
C256 C257 1.408 . S
C256 H278 0.930 . S
C257 C252 1.348 . S
C257 C256 1.408 . S
C257 H279 0.930 . S
C258 O268 1.281 . S
C258 O269 1.254 . S
C259 O270 1.236 . S
C259 O271 1.266 . S
O260 Tb240 2.484 . S
O260 C242 1.248 . S
O261 Tb240 2.440 . S
O261 C242 1.266 . S
O262 Tb240 2.658 . S
O262 Tb241 2.325 . S
O262 C249 1.281 . S
O263 Tb240 2.409 . S
O263 C249 1.254 . S
O264 Tb240 2.378 . S
O264 C250 1.236 . S
O265 Tb241 2.341 . S
O265 C250 1.266 . S
O266 Tb241 2.484 . S
O266 C251 1.248 . S
O267 Tb241 2.440 . S
O267 C251 1.266 . S
O268 Tb240 2.325 . S
O268 Tb241 2.658 . S
O268 C258 1.281 . S
O269 Tb241 2.409 . S
O269 C258 1.254 . S
O270 Tb241 2.378 . S
O270 C259 1.236 . S
O271 Tb240 2.341 . S
O271 C259 1.266 . S
H272 C244 0.929 . S
H273 C245 0.931 . S
H274 C247 0.930 . S
H275 C248 0.930 . S
H276 C253 0.929 . S
H277 C254 0.931 . S
H278 C256 0.930 . S
H279 C257 0.930 . S
Tb280 C282 2.809 . S
Tb280 O300 2.484 . S
Tb280 O301 2.440 . S
Tb280 O302 2.658 . S
Tb280 O303 2.409 . S
Tb280 O304 2.378 . S
Tb280 O308 2.325 . S
Tb280 O311 2.341 . S
Tb281 C291 2.809 . S
Tb281 O302 2.325 . S
Tb281 O305 2.341 . S
Tb281 O306 2.484 . S
Tb281 O307 2.440 . S
Tb281 O308 2.658 . S
Tb281 O309 2.409 . S
Tb281 O310 2.378 . S
C282 Tb280 2.809 . S
C282 C283 1.514 . S
C282 O300 1.248 . S
C282 O301 1.266 . S
C283 C282 1.514 . S
C283 C284 1.359 . S
C283 C288 1.348 . S
C284 C283 1.359 . S
C284 C285 1.380 . S
C284 H312 0.929 . S
C285 C284 1.380 . S
C285 C286 1.347 . S
C285 H313 0.931 . S
C286 C285 1.347 . S
C286 C287 1.369 . S
C287 C286 1.369 . S
C287 C288 1.408 . S
C287 H314 0.930 . S
C288 C283 1.348 . S
C288 C287 1.408 . S
C288 H315 0.930 . S
C289 O302 1.281 . S
C289 O303 1.254 . S
C290 O304 1.236 . S
C290 O305 1.266 . S
C291 Tb281 2.809 . S
C291 C292 1.514 . S
C291 O306 1.248 . S
C291 O307 1.266 . S
C292 C291 1.514 . S
C292 C293 1.359 . S
C292 C297 1.348 . S
C293 C292 1.359 . S
C293 C294 1.380 1_565 S
C293 H316 0.929 . S
C294 C293 1.380 1_545 S
C294 C295 1.347 . S
C294 H317 0.931 . S
C295 C294 1.347 . S
C295 C296 1.369 . S
C296 C295 1.369 . S
C296 C297 1.408 1_545 S
C296 H318 0.930 . S
C297 C292 1.348 . S
C297 C296 1.408 1_565 S
C297 H319 0.930 . S
C298 O308 1.281 . S
C298 O309 1.254 . S
C299 O310 1.236 . S
C299 O311 1.266 . S
O300 Tb280 2.484 . S
O300 C282 1.248 . S
O301 Tb280 2.440 . S
O301 C282 1.266 . S
O302 Tb280 2.658 . S
O302 Tb281 2.325 . S
O302 C289 1.281 . S
O303 Tb280 2.409 . S
O303 C289 1.254 . S
O304 Tb280 2.378 . S
O304 C290 1.236 . S
O305 Tb281 2.341 . S
O305 C290 1.266 . S
O306 Tb281 2.484 . S
O306 C291 1.248 . S
O307 Tb281 2.440 . S
O307 C291 1.266 . S
O308 Tb280 2.325 . S
O308 Tb281 2.658 . S
O308 C298 1.281 . S
O309 Tb281 2.409 . S
O309 C298 1.254 . S
O310 Tb281 2.378 . S
O310 C299 1.236 . S
O311 Tb280 2.341 . S
O311 C299 1.266 . S
H312 C284 0.929 . S
H313 C285 0.931 . S
H314 C287 0.930 . S
H315 C288 0.930 . S
H316 C293 0.929 . S
H317 C294 0.931 . S
H318 C296 0.930 . S
H319 C297 0.930 . S
Tb320 C322 2.809 . S
Tb320 O340 2.484 . S
Tb320 O341 2.440 . S
Tb320 O342 2.658 . S
Tb320 O343 2.409 . S
Tb320 O344 2.378 . S
Tb320 O348 2.325 . S
Tb320 O351 2.341 . S
Tb321 C331 2.809 . S
Tb321 O342 2.325 . S
Tb321 O345 2.341 . S
Tb321 O346 2.484 . S
Tb321 O347 2.440 . S
Tb321 O348 2.658 . S
Tb321 O349 2.409 . S
Tb321 O350 2.378 . S
C322 Tb320 2.809 . S
C322 C323 1.514 . S
C322 O340 1.248 . S
C322 O341 1.266 . S
C323 C322 1.514 . S
C323 C324 1.359 . S
C323 C328 1.348 . S
C324 C323 1.359 . S
C324 C325 1.380 . S
C324 H352 0.929 . S
C325 C324 1.380 . S
C325 C326 1.347 . S
C325 H353 0.931 . S
C326 C325 1.347 . S
C326 C327 1.369 . S
C327 C326 1.369 . S
C327 C328 1.408 . S
C327 H354 0.930 . S
C328 C323 1.348 . S
C328 C327 1.408 . S
C328 H355 0.930 . S
C329 O342 1.281 . S
C329 O343 1.254 . S
C330 O344 1.236 . S
C330 O345 1.266 . S
C331 Tb321 2.809 . S
C331 C332 1.514 . S
C331 O346 1.248 . S
C331 O347 1.266 . S
C332 C331 1.514 . S
C332 C333 1.359 . S
C332 C337 1.348 . S
C333 C332 1.359 . S
C333 C334 1.380 . S
C333 H356 0.929 . S
C334 C333 1.380 . S
C334 C335 1.347 . S
C334 H357 0.931 . S
C335 C334 1.347 . S
C335 C336 1.369 . S
C336 C335 1.369 . S
C336 C337 1.408 . S
C336 H358 0.930 . S
C337 C332 1.348 . S
C337 C336 1.408 . S
C337 H359 0.930 . S
C338 O348 1.281 . S
C338 O349 1.254 . S
C339 O350 1.236 . S
C339 O351 1.266 . S
O340 Tb320 2.484 . S
O340 C322 1.248 . S
O341 Tb320 2.440 . S
O341 C322 1.266 . S
O342 Tb320 2.658 . S
O342 Tb321 2.325 . S
O342 C329 1.281 . S
O343 Tb320 2.409 . S
O343 C329 1.254 . S
O344 Tb320 2.378 . S
O344 C330 1.236 . S
O345 Tb321 2.341 . S
O345 C330 1.266 . S
O346 Tb321 2.484 . S
O346 C331 1.248 . S
O347 Tb321 2.440 . S
O347 C331 1.266 . S
O348 Tb320 2.325 . S
O348 Tb321 2.658 . S
O348 C338 1.281 . S
O349 Tb321 2.409 . S
O349 C338 1.254 . S
O350 Tb321 2.378 . S
O350 C339 1.236 . S
O351 Tb320 2.341 . S
O351 C339 1.266 . S
H352 C324 0.929 . S
H353 C325 0.931 . S
H354 C327 0.930 . S
H355 C328 0.930 . S
H356 C333 0.929 . S
H357 C334 0.931 . S
H358 C336 0.930 . S
H359 C337 0.930 . S
Tb360 C362 2.809 . S
Tb360 O380 2.484 . S
Tb360 O381 2.440 . S
Tb360 O382 2.658 . S
Tb360 O383 2.409 . S
Tb360 O384 2.378 . S
Tb360 O388 2.325 . S
Tb360 O391 2.341 . S
Tb361 C371 2.809 . S
Tb361 O382 2.325 . S
Tb361 O385 2.341 . S
Tb361 O386 2.484 . S
Tb361 O387 2.440 . S
Tb361 O388 2.658 . S
Tb361 O389 2.409 . S
Tb361 O390 2.378 . S
C362 Tb360 2.809 . S
C362 C363 1.514 . S
C362 O380 1.248 . S
C362 O381 1.266 . S
C363 C362 1.514 . S
C363 C364 1.359 . S
C363 C368 1.348 . S
C364 C363 1.359 . S
C364 C365 1.380 . S
C364 H392 0.929 . S
C365 C364 1.380 . S
C365 C366 1.347 . S
C365 H393 0.931 . S
C366 C365 1.347 . S
C366 C367 1.369 . S
C367 C366 1.369 . S
C367 C368 1.408 . S
C367 H394 0.930 . S
C368 C363 1.348 . S
C368 C367 1.408 . S
C368 H395 0.930 . S
C369 O382 1.281 . S
C369 O383 1.254 . S
C370 O384 1.236 . S
C370 O385 1.266 . S
C371 Tb361 2.809 . S
C371 C372 1.514 . S
C371 O386 1.248 . S
C371 O387 1.266 . S
C372 C371 1.514 . S
C372 C373 1.359 . S
C372 C377 1.348 . S
C373 C372 1.359 . S
C373 C374 1.380 1_455 S
C373 H396 0.929 . S
C374 C373 1.380 1_655 S
C374 C375 1.347 . S
C374 H397 0.931 . S
C375 C374 1.347 . S
C375 C376 1.369 . S
C376 C375 1.369 . S
C376 C377 1.408 1_655 S
C376 H398 0.930 . S
C377 C372 1.348 . S
C377 C376 1.408 1_455 S
C377 H399 0.930 . S
C378 O388 1.281 . S
C378 O389 1.254 . S
C379 O390 1.236 . S
C379 O391 1.266 . S
O380 Tb360 2.484 . S
O380 C362 1.248 . S
O381 Tb360 2.440 . S
O381 C362 1.266 . S
O382 Tb360 2.658 . S
O382 Tb361 2.325 . S
O382 C369 1.281 . S
O383 Tb360 2.409 . S
O383 C369 1.254 . S
O384 Tb360 2.378 . S
O384 C370 1.236 . S
O385 Tb361 2.341 . S
O385 C370 1.266 . S
O386 Tb361 2.484 . S
O386 C371 1.248 . S
O387 Tb361 2.440 . S
O387 C371 1.266 . S
O388 Tb360 2.325 . S
O388 Tb361 2.658 . S
O388 C378 1.281 . S
O389 Tb361 2.409 . S
O389 C378 1.254 . S
O390 Tb361 2.378 . S
O390 C379 1.236 . S
O391 Tb360 2.341 . S
O391 C379 1.266 . S
H392 C364 0.929 . S
H393 C365 0.931 . S
H394 C367 0.930 . S
H395 C368 0.930 . S
H396 C373 0.929 . S
H397 C374 0.931 . S
H398 C376 0.930 . S
H399 C377 0.930 . S
Tb400 C402 2.809 . S
Tb400 O420 2.484 . S
Tb400 O421 2.440 . S
Tb400 O422 2.658 . S
Tb400 O423 2.409 . S
Tb400 O424 2.378 . S
Tb400 O428 2.325 . S
Tb400 O431 2.341 . S
Tb401 C411 2.809 . S
Tb401 O422 2.325 . S
Tb401 O425 2.341 . S
Tb401 O426 2.484 . S
Tb401 O427 2.440 . S
Tb401 O428 2.658 . S
Tb401 O429 2.409 . S
Tb401 O430 2.378 . S
C402 Tb400 2.809 . S
C402 C403 1.514 . S
C402 O420 1.248 . S
C402 O421 1.266 . S
C403 C402 1.514 . S
C403 C404 1.359 . S
C403 C408 1.348 . S
C404 C403 1.359 . S
C404 C405 1.380 1_565 S
C404 H432 0.929 . S
C405 C404 1.380 1_545 S
C405 C406 1.347 . S
C405 H433 0.931 . S
C406 C405 1.347 . S
C406 C407 1.369 . S
C407 C406 1.369 . S
C407 C408 1.408 1_545 S
C407 H434 0.930 . S
C408 C403 1.348 . S
C408 C407 1.408 1_565 S
C408 H435 0.930 . S
C409 O422 1.281 . S
C409 O423 1.254 . S
C410 O424 1.236 . S
C410 O425 1.266 . S
C411 Tb401 2.809 . S
C411 C412 1.514 . S
C411 O426 1.248 . S
C411 O427 1.266 . S
C412 C411 1.514 . S
C412 C413 1.359 . S
C412 C417 1.348 . S
C413 C412 1.359 . S
C413 C414 1.380 . S
C413 H436 0.929 . S
C414 C413 1.380 . S
C414 C415 1.347 . S
C414 H437 0.931 . S
C415 C414 1.347 . S
C415 C416 1.369 . S
C416 C415 1.369 . S
C416 C417 1.408 . S
C416 H438 0.930 . S
C417 C412 1.348 . S
C417 C416 1.408 . S
C417 H439 0.930 . S
C418 O428 1.281 . S
C418 O429 1.254 . S
C419 O430 1.236 . S
C419 O431 1.266 . S
O420 Tb400 2.484 . S
O420 C402 1.248 . S
O421 Tb400 2.440 . S
O421 C402 1.266 . S
O422 Tb400 2.658 . S
O422 Tb401 2.325 . S
O422 C409 1.281 . S
O423 Tb400 2.409 . S
O423 C409 1.254 . S
O424 Tb400 2.378 . S
O424 C410 1.236 . S
O425 Tb401 2.341 . S
O425 C410 1.266 . S
O426 Tb401 2.484 . S
O426 C411 1.248 . S
O427 Tb401 2.440 . S
O427 C411 1.266 . S
O428 Tb400 2.325 . S
O428 Tb401 2.658 . S
O428 C418 1.281 . S
O429 Tb401 2.409 . S
O429 C418 1.254 . S
O430 Tb401 2.378 . S
O430 C419 1.236 . S
O431 Tb400 2.341 . S
O431 C419 1.266 . S
H432 C404 0.929 . S
H433 C405 0.931 . S
H434 C407 0.930 . S
H435 C408 0.930 . S
H436 C413 0.929 . S
H437 C414 0.931 . S
H438 C416 0.930 . S
H439 C417 0.930 . S
Tb440 C442 2.809 . S
Tb440 O460 2.484 . S
Tb440 O461 2.440 . S
Tb440 O462 2.658 . S
Tb440 O463 2.409 . S
Tb440 O464 2.378 . S
Tb440 O468 2.325 . S
Tb440 O471 2.341 . S
Tb441 C451 2.809 . S
Tb441 O462 2.325 . S
Tb441 O465 2.341 . S
Tb441 O466 2.484 . S
Tb441 O467 2.440 . S
Tb441 O468 2.658 . S
Tb441 O469 2.409 . S
Tb441 O470 2.378 . S
C442 Tb440 2.809 . S
C442 C443 1.514 . S
C442 O460 1.248 . S
C442 O461 1.266 . S
C443 C442 1.514 . S
C443 C444 1.359 . S
C443 C448 1.348 . S
C444 C443 1.359 . S
C444 C445 1.380 . S
C444 H472 0.929 . S
C445 C444 1.380 . S
C445 C446 1.347 . S
C445 H473 0.931 . S
C446 C445 1.347 . S
C446 C447 1.369 . S
C447 C446 1.369 . S
C447 C448 1.408 . S
C447 H474 0.930 . S
C448 C443 1.348 . S
C448 C447 1.408 . S
C448 H475 0.930 . S
C449 O462 1.281 . S
C449 O463 1.254 . S
C450 O464 1.236 . S
C450 O465 1.266 . S
C451 Tb441 2.809 . S
C451 C452 1.514 . S
C451 O466 1.248 . S
C451 O467 1.266 . S
C452 C451 1.514 . S
C452 C453 1.359 . S
C452 C457 1.348 . S
C453 C452 1.359 . S
C453 C454 1.380 . S
C453 H476 0.929 . S
C454 C453 1.380 . S
C454 C455 1.347 . S
C454 H477 0.931 . S
C455 C454 1.347 . S
C455 C456 1.369 . S
C456 C455 1.369 . S
C456 C457 1.408 . S
C456 H478 0.930 . S
C457 C452 1.348 . S
C457 C456 1.408 . S
C457 H479 0.930 . S
C458 O468 1.281 . S
C458 O469 1.254 . S
C459 O470 1.236 . S
C459 O471 1.266 . S
O460 Tb440 2.484 . S
O460 C442 1.248 . S
O461 Tb440 2.440 . S
O461 C442 1.266 . S
O462 Tb440 2.658 . S
O462 Tb441 2.325 . S
O462 C449 1.281 . S
O463 Tb440 2.409 . S
O463 C449 1.254 . S
O464 Tb440 2.378 . S
O464 C450 1.236 . S
O465 Tb441 2.341 . S
O465 C450 1.266 . S
O466 Tb441 2.484 . S
O466 C451 1.248 . S
O467 Tb441 2.440 . S
O467 C451 1.266 . S
O468 Tb440 2.325 . S
O468 Tb441 2.658 . S
O468 C458 1.281 . S
O469 Tb441 2.409 . S
O469 C458 1.254 . S
O470 Tb441 2.378 . S
O470 C459 1.236 . S
O471 Tb440 2.341 . S
O471 C459 1.266 . S
H472 C444 0.929 . S
H473 C445 0.931 . S
H474 C447 0.930 . S
H475 C448 0.930 . S
H476 C453 0.929 . S
H477 C454 0.931 . S
H478 C456 0.930 . S
H479 C457 0.930 . S
H480 C488 0.929 . S
H481 C490 0.930 . S
H482 C492 0.930 . S
H483 C495 0.929 . S
H484 C498 0.930 . S
H485 C500 0.960 . S
H486 C500 0.960 . S
H487 C500 0.960 . S
C488 H480 0.929 . S
C488 C489 1.377 . S
C488 C490 1.384 . S
C489 C488 1.377 . S
C489 C495 1.390 . S
C490 H481 0.930 . S
C490 C488 1.384 . S
C490 C491 1.372 . S
C491 C490 1.372 . S
C491 C492 1.400 . S
C491 C496 1.490 . S
C492 H482 0.930 . S
C492 C491 1.400 . S
C492 C495 1.386 . S
H493 C509 0.930 . S
H494 C510 0.931 . S
C495 H483 0.929 . S
C495 C489 1.390 . S
C495 C492 1.386 . S
C496 C491 1.490 . S
C496 C498 1.395 . S
C496 C499 1.403 . S
H497 C503 0.930 . S
C498 H484 0.930 . S
C498 C496 1.395 . S
C498 C501 1.403 . S
C499 C496 1.403 . S
C499 C500 1.524 . S
C499 C503 1.400 . S
C500 H485 0.960 . S
C500 H486 0.960 . S
C500 H487 0.960 . S
C500 C499 1.524 . S
C501 C498 1.403 . S
C501 C502 1.392 . S
C501 C505 1.495 . S
C502 C501 1.392 . S
C502 C503 1.385 . S
C502 C504 1.478 . S
C503 H497 0.930 . S
C503 C499 1.400 . S
C503 C502 1.385 . S
C504 C502 1.478 . S
C504 C506 1.381 . S
C504 C510 1.383 . S
C505 C501 1.495 . S
C505 H511 0.959 . S
C505 H512 0.961 . S
C505 H513 0.960 . S
C506 C504 1.381 . S
C506 C507 1.394 . S
C506 H514 0.930 . S
C507 C506 1.394 . S
C507 C508 1.383 . S
C507 H515 0.929 . S
C508 C507 1.383 . S
C508 C509 1.377 . S
C509 H493 0.930 . S
C509 C508 1.377 . S
C509 C510 1.379 . S
C510 H494 0.931 . S
C510 C504 1.383 . S
C510 C509 1.379 . S
H511 C505 0.959 . S
H512 C505 0.961 . S
H513 C505 0.960 . S
H514 C506 0.930 . S
H515 C507 0.929 . S
H516 C524 0.929 . S
H517 C526 0.930 . S
H518 C528 0.930 . S
H519 C531 0.929 . S
H520 C534 0.930 . S
H521 C536 0.960 1_655 S
H522 C536 0.960 . S
H523 C536 0.960 . S
C524 H516 0.929 . S
C524 C525 1.377 . S
C524 C526 1.384 . S
C525 C524 1.377 . S
C525 C531 1.390 . S
C526 H517 0.930 . S
C526 C524 1.384 . S
C526 C527 1.372 . S
C527 C526 1.372 . S
C527 C528 1.400 . S
C527 C532 1.490 . S
C528 H518 0.930 . S
C528 C527 1.400 . S
C528 C531 1.386 . S
H529 C545 0.930 . S
H530 C546 0.931 . S
C531 H519 0.929 . S
C531 C525 1.390 . S
C531 C528 1.386 . S
C532 C527 1.490 . S
C532 C534 1.395 . S
C532 C535 1.403 . S
H533 C539 0.930 . S
C534 H520 0.930 . S
C534 C532 1.395 . S
C534 C537 1.403 . S
C535 C532 1.403 . S
C535 C536 1.524 . S
C535 C539 1.400 1_455 S
C536 H521 0.960 1_455 S
C536 H522 0.960 . S
C536 H523 0.960 . S
C536 C535 1.524 . S
C537 C534 1.403 . S
C537 C538 1.392 1_455 S
C537 C541 1.495 . S
C538 C537 1.392 1_655 S
C538 C539 1.385 . S
C538 C540 1.478 . S
C539 H533 0.930 . S
C539 C535 1.400 1_655 S
C539 C538 1.385 . S
C540 C538 1.478 . S
C540 C542 1.381 . S
C540 C546 1.383 . S
C541 C537 1.495 . S
C541 H547 0.959 . S
C541 H548 0.961 1_455 S
C541 H549 0.960 1_455 S
C542 C540 1.381 . S
C542 C543 1.394 . S
C542 H550 0.930 . S
C543 C542 1.394 . S
C543 C544 1.383 . S
C543 H551 0.929 . S
C544 C543 1.383 . S
C544 C545 1.377 . S
C545 H529 0.930 . S
C545 C544 1.377 . S
C545 C546 1.379 . S
C546 H530 0.931 . S
C546 C540 1.383 . S
C546 C545 1.379 . S
H547 C541 0.959 . S
H548 C541 0.961 1_655 S
H549 C541 0.960 1_655 S
H550 C542 0.930 . S
H551 C543 0.929 . S
H552 C560 0.929 . S
H553 C562 0.930 . S
H554 C564 0.930 . S
H555 C567 0.929 . S
H556 C570 0.930 . S
H557 C572 0.960 . S
H558 C572 0.960 . S
H559 C572 0.960 . S
C560 H552 0.929 . S
C560 C561 1.377 . S
C560 C562 1.384 . S
C561 C560 1.377 . S
C561 C567 1.390 . S
C562 H553 0.930 . S
C562 C560 1.384 . S
C562 C563 1.372 . S
C563 C562 1.372 . S
C563 C564 1.400 . S
C563 C568 1.490 . S
C564 H554 0.930 . S
C564 C563 1.400 . S
C564 C567 1.386 . S
H565 C581 0.930 . S
H566 C582 0.931 . S
C567 H555 0.929 . S
C567 C561 1.390 . S
C567 C564 1.386 . S
C568 C563 1.490 . S
C568 C570 1.395 . S
C568 C571 1.403 . S
H569 C575 0.930 . S
C570 H556 0.930 . S
C570 C568 1.395 . S
C570 C573 1.403 1_545 S
C571 C568 1.403 . S
C571 C572 1.524 . S
C571 C575 1.400 1_545 S
C572 H557 0.960 . S
C572 H558 0.960 . S
C572 H559 0.960 . S
C572 C571 1.524 . S
C573 C570 1.403 1_565 S
C573 C574 1.392 . S
C573 C577 1.495 . S
C574 C573 1.392 . S
C574 C575 1.385 . S
C574 C576 1.478 . S
C575 H569 0.930 . S
C575 C571 1.400 1_565 S
C575 C574 1.385 . S
C576 C574 1.478 . S
C576 C578 1.381 . S
C576 C582 1.383 . S
C577 C573 1.495 . S
C577 H583 0.959 . S
C577 H584 0.961 . S
C577 H585 0.960 . S
C578 C576 1.381 . S
C578 C579 1.394 . S
C578 H586 0.930 . S
C579 C578 1.394 . S
C579 C580 1.383 . S
C579 H587 0.929 . S
C580 C579 1.383 . S
C580 C581 1.377 . S
C581 H565 0.930 . S
C581 C580 1.377 . S
C581 C582 1.379 . S
C582 H566 0.931 . S
C582 C576 1.383 . S
C582 C581 1.379 . S
H583 C577 0.959 . S
H584 C577 0.961 . S
H585 C577 0.960 . S
H586 C578 0.930 . S
H587 C579 0.929 . S
H588 C596 0.929 . S
H589 C598 0.930 . S
H590 C600 0.930 . S
H591 C603 0.929 . S
H592 C606 0.930 . S
H593 C608 0.960 . S
H594 C608 0.960 . S
H595 C608 0.960 . S
C596 H588 0.929 . S
C596 C597 1.377 . S
C596 C598 1.384 . S
C597 C596 1.377 . S
C597 C603 1.390 . S
C598 H589 0.930 . S
C598 C596 1.384 . S
C598 C599 1.372 . S
C599 C598 1.372 . S
C599 C600 1.400 . S
C599 C604 1.490 . S
C600 H590 0.930 . S
C600 C599 1.400 . S
C600 C603 1.386 . S
H601 C617 0.930 . S
H602 C618 0.931 . S
C603 H591 0.929 . S
C603 C597 1.390 . S
C603 C600 1.386 . S
C604 C599 1.490 . S
C604 C606 1.395 . S
C604 C607 1.403 . S
H605 C611 0.930 . S
C606 H592 0.930 . S
C606 C604 1.395 . S
C606 C609 1.403 . S
C607 C604 1.403 . S
C607 C608 1.524 . S
C607 C611 1.400 . S
C608 H593 0.960 . S
C608 H594 0.960 . S
C608 H595 0.960 . S
C608 C607 1.524 . S
C609 C606 1.403 . S
C609 C610 1.392 . S
C609 C613 1.495 . S
C610 C609 1.392 . S
C610 C611 1.385 . S
C610 C612 1.478 . S
C611 H605 0.930 . S
C611 C607 1.400 . S
C611 C610 1.385 . S
C612 C610 1.478 . S
C612 C614 1.381 . S
C612 C618 1.383 . S
C613 C609 1.495 . S
C613 H619 0.959 . S
C613 H620 0.961 . S
C613 H621 0.960 . S
C614 C612 1.381 . S
C614 C615 1.394 . S
C614 H622 0.930 . S
C615 C614 1.394 . S
C615 C616 1.383 . S
C615 H623 0.929 . S
C616 C615 1.383 . S
C616 C617 1.377 . S
C617 H601 0.930 . S
C617 C616 1.377 . S
C617 C618 1.379 . S
C618 H602 0.931 . S
C618 C612 1.383 . S
C618 C617 1.379 . S
H619 C613 0.959 . S
H620 C613 0.961 . S
H621 C613 0.960 . S
H622 C614 0.930 . S
H623 C615 0.929 . S
H624 C632 0.929 . S
H625 C634 0.930 . S
H626 C636 0.930 . S
H627 C639 0.929 . S
H628 C642 0.930 . S
H629 C644 0.960 . S
H630 C644 0.960 . S
H631 C644 0.960 . S
C632 H624 0.929 . S
C632 C633 1.377 . S
C632 C634 1.384 . S
C633 C632 1.377 . S
C633 C639 1.390 . S
C634 H625 0.930 . S
C634 C632 1.384 . S
C634 C635 1.372 . S
C635 C634 1.372 . S
C635 C636 1.400 . S
C635 C640 1.490 . S
C636 H626 0.930 . S
C636 C635 1.400 . S
C636 C639 1.386 . S
H637 C653 0.930 . S
H638 C654 0.931 . S
C639 H627 0.929 . S
C639 C633 1.390 . S
C639 C636 1.386 . S
C640 C635 1.490 . S
C640 C642 1.395 . S
C640 C643 1.403 . S
H641 C647 0.930 . S
C642 H628 0.930 . S
C642 C640 1.395 . S
C642 C645 1.403 1_455 S
C643 C640 1.403 . S
C643 C644 1.524 . S
C643 C647 1.400 1_455 S
C644 H629 0.960 . S
C644 H630 0.960 . S
C644 H631 0.960 . S
C644 C643 1.524 . S
C645 C642 1.403 1_655 S
C645 C646 1.392 . S
C645 C649 1.495 . S
C646 C645 1.392 . S
C646 C647 1.385 . S
C646 C648 1.478 . S
C647 H641 0.930 . S
C647 C643 1.400 1_655 S
C647 C646 1.385 . S
C648 C646 1.478 . S
C648 C650 1.381 . S
C648 C654 1.383 . S
C649 C645 1.495 . S
C649 H655 0.959 . S
C649 H656 0.961 . S
C649 H657 0.960 . S
C650 C648 1.381 . S
C650 C651 1.394 . S
C650 H658 0.930 . S
C651 C650 1.394 . S
C651 C652 1.383 . S
C651 H659 0.929 . S
C652 C651 1.383 . S
C652 C653 1.377 . S
C653 H637 0.930 . S
C653 C652 1.377 . S
C653 C654 1.379 . S
C654 H638 0.931 . S
C654 C648 1.383 . S
C654 C653 1.379 . S
H655 C649 0.959 . S
H656 C649 0.961 . S
H657 C649 0.960 . S
H658 C650 0.930 . S
H659 C651 0.929 . S
H660 C668 0.929 . S
H661 C670 0.930 . S
H662 C672 0.930 . S
H663 C675 0.929 . S
H664 C678 0.930 . S
H665 C680 0.960 . S
H666 C680 0.960 . S
H667 C680 0.960 . S
C668 H660 0.929 . S
C668 C669 1.377 . S
C668 C670 1.384 . S
C669 C668 1.377 . S
C669 C675 1.390 . S
C670 H661 0.930 . S
C670 C668 1.384 . S
C670 C671 1.372 . S
C671 C670 1.372 . S
C671 C672 1.400 . S
C671 C676 1.490 . S
C672 H662 0.930 . S
C672 C671 1.400 . S
C672 C675 1.386 . S
H673 C689 0.930 . S
H674 C690 0.931 . S
C675 H663 0.929 . S
C675 C669 1.390 . S
C675 C672 1.386 . S
C676 C671 1.490 . S
C676 C678 1.395 . S
C676 C679 1.403 . S
H677 C683 0.930 . S
C678 H664 0.930 . S
C678 C676 1.395 . S
C678 C681 1.403 1_565 S
C679 C676 1.403 . S
C679 C680 1.524 . S
C679 C683 1.400 1_565 S
C680 H665 0.960 . S
C680 H666 0.960 . S
C680 H667 0.960 . S
C680 C679 1.524 . S
C681 C678 1.403 1_545 S
C681 C682 1.392 . S
C681 C685 1.495 . S
C682 C681 1.392 . S
C682 C683 1.385 . S
C682 C684 1.478 . S
C683 H677 0.930 . S
C683 C679 1.400 1_545 S
C683 C682 1.385 . S
C684 C682 1.478 . S
C684 C686 1.381 . S
C684 C690 1.383 . S
C685 C681 1.495 . S
C685 H691 0.959 . S
C685 H692 0.961 . S
C685 H693 0.960 . S
C686 C684 1.381 . S
C686 C687 1.394 . S
C686 H694 0.930 . S
C687 C686 1.394 . S
C687 C688 1.383 . S
C687 H695 0.929 . S
C688 C687 1.383 . S
C688 C689 1.377 . S
C689 H673 0.930 . S
C689 C688 1.377 . S
C689 C690 1.379 . S
C690 H674 0.931 . S
C690 C684 1.383 . S
C690 C689 1.379 . S
H691 C685 0.959 . S
H692 C685 0.961 . S
H693 C685 0.960 . S
H694 C686 0.930 . S
H695 C687 0.929 . S
H696 C704 0.929 . S
H697 C706 0.930 . S
H698 C708 0.930 . S
H699 C711 0.929 . S
H700 C714 0.930 . S
H701 C716 0.960 . S
H702 C716 0.960 . S
H703 C716 0.960 . S
C704 H696 0.929 . S
C704 C705 1.377 . S
C704 C706 1.384 . S
C705 C704 1.377 . S
C705 C711 1.390 . S
C706 H697 0.930 . S
C706 C704 1.384 . S
C706 C707 1.372 . S
C707 C706 1.372 . S
C707 C708 1.400 . S
C707 C712 1.490 . S
C708 H698 0.930 . S
C708 C707 1.400 . S
C708 C711 1.386 . S
H709 C725 0.930 . S
H710 C726 0.931 . S
C711 H699 0.929 . S
C711 C705 1.390 . S
C711 C708 1.386 . S
C712 C707 1.490 . S
C712 C714 1.395 . S
C712 C715 1.403 . S
H713 C719 0.930 . S
C714 H700 0.930 . S
C714 C712 1.395 . S
C714 C717 1.403 . S
C715 C712 1.403 . S
C715 C716 1.524 . S
C715 C719 1.400 . S
C716 H701 0.960 . S
C716 H702 0.960 . S
C716 H703 0.960 . S
C716 C715 1.524 . S
C717 C714 1.403 . S
C717 C718 1.392 . S
C717 C721 1.495 . S
C718 C717 1.392 . S
C718 C719 1.385 . S
C718 C720 1.478 . S
C719 H713 0.930 . S
C719 C715 1.400 . S
C719 C718 1.385 . S
C720 C718 1.478 . S
C720 C722 1.381 . S
C720 C726 1.383 . S
C721 C717 1.495 . S
C721 H727 0.959 . S
C721 H728 0.961 . S
C721 H729 0.960 . S
C722 C720 1.381 . S
C722 C723 1.394 . S
C722 H730 0.930 . S
C723 C722 1.394 . S
C723 C724 1.383 . S
C723 H731 0.929 . S
C724 C723 1.383 . S
C724 C725 1.377 . S
C725 H709 0.930 . S
C725 C724 1.377 . S
C725 C726 1.379 . S
C726 H710 0.931 . S
C726 C720 1.383 . S
C726 C725 1.379 . S
H727 C721 0.959 . S
H728 C721 0.961 . S
H729 C721 0.960 . S
H730 C722 0.930 . S
H731 C723 0.929 . S
H732 C740 0.929 . S
H733 C742 0.930 . S
H734 C744 0.930 . S
H735 C747 0.929 . S
H736 C750 0.958 . S
H737 C752 0.960 . S
H738 C752 0.960 . S
H739 C752 0.960 . S
C740 H732 0.929 . S
C740 C741 1.377 . S
C740 C742 1.384 . S
C741 C740 1.377 . S
C741 C747 1.390 . S
C742 H733 0.930 . S
C742 C740 1.384 . S
C742 C743 1.372 . S
C743 C742 1.372 . S
C743 C744 1.400 . S
C743 C748 1.490 . S
C744 H734 0.930 . S
C744 C743 1.400 . S
C744 C747 1.386 . S
H745 C761 0.930 . S
H746 C762 0.931 . S
C747 H735 0.929 . S
C747 C741 1.390 . S
C747 C744 1.386 . S
C748 C743 1.490 . S
C748 C750 1.407 . S
C748 C751 1.403 . S
H749 C755 0.930 . S
C750 H736 0.958 . S
C750 C748 1.407 . S
C750 C753 1.365 1_455 S
C751 C748 1.403 . S
C751 C752 1.524 . S
C751 C755 1.400 1_455 S
C752 H737 0.960 . S
C752 H738 0.960 . S
C752 H739 0.960 . S
C752 C751 1.524 . S
C753 C750 1.365 1_655 S
C753 C754 1.392 . S
C753 C757 1.495 . S
C754 C753 1.392 . S
C754 C755 1.385 . S
C754 C756 1.478 . S
C755 H749 0.930 . S
C755 C751 1.400 1_655 S
C755 C754 1.385 . S
C756 C754 1.478 . S
C756 C758 1.381 . S
C756 C762 1.383 . S
C757 C753 1.495 . S
C757 H763 0.959 . S
C757 H764 0.961 . S
C757 H765 0.960 . S
C758 C756 1.381 . S
C758 C759 1.394 . S
C758 H766 0.930 . S
C759 C758 1.394 . S
C759 C760 1.383 . S
C759 H767 0.929 . S
C760 C759 1.383 . S
C760 C761 1.377 . S
C761 H745 0.930 . S
C761 C760 1.377 . S
C761 C762 1.379 . S
C762 H746 0.931 . S
C762 C756 1.383 . S
C762 C761 1.379 . S
H763 C757 0.959 . S
H764 C757 0.961 . S
H765 C757 0.960 . S
H766 C758 0.930 . S
H767 C759 0.929 . S
H768 C776 0.929 . S
H769 C778 0.930 . S
H770 C780 0.930 . S
H771 C783 0.929 . S
H772 C786 0.930 . S
H773 C788 0.982 . S
H774 C788 0.957 1_565 S
H775 C788 0.951 1_565 S
C776 H768 0.929 . S
C776 C777 1.377 . S
C776 C778 1.384 . S
C777 C776 1.377 . S
C777 C783 1.390 . S
C778 H769 0.930 . S
C778 C776 1.384 . S
C778 C779 1.372 . S
C779 C778 1.372 . S
C779 C780 1.400 . S
C779 C784 1.490 . S
C780 H770 0.930 . S
C780 C779 1.400 . S
C780 C783 1.386 . S
H781 C797 0.930 . S
H782 C798 0.931 . S
C783 H771 0.929 . S
C783 C777 1.390 . S
C783 C780 1.386 . S
C784 C779 1.490 . S
C784 C786 1.395 . S
C784 C787 1.403 1_565 S
H785 C791 0.930 . S
C786 H772 0.930 . S
C786 C784 1.395 . S
C786 C789 1.403 1_565 S
C787 C784 1.403 1_545 S
C787 C788 1.514 . S
C787 C791 1.400 . S
C788 H773 0.982 . S
C788 H774 0.957 1_545 S
C788 H775 0.951 1_545 S
C788 C787 1.514 . S
C789 C786 1.403 1_545 S
C789 C790 1.392 . S
C789 C793 1.495 . S
C790 C789 1.392 . S
C790 C791 1.385 . S
C790 C792 1.478 . S
C791 H785 0.930 . S
C791 C787 1.400 . S
C791 C790 1.385 . S
C792 C790 1.478 . S
C792 C794 1.381 . S
C792 C798 1.383 . S
C793 C789 1.495 . S
C793 H799 0.959 1_545 S
C793 H800 0.961 . S
C793 H801 0.960 . S
C794 C792 1.381 . S
C794 C795 1.394 . S
C794 H802 0.930 . S
C795 C794 1.394 . S
C795 C796 1.383 . S
C795 H803 0.929 . S
C796 C795 1.383 . S
C796 C797 1.377 . S
C797 H781 0.930 . S
C797 C796 1.377 . S
C797 C798 1.379 . S
C798 H782 0.931 . S
C798 C792 1.383 . S
C798 C797 1.379 . S
H799 C793 0.959 1_565 S
H800 C793 0.961 . S
H801 C793 0.960 . S
H802 C794 0.930 . S
H803 C795 0.929 . S
H804 C812 0.929 . S
H805 C814 0.930 . S
H806 C816 0.930 . S
H807 C819 0.929 . S
H808 C822 0.930 . S
H809 C824 0.960 . S
H810 C824 0.960 . S
H811 C824 0.960 . S
C812 H804 0.929 . S
C812 C813 1.377 . S
C812 C814 1.384 . S
C813 C812 1.377 . S
C813 C819 1.390 . S
C814 H805 0.930 . S
C814 C812 1.384 . S
C814 C815 1.372 . S
C815 C814 1.372 . S
C815 C816 1.400 . S
C815 C820 1.490 . S
C816 H806 0.930 . S
C816 C815 1.400 . S
C816 C819 1.386 . S
H817 C833 0.930 . S
H818 C834 0.931 . S
C819 H807 0.929 . S
C819 C813 1.390 . S
C819 C816 1.386 . S
C820 C815 1.490 . S
C820 C822 1.395 . S
C820 C823 1.403 . S
H821 C827 0.930 . S
C822 H808 0.930 . S
C822 C820 1.395 . S
C822 C825 1.403 . S
C823 C820 1.403 . S
C823 C824 1.524 . S
C823 C827 1.400 . S
C824 H809 0.960 . S
C824 H810 0.960 . S
C824 H811 0.960 . S
C824 C823 1.524 . S
C825 C822 1.403 . S
C825 C826 1.392 . S
C825 C829 1.495 . S
C826 C825 1.392 . S
C826 C827 1.385 . S
C826 C828 1.478 . S
C827 H821 0.930 . S
C827 C823 1.400 . S
C827 C826 1.385 . S
C828 C826 1.478 . S
C828 C830 1.381 . S
C828 C834 1.383 . S
C829 C825 1.495 . S
C829 H835 0.959 . S
C829 H836 0.961 . S
C829 H837 0.960 . S
C830 C828 1.381 . S
C830 C831 1.394 . S
C830 H838 0.930 . S
C831 C830 1.394 . S
C831 C832 1.383 . S
C831 H839 0.929 . S
C832 C831 1.383 . S
C832 C833 1.377 . S
C833 H817 0.930 . S
C833 C832 1.377 . S
C833 C834 1.379 . S
C834 H818 0.931 . S
C834 C828 1.383 . S
C834 C833 1.379 . S
H835 C829 0.959 . S
H836 C829 0.961 . S
H837 C829 0.960 . S
H838 C830 0.930 . S
H839 C831 0.929 . S
H840 C848 0.929 . S
H841 C850 0.930 . S
H842 C852 0.930 . S
H843 C855 0.929 . S
H844 C858 0.954 . S
H845 C860 0.960 . S
H846 C860 0.960 . S
H847 C860 0.960 . S
C848 H840 0.929 . S
C848 C849 1.377 . S
C848 C850 1.384 . S
C849 C848 1.377 . S
C849 C855 1.390 . S
C850 H841 0.930 . S
C850 C848 1.384 . S
C850 C851 1.372 . S
C851 C850 1.372 . S
C851 C852 1.400 . S
C851 C856 1.490 . S
C852 H842 0.930 . S
C852 C851 1.400 . S
C852 C855 1.386 . S
H853 C869 0.930 . S
H854 C870 0.931 . S
C855 H843 0.929 . S
C855 C849 1.390 . S
C855 C852 1.386 . S
C856 C851 1.490 . S
C856 C858 1.410 . S
C856 C859 1.403 . S
H857 C863 0.930 . S
C858 H844 0.954 . S
C858 C856 1.410 . S
C858 C861 1.366 1_455 S
C859 C856 1.403 . S
C859 C860 1.524 . S
C859 C863 1.400 1_455 S
C860 H845 0.960 . S
C860 H846 0.960 . S
C860 H847 0.960 . S
C860 C859 1.524 . S
C861 C858 1.366 1_655 S
C861 C862 1.392 . S
C861 C865 1.495 . S
C862 C861 1.392 . S
C862 C863 1.385 . S
C862 C864 1.478 . S
C863 H857 0.930 . S
C863 C859 1.400 1_655 S
C863 C862 1.385 . S
C864 C862 1.478 . S
C864 C866 1.381 . S
C864 C870 1.383 . S
C865 C861 1.495 . S
C865 H871 0.959 . S
C865 H872 0.961 . S
C865 H873 0.960 . S
C866 C864 1.381 . S
C866 C867 1.394 . S
C866 H874 0.930 . S
C867 C866 1.394 . S
C867 C868 1.383 . S
C867 H875 0.929 . S
C868 C867 1.383 . S
C868 C869 1.377 . S
C869 H853 0.930 . S
C869 C868 1.377 . S
C869 C870 1.379 . S
C870 H854 0.931 . S
C870 C864 1.383 . S
C870 C869 1.379 . S
H871 C865 0.959 . S
H872 C865 0.961 . S
H873 C865 0.960 . S
H874 C866 0.930 . S
H875 C867 0.929 . S
H876 C884 0.929 . S
H877 C886 0.930 . S
H878 C888 0.930 . S
H879 C891 0.929 . S
H880 C894 0.930 . S
H881 C896 0.960 1_565 S
H882 C896 0.960 . S
H883 C896 0.960 . S
C884 H876 0.929 . S
C884 C885 1.377 . S
C884 C886 1.384 . S
C885 C884 1.377 . S
C885 C891 1.390 . S
C886 H877 0.930 . S
C886 C884 1.384 . S
C886 C887 1.372 . S
C887 C886 1.372 . S
C887 C888 1.400 . S
C887 C892 1.490 . S
C888 H878 0.930 . S
C888 C887 1.400 . S
C888 C891 1.386 . S
H889 C905 0.930 . S
H890 C906 0.931 . S
C891 H879 0.929 . S
C891 C885 1.390 . S
C891 C888 1.386 . S
C892 C887 1.490 . S
C892 C894 1.395 . S
C892 C895 1.403 . S
H893 C899 0.930 . S
C894 H880 0.930 . S
C894 C892 1.395 . S
C894 C897 1.403 . S
C895 C892 1.403 . S
C895 C896 1.524 . S
C895 C899 1.400 1_545 S
C896 H881 0.960 1_545 S
C896 H882 0.960 . S
C896 H883 0.960 . S
C896 C895 1.524 . S
C897 C894 1.403 . S
C897 C898 1.392 1_545 S
C897 C901 1.495 1_545 S
C898 C897 1.392 1_565 S
C898 C899 1.385 . S
C898 C900 1.478 . S
C899 H893 0.930 . S
C899 C895 1.400 1_565 S
C899 C898 1.385 . S
C900 C898 1.478 . S
C900 C902 1.381 . S
C900 C906 1.383 . S
C901 C897 1.495 1_565 S
C901 H907 0.959 1_565 S
C901 H908 0.961 . S
C901 H909 0.960 . S
C902 C900 1.381 . S
C902 C903 1.394 . S
C902 H910 0.930 . S
C903 C902 1.394 . S
C903 C904 1.383 . S
C903 H911 0.929 . S
C904 C903 1.383 . S
C904 C905 1.377 . S
C905 H889 0.930 . S
C905 C904 1.377 . S
C905 C906 1.379 . S
C906 H890 0.931 . S
C906 C900 1.383 . S
C906 C905 1.379 . S
H907 C901 0.959 1_545 S
H908 C901 0.961 . S
H909 C901 0.960 . S
H910 C902 0.930 . S
H911 C903 0.929 . S
H912 C920 0.929 . S
H913 C922 0.930 . S
H914 C924 0.930 . S
H915 C927 0.929 . S
H916 C930 0.930 . S
H917 C932 0.960 . S
H918 C932 0.960 . S
H919 C932 0.960 . S
C920 H912 0.929 . S
C920 C921 1.377 . S
C920 C922 1.384 . S
C921 C920 1.377 . S
C921 C927 1.390 . S
C922 H913 0.930 . S
C922 C920 1.384 . S
C922 C923 1.372 . S
C923 C922 1.372 . S
C923 C924 1.400 . S
C923 C928 1.490 . S
C924 H914 0.930 . S
C924 C923 1.400 . S
C924 C927 1.386 . S
H925 C941 0.930 . S
H926 C942 0.931 . S
C927 H915 0.929 . S
C927 C921 1.390 . S
C927 C924 1.386 . S
C928 C923 1.490 . S
C928 C930 1.395 . S
C928 C931 1.403 . S
H929 C935 0.930 . S
C930 H916 0.930 . S
C930 C928 1.395 . S
C930 C933 1.403 . S
C931 C928 1.403 . S
C931 C932 1.524 . S
C931 C935 1.400 . S
C932 H917 0.960 . S
C932 H918 0.960 . S
C932 H919 0.960 . S
C932 C931 1.524 . S
C933 C930 1.403 . S
C933 C934 1.392 . S
C933 C937 1.495 . S
C934 C933 1.392 . S
C934 C935 1.385 . S
C934 C936 1.478 . S
C935 H929 0.930 . S
C935 C931 1.400 . S
C935 C934 1.385 . S
C936 C934 1.478 . S
C936 C938 1.381 . S
C936 C942 1.383 . S
C937 C933 1.495 . S
C937 H943 0.959 . S
C937 H944 0.961 . S
C937 H945 0.960 . S
C938 C936 1.381 . S
C938 C939 1.394 . S
C938 H946 0.930 . S
C939 C938 1.394 . S
C939 C940 1.383 . S
C939 H947 0.929 . S
C940 C939 1.383 . S
C940 C941 1.377 . S
C941 H925 0.930 . S
C941 C940 1.377 . S
C941 C942 1.379 . S
C942 H926 0.931 . S
C942 C936 1.383 . S
C942 C941 1.379 . S
H943 C937 0.959 . S
H944 C937 0.961 . S
H945 C937 0.960 . S
H946 C938 0.930 . S
H947 C939 0.929 . S
H948 C956 0.929 . S
H949 C958 0.930 . S
H950 C960 0.930 . S
H951 C963 0.929 . S
H952 C966 0.930 . S
H953 C968 0.960 . S
H954 C968 0.960 . S
H955 C968 0.960 . S
C956 H948 0.929 . S
C956 C957 1.377 . S
C956 C958 1.384 . S
C957 C956 1.377 . S
C957 C963 1.390 . S
C958 H949 0.930 . S
C958 C956 1.384 . S
C958 C959 1.372 . S
C959 C958 1.372 . S
C959 C960 1.400 . S
C959 C964 1.490 . S
C960 H950 0.930 . S
C960 C959 1.400 . S
C960 C963 1.386 . S
H961 C977 0.930 . S
H962 C978 0.931 . S
C963 H951 0.929 . S
C963 C957 1.390 . S
C963 C960 1.386 . S
C964 C959 1.490 . S
C964 C966 1.395 . S
C964 C967 1.403 . S
H965 C971 0.930 . S
C966 H952 0.930 . S
C966 C964 1.395 . S
C966 C969 1.403 . S
C967 C964 1.403 . S
C967 C968 1.524 . S
C967 C971 1.400 . S
C968 H953 0.960 . S
C968 H954 0.960 . S
C968 H955 0.960 . S
C968 C967 1.524 . S
C969 C966 1.403 . S
C969 C970 1.392 . S
C969 C973 1.495 . S
C970 C969 1.392 . S
C970 C971 1.385 . S
C970 C972 1.478 . S
C971 H965 0.930 . S
C971 C967 1.400 . S
C971 C970 1.385 . S
C972 C970 1.478 . S
C972 C974 1.381 . S
C972 C978 1.383 . S
C973 C969 1.495 . S
C973 H979 0.959 . S
C973 H980 0.961 . S
C973 H981 0.960 . S
C974 C972 1.381 . S
C974 C975 1.394 . S
C974 H982 0.930 . S
C975 C974 1.394 . S
C975 C976 1.383 . S
C975 H983 0.929 . S
C976 C975 1.383 . S
C976 C977 1.377 . S
C977 H961 0.930 . S
C977 C976 1.377 . S
C977 C978 1.379 . S
C978 H962 0.931 . S
C978 C972 1.383 . S
C978 C977 1.379 . S
H979 C973 0.959 . S
H980 C973 0.961 . S
H981 C973 0.960 . S
H982 C974 0.930 . S
H983 C975 0.929 . S
H984 C992 0.929 . S
H985 C994 0.930 . S
H986 C996 0.930 . S
H987 C999 0.929 . S
H988 C1002 0.930 . S
H989 C1004 0.960 . S
H990 C1004 0.960 . S
H991 C1004 0.960 . S
C992 H984 0.929 . S
C992 C993 1.377 . S
C992 C994 1.384 . S
C993 C992 1.377 . S
C993 C999 1.390 . S
C994 H985 0.930 . S
C994 C992 1.384 . S
C994 C995 1.372 . S
C995 C994 1.372 . S
C995 C996 1.400 . S
C995 C1000 1.490 . S
C996 H986 0.930 . S
C996 C995 1.400 . S
C996 C999 1.386 . S
H997 C1013 0.930 . S
H998 C1014 0.931 . S
C999 H987 0.929 . S
C999 C993 1.390 . S
C999 C996 1.386 . S
C1000 C995 1.490 . S
C1000 C1002 1.395 . S
C1000 C1003 1.403 . S
H1001 C1007 0.930 . S
C1002 H988 0.930 . S
C1002 C1000 1.395 . S
C1002 C1005 1.403 . S
C1003 C1000 1.403 . S
C1003 C1004 1.524 . S
C1003 C1007 1.400 . S
C1004 H989 0.960 . S
C1004 H990 0.960 . S
C1004 H991 0.960 . S
C1004 C1003 1.524 . S
C1005 C1002 1.403 . S
C1005 C1006 1.392 . S
C1005 C1009 1.495 . S
C1006 C1005 1.392 . S
C1006 C1007 1.385 . S
C1006 C1008 1.478 . S
C1007 H1001 0.930 . S
C1007 C1003 1.400 . S
C1007 C1006 1.385 . S
C1008 C1006 1.478 . S
C1008 C1010 1.381 . S
C1008 C1014 1.383 . S
C1009 C1005 1.495 . S
C1009 H1015 0.959 . S
C1009 H1016 0.961 . S
C1009 H1017 0.960 . S
C1010 C1008 1.381 . S
C1010 C1011 1.394 . S
C1010 H1018 0.930 . S
C1011 C1010 1.394 . S
C1011 C1012 1.383 . S
C1011 H1019 0.929 . S
C1012 C1011 1.383 . S
C1012 C1013 1.377 . S
C1013 H997 0.930 . S
C1013 C1012 1.377 . S
C1013 C1014 1.379 . S
C1014 H998 0.931 . S
C1014 C1008 1.383 . S
C1014 C1013 1.379 . S
H1015 C1009 0.959 . S
H1016 C1009 0.961 . S
H1017 C1009 0.960 . S
H1018 C1010 0.930 . S
H1019 C1011 0.929 . S
H1020 C1028 0.929 . S
H1021 C1030 0.930 . S
H1022 C1032 0.930 . S
H1023 C1035 0.929 . S
H1024 C1038 0.930 . S
H1025 C1040 0.960 . S
H1026 C1040 0.960 . S
H1027 C1040 0.960 . S
C1028 H1020 0.929 . S
C1028 C1029 1.377 . S
C1028 C1030 1.384 . S
C1029 C1028 1.377 . S
C1029 C1035 1.390 . S
C1030 H1021 0.930 . S
C1030 C1028 1.384 . S
C1030 C1031 1.372 . S
C1031 C1030 1.372 . S
C1031 C1032 1.400 . S
C1031 C1036 1.490 . S
C1032 H1022 0.930 . S
C1032 C1031 1.400 . S
C1032 C1035 1.386 . S
H1033 C1049 0.930 . S
H1034 C1050 0.931 . S
C1035 H1023 0.929 . S
C1035 C1029 1.390 . S
C1035 C1032 1.386 . S
C1036 C1031 1.490 . S
C1036 C1038 1.395 . S
C1036 C1039 1.403 . S
H1037 C1043 0.930 . S
C1038 H1024 0.930 . S
C1038 C1036 1.395 . S
C1038 C1041 1.403 . S
C1039 C1036 1.403 . S
C1039 C1040 1.524 . S
C1039 C1043 1.400 . S
C1040 H1025 0.960 . S
C1040 H1026 0.960 . S
C1040 H1027 0.960 . S
C1040 C1039 1.524 . S
C1041 C1038 1.403 . S
C1041 C1042 1.392 . S
C1041 C1045 1.495 . S
C1042 C1041 1.392 . S
C1042 C1043 1.385 . S
C1042 C1044 1.478 . S
C1043 H1037 0.930 . S
C1043 C1039 1.400 . S
C1043 C1042 1.385 . S
C1044 C1042 1.478 . S
C1044 C1046 1.381 . S
C1044 C1050 1.383 . S
C1045 C1041 1.495 . S
C1045 H1051 0.959 . S
C1045 H1052 0.961 . S
C1045 H1053 0.960 . S
C1046 C1044 1.381 . S
C1046 C1047 1.394 . S
C1046 H1054 0.930 . S
C1047 C1046 1.394 . S
C1047 C1048 1.383 . S
C1047 H1055 0.929 . S
C1048 C1047 1.383 . S
C1048 C1049 1.377 . S
C1049 H1033 0.930 . S
C1049 C1048 1.377 . S
C1049 C1050 1.379 . S
C1050 H1034 0.931 . S
C1050 C1044 1.383 . S
C1050 C1049 1.379 . S
H1051 C1045 0.959 . S
H1052 C1045 0.961 . S
H1053 C1045 0.960 . S
H1054 C1046 0.930 . S
H1055 C1047 0.929 . S
H1056 C1064 0.929 . S
H1057 C1066 0.930 . S
H1058 C1068 0.930 . S
H1059 C1071 0.929 . S
H1060 C1074 0.930 . S
H1061 C1076 0.960 . S
H1062 C1076 0.960 . S
H1063 C1076 0.960 . S
C1064 H1056 0.929 . S
C1064 C1065 1.377 . S
C1064 C1066 1.384 . S
C1065 C1064 1.377 . S
C1065 C1071 1.390 . S
C1066 H1057 0.930 . S
C1066 C1064 1.384 . S
C1066 C1067 1.372 . S
C1067 C1066 1.372 . S
C1067 C1068 1.400 . S
C1067 C1072 1.490 . S
C1068 H1058 0.930 . S
C1068 C1067 1.400 . S
C1068 C1071 1.386 . S
H1069 C1085 0.930 . S
H1070 C1086 0.931 . S
C1071 H1059 0.929 . S
C1071 C1065 1.390 . S
C1071 C1068 1.386 . S
C1072 C1067 1.490 . S
C1072 C1074 1.395 . S
C1072 C1075 1.403 . S
H1073 C1079 0.930 . S
C1074 H1060 0.930 . S
C1074 C1072 1.395 . S
C1074 C1077 1.403 . S
C1075 C1072 1.403 . S
C1075 C1076 1.524 . S
C1075 C1079 1.400 . S
C1076 H1061 0.960 . S
C1076 H1062 0.960 . S
C1076 H1063 0.960 . S
C1076 C1075 1.524 . S
C1077 C1074 1.403 . S
C1077 C1078 1.392 . S
C1077 C1081 1.495 . S
C1078 C1077 1.392 . S
C1078 C1079 1.385 . S
C1078 C1080 1.478 . S
C1079 H1073 0.930 . S
C1079 C1075 1.400 . S
C1079 C1078 1.385 . S
C1080 C1078 1.478 . S
C1080 C1082 1.381 . S
C1080 C1086 1.383 . S
C1081 C1077 1.495 . S
C1081 H1087 0.959 . S
C1081 H1088 0.961 . S
C1081 H1089 0.960 . S
C1082 C1080 1.381 . S
C1082 C1083 1.394 . S
C1082 H1090 0.930 . S
C1083 C1082 1.394 . S
C1083 C1084 1.383 . S
C1083 H1091 0.929 . S
C1084 C1083 1.383 . S
C1084 C1085 1.377 . S
C1085 H1069 0.930 . S
C1085 C1084 1.377 . S
C1085 C1086 1.379 . S
C1086 H1070 0.931 . S
C1086 C1080 1.383 . S
C1086 C1085 1.379 . S
H1087 C1081 0.959 . S
H1088 C1081 0.961 . S
H1089 C1081 0.960 . S
H1090 C1082 0.930 . S
H1091 C1083 0.929 . S
H1092 C1100 0.929 . S
H1093 C1102 0.930 . S
H1094 C1104 0.930 . S
H1095 C1107 0.929 . S
H1096 C1110 0.930 . S
H1097 C1112 0.960 . S
H1098 C1112 0.960 . S
H1099 C1112 0.960 . S
C1100 H1092 0.929 . S
C1100 C1101 1.377 . S
C1100 C1102 1.384 . S
C1101 C1100 1.377 . S
C1101 C1107 1.390 . S
C1102 H1093 0.930 . S
C1102 C1100 1.384 . S
C1102 C1103 1.372 . S
C1103 C1102 1.372 . S
C1103 C1104 1.400 . S
C1103 C1108 1.490 . S
C1104 H1094 0.930 . S
C1104 C1103 1.400 . S
C1104 C1107 1.386 . S
H1105 C1121 0.930 . S
H1106 C1122 0.931 . S
C1107 H1095 0.929 . S
C1107 C1101 1.390 . S
C1107 C1104 1.386 . S
C1108 C1103 1.490 . S
C1108 C1110 1.395 . S
C1108 C1111 1.403 . S
H1109 C1115 0.930 . S
C1110 H1096 0.930 . S
C1110 C1108 1.395 . S
C1110 C1113 1.403 . S
C1111 C1108 1.403 . S
C1111 C1112 1.524 . S
C1111 C1115 1.400 . S
C1112 H1097 0.960 . S
C1112 H1098 0.960 . S
C1112 H1099 0.960 . S
C1112 C1111 1.524 . S
C1113 C1110 1.403 . S
C1113 C1114 1.392 . S
C1113 C1117 1.495 . S
C1114 C1113 1.392 . S
C1114 C1115 1.385 . S
C1114 C1116 1.478 . S
C1115 H1109 0.930 . S
C1115 C1111 1.400 . S
C1115 C1114 1.385 . S
C1116 C1114 1.478 . S
C1116 C1118 1.381 . S
C1116 C1122 1.383 . S
C1117 C1113 1.495 . S
C1117 H1123 0.959 . S
C1117 H1124 0.961 . S
C1117 H1125 0.960 . S
C1118 C1116 1.381 . S
C1118 C1119 1.394 . S
C1118 H1126 0.930 . S
C1119 C1118 1.394 . S
C1119 C1120 1.383 . S
C1119 H1127 0.929 . S
C1120 C1119 1.383 . S
C1120 C1121 1.377 . S
C1121 H1105 0.930 . S
C1121 C1120 1.377 . S
C1121 C1122 1.379 . S
C1122 H1106 0.931 . S
C1122 C1116 1.383 . S
C1122 C1121 1.379 . S
H1123 C1117 0.959 . S
H1124 C1117 0.961 . S
H1125 C1117 0.960 . S
H1126 C1118 0.930 . S
H1127 C1119 0.929 . S
H1128 C1136 0.929 . S
H1129 C1138 0.930 . S
H1130 C1140 0.930 . S
H1131 C1143 0.929 . S
H1132 C1146 0.930 . S
H1133 C1148 0.960 1_545 S
H1134 C1148 0.960 . S
H1135 C1148 0.960 . S
C1136 H1128 0.929 . S
C1136 C1137 1.377 . S
C1136 C1138 1.384 . S
C1137 C1136 1.377 . S
C1137 C1143 1.390 . S
C1138 H1129 0.930 . S
C1138 C1136 1.384 . S
C1138 C1139 1.372 . S
C1139 C1138 1.372 . S
C1139 C1140 1.400 . S
C1139 C1144 1.490 . S
C1140 H1130 0.930 . S
C1140 C1139 1.400 . S
C1140 C1143 1.386 . S
H1141 C1157 0.930 . S
H1142 C1158 0.931 . S
C1143 H1131 0.929 . S
C1143 C1137 1.390 . S
C1143 C1140 1.386 . S
C1144 C1139 1.490 . S
C1144 C1146 1.395 . S
C1144 C1147 1.403 . S
H1145 C1151 0.930 . S
C1146 H1132 0.930 . S
C1146 C1144 1.395 . S
C1146 C1149 1.403 1_566 S
C1147 C1144 1.403 . S
C1147 C1148 1.524 . S
C1147 C1151 1.400 1_566 S
C1148 H1133 0.960 1_565 S
C1148 H1134 0.960 . S
C1148 H1135 0.960 . S
C1148 C1147 1.524 . S
C1149 C1146 1.403 1_544 S
C1149 C1150 1.392 . S
C1149 C1153 1.495 . S
C1150 C1149 1.392 . S
C1150 C1151 1.385 . S
C1150 C1152 1.478 . S
C1151 H1145 0.930 . S
C1151 C1147 1.400 1_544 S
C1151 C1150 1.385 . S
C1152 C1150 1.478 . S
C1152 C1154 1.381 . S
C1152 C1158 1.383 . S
C1153 C1149 1.495 . S
C1153 H1159 0.959 1_545 S
C1153 H1160 0.961 . S
C1153 H1161 0.960 . S
C1154 C1152 1.381 . S
C1154 C1155 1.394 . S
C1154 H1162 0.930 . S
C1155 C1154 1.394 . S
C1155 C1156 1.383 . S
C1155 H1163 0.929 . S
C1156 C1155 1.383 . S
C1156 C1157 1.377 . S
C1157 H1141 0.930 . S
C1157 C1156 1.377 . S
C1157 C1158 1.379 . S
C1158 H1142 0.931 . S
C1158 C1152 1.383 . S
C1158 C1157 1.379 . S
H1159 C1153 0.959 1_565 S
H1160 C1153 0.961 . S
H1161 C1153 0.960 . S
H1162 C1154 0.930 . S
H1163 C1155 0.929 . S
H1164 C1172 0.929 . S
H1165 C1174 0.930 . S
H1166 C1176 0.930 . S
H1167 C1179 0.929 . S
H1168 C1182 0.930 . S
H1169 C1184 0.960 . S
H1170 C1184 0.960 . S
H1171 C1184 0.960 . S
C1172 H1164 0.929 . S
C1172 C1173 1.377 . S
C1172 C1174 1.384 . S
C1173 C1172 1.377 . S
C1173 C1179 1.390 . S
C1174 H1165 0.930 . S
C1174 C1172 1.384 . S
C1174 C1175 1.372 . S
C1175 C1174 1.372 . S
C1175 C1176 1.400 . S
C1175 C1180 1.490 . S
C1176 H1166 0.930 . S
C1176 C1175 1.400 . S
C1176 C1179 1.386 . S
H1177 C1193 0.930 . S
H1178 C1194 0.931 . S
C1179 H1167 0.929 . S
C1179 C1173 1.390 . S
C1179 C1176 1.386 . S
C1180 C1175 1.490 . S
C1180 C1182 1.395 . S
C1180 C1183 1.403 . S
H1181 C1187 0.930 . S
C1182 H1168 0.930 . S
C1182 C1180 1.395 . S
C1182 C1185 1.403 . S
C1183 C1180 1.403 . S
C1183 C1184 1.524 . S
C1183 C1187 1.400 . S
C1184 H1169 0.960 . S
C1184 H1170 0.960 . S
C1184 H1171 0.960 . S
C1184 C1183 1.524 . S
C1185 C1182 1.403 . S
C1185 C1186 1.392 . S
C1185 C1189 1.495 . S
C1186 C1185 1.392 . S
C1186 C1187 1.385 . S
C1186 C1188 1.478 . S
C1187 H1181 0.930 . S
C1187 C1183 1.400 . S
C1187 C1186 1.385 . S
C1188 C1186 1.478 . S
C1188 C1190 1.381 . S
C1188 C1194 1.383 . S
C1189 C1185 1.495 . S
C1189 H1195 0.959 . S
C1189 H1196 0.961 . S
C1189 H1197 0.960 . S
C1190 C1188 1.381 . S
C1190 C1191 1.394 . S
C1190 H1198 0.930 . S
C1191 C1190 1.394 . S
C1191 C1192 1.383 . S
C1191 H1199 0.929 . S
C1192 C1191 1.383 . S
C1192 C1193 1.377 . S
C1193 H1177 0.930 . S
C1193 C1192 1.377 . S
C1193 C1194 1.379 . S
C1194 H1178 0.931 . S
C1194 C1188 1.383 . S
C1194 C1193 1.379 . S
H1195 C1189 0.959 . S
H1196 C1189 0.961 . S
H1197 C1189 0.960 . S
H1198 C1190 0.930 . S
H1199 C1191 0.929 . S
H1200 C1208 0.929 . S
H1201 C1210 0.930 . S
H1202 C1212 0.930 . S
H1203 C1215 0.929 . S
H1204 C1218 0.930 . S
H1205 C1220 0.960 1_554 S
H1206 C1220 0.960 1_554 S
H1207 C1220 0.960 . S
C1208 H1200 0.929 . S
C1208 C1209 1.377 . S
C1208 C1210 1.384 . S
C1209 C1208 1.377 . S
C1209 C1215 1.390 . S
C1210 H1201 0.930 . S
C1210 C1208 1.384 . S
C1210 C1211 1.372 . S
C1211 C1210 1.372 . S
C1211 C1212 1.400 . S
C1211 C1216 1.490 . S
C1212 H1202 0.930 . S
C1212 C1211 1.400 . S
C1212 C1215 1.386 . S
H1213 C1229 0.930 . S
H1214 C1230 0.931 . S
C1215 H1203 0.929 . S
C1215 C1209 1.390 . S
C1215 C1212 1.386 . S
C1216 C1211 1.490 . S
C1216 C1218 1.395 . S
C1216 C1219 1.403 . S
H1217 C1223 0.930 . S
C1218 H1204 0.930 . S
C1218 C1216 1.395 . S
C1218 C1221 1.403 1_456 S
C1219 C1216 1.403 . S
C1219 C1220 1.524 . S
C1219 C1223 1.400 1_456 S
C1220 H1205 0.960 1_556 S
C1220 H1206 0.960 1_556 S
C1220 H1207 0.960 . S
C1220 C1219 1.524 . S
C1221 C1218 1.403 1_654 S
C1221 C1222 1.392 . S
C1221 C1225 1.495 . S
C1222 C1221 1.392 . S
C1222 C1223 1.385 . S
C1222 C1224 1.478 . S
C1223 H1217 0.930 . S
C1223 C1219 1.400 1_654 S
C1223 C1222 1.385 . S
C1224 C1222 1.478 . S
C1224 C1226 1.381 . S
C1224 C1230 1.383 . S
C1225 C1221 1.495 . S
C1225 H1231 0.959 1_554 S
C1225 H1232 0.953 1_554 S
C1225 H1233 0.960 . S
C1226 C1224 1.381 . S
C1226 C1227 1.394 . S
C1226 H1234 0.930 . S
C1227 C1226 1.394 . S
C1227 C1228 1.383 . S
C1227 H1235 0.929 . S
C1228 C1227 1.383 . S
C1228 C1229 1.377 . S
C1229 H1213 0.930 . S
C1229 C1228 1.377 . S
C1229 C1230 1.379 . S
C1230 H1214 0.931 . S
C1230 C1224 1.383 . S
C1230 C1229 1.379 . S
H1231 C1225 0.959 1_556 S
H1232 C1225 0.953 1_556 S
H1233 C1225 0.960 . S
H1234 C1226 0.930 . S
H1235 C1227 0.929 . S
H1236 C1244 0.929 . S
H1237 C1246 0.930 . S
H1238 C1248 0.930 . S
H1239 C1251 0.929 . S
H1240 C1254 0.930 . S
H1241 C1256 0.960 . S
H1242 C1256 0.960 . S
H1243 C1256 0.960 . S
C1244 H1236 0.929 . S
C1244 C1245 1.377 . S
C1244 C1246 1.384 . S
C1245 C1244 1.377 . S
C1245 C1251 1.390 . S
C1246 H1237 0.930 . S
C1246 C1244 1.384 . S
C1246 C1247 1.372 . S
C1247 C1246 1.372 . S
C1247 C1248 1.400 . S
C1247 C1252 1.490 . S
C1248 H1238 0.930 . S
C1248 C1247 1.400 . S
C1248 C1251 1.386 . S
H1249 C1265 0.930 . S
H1250 C1266 0.931 . S
C1251 H1239 0.929 . S
C1251 C1245 1.390 . S
C1251 C1248 1.386 . S
C1252 C1247 1.490 . S
C1252 C1254 1.395 . S
C1252 C1255 1.403 . S
H1253 C1259 0.930 . S
C1254 H1240 0.930 . S
C1254 C1252 1.395 . S
C1254 C1257 1.403 1_545 S
C1255 C1252 1.403 . S
C1255 C1256 1.524 . S
C1255 C1259 1.400 1_545 S
C1256 H1241 0.960 . S
C1256 H1242 0.960 . S
C1256 H1243 0.960 . S
C1256 C1255 1.524 . S
C1257 C1254 1.403 1_565 S
C1257 C1258 1.392 . S
C1257 C1261 1.495 . S
C1258 C1257 1.392 . S
C1258 C1259 1.385 . S
C1258 C1260 1.478 . S
C1259 H1253 0.930 . S
C1259 C1255 1.400 1_565 S
C1259 C1258 1.385 . S
C1260 C1258 1.478 . S
C1260 C1262 1.381 . S
C1260 C1266 1.383 . S
C1261 C1257 1.495 . S
C1261 H1267 0.959 . S
C1261 H1268 0.961 . S
C1261 H1269 0.960 . S
C1262 C1260 1.381 . S
C1262 C1263 1.394 . S
C1262 H1270 0.930 . S
C1263 C1262 1.394 . S
C1263 C1264 1.383 . S
C1263 H1271 0.929 . S
C1264 C1263 1.383 . S
C1264 C1265 1.377 . S
C1265 H1249 0.930 . S
C1265 C1264 1.377 . S
C1265 C1266 1.379 . S
C1266 H1250 0.931 . S
C1266 C1260 1.383 . S
C1266 C1265 1.379 . S
H1267 C1261 0.959 . S
H1268 C1261 0.961 . S
H1269 C1261 0.960 . S
H1270 C1262 0.930 . S
H1271 C1263 0.929 . S
H1272 C1280 0.929 . S
H1273 C1282 0.930 . S
H1274 C1284 0.930 . S
H1275 C1287 0.929 . S
H1276 C1290 0.930 . S
H1277 C1292 0.960 . S
H1278 C1292 0.960 . S
H1279 C1292 0.960 . S
C1280 H1272 0.929 . S
C1280 C1281 1.377 . S
C1280 C1282 1.384 . S
C1281 C1280 1.377 . S
C1281 C1287 1.390 . S
C1282 H1273 0.930 . S
C1282 C1280 1.384 . S
C1282 C1283 1.372 . S
C1283 C1282 1.372 . S
C1283 C1284 1.400 . S
C1283 C1288 1.490 . S
C1284 H1274 0.930 . S
C1284 C1283 1.400 . S
C1284 C1287 1.386 . S
H1285 C1301 0.930 . S
H1286 C1302 0.931 . S
C1287 H1275 0.929 . S
C1287 C1281 1.390 . S
C1287 C1284 1.386 . S
C1288 C1283 1.490 . S
C1288 C1290 1.395 1_554 S
C1288 C1291 1.403 . S
H1289 C1295 0.928 1_554 S
C1290 H1276 0.930 . S
C1290 C1288 1.395 1_556 S
C1290 C1293 1.403 . S
C1291 C1288 1.403 . S
C1291 C1292 1.524 . S
C1291 C1295 1.382 1_554 S
C1292 H1277 0.960 . S
C1292 H1278 0.960 . S
C1292 H1279 0.960 . S
C1292 C1291 1.524 . S
C1293 C1290 1.403 . S
C1293 C1294 1.392 . S
C1293 C1297 1.495 . S
C1294 C1293 1.392 . S
C1294 C1295 1.405 . S
C1294 C1296 1.478 . S
C1295 H1289 0.928 1_556 S
C1295 C1291 1.382 1_556 S
C1295 C1294 1.405 . S
C1296 C1294 1.478 . S
C1296 C1298 1.381 . S
C1296 C1302 1.383 . S
C1297 C1293 1.495 . S
C1297 H1303 0.959 . S
C1297 H1304 0.961 . S
C1297 H1305 0.960 . S
C1298 C1296 1.381 . S
C1298 C1299 1.394 . S
C1298 H1306 0.930 . S
C1299 C1298 1.394 . S
C1299 C1300 1.383 . S
C1299 H1307 0.929 . S
C1300 C1299 1.383 . S
C1300 C1301 1.377 . S
C1301 H1285 0.930 . S
C1301 C1300 1.377 . S
C1301 C1302 1.379 . S
C1302 H1286 0.931 . S
C1302 C1296 1.383 . S
C1302 C1301 1.379 . S
H1303 C1297 0.959 . S
H1304 C1297 0.961 . S
H1305 C1297 0.960 . S
H1306 C1298 0.930 . S
H1307 C1299 0.929 . S
H1308 C1316 0.929 . S
H1309 C1318 0.930 . S
H1310 C1320 0.930 . S
H1311 C1323 0.929 . S
H1312 C1326 0.930 . S
H1313 C1328 0.960 . S
H1314 C1328 0.960 . S
H1315 C1328 0.960 . S
C1316 H1308 0.929 . S
C1316 C1317 1.377 . S
C1316 C1318 1.384 . S
C1317 C1316 1.377 . S
C1317 C1323 1.390 . S
C1318 H1309 0.930 . S
C1318 C1316 1.384 . S
C1318 C1319 1.372 . S
C1319 C1318 1.372 . S
C1319 C1320 1.400 . S
C1319 C1324 1.490 . S
C1320 H1310 0.930 . S
C1320 C1319 1.400 . S
C1320 C1323 1.386 . S
H1321 C1337 0.930 . S
H1322 C1338 0.931 . S
C1323 H1311 0.929 . S
C1323 C1317 1.390 . S
C1323 C1320 1.386 . S
C1324 C1319 1.490 . S
C1324 C1326 1.395 1_455 S
C1324 C1327 1.403 . S
H1325 C1331 0.930 . S
C1326 H1312 0.930 . S
C1326 C1324 1.395 1_655 S
C1326 C1329 1.403 . S
C1327 C1324 1.403 . S
C1327 C1328 1.524 . S
C1327 C1331 1.400 . S
C1328 H1313 0.960 . S
C1328 H1314 0.960 . S
C1328 H1315 0.960 . S
C1328 C1327 1.524 . S
C1329 C1326 1.403 . S
C1329 C1330 1.392 . S
C1329 C1333 1.495 . S
C1330 C1329 1.392 . S
C1330 C1331 1.385 1_655 S
C1330 C1332 1.478 . S
C1331 H1325 0.930 . S
C1331 C1327 1.400 . S
C1331 C1330 1.385 1_455 S
C1332 C1330 1.478 . S
C1332 C1334 1.381 . S
C1332 C1338 1.383 . S
C1333 C1329 1.495 . S
C1333 H1339 0.959 . S
C1333 H1340 0.961 . S
C1333 H1341 0.960 . S
C1334 C1332 1.381 . S
C1334 C1335 1.394 . S
C1334 H1342 0.930 . S
C1335 C1334 1.394 . S
C1335 C1336 1.383 . S
C1335 H1343 0.929 . S
C1336 C1335 1.383 . S
C1336 C1337 1.377 . S
C1337 H1321 0.930 . S
C1337 C1336 1.377 . S
C1337 C1338 1.379 . S
C1338 H1322 0.931 . S
C1338 C1332 1.383 . S
C1338 C1337 1.379 . S
H1339 C1333 0.959 . S
H1340 C1333 0.961 . S
H1341 C1333 0.960 . S
H1342 C1334 0.930 . S
H1343 C1335 0.929 . S
H1344 C1352 0.929 . S
H1345 C1354 0.930 . S
H1346 C1356 0.930 . S
H1347 C1359 0.929 . S
H1348 C1362 0.930 . S
H1349 C1364 0.960 . S
H1350 C1364 0.960 . S
H1351 C1364 0.960 . S
C1352 H1344 0.929 . S
C1352 C1353 1.377 . S
C1352 C1354 1.384 . S
C1353 C1352 1.377 . S
C1353 C1359 1.390 . S
C1354 H1345 0.930 . S
C1354 C1352 1.384 . S
C1354 C1355 1.372 . S
C1355 C1354 1.372 . S
C1355 C1356 1.400 . S
C1355 C1360 1.490 . S
C1356 H1346 0.930 . S
C1356 C1355 1.400 . S
C1356 C1359 1.386 . S
H1357 C1373 0.930 . S
H1358 C1374 0.931 . S
C1359 H1347 0.929 . S
C1359 C1353 1.390 . S
C1359 C1356 1.386 . S
C1360 C1355 1.490 . S
C1360 C1362 1.395 . S
C1360 C1363 1.403 . S
H1361 C1367 0.930 . S
C1362 H1348 0.930 . S
C1362 C1360 1.395 . S
C1362 C1365 1.403 . S
C1363 C1360 1.403 . S
C1363 C1364 1.524 . S
C1363 C1367 1.400 . S
C1364 H1349 0.960 . S
C1364 H1350 0.960 . S
C1364 H1351 0.960 . S
C1364 C1363 1.524 . S
C1365 C1362 1.403 . S
C1365 C1366 1.392 . S
C1365 C1369 1.495 . S
C1366 C1365 1.392 . S
C1366 C1367 1.385 . S
C1366 C1368 1.478 . S
C1367 H1361 0.930 . S
C1367 C1363 1.400 . S
C1367 C1366 1.385 . S
C1368 C1366 1.478 . S
C1368 C1370 1.381 . S
C1368 C1374 1.383 . S
C1369 C1365 1.495 . S
C1369 H1375 0.959 . S
C1369 H1376 0.961 . S
C1369 H1377 0.960 . S
C1370 C1368 1.381 . S
C1370 C1371 1.394 . S
C1370 H1378 0.930 . S
C1371 C1370 1.394 . S
C1371 C1372 1.383 . S
C1371 H1379 0.929 . S
C1372 C1371 1.383 . S
C1372 C1373 1.377 . S
C1373 H1357 0.930 . S
C1373 C1372 1.377 . S
C1373 C1374 1.379 . S
C1374 H1358 0.931 . S
C1374 C1368 1.383 . S
C1374 C1373 1.379 . S
H1375 C1369 0.959 . S
H1376 C1369 0.961 . S
H1377 C1369 0.960 . S
H1378 C1370 0.930 . S
H1379 C1371 0.929 . S
H1380 C1388 0.929 . S
H1381 C1390 0.930 . S
H1382 C1392 0.930 . S
H1383 C1395 0.929 . S
H1384 C1398 0.930 . S
H1385 C1400 0.960 . S
H1386 C1400 0.960 . S
H1387 C1400 0.960 . S
C1388 H1380 0.929 . S
C1388 C1389 1.377 . S
C1388 C1390 1.384 . S
C1389 C1388 1.377 . S
C1389 C1395 1.390 . S
C1390 H1381 0.930 . S
C1390 C1388 1.384 . S
C1390 C1391 1.372 . S
C1391 C1390 1.372 . S
C1391 C1392 1.400 . S
C1391 C1396 1.490 . S
C1392 H1382 0.930 . S
C1392 C1391 1.400 . S
C1392 C1395 1.386 . S
H1393 C1409 0.930 . S
H1394 C1410 0.931 . S
C1395 H1383 0.929 . S
C1395 C1389 1.390 . S
C1395 C1392 1.386 . S
C1396 C1391 1.490 . S
C1396 C1398 1.395 . S
C1396 C1399 1.403 . S
H1397 C1403 0.930 . S
C1398 H1384 0.930 . S
C1398 C1396 1.395 . S
C1398 C1401 1.403 . S
C1399 C1396 1.403 . S
C1399 C1400 1.524 . S
C1399 C1403 1.400 . S
C1400 H1385 0.960 . S
C1400 H1386 0.960 . S
C1400 H1387 0.960 . S
C1400 C1399 1.524 . S
C1401 C1398 1.403 . S
C1401 C1402 1.392 . S
C1401 C1405 1.495 . S
C1402 C1401 1.392 . S
C1402 C1403 1.385 . S
C1402 C1404 1.478 . S
C1403 H1397 0.930 . S
C1403 C1399 1.400 . S
C1403 C1402 1.385 . S
C1404 C1402 1.478 . S
C1404 C1406 1.381 . S
C1404 C1410 1.383 . S
C1405 C1401 1.495 . S
C1405 H1411 0.959 . S
C1405 H1412 0.961 . S
C1405 H1413 0.960 . S
C1406 C1404 1.381 . S
C1406 C1407 1.394 . S
C1406 H1414 0.930 . S
C1407 C1406 1.394 . S
C1407 C1408 1.383 . S
C1407 H1415 0.929 . S
C1408 C1407 1.383 . S
C1408 C1409 1.377 . S
C1409 H1393 0.930 . S
C1409 C1408 1.377 . S
C1409 C1410 1.379 . S
C1410 H1394 0.931 . S
C1410 C1404 1.383 . S
C1410 C1409 1.379 . S
H1411 C1405 0.959 . S
H1412 C1405 0.961 . S
H1413 C1405 0.960 . S
H1414 C1406 0.930 . S
H1415 C1407 0.929 . S
H1416 C1424 0.929 . S
H1417 C1426 0.930 . S
H1418 C1428 0.930 . S
H1419 C1431 0.929 . S
H1420 C1434 0.930 . S
H1421 C1436 0.960 . S
H1422 C1436 0.960 . S
H1423 C1436 0.960 . S
C1424 H1416 0.929 . S
C1424 C1425 1.377 . S
C1424 C1426 1.384 . S
C1425 C1424 1.377 . S
C1425 C1431 1.390 . S
C1426 H1417 0.930 . S
C1426 C1424 1.384 . S
C1426 C1427 1.372 . S
C1427 C1426 1.372 . S
C1427 C1428 1.400 . S
C1427 C1432 1.490 . S
C1428 H1418 0.930 . S
C1428 C1427 1.400 . S
C1428 C1431 1.386 . S
H1429 C1445 0.930 . S
H1430 C1446 0.931 . S
C1431 H1419 0.929 . S
C1431 C1425 1.390 . S
C1431 C1428 1.386 . S
C1432 C1427 1.490 . S
C1432 C1434 1.395 . S
C1432 C1435 1.403 . S
H1433 C1439 0.930 . S
C1434 H1420 0.930 . S
C1434 C1432 1.395 . S
C1434 C1437 1.403 . S
C1435 C1432 1.403 . S
C1435 C1436 1.524 . S
C1435 C1439 1.400 . S
C1436 H1421 0.960 . S
C1436 H1422 0.960 . S
C1436 H1423 0.960 . S
C1436 C1435 1.524 . S
C1437 C1434 1.403 . S
C1437 C1438 1.392 . S
C1437 C1441 1.495 . S
C1438 C1437 1.392 . S
C1438 C1439 1.385 . S
C1438 C1440 1.478 . S
C1439 H1433 0.930 . S
C1439 C1435 1.400 . S
C1439 C1438 1.385 . S
C1440 C1438 1.478 . S
C1440 C1442 1.381 . S
C1440 C1446 1.383 . S
C1441 C1437 1.495 . S
C1441 H1447 0.959 . S
C1441 H1448 0.961 . S
C1441 H1449 0.960 . S
C1442 C1440 1.381 . S
C1442 C1443 1.394 . S
C1442 H1450 0.930 . S
C1443 C1442 1.394 . S
C1443 C1444 1.383 . S
C1443 H1451 0.929 . S
C1444 C1443 1.383 . S
C1444 C1445 1.377 . S
C1445 H1429 0.930 . S
C1445 C1444 1.377 . S
C1445 C1446 1.379 . S
C1446 H1430 0.931 . S
C1446 C1440 1.383 . S
C1446 C1445 1.379 . S
H1447 C1441 0.959 . S
H1448 C1441 0.961 . S
H1449 C1441 0.960 . S
H1450 C1442 0.930 . S
H1451 C1443 0.929 . S
H1452 C1460 0.929 . S
H1453 C1462 0.930 . S
H1454 C1464 0.930 . S
H1455 C1467 0.929 . S
H1456 C1470 0.930 . S
H1457 C1472 0.960 . S
H1458 C1472 0.960 . S
H1459 C1472 0.960 . S
C1460 H1452 0.929 . S
C1460 C1461 1.377 . S
C1460 C1462 1.384 . S
C1461 C1460 1.377 . S
C1461 C1467 1.390 . S
C1462 H1453 0.930 . S
C1462 C1460 1.384 . S
C1462 C1463 1.372 . S
C1463 C1462 1.372 . S
C1463 C1464 1.400 . S
C1463 C1468 1.490 . S
C1464 H1454 0.930 . S
C1464 C1463 1.400 . S
C1464 C1467 1.386 . S
H1465 C1481 0.930 . S
H1466 C1482 0.931 . S
C1467 H1455 0.929 . S
C1467 C1461 1.390 . S
C1467 C1464 1.386 . S
C1468 C1463 1.490 . S
C1468 C1470 1.395 . S
C1468 C1471 1.403 . S
H1469 C1475 0.930 . S
C1470 H1456 0.930 . S
C1470 C1468 1.395 . S
C1470 C1473 1.403 . S
C1471 C1468 1.403 . S
C1471 C1472 1.524 . S
C1471 C1475 1.400 . S
C1472 H1457 0.960 . S
C1472 H1458 0.960 . S
C1472 H1459 0.960 . S
C1472 C1471 1.524 . S
C1473 C1470 1.403 . S
C1473 C1474 1.392 . S
C1473 C1477 1.495 . S
C1474 C1473 1.392 . S
C1474 C1475 1.385 . S
C1474 C1476 1.478 . S
C1475 H1469 0.930 . S
C1475 C1471 1.400 . S
C1475 C1474 1.385 . S
C1476 C1474 1.478 . S
C1476 C1478 1.381 . S
C1476 C1482 1.383 . S
C1477 C1473 1.495 . S
C1477 H1483 0.959 . S
C1477 H1484 0.961 . S
C1477 H1485 0.960 . S
C1478 C1476 1.381 . S
C1478 C1479 1.394 . S
C1478 H1486 0.930 . S
C1479 C1478 1.394 . S
C1479 C1480 1.383 . S
C1479 H1487 0.929 . S
C1480 C1479 1.383 . S
C1480 C1481 1.377 . S
C1481 H1465 0.930 . S
C1481 C1480 1.377 . S
C1481 C1482 1.379 . S
C1482 H1466 0.931 . S
C1482 C1476 1.383 . S
C1482 C1481 1.379 . S
H1483 C1477 0.959 . S
H1484 C1477 0.961 . S
H1485 C1477 0.960 . S
H1486 C1478 0.930 . S
H1487 C1479 0.929 . S
H1488 C1496 0.929 . S
H1489 C1498 0.930 . S
H1490 C1500 0.930 . S
H1491 C1503 0.929 . S
H1492 C1506 0.930 . S
H1493 C1508 0.960 . S
H1494 C1508 0.960 . S
H1495 C1508 0.960 . S
C1496 H1488 0.929 . S
C1496 C1497 1.377 . S
C1496 C1498 1.384 . S
C1497 C1496 1.377 . S
C1497 C1503 1.390 . S
C1498 H1489 0.930 . S
C1498 C1496 1.384 . S
C1498 C1499 1.372 . S
C1499 C1498 1.372 . S
C1499 C1500 1.400 . S
C1499 C1504 1.490 . S
C1500 H1490 0.930 . S
C1500 C1499 1.400 . S
C1500 C1503 1.386 . S
H1501 C1517 0.930 . S
H1502 C1518 0.931 . S
C1503 H1491 0.929 . S
C1503 C1497 1.390 . S
C1503 C1500 1.386 . S
C1504 C1499 1.490 . S
C1504 C1506 1.395 . S
C1504 C1507 1.403 . S
H1505 C1511 0.930 . S
C1506 H1492 0.930 . S
C1506 C1504 1.395 . S
C1506 C1509 1.403 . S
C1507 C1504 1.403 . S
C1507 C1508 1.524 . S
C1507 C1511 1.400 . S
C1508 H1493 0.960 . S
C1508 H1494 0.960 . S
C1508 H1495 0.960 . S
C1508 C1507 1.524 . S
C1509 C1506 1.403 . S
C1509 C1510 1.392 . S
C1509 C1513 1.495 . S
C1510 C1509 1.392 . S
C1510 C1511 1.385 . S
C1510 C1512 1.478 . S
C1511 H1505 0.930 . S
C1511 C1507 1.400 . S
C1511 C1510 1.385 . S
C1512 C1510 1.478 . S
C1512 C1514 1.381 . S
C1512 C1518 1.383 . S
C1513 C1509 1.495 . S
C1513 H1519 0.959 . S
C1513 H1520 0.961 . S
C1513 H1521 0.960 . S
C1514 C1512 1.381 . S
C1514 C1515 1.394 . S
C1514 H1522 0.930 . S
C1515 C1514 1.394 . S
C1515 C1516 1.383 . S
C1515 H1523 0.929 . S
C1516 C1515 1.383 . S
C1516 C1517 1.377 . S
C1517 H1501 0.930 . S
C1517 C1516 1.377 . S
C1517 C1518 1.379 . S
C1518 H1502 0.931 . S
C1518 C1512 1.383 . S
C1518 C1517 1.379 . S
H1519 C1513 0.959 . S
H1520 C1513 0.961 . S
H1521 C1513 0.960 . S
H1522 C1514 0.930 . S
H1523 C1515 0.929 . S
H1524 C1532 0.929 . S
H1525 C1534 0.930 . S
H1526 C1536 0.930 . S
H1527 C1539 0.929 . S
H1528 C1542 0.930 . S
H1529 C1544 0.960 . S
H1530 C1544 0.960 . S
H1531 C1544 0.960 . S
C1532 H1524 0.929 . S
C1532 C1533 1.377 . S
C1532 C1534 1.384 . S
C1533 C1532 1.377 . S
C1533 C1539 1.390 . S
C1534 H1525 0.930 . S
C1534 C1532 1.384 . S
C1534 C1535 1.372 . S
C1535 C1534 1.372 . S
C1535 C1536 1.400 . S
C1535 C1540 1.490 . S
C1536 H1526 0.930 . S
C1536 C1535 1.400 . S
C1536 C1539 1.386 . S
H1537 C1553 0.930 . S
H1538 C1554 0.931 . S
C1539 H1527 0.929 . S
C1539 C1533 1.390 . S
C1539 C1536 1.386 . S
C1540 C1535 1.490 . S
C1540 C1542 1.395 . S
C1540 C1543 1.403 . S
H1541 C1547 0.930 . S
C1542 H1528 0.930 . S
C1542 C1540 1.395 . S
C1542 C1545 1.403 . S
C1543 C1540 1.403 . S
C1543 C1544 1.524 . S
C1543 C1547 1.400 . S
C1544 H1529 0.960 . S
C1544 H1530 0.960 . S
C1544 H1531 0.960 . S
C1544 C1543 1.524 . S
C1545 C1542 1.403 . S
C1545 C1546 1.392 . S
C1545 C1549 1.495 . S
C1546 C1545 1.392 . S
C1546 C1547 1.385 . S
C1546 C1548 1.478 . S
C1547 H1541 0.930 . S
C1547 C1543 1.400 . S
C1547 C1546 1.385 . S
C1548 C1546 1.478 . S
C1548 C1550 1.381 . S
C1548 C1554 1.383 . S
C1549 C1545 1.495 . S
C1549 H1555 0.959 . S
C1549 H1556 0.961 . S
C1549 H1557 0.960 . S
C1550 C1548 1.381 . S
C1550 C1551 1.394 . S
C1550 H1558 0.930 . S
C1551 C1550 1.394 . S
C1551 C1552 1.383 . S
C1551 H1559 0.929 . S
C1552 C1551 1.383 . S
C1552 C1553 1.377 . S
C1553 H1537 0.930 . S
C1553 C1552 1.377 . S
C1553 C1554 1.379 . S
C1554 H1538 0.931 . S
C1554 C1548 1.383 . S
C1554 C1553 1.379 . S
H1555 C1549 0.959 . S
H1556 C1549 0.961 . S
H1557 C1549 0.960 . S
H1558 C1550 0.930 . S
H1559 C1551 0.929 . S
H1560 C1568 0.929 . S
H1561 C1570 0.930 . S
H1562 C1572 0.930 . S
H1563 C1575 0.929 . S
H1564 C1578 0.930 . S
H1565 C1580 0.960 . S
H1566 C1580 0.960 . S
H1567 C1580 0.960 . S
C1568 H1560 0.929 . S
C1568 C1569 1.377 . S
C1568 C1570 1.384 . S
C1569 C1568 1.377 . S
C1569 C1575 1.390 . S
C1570 H1561 0.930 . S
C1570 C1568 1.384 . S
C1570 C1571 1.372 . S
C1571 C1570 1.372 . S
C1571 C1572 1.400 . S
C1571 C1576 1.490 . S
C1572 H1562 0.930 . S
C1572 C1571 1.400 . S
C1572 C1575 1.386 . S
H1573 C1589 0.930 . S
H1574 C1590 0.931 . S
C1575 H1563 0.929 . S
C1575 C1569 1.390 . S
C1575 C1572 1.386 . S
C1576 C1571 1.490 . S
C1576 C1578 1.395 . S
C1576 C1579 1.403 . S
H1577 C1583 0.930 . S
C1578 H1564 0.930 . S
C1578 C1576 1.395 . S
C1578 C1581 1.403 . S
C1579 C1576 1.403 . S
C1579 C1580 1.524 . S
C1579 C1583 1.400 . S
C1580 H1565 0.960 . S
C1580 H1566 0.960 . S
C1580 H1567 0.960 . S
C1580 C1579 1.524 . S
C1581 C1578 1.403 . S
C1581 C1582 1.392 . S
C1581 C1585 1.495 . S
C1582 C1581 1.392 . S
C1582 C1583 1.385 . S
C1582 C1584 1.478 . S
C1583 H1577 0.930 . S
C1583 C1579 1.400 . S
C1583 C1582 1.385 . S
C1584 C1582 1.478 . S
C1584 C1586 1.381 . S
C1584 C1590 1.383 . S
C1585 C1581 1.495 . S
C1585 H1591 0.959 . S
C1585 H1592 0.961 . S
C1585 H1593 0.960 . S
C1586 C1584 1.381 . S
C1586 C1587 1.394 . S
C1586 H1594 0.930 . S
C1587 C1586 1.394 . S
C1587 C1588 1.383 . S
C1587 H1595 0.929 . S
C1588 C1587 1.383 . S
C1588 C1589 1.377 . S
C1589 H1573 0.930 . S
C1589 C1588 1.377 . S
C1589 C1590 1.379 . S
C1590 H1574 0.931 . S
C1590 C1584 1.383 . S
C1590 C1589 1.379 . S
H1591 C1585 0.959 . S
H1592 C1585 0.961 . S
H1593 C1585 0.960 . S
H1594 C1586 0.930 . S
H1595 C1587 0.929 . S
H1596 C1604 0.929 . S
H1597 C1606 0.930 . S
H1598 C1608 0.930 . S
H1599 C1611 0.929 . S
H1600 C1614 0.930 . S
H1601 C1616 0.960 . S
H1602 C1616 0.960 . S
H1603 C1616 0.960 . S
C1604 H1596 0.929 . S
C1604 C1605 1.377 . S
C1604 C1606 1.384 . S
C1605 C1604 1.377 . S
C1605 C1611 1.390 . S
C1606 H1597 0.930 . S
C1606 C1604 1.384 . S
C1606 C1607 1.372 . S
C1607 C1606 1.372 . S
C1607 C1608 1.400 . S
C1607 C1612 1.490 . S
C1608 H1598 0.930 . S
C1608 C1607 1.400 . S
C1608 C1611 1.386 . S
H1609 C1625 0.930 . S
H1610 C1626 0.931 . S
C1611 H1599 0.929 . S
C1611 C1605 1.390 . S
C1611 C1608 1.386 . S
C1612 C1607 1.490 . S
C1612 C1614 1.395 . S
C1612 C1615 1.403 . S
H1613 C1619 0.930 . S
C1614 H1600 0.930 . S
C1614 C1612 1.395 . S
C1614 C1617 1.403 . S
C1615 C1612 1.403 . S
C1615 C1616 1.524 . S
C1615 C1619 1.400 . S
C1616 H1601 0.960 . S
C1616 H1602 0.960 . S
C1616 H1603 0.960 . S
C1616 C1615 1.524 . S
C1617 C1614 1.403 . S
C1617 C1618 1.392 . S
C1617 C1621 1.495 . S
C1618 C1617 1.392 . S
C1618 C1619 1.385 . S
C1618 C1620 1.478 . S
C1619 H1613 0.930 . S
C1619 C1615 1.400 . S
C1619 C1618 1.385 . S
C1620 C1618 1.478 . S
C1620 C1622 1.381 . S
C1620 C1626 1.383 . S
C1621 C1617 1.495 . S
C1621 H1627 0.959 . S
C1621 H1628 0.961 . S
C1621 H1629 0.960 . S
C1622 C1620 1.381 . S
C1622 C1623 1.394 . S
C1622 H1630 0.930 . S
C1623 C1622 1.394 . S
C1623 C1624 1.383 . S
C1623 H1631 0.929 . S
C1624 C1623 1.383 . S
C1624 C1625 1.377 . S
C1625 H1609 0.930 . S
C1625 C1624 1.377 . S
C1625 C1626 1.379 . S
C1626 H1610 0.931 . S
C1626 C1620 1.383 . S
C1626 C1625 1.379 . S
H1627 C1621 0.959 . S
H1628 C1621 0.961 . S
H1629 C1621 0.960 . S
H1630 C1622 0.930 . S
H1631 C1623 0.929 . S
H1632 C1640 0.929 . S
H1633 C1642 0.930 . S
H1634 C1644 0.930 . S
H1635 C1647 0.929 . S
H1636 C1650 0.930 . S
H1637 C1652 0.960 . S
H1638 C1652 0.960 . S
H1639 C1652 0.960 . S
C1640 H1632 0.929 . S
C1640 C1641 1.377 . S
C1640 C1642 1.384 . S
C1641 C1640 1.377 . S
C1641 C1647 1.390 . S
C1642 H1633 0.930 . S
C1642 C1640 1.384 . S
C1642 C1643 1.372 . S
C1643 C1642 1.372 . S
C1643 C1644 1.400 . S
C1643 C1648 1.490 . S
C1644 H1634 0.930 . S
C1644 C1643 1.400 . S
C1644 C1647 1.386 . S
H1645 C1661 0.930 . S
H1646 C1662 0.931 . S
C1647 H1635 0.929 . S
C1647 C1641 1.390 . S
C1647 C1644 1.386 . S
C1648 C1643 1.490 . S
C1648 C1650 1.395 . S
C1648 C1651 1.403 . S
H1649 C1655 0.930 . S
C1650 H1636 0.930 . S
C1650 C1648 1.395 . S
C1650 C1653 1.403 . S
C1651 C1648 1.403 . S
C1651 C1652 1.524 . S
C1651 C1655 1.400 . S
C1652 H1637 0.960 . S
C1652 H1638 0.960 . S
C1652 H1639 0.960 . S
C1652 C1651 1.524 . S
C1653 C1650 1.403 . S
C1653 C1654 1.392 . S
C1653 C1657 1.495 . S
C1654 C1653 1.392 . S
C1654 C1655 1.385 . S
C1654 C1656 1.478 . S
C1655 H1649 0.930 . S
C1655 C1651 1.400 . S
C1655 C1654 1.385 . S
C1656 C1654 1.478 . S
C1656 C1658 1.381 . S
C1656 C1662 1.383 . S
C1657 C1653 1.495 . S
C1657 H1663 0.959 . S
C1657 H1664 0.961 . S
C1657 H1665 0.960 . S
C1658 C1656 1.381 . S
C1658 C1659 1.394 . S
C1658 H1666 0.930 . S
C1659 C1658 1.394 . S
C1659 C1660 1.383 . S
C1659 H1667 0.929 . S
C1660 C1659 1.383 . S
C1660 C1661 1.377 . S
C1661 H1645 0.930 . S
C1661 C1660 1.377 . S
C1661 C1662 1.379 . S
C1662 H1646 0.931 . S
C1662 C1656 1.383 . S
C1662 C1661 1.379 . S
H1663 C1657 0.959 . S
H1664 C1657 0.961 . S
H1665 C1657 0.960 . S
H1666 C1658 0.930 . S
H1667 C1659 0.929 . S
H1668 C1676 0.929 . S
H1669 C1678 0.930 . S
H1670 C1680 0.930 . S
H1671 C1683 0.929 . S
H1672 C1686 0.930 . S
H1673 C1688 0.960 . S
H1674 C1688 0.960 . S
H1675 C1688 0.960 . S
C1676 H1668 0.929 . S
C1676 C1677 1.377 . S
C1676 C1678 1.384 . S
C1677 C1676 1.377 . S
C1677 C1683 1.390 . S
C1678 H1669 0.930 . S
C1678 C1676 1.384 . S
C1678 C1679 1.372 . S
C1679 C1678 1.372 . S
C1679 C1680 1.400 . S
C1679 C1684 1.490 . S
C1680 H1670 0.930 . S
C1680 C1679 1.400 . S
C1680 C1683 1.386 . S
H1681 C1697 0.930 . S
H1682 C1698 0.931 . S
C1683 H1671 0.929 . S
C1683 C1677 1.390 . S
C1683 C1680 1.386 . S
C1684 C1679 1.490 . S
C1684 C1686 1.395 . S
C1684 C1687 1.403 . S
H1685 C1691 0.930 . S
C1686 H1672 0.930 . S
C1686 C1684 1.395 . S
C1686 C1689 1.403 . S
C1687 C1684 1.403 . S
C1687 C1688 1.524 . S
C1687 C1691 1.400 . S
C1688 H1673 0.960 . S
C1688 H1674 0.960 . S
C1688 H1675 0.960 . S
C1688 C1687 1.524 . S
C1689 C1686 1.403 . S
C1689 C1690 1.392 . S
C1689 C1693 1.495 . S
C1690 C1689 1.392 . S
C1690 C1691 1.385 . S
C1690 C1692 1.478 . S
C1691 H1685 0.930 . S
C1691 C1687 1.400 . S
C1691 C1690 1.385 . S
C1692 C1690 1.478 . S
C1692 C1694 1.381 . S
C1692 C1698 1.383 . S
C1693 C1689 1.495 . S
C1693 H1699 0.959 . S
C1693 H1700 0.961 . S
C1693 H1701 0.960 . S
C1694 C1692 1.381 . S
C1694 C1695 1.394 . S
C1694 H1702 0.930 . S
C1695 C1694 1.394 . S
C1695 C1696 1.383 . S
C1695 H1703 0.929 . S
C1696 C1695 1.383 . S
C1696 C1697 1.377 . S
C1697 H1681 0.930 . S
C1697 C1696 1.377 . S
C1697 C1698 1.379 . S
C1698 H1682 0.931 . S
C1698 C1692 1.383 . S
C1698 C1697 1.379 . S
H1699 C1693 0.959 . S
H1700 C1693 0.961 . S
H1701 C1693 0.960 . S
H1702 C1694 0.930 . S
H1703 C1695 0.929 . S
H1704 C1712 0.929 . S
H1705 C1714 0.930 . S
H1706 C1716 0.930 . S
H1707 C1719 0.929 . S
H1708 C1722 0.930 . S
H1709 C1724 0.960 . S
H1710 C1724 0.960 . S
H1711 C1724 0.960 . S
C1712 H1704 0.929 . S
C1712 C1713 1.377 . S
C1712 C1714 1.384 . S
C1713 C1712 1.377 . S
C1713 C1719 1.390 . S
C1714 H1705 0.930 . S
C1714 C1712 1.384 . S
C1714 C1715 1.372 . S
C1715 C1714 1.372 . S
C1715 C1716 1.400 . S
C1715 C1720 1.490 . S
C1716 H1706 0.930 . S
C1716 C1715 1.400 . S
C1716 C1719 1.386 . S
H1717 C1733 0.930 . S
H1718 C1734 0.931 . S
C1719 H1707 0.929 . S
C1719 C1713 1.390 . S
C1719 C1716 1.386 . S
C1720 C1715 1.490 . S
C1720 C1722 1.395 . S
C1720 C1723 1.403 . S
H1721 C1727 0.930 . S
C1722 H1708 0.930 . S
C1722 C1720 1.395 . S
C1722 C1725 1.403 . S
C1723 C1720 1.403 . S
C1723 C1724 1.524 . S
C1723 C1727 1.400 . S
C1724 H1709 0.960 . S
C1724 H1710 0.960 . S
C1724 H1711 0.960 . S
C1724 C1723 1.524 . S
C1725 C1722 1.403 . S
C1725 C1726 1.392 . S
C1725 C1729 1.495 . S
C1726 C1725 1.392 . S
C1726 C1727 1.385 . S
C1726 C1728 1.478 . S
C1727 H1721 0.930 . S
C1727 C1723 1.400 . S
C1727 C1726 1.385 . S
C1728 C1726 1.478 . S
C1728 C1730 1.381 . S
C1728 C1734 1.383 . S
C1729 C1725 1.495 . S
C1729 H1735 0.959 . S
C1729 H1736 0.961 . S
C1729 H1737 0.960 . S
C1730 C1728 1.381 . S
C1730 C1731 1.394 . S
C1730 H1738 0.930 . S
C1731 C1730 1.394 . S
C1731 C1732 1.383 . S
C1731 H1739 0.929 . S
C1732 C1731 1.383 . S
C1732 C1733 1.377 . S
C1733 H1717 0.930 . S
C1733 C1732 1.377 . S
C1733 C1734 1.379 . S
C1734 H1718 0.931 . S
C1734 C1728 1.383 . S
C1734 C1733 1.379 . S
H1735 C1729 0.959 . S
H1736 C1729 0.961 . S
H1737 C1729 0.960 . S
H1738 C1730 0.930 . S
H1739 C1731 0.929 . S
H1740 C1748 0.929 . S
H1741 C1750 0.930 . S
H1742 C1752 0.930 . S
H1743 C1755 0.929 . S
H1744 C1758 0.930 . S
H1745 C1760 0.960 . S
H1746 C1760 0.960 . S
H1747 C1760 0.960 . S
C1748 H1740 0.929 . S
C1748 C1749 1.377 . S
C1748 C1750 1.384 . S
C1749 C1748 1.377 . S
C1749 C1755 1.390 . S
C1750 H1741 0.930 . S
C1750 C1748 1.384 . S
C1750 C1751 1.372 . S
C1751 C1750 1.372 . S
C1751 C1752 1.400 . S
C1751 C1756 1.490 . S
C1752 H1742 0.930 . S
C1752 C1751 1.400 . S
C1752 C1755 1.386 . S
H1753 C1769 0.930 . S
H1754 C1770 0.931 . S
C1755 H1743 0.929 . S
C1755 C1749 1.390 . S
C1755 C1752 1.386 . S
C1756 C1751 1.490 . S
C1756 C1758 1.395 . S
C1756 C1759 1.403 . S
H1757 C1763 0.930 . S
C1758 H1744 0.930 . S
C1758 C1756 1.395 . S
C1758 C1761 1.403 . S
C1759 C1756 1.403 . S
C1759 C1760 1.524 . S
C1759 C1763 1.400 . S
C1760 H1745 0.960 . S
C1760 H1746 0.960 . S
C1760 H1747 0.960 . S
C1760 C1759 1.524 . S
C1761 C1758 1.403 . S
C1761 C1762 1.392 . S
C1761 C1765 1.495 . S
C1762 C1761 1.392 . S
C1762 C1763 1.385 . S
C1762 C1764 1.478 . S
C1763 H1757 0.930 . S
C1763 C1759 1.400 . S
C1763 C1762 1.385 . S
C1764 C1762 1.478 . S
C1764 C1766 1.381 . S
C1764 C1770 1.383 . S
C1765 C1761 1.495 . S
C1765 H1771 0.959 . S
C1765 H1772 0.961 . S
C1765 H1773 0.960 . S
C1766 C1764 1.381 . S
C1766 C1767 1.394 . S
C1766 H1774 0.930 . S
C1767 C1766 1.394 . S
C1767 C1768 1.383 . S
C1767 H1775 0.929 . S
C1768 C1767 1.383 . S
C1768 C1769 1.377 . S
C1769 H1753 0.930 . S
C1769 C1768 1.377 . S
C1769 C1770 1.379 . S
C1770 H1754 0.931 . S
C1770 C1764 1.383 . S
C1770 C1769 1.379 . S
H1771 C1765 0.959 . S
H1772 C1765 0.961 . S
H1773 C1765 0.960 . S
H1774 C1766 0.930 . S
H1775 C1767 0.929 . S
C489 C95 1.227 . S
C508 C19 1.176 . S
C525 C126 1.230 . S
C544 C50 1.189 . S
C561 C99 1.199 . S
C580 C175 1.219 . S
C597 C130 1.204 . S
C616 C206 1.219 . S
C633 C15 1.229 . S
C652 C179 1.221 . S
C669 C46 1.227 . S
C688 C210 1.220 . S
C705 C406 1.229 . S
C724 C250 1.178 . S
C741 C299 1.205 . S
C760 C455 1.230 . S
C777 C330 1.199 . S
C796 C246 1.225 . S
C813 C379 1.207 . S
C832 C295 1.226 . S
C849 C410 1.210 . S
C868 C326 1.223 . S
C885 C375 1.227 . S
C904 C459 1.177 . S
C921 C129 1.739 . S
C940 C18 1.710 . S
C957 C49 1.736 . S
C976 C178 1.720 . S
C993 C98 1.739 . S
C1012 C209 1.710 . S
C1029 C249 1.745 . S
C1048 C378 1.719 . S
C1065 C298 1.733 . S
C1084 C409 1.755 . S
C1101 C329 1.735 . S
C1120 C458 1.764 . S
C1137 C289 2.256 . S
C1156 C9 2.248 . S
C1173 C58 2.256 . S
C1192 C338 2.254 . S
C1209 C369 2.256 . S
C1228 C89 2.255 . S
C1245 C138 2.256 . S
C1264 C418 2.249 . S
C1281 C169 2.255 . S
C1300 C449 2.253 . S
C1317 C258 2.256 . S
C1336 C218 2.253 . S
C1353 C86 1.748 . S
C1372 C10 1.749 . S
C1389 C59 1.762 . S
C1408 C135 1.760 . S
C1425 C90 1.762 . S
C1444 C166 1.743 . S
C1461 C139 1.761 . S
C1480 C215 1.753 . S
C1497 C6 1.746 . S
C1516 C170 1.756 . S
C1533 C55 1.748 . S
C1552 C219 1.752 . S
C1569 C415 1.748 . S
C1588 C259 1.752 . S
C1605 C290 1.759 . S
C1624 C446 1.739 . S
C1641 C339 1.762 . S
C1660 C255 1.760 . S
C1677 C286 1.752 . S
C1696 C370 1.746 . S
C1713 C419 1.760 . S
C1732 C335 1.747 . S
C1749 C450 1.758 . S
C1768 C366 1.759 . S
