# Generated by pormake.
# Topology umh, (4)-cn, num edge types: 1
# Building blocks:
#     Node 0, Type 0, BuildingBlock: NAWXER_clean_sbu_0, # of connection points: 4
#     Node 1, Type 0, BuildingBlock: NAWXER_clean_sbu_0, # of connection points: 4
#     Node 2, Type 0, BuildingBlock: NAWXER_clean_sbu_0, # of connection points: 4
#     Node 3, Type 0, BuildingBlock: NAWXER_clean_sbu_0, # of connection points: 4
#     Node 4, Type 0, BuildingBlock: NAWXER_clean_sbu_0, # of connection points: 4
#     Node 5, Type 0, BuildingBlock: NAWXER_clean_sbu_0, # of connection points: 4
#     Node 6, Type 0, BuildingBlock: NAWXER_clean_sbu_0, # of connection points: 4
#     Node 7, Type 0, BuildingBlock: NAWXER_clean_sbu_0, # of connection points: 4
#     Node 8, Type 0, BuildingBlock: NAWXER_clean_sbu_0, # of connection points: 4
#     Node 9, Type 0, BuildingBlock: NAWXER_clean_sbu_0, # of connection points: 4
#     Node 10, Type 0, BuildingBlock: NAWXER_clean_sbu_0, # of connection points: 4
#     Node 11, Type 0, BuildingBlock: NAWXER_clean_sbu_0, # of connection points: 4
#     Node 12, Type 0, BuildingBlock: NAWXER_clean_sbu_0, # of connection points: 4
#     Node 13, Type 0, BuildingBlock: NAWXER_clean_sbu_0, # of connection points: 4
#     Node 14, Type 0, BuildingBlock: NAWXER_clean_sbu_0, # of connection points: 4
#     Node 15, Type 0, BuildingBlock: NAWXER_clean_sbu_0, # of connection points: 4
#     Edge 16, Type (0, 0), BuildingBlock: TEMPAE_clean_linker_10, # of connection points: 2
#     Edge 17, Type (0, 0), BuildingBlock: TEMPAE_clean_linker_10, # of connection points: 2
#     Edge 18, Type (0, 0), BuildingBlock: TEMPAE_clean_linker_10, # of connection points: 2
#     Edge 19, Type (0, 0), BuildingBlock: TEMPAE_clean_linker_10, # of connection points: 2
#     Edge 20, Type (0, 0), BuildingBlock: TEMPAE_clean_linker_10, # of connection points: 2
#     Edge 21, Type (0, 0), BuildingBlock: TEMPAE_clean_linker_10, # of connection points: 2
#     Edge 22, Type (0, 0), BuildingBlock: TEMPAE_clean_linker_10, # of connection points: 2
#     Edge 23, Type (0, 0), BuildingBlock: TEMPAE_clean_linker_10, # of connection points: 2
#     Edge 24, Type (0, 0), BuildingBlock: TEMPAE_clean_linker_10, # of connection points: 2
#     Edge 25, Type (0, 0), BuildingBlock: TEMPAE_clean_linker_10, # of connection points: 2
#     Edge 26, Type (0, 0), BuildingBlock: TEMPAE_clean_linker_10, # of connection points: 2
#     Edge 27, Type (0, 0), BuildingBlock: TEMPAE_clean_linker_10, # of connection points: 2
#     Edge 28, Type (0, 0), BuildingBlock: TEMPAE_clean_linker_10, # of connection points: 2
#     Edge 29, Type (0, 0), BuildingBlock: TEMPAE_clean_linker_10, # of connection points: 2
#     Edge 30, Type (0, 0), BuildingBlock: TEMPAE_clean_linker_10, # of connection points: 2
#     Edge 31, Type (0, 0), BuildingBlock: TEMPAE_clean_linker_10, # of connection points: 2
#     Edge 32, Type (0, 0), BuildingBlock: TEMPAE_clean_linker_10, # of connection points: 2
#     Edge 33, Type (0, 0), BuildingBlock: TEMPAE_clean_linker_10, # of connection points: 2
#     Edge 34, Type (0, 0), BuildingBlock: TEMPAE_clean_linker_10, # of connection points: 2
#     Edge 35, Type (0, 0), BuildingBlock: TEMPAE_clean_linker_10, # of connection points: 2
#     Edge 36, Type (0, 0), BuildingBlock: TEMPAE_clean_linker_10, # of connection points: 2
#     Edge 37, Type (0, 0), BuildingBlock: TEMPAE_clean_linker_10, # of connection points: 2
#     Edge 38, Type (0, 0), BuildingBlock: TEMPAE_clean_linker_10, # of connection points: 2
#     Edge 39, Type (0, 0), BuildingBlock: TEMPAE_clean_linker_10, # of connection points: 2
#     Edge 40, Type (0, 0), BuildingBlock: TEMPAE_clean_linker_10, # of connection points: 2
#     Edge 41, Type (0, 0), BuildingBlock: TEMPAE_clean_linker_10, # of connection points: 2
#     Edge 42, Type (0, 0), BuildingBlock: TEMPAE_clean_linker_10, # of connection points: 2
#     Edge 43, Type (0, 0), BuildingBlock: TEMPAE_clean_linker_10, # of connection points: 2
#     Edge 44, Type (0, 0), BuildingBlock: TEMPAE_clean_linker_10, # of connection points: 2
#     Edge 45, Type (0, 0), BuildingBlock: TEMPAE_clean_linker_10, # of connection points: 2
#     Edge 46, Type (0, 0), BuildingBlock: TEMPAE_clean_linker_10, # of connection points: 2
#     Edge 47, Type (0, 0), BuildingBlock: TEMPAE_clean_linker_10, # of connection points: 2
# Relax obj value: 0.044
# Max RMSD: 0.109
# Mean RMSD: 0.109
data_MOF--net-umh--node1-NAWXER_clean_sbu_0--edge1-TEMPAE_clean_linker_10
_symmetry_space_group_name_H-M    P1
_symmetry_Int_Tables_number       1
_symmetry_cell_setting            triclinic
loop_
_symmetry_equiv_pos_as_xyz
'x, y, z'
_cell_length_a     41.395196
_cell_length_b     41.234204
_cell_length_c     54.562971
_cell_angle_alpha  89.938169
_cell_angle_beta   90.129376
_cell_angle_gamma 89.390918
loop_
_atom_site_label
_atom_site_type_symbol
_atom_site_fract_x
_atom_site_fract_y
_atom_site_fract_z
_atom_type_partial_charge
C0 C 0.34646 0.08689 0.10896 0.0
C1 C 0.30619 0.06527 0.19167 0.0
O2 O 0.36335 0.09995 0.12592 0.0
Zn3 Zn 0.36375 0.10334 0.16499 0.0
O4 O 0.32206 0.06993 0.11459 0.0
Zn5 Zn 0.32579 0.07472 0.14993 0.0
O6 O 0.31491 0.12535 0.1538 0.0
O7 O 0.35708 0.14954 0.17018 0.0
O8 O 0.29458 0.05478 0.17161 0.0
O9 O 0.33142 0.08303 0.19126 0.0
O10 O 0.40496 0.08329 0.17278 0.0
O11 O 0.36941 0.04845 0.15841 0.0
C12 C 0.32851 0.15115 0.16159 0.0
C13 C 0.39766 0.05449 0.1668 0.0
C14 C 0.43027 0.31268 0.69359 0.0
C15 C 0.40274 0.35286 0.61096 0.0
O16 O 0.41061 0.33683 0.69312 0.0
Zn17 Zn 0.3879 0.3687 0.66771 0.0
O18 O 0.44237 0.30243 0.67356 0.0
Zn19 Zn 0.41916 0.33245 0.65152 0.0
O20 O 0.44092 0.37828 0.65793 0.0
O21 O 0.40554 0.41054 0.67635 0.0
O22 O 0.42143 0.32896 0.61591 0.0
O23 O 0.38964 0.36903 0.62843 0.0
O24 O 0.34275 0.35876 0.67369 0.0
O25 O 0.37058 0.31841 0.65717 0.0
C26 C 0.43354 0.40578 0.66741 0.0
C27 C 0.34396 0.32982 0.66557 0.0
C28 C 0.22022 0.44589 0.17988 0.0
C29 C 0.19579 0.42909 0.09244 0.0
O30 O 0.19547 0.42836 0.1758 0.0
Zn31 Zn 0.16848 0.40996 0.14582 0.0
O32 O 0.23566 0.45751 0.16179 0.0
Zn33 Zn 0.20917 0.43833 0.13574 0.0
O34 O 0.16413 0.46469 0.13887 0.0
O35 O 0.12697 0.43017 0.15116 0.0
O36 O 0.21982 0.44422 0.10123 0.0
O37 O 0.17553 0.4158 0.107 0.0
O38 O 0.17336 0.36373 0.15091 0.0
O39 O 0.21886 0.38743 0.14045 0.0
C40 C 0.13491 0.45876 0.1451 0.0
C41 C 0.20342 0.36179 0.14637 0.0
C42 C 0.04862 0.12734 0.66444 0.0
C43 C 0.14783 0.18868 0.65716 0.0
O44 O 0.04433 0.15382 0.65242 0.0
Zn45 Zn 0.07281 0.19506 0.64227 0.0
O46 O 0.07619 0.1206 0.67345 0.0
Zn47 Zn 0.09873 0.15767 0.66113 0.0
O48 O 0.08174 0.19622 0.68375 0.0
O49 O 0.05505 0.23165 0.66105 0.0
O50 O 0.14459 0.16113 0.66734 0.0
O51 O 0.12338 0.20282 0.64726 0.0
O52 O 0.07042 0.19486 0.60683 0.0
O53 O 0.09681 0.15235 0.62181 0.0
C54 C 0.06617 0.2231 0.68187 0.0
C55 C 0.08572 0.16833 0.60337 0.0
C56 C 0.30479 0.43403 0.35267 0.0
C57 C 0.33883 0.41236 0.43785 0.0
O58 O 0.32998 0.41594 0.35494 0.0
Zn59 Zn 0.35989 0.39519 0.38273 0.0
O60 O 0.29081 0.44483 0.37182 0.0
Zn61 Zn 0.31992 0.42448 0.39588 0.0
O62 O 0.36361 0.44993 0.38939 0.0
O63 O 0.4012 0.41531 0.37673 0.0
O64 O 0.31414 0.42899 0.43137 0.0
O65 O 0.35686 0.39926 0.42152 0.0
O66 O 0.35348 0.34904 0.37721 0.0
O67 O 0.31004 0.37444 0.3912 0.0
C68 C 0.39257 0.44409 0.3823 0.0
C69 C 0.32416 0.34832 0.38413 0.0
C70 C 0.04603 0.36225 0.8982 0.0
C71 C 0.13512 0.28495 0.88653 0.0
O72 O 0.04598 0.33227 0.90365 0.0
Zn73 Zn 0.09001 0.32274 0.89335 0.0
O74 O 0.07117 0.37498 0.88872 0.0
Zn75 Zn 0.11852 0.36055 0.87744 0.0
O76 O 0.11715 0.36749 0.842 0.0
O77 O 0.08564 0.32794 0.8545 0.0
O78 O 0.14131 0.31378 0.87922 0.0
O79 O 0.10799 0.27907 0.89643 0.0
O80 O 0.11911 0.34924 0.91885 0.0
O81 O 0.14551 0.38706 0.89869 0.0
C82 C 0.09687 0.34539 0.83712 0.0
C83 C 0.13895 0.37292 0.91878 0.0
C84 C 0.0931 0.07392 0.37139 0.0
C85 C 0.17477 0.15735 0.38031 0.0
O86 O 0.11959 0.06294 0.38058 0.0
Zn87 Zn 0.16562 0.08153 0.39178 0.0
O88 O 0.08991 0.104 0.36674 0.0
Zn89 Zn 0.13268 0.11651 0.37677 0.0
O90 O 0.16315 0.09197 0.35083 0.0
O91 O 0.19485 0.05729 0.37053 0.0
O92 O 0.14609 0.16092 0.37226 0.0
O93 O 0.18426 0.12948 0.38807 0.0
O94 O 0.16673 0.07532 0.4272 0.0
O95 O 0.13024 0.11165 0.41567 0.0
C96 C 0.18568 0.07038 0.35051 0.0
C97 C 0.14443 0.09546 0.43268 0.0
C98 C 0.34049 0.15628 0.88142 0.0
C99 C 0.44618 0.10176 0.88108 0.0
O100 O 0.3636 0.1738 0.88946 0.0
Zn101 Zn 0.41472 0.17077 0.89503 0.0
O102 O 0.34669 0.12803 0.8732 0.0
Zn103 Zn 0.39306 0.1286 0.87957 0.0
O104 O 0.39424 0.13031 0.91882 0.0
O105 O 0.41671 0.17621 0.93037 0.0
O106 O 0.41953 0.09045 0.87341 0.0
O107 O 0.44721 0.13088 0.88919 0.0
O108 O 0.4316 0.20389 0.87336 0.0
O109 O 0.4099 0.16318 0.85324 0.0
C110 C 0.40351 0.14943 0.93588 0.0
C111 C 0.42414 0.19066 0.85311 0.0
C112 C 0.6212 0.85836 0.91583 0.0
C113 C 0.66387 0.89349 0.83654 0.0
O114 O 0.64472 0.87806 0.91739 0.0
Zn115 Zn 0.67537 0.9051 0.89441 0.0
O116 O 0.61046 0.84994 0.89495 0.0
Zn117 Zn 0.64089 0.87496 0.87522 0.0
O118 O 0.68631 0.8527 0.88298 0.0
O119 O 0.71766 0.88664 0.90315 0.0
O120 O 0.64112 0.87331 0.83963 0.0
O121 O 0.67766 0.90625 0.85521 0.0
O122 O 0.66267 0.94967 0.90243 0.0
O123 O 0.62558 0.92346 0.88122 0.0
C124 C 0.71331 0.859 0.89334 0.0
C125 C 0.63539 0.94934 0.89162 0.0
C126 C 0.63936 0.62187 0.42061 0.0
C127 C 0.61102 0.65968 0.33751 0.0
O128 O 0.61754 0.64409 0.42007 0.0
Zn129 Zn 0.58964 0.67059 0.39391 0.0
O130 O 0.6501 0.61014 0.40064 0.0
Zn131 Zn 0.62486 0.6377 0.37813 0.0
O132 O 0.64095 0.68535 0.38619 0.0
O133 O 0.60132 0.71506 0.40185 0.0
O134 O 0.63192 0.63778 0.34273 0.0
O135 O 0.59415 0.67248 0.35473 0.0
O136 O 0.54607 0.65474 0.39904 0.0
O137 O 0.57775 0.61882 0.3807 0.0
C138 C 0.63044 0.71251 0.39451 0.0
C139 C 0.55004 0.62716 0.38903 0.0
C140 C 0.82666 0.64484 0.89718 0.0
C141 C 0.87826 0.53824 0.89263 0.0
O142 O 0.85562 0.638 0.89133 0.0
Zn143 Zn 0.85184 0.59141 0.89322 0.0
O144 O 0.80689 0.62176 0.90155 0.0
Zn145 Zn 0.80788 0.56933 0.90273 0.0
O146 O 0.79563 0.56201 0.93644 0.0
O147 O 0.84383 0.58386 0.9321 0.0
O148 O 0.84846 0.53625 0.89884 0.0
O149 O 0.88988 0.56562 0.88699 0.0
O150 O 0.82136 0.58059 0.86247 0.0
O151 O 0.77812 0.55672 0.87693 0.0
C152 C 0.82149 0.57269 0.94596 0.0
C153 C 0.79396 0.56726 0.85873 0.0
C154 C 0.81364 0.85891 0.37822 0.0
C155 C 0.91652 0.90957 0.36247 0.0
O156 O 0.81877 0.88361 0.36489 0.0
Zn157 Zn 0.86528 0.88162 0.36757 0.0
O158 O 0.83754 0.84237 0.38681 0.0
Zn159 Zn 0.88952 0.84453 0.38674 0.0
O160 O 0.89674 0.84493 0.4212 0.0
O161 O 0.87143 0.88877 0.40717 0.0
O162 O 0.91994 0.88351 0.37511 0.0
O163 O 0.88915 0.91677 0.35337 0.0
O164 O 0.8771 0.83991 0.34537 0.0
O165 O 0.90351 0.80612 0.3695 0.0
C166 C 0.88347 0.87238 0.42513 0.0
C167 C 0.89176 0.81265 0.34859 0.0
C168 C 0.70363 0.56963 0.68614 0.0
C169 C 0.67767 0.57474 0.59838 0.0
O170 O 0.71612 0.55314 0.66884 0.0
Zn171 Zn 0.6903 0.57128 0.64233 0.0
O172 O 0.68077 0.58989 0.68124 0.0
Zn173 Zn 0.65454 0.60672 0.64933 0.0
O174 O 0.61084 0.59551 0.65611 0.0
O175 O 0.64256 0.55281 0.65028 0.0
O176 O 0.65978 0.59371 0.61126 0.0
O177 O 0.69891 0.55715 0.60894 0.0
O178 O 0.70653 0.62093 0.64129 0.0
O179 O 0.66413 0.65194 0.64951 0.0
C180 C 0.61459 0.56497 0.65514 0.0
C181 C 0.69395 0.64919 0.6445 0.0
C182 C 0.90267 0.66588 0.20162 0.0
C183 C 0.87286 0.62538 0.12027 0.0
O184 O 0.91788 0.67945 0.18401 0.0
Zn185 Zn 0.92181 0.67606 0.1451 0.0
O186 O 0.88408 0.64224 0.19703 0.0
Zn187 Zn 0.88911 0.64208 0.16148 0.0
O188 O 0.93629 0.62323 0.15506 0.0
O189 O 0.96626 0.66234 0.13977 0.0
O190 O 0.863 0.61417 0.14064 0.0
O191 O 0.8943 0.64758 0.11996 0.0
O192 O 0.90706 0.71915 0.13527 0.0
O193 O 0.86965 0.6889 0.1528 0.0
C194 C 0.96339 0.63316 0.14684 0.0
C195 C 0.87835 0.71574 0.14313 0.0
C196 C 0.83452 0.92887 0.59945 0.0
C197 C 0.78823 0.92885 0.68125 0.0
O198 O 0.80867 0.9427 0.60665 0.0
Zn199 Zn 0.81275 0.93111 0.64068 0.0
O200 O 0.85254 0.91367 0.6149 0.0
Zn201 Zn 0.85192 0.90285 0.65354 0.0
O202 O 0.85122 0.8563 0.65377 0.0
O203 O 0.80678 0.87911 0.63886 0.0
O204 O 0.81537 0.91356 0.68043 0.0
O205 O 0.77808 0.94371 0.6623 0.0
O206 O 0.85384 0.95872 0.65292 0.0
O207 O 0.8904 0.92288 0.66522 0.0
C208 C 0.82316 0.85359 0.64455 0.0
C209 C 0.88201 0.95216 0.66162 0.0
C210 C 0.56233 0.87465 0.15563 0.0
C211 C 0.66489 0.82344 0.13739 0.0
O212 O 0.59087 0.88385 0.15978 0.0
Zn213 Zn 0.61319 0.84668 0.14739 0.0
O214 O 0.55755 0.84636 0.14658 0.0
Zn215 Zn 0.58868 0.80579 0.13628 0.0
O216 O 0.57938 0.77148 0.15902 0.0
O217 O 0.60804 0.81015 0.17582 0.0
O218 O 0.64155 0.80386 0.13308 0.0
O219 O 0.65872 0.85141 0.14594 0.0
O220 O 0.60104 0.84418 0.1082 0.0
O221 O 0.57554 0.79792 0.10331 0.0
C222 C 0.5944 0.7824 0.17746 0.0
C223 C 0.58679 0.82372 0.09413 0.0
C224 C 0.39162 0.16358 0.97961 0.0
C225 C 0.39768 0.14009 0.96164 0.0
C226 C 0.383 0.15448 1.00355 0.0
C227 C 0.38126 0.12112 1.00972 0.0
C228 C 0.38836 0.09737 0.99178 0.0
C229 C 0.39609 0.10714 0.9679 0.0
C230 C 0.37508 0.1805 0.02209 0.0
C231 C 0.38767 0.06161 0.99776 0.0
C232 C 0.38754 0.09923 0.07716 0.0
C233 C 0.35526 0.09303 0.08316 0.0
C234 C 0.39639 0.10777 0.05324 0.0
C235 C 0.37225 0.111 0.03498 0.0
C236 C 0.33961 0.10448 0.04086 0.0
C237 C 0.33154 0.09515 0.06486 0.0
C238 C 0.43156 0.11359 0.04758 0.0
C239 C 0.31313 0.10817 0.02196 0.0
H240 H 0.3925 0.18905 0.97474 0.0
H241 H 0.40096 0.0889 0.95405 0.0
H242 H 0.35009 0.17728 0.02895 0.0
H243 H 0.39153 0.17837 0.0381 0.0
H244 H 0.37714 0.20529 1.01431 0.0
H245 H 0.39502 0.04628 0.98196 0.0
H246 H 0.40407 0.05624 1.0134 0.0
H247 H 0.36298 0.05463 1.00343 0.0
H248 H 0.40597 0.09744 0.09127 0.0
H249 H 0.30653 0.09071 0.06953 0.0
H250 H 0.43491 0.13912 0.04178 0.0
H251 H 0.43944 0.09793 0.03213 0.0
H252 H 0.44749 0.10864 0.06359 0.0
H253 H 0.31258 0.13343 1.01491 0.0
H254 H 0.28895 0.1024 0.0295 0.0
H255 H 0.31799 0.092 1.00614 0.0
C256 C 0.3238 0.40139 0.48161 0.0
C257 C 0.34746 0.40729 0.4639 0.0
C258 C 0.33257 0.39247 0.50568 0.0
C259 C 0.36573 0.39035 0.51225 0.0
C260 C 0.38958 0.39758 0.49459 0.0
C261 C 0.38017 0.40548 0.47059 0.0
C262 C 0.30644 0.38434 0.52385 0.0
C263 C 0.42511 0.39664 0.50096 0.0
C264 C 0.38776 0.39472 0.57987 0.0
C265 C 0.39513 0.36223 0.58537 0.0
C266 C 0.37849 0.40423 0.55614 0.0
C267 C 0.37563 0.38053 0.53754 0.0
C268 C 0.38302 0.34762 0.54299 0.0
C269 C 0.39314 0.33891 0.56679 0.0
C270 C 0.37188 0.43968 0.55097 0.0
C271 C 0.37971 0.32153 0.52379 0.0
H272 H 0.29853 0.40237 0.47637 0.0
H273 H 0.39851 0.41016 0.45691 0.0
H274 H 0.30965 0.35894 0.53024 0.0
H275 H 0.30831 0.40018 0.54019 0.0
H276 H 0.28184 0.38715 0.5159 0.0
H277 H 0.44048 0.40469 0.48548 0.0
H278 H 0.42986 0.41241 0.517 0.0
H279 H 0.43249 0.37161 0.50612 0.0
H280 H 0.38944 0.41286 0.59418 0.0
H281 H 0.39845 0.31373 0.57106 0.0
H282 H 0.34652 0.44315 0.54484 0.0
H283 H 0.38765 0.44813 0.53589 0.0
H284 H 0.37605 0.45517 0.5673 0.0
H285 H 0.35471 0.32167 0.51638 0.0
H286 H 0.38533 0.29698 0.53114 0.0
H287 H 0.39617 0.32644 0.50824 0.0
C288 C 0.15835 0.36081 0.9611 0.0
C289 C 0.15323 0.38356 0.94234 0.0
C290 C 0.16881 0.37038 0.98446 0.0
C291 C 0.17346 0.40371 0.98947 0.0
C292 C 0.16929 0.42675 0.97037 0.0
C293 C 0.1596 0.41634 0.9469 0.0
C294 C 0.17366 0.34487 1.00404 0.0
C295 C 0.17336 0.46253 0.97505 0.0
C296 C 0.1591 0.42422 0.05641 0.0
C297 C 0.19065 0.42628 0.06563 0.0
C298 C 0.15327 0.41875 0.03142 0.0
C299 C 0.17966 0.4143 1.01524 0.0
C300 C 0.21163 0.41726 0.02431 0.0
C301 C 0.21675 0.42364 0.0494 0.0
C302 C 0.11879 0.41658 0.02251 0.0
C303 C 0.24042 0.41204 1.00781 0.0
H304 H 0.15376 0.33539 0.95758 0.0
H305 H 0.15547 0.43401 0.93248 0.0
H306 H 0.19737 0.34799 1.01321 0.0
H307 H 0.1547 0.34758 0.01825 0.0
H308 H 0.17251 0.31987 0.99653 0.0
H309 H 0.17232 0.47699 0.95787 0.0
H310 H 0.15389 0.47123 0.98743 0.0
H311 H 0.1967 0.46712 0.98437 0.0
H312 H 0.13883 0.42661 0.06886 0.0
H313 H 0.24118 0.42505 0.05649 0.0
H314 H 0.11357 0.39128 1.017 0.0
H315 H 0.11509 0.43218 1.00614 0.0
H316 H 0.10113 0.42399 0.0368 0.0
H317 H 0.24147 0.38629 1.00196 0.0
H318 H 0.26352 0.41803 1.01708 0.0
H319 H 0.23804 0.42702 0.99099 0.0
C320 C 0.09426 0.12283 0.57382 0.0
C321 C 0.09215 0.15627 0.5783 0.0
C322 C 0.10192 0.11088 0.55041 0.0
C323 C 0.10873 0.13291 0.53122 0.0
C324 C 0.10675 0.16674 0.53571 0.0
C325 C 0.09795 0.178 0.5591 0.0
C326 C 0.10264 0.07469 0.5462 0.0
C327 C 0.1146 0.19104 0.51594 0.0
C328 C 0.15873 0.10342 0.47685 0.0
C329 C 0.13521 0.10161 0.45843 0.0
C330 C 0.15046 0.1134 0.50071 0.0
C331 C 0.11775 0.12067 0.50639 0.0
C332 C 0.09376 0.11734 0.48806 0.0
C333 C 0.10287 0.10843 0.4642 0.0
C334 C 0.17687 0.11744 0.51955 0.0
C335 C 0.05852 0.12376 0.4935 0.0
H336 H 0.08963 0.10597 0.58864 0.0
H337 H 0.09671 0.20386 0.56261 0.0
H338 H 0.08624 0.06839 0.53085 0.0
H339 H 0.12733 0.06673 0.5409 0.0
H340 H 0.0953 0.06088 0.56274 0.0
H341 H 0.11293 0.21646 0.5226 0.0
H342 H 0.13942 0.18651 0.50898 0.0
H343 H 0.09781 0.18825 0.50024 0.0
H344 H 0.1838 0.09853 0.47231 0.0
H345 H 0.08463 0.1069 0.44996 0.0
H346 H 0.17172 0.10264 0.53603 0.0
H347 H 0.17773 0.14315 0.5255 0.0
H348 H 0.201 0.1103 0.51236 0.0
H349 H 0.05097 0.10967 0.50982 0.0
H350 H 0.04263 0.11732 0.47784 0.0
H351 H 0.05472 0.14979 0.49781 0.0
C352 C 0.60179 0.85475 0.05636 0.0
C353 C 0.5853 0.82894 0.06722 0.0
C354 C 0.60328 0.85799 0.03075 0.0
C355 C 0.58781 0.83493 1.0156 0.0
C356 C 0.56997 0.80963 0.02645 0.0
C357 C 0.56897 0.8069 0.0521 0.0
C358 C 0.62254 0.88538 0.01991 0.0
C359 C 0.55299 0.7847 1.01096 0.0
C360 C 0.57968 0.85947 0.9486 0.0
C361 C 0.60789 0.84576 0.9388 0.0
C362 C 0.57175 0.85477 0.9734 0.0
C363 C 0.59261 0.83597 0.98855 0.0
C364 C 0.62002 0.82042 0.97816 0.0
C365 C 0.62748 0.8258 0.95345 0.0
C366 C 0.54239 0.87182 0.98377 0.0
C367 C 0.64274 0.79992 0.99353 0.0
H368 H 0.61442 0.87193 0.06784 0.0
H369 H 0.55598 0.78696 0.0603 0.0
H370 H 0.64375 0.87535 1.00996 0.0
H371 H 0.60765 0.8991 1.00642 0.0
H372 H 0.63128 0.90249 0.0341 0.0
H373 H 0.53768 0.76839 0.02211 0.0
H374 H 0.53762 0.79681 0.99692 0.0
H375 H 0.57117 0.76971 1.00108 0.0
H376 H 0.56506 0.87561 0.93733 0.0
H377 H 0.64965 0.81581 0.94586 0.0
H378 H 0.55021 0.89211 0.99565 0.0
H379 H 0.52821 0.85503 0.99532 0.0
H380 H 0.52645 0.88183 0.96913 0.0
H381 H 0.6556 0.8156 1.00679 0.0
H382 H 0.661 0.78693 0.9822 0.0
H383 H 0.62906 0.78181 1.00426 0.0
C384 C 0.70128 0.5712 0.55613 0.0
C385 C 0.67421 0.57485 0.57133 0.0
C386 C 0.69869 0.57554 0.53058 0.0
C387 C 0.66815 0.58279 0.51998 0.0
C388 C 0.64048 0.58453 0.53519 0.0
C389 C 0.64394 0.58107 0.56068 0.0
C390 C 0.72889 0.57427 0.51516 0.0
C391 C 0.60732 0.59134 0.52467 0.0
C392 C 0.65848 0.63421 0.46265 0.0
C393 C 0.6516 0.61096 0.44475 0.0
C394 C 0.66588 0.62512 0.48682 0.0
C395 C 0.66531 0.59193 0.49352 0.0
C396 C 0.65936 0.56819 0.47529 0.0
C397 C 0.65299 0.578 0.45096 0.0
C398 C 0.67295 0.65123 0.50541 0.0
C399 C 0.65778 0.53266 0.48175 0.0
H400 H 0.72477 0.56663 0.56433 0.0
H401 H 0.62291 0.58363 0.57236 0.0
H402 H 0.72534 0.55848 0.49896 0.0
H403 H 0.73424 0.59896 0.50826 0.0
H404 H 0.75015 0.5652 0.52568 0.0
H405 H 0.58792 0.58801 0.53846 0.0
H406 H 0.60604 0.61669 0.51786 0.0
H407 H 0.60259 0.57516 0.50886 0.0
H408 H 0.65747 0.65972 0.4578 0.0
H409 H 0.64725 0.56005 0.43716 0.0
H410 H 0.69517 0.64504 0.51591 0.0
H411 H 0.65277 0.65303 0.51869 0.0
H412 H 0.67611 0.67536 0.49671 0.0
H413 H 0.67927 0.52516 0.49261 0.0
H414 H 0.65621 0.51707 0.46521 0.0
H415 H 0.6362 0.52836 0.49329 0.0
C416 C 0.79917 0.57695 0.98854 0.0
C417 C 0.82581 0.5736 0.97288 0.0
C418 C 0.80351 0.582 1.01383 0.0
C419 C 0.8352 0.58302 0.02367 0.0
C420 C 0.86203 0.57753 1.0081 0.0
C421 C 0.85703 0.57328 0.98288 0.0
C422 C 0.7743 0.58827 0.02971 0.0
C423 C 0.8962 0.57779 0.01786 0.0
C424 C 0.85599 0.63679 0.07749 0.0
C425 C 0.85943 0.61433 0.09664 0.0
C426 C 0.84637 0.62704 0.05404 0.0
C427 C 0.84078 0.5938 0.04939 0.0
C428 C 0.84316 0.57107 0.06886 0.0
C429 C 0.85213 0.58171 0.09243 0.0
C430 C 0.84344 0.65224 0.03401 0.0
C431 C 0.83786 0.53539 0.06454 0.0
H432 H 0.77499 0.5773 0.98086 0.0
H433 H 0.87768 0.57028 0.97088 0.0
H434 H 0.77567 0.5736 0.04673 0.0
H435 H 0.77371 0.61417 0.03522 0.0
H436 H 0.75138 0.58273 0.02003 0.0
H437 H 0.914 0.56916 1.00405 0.0
H438 H 0.90263 0.60282 0.02331 0.0
H439 H 0.8983 0.56227 0.03443 0.0
H440 H 0.86125 0.66212 0.08081 0.0
H441 H 0.85494 0.56433 0.10723 0.0
H442 H 0.81992 0.65001 0.02439 0.0
H443 H 0.86276 0.64826 0.02024 0.0
H444 H 0.84549 0.67734 0.04119 0.0
H445 H 0.81487 0.53154 0.05454 0.0
H446 H 0.83736 0.52138 0.08193 0.0
H447 H 0.85762 0.52558 0.0529 0.0
C448 C 0.87693 0.8618 0.46971 0.0
C449 C 0.87944 0.88414 0.45047 0.0
C450 C 0.87017 0.87214 0.49363 0.0
C451 C 0.86676 0.90572 0.49853 0.0
C452 C 0.87039 0.92849 0.47932 0.0
C453 C 0.8762 0.91738 0.45538 0.0
C454 C 0.86578 0.84704 0.5135 0.0
C455 C 0.86785 0.9645 0.48401 0.0
C456 C 0.81839 0.92626 0.55548 0.0
C457 C 0.84283 0.92785 0.57321 0.0
C458 C 0.82589 0.92021 0.53082 0.0
C459 C 0.85865 0.91662 0.52375 0.0
C460 C 0.88346 0.92039 0.54137 0.0
C461 C 0.87523 0.92543 0.566 0.0
C462 C 0.79872 0.91562 0.51268 0.0
C463 C 0.91867 0.91768 0.53441 0.0
H464 H 0.87907 0.83607 0.46591 0.0
H465 H 0.87828 0.93468 0.4405 0.0
H466 H 0.88353 0.8509 0.52845 0.0
H467 H 0.84132 0.84957 0.52161 0.0
H468 H 0.86879 0.82188 0.50655 0.0
H469 H 0.87343 0.97903 0.46742 0.0
H470 H 0.84308 0.97087 0.49018 0.0
H471 H 0.88468 0.97148 0.49891 0.0
H472 H 0.79332 0.92788 0.5611 0.0
H473 H 0.89415 0.92693 0.57972 0.0
H474 H 0.79868 0.89006 0.50632 0.0
H475 H 0.80227 0.93115 0.49633 0.0
H476 H 0.77471 0.92138 0.52074 0.0
H477 H 0.9247 0.89214 0.52978 0.0
H478 H 0.93487 0.92553 0.54949 0.0
H479 H 0.92364 0.9326 0.51793 0.0
C480 C 0.20972 0.30576 0.16369 0.0
C481 C 0.22117 0.33057 0.14854 0.0
C482 C 0.22747 0.27679 0.16683 0.0
C483 C 0.25696 0.2723 0.15407 0.0
C484 C 0.26835 0.29711 0.13848 0.0
C485 C 0.2505 0.32606 0.13612 0.0
C486 C 0.2148 0.25108 0.18391 0.0
C487 C 0.29925 0.29297 0.12409 0.0
C488 C 0.31819 0.20849 0.17523 0.0
C489 C 0.31076 0.18242 0.15983 0.0
C490 C 0.30051 0.23778 0.17387 0.0
C491 C 0.27539 0.24122 0.15633 0.0
C492 C 0.26816 0.21509 0.14053 0.0
C493 C 0.28568 0.18594 0.14265 0.0
C494 C 0.30853 0.26494 0.19131 0.0
C495 C 0.2421 0.21799 0.1212 0.0
H496 H 0.18723 0.30927 0.17352 0.0
H497 H 0.25939 0.34513 0.12429 0.0
H498 H 0.21008 0.22848 0.17357 0.0
H499 H 0.23322 0.24517 0.19809 0.0
H500 H 0.19214 0.25882 0.19319 0.0
H501 H 0.30464 0.31451 0.11262 0.0
H502 H 0.31983 0.2886 0.13675 0.0
H503 H 0.29751 0.27145 0.11198 0.0
H504 H 0.33741 0.20579 0.18863 0.0
H505 H 0.28 0.16596 0.13054 0.0
H506 H 0.28672 0.272 0.20191 0.0
H507 H 0.31619 0.28662 0.18086 0.0
H508 H 0.32809 0.25809 0.20436 0.0
H509 H 0.21846 0.2233 0.12994 0.0
H510 H 0.23983 0.19556 0.1101 0.0
H511 H 0.24742 0.2385 0.10871 0.0
C512 C 0.31709 0.27866 0.65338 0.0
C513 C 0.31539 0.30861 0.66558 0.0
C514 C 0.29074 0.25775 0.65286 0.0
C515 C 0.26193 0.26687 0.66495 0.0
C516 C 0.26007 0.2968 0.67767 0.0
C517 C 0.28687 0.31746 0.67774 0.0
C518 C 0.29352 0.22623 0.63887 0.0
C519 C 0.22966 0.30712 0.69088 0.0
C520 C 0.18427 0.23104 0.64113 0.0
C521 C 0.17861 0.20624 0.65814 0.0
C522 C 0.21136 0.25084 0.64315 0.0
C523 C 0.23315 0.24594 0.66283 0.0
C524 C 0.22794 0.22058 0.67986 0.0
C525 C 0.20074 0.20079 0.6772 0.0
C526 C 0.21647 0.27719 0.62433 0.0
C527 C 0.25071 0.21481 0.70111 0.0
H528 H 0.33901 0.27156 0.64387 0.0
H529 H 0.28549 0.34044 0.68733 0.0
H530 H 0.28754 0.20552 0.65096 0.0
H531 H 0.27594 0.22624 0.62349 0.0
H532 H 0.31812 0.22216 0.63128 0.0
H533 H 0.23274 0.33018 0.70108 0.0
H534 H 0.20967 0.31036 0.67749 0.0
H535 H 0.22225 0.28797 0.70395 0.0
H536 H 0.16723 0.23521 0.6263 0.0
H537 H 0.19619 0.18187 0.69052 0.0
H538 H 0.24025 0.27374 0.6153 0.0
H539 H 0.21674 0.30123 0.63342 0.0
H540 H 0.19738 0.27751 0.60998 0.0
H541 H 0.27551 0.21002 0.69425 0.0
H542 H 0.24325 0.19405 0.7127 0.0
H543 H 0.25176 0.23687 0.7127 0.0
C544 C 0.31175 0.29334 0.36707 0.0
C545 C 0.30545 0.31804 0.38405 0.0
C546 C 0.29152 0.26619 0.36557 0.0
C547 C 0.26491 0.26361 0.38175 0.0
C548 C 0.25926 0.28799 0.39948 0.0
C549 C 0.27941 0.315 0.40026 0.0
C550 C 0.29804 0.24077 0.34628 0.0
C551 C 0.2316 0.28583 0.41742 0.0
C552 C 0.19171 0.21259 0.36643 0.0
C553 C 0.19773 0.1846 0.38038 0.0
C554 C 0.21396 0.23807 0.36603 0.0
C555 C 0.24261 0.23566 0.38021 0.0
C556 C 0.24884 0.20743 0.39424 0.0
C557 C 0.22644 0.18218 0.39404 0.0
C558 C 0.20665 0.26774 0.35066 0.0
C559 C 0.27882 0.20419 0.40994 0.0
H560 H 0.33172 0.29579 0.35441 0.0
H561 H 0.27465 0.33395 0.41358 0.0
H562 H 0.30083 0.21655 0.35494 0.0
H563 H 0.27716 0.23947 0.33353 0.0
H564 H 0.32013 0.24595 0.33549 0.0
H565 H 0.23139 0.3062 0.43074 0.0
H566 H 0.20828 0.28602 0.40737 0.0
H567 H 0.23314 0.26267 0.42775 0.0
H568 H 0.16974 0.21447 0.35565 0.0
H569 H 0.23126 0.16063 0.40491 0.0
H570 H 0.2272 0.27277 0.33824 0.0
H571 H 0.20352 0.2892 0.3627 0.0
H572 H 0.18441 0.26495 0.33945 0.0
H573 H 0.30073 0.20783 0.39864 0.0
H574 H 0.28069 0.18012 0.41903 0.0
H575 H 0.27865 0.22325 0.42428 0.0
C576 C 0.28187 0.15576 0.86874 0.0
C577 C 0.307 0.16934 0.88249 0.0
C578 C 0.25069 0.16984 0.86886 0.0
C579 C 0.24461 0.19789 0.8832 0.0
C580 C 0.26959 0.21072 0.89791 0.0
C581 C 0.30039 0.19641 0.89729 0.0
C582 C 0.22467 0.15552 0.85291 0.0
C583 C 0.26417 0.24042 0.91365 0.0
C584 C 0.18438 0.26351 0.86588 0.0
C585 C 0.16021 0.25941 0.88355 0.0
C586 C 0.2108 0.24211 0.86442 0.0
C587 C 0.21341 0.21608 0.88126 0.0
C588 C 0.18813 0.21063 0.89822 0.0
C589 C 0.16165 0.23232 0.89908 0.0
C590 C 0.23696 0.24867 0.84585 0.0
C591 C 0.19004 0.18317 0.91647 0.0
H592 H 0.28677 0.13477 0.85736 0.0
H593 H 0.3195 0.20679 0.9083 0.0
H594 H 0.20208 0.15244 0.86352 0.0
H595 H 0.21912 0.17234 0.83755 0.0
H596 H 0.23204 0.13168 0.84515 0.0
H597 H 0.28535 0.24579 0.92546 0.0
H598 H 0.2593 0.26179 0.90178 0.0
H599 H 0.24276 0.23714 0.92555 0.0
H600 H 0.18312 0.2841 0.85352 0.0
H601 H 0.14297 0.22899 0.91272 0.0
H602 H 0.24358 0.22611 0.83592 0.0
H603 H 0.25895 0.25723 0.85542 0.0
H604 H 0.22948 0.26737 0.83224 0.0
H605 H 0.19778 0.16034 0.90738 0.0
H606 H 0.16654 0.17915 0.92573 0.0
H607 H 0.20838 0.18884 0.93065 0.0
C608 C 0.73968 0.81141 0.87398 0.0
C609 C 0.73838 0.83325 0.89363 0.0
C610 C 0.75881 0.78326 0.87511 0.0
C611 C 0.77686 0.77648 0.8966 0.0
C612 C 0.77731 0.79949 0.91592 0.0
C613 C 0.75811 0.82784 0.91415 0.0
C614 C 0.7579 0.75973 0.85392 0.0
C615 C 0.7963 0.79316 0.93909 0.0
C616 C 0.78455 0.68615 0.90819 0.0
C617 C 0.81538 0.67906 0.89889 0.0
C618 C 0.77252 0.71805 0.90878 0.0
C619 C 0.79168 0.74364 0.89971 0.0
C620 C 0.82333 0.7369 0.89118 0.0
C621 C 0.83485 0.70466 0.8909 0.0
C622 C 0.73868 0.72415 0.91814 0.0
C623 C 0.84447 0.7635 0.88137 0.0
H624 H 0.72471 0.81578 0.85794 0.0
H625 H 0.75704 0.84466 0.92939 0.0
H626 H 0.78273 0.75222 0.84864 0.0
H627 H 0.74484 0.73756 0.85951 0.0
H628 H 0.74558 0.77021 0.83758 0.0
H629 H 0.7983 0.81529 0.95057 0.0
H630 H 0.7841 0.77415 0.94999 0.0
H631 H 0.82093 0.78403 0.93476 0.0
H632 H 0.76945 0.66664 0.91469 0.0
H633 H 0.85878 0.69946 0.88381 0.0
H634 H 0.72288 0.73218 0.90278 0.0
H635 H 0.73865 0.74384 0.93199 0.0
H636 H 0.72803 0.70216 0.92652 0.0
H637 H 0.83452 0.77242 0.86368 0.0
H638 H 0.86971 0.75504 0.87832 0.0
H639 H 0.84473 0.78437 0.89418 0.0
C640 C 0.68229 0.73681 0.38195 0.0
C641 C 0.65244 0.74054 0.3938 0.0
C642 C 0.70416 0.7622 0.38057 0.0
C643 C 0.69621 0.79237 0.39142 0.0
C644 C 0.66587 0.79677 0.40301 0.0
C645 C 0.6442 0.77068 0.40407 0.0
C646 C 0.73619 0.75634 0.36792 0.0
C647 C 0.65668 0.82866 0.41474 0.0
C648 C 0.77511 0.83136 0.40576 0.0
C649 C 0.78058 0.84861 0.38405 0.0
C650 C 0.74558 0.8162 0.40997 0.0
C651 C 0.72123 0.81785 0.39177 0.0
C652 C 0.72541 0.83806 0.37101 0.0
C653 C 0.75517 0.85342 0.36742 0.0
C654 C 0.74198 0.7954 0.43257 0.0
C655 C 0.69988 0.84066 0.35131 0.0
H656 H 0.68884 0.7138 0.37366 0.0
H657 H 0.62109 0.77378 0.41311 0.0
H658 H 0.73987 0.77469 0.35334 0.0
H659 H 0.75623 0.75874 0.38131 0.0
H660 H 0.73791 0.73187 0.35949 0.0
H661 H 0.63067 0.82972 0.4197 0.0
H662 H 0.67118 0.83209 0.43164 0.0
H663 H 0.66209 0.84916 0.40227 0.0
H664 H 0.79452 0.82839 0.41899 0.0
H665 H 0.75926 0.86715 0.35078 0.0
H666 H 0.74571 0.76955 0.42756 0.0
H667 H 0.71736 0.79793 0.44035 0.0
H668 H 0.7599 0.80172 0.44694 0.0
H669 H 0.70114 0.81879 0.3395 0.0
H670 H 0.70344 0.86234 0.33955 0.0
H671 H 0.67535 0.84183 0.35941 0.0
C672 C 0.81635 0.79621 0.65792 0.0
C673 C 0.80828 0.82149 0.64178 0.0
C674 C 0.79931 0.76697 0.65749 0.0
C675 C 0.77423 0.76278 0.64012 0.0
C676 C 0.76725 0.7876 0.62291 0.0
C677 C 0.78408 0.81686 0.62417 0.0
C678 C 0.80702 0.74129 0.67643 0.0
C679 C 0.74123 0.78369 0.60372 0.0
C680 C 0.74302 0.67767 0.62943 0.0
C681 C 0.71431 0.67827 0.643 0.0
C682 C 0.76267 0.70514 0.62806 0.0
C683 C 0.75372 0.73349 0.64108 0.0
C684 C 0.7249 0.73408 0.65501 0.0
C685 C 0.70533 0.70656 0.65556 0.0
C686 C 0.79283 0.70392 0.61256 0.0
C687 C 0.71486 0.76368 0.66952 0.0
H688 H 0.8349 0.79987 0.67166 0.0
H689 H 0.77802 0.83633 0.61154 0.0
H690 H 0.786 0.73829 0.68879 0.0
H691 H 0.81154 0.71756 0.66745 0.0
H692 H 0.82846 0.7475 0.68771 0.0
H693 H 0.74114 0.80381 0.59016 0.0
H694 H 0.74457 0.7604 0.59383 0.0
H695 H 0.71722 0.78304 0.61268 0.0
H696 H 0.7499 0.65585 0.61959 0.0
H697 H 0.68328 0.70698 0.66625 0.0
H698 H 0.81439 0.70842 0.62412 0.0
H699 H 0.79182 0.72335 0.59849 0.0
H700 H 0.79605 0.6802 0.6032 0.0
H701 H 0.73433 0.77034 0.68253 0.0
H702 H 0.69228 0.7598 0.68005 0.0
H703 H 0.71104 0.7846 0.65702 0.0
C704 C 0.83314 0.74653 0.16118 0.0
C705 C 0.85394 0.74171 0.14131 0.0
C706 C 0.80473 0.76483 0.15862 0.0
C707 C 0.79678 0.77828 0.13549 0.0
C708 C 0.81897 0.77558 0.11581 0.0
C709 C 0.84756 0.75728 0.119 0.0
C710 C 0.78207 0.76752 0.18022 0.0
C711 C 0.81142 0.78983 0.09095 0.0
C712 C 0.70623 0.78123 0.12651 0.0
C713 C 0.69887 0.81312 0.13356 0.0
C714 C 0.73835 0.77019 0.12546 0.0
C715 C 0.76369 0.79158 0.13156 0.0
C716 C 0.75655 0.82433 0.13718 0.0
C717 C 0.72419 0.83471 0.13817 0.0
C718 C 0.74502 0.73505 0.11928 0.0
C719 C 0.7829 0.84792 0.14356 0.0
H720 H 0.83832 0.7345 0.17847 0.0
H721 H 0.8636 0.75321 0.1036 0.0
H722 H 0.77421 0.79306 0.18293 0.0
H723 H 0.76012 0.75305 0.17661 0.0
H724 H 0.79338 0.7586 0.19748 0.0
H725 H 0.83323 0.79084 0.07916 0.0
H726 H 0.79315 0.77464 0.08164 0.0
H727 H 0.80102 0.81462 0.09272 0.0
H728 H 0.68686 0.76448 0.12269 0.0
H729 H 0.71876 0.85955 0.14335 0.0
H730 H 0.75397 0.72215 0.13586 0.0
H731 H 0.76411 0.73311 0.10511 0.0
H732 H 0.7231 0.72253 0.11253 0.0
H733 H 0.79256 0.84216 0.16206 0.0
H734 H 0.77396 0.87342 0.14359 0.0
H735 H 0.80325 0.84577 0.13045 0.0
C736 C 0.22596 0.03881 0.32514 0.0
C737 C 0.20181 0.06283 0.32689 0.0
C738 C 0.24285 0.03382 0.30306 0.0
C739 C 0.23572 0.05365 0.28247 0.0
C740 C 0.2106 0.07709 0.28394 0.0
C741 C 0.19387 0.08121 0.30601 0.0
C742 C 0.2691 0.00819 0.30203 0.0
C743 C 0.20241 0.09904 0.26256 0.0
C744 C 0.30008 0.07582 0.23644 0.0
C745 C 0.29003 0.05904 0.21544 0.0
C746 C 0.28348 0.07302 0.25867 0.0
C747 C 0.25634 0.05255 0.26015 0.0
C748 C 0.24707 0.03414 0.23943 0.0
C749 C 0.26387 0.0378 0.21721 0.0
C750 C 0.29397 0.09343 0.2802 0.0
C751 C 0.21861 0.01161 0.24044 0.0
H752 H 0.23209 0.02433 0.34111 0.0
H753 H 0.1752 0.09978 0.30706 0.0
H754 H 0.26644 0.99317 0.2853 0.0
H755 H 0.29303 0.01997 0.30106 0.0
H756 H 0.26882 0.99206 0.31835 0.0
H757 H 0.18103 0.11479 0.26625 0.0
H758 H 0.2233 0.11478 0.25845 0.0
H759 H 0.19751 0.08446 0.24592 0.0
H760 H 0.32031 0.09223 0.23534 0.0
H761 H 0.25613 0.02451 0.20115 0.0
H762 H 0.29726 0.0781 0.29675 0.0
H763 H 0.27491 0.1117 0.28442 0.0
H764 H 0.31689 0.10636 0.27659 0.0
H765 H 0.21996 0.99616 0.25708 0.0
H766 H 0.2173 0.99574 0.22404 0.0
H767 H 0.1959 0.02605 0.24155 0.0
C768 C 0.45784 0.26977 0.71964 0.0
C769 C 0.43573 0.29562 0.7173 0.0
C770 C 0.46052 0.25223 0.74179 0.0
C771 C 0.44018 0.26038 0.7618 0.0
C772 C 0.41847 0.28695 0.75966 0.0
C773 C 0.41675 0.30433 0.73763 0.0
C774 C 0.48444 0.22447 0.74356 0.0
C775 C 0.39592 0.29623 0.78032 0.0
C776 C 0.41399 0.19734 0.80821 0.0
C777 C 0.43057 0.20703 0.82939 0.0
C778 C 0.41794 0.21366 0.78585 0.0
C779 C 0.43951 0.24003 0.78443 0.0
C780 C 0.45748 0.24899 0.80545 0.0
C781 C 0.45253 0.23262 0.82777 0.0
C782 C 0.39777 0.2037 0.76408 0.0
C783 C 0.48117 0.27654 0.80457 0.0
H784 H 0.47269 0.26293 0.70411 0.0
H785 H 0.39952 0.32421 0.73613 0.0
H786 H 0.49912 0.22662 0.76052 0.0
H787 H 0.47132 0.20121 0.74466 0.0
H788 H 0.50092 0.2235 0.72753 0.0
H789 H 0.38116 0.31816 0.77599 0.0
H790 H 0.37935 0.27589 0.78421 0.0
H791 H 0.40987 0.3009 0.7973 0.0
H792 H 0.39694 0.17761 0.80927 0.0
H793 H 0.46571 0.24002 0.84398 0.0
H794 H 0.41338 0.19932 0.7479 0.0
H795 H 0.38066 0.2236 0.75922 0.0
H796 H 0.38368 0.18144 0.76774 0.0
H797 H 0.49734 0.27388 0.78848 0.0
H798 H 0.49618 0.27779 0.82144 0.0
H799 H 0.46786 0.29987 0.80245 0.0
C800 C 0.25694 0.47069 0.21166 0.0
C801 C 0.23106 0.45047 0.20565 0.0
C802 C 0.26827 0.47283 0.23599 0.0
C803 C 0.2537 0.45395 0.2546 0.0
C804 C 0.22689 0.43443 0.24873 0.0
C805 C 0.21582 0.43311 0.22447 0.0
C806 C 0.29659 0.49435 0.24161 0.0
C807 C 0.2109 0.41347 0.26783 0.0
C808 C 0.30407 0.42254 0.30782 0.0
C809 C 0.29227 0.44088 0.32762 0.0
C810 C 0.29238 0.42731 0.28397 0.0
C811 C 0.26848 0.45139 0.27951 0.0
C812 C 0.25707 0.47074 0.29923 0.0
C813 C 0.26889 0.46506 0.32313 0.0
C814 C 0.30484 0.40568 0.26365 0.0
C815 C 0.23194 0.49696 0.29513 0.0
H816 H 0.26871 0.48438 0.19732 0.0
H817 H 0.19574 0.41745 0.22015 0.0
H818 H 0.2915 0.50939 0.25804 0.0
H819 H 0.31817 0.47914 0.24579 0.0
H820 H 0.30245 0.5106 0.22602 0.0
H821 H 0.18892 0.40142 0.26069 0.0
H822 H 0.22816 0.39444 0.27416 0.0
H823 H 0.20407 0.42818 0.28404 0.0
H824 H 0.32207 0.40371 0.31102 0.0
H825 H 0.25984 0.47951 0.33826 0.0
H826 H 0.31428 0.42055 0.24837 0.0
H827 H 0.28477 0.39098 0.25622 0.0
H828 H 0.32435 0.38894 0.26998 0.0
H829 H 0.23934 0.51304 0.27986 0.0
H830 H 0.22791 0.51194 0.31177 0.0
H831 H 0.20868 0.48585 0.28978 0.0
C832 C 0.07831 0.23418 0.72581 0.0
C833 C 0.06491 0.24494 0.70352 0.0
C834 C 0.08134 0.25499 0.74591 0.0
C835 C 0.07036 0.28751 0.744 0.0
C836 C 0.05589 0.29844 0.72186 0.0
C837 C 0.05344 0.27703 0.7018 0.0
C838 C 0.0969 0.2422 0.76914 0.0
C839 C 0.04354 0.33282 0.71926 0.0
C840 C 0.05768 0.32272 0.80721 0.0
C841 C 0.08751 0.33747 0.81163 0.0
C842 C 0.0505 0.30897 0.78437 0.0
C843 C 0.07398 0.30943 0.76556 0.0
C844 C 0.1032 0.32643 0.76932 0.0
C845 C 0.10953 0.34051 0.79232 0.0
C846 C 0.01884 0.29163 0.78109 0.0
C847 C 0.12896 0.32736 0.74982 0.0
H848 H 0.08724 0.20947 0.72745 0.0
H849 H 0.04322 0.28563 0.68466 0.0
H850 H 0.11843 0.2568 0.77375 0.0
H851 H 0.07977 0.24441 0.78467 0.0
H852 H 0.10453 0.21638 0.76752 0.0
H853 H 0.03142 0.3371 0.70134 0.0
H854 H 0.02621 0.33855 0.73417 0.0
H855 H 0.06391 0.34993 0.72103 0.0
H856 H 0.04039 0.32067 0.82203 0.0
H857 H 0.13264 0.35183 0.79567 0.0
H858 H 0.02318 0.26504 0.7818 0.0
H859 H 0.008 0.29736 0.76297 0.0
H860 H 0.00119 0.29814 0.79563 0.0
H861 H 0.14068 0.3031 0.74839 0.0
H862 H 0.14787 0.34545 0.75404 0.0
H863 H 0.11822 0.33315 0.73168 0.0
C864 C 0.67129 0.88097 0.79184 0.0
C865 C 0.67606 0.90168 0.81185 0.0
C866 C 0.68679 0.88672 0.76935 0.0
C867 C 0.70722 0.91391 0.76688 0.0
C868 C 0.71053 0.93586 0.78659 0.0
C869 C 0.695 0.92943 0.80882 0.0
C870 C 0.68268 0.8628 0.74869 0.0
C871 C 0.73184 0.96526 0.78468 0.0
C872 C 0.77867 0.90832 0.72367 0.0
C873 C 0.76786 0.92658 0.70349 0.0
C874 C 0.75897 0.90374 0.74421 0.0
C875 C 0.72765 0.91784 0.7447 0.0
C876 C 0.71661 0.93654 0.72452 0.0
C877 C 0.73686 0.94069 0.70413 0.0
C878 C 0.77171 0.88373 0.76542 0.0
C879 C 0.68343 0.95207 0.72448 0.0
H880 H 0.65669 0.85951 0.79408 0.0
H881 H 0.69845 0.9458 0.82411 0.0
H882 H 0.67672 0.87566 0.73137 0.0
H883 H 0.70573 0.8494 0.74574 0.0
H884 H 0.66344 0.84494 0.75257 0.0
H885 H 0.72931 0.98157 0.80077 0.0
H886 H 0.75749 0.95737 0.78332 0.0
H887 H 0.726 0.97928 0.76786 0.0
H888 H 0.80251 0.89719 0.72335 0.0
H889 H 0.72822 0.95469 0.68857 0.0
H890 H 0.75531 0.86319 0.76908 0.0
H891 H 0.77246 0.89877 0.78226 0.0
H892 H 0.79635 0.87386 0.76194 0.0
H893 H 0.66475 0.93324 0.72687 0.0
H894 H 0.67831 0.96558 0.70725 0.0
H895 H 0.68112 0.96908 0.74013 0.0
C896 C 0.58164 0.69419 0.30695 0.0
C897 C 0.6075 0.67298 0.3123 0.0
C898 C 0.57954 0.71048 0.28442 0.0
C899 C 0.60388 0.70555 0.26662 0.0
C900 C 0.62948 0.68331 0.27148 0.0
C901 C 0.63098 0.66723 0.29427 0.0
C902 C 0.55171 0.73378 0.28 0.0
C903 C 0.65583 0.6773 0.2529 0.0
C904 C 0.58301 0.73189 0.20153 0.0
C905 C 0.5971 0.76269 0.20024 0.0
C906 C 0.58569 0.71271 0.22276 0.0
C907 C 0.60283 0.72455 0.24331 0.0
C908 C 0.61738 0.75547 0.24207 0.0
C909 C 0.61435 0.77414 0.22058 0.0
C910 C 0.56977 0.67993 0.22333 0.0
C911 C 0.63576 0.76906 0.26361 0.0
H912 H 0.56324 0.69871 0.32067 0.0
H913 H 0.65111 0.65103 0.29825 0.0
H914 H 0.56102 0.75874 0.2777 0.0
H915 H 0.53888 0.72738 0.26283 0.0
H916 H 0.53404 0.73386 0.29529 0.0
H917 H 0.67295 0.65788 0.25882 0.0
H918 H 0.64516 0.67041 0.23501 0.0
H919 H 0.66956 0.69992 0.24995 0.0
H920 H 0.56976 0.72269 0.1859 0.0
H921 H 0.62547 0.7978 0.21977 0.0
H922 H 0.55072 0.67973 0.23759 0.0
H923 H 0.58774 0.66086 0.22829 0.0
H924 H 0.55864 0.67355 0.20545 0.0
H925 H 0.61927 0.77215 0.27946 0.0
H926 H 0.64679 0.79286 0.2594 0.0
H927 H 0.65517 0.75187 0.26931 0.0
C928 C 0.75297 0.54707 0.82835 0.0
C929 C 0.78083 0.56502 0.83339 0.0
C930 C 0.7401 0.54557 0.80448 0.0
C931 C 0.75522 0.56273 0.78521 0.0
C932 C 0.7835 0.58063 0.79015 0.0
C933 C 0.79602 0.58142 0.81409 0.0
C934 C 0.7101 0.52596 0.79993 0.0
C935 C 0.8002 0.59954 0.77022 0.0
C936 C 0.73844 0.54242 0.7182 0.0
C937 C 0.7159 0.56663 0.71171 0.0
C938 C 0.75087 0.54033 0.7422 0.0
C939 C 0.74081 0.56319 0.76008 0.0
C940 C 0.71781 0.58742 0.75369 0.0
C941 C 0.70555 0.58874 0.72968 0.0
C942 C 0.77512 0.51394 0.74834 0.0
C943 C 0.70664 0.61247 0.77208 0.0
H944 H 0.74114 0.53419 0.84309 0.0
H945 H 0.8175 0.59544 0.81774 0.0
H946 H 0.69011 0.54219 0.79381 0.0
H947 H 0.71451 0.50817 0.78504 0.0
H948 H 0.70218 0.5127 0.81656 0.0
H949 H 0.82239 0.61162 0.77691 0.0
H950 H 0.80684 0.58321 0.75485 0.0
H951 H 0.78349 0.61835 0.76276 0.0
H952 H 0.7465 0.52515 0.7045 0.0
H953 H 0.68822 0.60761 0.7249 0.0
H954 H 0.76676 0.49982 0.7644 0.0
H955 H 0.79855 0.5249 0.75342 0.0
H956 H 0.77918 0.49703 0.73278 0.0
H957 H 0.69649 0.60037 0.78847 0.0
H958 H 0.68803 0.62923 0.76439 0.0
H959 H 0.72752 0.62698 0.77832 0.0
C960 C 0.87975 0.79517 0.30552 0.0
C961 C 0.89405 0.78862 0.32836 0.0
C962 C 0.88137 0.77253 0.28632 0.0
C963 C 0.89775 0.74255 0.28997 0.0
C964 C 0.91199 0.73564 0.31302 0.0
C965 C 0.90998 0.75872 0.33192 0.0
C966 C 0.86586 0.78088 0.262 0.0
C967 C 0.92969 0.704 0.31763 0.0
C968 C 0.87912 0.67661 0.24328 0.0
C969 C 0.90409 0.68093 0.22628 0.0
C970 C 0.87737 0.69561 0.26468 0.0
C971 C 0.90124 0.71929 0.26919 0.0
C972 C 0.92749 0.72233 0.25281 0.0
C973 C 0.92854 0.7032 0.23158 0.0
C974 C 0.84905 0.69157 0.28174 0.0
C975 C 0.95363 0.74701 0.25701 0.0
H976 H 0.86725 0.81808 0.30258 0.0
H977 H 0.921 0.75332 0.34952 0.0
H978 H 0.88456 0.78158 0.24748 0.0
H979 H 0.84833 0.7619 0.25679 0.0
H980 H 0.85306 0.80469 0.26239 0.0
H981 H 0.93834 0.70177 0.33685 0.0
H982 H 0.91368 0.68329 0.31352 0.0
H983 H 0.9508 0.702 0.30521 0.0
H984 H 0.86004 0.65961 0.23927 0.0
H985 H 0.94805 0.70656 0.21863 0.0
H986 H 0.83323 0.71342 0.28073 0.0
H987 H 0.85751 0.68926 0.30098 0.0
H988 H 0.83443 0.66999 0.27707 0.0
H989 H 0.94322 0.77182 0.25531 0.0
H990 H 0.97374 0.74447 0.24368 0.0
H991 H 0.96362 0.74461 0.27581 0.0
C992 C 0.45343 0.03277 0.1604 0.0
C993 C 0.4217 0.02795 0.16831 0.0
C994 C 0.4755 0.00672 0.15912 0.0
C995 C 0.46586 0.97542 0.16682 0.0
C996 C 0.43419 0.97081 0.17581 0.0
C997 C 0.41227 0.99702 0.17596 0.0
C998 C 0.50874 0.01245 0.14874 0.0
C999 C 0.42337 0.93817 0.18506 0.0
C1000 C 0.51187 0.90243 0.14162 0.0
C1001 C 0.53534 0.89752 0.15978 0.0
C1002 C 0.4889 0.92761 0.14374 0.0
C1003 C 0.48878 0.94745 0.16495 0.0
C1004 C 0.51144 0.94134 0.18392 0.0
C1005 C 0.53491 0.91687 0.18086 0.0
C1006 C 0.46579 0.93394 0.12278 0.0
C1007 C 0.51134 0.96108 0.20722 0.0
H1008 H 0.46053 0.05664 0.15418 0.0
H1009 H 0.38769 0.99339 0.18215 0.0
H1010 H 0.52748 0.00587 0.16247 0.0
H1011 H 0.51268 0.99669 0.13252 0.0
H1012 H 0.51224 0.03809 0.14318 0.0
H1013 H 0.3988 0.93924 0.19319 0.0
H1014 H 0.42324 0.92043 0.1698 0.0
H1015 H 0.44057 0.92886 0.1991 0.0
H1016 H 0.51259 0.88771 0.12516 0.0
H1017 H 0.55312 0.91296 0.19491 0.0
H1018 H 0.46977 0.95863 0.11531 0.0
H1019 H 0.44048 0.93312 0.12933 0.0
H1020 H 0.46879 0.91609 0.1077 0.0
H1021 H 0.51828 0.98641 0.20311 0.0
H1022 H 0.52836 0.95111 0.22115 0.0
H1023 H 0.4867 0.9619 0.21518 0.0
C1024 C 0.59148 0.5122 0.66848 0.0
C1025 C 0.58676 0.54357 0.65919 0.0
C1026 C 0.56529 0.49134 0.67182 0.0
C1027 C 0.53383 0.50182 0.66499 0.0
C1028 C 0.52891 0.53365 0.65587 0.0
C1029 C 0.55542 0.55432 0.6534 0.0
C1030 C 0.57139 0.45783 0.68215 0.0
C1031 C 0.49591 0.54539 0.64773 0.0
C1032 C 0.47767 0.4344 0.64616 0.0
C1033 C 0.45753 0.43186 0.66665 0.0
C1034 C 0.50185 0.45781 0.64512 0.0
C1035 C 0.50668 0.47854 0.66542 0.0
C1036 C 0.48621 0.47627 0.68614 0.0
C1037 C 0.46143 0.45319 0.68635 0.0
C1038 C 0.5225 0.46005 0.62239 0.0
C1039 C 0.49117 0.49746 0.70834 0.0
H1040 H 0.61566 0.504 0.67323 0.0
H1041 H 0.55176 0.57855 0.6461 0.0
H1042 H 0.55454 0.453 0.69748 0.0
H1043 H 0.56685 0.43938 0.6678 0.0
H1044 H 0.59657 0.45464 0.68888 0.0
H1045 H 0.49585 0.57136 0.64228 0.0
H1046 H 0.4877 0.53077 0.63188 0.0
H1047 H 0.47805 0.54206 0.66262 0.0
H1048 H 0.47436 0.41807 0.63081 0.0
H1049 H 0.44593 0.451 0.70224 0.0
H1050 H 0.54789 0.45357 0.62692 0.0
H1051 H 0.52234 0.4853 0.61533 0.0
H1052 H 0.51409 0.44368 0.60758 0.0
H1053 H 0.51544 0.49257 0.71629 0.0
H1054 H 0.4727 0.49326 0.7227 0.0
H1055 H 0.49035 0.52342 0.70301 0.0
C1056 C 0.11122 0.50876 0.12647 0.0
C1057 C 0.11076 0.48526 0.14502 0.0
C1058 C 0.08818 0.53397 0.12587 0.0
C1059 C 0.06496 0.53635 0.14482 0.0
C1060 C 0.065 0.51309 0.16397 0.0
C1061 C 0.08754 0.48741 0.16357 0.0
C1062 C 0.08817 0.55752 0.10467 0.0
C1063 C 0.04124 0.51534 0.18487 0.0
C1064 C 0.02088 0.61689 0.15424 0.0
C1065 C 0.99034 0.60981 0.14477 0.0
C1066 C 0.04556 0.59317 0.15443 0.0
C1067 C 0.03968 0.56225 0.14407 0.0
C1068 C 0.00916 0.55565 0.13354 0.0
C1069 C 0.98467 0.57932 0.13447 0.0
C1070 C 0.07744 0.60075 0.16649 0.0
C1071 C 0.00224 0.52345 0.12155 0.0
H1072 H 0.12912 0.50689 0.11204 0.0
H1073 H 0.08748 0.46938 0.17805 0.0
H1074 H 0.06468 0.55651 0.09487 0.0
H1075 H 0.09095 0.58267 0.11147 0.0
H1076 H 0.10784 0.55225 0.09139 0.0
H1077 H 0.04608 0.4968 0.19925 0.0
H1078 H 0.04221 0.53975 0.19337 0.0
H1079 H 0.01631 0.51202 0.17789 0.0
H1080 H 0.02501 0.64044 0.16242 0.0
H1081 H 0.96097 0.57404 0.12704 0.0
H1082 H 0.09754 0.59704 0.15335 0.0
H1083 H 0.08169 0.5839 0.18206 0.0
H1084 H 0.07829 0.62605 0.17343 0.0
H1085 H 0.02104 0.51771 0.1077 0.0
H1086 H 0.97821 0.52323 0.11244 0.0
H1087 H 0.00297 0.50386 0.13548 0.0
C1088 C 0.89544 0.00938 0.67247 0.0
C1089 C 0.90558 0.97829 0.66532 0.0
C1090 C 0.9177 0.03473 0.67463 0.0
C1091 C 0.95053 0.02903 0.66853 0.0
C1092 C 0.96081 0.99758 0.66138 0.0
C1093 C 0.9383 0.97246 0.66029 0.0
C1094 C 0.90606 0.06765 0.68313 0.0
C1095 C 0.99535 0.99071 0.65396 0.0
C1096 C 0.00107 0.09954 0.64656 0.0
C1097 C 0.02212 0.10388 0.66638 0.0
C1098 C 0.97738 0.07549 0.64713 0.0
C1099 C 0.97395 0.05614 0.66842 0.0
C1100 C 0.99426 0.06146 0.68893 0.0
C1101 C 0.01858 0.08487 0.68748 0.0
C1102 C 0.95695 0.06989 0.62458 0.0
C1103 C 0.9906 0.04209 0.71223 0.0
H1104 H 0.87014 0.01382 0.67648 0.0
H1105 H 0.94607 0.94849 0.65447 0.0
H1106 H 0.92143 0.07635 0.69842 0.0
H1107 H 0.9081 0.08545 0.66798 0.0
H1108 H 0.88053 0.06728 0.68936 0.0
H1109 H 0.99938 0.96494 0.64878 0.0
H1110 H 0.00187 0.00625 0.63813 0.0
H1111 H 0.01201 0.99674 0.66918 0.0
H1112 H 0.00404 0.11408 0.63015 0.0
H1113 H 0.03475 0.08845 0.70288 0.0
H1114 H 0.93095 0.0721 0.62918 0.0
H1115 H 0.96116 0.04489 0.61768 0.0
H1116 H 0.96242 0.08729 0.60963 0.0
H1117 H 0.96503 0.04256 0.7183 0.0
H1118 H 0.00599 0.05145 0.7273 0.0
H1119 H 0.99735 0.01638 0.70885 0.0
C1120 C 0.50337 0.59749 0.40681 0.0
C1121 C 0.5235 0.60394 0.38688 0.0
C1122 C 0.48141 0.57175 0.40587 0.0
C1123 C 0.47906 0.55289 0.38424 0.0
C1124 C 0.49827 0.56052 0.36366 0.0
C1125 C 0.52064 0.58564 0.36539 0.0
C1126 C 0.46173 0.56389 0.42833 0.0
C1127 C 0.49574 0.5417 0.34001 0.0
C1128 C 0.44792 0.46662 0.38759 0.0
C1129 C 0.41541 0.47119 0.38127 0.0
C1130 C 0.46886 0.49315 0.38898 0.0
C1131 C 0.4571 0.52467 0.38321 0.0
C1132 C 0.42449 0.52915 0.37607 0.0
C1133 C 0.40393 0.5024 0.37554 0.0
C1134 C 0.50337 0.48756 0.39711 0.0
C1135 C 0.41133 0.56217 0.36902 0.0
H1136 H 0.50598 0.61145 0.42351 0.0
H1137 H 0.53625 0.59081 0.34996 0.0
H1138 H 0.43561 0.56408 0.42376 0.0
H1139 H 0.46801 0.53911 0.43485 0.0
H1140 H 0.46591 0.58129 0.44351 0.0
H1141 H 0.51058 0.55237 0.32516 0.0
H1142 H 0.50387 0.51629 0.343 0.0
H1143 H 0.47021 0.54096 0.33379 0.0
H1144 H 0.45666 0.44252 0.3923 0.0
H1145 H 0.37876 0.50587 0.37052 0.0
H1146 H 0.50858 0.50255 0.41351 0.0
H1147 H 0.52019 0.49523 0.38247 0.0
H1148 H 0.50846 0.46173 0.40162 0.0
H1149 H 0.41317 0.57901 0.38478 0.0
H1150 H 0.38567 0.56129 0.36306 0.0
H1151 H 0.42589 0.57248 0.3539 0.0
C1152 C 0.98868 0.37625 0.88886 0.0
C1153 C 0.01723 0.38289 0.90159 0.0
C1154 C 0.96344 0.39933 0.88783 0.0
C1155 C 0.96673 0.42923 0.90036 0.0
C1156 C 0.9948 0.43497 0.91454 0.0
C1157 C 0.01999 0.41196 0.91457 0.0
C1158 C 0.93431 0.39262 0.87202 0.0
C1159 C 0.99891 0.46606 0.92875 0.0
C1160 C 0.9259 0.50649 0.87757 0.0
C1161 C 0.89937 0.50913 0.89334 0.0
C1162 C 0.94714 0.47977 0.87895 0.0
C1163 C 0.9423 0.45568 0.89709 0.0
C1164 C 0.91531 0.45808 0.9129 0.0
C1165 C 0.89387 0.48457 0.91059 0.0
C1166 C 0.97514 0.4777 0.86131 0.0
C1167 C 0.90983 0.43344 0.9329 0.0
H1168 H 0.98696 0.35394 0.87845 0.0
H1169 H 0.04228 0.41704 0.92426 0.0
H1170 H 0.9117 0.39747 0.8823 0.0
H1171 H 0.93434 0.40915 0.85595 0.0
H1172 H 0.93406 0.36721 0.86529 0.0
H1173 H 0.02021 0.46502 0.94117 0.0
H1174 H 0.00207 0.48657 0.91583 0.0
H1175 H 0.97703 0.47134 0.93982 0.0
H1176 H 0.93004 0.52535 0.86411 0.0
H1177 H 0.87351 0.48674 0.92296 0.0
H1178 H 0.97579 0.45357 0.85232 0.0
H1179 H 0.99821 0.48044 0.87144 0.0
H1180 H 0.97378 0.49672 0.8469 0.0
H1181 H 0.90952 0.4086 0.92514 0.0
H1182 H 0.88683 0.43786 0.94286 0.0
H1183 H 0.93006 0.43427 0.94626 0.0
C1184 C 0.9645 0.93575 0.38091 0.0
C1185 C 0.94332 0.93276 0.361 0.0
C1186 C 0.98836 0.95959 0.38113 0.0
C1187 C 0.99182 0.98022 0.36056 0.0
C1188 C 0.97113 0.97663 0.34005 0.0
C1189 C 0.94665 0.95328 0.34071 0.0
C1190 C 0.00935 0.96318 0.40363 0.0
C1191 C 0.97483 0.99745 0.31748 0.0
C1192 C 0.03463 0.05991 0.37175 0.0
C1193 C 0.06663 0.05129 0.36641 0.0
C1194 C 0.00978 0.03718 0.36944 0.0
C1195 C 0.01711 0.00555 0.36078 0.0
C1196 C 0.04921 0.99739 0.35412 0.0
C1197 C 0.0737 0.0202 0.35747 0.0
C1198 C 0.97604 0.04647 0.37743 0.0
C1199 C 0.05784 0.96431 0.34408 0.0
H1200 H 0.96161 0.9202 0.39678 0.0
H1201 H 0.93026 0.9509 0.3253 0.0
H1202 H 0.03508 0.95908 0.39881 0.0
H1203 H 0.00714 0.98824 0.4109 0.0
H1204 H 0.00279 0.9459 0.4184 0.0
H1205 H 0.95792 0.99045 0.30261 0.0
H1206 H 0.97037 0.02328 0.32214 0.0
H1207 H -6e-05 0.99549 0.3105 0.0
H1208 H 0.02929 0.08394 0.37883 0.0
H1209 H 0.09849 0.0137 0.35312 0.0
H1210 H 0.96893 0.03131 0.39331 0.0
H1211 H 0.9585 0.04179 0.3625 0.0
H1212 H 0.97408 0.07241 0.38279 0.0
H1213 H 0.05518 0.94577 0.35866 0.0
H1214 H 0.08304 0.96313 0.33715 0.0
H1215 H 0.04115 0.9578 0.32897 0.0
C1216 C 0.60214 0.9924 0.91178 0.0
C1217 C 0.61419 0.9781 0.8904 0.0
C1218 C 0.57616 0.01465 0.91066 0.0
C1219 C 0.56259 0.02304 0.88757 0.0
C1220 C 0.57629 0.01017 0.86588 0.0
C1221 C 0.60161 0.98748 0.8676 0.0
C1222 C 0.56192 0.0275 0.93421 0.0
C1223 C 0.56313 0.01905 0.84089 0.0
C1224 C 0.47398 0.04759 0.88293 0.0
C1225 C 0.47586 0.08146 0.88179 0.0
C1226 C 0.50203 0.02836 0.88534 0.0
C1227 C 0.53269 0.04334 0.88605 0.0
C1228 C 0.53473 0.0775 0.88446 0.0
C1229 C 0.50627 0.09616 0.88262 0.0
C1230 C 0.49884 0.992 0.8873 0.0
C1231 C 0.56696 0.0943 0.88453 0.0
H1232 H 0.61156 0.98458 0.92941 0.0
H1233 H 0.61093 0.97613 0.85109 0.0
H1234 H 0.55944 0.05429 0.93343 0.0
H1235 H 0.53734 0.01755 0.9367 0.0
H1236 H 0.57683 0.02081 0.95044 0.0
H1237 H 0.57876 0.00981 0.82585 0.0
H1238 H 0.53868 0.00871 0.83858 0.0
H1239 H 0.56072 0.04577 0.83906 0.0
H1240 H 0.45052 0.03616 0.88257 0.0
H1241 H 0.50785 0.12235 0.88164 0.0
H1242 H 0.51082 0.98315 0.90429 0.0
H1243 H 0.51115 0.9801 0.87161 0.0
H1244 H 0.47322 0.98425 0.88751 0.0
H1245 H 0.58038 0.08839 0.9016 0.0
H1246 H 0.56438 0.12108 0.88308 0.0
H1247 H 0.58185 0.08548 0.86896 0.0
loop_
_geom_bond_atom_site_label_1
_geom_bond_atom_site_label_2
_geom_bond_distance
_geom_bond_site_symmetry_2
_ccdc_geom_bond_type
C0 O2 1.247 . S
C0 O4 1.258 . S
C1 O8 1.247 . S
C1 O9 1.258 . S
O2 C0 1.247 . S
O2 Zn3 2.028 . S
Zn3 O2 2.028 . S
Zn3 O7 2.035 . S
Zn3 O9 2.035 . S
Zn3 O10 2.028 . S
O4 C0 1.258 . S
O4 Zn5 2.035 . S
Zn5 O4 2.035 . S
Zn5 O6 2.028 . S
Zn5 O8 2.028 . S
Zn5 O11 2.035 . S
O6 Zn5 2.028 . S
O6 C12 1.247 . S
O7 Zn3 2.035 . S
O7 C12 1.258 . S
O8 C1 1.247 . S
O8 Zn5 2.028 . S
O9 C1 1.258 . S
O9 Zn3 2.035 . S
O10 Zn3 2.028 . S
O10 C13 1.247 . S
O11 Zn5 2.035 . S
O11 C13 1.258 . S
C12 O6 1.247 . S
C12 O7 1.258 . S
C13 O10 1.247 . S
C13 O11 1.258 . S
C14 O16 1.247 . S
C14 O18 1.258 . S
C15 O22 1.247 . S
C15 O23 1.258 . S
O16 C14 1.247 . S
O16 Zn17 2.028 . S
Zn17 O16 2.028 . S
Zn17 O21 2.035 . S
Zn17 O23 2.035 . S
Zn17 O24 2.028 . S
O18 C14 1.258 . S
O18 Zn19 2.035 . S
Zn19 O18 2.035 . S
Zn19 O20 2.028 . S
Zn19 O22 2.028 . S
Zn19 O25 2.035 . S
O20 Zn19 2.028 . S
O20 C26 1.247 . S
O21 Zn17 2.035 . S
O21 C26 1.258 . S
O22 C15 1.247 . S
O22 Zn19 2.028 . S
O23 C15 1.258 . S
O23 Zn17 2.035 . S
O24 Zn17 2.028 . S
O24 C27 1.247 . S
O25 Zn19 2.035 . S
O25 C27 1.258 . S
C26 O20 1.247 . S
C26 O21 1.258 . S
C27 O24 1.247 . S
C27 O25 1.258 . S
C28 O30 1.247 . S
C28 O32 1.258 . S
C29 O36 1.247 . S
C29 O37 1.258 . S
O30 C28 1.247 . S
O30 Zn31 2.028 . S
Zn31 O30 2.028 . S
Zn31 O35 2.035 . S
Zn31 O37 2.035 . S
Zn31 O38 2.028 . S
O32 C28 1.258 . S
O32 Zn33 2.035 . S
Zn33 O32 2.035 . S
Zn33 O34 2.028 . S
Zn33 O36 2.028 . S
Zn33 O39 2.035 . S
O34 Zn33 2.028 . S
O34 C40 1.247 . S
O35 Zn31 2.035 . S
O35 C40 1.258 . S
O36 C29 1.247 . S
O36 Zn33 2.028 . S
O37 C29 1.258 . S
O37 Zn31 2.035 . S
O38 Zn31 2.028 . S
O38 C41 1.247 . S
O39 Zn33 2.035 . S
O39 C41 1.258 . S
C40 O34 1.247 . S
C40 O35 1.258 . S
C41 O38 1.247 . S
C41 O39 1.258 . S
C42 O44 1.247 . S
C42 O46 1.258 . S
C43 O50 1.247 . S
C43 O51 1.258 . S
O44 C42 1.247 . S
O44 Zn45 2.028 . S
Zn45 O44 2.028 . S
Zn45 O49 2.035 . S
Zn45 O51 2.035 . S
Zn45 O52 2.028 . S
O46 C42 1.258 . S
O46 Zn47 2.035 . S
Zn47 O46 2.035 . S
Zn47 O48 2.028 . S
Zn47 O50 2.028 . S
Zn47 O53 2.035 . S
O48 Zn47 2.028 . S
O48 C54 1.247 . S
O49 Zn45 2.035 . S
O49 C54 1.258 . S
O50 C43 1.247 . S
O50 Zn47 2.028 . S
O51 C43 1.258 . S
O51 Zn45 2.035 . S
O52 Zn45 2.028 . S
O52 C55 1.247 . S
O53 Zn47 2.035 . S
O53 C55 1.258 . S
C54 O48 1.247 . S
C54 O49 1.258 . S
C55 O52 1.247 . S
C55 O53 1.258 . S
C56 O58 1.247 . S
C56 O60 1.258 . S
C57 O64 1.247 . S
C57 O65 1.258 . S
O58 C56 1.247 . S
O58 Zn59 2.028 . S
Zn59 O58 2.028 . S
Zn59 O63 2.035 . S
Zn59 O65 2.035 . S
Zn59 O66 2.028 . S
O60 C56 1.258 . S
O60 Zn61 2.035 . S
Zn61 O60 2.035 . S
Zn61 O62 2.028 . S
Zn61 O64 2.028 . S
Zn61 O67 2.035 . S
O62 Zn61 2.028 . S
O62 C68 1.247 . S
O63 Zn59 2.035 . S
O63 C68 1.258 . S
O64 C57 1.247 . S
O64 Zn61 2.028 . S
O65 C57 1.258 . S
O65 Zn59 2.035 . S
O66 Zn59 2.028 . S
O66 C69 1.247 . S
O67 Zn61 2.035 . S
O67 C69 1.258 . S
C68 O62 1.247 . S
C68 O63 1.258 . S
C69 O66 1.247 . S
C69 O67 1.258 . S
C70 O72 1.247 . S
C70 O74 1.258 . S
C71 O78 1.247 . S
C71 O79 1.258 . S
O72 C70 1.247 . S
O72 Zn73 2.028 . S
Zn73 O72 2.028 . S
Zn73 O77 2.035 . S
Zn73 O79 2.035 . S
Zn73 O80 2.028 . S
O74 C70 1.258 . S
O74 Zn75 2.035 . S
Zn75 O74 2.035 . S
Zn75 O76 2.028 . S
Zn75 O78 2.028 . S
Zn75 O81 2.035 . S
O76 Zn75 2.028 . S
O76 C82 1.247 . S
O77 Zn73 2.035 . S
O77 C82 1.258 . S
O78 C71 1.247 . S
O78 Zn75 2.028 . S
O79 C71 1.258 . S
O79 Zn73 2.035 . S
O80 Zn73 2.028 . S
O80 C83 1.247 . S
O81 Zn75 2.035 . S
O81 C83 1.258 . S
C82 O76 1.247 . S
C82 O77 1.258 . S
C83 O80 1.247 . S
C83 O81 1.258 . S
C84 O86 1.247 . S
C84 O88 1.258 . S
C85 O92 1.247 . S
C85 O93 1.258 . S
O86 C84 1.247 . S
O86 Zn87 2.028 . S
Zn87 O86 2.028 . S
Zn87 O91 2.035 . S
Zn87 O93 2.035 . S
Zn87 O94 2.028 . S
O88 C84 1.258 . S
O88 Zn89 2.035 . S
Zn89 O88 2.035 . S
Zn89 O90 2.028 . S
Zn89 O92 2.028 . S
Zn89 O95 2.035 . S
O90 Zn89 2.028 . S
O90 C96 1.247 . S
O91 Zn87 2.035 . S
O91 C96 1.258 . S
O92 C85 1.247 . S
O92 Zn89 2.028 . S
O93 C85 1.258 . S
O93 Zn87 2.035 . S
O94 Zn87 2.028 . S
O94 C97 1.247 . S
O95 Zn89 2.035 . S
O95 C97 1.258 . S
C96 O90 1.247 . S
C96 O91 1.258 . S
C97 O94 1.247 . S
C97 O95 1.258 . S
C98 O100 1.247 . S
C98 O102 1.258 . S
C99 O106 1.247 . S
C99 O107 1.258 . S
O100 C98 1.247 . S
O100 Zn101 2.028 . S
Zn101 O100 2.028 . S
Zn101 O105 2.035 . S
Zn101 O107 2.035 . S
Zn101 O108 2.028 . S
O102 C98 1.258 . S
O102 Zn103 2.035 . S
Zn103 O102 2.035 . S
Zn103 O104 2.028 . S
Zn103 O106 2.028 . S
Zn103 O109 2.035 . S
O104 Zn103 2.028 . S
O104 C110 1.247 . S
O105 Zn101 2.035 . S
O105 C110 1.258 . S
O106 C99 1.247 . S
O106 Zn103 2.028 . S
O107 C99 1.258 . S
O107 Zn101 2.035 . S
O108 Zn101 2.028 . S
O108 C111 1.247 . S
O109 Zn103 2.035 . S
O109 C111 1.258 . S
C110 O104 1.247 . S
C110 O105 1.258 . S
C111 O108 1.247 . S
C111 O109 1.258 . S
C112 O114 1.247 . S
C112 O116 1.258 . S
C113 O120 1.247 . S
C113 O121 1.258 . S
O114 C112 1.247 . S
O114 Zn115 2.028 . S
Zn115 O114 2.028 . S
Zn115 O119 2.035 . S
Zn115 O121 2.035 . S
Zn115 O122 2.028 . S
O116 C112 1.258 . S
O116 Zn117 2.035 . S
Zn117 O116 2.035 . S
Zn117 O118 2.028 . S
Zn117 O120 2.028 . S
Zn117 O123 2.035 . S
O118 Zn117 2.028 . S
O118 C124 1.247 . S
O119 Zn115 2.035 . S
O119 C124 1.258 . S
O120 C113 1.247 . S
O120 Zn117 2.028 . S
O121 C113 1.258 . S
O121 Zn115 2.035 . S
O122 Zn115 2.028 . S
O122 C125 1.247 . S
O123 Zn117 2.035 . S
O123 C125 1.258 . S
C124 O118 1.247 . S
C124 O119 1.258 . S
C125 O122 1.247 . S
C125 O123 1.258 . S
C126 O128 1.247 . S
C126 O130 1.258 . S
C127 O134 1.247 . S
C127 O135 1.258 . S
O128 C126 1.247 . S
O128 Zn129 2.028 . S
Zn129 O128 2.028 . S
Zn129 O133 2.035 . S
Zn129 O135 2.035 . S
Zn129 O136 2.028 . S
O130 C126 1.258 . S
O130 Zn131 2.035 . S
Zn131 O130 2.035 . S
Zn131 O132 2.028 . S
Zn131 O134 2.028 . S
Zn131 O137 2.035 . S
O132 Zn131 2.028 . S
O132 C138 1.247 . S
O133 Zn129 2.035 . S
O133 C138 1.258 . S
O134 C127 1.247 . S
O134 Zn131 2.028 . S
O135 C127 1.258 . S
O135 Zn129 2.035 . S
O136 Zn129 2.028 . S
O136 C139 1.247 . S
O137 Zn131 2.035 . S
O137 C139 1.258 . S
C138 O132 1.247 . S
C138 O133 1.258 . S
C139 O136 1.247 . S
C139 O137 1.258 . S
C140 O142 1.247 . S
C140 O144 1.258 . S
C141 O148 1.247 . S
C141 O149 1.258 . S
O142 C140 1.247 . S
O142 Zn143 2.028 . S
Zn143 O142 2.028 . S
Zn143 O147 2.035 . S
Zn143 O149 2.035 . S
Zn143 O150 2.028 . S
O144 C140 1.258 . S
O144 Zn145 2.035 . S
Zn145 O144 2.035 . S
Zn145 O146 2.028 . S
Zn145 O148 2.028 . S
Zn145 O151 2.035 . S
O146 Zn145 2.028 . S
O146 C152 1.247 . S
O147 Zn143 2.035 . S
O147 C152 1.258 . S
O148 C141 1.247 . S
O148 Zn145 2.028 . S
O149 C141 1.258 . S
O149 Zn143 2.035 . S
O150 Zn143 2.028 . S
O150 C153 1.247 . S
O151 Zn145 2.035 . S
O151 C153 1.258 . S
C152 O146 1.247 . S
C152 O147 1.258 . S
C153 O150 1.247 . S
C153 O151 1.258 . S
C154 O156 1.247 . S
C154 O158 1.258 . S
C155 O162 1.247 . S
C155 O163 1.258 . S
O156 C154 1.247 . S
O156 Zn157 2.028 . S
Zn157 O156 2.028 . S
Zn157 O161 2.035 . S
Zn157 O163 2.035 . S
Zn157 O164 2.028 . S
O158 C154 1.258 . S
O158 Zn159 2.035 . S
Zn159 O158 2.035 . S
Zn159 O160 2.028 . S
Zn159 O162 2.028 . S
Zn159 O165 2.035 . S
O160 Zn159 2.028 . S
O160 C166 1.247 . S
O161 Zn157 2.035 . S
O161 C166 1.258 . S
O162 C155 1.247 . S
O162 Zn159 2.028 . S
O163 C155 1.258 . S
O163 Zn157 2.035 . S
O164 Zn157 2.028 . S
O164 C167 1.247 . S
O165 Zn159 2.035 . S
O165 C167 1.258 . S
C166 O160 1.247 . S
C166 O161 1.258 . S
C167 O164 1.247 . S
C167 O165 1.258 . S
C168 O170 1.247 . S
C168 O172 1.258 . S
C169 O176 1.247 . S
C169 O177 1.258 . S
O170 C168 1.247 . S
O170 Zn171 2.028 . S
Zn171 O170 2.028 . S
Zn171 O175 2.035 . S
Zn171 O177 2.035 . S
Zn171 O178 2.028 . S
O172 C168 1.258 . S
O172 Zn173 2.035 . S
Zn173 O172 2.035 . S
Zn173 O174 2.028 . S
Zn173 O176 2.028 . S
Zn173 O179 2.035 . S
O174 Zn173 2.028 . S
O174 C180 1.247 . S
O175 Zn171 2.035 . S
O175 C180 1.258 . S
O176 C169 1.247 . S
O176 Zn173 2.028 . S
O177 C169 1.258 . S
O177 Zn171 2.035 . S
O178 Zn171 2.028 . S
O178 C181 1.247 . S
O179 Zn173 2.035 . S
O179 C181 1.258 . S
C180 O174 1.247 . S
C180 O175 1.258 . S
C181 O178 1.247 . S
C181 O179 1.258 . S
C182 O184 1.247 . S
C182 O186 1.258 . S
C183 O190 1.247 . S
C183 O191 1.258 . S
O184 C182 1.247 . S
O184 Zn185 2.028 . S
Zn185 O184 2.028 . S
Zn185 O189 2.035 . S
Zn185 O191 2.035 . S
Zn185 O192 2.028 . S
O186 C182 1.258 . S
O186 Zn187 2.035 . S
Zn187 O186 2.035 . S
Zn187 O188 2.028 . S
Zn187 O190 2.028 . S
Zn187 O193 2.035 . S
O188 Zn187 2.028 . S
O188 C194 1.247 . S
O189 Zn185 2.035 . S
O189 C194 1.258 . S
O190 C183 1.247 . S
O190 Zn187 2.028 . S
O191 C183 1.258 . S
O191 Zn185 2.035 . S
O192 Zn185 2.028 . S
O192 C195 1.247 . S
O193 Zn187 2.035 . S
O193 C195 1.258 . S
C194 O188 1.247 . S
C194 O189 1.258 . S
C195 O192 1.247 . S
C195 O193 1.258 . S
C196 O198 1.247 . S
C196 O200 1.258 . S
C197 O204 1.247 . S
C197 O205 1.258 . S
O198 C196 1.247 . S
O198 Zn199 2.028 . S
Zn199 O198 2.028 . S
Zn199 O203 2.035 . S
Zn199 O205 2.035 . S
Zn199 O206 2.028 . S
O200 C196 1.258 . S
O200 Zn201 2.035 . S
Zn201 O200 2.035 . S
Zn201 O202 2.028 . S
Zn201 O204 2.028 . S
Zn201 O207 2.035 . S
O202 Zn201 2.028 . S
O202 C208 1.247 . S
O203 Zn199 2.035 . S
O203 C208 1.258 . S
O204 C197 1.247 . S
O204 Zn201 2.028 . S
O205 C197 1.258 . S
O205 Zn199 2.035 . S
O206 Zn199 2.028 . S
O206 C209 1.247 . S
O207 Zn201 2.035 . S
O207 C209 1.258 . S
C208 O202 1.247 . S
C208 O203 1.258 . S
C209 O206 1.247 . S
C209 O207 1.258 . S
C210 O212 1.247 . S
C210 O214 1.258 . S
C211 O218 1.247 . S
C211 O219 1.258 . S
O212 C210 1.247 . S
O212 Zn213 2.028 . S
Zn213 O212 2.028 . S
Zn213 O217 2.035 . S
Zn213 O219 2.035 . S
Zn213 O220 2.028 . S
O214 C210 1.258 . S
O214 Zn215 2.035 . S
Zn215 O214 2.035 . S
Zn215 O216 2.028 . S
Zn215 O218 2.028 . S
Zn215 O221 2.035 . S
O216 Zn215 2.028 . S
O216 C222 1.247 . S
O217 Zn213 2.035 . S
O217 C222 1.258 . S
O218 C211 1.247 . S
O218 Zn215 2.028 . S
O219 C211 1.258 . S
O219 Zn213 2.035 . S
O220 Zn213 2.028 . S
O220 C223 1.247 . S
O221 Zn215 2.035 . S
O221 C223 1.258 . S
C222 O216 1.247 . S
C222 O217 1.258 . S
C223 O220 1.247 . S
C223 O221 1.258 . S
C224 C225 1.391 . S
C224 C226 1.394 . S
C224 H240 0.931 . S
C225 C224 1.391 . S
C225 C229 1.376 . S
C226 C224 1.394 . S
C226 C227 1.369 . S
C226 C230 1.531 1_556 S
C227 C226 1.369 . S
C227 C228 1.410 . S
C227 C235 1.503 1_556 S
C228 C227 1.410 . S
C228 C229 1.392 . S
C228 C231 1.511 . S
C229 C225 1.376 . S
C229 C228 1.392 . S
C229 H241 0.929 . S
C230 C226 1.531 1_554 S
C230 H242 0.960 . S
C230 H243 0.962 . S
C230 H244 0.960 1_554 S
C231 C228 1.511 . S
C231 H245 0.961 . S
C231 H246 0.961 . S
C231 H247 0.961 . S
C232 C233 1.370 . S
C232 C234 1.363 . S
C232 H248 0.931 . S
C233 C232 1.370 . S
C233 C237 1.408 . S
C234 C232 1.363 . S
C234 C235 1.370 . S
C234 C238 1.524 . S
C235 C227 1.503 1_554 S
C235 C234 1.370 . S
C235 C236 1.403 . S
C236 C235 1.403 . S
C236 C237 1.404 . S
C236 C239 1.539 . S
C237 C233 1.408 . S
C237 C236 1.404 . S
C237 H249 0.930 . S
C238 C234 1.524 . S
C238 H250 0.956 . S
C238 H251 0.961 1_554 S
C238 H252 0.961 . S
C239 C236 1.539 . S
C239 H253 0.958 . S
C239 H254 0.961 . S
C239 H255 0.960 1_554 S
H240 C224 0.931 . S
H241 C229 0.929 . S
H242 C230 0.960 . S
H243 C230 0.962 . S
H244 C230 0.960 1_556 S
H245 C231 0.961 . S
H246 C231 0.961 . S
H247 C231 0.961 . S
H248 C232 0.931 . S
H249 C237 0.930 . S
H250 C238 0.956 . S
H251 C238 0.961 1_556 S
H252 C238 0.961 . S
H253 C239 0.958 . S
H254 C239 0.961 . S
H255 C239 0.960 1_556 S
C256 C257 1.391 . S
C256 C258 1.394 . S
C256 H272 0.931 . S
C257 C256 1.391 . S
C257 C261 1.376 . S
C258 C256 1.394 . S
C258 C259 1.369 . S
C258 C262 1.531 . S
C259 C258 1.369 . S
C259 C260 1.410 . S
C259 C267 1.503 . S
C260 C259 1.410 . S
C260 C261 1.392 . S
C260 C263 1.511 . S
C261 C257 1.376 . S
C261 C260 1.392 . S
C261 H273 0.929 . S
C262 C258 1.531 . S
C262 H274 0.960 . S
C262 H275 0.962 . S
C262 H276 0.960 . S
C263 C260 1.511 . S
C263 H277 0.961 . S
C263 H278 0.961 . S
C263 H279 0.961 . S
C264 C265 1.370 . S
C264 C266 1.363 . S
C264 H280 0.931 . S
C265 C264 1.370 . S
C265 C269 1.408 . S
C266 C264 1.363 . S
C266 C267 1.370 . S
C266 C270 1.524 . S
C267 C259 1.503 . S
C267 C266 1.370 . S
C267 C268 1.403 . S
C268 C267 1.403 . S
C268 C269 1.404 . S
C268 C271 1.539 . S
C269 C265 1.408 . S
C269 C268 1.404 . S
C269 H281 0.930 . S
C270 C266 1.524 . S
C270 H282 0.956 . S
C270 H283 0.961 . S
C270 H284 0.961 . S
C271 C268 1.539 . S
C271 H285 0.958 . S
C271 H286 0.961 . S
C271 H287 0.960 . S
H272 C256 0.931 . S
H273 C261 0.929 . S
H274 C262 0.960 . S
H275 C262 0.962 . S
H276 C262 0.960 . S
H277 C263 0.961 . S
H278 C263 0.961 . S
H279 C263 0.961 . S
H280 C264 0.931 . S
H281 C269 0.930 . S
H282 C270 0.956 . S
H283 C270 0.961 . S
H284 C270 0.961 . S
H285 C271 0.958 . S
H286 C271 0.961 . S
H287 C271 0.960 . S
C288 C289 1.391 . S
C288 C290 1.394 . S
C288 H304 0.931 . S
C289 C288 1.391 . S
C289 C293 1.376 . S
C290 C288 1.394 . S
C290 C291 1.369 . S
C290 C294 1.531 1_556 S
C291 C290 1.369 . S
C291 C292 1.410 . S
C291 C299 1.503 1_556 S
C292 C291 1.410 . S
C292 C293 1.392 . S
C292 C295 1.511 . S
C293 C289 1.376 . S
C293 C292 1.392 . S
C293 H305 0.929 . S
C294 C290 1.531 1_554 S
C294 H306 0.960 . S
C294 H307 0.962 . S
C294 H308 0.960 1_554 S
C295 C292 1.511 . S
C295 H309 0.961 . S
C295 H310 0.961 . S
C295 H311 0.961 . S
C296 C297 1.370 . S
C296 C298 1.363 . S
C296 H312 0.931 . S
C297 C296 1.370 . S
C297 C301 1.408 . S
C298 C296 1.363 . S
C298 C299 1.370 . S
C298 C302 1.524 . S
C299 C291 1.503 1_554 S
C299 C298 1.370 . S
C299 C300 1.403 . S
C300 C299 1.403 . S
C300 C301 1.404 . S
C300 C303 1.539 . S
C301 C297 1.408 . S
C301 C300 1.404 . S
C301 H313 0.930 . S
C302 C298 1.524 . S
C302 H314 0.956 . S
C302 H315 0.961 1_554 S
C302 H316 0.961 . S
C303 C300 1.539 . S
C303 H317 0.958 . S
C303 H318 0.961 . S
C303 H319 0.969 . S
H304 C288 0.931 . S
H305 C293 0.929 . S
H306 C294 0.960 . S
H307 C294 0.962 . S
H308 C294 0.960 1_556 S
H309 C295 0.961 . S
H310 C295 0.961 . S
H311 C295 0.961 . S
H312 C296 0.931 . S
H313 C301 0.930 . S
H314 C302 0.956 . S
H315 C302 0.961 1_556 S
H316 C302 0.961 . S
H317 C303 0.958 . S
H318 C303 0.961 . S
H319 C303 0.969 . S
C320 C321 1.391 . S
C320 C322 1.394 . S
C320 H336 0.931 . S
C321 C320 1.391 . S
C321 C325 1.376 . S
C322 C320 1.394 . S
C322 C323 1.369 . S
C322 C326 1.531 . S
C323 C322 1.369 . S
C323 C324 1.410 . S
C323 C331 1.503 . S
C324 C323 1.410 . S
C324 C325 1.392 . S
C324 C327 1.511 . S
C325 C321 1.376 . S
C325 C324 1.392 . S
C325 H337 0.929 . S
C326 C322 1.531 . S
C326 H338 0.960 . S
C326 H339 0.962 . S
C326 H340 0.960 . S
C327 C324 1.511 . S
C327 H341 0.961 . S
C327 H342 0.961 . S
C327 H343 0.961 . S
C328 C329 1.370 . S
C328 C330 1.363 . S
C328 H344 0.931 . S
C329 C328 1.370 . S
C329 C333 1.408 . S
C330 C328 1.363 . S
C330 C331 1.370 . S
C330 C334 1.524 . S
C331 C323 1.503 . S
C331 C330 1.370 . S
C331 C332 1.403 . S
C332 C331 1.403 . S
C332 C333 1.404 . S
C332 C335 1.539 . S
C333 C329 1.408 . S
C333 C332 1.404 . S
C333 H345 0.930 . S
C334 C330 1.524 . S
C334 H346 0.956 . S
C334 H347 0.961 . S
C334 H348 0.961 . S
C335 C332 1.539 . S
C335 H349 0.958 . S
C335 H350 0.961 . S
C335 H351 0.960 . S
H336 C320 0.931 . S
H337 C325 0.929 . S
H338 C326 0.960 . S
H339 C326 0.962 . S
H340 C326 0.960 . S
H341 C327 0.961 . S
H342 C327 0.961 . S
H343 C327 0.961 . S
H344 C328 0.931 . S
H345 C333 0.930 . S
H346 C334 0.956 . S
H347 C334 0.961 . S
H348 C334 0.961 . S
H349 C335 0.958 . S
H350 C335 0.961 . S
H351 C335 0.960 . S
C352 C353 1.391 . S
C352 C354 1.394 . S
C352 H368 0.931 . S
C353 C352 1.391 . S
C353 C357 1.376 . S
C354 C352 1.394 . S
C354 C355 1.369 . S
C354 C358 1.531 . S
C355 C354 1.369 . S
C355 C356 1.410 . S
C355 C363 1.503 1_554 S
C356 C355 1.410 . S
C356 C357 1.392 . S
C356 C359 1.511 . S
C357 C353 1.376 . S
C357 C356 1.392 . S
C357 H369 0.929 . S
C358 C354 1.531 . S
C358 H370 0.955 . S
C358 H371 0.962 . S
C358 H372 0.960 . S
C359 C356 1.511 . S
C359 H373 0.961 . S
C359 H374 0.961 1_554 S
C359 H375 0.961 1_554 S
C360 C361 1.370 . S
C360 C362 1.363 . S
C360 H376 0.931 . S
C361 C360 1.370 . S
C361 C365 1.408 . S
C362 C360 1.363 . S
C362 C363 1.370 . S
C362 C366 1.524 1_556 S
C363 C355 1.503 1_556 S
C363 C362 1.370 . S
C363 C364 1.403 . S
C364 C363 1.403 . S
C364 C365 1.404 . S
C364 C367 1.539 . S
C365 C361 1.408 . S
C365 C364 1.404 . S
C365 H377 0.930 . S
C366 C362 1.524 1_554 S
C366 H378 0.956 . S
C366 H379 0.961 . S
C366 H380 0.961 1_554 S
C367 C364 1.539 . S
C367 H381 0.958 . S
C367 H382 0.961 . S
C367 H383 0.960 . S
H368 C352 0.931 . S
H369 C357 0.929 . S
H370 C358 0.955 . S
H371 C358 0.962 . S
H372 C358 0.960 . S
H373 C359 0.961 . S
H374 C359 0.961 1_556 S
H375 C359 0.961 1_556 S
H376 C360 0.931 . S
H377 C365 0.930 . S
H378 C366 0.956 . S
H379 C366 0.961 . S
H380 C366 0.961 1_556 S
H381 C367 0.958 . S
H382 C367 0.961 . S
H383 C367 0.960 . S
C384 C385 1.391 . S
C384 C386 1.394 . S
C384 H400 0.931 . S
C385 C384 1.391 . S
C385 C389 1.376 . S
C386 C384 1.394 . S
C386 C387 1.369 . S
C386 C390 1.531 . S
C387 C386 1.369 . S
C387 C388 1.410 . S
C387 C395 1.503 . S
C388 C387 1.410 . S
C388 C389 1.392 . S
C388 C391 1.511 . S
C389 C385 1.376 . S
C389 C388 1.392 . S
C389 H401 0.929 . S
C390 C386 1.531 . S
C390 H402 0.960 . S
C390 H403 0.962 . S
C390 H404 0.960 . S
C391 C388 1.511 . S
C391 H405 0.961 . S
C391 H406 0.961 . S
C391 H407 0.961 . S
C392 C393 1.370 . S
C392 C394 1.363 . S
C392 H408 0.931 . S
C393 C392 1.370 . S
C393 C397 1.408 . S
C394 C392 1.363 . S
C394 C395 1.370 . S
C394 C398 1.524 . S
C395 C387 1.503 . S
C395 C394 1.370 . S
C395 C396 1.403 . S
C396 C395 1.403 . S
C396 C397 1.404 . S
C396 C399 1.539 . S
C397 C393 1.408 . S
C397 C396 1.404 . S
C397 H409 0.930 . S
C398 C394 1.524 . S
C398 H410 0.956 . S
C398 H411 0.961 . S
C398 H412 0.961 . S
C399 C396 1.539 . S
C399 H413 0.958 . S
C399 H414 0.961 . S
C399 H415 0.960 . S
H400 C384 0.931 . S
H401 C389 0.929 . S
H402 C390 0.960 . S
H403 C390 0.962 . S
H404 C390 0.960 . S
H405 C391 0.961 . S
H406 C391 0.961 . S
H407 C391 0.961 . S
H408 C392 0.931 . S
H409 C397 0.930 . S
H410 C398 0.956 . S
H411 C398 0.961 . S
H412 C398 0.961 . S
H413 C399 0.958 . S
H414 C399 0.961 . S
H415 C399 0.960 . S
C416 C417 1.391 . S
C416 C418 1.394 . S
C416 H432 0.931 . S
C417 C416 1.391 . S
C417 C421 1.376 . S
C418 C416 1.394 . S
C418 C419 1.369 . S
C418 C422 1.531 1_556 S
C419 C418 1.369 . S
C419 C420 1.410 . S
C419 C427 1.503 1_556 S
C420 C419 1.410 . S
C420 C421 1.392 . S
C420 C423 1.511 . S
C421 C417 1.376 . S
C421 C420 1.392 . S
C421 H433 0.929 . S
C422 C418 1.531 1_554 S
C422 H434 0.960 . S
C422 H435 0.962 . S
C422 H436 0.960 1_554 S
C423 C420 1.511 . S
C423 H437 0.961 . S
C423 H438 0.961 . S
C423 H439 0.961 . S
C424 C425 1.370 . S
C424 C426 1.363 . S
C424 H440 0.931 . S
C425 C424 1.370 . S
C425 C429 1.408 . S
C426 C424 1.363 . S
C426 C427 1.370 . S
C426 C430 1.524 . S
C427 C419 1.503 1_554 S
C427 C426 1.370 . S
C427 C428 1.403 . S
C428 C427 1.403 . S
C428 C429 1.404 . S
C428 C431 1.539 . S
C429 C425 1.408 . S
C429 C428 1.404 . S
C429 H441 0.930 . S
C430 C426 1.524 . S
C430 H442 0.956 . S
C430 H443 0.961 1_554 S
C430 H444 0.961 . S
C431 C428 1.539 . S
C431 H445 0.958 . S
C431 H446 0.961 . S
C431 H447 0.960 1_554 S
H432 C416 0.931 . S
H433 C421 0.929 . S
H434 C422 0.960 . S
H435 C422 0.962 . S
H436 C422 0.960 1_556 S
H437 C423 0.961 . S
H438 C423 0.961 . S
H439 C423 0.961 . S
H440 C424 0.931 . S
H441 C429 0.930 . S
H442 C430 0.956 . S
H443 C430 0.961 1_556 S
H444 C430 0.961 . S
H445 C431 0.958 . S
H446 C431 0.961 . S
H447 C431 0.960 1_556 S
C448 C449 1.391 . S
C448 C450 1.394 . S
C448 H464 0.931 . S
C449 C448 1.391 . S
C449 C453 1.376 . S
C450 C448 1.394 . S
C450 C451 1.369 . S
C450 C454 1.531 . S
C451 C450 1.369 . S
C451 C452 1.410 . S
C451 C459 1.503 . S
C452 C451 1.410 . S
C452 C453 1.392 . S
C452 C455 1.511 . S
C453 C449 1.376 . S
C453 C452 1.392 . S
C453 H465 0.929 . S
C454 C450 1.531 . S
C454 H466 0.960 . S
C454 H467 0.962 . S
C454 H468 0.960 . S
C455 C452 1.511 . S
C455 H469 0.961 . S
C455 H470 0.961 . S
C455 H471 0.961 . S
C456 C457 1.370 . S
C456 C458 1.363 . S
C456 H472 0.931 . S
C457 C456 1.370 . S
C457 C461 1.408 . S
C458 C456 1.363 . S
C458 C459 1.370 . S
C458 C462 1.524 . S
C459 C451 1.503 . S
C459 C458 1.370 . S
C459 C460 1.403 . S
C460 C459 1.403 . S
C460 C461 1.404 . S
C460 C463 1.539 . S
C461 C457 1.408 . S
C461 C460 1.404 . S
C461 H473 0.930 . S
C462 C458 1.524 . S
C462 H474 0.956 . S
C462 H475 0.961 . S
C462 H476 0.961 . S
C463 C460 1.539 . S
C463 H477 0.958 . S
C463 H478 0.961 . S
C463 H479 0.960 . S
H464 C448 0.931 . S
H465 C453 0.929 . S
H466 C454 0.960 . S
H467 C454 0.962 . S
H468 C454 0.960 . S
H469 C455 0.961 . S
H470 C455 0.961 . S
H471 C455 0.961 . S
H472 C456 0.931 . S
H473 C461 0.930 . S
H474 C462 0.956 . S
H475 C462 0.961 . S
H476 C462 0.961 . S
H477 C463 0.958 . S
H478 C463 0.961 . S
H479 C463 0.960 . S
C480 C481 1.391 . S
C480 C482 1.394 . S
C480 H496 0.931 . S
C481 C480 1.391 . S
C481 C485 1.376 . S
C482 C480 1.394 . S
C482 C483 1.369 . S
C482 C486 1.531 . S
C483 C482 1.369 . S
C483 C484 1.410 . S
C483 C491 1.503 . S
C484 C483 1.410 . S
C484 C485 1.392 . S
C484 C487 1.511 . S
C485 C481 1.376 . S
C485 C484 1.392 . S
C485 H497 0.929 . S
C486 C482 1.531 . S
C486 H498 0.960 . S
C486 H499 0.962 . S
C486 H500 0.960 . S
C487 C484 1.511 . S
C487 H501 0.961 . S
C487 H502 0.961 . S
C487 H503 0.961 . S
C488 C489 1.370 . S
C488 C490 1.363 . S
C488 H504 0.931 . S
C489 C488 1.370 . S
C489 C493 1.408 . S
C490 C488 1.363 . S
C490 C491 1.370 . S
C490 C494 1.524 . S
C491 C483 1.503 . S
C491 C490 1.370 . S
C491 C492 1.403 . S
C492 C491 1.403 . S
C492 C493 1.404 . S
C492 C495 1.539 . S
C493 C489 1.408 . S
C493 C492 1.404 . S
C493 H505 0.930 . S
C494 C490 1.524 . S
C494 H506 0.956 . S
C494 H507 0.961 . S
C494 H508 0.961 . S
C495 C492 1.539 . S
C495 H509 0.958 . S
C495 H510 0.961 . S
C495 H511 0.960 . S
H496 C480 0.931 . S
H497 C485 0.929 . S
H498 C486 0.960 . S
H499 C486 0.962 . S
H500 C486 0.960 . S
H501 C487 0.961 . S
H502 C487 0.961 . S
H503 C487 0.961 . S
H504 C488 0.931 . S
H505 C493 0.930 . S
H506 C494 0.956 . S
H507 C494 0.961 . S
H508 C494 0.961 . S
H509 C495 0.958 . S
H510 C495 0.961 . S
H511 C495 0.960 . S
C512 C513 1.391 . S
C512 C514 1.394 . S
C512 H528 0.931 . S
C513 C512 1.391 . S
C513 C517 1.376 . S
C514 C512 1.394 . S
C514 C515 1.369 . S
C514 C518 1.531 . S
C515 C514 1.369 . S
C515 C516 1.410 . S
C515 C523 1.503 . S
C516 C515 1.410 . S
C516 C517 1.392 . S
C516 C519 1.511 . S
C517 C513 1.376 . S
C517 C516 1.392 . S
C517 H529 0.929 . S
C518 C514 1.531 . S
C518 H530 0.960 . S
C518 H531 0.962 . S
C518 H532 0.960 . S
C519 C516 1.511 . S
C519 H533 0.961 . S
C519 H534 0.961 . S
C519 H535 0.961 . S
C520 C521 1.370 . S
C520 C522 1.363 . S
C520 H536 0.931 . S
C521 C520 1.370 . S
C521 C525 1.408 . S
C522 C520 1.363 . S
C522 C523 1.370 . S
C522 C526 1.524 . S
C523 C515 1.503 . S
C523 C522 1.370 . S
C523 C524 1.403 . S
C524 C523 1.403 . S
C524 C525 1.404 . S
C524 C527 1.539 . S
C525 C521 1.408 . S
C525 C524 1.404 . S
C525 H537 0.930 . S
C526 C522 1.524 . S
C526 H538 0.956 . S
C526 H539 0.961 . S
C526 H540 0.961 . S
C527 C524 1.539 . S
C527 H541 0.958 . S
C527 H542 0.961 . S
C527 H543 0.960 . S
H528 C512 0.931 . S
H529 C517 0.929 . S
H530 C518 0.960 . S
H531 C518 0.962 . S
H532 C518 0.960 . S
H533 C519 0.961 . S
H534 C519 0.961 . S
H535 C519 0.961 . S
H536 C520 0.931 . S
H537 C525 0.930 . S
H538 C526 0.956 . S
H539 C526 0.961 . S
H540 C526 0.961 . S
H541 C527 0.958 . S
H542 C527 0.961 . S
H543 C527 0.960 . S
C544 C545 1.391 . S
C544 C546 1.394 . S
C544 H560 0.931 . S
C545 C544 1.391 . S
C545 C549 1.376 . S
C546 C544 1.394 . S
C546 C547 1.369 . S
C546 C550 1.531 . S
C547 C546 1.369 . S
C547 C548 1.410 . S
C547 C555 1.503 . S
C548 C547 1.410 . S
C548 C549 1.392 . S
C548 C551 1.511 . S
C549 C545 1.376 . S
C549 C548 1.392 . S
C549 H561 0.929 . S
C550 C546 1.531 . S
C550 H562 0.960 . S
C550 H563 0.962 . S
C550 H564 0.960 . S
C551 C548 1.511 . S
C551 H565 0.961 . S
C551 H566 0.961 . S
C551 H567 0.961 . S
C552 C553 1.370 . S
C552 C554 1.363 . S
C552 H568 0.931 . S
C553 C552 1.370 . S
C553 C557 1.408 . S
C554 C552 1.363 . S
C554 C555 1.370 . S
C554 C558 1.524 . S
C555 C547 1.503 . S
C555 C554 1.370 . S
C555 C556 1.403 . S
C556 C555 1.403 . S
C556 C557 1.404 . S
C556 C559 1.539 . S
C557 C553 1.408 . S
C557 C556 1.404 . S
C557 H569 0.930 . S
C558 C554 1.524 . S
C558 H570 0.956 . S
C558 H571 0.961 . S
C558 H572 0.961 . S
C559 C556 1.539 . S
C559 H573 0.958 . S
C559 H574 0.961 . S
C559 H575 0.960 . S
H560 C544 0.931 . S
H561 C549 0.929 . S
H562 C550 0.960 . S
H563 C550 0.962 . S
H564 C550 0.960 . S
H565 C551 0.961 . S
H566 C551 0.961 . S
H567 C551 0.961 . S
H568 C552 0.931 . S
H569 C557 0.930 . S
H570 C558 0.956 . S
H571 C558 0.961 . S
H572 C558 0.961 . S
H573 C559 0.958 . S
H574 C559 0.961 . S
H575 C559 0.960 . S
C576 C577 1.391 . S
C576 C578 1.394 . S
C576 H592 0.931 . S
C577 C576 1.391 . S
C577 C581 1.376 . S
C578 C576 1.394 . S
C578 C579 1.369 . S
C578 C582 1.531 . S
C579 C578 1.369 . S
C579 C580 1.410 . S
C579 C587 1.503 . S
C580 C579 1.410 . S
C580 C581 1.392 . S
C580 C583 1.511 . S
C581 C577 1.376 . S
C581 C580 1.392 . S
C581 H593 0.929 . S
C582 C578 1.531 . S
C582 H594 0.960 . S
C582 H595 0.962 . S
C582 H596 0.960 . S
C583 C580 1.511 . S
C583 H597 0.961 . S
C583 H598 0.961 . S
C583 H599 0.961 . S
C584 C585 1.370 . S
C584 C586 1.363 . S
C584 H600 0.931 . S
C585 C584 1.370 . S
C585 C589 1.408 . S
C586 C584 1.363 . S
C586 C587 1.370 . S
C586 C590 1.524 . S
C587 C579 1.503 . S
C587 C586 1.370 . S
C587 C588 1.403 . S
C588 C587 1.403 . S
C588 C589 1.404 . S
C588 C591 1.539 . S
C589 C585 1.408 . S
C589 C588 1.404 . S
C589 H601 0.930 . S
C590 C586 1.524 . S
C590 H602 0.956 . S
C590 H603 0.961 . S
C590 H604 0.961 . S
C591 C588 1.539 . S
C591 H605 0.958 . S
C591 H606 0.961 . S
C591 H607 0.960 . S
H592 C576 0.931 . S
H593 C581 0.929 . S
H594 C582 0.960 . S
H595 C582 0.962 . S
H596 C582 0.960 . S
H597 C583 0.961 . S
H598 C583 0.961 . S
H599 C583 0.961 . S
H600 C584 0.931 . S
H601 C589 0.930 . S
H602 C590 0.956 . S
H603 C590 0.961 . S
H604 C590 0.961 . S
H605 C591 0.958 . S
H606 C591 0.961 . S
H607 C591 0.960 . S
C608 C609 1.391 . S
C608 C610 1.394 . S
C608 H624 0.931 . S
C609 C608 1.391 . S
C609 C613 1.376 . S
C610 C608 1.394 . S
C610 C611 1.369 . S
C610 C614 1.531 . S
C611 C610 1.369 . S
C611 C612 1.410 . S
C611 C619 1.503 . S
C612 C611 1.410 . S
C612 C613 1.392 . S
C612 C615 1.511 . S
C613 C609 1.376 . S
C613 C612 1.392 . S
C613 H625 0.929 . S
C614 C610 1.531 . S
C614 H626 0.960 . S
C614 H627 0.962 . S
C614 H628 0.960 . S
C615 C612 1.511 . S
C615 H629 0.961 . S
C615 H630 0.961 . S
C615 H631 0.961 . S
C616 C617 1.370 . S
C616 C618 1.363 . S
C616 H632 0.931 . S
C617 C616 1.370 . S
C617 C621 1.408 . S
C618 C616 1.363 . S
C618 C619 1.370 . S
C618 C622 1.524 . S
C619 C611 1.503 . S
C619 C618 1.370 . S
C619 C620 1.403 . S
C620 C619 1.403 . S
C620 C621 1.404 . S
C620 C623 1.539 . S
C621 C617 1.408 . S
C621 C620 1.404 . S
C621 H633 0.930 . S
C622 C618 1.524 . S
C622 H634 0.956 . S
C622 H635 0.961 . S
C622 H636 0.961 . S
C623 C620 1.539 . S
C623 H637 0.958 . S
C623 H638 0.961 . S
C623 H639 0.960 . S
H624 C608 0.931 . S
H625 C613 0.929 . S
H626 C614 0.960 . S
H627 C614 0.962 . S
H628 C614 0.960 . S
H629 C615 0.961 . S
H630 C615 0.961 . S
H631 C615 0.961 . S
H632 C616 0.931 . S
H633 C621 0.930 . S
H634 C622 0.956 . S
H635 C622 0.961 . S
H636 C622 0.961 . S
H637 C623 0.958 . S
H638 C623 0.961 . S
H639 C623 0.960 . S
C640 C641 1.391 . S
C640 C642 1.394 . S
C640 H656 0.931 . S
C641 C640 1.391 . S
C641 C645 1.376 . S
C642 C640 1.394 . S
C642 C643 1.369 . S
C642 C646 1.531 . S
C643 C642 1.369 . S
C643 C644 1.410 . S
C643 C651 1.503 . S
C644 C643 1.410 . S
C644 C645 1.392 . S
C644 C647 1.511 . S
C645 C641 1.376 . S
C645 C644 1.392 . S
C645 H657 0.929 . S
C646 C642 1.531 . S
C646 H658 0.960 . S
C646 H659 0.962 . S
C646 H660 0.960 . S
C647 C644 1.511 . S
C647 H661 0.961 . S
C647 H662 0.961 . S
C647 H663 0.961 . S
C648 C649 1.370 . S
C648 C650 1.363 . S
C648 H664 0.931 . S
C649 C648 1.370 . S
C649 C653 1.408 . S
C650 C648 1.363 . S
C650 C651 1.370 . S
C650 C654 1.524 . S
C651 C643 1.503 . S
C651 C650 1.370 . S
C651 C652 1.403 . S
C652 C651 1.403 . S
C652 C653 1.404 . S
C652 C655 1.539 . S
C653 C649 1.408 . S
C653 C652 1.404 . S
C653 H665 0.930 . S
C654 C650 1.524 . S
C654 H666 0.956 . S
C654 H667 0.961 . S
C654 H668 0.961 . S
C655 C652 1.539 . S
C655 H669 0.958 . S
C655 H670 0.961 . S
C655 H671 0.960 . S
H656 C640 0.931 . S
H657 C645 0.929 . S
H658 C646 0.960 . S
H659 C646 0.962 . S
H660 C646 0.960 . S
H661 C647 0.961 . S
H662 C647 0.961 . S
H663 C647 0.961 . S
H664 C648 0.931 . S
H665 C653 0.930 . S
H666 C654 0.956 . S
H667 C654 0.961 . S
H668 C654 0.961 . S
H669 C655 0.958 . S
H670 C655 0.961 . S
H671 C655 0.960 . S
C672 C673 1.391 . S
C672 C674 1.394 . S
C672 H688 0.931 . S
C673 C672 1.391 . S
C673 C677 1.376 . S
C674 C672 1.394 . S
C674 C675 1.369 . S
C674 C678 1.531 . S
C675 C674 1.369 . S
C675 C676 1.410 . S
C675 C683 1.503 . S
C676 C675 1.410 . S
C676 C677 1.392 . S
C676 C679 1.511 . S
C677 C673 1.376 . S
C677 C676 1.392 . S
C677 H689 0.929 . S
C678 C674 1.531 . S
C678 H690 0.960 . S
C678 H691 0.962 . S
C678 H692 0.960 . S
C679 C676 1.511 . S
C679 H693 0.961 . S
C679 H694 0.961 . S
C679 H695 0.961 . S
C680 C681 1.370 . S
C680 C682 1.363 . S
C680 H696 0.931 . S
C681 C680 1.370 . S
C681 C685 1.408 . S
C682 C680 1.363 . S
C682 C683 1.370 . S
C682 C686 1.524 . S
C683 C675 1.503 . S
C683 C682 1.370 . S
C683 C684 1.403 . S
C684 C683 1.403 . S
C684 C685 1.404 . S
C684 C687 1.539 . S
C685 C681 1.408 . S
C685 C684 1.404 . S
C685 H697 0.930 . S
C686 C682 1.524 . S
C686 H698 0.956 . S
C686 H699 0.961 . S
C686 H700 0.961 . S
C687 C684 1.539 . S
C687 H701 0.958 . S
C687 H702 0.961 . S
C687 H703 0.960 . S
H688 C672 0.931 . S
H689 C677 0.929 . S
H690 C678 0.960 . S
H691 C678 0.962 . S
H692 C678 0.960 . S
H693 C679 0.961 . S
H694 C679 0.961 . S
H695 C679 0.961 . S
H696 C680 0.931 . S
H697 C685 0.930 . S
H698 C686 0.956 . S
H699 C686 0.961 . S
H700 C686 0.961 . S
H701 C687 0.958 . S
H702 C687 0.961 . S
H703 C687 0.960 . S
C704 C705 1.391 . S
C704 C706 1.394 . S
C704 H720 0.931 . S
C705 C704 1.391 . S
C705 C709 1.376 . S
C706 C704 1.394 . S
C706 C707 1.369 . S
C706 C710 1.531 . S
C707 C706 1.369 . S
C707 C708 1.410 . S
C707 C715 1.503 . S
C708 C707 1.410 . S
C708 C709 1.392 . S
C708 C711 1.511 . S
C709 C705 1.376 . S
C709 C708 1.392 . S
C709 H721 0.929 . S
C710 C706 1.531 . S
C710 H722 0.960 . S
C710 H723 0.962 . S
C710 H724 0.960 . S
C711 C708 1.511 . S
C711 H725 0.961 . S
C711 H726 0.961 . S
C711 H727 0.961 . S
C712 C713 1.370 . S
C712 C714 1.363 . S
C712 H728 0.931 . S
C713 C712 1.370 . S
C713 C717 1.408 . S
C714 C712 1.363 . S
C714 C715 1.370 . S
C714 C718 1.524 . S
C715 C707 1.503 . S
C715 C714 1.370 . S
C715 C716 1.403 . S
C716 C715 1.403 . S
C716 C717 1.404 . S
C716 C719 1.539 . S
C717 C713 1.408 . S
C717 C716 1.404 . S
C717 H729 0.930 . S
C718 C714 1.524 . S
C718 H730 0.956 . S
C718 H731 0.961 . S
C718 H732 0.961 . S
C719 C716 1.539 . S
C719 H733 0.958 . S
C719 H734 0.961 . S
C719 H735 0.960 . S
H720 C704 0.931 . S
H721 C709 0.929 . S
H722 C710 0.960 . S
H723 C710 0.962 . S
H724 C710 0.960 . S
H725 C711 0.961 . S
H726 C711 0.961 . S
H727 C711 0.961 . S
H728 C712 0.931 . S
H729 C717 0.930 . S
H730 C718 0.956 . S
H731 C718 0.961 . S
H732 C718 0.961 . S
H733 C719 0.958 . S
H734 C719 0.961 . S
H735 C719 0.960 . S
C736 C737 1.391 . S
C736 C738 1.394 . S
C736 H752 0.931 . S
C737 C736 1.391 . S
C737 C741 1.376 . S
C738 C736 1.394 . S
C738 C739 1.369 . S
C738 C742 1.531 . S
C739 C738 1.369 . S
C739 C740 1.410 . S
C739 C747 1.503 . S
C740 C739 1.410 . S
C740 C741 1.392 . S
C740 C743 1.511 . S
C741 C737 1.376 . S
C741 C740 1.392 . S
C741 H753 0.929 . S
C742 C738 1.531 . S
C742 H754 0.960 . S
C742 H755 0.962 . S
C742 H756 0.960 . S
C743 C740 1.511 . S
C743 H757 0.961 . S
C743 H758 0.961 . S
C743 H759 0.961 . S
C744 C745 1.370 . S
C744 C746 1.363 . S
C744 H760 0.931 . S
C745 C744 1.370 . S
C745 C749 1.408 . S
C746 C744 1.363 . S
C746 C747 1.370 . S
C746 C750 1.524 . S
C747 C739 1.503 . S
C747 C746 1.370 . S
C747 C748 1.403 . S
C748 C747 1.403 . S
C748 C749 1.404 . S
C748 C751 1.539 . S
C749 C745 1.408 . S
C749 C748 1.404 . S
C749 H761 0.930 . S
C750 C746 1.524 . S
C750 H762 0.956 . S
C750 H763 0.961 . S
C750 H764 0.961 . S
C751 C748 1.539 . S
C751 H765 0.958 . S
C751 H766 0.961 1_545 S
C751 H767 0.960 . S
H752 C736 0.931 . S
H753 C741 0.929 . S
H754 C742 0.960 . S
H755 C742 0.962 . S
H756 C742 0.960 . S
H757 C743 0.961 . S
H758 C743 0.961 . S
H759 C743 0.961 . S
H760 C744 0.931 . S
H761 C749 0.930 . S
H762 C750 0.956 . S
H763 C750 0.961 . S
H764 C750 0.961 . S
H765 C751 0.958 . S
H766 C751 0.961 1_565 S
H767 C751 0.960 . S
C768 C769 1.391 . S
C768 C770 1.394 . S
C768 H784 0.931 . S
C769 C768 1.391 . S
C769 C773 1.376 . S
C770 C768 1.394 . S
C770 C771 1.369 . S
C770 C774 1.531 . S
C771 C770 1.369 . S
C771 C772 1.410 . S
C771 C779 1.503 . S
C772 C771 1.410 . S
C772 C773 1.392 . S
C772 C775 1.511 . S
C773 C769 1.376 . S
C773 C772 1.392 . S
C773 H785 0.929 . S
C774 C770 1.531 . S
C774 H786 0.960 . S
C774 H787 0.962 . S
C774 H788 0.960 . S
C775 C772 1.511 . S
C775 H789 0.961 . S
C775 H790 0.961 . S
C775 H791 0.961 . S
C776 C777 1.370 . S
C776 C778 1.363 . S
C776 H792 0.931 . S
C777 C776 1.370 . S
C777 C781 1.408 . S
C778 C776 1.363 . S
C778 C779 1.370 . S
C778 C782 1.524 . S
C779 C771 1.503 . S
C779 C778 1.370 . S
C779 C780 1.403 . S
C780 C779 1.403 . S
C780 C781 1.404 . S
C780 C783 1.539 . S
C781 C777 1.408 . S
C781 C780 1.404 . S
C781 H793 0.930 . S
C782 C778 1.524 . S
C782 H794 0.956 . S
C782 H795 0.961 . S
C782 H796 0.961 . S
C783 C780 1.539 . S
C783 H797 0.958 . S
C783 H798 0.961 . S
C783 H799 0.960 . S
H784 C768 0.931 . S
H785 C773 0.929 . S
H786 C774 0.960 . S
H787 C774 0.962 . S
H788 C774 0.960 . S
H789 C775 0.961 . S
H790 C775 0.961 . S
H791 C775 0.961 . S
H792 C776 0.931 . S
H793 C781 0.930 . S
H794 C782 0.956 . S
H795 C782 0.961 . S
H796 C782 0.961 . S
H797 C783 0.958 . S
H798 C783 0.961 . S
H799 C783 0.960 . S
C800 C801 1.391 . S
C800 C802 1.394 . S
C800 H816 0.931 . S
C801 C800 1.391 . S
C801 C805 1.376 . S
C802 C800 1.394 . S
C802 C803 1.369 . S
C802 C806 1.531 . S
C803 C802 1.369 . S
C803 C804 1.410 . S
C803 C811 1.503 . S
C804 C803 1.410 . S
C804 C805 1.392 . S
C804 C807 1.511 . S
C805 C801 1.376 . S
C805 C804 1.392 . S
C805 H817 0.929 . S
C806 C802 1.531 . S
C806 H818 0.960 . S
C806 H819 0.962 . S
C806 H820 0.960 . S
C807 C804 1.511 . S
C807 H821 0.961 . S
C807 H822 0.961 . S
C807 H823 0.961 . S
C808 C809 1.370 . S
C808 C810 1.363 . S
C808 H824 0.931 . S
C809 C808 1.370 . S
C809 C813 1.408 . S
C810 C808 1.363 . S
C810 C811 1.370 . S
C810 C814 1.524 . S
C811 C803 1.503 . S
C811 C810 1.370 . S
C811 C812 1.403 . S
C812 C811 1.403 . S
C812 C813 1.404 . S
C812 C815 1.539 . S
C813 C809 1.408 . S
C813 C812 1.404 . S
C813 H825 0.930 . S
C814 C810 1.524 . S
C814 H826 0.956 . S
C814 H827 0.961 . S
C814 H828 0.961 . S
C815 C812 1.539 . S
C815 H829 0.958 . S
C815 H830 0.961 . S
C815 H831 0.960 . S
H816 C800 0.931 . S
H817 C805 0.929 . S
H818 C806 0.960 . S
H819 C806 0.962 . S
H820 C806 0.960 . S
H821 C807 0.961 . S
H822 C807 0.961 . S
H823 C807 0.961 . S
H824 C808 0.931 . S
H825 C813 0.930 . S
H826 C814 0.956 . S
H827 C814 0.961 . S
H828 C814 0.961 . S
H829 C815 0.958 . S
H830 C815 0.961 . S
H831 C815 0.960 . S
C832 C833 1.391 . S
C832 C834 1.394 . S
C832 H848 0.931 . S
C833 C832 1.391 . S
C833 C837 1.376 . S
C834 C832 1.394 . S
C834 C835 1.369 . S
C834 C838 1.531 . S
C835 C834 1.369 . S
C835 C836 1.410 . S
C835 C843 1.503 . S
C836 C835 1.410 . S
C836 C837 1.392 . S
C836 C839 1.511 . S
C837 C833 1.376 . S
C837 C836 1.392 . S
C837 H849 0.929 . S
C838 C834 1.531 . S
C838 H850 0.960 . S
C838 H851 0.962 . S
C838 H852 0.960 . S
C839 C836 1.511 . S
C839 H853 0.961 . S
C839 H854 0.961 . S
C839 H855 0.961 . S
C840 C841 1.370 . S
C840 C842 1.363 . S
C840 H856 0.931 . S
C841 C840 1.370 . S
C841 C845 1.408 . S
C842 C840 1.363 . S
C842 C843 1.370 . S
C842 C846 1.524 . S
C843 C835 1.503 . S
C843 C842 1.370 . S
C843 C844 1.403 . S
C844 C843 1.403 . S
C844 C845 1.404 . S
C844 C847 1.539 . S
C845 C841 1.408 . S
C845 C844 1.404 . S
C845 H857 0.930 . S
C846 C842 1.524 . S
C846 H858 0.956 . S
C846 H859 0.961 . S
C846 H860 0.961 . S
C847 C844 1.539 . S
C847 H861 0.958 . S
C847 H862 0.961 . S
C847 H863 0.960 . S
H848 C832 0.931 . S
H849 C837 0.929 . S
H850 C838 0.960 . S
H851 C838 0.962 . S
H852 C838 0.960 . S
H853 C839 0.961 . S
H854 C839 0.961 . S
H855 C839 0.961 . S
H856 C840 0.931 . S
H857 C845 0.930 . S
H858 C846 0.956 . S
H859 C846 0.961 . S
H860 C846 0.961 . S
H861 C847 0.958 . S
H862 C847 0.961 . S
H863 C847 0.960 . S
C864 C865 1.391 . S
C864 C866 1.394 . S
C864 H880 0.931 . S
C865 C864 1.391 . S
C865 C869 1.376 . S
C866 C864 1.394 . S
C866 C867 1.369 . S
C866 C870 1.531 . S
C867 C866 1.369 . S
C867 C868 1.410 . S
C867 C875 1.503 . S
C868 C867 1.410 . S
C868 C869 1.392 . S
C868 C871 1.511 . S
C869 C865 1.376 . S
C869 C868 1.392 . S
C869 H881 0.929 . S
C870 C866 1.531 . S
C870 H882 0.960 . S
C870 H883 0.962 . S
C870 H884 0.960 . S
C871 C868 1.511 . S
C871 H885 0.961 . S
C871 H886 0.961 . S
C871 H887 0.961 . S
C872 C873 1.370 . S
C872 C874 1.363 . S
C872 H888 0.931 . S
C873 C872 1.370 . S
C873 C877 1.408 . S
C874 C872 1.363 . S
C874 C875 1.370 . S
C874 C878 1.524 . S
C875 C867 1.503 . S
C875 C874 1.370 . S
C875 C876 1.403 . S
C876 C875 1.403 . S
C876 C877 1.404 . S
C876 C879 1.539 . S
C877 C873 1.408 . S
C877 C876 1.404 . S
C877 H889 0.930 . S
C878 C874 1.524 . S
C878 H890 0.956 . S
C878 H891 0.961 . S
C878 H892 0.961 . S
C879 C876 1.539 . S
C879 H893 0.958 . S
C879 H894 0.961 . S
C879 H895 0.960 . S
H880 C864 0.931 . S
H881 C869 0.929 . S
H882 C870 0.960 . S
H883 C870 0.962 . S
H884 C870 0.960 . S
H885 C871 0.961 . S
H886 C871 0.961 . S
H887 C871 0.961 . S
H888 C872 0.931 . S
H889 C877 0.930 . S
H890 C878 0.956 . S
H891 C878 0.961 . S
H892 C878 0.961 . S
H893 C879 0.958 . S
H894 C879 0.961 . S
H895 C879 0.960 . S
C896 C897 1.391 . S
C896 C898 1.394 . S
C896 H912 0.931 . S
C897 C896 1.391 . S
C897 C901 1.376 . S
C898 C896 1.394 . S
C898 C899 1.369 . S
C898 C902 1.531 . S
C899 C898 1.369 . S
C899 C900 1.410 . S
C899 C907 1.503 . S
C900 C899 1.410 . S
C900 C901 1.392 . S
C900 C903 1.511 . S
C901 C897 1.376 . S
C901 C900 1.392 . S
C901 H913 0.929 . S
C902 C898 1.531 . S
C902 H914 0.960 . S
C902 H915 0.962 . S
C902 H916 0.960 . S
C903 C900 1.511 . S
C903 H917 0.961 . S
C903 H918 0.961 . S
C903 H919 0.961 . S
C904 C905 1.370 . S
C904 C906 1.363 . S
C904 H920 0.931 . S
C905 C904 1.370 . S
C905 C909 1.408 . S
C906 C904 1.363 . S
C906 C907 1.370 . S
C906 C910 1.524 . S
C907 C899 1.503 . S
C907 C906 1.370 . S
C907 C908 1.403 . S
C908 C907 1.403 . S
C908 C909 1.404 . S
C908 C911 1.539 . S
C909 C905 1.408 . S
C909 C908 1.404 . S
C909 H921 0.930 . S
C910 C906 1.524 . S
C910 H922 0.956 . S
C910 H923 0.961 . S
C910 H924 0.961 . S
C911 C908 1.539 . S
C911 H925 0.958 . S
C911 H926 0.961 . S
C911 H927 0.960 . S
H912 C896 0.931 . S
H913 C901 0.929 . S
H914 C902 0.960 . S
H915 C902 0.962 . S
H916 C902 0.960 . S
H917 C903 0.961 . S
H918 C903 0.961 . S
H919 C903 0.961 . S
H920 C904 0.931 . S
H921 C909 0.930 . S
H922 C910 0.956 . S
H923 C910 0.961 . S
H924 C910 0.961 . S
H925 C911 0.958 . S
H926 C911 0.961 . S
H927 C911 0.960 . S
C928 C929 1.391 . S
C928 C930 1.394 . S
C928 H944 0.931 . S
C929 C928 1.391 . S
C929 C933 1.376 . S
C930 C928 1.394 . S
C930 C931 1.369 . S
C930 C934 1.531 . S
C931 C930 1.369 . S
C931 C932 1.410 . S
C931 C939 1.503 . S
C932 C931 1.410 . S
C932 C933 1.392 . S
C932 C935 1.511 . S
C933 C929 1.376 . S
C933 C932 1.392 . S
C933 H945 0.929 . S
C934 C930 1.531 . S
C934 H946 0.960 . S
C934 H947 0.962 . S
C934 H948 0.960 . S
C935 C932 1.511 . S
C935 H949 0.961 . S
C935 H950 0.961 . S
C935 H951 0.961 . S
C936 C937 1.370 . S
C936 C938 1.363 . S
C936 H952 0.931 . S
C937 C936 1.370 . S
C937 C941 1.408 . S
C938 C936 1.363 . S
C938 C939 1.370 . S
C938 C942 1.524 . S
C939 C931 1.503 . S
C939 C938 1.370 . S
C939 C940 1.403 . S
C940 C939 1.403 . S
C940 C941 1.404 . S
C940 C943 1.539 . S
C941 C937 1.408 . S
C941 C940 1.404 . S
C941 H953 0.930 . S
C942 C938 1.524 . S
C942 H954 0.956 . S
C942 H955 0.961 . S
C942 H956 0.961 . S
C943 C940 1.539 . S
C943 H957 0.958 . S
C943 H958 0.961 . S
C943 H959 0.960 . S
H944 C928 0.931 . S
H945 C933 0.929 . S
H946 C934 0.960 . S
H947 C934 0.962 . S
H948 C934 0.960 . S
H949 C935 0.961 . S
H950 C935 0.961 . S
H951 C935 0.961 . S
H952 C936 0.931 . S
H953 C941 0.930 . S
H954 C942 0.956 . S
H955 C942 0.961 . S
H956 C942 0.961 . S
H957 C943 0.958 . S
H958 C943 0.961 . S
H959 C943 0.960 . S
C960 C961 1.391 . S
C960 C962 1.394 . S
C960 H976 0.931 . S
C961 C960 1.391 . S
C961 C965 1.376 . S
C962 C960 1.394 . S
C962 C963 1.369 . S
C962 C966 1.531 . S
C963 C962 1.369 . S
C963 C964 1.410 . S
C963 C971 1.503 . S
C964 C963 1.410 . S
C964 C965 1.392 . S
C964 C967 1.511 . S
C965 C961 1.376 . S
C965 C964 1.392 . S
C965 H977 0.929 . S
C966 C962 1.531 . S
C966 H978 0.960 . S
C966 H979 0.962 . S
C966 H980 0.960 . S
C967 C964 1.511 . S
C967 H981 0.961 . S
C967 H982 0.961 . S
C967 H983 0.961 . S
C968 C969 1.370 . S
C968 C970 1.363 . S
C968 H984 0.931 . S
C969 C968 1.370 . S
C969 C973 1.408 . S
C970 C968 1.363 . S
C970 C971 1.370 . S
C970 C974 1.524 . S
C971 C963 1.503 . S
C971 C970 1.370 . S
C971 C972 1.403 . S
C972 C971 1.403 . S
C972 C973 1.404 . S
C972 C975 1.539 . S
C973 C969 1.408 . S
C973 C972 1.404 . S
C973 H985 0.930 . S
C974 C970 1.524 . S
C974 H986 0.956 . S
C974 H987 0.961 . S
C974 H988 0.961 . S
C975 C972 1.539 . S
C975 H989 0.958 . S
C975 H990 0.961 . S
C975 H991 0.960 . S
H976 C960 0.931 . S
H977 C965 0.929 . S
H978 C966 0.960 . S
H979 C966 0.962 . S
H980 C966 0.960 . S
H981 C967 0.961 . S
H982 C967 0.961 . S
H983 C967 0.961 . S
H984 C968 0.931 . S
H985 C973 0.930 . S
H986 C974 0.956 . S
H987 C974 0.961 . S
H988 C974 0.961 . S
H989 C975 0.958 . S
H990 C975 0.961 . S
H991 C975 0.960 . S
C992 C993 1.391 . S
C992 C994 1.394 1_545 S
C992 H1008 0.931 . S
C993 C992 1.391 . S
C993 C997 1.376 1_545 S
C994 C992 1.394 1_565 S
C994 C995 1.369 . S
C994 C998 1.531 1_565 S
C995 C994 1.369 . S
C995 C996 1.410 . S
C995 C1003 1.503 . S
C996 C995 1.410 . S
C996 C997 1.392 . S
C996 C999 1.511 . S
C997 C993 1.376 1_565 S
C997 C996 1.392 . S
C997 H1009 0.929 . S
C998 C994 1.531 1_545 S
C998 H1010 0.960 1_545 S
C998 H1011 0.962 . S
C998 H1012 0.960 . S
C999 C996 1.511 . S
C999 H1013 0.961 . S
C999 H1014 0.961 . S
C999 H1015 0.961 . S
C1000 C1001 1.370 . S
C1000 C1002 1.363 . S
C1000 H1016 0.931 . S
C1001 C1000 1.370 . S
C1001 C1005 1.408 . S
C1002 C1000 1.363 . S
C1002 C1003 1.370 . S
C1002 C1006 1.524 . S
C1003 C995 1.503 . S
C1003 C1002 1.370 . S
C1003 C1004 1.403 . S
C1004 C1003 1.403 . S
C1004 C1005 1.404 . S
C1004 C1007 1.539 . S
C1005 C1001 1.408 . S
C1005 C1004 1.404 . S
C1005 H1017 0.930 . S
C1006 C1002 1.524 . S
C1006 H1018 0.956 . S
C1006 H1019 0.961 . S
C1006 H1020 0.961 . S
C1007 C1004 1.539 . S
C1007 H1021 0.958 . S
C1007 H1022 0.961 . S
C1007 H1023 0.960 . S
H1008 C992 0.931 . S
H1009 C997 0.929 . S
H1010 C998 0.960 1_565 S
H1011 C998 0.962 . S
H1012 C998 0.960 . S
H1013 C999 0.961 . S
H1014 C999 0.961 . S
H1015 C999 0.961 . S
H1016 C1000 0.931 . S
H1017 C1005 0.930 . S
H1018 C1006 0.956 . S
H1019 C1006 0.961 . S
H1020 C1006 0.961 . S
H1021 C1007 0.958 . S
H1022 C1007 0.961 . S
H1023 C1007 0.960 . S
C1024 C1025 1.391 . S
C1024 C1026 1.394 . S
C1024 H1040 0.931 . S
C1025 C1024 1.391 . S
C1025 C1029 1.376 . S
C1026 C1024 1.394 . S
C1026 C1027 1.369 . S
C1026 C1030 1.531 . S
C1027 C1026 1.369 . S
C1027 C1028 1.410 . S
C1027 C1035 1.503 . S
C1028 C1027 1.410 . S
C1028 C1029 1.392 . S
C1028 C1031 1.511 . S
C1029 C1025 1.376 . S
C1029 C1028 1.392 . S
C1029 H1041 0.929 . S
C1030 C1026 1.531 . S
C1030 H1042 0.960 . S
C1030 H1043 0.962 . S
C1030 H1044 0.960 . S
C1031 C1028 1.511 . S
C1031 H1045 0.961 . S
C1031 H1046 0.961 . S
C1031 H1047 0.961 . S
C1032 C1033 1.370 . S
C1032 C1034 1.363 . S
C1032 H1048 0.931 . S
C1033 C1032 1.370 . S
C1033 C1037 1.408 . S
C1034 C1032 1.363 . S
C1034 C1035 1.370 . S
C1034 C1038 1.524 . S
C1035 C1027 1.503 . S
C1035 C1034 1.370 . S
C1035 C1036 1.403 . S
C1036 C1035 1.403 . S
C1036 C1037 1.404 . S
C1036 C1039 1.539 . S
C1037 C1033 1.408 . S
C1037 C1036 1.404 . S
C1037 H1049 0.930 . S
C1038 C1034 1.524 . S
C1038 H1050 0.956 . S
C1038 H1051 0.961 . S
C1038 H1052 0.961 . S
C1039 C1036 1.539 . S
C1039 H1053 0.958 . S
C1039 H1054 0.961 . S
C1039 H1055 0.960 . S
H1040 C1024 0.931 . S
H1041 C1029 0.929 . S
H1042 C1030 0.960 . S
H1043 C1030 0.962 . S
H1044 C1030 0.960 . S
H1045 C1031 0.961 . S
H1046 C1031 0.961 . S
H1047 C1031 0.961 . S
H1048 C1032 0.931 . S
H1049 C1037 0.930 . S
H1050 C1038 0.956 . S
H1051 C1038 0.961 . S
H1052 C1038 0.961 . S
H1053 C1039 0.958 . S
H1054 C1039 0.961 . S
H1055 C1039 0.960 . S
C1056 C1057 1.391 . S
C1056 C1058 1.394 . S
C1056 H1072 0.931 . S
C1057 C1056 1.391 . S
C1057 C1061 1.376 . S
C1058 C1056 1.394 . S
C1058 C1059 1.369 . S
C1058 C1062 1.531 . S
C1059 C1058 1.369 . S
C1059 C1060 1.410 . S
C1059 C1067 1.503 . S
C1060 C1059 1.410 . S
C1060 C1061 1.392 . S
C1060 C1063 1.511 . S
C1061 C1057 1.376 . S
C1061 C1060 1.392 . S
C1061 H1073 0.929 . S
C1062 C1058 1.531 . S
C1062 H1074 0.960 . S
C1062 H1075 0.962 . S
C1062 H1076 0.960 . S
C1063 C1060 1.511 . S
C1063 H1077 0.961 . S
C1063 H1078 0.961 . S
C1063 H1079 0.961 . S
C1064 C1065 1.370 1_455 S
C1064 C1066 1.363 . S
C1064 H1080 0.931 . S
C1065 C1064 1.370 1_655 S
C1065 C1069 1.408 . S
C1066 C1064 1.363 . S
C1066 C1067 1.370 . S
C1066 C1070 1.524 . S
C1067 C1059 1.503 . S
C1067 C1066 1.370 . S
C1067 C1068 1.432 . S
C1068 C1067 1.432 . S
C1068 C1069 1.384 1_455 S
C1068 C1071 1.530 1_455 S
C1069 C1065 1.408 . S
C1069 C1068 1.384 1_655 S
C1069 H1081 0.930 . S
C1070 C1066 1.524 . S
C1070 H1082 0.956 . S
C1070 H1083 0.961 . S
C1070 H1084 0.961 . S
C1071 C1068 1.530 1_655 S
C1071 H1085 0.958 . S
C1071 H1086 0.961 . S
C1071 H1087 0.960 1_655 S
H1072 C1056 0.931 . S
H1073 C1061 0.929 . S
H1074 C1062 0.960 . S
H1075 C1062 0.962 . S
H1076 C1062 0.960 . S
H1077 C1063 0.961 . S
H1078 C1063 0.961 . S
H1079 C1063 0.961 . S
H1080 C1064 0.931 . S
H1081 C1069 0.930 . S
H1082 C1070 0.956 . S
H1083 C1070 0.961 . S
H1084 C1070 0.961 . S
H1085 C1071 0.958 . S
H1086 C1071 0.961 . S
H1087 C1071 0.960 1_455 S
C1088 C1089 1.391 1_545 S
C1088 C1090 1.394 . S
C1088 H1104 0.931 . S
C1089 C1088 1.391 1_565 S
C1089 C1093 1.376 . S
C1090 C1088 1.394 . S
C1090 C1091 1.369 . S
C1090 C1094 1.531 . S
C1091 C1090 1.369 . S
C1091 C1092 1.410 . S
C1091 C1099 1.503 . S
C1092 C1091 1.410 . S
C1092 C1093 1.392 1_545 S
C1092 C1095 1.511 1_545 S
C1093 C1089 1.376 . S
C1093 C1092 1.392 1_565 S
C1093 H1105 0.929 . S
C1094 C1090 1.531 . S
C1094 H1106 0.960 . S
C1094 H1107 0.962 . S
C1094 H1108 0.960 . S
C1095 C1092 1.511 1_565 S
C1095 H1109 0.961 . S
C1095 H1110 0.961 1_565 S
C1095 H1111 0.961 . S
C1096 C1097 1.370 1_655 S
C1096 C1098 1.363 . S
C1096 H1112 0.931 1_655 S
C1097 C1096 1.370 1_455 S
C1097 C1101 1.408 1_455 S
C1098 C1096 1.363 . S
C1098 C1099 1.370 . S
C1098 C1102 1.524 . S
C1099 C1091 1.503 . S
C1099 C1098 1.370 . S
C1099 C1100 1.403 . S
C1100 C1099 1.403 . S
C1100 C1101 1.404 . S
C1100 C1103 1.539 . S
C1101 C1097 1.408 1_655 S
C1101 C1100 1.404 . S
C1101 H1113 0.930 1_655 S
C1102 C1098 1.524 . S
C1102 H1114 0.956 . S
C1102 H1115 0.961 . S
C1102 H1116 0.961 . S
C1103 C1100 1.539 . S
C1103 H1117 0.958 . S
C1103 H1118 0.961 . S
C1103 H1119 0.960 . S
H1104 C1088 0.931 . S
H1105 C1093 0.929 . S
H1106 C1094 0.960 . S
H1107 C1094 0.962 . S
H1108 C1094 0.960 . S
H1109 C1095 0.961 . S
H1110 C1095 0.961 1_545 S
H1111 C1095 0.961 . S
H1112 C1096 0.931 1_455 S
H1113 C1101 0.930 1_455 S
H1114 C1102 0.956 . S
H1115 C1102 0.961 . S
H1116 C1102 0.961 . S
H1117 C1103 0.958 . S
H1118 C1103 0.961 . S
H1119 C1103 0.960 . S
C1120 C1121 1.391 . S
C1120 C1122 1.394 . S
C1120 H1136 0.931 . S
C1121 C1120 1.391 . S
C1121 C1125 1.376 . S
C1122 C1120 1.394 . S
C1122 C1123 1.369 . S
C1122 C1126 1.531 . S
C1123 C1122 1.369 . S
C1123 C1124 1.410 . S
C1123 C1131 1.503 . S
C1124 C1123 1.410 . S
C1124 C1125 1.392 . S
C1124 C1127 1.511 . S
C1125 C1121 1.376 . S
C1125 C1124 1.392 . S
C1125 H1137 0.929 . S
C1126 C1122 1.531 . S
C1126 H1138 0.960 . S
C1126 H1139 0.962 . S
C1126 H1140 0.960 . S
C1127 C1124 1.511 . S
C1127 H1141 0.961 . S
C1127 H1142 0.961 . S
C1127 H1143 0.961 . S
C1128 C1129 1.370 . S
C1128 C1130 1.363 . S
C1128 H1144 0.931 . S
C1129 C1128 1.370 . S
C1129 C1133 1.408 . S
C1130 C1128 1.363 . S
C1130 C1131 1.370 . S
C1130 C1134 1.524 . S
C1131 C1123 1.503 . S
C1131 C1130 1.370 . S
C1131 C1132 1.403 . S
C1132 C1131 1.403 . S
C1132 C1133 1.404 . S
C1132 C1135 1.539 . S
C1133 C1129 1.408 . S
C1133 C1132 1.404 . S
C1133 H1145 0.930 . S
C1134 C1130 1.524 . S
C1134 H1146 0.956 . S
C1134 H1147 0.961 . S
C1134 H1148 0.961 . S
C1135 C1132 1.539 . S
C1135 H1149 0.958 . S
C1135 H1150 0.961 . S
C1135 H1151 0.960 . S
H1136 C1120 0.931 . S
H1137 C1125 0.929 . S
H1138 C1126 0.960 . S
H1139 C1126 0.962 . S
H1140 C1126 0.960 . S
H1141 C1127 0.961 . S
H1142 C1127 0.961 . S
H1143 C1127 0.961 . S
H1144 C1128 0.931 . S
H1145 C1133 0.930 . S
H1146 C1134 0.956 . S
H1147 C1134 0.961 . S
H1148 C1134 0.961 . S
H1149 C1135 0.958 . S
H1150 C1135 0.961 . S
H1151 C1135 0.960 . S
C1152 C1153 1.391 1_655 S
C1152 C1154 1.394 . S
C1152 H1168 0.931 . S
C1153 C1152 1.391 1_455 S
C1153 C1157 1.376 . S
C1154 C1152 1.394 . S
C1154 C1155 1.369 . S
C1154 C1158 1.531 . S
C1155 C1154 1.369 . S
C1155 C1156 1.410 . S
C1155 C1163 1.503 . S
C1156 C1155 1.410 . S
C1156 C1157 1.392 1_655 S
C1156 C1159 1.511 1_655 S
C1157 C1153 1.376 . S
C1157 C1156 1.392 1_455 S
C1157 H1169 0.929 . S
C1158 C1154 1.531 . S
C1158 H1170 0.960 . S
C1158 H1171 0.962 . S
C1158 H1172 0.960 . S
C1159 C1156 1.511 1_455 S
C1159 H1173 0.961 . S
C1159 H1174 0.961 1_455 S
C1159 H1175 0.961 . S
C1160 C1161 1.370 . S
C1160 C1162 1.363 . S
C1160 H1176 0.931 . S
C1161 C1160 1.370 . S
C1161 C1165 1.408 . S
C1162 C1160 1.363 . S
C1162 C1163 1.370 . S
C1162 C1166 1.524 . S
C1163 C1155 1.503 . S
C1163 C1162 1.370 . S
C1163 C1164 1.403 . S
C1164 C1163 1.403 . S
C1164 C1165 1.404 . S
C1164 C1167 1.539 . S
C1165 C1161 1.408 . S
C1165 C1164 1.404 . S
C1165 H1177 0.930 . S
C1166 C1162 1.524 . S
C1166 H1178 0.956 . S
C1166 H1179 0.961 . S
C1166 H1180 0.961 . S
C1167 C1164 1.539 . S
C1167 H1181 0.958 . S
C1167 H1182 0.961 . S
C1167 H1183 0.960 . S
H1168 C1152 0.931 . S
H1169 C1157 0.929 . S
H1170 C1158 0.960 . S
H1171 C1158 0.962 . S
H1172 C1158 0.960 . S
H1173 C1159 0.961 . S
H1174 C1159 0.961 1_655 S
H1175 C1159 0.961 . S
H1176 C1160 0.931 . S
H1177 C1165 0.930 . S
H1178 C1166 0.956 . S
H1179 C1166 0.961 . S
H1180 C1166 0.961 . S
H1181 C1167 0.958 . S
H1182 C1167 0.961 . S
H1183 C1167 0.960 . S
C1184 C1185 1.391 1_455 S
C1184 C1186 1.394 . S
C1184 H1200 0.931 . S
C1185 C1184 1.391 1_655 S
C1185 C1189 1.376 . S
C1186 C1184 1.394 . S
C1186 C1187 1.369 . S
C1186 C1190 1.531 . S
C1187 C1186 1.369 . S
C1187 C1188 1.410 . S
C1187 C1195 1.503 . S
C1188 C1187 1.410 . S
C1188 C1189 1.392 1_455 S
C1188 C1191 1.511 . S
C1189 C1185 1.376 . S
C1189 C1188 1.392 1_655 S
C1189 H1201 0.929 . S
C1190 C1186 1.531 . S
C1190 H1202 0.960 . S
C1190 H1203 0.962 . S
C1190 H1204 0.960 . S
C1191 C1188 1.511 . S
C1191 H1205 0.961 1_455 S
C1191 H1206 0.961 . S
C1191 H1207 0.961 . S
C1192 C1193 1.370 . S
C1192 C1194 1.363 1_545 S
C1192 H1208 0.931 . S
C1193 C1192 1.370 . S
C1193 C1197 1.408 1_545 S
C1194 C1192 1.363 1_565 S
C1194 C1195 1.370 . S
C1194 C1198 1.524 . S
C1195 C1187 1.503 . S
C1195 C1194 1.370 . S
C1195 C1196 1.403 . S
C1196 C1195 1.403 . S
C1196 C1197 1.404 . S
C1196 C1199 1.539 . S
C1197 C1193 1.408 1_565 S
C1197 C1196 1.404 . S
C1197 H1209 0.930 . S
C1198 C1194 1.524 . S
C1198 H1210 0.956 . S
C1198 H1211 0.961 . S
C1198 H1212 0.961 1_565 S
C1199 C1196 1.539 . S
C1199 H1213 0.958 . S
C1199 H1214 0.961 . S
C1199 H1215 0.960 . S
H1200 C1184 0.931 . S
H1201 C1189 0.929 . S
H1202 C1190 0.960 . S
H1203 C1190 0.962 . S
H1204 C1190 0.960 . S
H1205 C1191 0.961 1_655 S
H1206 C1191 0.961 . S
H1207 C1191 0.961 . S
H1208 C1192 0.931 . S
H1209 C1197 0.930 . S
H1210 C1198 0.956 . S
H1211 C1198 0.961 . S
H1212 C1198 0.961 1_545 S
H1213 C1199 0.958 . S
H1214 C1199 0.961 . S
H1215 C1199 0.960 . S
C1216 C1217 1.391 1_545 S
C1216 C1218 1.394 . S
C1216 H1232 0.931 1_545 S
C1217 C1216 1.391 1_565 S
C1217 C1221 1.376 1_565 S
C1218 C1216 1.394 . S
C1218 C1219 1.369 . S
C1218 C1222 1.531 . S
C1219 C1218 1.369 . S
C1219 C1220 1.410 . S
C1219 C1227 1.503 . S
C1220 C1219 1.410 . S
C1220 C1221 1.392 . S
C1220 C1223 1.511 . S
C1221 C1217 1.376 1_545 S
C1221 C1220 1.392 . S
C1221 H1233 0.929 . S
C1222 C1218 1.531 . S
C1222 H1234 0.960 . S
C1222 H1235 0.962 . S
C1222 H1236 0.960 . S
C1223 C1220 1.511 . S
C1223 H1237 0.961 . S
C1223 H1238 0.961 . S
C1223 H1239 0.961 . S
C1224 C1225 1.370 . S
C1224 C1226 1.363 . S
C1224 H1240 0.931 . S
C1225 C1224 1.370 . S
C1225 C1229 1.408 . S
C1226 C1224 1.363 . S
C1226 C1227 1.370 . S
C1226 C1230 1.524 . S
C1227 C1219 1.503 . S
C1227 C1226 1.370 . S
C1227 C1228 1.403 . S
C1228 C1227 1.403 . S
C1228 C1229 1.404 . S
C1228 C1231 1.539 . S
C1229 C1225 1.408 . S
C1229 C1228 1.404 . S
C1229 H1241 0.930 . S
C1230 C1226 1.524 . S
C1230 H1242 0.956 . S
C1230 H1243 0.961 . S
C1230 H1244 0.961 . S
C1231 C1228 1.539 . S
C1231 H1245 0.958 . S
C1231 H1246 0.961 . S
C1231 H1247 0.960 . S
H1232 C1216 0.931 1_565 S
H1233 C1221 0.929 . S
H1234 C1222 0.960 . S
H1235 C1222 0.962 . S
H1236 C1222 0.960 . S
H1237 C1223 0.961 . S
H1238 C1223 0.961 . S
H1239 C1223 0.961 . S
H1240 C1224 0.931 . S
H1241 C1229 0.930 . S
H1242 C1230 0.956 . S
H1243 C1230 0.961 . S
H1244 C1230 0.961 . S
H1245 C1231 0.958 . S
H1246 C1231 0.961 . S
H1247 C1231 0.960 . S
C225 C110 1.573 . S
C233 C0 1.585 . S
C257 C57 1.586 . S
C265 C15 1.592 . S
C289 C83 1.573 . S
C297 C29 1.585 . S
C321 C55 1.601 . S
C329 C97 1.597 . S
C353 C223 1.582 . S
C361 C112 1.589 . S
C385 C169 1.599 . S
C393 C126 1.596 . S
C417 C152 1.601 . S
C425 C183 1.597 . S
C449 C166 1.584 . S
C457 C196 1.590 . S
C481 C41 1.416 . S
C489 C12 1.434 . S
C513 C27 1.439 . S
C521 C43 1.437 . S
C545 C69 1.419 . S
C553 C85 1.442 . S
C577 C98 1.411 . S
C585 C71 1.440 . S
C609 C124 1.447 . S
C617 C140 1.430 . S
C641 C138 1.434 . S
C649 C154 1.436 . S
C673 C208 1.447 . S
C681 C181 1.431 . S
C705 C195 1.442 . S
C713 C211 1.435 . S
C737 C96 1.602 . S
C745 C1 1.604 . S
C769 C14 1.600 . S
C777 C111 1.605 . S
C801 C28 1.606 . S
C809 C56 1.603 . S
C833 C54 1.594 . S
C841 C82 1.608 . S
C865 C113 1.601 . S
C873 C197 1.606 . S
C897 C127 1.594 . S
C905 C222 1.607 . S
C929 C153 1.600 . S
C937 C168 1.603 . S
C961 C167 1.607 . S
C969 C182 1.602 . S
C993 C13 1.545 . S
C1001 C210 1.553 . S
C1025 C180 1.540 . S
C1033 C26 1.551 . S
C1057 C40 1.542 . S
C1065 C194 1.550 . S
C1089 C209 1.546 . S
C1097 C42 1.552 . S
C1121 C139 1.554 . S
C1129 C68 1.555 . S
C1153 C70 1.556 . S
C1161 C141 1.557 . S
C1185 C155 1.553 . S
C1193 C84 1.555 . S
C1217 C125 1.559 . S
C1225 C99 1.557 . S
