# Generated by pormake.
# Topology tfs, (6)-cn, num edge types: 1
# Building blocks:
#     Node 0, Type 0, BuildingBlock: BETGAK_clean_sbu_0, # of connection points: 6
#     Node 1, Type 0, BuildingBlock: BETGAK_clean_sbu_0, # of connection points: 6
#     Node 2, Type 0, BuildingBlock: BETGAK_clean_sbu_0, # of connection points: 6
#     Node 3, Type 0, BuildingBlock: BETGAK_clean_sbu_0, # of connection points: 6
#     Node 4, Type 0, BuildingBlock: BETGAK_clean_sbu_0, # of connection points: 6
#     Node 5, Type 0, BuildingBlock: BETGAK_clean_sbu_0, # of connection points: 6
#     Edge 6, Type (0, 0), BuildingBlock: MIFKUJ_clean_linker_0, # of connection points: 2
#     Edge 7, Type (0, 0), BuildingBlock: MIFKUJ_clean_linker_0, # of connection points: 2
#     Edge 8, Type (0, 0), BuildingBlock: MIFKUJ_clean_linker_0, # of connection points: 2
#     Edge 9, Type (0, 0), BuildingBlock: MIFKUJ_clean_linker_0, # of connection points: 2
#     Edge 10, Type (0, 0), BuildingBlock: MIFKUJ_clean_linker_0, # of connection points: 2
#     Edge 11, Type (0, 0), BuildingBlock: MIFKUJ_clean_linker_0, # of connection points: 2
#     Edge 12, Type (0, 0), BuildingBlock: MIFKUJ_clean_linker_0, # of connection points: 2
#     Edge 13, Type (0, 0), BuildingBlock: MIFKUJ_clean_linker_0, # of connection points: 2
#     Edge 14, Type (0, 0), BuildingBlock: MIFKUJ_clean_linker_0, # of connection points: 2
#     Edge 15, Type (0, 0), BuildingBlock: MIFKUJ_clean_linker_0, # of connection points: 2
#     Edge 16, Type (0, 0), BuildingBlock: MIFKUJ_clean_linker_0, # of connection points: 2
#     Edge 17, Type (0, 0), BuildingBlock: MIFKUJ_clean_linker_0, # of connection points: 2
#     Edge 18, Type (0, 0), BuildingBlock: MIFKUJ_clean_linker_0, # of connection points: 2
#     Edge 19, Type (0, 0), BuildingBlock: MIFKUJ_clean_linker_0, # of connection points: 2
#     Edge 20, Type (0, 0), BuildingBlock: MIFKUJ_clean_linker_0, # of connection points: 2
#     Edge 21, Type (0, 0), BuildingBlock: MIFKUJ_clean_linker_0, # of connection points: 2
#     Edge 22, Type (0, 0), BuildingBlock: MIFKUJ_clean_linker_0, # of connection points: 2
#     Edge 23, Type (0, 0), BuildingBlock: MIFKUJ_clean_linker_0, # of connection points: 2
# Relax obj value: 0.533
# Max RMSD: 0.420
# Mean RMSD: 0.336
data_MOF--net-tfs--node1-BETGAK_clean_sbu_0--edge1-MIFKUJ_clean_linker_0
_symmetry_space_group_name_H-M    P1
_symmetry_Int_Tables_number       1
_symmetry_cell_setting            triclinic
loop_
_symmetry_equiv_pos_as_xyz
'x, y, z'
_cell_length_a     65.972701
_cell_length_b     62.738411
_cell_length_c     17.176693
_cell_angle_alpha  97.357162
_cell_angle_beta   91.582514
_cell_angle_gamma 125.77484
loop_
_atom_site_label
_atom_site_type_symbol
_atom_site_fract_x
_atom_site_fract_y
_atom_site_fract_z
_atom_type_partial_charge
La0 La 0.31238 0.44997 0.51878 0.0
La1 La 0.29691 0.48778 0.52376 0.0
C2 C 0.33437 0.42853 0.53878 0.0
C3 C 0.33423 0.40477 0.51722 0.0
C4 C 0.33105 0.39331 0.43783 0.0
C5 C 0.33616 0.37462 0.41826 0.0
C6 C 0.34454 0.36691 0.47761 0.0
C7 C 0.3463 0.37731 0.55721 0.0
C8 C 0.34128 0.39606 0.57666 0.0
C9 C 0.28998 0.44693 0.38644 0.0
C10 C 0.25555 0.42557 0.5248 0.0
C11 C 0.2767 0.51119 0.50901 0.0
C12 C 0.28054 0.5364 0.54353 0.0
C13 C 0.26367 0.53538 0.59382 0.0
C14 C 0.26601 0.55851 0.6249 0.0
C15 C 0.28515 0.58331 0.6059 0.0
C16 C 0.30229 0.58443 0.55632 0.0
C17 C 0.3 0.56121 0.52534 0.0
C18 C 0.3161 0.4875 0.6607 0.0
C19 C 0.35324 0.51349 0.52141 0.0
O20 O 0.33824 0.44275 0.48378 0.0
O21 O 0.3182 0.42721 0.58446 0.0
O22 O 0.28936 0.42724 0.40542 0.0
O23 O 0.30529 0.46795 0.43547 0.0
O24 O 0.27329 0.42236 0.54246 0.0
O25 O 0.26108 0.44783 0.50351 0.0
O26 O 0.27038 0.49422 0.55698 0.0
O27 O 0.29271 0.51234 0.46282 0.0
O28 O 0.31791 0.50791 0.64238 0.0
O29 O 0.30236 0.46834 0.6051 0.0
O30 O 0.3352 0.51582 0.50236 0.0
O31 O 0.34824 0.49096 0.53924 0.0
H32 H 0.32562 0.3996 0.39069 0.0
H33 H 0.33417 0.36672 0.35641 0.0
H34 H 0.3529 0.37209 0.60453 0.0
H35 H 0.34417 0.40479 0.63826 0.0
H36 H 0.24844 0.51656 0.60875 0.0
H37 H 0.25272 0.55691 0.66387 0.0
H38 H 0.31709 0.60314 0.53976 0.0
H39 H 0.31325 0.56268 0.48644 0.0
La40 La 0.86585 0.18376 0.36153 0.0
La41 La 0.8157 0.16565 0.26983 0.0
C42 C 0.90311 0.19813 0.45811 0.0
C43 C 0.93109 0.21516 0.46234 0.0
C44 C 0.94334 0.21021 0.40488 0.0
C45 C 0.96975 0.22577 0.41213 0.0
C46 C 0.98463 0.24679 0.47671 0.0
C47 C 0.97229 0.25186 0.53359 0.0
C48 C 0.94589 0.23619 0.5266 0.0
C49 C 0.85981 0.16616 0.20865 0.0
C50 C 0.81625 0.12511 0.35319 0.0
C51 C 0.77928 0.15448 0.17519 0.0
C52 C 0.7598 0.15932 0.17754 0.0
C53 C 0.75084 0.16205 0.24866 0.0
C54 C 0.7322 0.16633 0.2494 0.0
C55 C 0.72215 0.16813 0.17911 0.0
C56 C 0.73141 0.16562 0.10817 0.0
C57 C 0.74998 0.16126 0.10748 0.0
C58 C 0.82304 0.18595 0.42118 0.0
C59 C 0.86705 0.22135 0.25601 0.0
O60 O 0.89032 0.17585 0.4064 0.0
O61 O 0.89233 0.21029 0.46101 0.0
O62 O 0.88141 0.18304 0.25173 0.0
O63 O 0.84285 0.15786 0.25342 0.0
O64 O 0.83647 0.14609 0.39969 0.0
O65 O 0.80776 0.12784 0.28712 0.0
O66 O 0.77773 0.13843 0.22036 0.0
O67 O 0.80251 0.17545 0.17749 0.0
O68 O 0.8012 0.16877 0.3807 0.0
O69 O 0.83942 0.19285 0.37522 0.0
O70 O 0.84396 0.20114 0.22372 0.0
O71 O 0.87859 0.22057 0.3189 0.0
H72 H 0.93257 0.19423 0.35439 0.0
H73 H 0.97853 0.22147 0.36663 0.0
H74 H 0.98304 0.26764 0.58457 0.0
H75 H 0.93701 0.24036 0.57207 0.0
H76 H 0.75823 0.16085 0.3037 0.0
H77 H 0.72587 0.16853 0.30534 0.0
H78 H 0.72399 0.16658 0.05274 0.0
H79 H 0.75661 0.15925 0.05192 0.0
La80 La 0.65664 0.79951 0.52779 0.0
La81 La 0.63521 0.82495 0.62226 0.0
C82 C 0.67591 0.78525 0.42878 0.0
C83 C 0.68951 0.77324 0.42851 0.0
C84 C 0.68466 0.7544 0.36303 0.0
C85 C 0.69897 0.74458 0.35796 0.0
C86 C 0.7183 0.7533 0.41871 0.0
C87 C 0.72259 0.77157 0.48551 0.0
C88 C 0.70833 0.78147 0.49039 0.0
C89 C 0.66793 0.80966 0.68219 0.0
C90 C 0.68391 0.86237 0.55233 0.0
C91 C 0.61996 0.8404 0.73189 0.0
C92 C 0.59601 0.83164 0.76098 0.0
C93 C 0.59154 0.85073 0.78126 0.0
C94 C 0.56978 0.84379 0.81342 0.0
C95 C 0.55167 0.81741 0.82342 0.0
C96 C 0.5556 0.79792 0.80041 0.0
C97 C 0.57786 0.80508 0.77011 0.0
C98 C 0.62581 0.81775 0.46706 0.0
C99 C 0.6024 0.76103 0.57843 0.0
O100 O 0.65215 0.77006 0.43889 0.0
O101 O 0.68766 0.80938 0.46926 0.0
O102 O 0.66527 0.78975 0.63728 0.0
O103 O 0.66623 0.82346 0.64027 0.0
O104 O 0.67789 0.84077 0.50315 0.0
O105 O 0.67259 0.86016 0.61622 0.0
O106 O 0.6229 0.84796 0.66291 0.0
O107 O 0.62823 0.82611 0.7404 0.0
O108 O 0.62683 0.83597 0.51628 0.0
O109 O 0.62698 0.80298 0.50683 0.0
O110 O 0.60579 0.78232 0.62115 0.0
O111 O 0.61901 0.76315 0.53189 0.0
H112 H 0.6702 0.7478 0.31479 0.0
H113 H 0.69493 0.73017 0.30639 0.0
H114 H 0.73739 0.77872 0.53312 0.0
H115 H 0.71235 0.79593 0.54179 0.0
H116 H 0.60519 0.87122 0.77384 0.0
H117 H 0.56698 0.85904 0.82988 0.0
H118 H 0.54161 0.77738 0.8065 0.0
H119 H 0.58086 0.78995 0.75391 0.0
La120 La 0.84815 0.53328 0.09529 0.0
La121 La 0.88025 0.51674 0.01909 0.0
C122 C 0.82193 0.54111 0.18047 0.0
C123 C 0.82044 0.56326 0.20661 0.0
C124 C 0.84113 0.58994 0.20898 0.0
C125 C 0.83902 0.61063 0.23408 0.0
C126 C 0.81631 0.60478 0.25769 0.0
C127 C 0.79557 0.57807 0.25356 0.0
C128 C 0.79756 0.55746 0.22739 0.0
C129 C 0.86924 0.55604 0.97313 0.0
C130 C 0.90632 0.56648 0.15792 0.0
C131 C 0.90342 0.50332 0.93661 0.0
C132 C 0.91279 0.4877 0.95089 0.0
C133 C 0.91705 0.485 0.02823 0.0
C134 C 0.92153 0.46653 0.04154 0.0
C135 C 0.92223 0.45055 0.97773 0.0
C136 C 0.91946 0.45453 0.90032 0.0
C137 C 0.91458 0.4728 0.88707 0.0
C138 C 0.86157 0.49714 0.14878 0.0
C139 C 0.82422 0.48793 0.95148 0.0
O140 O 0.81575 0.53167 0.10457 0.0
O141 O 0.84197 0.54352 0.20887 0.0
O142 O 0.84985 0.55383 -0.00227 0.0
O143 O 0.87727 0.54866 0.0218 0.0
O144 O 0.88376 0.5595 0.17262 0.0
O145 O 0.90972 0.55489 0.09434 0.0
O146 O 0.91453 0.52663 0.98239 0.0
O147 O 0.87889 0.48978 0.92901 0.0
O148 O 0.88051 0.49927 0.12078 0.0
O149 O 0.85169 0.50171 0.09624 0.0
O150 O 0.847 0.49806 0.93209 0.0
O151 O 0.82056 0.49473 0.02267 0.0
H152 H 0.85883 0.59471 0.19177 0.0
H153 H 0.85516 0.63114 0.2364 0.0
H154 H 0.77781 0.57317 0.27059 0.0
H155 H 0.78133 0.53695 0.2247 0.0
H156 H 0.91589 0.49637 0.07848 0.0
H157 H 0.92316 0.46393 0.10192 0.0
H158 H 0.92037 0.44305 0.84972 0.0
H159 H 0.91134 0.47461 0.82687 0.0
La160 La 0.2386 0.82284 0.74689 0.0
La161 La 0.2886 0.85139 0.67851 0.0
C162 C 0.20102 0.8009 0.82236 0.0
C163 C 0.17432 0.78744 0.79462 0.0
C164 C 0.16771 0.79276 0.72527 0.0
C165 C 0.14273 0.7772 0.69073 0.0
C166 C 0.12369 0.75609 0.72523 0.0
C167 C 0.13026 0.75174 0.79724 0.0
C168 C 0.15544 0.76721 0.83139 0.0
C169 C 0.23442 0.80754 0.59429 0.0
C170 C 0.25498 0.87098 0.66368 0.0
C171 C 0.32737 0.87415 0.61081 0.0
C172 C 0.35116 0.87868 0.63773 0.0
C173 C 0.36123 0.88866 0.718 0.0
C174 C 0.37779 0.88435 0.75082 0.0
C175 C 0.38495 0.87034 0.70382 0.0
C176 C 0.37702 0.86297 0.62178 0.0
C177 C 0.36014 0.86701 0.58905 0.0
C178 C 0.29162 0.8649 0.83287 0.0
C179 C 0.27403 0.80372 0.75839 0.0
O180 O 0.21048 0.78894 0.79099 0.0
O181 O 0.21583 0.82653 0.82216 0.0
O182 O 0.21729 0.80757 0.62866 0.0
O183 O 0.25206 0.8143 0.64524 0.0
O184 O 0.2432 0.85875 0.72244 0.0
O185 O 0.26929 0.86576 0.62676 0.0
O186 O 0.32101 0.88723 0.65649 0.0
O187 O 0.3085 0.84893 0.58904 0.0
O188 O 0.30846 0.86415 0.79901 0.0
O189 O 0.27494 0.85938 0.7804 0.0
O190 O 0.28683 0.81773 0.70415 0.0
O191 O 0.25707 0.80576 0.79148 0.0
H192 H 0.18201 0.80827 0.6958 0.0
H193 H 0.13866 0.78095 0.63468 0.0
H194 H 0.11606 0.73593 0.82612 0.0
H195 H 0.16026 0.76281 0.8849 0.0
H196 H 0.35479 0.89787 0.75725 0.0
H197 H 0.38344 0.8903 0.81414 0.0
H198 H 0.38282 0.85285 0.5835 0.0
H199 H 0.35262 0.85914 0.52704 0.0
La200 La 0.47827 0.19635 0.27563 0.0
La201 La 0.5102 0.24584 0.20056 0.0
C202 C 0.45586 0.16534 0.37256 0.0
C203 C 0.43127 0.15022 0.4024 0.0
C204 C 0.40865 0.13564 0.35088 0.0
C205 C 0.38577 0.11791 0.37848 0.0
C206 C 0.38512 0.11453 0.45802 0.0
C207 C 0.40759 0.13075 0.51071 0.0
C208 C 0.43049 0.14841 0.48297 0.0
C209 C 0.46624 0.1897 0.12273 0.0
C210 C 0.46448 0.23832 0.27701 0.0
C211 C 0.53231 0.27679 0.10372 0.0
C212 C 0.54873 0.28053 0.04236 0.0
C213 C 0.57171 0.28447 0.05992 0.0
C214 C 0.58853 0.29174 0.00382 0.0
C215 C 0.58265 0.29512 0.92908 0.0
C216 C 0.55878 0.28908 0.90968 0.0
C217 C 0.54199 0.2819 0.96595 0.0
C218 C 0.52137 0.25173 0.35365 0.0
C219 C 0.52553 0.20598 0.20404 0.0
O220 O 0.45653 0.15738 0.29892 0.0
O221 O 0.4697 0.19137 0.39199 0.0
O222 O 0.46382 0.17124 0.15714 0.0
O223 O 0.47336 0.20958 0.17423 0.0
O224 O 0.46068 0.2173 0.30339 0.0
O225 O 0.48159 0.25118 0.22943 0.0
O226 O 0.54176 0.28206 0.17774 0.0
O227 O 0.50911 0.2552 0.08841 0.0
O228 O 0.52281 0.27003 0.32067 0.0
O229 O 0.51496 0.23238 0.30128 0.0
O230 O 0.52584 0.2234 0.16639 0.0
O231 O 0.51077 0.19594 0.26003 0.0
H232 H 0.40875 0.13702 0.28865 0.0
H233 H 0.36869 0.10596 0.33685 0.0
H234 H 0.40773 0.12854 0.57221 0.0
H235 H 0.44775 0.15968 0.52376 0.0
H236 H 0.57722 0.28311 0.11803 0.0
H237 H 0.60681 0.29641 0.02111 0.0
H238 H 0.55349 0.29103 0.8522 0.0
H239 H 0.52414 0.27848 0.95077 0.0
H240 H 0.43066 0.22272 0.38716 0.0
H241 H 0.40766 0.24126 0.4274 0.0
H242 H 0.44066 0.29423 0.25814 0.0
H243 H 0.46366 0.27626 0.21867 0.0
H244 H 0.44433 0.32109 0.39537 0.0
H245 H 0.37827 0.23796 0.22822 0.0
H246 H 0.35058 0.18901 0.18679 0.0
H247 H 0.32168 0.18016 0.41062 0.0
H248 H 0.34945 0.22907 0.45377 0.0
H249 H 0.37234 0.36917 0.35911 0.0
H250 H 0.38964 0.34405 0.33087 0.0
H251 H 0.35503 0.30157 0.52158 0.0
H252 H 0.33715 0.32636 0.5494 0.0
H253 H 0.35156 0.26822 0.38911 0.0
H254 H 0.4157 0.35156 0.55246 0.0
H255 H 0.44326 0.40051 0.5933 0.0
H256 H 0.47605 0.40889 0.37652 0.0
H257 H 0.4484 0.35998 0.33382 0.0
C258 C 0.43285 0.23817 0.35818 0.0
C259 C 0.44912 0.24798 0.29975 0.0
C260 C 0.41964 0.24874 0.38113 0.0
C261 C 0.42235 0.26919 0.34576 0.0
C262 C 0.43831 0.27863 0.28681 0.0
C263 C 0.45146 0.2682 0.26412 0.0
C264 C 0.40934 0.28158 0.37067 0.0
C265 C 0.42402 0.30948 0.39323 0.0
C266 C 0.38289 0.26651 0.37049 0.0
C267 C 0.36614 0.23714 0.34455 0.0
C268 C 0.36616 0.22556 0.26884 0.0
C269 C 0.35042 0.19783 0.245 0.0
C270 C 0.33444 0.18148 0.29614 0.0
C271 C 0.33411 0.19284 0.37114 0.0
C272 C 0.34983 0.22057 0.39529 0.0
C273 C 0.36795 0.35415 0.39426 0.0
C274 C 0.35333 0.34989 0.45672 0.0
C275 C 0.37808 0.33994 0.37844 0.0
C276 C 0.37394 0.32112 0.42469 0.0
C277 C 0.35859 0.31605 0.48524 0.0
C278 C 0.34852 0.33039 0.50141 0.0
C279 C 0.38656 0.30772 0.41148 0.0
C280 C 0.37188 0.27974 0.39163 0.0
C281 C 0.41306 0.32268 0.41404 0.0
C282 C 0.42982 0.35211 0.43966 0.0
C283 C 0.42865 0.36385 0.51322 0.0
C284 C 0.44431 0.39159 0.53675 0.0
C285 C 0.46136 0.40781 0.48746 0.0
C286 C 0.46282 0.39631 0.41461 0.0
C287 C 0.44717 0.36857 0.39074 0.0
H288 H 0.47347 0.42928 0.50579 0.0
H289 H 0.32228 0.16002 0.27758 0.0
H290 H 0.21892 0.43228 0.5456 0.0
H291 H 0.17408 0.39859 0.54555 0.0
H292 H 0.18498 0.33681 0.51172 0.0
H293 H 0.23059 0.37093 0.51241 0.0
H294 H 0.14428 0.32586 0.40797 0.0
H295 H 0.17168 0.35054 0.68555 0.0
H296 H 0.19421 0.38111 0.81285 0.0
H297 H 0.15181 0.41265 0.79415 0.0
H298 H 0.12921 0.38249 0.66624 0.0
H299 H 1.01441 0.22987 0.4491 0.0
H300 H 0.06042 0.25676 0.46355 0.0
H301 H 0.0649 0.32791 0.5372 0.0
H302 H 1.01893 0.30107 0.5238 0.0
H303 H 0.09876 0.33018 0.6274 0.0
H304 H 0.07497 0.30999 0.34574 0.0
H305 H 0.05273 0.28084 0.21629 0.0
H306 H 0.08886 0.24269 0.23972 0.0
H307 H 0.11108 0.2714 0.36987 0.0
C308 C 0.21195 0.41155 0.53842 0.0
C309 C 0.22845 0.40434 0.52876 0.0
C310 C 0.1862 0.39227 0.53884 0.0
C311 C 0.17605 0.36512 0.52909 0.0
C312 C 0.19238 0.35767 0.51956 0.0
C313 C 0.21844 0.37716 0.52032 0.0
C314 C 0.14826 0.3449 0.5266 0.0
C315 C 0.13434 0.32637 0.45662 0.0
C316 C 0.13517 0.34602 0.58917 0.0
C317 C 0.1488 0.36429 0.66604 0.0
C318 C 0.16726 0.36411 0.70829 0.0
C319 C 0.17999 0.3813 0.78069 0.0
C320 C 0.17435 0.39871 0.81171 0.0
C321 C 0.15606 0.39905 0.77021 0.0
C322 C 0.14326 0.38188 0.69781 0.0
C323 C 0.02517 0.25127 0.46777 0.0
C324 C 1.01283 0.26325 0.48498 0.0
C325 C 0.05157 0.26669 0.47605 0.0
C326 C 0.06638 0.29456 0.50063 0.0
C327 C 0.05408 0.3065 0.51838 0.0
C328 C 0.0277 0.29108 0.51073 0.0
C329 C 0.09461 0.31134 0.50809 0.0
C330 C 0.10863 0.32933 0.57903 0.0
C331 C 0.10778 0.30988 0.44613 0.0
C332 C 0.09445 0.29262 0.36793 0.0
C333 C 0.07802 0.29524 0.32356 0.0
C334 C 0.06544 0.27882 0.25003 0.0
C335 C 0.06932 0.25987 0.21992 0.0
C336 C 0.08584 0.25734 0.2632 0.0
C337 C 0.09844 0.27369 0.33682 0.0
H338 H 0.05957 0.24718 0.16296 0.0
H339 H 0.18423 0.41201 0.86777 0.0
H340 H 0.82718 0.11062 0.48381 0.0
H341 H 0.80678 0.06551 0.51236 0.0
H342 H 0.75711 0.03279 0.29315 0.0
H343 H 0.77697 0.07766 0.26506 0.0
H344 H 0.73101 1.0088 0.40376 0.0
H345 H 0.80776 0.02936 0.31603 0.0
H346 H 0.85372 0.05585 0.31448 0.0
H347 H 0.86349 0.04747 0.55413 0.0
H348 H 0.81759 0.02122 0.55746 0.0
H349 H 0.71217 0.87659 0.42814 0.0
H350 H 0.73708 0.92063 0.38795 0.0
H351 H 0.71934 0.9528 0.58905 0.0
H352 H 0.69481 0.90936 0.62969 0.0
H353 H 0.77927 0.97452 0.4733 0.0
H354 H 0.6998 0.98675 0.51404 0.0
H355 H 0.65341 0.95836 0.50494 0.0
H356 H 0.64879 0.89844 0.33633 0.0
H357 H 0.69511 0.92652 0.34405 0.0
C358 C 0.81192 0.09385 0.44175 0.0
C359 C 0.80379 0.09787 0.37211 0.0
C360 C 0.80033 0.06799 0.45785 0.0
C361 C 0.78054 0.04559 0.40444 0.0
C362 C 0.7723 0.04964 0.33534 0.0
C363 C 0.78377 0.07541 0.31939 0.0
C364 C 0.76799 0.01794 0.42089 0.0
C365 C 0.74166 1.00141 0.41878 0.0
C366 C 0.78166 1.00786 0.43909 0.0
C367 C 0.80925 0.02352 0.4372 0.0
C368 C 0.81972 0.03333 0.36859 0.0
C369 C 0.84576 0.04827 0.36736 0.0
C370 C 0.86152 0.05339 0.43423 0.0
C371 C 0.85126 0.04351 0.5024 0.0
C372 C 0.82523 0.02857 0.50396 0.0
C373 C 0.71392 0.89317 0.46435 0.0
C374 C 0.7014 0.88935 0.53194 0.0
C375 C 0.7282 0.91831 0.44143 0.0
C376 C 0.72992 0.93994 0.48532 0.0
C377 C 0.71816 0.93637 0.55414 0.0
C378 C 0.70415 0.91144 0.57735 0.0
C379 C 0.74257 0.96593 0.45758 0.0
C380 C 0.76878 0.98206 0.45786 0.0
C381 C 0.7288 0.97551 0.43601 0.0
C382 C 0.70092 0.95866 0.43019 0.0
C383 C 0.68887 0.96755 0.47486 0.0
C384 C 0.66259 0.95149 0.47005 0.0
C385 C 0.64817 0.92656 0.42037 0.0
C386 C 0.65999 0.91767 0.37518 0.0
C387 C 0.68625 0.93363 0.37989 0.0
H388 H 0.62784 0.91416 0.41673 0.0
H389 H 0.88167 0.06497 0.43316 0.0
H390 H 0.82189 0.64245 0.17848 0.0
H391 H 0.81172 0.67367 0.2199 0.0
H392 H 0.79561 0.64679 0.44456 0.0
H393 H 0.80457 0.61468 0.40121 0.0
H394 H 0.75933 0.64591 0.38915 0.0
H395 H 0.84812 0.71201 0.42182 0.0
H396 H 0.89127 0.73677 0.38567 0.0
H397 H 0.86921 0.7599 0.19447 0.0
H398 H 0.82581 0.73496 0.22873 0.0
H399 H 0.73328 0.73709 0.53363 0.0
H400 H 0.75691 0.71824 0.52004 0.0
H401 H 0.76187 0.72782 0.27552 0.0
H402 H 0.73874 0.74724 0.2891 0.0
H403 H 0.80658 0.74034 0.35406 0.0
H404 H 0.71655 0.66936 0.31787 0.0
H405 H 0.67408 0.6455 0.35954 0.0
H406 H 0.70075 0.63299 0.56738 0.0
H407 H 0.74348 0.65711 0.52739 0.0
C408 C 0.81661 0.64366 0.23716 0.0
C409 C 0.81388 0.62625 0.28673 0.0
C410 C 0.81094 0.66159 0.2611 0.0
C411 C 0.80306 0.66282 0.33578 0.0
C412 C 0.80154 0.6462 0.38664 0.0
C413 C 0.8067 0.62793 0.36207 0.0
C414 C 0.79394 0.67929 0.35764 0.0
C415 C 0.77002 0.66674 0.38308 0.0
C416 C 0.80753 0.70636 0.34834 0.0
C417 C 0.83363 0.72142 0.32751 0.0
C418 C 0.85241 0.7222 0.37168 0.0
C419 C 0.87693 0.7363 0.35159 0.0
C420 C 0.88297 0.74985 0.28771 0.0
C421 C 0.8645 0.74938 0.2439 0.0
C422 C 0.83994 0.73529 0.2637 0.0
C423 C 0.73977 0.7356 0.47735 0.0
C424 C 0.73389 0.74335 0.41214 0.0
C425 C 0.75319 0.72476 0.46964 0.0
C426 C 0.76092 0.72143 0.39658 0.0
C427 C 0.75605 0.73021 0.33236 0.0
C428 C 0.74258 0.74099 0.33996 0.0
C429 C 0.7722 0.70682 0.38511 0.0
C430 C 0.7963 0.71965 0.36124 0.0
C431 C 0.75899 0.68009 0.39671 0.0
C432 C 0.73323 0.66525 0.42006 0.0
C433 C 0.71338 0.66166 0.37269 0.0
C434 C 0.68927 0.64808 0.39598 0.0
C435 C 0.68474 0.6378 0.46617 0.0
C436 C 0.7043 0.641 0.51309 0.0
C437 C 0.72846 0.6546 0.49013 0.0
H438 H 0.66606 0.6273 0.48412 0.0
H439 H 0.90196 0.76076 0.27226 0.0
H440 H 0.09095 0.70178 0.71637 0.0
H441 H 0.05173 0.67059 0.62813 0.0
H442 H 0.05953 0.73631 0.5414 0.0
H443 H 0.09759 0.76777 0.63439 0.0
H444 H 1.01282 0.70002 0.53895 0.0
H445 H 0.08082 0.70077 0.44622 0.0
H446 H 0.11617 0.69731 0.45353 0.0
H447 H 0.06594 0.61605 0.48776 0.0
H448 H 0.03033 0.61915 0.48172 0.0
H449 H 0.95644 0.59545 0.13899 0.0
H450 H 0.99223 0.62978 0.23779 0.0
H451 H 0.94109 0.61754 0.40847 0.0
H452 H 0.90552 0.58528 0.3086 0.0
H453 H 1.01051 0.62891 0.36494 0.0
H454 H 0.9636 0.66979 0.54794 0.0
H455 H 0.93119 0.67719 0.52612 0.0
H456 H 0.94495 0.68329 0.28426 0.0
H457 H 0.97764 0.67624 0.30489 0.0
C458 C 0.08396 0.70974 0.68064 0.0
C459 C 0.09781 0.73738 0.68161 0.0
C460 C 0.06166 0.69179 0.62914 0.0
C461 C 0.05314 0.70104 0.57609 0.0
C462 C 0.06589 0.72863 0.58093 0.0
C463 C 0.08787 0.74661 0.6336 0.0
C464 C 0.03201 0.68209 0.51221 0.0
C465 C 1.01229 0.68445 0.50093 0.0
C466 C 0.03164 0.66226 0.46092 0.0
C467 C 0.05297 0.66027 0.46428 0.0
C468 C 0.07735 0.68222 0.45581 0.0
C469 C 0.09742 0.68032 0.45967 0.0
C470 C 0.09331 0.65649 0.47129 0.0
C471 C 0.0691 0.6345 0.47888 0.0
C472 C 0.04896 0.63631 0.4752 0.0
C473 C 0.95289 0.60042 0.19728 0.0
C474 C 0.92818 0.58767 0.21591 0.0
C475 C 0.97334 0.61993 0.25389 0.0
C476 C 0.96944 0.62663 0.33055 0.0
C477 C 0.94471 0.6135 0.34931 0.0
C478 C 0.92433 0.59476 0.29212 0.0
C479 C 0.99117 0.6467 0.39163 0.0
C480 C 1.011 0.6445 0.40265 0.0
C481 C 0.99214 0.66739 0.44038 0.0
C482 C 0.97293 0.67228 0.42787 0.0
C483 C 0.95982 0.67287 0.49025 0.0
C484 C 0.94137 0.67696 0.47804 0.0
C485 C 0.93597 0.68063 0.4038 0.0
C486 C 0.94909 0.68035 0.34168 0.0
C487 C 0.96757 0.67629 0.35357 0.0
H488 H 0.92165 0.68374 0.39443 0.0
H489 H 0.10888 0.65506 0.47425 0.0
H490 H 0.24199 0.9001 0.75253 0.0
H491 H 0.25143 0.94295 0.73103 0.0
H492 H 0.2795 0.93614 0.51259 0.0
H493 H 0.27109 0.89437 0.53457 0.0
H494 H 0.30282 0.9873 0.71446 0.0
H495 H 0.2645 0.96147 0.38214 0.0
H496 H 0.22689 0.92519 0.29055 0.0
H497 H 0.18289 0.9027 0.48419 0.0
H498 H 0.22015 0.93902 0.57697 0.0
H499 H 0.3545 0.06352 0.37869 0.0
H500 H 0.32087 0.02437 0.42674 0.0
H501 H 0.32961 0.07413 0.64264 0.0
H502 H 0.36409 0.1137 0.59496 0.0
H503 H 0.27697 1.00434 0.46981 0.0
H504 H 0.31884 0.03998 0.79527 0.0
H505 H 0.35928 0.07394 0.87953 0.0
H506 H 0.39963 0.07285 0.689 0.0
H507 H 0.35946 0.03867 0.60411 0.0
C508 C 0.24957 0.90745 0.69899 0.0
C509 C 0.25565 0.89374 0.645 0.0
C510 C 0.25501 0.93193 0.68699 0.0
C511 C 0.26593 0.94253 0.61987 0.0
C512 C 0.27074 0.92814 0.5642 0.0
C513 C 0.26596 0.90423 0.57706 0.0
C514 C 0.27547 0.96998 0.61093 0.0
C515 C 0.29666 0.99125 0.66249 0.0
C516 C 0.26775 0.9749 0.54213 0.0
C517 C 0.24516 0.95307 0.48656 0.0
C518 C 0.24676 0.94894 0.40518 0.0
C519 C 0.22551 0.92834 0.35304 0.0
C520 C 0.20249 0.91177 0.38148 0.0
C521 C 0.20072 0.91562 0.46223 0.0
C522 C 0.22192 0.93618 0.51466 0.0
C523 C 0.3489 0.0663 0.43557 0.0
C524 C 0.36203 0.09171 0.48318 0.0
C525 C 0.3296 0.04381 0.46313 0.0
C526 C 0.32283 0.04615 0.53881 0.0
C527 C 0.33477 0.07173 0.5846 0.0
C528 C 0.35443 0.09432 0.55736 0.0
C529 C 0.30515 0.02142 0.57101 0.0
C530 C 0.2825 1.00068 0.5237 0.0
C531 C 0.31194 0.01678 0.64256 0.0
C532 C 0.33619 0.03708 0.6932 0.0
C533 C 0.33636 0.04697 0.77154 0.0
C534 C 0.35922 0.06622 0.81938 0.0
C535 C 0.38201 0.07556 0.7896 0.0
C536 C 0.38198 0.06562 0.71197 0.0
C537 C 0.35918 0.04632 0.66398 0.0
H538 H 0.39968 0.09053 0.82664 0.0
H539 H 0.18605 0.89585 0.34098 0.0
H540 H 0.23759 0.75166 0.76492 0.0
H541 H 0.24311 0.71627 0.7631 0.0
H542 H 0.32382 0.77497 0.78656 0.0
H543 H 0.31815 0.81016 0.78492 0.0
H544 H 0.31078 0.73824 0.66991 0.0
H545 H 0.29275 0.73497 0.9383 0.0
H546 H 0.26957 0.7331 0.05085 0.0
H547 H 0.20279 0.65915 0.92891 0.0
H548 H 0.22559 0.6606 0.81581 0.0
H549 H 0.32732 0.63464 0.66009 0.0
H550 H 0.32908 0.67434 0.70714 0.0
H551 H 0.24799 0.62661 0.66683 0.0
H552 H 0.24607 0.5871 0.61907 0.0
H553 H 0.26606 0.66045 0.80719 0.0
H554 H 0.28471 0.66474 0.53757 0.0
H555 H 0.30851 0.66678 0.42711 0.0
H556 H 0.37505 0.74028 0.55251 0.0
H557 H 0.35172 0.73854 0.66404 0.0
C558 C 0.25649 0.757 0.77206 0.0
C559 C 0.27745 0.78356 0.7757 0.0
C560 C 0.25969 0.73679 0.77128 0.0
C561 C 0.28393 0.74286 0.77532 0.0
C562 C 0.30493 0.76969 0.78333 0.0
C563 C 0.30171 0.78981 0.78276 0.0
C564 C 0.28716 0.72111 0.76122 0.0
C565 C 0.30145 0.72155 0.70136 0.0
C566 C 0.27465 0.69898 0.80081 0.0
C567 C 0.26081 0.69807 0.86838 0.0
C568 C 0.27307 0.71846 0.93532 0.0
C569 C 0.26003 0.71743 -0.00075 0.0
C570 C 0.2347 0.69612 -0.00321 0.0
C571 C 0.2224 0.67568 0.93065 0.0
C572 C 0.2354 0.67655 0.86677 0.0
C573 C 0.30988 0.63263 0.66082 0.0
C574 C 0.28655 0.60761 0.63577 0.0
C575 C 0.31091 0.65533 0.68807 0.0
C576 C 0.28866 0.65348 0.6903 0.0
C577 C 0.2654 0.62851 0.66626 0.0
C578 C 0.26435 0.60588 0.63906 0.0
C579 C 0.28934 0.67751 0.71533 0.0
C580 C 0.27575 0.67743 0.77696 0.0
C581 C 0.30258 0.70004 0.67752 0.0
C582 C 0.31659 0.70117 0.6101 0.0
C583 C 0.3045 0.68116 0.54207 0.0
C584 C 0.31789 0.68232 0.47909 0.0
C585 C 0.34332 0.70355 0.483 0.0
C586 C 0.35538 0.72376 0.54973 0.0
C587 C 0.34209 0.72268 0.61291 0.0
H588 H 0.35365 0.70441 0.43415 0.0
H589 H 0.22463 0.69539 0.04627 0.0
H590 H 0.52975 0.17083 0.26833 0.0
H591 H 0.56265 0.16431 0.25792 0.0
H592 H 0.5972 0.22179 0.10185 0.0
H593 H 0.56401 0.2282 0.11101 0.0
H594 H 0.59873 0.17957 0.05391 0.0
H595 H 0.61906 0.23901 0.29583 0.0
H596 H 0.60999 0.25277 0.42305 0.0
H597 H 0.60047 0.18688 0.51173 0.0
H598 H 0.6087 0.1722 0.38403 0.0
H599 H 0.71701 0.19984 0.0964 0.0
H600 H 0.68385 0.20626 0.09618 0.0
H601 H 0.64844 0.15266 0.26268 0.0
H602 H 0.68156 0.14617 0.26327 0.0
H603 H 0.64817 0.19454 0.30426 0.0
H604 H 0.62545 0.13371 0.06148 0.0
H605 H 0.63202 0.11814 0.932 0.0
H606 H 0.6456 0.18615 0.84555 0.0
H607 H 0.63944 0.20232 0.97495 0.0
C608 C 0.54418 0.18197 0.23114 0.0
C609 C 0.54428 0.20025 0.19111 0.0
C610 C 0.56309 0.17826 0.22548 0.0
C611 C 0.58276 0.19291 0.18031 0.0
C612 C 0.58234 0.21033 0.13743 0.0
C613 C 0.56333 0.21401 0.14285 0.0
C614 C 0.60417 0.19075 0.18062 0.0
C615 C 0.60978 0.18323 0.10856 0.0
C616 C 0.61837 0.19503 0.25204 0.0
C617 C 0.61426 0.20434 0.32994 0.0
C618 C 0.61485 0.22732 0.3422 0.0
C619 C 0.60978 0.23524 0.41434 0.0
C620 C 0.60458 0.22067 0.47537 0.0
C621 C 0.60446 0.19813 0.46435 0.0
C622 C 0.60928 0.18996 0.39201 0.0
C623 C 0.70207 0.18922 0.13252 0.0
C624 C 0.70202 0.17238 0.17962 0.0
C625 C 0.68306 0.19294 0.13238 0.0
C626 C 0.66333 0.1797 0.17866 0.0
C627 C 0.66341 0.16316 0.22649 0.0
C628 C 0.68246 0.15951 0.22691 0.0
C629 C 0.64264 0.18309 0.17747 0.0
C630 C 0.6372 0.19094 0.24951 0.0
C631 C 0.62858 0.17907 0.10604 0.0
C632 C 0.63225 0.16937 0.02817 0.0
C633 C 0.63003 0.14545 0.01506 0.0
C634 C 0.63365 0.1365 0.94165 0.0
C635 C 0.6393 0.15119 0.88066 0.0
C636 C 0.64127 0.17482 0.89289 0.0
C637 C 0.6377 0.18388 0.96624 0.0
H638 H 0.64209 0.14422 0.82386 0.0
H639 H 0.60076 0.22691 0.5313 0.0
H640 H 0.59023 0.71135 0.52109 0.0
H641 H 0.54961 0.6679 0.51487 0.0
H642 H 0.51847 0.70699 0.62302 0.0
H643 H 0.55916 0.7502 0.63233 0.0
H644 H 0.50078 0.66529 0.68176 0.0
H645 H 0.50768 0.681 0.41506 0.0
H646 H 0.527 0.69092 0.29145 0.0
H647 H 0.52404 0.62015 0.26791 0.0
H648 H 0.50498 0.60999 0.39203 0.0
H649 H 0.37051 0.56563 0.54201 0.0
H650 H 0.41403 0.60547 0.55495 0.0
H651 H 0.43997 0.5562 0.52705 0.0
H652 H 0.39625 0.51597 0.51583 0.0
H653 H 0.46089 0.60035 0.42952 0.0
H654 H 0.4499 0.58447 0.6979 0.0
H655 H 0.42776 0.57564 0.81625 0.0
H656 H 0.4356 0.64899 0.82948 0.0
H657 H 0.45744 0.65804 0.71039 0.0
C658 C 0.57476 0.71068 0.5439 0.0
C659 C 0.57806 0.73437 0.57707 0.0
C660 C 0.55142 0.68576 0.53983 0.0
C661 C 0.5306 0.68395 0.56711 0.0
C662 C 0.53406 0.70762 0.60148 0.0
C663 C 0.55745 0.73245 0.60669 0.0
C664 C 0.50521 0.6576 0.55974 0.0
C665 C 0.49209 0.65129 0.62624 0.0
C666 C 0.4937 0.63885 0.48783 0.0
C667 C 0.50519 0.64491 0.4133 0.0
C668 C 0.51133 0.66767 0.38385 0.0
C669 C 0.52221 0.67332 0.31365 0.0
C670 C 0.52682 0.65622 0.27199 0.0
C671 C 0.52051 0.6334 0.30034 0.0
C672 C 0.50966 0.62768 0.37059 0.0
C673 C 0.3854 0.56315 0.53839 0.0
C674 C 0.37984 0.53753 0.5278 0.0
C675 C 0.41031 0.58601 0.54602 0.0
C676 C 0.43027 0.58384 0.54208 0.0
C677 C 0.42485 0.55832 0.53023 0.0
C678 C 0.39988 0.53538 0.52412 0.0
C679 C 0.45671 0.60841 0.55114 0.0
C680 C 0.46987 0.61435 0.485 0.0
C681 C 0.46804 0.62709 0.62275 0.0
C682 C 0.45511 0.62181 0.69479 0.0
C683 C 0.44671 0.5986 0.72563 0.0
C684 C 0.43425 0.59358 0.79293 0.0
C685 C 0.43022 0.61171 0.83026 0.0
C686 C 0.43871 0.63495 0.80046 0.0
C687 C 0.45115 0.64004 0.73311 0.0
H688 H 0.42057 0.60779 0.88236 0.0
H689 H 0.53524 0.66062 0.21763 0.0
H690 H 0.89904 0.40103 0.88497 0.0
H691 H 0.89642 0.36295 0.91758 0.0
H692 H 0.94368 0.4105 0.13862 0.0
H693 H 0.94826 0.4494 0.10345 0.0
H694 H 0.95295 0.37653 0.08746 0.0
H695 H 0.87655 0.36951 0.11839 0.0
H696 H 0.83948 0.36752 0.0743 0.0
H697 H 0.81321 0.29863 0.89816 0.0
H698 H 0.85028 0.3004 0.94057 0.0
H699 H 0.90402 0.2735 0.32396 0.0
H700 H 0.91967 0.3131 0.26364 0.0
H701 H 0.87453 0.2623 0.04247 0.0
H702 H 0.85855 0.22301 0.10252 0.0
H703 H 0.86521 0.29697 0.0858 0.0
H704 H 0.93946 0.3012 0.06359 0.0
H705 H 0.97581 0.30237 0.11058 0.0
H706 H 1.00553 0.37529 0.27221 0.0
H707 H 0.96916 0.37436 0.22699 0.0
C708 C 0.90961 0.40379 0.93939 0.0
C709 C 0.92352 0.42837 -0.00783 0.0
C710 C 0.90775 0.38176 0.95853 0.0
C711 C 0.91913 0.38357 0.03181 0.0
C712 C 0.93441 0.40846 0.08218 0.0
C713 C 0.93673 0.43066 0.06236 0.0
C714 C 0.91366 0.35926 0.0587 0.0
C715 C 0.93376 0.3592 0.08764 0.0
C716 C 0.88862 0.33636 0.05758 0.0
C717 C 0.86633 0.3353 0.03206 0.0
C718 C 0.86295 0.35406 0.0699 0.0
C719 C 0.84193 0.35295 0.04526 0.0
C720 C 0.82404 0.33301 0.98332 0.0
C721 C 0.8271 0.31409 0.94601 0.0
C722 C 0.84811 0.31514 0.97034 0.0
C723 C 0.89788 0.27088 0.26212 0.0
C724 C 0.8798 0.24525 0.21834 0.0
C725 C 0.90687 0.29347 0.22758 0.0
C726 C 0.89821 0.29067 0.14851 0.0
C727 C 0.88132 0.26499 0.10367 0.0
C728 C 0.87218 0.24254 0.13821 0.0
C729 C 0.90447 0.31419 0.11468 0.0
C730 C 0.88444 0.31415 0.08483 0.0
C731 C 0.9295 0.33689 0.11524 0.0
C732 C 0.95146 0.33758 0.14236 0.0
C733 C 0.95364 0.31738 0.1096 0.0
C734 C 0.97427 0.31802 0.13584 0.0
C735 C 0.99294 0.33886 0.19447 0.0
C736 C 0.99104 0.35914 0.22685 0.0
C737 C 0.97044 0.35858 0.20087 0.0
H738 H 1.00889 0.33932 0.21472 0.0
H739 H 0.80778 0.33218 0.96435 0.0
H740 H 0.37803 0.82264 0.6647 0.0
H741 H 0.4007 0.8081 0.72556 0.0
H742 H 0.44351 0.88185 0.8946 0.0
H743 H 0.42235 0.89746 0.82996 0.0
H744 H 0.47333 0.87414 0.83516 0.0
H745 H 0.39844 0.81878 0.94512 0.0
H746 H 0.3531 0.78626 0.95191 0.0
H747 H 0.35248 0.72536 0.80349 0.0
H748 H 0.39766 0.75767 0.79351 0.0
H749 H 0.54664 0.83893 0.96214 0.0
H750 H 0.51094 0.84014 0.98648 0.0
H751 H 0.46869 0.78352 0.77071 0.0
H752 H 0.50422 0.7819 0.74709 0.0
H753 H 0.43758 0.78329 0.88857 0.0
H754 H 0.50701 0.84583 0.74337 0.0
H755 H 0.55192 0.87913 0.73106 0.0
H756 H 0.56106 0.92598 0.95282 0.0
H757 H 0.51609 0.89304 0.96578 0.0
C758 C 0.39252 0.83597 0.71411 0.0
C759 C 0.39866 0.86144 0.74153 0.0
C760 C 0.40502 0.8273 0.75024 0.0
C761 C 0.4235 0.84366 0.81568 0.0
C762 C 0.42917 0.86879 0.84454 0.0
C763 C 0.41702 0.87768 0.80754 0.0
C764 C 0.43924 0.83614 0.84673 0.0
C765 C 0.46539 0.85453 0.8494 0.0
C766 C 0.42895 0.81033 0.86374 0.0
C767 C 0.40157 0.79079 0.86834 0.0
C768 C 0.38863 0.79855 0.91311 0.0
C769 C 0.36292 0.78013 0.91754 0.0
C770 C 0.34994 0.75378 0.87815 0.0
C771 C 0.36259 0.7458 0.83399 0.0
C772 C 0.38826 0.76418 0.82885 0.0
C773 C 0.52923 0.82575 0.92218 0.0
C774 C 0.52812 0.81064 0.85222 0.0
C775 C 0.50887 0.8264 0.93616 0.0
C776 C 0.48746 0.81233 0.87951 0.0
C777 C 0.48508 0.79449 0.8151 0.0
C778 C 0.50538 0.79361 0.80151 0.0
C779 C 0.47119 0.82125 0.87574 0.0
C780 C 0.44518 0.80313 0.8773 0.0
C781 C 0.48138 0.84736 0.86294 0.0
C782 C 0.5084 0.86694 0.85589 0.0
C783 C 0.51867 0.86321 0.78953 0.0
C784 C 0.54406 0.88207 0.78225 0.0
C785 C 0.55936 0.90461 0.84127 0.0
C786 C 0.54922 0.90847 0.9073 0.0
C787 C 0.52377 0.88979 0.91448 0.0
H788 H 0.57905 0.9191 0.83574 0.0
H789 H 0.3301 0.73952 0.88208 0.0
H790 H 0.79432 0.49534 0.86794 0.0
H791 H 0.7512 0.4602 0.80497 0.0
H792 H 0.7606 0.40032 0.85227 0.0
H793 H 0.80402 0.43555 0.91259 0.0
H794 H 0.72567 0.38168 0.7207 0.0
H795 H 0.74389 0.42617 -0.00748 0.0
H796 H 0.76281 0.46598 0.09673 0.0
H797 H 0.71829 0.48632 -0.01213 0.0
H798 H 0.69947 0.44686 0.88207 0.0
H799 H 0.61902 0.2879 0.89671 0.0
H800 H 0.65786 0.31848 0.84212 0.0
H801 H 0.63067 0.36377 0.79047 0.0
H802 H 0.59219 0.33383 0.84657 0.0
H803 H 0.67261 0.39204 0.8973 0.0
H804 H 0.64778 0.33942 0.63869 0.0
H805 H 0.63109 0.29962 0.53644 0.0
H806 H 0.6874 0.29211 0.62855 0.0
H807 H 0.70441 0.33183 0.73133 0.0
C808 C 0.78744 0.47464 0.86136 0.0
C809 C 0.8021 0.46784 0.89472 0.0
C810 C 0.7629 0.45463 0.82559 0.0
C811 C 0.7526 0.4277 0.82551 0.0
C812 C 0.76821 0.42097 0.85168 0.0
C813 C 0.79291 0.44102 0.88633 0.0
C814 C 0.72497 0.40739 0.81462 0.0
C815 C 0.71395 0.38386 0.7589 0.0
C816 C 0.70974 0.41046 0.86424 0.0
C817 C 0.72052 0.43379 0.9289 0.0
C818 C 0.73825 0.43922 -0.0094 0.0
C819 C 0.74896 0.46172 0.04991 0.0
C820 C 0.74181 0.47871 0.04879 0.0
C821 C 0.72385 0.47317 -0.01147 0.0
C822 C 0.71317 0.45076 0.92884 0.0
C823 C 0.62108 0.30403 0.8721 0.0
C824 C 0.60273 0.30873 0.87751 0.0
C825 C 0.64313 0.32127 0.8398 0.0
C826 C 0.64716 0.34345 0.81248 0.0
C827 C 0.62786 0.3467 0.81098 0.0
C828 C 0.60582 0.32948 0.84307 0.0
C829 C 0.67305 0.366 0.80338 0.0
C830 C 0.68395 0.39001 0.85676 0.0
C831 C 0.68808 0.36303 0.7527 0.0
C832 C 0.67731 0.33855 0.69289 0.0
C833 C 0.65648 0.32917 0.6375 0.0
C834 C 0.64707 0.30671 0.57913 0.0
C835 C 0.65823 0.2934 0.57598 0.0
C836 C 0.6788 0.30247 0.63108 0.0
C837 C 0.68839 0.32501 0.68917 0.0
H838 H 0.65103 0.2761 0.5308 0.0
H839 H 0.75015 0.49614 0.0947 0.0
H840 H 0.24966 0.40113 0.29879 0.0
H841 H 0.23304 0.39684 0.16445 0.0
H842 H 0.27785 0.48258 0.19063 0.0
H843 H 0.29452 0.48701 0.32466 0.0
H844 H 0.23435 0.44788 0.04837 0.0
H845 H 0.31881 0.46766 0.17385 0.0
H846 H 0.33755 0.45431 0.26485 0.0
H847 H 0.28186 0.37186 0.16225 0.0
H848 H 0.2628 0.38483 0.07103 0.0
H849 H 0.31897 0.51855 0.79345 0.0
H850 H 0.30101 0.50191 0.91342 0.0
H851 H 0.29009 0.42771 0.82714 0.0
H852 H 0.30845 0.44442 0.70864 0.0
H853 H 0.30326 0.44115 0.97825 0.0
H854 H 0.24233 0.43132 0.80151 0.0
H855 H 0.22357 0.44341 0.7068 0.0
H856 H 0.22803 0.49931 0.89241 0.0
H857 H 0.24742 0.48806 -0.01183 0.0
C858 C 0.25505 0.41901 0.27695 0.0
C859 C 0.27422 0.44443 0.31951 0.0
C860 C 0.24509 0.4165 0.20098 0.0
C861 C 0.25492 0.4394 0.16744 0.0
C862 C 0.27026 0.46469 0.21573 0.0
C863 C 0.28014 0.46724 0.2918 0.0
C864 C 0.25916 0.43823 0.08431 0.0
C865 C 0.24902 0.44595 0.0317 0.0
C866 C 0.27784 0.43495 0.06255 0.0
C867 C 0.28942 0.42716 0.1162 0.0
C868 C 0.31067 0.44671 0.17077 0.0
C869 C 0.32129 0.43923 0.22236 0.0
C870 C 0.3109 0.41226 0.21924 0.0
C871 C 0.28987 0.39273 0.16458 0.0
C872 C 0.27916 0.40012 0.11295 0.0
C873 C 0.31363 0.49913 0.80162 0.0
C874 C 0.31467 0.48251 0.74164 0.0
C875 C 0.30296 0.48946 0.86919 0.0
C876 C 0.29332 0.46321 0.87684 0.0
C877 C 0.29699 0.44782 0.82118 0.0
C878 C 0.30773 0.4575 0.75402 0.0
C879 C 0.27907 0.45168 0.94241 0.0
C880 C 0.28768 0.44186 -0.00794 0.0
C881 C 0.25839 0.45211 0.95921 0.0
C882 C 0.24655 0.45896 0.90214 0.0
C883 C 0.23961 0.44643 0.82214 0.0
C884 C 0.22885 0.45314 0.76816 0.0
C885 C 0.22467 0.47217 0.7935 0.0
C886 C 0.23127 0.48455 0.87289 0.0
C887 C 0.24215 0.47801 0.92709 0.0
H888 H 0.21627 0.47729 0.75166 0.0
H889 H 0.3192 0.4065 0.25895 0.0
H890 H 0.81543 0.14089 0.11248 0.0
H891 H 0.81029 0.14848 0.97899 0.0
H892 H 0.89108 0.20043 0.98398 0.0
H893 H 0.89629 0.19291 0.11638 0.0
H894 H 0.8278 0.1973 0.93902 0.0
H895 H 0.90524 0.19527 0.79613 0.0
H896 H 0.92547 0.17246 0.80015 0.0
H897 H 0.85909 0.10579 0.87262 0.0
H898 H 0.83835 0.12803 0.86797 0.0
H899 H 0.86707 0.22528 0.51433 0.0
H900 H 0.87603 0.2293 0.65736 0.0
H901 H 0.79746 0.16745 0.66572 0.0
H902 H 0.78881 0.16228 0.52275 0.0
H903 H 0.86328 0.1807 0.70802 0.0
H904 H 0.78675 0.18391 0.85873 0.0
H905 H 0.76658 0.20678 0.8555 0.0
H906 H 0.83045 0.27054 0.76481 0.0
H907 H 0.85112 0.2482 0.76814 0.0
C908 C 0.832 0.15351 0.08424 0.0
C909 C 0.85621 0.16645 0.1244 0.0
C910 C 0.82907 0.15796 0.00857 0.0
C911 C 0.85033 0.17503 0.97214 0.0
C912 C 0.87448 0.18701 0.01099 0.0
C913 C 0.8774 0.18264 0.08645 0.0
C914 C 0.84746 0.18132 0.89483 0.0
C915 C 0.83519 0.19334 0.88799 0.0
C916 C 0.85811 0.17711 0.82981 0.0
C917 C 0.87037 0.16349 0.83265 0.0
C918 C 0.89495 0.17572 0.81278 0.0
C919 C 0.9065 0.16289 0.81516 0.0
C920 C 0.89361 0.13774 0.83694 0.0
C921 C 0.8691 0.12533 0.85614 0.0
C922 C 0.85746 0.13807 0.8538 0.0
C923 C 0.85186 0.21251 0.54695 0.0
C924 C 0.8276 0.1926 0.50771 0.0
C925 C 0.85685 0.21518 0.62844 0.0
C926 C 0.83737 0.19858 0.67141 0.0
C927 C 0.81266 0.18054 0.63332 0.0
C928 C 0.8078 0.1775 0.55175 0.0
C929 C 0.8432 0.19624 0.75161 0.0
C930 C 0.85605 0.1849 0.75914 0.0
C931 C 0.83294 0.20093 0.81687 0.0
C932 C 0.82036 0.21418 0.81281 0.0
C933 C 0.79649 0.20279 0.83801 0.0
C934 C 0.78497 0.21567 0.83618 0.0
C935 C 0.79718 0.24003 0.80963 0.0
C936 C 0.82094 0.25157 0.78485 0.0
C937 C 0.83253 0.23875 0.78641 0.0
H938 H 0.78825 0.25 0.80844 0.0
H939 H 0.90259 0.12784 0.83874 0.0
H940 H 0.62538 0.78257 0.35651 0.0
H941 H 0.64656 0.79196 0.23749 0.0
H942 H 0.67085 0.87341 0.29047 0.0
H943 H 0.64913 0.86381 0.40809 0.0
H944 H 0.65154 0.8549 0.15006 0.0
H945 H 0.71388 0.85922 0.29459 0.0
H946 H 0.73734 0.85022 0.38174 0.0
H947 H 0.71209 0.77913 0.21786 0.0
H948 H 0.68764 0.78711 0.13116 0.0
H949 H 0.6941 0.85901 0.77014 0.0
H950 H 0.69988 0.87087 0.91403 0.0
H951 H 0.65796 0.78757 0.93209 0.0
H952 H 0.65371 0.77578 0.78761 0.0
H953 H 0.69934 0.82128 0.04876 0.0
H954 H 0.61759 0.82285 -0.00521 0.0
H955 H 0.59921 0.84342 0.94136 0.0
H956 H 0.67319 0.91597 0.94649 0.0
H957 H 0.69182 0.89638 0.00609 0.0
C958 C 0.63509 0.80237 0.34205 0.0
C959 C 0.63536 0.82234 0.39032 0.0
C960 C 0.6476 0.80789 0.27516 0.0
C961 C 0.66073 0.83355 0.25599 0.0
C962 C 0.66093 0.85351 0.30436 0.0
C963 C 0.64817 0.8479 0.37067 0.0
C964 C 0.6709 0.83825 0.17949 0.0
C965 C 0.66256 0.84812 0.12886 0.0
C966 C 0.68567 0.82992 0.15204 0.0
C967 C 0.69872 0.82371 0.20653 0.0
C968 C 0.71287 0.84136 0.27787 0.0
C969 C 0.72647 0.83651 0.32703 0.0
C970 C 0.72632 0.81421 0.30511 0.0
C971 C 0.71227 0.79648 0.23458 0.0
C972 C 0.69844 0.8011 0.18555 0.0
C973 C 0.68638 0.84329 0.80511 0.0
C974 C 0.67327 0.81648 0.76852 0.0
C975 C 0.68936 0.85007 0.88713 0.0
C976 C 0.67847 0.83005 0.93347 0.0
C977 C 0.66631 0.80331 0.89711 0.0
C978 C 0.6639 0.79656 0.81494 0.0
C979 C 0.67869 0.83649 0.01935 0.0
C980 C 0.6889 0.8286 0.07147 0.0
C981 C 0.66657 0.84772 0.04964 0.0
C982 C 0.65613 0.85773 0.00106 0.0
C983 C 0.62993 0.84293 0.98245 0.0
C984 C 0.61945 0.8546 0.95245 0.0
C985 C 0.63504 0.88085 0.93892 0.0
C986 C 0.66116 0.89553 0.95593 0.0
C987 C 0.67168 0.88421 -0.01166 0.0
H988 H 0.6269 0.88999 0.91651 0.0
H989 H 0.73701 0.81058 0.34295 0.0
H990 H 0.89013 0.53594 0.88957 0.0
H991 H 0.89315 0.53324 0.74991 0.0
H992 H 0.871 0.58565 0.73914 0.0
H993 H 0.86403 0.58451 0.87834 0.0
H994 H 0.84758 0.55211 0.62761 0.0
H995 H 0.9342 0.60164 0.70145 0.0
H996 H 0.9747 0.61702 0.77291 0.0
H997 H 0.96083 0.54194 0.68283 0.0
H998 H 0.9201 0.52596 0.61152 0.0
H999 H 0.90433 0.53078 0.24835 0.0
H1000 H 0.90943 0.55067 0.38284 0.0
H1001 H 0.82846 0.49957 0.38175 0.0
H1002 H 0.82347 0.48345 0.23988 0.0
H1003 H 0.90708 0.53948 0.50095 0.0
H1004 H 0.8065 0.50796 0.51397 0.0
H1005 H 0.77467 0.51262 0.45784 0.0
H1006 H 0.833 0.58398 0.37816 0.0
H1007 H 0.8648 0.57869 0.42904 0.0
C1008 C 0.88601 0.54692 0.85754 0.0
C1009 C 0.87629 0.55981 0.89365 0.0
C1010 C 0.88828 0.54591 0.77748 0.0
C1011 C 0.88274 0.5596 0.73317 0.0
C1012 C 0.8751 0.57459 0.77142 0.0
C1013 C 0.8713 0.57414 0.85087 0.0
C1014 C 0.8818 0.55527 0.64595 0.0
C1015 C 0.86108 0.55013 0.59969 0.0
C1016 C 0.89952 0.5532 0.6084 0.0
C1017 C 0.92401 0.56257 0.65132 0.0
C1018 C 0.93971 0.58834 0.69722 0.0
C1019 C 0.96273 0.59718 0.73764 0.0
C1020 C 0.97032 0.58046 0.73246 0.0
C1021 C 0.95493 0.55488 0.68672 0.0
C1022 C 0.9319 0.54594 0.64609 0.0
C1023 C 0.88752 0.52417 0.27621 0.0
C1024 C 0.86348 0.50597 0.23356 0.0
C1025 C 0.89044 0.53538 0.35423 0.0
C1026 C 0.8694 0.52708 0.3943 0.0
C1027 C 0.84515 0.50761 0.35244 0.0
C1028 C 0.84221 0.49777 0.27179 0.0
C1029 C 0.87342 0.53755 0.48056 0.0
C1030 C 0.89431 0.54291 0.52744 0.0
C1031 C 0.85732 0.54251 0.51754 0.0
C1032 C 0.83785 0.54261 0.47364 0.0
C1033 C 0.81233 0.52412 0.4821 0.0
C1034 C 0.79431 0.52683 0.45103 0.0
C1035 C 0.80174 0.5484 0.41355 0.0
C1036 C 0.82713 0.56691 0.40532 0.0
C1037 C 0.84512 0.56384 0.43412 0.0
H1038 H 0.78784 0.55092 0.39182 0.0
H1039 H 0.98814 0.58734 0.76385 0.0
H1040 H 0.32193 0.86675 0.94949 0.0
H1041 H 0.31147 0.8564 0.08151 0.0
H1042 H 0.24127 0.84582 0.02884 0.0
H1043 H 0.25452 0.86165 0.90538 0.0
H1044 H 0.25096 0.85963 0.16559 0.0
H1045 H 0.25176 0.78829 0.00792 0.0
H1046 H 0.27261 0.77195 0.93119 0.0
H1047 H 0.33156 0.80708 0.12429 0.0
H1048 H 0.31059 0.82281 0.20363 0.0
H1049 H 0.19738 0.79309 0.47841 0.0
H1050 H 0.20135 0.79391 0.33734 0.0
H1051 H 0.27615 0.81435 0.38049 0.0
H1052 H 0.27007 0.8087 0.51711 0.0
H1053 H 0.26032 0.79206 0.24283 0.0
H1054 H 0.25285 0.86068 0.40058 0.0
H1055 H 0.22564 0.87031 0.46847 0.0
H1056 H 0.17344 0.83559 0.25686 0.0
H1057 H 0.19956 0.82481 0.18835 0.0
C1058 C 0.30463 0.86288 0.96761 0.0
C1059 C 0.28809 0.86329 0.91603 0.0
C1060 C 0.29833 0.85632 0.04217 0.0
C1061 C 0.27472 0.84844 0.0635 0.0
C1062 C 0.25932 0.85108 0.01383 0.0
C1063 C 0.26648 0.85941 0.9421 0.0
C1064 C 0.26549 0.83684 0.1358 0.0
C1065 C 0.25283 0.84463 0.18164 0.0
C1066 C 0.26778 0.81725 0.15772 0.0
C1067 C 0.27982 0.80698 0.11108 0.0
C1068 C 0.26917 0.79251 0.0339 0.0
C1069 C 0.28104 0.78344 -0.01009 0.0
C1070 C 0.30367 0.789 0.02197 0.0
C1071 C 0.31414 0.803 0.0992 0.0
C1072 C 0.30218 0.81179 0.14399 0.0
C1073 C 0.2143 0.79698 0.45674 0.0
C1074 C 0.23433 0.8028 0.50882 0.0
C1075 C 0.21671 0.79776 0.37655 0.0
C1076 C 0.23976 0.80612 0.34944 0.0
C1077 C 0.25846 0.80877 0.40017 0.0
C1078 C 0.25537 0.80632 0.47885 0.0
C1079 C 0.24599 0.81499 0.27235 0.0
C1080 C 0.25822 0.80682 0.22583 0.0
C1081 C 0.24268 0.83371 0.2486 0.0
C1082 C 0.22802 0.8417 0.28968 0.0
C1083 C 0.23561 0.8552 0.36856 0.0
C1084 C 0.22039 0.86078 0.40718 0.0
C1085 C 0.19798 0.8536 0.36711 0.0
C1086 C 0.19076 0.84104 0.28797 0.0
C1087 C 0.20569 0.83509 0.24931 0.0
H1088 H 0.18615 0.85771 0.39752 0.0
H1089 H 0.31298 0.78228 0.98723 0.0
H1090 H 0.45411 0.21513 0.03875 0.0
H1091 H 0.46259 0.22346 0.90395 0.0
H1092 H 0.49005 0.17545 0.88181 0.0
H1093 H 0.48154 0.16709 0.01723 0.0
H1094 H 0.52339 0.22364 0.84292 0.0
H1095 H 0.43713 0.1532 0.76825 0.0
H1096 H 0.39105 0.12583 0.76789 0.0
H1097 H 0.39071 0.19133 0.72267 0.0
H1098 H 0.43683 0.21921 0.72327 0.0
H1099 H 0.53119 0.22285 0.42746 0.0
H1100 H 0.52242 0.21219 0.5598 0.0
H1101 H 0.50036 0.26487 0.60138 0.0
H1102 H 0.5089 0.27538 0.46765 0.0
H1103 H 0.46452 0.21302 0.62885 0.0
H1104 H 0.55504 0.28033 0.68787 0.0
H1105 H 0.59873 0.29871 0.66551 0.0
H1106 H 0.58919 0.22935 0.72631 0.0
H1107 H 0.54514 0.21001 0.74593 0.0
C1108 C 0.4614 0.20586 0.00423 0.0
C1109 C 0.46724 0.19054 0.0378 0.0
C1110 C 0.4662 0.21058 0.92735 0.0
C1111 C 0.47693 0.20006 0.88287 0.0
C1112 C 0.48177 0.18375 0.91525 0.0
C1113 C 0.47673 0.17882 -0.00789 0.0
C1114 C 0.48495 0.20801 0.80552 0.0
C1115 C 0.51046 0.221 0.79562 0.0
C1116 C 0.46811 0.20473 0.7442 0.0
C1117 C 0.44051 0.18843 0.74692 0.0
C1118 C 0.42729 0.16191 0.75933 0.0
C1119 C 0.40115 0.14626 0.75875 0.0
C1120 C 0.38799 0.15687 0.74569 0.0
C1121 C 0.40094 0.18316 0.73302 0.0
C1122 C 0.42708 0.19889 0.73337 0.0
C1123 C 0.52503 0.23263 0.46562 0.0
C1124 C 0.52074 0.24996 0.43796 0.0
C1125 C 0.52004 0.22653 0.54108 0.0
C1126 C 0.51085 0.23782 0.59038 0.0
C1127 C 0.50753 0.25603 0.56405 0.0
C1128 C 0.51262 0.26223 0.48829 0.0
C1129 C 0.50299 0.22904 0.66685 0.0
C1130 C 0.47747 0.21583 0.67646 0.0
C1131 C 0.51969 0.23126 0.72651 0.0
C1132 C 0.54658 0.24354 0.71752 0.0
C1133 C 0.56211 0.26881 0.6955 0.0
C1134 C 0.58694 0.27936 0.68299 0.0
C1135 C 0.59666 0.26512 0.69405 0.0
C1136 C 0.58159 0.24031 0.71754 0.0
C1137 C 0.55667 0.22952 0.72917 0.0
H1138 H 0.61595 0.2734 0.68544 0.0
H1139 H 0.36775 0.14468 0.74503 0.0
loop_
_geom_bond_atom_site_label_1
_geom_bond_atom_site_label_2
_geom_bond_distance
_geom_bond_site_symmetry_2
_ccdc_geom_bond_type
La0 C2 2.928 . S
La0 O20 2.521 . S
La0 O21 2.628 . S
La0 O22 2.554 . S
La0 O23 2.757 . S
La0 O24 2.470 . S
La0 O29 2.482 . S
La0 O31 2.503 . S
La1 C11 2.928 . S
La1 O23 2.482 . S
La1 O25 2.503 . S
La1 O26 2.521 . S
La1 O27 2.628 . S
La1 O28 2.554 . S
La1 O29 2.757 . S
La1 O30 2.470 . S
C2 La0 2.928 . S
C2 C3 1.503 . S
C2 O20 1.261 . S
C2 O21 1.243 . S
C3 C2 1.503 . S
C3 C4 1.394 . S
C3 C8 1.373 . S
C4 C3 1.394 . S
C4 C5 1.380 . S
C4 H32 0.930 . S
C5 C4 1.380 . S
C5 C6 1.376 . S
C5 H33 0.930 . S
C6 C5 1.376 . S
C6 C7 1.370 . S
C7 C6 1.370 . S
C7 C8 1.396 . S
C7 H34 0.929 . S
C8 C3 1.373 . S
C8 C7 1.396 . S
C8 H35 0.929 . S
C9 O22 1.240 . S
C9 O23 1.289 . S
C10 O24 1.258 . S
C10 O25 1.256 . S
C11 La1 2.928 . S
C11 C12 1.503 . S
C11 O26 1.261 . S
C11 O27 1.243 . S
C12 C11 1.503 . S
C12 C13 1.394 . S
C12 C17 1.373 . S
C13 C12 1.394 . S
C13 C14 1.380 . S
C13 H36 0.930 . S
C14 C13 1.380 . S
C14 C15 1.376 . S
C14 H37 0.930 . S
C15 C14 1.376 . S
C15 C16 1.370 . S
C16 C15 1.370 . S
C16 C17 1.396 . S
C16 H38 0.929 . S
C17 C12 1.373 . S
C17 C16 1.396 . S
C17 H39 0.929 . S
C18 O28 1.240 . S
C18 O29 1.289 . S
C19 O30 1.258 . S
C19 O31 1.256 . S
O20 La0 2.521 . S
O20 C2 1.261 . S
O21 La0 2.628 . S
O21 C2 1.243 . S
O22 La0 2.554 . S
O22 C9 1.240 . S
O23 La0 2.757 . S
O23 La1 2.482 . S
O23 C9 1.289 . S
O24 La0 2.470 . S
O24 C10 1.258 . S
O25 La1 2.503 . S
O25 C10 1.256 . S
O26 La1 2.521 . S
O26 C11 1.261 . S
O27 La1 2.628 . S
O27 C11 1.243 . S
O28 La1 2.554 . S
O28 C18 1.240 . S
O29 La0 2.482 . S
O29 La1 2.757 . S
O29 C18 1.289 . S
O30 La1 2.470 . S
O30 C19 1.258 . S
O31 La0 2.503 . S
O31 C19 1.256 . S
H32 C4 0.930 . S
H33 C5 0.930 . S
H34 C7 0.929 . S
H35 C8 0.929 . S
H36 C13 0.930 . S
H37 C14 0.930 . S
H38 C16 0.929 . S
H39 C17 0.929 . S
La40 C42 2.928 . S
La40 O60 2.521 . S
La40 O61 2.628 . S
La40 O62 2.554 1_554 S
La40 O63 2.757 1_554 S
La40 O64 2.470 . S
La40 O69 2.482 . S
La40 O71 2.503 . S
La41 C51 2.928 1_554 S
La41 O63 2.482 1_554 S
La41 O65 2.503 . S
La41 O66 2.521 . S
La41 O67 2.628 1_554 S
La41 O68 2.554 . S
La41 O69 2.757 . S
La41 O70 2.470 . S
C42 La40 2.928 . S
C42 C43 1.503 . S
C42 O60 1.261 . S
C42 O61 1.243 . S
C43 C42 1.503 . S
C43 C44 1.394 . S
C43 C48 1.373 . S
C44 C43 1.394 . S
C44 C45 1.380 . S
C44 H72 0.930 . S
C45 C44 1.380 . S
C45 C46 1.376 . S
C45 H73 0.930 . S
C46 C45 1.376 . S
C46 C47 1.370 . S
C47 C46 1.370 . S
C47 C48 1.396 . S
C47 H74 0.929 . S
C48 C43 1.373 . S
C48 C47 1.396 . S
C48 H75 0.929 . S
C49 O62 1.240 . S
C49 O63 1.289 . S
C50 O64 1.258 . S
C50 O65 1.256 . S
C51 La41 2.928 1_556 S
C51 C52 1.503 . S
C51 O66 1.261 1_556 S
C51 O67 1.243 . S
C52 C51 1.503 . S
C52 C53 1.394 1_556 S
C52 C57 1.373 . S
C53 C52 1.394 1_554 S
C53 C54 1.380 . S
C53 H76 0.930 . S
C54 C53 1.380 . S
C54 C55 1.376 1_554 S
C54 H77 0.930 . S
C55 C54 1.376 1_556 S
C55 C56 1.370 . S
C56 C55 1.370 . S
C56 C57 1.396 . S
C56 H78 0.929 . S
C57 C52 1.373 . S
C57 C56 1.396 . S
C57 H79 0.929 . S
C58 O68 1.240 . S
C58 O69 1.289 . S
C59 O70 1.258 . S
C59 O71 1.256 . S
O60 La40 2.521 . S
O60 C42 1.261 . S
O61 La40 2.628 . S
O61 C42 1.243 . S
O62 La40 2.554 1_556 S
O62 C49 1.240 . S
O63 La40 2.757 1_556 S
O63 La41 2.482 1_556 S
O63 C49 1.289 . S
O64 La40 2.470 . S
O64 C50 1.258 . S
O65 La41 2.503 . S
O65 C50 1.256 . S
O66 La41 2.521 . S
O66 C51 1.261 1_554 S
O67 La41 2.628 1_556 S
O67 C51 1.243 . S
O68 La41 2.554 . S
O68 C58 1.240 . S
O69 La40 2.482 . S
O69 La41 2.757 . S
O69 C58 1.289 . S
O70 La41 2.470 . S
O70 C59 1.258 . S
O71 La40 2.503 . S
O71 C59 1.256 . S
H72 C44 0.930 . S
H73 C45 0.930 . S
H74 C47 0.929 . S
H75 C48 0.929 . S
H76 C53 0.930 . S
H77 C54 0.930 . S
H78 C56 0.929 . S
H79 C57 0.929 . S
La80 C82 2.928 . S
La80 O100 2.521 . S
La80 O101 2.628 . S
La80 O102 2.554 . S
La80 O103 2.757 . S
La80 O104 2.470 . S
La80 O109 2.482 . S
La80 O111 2.503 . S
La81 C91 2.928 . S
La81 O103 2.482 . S
La81 O105 2.503 . S
La81 O106 2.521 . S
La81 O107 2.628 . S
La81 O108 2.554 . S
La81 O109 2.757 . S
La81 O110 2.470 . S
C82 La80 2.928 . S
C82 C83 1.503 . S
C82 O100 1.261 . S
C82 O101 1.243 . S
C83 C82 1.503 . S
C83 C84 1.394 . S
C83 C88 1.373 . S
C84 C83 1.394 . S
C84 C85 1.380 . S
C84 H112 0.930 . S
C85 C84 1.380 . S
C85 C86 1.376 . S
C85 H113 0.930 . S
C86 C85 1.376 . S
C86 C87 1.370 . S
C87 C86 1.370 . S
C87 C88 1.396 . S
C87 H114 0.929 . S
C88 C83 1.373 . S
C88 C87 1.396 . S
C88 H115 0.929 . S
C89 O102 1.240 . S
C89 O103 1.289 . S
C90 O104 1.258 . S
C90 O105 1.256 . S
C91 La81 2.928 . S
C91 C92 1.503 . S
C91 O106 1.261 . S
C91 O107 1.243 . S
C92 C91 1.503 . S
C92 C93 1.394 . S
C92 C97 1.373 . S
C93 C92 1.394 . S
C93 C94 1.380 . S
C93 H116 0.930 . S
C94 C93 1.380 . S
C94 C95 1.376 . S
C94 H117 0.930 . S
C95 C94 1.376 . S
C95 C96 1.370 . S
C96 C95 1.370 . S
C96 C97 1.396 . S
C96 H118 0.929 1_556 S
C97 C92 1.373 . S
C97 C96 1.396 . S
C97 H119 0.929 1_556 S
C98 O108 1.240 . S
C98 O109 1.289 . S
C99 O110 1.258 . S
C99 O111 1.256 . S
O100 La80 2.521 . S
O100 C82 1.261 . S
O101 La80 2.628 . S
O101 C82 1.243 . S
O102 La80 2.554 . S
O102 C89 1.240 . S
O103 La80 2.757 . S
O103 La81 2.482 . S
O103 C89 1.289 . S
O104 La80 2.470 . S
O104 C90 1.258 . S
O105 La81 2.503 . S
O105 C90 1.256 . S
O106 La81 2.521 . S
O106 C91 1.261 . S
O107 La81 2.628 . S
O107 C91 1.243 . S
O108 La81 2.554 . S
O108 C98 1.240 . S
O109 La80 2.482 . S
O109 La81 2.757 . S
O109 C98 1.289 . S
O110 La81 2.470 . S
O110 C99 1.258 . S
O111 La80 2.503 . S
O111 C99 1.256 . S
H112 C84 0.930 . S
H113 C85 0.930 . S
H114 C87 0.929 . S
H115 C88 0.929 . S
H116 C93 0.930 . S
H117 C94 0.930 . S
H118 C96 0.929 1_554 S
H119 C97 0.929 1_554 S
La120 C122 2.928 . S
La120 O140 2.521 1_554 S
La120 O141 2.628 . S
La120 O142 2.554 1_554 S
La120 O143 2.757 1_554 S
La120 O144 2.470 . S
La120 O149 2.482 . S
La120 O151 2.503 1_554 S
La121 C131 2.928 1_554 S
La121 O143 2.482 1_554 S
La121 O145 2.503 . S
La121 O146 2.521 . S
La121 O147 2.628 1_554 S
La121 O148 2.554 . S
La121 O149 2.757 . S
La121 O150 2.470 . S
C122 La120 2.928 . S
C122 C123 1.503 . S
C122 O140 1.261 1_554 S
C122 O141 1.243 . S
C123 C122 1.503 . S
C123 C124 1.394 . S
C123 C128 1.373 . S
C124 C123 1.394 . S
C124 C125 1.380 . S
C124 H152 0.930 1_554 S
C125 C124 1.380 . S
C125 C126 1.376 . S
C125 H153 0.930 . S
C126 C125 1.376 . S
C126 C127 1.370 . S
C127 C126 1.370 . S
C127 C128 1.396 . S
C127 H154 0.929 . S
C128 C123 1.373 . S
C128 C127 1.396 . S
C128 H155 0.929 . S
C129 O142 1.240 . S
C129 O143 1.289 . S
C130 O144 1.258 . S
C130 O145 1.256 . S
C131 La121 2.928 1_556 S
C131 C132 1.503 . S
C131 O146 1.261 1_556 S
C131 O147 1.243 . S
C132 C131 1.503 . S
C132 C133 1.394 . S
C132 C137 1.373 . S
C133 C132 1.394 . S
C133 C134 1.380 . S
C133 H156 0.930 1_556 S
C134 C133 1.380 . S
C134 C135 1.376 . S
C134 H157 0.930 . S
C135 C134 1.376 . S
C135 C136 1.370 . S
C136 C135 1.370 . S
C136 C137 1.396 . S
C136 H158 0.929 . S
C137 C132 1.373 . S
C137 C136 1.396 . S
C137 H159 0.929 . S
C138 O148 1.240 . S
C138 O149 1.289 . S
C139 O150 1.258 1_556 S
C139 O151 1.256 . S
O140 La120 2.521 1_556 S
O140 C122 1.261 1_556 S
O141 La120 2.628 . S
O141 C122 1.243 . S
O142 La120 2.554 1_556 S
O142 C129 1.240 . S
O143 La120 2.757 1_556 S
O143 La121 2.482 1_556 S
O143 C129 1.289 . S
O144 La120 2.470 . S
O144 C130 1.258 . S
O145 La121 2.503 . S
O145 C130 1.256 . S
O146 La121 2.521 . S
O146 C131 1.261 1_554 S
O147 La121 2.628 1_556 S
O147 C131 1.243 . S
O148 La121 2.554 . S
O148 C138 1.240 . S
O149 La120 2.482 . S
O149 La121 2.757 . S
O149 C138 1.289 . S
O150 La121 2.470 . S
O150 C139 1.258 1_554 S
O151 La120 2.503 1_556 S
O151 C139 1.256 . S
H152 C124 0.930 1_556 S
H153 C125 0.930 . S
H154 C127 0.929 . S
H155 C128 0.929 . S
H156 C133 0.930 1_554 S
H157 C134 0.930 . S
H158 C136 0.929 . S
H159 C137 0.929 . S
La160 C162 2.928 . S
La160 O180 2.521 . S
La160 O181 2.628 . S
La160 O182 2.554 . S
La160 O183 2.757 . S
La160 O184 2.470 . S
La160 O189 2.482 . S
La160 O191 2.503 . S
La161 C171 2.928 . S
La161 O183 2.482 . S
La161 O185 2.503 . S
La161 O186 2.521 . S
La161 O187 2.628 . S
La161 O188 2.554 1_556 S
La161 O189 2.757 . S
La161 O190 2.470 . S
C162 La160 2.928 . S
C162 C163 1.503 . S
C162 O180 1.261 . S
C162 O181 1.243 . S
C163 C162 1.503 . S
C163 C164 1.394 . S
C163 C168 1.373 . S
C164 C163 1.394 . S
C164 C165 1.380 . S
C164 H192 0.930 . S
C165 C164 1.380 . S
C165 C166 1.376 . S
C165 H193 0.930 . S
C166 C165 1.376 . S
C166 C167 1.370 . S
C167 C166 1.370 . S
C167 C168 1.396 . S
C167 H194 0.929 . S
C168 C163 1.373 . S
C168 C167 1.396 . S
C168 H195 0.929 . S
C169 O182 1.240 . S
C169 O183 1.289 . S
C170 O184 1.258 . S
C170 O185 1.256 . S
C171 La161 2.928 . S
C171 C172 1.503 . S
C171 O186 1.261 . S
C171 O187 1.243 . S
C172 C171 1.503 . S
C172 C173 1.394 . S
C172 C177 1.373 . S
C173 C172 1.394 . S
C173 C174 1.380 . S
C173 H196 0.930 1_556 S
C174 C173 1.380 . S
C174 C175 1.376 . S
C174 H197 0.930 1_556 S
C175 C174 1.376 . S
C175 C176 1.370 . S
C176 C175 1.370 . S
C176 C177 1.396 . S
C176 H198 0.929 . S
C177 C172 1.373 . S
C177 C176 1.396 . S
C177 H199 0.929 . S
C178 O188 1.240 . S
C178 O189 1.289 1_554 S
C179 O190 1.258 . S
C179 O191 1.256 . S
O180 La160 2.521 . S
O180 C162 1.261 . S
O181 La160 2.628 . S
O181 C162 1.243 . S
O182 La160 2.554 . S
O182 C169 1.240 . S
O183 La160 2.757 . S
O183 La161 2.482 . S
O183 C169 1.289 . S
O184 La160 2.470 . S
O184 C170 1.258 . S
O185 La161 2.503 . S
O185 C170 1.256 . S
O186 La161 2.521 . S
O186 C171 1.261 . S
O187 La161 2.628 . S
O187 C171 1.243 . S
O188 La161 2.554 1_554 S
O188 C178 1.240 . S
O189 La160 2.482 . S
O189 La161 2.757 . S
O189 C178 1.289 1_556 S
O190 La161 2.470 . S
O190 C179 1.258 . S
O191 La160 2.503 . S
O191 C179 1.256 . S
H192 C164 0.930 . S
H193 C165 0.930 . S
H194 C167 0.929 . S
H195 C168 0.929 . S
H196 C173 0.930 1_554 S
H197 C174 0.930 1_554 S
H198 C176 0.929 . S
H199 C177 0.929 . S
La200 C202 2.928 . S
La200 O220 2.521 1_554 S
La200 O221 2.628 . S
La200 O222 2.554 1_554 S
La200 O223 2.757 1_554 S
La200 O224 2.470 . S
La200 O229 2.482 . S
La200 O231 2.503 1_554 S
La201 C211 2.928 1_554 S
La201 O223 2.482 1_554 S
La201 O225 2.503 . S
La201 O226 2.521 . S
La201 O227 2.628 1_554 S
La201 O228 2.554 . S
La201 O229 2.757 . S
La201 O230 2.470 . S
C202 La200 2.928 . S
C202 C203 1.503 . S
C202 O220 1.261 1_554 S
C202 O221 1.243 . S
C203 C202 1.503 . S
C203 C204 1.394 . S
C203 C208 1.373 . S
C204 C203 1.394 . S
C204 C205 1.380 . S
C204 H232 0.930 1_554 S
C205 C204 1.380 . S
C205 C206 1.376 . S
C205 H233 0.930 1_544 S
C206 C205 1.376 . S
C206 C207 1.370 . S
C207 C206 1.370 . S
C207 C208 1.396 . S
C207 H234 0.929 . S
C208 C203 1.373 . S
C208 C207 1.396 . S
C208 H235 0.929 . S
C209 O222 1.240 . S
C209 O223 1.289 . S
C210 O224 1.258 . S
C210 O225 1.256 . S
C211 La201 2.928 1_556 S
C211 C212 1.503 . S
C211 O226 1.261 1_556 S
C211 O227 1.243 . S
C212 C211 1.503 . S
C212 C213 1.394 1_556 S
C212 C217 1.373 . S
C213 C212 1.394 1_554 S
C213 C214 1.380 . S
C213 H236 0.930 . S
C214 C213 1.380 . S
C214 C215 1.376 1_554 S
C214 H237 0.930 . S
C215 C214 1.376 1_556 S
C215 C216 1.370 . S
C216 C215 1.370 . S
C216 C217 1.396 . S
C216 H238 0.929 . S
C217 C212 1.373 . S
C217 C216 1.396 . S
C217 H239 0.929 . S
C218 O228 1.240 . S
C218 O229 1.289 . S
C219 O230 1.258 . S
C219 O231 1.256 1_554 S
O220 La200 2.521 1_556 S
O220 C202 1.261 1_556 S
O221 La200 2.628 . S
O221 C202 1.243 . S
O222 La200 2.554 1_556 S
O222 C209 1.240 . S
O223 La200 2.757 1_556 S
O223 La201 2.482 1_556 S
O223 C209 1.289 . S
O224 La200 2.470 . S
O224 C210 1.258 . S
O225 La201 2.503 . S
O225 C210 1.256 . S
O226 La201 2.521 . S
O226 C211 1.261 1_554 S
O227 La201 2.628 1_556 S
O227 C211 1.243 . S
O228 La201 2.554 . S
O228 C218 1.240 . S
O229 La200 2.482 . S
O229 La201 2.757 . S
O229 C218 1.289 . S
O230 La201 2.470 . S
O230 C219 1.258 . S
O231 La200 2.503 1_556 S
O231 C219 1.256 1_556 S
H232 C204 0.930 1_556 S
H233 C205 0.930 1_566 S
H234 C207 0.929 . S
H235 C208 0.929 . S
H236 C213 0.930 . S
H237 C214 0.930 . S
H238 C216 0.929 . S
H239 C217 0.929 . S
H240 C258 0.951 . S
H241 C260 0.951 . S
H242 C262 0.950 . S
H243 C263 0.950 . S
H244 C265 0.950 . S
H245 C268 0.950 . S
H246 C269 0.950 . S
H247 C271 0.950 . S
H248 C272 0.950 . S
H249 C273 0.951 . S
H250 C275 0.951 . S
H251 C277 0.950 . S
H252 C278 0.950 . S
H253 C280 0.950 . S
H254 C283 0.950 . S
H255 C284 0.950 . S
H256 C286 0.950 . S
H257 C287 0.950 . S
C258 H240 0.951 . S
C258 C259 1.366 . S
C258 C260 1.388 . S
C259 C258 1.366 . S
C259 C263 1.385 . S
C260 H241 0.951 . S
C260 C258 1.388 . S
C260 C261 1.366 . S
C261 C260 1.366 . S
C261 C262 1.414 . S
C261 C264 1.499 . S
C262 H242 0.950 . S
C262 C261 1.414 . S
C262 C263 1.374 . S
C263 H243 0.950 . S
C263 C259 1.385 . S
C263 C262 1.374 . S
C264 C261 1.499 . S
C264 C265 1.373 . S
C264 C266 1.389 . S
C265 H244 0.950 . S
C265 C264 1.373 . S
C265 C281 1.377 . S
C266 C264 1.389 . S
C266 C267 1.524 . S
C266 C280 1.377 . S
C267 C266 1.524 . S
C267 C268 1.397 . S
C267 C272 1.363 . S
C268 H245 0.950 . S
C268 C267 1.397 . S
C268 C269 1.334 . S
C269 H246 0.950 . S
C269 C268 1.334 . S
C269 C270 1.287 . S
C270 C269 1.287 . S
C270 C271 1.524 . S
C270 H289 0.913 . S
C271 H247 0.950 . S
C271 C270 1.524 . S
C271 C272 1.415 . S
C272 H248 0.950 . S
C272 C267 1.363 . S
C272 C271 1.415 . S
C273 H249 0.951 . S
C273 C274 1.366 . S
C273 C275 1.388 . S
C274 C273 1.366 . S
C274 C278 1.385 . S
C275 H250 0.951 . S
C275 C273 1.388 . S
C275 C276 1.366 . S
C276 C275 1.366 . S
C276 C277 1.414 . S
C276 C279 1.499 . S
C277 H251 0.950 . S
C277 C276 1.414 . S
C277 C278 1.374 . S
C278 H252 0.950 . S
C278 C274 1.385 . S
C278 C277 1.374 . S
C279 C276 1.499 . S
C279 C280 1.373 . S
C279 C281 1.389 . S
C280 H253 0.950 . S
C280 C266 1.377 . S
C280 C279 1.373 . S
C281 C265 1.377 . S
C281 C279 1.389 . S
C281 C282 1.524 . S
C282 C281 1.524 . S
C282 C283 1.397 . S
C282 C287 1.363 . S
C283 H254 0.950 . S
C283 C282 1.397 . S
C283 C284 1.334 . S
C284 H255 0.950 . S
C284 C283 1.334 . S
C284 C285 1.287 . S
C285 C284 1.287 . S
C285 C286 1.524 . S
C285 H288 0.999 . S
C286 H256 0.950 . S
C286 C285 1.524 . S
C286 C287 1.415 . S
C287 H257 0.950 . S
C287 C282 1.363 . S
C287 C286 1.415 . S
H288 C285 0.999 . S
H289 C270 0.913 . S
H290 C308 0.951 . S
H291 C310 0.951 . S
H292 C312 0.950 . S
H293 C313 0.950 . S
H294 C315 0.950 . S
H295 C318 0.950 . S
H296 C319 0.950 . S
H297 C321 0.950 . S
H298 C322 0.950 . S
H299 C323 0.951 . S
H300 C325 0.951 . S
H301 C327 0.950 . S
H302 C328 0.950 1_655 S
H303 C330 0.950 . S
H304 C333 0.950 . S
H305 C334 0.950 . S
H306 C336 0.950 . S
H307 C337 0.950 . S
C308 H290 0.951 . S
C308 C309 1.366 . S
C308 C310 1.388 . S
C309 C308 1.366 . S
C309 C313 1.385 . S
C310 H291 0.951 . S
C310 C308 1.388 . S
C310 C311 1.366 . S
C311 C310 1.366 . S
C311 C312 1.414 . S
C311 C314 1.499 . S
C312 H292 0.950 . S
C312 C311 1.414 . S
C312 C313 1.374 . S
C313 H293 0.950 . S
C313 C309 1.385 . S
C313 C312 1.374 . S
C314 C311 1.499 . S
C314 C315 1.373 . S
C314 C316 1.389 . S
C315 H294 0.950 . S
C315 C314 1.373 . S
C315 C331 1.377 . S
C316 C314 1.389 . S
C316 C317 1.524 . S
C316 C330 1.377 . S
C317 C316 1.524 . S
C317 C318 1.397 . S
C317 C322 1.363 . S
C318 H295 0.950 . S
C318 C317 1.397 . S
C318 C319 1.334 . S
C319 H296 0.950 . S
C319 C318 1.334 . S
C319 C320 1.287 . S
C320 C319 1.287 . S
C320 C321 1.524 . S
C320 H339 0.913 . S
C321 H297 0.950 . S
C321 C320 1.524 . S
C321 C322 1.415 . S
C322 H298 0.950 . S
C322 C317 1.363 . S
C322 C321 1.415 . S
C323 H299 0.951 . S
C323 C324 1.366 . S
C323 C325 1.388 . S
C324 C323 1.366 . S
C324 C328 1.385 . S
C325 H300 0.951 . S
C325 C323 1.388 . S
C325 C326 1.366 . S
C326 C325 1.366 . S
C326 C327 1.414 . S
C326 C329 1.499 . S
C327 H301 0.950 . S
C327 C326 1.414 . S
C327 C328 1.374 . S
C328 H302 0.950 1_455 S
C328 C324 1.385 . S
C328 C327 1.374 . S
C329 C326 1.499 . S
C329 C330 1.373 . S
C329 C331 1.389 . S
C330 H303 0.950 . S
C330 C316 1.377 . S
C330 C329 1.373 . S
C331 C315 1.377 . S
C331 C329 1.389 . S
C331 C332 1.524 . S
C332 C331 1.524 . S
C332 C333 1.397 . S
C332 C337 1.363 . S
C333 H304 0.950 . S
C333 C332 1.397 . S
C333 C334 1.334 . S
C334 H305 0.950 . S
C334 C333 1.334 . S
C334 C335 1.287 . S
C335 C334 1.287 . S
C335 C336 1.524 . S
C335 H338 0.999 . S
C336 H306 0.950 . S
C336 C335 1.524 . S
C336 C337 1.415 . S
C337 H307 0.950 . S
C337 C332 1.363 . S
C337 C336 1.415 . S
H338 C335 0.999 . S
H339 C320 0.913 . S
H340 C358 0.951 . S
H341 C360 0.951 . S
H342 C362 0.950 1_565 S
H343 C363 0.950 . S
H344 C365 0.950 . S
H345 C368 0.950 . S
H346 C369 0.950 . S
H347 C371 0.950 . S
H348 C372 0.950 . S
H349 C373 0.951 . S
H350 C375 0.951 . S
H351 C377 0.950 . S
H352 C378 0.950 . S
H353 C380 0.952 . S
H354 C383 0.950 . S
H355 C384 0.950 . S
H356 C386 0.950 . S
H357 C387 0.950 . S
C358 H340 0.951 . S
C358 C359 1.366 . S
C358 C360 1.388 . S
C359 C358 1.366 . S
C359 C363 1.385 . S
C360 H341 0.951 . S
C360 C358 1.388 . S
C360 C361 1.366 . S
C361 C360 1.366 . S
C361 C362 1.414 . S
C361 C364 1.499 . S
C362 H342 0.950 1_545 S
C362 C361 1.414 . S
C362 C363 1.374 . S
C363 H343 0.950 . S
C363 C359 1.385 . S
C363 C362 1.374 . S
C364 C361 1.499 . S
C364 C365 1.373 1_545 S
C364 C366 1.389 . S
C365 H344 0.950 . S
C365 C364 1.373 1_565 S
C365 C381 1.377 . S
C366 C364 1.389 . S
C366 C367 1.524 . S
C366 C380 1.377 1_545 S
C367 C366 1.524 . S
C367 C368 1.397 . S
C367 C372 1.363 . S
C368 H345 0.950 . S
C368 C367 1.397 . S
C368 C369 1.334 . S
C369 H346 0.950 . S
C369 C368 1.334 . S
C369 C370 1.287 . S
C370 C369 1.287 . S
C370 C371 1.524 . S
C370 H389 0.913 . S
C371 H347 0.950 . S
C371 C370 1.524 . S
C371 C372 1.415 . S
C372 H348 0.950 . S
C372 C367 1.363 . S
C372 C371 1.415 . S
C373 H349 0.951 . S
C373 C374 1.366 . S
C373 C375 1.388 . S
C374 C373 1.366 . S
C374 C378 1.385 . S
C375 H350 0.951 . S
C375 C373 1.388 . S
C375 C376 1.366 . S
C376 C375 1.366 . S
C376 C377 1.414 . S
C376 C379 1.499 . S
C377 H351 0.950 . S
C377 C376 1.414 . S
C377 C378 1.374 . S
C378 H352 0.950 . S
C378 C374 1.385 . S
C378 C377 1.374 . S
C379 C376 1.499 . S
C379 C380 1.373 . S
C379 C381 1.389 . S
C380 H353 0.952 . S
C380 C366 1.377 1_565 S
C380 C379 1.373 . S
C381 C365 1.377 . S
C381 C379 1.389 . S
C381 C382 1.524 . S
C382 C381 1.524 . S
C382 C383 1.397 . S
C382 C387 1.363 . S
C383 H354 0.950 . S
C383 C382 1.397 . S
C383 C384 1.334 . S
C384 H355 0.950 . S
C384 C383 1.334 . S
C384 C385 1.287 . S
C385 C384 1.287 . S
C385 C386 1.524 . S
C385 H388 0.999 . S
C386 H356 0.950 . S
C386 C385 1.524 . S
C386 C387 1.415 . S
C387 H357 0.950 . S
C387 C382 1.363 . S
C387 C386 1.415 . S
H388 C385 0.999 . S
H389 C370 0.913 . S
H390 C408 0.951 . S
H391 C410 0.951 . S
H392 C412 0.950 . S
H393 C413 0.950 . S
H394 C415 0.950 . S
H395 C418 0.950 . S
H396 C419 0.950 . S
H397 C421 0.950 . S
H398 C422 0.950 . S
H399 C423 0.951 . S
H400 C425 0.951 . S
H401 C427 0.950 . S
H402 C428 0.950 . S
H403 C430 0.950 . S
H404 C433 0.950 . S
H405 C434 0.950 . S
H406 C436 0.950 . S
H407 C437 0.950 . S
C408 H390 0.951 . S
C408 C409 1.366 . S
C408 C410 1.388 . S
C409 C408 1.366 . S
C409 C413 1.385 . S
C410 H391 0.951 . S
C410 C408 1.388 . S
C410 C411 1.366 . S
C411 C410 1.366 . S
C411 C412 1.414 . S
C411 C414 1.499 . S
C412 H392 0.950 . S
C412 C411 1.414 . S
C412 C413 1.374 . S
C413 H393 0.950 . S
C413 C409 1.385 . S
C413 C412 1.374 . S
C414 C411 1.499 . S
C414 C415 1.373 . S
C414 C416 1.389 . S
C415 H394 0.950 . S
C415 C414 1.373 . S
C415 C431 1.377 . S
C416 C414 1.389 . S
C416 C417 1.524 . S
C416 C430 1.377 . S
C417 C416 1.524 . S
C417 C418 1.397 . S
C417 C422 1.363 . S
C418 H395 0.950 . S
C418 C417 1.397 . S
C418 C419 1.334 . S
C419 H396 0.950 . S
C419 C418 1.334 . S
C419 C420 1.287 . S
C420 C419 1.287 . S
C420 C421 1.524 . S
C420 H439 0.913 . S
C421 H397 0.950 . S
C421 C420 1.524 . S
C421 C422 1.415 . S
C422 H398 0.950 . S
C422 C417 1.363 . S
C422 C421 1.415 . S
C423 H399 0.951 . S
C423 C424 1.366 . S
C423 C425 1.388 . S
C424 C423 1.366 . S
C424 C428 1.385 . S
C425 H400 0.951 . S
C425 C423 1.388 . S
C425 C426 1.366 . S
C426 C425 1.366 . S
C426 C427 1.414 . S
C426 C429 1.499 . S
C427 H401 0.950 . S
C427 C426 1.414 . S
C427 C428 1.374 . S
C428 H402 0.950 . S
C428 C424 1.385 . S
C428 C427 1.374 . S
C429 C426 1.499 . S
C429 C430 1.373 . S
C429 C431 1.389 . S
C430 H403 0.950 . S
C430 C416 1.377 . S
C430 C429 1.373 . S
C431 C415 1.377 . S
C431 C429 1.389 . S
C431 C432 1.524 . S
C432 C431 1.524 . S
C432 C433 1.397 . S
C432 C437 1.363 . S
C433 H404 0.950 . S
C433 C432 1.397 . S
C433 C434 1.334 . S
C434 H405 0.950 . S
C434 C433 1.334 . S
C434 C435 1.287 . S
C435 C434 1.287 . S
C435 C436 1.524 . S
C435 H438 0.999 . S
C436 H406 0.950 . S
C436 C435 1.524 . S
C436 C437 1.415 . S
C437 H407 0.950 . S
C437 C432 1.363 . S
C437 C436 1.415 . S
H438 C435 0.999 . S
H439 C420 0.913 . S
H440 C458 0.951 . S
H441 C460 0.951 . S
H442 C462 0.950 . S
H443 C463 0.950 . S
H444 C465 0.950 . S
H445 C468 0.950 . S
H446 C469 0.950 . S
H447 C471 0.950 . S
H448 C472 0.950 . S
H449 C473 0.951 . S
H450 C475 0.951 . S
H451 C477 0.950 . S
H452 C478 0.950 . S
H453 C480 0.950 . S
H454 C483 0.950 . S
H455 C484 0.950 . S
H456 C486 0.950 . S
H457 C487 0.950 . S
C458 H440 0.951 . S
C458 C459 1.366 . S
C458 C460 1.388 . S
C459 C458 1.366 . S
C459 C463 1.385 . S
C460 H441 0.951 . S
C460 C458 1.388 . S
C460 C461 1.366 . S
C461 C460 1.366 . S
C461 C462 1.414 . S
C461 C464 1.499 . S
C462 H442 0.950 . S
C462 C461 1.414 . S
C462 C463 1.374 . S
C463 H443 0.950 . S
C463 C459 1.385 . S
C463 C462 1.374 . S
C464 C461 1.499 . S
C464 C465 1.373 1_455 S
C464 C466 1.389 1_455 S
C465 H444 0.950 . S
C465 C464 1.373 1_655 S
C465 C481 1.377 . S
C466 C464 1.389 1_655 S
C466 C467 1.524 1_655 S
C466 C480 1.377 . S
C467 C466 1.524 1_455 S
C467 C468 1.397 . S
C467 C472 1.363 1_455 S
C468 H445 0.950 . S
C468 C467 1.397 . S
C468 C469 1.334 . S
C469 H446 0.950 . S
C469 C468 1.334 . S
C469 C470 1.287 . S
C470 C469 1.287 . S
C470 C471 1.524 . S
C470 H489 0.913 . S
C471 H447 0.950 . S
C471 C470 1.524 . S
C471 C472 1.415 1_455 S
C472 H448 0.950 . S
C472 C467 1.363 1_655 S
C472 C471 1.415 1_655 S
C473 H449 0.951 . S
C473 C474 1.366 . S
C473 C475 1.388 . S
C474 C473 1.366 . S
C474 C478 1.385 . S
C475 H450 0.951 . S
C475 C473 1.388 . S
C475 C476 1.366 . S
C476 C475 1.366 . S
C476 C477 1.414 . S
C476 C479 1.499 . S
C477 H451 0.950 . S
C477 C476 1.414 . S
C477 C478 1.374 . S
C478 H452 0.950 . S
C478 C474 1.385 . S
C478 C477 1.374 . S
C479 C476 1.499 . S
C479 C480 1.373 . S
C479 C481 1.389 . S
C480 H453 0.950 . S
C480 C466 1.377 . S
C480 C479 1.373 . S
C481 C465 1.377 . S
C481 C479 1.389 . S
C481 C482 1.524 . S
C482 C481 1.524 . S
C482 C483 1.397 . S
C482 C487 1.363 . S
C483 H454 0.950 . S
C483 C482 1.397 . S
C483 C484 1.334 . S
C484 H455 0.950 . S
C484 C483 1.334 . S
C484 C485 1.287 . S
C485 C484 1.287 . S
C485 C486 1.524 . S
C485 H488 0.999 . S
C486 H456 0.950 . S
C486 C485 1.524 . S
C486 C487 1.415 . S
C487 H457 0.950 . S
C487 C482 1.363 . S
C487 C486 1.415 . S
H488 C485 0.999 . S
H489 C470 0.913 . S
H490 C508 0.951 . S
H491 C510 0.951 . S
H492 C512 0.950 . S
H493 C513 0.950 . S
H494 C515 0.950 . S
H495 C518 0.950 . S
H496 C519 0.950 . S
H497 C521 0.950 . S
H498 C522 0.950 . S
H499 C523 0.951 . S
H500 C525 0.951 . S
H501 C527 0.950 . S
H502 C528 0.950 . S
H503 C530 0.950 . S
H504 C533 0.950 . S
H505 C534 0.950 . S
H506 C536 0.950 . S
H507 C537 0.950 . S
C508 H490 0.951 . S
C508 C509 1.366 . S
C508 C510 1.388 . S
C509 C508 1.366 . S
C509 C513 1.385 . S
C510 H491 0.951 . S
C510 C508 1.388 . S
C510 C511 1.366 . S
C511 C510 1.366 . S
C511 C512 1.414 . S
C511 C514 1.499 . S
C512 H492 0.950 . S
C512 C511 1.414 . S
C512 C513 1.374 . S
C513 H493 0.950 . S
C513 C509 1.385 . S
C513 C512 1.374 . S
C514 C511 1.499 . S
C514 C515 1.373 . S
C514 C516 1.389 . S
C515 H494 0.950 . S
C515 C514 1.373 . S
C515 C531 1.377 . S
C516 C514 1.389 . S
C516 C517 1.524 . S
C516 C530 1.377 . S
C517 C516 1.524 . S
C517 C518 1.397 . S
C517 C522 1.363 . S
C518 H495 0.950 . S
C518 C517 1.397 . S
C518 C519 1.334 . S
C519 H496 0.950 . S
C519 C518 1.334 . S
C519 C520 1.287 . S
C520 C519 1.287 . S
C520 C521 1.524 . S
C520 H539 0.913 . S
C521 H497 0.950 . S
C521 C520 1.524 . S
C521 C522 1.415 . S
C522 H498 0.950 . S
C522 C517 1.363 . S
C522 C521 1.415 . S
C523 H499 0.951 . S
C523 C524 1.366 . S
C523 C525 1.388 . S
C524 C523 1.366 . S
C524 C528 1.385 . S
C525 H500 0.951 . S
C525 C523 1.388 . S
C525 C526 1.366 . S
C526 C525 1.366 . S
C526 C527 1.414 . S
C526 C529 1.499 . S
C527 H501 0.950 . S
C527 C526 1.414 . S
C527 C528 1.374 . S
C528 H502 0.950 . S
C528 C524 1.385 . S
C528 C527 1.374 . S
C529 C526 1.499 . S
C529 C530 1.373 . S
C529 C531 1.389 . S
C530 H503 0.950 . S
C530 C516 1.377 . S
C530 C529 1.373 . S
C531 C515 1.377 . S
C531 C529 1.389 . S
C531 C532 1.524 . S
C532 C531 1.524 . S
C532 C533 1.397 1_565 S
C532 C537 1.363 . S
C533 H504 0.950 . S
C533 C532 1.397 1_545 S
C533 C534 1.334 . S
C534 H505 0.950 . S
C534 C533 1.334 . S
C534 C535 1.287 . S
C535 C534 1.287 . S
C535 C536 1.524 1_545 S
C535 H538 0.999 . S
C536 H506 0.950 . S
C536 C535 1.524 1_565 S
C536 C537 1.415 . S
C537 H507 0.950 . S
C537 C532 1.363 . S
C537 C536 1.415 . S
H538 C535 0.999 . S
H539 C520 0.913 . S
H540 C558 0.951 . S
H541 C560 0.951 . S
H542 C562 0.950 . S
H543 C563 0.950 . S
H544 C565 0.950 . S
H545 C568 0.950 . S
H546 C569 0.950 . S
H547 C571 0.950 . S
H548 C572 0.950 . S
H549 C573 0.951 . S
H550 C575 0.951 . S
H551 C577 0.950 . S
H552 C578 0.950 . S
H553 C580 0.950 . S
H554 C583 0.950 . S
H555 C584 0.950 . S
H556 C586 0.950 . S
H557 C587 0.950 . S
C558 H540 0.951 . S
C558 C559 1.366 . S
C558 C560 1.388 . S
C559 C558 1.366 . S
C559 C563 1.385 . S
C560 H541 0.951 . S
C560 C558 1.388 . S
C560 C561 1.366 . S
C561 C560 1.366 . S
C561 C562 1.414 . S
C561 C564 1.499 . S
C562 H542 0.950 . S
C562 C561 1.414 . S
C562 C563 1.374 . S
C563 H543 0.950 . S
C563 C559 1.385 . S
C563 C562 1.374 . S
C564 C561 1.499 . S
C564 C565 1.373 . S
C564 C566 1.389 . S
C565 H544 0.950 . S
C565 C564 1.373 . S
C565 C581 1.377 . S
C566 C564 1.389 . S
C566 C567 1.524 1_556 S
C566 C580 1.377 . S
C567 C566 1.524 1_554 S
C567 C568 1.397 . S
C567 C572 1.363 . S
C568 H545 0.950 . S
C568 C567 1.397 . S
C568 C569 1.334 . S
C569 H546 0.950 . S
C569 C568 1.334 . S
C569 C570 1.287 . S
C570 C569 1.287 . S
C570 C571 1.524 . S
C570 H589 0.913 . S
C571 H547 0.950 . S
C571 C570 1.524 . S
C571 C572 1.415 . S
C572 H548 0.950 . S
C572 C567 1.363 . S
C572 C571 1.415 . S
C573 H549 0.951 . S
C573 C574 1.366 . S
C573 C575 1.388 . S
C574 C573 1.366 . S
C574 C578 1.385 . S
C575 H550 0.951 . S
C575 C573 1.388 . S
C575 C576 1.366 . S
C576 C575 1.366 . S
C576 C577 1.414 . S
C576 C579 1.499 . S
C577 H551 0.950 . S
C577 C576 1.414 . S
C577 C578 1.374 . S
C578 H552 0.950 . S
C578 C574 1.385 . S
C578 C577 1.374 . S
C579 C576 1.499 . S
C579 C580 1.373 . S
C579 C581 1.389 . S
C580 H553 0.950 . S
C580 C566 1.377 . S
C580 C579 1.373 . S
C581 C565 1.377 . S
C581 C579 1.389 . S
C581 C582 1.524 . S
C582 C581 1.524 . S
C582 C583 1.397 . S
C582 C587 1.363 . S
C583 H554 0.950 . S
C583 C582 1.397 . S
C583 C584 1.334 . S
C584 H555 0.950 . S
C584 C583 1.334 . S
C584 C585 1.287 . S
C585 C584 1.287 . S
C585 C586 1.524 . S
C585 H588 0.999 . S
C586 H556 0.950 . S
C586 C585 1.524 . S
C586 C587 1.415 . S
C587 H557 0.950 . S
C587 C582 1.363 . S
C587 C586 1.415 . S
H588 C585 0.999 . S
H589 C570 0.913 . S
H590 C608 0.951 . S
H591 C610 0.951 . S
H592 C612 0.950 1_554 S
H593 C613 0.950 . S
H594 C615 0.950 . S
H595 C618 0.950 . S
H596 C619 0.950 . S
H597 C621 0.950 . S
H598 C622 0.950 1_556 S
H599 C623 0.951 . S
H600 C625 0.951 . S
H601 C627 0.950 . S
H602 C628 0.950 . S
H603 C630 0.950 . S
H604 C633 0.950 . S
H605 C634 0.950 . S
H606 C636 0.950 . S
H607 C637 0.950 . S
C608 H590 0.951 . S
C608 C609 1.366 . S
C608 C610 1.388 . S
C609 C608 1.366 . S
C609 C613 1.384 1_556 S
C610 H591 0.951 . S
C610 C608 1.388 . S
C610 C611 1.366 . S
C611 C610 1.366 . S
C611 C612 1.414 . S
C611 C614 1.499 . S
C612 H592 0.950 1_556 S
C612 C611 1.414 . S
C612 C613 1.374 1_556 S
C613 H593 0.950 . S
C613 C609 1.384 1_554 S
C613 C612 1.374 1_554 S
C614 C611 1.499 . S
C614 C615 1.373 . S
C614 C616 1.389 . S
C615 H594 0.950 . S
C615 C614 1.373 . S
C615 C631 1.377 . S
C616 C614 1.389 . S
C616 C617 1.524 1_556 S
C616 C630 1.377 . S
C617 C616 1.524 1_554 S
C617 C618 1.397 . S
C617 C622 1.363 . S
C618 H595 0.950 . S
C618 C617 1.397 . S
C618 C619 1.334 . S
C619 H596 0.950 . S
C619 C618 1.334 . S
C619 C620 1.287 . S
C620 C619 1.287 . S
C620 C621 1.524 . S
C620 H639 0.913 . S
C621 H597 0.950 . S
C621 C620 1.524 . S
C621 C622 1.415 . S
C622 H598 0.950 1_554 S
C622 C617 1.363 . S
C622 C621 1.415 . S
C623 H599 0.951 . S
C623 C624 1.366 . S
C623 C625 1.388 . S
C624 C623 1.366 . S
C624 C628 1.385 . S
C625 H600 0.951 . S
C625 C623 1.388 . S
C625 C626 1.366 . S
C626 C625 1.366 . S
C626 C627 1.414 . S
C626 C629 1.499 . S
C627 H601 0.950 . S
C627 C626 1.414 . S
C627 C628 1.374 . S
C628 H602 0.950 . S
C628 C624 1.385 . S
C628 C627 1.374 . S
C629 C626 1.499 . S
C629 C630 1.373 . S
C629 C631 1.389 . S
C630 H603 0.950 . S
C630 C616 1.377 . S
C630 C629 1.373 . S
C631 C615 1.377 . S
C631 C629 1.389 . S
C631 C632 1.524 . S
C632 C631 1.524 . S
C632 C633 1.397 . S
C632 C637 1.363 . S
C633 H604 0.950 . S
C633 C632 1.397 . S
C633 C634 1.334 . S
C634 H605 0.950 . S
C634 C633 1.334 . S
C634 C635 1.287 . S
C635 C634 1.287 . S
C635 C636 1.524 . S
C635 H638 0.999 . S
C636 H606 0.950 . S
C636 C635 1.524 . S
C636 C637 1.415 . S
C637 H607 0.950 . S
C637 C632 1.363 . S
C637 C636 1.415 . S
H638 C635 0.999 . S
H639 C620 0.913 . S
H640 C658 0.951 . S
H641 C660 0.951 . S
H642 C662 0.950 . S
H643 C663 0.950 . S
H644 C665 0.950 . S
H645 C668 0.950 . S
H646 C669 0.950 . S
H647 C671 0.950 . S
H648 C672 0.950 . S
H649 C673 0.951 . S
H650 C675 0.951 . S
H651 C677 0.950 . S
H652 C678 0.950 . S
H653 C680 0.950 . S
H654 C683 0.950 1_556 S
H655 C684 0.950 . S
H656 C686 0.950 . S
H657 C687 0.950 . S
C658 H640 0.951 . S
C658 C659 1.366 . S
C658 C660 1.388 . S
C659 C658 1.366 . S
C659 C663 1.385 . S
C660 H641 0.951 . S
C660 C658 1.388 . S
C660 C661 1.366 . S
C661 C660 1.366 . S
C661 C662 1.414 . S
C661 C664 1.499 . S
C662 H642 0.950 . S
C662 C661 1.414 . S
C662 C663 1.374 . S
C663 H643 0.950 . S
C663 C659 1.385 . S
C663 C662 1.374 . S
C664 C661 1.499 . S
C664 C665 1.373 . S
C664 C666 1.389 . S
C665 H644 0.950 . S
C665 C664 1.373 . S
C665 C681 1.377 . S
C666 C664 1.389 . S
C666 C667 1.524 . S
C666 C680 1.377 . S
C667 C666 1.524 . S
C667 C668 1.397 . S
C667 C672 1.363 . S
C668 H645 0.950 . S
C668 C667 1.397 . S
C668 C669 1.334 . S
C669 H646 0.950 . S
C669 C668 1.334 . S
C669 C670 1.287 . S
C670 C669 1.287 . S
C670 C671 1.524 . S
C670 H689 0.913 . S
C671 H647 0.950 . S
C671 C670 1.524 . S
C671 C672 1.415 . S
C672 H648 0.950 . S
C672 C667 1.363 . S
C672 C671 1.415 . S
C673 H649 0.951 . S
C673 C674 1.366 . S
C673 C675 1.388 . S
C674 C673 1.366 . S
C674 C678 1.385 . S
C675 H650 0.951 . S
C675 C673 1.388 . S
C675 C676 1.366 . S
C676 C675 1.366 . S
C676 C677 1.414 . S
C676 C679 1.499 . S
C677 H651 0.950 . S
C677 C676 1.414 . S
C677 C678 1.374 . S
C678 H652 0.950 . S
C678 C674 1.385 . S
C678 C677 1.374 . S
C679 C676 1.499 . S
C679 C680 1.373 . S
C679 C681 1.389 . S
C680 H653 0.950 . S
C680 C666 1.377 . S
C680 C679 1.373 . S
C681 C665 1.377 . S
C681 C679 1.389 . S
C681 C682 1.524 . S
C682 C681 1.524 . S
C682 C683 1.397 1_556 S
C682 C687 1.363 1_556 S
C683 H654 0.950 1_554 S
C683 C682 1.397 1_554 S
C683 C684 1.334 . S
C684 H655 0.950 . S
C684 C683 1.334 . S
C684 C685 1.287 . S
C685 C684 1.287 . S
C685 C686 1.524 . S
C685 H688 0.999 . S
C686 H656 0.950 . S
C686 C685 1.524 . S
C686 C687 1.415 . S
C687 H657 0.950 . S
C687 C682 1.363 1_554 S
C687 C686 1.415 . S
H688 C685 0.999 . S
H689 C670 0.913 . S
H690 C708 0.951 . S
H691 C710 0.951 . S
H692 C712 0.950 1_554 S
H693 C713 0.950 . S
H694 C715 0.950 . S
H695 C718 0.950 1_554 S
H696 C719 0.950 1_554 S
H697 C721 0.950 . S
H698 C722 0.950 . S
H699 C723 0.951 . S
H700 C725 0.951 . S
H701 C727 0.950 . S
H702 C728 0.950 . S
H703 C730 0.950 . S
H704 C733 0.950 . S
H705 C734 0.950 . S
H706 C736 0.950 . S
H707 C737 0.950 . S
C708 H690 0.951 . S
C708 C709 1.366 . S
C708 C710 1.388 . S
C709 C708 1.366 . S
C709 C713 1.385 . S
C710 H691 0.951 . S
C710 C708 1.388 . S
C710 C711 1.366 . S
C711 C710 1.366 . S
C711 C712 1.414 . S
C711 C714 1.499 . S
C712 H692 0.950 1_556 S
C712 C711 1.414 . S
C712 C713 1.374 . S
C713 H693 0.950 . S
C713 C709 1.385 . S
C713 C712 1.374 . S
C714 C711 1.499 . S
C714 C715 1.373 . S
C714 C716 1.389 . S
C715 H694 0.950 . S
C715 C714 1.373 . S
C715 C731 1.377 . S
C716 C714 1.389 . S
C716 C717 1.524 . S
C716 C730 1.377 . S
C717 C716 1.524 . S
C717 C718 1.397 . S
C717 C722 1.363 . S
C718 H695 0.950 1_556 S
C718 C717 1.397 . S
C718 C719 1.334 . S
C719 H696 0.950 1_556 S
C719 C718 1.334 . S
C719 C720 1.287 . S
C720 C719 1.287 . S
C720 C721 1.524 . S
C720 H739 0.913 . S
C721 H697 0.950 . S
C721 C720 1.524 . S
C721 C722 1.415 . S
C722 H698 0.950 . S
C722 C717 1.363 . S
C722 C721 1.415 . S
C723 H699 0.951 . S
C723 C724 1.366 . S
C723 C725 1.388 . S
C724 C723 1.366 . S
C724 C728 1.385 1_554 S
C725 H700 0.951 . S
C725 C723 1.388 . S
C725 C726 1.366 1_554 S
C726 C725 1.366 1_556 S
C726 C727 1.414 . S
C726 C729 1.499 . S
C727 H701 0.950 . S
C727 C726 1.414 . S
C727 C728 1.374 . S
C728 H702 0.950 . S
C728 C724 1.385 1_556 S
C728 C727 1.374 . S
C729 C726 1.499 . S
C729 C730 1.373 . S
C729 C731 1.389 . S
C730 H703 0.950 . S
C730 C716 1.377 . S
C730 C729 1.373 . S
C731 C715 1.377 . S
C731 C729 1.389 . S
C731 C732 1.524 . S
C732 C731 1.524 . S
C732 C733 1.397 . S
C732 C737 1.363 1_556 S
C733 H704 0.950 . S
C733 C732 1.397 . S
C733 C734 1.334 . S
C734 H705 0.950 . S
C734 C733 1.334 . S
C734 C735 1.287 . S
C735 C734 1.287 . S
C735 C736 1.524 1_556 S
C735 H738 0.999 . S
C736 H706 0.950 . S
C736 C735 1.524 1_554 S
C736 C737 1.415 . S
C737 H707 0.950 . S
C737 C732 1.363 1_554 S
C737 C736 1.415 . S
H738 C735 0.999 . S
H739 C720 0.913 . S
H740 C758 0.951 . S
H741 C760 0.951 . S
H742 C762 0.950 . S
H743 C763 0.950 . S
H744 C765 0.950 . S
H745 C768 0.950 . S
H746 C769 0.950 . S
H747 C771 0.950 . S
H748 C772 0.950 . S
H749 C773 0.951 . S
H750 C775 0.951 . S
H751 C777 0.950 . S
H752 C778 0.950 . S
H753 C780 0.950 . S
H754 C783 0.950 . S
H755 C784 0.950 . S
H756 C786 0.950 . S
H757 C787 0.950 . S
C758 H740 0.951 . S
C758 C759 1.366 . S
C758 C760 1.388 . S
C759 C758 1.366 . S
C759 C763 1.385 . S
C760 H741 0.951 . S
C760 C758 1.388 . S
C760 C761 1.366 . S
C761 C760 1.366 . S
C761 C762 1.414 . S
C761 C764 1.499 . S
C762 H742 0.950 . S
C762 C761 1.414 . S
C762 C763 1.374 . S
C763 H743 0.950 . S
C763 C759 1.385 . S
C763 C762 1.374 . S
C764 C761 1.499 . S
C764 C765 1.373 . S
C764 C766 1.389 1_556 S
C765 H744 0.950 . S
C765 C764 1.373 . S
C765 C781 1.377 . S
C766 C764 1.389 1_554 S
C766 C767 1.524 . S
C766 C780 1.377 . S
C767 C766 1.524 . S
C767 C768 1.397 . S
C767 C772 1.363 . S
C768 H745 0.950 . S
C768 C767 1.397 . S
C768 C769 1.334 . S
C769 H746 0.950 . S
C769 C768 1.334 . S
C769 C770 1.287 . S
C770 C769 1.287 . S
C770 C771 1.524 . S
C770 H789 0.913 . S
C771 H747 0.950 . S
C771 C770 1.524 . S
C771 C772 1.415 . S
C772 H748 0.950 . S
C772 C767 1.363 . S
C772 C771 1.415 . S
C773 H749 0.951 . S
C773 C774 1.366 . S
C773 C775 1.388 . S
C774 C773 1.366 . S
C774 C778 1.385 . S
C775 H750 0.951 . S
C775 C773 1.388 . S
C775 C776 1.366 . S
C776 C775 1.366 . S
C776 C777 1.414 . S
C776 C779 1.499 . S
C777 H751 0.950 . S
C777 C776 1.414 . S
C777 C778 1.374 . S
C778 H752 0.950 . S
C778 C774 1.385 . S
C778 C777 1.374 . S
C779 C776 1.499 . S
C779 C780 1.373 1_556 S
C779 C781 1.389 . S
C780 H753 0.950 . S
C780 C766 1.377 . S
C780 C779 1.373 1_554 S
C781 C765 1.377 . S
C781 C779 1.389 . S
C781 C782 1.524 . S
C782 C781 1.524 . S
C782 C783 1.397 . S
C782 C787 1.363 . S
C783 H754 0.950 . S
C783 C782 1.397 . S
C783 C784 1.334 . S
C784 H755 0.950 . S
C784 C783 1.334 . S
C784 C785 1.287 . S
C785 C784 1.287 . S
C785 C786 1.524 . S
C785 H788 0.999 . S
C786 H756 0.950 . S
C786 C785 1.524 . S
C786 C787 1.415 . S
C787 H757 0.950 . S
C787 C782 1.363 . S
C787 C786 1.415 . S
H788 C785 0.999 . S
H789 C770 0.913 . S
H790 C808 0.951 . S
H791 C810 0.951 . S
H792 C812 0.950 1_554 S
H793 C813 0.950 1_554 S
H794 C815 0.950 . S
H795 C818 0.950 . S
H796 C819 0.950 . S
H797 C821 0.950 1_556 S
H798 C822 0.950 . S
H799 C823 0.951 1_554 S
H800 C825 0.951 1_554 S
H801 C827 0.950 . S
H802 C828 0.950 . S
H803 C830 0.950 . S
H804 C833 0.950 . S
H805 C834 0.950 . S
H806 C836 0.950 . S
H807 C837 0.950 . S
C808 H790 0.951 . S
C808 C809 1.366 . S
C808 C810 1.388 . S
C809 C808 1.366 . S
C809 C813 1.385 . S
C810 H791 0.951 . S
C810 C808 1.388 . S
C810 C811 1.366 . S
C811 C810 1.366 . S
C811 C812 1.414 . S
C811 C814 1.499 . S
C812 H792 0.950 1_556 S
C812 C811 1.414 . S
C812 C813 1.374 . S
C813 H793 0.950 1_556 S
C813 C809 1.385 . S
C813 C812 1.374 . S
C814 C811 1.499 . S
C814 C815 1.373 . S
C814 C816 1.389 . S
C815 H794 0.950 . S
C815 C814 1.373 . S
C815 C831 1.377 . S
C816 C814 1.389 . S
C816 C817 1.524 1_556 S
C816 C830 1.377 . S
C817 C816 1.524 1_554 S
C817 C818 1.397 . S
C817 C822 1.363 1_554 S
C818 H795 0.950 . S
C818 C817 1.397 . S
C818 C819 1.334 . S
C819 H796 0.950 . S
C819 C818 1.334 . S
C819 C820 1.287 . S
C820 C819 1.287 . S
C820 C821 1.524 . S
C820 H839 0.913 . S
C821 H797 0.950 1_554 S
C821 C820 1.524 . S
C821 C822 1.415 1_554 S
C822 H798 0.950 . S
C822 C817 1.363 1_556 S
C822 C821 1.415 1_556 S
C823 H799 0.951 1_556 S
C823 C824 1.366 . S
C823 C825 1.388 . S
C824 C823 1.366 . S
C824 C828 1.385 . S
C825 H800 0.951 1_556 S
C825 C823 1.388 . S
C825 C826 1.366 . S
C826 C825 1.366 . S
C826 C827 1.414 . S
C826 C829 1.499 . S
C827 H801 0.950 . S
C827 C826 1.414 . S
C827 C828 1.374 . S
C828 H802 0.950 . S
C828 C824 1.385 . S
C828 C827 1.374 . S
C829 C826 1.499 . S
C829 C830 1.373 . S
C829 C831 1.389 . S
C830 H803 0.950 . S
C830 C816 1.377 . S
C830 C829 1.373 . S
C831 C815 1.377 . S
C831 C829 1.389 . S
C831 C832 1.524 . S
C832 C831 1.524 . S
C832 C833 1.397 . S
C832 C837 1.363 . S
C833 H804 0.950 . S
C833 C832 1.397 . S
C833 C834 1.334 . S
C834 H805 0.950 . S
C834 C833 1.334 . S
C834 C835 1.287 . S
C835 C834 1.287 . S
C835 C836 1.524 . S
C835 H838 0.999 . S
C836 H806 0.950 . S
C836 C835 1.524 . S
C836 C837 1.415 . S
C837 H807 0.950 . S
C837 C832 1.363 . S
C837 C836 1.415 . S
H838 C835 0.999 . S
H839 C820 0.913 . S
H840 C858 0.951 . S
H841 C860 0.951 . S
H842 C862 0.950 . S
H843 C863 0.950 . S
H844 C865 0.950 . S
H845 C868 0.950 . S
H846 C869 0.950 . S
H847 C871 0.950 . S
H848 C872 0.950 . S
H849 C873 0.951 . S
H850 C875 0.951 . S
H851 C877 0.950 . S
H852 C878 0.950 . S
H853 C880 0.950 . S
H854 C883 0.950 . S
H855 C884 0.950 . S
H856 C886 0.950 . S
H857 C887 0.950 . S
C858 H840 0.951 . S
C858 C859 1.366 . S
C858 C860 1.388 . S
C859 C858 1.366 . S
C859 C863 1.385 . S
C860 H841 0.951 . S
C860 C858 1.388 . S
C860 C861 1.366 . S
C861 C860 1.366 . S
C861 C862 1.414 . S
C861 C864 1.499 . S
C862 H842 0.950 . S
C862 C861 1.414 . S
C862 C863 1.374 . S
C863 H843 0.950 . S
C863 C859 1.385 . S
C863 C862 1.374 . S
C864 C861 1.499 . S
C864 C865 1.373 . S
C864 C866 1.389 . S
C865 H844 0.950 . S
C865 C864 1.373 . S
C865 C881 1.377 . S
C866 C864 1.389 . S
C866 C867 1.524 . S
C866 C880 1.377 . S
C867 C866 1.524 . S
C867 C868 1.397 . S
C867 C872 1.363 . S
C868 H845 0.950 . S
C868 C867 1.397 . S
C868 C869 1.334 . S
C869 H846 0.950 . S
C869 C868 1.334 . S
C869 C870 1.287 . S
C870 C869 1.287 . S
C870 C871 1.524 . S
C870 H889 0.913 . S
C871 H847 0.950 . S
C871 C870 1.524 . S
C871 C872 1.415 . S
C872 H848 0.950 . S
C872 C867 1.363 . S
C872 C871 1.415 . S
C873 H849 0.951 . S
C873 C874 1.366 . S
C873 C875 1.388 1_556 S
C874 C873 1.366 . S
C874 C878 1.385 . S
C875 H850 0.951 . S
C875 C873 1.388 1_554 S
C875 C876 1.366 . S
C876 C875 1.366 . S
C876 C877 1.414 . S
C876 C879 1.499 . S
C877 H851 0.950 . S
C877 C876 1.414 . S
C877 C878 1.374 1_554 S
C878 H852 0.950 . S
C878 C874 1.385 . S
C878 C877 1.374 1_556 S
C879 C876 1.499 . S
C879 C880 1.373 . S
C879 C881 1.389 . S
C880 H853 0.950 . S
C880 C866 1.377 . S
C880 C879 1.373 . S
C881 C865 1.377 . S
C881 C879 1.389 . S
C881 C882 1.524 . S
C882 C881 1.524 . S
C882 C883 1.397 . S
C882 C887 1.363 . S
C883 H854 0.950 . S
C883 C882 1.397 . S
C883 C884 1.334 . S
C884 H855 0.950 . S
C884 C883 1.334 . S
C884 C885 1.287 . S
C885 C884 1.287 . S
C885 C886 1.524 . S
C885 H888 0.999 . S
C886 H856 0.950 . S
C886 C885 1.524 . S
C886 C887 1.415 . S
C887 H857 0.950 . S
C887 C882 1.363 . S
C887 C886 1.415 . S
H888 C885 0.999 . S
H889 C870 0.913 . S
H890 C908 0.951 . S
H891 C910 0.951 . S
H892 C912 0.950 . S
H893 C913 0.950 . S
H894 C915 0.950 . S
H895 C918 0.950 . S
H896 C919 0.950 . S
H897 C921 0.950 . S
H898 C922 0.950 . S
H899 C923 0.951 . S
H900 C925 0.951 . S
H901 C927 0.950 . S
H902 C928 0.950 . S
H903 C930 0.950 . S
H904 C933 0.950 . S
H905 C934 0.950 . S
H906 C936 0.950 . S
H907 C937 0.950 . S
C908 H890 0.951 . S
C908 C909 1.366 . S
C908 C910 1.388 . S
C909 C908 1.366 . S
C909 C913 1.385 . S
C910 H891 0.951 . S
C910 C908 1.388 . S
C910 C911 1.366 . S
C911 C910 1.366 . S
C911 C912 1.414 . S
C911 C914 1.499 . S
C912 H892 0.950 . S
C912 C911 1.414 . S
C912 C913 1.374 . S
C913 H893 0.950 . S
C913 C909 1.385 . S
C913 C912 1.374 . S
C914 C911 1.499 . S
C914 C915 1.373 . S
C914 C916 1.389 . S
C915 H894 0.950 . S
C915 C914 1.373 . S
C915 C931 1.377 . S
C916 C914 1.389 . S
C916 C917 1.524 . S
C916 C930 1.377 . S
C917 C916 1.524 . S
C917 C918 1.397 . S
C917 C922 1.363 . S
C918 H895 0.950 . S
C918 C917 1.397 . S
C918 C919 1.334 . S
C919 H896 0.950 . S
C919 C918 1.334 . S
C919 C920 1.287 . S
C920 C919 1.287 . S
C920 C921 1.524 . S
C920 H939 0.913 . S
C921 H897 0.950 . S
C921 C920 1.524 . S
C921 C922 1.415 . S
C922 H898 0.950 . S
C922 C917 1.363 . S
C922 C921 1.415 . S
C923 H899 0.951 . S
C923 C924 1.366 . S
C923 C925 1.388 . S
C924 C923 1.366 . S
C924 C928 1.385 . S
C925 H900 0.951 . S
C925 C923 1.388 . S
C925 C926 1.366 . S
C926 C925 1.366 . S
C926 C927 1.414 . S
C926 C929 1.499 . S
C927 H901 0.950 . S
C927 C926 1.414 . S
C927 C928 1.374 . S
C928 H902 0.950 . S
C928 C924 1.385 . S
C928 C927 1.374 . S
C929 C926 1.499 . S
C929 C930 1.373 . S
C929 C931 1.389 . S
C930 H903 0.950 . S
C930 C916 1.377 . S
C930 C929 1.373 . S
C931 C915 1.377 . S
C931 C929 1.389 . S
C931 C932 1.524 . S
C932 C931 1.524 . S
C932 C933 1.397 . S
C932 C937 1.363 . S
C933 H904 0.950 . S
C933 C932 1.397 . S
C933 C934 1.334 . S
C934 H905 0.950 . S
C934 C933 1.334 . S
C934 C935 1.287 . S
C935 C934 1.287 . S
C935 C936 1.524 . S
C935 H938 0.999 . S
C936 H906 0.950 . S
C936 C935 1.524 . S
C936 C937 1.415 . S
C937 H907 0.950 . S
C937 C932 1.363 . S
C937 C936 1.415 . S
H938 C935 0.999 . S
H939 C920 0.913 . S
H940 C958 0.951 . S
H941 C960 0.951 . S
H942 C962 0.950 . S
H943 C963 0.950 . S
H944 C965 0.950 . S
H945 C968 0.950 . S
H946 C969 0.950 . S
H947 C971 0.950 . S
H948 C972 0.950 . S
H949 C973 0.951 . S
H950 C975 0.951 . S
H951 C977 0.950 . S
H952 C978 0.950 1_556 S
H953 C980 0.950 . S
H954 C983 0.950 . S
H955 C984 0.950 . S
H956 C986 0.950 . S
H957 C987 0.950 . S
C958 H940 0.951 . S
C958 C959 1.366 . S
C958 C960 1.388 . S
C959 C958 1.366 . S
C959 C963 1.385 . S
C960 H941 0.951 . S
C960 C958 1.388 . S
C960 C961 1.366 . S
C961 C960 1.366 . S
C961 C962 1.414 . S
C961 C964 1.499 . S
C962 H942 0.950 . S
C962 C961 1.414 . S
C962 C963 1.374 . S
C963 H943 0.950 . S
C963 C959 1.385 . S
C963 C962 1.374 . S
C964 C961 1.499 . S
C964 C965 1.373 . S
C964 C966 1.389 . S
C965 H944 0.950 . S
C965 C964 1.373 . S
C965 C981 1.377 . S
C966 C964 1.389 . S
C966 C967 1.524 . S
C966 C980 1.377 . S
C967 C966 1.524 . S
C967 C968 1.397 . S
C967 C972 1.363 . S
C968 H945 0.950 . S
C968 C967 1.397 . S
C968 C969 1.334 . S
C969 H946 0.950 . S
C969 C968 1.334 . S
C969 C970 1.287 . S
C970 C969 1.287 . S
C970 C971 1.524 . S
C970 H989 0.913 . S
C971 H947 0.950 . S
C971 C970 1.524 . S
C971 C972 1.415 . S
C972 H948 0.950 . S
C972 C967 1.363 . S
C972 C971 1.415 . S
C973 H949 0.951 . S
C973 C974 1.366 1_554 S
C973 C975 1.388 . S
C974 C973 1.366 1_556 S
C974 C978 1.385 1_556 S
C975 H950 0.951 . S
C975 C973 1.388 . S
C975 C976 1.366 . S
C976 C975 1.366 . S
C976 C977 1.414 . S
C976 C979 1.499 . S
C977 H951 0.950 . S
C977 C976 1.414 . S
C977 C978 1.374 . S
C978 H952 0.950 1_554 S
C978 C974 1.385 1_554 S
C978 C977 1.374 . S
C979 C976 1.499 . S
C979 C980 1.373 . S
C979 C981 1.389 . S
C980 H953 0.950 . S
C980 C966 1.377 . S
C980 C979 1.373 . S
C981 C965 1.377 . S
C981 C979 1.389 . S
C981 C982 1.524 . S
C982 C981 1.524 . S
C982 C983 1.397 . S
C982 C987 1.363 . S
C983 H954 0.950 . S
C983 C982 1.397 . S
C983 C984 1.334 . S
C984 H955 0.950 . S
C984 C983 1.334 . S
C984 C985 1.287 . S
C985 C984 1.287 . S
C985 C986 1.524 . S
C985 H988 0.999 . S
C986 H956 0.950 . S
C986 C985 1.524 . S
C986 C987 1.415 . S
C987 H957 0.950 . S
C987 C982 1.363 . S
C987 C986 1.415 . S
H988 C985 0.999 . S
H989 C970 0.913 . S
H990 C1008 0.951 . S
H991 C1010 0.951 . S
H992 C1012 0.950 . S
H993 C1013 0.950 . S
H994 C1015 0.950 . S
H995 C1018 0.950 . S
H996 C1019 0.950 . S
H997 C1021 0.950 . S
H998 C1022 0.950 . S
H999 C1023 0.951 . S
H1000 C1025 0.951 . S
H1001 C1027 0.950 . S
H1002 C1028 0.950 . S
H1003 C1030 0.950 . S
H1004 C1033 0.950 . S
H1005 C1034 0.950 . S
H1006 C1036 0.950 . S
H1007 C1037 0.950 . S
C1008 H990 0.951 . S
C1008 C1009 1.366 . S
C1008 C1010 1.388 . S
C1009 C1008 1.366 . S
C1009 C1013 1.385 . S
C1010 H991 0.951 . S
C1010 C1008 1.388 . S
C1010 C1011 1.366 . S
C1011 C1010 1.366 . S
C1011 C1012 1.414 . S
C1011 C1014 1.499 . S
C1012 H992 0.950 . S
C1012 C1011 1.414 . S
C1012 C1013 1.374 . S
C1013 H993 0.950 . S
C1013 C1009 1.385 . S
C1013 C1012 1.374 . S
C1014 C1011 1.499 . S
C1014 C1015 1.373 . S
C1014 C1016 1.389 . S
C1015 H994 0.950 . S
C1015 C1014 1.373 . S
C1015 C1031 1.377 . S
C1016 C1014 1.389 . S
C1016 C1017 1.524 . S
C1016 C1030 1.377 . S
C1017 C1016 1.524 . S
C1017 C1018 1.397 . S
C1017 C1022 1.363 . S
C1018 H995 0.950 . S
C1018 C1017 1.397 . S
C1018 C1019 1.334 . S
C1019 H996 0.950 . S
C1019 C1018 1.334 . S
C1019 C1020 1.287 . S
C1020 C1019 1.287 . S
C1020 C1021 1.524 . S
C1020 H1039 0.913 . S
C1021 H997 0.950 . S
C1021 C1020 1.524 . S
C1021 C1022 1.415 . S
C1022 H998 0.950 . S
C1022 C1017 1.363 . S
C1022 C1021 1.415 . S
C1023 H999 0.951 . S
C1023 C1024 1.366 . S
C1023 C1025 1.388 . S
C1024 C1023 1.366 . S
C1024 C1028 1.385 . S
C1025 H1000 0.951 . S
C1025 C1023 1.388 . S
C1025 C1026 1.366 . S
C1026 C1025 1.366 . S
C1026 C1027 1.414 . S
C1026 C1029 1.499 . S
C1027 H1001 0.950 . S
C1027 C1026 1.414 . S
C1027 C1028 1.374 . S
C1028 H1002 0.950 . S
C1028 C1024 1.385 . S
C1028 C1027 1.374 . S
C1029 C1026 1.499 . S
C1029 C1030 1.373 . S
C1029 C1031 1.389 . S
C1030 H1003 0.950 . S
C1030 C1016 1.377 . S
C1030 C1029 1.373 . S
C1031 C1015 1.377 . S
C1031 C1029 1.389 . S
C1031 C1032 1.524 . S
C1032 C1031 1.524 . S
C1032 C1033 1.397 . S
C1032 C1037 1.363 . S
C1033 H1004 0.950 . S
C1033 C1032 1.397 . S
C1033 C1034 1.334 . S
C1034 H1005 0.950 . S
C1034 C1033 1.334 . S
C1034 C1035 1.287 . S
C1035 C1034 1.287 . S
C1035 C1036 1.524 . S
C1035 H1038 0.999 . S
C1036 H1006 0.950 . S
C1036 C1035 1.524 . S
C1036 C1037 1.415 . S
C1037 H1007 0.950 . S
C1037 C1032 1.363 . S
C1037 C1036 1.415 . S
H1038 C1035 0.999 . S
H1039 C1020 0.913 . S
H1040 C1058 0.951 . S
H1041 C1060 0.951 . S
H1042 C1062 0.950 . S
H1043 C1063 0.950 1_556 S
H1044 C1065 0.950 . S
H1045 C1068 0.950 . S
H1046 C1069 0.950 . S
H1047 C1071 0.950 . S
H1048 C1072 0.950 . S
H1049 C1073 0.951 . S
H1050 C1075 0.951 . S
H1051 C1077 0.950 . S
H1052 C1078 0.950 . S
H1053 C1080 0.950 . S
H1054 C1083 0.950 . S
H1055 C1084 0.950 . S
H1056 C1086 0.950 . S
H1057 C1087 0.950 . S
C1058 H1040 0.951 . S
C1058 C1059 1.366 . S
C1058 C1060 1.388 . S
C1059 C1058 1.366 . S
C1059 C1063 1.385 . S
C1060 H1041 0.951 . S
C1060 C1058 1.388 . S
C1060 C1061 1.366 . S
C1061 C1060 1.366 . S
C1061 C1062 1.414 . S
C1061 C1064 1.499 . S
C1062 H1042 0.950 . S
C1062 C1061 1.414 . S
C1062 C1063 1.374 . S
C1063 H1043 0.950 1_554 S
C1063 C1059 1.385 . S
C1063 C1062 1.374 . S
C1064 C1061 1.499 . S
C1064 C1065 1.373 . S
C1064 C1066 1.389 . S
C1065 H1044 0.950 . S
C1065 C1064 1.373 . S
C1065 C1081 1.377 . S
C1066 C1064 1.389 . S
C1066 C1067 1.524 . S
C1066 C1080 1.377 . S
C1067 C1066 1.524 . S
C1067 C1068 1.397 . S
C1067 C1072 1.363 . S
C1068 H1045 0.950 . S
C1068 C1067 1.397 . S
C1068 C1069 1.334 . S
C1069 H1046 0.950 . S
C1069 C1068 1.334 . S
C1069 C1070 1.287 . S
C1070 C1069 1.287 . S
C1070 C1071 1.524 . S
C1070 H1089 0.913 . S
C1071 H1047 0.950 . S
C1071 C1070 1.524 . S
C1071 C1072 1.415 . S
C1072 H1048 0.950 . S
C1072 C1067 1.363 . S
C1072 C1071 1.415 . S
C1073 H1049 0.951 . S
C1073 C1074 1.366 . S
C1073 C1075 1.388 . S
C1074 C1073 1.366 . S
C1074 C1078 1.385 . S
C1075 H1050 0.951 . S
C1075 C1073 1.388 . S
C1075 C1076 1.366 . S
C1076 C1075 1.366 . S
C1076 C1077 1.414 . S
C1076 C1079 1.499 . S
C1077 H1051 0.950 . S
C1077 C1076 1.414 . S
C1077 C1078 1.374 . S
C1078 H1052 0.950 . S
C1078 C1074 1.385 . S
C1078 C1077 1.374 . S
C1079 C1076 1.499 . S
C1079 C1080 1.373 . S
C1079 C1081 1.389 . S
C1080 H1053 0.950 . S
C1080 C1066 1.377 . S
C1080 C1079 1.373 . S
C1081 C1065 1.377 . S
C1081 C1079 1.389 . S
C1081 C1082 1.524 . S
C1082 C1081 1.524 . S
C1082 C1083 1.397 . S
C1082 C1087 1.363 . S
C1083 H1054 0.950 . S
C1083 C1082 1.397 . S
C1083 C1084 1.334 . S
C1084 H1055 0.950 . S
C1084 C1083 1.334 . S
C1084 C1085 1.287 . S
C1085 C1084 1.287 . S
C1085 C1086 1.524 . S
C1085 H1088 0.999 . S
C1086 H1056 0.950 . S
C1086 C1085 1.524 . S
C1086 C1087 1.415 . S
C1087 H1057 0.950 . S
C1087 C1082 1.363 . S
C1087 C1086 1.415 . S
H1088 C1085 0.999 . S
H1089 C1070 0.913 . S
H1090 C1108 0.951 . S
H1091 C1110 0.951 . S
H1092 C1112 0.950 . S
H1093 C1113 0.950 . S
H1094 C1115 0.950 . S
H1095 C1118 0.950 . S
H1096 C1119 0.950 . S
H1097 C1121 0.950 . S
H1098 C1122 0.950 . S
H1099 C1123 0.951 . S
H1100 C1125 0.951 . S
H1101 C1127 0.950 . S
H1102 C1128 0.950 . S
H1103 C1130 0.950 . S
H1104 C1133 0.950 . S
H1105 C1134 0.950 . S
H1106 C1136 0.950 . S
H1107 C1137 0.950 . S
C1108 H1090 0.951 . S
C1108 C1109 1.366 . S
C1108 C1110 1.388 . S
C1109 C1108 1.366 . S
C1109 C1113 1.385 . S
C1110 H1091 0.951 . S
C1110 C1108 1.388 . S
C1110 C1111 1.366 . S
C1111 C1110 1.366 . S
C1111 C1112 1.414 . S
C1111 C1114 1.499 . S
C1112 H1092 0.950 . S
C1112 C1111 1.414 . S
C1112 C1113 1.374 . S
C1113 H1093 0.950 . S
C1113 C1109 1.385 . S
C1113 C1112 1.374 . S
C1114 C1111 1.499 . S
C1114 C1115 1.373 . S
C1114 C1116 1.389 . S
C1115 H1094 0.950 . S
C1115 C1114 1.373 . S
C1115 C1131 1.377 . S
C1116 C1114 1.389 . S
C1116 C1117 1.524 . S
C1116 C1130 1.377 . S
C1117 C1116 1.524 . S
C1117 C1118 1.397 . S
C1117 C1122 1.363 . S
C1118 H1095 0.950 . S
C1118 C1117 1.397 . S
C1118 C1119 1.334 . S
C1119 H1096 0.950 . S
C1119 C1118 1.334 . S
C1119 C1120 1.287 . S
C1120 C1119 1.287 . S
C1120 C1121 1.524 . S
C1120 H1139 0.913 . S
C1121 H1097 0.950 . S
C1121 C1120 1.524 . S
C1121 C1122 1.415 . S
C1122 H1098 0.950 . S
C1122 C1117 1.363 . S
C1122 C1121 1.415 . S
C1123 H1099 0.951 . S
C1123 C1124 1.366 . S
C1123 C1125 1.388 . S
C1124 C1123 1.366 . S
C1124 C1128 1.385 . S
C1125 H1100 0.951 . S
C1125 C1123 1.388 . S
C1125 C1126 1.366 . S
C1126 C1125 1.366 . S
C1126 C1127 1.414 . S
C1126 C1129 1.499 . S
C1127 H1101 0.950 . S
C1127 C1126 1.414 . S
C1127 C1128 1.374 . S
C1128 H1102 0.950 . S
C1128 C1124 1.385 . S
C1128 C1127 1.374 . S
C1129 C1126 1.499 . S
C1129 C1130 1.373 . S
C1129 C1131 1.389 . S
C1130 H1103 0.950 . S
C1130 C1116 1.377 . S
C1130 C1129 1.373 . S
C1131 C1115 1.377 . S
C1131 C1129 1.389 . S
C1131 C1132 1.524 . S
C1132 C1131 1.524 . S
C1132 C1133 1.397 . S
C1132 C1137 1.363 . S
C1133 H1104 0.950 . S
C1133 C1132 1.397 . S
C1133 C1134 1.334 . S
C1134 H1105 0.950 . S
C1134 C1133 1.334 . S
C1134 C1135 1.287 . S
C1135 C1134 1.287 . S
C1135 C1136 1.524 . S
C1135 H1138 0.999 . S
C1136 H1106 0.950 . S
C1136 C1135 1.524 . S
C1136 C1137 1.415 . S
C1137 H1107 0.950 . S
C1137 C1132 1.363 . S
C1137 C1136 1.415 . S
H1138 C1135 0.999 . S
H1139 C1120 0.913 . S
C259 C210 3.557 . S
C274 C6 3.493 . S
C309 C10 3.428 . S
C324 C46 3.301 1_455 S
C359 C50 2.566 . S
C374 C90 2.558 . S
C409 C126 2.274 . S
C424 C86 2.177 . S
C459 C166 2.657 . S
C474 C130 2.995 . S
C509 C170 1.822 . S
C524 C206 1.862 1_565 S
C559 C179 2.404 . S
C574 C15 2.372 . S
C609 C219 3.221 1_556 S
C624 C55 3.236 . S
C659 C99 3.744 . S
C674 C19 3.786 . S
C709 C135 2.018 . S
C724 C59 2.062 . S
C759 C175 0.847 . S
C774 C95 0.847 . S
C809 C139 1.244 . S
C824 C215 1.289 . S
C859 C9 0.476 . S
C874 C18 0.476 . S
C909 C49 0.431 . S
C924 C58 0.431 . S
C959 C98 0.417 . S
C974 C89 0.417 . S
C1009 C129 0.355 . S
C1024 C138 0.355 . S
C1059 C178 0.523 . S
C1074 C169 0.523 . S
C1109 C209 0.322 . S
C1124 C218 0.322 . S
