# Generated by pormake.
# Topology yfl, (5)-cn, num edge types: 1
# Building blocks:
#     Node 0, Type 0, BuildingBlock: BEQFEK_clean_sbu_0, # of connection points: 5
#     Node 1, Type 0, BuildingBlock: BEQFEK_clean_sbu_0, # of connection points: 5
#     Node 2, Type 0, BuildingBlock: BEQFEK_clean_sbu_0, # of connection points: 5
#     Node 3, Type 0, BuildingBlock: BEQFEK_clean_sbu_0, # of connection points: 5
#     Node 4, Type 0, BuildingBlock: BEQFEK_clean_sbu_0, # of connection points: 5
#     Node 5, Type 0, BuildingBlock: BEQFEK_clean_sbu_0, # of connection points: 5
#     Node 6, Type 0, BuildingBlock: BEQFEK_clean_sbu_0, # of connection points: 5
#     Node 7, Type 0, BuildingBlock: BEQFEK_clean_sbu_0, # of connection points: 5
#     Node 8, Type 0, BuildingBlock: BEQFEK_clean_sbu_0, # of connection points: 5
#     Node 9, Type 0, BuildingBlock: BEQFEK_clean_sbu_0, # of connection points: 5
#     Node 10, Type 0, BuildingBlock: BEQFEK_clean_sbu_0, # of connection points: 5
#     Node 11, Type 0, BuildingBlock: BEQFEK_clean_sbu_0, # of connection points: 5
#     Node 12, Type 0, BuildingBlock: BEQFEK_clean_sbu_0, # of connection points: 5
#     Node 13, Type 0, BuildingBlock: BEQFEK_clean_sbu_0, # of connection points: 5
#     Node 14, Type 0, BuildingBlock: BEQFEK_clean_sbu_0, # of connection points: 5
#     Node 15, Type 0, BuildingBlock: BEQFEK_clean_sbu_0, # of connection points: 5
#     Edge 16, Type (0, 0), BuildingBlock: CIFDUS_clean_linker_0, # of connection points: 2
#     Edge 17, Type (0, 0), BuildingBlock: CIFDUS_clean_linker_0, # of connection points: 2
#     Edge 18, Type (0, 0), BuildingBlock: CIFDUS_clean_linker_0, # of connection points: 2
#     Edge 19, Type (0, 0), BuildingBlock: CIFDUS_clean_linker_0, # of connection points: 2
#     Edge 20, Type (0, 0), BuildingBlock: CIFDUS_clean_linker_0, # of connection points: 2
#     Edge 21, Type (0, 0), BuildingBlock: CIFDUS_clean_linker_0, # of connection points: 2
#     Edge 22, Type (0, 0), BuildingBlock: CIFDUS_clean_linker_0, # of connection points: 2
#     Edge 23, Type (0, 0), BuildingBlock: CIFDUS_clean_linker_0, # of connection points: 2
#     Edge 24, Type (0, 0), BuildingBlock: CIFDUS_clean_linker_0, # of connection points: 2
#     Edge 25, Type (0, 0), BuildingBlock: CIFDUS_clean_linker_0, # of connection points: 2
#     Edge 26, Type (0, 0), BuildingBlock: CIFDUS_clean_linker_0, # of connection points: 2
#     Edge 27, Type (0, 0), BuildingBlock: CIFDUS_clean_linker_0, # of connection points: 2
#     Edge 28, Type (0, 0), BuildingBlock: CIFDUS_clean_linker_0, # of connection points: 2
#     Edge 29, Type (0, 0), BuildingBlock: CIFDUS_clean_linker_0, # of connection points: 2
#     Edge 30, Type (0, 0), BuildingBlock: CIFDUS_clean_linker_0, # of connection points: 2
#     Edge 31, Type (0, 0), BuildingBlock: CIFDUS_clean_linker_0, # of connection points: 2
#     Edge 32, Type (0, 0), BuildingBlock: CIFDUS_clean_linker_0, # of connection points: 2
#     Edge 33, Type (0, 0), BuildingBlock: CIFDUS_clean_linker_0, # of connection points: 2
#     Edge 34, Type (0, 0), BuildingBlock: CIFDUS_clean_linker_0, # of connection points: 2
#     Edge 35, Type (0, 0), BuildingBlock: CIFDUS_clean_linker_0, # of connection points: 2
#     Edge 36, Type (0, 0), BuildingBlock: CIFDUS_clean_linker_0, # of connection points: 2
#     Edge 37, Type (0, 0), BuildingBlock: CIFDUS_clean_linker_0, # of connection points: 2
#     Edge 38, Type (0, 0), BuildingBlock: CIFDUS_clean_linker_0, # of connection points: 2
#     Edge 39, Type (0, 0), BuildingBlock: CIFDUS_clean_linker_0, # of connection points: 2
#     Edge 40, Type (0, 0), BuildingBlock: CIFDUS_clean_linker_0, # of connection points: 2
#     Edge 41, Type (0, 0), BuildingBlock: CIFDUS_clean_linker_0, # of connection points: 2
#     Edge 42, Type (0, 0), BuildingBlock: CIFDUS_clean_linker_0, # of connection points: 2
#     Edge 43, Type (0, 0), BuildingBlock: CIFDUS_clean_linker_0, # of connection points: 2
#     Edge 44, Type (0, 0), BuildingBlock: CIFDUS_clean_linker_0, # of connection points: 2
#     Edge 45, Type (0, 0), BuildingBlock: CIFDUS_clean_linker_0, # of connection points: 2
#     Edge 46, Type (0, 0), BuildingBlock: CIFDUS_clean_linker_0, # of connection points: 2
#     Edge 47, Type (0, 0), BuildingBlock: CIFDUS_clean_linker_0, # of connection points: 2
#     Edge 48, Type (0, 0), BuildingBlock: CIFDUS_clean_linker_0, # of connection points: 2
#     Edge 49, Type (0, 0), BuildingBlock: CIFDUS_clean_linker_0, # of connection points: 2
#     Edge 50, Type (0, 0), BuildingBlock: CIFDUS_clean_linker_0, # of connection points: 2
#     Edge 51, Type (0, 0), BuildingBlock: CIFDUS_clean_linker_0, # of connection points: 2
#     Edge 52, Type (0, 0), BuildingBlock: CIFDUS_clean_linker_0, # of connection points: 2
#     Edge 53, Type (0, 0), BuildingBlock: CIFDUS_clean_linker_0, # of connection points: 2
#     Edge 54, Type (0, 0), BuildingBlock: CIFDUS_clean_linker_0, # of connection points: 2
#     Edge 55, Type (0, 0), BuildingBlock: CIFDUS_clean_linker_0, # of connection points: 2
# Relax obj value: 0.263
# Max RMSD: 0.182
# Mean RMSD: 0.182
data_MOF--net-yfl--node1-BEQFEK_clean_sbu_0--edge1-CIFDUS_clean_linker_0
_symmetry_space_group_name_H-M    P1
_symmetry_Int_Tables_number       1
_symmetry_cell_setting            triclinic
loop_
_symmetry_equiv_pos_as_xyz
'x, y, z'
_cell_length_a     26.708761
_cell_length_b     26.7344
_cell_length_c     103.27751
_cell_angle_alpha  90.009075
_cell_angle_beta   89.98816
_cell_angle_gamma 89.956086
loop_
_atom_site_label
_atom_site_type_symbol
_atom_site_fract_x
_atom_site_fract_y
_atom_site_fract_z
_atom_type_partial_charge
Co0 Co 0.00517 0.26873 0.29147 0.0
Co1 Co 0.10207 0.27307 0.30888 0.0
C2 C 0.01924 0.34818 0.3113 0.0
O3 O 0.99333 0.32738 0.30249 0.0
O4 O 0.06213 0.33152 0.31453 0.0
C5 C 0.90257 0.27633 0.28338 0.0
O6 O 0.89648 0.29556 0.29498 0.0
C7 C 0.15885 0.26939 0.33318 0.0
C8 C 0.23693 0.27048 0.32608 0.0
C9 C 0.2083 0.27081 0.33725 0.0
N10 N 0.15828 0.26812 0.32017 0.0
N11 N 0.20507 0.26842 0.31599 0.0
C12 C 0.11295 0.27414 0.3414 0.0
H13 H 0.0788 0.27627 0.33532 0.0
H14 H 0.1098 0.24132 0.3479 0.0
H15 H 0.1159 0.308 0.34757 0.0
C16 C 0.99734 0.16989 0.30367 0.0
N17 N 0.02083 0.21374 0.30203 0.0
N18 N 0.0621 0.2143 0.30902 0.0
C19 C 0.0668 0.16995 0.31509 0.0
C20 C 0.0257 0.1406 0.31197 0.0
C21 C 0.94839 0.157 0.29746 0.0
H22 H 0.92193 0.1886 0.29868 0.0
H23 H 0.93164 0.12286 0.30175 0.0
H24 H 0.95426 0.15122 0.28693 0.0
O25 O 0.06051 0.28274 0.27923 0.0
O26 O 0.12875 0.28624 0.29141 0.0
H27 H 0.11627 0.11287 0.32263 0.0
H28 H 0.10821 0.16704 0.33275 0.0
C29 C 0.11207 0.15415 0.3226 0.0
H30 H 0.14624 0.17107 0.31838 0.0
H31 H 0.21526 0.26871 0.30624 0.0
O32 O 0.94516 0.25862 0.28031 0.0
C33 C 0.10753 0.28892 0.28042 0.0
Co34 Co 0.26997 0.9826 0.70437 0.0
Co35 Co 0.27068 0.88732 0.6865 0.0
C36 C 0.35623 0.95843 0.68665 0.0
O37 O 0.33399 0.98703 0.69466 0.0
O38 O 0.33615 0.91816 0.6827 0.0
C39 C 0.28617 0.08472 0.71175 0.0
O40 O 0.3074 0.08739 0.70029 0.0
C41 C 0.27824 0.82993 0.66257 0.0
C42 C 0.22972 0.76477 0.66654 0.0
C43 C 0.25913 0.78678 0.65708 0.0
N44 N 0.26102 0.83337 0.67476 0.0
N45 N 0.23262 0.79395 0.67715 0.0
C46 C 0.3078 0.87004 0.65597 0.0
H47 H 0.29552 0.90737 0.65944 0.0
H48 H 0.3036 0.86806 0.64529 0.0
H49 H 0.34796 0.86537 0.65844 0.0
C50 C 0.16927 0.9931 0.69297 0.0
N51 N 0.21487 0.97178 0.69337 0.0
N52 N 0.21628 0.9338 0.68528 0.0
C53 C 0.17213 0.93124 0.67898 0.0
C54 C 0.14038 0.96818 0.68378 0.0
C55 C 0.15192 0.03126 0.7026 0.0
H56 H 0.17246 0.02681 0.71185 0.0
H57 H 0.15957 0.06922 0.69874 0.0
H58 H 0.11125 0.02775 0.70457 0.0
O59 O 0.27508 0.92664 0.71658 0.0
O60 O 0.27549 0.85855 0.70423 0.0
H61 H 0.15241 0.85729 0.67298 0.0
H62 H 0.12799 0.90615 0.66266 0.0
C63 C 0.16062 0.89415 0.66854 0.0
H64 H 0.19336 0.89013 0.66205 0.0
H65 H 0.21389 0.78788 0.68587 0.0
O66 O 0.2646 0.04432 0.71506 0.0
C67 C 0.27712 0.87933 0.71534 0.0
Co68 Co 0.01683 0.71212 0.29779 0.0
Co69 Co 0.91237 0.7166 0.31194 0.0
C70 C 0.98608 0.63307 0.31615 0.0
O71 O 0.01865 0.65287 0.30881 0.0
O72 O 0.9431 0.65264 0.31781 0.0
C73 C 0.11922 0.6915 0.29073 0.0
O74 O 0.11946 0.66432 0.30133 0.0
C75 C 0.84907 0.72573 0.33506 0.0
C76 C 0.77532 0.74365 0.32657 0.0
C77 C 0.79929 0.73537 0.3383 0.0
N78 N 0.85386 0.72852 0.32212 0.0
N79 N 0.80969 0.73936 0.31711 0.0
C80 C 0.89138 0.7122 0.34391 0.0
H81 H 0.92274 0.69525 0.33847 0.0
H82 H 0.90584 0.74663 0.34859 0.0
H83 H 0.87847 0.68595 0.35153 0.0
C84 C 0.02459 0.81277 0.30811 0.0
N85 N 0.0018 0.76819 0.30773 0.0
N86 N 0.95766 0.77146 0.31334 0.0
C87 C 0.95071 0.81899 0.31729 0.0
C88 C 0.99289 0.84665 0.31406 0.0
C89 C 0.0722 0.82426 0.30107 0.0
H90 H 0.06528 0.82267 0.29048 0.0
H91 H 0.10079 0.79562 0.30347 0.0
H92 H 0.08664 0.86188 0.30366 0.0
O93 O 0.96567 0.70428 0.28416 0.0
O94 O 0.89121 0.70796 0.29368 0.0
H95 H 0.87158 0.82826 0.315 0.0
H96 H 0.90228 0.88062 0.3228 0.0
C97 C 0.90154 0.83928 0.32187 0.0
H98 H 0.89256 0.82286 0.33144 0.0
H99 H 0.80289 0.74331 0.30721 0.0
O100 O 0.08081 0.71772 0.28813 0.0
C101 C 0.9181 0.70356 0.28356 0.0
Co102 Co 0.723 0.01951 0.70544 0.0
Co103 Co 0.7228 0.12133 0.69015 0.0
C104 C 0.63604 0.0511 0.68902 0.0
O105 O 0.65841 0.0187 0.69594 0.0
O106 O 0.65637 0.09271 0.6863 0.0
C107 C 0.70302 0.91682 0.71163 0.0
O108 O 0.68011 0.91718 0.70038 0.0
C109 C 0.71329 0.18175 0.6669 0.0
C110 C 0.76099 0.24729 0.67104 0.0
C111 C 0.73148 0.22554 0.66156 0.0
N112 N 0.73099 0.17767 0.67902 0.0
N113 N 0.75885 0.21736 0.68154 0.0
C114 C 0.68467 0.14141 0.6601 0.0
H115 H 0.69818 0.10414 0.66329 0.0
H116 H 0.68839 0.14449 0.64943 0.0
H117 H 0.64448 0.14468 0.66269 0.0
C118 C 0.82283 0.01167 0.69336 0.0
N119 N 0.77752 0.03327 0.69448 0.0
N120 N 0.77631 0.07438 0.68747 0.0
C121 C 0.82029 0.07891 0.68116 0.0
C122 C 0.85173 0.03987 0.68484 0.0
C123 C 0.84011 0.9697 0.70188 0.0
H124 H 0.81968 0.97035 0.71121 0.0
H125 H 0.83233 0.93358 0.69699 0.0
H126 H 0.88082 0.97225 0.70389 0.0
O127 O 0.72014 0.07151 0.71881 0.0
O128 O 0.72091 0.14462 0.70854 0.0
H129 H 0.83949 0.15504 0.67722 0.0
H130 H 0.86518 0.11072 0.66577 0.0
C131 C 0.83208 0.12 0.6718 0.0
H132 H 0.79977 0.12612 0.66529 0.0
H133 H 0.778 0.22299 0.69022 0.0
O134 O 0.72774 0.95521 0.71507 0.0
C135 C 0.71974 0.11909 0.71897 0.0
Co136 Co 0.034 0.22397 0.96151 0.0
Co137 Co 0.12281 0.22757 0.94179 0.0
C138 C 0.05081 0.14094 0.94257 0.0
O139 O 0.02424 0.16141 0.95135 0.0
O140 O 0.08983 0.16227 0.93812 0.0
C141 C 0.93367 0.21648 0.97157 0.0
O142 O 0.92268 0.19785 0.96015 0.0
C143 C 0.1743 0.2216 0.91679 0.0
C144 C 0.23599 0.2758 0.91929 0.0
C145 C 0.21429 0.24354 0.91045 0.0
N146 N 0.17239 0.2399 0.92889 0.0
N147 N 0.20974 0.27183 0.93038 0.0
C148 C 0.13583 0.18735 0.91112 0.0
H149 H 0.09788 0.19952 0.91417 0.0
H150 H 0.13791 0.18656 0.90039 0.0
H151 H 0.14208 0.14897 0.91488 0.0
C152 C 0.01338 0.32344 0.95046 0.0
N153 N 0.03973 0.28056 0.95083 0.0
N154 N 0.07587 0.2822 0.94219 0.0
C155 C 0.07268 0.32615 0.93575 0.0
C156 C 0.03297 0.35384 0.9408 0.0
C157 C 0.97377 0.33675 0.96014 0.0
H158 H 0.98523 0.32389 0.9699 0.0
H159 H 0.9384 0.31753 0.95751 0.0
H160 H 0.96703 0.37763 0.96056 0.0
O161 O 0.09418 0.21605 0.97231 0.0
O162 O 0.15834 0.21863 0.95867 0.0
H163 H 0.14308 0.35222 0.92867 0.0
H164 H 0.09005 0.37239 0.91916 0.0
C165 C 0.10611 0.34085 0.92477 0.0
H166 H 0.11163 0.30857 0.9182 0.0
H167 H 0.21637 0.29202 0.93886 0.0
O168 O 0.97808 0.23083 0.97384 0.0
C169 C 0.14098 0.21408 0.9701 0.0
Co170 Co 0.22677 0.97666 0.04149 0.0
Co171 Co 0.21716 0.88556 0.06069 0.0
C172 C 0.1402 0.96549 0.05988 0.0
O173 O 0.16452 0.98944 0.0513 0.0
O174 O 0.15572 0.92395 0.06434 0.0
C175 C 0.22432 0.07945 0.03382 0.0
O176 O 0.20827 0.0857 0.04574 0.0
C177 C 0.2066 0.8325 0.08526 0.0
C178 C 0.25075 0.76384 0.08177 0.0
C179 C 0.22375 0.78925 0.09113 0.0
N180 N 0.22277 0.83278 0.07295 0.0
N181 N 0.24837 0.79123 0.07084 0.0
C182 C 0.18035 0.87555 0.09158 0.0
H183 H 0.19591 0.91136 0.08793 0.0
H184 H 0.18391 0.8741 0.10228 0.0
H185 H 0.14006 0.87426 0.08898 0.0
C186 C 0.32643 0.9822 0.05343 0.0
N187 N 0.28002 0.96313 0.05278 0.0
N188 N 0.27538 0.92682 0.0613 0.0
C189 C 0.31846 0.92288 0.06802 0.0
C190 C 0.35243 0.95744 0.06317 0.0
C191 C 0.3469 0.01854 0.04374 0.0
H192 H 0.32874 0.01284 0.03421 0.0
H193 H 0.33871 0.05719 0.04705 0.0
H194 H 0.38794 0.01425 0.04255 0.0
O195 O 0.21627 0.91909 0.02999 0.0
O196 O 0.20914 0.85439 0.04336 0.0
H197 H 0.33212 0.84878 0.07494 0.0
H198 H 0.36049 0.89724 0.08467 0.0
C199 C 0.32696 0.88697 0.07891 0.0
H200 H 0.29405 0.88694 0.08542 0.0
H201 H 0.26599 0.78261 0.0621 0.0
O202 O 0.23776 0.03601 0.0302 0.0
C203 C 0.2096 0.87259 0.03196 0.0
Co204 Co 0.9804 0.77645 0.9597 0.0
Co205 Co 0.89335 0.76904 0.93949 0.0
C206 C 0.95857 0.86014 0.94124 0.0
O207 O 0.98528 0.84023 0.95003 0.0
O208 O 0.92145 0.83714 0.93632 0.0
C209 C 0.08128 0.79026 0.96758 0.0
O210 O 0.08682 0.80549 0.95558 0.0
C211 C 0.84268 0.77138 0.9142 0.0
C212 C 0.78742 0.71047 0.91634 0.0
C213 C 0.8068 0.74416 0.90746 0.0
N214 N 0.84541 0.75337 0.92634 0.0
N215 N 0.81167 0.71758 0.92761 0.0
C216 C 0.87192 0.81569 0.90957 0.0
H217 H 0.86886 0.84628 0.91676 0.0
H218 H 0.912 0.80529 0.90866 0.0
H219 H 0.85777 0.83027 0.90022 0.0
C220 C 0.007 0.67878 0.94865 0.0
N221 N 0.97913 0.72071 0.94871 0.0
N222 N 0.94413 0.71763 0.93979 0.0
C223 C 0.94984 0.6737 0.93345 0.0
C224 C 0.98976 0.64747 0.93889 0.0
C225 C 0.04484 0.66654 0.95888 0.0
H226 H 0.03212 0.68109 0.96838 0.0
H227 H 0.08092 0.68472 0.9564 0.0
H228 H 0.05088 0.62566 0.95979 0.0
O229 O 0.9197 0.77813 0.97055 0.0
O230 O 0.85706 0.77344 0.95643 0.0
H231 H 0.88188 0.64282 0.92608 0.0
H232 H 0.93666 0.62686 0.91674 0.0
C233 C 0.91807 0.65707 0.92233 0.0
H234 H 0.91065 0.68903 0.91578 0.0
H235 H 0.80638 0.69685 0.93606 0.0
O236 O 0.03879 0.77454 0.97131 0.0
C237 C 0.87304 0.77724 0.96803 0.0
Co238 Co 0.76428 0.99765 0.03927 0.0
Co239 Co 0.77428 0.09395 0.05684 0.0
C240 C 0.8516 0.01369 0.057 0.0
O241 O 0.82704 0.98711 0.04901 0.0
O242 O 0.83603 0.05637 0.06062 0.0
C243 C 0.77087 0.8944 0.03214 0.0
O244 O 0.78858 0.88973 0.04395 0.0
C245 C 0.78436 0.14955 0.08118 0.0
C246 C 0.74037 0.21785 0.07722 0.0
C247 C 0.76562 0.19262 0.08696 0.0
N248 N 0.76924 0.14856 0.06876 0.0
N249 N 0.74393 0.19004 0.06638 0.0
C250 C 0.81674 0.11007 0.08717 0.0
H251 H 0.85023 0.10412 0.08103 0.0
H252 H 0.79577 0.0743 0.08763 0.0
H253 H 0.82992 0.12079 0.09696 0.0
C254 C 0.66565 0.99376 0.05189 0.0
N255 N 0.71169 0.0133 0.05059 0.0
N256 N 0.71654 0.05192 0.05841 0.0
C257 C 0.67404 0.0569 0.06533 0.0
C258 C 0.64016 0.02071 0.06132 0.0
C259 C 0.64495 0.95438 0.04307 0.0
H260 H 0.66252 0.95718 0.03338 0.0
H261 H 0.65362 0.91696 0.04715 0.0
H262 H 0.6038 0.95801 0.04198 0.0
O263 O 0.77298 0.05285 0.02699 0.0
O264 O 0.78012 0.12161 0.03895 0.0
H265 H 0.66168 0.13249 0.07131 0.0
H266 H 0.63255 0.08645 0.08167 0.0
C267 C 0.66614 0.095 0.07575 0.0
H268 H 0.69902 0.09552 0.08226 0.0
H269 H 0.72715 0.19828 0.0575 0.0
O270 O 0.75378 0.93661 0.02858 0.0
C271 C 0.77873 0.09992 0.02796 0.0
Co272 Co 0.50805 0.79102 0.7877 0.0
Co273 Co 0.60321 0.77864 0.80503 0.0
C274 C 0.53566 0.86931 0.8067 0.0
O275 O 0.50495 0.85131 0.79856 0.0
O276 O 0.57535 0.84583 0.80985 0.0
C277 C 0.40641 0.80965 0.78038 0.0
O278 O 0.40318 0.82955 0.79198 0.0
C279 C 0.64724 0.76095 0.83037 0.0
C280 C 0.72548 0.74121 0.82571 0.0
C281 C 0.69255 0.74726 0.83601 0.0
N282 N 0.65323 0.76231 0.81746 0.0
N283 N 0.70004 0.75043 0.81472 0.0
C284 C 0.59917 0.77443 0.83698 0.0
H285 H 0.57415 0.79533 0.83038 0.0
H286 H 0.57937 0.73971 0.83986 0.0
H287 H 0.60658 0.79708 0.84578 0.0
C288 C 0.48774 0.68993 0.79708 0.0
N289 N 0.51379 0.73284 0.79764 0.0
N290 N 0.5545 0.72607 0.80457 0.0
C291 C 0.55601 0.67784 0.80848 0.0
C292 C 0.51365 0.65341 0.80385 0.0
C293 C 0.44152 0.68292 0.78909 0.0
H294 H 0.4512 0.68648 0.77869 0.0
H295 H 0.41407 0.71259 0.79151 0.0
H296 H 0.42403 0.64589 0.79084 0.0
O297 O 0.56608 0.7967 0.77573 0.0
O298 O 0.63457 0.78702 0.78773 0.0
H299 H 0.63535 0.66656 0.80964 0.0
H300 H 0.59873 0.61235 0.81412 0.0
C301 C 0.60079 0.65376 0.81458 0.0
H302 H 0.60296 0.66517 0.82488 0.0
H303 H 0.71463 0.74879 0.80535 0.0
O304 O 0.44734 0.78966 0.77682 0.0
C305 C 0.61361 0.79459 0.77681 0.0
Co306 Co 0.77638 0.47915 0.21164 0.0
Co307 Co 0.77185 0.39427 0.19064 0.0
C308 C 0.85888 0.46489 0.19237 0.0
O309 O 0.83892 0.48933 0.2016 0.0
O310 O 0.83717 0.42722 0.18736 0.0
C311 C 0.79323 0.57519 0.22318 0.0
O312 O 0.8162 0.58489 0.21221 0.0
C313 C 0.77655 0.34747 0.16484 0.0
C314 C 0.72123 0.28649 0.16677 0.0
C315 C 0.75305 0.30939 0.15799 0.0
N316 N 0.75843 0.3477 0.177 0.0
N317 N 0.72582 0.31081 0.17812 0.0
C318 C 0.81785 0.38107 0.16032 0.0
H319 H 0.84994 0.37794 0.16707 0.0
H320 H 0.80466 0.42045 0.16044 0.0
H321 H 0.83152 0.37109 0.15053 0.0
C322 C 0.67708 0.50246 0.20101 0.0
N323 N 0.71999 0.47617 0.20087 0.0
N324 N 0.71819 0.44218 0.19168 0.0
C325 C 0.67427 0.4471 0.18531 0.0
C326 C 0.64654 0.4853 0.19106 0.0
C327 C 0.66385 0.53902 0.21146 0.0
H328 H 0.6784 0.52561 0.22089 0.0
H329 H 0.68161 0.57558 0.20928 0.0
H330 H 0.62281 0.54422 0.21235 0.0
O331 O 0.78223 0.41693 0.22161 0.0
O332 O 0.77965 0.35547 0.20714 0.0
H333 H 0.64736 0.37926 0.1769 0.0
H334 H 0.62891 0.43498 0.16824 0.0
C335 C 0.65974 0.41687 0.17371 0.0
H336 H 0.69238 0.41248 0.16719 0.0
H337 H 0.70593 0.30289 0.18657 0.0
O338 O 0.77159 0.53329 0.22462 0.0
C339 C 0.7834 0.37062 0.21882 0.0
Co340 Co 0.46699 0.22881 0.78789 0.0
Co341 Co 0.37061 0.23341 0.80513 0.0
C342 C 0.44521 0.14816 0.8068 0.0
O343 O 0.47467 0.16789 0.79855 0.0
O344 O 0.40422 0.16928 0.81003 0.0
C345 C 0.56794 0.2174 0.77799 0.0
O346 O 0.57609 0.1906 0.78844 0.0
C347 C 0.31951 0.23996 0.82998 0.0
C348 C 0.2469 0.27408 0.82474 0.0
C349 C 0.27509 0.25765 0.83516 0.0
N350 N 0.31776 0.24562 0.81707 0.0
N351 N 0.27401 0.26542 0.81396 0.0
C352 C 0.36489 0.22261 0.83718 0.0
H353 H 0.36195 0.18171 0.83885 0.0
H354 H 0.3992 0.22994 0.83142 0.0
H355 H 0.36768 0.24151 0.84673 0.0
C356 C 0.48302 0.32831 0.79919 0.0
N357 N 0.45694 0.2855 0.79825 0.0
N358 N 0.4159 0.2889 0.80523 0.0
C359 C 0.41424 0.33477 0.81071 0.0
C360 C 0.45681 0.36125 0.80705 0.0
C361 C 0.53192 0.33735 0.79251 0.0
H362 H 0.55691 0.30475 0.79402 0.0
H363 H 0.55075 0.37145 0.79621 0.0
H364 H 0.52532 0.34133 0.78195 0.0
O365 O 0.4099 0.21882 0.77591 0.0
O366 O 0.34067 0.22275 0.78775 0.0
H367 H 0.37271 0.3956 0.81959 0.0
H368 H 0.36857 0.33594 0.82769 0.0
C369 C 0.3703 0.3546 0.81811 0.0
H370 H 0.33533 0.34602 0.81279 0.0
H371 H 0.26338 0.2746 0.80454 0.0
O372 O 0.52538 0.23762 0.77636 0.0
C373 C 0.36242 0.21695 0.77688 0.0
Co374 Co 0.22196 0.5198 0.21033 0.0
Co375 Co 0.23184 0.6175 0.1939 0.0
C376 C 0.13918 0.55525 0.19296 0.0
O377 O 0.15855 0.52323 0.20055 0.0
O378 O 0.16276 0.59453 0.18963 0.0
C379 C 0.19621 0.41837 0.21611 0.0
O380 O 0.17512 0.41958 0.20463 0.0
C381 C 0.23462 0.67679 0.1703 0.0
C382 C 0.28636 0.73817 0.17542 0.0
C383 C 0.25836 0.71862 0.16532 0.0
N384 N 0.24788 0.67181 0.18276 0.0
N385 N 0.27822 0.709 0.18584 0.0
C386 C 0.20509 0.63851 0.16298 0.0
H387 H 0.21055 0.60094 0.16732 0.0
H388 H 0.21624 0.63751 0.15263 0.0
H389 H 0.16474 0.64818 0.16357 0.0
C390 C 0.31943 0.49798 0.19843 0.0
N391 N 0.27767 0.52581 0.19945 0.0
N392 N 0.28153 0.56568 0.19206 0.0
C393 C 0.32576 0.56358 0.18574 0.0
C394 C 0.35153 0.52077 0.18963 0.0
C395 C 0.33072 0.45465 0.20716 0.0
H396 H 0.31479 0.4615 0.21691 0.0
H397 H 0.31308 0.42044 0.20314 0.0
H398 H 0.37154 0.44828 0.20818 0.0
O399 O 0.22293 0.57346 0.22337 0.0
O400 O 0.22985 0.64365 0.21201 0.0
H401 H 0.35306 0.63687 0.18142 0.0
H402 H 0.37612 0.58872 0.17063 0.0
C403 C 0.34319 0.60197 0.17621 0.0
H404 H 0.31268 0.61038 0.16929 0.0
H405 H 0.29487 0.71334 0.19491 0.0
O406 O 0.22086 0.45613 0.22 0.0
C407 C 0.226 0.62091 0.22281 0.0
Co408 Co 0.50441 0.72143 0.459 0.0
Co409 Co 0.59495 0.71987 0.43957 0.0
C410 C 0.52005 0.63748 0.43989 0.0
O411 O 0.49532 0.65939 0.44879 0.0
O412 O 0.56035 0.65595 0.4353 0.0
C413 C 0.4026 0.71386 0.46834 0.0
O414 O 0.39333 0.69157 0.45726 0.0
C415 C 0.66036 0.7175 0.41615 0.0
C416 C 0.71543 0.7755 0.42159 0.0
C417 C 0.70208 0.7435 0.41163 0.0
N418 N 0.64921 0.73445 0.42809 0.0
N419 N 0.68267 0.76864 0.4313 0.0
C420 C 0.63289 0.67577 0.40962 0.0
H421 H 0.62056 0.64786 0.41686 0.0
H422 H 0.59918 0.69105 0.40474 0.0
H423 H 0.65692 0.6567 0.40237 0.0
C424 C 0.48707 0.81884 0.44689 0.0
N425 N 0.51288 0.77594 0.44796 0.0
N426 N 0.54866 0.77468 0.43922 0.0
C427 C 0.54547 0.81645 0.43192 0.0
C428 C 0.50639 0.84591 0.43656 0.0
C429 C 0.44832 0.83532 0.45648 0.0
H430 H 0.45848 0.82203 0.4663 0.0
H431 H 0.41164 0.81884 0.45381 0.0
H432 H 0.44475 0.87662 0.4568 0.0
O433 O 0.5622 0.71406 0.47048 0.0
O434 O 0.62661 0.71132 0.45698 0.0
H435 H 0.61454 0.84137 0.42374 0.0
H436 H 0.56029 0.85532 0.41398 0.0
C437 C 0.57778 0.82703 0.42041 0.0
H438 H 0.58402 0.79216 0.41483 0.0
H439 H 0.68247 0.78807 0.44007 0.0
O440 O 0.44634 0.73024 0.47059 0.0
C441 C 0.6089 0.70996 0.46843 0.0
Co442 Co 0.72188 0.48556 0.53979 0.0
Co443 Co 0.72771 0.389 0.55703 0.0
C444 C 0.63657 0.45308 0.55681 0.0
O445 O 0.65705 0.48388 0.54905 0.0
O446 O 0.65924 0.41389 0.56061 0.0
C447 C 0.70121 0.58771 0.53302 0.0
O448 O 0.68063 0.58945 0.54457 0.0
C449 C 0.72891 0.33253 0.58125 0.0
C450 C 0.78088 0.27063 0.57669 0.0
C451 C 0.75332 0.29178 0.58666 0.0
N452 N 0.74182 0.33555 0.56869 0.0
N453 N 0.77209 0.29788 0.56596 0.0
C454 C 0.69964 0.37204 0.58821 0.0
H455 H 0.70336 0.40853 0.58319 0.0
H456 H 0.7125 0.37596 0.59838 0.0
H457 H 0.6595 0.36136 0.58828 0.0
C458 C 0.81791 0.50618 0.55245 0.0
N459 N 0.77565 0.47937 0.55125 0.0
N460 N 0.7772 0.44061 0.55908 0.0
C461 C 0.81993 0.44296 0.56603 0.0
C462 C 0.84755 0.4842 0.56194 0.0
C463 C 0.83229 0.54711 0.54326 0.0
H464 H 0.81575 0.54011 0.5336 0.0
H465 H 0.81763 0.58324 0.54696 0.0
H466 H 0.87347 0.54993 0.54215 0.0
O467 O 0.72463 0.4309 0.52724 0.0
O468 O 0.72798 0.3613 0.53896 0.0
H469 H 0.84361 0.37013 0.57208 0.0
H470 H 0.86594 0.42038 0.58231 0.0
C471 C 0.83391 0.40673 0.57647 0.0
H472 H 0.80179 0.40154 0.58308 0.0
H473 H 0.78871 0.29224 0.55693 0.0
O474 O 0.72341 0.54796 0.52948 0.0
C475 C 0.72687 0.38352 0.52804 0.0
Co476 Co 0.48876 0.26245 0.45895 0.0
Co477 Co 0.39677 0.26796 0.44009 0.0
C478 C 0.47502 0.3479 0.44039 0.0
O479 O 0.50001 0.32479 0.44903 0.0
O480 O 0.43375 0.33078 0.43604 0.0
C481 C 0.59002 0.26784 0.469 0.0
O482 O 0.60049 0.29178 0.45822 0.0
C483 C 0.33911 0.26875 0.4157 0.0
C484 C 0.26726 0.2366 0.42228 0.0
C485 C 0.29186 0.25414 0.41136 0.0
N486 N 0.34188 0.25975 0.42849 0.0
N487 N 0.29867 0.24106 0.43237 0.0
C488 C 0.3826 0.28693 0.40787 0.0
H489 H 0.41814 0.2814 0.41325 0.0
H490 H 0.3845 0.26691 0.39846 0.0
H491 H 0.37805 0.32753 0.40597 0.0
C492 C 0.5019 0.16512 0.44633 0.0
N493 N 0.47763 0.20879 0.44766 0.0
N494 N 0.44007 0.21079 0.43943 0.0
C495 C 0.4398 0.1682 0.4324 0.0
C496 C 0.4792 0.13798 0.4365 0.0
C497 C 0.54263 0.14814 0.4553 0.0
H498 H 0.53343 0.15924 0.46536 0.0
H499 H 0.57822 0.16666 0.45253 0.0
H500 H 0.54782 0.10702 0.45505 0.0
O501 O 0.43143 0.27129 0.47063 0.0
O502 O 0.36598 0.27591 0.45753 0.0
H503 H 0.36472 0.15599 0.4259 0.0
H504 H 0.41148 0.12147 0.41682 0.0
C505 C 0.40312 0.1572 0.42182 0.0
H506 H 0.40458 0.18749 0.41455 0.0
H507 H 0.29098 0.23034 0.44188 0.0
O508 O 0.54614 0.25082 0.47068 0.0
C509 C 0.38464 0.27637 0.46886 0.0
Co510 Co 0.26855 0.49843 0.53981 0.0
Co511 Co 0.26192 0.59777 0.55586 0.0
C512 C 0.35355 0.53484 0.55647 0.0
O513 O 0.33329 0.50264 0.54907 0.0
O514 O 0.33061 0.57448 0.55985 0.0
C515 C 0.29253 0.39616 0.53382 0.0
O516 O 0.31518 0.39679 0.54511 0.0
C517 C 0.26012 0.66124 0.57889 0.0
C518 C 0.20638 0.7202 0.5732 0.0
C519 C 0.23502 0.70306 0.58347 0.0
N520 N 0.24668 0.65383 0.5665 0.0
N521 N 0.21532 0.68973 0.56307 0.0
C522 C 0.29088 0.62499 0.58657 0.0
H523 H 0.28761 0.58682 0.58244 0.0
H524 H 0.27896 0.62441 0.59686 0.0
H525 H 0.33074 0.63652 0.58613 0.0
C526 C 0.17253 0.47945 0.5527 0.0
N527 N 0.21465 0.50623 0.55117 0.0
N528 N 0.21298 0.54623 0.55857 0.0
C529 C 0.17036 0.54484 0.56558 0.0
C530 C 0.14287 0.50285 0.56197 0.0
C531 C 0.15827 0.43696 0.54399 0.0
H532 H 0.17544 0.4419 0.53431 0.0
H533 H 0.17226 0.40143 0.54821 0.0
H534 H 0.11712 0.43438 0.54276 0.0
O535 O 0.26548 0.55042 0.52653 0.0
O536 O 0.26162 0.6217 0.53751 0.0
H537 H 0.14536 0.61815 0.57083 0.0
H538 H 0.12518 0.56942 0.58181 0.0
C539 C 0.1564 0.58273 0.57563 0.0
H540 H 0.18897 0.59007 0.58195 0.0
H541 H 0.1982 0.69203 0.55401 0.0
O542 O 0.26777 0.43433 0.53026 0.0
C543 C 0.26295 0.59786 0.52683 0.0
H544 H 0.08082 0.28194 0.25508 0.0
H545 H 0.20074 0.33071 0.2801 0.0
H546 H 0.24305 0.3693 0.26172 0.0
H547 H 0.23989 0.39907 0.23928 0.0
H548 H 0.11961 0.35113 0.21429 0.0
H549 H 0.08421 0.30144 0.23186 0.0
C550 C 0.11657 0.30039 0.25648 0.0
C551 C 0.13705 0.30433 0.26899 0.0
C552 C 0.14057 0.32284 0.24589 0.0
C553 C 0.18388 0.3275 0.2706 0.0
C554 C 0.20807 0.34976 0.2601 0.0
C555 C 0.20646 0.37697 0.23761 0.0
C556 C 0.18189 0.37957 0.22559 0.0
C557 C 0.18585 0.34915 0.24781 0.0
C558 C 0.13911 0.35008 0.22348 0.0
C559 C 0.1186 0.32191 0.23356 0.0
H560 H 0.39324 0.76096 0.75758 0.0
H561 H 0.33033 0.87754 0.78151 0.0
H562 H 0.27686 0.90425 0.76366 0.0
H563 H 0.25945 0.90364 0.74036 0.0
H564 H 0.32356 0.78834 0.71625 0.0
H565 H 0.36413 0.7512 0.73514 0.0
C566 C 0.3671 0.79159 0.75895 0.0
C567 C 0.36658 0.81804 0.77073 0.0
C568 C 0.33696 0.80719 0.7486 0.0
C569 C 0.33182 0.85691 0.7725 0.0
C570 C 0.30139 0.87238 0.76227 0.0
C571 C 0.28136 0.86969 0.7393 0.0
C572 C 0.28944 0.84939 0.72691 0.0
C573 C 0.30536 0.8492 0.75013 0.0
C574 C 0.31703 0.80487 0.72568 0.0
C575 C 0.34061 0.78386 0.73646 0.0
H576 H 0.86594 0.64453 0.22646 0.0
H577 H 0.73998 0.57634 0.24574 0.0
H578 H 0.7639 0.6166 0.26607 0.0
H579 H 0.8272 0.66143 0.27891 0.0
H580 H 0.95674 0.72327 0.25976 0.0
H581 H 0.92465 0.6957 0.23884 0.0
C582 C 0.84304 0.63939 0.23503 0.0
C583 C 0.80155 0.60718 0.23463 0.0
C584 C 0.85809 0.66103 0.24677 0.0
C585 C 0.77239 0.60069 0.24584 0.0
C586 C 0.78614 0.62354 0.25748 0.0
C587 C 0.84782 0.66973 0.27012 0.0
C588 C 0.89447 0.69386 0.27088 0.0
C589 C 0.82996 0.65229 0.25815 0.0
C590 C 0.92098 0.7042 0.25943 0.0
C591 C 0.90268 0.68846 0.24747 0.0
H592 H 0.65101 0.15947 0.77547 0.0
H593 H 0.56533 0.27375 0.75595 0.0
H594 H 0.61314 0.25989 0.73614 0.0
H595 H 0.66835 0.205 0.72344 0.0
H596 H 0.74917 0.08674 0.74269 0.0
H597 H 0.71522 0.11317 0.76353 0.0
C598 C 0.64356 0.18217 0.76698 0.0
C599 C 0.60396 0.21677 0.76711 0.0
C600 C 0.67016 0.17297 0.7555 0.0
C601 C 0.59508 0.24619 0.75604 0.0
C602 C 0.62236 0.23826 0.74469 0.0
C603 C 0.67976 0.18612 0.73226 0.0
C604 C 0.71066 0.14368 0.73154 0.0
C605 C 0.65842 0.20021 0.74415 0.0
C606 C 0.72496 0.11927 0.74301 0.0
C607 C 0.70536 0.13417 0.75492 0.0
H608 H 0.26251 0.08469 0.00934 0.0
H609 H 0.16667 0.16304 0.03623 0.0
H610 H 0.13772 0.21772 0.01891 0.0
H611 H 0.12941 0.23397 0.99562 0.0
H612 H 0.22538 0.15677 0.96863 0.0
H613 H 0.26522 0.11179 0.9865 0.0
C614 C 0.23608 0.11441 0.01146 0.0
C615 C 0.21601 0.11903 0.02401 0.0
C616 C 0.21931 0.14574 0.00141 0.0
C617 C 0.18245 0.15828 0.02665 0.0
C618 C 0.16562 0.18949 0.01673 0.0
C619 C 0.15997 0.20825 0.9937 0.0
C620 C 0.17397 0.19815 0.98084 0.0
C621 C 0.18226 0.18219 0.00399 0.0
C622 C 0.21397 0.16523 0.97845 0.0
C623 C 0.23641 0.13911 0.98867 0.0
H624 H 0.09008 0.74838 0.99136 0.0
H625 H 0.16026 0.85431 0.96559 0.0
H626 H 0.2131 0.88424 0.98324 0.0
H627 H 0.22869 0.88973 0.00659 0.0
H628 H 0.15763 0.78471 0.03246 0.0
H629 H 0.11658 0.74429 0.01411 0.0
C630 C 0.11765 0.77735 0.98957 0.0
C631 C 0.12052 0.79993 0.9773 0.0
C632 C 0.14741 0.79481 -0.00022 0.0
C633 C 0.15704 0.83665 0.97499 0.0
C634 C 0.18708 0.85399 0.98509 0.0
C635 C 0.20503 0.85734 0.00818 0.0
C636 C 0.19529 0.84093 0.02086 0.0
C637 C 0.18096 0.83483 0.99763 0.0
C638 C 0.16543 0.79831 0.02278 0.0
C639 C 0.14165 0.77539 0.01231 0.0
H640 H 0.88419 0.75522 0.99348 0.0
H641 H 0.78347 0.82603 0.96648 0.0
H642 H 0.73714 0.8637 0.98443 0.0
H643 H 0.73467 0.88761 0.00749 0.0
H644 H 0.83542 0.81583 0.0344 0.0
H645 H 0.87153 0.7668 0.01684 0.0
C646 C 0.85133 0.77791 0.99155 0.0
C647 C 0.83777 0.78852 0.97868 0.0
C648 C 0.82519 0.79977 0.0019 0.0
C649 C 0.79473 0.81736 0.9763 0.0
C650 C 0.76847 0.83928 0.98656 0.0
C651 C 0.76373 0.86039 0.00956 0.0
C652 C 0.78304 0.85628 0.0222 0.0
C653 C 0.78475 0.83248 -0.00063 0.0
C654 C 0.8201 0.82021 0.02475 0.0
C655 C 0.84106 0.79228 0.01469 0.0
H656 H 0.83443 0.18437 0.02569 0.0
H657 H 0.74955 0.07739 0.00344 0.0
H658 H 0.78418 0.11099 0.98339 0.0
H659 H 0.84913 0.16039 0.97264 0.0
H660 H 0.939 0.26278 0.99506 0.0
H661 H 0.89139 0.24206 0.0145 0.0
C662 C 0.82247 0.16942 0.01643 0.0
C663 C 0.79008 0.12809 0.01603 0.0
C664 C 0.84405 0.18761 0.00496 0.0
C665 C 0.77498 0.10888 0.00398 0.0
C666 C 0.79488 0.12794 0.99251 0.0
C667 C 0.85752 0.17907 0.98171 0.0
C668 C 0.89809 0.21232 0.98246 0.0
C669 C 0.83115 0.16572 0.99294 0.0
C670 C 0.90838 0.23639 0.99428 0.0
C671 C 0.88125 0.22451 0.00541 0.0
H672 H 0.58897 0.78293 0.75151 0.0
H673 H 0.70714 0.83575 0.77647 0.0
H674 H 0.74977 0.87308 0.75789 0.0
H675 H 0.74655 0.90118 0.73518 0.0
H676 H 0.62836 0.84745 0.71029 0.0
H677 H 0.59334 0.79928 0.72815 0.0
C678 C 0.62455 0.8018 0.75284 0.0
C679 C 0.64443 0.80733 0.76537 0.0
C680 C 0.64869 0.82337 0.74214 0.0
C681 C 0.69095 0.83111 0.76693 0.0
C682 C 0.71519 0.85277 0.75631 0.0
C683 C 0.71375 0.87808 0.73359 0.0
C684 C 0.68958 0.87879 0.72148 0.0
C685 C 0.69341 0.85073 0.74396 0.0
C686 C 0.64756 0.84802 0.71953 0.0
C687 C 0.62724 0.82064 0.72977 0.0
H688 H 0.75722 0.37766 0.244 0.0
H689 H 0.84012 0.28577 0.21721 0.0
H690 H 0.88014 0.24217 0.23531 0.0
H691 H 0.9018 0.24089 0.25855 0.0
H692 H 0.81842 0.33368 0.28516 0.0
H693 H 0.7678 0.36547 0.26737 0.0
C694 C 0.78309 0.34717 0.24214 0.0
C695 C 0.79632 0.3354 0.22932 0.0
C696 C 0.80638 0.3229 0.25257 0.0
C697 C 0.82934 0.29547 0.22701 0.0
C698 C 0.8526 0.27089 0.23736 0.0
C699 C 0.87183 0.26724 0.2605 0.0
C700 C 0.86478 0.28574 0.27314 0.0
C701 C 0.84303 0.28589 0.25016 0.0
C702 C 0.82519 0.31921 0.27552 0.0
C703 C 0.79628 0.33765 0.26533 0.0
H704 H 0.24139 0.09681 0.73528 0.0
H705 H 0.35589 0.15899 0.71055 0.0
H706 H 0.38594 0.21075 0.72835 0.0
H707 H 0.38731 0.22918 0.75162 0.0
H708 H 0.27268 0.16805 0.77642 0.0
H709 H 0.23463 0.12581 0.75788 0.0
C710 C 0.27231 0.1224 0.73372 0.0
C711 C 0.29691 0.12328 0.72166 0.0
C712 C 0.28968 0.15198 0.74404 0.0
C713 C 0.33642 0.15722 0.71974 0.0
C714 C 0.35387 0.18671 0.72995 0.0
C715 C 0.35341 0.20741 0.75292 0.0
C716 C 0.33331 0.20111 0.7654 0.0
C717 C 0.33196 0.18299 0.74224 0.0
C718 C 0.28897 0.17343 0.76691 0.0
C719 C 0.26739 0.14894 0.75633 0.0
H720 H 0.24581 0.59056 0.24729 0.0
H721 H 0.18756 0.71512 0.22542 0.0
H722 H 0.15561 0.75302 0.24532 0.0
H723 H 0.13197 0.743 0.26821 0.0
H724 H 0.18963 0.61752 0.28992 0.0
H725 H 0.23492 0.5884 0.27087 0.0
C726 C 0.22708 0.62656 0.24692 0.0
C727 C 0.21817 0.64953 0.23489 0.0
C728 C 0.20825 0.64773 0.25836 0.0
C729 C 0.19468 0.69656 0.23456 0.0
C730 C 0.17606 0.71807 0.24593 0.0
C731 C 0.15535 0.70991 0.26886 0.0
C732 C 0.1564 0.68184 0.28039 0.0
C733 C 0.18073 0.69284 0.25779 0.0
C734 C 0.18763 0.63958 0.28114 0.0
C735 C 0.21336 0.62267 0.27021 0.0
H736 H 0.74182 0.59852 0.50901 0.0
H737 H 0.6324 0.66292 0.5349 0.0
H738 H 0.59851 0.71292 0.51721 0.0
H739 H 0.59133 0.72765 0.49386 0.0
H740 H 0.69953 0.66235 0.46781 0.0
H741 H 0.74303 0.62413 0.48613 0.0
C742 C 0.7112 0.62425 0.51084 0.0
C743 C 0.68897 0.62613 0.5232 0.0
C744 C 0.69133 0.65235 0.50057 0.0
C745 C 0.64994 0.66032 0.52547 0.0
C746 C 0.63031 0.68877 0.51533 0.0
C747 C 0.62502 0.70584 0.49221 0.0
C748 C 0.6416 0.697 0.47948 0.0
C749 C 0.64934 0.68341 0.50275 0.0
C750 C 0.68581 0.6695 0.47751 0.0
C751 C 0.71051 0.64733 0.48798 0.0
H752 H 0.67315 0.3255 0.47155 0.0
H753 H 0.58318 0.21678 0.49184 0.0
H754 H 0.62632 0.23641 0.51203 0.0
H755 H 0.67775 0.29568 0.52451 0.0
H756 H 0.76216 0.4088 0.50431 0.0
H757 H 0.73406 0.37564 0.48354 0.0
C758 C 0.66386 0.30514 0.48031 0.0
C759 C 0.62429 0.27054 0.48023 0.0
C760 C 0.68757 0.31786 0.49198 0.0
C761 C 0.61298 0.24424 0.49167 0.0
C762 C 0.63754 0.25554 0.50325 0.0
C763 C 0.69127 0.3119 0.51554 0.0
C764 C 0.72146 0.35487 0.51591 0.0
C765 C 0.67318 0.29398 0.50363 0.0
C766 C 0.73847 0.37591 0.50424 0.0
C767 C 0.72222 0.35715 0.49236 0.0
H768 H 0.25 0.38206 0.51018 0.0
H769 H 0.36515 0.32442 0.53546 0.0
H770 H 0.40005 0.27585 0.51762 0.0
H771 H 0.40586 0.26096 0.49424 0.0
H772 H 0.29203 0.32009 0.46881 0.0
H773 H 0.24827 0.35626 0.48736 0.0
C774 C 0.28212 0.35807 0.51186 0.0
C775 C 0.30559 0.35776 0.52406 0.0
C776 C 0.30264 0.33099 0.50149 0.0
C777 C 0.34661 0.32579 0.52614 0.0
C778 C 0.36683 0.2982 0.51591 0.0
C779 C 0.371 0.28103 0.49277 0.0
C780 C 0.35281 0.28875 0.48014 0.0
C781 C 0.34645 0.30231 0.50344 0.0
C782 C 0.30708 0.31394 0.47842 0.0
C783 C 0.28216 0.33488 0.48902 0.0
H784 H 0.30744 0.6878 0.52299 0.0
H785 H 0.23339 0.5672 0.50295 0.0
H786 H 0.26285 0.59949 0.48221 0.0
H787 H 0.32264 0.65184 0.47043 0.0
H788 H 0.40289 0.76781 0.49074 0.0
H789 H 0.35745 0.74824 0.51061 0.0
C790 C 0.29645 0.6696 0.51404 0.0
C791 C 0.2689 0.62491 0.51448 0.0
C792 C 0.31541 0.68709 0.5022 0.0
C793 C 0.2551 0.60143 0.50284 0.0
C794 C 0.27211 0.61972 0.49098 0.0
C795 C 0.3292 0.67374 0.47911 0.0
C796 C 0.36672 0.71051 0.47919 0.0
C797 C 0.30437 0.661 0.49062 0.0
C798 C 0.37469 0.73871 0.4905 0.0
C799 C 0.34883 0.72747 0.50188 0.0
H800 H 0.00822 0.06775 0.29483 0.0
H801 H 0.02795 0.09513 0.33561 0.0
H802 H 0.01763 0.00551 0.34013 0.0
H803 H 0.00458 0.91899 0.33214 0.0
H804 H 0.98463 0.89385 0.29126 0.0
H805 H 0.99227 0.98341 0.28703 0.0
C806 C 0.00943 0.05409 0.30472 0.0
C807 C 0.01827 0.0874 0.31491 0.0
C808 C 0.00333 0.00317 0.30717 0.0
C809 C 0.02112 0.0696 0.32766 0.0
C810 C 0.01512 0.01863 0.33022 0.0
C811 C 0.00163 0.93359 0.32237 0.0
C812 C 0.99446 0.90074 0.31198 0.0
C813 C 0.00641 0.98503 0.32003 0.0
C814 C 0.99052 0.91913 0.29932 0.0
C815 C 0.99489 0.97005 0.29691 0.0
H816 H 0.08705 0.0542 0.68165 0.0
H817 H 0.07071 0.8937 0.6816 0.0
H818 H 0.98019 0.9022 0.6798 0.0
H819 H 0.905 0.95513 0.68027 0.0
H820 H 0.92152 0.11461 0.68492 0.0
H821 H 0.01197 0.10691 0.68283 0.0
C822 C 0.06362 0.02112 0.68126 0.0
C823 C 0.08574 0.97348 0.68161 0.0
C824 C 0.01135 0.02621 0.68109 0.0
C825 C 0.05494 0.9309 0.68097 0.0
C826 C 0.003 0.9357 0.68013 0.0
C827 C 0.92846 0.98815 0.68082 0.0
C828 C 0.90639 0.03537 0.68256 0.0
C829 C 0.98074 0.98315 0.68047 0.0
C830 C 0.93724 0.07791 0.68318 0.0
C831 C 0.98914 0.0735 0.68217 0.0
H832 H 0.93083 0.56515 0.93624 0.0
H833 H 0.08501 0.6126 0.93627 0.0
H834 H 0.11265 0.52532 0.93593 0.0
H835 H 0.09255 0.43569 0.93797 0.0
H836 H 0.93842 0.38832 0.93675 0.0
H837 H 0.91103 0.47539 0.93504 0.0
C838 C 0.97044 0.55641 0.93579 0.0
C839 C 0.00588 0.59517 0.93642 0.0
C840 C 0.986 0.50617 0.93553 0.0
C841 C 0.05709 0.58325 0.93599 0.0
C842 C 0.07289 0.53341 0.93579 0.0
C843 C 0.05307 0.44439 0.93699 0.0
C844 C 0.01747 0.40578 0.93767 0.0
C845 C 0.03766 0.49453 0.93591 0.0
C846 C 0.96642 0.41759 0.93648 0.0
C847 C 0.95076 0.46731 0.93548 0.0
H848 H 0.58618 0.93736 0.06622 0.0
H849 H 0.57362 0.09765 0.06285 0.0
H850 H 0.48312 0.09235 0.06554 0.0
H851 H 0.40694 0.0415 0.06623 0.0
H852 H 0.41894 0.88067 0.06574 0.0
H853 H 0.50986 0.88649 0.06736 0.0
C854 C 0.56349 0.97103 0.06616 0.0
C855 C 0.58635 0.01773 0.06442 0.0
C856 C 0.5113 0.96748 0.06697 0.0
C857 C 0.5569 0.06129 0.06445 0.0
C858 C 0.5051 0.05827 0.06583 0.0
C859 C 0.4296 0.00783 0.06657 0.0
C860 C 0.4065 0.96086 0.0659 0.0
C861 C 0.48184 0.01148 0.06673 0.0
C862 C 0.4359 0.91733 0.06648 0.0
C863 C 0.48791 0.92061 0.06724 0.0
H864 H 0.4751 0.42923 0.78849 0.0
H865 H 0.46157 0.41316 0.82983 0.0
H866 H 0.47945 0.50265 0.8327 0.0
H867 H 0.49846 0.5859 0.82317 0.0
H868 H 0.51234 0.59974 0.78176 0.0
H869 H 0.49575 0.5105 0.77912 0.0
C870 C 0.47659 0.44532 0.79813 0.0
C871 C 0.4674 0.415 0.80895 0.0
C872 C 0.48708 0.49627 0.79965 0.0
C873 C 0.46846 0.43616 0.82138 0.0
C874 C 0.47883 0.48712 0.82301 0.0
C875 C 0.49801 0.56901 0.81363 0.0
C876 C 0.50603 0.59896 0.80266 0.0
C877 C 0.48818 0.51759 0.81219 0.0
C878 C 0.50562 0.57717 0.7903 0.0
C879 C 0.49621 0.52628 0.78879 0.0
H880 H 0.56629 0.42504 0.18654 0.0
H881 H 0.60935 0.57997 0.1897 0.0
H882 H 0.52143 0.60527 0.18891 0.0
H883 H 0.43249 0.58232 0.1896 0.0
H884 H 0.38929 0.42837 0.1842 0.0
H885 H 0.47745 0.40349 0.18347 0.0
C886 C 0.55656 0.4644 0.18667 0.0
C887 C 0.59415 0.50057 0.1884 0.0
C888 C 0.50602 0.47871 0.18595 0.0
C889 C 0.58088 0.55141 0.18867 0.0
C890 C 0.53069 0.56589 0.18818 0.0
C891 C 0.44227 0.54356 0.18783 0.0
C892 C 0.40446 0.50714 0.18707 0.0
C893 C 0.4929 0.52975 0.18715 0.0
C894 C 0.41786 0.45694 0.18502 0.0
C895 C 0.46819 0.44273 0.18457 0.0
H896 H 0.56905 0.9233 0.43162 0.0
H897 H 0.41268 0.88387 0.43324 0.0
H898 H 0.38947 0.97224 0.43213 0.0
H899 H 0.41478 0.06028 0.4341 0.0
H900 H 0.57065 0.09971 0.4306 0.0
H901 H 0.59322 0.01127 0.42886 0.0
C902 C 0.52989 0.9339 0.43125 0.0
C903 C 0.49259 0.89744 0.43282 0.0
C904 C 0.51689 0.98461 0.43046 0.0
C905 C 0.442 0.91165 0.43238 0.0
C906 C 0.42873 0.96206 0.43174 0.0
C907 C 0.45345 0.04961 0.43246 0.0
C908 C 0.49115 0.08612 0.43266 0.0
C909 C 0.46598 -0.0011 0.43129 0.0
C910 C 0.54118 0.07188 0.4307 0.0
C911 C 0.55406 0.02146 0.4297 0.0
H912 H 0.06565 0.56867 0.56392 0.0
H913 H 0.10103 0.41148 0.56648 0.0
H914 H 0.01177 0.39137 0.56719 0.0
H915 H 0.92476 0.4187 0.56447 0.0
H916 H 0.88936 0.57613 0.5656 0.0
H917 H 0.9786 0.59634 0.56625 0.0
C918 C 0.05414 0.53013 0.56518 0.0
C919 C 0.08989 0.49153 0.56497 0.0
C920 C 0.00305 0.51903 0.56608 0.0
C921 C 0.07404 0.44174 0.56632 0.0
C922 C 0.02313 0.43026 0.56677 0.0
C923 C 0.93627 0.45739 0.56541 0.0
C924 C 0.90053 0.49594 0.56482 0.0
C925 C 0.98734 0.4686 0.56629 0.0
C926 C 0.91635 0.54588 0.56574 0.0
C927 C 0.96726 0.55742 0.56617 0.0
H928 H 0.92063 0.55696 0.31815 0.0
H929 H 0.0751 0.59645 0.32458 0.0
H930 H 0.09733 0.50814 0.32662 0.0
H931 H 0.0758 0.42126 0.32189 0.0
H932 H 0.92324 0.38261 0.31248 0.0
H933 H 0.89696 0.46871 0.31649 0.0
C934 C 0.95877 0.54614 0.32045 0.0
C935 C 0.99634 0.58267 0.3211 0.0
C936 C 0.97169 0.49538 0.3208 0.0
C937 C 0.04576 0.56858 0.32395 0.0
C938 C 0.05848 0.51819 0.32503 0.0
C939 C 0.03659 0.43139 0.32107 0.0
C940 C 0.00165 0.39607 0.31667 0.0
C941 C 0.02225 0.48134 0.32275 0.0
C942 C 0.95094 0.40954 0.31566 0.0
C943 C 0.93591 0.45873 0.31792 0.0
H944 H 0.40199 0.04885 0.68509 0.0
H945 H 0.4291 0.89041 0.68138 0.0
H946 H 0.51926 0.90527 0.6807 0.0
H947 H 0.59036 0.96255 0.68395 0.0
H948 H 0.56324 0.12134 0.68645 0.0
H949 H 0.47318 0.1072 0.68466 0.0
C950 C 0.42767 0.01774 0.68387 0.0
C951 C 0.40909 0.96864 0.68347 0.0
C952 C 0.47943 0.02656 0.68339 0.0
C953 C 0.44257 0.92861 0.68171 0.0
C954 C 0.49414 0.93702 0.68142 0.0
C955 C 0.56469 0.99402 0.68386 0.0
C956 C 0.58318 0.04277 0.68552 0.0
C957 C 0.51301 0.98569 0.68268 0.0
C958 C 0.54979 0.08341 0.68521 0.0
C959 C 0.49829 0.07537 0.68426 0.0
H960 H 0.9601 0.09478 0.94054 0.0
H961 H 0.11888 0.06893 0.93686 0.0
H962 H 0.10441 0.97902 0.93509 0.0
H963 H 0.04721 0.90706 0.93719 0.0
H964 H 0.88807 0.93268 0.93902 0.0
H965 H 0.90185 0.0232 0.93874 0.0
C966 C 0.99136 0.06946 0.93909 0.0
C967 C 0.04049 0.08836 0.93899 0.0
C968 C 0.98271 0.01775 0.93783 0.0
C969 C 0.08069 0.0553 0.93696 0.0
C970 C 0.07249 0.00381 0.93603 0.0
C971 C 0.01561 0.93258 0.93721 0.0
C972 C 0.96678 0.91347 0.93821 0.0
C973 C 0.02379 0.98451 0.93682 0.0
C974 C 0.926 0.94667 0.93817 0.0
C975 C 0.93388 -0.0016 0.93812 0.0
H976 H 0.93193 0.07151 0.06207 0.0
H977 H 0.88318 0.91786 0.06052 0.0
H978 H 0.96927 0.88939 0.06385 0.0
H979 H 0.05901 0.90827 0.06408 0.0
H980 H 0.10835 0.06166 0.06247 0.0
H981 H 0.02148 0.09047 0.06374 0.0
C982 C 0.94011 0.03183 0.06276 0.0
C983 C 0.9016 0.99674 0.06103 0.0
C984 C 0.98985 0.01584 0.06402 0.0
C985 C 0.9125 0.94544 0.06175 0.0
C986 C 0.96162 0.9292 0.06364 0.0
C987 C 0.05068 0.94799 0.06436 0.0
C988 C 0.08965 0.98291 0.06323 0.0
C989 C 0.00074 0.96406 0.06434 0.0
C990 C 0.07867 0.03425 0.06334 0.0
C991 C 0.02911 0.05065 0.064 0.0
H992 H 0.53563 0.1025 0.80978 0.0
H993 H 0.37662 0.07705 0.813 0.0
H994 H 0.39101 0.9872 0.81492 0.0
H995 H 0.44791 0.91543 0.81225 0.0
H996 H 0.6071 0.9405 0.81005 0.0
H997 H 0.59369 0.03087 0.8114 0.0
C998 C 0.50427 0.07732 0.81121 0.0
C999 C 0.45512 0.09626 0.81104 0.0
C1000 C 0.51282 0.02563 0.81238 0.0
C1001 C 0.41482 0.0634 0.81308 0.0
C1002 C 0.42298 0.01194 0.81408 0.0
C1003 C 0.47966 0.94072 0.81242 0.0
C1004 C 0.52832 0.92157 0.8109 0.0
C1005 C 0.47166 0.99254 0.81324 0.0
C1006 C 0.56929 0.95446 0.81125 0.0
C1007 C 0.5616 0.00615 0.8119 0.0
H1008 H 0.90495 0.55566 0.19224 0.0
H1009 H 0.93007 0.39905 0.18454 0.0
H1010 H 0.01995 0.414 0.1827 0.0
H1011 H 0.09205 0.46973 0.18615 0.0
H1012 H 0.06729 0.62716 0.19248 0.0
H1013 H 0.9766 0.61406 0.19178 0.0
C1014 C 0.93009 0.52508 0.1899 0.0
C1015 C 0.9111 0.47626 0.18871 0.0
C1016 C 0.98174 0.53405 0.18869 0.0
C1017 C 0.94384 0.43698 0.1855 0.0
C1018 C 0.99528 0.44542 0.18453 0.0
C1019 C 0.06668 0.50127 0.18705 0.0
C1020 C 0.08602 0.54919 0.18949 0.0
C1021 C 0.01475 0.4935 0.18652 0.0
C1022 C 0.05308 0.58995 0.19055 0.0
C1023 C 0.00128 0.5824 0.19026 0.0
H1024 H 0.57917 0.5571 0.43565 0.0
H1025 H 0.42496 0.60463 0.4362 0.0
H1026 H 0.3973 0.51782 0.43401 0.0
H1027 H 0.4169 0.4282 0.43517 0.0
H1028 H 0.57086 0.38065 0.43766 0.0
H1029 H 0.59891 0.46725 0.43527 0.0
C1030 C 0.5396 0.54839 0.43493 0.0
C1031 C 0.50407 0.58692 0.43602 0.0
C1032 C 0.52402 0.49825 0.43438 0.0
C1033 C 0.45286 0.57536 0.43536 0.0
C1034 C 0.43708 0.52579 0.43417 0.0
C1035 C 0.45658 0.43678 0.43485 0.0
C1036 C 0.49182 0.39832 0.43656 0.0
C1037 C 0.47228 0.48683 0.43414 0.0
C1038 C 0.54312 0.40983 0.43638 0.0
C1039 C 0.55913 0.4593 0.43505 0.0
H1040 H 0.40276 0.44769 0.56053 0.0
H1041 H 0.42336 0.60767 0.55984 0.0
H1042 H 0.5141 0.59664 0.56114 0.0
H1043 H 0.58742 0.54109 0.55964 0.0
H1044 H 0.56676 0.38122 0.56132 0.0
H1045 H 0.4761 0.39256 0.56266 0.0
C1046 C 0.42717 0.48009 0.56092 0.0
C1047 C 0.40669 0.52834 0.5599 0.0
C1048 C 0.47916 0.47347 0.56174 0.0
C1049 C 0.43841 0.57013 0.5606 0.0
C1050 C 0.49026 0.56385 0.56126 0.0
C1051 C 0.56303 0.50884 0.56054 0.0
C1052 C 0.58347 0.46043 0.56018 0.0
C1053 C 0.51105 0.51566 0.5614 0.0
C1054 C 0.55176 0.41887 0.56156 0.0
C1055 C 0.49994 0.42531 0.56224 0.0
H1056 H 0.31246 0.31579 0.39066 0.0
H1057 H 0.22264 0.18911 0.40214 0.0
H1058 H 0.1874 0.1841 0.38044 0.0
H1059 H 0.18416 0.21361 0.35796 0.0
H1060 H 0.27739 0.33674 0.34607 0.0
H1061 H 0.3109 0.34398 0.36807 0.0
C1062 C 0.28631 0.28621 0.38839 0.0
C1063 C 0.2713 0.25216 0.39802 0.0
C1064 C 0.26683 0.28284 0.37579 0.0
C1065 C 0.23515 0.21577 0.39494 0.0
C1066 C 0.21501 0.2127 0.38251 0.0
C1067 C 0.21115 0.24252 0.36027 0.0
C1068 C 0.22768 0.27522 0.35055 0.0
C1069 C 0.23071 0.24588 0.37284 0.0
C1070 C 0.26407 0.31135 0.35348 0.0
C1071 C 0.28312 0.31552 0.36603 0.0
H1072 H 0.18367 0.76827 0.64054 0.0
H1073 H 0.34452 0.77007 0.64344 0.0
H1074 H 0.35171 0.74413 0.62073 0.0
H1075 H 0.31164 0.72105 0.60005 0.0
H1076 H 0.15075 0.72449 0.59692 0.0
H1077 H 0.14384 0.74898 0.61967 0.0
C1078 C 0.22018 0.76266 0.63616 0.0
C1079 C 0.26353 0.77048 0.64353 0.0
C1080 C 0.22388 0.74913 0.62308 0.0
C1081 C 0.31077 0.76405 0.63784 0.0
C1082 C 0.31483 0.74932 0.6249 0.0
C1083 C 0.27519 0.72716 0.60441 0.0
C1084 C 0.23174 0.72063 0.59696 0.0
C1085 C 0.2716 0.7418 0.61743 0.0
C1086 C 0.18465 0.72947 0.60254 0.0
C1087 C 0.18068 0.74317 0.61553 0.0
H1088 H 0.83905 0.75792 0.36221 0.0
H1089 H 0.70162 0.71446 0.34335 0.0
H1090 H 0.65889 0.71335 0.36422 0.0
H1091 H 0.66056 0.72542 0.38777 0.0
H1092 H 0.80016 0.76099 0.40668 0.0
H1093 H 0.84237 0.7637 0.38575 0.0
C1094 C 0.80038 0.74631 0.36259 0.0
C1095 C 0.77427 0.73472 0.35116 0.0
C1096 C 0.77632 0.7444 0.37466 0.0
C1097 C 0.72295 0.72321 0.35197 0.0
C1098 C 0.69843 0.72236 0.36392 0.0
C1099 C 0.70053 0.73193 0.38741 0.0
C1100 C 0.72738 0.74151 0.39886 0.0
C1101 C 0.72483 0.73261 0.37535 0.0
C1102 C 0.77865 0.75297 0.39803 0.0
C1103 C 0.80285 0.75455 0.38607 0.0
H1104 H 0.80662 0.23871 0.64454 0.0
H1105 H 0.64623 0.24616 0.64831 0.0
H1106 H 0.63839 0.26813 0.62534 0.0
H1107 H 0.67756 0.28327 0.60407 0.0
H1108 H 0.8377 0.27023 0.60009 0.0
H1109 H 0.84551 0.25159 0.62319 0.0
C1110 C 0.77012 0.24574 0.6403 0.0
C1111 C 0.72707 0.24161 0.64799 0.0
C1112 C 0.76595 0.25671 0.62706 0.0
C1113 C 0.67976 0.24961 0.64247 0.0
C1114 C 0.67532 0.26194 0.62938 0.0
C1115 C 0.71408 0.27657 0.60832 0.0
C1116 C 0.75704 0.27851 0.60049 0.0
C1117 C 0.71816 0.26529 0.62155 0.0
C1118 C 0.80414 0.26876 0.60597 0.0
C1119 C 0.80864 0.2584 0.61917 0.0
H1120 H 0.21393 0.31531 0.8922 0.0
H1121 H 0.24492 0.159 0.89829 0.0
H1122 H 0.26811 0.14948 0.87542 0.0
H1123 H 0.27881 0.18604 0.85366 0.0
H1124 H 0.24097 0.34078 0.84727 0.0
H1125 H 0.22074 0.35083 0.87026 0.0
C1126 C 0.22601 0.27934 0.88846 0.0
C1127 C 0.22837 0.23797 0.89677 0.0
C1128 C 0.23774 0.27399 0.87529 0.0
C1129 C 0.24316 0.19122 0.89194 0.0
C1130 C 0.25632 0.18585 0.87892 0.0
C1131 C 0.2663 0.2219 0.85737 0.0
C1132 C 0.26179 0.2628 0.84893 0.0
C1133 C 0.25369 0.22698 0.8705 0.0
C1134 C 0.24463 0.3089 0.85368 0.0
C1135 C 0.23326 0.31466 0.86679 0.0
H1136 H 0.17956 0.73354 0.14929 0.0
H1137 H 0.34062 0.74045 0.15108 0.0
H1138 H 0.34426 0.76176 0.12805 0.0
H1139 H 0.30149 0.77626 0.10728 0.0
H1140 H 0.14038 0.77481 0.1057 0.0
H1141 H 0.13648 0.75304 0.12877 0.0
C1142 C 0.21532 0.73979 0.14458 0.0
C1143 C 0.25979 0.73499 0.15172 0.0
C1144 C 0.21699 0.75258 0.13141 0.0
C1145 C 0.30598 0.74404 0.1457 0.0
C1146 C 0.30807 0.75592 0.13255 0.0
C1147 C 0.26566 0.77093 0.11204 0.0
C1148 C 0.22127 0.77634 0.10494 0.0
C1149 C 0.26385 0.75982 0.1253 0.0
C1150 C 0.17488 0.77043 0.1111 0.0
C1151 C 0.17272 0.75811 0.12423 0.0
H1152 H 0.71604 0.72705 0.89672 0.0
H1153 H 0.86916 0.76105 0.88681 0.0
H1154 H 0.84667 0.76655 0.86399 0.0
H1155 H 0.78337 0.76244 0.84685 0.0
H1156 H 0.63268 0.71763 0.85648 0.0
H1157 H 0.65433 0.71549 0.87931 0.0
C1158 C 0.74442 0.73582 0.88956 0.0
C1159 C 0.79361 0.74628 0.89354 0.0
C1160 C 0.73161 0.73708 0.87638 0.0
C1161 C 0.83034 0.75597 0.88412 0.0
C1162 C 0.8177 0.75825 0.87102 0.0
C1163 C 0.7552 0.75211 0.85392 0.0
C1164 C 0.7058 0.74256 0.84992 0.0
C1165 C 0.76835 0.74929 0.86706 0.0
C1166 C 0.67019 0.72814 0.85923 0.0
C1167 C 0.68277 0.72606 0.87234 0.0
H1168 H 0.7714 0.28552 0.09728 0.0
H1169 H 0.75273 0.13047 0.10772 0.0
H1170 H 0.75007 0.15289 0.13057 0.0
H1171 H 0.7515 0.21671 0.14765 0.0
H1172 H 0.76081 0.3725 0.13717 0.0
H1173 H 0.76859 0.34987 0.11435 0.0
C1174 C 0.76715 0.2567 0.10459 0.0
C1175 C 0.76472 0.20623 0.10084 0.0
C1176 C 0.76395 0.27004 0.11772 0.0
C1177 C 0.75765 0.16933 0.11037 0.0
C1178 C 0.75525 0.18219 0.12345 0.0
C1179 C 0.75548 0.24564 0.14036 0.0
C1180 C 0.75773 0.29604 0.14414 0.0
C1181 C 0.75846 0.2324 0.12724 0.0
C1182 C 0.76161 0.33327 0.13458 0.0
C1183 C 0.76532 0.32039 0.1215 0.0
loop_
_geom_bond_atom_site_label_1
_geom_bond_atom_site_label_2
_geom_bond_distance
_geom_bond_site_symmetry_2
_ccdc_geom_bond_type
Co0 O3 1.970 1_455 S
Co0 N17 1.989 . S
Co0 O25 1.967 . S
Co0 O32 1.920 1_455 S
Co1 O4 1.966 . S
Co1 N10 2.022 . S
Co1 N18 1.993 . S
Co1 O26 1.941 . S
C2 O3 1.258 1_455 S
C2 O4 1.263 . S
O3 Co0 1.970 1_655 S
O3 C2 1.258 1_655 S
O4 Co1 1.966 . S
O4 C2 1.263 . S
C5 O6 1.235 . S
C5 O32 1.289 . S
O6 C5 1.235 . S
C7 C9 1.400 . S
C7 N10 1.351 . S
C7 C12 1.501 . S
C8 C9 1.387 . S
C8 N11 1.341 . S
C9 C7 1.400 . S
C9 C8 1.387 . S
N10 Co1 2.022 . S
N10 C7 1.351 . S
N10 N11 1.365 . S
N11 C8 1.341 . S
N11 N10 1.365 . S
N11 H31 0.862 . S
C12 C7 1.501 . S
C12 H13 0.961 . S
C12 H14 0.961 . S
C12 H15 0.960 . S
H13 C12 0.961 . S
H14 C12 0.961 . S
H15 C12 0.960 . S
C16 N17 1.342 . S
C16 C20 1.401 . S
C16 C21 1.499 1_455 S
N17 Co0 1.989 . S
N17 C16 1.342 . S
N17 N18 1.388 . S
N18 Co1 1.993 . S
N18 N17 1.388 . S
N18 C19 1.346 . S
C19 N18 1.346 . S
C19 C20 1.396 . S
C19 C29 1.510 . S
C20 C16 1.401 . S
C20 C19 1.396 . S
C21 C16 1.499 1_655 S
C21 H22 0.959 . S
C21 H23 0.960 . S
C21 H24 0.961 . S
H22 C21 0.959 . S
H23 C21 0.960 . S
H24 C21 0.961 . S
O25 Co0 1.967 . S
O25 C33 1.258 . S
O26 Co1 1.941 . S
O26 C33 1.266 . S
H27 C29 0.959 . S
H28 C29 0.961 . S
C29 C19 1.510 . S
C29 H27 0.959 . S
C29 H28 0.961 . S
C29 H30 0.960 . S
H30 C29 0.960 . S
H31 N11 0.862 . S
O32 Co0 1.920 1_655 S
O32 C5 1.289 . S
C33 O25 1.258 . S
C33 O26 1.266 . S
Co34 O37 1.970 1_565 S
Co34 N51 1.989 . S
Co34 O59 1.967 . S
Co34 O66 1.920 1_565 S
Co35 O38 1.966 . S
Co35 N44 2.022 . S
Co35 N52 1.993 . S
Co35 O60 1.941 . S
C36 O37 1.258 1_565 S
C36 O38 1.263 . S
O37 Co34 1.970 1_545 S
O37 C36 1.258 1_545 S
O38 Co35 1.966 . S
O38 C36 1.263 . S
C39 O40 1.235 . S
C39 O66 1.289 . S
O40 C39 1.235 . S
C41 C43 1.400 . S
C41 N44 1.351 . S
C41 C46 1.501 . S
C42 C43 1.387 . S
C42 N45 1.341 . S
C43 C41 1.400 . S
C43 C42 1.387 . S
N44 Co35 2.022 . S
N44 C41 1.351 . S
N44 N45 1.365 . S
N45 C42 1.341 . S
N45 N44 1.365 . S
N45 H65 0.862 . S
C46 C41 1.501 . S
C46 H47 0.961 . S
C46 H48 0.961 . S
C46 H49 0.960 . S
H47 C46 0.961 . S
H48 C46 0.961 . S
H49 C46 0.960 . S
C50 N51 1.342 . S
C50 C54 1.401 . S
C50 C55 1.499 1_565 S
N51 Co34 1.989 . S
N51 C50 1.342 . S
N51 N52 1.388 . S
N52 Co35 1.993 . S
N52 N51 1.388 . S
N52 C53 1.346 . S
C53 N52 1.346 . S
C53 C54 1.396 . S
C53 C63 1.510 . S
C54 C50 1.401 . S
C54 C53 1.396 . S
C55 C50 1.499 1_545 S
C55 H56 0.959 . S
C55 H57 0.960 . S
C55 H58 0.961 . S
H56 C55 0.959 . S
H57 C55 0.960 . S
H58 C55 0.961 . S
O59 Co34 1.967 . S
O59 C67 1.258 . S
O60 Co35 1.941 . S
O60 C67 1.266 . S
H61 C63 0.959 . S
H62 C63 0.961 . S
C63 C53 1.510 . S
C63 H61 0.959 . S
C63 H62 0.961 . S
C63 H64 0.960 . S
H64 C63 0.960 . S
H65 N45 0.862 . S
O66 Co34 1.920 1_545 S
O66 C39 1.289 . S
C67 O59 1.258 . S
C67 O60 1.266 . S
Co68 O71 1.970 1_655 S
Co68 N85 1.989 . S
Co68 O93 1.967 . S
Co68 O100 1.920 1_655 S
Co69 O72 1.966 . S
Co69 N78 2.022 . S
Co69 N86 1.993 . S
Co69 O94 1.941 . S
C70 O71 1.258 1_655 S
C70 O72 1.263 . S
O71 Co68 1.970 1_455 S
O71 C70 1.258 1_455 S
O72 Co69 1.966 . S
O72 C70 1.263 . S
C73 O74 1.235 . S
C73 O100 1.289 . S
O74 C73 1.235 . S
C75 C77 1.400 . S
C75 N78 1.351 . S
C75 C80 1.501 . S
C76 C77 1.387 . S
C76 N79 1.341 . S
C77 C75 1.400 . S
C77 C76 1.387 . S
N78 Co69 2.022 . S
N78 C75 1.351 . S
N78 N79 1.365 . S
N79 C76 1.341 . S
N79 N78 1.365 . S
N79 H99 0.862 . S
C80 C75 1.501 . S
C80 H81 0.961 . S
C80 H82 0.961 . S
C80 H83 0.960 . S
H81 C80 0.961 . S
H82 C80 0.961 . S
H83 C80 0.960 . S
C84 N85 1.342 . S
C84 C88 1.401 . S
C84 C89 1.499 1_655 S
N85 Co68 1.989 . S
N85 C84 1.342 . S
N85 N86 1.388 . S
N86 Co69 1.993 . S
N86 N85 1.388 . S
N86 C87 1.346 . S
C87 N86 1.346 . S
C87 C88 1.396 . S
C87 C97 1.510 . S
C88 C84 1.401 . S
C88 C87 1.396 . S
C89 C84 1.499 1_455 S
C89 H90 0.959 . S
C89 H91 0.960 . S
C89 H92 0.961 . S
H90 C89 0.959 . S
H91 C89 0.960 . S
H92 C89 0.961 . S
O93 Co68 1.967 . S
O93 C101 1.258 . S
O94 Co69 1.941 . S
O94 C101 1.266 . S
H95 C97 0.959 . S
H96 C97 0.961 . S
C97 C87 1.510 . S
C97 H95 0.959 . S
C97 H96 0.961 . S
C97 H98 0.960 . S
H98 C97 0.960 . S
H99 N79 0.862 . S
O100 Co68 1.920 1_455 S
O100 C73 1.289 . S
C101 O93 1.258 . S
C101 O94 1.266 . S
Co102 O105 1.970 1_545 S
Co102 N119 1.989 . S
Co102 O127 1.967 . S
Co102 O134 1.920 1_545 S
Co103 O106 1.966 . S
Co103 N112 2.022 . S
Co103 N120 1.993 . S
Co103 O128 1.941 . S
C104 O105 1.258 1_545 S
C104 O106 1.263 . S
O105 Co102 1.970 1_565 S
O105 C104 1.258 1_565 S
O106 Co103 1.966 . S
O106 C104 1.263 . S
C107 O108 1.235 . S
C107 O134 1.289 . S
O108 C107 1.235 . S
C109 C111 1.400 . S
C109 N112 1.351 . S
C109 C114 1.501 . S
C110 C111 1.387 . S
C110 N113 1.341 . S
C111 C109 1.400 . S
C111 C110 1.387 . S
N112 Co103 2.022 . S
N112 C109 1.351 . S
N112 N113 1.365 . S
N113 C110 1.341 . S
N113 N112 1.365 . S
N113 H133 0.862 . S
C114 C109 1.501 . S
C114 H115 0.961 . S
C114 H116 0.961 . S
C114 H117 0.960 . S
H115 C114 0.961 . S
H116 C114 0.961 . S
H117 C114 0.960 . S
C118 N119 1.342 . S
C118 C122 1.401 . S
C118 C123 1.499 1_545 S
N119 Co102 1.989 . S
N119 C118 1.342 . S
N119 N120 1.388 . S
N120 Co103 1.993 . S
N120 N119 1.388 . S
N120 C121 1.346 . S
C121 N120 1.346 . S
C121 C122 1.396 . S
C121 C131 1.510 . S
C122 C118 1.401 . S
C122 C121 1.396 . S
C123 C118 1.499 1_565 S
C123 H124 0.959 . S
C123 H125 0.960 . S
C123 H126 0.961 . S
H124 C123 0.959 . S
H125 C123 0.960 . S
H126 C123 0.961 . S
O127 Co102 1.967 . S
O127 C135 1.258 . S
O128 Co103 1.941 . S
O128 C135 1.266 . S
H129 C131 0.959 . S
H130 C131 0.961 . S
C131 C121 1.510 . S
C131 H129 0.959 . S
C131 H130 0.961 . S
C131 H132 0.960 . S
H132 C131 0.960 . S
H133 N113 0.862 . S
O134 Co102 1.920 1_565 S
O134 C107 1.289 . S
C135 O127 1.258 . S
C135 O128 1.266 . S
Co136 O139 1.970 1_455 S
Co136 N153 1.989 . S
Co136 O161 1.967 . S
Co136 O168 1.920 1_455 S
Co137 O140 1.966 . S
Co137 N146 2.022 . S
Co137 N154 1.993 . S
Co137 O162 1.941 . S
C138 O139 1.258 1_455 S
C138 O140 1.263 . S
O139 Co136 1.970 1_655 S
O139 C138 1.258 1_655 S
O140 Co137 1.966 . S
O140 C138 1.263 . S
C141 O142 1.235 . S
C141 O168 1.289 . S
O142 C141 1.235 . S
C143 C145 1.400 . S
C143 N146 1.351 . S
C143 C148 1.501 . S
C144 C145 1.387 . S
C144 N147 1.341 . S
C145 C143 1.400 . S
C145 C144 1.387 . S
N146 Co137 2.022 . S
N146 C143 1.351 . S
N146 N147 1.365 . S
N147 C144 1.341 . S
N147 N146 1.365 . S
N147 H167 0.862 . S
C148 C143 1.501 . S
C148 H149 0.961 . S
C148 H150 0.961 . S
C148 H151 0.960 . S
H149 C148 0.961 . S
H150 C148 0.961 . S
H151 C148 0.960 . S
C152 N153 1.342 . S
C152 C156 1.401 . S
C152 C157 1.499 1_455 S
N153 Co136 1.989 . S
N153 C152 1.342 . S
N153 N154 1.388 . S
N154 Co137 1.993 . S
N154 N153 1.388 . S
N154 C155 1.346 . S
C155 N154 1.346 . S
C155 C156 1.396 . S
C155 C165 1.510 . S
C156 C152 1.401 . S
C156 C155 1.396 . S
C157 C152 1.499 1_655 S
C157 H158 0.959 . S
C157 H159 0.960 . S
C157 H160 0.961 . S
H158 C157 0.959 . S
H159 C157 0.960 . S
H160 C157 0.961 . S
O161 Co136 1.967 . S
O161 C169 1.258 . S
O162 Co137 1.941 . S
O162 C169 1.266 . S
H163 C165 0.959 . S
H164 C165 0.961 . S
C165 C155 1.510 . S
C165 H163 0.959 . S
C165 H164 0.961 . S
C165 H166 0.960 . S
H166 C165 0.960 . S
H167 N147 0.862 . S
O168 Co136 1.920 1_655 S
O168 C141 1.289 . S
C169 O161 1.258 . S
C169 O162 1.266 . S
Co170 O173 1.970 1_565 S
Co170 N187 1.989 . S
Co170 O195 1.967 . S
Co170 O202 1.920 1_565 S
Co171 O174 1.966 . S
Co171 N180 2.022 . S
Co171 N188 1.993 . S
Co171 O196 1.941 . S
C172 O173 1.258 1_565 S
C172 O174 1.263 . S
O173 Co170 1.970 1_545 S
O173 C172 1.258 1_545 S
O174 Co171 1.966 . S
O174 C172 1.263 . S
C175 O176 1.235 . S
C175 O202 1.289 . S
O176 C175 1.235 . S
C177 C179 1.400 . S
C177 N180 1.351 . S
C177 C182 1.501 . S
C178 C179 1.387 . S
C178 N181 1.341 . S
C179 C177 1.400 . S
C179 C178 1.387 . S
N180 Co171 2.022 . S
N180 C177 1.351 . S
N180 N181 1.365 . S
N181 C178 1.341 . S
N181 N180 1.365 . S
N181 H201 0.862 . S
C182 C177 1.501 . S
C182 H183 0.961 . S
C182 H184 0.961 . S
C182 H185 0.960 . S
H183 C182 0.961 . S
H184 C182 0.961 . S
H185 C182 0.960 . S
C186 N187 1.342 . S
C186 C190 1.401 . S
C186 C191 1.499 1_565 S
N187 Co170 1.989 . S
N187 C186 1.342 . S
N187 N188 1.388 . S
N188 Co171 1.993 . S
N188 N187 1.388 . S
N188 C189 1.346 . S
C189 N188 1.346 . S
C189 C190 1.396 . S
C189 C199 1.510 . S
C190 C186 1.401 . S
C190 C189 1.396 . S
C191 C186 1.499 1_545 S
C191 H192 0.959 . S
C191 H193 0.960 . S
C191 H194 0.961 . S
H192 C191 0.959 . S
H193 C191 0.960 . S
H194 C191 0.961 . S
O195 Co170 1.967 . S
O195 C203 1.258 . S
O196 Co171 1.941 . S
O196 C203 1.266 . S
H197 C199 0.959 . S
H198 C199 0.961 . S
C199 C189 1.510 . S
C199 H197 0.959 . S
C199 H198 0.961 . S
C199 H200 0.960 . S
H200 C199 0.960 . S
H201 N181 0.862 . S
O202 Co170 1.920 1_545 S
O202 C175 1.289 . S
C203 O195 1.258 . S
C203 O196 1.266 . S
Co204 O207 1.970 1_655 S
Co204 N221 1.989 . S
Co204 O229 1.967 . S
Co204 O236 1.920 1_655 S
Co205 O208 1.966 . S
Co205 N214 2.022 . S
Co205 N222 1.993 . S
Co205 O230 1.941 . S
C206 O207 1.258 1_655 S
C206 O208 1.263 . S
O207 Co204 1.970 1_455 S
O207 C206 1.258 1_455 S
O208 Co205 1.966 . S
O208 C206 1.263 . S
C209 O210 1.235 . S
C209 O236 1.289 . S
O210 C209 1.235 . S
C211 C213 1.400 . S
C211 N214 1.351 . S
C211 C216 1.501 . S
C212 C213 1.387 . S
C212 N215 1.341 . S
C213 C211 1.400 . S
C213 C212 1.387 . S
N214 Co205 2.022 . S
N214 C211 1.351 . S
N214 N215 1.365 . S
N215 C212 1.341 . S
N215 N214 1.365 . S
N215 H235 0.862 . S
C216 C211 1.501 . S
C216 H217 0.961 . S
C216 H218 0.961 . S
C216 H219 0.960 . S
H217 C216 0.961 . S
H218 C216 0.961 . S
H219 C216 0.960 . S
C220 N221 1.342 . S
C220 C224 1.401 . S
C220 C225 1.499 1_655 S
N221 Co204 1.989 . S
N221 C220 1.342 . S
N221 N222 1.388 . S
N222 Co205 1.993 . S
N222 N221 1.388 . S
N222 C223 1.346 . S
C223 N222 1.346 . S
C223 C224 1.396 . S
C223 C233 1.510 . S
C224 C220 1.401 . S
C224 C223 1.396 . S
C225 C220 1.499 1_455 S
C225 H226 0.959 . S
C225 H227 0.960 . S
C225 H228 0.961 . S
H226 C225 0.959 . S
H227 C225 0.960 . S
H228 C225 0.961 . S
O229 Co204 1.967 . S
O229 C237 1.258 . S
O230 Co205 1.941 . S
O230 C237 1.266 . S
H231 C233 0.959 . S
H232 C233 0.961 . S
C233 C223 1.510 . S
C233 H231 0.959 . S
C233 H232 0.961 . S
C233 H234 0.960 . S
H234 C233 0.960 . S
H235 N215 0.862 . S
O236 Co204 1.920 1_455 S
O236 C209 1.289 . S
C237 O229 1.258 . S
C237 O230 1.266 . S
Co238 O241 1.970 1_545 S
Co238 N255 1.989 . S
Co238 O263 1.967 . S
Co238 O270 1.920 1_545 S
Co239 O242 1.966 . S
Co239 N248 2.022 . S
Co239 N256 1.993 . S
Co239 O264 1.941 . S
C240 O241 1.258 1_545 S
C240 O242 1.263 . S
O241 Co238 1.970 1_565 S
O241 C240 1.258 1_565 S
O242 Co239 1.966 . S
O242 C240 1.263 . S
C243 O244 1.235 . S
C243 O270 1.289 . S
O244 C243 1.235 . S
C245 C247 1.400 . S
C245 N248 1.351 . S
C245 C250 1.501 . S
C246 C247 1.387 . S
C246 N249 1.341 . S
C247 C245 1.400 . S
C247 C246 1.387 . S
N248 Co239 2.022 . S
N248 C245 1.351 . S
N248 N249 1.365 . S
N249 C246 1.341 . S
N249 N248 1.365 . S
N249 H269 0.862 . S
C250 C245 1.501 . S
C250 H251 0.961 . S
C250 H252 0.961 . S
C250 H253 0.960 . S
H251 C250 0.961 . S
H252 C250 0.961 . S
H253 C250 0.960 . S
C254 N255 1.342 . S
C254 C258 1.401 . S
C254 C259 1.499 1_545 S
N255 Co238 1.989 . S
N255 C254 1.342 . S
N255 N256 1.388 . S
N256 Co239 1.993 . S
N256 N255 1.388 . S
N256 C257 1.346 . S
C257 N256 1.346 . S
C257 C258 1.396 . S
C257 C267 1.510 . S
C258 C254 1.401 . S
C258 C257 1.396 . S
C259 C254 1.499 1_565 S
C259 H260 0.959 . S
C259 H261 0.960 . S
C259 H262 0.961 . S
H260 C259 0.959 . S
H261 C259 0.960 . S
H262 C259 0.961 . S
O263 Co238 1.967 . S
O263 C271 1.258 . S
O264 Co239 1.941 . S
O264 C271 1.266 . S
H265 C267 0.959 . S
H266 C267 0.961 . S
C267 C257 1.510 . S
C267 H265 0.959 . S
C267 H266 0.961 . S
C267 H268 0.960 . S
H268 C267 0.960 . S
H269 N249 0.862 . S
O270 Co238 1.920 1_565 S
O270 C243 1.289 . S
C271 O263 1.258 . S
C271 O264 1.266 . S
Co272 O275 1.970 . S
Co272 N289 1.989 . S
Co272 O297 1.967 . S
Co272 O304 1.920 . S
Co273 O276 1.966 . S
Co273 N282 2.022 . S
Co273 N290 1.993 . S
Co273 O298 1.941 . S
C274 O275 1.258 . S
C274 O276 1.263 . S
O275 Co272 1.970 . S
O275 C274 1.258 . S
O276 Co273 1.966 . S
O276 C274 1.263 . S
C277 O278 1.235 . S
C277 O304 1.289 . S
O278 C277 1.235 . S
C279 C281 1.400 . S
C279 N282 1.351 . S
C279 C284 1.501 . S
C280 C281 1.387 . S
C280 N283 1.341 . S
C281 C279 1.400 . S
C281 C280 1.387 . S
N282 Co273 2.022 . S
N282 C279 1.351 . S
N282 N283 1.365 . S
N283 C280 1.341 . S
N283 N282 1.365 . S
N283 H303 0.862 . S
C284 C279 1.501 . S
C284 H285 0.961 . S
C284 H286 0.961 . S
C284 H287 0.960 . S
H285 C284 0.961 . S
H286 C284 0.961 . S
H287 C284 0.960 . S
C288 N289 1.342 . S
C288 C292 1.401 . S
C288 C293 1.499 . S
N289 Co272 1.989 . S
N289 C288 1.342 . S
N289 N290 1.388 . S
N290 Co273 1.993 . S
N290 N289 1.388 . S
N290 C291 1.346 . S
C291 N290 1.346 . S
C291 C292 1.396 . S
C291 C301 1.510 . S
C292 C288 1.401 . S
C292 C291 1.396 . S
C293 C288 1.499 . S
C293 H294 0.959 . S
C293 H295 0.960 . S
C293 H296 0.961 . S
H294 C293 0.959 . S
H295 C293 0.960 . S
H296 C293 0.961 . S
O297 Co272 1.967 . S
O297 C305 1.258 . S
O298 Co273 1.941 . S
O298 C305 1.266 . S
H299 C301 0.959 . S
H300 C301 0.961 . S
C301 C291 1.510 . S
C301 H299 0.959 . S
C301 H300 0.961 . S
C301 H302 0.960 . S
H302 C301 0.960 . S
H303 N283 0.862 . S
O304 Co272 1.920 . S
O304 C277 1.289 . S
C305 O297 1.258 . S
C305 O298 1.266 . S
Co306 O309 1.970 . S
Co306 N323 1.989 . S
Co306 O331 1.967 . S
Co306 O338 1.920 . S
Co307 O310 1.966 . S
Co307 N316 2.022 . S
Co307 N324 1.993 . S
Co307 O332 1.941 . S
C308 O309 1.258 . S
C308 O310 1.263 . S
O309 Co306 1.970 . S
O309 C308 1.258 . S
O310 Co307 1.966 . S
O310 C308 1.263 . S
C311 O312 1.235 . S
C311 O338 1.289 . S
O312 C311 1.235 . S
C313 C315 1.400 . S
C313 N316 1.351 . S
C313 C318 1.501 . S
C314 C315 1.387 . S
C314 N317 1.341 . S
C315 C313 1.400 . S
C315 C314 1.387 . S
N316 Co307 2.022 . S
N316 C313 1.351 . S
N316 N317 1.365 . S
N317 C314 1.341 . S
N317 N316 1.365 . S
N317 H337 0.862 . S
C318 C313 1.501 . S
C318 H319 0.961 . S
C318 H320 0.961 . S
C318 H321 0.960 . S
H319 C318 0.961 . S
H320 C318 0.961 . S
H321 C318 0.960 . S
C322 N323 1.342 . S
C322 C326 1.401 . S
C322 C327 1.499 . S
N323 Co306 1.989 . S
N323 C322 1.342 . S
N323 N324 1.388 . S
N324 Co307 1.993 . S
N324 N323 1.388 . S
N324 C325 1.346 . S
C325 N324 1.346 . S
C325 C326 1.396 . S
C325 C335 1.510 . S
C326 C322 1.401 . S
C326 C325 1.396 . S
C327 C322 1.499 . S
C327 H328 0.959 . S
C327 H329 0.960 . S
C327 H330 0.961 . S
H328 C327 0.959 . S
H329 C327 0.960 . S
H330 C327 0.961 . S
O331 Co306 1.967 . S
O331 C339 1.258 . S
O332 Co307 1.941 . S
O332 C339 1.266 . S
H333 C335 0.959 . S
H334 C335 0.961 . S
C335 C325 1.510 . S
C335 H333 0.959 . S
C335 H334 0.961 . S
C335 H336 0.960 . S
H336 C335 0.960 . S
H337 N317 0.862 . S
O338 Co306 1.920 . S
O338 C311 1.289 . S
C339 O331 1.258 . S
C339 O332 1.266 . S
Co340 O343 1.970 . S
Co340 N357 1.989 . S
Co340 O365 1.967 . S
Co340 O372 1.920 . S
Co341 O344 1.966 . S
Co341 N350 2.022 . S
Co341 N358 1.993 . S
Co341 O366 1.941 . S
C342 O343 1.258 . S
C342 O344 1.263 . S
O343 Co340 1.970 . S
O343 C342 1.258 . S
O344 Co341 1.966 . S
O344 C342 1.263 . S
C345 O346 1.235 . S
C345 O372 1.289 . S
O346 C345 1.235 . S
C347 C349 1.400 . S
C347 N350 1.351 . S
C347 C352 1.501 . S
C348 C349 1.387 . S
C348 N351 1.341 . S
C349 C347 1.400 . S
C349 C348 1.387 . S
N350 Co341 2.022 . S
N350 C347 1.351 . S
N350 N351 1.365 . S
N351 C348 1.341 . S
N351 N350 1.365 . S
N351 H371 0.862 . S
C352 C347 1.501 . S
C352 H353 0.961 . S
C352 H354 0.961 . S
C352 H355 0.960 . S
H353 C352 0.961 . S
H354 C352 0.961 . S
H355 C352 0.960 . S
C356 N357 1.342 . S
C356 C360 1.401 . S
C356 C361 1.499 . S
N357 Co340 1.989 . S
N357 C356 1.342 . S
N357 N358 1.388 . S
N358 Co341 1.993 . S
N358 N357 1.388 . S
N358 C359 1.346 . S
C359 N358 1.346 . S
C359 C360 1.396 . S
C359 C369 1.510 . S
C360 C356 1.401 . S
C360 C359 1.396 . S
C361 C356 1.499 . S
C361 H362 0.959 . S
C361 H363 0.960 . S
C361 H364 0.961 . S
H362 C361 0.959 . S
H363 C361 0.960 . S
H364 C361 0.961 . S
O365 Co340 1.967 . S
O365 C373 1.258 . S
O366 Co341 1.941 . S
O366 C373 1.266 . S
H367 C369 0.959 . S
H368 C369 0.961 . S
C369 C359 1.510 . S
C369 H367 0.959 . S
C369 H368 0.961 . S
C369 H370 0.960 . S
H370 C369 0.960 . S
H371 N351 0.862 . S
O372 Co340 1.920 . S
O372 C345 1.289 . S
C373 O365 1.258 . S
C373 O366 1.266 . S
Co374 O377 1.970 . S
Co374 N391 1.989 . S
Co374 O399 1.967 . S
Co374 O406 1.920 . S
Co375 O378 1.966 . S
Co375 N384 2.022 . S
Co375 N392 1.993 . S
Co375 O400 1.941 . S
C376 O377 1.258 . S
C376 O378 1.263 . S
O377 Co374 1.970 . S
O377 C376 1.258 . S
O378 Co375 1.966 . S
O378 C376 1.263 . S
C379 O380 1.235 . S
C379 O406 1.289 . S
O380 C379 1.235 . S
C381 C383 1.400 . S
C381 N384 1.351 . S
C381 C386 1.501 . S
C382 C383 1.387 . S
C382 N385 1.341 . S
C383 C381 1.400 . S
C383 C382 1.387 . S
N384 Co375 2.022 . S
N384 C381 1.351 . S
N384 N385 1.365 . S
N385 C382 1.341 . S
N385 N384 1.365 . S
N385 H405 0.862 . S
C386 C381 1.501 . S
C386 H387 0.961 . S
C386 H388 0.961 . S
C386 H389 0.960 . S
H387 C386 0.961 . S
H388 C386 0.961 . S
H389 C386 0.960 . S
C390 N391 1.342 . S
C390 C394 1.401 . S
C390 C395 1.499 . S
N391 Co374 1.989 . S
N391 C390 1.342 . S
N391 N392 1.388 . S
N392 Co375 1.993 . S
N392 N391 1.388 . S
N392 C393 1.346 . S
C393 N392 1.346 . S
C393 C394 1.396 . S
C393 C403 1.510 . S
C394 C390 1.401 . S
C394 C393 1.396 . S
C395 C390 1.499 . S
C395 H396 0.959 . S
C395 H397 0.960 . S
C395 H398 0.961 . S
H396 C395 0.959 . S
H397 C395 0.960 . S
H398 C395 0.961 . S
O399 Co374 1.967 . S
O399 C407 1.258 . S
O400 Co375 1.941 . S
O400 C407 1.266 . S
H401 C403 0.959 . S
H402 C403 0.961 . S
C403 C393 1.510 . S
C403 H401 0.959 . S
C403 H402 0.961 . S
C403 H404 0.960 . S
H404 C403 0.960 . S
H405 N385 0.862 . S
O406 Co374 1.920 . S
O406 C379 1.289 . S
C407 O399 1.258 . S
C407 O400 1.266 . S
Co408 O411 1.970 . S
Co408 N425 1.989 . S
Co408 O433 1.967 . S
Co408 O440 1.920 . S
Co409 O412 1.966 . S
Co409 N418 2.022 . S
Co409 N426 1.993 . S
Co409 O434 1.941 . S
C410 O411 1.258 . S
C410 O412 1.263 . S
O411 Co408 1.970 . S
O411 C410 1.258 . S
O412 Co409 1.966 . S
O412 C410 1.263 . S
C413 O414 1.235 . S
C413 O440 1.289 . S
O414 C413 1.235 . S
C415 C417 1.400 . S
C415 N418 1.351 . S
C415 C420 1.501 . S
C416 C417 1.387 . S
C416 N419 1.341 . S
C417 C415 1.400 . S
C417 C416 1.387 . S
N418 Co409 2.022 . S
N418 C415 1.351 . S
N418 N419 1.365 . S
N419 C416 1.341 . S
N419 N418 1.365 . S
N419 H439 0.862 . S
C420 C415 1.501 . S
C420 H421 0.961 . S
C420 H422 0.961 . S
C420 H423 0.960 . S
H421 C420 0.961 . S
H422 C420 0.961 . S
H423 C420 0.960 . S
C424 N425 1.342 . S
C424 C428 1.401 . S
C424 C429 1.499 . S
N425 Co408 1.989 . S
N425 C424 1.342 . S
N425 N426 1.388 . S
N426 Co409 1.993 . S
N426 N425 1.388 . S
N426 C427 1.346 . S
C427 N426 1.346 . S
C427 C428 1.396 . S
C427 C437 1.510 . S
C428 C424 1.401 . S
C428 C427 1.396 . S
C429 C424 1.499 . S
C429 H430 0.959 . S
C429 H431 0.960 . S
C429 H432 0.961 . S
H430 C429 0.959 . S
H431 C429 0.960 . S
H432 C429 0.961 . S
O433 Co408 1.967 . S
O433 C441 1.258 . S
O434 Co409 1.941 . S
O434 C441 1.266 . S
H435 C437 0.959 . S
H436 C437 0.961 . S
C437 C427 1.510 . S
C437 H435 0.959 . S
C437 H436 0.961 . S
C437 H438 0.960 . S
H438 C437 0.960 . S
H439 N419 0.862 . S
O440 Co408 1.920 . S
O440 C413 1.289 . S
C441 O433 1.258 . S
C441 O434 1.266 . S
Co442 O445 1.970 . S
Co442 N459 1.989 . S
Co442 O467 1.967 . S
Co442 O474 1.920 . S
Co443 O446 1.966 . S
Co443 N452 2.022 . S
Co443 N460 1.993 . S
Co443 O468 1.941 . S
C444 O445 1.258 . S
C444 O446 1.263 . S
O445 Co442 1.970 . S
O445 C444 1.258 . S
O446 Co443 1.966 . S
O446 C444 1.263 . S
C447 O448 1.235 . S
C447 O474 1.289 . S
O448 C447 1.235 . S
C449 C451 1.400 . S
C449 N452 1.351 . S
C449 C454 1.501 . S
C450 C451 1.387 . S
C450 N453 1.341 . S
C451 C449 1.400 . S
C451 C450 1.387 . S
N452 Co443 2.022 . S
N452 C449 1.351 . S
N452 N453 1.365 . S
N453 C450 1.341 . S
N453 N452 1.365 . S
N453 H473 0.862 . S
C454 C449 1.501 . S
C454 H455 0.961 . S
C454 H456 0.961 . S
C454 H457 0.960 . S
H455 C454 0.961 . S
H456 C454 0.961 . S
H457 C454 0.960 . S
C458 N459 1.342 . S
C458 C462 1.401 . S
C458 C463 1.499 . S
N459 Co442 1.989 . S
N459 C458 1.342 . S
N459 N460 1.388 . S
N460 Co443 1.993 . S
N460 N459 1.388 . S
N460 C461 1.346 . S
C461 N460 1.346 . S
C461 C462 1.396 . S
C461 C471 1.510 . S
C462 C458 1.401 . S
C462 C461 1.396 . S
C463 C458 1.499 . S
C463 H464 0.959 . S
C463 H465 0.960 . S
C463 H466 0.961 . S
H464 C463 0.959 . S
H465 C463 0.960 . S
H466 C463 0.961 . S
O467 Co442 1.967 . S
O467 C475 1.258 . S
O468 Co443 1.941 . S
O468 C475 1.266 . S
H469 C471 0.959 . S
H470 C471 0.961 . S
C471 C461 1.510 . S
C471 H469 0.959 . S
C471 H470 0.961 . S
C471 H472 0.960 . S
H472 C471 0.960 . S
H473 N453 0.862 . S
O474 Co442 1.920 . S
O474 C447 1.289 . S
C475 O467 1.258 . S
C475 O468 1.266 . S
Co476 O479 1.970 . S
Co476 N493 1.989 . S
Co476 O501 1.967 . S
Co476 O508 1.920 . S
Co477 O480 1.966 . S
Co477 N486 2.022 . S
Co477 N494 1.993 . S
Co477 O502 1.941 . S
C478 O479 1.258 . S
C478 O480 1.263 . S
O479 Co476 1.970 . S
O479 C478 1.258 . S
O480 Co477 1.966 . S
O480 C478 1.263 . S
C481 O482 1.235 . S
C481 O508 1.289 . S
O482 C481 1.235 . S
C483 C485 1.400 . S
C483 N486 1.351 . S
C483 C488 1.501 . S
C484 C485 1.387 . S
C484 N487 1.341 . S
C485 C483 1.400 . S
C485 C484 1.387 . S
N486 Co477 2.022 . S
N486 C483 1.351 . S
N486 N487 1.365 . S
N487 C484 1.341 . S
N487 N486 1.365 . S
N487 H507 0.862 . S
C488 C483 1.501 . S
C488 H489 0.961 . S
C488 H490 0.961 . S
C488 H491 0.960 . S
H489 C488 0.961 . S
H490 C488 0.961 . S
H491 C488 0.960 . S
C492 N493 1.342 . S
C492 C496 1.401 . S
C492 C497 1.499 . S
N493 Co476 1.989 . S
N493 C492 1.342 . S
N493 N494 1.388 . S
N494 Co477 1.993 . S
N494 N493 1.388 . S
N494 C495 1.346 . S
C495 N494 1.346 . S
C495 C496 1.396 . S
C495 C505 1.510 . S
C496 C492 1.401 . S
C496 C495 1.396 . S
C497 C492 1.499 . S
C497 H498 0.959 . S
C497 H499 0.960 . S
C497 H500 0.961 . S
H498 C497 0.959 . S
H499 C497 0.960 . S
H500 C497 0.961 . S
O501 Co476 1.967 . S
O501 C509 1.258 . S
O502 Co477 1.941 . S
O502 C509 1.266 . S
H503 C505 0.959 . S
H504 C505 0.961 . S
C505 C495 1.510 . S
C505 H503 0.959 . S
C505 H504 0.961 . S
C505 H506 0.960 . S
H506 C505 0.960 . S
H507 N487 0.862 . S
O508 Co476 1.920 . S
O508 C481 1.289 . S
C509 O501 1.258 . S
C509 O502 1.266 . S
Co510 O513 1.970 . S
Co510 N527 1.989 . S
Co510 O535 1.967 . S
Co510 O542 1.920 . S
Co511 O514 1.966 . S
Co511 N520 2.022 . S
Co511 N528 1.993 . S
Co511 O536 1.941 . S
C512 O513 1.258 . S
C512 O514 1.263 . S
O513 Co510 1.970 . S
O513 C512 1.258 . S
O514 Co511 1.966 . S
O514 C512 1.263 . S
C515 O516 1.235 . S
C515 O542 1.289 . S
O516 C515 1.235 . S
C517 C519 1.400 . S
C517 N520 1.351 . S
C517 C522 1.501 . S
C518 C519 1.387 . S
C518 N521 1.341 . S
C519 C517 1.400 . S
C519 C518 1.387 . S
N520 Co511 2.022 . S
N520 C517 1.351 . S
N520 N521 1.365 . S
N521 C518 1.341 . S
N521 N520 1.365 . S
N521 H541 0.862 . S
C522 C517 1.501 . S
C522 H523 0.961 . S
C522 H524 0.961 . S
C522 H525 0.960 . S
H523 C522 0.961 . S
H524 C522 0.961 . S
H525 C522 0.960 . S
C526 N527 1.342 . S
C526 C530 1.401 . S
C526 C531 1.499 . S
N527 Co510 1.989 . S
N527 C526 1.342 . S
N527 N528 1.388 . S
N528 Co511 1.993 . S
N528 N527 1.388 . S
N528 C529 1.346 . S
C529 N528 1.346 . S
C529 C530 1.396 . S
C529 C539 1.510 . S
C530 C526 1.401 . S
C530 C529 1.396 . S
C531 C526 1.499 . S
C531 H532 0.959 . S
C531 H533 0.960 . S
C531 H534 0.961 . S
H532 C531 0.959 . S
H533 C531 0.960 . S
H534 C531 0.961 . S
O535 Co510 1.967 . S
O535 C543 1.258 . S
O536 Co511 1.941 . S
O536 C543 1.266 . S
H537 C539 0.959 . S
H538 C539 0.961 . S
C539 C529 1.510 . S
C539 H537 0.959 . S
C539 H538 0.961 . S
C539 H540 0.960 . S
H540 C539 0.960 . S
H541 N521 0.862 . S
O542 Co510 1.920 . S
O542 C515 1.289 . S
C543 O535 1.258 . S
C543 O536 1.266 . S
H544 C550 0.930 . S
H545 C553 0.930 . S
H546 C554 0.930 . S
H547 C555 0.930 . S
H548 C558 0.930 . S
H549 C559 0.930 . S
C550 H544 0.930 . S
C550 C551 1.355 . S
C550 C552 1.415 . S
C551 C550 1.355 . S
C551 C553 1.419 . S
C552 C550 1.415 . S
C552 C557 1.425 . S
C552 C559 1.409 . S
C553 H545 0.930 . S
C553 C551 1.419 . S
C553 C554 1.362 . S
C554 H546 0.930 . S
C554 C553 1.362 . S
C554 C557 1.409 . S
C555 H547 0.930 . S
C555 C556 1.355 . S
C555 C557 1.415 . S
C556 C555 1.355 . S
C556 C558 1.419 . S
C557 C552 1.425 . S
C557 C554 1.409 . S
C557 C555 1.415 . S
C558 H548 0.930 . S
C558 C556 1.419 . S
C558 C559 1.362 . S
C559 H549 0.930 . S
C559 C552 1.409 . S
C559 C558 1.362 . S
H560 C566 0.930 . S
H561 C569 0.930 . S
H562 C570 0.930 . S
H563 C571 0.930 . S
H564 C574 0.930 . S
H565 C575 0.930 . S
C566 H560 0.930 . S
C566 C567 1.355 . S
C566 C568 1.415 . S
C567 C566 1.355 . S
C567 C569 1.419 . S
C568 C566 1.415 . S
C568 C573 1.425 . S
C568 C575 1.409 . S
C569 H561 0.930 . S
C569 C567 1.419 . S
C569 C570 1.362 . S
C570 H562 0.930 . S
C570 C569 1.362 . S
C570 C573 1.409 . S
C571 H563 0.930 . S
C571 C572 1.355 . S
C571 C573 1.415 . S
C572 C571 1.355 . S
C572 C574 1.419 . S
C573 C568 1.425 . S
C573 C570 1.409 . S
C573 C571 1.415 . S
C574 H564 0.930 . S
C574 C572 1.419 . S
C574 C575 1.362 . S
C575 H565 0.930 . S
C575 C568 1.409 . S
C575 C574 1.362 . S
H576 C582 0.930 . S
H577 C585 0.930 . S
H578 C586 0.930 . S
H579 C587 0.930 . S
H580 C590 0.930 . S
H581 C591 0.930 . S
C582 H576 0.930 . S
C582 C583 1.355 . S
C582 C584 1.415 . S
C583 C582 1.355 . S
C583 C585 1.419 . S
C584 C582 1.415 . S
C584 C589 1.425 . S
C584 C591 1.409 . S
C585 H577 0.930 . S
C585 C583 1.419 . S
C585 C586 1.362 . S
C586 H578 0.930 . S
C586 C585 1.362 . S
C586 C589 1.409 . S
C587 H579 0.930 . S
C587 C588 1.355 . S
C587 C589 1.415 . S
C588 C587 1.355 . S
C588 C590 1.419 . S
C589 C584 1.425 . S
C589 C586 1.409 . S
C589 C587 1.415 . S
C590 H580 0.930 . S
C590 C588 1.419 . S
C590 C591 1.362 . S
C591 H581 0.930 . S
C591 C584 1.409 . S
C591 C590 1.362 . S
H592 C598 0.930 . S
H593 C601 0.930 . S
H594 C602 0.930 . S
H595 C603 0.930 . S
H596 C606 0.930 . S
H597 C607 0.930 . S
C598 H592 0.930 . S
C598 C599 1.355 . S
C598 C600 1.415 . S
C599 C598 1.355 . S
C599 C601 1.419 . S
C600 C598 1.415 . S
C600 C605 1.425 . S
C600 C607 1.409 . S
C601 H593 0.930 . S
C601 C599 1.419 . S
C601 C602 1.362 . S
C602 H594 0.930 . S
C602 C601 1.362 . S
C602 C605 1.409 . S
C603 H595 0.930 . S
C603 C604 1.355 . S
C603 C605 1.415 . S
C604 C603 1.355 . S
C604 C606 1.419 . S
C605 C600 1.425 . S
C605 C602 1.409 . S
C605 C603 1.415 . S
C606 H596 0.930 . S
C606 C604 1.419 . S
C606 C607 1.362 . S
C607 H597 0.930 . S
C607 C600 1.409 . S
C607 C606 1.362 . S
H608 C614 0.930 . S
H609 C617 0.930 . S
H610 C618 0.929 1_556 S
H611 C619 0.930 . S
H612 C622 0.930 . S
H613 C623 0.930 . S
C614 H608 0.930 . S
C614 C615 1.355 . S
C614 C616 1.415 1_554 S
C615 C614 1.355 . S
C615 C617 1.419 . S
C616 C614 1.415 1_556 S
C616 C621 1.425 . S
C616 C623 1.409 . S
C617 H609 0.930 . S
C617 C615 1.419 . S
C617 C618 1.362 . S
C618 H610 0.929 1_554 S
C618 C617 1.362 . S
C618 C621 1.409 1_554 S
C619 H611 0.930 . S
C619 C620 1.355 . S
C619 C621 1.415 . S
C620 C619 1.355 . S
C620 C622 1.419 . S
C621 C616 1.425 . S
C621 C618 1.409 1_556 S
C621 C619 1.415 . S
C622 H612 0.930 . S
C622 C620 1.419 . S
C622 C623 1.362 . S
C623 H613 0.930 . S
C623 C616 1.409 . S
C623 C622 1.362 . S
H624 C630 0.930 . S
H625 C633 0.930 . S
H626 C634 0.928 1_554 S
H627 C635 0.930 . S
H628 C638 0.930 . S
H629 C639 0.930 . S
C630 H624 0.930 . S
C630 C631 1.355 . S
C630 C632 1.415 1_556 S
C631 C630 1.355 . S
C631 C633 1.419 . S
C632 C630 1.415 1_554 S
C632 C637 1.425 . S
C632 C639 1.409 . S
C633 H625 0.930 . S
C633 C631 1.419 . S
C633 C634 1.362 . S
C634 H626 0.928 1_556 S
C634 C633 1.362 . S
C634 C637 1.409 1_556 S
C635 H627 0.930 . S
C635 C636 1.355 . S
C635 C637 1.415 . S
C636 C635 1.355 . S
C636 C638 1.419 . S
C637 C632 1.425 . S
C637 C634 1.409 1_554 S
C637 C635 1.415 . S
C638 H628 0.930 . S
C638 C636 1.419 . S
C638 C639 1.362 . S
C639 H629 0.930 . S
C639 C632 1.409 . S
C639 C638 1.362 . S
H640 C646 0.930 . S
H641 C649 0.930 . S
H642 C650 0.930 . S
H643 C651 0.930 . S
H644 C654 0.930 . S
H645 C655 0.930 . S
C646 H640 0.930 . S
C646 C647 1.355 . S
C646 C648 1.415 . S
C647 C646 1.355 . S
C647 C649 1.419 . S
C648 C646 1.415 . S
C648 C653 1.425 . S
C648 C655 1.409 1_556 S
C649 H641 0.930 . S
C649 C647 1.419 . S
C649 C650 1.362 . S
C650 H642 0.930 . S
C650 C649 1.362 . S
C650 C653 1.409 . S
C651 H643 0.930 . S
C651 C652 1.355 . S
C651 C653 1.415 1_554 S
C652 C651 1.355 . S
C652 C654 1.419 . S
C653 C648 1.425 . S
C653 C650 1.409 . S
C653 C651 1.415 1_556 S
C654 H644 0.930 . S
C654 C652 1.419 . S
C654 C655 1.362 . S
C655 H645 0.930 . S
C655 C648 1.409 1_554 S
C655 C654 1.362 . S
H656 C662 0.930 . S
H657 C665 0.930 . S
H658 C666 0.866 1_556 S
H659 C667 0.930 . S
H660 C670 0.930 . S
H661 C671 0.930 . S
C662 H656 0.930 . S
C662 C663 1.355 . S
C662 C664 1.415 . S
C663 C662 1.355 . S
C663 C665 1.419 . S
C664 C662 1.415 . S
C664 C669 1.425 1_554 S
C664 C671 1.409 . S
C665 H657 0.930 . S
C665 C663 1.419 . S
C665 C666 1.442 . S
C666 H658 0.866 1_554 S
C666 C665 1.442 . S
C666 C669 1.398 1_554 S
C667 H659 0.930 . S
C667 C668 1.355 . S
C667 C669 1.415 . S
C668 C667 1.355 . S
C668 C670 1.419 . S
C669 C664 1.425 1_556 S
C669 C666 1.398 1_556 S
C669 C667 1.415 . S
C670 H660 0.930 . S
C670 C668 1.419 . S
C670 C671 1.362 1_556 S
C671 H661 0.930 . S
C671 C664 1.409 . S
C671 C670 1.362 1_554 S
H672 C678 0.930 . S
H673 C681 0.930 . S
H674 C682 0.930 . S
H675 C683 0.930 . S
H676 C686 0.930 . S
H677 C687 0.930 . S
C678 H672 0.930 . S
C678 C679 1.355 . S
C678 C680 1.415 . S
C679 C678 1.355 . S
C679 C681 1.419 . S
C680 C678 1.415 . S
C680 C685 1.425 . S
C680 C687 1.409 . S
C681 H673 0.930 . S
C681 C679 1.419 . S
C681 C682 1.362 . S
C682 H674 0.930 . S
C682 C681 1.362 . S
C682 C685 1.409 . S
C683 H675 0.930 . S
C683 C684 1.355 . S
C683 C685 1.415 . S
C684 C683 1.355 . S
C684 C686 1.419 . S
C685 C680 1.425 . S
C685 C682 1.409 . S
C685 C683 1.415 . S
C686 H676 0.930 . S
C686 C684 1.419 . S
C686 C687 1.362 . S
C687 H677 0.930 . S
C687 C680 1.409 . S
C687 C686 1.362 . S
H688 C694 0.930 . S
H689 C697 0.930 . S
H690 C698 0.930 . S
H691 C699 0.930 . S
H692 C702 0.930 . S
H693 C703 0.930 . S
C694 H688 0.930 . S
C694 C695 1.355 . S
C694 C696 1.415 . S
C695 C694 1.355 . S
C695 C697 1.419 . S
C696 C694 1.415 . S
C696 C701 1.425 . S
C696 C703 1.409 . S
C697 H689 0.930 . S
C697 C695 1.419 . S
C697 C698 1.362 . S
C698 H690 0.930 . S
C698 C697 1.362 . S
C698 C701 1.409 . S
C699 H691 0.930 . S
C699 C700 1.355 . S
C699 C701 1.415 . S
C700 C699 1.355 . S
C700 C702 1.419 . S
C701 C696 1.425 . S
C701 C698 1.409 . S
C701 C699 1.415 . S
C702 H692 0.930 . S
C702 C700 1.419 . S
C702 C703 1.362 . S
C703 H693 0.930 . S
C703 C696 1.409 . S
C703 C702 1.362 . S
H704 C710 0.930 . S
H705 C713 0.930 . S
H706 C714 0.930 . S
H707 C715 0.930 . S
H708 C718 0.930 . S
H709 C719 0.930 . S
C710 H704 0.930 . S
C710 C711 1.355 . S
C710 C712 1.415 . S
C711 C710 1.355 . S
C711 C713 1.419 . S
C712 C710 1.415 . S
C712 C717 1.425 . S
C712 C719 1.409 . S
C713 H705 0.930 . S
C713 C711 1.419 . S
C713 C714 1.362 . S
C714 H706 0.930 . S
C714 C713 1.362 . S
C714 C717 1.409 . S
C715 H707 0.930 . S
C715 C716 1.355 . S
C715 C717 1.415 . S
C716 C715 1.355 . S
C716 C718 1.419 . S
C717 C712 1.425 . S
C717 C714 1.409 . S
C717 C715 1.415 . S
C718 H708 0.930 . S
C718 C716 1.419 . S
C718 C719 1.362 . S
C719 H709 0.930 . S
C719 C712 1.409 . S
C719 C718 1.362 . S
H720 C726 0.930 . S
H721 C729 0.930 . S
H722 C730 0.930 . S
H723 C731 0.930 . S
H724 C734 0.930 . S
H725 C735 0.930 . S
C726 H720 0.930 . S
C726 C727 1.355 . S
C726 C728 1.415 . S
C727 C726 1.355 . S
C727 C729 1.419 . S
C728 C726 1.415 . S
C728 C733 1.425 . S
C728 C735 1.409 . S
C729 H721 0.930 . S
C729 C727 1.419 . S
C729 C730 1.362 . S
C730 H722 0.930 . S
C730 C729 1.362 . S
C730 C733 1.409 . S
C731 H723 0.930 . S
C731 C732 1.355 . S
C731 C733 1.415 . S
C732 C731 1.355 . S
C732 C734 1.419 . S
C733 C728 1.425 . S
C733 C730 1.409 . S
C733 C731 1.415 . S
C734 H724 0.930 . S
C734 C732 1.419 . S
C734 C735 1.362 . S
C735 H725 0.930 . S
C735 C728 1.409 . S
C735 C734 1.362 . S
H736 C742 0.930 . S
H737 C745 0.930 . S
H738 C746 0.930 . S
H739 C747 0.930 . S
H740 C750 0.930 . S
H741 C751 0.930 . S
C742 H736 0.930 . S
C742 C743 1.355 . S
C742 C744 1.415 . S
C743 C742 1.355 . S
C743 C745 1.419 . S
C744 C742 1.415 . S
C744 C749 1.425 . S
C744 C751 1.409 . S
C745 H737 0.930 . S
C745 C743 1.419 . S
C745 C746 1.362 . S
C746 H738 0.930 . S
C746 C745 1.362 . S
C746 C749 1.409 . S
C747 H739 0.930 . S
C747 C748 1.355 . S
C747 C749 1.415 . S
C748 C747 1.355 . S
C748 C750 1.419 . S
C749 C744 1.425 . S
C749 C746 1.409 . S
C749 C747 1.415 . S
C750 H740 0.930 . S
C750 C748 1.419 . S
C750 C751 1.362 . S
C751 H741 0.930 . S
C751 C744 1.409 . S
C751 C750 1.362 . S
H752 C758 0.930 . S
H753 C761 0.930 . S
H754 C762 0.930 . S
H755 C763 0.930 . S
H756 C766 0.930 . S
H757 C767 0.930 . S
C758 H752 0.930 . S
C758 C759 1.355 . S
C758 C760 1.415 . S
C759 C758 1.355 . S
C759 C761 1.419 . S
C760 C758 1.415 . S
C760 C765 1.425 . S
C760 C767 1.409 . S
C761 H753 0.930 . S
C761 C759 1.419 . S
C761 C762 1.362 . S
C762 H754 0.930 . S
C762 C761 1.362 . S
C762 C765 1.409 . S
C763 H755 0.930 . S
C763 C764 1.355 . S
C763 C765 1.415 . S
C764 C763 1.355 . S
C764 C766 1.419 . S
C765 C760 1.425 . S
C765 C762 1.409 . S
C765 C763 1.415 . S
C766 H756 0.930 . S
C766 C764 1.419 . S
C766 C767 1.362 . S
C767 H757 0.930 . S
C767 C760 1.409 . S
C767 C766 1.362 . S
H768 C774 0.930 . S
H769 C777 0.930 . S
H770 C778 0.930 . S
H771 C779 0.930 . S
H772 C782 0.930 . S
H773 C783 0.930 . S
C774 H768 0.930 . S
C774 C775 1.355 . S
C774 C776 1.415 . S
C775 C774 1.355 . S
C775 C777 1.419 . S
C776 C774 1.415 . S
C776 C781 1.425 . S
C776 C783 1.409 . S
C777 H769 0.930 . S
C777 C775 1.419 . S
C777 C778 1.362 . S
C778 H770 0.930 . S
C778 C777 1.362 . S
C778 C781 1.409 . S
C779 H771 0.930 . S
C779 C780 1.355 . S
C779 C781 1.415 . S
C780 C779 1.355 . S
C780 C782 1.419 . S
C781 C776 1.425 . S
C781 C778 1.409 . S
C781 C779 1.415 . S
C782 H772 0.930 . S
C782 C780 1.419 . S
C782 C783 1.362 . S
C783 H773 0.930 . S
C783 C776 1.409 . S
C783 C782 1.362 . S
H784 C790 0.930 . S
H785 C793 0.930 . S
H786 C794 0.930 . S
H787 C795 0.930 . S
H788 C798 0.930 . S
H789 C799 0.930 . S
C790 H784 0.930 . S
C790 C791 1.355 . S
C790 C792 1.415 . S
C791 C790 1.355 . S
C791 C793 1.419 . S
C792 C790 1.415 . S
C792 C797 1.425 . S
C792 C799 1.409 . S
C793 H785 0.930 . S
C793 C791 1.419 . S
C793 C794 1.362 . S
C794 H786 0.930 . S
C794 C793 1.362 . S
C794 C797 1.409 . S
C795 H787 0.930 . S
C795 C796 1.355 . S
C795 C797 1.415 . S
C796 C795 1.355 . S
C796 C798 1.419 . S
C797 C792 1.425 . S
C797 C794 1.409 . S
C797 C795 1.415 . S
C798 H788 0.930 . S
C798 C796 1.419 . S
C798 C799 1.362 . S
C799 H789 0.930 . S
C799 C792 1.409 . S
C799 C798 1.362 . S
H800 C806 0.930 . S
H801 C809 0.930 . S
H802 C810 0.930 . S
H803 C811 0.930 . S
H804 C814 0.930 . S
H805 C815 0.930 . S
C806 H800 0.930 . S
C806 C807 1.355 1_655 S
C806 C808 1.415 . S
C807 C806 1.355 1_455 S
C807 C809 1.419 . S
C808 C806 1.415 . S
C808 C813 1.425 1_645 S
C808 C815 1.409 1_545 S
C809 H801 0.930 . S
C809 C807 1.419 . S
C809 C810 1.362 . S
C810 H802 0.930 . S
C810 C809 1.362 . S
C810 C813 1.409 1_545 S
C811 H803 0.930 . S
C811 C812 1.355 1_455 S
C811 C813 1.415 . S
C812 C811 1.355 1_655 S
C812 C814 1.419 . S
C813 C808 1.425 1_465 S
C813 C810 1.409 1_565 S
C813 C811 1.415 . S
C814 H804 0.930 . S
C814 C812 1.419 . S
C814 C815 1.362 . S
C815 H805 0.930 . S
C815 C808 1.409 1_565 S
C815 C814 1.362 . S
H816 C822 0.930 . S
H817 C825 0.930 . S
H818 C826 0.930 1_655 S
H819 C827 0.930 . S
H820 C830 0.930 . S
H821 C831 0.930 1_455 S
C822 H816 0.930 . S
C822 C823 1.355 1_545 S
C822 C824 1.415 . S
C823 C822 1.355 1_565 S
C823 C825 1.419 . S
C824 C822 1.415 . S
C824 C829 1.425 1_445 S
C824 C831 1.409 1_455 S
C825 H817 0.930 . S
C825 C823 1.419 . S
C825 C826 1.362 . S
C826 H818 0.930 1_455 S
C826 C825 1.362 . S
C826 C829 1.409 1_455 S
C827 H819 0.930 . S
C827 C828 1.355 1_565 S
C827 C829 1.415 . S
C828 C827 1.355 1_545 S
C828 C830 1.419 . S
C829 C824 1.425 1_665 S
C829 C826 1.409 1_655 S
C829 C827 1.415 . S
C830 H820 0.930 . S
C830 C828 1.419 . S
C830 C831 1.362 . S
C831 H821 0.930 1_655 S
C831 C824 1.409 1_655 S
C831 C830 1.362 . S
H832 C838 0.930 . S
H833 C841 0.930 . S
H834 C842 0.930 . S
H835 C843 0.930 . S
H836 C846 0.930 . S
H837 C847 0.930 . S
C838 H832 0.930 . S
C838 C839 1.355 . S
C838 C840 1.415 . S
C839 C838 1.355 . S
C839 C841 1.419 1_655 S
C840 C838 1.415 . S
C840 C845 1.425 1_655 S
C840 C847 1.409 . S
C841 H833 0.930 . S
C841 C839 1.419 1_455 S
C841 C842 1.362 . S
C842 H834 0.930 . S
C842 C841 1.362 . S
C842 C845 1.409 . S
C843 H835 0.930 . S
C843 C844 1.355 . S
C843 C845 1.415 . S
C844 C843 1.355 . S
C844 C846 1.419 1_455 S
C845 C840 1.425 1_455 S
C845 C842 1.409 . S
C845 C843 1.415 . S
C846 H836 0.930 . S
C846 C844 1.419 1_655 S
C846 C847 1.362 . S
C847 H837 0.930 . S
C847 C840 1.409 . S
C847 C846 1.362 . S
H848 C854 0.930 . S
H849 C857 0.930 . S
H850 C858 0.930 . S
H851 C859 0.930 . S
H852 C862 0.930 . S
H853 C863 0.930 . S
C854 H848 0.930 . S
C854 C855 1.355 1_565 S
C854 C856 1.415 . S
C855 C854 1.355 1_545 S
C855 C857 1.419 . S
C856 C854 1.415 . S
C856 C861 1.425 1_565 S
C856 C863 1.409 . S
C857 H849 0.930 . S
C857 C855 1.419 . S
C857 C858 1.362 . S
C858 H850 0.930 . S
C858 C857 1.362 . S
C858 C861 1.409 . S
C859 H851 0.930 . S
C859 C860 1.355 1_545 S
C859 C861 1.415 . S
C860 C859 1.355 1_565 S
C860 C862 1.419 . S
C861 C856 1.425 1_545 S
C861 C858 1.409 . S
C861 C859 1.415 . S
C862 H852 0.930 . S
C862 C860 1.419 . S
C862 C863 1.362 . S
C863 H853 0.930 . S
C863 C856 1.409 . S
C863 C862 1.362 . S
H864 C870 0.930 . S
H865 C873 0.930 . S
H866 C874 0.930 . S
H867 C875 0.930 . S
H868 C878 0.930 . S
H869 C879 0.930 . S
C870 H864 0.930 . S
C870 C871 1.355 . S
C870 C872 1.415 . S
C871 C870 1.355 . S
C871 C873 1.419 . S
C872 C870 1.415 . S
C872 C877 1.425 . S
C872 C879 1.409 . S
C873 H865 0.930 . S
C873 C871 1.419 . S
C873 C874 1.362 . S
C874 H866 0.930 . S
C874 C873 1.362 . S
C874 C877 1.409 . S
C875 H867 0.930 . S
C875 C876 1.355 . S
C875 C877 1.415 . S
C876 C875 1.355 . S
C876 C878 1.419 . S
C877 C872 1.425 . S
C877 C874 1.409 . S
C877 C875 1.415 . S
C878 H868 0.930 . S
C878 C876 1.419 . S
C878 C879 1.362 . S
C879 H869 0.930 . S
C879 C872 1.409 . S
C879 C878 1.362 . S
H880 C886 0.930 . S
H881 C889 0.930 . S
H882 C890 0.930 . S
H883 C891 0.930 . S
H884 C894 0.930 . S
H885 C895 0.930 . S
C886 H880 0.930 . S
C886 C887 1.355 . S
C886 C888 1.415 . S
C887 C886 1.355 . S
C887 C889 1.419 . S
C888 C886 1.415 . S
C888 C893 1.425 . S
C888 C895 1.409 . S
C889 H881 0.930 . S
C889 C887 1.419 . S
C889 C890 1.362 . S
C890 H882 0.930 . S
C890 C889 1.362 . S
C890 C893 1.409 . S
C891 H883 0.930 . S
C891 C892 1.355 . S
C891 C893 1.415 . S
C892 C891 1.355 . S
C892 C894 1.419 . S
C893 C888 1.425 . S
C893 C890 1.409 . S
C893 C891 1.415 . S
C894 H884 0.930 . S
C894 C892 1.419 . S
C894 C895 1.362 . S
C895 H885 0.930 . S
C895 C888 1.409 . S
C895 C894 1.362 . S
H896 C902 0.930 . S
H897 C905 0.930 . S
H898 C906 0.930 . S
H899 C907 0.930 . S
H900 C910 0.930 . S
H901 C911 0.930 . S
C902 H896 0.930 . S
C902 C903 1.355 . S
C902 C904 1.415 . S
C903 C902 1.355 . S
C903 C905 1.419 . S
C904 C902 1.415 . S
C904 C909 1.425 1_565 S
C904 C911 1.409 1_565 S
C905 H897 0.930 . S
C905 C903 1.419 . S
C905 C906 1.362 . S
C906 H898 0.930 . S
C906 C905 1.362 . S
C906 C909 1.409 1_565 S
C907 H899 0.930 . S
C907 C908 1.355 . S
C907 C909 1.415 . S
C908 C907 1.355 . S
C908 C910 1.419 . S
C909 C904 1.425 1_545 S
C909 C906 1.409 1_545 S
C909 C907 1.415 . S
C910 H900 0.930 . S
C910 C908 1.419 . S
C910 C911 1.362 . S
C911 H901 0.930 . S
C911 C904 1.409 1_545 S
C911 C910 1.362 . S
H912 C918 0.930 . S
H913 C921 0.930 . S
H914 C922 0.930 . S
H915 C923 0.930 . S
H916 C926 0.930 . S
H917 C927 0.930 . S
C918 H912 0.930 . S
C918 C919 1.355 . S
C918 C920 1.415 . S
C919 C918 1.355 . S
C919 C921 1.419 . S
C920 C918 1.415 . S
C920 C925 1.425 1_455 S
C920 C927 1.409 1_455 S
C921 H913 0.930 . S
C921 C919 1.419 . S
C921 C922 1.362 . S
C922 H914 0.930 . S
C922 C921 1.362 . S
C922 C925 1.409 1_455 S
C923 H915 0.930 . S
C923 C924 1.355 . S
C923 C925 1.415 . S
C924 C923 1.355 . S
C924 C926 1.419 . S
C925 C920 1.425 1_655 S
C925 C922 1.409 1_655 S
C925 C923 1.415 . S
C926 H916 0.930 . S
C926 C924 1.419 . S
C926 C927 1.362 . S
C927 H917 0.930 . S
C927 C920 1.409 1_655 S
C927 C926 1.362 . S
H928 C934 0.930 . S
H929 C937 0.930 . S
H930 C938 0.930 . S
H931 C939 0.930 . S
H932 C942 0.930 . S
H933 C943 0.930 . S
C934 H928 0.930 . S
C934 C935 1.355 . S
C934 C936 1.415 . S
C935 C934 1.355 . S
C935 C937 1.419 1_655 S
C936 C934 1.415 . S
C936 C941 1.425 1_655 S
C936 C943 1.409 . S
C937 H929 0.930 . S
C937 C935 1.419 1_455 S
C937 C938 1.362 . S
C938 H930 0.930 . S
C938 C937 1.362 . S
C938 C941 1.409 . S
C939 H931 0.930 . S
C939 C940 1.355 . S
C939 C941 1.415 . S
C940 C939 1.355 . S
C940 C942 1.419 1_455 S
C941 C936 1.425 1_455 S
C941 C938 1.409 . S
C941 C939 1.415 . S
C942 H932 0.930 . S
C942 C940 1.419 1_655 S
C942 C943 1.362 . S
C943 H933 0.930 . S
C943 C936 1.409 . S
C943 C942 1.362 . S
H944 C950 0.930 1_545 S
H945 C953 0.930 . S
H946 C954 0.930 . S
H947 C955 0.930 1_565 S
H948 C958 0.930 . S
H949 C959 0.930 . S
C950 H944 0.930 1_565 S
C950 C951 1.355 . S
C950 C952 1.415 1_565 S
C951 C950 1.355 . S
C951 C953 1.419 . S
C952 C950 1.415 1_545 S
C952 C957 1.425 1_545 S
C952 C959 1.409 . S
C953 H945 0.930 . S
C953 C951 1.419 . S
C953 C954 1.362 . S
C954 H946 0.930 . S
C954 C953 1.362 . S
C954 C957 1.409 . S
C955 H947 0.930 1_545 S
C955 C956 1.355 . S
C955 C957 1.415 1_545 S
C956 C955 1.355 . S
C956 C958 1.419 . S
C957 C952 1.425 1_565 S
C957 C954 1.409 . S
C957 C955 1.415 1_565 S
C958 H948 0.930 . S
C958 C956 1.419 . S
C958 C959 1.362 . S
C959 H949 0.930 . S
C959 C952 1.409 . S
C959 C958 1.362 . S
H960 C966 0.930 . S
H961 C969 0.930 . S
H962 C970 0.929 1_655 S
H963 C971 0.930 . S
H964 C974 0.930 . S
H965 C975 0.929 1_455 S
C966 H960 0.930 . S
C966 C967 1.355 . S
C966 C968 1.415 . S
C967 C966 1.355 . S
C967 C969 1.419 . S
C968 C966 1.415 . S
C968 C973 1.425 1_445 S
C968 C975 1.409 1_445 S
C969 H961 0.930 . S
C969 C967 1.419 . S
C969 C970 1.362 . S
C970 H962 0.929 1_455 S
C970 C969 1.362 . S
C970 C973 1.409 1_445 S
C971 H963 0.930 . S
C971 C972 1.355 . S
C971 C973 1.415 . S
C972 C971 1.355 . S
C972 C974 1.419 . S
C973 C968 1.425 1_665 S
C973 C970 1.409 1_665 S
C973 C971 1.415 . S
C974 H964 0.930 . S
C974 C972 1.419 . S
C974 C975 1.362 . S
C975 H965 0.929 1_655 S
C975 C968 1.409 1_665 S
C975 C974 1.362 . S
H976 C982 0.930 . S
H977 C985 0.930 . S
H978 C986 0.930 . S
H979 C987 0.930 . S
H980 C990 0.930 . S
H981 C991 0.930 . S
C982 H976 0.930 . S
C982 C983 1.355 . S
C982 C984 1.415 . S
C983 C982 1.355 . S
C983 C985 1.419 1_545 S
C984 C982 1.415 . S
C984 C989 1.425 1_645 S
C984 C991 1.409 1_655 S
C985 H977 0.930 . S
C985 C983 1.419 1_565 S
C985 C986 1.362 . S
C986 H978 0.930 . S
C986 C985 1.362 . S
C986 C989 1.409 1_655 S
C987 H979 0.930 . S
C987 C988 1.355 . S
C987 C989 1.415 . S
C988 C987 1.355 . S
C988 C990 1.419 1_565 S
C989 C984 1.425 1_465 S
C989 C986 1.409 1_455 S
C989 C987 1.415 . S
C990 H980 0.930 . S
C990 C988 1.419 1_545 S
C990 C991 1.362 . S
C991 H981 0.930 . S
C991 C984 1.409 1_455 S
C991 C990 1.362 . S
H992 C998 0.930 . S
H993 C1001 0.930 . S
H994 C1002 0.930 . S
H995 C1003 0.930 . S
H996 C1006 0.930 . S
H997 C1007 0.930 . S
C998 H992 0.930 . S
C998 C999 1.355 . S
C998 C1000 1.415 . S
C999 C998 1.355 . S
C999 C1001 1.419 . S
C1000 C998 1.415 . S
C1000 C1005 1.425 1_545 S
C1000 C1007 1.409 1_545 S
C1001 H993 0.930 . S
C1001 C999 1.419 . S
C1001 C1002 1.362 . S
C1002 H994 0.930 . S
C1002 C1001 1.362 . S
C1002 C1005 1.409 1_545 S
C1003 H995 0.930 . S
C1003 C1004 1.355 . S
C1003 C1005 1.415 . S
C1004 C1003 1.355 . S
C1004 C1006 1.419 . S
C1005 C1000 1.425 1_565 S
C1005 C1002 1.409 1_565 S
C1005 C1003 1.415 . S
C1006 H996 0.930 . S
C1006 C1004 1.419 . S
C1006 C1007 1.362 . S
C1007 H997 0.930 . S
C1007 C1000 1.409 1_565 S
C1007 C1006 1.362 . S
H1008 C1014 0.930 . S
H1009 C1017 0.930 . S
H1010 C1018 0.930 . S
H1011 C1019 0.930 . S
H1012 C1022 0.930 . S
H1013 C1023 0.930 . S
C1014 H1008 0.930 . S
C1014 C1015 1.355 . S
C1014 C1016 1.415 . S
C1015 C1014 1.355 . S
C1015 C1017 1.419 . S
C1016 C1014 1.415 . S
C1016 C1021 1.425 1_655 S
C1016 C1023 1.409 1_655 S
C1017 H1009 0.930 . S
C1017 C1015 1.419 . S
C1017 C1018 1.362 . S
C1018 H1010 0.930 . S
C1018 C1017 1.362 . S
C1018 C1021 1.409 1_655 S
C1019 H1011 0.930 . S
C1019 C1020 1.355 . S
C1019 C1021 1.415 . S
C1020 C1019 1.355 . S
C1020 C1022 1.419 . S
C1021 C1016 1.425 1_455 S
C1021 C1018 1.409 1_455 S
C1021 C1019 1.415 . S
C1022 H1012 0.930 . S
C1022 C1020 1.419 . S
C1022 C1023 1.362 . S
C1023 H1013 0.930 . S
C1023 C1016 1.409 1_455 S
C1023 C1022 1.362 . S
H1024 C1030 0.930 . S
H1025 C1033 0.930 . S
H1026 C1034 0.930 . S
H1027 C1035 0.930 . S
H1028 C1038 0.930 . S
H1029 C1039 0.930 . S
C1030 H1024 0.930 . S
C1030 C1031 1.355 . S
C1030 C1032 1.415 . S
C1031 C1030 1.355 . S
C1031 C1033 1.419 . S
C1032 C1030 1.415 . S
C1032 C1037 1.425 . S
C1032 C1039 1.409 . S
C1033 H1025 0.930 . S
C1033 C1031 1.419 . S
C1033 C1034 1.362 . S
C1034 H1026 0.930 . S
C1034 C1033 1.362 . S
C1034 C1037 1.409 . S
C1035 H1027 0.930 . S
C1035 C1036 1.355 . S
C1035 C1037 1.415 . S
C1036 C1035 1.355 . S
C1036 C1038 1.419 . S
C1037 C1032 1.425 . S
C1037 C1034 1.409 . S
C1037 C1035 1.415 . S
C1038 H1028 0.930 . S
C1038 C1036 1.419 . S
C1038 C1039 1.362 . S
C1039 H1029 0.930 . S
C1039 C1032 1.409 . S
C1039 C1038 1.362 . S
H1040 C1046 0.930 . S
H1041 C1049 0.930 . S
H1042 C1050 0.930 . S
H1043 C1051 0.930 . S
H1044 C1054 0.930 . S
H1045 C1055 0.930 . S
C1046 H1040 0.930 . S
C1046 C1047 1.355 . S
C1046 C1048 1.415 . S
C1047 C1046 1.355 . S
C1047 C1049 1.419 . S
C1048 C1046 1.415 . S
C1048 C1053 1.425 . S
C1048 C1055 1.409 . S
C1049 H1041 0.930 . S
C1049 C1047 1.419 . S
C1049 C1050 1.362 . S
C1050 H1042 0.930 . S
C1050 C1049 1.362 . S
C1050 C1053 1.409 . S
C1051 H1043 0.930 . S
C1051 C1052 1.355 . S
C1051 C1053 1.415 . S
C1052 C1051 1.355 . S
C1052 C1054 1.419 . S
C1053 C1048 1.425 . S
C1053 C1050 1.409 . S
C1053 C1051 1.415 . S
C1054 H1044 0.930 . S
C1054 C1052 1.419 . S
C1054 C1055 1.362 . S
C1055 H1045 0.930 . S
C1055 C1048 1.409 . S
C1055 C1054 1.362 . S
H1056 C1062 0.930 . S
H1057 C1065 0.930 . S
H1058 C1066 0.930 . S
H1059 C1067 0.930 . S
H1060 C1070 0.930 . S
H1061 C1071 0.930 . S
C1062 H1056 0.930 . S
C1062 C1063 1.355 . S
C1062 C1064 1.415 . S
C1063 C1062 1.355 . S
C1063 C1065 1.419 . S
C1064 C1062 1.415 . S
C1064 C1069 1.425 . S
C1064 C1071 1.409 . S
C1065 H1057 0.930 . S
C1065 C1063 1.419 . S
C1065 C1066 1.362 . S
C1066 H1058 0.930 . S
C1066 C1065 1.362 . S
C1066 C1069 1.409 . S
C1067 H1059 0.930 . S
C1067 C1068 1.355 . S
C1067 C1069 1.415 . S
C1068 C1067 1.355 . S
C1068 C1070 1.419 . S
C1069 C1064 1.425 . S
C1069 C1066 1.409 . S
C1069 C1067 1.415 . S
C1070 H1060 0.930 . S
C1070 C1068 1.419 . S
C1070 C1071 1.362 . S
C1071 H1061 0.930 . S
C1071 C1064 1.409 . S
C1071 C1070 1.362 . S
H1072 C1078 0.930 . S
H1073 C1081 0.930 . S
H1074 C1082 0.930 . S
H1075 C1083 0.930 . S
H1076 C1086 0.930 . S
H1077 C1087 0.930 . S
C1078 H1072 0.930 . S
C1078 C1079 1.355 . S
C1078 C1080 1.415 . S
C1079 C1078 1.355 . S
C1079 C1081 1.419 . S
C1080 C1078 1.415 . S
C1080 C1085 1.425 . S
C1080 C1087 1.409 . S
C1081 H1073 0.930 . S
C1081 C1079 1.419 . S
C1081 C1082 1.362 . S
C1082 H1074 0.930 . S
C1082 C1081 1.362 . S
C1082 C1085 1.409 . S
C1083 H1075 0.930 . S
C1083 C1084 1.355 . S
C1083 C1085 1.415 . S
C1084 C1083 1.355 . S
C1084 C1086 1.419 . S
C1085 C1080 1.425 . S
C1085 C1082 1.409 . S
C1085 C1083 1.415 . S
C1086 H1076 0.930 . S
C1086 C1084 1.419 . S
C1086 C1087 1.362 . S
C1087 H1077 0.930 . S
C1087 C1080 1.409 . S
C1087 C1086 1.362 . S
H1088 C1094 0.930 . S
H1089 C1097 0.930 . S
H1090 C1098 0.930 . S
H1091 C1099 0.930 . S
H1092 C1102 0.930 . S
H1093 C1103 0.930 . S
C1094 H1088 0.930 . S
C1094 C1095 1.355 . S
C1094 C1096 1.415 . S
C1095 C1094 1.355 . S
C1095 C1097 1.419 . S
C1096 C1094 1.415 . S
C1096 C1101 1.425 . S
C1096 C1103 1.409 . S
C1097 H1089 0.930 . S
C1097 C1095 1.419 . S
C1097 C1098 1.362 . S
C1098 H1090 0.930 . S
C1098 C1097 1.362 . S
C1098 C1101 1.409 . S
C1099 H1091 0.930 . S
C1099 C1100 1.355 . S
C1099 C1101 1.415 . S
C1100 C1099 1.355 . S
C1100 C1102 1.419 . S
C1101 C1096 1.425 . S
C1101 C1098 1.409 . S
C1101 C1099 1.415 . S
C1102 H1092 0.930 . S
C1102 C1100 1.419 . S
C1102 C1103 1.362 . S
C1103 H1093 0.930 . S
C1103 C1096 1.409 . S
C1103 C1102 1.362 . S
H1104 C1110 0.930 . S
H1105 C1113 0.930 . S
H1106 C1114 0.930 . S
H1107 C1115 0.930 . S
H1108 C1118 0.930 . S
H1109 C1119 0.930 . S
C1110 H1104 0.930 . S
C1110 C1111 1.355 . S
C1110 C1112 1.415 . S
C1111 C1110 1.355 . S
C1111 C1113 1.419 . S
C1112 C1110 1.415 . S
C1112 C1117 1.425 . S
C1112 C1119 1.409 . S
C1113 H1105 0.930 . S
C1113 C1111 1.419 . S
C1113 C1114 1.362 . S
C1114 H1106 0.930 . S
C1114 C1113 1.362 . S
C1114 C1117 1.409 . S
C1115 H1107 0.930 . S
C1115 C1116 1.355 . S
C1115 C1117 1.415 . S
C1116 C1115 1.355 . S
C1116 C1118 1.419 . S
C1117 C1112 1.425 . S
C1117 C1114 1.409 . S
C1117 C1115 1.415 . S
C1118 H1108 0.930 . S
C1118 C1116 1.419 . S
C1118 C1119 1.362 . S
C1119 H1109 0.930 . S
C1119 C1112 1.409 . S
C1119 C1118 1.362 . S
H1120 C1126 0.930 . S
H1121 C1129 0.930 . S
H1122 C1130 0.930 . S
H1123 C1131 0.930 . S
H1124 C1134 0.930 . S
H1125 C1135 0.930 . S
C1126 H1120 0.930 . S
C1126 C1127 1.355 . S
C1126 C1128 1.415 . S
C1127 C1126 1.355 . S
C1127 C1129 1.419 . S
C1128 C1126 1.415 . S
C1128 C1133 1.425 . S
C1128 C1135 1.409 . S
C1129 H1121 0.930 . S
C1129 C1127 1.419 . S
C1129 C1130 1.362 . S
C1130 H1122 0.930 . S
C1130 C1129 1.362 . S
C1130 C1133 1.409 . S
C1131 H1123 0.930 . S
C1131 C1132 1.355 . S
C1131 C1133 1.415 . S
C1132 C1131 1.355 . S
C1132 C1134 1.419 . S
C1133 C1128 1.425 . S
C1133 C1130 1.409 . S
C1133 C1131 1.415 . S
C1134 H1124 0.930 . S
C1134 C1132 1.419 . S
C1134 C1135 1.362 . S
C1135 H1125 0.930 . S
C1135 C1128 1.409 . S
C1135 C1134 1.362 . S
H1136 C1142 0.930 . S
H1137 C1145 0.930 . S
H1138 C1146 0.930 . S
H1139 C1147 0.930 . S
H1140 C1150 0.930 . S
H1141 C1151 0.930 . S
C1142 H1136 0.930 . S
C1142 C1143 1.355 . S
C1142 C1144 1.415 . S
C1143 C1142 1.355 . S
C1143 C1145 1.419 . S
C1144 C1142 1.415 . S
C1144 C1149 1.425 . S
C1144 C1151 1.409 . S
C1145 H1137 0.930 . S
C1145 C1143 1.419 . S
C1145 C1146 1.362 . S
C1146 H1138 0.930 . S
C1146 C1145 1.362 . S
C1146 C1149 1.409 . S
C1147 H1139 0.930 . S
C1147 C1148 1.355 . S
C1147 C1149 1.415 . S
C1148 C1147 1.355 . S
C1148 C1150 1.419 . S
C1149 C1144 1.425 . S
C1149 C1146 1.409 . S
C1149 C1147 1.415 . S
C1150 H1140 0.930 . S
C1150 C1148 1.419 . S
C1150 C1151 1.362 . S
C1151 H1141 0.930 . S
C1151 C1144 1.409 . S
C1151 C1150 1.362 . S
H1152 C1158 0.930 . S
H1153 C1161 0.930 . S
H1154 C1162 0.930 . S
H1155 C1163 0.930 . S
H1156 C1166 0.930 . S
H1157 C1167 0.930 . S
C1158 H1152 0.930 . S
C1158 C1159 1.355 . S
C1158 C1160 1.415 . S
C1159 C1158 1.355 . S
C1159 C1161 1.419 . S
C1160 C1158 1.415 . S
C1160 C1165 1.425 . S
C1160 C1167 1.409 . S
C1161 H1153 0.930 . S
C1161 C1159 1.419 . S
C1161 C1162 1.362 . S
C1162 H1154 0.930 . S
C1162 C1161 1.362 . S
C1162 C1165 1.409 . S
C1163 H1155 0.930 . S
C1163 C1164 1.355 . S
C1163 C1165 1.415 . S
C1164 C1163 1.355 . S
C1164 C1166 1.419 . S
C1165 C1160 1.425 . S
C1165 C1162 1.409 . S
C1165 C1163 1.415 . S
C1166 H1156 0.930 . S
C1166 C1164 1.419 . S
C1166 C1167 1.362 . S
C1167 H1157 0.930 . S
C1167 C1160 1.409 . S
C1167 C1166 1.362 . S
H1168 C1174 0.930 . S
H1169 C1177 0.930 . S
H1170 C1178 0.930 . S
H1171 C1179 0.930 . S
H1172 C1182 0.930 . S
H1173 C1183 0.930 . S
C1174 H1168 0.930 . S
C1174 C1175 1.355 . S
C1174 C1176 1.415 . S
C1175 C1174 1.355 . S
C1175 C1177 1.419 . S
C1176 C1174 1.415 . S
C1176 C1181 1.425 . S
C1176 C1183 1.409 . S
C1177 H1169 0.930 . S
C1177 C1175 1.419 . S
C1177 C1178 1.362 . S
C1178 H1170 0.930 . S
C1178 C1177 1.362 . S
C1178 C1181 1.409 . S
C1179 H1171 0.930 . S
C1179 C1180 1.355 . S
C1179 C1181 1.415 . S
C1180 C1179 1.355 . S
C1180 C1182 1.419 . S
C1181 C1176 1.425 . S
C1181 C1178 1.409 . S
C1181 C1179 1.415 . S
C1182 H1172 0.930 . S
C1182 C1180 1.419 . S
C1182 C1183 1.362 . S
C1183 H1173 0.930 . S
C1183 C1176 1.409 . S
C1183 C1182 1.362 . S
C551 C33 0.959 . S
C556 C379 0.890 . S
C567 C277 0.942 . S
C572 C67 0.926 . S
C583 C311 0.938 . S
C588 C101 0.929 . S
C599 C345 0.906 . S
C604 C135 0.949 . S
C615 C175 0.969 . S
C620 C169 0.907 . S
C631 C209 0.894 . S
C636 C203 0.957 . S
C647 C237 0.956 . S
C652 C243 0.895 . S
C663 C271 0.945 . S
C668 C141 0.913 . S
C679 C305 0.961 . S
C684 C107 0.887 . S
C695 C339 0.913 . S
C700 C5 0.961 . S
C711 C39 0.947 . S
C716 C373 0.922 . S
C727 C407 0.961 . S
C732 C73 0.887 . S
C743 C447 0.934 . S
C748 C441 0.931 . S
C759 C481 0.913 . S
C764 C475 0.945 . S
C775 C515 0.938 . S
C780 C509 0.928 . S
C791 C543 0.922 . S
C796 C413 0.947 . S
C807 C20 1.370 . S
C812 C88 1.360 . S
C823 C54 1.367 . S
C828 C122 1.373 . S
C839 C224 1.353 . S
C844 C156 1.361 . S
C855 C258 1.373 . S
C860 C190 1.372 . S
C871 C360 1.370 . S
C876 C292 1.360 . S
C887 C326 1.353 . S
C892 C394 1.354 . S
C903 C428 1.353 . S
C908 C496 1.362 . S
C919 C530 1.354 . S
C924 C462 1.354 . S
C935 C70 1.285 . S
C940 C2 1.250 . S
C951 C36 1.291 . S
C956 C104 1.231 . S
C967 C138 1.285 . S
C972 C206 1.226 . S
C983 C240 1.245 . S
C988 C172 1.287 . S
C999 C342 1.284 . S
C1004 C274 1.226 . S
C1015 C308 1.269 . S
C1020 C376 1.232 . S
C1031 C410 1.283 . S
C1036 C478 1.252 . S
C1047 C512 1.227 . S
C1052 C444 1.280 . S
C1063 C485 1.444 . S
C1068 C9 1.447 . S
C1079 C43 1.492 . S
C1084 C519 1.489 . S
C1095 C77 1.444 . S
C1100 C417 1.442 . S
C1111 C111 1.474 . S
C1116 C451 1.471 . S
C1127 C145 1.491 . S
C1132 C349 1.488 . S
C1143 C383 1.503 . S
C1148 C179 1.505 . S
C1159 C213 1.508 . S
C1164 C281 1.508 . S
C1175 C247 1.506 . S
C1180 C315 1.507 . S
