# Generated by pormake.
# Topology qtz-e, (6)-cn, num edge types: 1
# Building blocks:
#     Node 0, Type 0, BuildingBlock: MIFKUJ_clean_sbu_0, # of connection points: 6
#     Node 1, Type 0, BuildingBlock: MIFKUJ_clean_sbu_0, # of connection points: 6
#     Node 2, Type 0, BuildingBlock: MIFKUJ_clean_sbu_0, # of connection points: 6
#     Node 3, Type 0, BuildingBlock: MIFKUJ_clean_sbu_0, # of connection points: 6
#     Node 4, Type 0, BuildingBlock: MIFKUJ_clean_sbu_0, # of connection points: 6
#     Node 5, Type 0, BuildingBlock: MIFKUJ_clean_sbu_0, # of connection points: 6
#     Edge 6, Type (0, 0), BuildingBlock: MIFKUJ_clean_linker_0, # of connection points: 2
#     Edge 7, Type (0, 0), BuildingBlock: MIFKUJ_clean_linker_0, # of connection points: 2
#     Edge 8, Type (0, 0), BuildingBlock: MIFKUJ_clean_linker_0, # of connection points: 2
#     Edge 9, Type (0, 0), BuildingBlock: MIFKUJ_clean_linker_0, # of connection points: 2
#     Edge 10, Type (0, 0), BuildingBlock: MIFKUJ_clean_linker_0, # of connection points: 2
#     Edge 11, Type (0, 0), BuildingBlock: MIFKUJ_clean_linker_0, # of connection points: 2
#     Edge 12, Type (0, 0), BuildingBlock: MIFKUJ_clean_linker_0, # of connection points: 2
#     Edge 13, Type (0, 0), BuildingBlock: MIFKUJ_clean_linker_0, # of connection points: 2
#     Edge 14, Type (0, 0), BuildingBlock: MIFKUJ_clean_linker_0, # of connection points: 2
#     Edge 15, Type (0, 0), BuildingBlock: MIFKUJ_clean_linker_0, # of connection points: 2
#     Edge 16, Type (0, 0), BuildingBlock: MIFKUJ_clean_linker_0, # of connection points: 2
#     Edge 17, Type (0, 0), BuildingBlock: MIFKUJ_clean_linker_0, # of connection points: 2
#     Edge 18, Type (0, 0), BuildingBlock: MIFKUJ_clean_linker_0, # of connection points: 2
#     Edge 19, Type (0, 0), BuildingBlock: MIFKUJ_clean_linker_0, # of connection points: 2
#     Edge 20, Type (0, 0), BuildingBlock: MIFKUJ_clean_linker_0, # of connection points: 2
#     Edge 21, Type (0, 0), BuildingBlock: MIFKUJ_clean_linker_0, # of connection points: 2
#     Edge 22, Type (0, 0), BuildingBlock: MIFKUJ_clean_linker_0, # of connection points: 2
#     Edge 23, Type (0, 0), BuildingBlock: MIFKUJ_clean_linker_0, # of connection points: 2
# Relax obj value: 0.224
# Max RMSD: 0.224
# Mean RMSD: 0.224
data_MOF--net-qtz-e--node1-MIFKUJ_clean_sbu_0--edge1-MIFKUJ_clean_linker_0
_symmetry_space_group_name_H-M    P1
_symmetry_Int_Tables_number       1
_symmetry_cell_setting            triclinic
loop_
_symmetry_equiv_pos_as_xyz
'x, y, z'
_cell_length_a     31.386613
_cell_length_b     31.359721
_cell_length_c     53.311913
_cell_angle_alpha  89.896092
_cell_angle_beta   90.210703
_cell_angle_gamma 120.03249
loop_
_atom_site_label
_atom_site_type_symbol
_atom_site_fract_x
_atom_site_fract_y
_atom_site_fract_z
_atom_type_partial_charge
Zn0 Zn 0.19365 0.34038 0.97998 0.0
Zn1 Zn 0.17198 0.3547 0.05718 0.0
C2 C 0.26579 0.4393 0.9626 0.0
O3 O 0.23795 0.45303 0.97437 0.0
C4 C 0.11925 0.25582 0.07932 0.0
O5 O 0.15892 0.25314 0.07469 0.0
O6 O 0.16379 0.28049 0.95743 0.0
O7 O 0.20151 0.32736 0.01579 0.0
O8 O 0.23296 0.34882 0.05274 0.0
C9 C 0.19131 0.27805 0.94075 0.0
O10 O 0.23798 0.31216 0.94009 0.0
O11 O 0.25531 0.39462 0.96383 0.0
C12 C 0.15231 0.4116 0.09231 0.0
O13 O 0.10692 0.37913 0.08595 0.0
O14 O 0.18766 0.40977 0.08176 0.0
O15 O 0.14883 0.36908 0.02375 0.0
O16 O 0.14688 0.36576 0.98214 0.0
O17 O 0.11741 0.29365 0.07244 0.0
C18 C 0.23824 0.34026 0.0301 0.0
C19 C 0.135 0.37748 0.00272 0.0
Zn20 Zn 0.79646 0.199 0.31118 0.0
Zn21 Zn 0.79032 0.17966 0.38865 0.0
C22 C 0.77328 0.26873 0.28755 0.0
O23 O 0.73476 0.24783 0.30233 0.0
C24 C 0.83434 0.11647 0.3955 0.0
O25 O 0.87738 0.15571 0.39131 0.0
O26 O 0.81989 0.15882 0.29259 0.0
O27 O 0.82896 0.21988 0.34432 0.0
O28 O 0.85699 0.23997 0.38188 0.0
C29 C 0.86373 0.16814 0.29637 0.0
O30 O 0.89022 0.19982 0.3139 0.0
O31 O 0.8053 0.25523 0.28873 0.0
C32 C 0.72207 0.14922 0.42791 0.0
O33 O 0.6997 0.11237 0.41209 0.0
O34 O 0.76312 0.18611 0.42167 0.0
O35 O 0.73921 0.16486 0.36115 0.0
O36 O 0.72527 0.16098 0.32014 0.0
O37 O 0.79564 0.1194 0.39323 0.0
C38 C 0.86321 0.24935 0.35864 0.0
C39 C 0.71015 0.15634 0.34268 0.0
Zn40 Zn 0.65954 0.84057 0.6557 0.0
Zn41 Zn 0.62448 0.8185 0.72832 0.0
C42 C 0.59455 0.80737 0.61317 0.0
O43 O 0.61319 0.77841 0.61012 0.0
C44 C 0.73165 0.87071 0.74102 0.0
O45 O 0.73525 0.91143 0.73207 0.0
O46 O 0.72177 0.87961 0.63671 0.0
O47 O 0.65977 0.87091 0.68855 0.0
O48 O 0.62456 0.88213 0.72044 0.0
C49 C 0.72592 0.9191 0.62783 0.0
O50 O 0.69536 0.93342 0.6356 0.0
O51 O 0.60686 0.83524 0.63227 0.0
C52 C 0.5787 0.74189 0.76349 0.0
O53 O 0.61234 0.73328 0.75414 0.0
O54 O 0.57565 0.77836 0.7552 0.0
O55 O 0.60398 0.7792 0.69568 0.0
O56 O 0.64791 0.77333 0.66561 0.0
O57 O 0.69057 0.83079 0.7401 0.0
C58 C 0.63792 0.89198 0.69772 0.0
C59 C 0.62418 0.75677 0.68601 0.0
Zn60 Zn 0.802 0.66064 0.97747 0.0
Zn61 Zn 0.77776 0.60746 0.03535 0.0
C62 C 0.77251 0.58477 0.93811 0.0
O63 O 0.81979 0.60069 0.93583 0.0
C64 C 0.81959 0.6997 0.05989 0.0
O65 O 0.77293 0.68376 0.06459 0.0
O66 O 0.84002 0.71868 0.95445 0.0
O67 O 0.75533 0.6728 0.9985 0.0
O68 O 0.71841 0.60594 0.02203 0.0
C69 C 0.8316 0.7541 0.95199 0.0
O70 O 0.79692 0.75453 0.96552 0.0
O71 O 0.75799 0.60373 0.95468 0.0
C72 C 0.8005 0.57241 0.0791 0.0
O73 O 0.84411 0.60038 0.06913 0.0
O74 O 0.76286 0.56832 0.06772 0.0
O75 O 0.80347 0.57684 0.01173 0.0
O76 O 0.85301 0.64746 0.9933 0.0
O77 O 0.83051 0.67552 0.04471 0.0
C78 C 0.71669 0.63864 0.00875 0.0
C79 C 0.84231 0.60412 0.99949 0.0
Zn80 Zn 0.16226 0.79353 0.31409 0.0
Zn81 Zn 0.21594 0.82343 0.38736 0.0
C82 C 0.21498 0.75082 0.28838 0.0
O83 O 0.25151 0.7964 0.28678 0.0
C84 C 0.16793 0.88045 0.40351 0.0
O85 O 0.12822 0.84926 0.39107 0.0
O86 O 0.11227 0.7966 0.29107 0.0
O87 O 0.14043 0.78133 0.3509 0.0
O88 O 0.15283 0.75684 0.38708 0.0
C89 C 0.09157 0.76382 0.27419 0.0
O90 O 0.09993 0.72684 0.27352 0.0
O91 O 0.17674 0.7418 0.30067 0.0
C92 C 0.29877 0.85536 0.42074 0.0
O93 O 0.29615 0.89586 0.42025 0.0
O94 O 0.26917 0.81901 0.40717 0.0
O95 O 0.22931 0.8339 0.35046 0.0
O96 O 0.22471 0.86161 0.31405 0.0
O97 O 0.20571 0.87557 0.40312 0.0
C98 C 0.13177 0.74595 0.36564 0.0
C99 C 0.24503 0.86988 0.33551 0.0
Zn100 Zn 0.35728 0.14911 0.65006 0.0
Zn101 Zn 0.36251 0.1639 0.72857 0.0
C102 C 0.45075 0.15599 0.63673 0.0
O103 O 0.46805 0.18559 0.65618 0.0
C104 C 0.26801 0.10178 0.75124 0.0
O105 O 0.28871 0.07586 0.75767 0.0
O106 O 0.29768 0.12817 0.62826 0.0
O107 O 0.34199 0.11706 0.68394 0.0
O108 O 0.37015 0.10589 0.71905 0.0
C109 C 0.26054 0.08501 0.62763 0.0
O110 O 0.25822 0.05159 0.64333 0.0
O111 O 0.4055 0.13694 0.63098 0.0
C112 C 0.40617 0.23715 0.7676 0.0
O113 O 0.36763 0.24193 0.76294 0.0
O114 O 0.41101 0.20462 0.75578 0.0
O115 O 0.38097 0.20685 0.69758 0.0
O116 O 0.38764 0.22207 0.65714 0.0
O117 O 0.29259 0.14104 0.73859 0.0
C118 C 0.36255 0.09696 0.69573 0.0
C119 C 0.39431 0.23761 0.67969 0.0
H120 H 0.29164 0.75163 0.26342 0.0
H121 H 0.28612 0.69342 0.23105 0.0
H122 H 0.12957 0.60627 0.24279 0.0
H123 H 0.13473 0.66323 0.27529 0.0
H124 H 0.24247 0.58404 0.23082 0.0
H125 H 0.0802 0.58936 0.1829 0.0
H126 H 0.04779 0.64625 0.17791 0.0
H127 H 0.19332 0.77011 0.18726 0.0
H128 H 0.22664 0.71407 0.19202 0.0
H129 H 0.08456 0.41934 0.12094 0.0
H130 H 0.09962 0.47761 0.15479 0.0
H131 H 0.2561 0.54306 0.14399 0.0
H132 H 0.24137 0.48529 0.1097 0.0
H133 H 0.14772 0.57943 0.15505 0.0
H134 H 0.30932 0.5725 0.20395 0.0
H135 H 0.3403 0.5146 0.20947 0.0
H136 H 0.19428 0.39219 0.19884 0.0
H137 H 0.16233 0.44928 0.1937 0.0
C138 C 0.25622 0.71956 0.25941 0.0
C139 C 0.21359 0.71233 0.27178 0.0
C140 C 0.25317 0.68636 0.24098 0.0
C141 C 0.20736 0.64603 0.23437 0.0
C142 C 0.16519 0.63749 0.24749 0.0
C143 C 0.16829 0.67017 0.26608 0.0
C144 C 0.20258 0.61471 0.21259 0.0
C145 C 0.22252 0.58353 0.21405 0.0
C146 C 0.17557 0.61347 0.19103 0.0
C147 C 0.15581 0.64745 0.18803 0.0
C148 C 0.10528 0.62873 0.18382 0.0
C149 C 0.08676 0.66083 0.18104 0.0
C150 C 0.11851 0.71174 0.18227 0.0
C151 C 0.16878 0.73067 0.18636 0.0
C152 C 0.18747 0.69875 0.18917 0.0
C153 C 0.12222 0.44646 0.12552 0.0
C154 C 0.16175 0.44787 0.11245 0.0
C155 C 0.13072 0.47969 0.14493 0.0
C156 C 0.17893 0.51448 0.15199 0.0
C157 C 0.21858 0.51623 0.13895 0.0
C158 C 0.21008 0.48326 0.11933 0.0
C159 C 0.18752 0.54845 0.17321 0.0
C160 C 0.16809 0.58011 0.17169 0.0
C161 C 0.21485 0.54994 0.19473 0.0
C162 C 0.2336 0.51525 0.19809 0.0
C163 C 0.28383 0.53323 0.20286 0.0
C164 C 0.30154 0.50055 0.20593 0.0
C165 C 0.26931 0.44977 0.2044 0.0
C166 C 0.21925 0.43154 0.19991 0.0
C167 C 0.20134 0.46406 0.19688 0.0
H168 H 0.28311 0.42454 0.20675 0.0
H169 H 0.10422 0.73656 0.17998 0.0
H170 H 0.55066 0.19633 0.64102 0.0
H171 H 0.6057 0.18789 0.61158 0.0
H172 H 0.48063 0.08572 0.56738 0.0
H173 H 0.42542 0.09342 0.59678 0.0
H174 H 0.55357 0.06073 0.56868 0.0
H175 H 0.53902 0.20601 0.5531 0.0
H176 H 0.54505 0.28485 0.56499 0.0
H177 H 0.6986 0.34572 0.58185 0.0
H178 H 0.69326 0.26694 0.57035 0.0
H179 H 0.62818 0.08607 0.44293 0.0
H180 H 0.59182 0.08129 0.48388 0.0
H181 H 0.73096 0.19944 0.51079 0.0
H182 H 0.76719 0.20549 0.46941 0.0
H183 H 0.66256 0.21655 0.52369 0.0
H184 H 0.68107 0.07611 0.53086 0.0
H185 H 0.67531 0.99725 0.51956 0.0
H186 H 0.5177 0.92709 0.51842 0.0
H187 H 0.52234 0.00513 0.53001 0.0
C188 C 0.53482 0.17156 0.62522 0.0
C189 C 0.48376 0.14649 0.62088 0.0
C190 C 0.56633 0.16675 0.60845 0.0
C191 C 0.54727 0.1369 0.58706 0.0
C192 C 0.49613 0.10916 0.58369 0.0
C193 C 0.46464 0.11395 0.60041 0.0
C194 C 0.58024 0.13859 0.56676 0.0
C195 C 0.57743 0.09466 0.55874 0.0
C196 C 0.61238 0.18317 0.55434 0.0
C197 C 0.61561 0.2305 0.56117 0.0
C198 C 0.57397 0.23611 0.55952 0.0
C199 C 0.57727 0.28078 0.56616 0.0
C200 C 0.62214 0.32022 0.57425 0.0
C201 C 0.66384 0.3151 0.57564 0.0
C202 C 0.6607 0.27047 0.56906 0.0
C203 C 0.65114 0.11092 0.45759 0.0
C204 C 0.70048 0.14638 0.45289 0.0
C205 C 0.63042 0.10778 0.48113 0.0
C206 C 0.65882 0.13937 0.50066 0.0
C207 C 0.70832 0.17452 0.49608 0.0
C208 C 0.72894 0.17809 0.47239 0.0
C209 C 0.63553 0.1384 0.52507 0.0
C210 C 0.63985 0.18256 0.53385 0.0
C211 C 0.60516 0.094 0.53823 0.0
C212 C 0.60211 0.04672 0.53118 0.0
C213 C 0.64515 0.0439 0.52806 0.0
C214 C 0.64204 -0.00084 0.52175 0.0
C215 C 0.59609 0.95697 0.51837 0.0
C216 C 0.55321 0.9595 0.52132 0.0
C217 C 0.55606 0.00396 0.52787 0.0
H218 H 0.59368 0.92237 0.51343 0.0
H219 H 0.62464 0.35478 0.57937 0.0
H220 H 0.28666 0.53177 0.94879 0.0
H221 H 0.34135 0.58254 0.91513 0.0
H222 H 0.3852 0.47425 0.90222 0.0
H223 H 0.33015 0.42286 0.93561 0.0
H224 H 0.46292 0.5699 0.90072 0.0
H225 H 0.30422 0.47389 0.86485 0.0
H226 H 0.2145 0.43869 0.86105 0.0
H227 H 0.23463 0.58356 0.85129 0.0
H228 H 0.3245 0.61982 0.85562 0.0
H229 H 0.57149 0.65731 0.78188 0.0
H230 H 0.51991 0.60613 0.8162 0.0
H231 H 0.46089 0.70325 0.82552 0.0
H232 H 0.51194 0.75438 0.79085 0.0
H233 H 0.38962 0.60952 0.82817 0.0
H234 H 0.54952 0.70684 0.86417 0.0
H235 H 0.63871 0.74187 0.8704 0.0
H236 H 0.61723 0.59694 0.88228 0.0
H237 H 0.528 0.56086 0.87549 0.0
C238 C 0.30832 0.51895 0.939 0.0
C239 C 0.30374 0.47306 0.94474 0.0
C240 C 0.33933 0.54789 0.91969 0.0
C241 C 0.36649 0.53162 0.90592 0.0
C242 C 0.36412 0.48718 0.9125 0.0
C243 C 0.33266 0.45789 0.93159 0.0
C244 C 0.39636 0.56042 0.88422 0.0
C245 C 0.44716 0.57868 0.88483 0.0
C246 C 0.37519 0.5713 0.86348 0.0
C247 C 0.32112 0.54965 0.86088 0.0
C248 C 0.28953 0.49833 0.86218 0.0
C249 C 0.23863 0.47816 0.85987 0.0
C250 C 0.21888 0.50887 0.85597 0.0
C251 C 0.24999 0.55983 0.85435 0.0
C252 C 0.30092 0.58022 0.85675 0.0
C253 C 0.54756 0.66787 0.79121 0.0
C254 C 0.5461 0.71018 0.78377 0.0
C255 C 0.51821 0.63862 0.81091 0.0
C256 C 0.48715 0.6513 0.82372 0.0
C257 C 0.48476 0.69289 0.81596 0.0
C258 C 0.51401 0.72212 0.79617 0.0
C259 C 0.45702 0.62107 0.84514 0.0
C260 C 0.40588 0.60182 0.8443 0.0
C261 C 0.47803 0.60958 0.86582 0.0
C262 C 0.53203 0.63105 0.86887 0.0
C263 C 0.56385 0.68232 0.86763 0.0
C264 C 0.61444 0.70239 0.87137 0.0
C265 C 0.63366 0.67164 0.87661 0.0
C266 C 0.60233 0.62072 0.8781 0.0
C267 C 0.55174 0.60043 0.87426 0.0
H268 H 0.6728 0.68729 0.87961 0.0
H269 H 0.17947 0.49318 0.85414 0.0
H270 H 0.70209 0.28951 0.27318 0.0
H271 H 0.70592 0.34395 0.23932 0.0
H272 H 0.85586 0.38262 0.22409 0.0
H273 H 0.85233 0.32781 0.25789 0.0
H274 H 0.83778 0.46434 0.22573 0.0
H275 H 0.77391 0.30488 0.18679 0.0
H276 H 0.71655 0.21545 0.18359 0.0
H277 H 0.59464 0.24093 0.17732 0.0
H278 H 0.65129 0.33056 0.18081 0.0
H279 H 0.87448 0.57271 0.10614 0.0
H280 H 0.86798 0.5254 0.14356 0.0
H281 H 0.71052 0.4644 0.14375 0.0
H282 H 0.71667 0.51085 0.10558 0.0
H283 H 0.72927 0.39403 0.15128 0.0
H284 H 0.78765 0.54997 0.1915 0.0
H285 H 0.83976 0.63837 0.20111 0.0
H286 H 0.96647 0.62076 0.20744 0.0
H287 H 0.91489 0.5319 0.19849 0.0
C288 C 0.73603 0.30977 0.26275 0.0
C289 C 0.77685 0.30414 0.26813 0.0
C290 C 0.73805 0.34073 0.24336 0.0
C291 C 0.78099 0.36688 0.22909 0.0
C292 C 0.82231 0.36251 0.23484 0.0
C293 C 0.82017 0.33111 0.25409 0.0
C294 C 0.7824 0.39814 0.20788 0.0
C295 C 0.81459 0.44904 0.20926 0.0
C296 C 0.75079 0.37816 0.18691 0.0
C297 C 0.71679 0.32438 0.18429 0.0
C298 C 0.73484 0.29139 0.18489 0.0
C299 C 0.70246 0.24068 0.18299 0.0
C300 C 0.65196 0.22251 0.18032 0.0
C301 C 0.63376 0.25506 0.17942 0.0
C302 C 0.666 0.30582 0.18132 0.0
C303 C 0.83839 0.54948 0.11416 0.0
C304 C 0.79603 0.54539 0.10273 0.0
C305 C 0.83479 0.52272 0.13579 0.0
C306 C 0.78883 0.4917 0.1468 0.0
C307 C 0.74644 0.4881 0.13566 0.0
C308 C 0.74999 0.51469 0.11384 0.0
C309 C 0.78505 0.46081 0.1689 0.0
C310 C 0.75243 0.40971 0.16772 0.0
C311 C 0.81584 0.4807 0.19025 0.0
C312 C 0.84752 0.53445 0.1941 0.0
C313 C 0.82672 0.56506 0.19466 0.0
C314 C 0.8561 0.61516 0.20009 0.0
C315 C 0.90638 0.63515 0.20465 0.0
C316 C 0.9275 0.60516 0.20383 0.0
C317 C 0.89817 0.55488 0.19874 0.0
H318 H 0.92887 0.67375 0.20908 0.0
H319 H 0.62694 0.18323 0.17889 0.0
H320 H 0.57919 0.88417 0.6043 0.0
H321 H 0.53116 0.89231 0.57034 0.0
H322 H 0.4919 0.74747 0.54348 0.0
H323 H 0.54155 0.73993 0.57687 0.0
H324 H 0.51471 0.80921 0.50547 0.0
H325 H 0.40793 0.76929 0.57744 0.0
H326 H 0.38681 0.77957 0.62068 0.0
H327 H 0.42185 0.92754 0.60378 0.0
H328 H 0.44369 0.9183 0.56046 0.0
H329 H 0.31473 0.7775 0.42734 0.0
H330 H 0.36728 0.76968 0.45896 0.0
H331 H 0.4127 0.91609 0.48577 0.0
H332 H 0.35984 0.92376 0.45463 0.0
H333 H 0.38617 0.85257 0.52388 0.0
H334 H 0.49178 0.89381 0.45252 0.0
H335 H 0.51472 0.88616 0.40925 0.0
H336 H 0.48555 0.73964 0.42504 0.0
H337 H 0.46183 0.7462 0.46833 0.0
C338 C 0.55987 0.85386 0.59131 0.0
C339 C 0.56349 0.8111 0.59341 0.0
C340 C 0.53241 0.85853 0.57195 0.0
C341 C 0.50699 0.82006 0.55471 0.0
C342 C 0.51092 0.7775 0.55666 0.0
C343 C 0.53908 0.77313 0.5758 0.0
C344 C 0.47667 0.82445 0.53453 0.0
C345 C 0.486 0.81782 0.50952 0.0
C346 C 0.44027 0.83724 0.53973 0.0
C347 C 0.4274 0.84307 0.56575 0.0
C348 C 0.41132 0.80408 0.58299 0.0
C349 C 0.39922 0.80971 0.60749 0.0
C350 C 0.40282 0.85408 0.61493 0.0
C351 C 0.41891 0.89312 0.59795 0.0
C352 C 0.43106 0.88768 0.5734 0.0
C353 C 0.33626 0.80817 0.43982 0.0
C354 C 0.33315 0.85132 0.43842 0.0
C355 C 0.36641 0.80373 0.45784 0.0
C356 C 0.39409 0.84239 0.47469 0.0
C357 C 0.39163 0.88574 0.47301 0.0
C358 C 0.36158 0.89018 0.45506 0.0
C359 C 0.42399 0.83703 0.49479 0.0
C360 C 0.4146 0.84355 0.51981 0.0
C361 C 0.46051 0.82445 0.48958 0.0
C362 C 0.47447 0.82028 0.46355 0.0
C363 C 0.4898 0.85978 0.44668 0.0
C364 C 0.50305 0.85569 0.42218 0.0
C365 C 0.50144 0.81238 0.41438 0.0
C366 C 0.48669 0.77312 0.4311 0.0
C367 C 0.47338 0.77702 0.45562 0.0
H368 H 0.51173 0.80929 0.3954 0.0
H369 H 0.39291 0.85804 0.63383 0.0
H370 H 0.67564 0.55708 0.93206 0.0
H371 H 0.61669 0.49777 0.90244 0.0
H372 H 0.72781 0.46737 0.87478 0.0
H373 H 0.78781 0.52828 0.90402 0.0
H374 H 0.67541 0.47396 0.83663 0.0
H375 H 0.63523 0.38548 0.91498 0.0
H376 H 0.61574 0.37447 0.96016 0.0
H377 H 0.48825 0.38838 0.94655 0.0
H378 H 0.50711 0.39968 0.90152 0.0
H379 H 0.50012 0.25366 0.77283 0.0
H380 H 0.56474 0.31227 0.80098 0.0
H381 H 0.46499 0.35715 0.82983 0.0
H382 H 0.40029 0.29873 0.80176 0.0
H383 H 0.51416 0.3405 0.86721 0.0
H384 H 0.55343 0.42978 0.79003 0.0
H385 H 0.57302 0.44568 0.74496 0.0
H386 H 0.70164 0.43269 0.75586 0.0
H387 H 0.68268 0.41664 0.80095 0.0
C388 C 0.68764 0.53773 0.9198 0.0
C389 C 0.73643 0.54726 0.92058 0.0
C390 C 0.65375 0.50361 0.90286 0.0
C391 C 0.66747 0.47735 0.88662 0.0
C392 C 0.71629 0.48704 0.88716 0.0
C393 C 0.75048 0.52171 0.90397 0.0
C394 C 0.63065 0.43984 0.8692 0.0
C395 C 0.64053 0.4442 0.84335 0.0
C396 C 0.58463 0.40163 0.87784 0.0
C397 C 0.57267 0.3936 0.90492 0.0
C398 C 0.60309 0.38625 0.92169 0.0
C399 C 0.59214 0.37992 0.9473 0.0
C400 C 0.55077 0.38069 0.9563 0.0
C401 C 0.5202 0.38762 0.93969 0.0
C402 C 0.53092 0.39387 0.9141 0.0
C403 C 0.49189 0.27589 0.78523 0.0
C404 C 0.44502 0.2715 0.78509 0.0
C405 C 0.52898 0.30962 0.80118 0.0
C406 C 0.51984 0.33939 0.81737 0.0
C407 C 0.47291 0.33464 0.81745 0.0
C408 C 0.436 0.3013 0.80136 0.0
C409 C 0.55875 0.37478 0.83464 0.0
C410 C 0.54925 0.36992 0.86048 0.0
C411 C 0.60502 0.41248 0.82593 0.0
C412 C 0.61626 0.42145 0.79878 0.0
C413 C 0.58559 0.42988 0.78273 0.0
C414 C 0.59663 0.43902 0.75722 0.0
C415 C 0.63836 0.43989 0.74754 0.0
C416 C 0.66924 0.43187 0.76337 0.0
C417 C 0.65842 0.42285 0.78892 0.0
H418 H 0.64686 0.44697 0.72778 0.0
H419 H 0.54248 0.37589 0.97613 0.0
H420 H 0.26377 0.31892 0.98505 0.0
H421 H 0.34506 0.36442 0.9648 0.0
H422 H 0.40659 0.44401 0.03365 0.0
H423 H 0.32555 0.40171 0.05306 0.0
H424 H 0.40166 0.48752 0.97186 0.0
H425 H 0.51917 0.42914 0.03097 0.0
H426 H 0.51271 0.35391 0.04923 0.0
H427 H 0.40537 0.26591 0.99355 0.0
H428 H 0.41184 0.34059 0.97463 0.0
H429 H 0.63683 0.62093 0.03584 0.0
H430 H 0.55164 0.56958 0.0218 0.0
H431 H 0.60225 0.56905 0.94678 0.0
H432 H 0.68716 0.62468 0.9603 0.0
H433 H 0.54933 0.4741 0.99016 0.0
H434 H 0.54032 0.58882 0.93492 0.0
H435 H 0.54813 0.66786 0.92236 0.0
H436 H 0.43576 0.64654 0.9748 0.0
H437 H 0.42961 0.56898 0.98902 0.0
C438 C 0.29479 0.3464 0.99561 0.0
C439 C 0.28807 0.3586 0.02001 0.0
C440 C 0.34103 0.37177 0.98423 0.0
C441 C 0.38131 0.40773 0.99776 0.0
C442 C 0.37561 0.41639 0.02296 0.0
C443 C 0.32931 0.39213 0.03401 0.0
C444 C 0.42849 0.44082 0.98555 0.0
C445 C 0.43411 0.48441 0.97509 0.0
C446 C 0.47015 0.436 0.99003 0.0
C447 C 0.46576 0.39065 0.00144 0.0
C448 C 0.49431 0.3938 0.02252 0.0
C449 C 0.49065 0.3512 0.03301 0.0
C450 C 0.45857 0.30515 0.0226 0.0
C451 C 0.43005 0.30159 0.00168 0.0
C452 C 0.43355 0.34406 0.99112 0.0
C453 C 0.62941 0.61261 0.01605 0.0
C454 C 0.66817 0.62655 0.9991 0.0
C455 C 0.5809 0.58308 0.00805 0.0
C456 C 0.57081 0.56582 0.98325 0.0
C457 C 0.60922 0.5829 0.96583 0.0
C458 C 0.65766 0.61446 0.97361 0.0
C459 C 0.5227 0.52204 0.97792 0.0
C460 C 0.51693 0.47657 0.98555 0.0
C461 C 0.48097 0.52576 0.97156 0.0
C462 C 0.4852 0.57314 0.96339 0.0
C463 C 0.51835 0.60155 0.9444 0.0
C464 C 0.5223 0.6461 0.93686 0.0
C465 C 0.49244 0.6622 0.94773 0.0
C466 C 0.4589 0.63403 0.96637 0.0
C467 C 0.45538 0.58985 0.97428 0.0
H468 H 0.49524 0.69647 0.94168 0.0
H469 H 0.45585 0.27222 0.03073 0.0
H470 H 0.13715 0.67023 0.38753 0.0
H471 H 0.10466 0.58712 0.37175 0.0
H472 H 0.04935 0.62381 0.30577 0.0
H473 H 0.07967 0.70699 0.32242 0.0
H474 H 0.98275 0.54159 0.32231 0.0
H475 H 0.14547 0.59613 0.30101 0.0
H476 H 0.23605 0.64045 0.3043 0.0
H477 H 0.22679 0.54967 0.36682 0.0
H478 H 0.13619 0.5054 0.36405 0.0
H479 H 0.88371 0.28319 0.31026 0.0
H480 H 0.94247 0.36713 0.29685 0.0
H481 H -0.00098 0.40284 0.37241 0.0
H482 H 0.93908 0.31987 0.38605 0.0
H483 H 0.07218 0.44949 0.33286 0.0
H484 H 0.90459 0.41226 0.35684 0.0
H485 H 0.8148 0.37054 0.35036 0.0
H486 H 0.83652 0.43326 0.27663 0.0
H487 H 0.92655 0.47364 0.28227 0.0
C488 C 0.11819 0.6608 0.36963 0.0
C489 C 0.11151 0.69537 0.356 0.0
C490 C 0.10033 0.61337 0.36038 0.0
C491 C 0.07594 0.59953 0.33714 0.0
C492 C 0.06879 0.63387 0.32354 0.0
C493 C 0.08619 0.68133 0.333 0.0
C494 C 0.05341 0.54757 0.32888 0.0
C495 C 0.00276 0.52176 0.32374 0.0
C496 C 0.07944 0.52154 0.3304 0.0
C497 C 0.134 0.54767 0.33232 0.0
C498 C 0.16283 0.58597 0.31554 0.0
C499 C 0.21415 0.611 0.3173 0.0
C500 C 0.23717 0.59793 0.33579 0.0
C501 C 0.20889 0.55973 0.35249 0.0
C502 C 0.15752 0.53456 0.35078 0.0
C503 C 0.90869 0.30885 0.32394 0.0
C504 C 0.90528 0.29564 0.34937 0.0
C505 C 0.94275 0.35651 0.31617 0.0
C506 C 0.97446 0.39113 0.33375 0.0
C507 C 0.97466 0.3765 0.3586 0.0
C508 C 0.94013 0.32919 0.3664 0.0
C509 C 0.00163 0.44412 0.32781 0.0
C510 C 0.05297 0.4699 0.3303 0.0
C511 C 0.97645 0.47025 0.32322 0.0
C512 C 0.9223 0.44516 0.31979 0.0
C513 C 0.89025 0.41643 0.33908 0.0
C514 C 0.8393 0.39302 0.33555 0.0
C515 C 0.81997 0.39898 0.31303 0.0
C516 C 0.85155 0.42834 0.29398 0.0
C517 C 0.90253 0.45126 0.29727 0.0
H518 H 0.78051 0.38101 0.31038 0.0
H519 H 0.27692 0.61736 0.33716 0.0
H520 H 0.33193 0.03791 0.65412 0.0
H521 H 0.37365 0.9982 0.63402 0.0
H522 H 0.49212 0.06763 0.68766 0.0
H523 H 0.45108 0.10729 0.70759 0.0
H524 H 0.51125 0.0557 0.62753 0.0
H525 H 0.43438 0.94639 0.71423 0.0
H526 H 0.35836 0.90789 0.73954 0.0
H527 H 0.27116 0.87092 0.6723 0.0
H528 H 0.34674 0.90892 0.64668 0.0
H529 H 0.6616 0.98657 0.68956 0.0
H530 H 0.60997 0.0146 0.66911 0.0
H531 H 0.50404 0.86426 0.64966 0.0
H532 H 0.55473 0.83634 0.6713 0.0
H533 H 0.46137 0.90099 0.67431 0.0
H534 H 0.56161 0.95426 0.60382 0.0
H535 H 0.63828 0.9918 0.57931 0.0
H536 H 0.67615 0.13457 0.60776 0.0
H537 H 0.60069 0.09756 0.63323 0.0
C538 C 0.36719 0.04515 0.66129 0.0
C539 C 0.38817 0.07526 0.68246 0.0
C540 C 0.39104 0.02279 0.64974 0.0
C541 C 0.43596 0.03041 0.65934 0.0
C542 C 0.4577 0.06191 0.67986 0.0
C543 C 0.43391 0.08391 0.69143 0.0
C544 C 0.45698 -0.00015 0.65144 0.0
C545 C 0.50005 0.02115 0.63705 0.0
C546 C 0.44134 0.95435 0.66342 0.0
C547 C 0.39597 0.93056 0.67864 0.0
C548 C 0.39892 0.92981 0.70491 0.0
C549 C 0.35597 0.90818 0.71929 0.0
C550 C 0.30996 0.88704 0.70754 0.0
C551 C 0.3068 0.88738 0.68138 0.0
C552 C 0.34965 0.90898 0.66694 0.0
C553 C 0.62794 0.9599 0.68028 0.0
C554 C 0.61217 0.90959 0.68156 0.0
C555 C 0.59867 0.97584 0.66836 0.0
C556 C 0.55328 0.94158 0.65753 0.0
C557 C 0.53899 0.89138 0.65769 0.0
C558 C 0.56796 0.87548 0.66992 0.0
C559 C 0.51722 0.9572 0.65078 0.0
C560 C 0.47177 0.93375 0.66319 0.0
C561 C 0.53017 -0.00023 0.63616 0.0
C562 C 0.57548 0.02289 0.6206 0.0
C563 C 0.58653 0.99357 0.60504 0.0
C564 C 0.62986 0.01477 0.59102 0.0
C565 C 0.6622 0.06555 0.59205 0.0
C566 C 0.65119 0.0952 0.60708 0.0
C567 C 0.6081 0.07406 0.62135 0.0
H568 H 0.69569 0.08196 0.58112 0.0
H569 H 0.27675 0.87036 0.7187 0.0
H570 H 0.67617 0.70876 0.68234 0.0
H571 H 0.64547 0.62109 0.69011 0.0
H572 H 0.50631 0.60342 0.71419 0.0
H573 H 0.53783 0.69113 0.7079 0.0
H574 H 0.5199 0.54049 0.73792 0.0
H575 H 0.53021 0.58796 0.65132 0.0
H576 H 0.57213 0.63488 0.61325 0.0
H577 H 0.66859 0.57475 0.61509 0.0
H578 H 0.62762 0.52798 0.65341 0.0
H579 H 0.3954 0.30894 0.65035 0.0
H580 H 0.43832 0.39741 0.65832 0.0
H581 H 0.4942 0.37485 0.72825 0.0
H582 H 0.44973 0.28599 0.72065 0.0
H583 H 0.5291 0.45811 0.66048 0.0
H584 H 0.52017 0.47767 0.7691 0.0
H585 H 0.46655 0.43201 0.80463 0.0
H586 H 0.34366 0.35705 0.75446 0.0
H587 H 0.39632 0.40282 0.71867 0.0
C588 C 0.63946 0.68621 0.68983 0.0
C589 C 0.60904 0.70632 0.69412 0.0
C590 C 0.62192 0.63622 0.69424 0.0
C591 C 0.57305 0.60537 0.70201 0.0
C592 C 0.54401 0.62632 0.70807 0.0
C593 C 0.56197 0.67645 0.7043 0.0
C594 C 0.54998 0.55099 0.70071 0.0
C595 C 0.52214 0.52227 0.72111 0.0
C596 C 0.5519 0.52733 0.67851 0.0
C597 C 0.57627 0.55497 0.65535 0.0
C598 C 0.56054 0.58497 0.64366 0.0
C599 C 0.58411 0.61153 0.62205 0.0
C600 C 0.6231 0.60791 0.6118 0.0
C601 C 0.63847 0.5776 0.62309 0.0
C602 C 0.6151 0.55107 0.64475 0.0
C603 C 0.41657 0.32289 0.66749 0.0
C604 C 0.4191 0.29077 0.68495 0.0
C605 C 0.44118 0.37342 0.67203 0.0
C606 C 0.46953 0.39294 0.69391 0.0
C607 C 0.47205 0.36077 0.71143 0.0
C608 C 0.4466 0.31001 0.70709 0.0
C609 C 0.49781 0.4471 0.6975 0.0
C610 C 0.5271 0.47592 0.67752 0.0
C611 C 0.49512 0.47057 0.71967 0.0
C612 C 0.4627 0.44279 0.74106 0.0
C613 C 0.48178 0.45125 0.76561 0.0
C614 C 0.45148 0.42548 0.78582 0.0
C615 C 0.4018 0.39137 0.78179 0.0
C616 C 0.38226 0.3832 0.75754 0.0
C617 C 0.41238 0.40901 0.73726 0.0
H618 H 0.37839 0.37145 0.79746 0.0
H619 H 0.64131 0.6285 0.59507 0.0
H620 H 0.17216 0.47449 0.01016 0.0
H621 H 0.12954 0.52132 0.00449 0.0
H622 H 0.99477 0.38634 0.98763 0.0
H623 H 0.03855 0.34016 0.99183 0.0
H624 H 0.00281 0.45339 0.95714 0.0
H625 H 0.01915 0.44701 0.04668 0.0
H626 H 0.06344 0.45804 0.08648 0.0
H627 H 0.15145 0.61332 0.0724 0.0
H628 H 0.10766 0.60307 0.03231 0.0
H629 H 0.82114 0.50917 0.9965 0.0
H630 H 0.87902 0.47931 0.99121 0.0
H631 H -0.00077 0.62896 0.98628 0.0
H632 H 0.94124 0.65932 0.99116 0.0
H633 H 0.0079 0.56605 0.02382 0.0
H634 H 0.97508 0.56855 0.93635 0.0
H635 H 0.92194 0.55159 0.89921 0.0
H636 H 0.85583 0.39612 0.91229 0.0
H637 H 0.90794 0.41212 0.94979 0.0
C638 C 0.13332 0.45509 0.00548 0.0
C639 C 0.10801 0.40404 0.00182 0.0
C640 C 0.10902 0.48169 0.00225 0.0
C641 C 0.05874 0.45725 0.99603 0.0
C642 C 0.03355 0.40596 0.99242 0.0
C643 C 0.05822 0.37956 0.99506 0.0
C644 C 0.03219 0.48494 0.99344 0.0
C645 C 0.00369 0.47776 0.9718 0.0
C646 C 0.03434 0.51777 0.01227 0.0
C647 C 0.06055 0.52418 0.03639 0.0
C648 C 0.04817 0.48346 0.052 0.0
C649 C 0.07319 0.48959 0.07463 0.0
C650 C 0.11049 0.53633 0.08195 0.0
C651 C 0.12264 0.57711 0.06668 0.0
C652 C 0.09768 0.57118 0.04402 0.0
C653 C 0.85983 0.53572 0.99403 0.0
C654 C 0.87688 0.58651 0.99442 0.0
C655 C 0.89271 0.51862 0.99085 0.0
C656 C 0.94312 0.55205 0.98826 0.0
C657 C 0.96028 0.60279 0.98814 0.0
C658 C 0.92722 0.61997 0.9909 0.0
C659 C 0.97783 0.53346 0.98789 0.0
C660 C 0.00786 0.54237 0.00898 0.0
C661 C 0.97614 0.50142 0.96884 0.0
C662 C 0.94528 0.49159 0.94601 0.0
C663 C 0.94898 0.53074 0.93143 0.0
C664 C 0.91906 0.52129 0.91029 0.0
C665 C 0.88547 0.47281 0.90342 0.0
C666 C 0.88185 0.43367 0.91764 0.0
C667 C 0.91163 0.44291 0.93882 0.0
H668 H 0.8623 0.46558 0.88707 0.0
H669 H 0.12986 0.54101 0.09948 0.0
H670 H 0.31686 0.89323 0.36932 0.0
H671 H 0.38576 0.97388 0.37862 0.0
H672 H 0.32562 0.0403 0.32925 0.0
H673 H 0.25697 0.95807 0.3191 0.0
H674 H 0.4104 0.07468 0.31675 0.0
H675 H 0.35186 0.0732 0.39392 0.0
H676 H 0.30902 0.04487 0.43423 0.0
H677 H 0.42145 0.01651 0.4612 0.0
H678 H 0.46371 0.04185 0.42059 0.0
H679 H 0.67574 0.19146 0.37931 0.0
H680 H 0.59173 0.1772 0.3834 0.0
H681 H 0.5459 0.07526 0.32121 0.0
H682 H 0.62997 0.09245 0.316 0.0
H683 H 0.50963 0.10933 0.39446 0.0
H684 H 0.46318 0.06832 0.28601 0.0
H685 H 0.50457 0.10581 0.24618 0.0
H686 H 0.59904 0.24208 0.28402 0.0
H687 H 0.55762 0.20582 0.32407 0.0
C688 C 0.31751 0.92515 0.36111 0.0
C689 C 0.28192 0.91964 0.34354 0.0
C690 C 0.35681 0.97159 0.36659 0.0
C691 C 0.36088 0.01378 0.35497 0.0
C692 C 0.32342 0.00848 0.3385 0.0
C693 C 0.28438 0.96159 0.33263 0.0
C694 C 0.40861 0.0606 0.35648 0.0
C695 C 0.43184 0.08306 0.33386 0.0
C696 C 0.43614 0.07521 0.37909 0.0
C697 C 0.41136 0.05993 0.40399 0.0
C698 C 0.36743 0.06059 0.40831 0.0
C699 C 0.34307 0.04485 0.43126 0.0
C700 C 0.36258 0.02913 0.45033 0.0
C701 C 0.40642 0.02885 0.44642 0.0
C702 C 0.43059 0.04382 0.42336 0.0
C703 C 0.64743 0.16604 0.36658 0.0
C704 C 0.65897 0.14315 0.34723 0.0
C705 C 0.59962 0.15815 0.36884 0.0
C706 C 0.56269 0.12658 0.35204 0.0
C707 C 0.57407 0.10175 0.33363 0.0
C708 C 0.62193 0.11082 0.33088 0.0
C709 C 0.5113 0.11637 0.35422 0.0
C710 C 0.48774 0.10225 0.3776 0.0
C711 C 0.48317 0.11185 0.33254 0.0
C712 C 0.50701 0.13429 0.30815 0.0
C713 C 0.49224 0.10651 0.28585 0.0
C714 C 0.5159 0.12751 0.26321 0.0
C715 C 0.55438 0.1763 0.26256 0.0
C716 C 0.56921 0.20428 0.28455 0.0
C717 C 0.54565 0.18351 0.30723 0.0
H718 H 0.57274 0.19242 0.24503 0.0
H719 H 0.34367 0.01707 0.4681 0.0
H720 H 0.22729 0.05217 0.79452 0.0
H721 H 0.16419 0.0559 0.81883 0.0
H722 H 0.13636 0.12842 0.7572 0.0
H723 H 0.2023 0.12752 0.73339 0.0
H724 H 0.16194 0.1852 0.79191 0.0
H725 H 0.03576 0.02451 0.7911 0.0
H726 H 0.99113 0.93386 0.78981 0.0
H727 H 0.04529 0.92937 0.86322 0.0
H728 H 0.09073 0.01999 0.86495 0.0
H729 H 0.09409 0.21803 0.92741 0.0
H730 H 0.06331 0.16795 0.889 0.0
H731 H 0.2118 0.2068 0.86977 0.0
H732 H 0.24255 0.25636 0.90752 0.0
H733 H 0.07531 0.0881 0.86733 0.0
H734 H 0.23363 0.25304 0.81287 0.0
H735 H 0.27516 0.34363 0.81301 0.0
H736 H 0.14831 0.33746 0.8469 0.0
H737 H 0.10549 0.24666 0.84652 0.0
C738 C 0.20663 0.06744 0.7858 0.0
C739 C 0.22069 0.09097 0.76242 0.0
C740 C 0.16972 0.06892 0.79964 0.0
C741 C 0.14544 0.09299 0.79009 0.0
C742 C 0.1549 0.11027 0.76521 0.0
C743 C 0.19279 0.11001 0.75164 0.0
C744 C 0.12285 0.11226 0.80804 0.0
C745 C 0.14174 0.16344 0.80802 0.0
C746 C 0.09424 0.08413 0.82873 0.0
C747 C 0.06689 0.02936 0.82809 0.0
C748 C 0.03844 0.00429 0.80694 0.0
C749 C 0.01291 0.95283 0.80614 0.0
C750 C 0.01559 0.92589 0.82636 0.0
C751 C 0.04339 0.95033 0.84753 0.0
C752 C 0.06886 0.0018 0.84849 0.0
C753 C 0.11993 0.21507 0.91515 0.0
C754 C 0.17082 0.24164 0.92025 0.0
C755 C 0.10229 0.18661 0.89327 0.0
C756 C 0.13549 0.18475 0.8764 0.0
C757 C 0.18575 0.20864 0.88238 0.0
C758 C 0.20326 0.2369 0.904 0.0
C759 C 0.11981 0.16046 0.85172 0.0
C760 C 0.09344 0.10888 0.85059 0.0
C761 C 0.1408 0.18802 0.82967 0.0
C762 C 0.16619 0.24283 0.82961 0.0
C763 C 0.21428 0.27088 0.82012 0.0
C764 C 0.23814 0.32232 0.8203 0.0
C765 C 0.21438 0.34628 0.82995 0.0
C766 C 0.16668 0.31883 0.83944 0.0
C767 C 0.14259 0.26735 0.83926 0.0
H768 H 0.23295 0.38611 0.83006 0.0
H769 H 0.99619 0.88608 0.82561 0.0
H770 H 0.95878 0.22039 0.28199 0.0
H771 H 0.99505 0.20752 0.24479 0.0
H772 H 0.86157 0.06926 0.23122 0.0
H773 H 0.8235 0.08453 0.26762 0.0
H774 H 0.02176 0.15528 0.22484 0.0
H775 H 0.83934 0.04913 0.16972 0.0
H776 H 0.75534 0.03721 0.16953 0.0
H777 H 0.80923 0.1787 0.20413 0.0
H778 H 0.8935 0.19157 0.20428 0.0
H779 H 0.1157 0.17665 0.10357 0.0
H780 H 0.06227 0.13114 0.13884 0.0
H781 H 0.98586 0.21278 0.13038 0.0
H782 H 0.03705 0.25629 0.0948 0.0
H783 H 0.92469 0.12931 0.14702 0.0
H784 H 0.08854 0.25302 0.16969 0.0
H785 H 0.17921 0.29469 0.17002 0.0
H786 H 0.17268 0.16484 0.20073 0.0
H787 H 0.08181 0.12227 0.20037 0.0
C788 C 0.9374 0.18677 0.27136 0.0
C789 C 0.88812 0.1538 0.2774 0.0
C790 C 0.9583 0.17924 0.25006 0.0
C791 C 0.93078 0.13789 0.2347 0.0
C792 C 0.88309 0.10224 0.24225 0.0
C793 C 0.86146 0.11073 0.26313 0.0
C794 C 0.95051 0.13589 0.20967 0.0
C795 C 0.00022 0.14884 0.20786 0.0
C796 C 0.92294 0.12841 0.18732 0.0
C797 C 0.87242 0.12087 0.18737 0.0
C798 C 0.83316 0.07761 0.17729 0.0
C799 C 0.78556 0.07073 0.17718 0.0
C800 C 0.77692 0.10706 0.18693 0.0
C801 C 0.81591 0.15048 0.1967 0.0
C802 C 0.86357 0.15757 0.19682 0.0
C803 C 0.08654 0.18378 0.10881 0.0
C804 C 0.08131 0.22083 0.09675 0.0
C805 C 0.05618 0.1579 0.12902 0.0
C806 C 0.02083 0.16937 0.13767 0.0
C807 C 0.01287 0.20323 0.12418 0.0
C808 C 0.04257 0.22847 0.10386 0.0
C809 C 0.99645 0.15169 0.16233 0.0
C810 C 0.94574 0.13418 0.16403 0.0
C811 C 0.02404 0.1592 0.18462 0.0
C812 C 0.07851 0.18423 0.18462 0.0
C813 C 0.10648 0.23324 0.17631 0.0
C814 C 0.15787 0.25704 0.17654 0.0
C815 C 0.18169 0.23234 0.18528 0.0
C816 C 0.15415 0.18384 0.19388 0.0
C817 C 0.10271 0.15985 0.19366 0.0
H818 H 0.22149 0.25083 0.18547 0.0
H819 H 0.74005 0.10165 0.18683 0.0
H820 H 0.72571 0.98968 0.59805 0.0
H821 H 0.75928 0.01254 0.55582 0.0
H822 H 0.82407 0.92003 0.56277 0.0
H823 H 0.78987 0.89601 0.60507 0.0
H824 H 0.8667 0.0494 0.53689 0.0
H825 H 0.77121 0.85751 0.52899 0.0
H826 H 0.69601 0.78183 0.54234 0.0
H827 H 0.60823 0.84665 0.52223 0.0
H828 H 0.68302 0.92264 0.50884 0.0
H829 H 0.90929 0.10155 0.41163 0.0
H830 H 0.90428 0.05024 0.44738 0.0
H831 H 0.7468 0.98916 0.44964 0.0
H832 H 0.75108 0.03702 0.41318 0.0
H833 H 0.76308 0.92874 0.47161 0.0
H834 H 0.83053 0.10385 0.47839 0.0
H835 H 0.88825 0.19104 0.46837 0.0
H836 H 0.00944 0.17509 0.49402 0.0
H837 H 0.95233 0.08754 0.50391 0.0
C838 C 0.74801 0.97496 0.5909 0.0
C839 C 0.75481 0.94068 0.60482 0.0
C840 C 0.76706 0.98804 0.56676 0.0
C841 C 0.79348 0.9674 0.55627 0.0
C842 C 0.80325 0.93581 0.57062 0.0
C843 C 0.78391 0.92238 0.59477 0.0
C844 C 0.80715 0.97622 0.52961 0.0
C845 C 0.84538 0.02259 0.52251 0.0
C846 C 0.77737 0.942 0.51111 0.0
C847 C 0.73252 0.89555 0.51802 0.0
C848 C 0.73583 0.85547 0.5274 0.0
C849 C 0.69332 0.81259 0.53498 0.0
C850 C 0.64738 0.80944 0.53313 0.0
C851 C 0.64381 0.8491 0.52362 0.0
C852 C 0.6862 0.89201 0.51601 0.0
C853 C 0.87342 0.07553 0.41907 0.0
C854 C 0.83084 0.07488 0.41027 0.0
C855 C 0.8706 0.0464 0.43961 0.0
C856 C 0.82548 0.0177 0.45197 0.0
C857 C 0.78225 0.0116 0.4408 0.0
C858 C 0.78485 0.03952 0.41994 0.0
C859 C 0.82367 0.00216 0.47847 0.0
C860 C 0.78674 0.95481 0.48573 0.0
C861 C 0.85301 0.0366 0.49725 0.0
C862 C 0.88738 0.08916 0.49155 0.0
C863 C 0.86954 0.11895 0.48177 0.0
C864 C 0.9021 0.16838 0.47611 0.0
C865 C 0.95251 0.18855 0.48047 0.0
C866 C 0.9704 0.15936 0.49058 0.0
C867 C 0.93798 0.10984 0.49621 0.0
H868 H 0.97769 0.22684 0.47608 0.0
H869 H 0.61457 0.77625 0.53902 0.0
H870 H 0.82488 0.94915 0.7494 0.0
H871 H 0.88626 0.95215 0.77911 0.0
H872 H 0.78894 0.79875 0.79682 0.0
H873 H 0.72981 0.79494 0.76664 0.0
H874 H 0.88307 0.94689 0.82528 0.0
H875 H 0.83449 0.73798 0.81944 0.0
H876 H 0.82827 0.68038 0.78641 0.0
H877 H 0.91426 0.80163 0.73699 0.0
H878 H 0.9217 0.86015 0.76981 0.0
H879 H 0.80543 0.81878 0.93333 0.0
H880 H 0.83378 0.86574 0.89473 0.0
H881 H 0.94173 0.81993 0.88588 0.0
H882 H 0.91179 0.7709 0.92421 0.0
H883 H 0.89577 0.79971 0.84643 0.0
H884 H 0.97706 0.94762 0.88695 0.0
H885 H 0.00072 0.01519 0.91713 0.0
H886 H 0.87701 0.02919 0.89424 0.0
H887 H 0.85235 0.96153 0.86398 0.0
C888 C 0.81742 0.9158 0.75915 0.0
C889 C 0.7723 0.8719 0.75577 0.0
C890 C 0.85248 0.91758 0.77617 0.0
C891 C 0.84283 0.87557 0.79011 0.0
C892 C 0.79852 0.8314 0.78584 0.0
C893 C 0.76411 0.82941 0.76869 0.0
C894 C 0.87438 0.87828 0.81166 0.0
C895 C 0.88664 0.91512 0.82981 0.0
C896 C 0.88305 0.83904 0.81702 0.0
C897 C 0.87893 0.80367 0.79726 0.0
C898 C 0.85265 0.75254 0.80167 0.0
C899 C 0.84871 0.71964 0.78292 0.0
C900 C 0.87091 0.73733 0.75963 0.0
C901 C 0.89708 0.78797 0.75504 0.0
C902 C 0.90113 0.82103 0.77372 0.0
C903 C 0.83602 0.81961 0.92354 0.0
C904 C 0.85569 0.79034 0.93157 0.0
C905 C 0.85276 0.84711 0.90151 0.0
C906 C 0.89017 0.84672 0.88723 0.0
C907 C 0.91267 0.82072 0.8964 0.0
C908 C 0.89543 0.79259 0.91831 0.0
C909 C 0.89806 0.86498 0.86092 0.0
C910 C 0.8938 0.83232 0.84178 0.0
C911 C 0.89941 0.9094 0.85437 0.0
C912 C 0.91298 0.94944 0.87302 0.0
C913 C 0.95474 0.96492 0.88837 0.0
C914 C 0.96839 0.00334 0.9055 0.0
C915 C 0.94043 0.02652 0.90758 0.0
C916 C 0.89874 0.0113 0.89254 0.0
C917 C 0.88503 0.97302 0.87531 0.0
H918 H 0.95105 0.05626 0.92086 0.0
H919 H 0.86778 0.71179 0.74514 0.0
H920 H 0.06381 0.7134 0.23029 0.0
H921 H 0.02245 0.72631 0.19483 0.0
H922 H 0.0126 0.83937 0.23581 0.0
H923 H 0.05563 0.82772 0.27157 0.0
H924 H 0.91889 0.74605 0.20616 0.0
H925 H 0.08279 0.89199 0.19815 0.0
H926 H 0.17322 0.9303 0.19943 0.0
H927 H 0.16697 0.83213 0.14161 0.0
H928 H 0.07648 0.79303 0.14015 0.0
H929 H 0.8109 0.75844 0.09498 0.0
H930 H 0.86404 0.795 0.1316 0.0
H931 H 0.96527 0.75222 0.10242 0.0
H932 H 0.91366 0.71759 0.06548 0.0
H933 H 0.01476 0.82925 0.12976 0.0
H934 H 0.86916 0.6746 0.13937 0.0
H935 H 0.78063 0.61328 0.1384 0.0
H936 H 0.75249 0.69829 0.19193 0.0
H937 H 0.84095 0.76063 0.19295 0.0
C938 C 0.0528 0.74095 0.23193 0.0
C939 C 0.06313 0.76969 0.25372 0.0
C940 C 0.02937 0.74836 0.21159 0.0
C941 C 0.01499 0.78396 0.21277 0.0
C942 C 0.02374 0.81185 0.23468 0.0
C943 C 0.04819 0.80511 0.255 0.0
C944 C 0.99104 0.79127 0.19067 0.0
C945 C 0.93961 0.76553 0.18963 0.0
C946 C 0.01847 0.81478 0.16896 0.0
C947 C 0.07295 0.83967 0.16904 0.0
C948 C 0.10074 0.8786 0.18573 0.0
C949 C 0.15199 0.90044 0.18648 0.0
C950 C 0.17583 0.88369 0.1706 0.0
C951 C 0.14848 0.8452 0.15384 0.0
C952 C 0.09724 0.8233 0.15298 0.0
C953 C 0.84537 0.75842 0.09595 0.0
C954 C 0.85749 0.7341 0.07763 0.0
C955 C 0.87561 0.77914 0.11694 0.0
C956 C 0.91781 0.77494 0.12012 0.0
C957 C 0.93272 0.75562 0.10051 0.0
C958 C 0.90297 0.73563 0.07936 0.0
C959 C 0.94212 0.78339 0.14499 0.0
C960 C 0.99367 0.81148 0.14648 0.0
C961 C 0.91483 0.75946 0.16683 0.0
C962 C 0.8615 0.72276 0.16588 0.0
C963 C 0.844 0.68061 0.15065 0.0
C964 C 0.79388 0.64558 0.15016 0.0
C965 C 0.76092 0.65201 0.16499 0.0
C966 C 0.77806 0.69348 0.18038 0.0
C967 C 0.82818 0.7287 0.18092 0.0
H968 H 0.72213 0.62476 0.16464 0.0
H969 H 0.21549 0.90052 0.17127 0.0
H970 H 0.24363 0.14506 0.59708 0.0
H971 H 0.20237 0.12367 0.55628 0.0
H972 H 0.16271 0.9719 0.5679 0.0
H973 H 0.20169 0.99271 0.60896 0.0
H974 H 0.23379 0.09922 0.51989 0.0
H975 H 0.07618 0.89234 0.53214 0.0
H976 H 0.0068 0.84455 0.56079 0.0
H977 H 0.00829 0.9768 0.58301 0.0
H978 H 0.07722 0.0254 0.55423 0.0
H979 H 0.24189 0.94335 0.43434 0.0
H980 H 0.23783 0.99296 0.46782 0.0
H981 H 0.08929 0.95121 0.44614 0.0
H982 H 0.09236 0.89888 0.41284 0.0
H983 H 0.09062 0.94058 0.49322 0.0
H984 H 0.1874 0.07445 0.44153 0.0
H985 H 0.2523 0.12751 0.41167 0.0
H986 H 0.36327 0.15104 0.46601 0.0
H987 H 0.29924 0.09722 0.496 0.0
C988 C 0.22462 0.10685 0.59123 0.0
C989 C 0.22642 0.07064 0.60605 0.0
C990 C 0.20107 0.09466 0.56789 0.0
C991 C 0.17941 0.04617 0.55882 0.0
C992 C 0.17808 0.0094 0.57451 0.0
C993 C 0.20085 0.02142 0.59802 0.0
C994 C 0.16647 0.03533 0.5318 0.0
C995 C 0.20201 0.06493 0.514 0.0
C996 C 0.12386 0.9919 0.52373 0.0
C997 C 0.08207 0.96261 0.54099 0.0
C998 C 0.06151 0.91126 0.54296 0.0
C999 C 0.0223 0.88401 0.55929 0.0
C1000 C 0.00318 0.90763 0.57372 0.0
C1001 C 0.02321 0.95856 0.57186 0.0
C1002 C 0.06243 0.986 0.55557 0.0
C1003 C 0.2085 0.94515 0.43629 0.0
C1004 C 0.16725 0.91671 0.42099 0.0
C1005 C 0.20642 0.97418 0.45539 0.0
C1006 C 0.16353 0.97666 0.45936 0.0
C1007 C 0.12288 0.95008 0.44339 0.0
C1008 C 0.12472 0.9203 0.42433 0.0
C1009 C 0.16019 0.00232 0.48204 0.0
C1010 C 0.12152 0.97565 0.49895 0.0
C1011 C 0.1992 0.0493 0.48911 0.0
C1012 C 0.23827 0.08176 0.4711 0.0
C1013 C 0.22563 0.09069 0.4471 0.0
C1014 C 0.26231 0.12093 0.43013 0.0
C1015 C 0.31186 0.14278 0.43697 0.0
C1016 C 0.32485 0.13436 0.46079 0.0
C1017 C 0.28834 0.10395 0.47779 0.0
H1018 H 0.3402 0.16609 0.42379 0.0
H1019 H 0.97283 0.88646 0.58635 0.0
loop_
_geom_bond_atom_site_label_1
_geom_bond_atom_site_label_2
_geom_bond_distance
_geom_bond_site_symmetry_2
_ccdc_geom_bond_type
Zn0 O6 1.969 . S
Zn0 O7 1.965 1_556 S
Zn0 O11 2.024 . S
Zn0 O16 1.969 . S
Zn1 O8 1.969 . S
Zn1 O14 1.969 . S
Zn1 O15 1.965 . S
Zn1 O17 2.024 . S
C2 O3 1.229 . S
C2 O11 1.058 . S
O3 C2 1.229 . S
C4 O5 1.229 . S
C4 O17 1.058 . S
O5 C4 1.229 . S
O6 Zn0 1.969 . S
O6 C9 1.267 . S
O7 Zn0 1.965 1_554 S
O7 C18 1.260 . S
O8 Zn1 1.969 . S
O8 C18 1.258 . S
C9 O6 1.267 . S
C9 O10 1.228 . S
O10 C9 1.228 . S
O11 Zn0 2.024 . S
O11 C2 1.058 . S
C12 O13 1.228 . S
C12 O14 1.267 . S
O13 C12 1.228 . S
O14 Zn1 1.969 . S
O14 C12 1.267 . S
O15 Zn1 1.965 . S
O15 C19 1.260 . S
O16 Zn0 1.969 . S
O16 C19 1.258 1_556 S
O17 Zn1 2.024 . S
O17 C4 1.058 . S
C18 O7 1.260 . S
C18 O8 1.258 . S
C19 O15 1.260 . S
C19 O16 1.258 1_554 S
Zn20 O26 1.969 . S
Zn20 O27 1.965 . S
Zn20 O31 2.024 . S
Zn20 O36 1.969 . S
Zn21 O28 1.969 . S
Zn21 O34 1.969 . S
Zn21 O35 1.965 . S
Zn21 O37 2.024 . S
C22 O23 1.229 . S
C22 O31 1.058 . S
O23 C22 1.229 . S
C24 O25 1.229 . S
C24 O37 1.058 . S
O25 C24 1.229 . S
O26 Zn20 1.969 . S
O26 C29 1.267 . S
O27 Zn20 1.965 . S
O27 C38 1.260 . S
O28 Zn21 1.969 . S
O28 C38 1.258 . S
C29 O26 1.267 . S
C29 O30 1.228 . S
O30 C29 1.228 . S
O31 Zn20 2.024 . S
O31 C22 1.058 . S
C32 O33 1.228 . S
C32 O34 1.267 . S
O33 C32 1.228 . S
O34 Zn21 1.969 . S
O34 C32 1.267 . S
O35 Zn21 1.965 . S
O35 C39 1.260 . S
O36 Zn20 1.969 . S
O36 C39 1.258 . S
O37 Zn21 2.024 . S
O37 C24 1.058 . S
C38 O27 1.260 . S
C38 O28 1.258 . S
C39 O35 1.260 . S
C39 O36 1.258 . S
Zn40 O46 1.969 . S
Zn40 O47 1.965 . S
Zn40 O51 2.024 . S
Zn40 O56 1.969 . S
Zn41 O48 1.969 . S
Zn41 O54 1.969 . S
Zn41 O55 1.965 . S
Zn41 O57 2.024 . S
C42 O43 1.229 . S
C42 O51 1.058 . S
O43 C42 1.229 . S
C44 O45 1.229 . S
C44 O57 1.058 . S
O45 C44 1.229 . S
O46 Zn40 1.969 . S
O46 C49 1.267 . S
O47 Zn40 1.965 . S
O47 C58 1.260 . S
O48 Zn41 1.969 . S
O48 C58 1.258 . S
C49 O46 1.267 . S
C49 O50 1.228 . S
O50 C49 1.228 . S
O51 Zn40 2.024 . S
O51 C42 1.058 . S
C52 O53 1.228 . S
C52 O54 1.267 . S
O53 C52 1.228 . S
O54 Zn41 1.969 . S
O54 C52 1.267 . S
O55 Zn41 1.965 . S
O55 C59 1.260 . S
O56 Zn40 1.969 . S
O56 C59 1.258 . S
O57 Zn41 2.024 . S
O57 C44 1.058 . S
C58 O47 1.260 . S
C58 O48 1.258 . S
C59 O55 1.260 . S
C59 O56 1.258 . S
Zn60 O66 1.969 . S
Zn60 O67 1.965 1_556 S
Zn60 O71 2.024 . S
Zn60 O76 1.969 . S
Zn61 O68 1.969 . S
Zn61 O74 1.969 . S
Zn61 O75 1.965 . S
Zn61 O77 2.024 . S
C62 O63 1.229 . S
C62 O71 1.058 . S
O63 C62 1.229 . S
C64 O65 1.229 . S
C64 O77 1.058 . S
O65 C64 1.229 . S
O66 Zn60 1.969 . S
O66 C69 1.267 . S
O67 Zn60 1.965 1_554 S
O67 C78 1.260 . S
O68 Zn61 1.969 . S
O68 C78 1.258 . S
C69 O66 1.267 . S
C69 O70 1.228 . S
O70 C69 1.228 . S
O71 Zn60 2.024 . S
O71 C62 1.058 . S
C72 O73 1.228 . S
C72 O74 1.267 . S
O73 C72 1.228 . S
O74 Zn61 1.969 . S
O74 C72 1.267 . S
O75 Zn61 1.965 . S
O75 C79 1.260 . S
O76 Zn60 1.969 . S
O76 C79 1.258 1_556 S
O77 Zn61 2.024 . S
O77 C64 1.058 . S
C78 O67 1.260 . S
C78 O68 1.258 . S
C79 O75 1.260 . S
C79 O76 1.258 1_554 S
Zn80 O86 1.969 . S
Zn80 O87 1.965 . S
Zn80 O91 2.024 . S
Zn80 O96 1.969 . S
Zn81 O88 1.969 . S
Zn81 O94 1.969 . S
Zn81 O95 1.965 . S
Zn81 O97 2.024 . S
C82 O83 1.229 . S
C82 O91 1.058 . S
O83 C82 1.229 . S
C84 O85 1.229 . S
C84 O97 1.058 . S
O85 C84 1.229 . S
O86 Zn80 1.969 . S
O86 C89 1.267 . S
O87 Zn80 1.965 . S
O87 C98 1.260 . S
O88 Zn81 1.969 . S
O88 C98 1.258 . S
C89 O86 1.267 . S
C89 O90 1.228 . S
O90 C89 1.228 . S
O91 Zn80 2.024 . S
O91 C82 1.058 . S
C92 O93 1.228 . S
C92 O94 1.267 . S
O93 C92 1.228 . S
O94 Zn81 1.969 . S
O94 C92 1.267 . S
O95 Zn81 1.965 . S
O95 C99 1.260 . S
O96 Zn80 1.969 . S
O96 C99 1.258 . S
O97 Zn81 2.024 . S
O97 C84 1.058 . S
C98 O87 1.260 . S
C98 O88 1.258 . S
C99 O95 1.260 . S
C99 O96 1.258 . S
Zn100 O106 1.969 . S
Zn100 O107 1.965 . S
Zn100 O111 2.024 . S
Zn100 O116 1.969 . S
Zn101 O108 1.969 . S
Zn101 O114 1.969 . S
Zn101 O115 1.965 . S
Zn101 O117 2.024 . S
C102 O103 1.229 . S
C102 O111 1.058 . S
O103 C102 1.229 . S
C104 O105 1.229 . S
C104 O117 1.058 . S
O105 C104 1.229 . S
O106 Zn100 1.969 . S
O106 C109 1.267 . S
O107 Zn100 1.965 . S
O107 C118 1.260 . S
O108 Zn101 1.969 . S
O108 C118 1.258 . S
C109 O106 1.267 . S
C109 O110 1.228 . S
O110 C109 1.228 . S
O111 Zn100 2.024 . S
O111 C102 1.058 . S
C112 O113 1.228 . S
C112 O114 1.267 . S
O113 C112 1.228 . S
O114 Zn101 1.969 . S
O114 C112 1.267 . S
O115 Zn101 1.965 . S
O115 C119 1.260 . S
O116 Zn100 1.969 . S
O116 C119 1.258 . S
O117 Zn101 2.024 . S
O117 C104 1.058 . S
C118 O107 1.260 . S
C118 O108 1.258 . S
C119 O115 1.260 . S
C119 O116 1.258 . S
H120 C138 0.951 . S
H121 C140 0.951 . S
H122 C142 0.950 . S
H123 C143 0.950 . S
H124 C145 0.950 . S
H125 C148 0.950 . S
H126 C149 0.950 . S
H127 C151 0.950 . S
H128 C152 0.950 . S
H129 C153 0.951 . S
H130 C155 0.951 . S
H131 C157 0.950 . S
H132 C158 0.950 . S
H133 C160 0.950 . S
H134 C163 0.950 . S
H135 C164 0.950 . S
H136 C166 0.950 . S
H137 C167 0.950 . S
C138 H120 0.951 . S
C138 C139 1.366 . S
C138 C140 1.388 . S
C139 C138 1.366 . S
C139 C143 1.385 . S
C140 H121 0.951 . S
C140 C138 1.388 . S
C140 C141 1.366 . S
C141 C140 1.366 . S
C141 C142 1.414 . S
C141 C144 1.499 . S
C142 H122 0.950 . S
C142 C141 1.414 . S
C142 C143 1.374 . S
C143 H123 0.950 . S
C143 C139 1.385 . S
C143 C142 1.374 . S
C144 C141 1.499 . S
C144 C145 1.373 . S
C144 C146 1.389 . S
C145 H124 0.950 . S
C145 C144 1.373 . S
C145 C161 1.377 . S
C146 C144 1.389 . S
C146 C147 1.524 . S
C146 C160 1.377 . S
C147 C146 1.524 . S
C147 C148 1.397 . S
C147 C152 1.363 . S
C148 H125 0.950 . S
C148 C147 1.397 . S
C148 C149 1.334 . S
C149 H126 0.950 . S
C149 C148 1.334 . S
C149 C150 1.287 . S
C150 C149 1.287 . S
C150 C151 1.524 . S
C150 H169 0.913 . S
C151 H127 0.950 . S
C151 C150 1.524 . S
C151 C152 1.415 . S
C152 H128 0.950 . S
C152 C147 1.363 . S
C152 C151 1.415 . S
C153 H129 0.951 . S
C153 C154 1.366 . S
C153 C155 1.388 . S
C154 C153 1.366 . S
C154 C158 1.385 . S
C155 H130 0.951 . S
C155 C153 1.388 . S
C155 C156 1.366 . S
C156 C155 1.366 . S
C156 C157 1.414 . S
C156 C159 1.499 . S
C157 H131 0.950 . S
C157 C156 1.414 . S
C157 C158 1.374 . S
C158 H132 0.950 . S
C158 C154 1.385 . S
C158 C157 1.374 . S
C159 C156 1.499 . S
C159 C160 1.373 . S
C159 C161 1.389 . S
C160 H133 0.950 . S
C160 C146 1.377 . S
C160 C159 1.373 . S
C161 C145 1.377 . S
C161 C159 1.389 . S
C161 C162 1.524 . S
C162 C161 1.524 . S
C162 C163 1.397 . S
C162 C167 1.363 . S
C163 H134 0.950 . S
C163 C162 1.397 . S
C163 C164 1.334 . S
C164 H135 0.950 . S
C164 C163 1.334 . S
C164 C165 1.287 . S
C165 C164 1.287 . S
C165 C166 1.524 . S
C165 H168 0.999 . S
C166 H136 0.950 . S
C166 C165 1.524 . S
C166 C167 1.415 . S
C167 H137 0.950 . S
C167 C162 1.363 . S
C167 C166 1.415 . S
H168 C165 0.999 . S
H169 C150 0.913 . S
H170 C188 0.951 . S
H171 C190 0.951 . S
H172 C192 0.950 . S
H173 C193 0.950 . S
H174 C195 0.950 . S
H175 C198 0.950 . S
H176 C199 0.950 . S
H177 C201 0.950 . S
H178 C202 0.950 . S
H179 C203 0.951 . S
H180 C205 0.951 . S
H181 C207 0.950 . S
H182 C208 0.950 . S
H183 C210 0.950 . S
H184 C213 0.950 . S
H185 C214 0.950 . S
H186 C216 0.950 . S
H187 C217 0.950 . S
C188 H170 0.951 . S
C188 C189 1.366 . S
C188 C190 1.388 . S
C189 C188 1.366 . S
C189 C193 1.385 . S
C190 H171 0.951 . S
C190 C188 1.388 . S
C190 C191 1.366 . S
C191 C190 1.366 . S
C191 C192 1.414 . S
C191 C194 1.499 . S
C192 H172 0.950 . S
C192 C191 1.414 . S
C192 C193 1.374 . S
C193 H173 0.950 . S
C193 C189 1.385 . S
C193 C192 1.374 . S
C194 C191 1.499 . S
C194 C195 1.373 . S
C194 C196 1.389 . S
C195 H174 0.950 . S
C195 C194 1.373 . S
C195 C211 1.377 . S
C196 C194 1.389 . S
C196 C197 1.524 . S
C196 C210 1.377 . S
C197 C196 1.524 . S
C197 C198 1.397 . S
C197 C202 1.363 . S
C198 H175 0.950 . S
C198 C197 1.397 . S
C198 C199 1.334 . S
C199 H176 0.950 . S
C199 C198 1.334 . S
C199 C200 1.287 . S
C200 C199 1.287 . S
C200 C201 1.524 . S
C200 H219 0.913 . S
C201 H177 0.950 . S
C201 C200 1.524 . S
C201 C202 1.415 . S
C202 H178 0.950 . S
C202 C197 1.363 . S
C202 C201 1.415 . S
C203 H179 0.951 . S
C203 C204 1.366 . S
C203 C205 1.388 . S
C204 C203 1.366 . S
C204 C208 1.385 . S
C205 H180 0.951 . S
C205 C203 1.388 . S
C205 C206 1.366 . S
C206 C205 1.366 . S
C206 C207 1.414 . S
C206 C209 1.499 . S
C207 H181 0.950 . S
C207 C206 1.414 . S
C207 C208 1.374 . S
C208 H182 0.950 . S
C208 C204 1.385 . S
C208 C207 1.374 . S
C209 C206 1.499 . S
C209 C210 1.373 . S
C209 C211 1.389 . S
C210 H183 0.950 . S
C210 C196 1.377 . S
C210 C209 1.373 . S
C211 C195 1.377 . S
C211 C209 1.389 . S
C211 C212 1.524 . S
C212 C211 1.524 . S
C212 C213 1.397 . S
C212 C217 1.363 . S
C213 H184 0.950 . S
C213 C212 1.397 . S
C213 C214 1.334 . S
C214 H185 0.950 . S
C214 C213 1.334 . S
C214 C215 1.287 . S
C215 C214 1.287 . S
C215 C216 1.524 . S
C215 H218 0.999 . S
C216 H186 0.950 . S
C216 C215 1.524 . S
C216 C217 1.415 . S
C217 H187 0.950 . S
C217 C212 1.363 . S
C217 C216 1.415 . S
H218 C215 0.999 . S
H219 C200 0.913 . S
H220 C238 0.951 . S
H221 C240 0.951 . S
H222 C242 0.950 . S
H223 C243 0.950 . S
H224 C245 0.950 . S
H225 C248 0.950 . S
H226 C249 0.950 . S
H227 C251 0.950 . S
H228 C252 0.950 . S
H229 C253 0.951 . S
H230 C255 0.951 . S
H231 C257 0.950 . S
H232 C258 0.950 . S
H233 C260 0.950 . S
H234 C263 0.950 . S
H235 C264 0.950 . S
H236 C266 0.950 . S
H237 C267 0.950 . S
C238 H220 0.951 . S
C238 C239 1.366 . S
C238 C240 1.388 . S
C239 C238 1.366 . S
C239 C243 1.385 . S
C240 H221 0.951 . S
C240 C238 1.388 . S
C240 C241 1.366 . S
C241 C240 1.366 . S
C241 C242 1.414 . S
C241 C244 1.499 . S
C242 H222 0.950 . S
C242 C241 1.414 . S
C242 C243 1.374 . S
C243 H223 0.950 . S
C243 C239 1.385 . S
C243 C242 1.374 . S
C244 C241 1.499 . S
C244 C245 1.373 . S
C244 C246 1.389 . S
C245 H224 0.950 . S
C245 C244 1.373 . S
C245 C261 1.377 . S
C246 C244 1.389 . S
C246 C247 1.524 . S
C246 C260 1.377 . S
C247 C246 1.524 . S
C247 C248 1.397 . S
C247 C252 1.363 . S
C248 H225 0.950 . S
C248 C247 1.397 . S
C248 C249 1.334 . S
C249 H226 0.950 . S
C249 C248 1.334 . S
C249 C250 1.287 . S
C250 C249 1.287 . S
C250 C251 1.524 . S
C250 H269 0.913 . S
C251 H227 0.950 . S
C251 C250 1.524 . S
C251 C252 1.415 . S
C252 H228 0.950 . S
C252 C247 1.363 . S
C252 C251 1.415 . S
C253 H229 0.951 . S
C253 C254 1.366 . S
C253 C255 1.388 . S
C254 C253 1.366 . S
C254 C258 1.385 . S
C255 H230 0.951 . S
C255 C253 1.388 . S
C255 C256 1.366 . S
C256 C255 1.366 . S
C256 C257 1.414 . S
C256 C259 1.499 . S
C257 H231 0.950 . S
C257 C256 1.414 . S
C257 C258 1.374 . S
C258 H232 0.950 . S
C258 C254 1.385 . S
C258 C257 1.374 . S
C259 C256 1.499 . S
C259 C260 1.373 . S
C259 C261 1.389 . S
C260 H233 0.950 . S
C260 C246 1.377 . S
C260 C259 1.373 . S
C261 C245 1.377 . S
C261 C259 1.389 . S
C261 C262 1.524 . S
C262 C261 1.524 . S
C262 C263 1.397 . S
C262 C267 1.363 . S
C263 H234 0.950 . S
C263 C262 1.397 . S
C263 C264 1.334 . S
C264 H235 0.950 . S
C264 C263 1.334 . S
C264 C265 1.287 . S
C265 C264 1.287 . S
C265 C266 1.524 . S
C265 H268 0.999 . S
C266 H236 0.950 . S
C266 C265 1.524 . S
C266 C267 1.415 . S
C267 H237 0.950 . S
C267 C262 1.363 . S
C267 C266 1.415 . S
H268 C265 0.999 . S
H269 C250 0.913 . S
H270 C288 0.951 . S
H271 C290 0.951 . S
H272 C292 0.950 . S
H273 C293 0.950 . S
H274 C295 0.950 . S
H275 C298 0.950 . S
H276 C299 0.950 . S
H277 C301 0.950 . S
H278 C302 0.950 . S
H279 C303 0.951 . S
H280 C305 0.951 . S
H281 C307 0.950 . S
H282 C308 0.950 . S
H283 C310 0.950 . S
H284 C313 0.950 . S
H285 C314 0.950 . S
H286 C316 0.950 . S
H287 C317 0.950 . S
C288 H270 0.951 . S
C288 C289 1.366 . S
C288 C290 1.388 . S
C289 C288 1.366 . S
C289 C293 1.385 . S
C290 H271 0.951 . S
C290 C288 1.388 . S
C290 C291 1.366 . S
C291 C290 1.366 . S
C291 C292 1.414 . S
C291 C294 1.499 . S
C292 H272 0.950 . S
C292 C291 1.414 . S
C292 C293 1.374 . S
C293 H273 0.950 . S
C293 C289 1.385 . S
C293 C292 1.374 . S
C294 C291 1.499 . S
C294 C295 1.373 . S
C294 C296 1.389 . S
C295 H274 0.950 . S
C295 C294 1.373 . S
C295 C311 1.377 . S
C296 C294 1.389 . S
C296 C297 1.524 . S
C296 C310 1.377 . S
C297 C296 1.524 . S
C297 C298 1.397 . S
C297 C302 1.363 . S
C298 H275 0.950 . S
C298 C297 1.397 . S
C298 C299 1.334 . S
C299 H276 0.950 . S
C299 C298 1.334 . S
C299 C300 1.287 . S
C300 C299 1.287 . S
C300 C301 1.524 . S
C300 H319 0.913 . S
C301 H277 0.950 . S
C301 C300 1.524 . S
C301 C302 1.415 . S
C302 H278 0.950 . S
C302 C297 1.363 . S
C302 C301 1.415 . S
C303 H279 0.951 . S
C303 C304 1.366 . S
C303 C305 1.388 . S
C304 C303 1.366 . S
C304 C308 1.385 . S
C305 H280 0.951 . S
C305 C303 1.388 . S
C305 C306 1.366 . S
C306 C305 1.366 . S
C306 C307 1.414 . S
C306 C309 1.499 . S
C307 H281 0.950 . S
C307 C306 1.414 . S
C307 C308 1.374 . S
C308 H282 0.950 . S
C308 C304 1.385 . S
C308 C307 1.374 . S
C309 C306 1.499 . S
C309 C310 1.373 . S
C309 C311 1.389 . S
C310 H283 0.950 . S
C310 C296 1.377 . S
C310 C309 1.373 . S
C311 C295 1.377 . S
C311 C309 1.389 . S
C311 C312 1.524 . S
C312 C311 1.524 . S
C312 C313 1.397 . S
C312 C317 1.363 . S
C313 H284 0.950 . S
C313 C312 1.397 . S
C313 C314 1.334 . S
C314 H285 0.950 . S
C314 C313 1.334 . S
C314 C315 1.287 . S
C315 C314 1.287 . S
C315 C316 1.524 . S
C315 H318 0.999 . S
C316 H286 0.950 . S
C316 C315 1.524 . S
C316 C317 1.415 . S
C317 H287 0.950 . S
C317 C312 1.363 . S
C317 C316 1.415 . S
H318 C315 0.999 . S
H319 C300 0.913 . S
H320 C338 0.951 . S
H321 C340 0.951 . S
H322 C342 0.950 . S
H323 C343 0.950 . S
H324 C345 0.950 . S
H325 C348 0.950 . S
H326 C349 0.950 . S
H327 C351 0.950 . S
H328 C352 0.950 . S
H329 C353 0.951 . S
H330 C355 0.951 . S
H331 C357 0.950 . S
H332 C358 0.950 . S
H333 C360 0.950 . S
H334 C363 0.950 . S
H335 C364 0.950 . S
H336 C366 0.950 . S
H337 C367 0.950 . S
C338 H320 0.951 . S
C338 C339 1.366 . S
C338 C340 1.388 . S
C339 C338 1.366 . S
C339 C343 1.385 . S
C340 H321 0.951 . S
C340 C338 1.388 . S
C340 C341 1.366 . S
C341 C340 1.366 . S
C341 C342 1.414 . S
C341 C344 1.499 . S
C342 H322 0.950 . S
C342 C341 1.414 . S
C342 C343 1.374 . S
C343 H323 0.950 . S
C343 C339 1.385 . S
C343 C342 1.374 . S
C344 C341 1.499 . S
C344 C345 1.373 . S
C344 C346 1.389 . S
C345 H324 0.950 . S
C345 C344 1.373 . S
C345 C361 1.377 . S
C346 C344 1.389 . S
C346 C347 1.524 . S
C346 C360 1.377 . S
C347 C346 1.524 . S
C347 C348 1.397 . S
C347 C352 1.363 . S
C348 H325 0.950 . S
C348 C347 1.397 . S
C348 C349 1.334 . S
C349 H326 0.950 . S
C349 C348 1.334 . S
C349 C350 1.287 . S
C350 C349 1.287 . S
C350 C351 1.524 . S
C350 H369 0.913 . S
C351 H327 0.950 . S
C351 C350 1.524 . S
C351 C352 1.415 . S
C352 H328 0.950 . S
C352 C347 1.363 . S
C352 C351 1.415 . S
C353 H329 0.951 . S
C353 C354 1.366 . S
C353 C355 1.388 . S
C354 C353 1.366 . S
C354 C358 1.385 . S
C355 H330 0.951 . S
C355 C353 1.388 . S
C355 C356 1.366 . S
C356 C355 1.366 . S
C356 C357 1.414 . S
C356 C359 1.499 . S
C357 H331 0.950 . S
C357 C356 1.414 . S
C357 C358 1.374 . S
C358 H332 0.950 . S
C358 C354 1.385 . S
C358 C357 1.374 . S
C359 C356 1.499 . S
C359 C360 1.373 . S
C359 C361 1.389 . S
C360 H333 0.950 . S
C360 C346 1.377 . S
C360 C359 1.373 . S
C361 C345 1.377 . S
C361 C359 1.389 . S
C361 C362 1.524 . S
C362 C361 1.524 . S
C362 C363 1.397 . S
C362 C367 1.363 . S
C363 H334 0.950 . S
C363 C362 1.397 . S
C363 C364 1.334 . S
C364 H335 0.950 . S
C364 C363 1.334 . S
C364 C365 1.287 . S
C365 C364 1.287 . S
C365 C366 1.524 . S
C365 H368 0.999 . S
C366 H336 0.950 . S
C366 C365 1.524 . S
C366 C367 1.415 . S
C367 H337 0.950 . S
C367 C362 1.363 . S
C367 C366 1.415 . S
H368 C365 0.999 . S
H369 C350 0.913 . S
H370 C388 0.951 . S
H371 C390 0.951 . S
H372 C392 0.950 . S
H373 C393 0.950 . S
H374 C395 0.950 . S
H375 C398 0.950 . S
H376 C399 0.950 . S
H377 C401 0.950 . S
H378 C402 0.950 . S
H379 C403 0.951 . S
H380 C405 0.951 . S
H381 C407 0.950 . S
H382 C408 0.950 . S
H383 C410 0.950 . S
H384 C413 0.950 . S
H385 C414 0.950 . S
H386 C416 0.950 . S
H387 C417 0.950 . S
C388 H370 0.951 . S
C388 C389 1.366 . S
C388 C390 1.388 . S
C389 C388 1.366 . S
C389 C393 1.385 . S
C390 H371 0.951 . S
C390 C388 1.388 . S
C390 C391 1.366 . S
C391 C390 1.366 . S
C391 C392 1.414 . S
C391 C394 1.499 . S
C392 H372 0.950 . S
C392 C391 1.414 . S
C392 C393 1.374 . S
C393 H373 0.950 . S
C393 C389 1.385 . S
C393 C392 1.374 . S
C394 C391 1.499 . S
C394 C395 1.373 . S
C394 C396 1.389 . S
C395 H374 0.950 . S
C395 C394 1.373 . S
C395 C411 1.377 . S
C396 C394 1.389 . S
C396 C397 1.524 . S
C396 C410 1.377 . S
C397 C396 1.524 . S
C397 C398 1.397 . S
C397 C402 1.363 . S
C398 H375 0.950 . S
C398 C397 1.397 . S
C398 C399 1.334 . S
C399 H376 0.950 . S
C399 C398 1.334 . S
C399 C400 1.287 . S
C400 C399 1.287 . S
C400 C401 1.524 . S
C400 H419 0.913 . S
C401 H377 0.950 . S
C401 C400 1.524 . S
C401 C402 1.415 . S
C402 H378 0.950 . S
C402 C397 1.363 . S
C402 C401 1.415 . S
C403 H379 0.951 . S
C403 C404 1.366 . S
C403 C405 1.388 . S
C404 C403 1.366 . S
C404 C408 1.385 . S
C405 H380 0.951 . S
C405 C403 1.388 . S
C405 C406 1.366 . S
C406 C405 1.366 . S
C406 C407 1.414 . S
C406 C409 1.499 . S
C407 H381 0.950 . S
C407 C406 1.414 . S
C407 C408 1.374 . S
C408 H382 0.950 . S
C408 C404 1.385 . S
C408 C407 1.374 . S
C409 C406 1.499 . S
C409 C410 1.373 . S
C409 C411 1.389 . S
C410 H383 0.950 . S
C410 C396 1.377 . S
C410 C409 1.373 . S
C411 C395 1.377 . S
C411 C409 1.389 . S
C411 C412 1.524 . S
C412 C411 1.524 . S
C412 C413 1.397 . S
C412 C417 1.363 . S
C413 H384 0.950 . S
C413 C412 1.397 . S
C413 C414 1.334 . S
C414 H385 0.950 . S
C414 C413 1.334 . S
C414 C415 1.287 . S
C415 C414 1.287 . S
C415 C416 1.524 . S
C415 H418 0.999 . S
C416 H386 0.950 . S
C416 C415 1.524 . S
C416 C417 1.415 . S
C417 H387 0.950 . S
C417 C412 1.363 . S
C417 C416 1.415 . S
H418 C415 0.999 . S
H419 C400 0.913 . S
H420 C438 0.951 1_556 S
H421 C440 0.951 1_556 S
H422 C442 0.950 . S
H423 C443 0.950 . S
H424 C445 0.950 . S
H425 C448 0.950 . S
H426 C449 0.950 . S
H427 C451 0.950 . S
H428 C452 0.950 . S
H429 C453 0.951 . S
H430 C455 0.951 . S
H431 C457 0.950 1_556 S
H432 C458 0.950 1_556 S
H433 C460 0.950 . S
H434 C463 0.950 1_556 S
H435 C464 0.950 . S
H436 C466 0.950 . S
H437 C467 0.950 . S
C438 H420 0.951 1_554 S
C438 C439 1.366 . S
C438 C440 1.388 . S
C439 C438 1.366 . S
C439 C443 1.385 . S
C440 H421 0.951 1_554 S
C440 C438 1.388 . S
C440 C441 1.366 . S
C441 C440 1.366 . S
C441 C442 1.414 . S
C441 C444 1.499 . S
C442 H422 0.950 . S
C442 C441 1.414 . S
C442 C443 1.374 . S
C443 H423 0.950 . S
C443 C439 1.385 . S
C443 C442 1.374 . S
C444 C441 1.499 . S
C444 C445 1.373 . S
C444 C446 1.389 . S
C445 H424 0.950 . S
C445 C444 1.373 . S
C445 C461 1.377 . S
C446 C444 1.389 . S
C446 C447 1.524 . S
C446 C460 1.377 . S
C447 C446 1.524 . S
C447 C448 1.397 . S
C447 C452 1.363 1_554 S
C448 H425 0.950 . S
C448 C447 1.397 . S
C448 C449 1.334 . S
C449 H426 0.950 . S
C449 C448 1.334 . S
C449 C450 1.287 . S
C450 C449 1.287 . S
C450 C451 1.524 1_554 S
C450 H469 0.913 . S
C451 H427 0.950 . S
C451 C450 1.524 1_556 S
C451 C452 1.415 . S
C452 H428 0.950 . S
C452 C447 1.363 1_556 S
C452 C451 1.415 . S
C453 H429 0.951 . S
C453 C454 1.366 . S
C453 C455 1.388 . S
C454 C453 1.366 . S
C454 C458 1.385 . S
C455 H430 0.951 . S
C455 C453 1.388 . S
C455 C456 1.366 . S
C456 C455 1.366 . S
C456 C457 1.414 . S
C456 C459 1.499 . S
C457 H431 0.950 1_554 S
C457 C456 1.414 . S
C457 C458 1.374 . S
C458 H432 0.950 1_554 S
C458 C454 1.385 . S
C458 C457 1.374 . S
C459 C456 1.499 . S
C459 C460 1.373 . S
C459 C461 1.389 . S
C460 H433 0.950 . S
C460 C446 1.377 . S
C460 C459 1.373 . S
C461 C445 1.377 . S
C461 C459 1.389 . S
C461 C462 1.524 . S
C462 C461 1.524 . S
C462 C463 1.397 . S
C462 C467 1.363 . S
C463 H434 0.950 1_554 S
C463 C462 1.397 . S
C463 C464 1.334 . S
C464 H435 0.950 . S
C464 C463 1.334 . S
C464 C465 1.287 . S
C465 C464 1.287 . S
C465 C466 1.524 . S
C465 H468 0.999 . S
C466 H436 0.950 . S
C466 C465 1.524 . S
C466 C467 1.415 . S
C467 H437 0.950 . S
C467 C462 1.363 . S
C467 C466 1.415 . S
H468 C465 0.999 . S
H469 C450 0.913 . S
H470 C488 0.951 . S
H471 C490 0.951 . S
H472 C492 0.950 . S
H473 C493 0.950 . S
H474 C495 0.950 . S
H475 C498 0.950 . S
H476 C499 0.950 . S
H477 C501 0.950 . S
H478 C502 0.950 . S
H479 C503 0.951 . S
H480 C505 0.951 . S
H481 C507 0.950 . S
H482 C508 0.950 . S
H483 C510 0.950 . S
H484 C513 0.950 . S
H485 C514 0.950 . S
H486 C516 0.950 . S
H487 C517 0.950 . S
C488 H470 0.951 . S
C488 C489 1.366 . S
C488 C490 1.388 . S
C489 C488 1.366 . S
C489 C493 1.385 . S
C490 H471 0.951 . S
C490 C488 1.388 . S
C490 C491 1.366 . S
C491 C490 1.366 . S
C491 C492 1.414 . S
C491 C494 1.499 . S
C492 H472 0.950 . S
C492 C491 1.414 . S
C492 C493 1.374 . S
C493 H473 0.950 . S
C493 C489 1.385 . S
C493 C492 1.374 . S
C494 C491 1.499 . S
C494 C495 1.373 1_455 S
C494 C496 1.389 . S
C495 H474 0.950 . S
C495 C494 1.373 1_655 S
C495 C511 1.377 . S
C496 C494 1.389 . S
C496 C497 1.524 . S
C496 C510 1.377 . S
C497 C496 1.524 . S
C497 C498 1.397 . S
C497 C502 1.363 . S
C498 H475 0.950 . S
C498 C497 1.397 . S
C498 C499 1.334 . S
C499 H476 0.950 . S
C499 C498 1.334 . S
C499 C500 1.287 . S
C500 C499 1.287 . S
C500 C501 1.524 . S
C500 H519 0.913 . S
C501 H477 0.950 . S
C501 C500 1.524 . S
C501 C502 1.415 . S
C502 H478 0.950 . S
C502 C497 1.363 . S
C502 C501 1.415 . S
C503 H479 0.951 . S
C503 C504 1.366 . S
C503 C505 1.388 . S
C504 C503 1.366 . S
C504 C508 1.385 . S
C505 H480 0.951 . S
C505 C503 1.388 . S
C505 C506 1.366 . S
C506 C505 1.366 . S
C506 C507 1.414 . S
C506 C509 1.499 . S
C507 H481 0.950 . S
C507 C506 1.414 . S
C507 C508 1.374 . S
C508 H482 0.950 . S
C508 C504 1.385 . S
C508 C507 1.374 . S
C509 C506 1.499 . S
C509 C510 1.373 1_655 S
C509 C511 1.389 . S
C510 H483 0.950 . S
C510 C496 1.377 . S
C510 C509 1.373 1_455 S
C511 C495 1.377 . S
C511 C509 1.389 . S
C511 C512 1.524 . S
C512 C511 1.524 . S
C512 C513 1.397 . S
C512 C517 1.363 . S
C513 H484 0.950 . S
C513 C512 1.397 . S
C513 C514 1.334 . S
C514 H485 0.950 . S
C514 C513 1.334 . S
C514 C515 1.287 . S
C515 C514 1.287 . S
C515 C516 1.524 . S
C515 H518 0.999 . S
C516 H486 0.950 . S
C516 C515 1.524 . S
C516 C517 1.415 . S
C517 H487 0.950 . S
C517 C512 1.363 . S
C517 C516 1.415 . S
H518 C515 0.999 . S
H519 C500 0.913 . S
H520 C538 0.951 . S
H521 C540 0.932 1_565 S
H522 C542 0.950 . S
H523 C543 0.950 . S
H524 C545 0.950 . S
H525 C548 0.950 1_545 S
H526 C549 0.950 1_545 S
H527 C551 0.950 . S
H528 C552 0.950 . S
H529 C553 0.951 . S
H530 C555 0.932 1_545 S
H531 C557 0.950 . S
H532 C558 0.950 . S
H533 C560 0.950 . S
H534 C563 0.950 1_565 S
H535 C564 0.950 1_565 S
H536 C566 0.950 . S
H537 C567 0.950 . S
C538 H520 0.951 . S
C538 C539 1.366 . S
C538 C540 1.388 . S
C539 C538 1.366 . S
C539 C543 1.385 . S
C540 H521 0.932 1_545 S
C540 C538 1.388 . S
C540 C541 1.366 . S
C541 C540 1.366 . S
C541 C542 1.414 . S
C541 C544 1.499 . S
C542 H522 0.950 . S
C542 C541 1.414 . S
C542 C543 1.374 . S
C543 H523 0.950 . S
C543 C539 1.385 . S
C543 C542 1.374 . S
C544 C541 1.499 . S
C544 C545 1.373 . S
C544 C546 1.389 1_545 S
C545 H524 0.950 . S
C545 C544 1.373 . S
C545 C561 1.377 . S
C546 C544 1.389 1_565 S
C546 C547 1.524 . S
C546 C560 1.377 . S
C547 C546 1.524 . S
C547 C548 1.397 . S
C547 C552 1.363 . S
C548 H525 0.950 1_565 S
C548 C547 1.397 . S
C548 C549 1.334 . S
C549 H526 0.950 1_565 S
C549 C548 1.334 . S
C549 C550 1.287 . S
C550 C549 1.287 . S
C550 C551 1.524 . S
C550 H569 0.913 . S
C551 H527 0.950 . S
C551 C550 1.524 . S
C551 C552 1.415 . S
C552 H528 0.950 . S
C552 C547 1.363 . S
C552 C551 1.415 . S
C553 H529 0.951 . S
C553 C554 1.366 . S
C553 C555 1.388 . S
C554 C553 1.366 . S
C554 C558 1.385 . S
C555 H530 0.932 1_565 S
C555 C553 1.388 . S
C555 C556 1.366 . S
C556 C555 1.366 . S
C556 C557 1.414 . S
C556 C559 1.499 . S
C557 H531 0.950 . S
C557 C556 1.414 . S
C557 C558 1.374 . S
C558 H532 0.950 . S
C558 C554 1.385 . S
C558 C557 1.374 . S
C559 C556 1.499 . S
C559 C560 1.373 . S
C559 C561 1.389 1_565 S
C560 H533 0.950 . S
C560 C546 1.377 . S
C560 C559 1.373 . S
C561 C545 1.377 . S
C561 C559 1.389 1_545 S
C561 C562 1.524 . S
C562 C561 1.524 . S
C562 C563 1.397 . S
C562 C567 1.363 . S
C563 H534 0.950 1_545 S
C563 C562 1.397 . S
C563 C564 1.334 . S
C564 H535 0.950 1_545 S
C564 C563 1.334 . S
C564 C565 1.287 . S
C565 C564 1.287 . S
C565 C566 1.524 . S
C565 H568 0.999 . S
C566 H536 0.950 . S
C566 C565 1.524 . S
C566 C567 1.415 . S
C567 H537 0.950 . S
C567 C562 1.363 . S
C567 C566 1.415 . S
H568 C565 0.999 . S
H569 C550 0.913 . S
H570 C588 0.951 . S
H571 C590 0.951 . S
H572 C592 0.950 . S
H573 C593 0.950 . S
H574 C595 0.950 . S
H575 C598 0.950 . S
H576 C599 0.950 . S
H577 C601 0.950 . S
H578 C602 0.950 . S
H579 C603 0.951 . S
H580 C605 0.951 . S
H581 C607 0.950 . S
H582 C608 0.950 . S
H583 C610 0.950 . S
H584 C613 0.950 . S
H585 C614 0.950 . S
H586 C616 0.950 . S
H587 C617 0.950 . S
C588 H570 0.951 . S
C588 C589 1.366 . S
C588 C590 1.388 . S
C589 C588 1.366 . S
C589 C593 1.385 . S
C590 H571 0.951 . S
C590 C588 1.388 . S
C590 C591 1.366 . S
C591 C590 1.366 . S
C591 C592 1.414 . S
C591 C594 1.499 . S
C592 H572 0.950 . S
C592 C591 1.414 . S
C592 C593 1.374 . S
C593 H573 0.950 . S
C593 C589 1.385 . S
C593 C592 1.374 . S
C594 C591 1.499 . S
C594 C595 1.373 . S
C594 C596 1.389 . S
C595 H574 0.950 . S
C595 C594 1.373 . S
C595 C611 1.377 . S
C596 C594 1.389 . S
C596 C597 1.524 . S
C596 C610 1.377 . S
C597 C596 1.524 . S
C597 C598 1.397 . S
C597 C602 1.363 . S
C598 H575 0.950 . S
C598 C597 1.397 . S
C598 C599 1.334 . S
C599 H576 0.950 . S
C599 C598 1.334 . S
C599 C600 1.287 . S
C600 C599 1.287 . S
C600 C601 1.524 . S
C600 H619 0.913 . S
C601 H577 0.950 . S
C601 C600 1.524 . S
C601 C602 1.415 . S
C602 H578 0.950 . S
C602 C597 1.363 . S
C602 C601 1.415 . S
C603 H579 0.951 . S
C603 C604 1.366 . S
C603 C605 1.388 . S
C604 C603 1.366 . S
C604 C608 1.385 . S
C605 H580 0.951 . S
C605 C603 1.388 . S
C605 C606 1.366 . S
C606 C605 1.366 . S
C606 C607 1.414 . S
C606 C609 1.499 . S
C607 H581 0.950 . S
C607 C606 1.414 . S
C607 C608 1.374 . S
C608 H582 0.950 . S
C608 C604 1.385 . S
C608 C607 1.374 . S
C609 C606 1.499 . S
C609 C610 1.373 . S
C609 C611 1.389 . S
C610 H583 0.950 . S
C610 C596 1.377 . S
C610 C609 1.373 . S
C611 C595 1.377 . S
C611 C609 1.389 . S
C611 C612 1.524 . S
C612 C611 1.524 . S
C612 C613 1.397 . S
C612 C617 1.363 . S
C613 H584 0.950 . S
C613 C612 1.397 . S
C613 C614 1.334 . S
C614 H585 0.950 . S
C614 C613 1.334 . S
C614 C615 1.287 . S
C615 C614 1.287 . S
C615 C616 1.524 . S
C615 H618 0.999 . S
C616 H586 0.950 . S
C616 C615 1.524 . S
C616 C617 1.415 . S
C617 H587 0.950 . S
C617 C612 1.363 . S
C617 C616 1.415 . S
H618 C615 0.999 . S
H619 C600 0.913 . S
H620 C638 0.951 . S
H621 C640 0.957 . S
H622 C642 0.950 . S
H623 C643 0.950 . S
H624 C645 0.950 . S
H625 C648 0.950 . S
H626 C649 0.950 . S
H627 C651 0.950 . S
H628 C652 0.950 . S
H629 C653 0.951 . S
H630 C655 0.951 . S
H631 C657 0.950 . S
H632 C658 0.950 . S
H633 C660 0.950 . S
H634 C663 0.950 . S
H635 C664 0.950 . S
H636 C666 0.950 . S
H637 C667 0.950 . S
C638 H620 0.951 . S
C638 C639 1.366 1_556 S
C638 C640 1.389 . S
C639 C638 1.366 1_554 S
C639 C643 1.385 . S
C640 H621 0.957 . S
C640 C638 1.389 . S
C640 C641 1.359 1_556 S
C641 C640 1.359 1_554 S
C641 C642 1.414 . S
C641 C644 1.499 . S
C642 H622 0.950 . S
C642 C641 1.414 . S
C642 C643 1.374 . S
C643 H623 0.950 . S
C643 C639 1.385 . S
C643 C642 1.374 . S
C644 C641 1.499 . S
C644 C645 1.373 1_454 S
C644 C646 1.389 . S
C645 H624 0.950 . S
C645 C644 1.373 1_656 S
C645 C661 1.377 . S
C646 C644 1.389 . S
C646 C647 1.524 . S
C646 C660 1.377 . S
C647 C646 1.524 . S
C647 C648 1.397 . S
C647 C652 1.363 . S
C648 H625 0.950 . S
C648 C647 1.397 . S
C648 C649 1.334 . S
C649 H626 0.950 . S
C649 C648 1.334 . S
C649 C650 1.287 . S
C650 C649 1.287 . S
C650 C651 1.524 . S
C650 H669 0.913 . S
C651 H627 0.950 . S
C651 C650 1.524 . S
C651 C652 1.415 . S
C652 H628 0.950 . S
C652 C647 1.363 . S
C652 C651 1.415 . S
C653 H629 0.951 . S
C653 C654 1.366 . S
C653 C655 1.388 . S
C654 C653 1.366 . S
C654 C658 1.385 1_554 S
C655 H630 0.951 . S
C655 C653 1.388 . S
C655 C656 1.366 . S
C656 C655 1.366 . S
C656 C657 1.414 1_554 S
C656 C659 1.499 . S
C657 H631 0.950 . S
C657 C656 1.414 1_556 S
C657 C658 1.374 . S
C658 H632 0.950 . S
C658 C654 1.385 1_556 S
C658 C657 1.374 . S
C659 C656 1.499 . S
C659 C660 1.373 1_655 S
C659 C661 1.389 1_554 S
C660 H633 0.950 . S
C660 C646 1.377 . S
C660 C659 1.373 1_455 S
C661 C645 1.377 . S
C661 C659 1.389 1_556 S
C661 C662 1.524 . S
C662 C661 1.524 . S
C662 C663 1.397 . S
C662 C667 1.363 . S
C663 H634 0.950 . S
C663 C662 1.397 . S
C663 C664 1.334 . S
C664 H635 0.950 . S
C664 C663 1.334 . S
C664 C665 1.287 . S
C665 C664 1.287 . S
C665 C666 1.524 . S
C665 H668 0.999 . S
C666 H636 0.950 . S
C666 C665 1.524 . S
C666 C667 1.415 . S
C667 H637 0.950 . S
C667 C662 1.363 . S
C667 C666 1.415 . S
H668 C665 0.999 . S
H669 C650 0.913 . S
H670 C688 0.951 . S
H671 C690 0.951 . S
H672 C692 0.950 . S
H673 C693 0.950 . S
H674 C695 0.950 . S
H675 C698 0.950 . S
H676 C699 0.950 . S
H677 C701 0.950 . S
H678 C702 0.950 . S
H679 C703 0.951 . S
H680 C705 0.951 . S
H681 C707 0.950 . S
H682 C708 0.950 . S
H683 C710 0.950 . S
H684 C713 0.950 . S
H685 C714 0.950 . S
H686 C716 0.950 . S
H687 C717 0.950 . S
C688 H670 0.951 . S
C688 C689 1.366 . S
C688 C690 1.388 . S
C689 C688 1.366 . S
C689 C693 1.385 . S
C690 H671 0.951 . S
C690 C688 1.388 . S
C690 C691 1.366 . S
C691 C690 1.366 . S
C691 C692 1.414 . S
C691 C694 1.499 . S
C692 H672 0.950 . S
C692 C691 1.414 . S
C692 C693 1.374 . S
C693 H673 0.950 . S
C693 C689 1.385 . S
C693 C692 1.374 . S
C694 C691 1.499 . S
C694 C695 1.373 . S
C694 C696 1.389 . S
C695 H674 0.950 . S
C695 C694 1.373 . S
C695 C711 1.377 1_565 S
C696 C694 1.389 . S
C696 C697 1.524 . S
C696 C710 1.377 1_565 S
C697 C696 1.524 . S
C697 C698 1.397 . S
C697 C702 1.363 . S
C698 H675 0.950 . S
C698 C697 1.397 . S
C698 C699 1.334 . S
C699 H676 0.950 . S
C699 C698 1.334 . S
C699 C700 1.287 . S
C700 C699 1.287 . S
C700 C701 1.524 . S
C700 H719 0.913 . S
C701 H677 0.950 . S
C701 C700 1.524 . S
C701 C702 1.415 . S
C702 H678 0.950 . S
C702 C697 1.363 . S
C702 C701 1.415 . S
C703 H679 0.951 . S
C703 C704 1.366 . S
C703 C705 1.388 . S
C704 C703 1.366 . S
C704 C708 1.385 . S
C705 H680 0.951 . S
C705 C703 1.388 . S
C705 C706 1.366 . S
C706 C705 1.366 . S
C706 C707 1.414 . S
C706 C709 1.499 . S
C707 H681 0.950 . S
C707 C706 1.414 . S
C707 C708 1.374 . S
C708 H682 0.950 . S
C708 C704 1.385 . S
C708 C707 1.374 . S
C709 C706 1.499 . S
C709 C710 1.373 . S
C709 C711 1.389 . S
C710 H683 0.950 . S
C710 C696 1.377 1_545 S
C710 C709 1.373 . S
C711 C695 1.377 1_545 S
C711 C709 1.389 . S
C711 C712 1.524 . S
C712 C711 1.524 . S
C712 C713 1.397 . S
C712 C717 1.363 . S
C713 H684 0.950 . S
C713 C712 1.397 . S
C713 C714 1.334 . S
C714 H685 0.950 . S
C714 C713 1.334 . S
C714 C715 1.287 . S
C715 C714 1.287 . S
C715 C716 1.524 . S
C715 H718 0.999 . S
C716 H686 0.950 . S
C716 C715 1.524 . S
C716 C717 1.415 . S
C717 H687 0.950 . S
C717 C712 1.363 . S
C717 C716 1.415 . S
H718 C715 0.999 . S
H719 C700 0.913 . S
H720 C738 0.951 . S
H721 C740 0.951 . S
H722 C742 0.950 . S
H723 C743 0.950 . S
H724 C745 0.950 . S
H725 C748 0.950 . S
H726 C749 0.950 . S
H727 C751 0.950 . S
H728 C752 0.950 . S
H729 C753 0.951 . S
H730 C755 0.951 . S
H731 C757 0.950 . S
H732 C758 0.950 . S
H733 C760 0.950 . S
H734 C763 0.950 . S
H735 C764 0.950 . S
H736 C766 0.950 . S
H737 C767 0.950 . S
C738 H720 0.951 . S
C738 C739 1.366 . S
C738 C740 1.388 . S
C739 C738 1.366 . S
C739 C743 1.385 . S
C740 H721 0.951 . S
C740 C738 1.388 . S
C740 C741 1.366 . S
C741 C740 1.366 . S
C741 C742 1.414 . S
C741 C744 1.499 . S
C742 H722 0.950 . S
C742 C741 1.414 . S
C742 C743 1.374 . S
C743 H723 0.950 . S
C743 C739 1.385 . S
C743 C742 1.374 . S
C744 C741 1.499 . S
C744 C745 1.373 . S
C744 C746 1.389 . S
C745 H724 0.950 . S
C745 C744 1.373 . S
C745 C761 1.377 . S
C746 C744 1.389 . S
C746 C747 1.524 . S
C746 C760 1.377 . S
C747 C746 1.524 . S
C747 C748 1.397 . S
C747 C752 1.363 . S
C748 H725 0.950 . S
C748 C747 1.397 . S
C748 C749 1.334 . S
C749 H726 0.950 . S
C749 C748 1.334 . S
C749 C750 1.287 . S
C750 C749 1.287 . S
C750 C751 1.524 . S
C750 H769 0.913 . S
C751 H727 0.950 . S
C751 C750 1.524 . S
C751 C752 1.415 . S
C752 H728 0.950 . S
C752 C747 1.363 . S
C752 C751 1.415 . S
C753 H729 0.951 . S
C753 C754 1.366 . S
C753 C755 1.388 . S
C754 C753 1.366 . S
C754 C758 1.385 . S
C755 H730 0.951 . S
C755 C753 1.388 . S
C755 C756 1.366 . S
C756 C755 1.366 . S
C756 C757 1.414 . S
C756 C759 1.499 . S
C757 H731 0.950 . S
C757 C756 1.414 . S
C757 C758 1.374 . S
C758 H732 0.950 . S
C758 C754 1.385 . S
C758 C757 1.374 . S
C759 C756 1.499 . S
C759 C760 1.373 . S
C759 C761 1.389 . S
C760 H733 0.950 . S
C760 C746 1.377 . S
C760 C759 1.373 . S
C761 C745 1.377 . S
C761 C759 1.389 . S
C761 C762 1.524 . S
C762 C761 1.524 . S
C762 C763 1.397 . S
C762 C767 1.363 . S
C763 H734 0.950 . S
C763 C762 1.397 . S
C763 C764 1.334 . S
C764 H735 0.950 . S
C764 C763 1.334 . S
C764 C765 1.287 . S
C765 C764 1.287 . S
C765 C766 1.524 . S
C765 H768 0.999 . S
C766 H736 0.950 . S
C766 C765 1.524 . S
C766 C767 1.415 . S
C767 H737 0.950 . S
C767 C762 1.363 . S
C767 C766 1.415 . S
H768 C765 0.999 . S
H769 C750 0.913 . S
H770 C788 0.951 . S
H771 C790 0.951 . S
H772 C792 0.950 . S
H773 C793 0.950 . S
H774 C795 0.950 . S
H775 C798 0.950 . S
H776 C799 0.950 . S
H777 C801 0.950 . S
H778 C802 0.950 . S
H779 C803 0.951 . S
H780 C805 0.951 . S
H781 C807 0.950 . S
H782 C808 0.950 . S
H783 C810 0.950 . S
H784 C813 0.950 . S
H785 C814 0.950 . S
H786 C816 0.950 . S
H787 C817 0.950 . S
C788 H770 0.951 . S
C788 C789 1.366 . S
C788 C790 1.388 . S
C789 C788 1.366 . S
C789 C793 1.385 . S
C790 H771 0.951 . S
C790 C788 1.388 . S
C790 C791 1.366 . S
C791 C790 1.366 . S
C791 C792 1.414 . S
C791 C794 1.499 . S
C792 H772 0.950 . S
C792 C791 1.414 . S
C792 C793 1.374 . S
C793 H773 0.950 . S
C793 C789 1.385 . S
C793 C792 1.374 . S
C794 C791 1.499 . S
C794 C795 1.373 1_655 S
C794 C796 1.389 . S
C795 H774 0.950 . S
C795 C794 1.373 1_455 S
C795 C811 1.377 . S
C796 C794 1.389 . S
C796 C797 1.524 . S
C796 C810 1.377 . S
C797 C796 1.524 . S
C797 C798 1.397 . S
C797 C802 1.363 . S
C798 H775 0.950 . S
C798 C797 1.397 . S
C798 C799 1.334 . S
C799 H776 0.950 . S
C799 C798 1.334 . S
C799 C800 1.287 . S
C800 C799 1.287 . S
C800 C801 1.524 . S
C800 H819 0.913 . S
C801 H777 0.950 . S
C801 C800 1.524 . S
C801 C802 1.415 . S
C802 H778 0.950 . S
C802 C797 1.363 . S
C802 C801 1.415 . S
C803 H779 0.951 . S
C803 C804 1.366 . S
C803 C805 1.388 . S
C804 C803 1.366 . S
C804 C808 1.385 . S
C805 H780 0.951 . S
C805 C803 1.388 . S
C805 C806 1.366 . S
C806 C805 1.366 . S
C806 C807 1.414 . S
C806 C809 1.499 . S
C807 H781 0.950 . S
C807 C806 1.414 . S
C807 C808 1.374 . S
C808 H782 0.950 . S
C808 C804 1.385 . S
C808 C807 1.374 . S
C809 C806 1.499 . S
C809 C810 1.373 1_455 S
C809 C811 1.389 . S
C810 H783 0.950 . S
C810 C796 1.377 . S
C810 C809 1.373 1_655 S
C811 C795 1.377 . S
C811 C809 1.389 . S
C811 C812 1.524 . S
C812 C811 1.524 . S
C812 C813 1.397 . S
C812 C817 1.363 . S
C813 H784 0.950 . S
C813 C812 1.397 . S
C813 C814 1.334 . S
C814 H785 0.950 . S
C814 C813 1.334 . S
C814 C815 1.287 . S
C815 C814 1.287 . S
C815 C816 1.524 . S
C815 H818 0.999 . S
C816 H786 0.950 . S
C816 C815 1.524 . S
C816 C817 1.415 . S
C817 H787 0.950 . S
C817 C812 1.363 . S
C817 C816 1.415 . S
H818 C815 0.999 . S
H819 C800 0.913 . S
H820 C838 0.951 . S
H821 C840 0.951 . S
H822 C842 0.950 . S
H823 C843 0.950 . S
H824 C845 0.950 . S
H825 C848 0.950 . S
H826 C849 0.950 . S
H827 C851 0.950 . S
H828 C852 0.950 1_545 S
H829 C853 0.951 . S
H830 C855 0.951 . S
H831 C857 0.950 . S
H832 C858 0.950 . S
H833 C860 0.950 . S
H834 C863 0.950 . S
H835 C864 0.950 . S
H836 C866 0.950 . S
H837 C867 0.950 . S
C838 H820 0.951 . S
C838 C839 1.366 . S
C838 C840 1.388 . S
C839 C838 1.366 . S
C839 C843 1.385 . S
C840 H821 0.951 . S
C840 C838 1.388 . S
C840 C841 1.366 . S
C841 C840 1.366 . S
C841 C842 1.414 . S
C841 C844 1.499 . S
C842 H822 0.950 . S
C842 C841 1.414 . S
C842 C843 1.374 . S
C843 H823 0.950 . S
C843 C839 1.385 . S
C843 C842 1.374 . S
C844 C841 1.499 . S
C844 C845 1.373 1_565 S
C844 C846 1.389 . S
C845 H824 0.950 . S
C845 C844 1.373 1_545 S
C845 C861 1.377 . S
C846 C844 1.389 . S
C846 C847 1.524 . S
C846 C860 1.377 1_565 S
C847 C846 1.524 . S
C847 C848 1.397 . S
C847 C852 1.363 . S
C848 H825 0.950 . S
C848 C847 1.397 . S
C848 C849 1.334 . S
C849 H826 0.950 . S
C849 C848 1.334 . S
C849 C850 1.287 . S
C850 C849 1.287 . S
C850 C851 1.524 . S
C850 H869 0.913 . S
C851 H827 0.950 . S
C851 C850 1.524 . S
C851 C852 1.415 . S
C852 H828 0.950 1_565 S
C852 C847 1.363 . S
C852 C851 1.415 . S
C853 H829 0.951 . S
C853 C854 1.366 . S
C853 C855 1.388 . S
C854 C853 1.366 . S
C854 C858 1.385 . S
C855 H830 0.951 . S
C855 C853 1.388 . S
C855 C856 1.366 . S
C856 C855 1.366 . S
C856 C857 1.414 . S
C856 C859 1.499 . S
C857 H831 0.950 . S
C857 C856 1.414 . S
C857 C858 1.374 . S
C858 H832 0.950 . S
C858 C854 1.385 . S
C858 C857 1.374 . S
C859 C856 1.499 . S
C859 C860 1.373 . S
C859 C861 1.389 . S
C860 H833 0.950 . S
C860 C846 1.377 1_545 S
C860 C859 1.373 . S
C861 C845 1.377 . S
C861 C859 1.389 . S
C861 C862 1.524 . S
C862 C861 1.524 . S
C862 C863 1.397 . S
C862 C867 1.363 . S
C863 H834 0.950 . S
C863 C862 1.397 . S
C863 C864 1.334 . S
C864 H835 0.950 . S
C864 C863 1.334 . S
C864 C865 1.287 . S
C865 C864 1.287 . S
C865 C866 1.524 . S
C865 H868 0.999 . S
C866 H836 0.950 . S
C866 C865 1.524 . S
C866 C867 1.415 . S
C867 H837 0.950 . S
C867 C862 1.363 . S
C867 C866 1.415 . S
H868 C865 0.999 . S
H869 C850 0.913 . S
H870 C888 0.951 . S
H871 C890 0.951 . S
H872 C892 0.950 . S
H873 C893 0.950 . S
H874 C895 0.950 . S
H875 C898 0.950 . S
H876 C899 0.950 . S
H877 C901 0.950 . S
H878 C902 0.950 . S
H879 C903 0.951 . S
H880 C905 0.951 . S
H881 C907 0.950 . S
H882 C908 0.950 . S
H883 C910 0.950 . S
H884 C913 0.950 . S
H885 C914 0.950 . S
H886 C916 0.950 . S
H887 C917 0.950 . S
C888 H870 0.951 . S
C888 C889 1.366 . S
C888 C890 1.388 . S
C889 C888 1.366 . S
C889 C893 1.385 . S
C890 H871 0.951 . S
C890 C888 1.388 . S
C890 C891 1.366 . S
C891 C890 1.366 . S
C891 C892 1.414 . S
C891 C894 1.499 . S
C892 H872 0.950 . S
C892 C891 1.414 . S
C892 C893 1.374 . S
C893 H873 0.950 . S
C893 C889 1.385 . S
C893 C892 1.374 . S
C894 C891 1.499 . S
C894 C895 1.373 . S
C894 C896 1.389 . S
C895 H874 0.950 . S
C895 C894 1.373 . S
C895 C911 1.377 . S
C896 C894 1.389 . S
C896 C897 1.524 . S
C896 C910 1.377 . S
C897 C896 1.524 . S
C897 C898 1.397 . S
C897 C902 1.363 . S
C898 H875 0.950 . S
C898 C897 1.397 . S
C898 C899 1.334 . S
C899 H876 0.950 . S
C899 C898 1.334 . S
C899 C900 1.287 . S
C900 C899 1.287 . S
C900 C901 1.524 . S
C900 H919 0.913 . S
C901 H877 0.950 . S
C901 C900 1.524 . S
C901 C902 1.415 . S
C902 H878 0.950 . S
C902 C897 1.363 . S
C902 C901 1.415 . S
C903 H879 0.951 . S
C903 C904 1.366 . S
C903 C905 1.388 . S
C904 C903 1.366 . S
C904 C908 1.385 . S
C905 H880 0.951 . S
C905 C903 1.388 . S
C905 C906 1.366 . S
C906 C905 1.366 . S
C906 C907 1.414 . S
C906 C909 1.499 . S
C907 H881 0.950 . S
C907 C906 1.414 . S
C907 C908 1.374 . S
C908 H882 0.950 . S
C908 C904 1.385 . S
C908 C907 1.374 . S
C909 C906 1.499 . S
C909 C910 1.373 . S
C909 C911 1.389 . S
C910 H883 0.950 . S
C910 C896 1.377 . S
C910 C909 1.373 . S
C911 C895 1.377 . S
C911 C909 1.389 . S
C911 C912 1.524 . S
C912 C911 1.524 . S
C912 C913 1.397 . S
C912 C917 1.363 . S
C913 H884 0.950 . S
C913 C912 1.397 . S
C913 C914 1.334 . S
C914 H885 0.950 . S
C914 C913 1.334 . S
C914 C915 1.287 . S
C915 C914 1.287 . S
C915 C916 1.524 . S
C915 H918 0.999 . S
C916 H886 0.950 . S
C916 C915 1.524 . S
C916 C917 1.415 . S
C917 H887 0.950 . S
C917 C912 1.363 . S
C917 C916 1.415 . S
H918 C915 0.999 . S
H919 C900 0.913 . S
H920 C938 0.951 . S
H921 C940 0.951 . S
H922 C942 0.950 . S
H923 C943 0.950 . S
H924 C945 0.950 . S
H925 C948 0.950 . S
H926 C949 0.950 . S
H927 C951 0.950 . S
H928 C952 0.950 . S
H929 C953 0.951 . S
H930 C955 0.951 . S
H931 C957 0.950 . S
H932 C958 0.950 . S
H933 C960 0.950 1_455 S
H934 C963 0.950 . S
H935 C964 0.950 . S
H936 C966 0.950 . S
H937 C967 0.950 . S
C938 H920 0.951 . S
C938 C939 1.366 . S
C938 C940 1.388 . S
C939 C938 1.366 . S
C939 C943 1.385 . S
C940 H921 0.951 . S
C940 C938 1.388 . S
C940 C941 1.366 . S
C941 C940 1.366 . S
C941 C942 1.414 . S
C941 C944 1.499 . S
C942 H922 0.950 . S
C942 C941 1.414 . S
C942 C943 1.374 . S
C943 H923 0.950 . S
C943 C939 1.385 . S
C943 C942 1.374 . S
C944 C941 1.499 . S
C944 C945 1.373 1_455 S
C944 C946 1.389 . S
C945 H924 0.950 . S
C945 C944 1.373 1_655 S
C945 C961 1.377 . S
C946 C944 1.389 . S
C946 C947 1.524 . S
C946 C960 1.377 1_455 S
C947 C946 1.524 . S
C947 C948 1.397 . S
C947 C952 1.363 . S
C948 H925 0.950 . S
C948 C947 1.397 . S
C948 C949 1.334 . S
C949 H926 0.950 . S
C949 C948 1.334 . S
C949 C950 1.287 . S
C950 C949 1.287 . S
C950 C951 1.524 . S
C950 H969 0.913 . S
C951 H927 0.950 . S
C951 C950 1.524 . S
C951 C952 1.415 . S
C952 H928 0.950 . S
C952 C947 1.363 . S
C952 C951 1.415 . S
C953 H929 0.951 . S
C953 C954 1.366 . S
C953 C955 1.388 . S
C954 C953 1.366 . S
C954 C958 1.385 . S
C955 H930 0.951 . S
C955 C953 1.388 . S
C955 C956 1.366 . S
C956 C955 1.366 . S
C956 C957 1.414 . S
C956 C959 1.499 . S
C957 H931 0.950 . S
C957 C956 1.414 . S
C957 C958 1.374 . S
C958 H932 0.950 . S
C958 C954 1.385 . S
C958 C957 1.374 . S
C959 C956 1.499 . S
C959 C960 1.373 . S
C959 C961 1.389 . S
C960 H933 0.950 1_655 S
C960 C946 1.377 1_655 S
C960 C959 1.373 . S
C961 C945 1.377 . S
C961 C959 1.389 . S
C961 C962 1.524 . S
C962 C961 1.524 . S
C962 C963 1.397 . S
C962 C967 1.363 . S
C963 H934 0.950 . S
C963 C962 1.397 . S
C963 C964 1.334 . S
C964 H935 0.950 . S
C964 C963 1.334 . S
C964 C965 1.287 . S
C965 C964 1.287 . S
C965 C966 1.524 . S
C965 H968 0.999 . S
C966 H936 0.950 . S
C966 C965 1.524 . S
C966 C967 1.415 . S
C967 H937 0.950 . S
C967 C962 1.363 . S
C967 C966 1.415 . S
H968 C965 0.999 . S
H969 C950 0.913 . S
H970 C988 0.951 . S
H971 C990 0.951 . S
H972 C992 0.950 . S
H973 C993 0.950 . S
H974 C995 0.950 . S
H975 C998 0.950 . S
H976 C999 0.950 . S
H977 C1001 0.950 . S
H978 C1002 0.950 . S
H979 C1003 0.951 . S
H980 C1005 0.951 . S
H981 C1007 0.950 . S
H982 C1008 0.950 . S
H983 C1010 0.950 . S
H984 C1013 0.950 . S
H985 C1014 0.950 . S
H986 C1016 0.950 . S
H987 C1017 0.950 . S
C988 H970 0.951 . S
C988 C989 1.366 . S
C988 C990 1.388 . S
C989 C988 1.366 . S
C989 C993 1.385 . S
C990 H971 0.951 . S
C990 C988 1.388 . S
C990 C991 1.366 . S
C991 C990 1.366 . S
C991 C992 1.414 . S
C991 C994 1.499 . S
C992 H972 0.950 . S
C992 C991 1.414 . S
C992 C993 1.374 . S
C993 H973 0.950 . S
C993 C989 1.385 . S
C993 C992 1.374 . S
C994 C991 1.499 . S
C994 C995 1.373 . S
C994 C996 1.389 1_545 S
C995 H974 0.950 . S
C995 C994 1.373 . S
C995 C1011 1.377 1_545 S
C996 C994 1.389 1_565 S
C996 C997 1.524 . S
C996 C1010 1.377 . S
C997 C996 1.524 . S
C997 C998 1.397 . S
C997 C1002 1.363 . S
C998 H975 0.950 . S
C998 C997 1.397 . S
C998 C999 1.334 . S
C999 H976 0.950 . S
C999 C998 1.334 . S
C999 C1000 1.287 . S
C1000 C999 1.287 . S
C1000 C1001 1.524 . S
C1000 H1019 0.913 . S
C1001 H977 0.950 . S
C1001 C1000 1.524 . S
C1001 C1002 1.415 . S
C1002 H978 0.950 . S
C1002 C997 1.363 . S
C1002 C1001 1.415 . S
C1003 H979 0.951 . S
C1003 C1004 1.366 . S
C1003 C1005 1.388 . S
C1004 C1003 1.366 . S
C1004 C1008 1.385 . S
C1005 H980 0.951 . S
C1005 C1003 1.388 . S
C1005 C1006 1.366 . S
C1006 C1005 1.366 . S
C1006 C1007 1.414 . S
C1006 C1009 1.499 . S
C1007 H981 0.950 . S
C1007 C1006 1.414 . S
C1007 C1008 1.374 . S
C1008 H982 0.950 . S
C1008 C1004 1.385 . S
C1008 C1007 1.374 . S
C1009 C1006 1.499 . S
C1009 C1010 1.373 . S
C1009 C1011 1.389 . S
C1010 H983 0.950 . S
C1010 C996 1.377 . S
C1010 C1009 1.373 . S
C1011 C995 1.377 1_565 S
C1011 C1009 1.389 . S
C1011 C1012 1.524 1_565 S
C1012 C1011 1.524 1_545 S
C1012 C1013 1.397 . S
C1012 C1017 1.363 . S
C1013 H984 0.950 . S
C1013 C1012 1.397 . S
C1013 C1014 1.334 . S
C1014 H985 0.950 . S
C1014 C1013 1.334 . S
C1014 C1015 1.287 . S
C1015 C1014 1.287 . S
C1015 C1016 1.524 . S
C1015 H1018 0.999 . S
C1016 H986 0.950 . S
C1016 C1015 1.524 . S
C1016 C1017 1.415 . S
C1017 H987 0.950 . S
C1017 C1012 1.363 . S
C1017 C1016 1.415 . S
H1018 C1015 0.999 . S
H1019 C1000 0.913 . S
C139 C82 0.959 . S
C154 C12 0.988 . S
C189 C102 0.959 . S
C204 C32 0.989 . S
C239 C2 0.960 . S
C254 C52 0.989 . S
C289 C22 0.959 . S
C304 C72 0.989 . S
C339 C42 0.957 . S
C354 C92 0.988 . S
C389 C62 0.957 . S
C404 C112 0.988 . S
C439 C18 0.699 . S
C454 C78 0.699 . S
C489 C98 0.700 . S
C504 C38 0.700 . S
C539 C118 0.699 . S
C554 C58 0.699 . S
C589 C59 0.827 . S
C604 C119 0.826 . S
C639 C19 0.827 . S
C654 C79 0.828 . S
C689 C99 0.827 . S
C704 C39 0.827 . S
C739 C104 0.888 . S
C754 C9 0.922 . S
C789 C29 0.920 . S
C804 C4 0.890 . S
C839 C49 0.921 . S
C854 C24 0.888 . S
C889 C44 0.889 . S
C904 C69 0.920 . S
C939 C89 0.921 . S
C954 C64 0.890 . S
C989 C109 0.920 . S
C1004 C84 0.889 . S
