# Generated by pormake.
# Topology sne, (6)-cn, num edge types: 1
# Building blocks:
#     Node 0, Type 0, BuildingBlock: KUMBUR_clean_sbu_1, # of connection points: 6
#     Node 1, Type 0, BuildingBlock: KUMBUR_clean_sbu_1, # of connection points: 6
#     Node 2, Type 0, BuildingBlock: KUMBUR_clean_sbu_1, # of connection points: 6
#     Node 3, Type 0, BuildingBlock: KUMBUR_clean_sbu_1, # of connection points: 6
#     Node 4, Type 0, BuildingBlock: KUMBUR_clean_sbu_1, # of connection points: 6
#     Node 5, Type 0, BuildingBlock: KUMBUR_clean_sbu_1, # of connection points: 6
#     Node 6, Type 0, BuildingBlock: KUMBUR_clean_sbu_1, # of connection points: 6
#     Node 7, Type 0, BuildingBlock: KUMBUR_clean_sbu_1, # of connection points: 6
#     Edge 8, Type (0, 0), BuildingBlock: ZUJKAS_clean_linker_0, # of connection points: 2
#     Edge 9, Type (0, 0), BuildingBlock: ZUJKAS_clean_linker_0, # of connection points: 2
#     Edge 10, Type (0, 0), BuildingBlock: ZUJKAS_clean_linker_0, # of connection points: 2
#     Edge 11, Type (0, 0), BuildingBlock: ZUJKAS_clean_linker_0, # of connection points: 2
#     Edge 12, Type (0, 0), BuildingBlock: ZUJKAS_clean_linker_0, # of connection points: 2
#     Edge 13, Type (0, 0), BuildingBlock: ZUJKAS_clean_linker_0, # of connection points: 2
#     Edge 14, Type (0, 0), BuildingBlock: ZUJKAS_clean_linker_0, # of connection points: 2
#     Edge 15, Type (0, 0), BuildingBlock: ZUJKAS_clean_linker_0, # of connection points: 2
#     Edge 16, Type (0, 0), BuildingBlock: ZUJKAS_clean_linker_0, # of connection points: 2
#     Edge 17, Type (0, 0), BuildingBlock: ZUJKAS_clean_linker_0, # of connection points: 2
#     Edge 18, Type (0, 0), BuildingBlock: ZUJKAS_clean_linker_0, # of connection points: 2
#     Edge 19, Type (0, 0), BuildingBlock: ZUJKAS_clean_linker_0, # of connection points: 2
#     Edge 20, Type (0, 0), BuildingBlock: ZUJKAS_clean_linker_0, # of connection points: 2
#     Edge 21, Type (0, 0), BuildingBlock: ZUJKAS_clean_linker_0, # of connection points: 2
#     Edge 22, Type (0, 0), BuildingBlock: ZUJKAS_clean_linker_0, # of connection points: 2
#     Edge 23, Type (0, 0), BuildingBlock: ZUJKAS_clean_linker_0, # of connection points: 2
#     Edge 24, Type (0, 0), BuildingBlock: ZUJKAS_clean_linker_0, # of connection points: 2
#     Edge 25, Type (0, 0), BuildingBlock: ZUJKAS_clean_linker_0, # of connection points: 2
#     Edge 26, Type (0, 0), BuildingBlock: ZUJKAS_clean_linker_0, # of connection points: 2
#     Edge 27, Type (0, 0), BuildingBlock: ZUJKAS_clean_linker_0, # of connection points: 2
#     Edge 28, Type (0, 0), BuildingBlock: ZUJKAS_clean_linker_0, # of connection points: 2
#     Edge 29, Type (0, 0), BuildingBlock: ZUJKAS_clean_linker_0, # of connection points: 2
#     Edge 30, Type (0, 0), BuildingBlock: ZUJKAS_clean_linker_0, # of connection points: 2
#     Edge 31, Type (0, 0), BuildingBlock: ZUJKAS_clean_linker_0, # of connection points: 2
# Relax obj value: 0.213
# Max RMSD: 0.297
# Mean RMSD: 0.296
data_MOF--net-sne--node1-KUMBUR_clean_sbu_1--edge1-ZUJKAS_clean_linker_0
_symmetry_space_group_name_H-M    P1
_symmetry_Int_Tables_number       1
_symmetry_cell_setting            triclinic
loop_
_symmetry_equiv_pos_as_xyz
'x, y, z'
_cell_length_a     52.155332
_cell_length_b     52.097885
_cell_length_c     36.837727
_cell_angle_alpha  90.012883
_cell_angle_beta   90.389321
_cell_angle_gamma 90.512672
loop_
_atom_site_label
_atom_site_type_symbol
_atom_site_fract_x
_atom_site_fract_y
_atom_site_fract_z
_atom_type_partial_charge
Tb0 Tb 0.2989 0.18647 0.39703 0.0
C1 C 0.18615 0.18345 0.31571 0.0
N2 N 0.20164 0.20119 0.33221 0.0
C3 C 0.1927 0.23113 0.28422 0.0
C4 C 0.17468 0.18836 0.28165 0.0
C5 C 0.20335 0.22546 0.31821 0.0
C6 C 0.17874 0.21232 0.2655 0.0
C7 C 0.16422 0.14215 0.31828 0.0
C8 C 0.18045 0.16088 0.33405 0.0
C9 C 0.15358 0.14655 0.28375 0.0
C10 C 0.15874 0.16963 0.26552 0.0
Tb11 Tb 0.21719 0.18956 0.38818 0.0
N12 N 0.19137 0.1571 0.36724 0.0
C13 C 0.15918 0.1196 0.33776 0.0
C14 C 0.18608 0.13541 0.38676 0.0
C15 C 0.17007 0.11628 0.3722 0.0
H16 H 0.21241 0.24078 0.33347 0.0
H17 H 0.1661 0.09901 0.38757 0.0
H18 H 0.30321 0.15168 0.47383 0.0
H19 H 0.32781 0.28318 0.36435 0.0
H20 H 0.19427 0.13284 0.41346 0.0
H21 H 0.14681 0.10473 0.32657 0.0
H22 H 0.30734 0.24111 0.35258 0.0
H23 H 0.1948 0.25019 0.27286 0.0
H24 H 0.14108 0.13238 0.2711 0.0
H25 H 0.14992 0.173 0.23925 0.0
H26 H 0.32037 0.15796 0.53528 0.0
H27 H 0.17021 0.21687 0.23942 0.0
H28 H 0.34803 0.29211 0.42406 0.0
N29 N 0.31298 0.18945 0.4558 0.0
C30 C 0.32534 0.21181 0.46426 0.0
C31 C 0.3217 0.17335 0.51563 0.0
C32 C 0.33597 0.21596 0.49908 0.0
C33 C 0.31157 0.17003 0.48066 0.0
C34 C 0.33388 0.19641 0.52493 0.0
N35 N 0.31506 0.22668 0.40551 0.0
C36 C 0.31564 0.24491 0.37895 0.0
C37 C 0.33868 0.25464 0.446 0.0
C38 C 0.32671 0.23093 0.43811 0.0
C39 C 0.33899 0.27362 0.4191 0.0
C40 C 0.32747 0.2687 0.38541 0.0
H41 H 0.34175 0.19886 0.55202 0.0
H42 H 0.35637 0.24303 0.53367 0.0
H43 H 0.3588 0.27687 0.48717 0.0
O44 O 0.32895 0.18842 0.35875 0.0
O45 O 0.2768 0.21614 0.42639 0.0
O46 O 0.23811 0.19644 0.44005 0.0
O47 O 0.32795 0.15872 0.39894 0.0
O48 O 0.28355 0.19955 0.34447 0.0
O49 O 0.24571 0.21756 0.36401 0.0
O50 O 0.18324 0.18636 0.41901 0.0
O51 O 0.22929 0.15739 0.35318 0.0
O52 O 0.26602 0.16986 0.37155 0.0
O53 O 0.19625 0.22301 0.40068 0.0
O54 O 0.23337 0.16058 0.4271 0.0
O55 O 0.27826 0.153 0.42051 0.0
C56 C 0.25767 0.21162 0.449 0.0
C57 C 0.36903 0.17578 0.38375 0.0
C58 C 0.41379 0.18453 0.36651 0.0
C59 C 0.42048 0.18537 0.40348 0.0
C60 C 0.37656 0.17687 0.42047 0.0
C61 C 0.402 0.18173 0.43015 0.0
C62 C 0.38782 0.17998 0.35664 0.0
C63 C 0.26265 0.21304 0.33775 0.0
C64 C 0.34174 0.17006 0.37417 0.0
C65 C 0.34813 0.23949 0.50704 0.0
C66 C 0.34953 0.25876 0.48054 0.0
C67 C 0.25356 0.15272 0.35247 0.0
C68 C 0.15085 0.2169 0.40674 0.0
C69 C 0.10535 0.22234 0.42255 0.0
C70 C 0.0999 0.22711 0.38578 0.0
C71 C 0.14448 0.22216 0.37044 0.0
C72 C 0.13106 0.21734 0.43306 0.0
C73 C 0.1193 0.22713 0.36008 0.0
C74 C 0.25485 0.14708 0.43295 0.0
C75 C 0.17782 0.21054 0.41691 0.0
H76 H 0.44016 0.18896 0.41178 0.0
H77 H 0.36284 0.17375 0.44193 0.0
H78 H 0.40747 0.18249 0.45853 0.0
H79 H 0.38241 0.1792 0.32821 0.0
H80 H 0.08049 0.23118 0.37694 0.0
H81 H 0.15885 0.22255 0.34984 0.0
H82 H 0.13554 0.21343 0.46128 0.0
H83 H 0.11482 0.23105 0.3319 0.0
Tb84 Tb 0.18389 0.79015 0.63968 0.0
C85 C 0.22921 0.6989 0.5736 0.0
N86 N 0.20395 0.6968 0.58203 0.0
C87 C 0.19541 0.67445 0.52637 0.0
C88 C 0.2384 0.68954 0.54029 0.0
C89 C 0.18705 0.68445 0.55945 0.0
C90 C 0.22115 0.67717 0.51663 0.0
C91 C 0.27185 0.71407 0.58966 0.0
C92 C 0.24558 0.71139 0.598 0.0
C93 C 0.28101 0.70525 0.55615 0.0
C94 C 0.26434 0.69302 0.53155 0.0
Tb95 Tb 0.19249 0.71316 0.63654 0.0
N96 N 0.23599 0.72001 0.63022 0.0
C97 C 0.28834 0.72474 0.61573 0.0
C98 C 0.25274 0.72738 0.65709 0.0
C99 C 0.27883 0.73079 0.6499 0.0
H100 H 0.16706 0.68273 0.56678 0.0
H101 H 0.29177 0.73728 0.67117 0.0
H102 H 0.23495 0.81492 0.68246 0.0
H103 H 0.083 0.81266 0.65116 0.0
H104 H 0.24688 0.72924 0.68473 0.0
H105 H 0.30864 0.72708 0.61044 0.0
H106 H 0.12104 0.79451 0.62204 0.0
H107 H 0.18197 0.6649 0.50827 0.0
H108 H 0.30109 0.70738 0.54926 0.0
H109 H 0.27175 0.68614 0.50595 0.0
H110 H 0.24363 0.84112 0.73713 0.0
H111 H 0.2275 0.66968 0.49079 0.0
H112 H 0.08753 0.83675 0.70874 0.0
N113 N 0.19444 0.81482 0.6893 0.0
C114 C 0.17447 0.82482 0.70785 0.0
C115 C 0.22407 0.83647 0.72944 0.0
C116 C 0.17852 0.84029 0.73885 0.0
C117 C 0.21907 0.8214 0.69873 0.0
C118 C 0.20371 0.8456 0.74997 0.0
N119 N 0.14699 0.80665 0.66373 0.0
C120 C 0.12333 0.80444 0.64747 0.0
C121 C 0.1287 0.83199 0.71171 0.0
C122 C 0.14994 0.82083 0.69445 0.0
C123 C 0.10433 0.82855 0.69624 0.0
C124 C 0.10169 0.81493 0.66378 0.0
H125 H 0.20762 0.8574 0.77363 0.0
H126 H 0.1601 0.86241 0.781 0.0
H127 H 0.11643 0.85506 0.75726 0.0
O128 O 0.17315 0.81134 0.59316 0.0
O129 O 0.15565 0.76929 0.67392 0.0
O130 O 0.16061 0.72451 0.67124 0.0
O131 O 0.20321 0.825 0.62761 0.0
O132 O 0.15755 0.76904 0.6026 0.0
O133 O 0.15475 0.72445 0.61377 0.0
O134 O 0.21036 0.68124 0.66066 0.0
O135 O 0.19426 0.73531 0.58533 0.0
O136 O 0.21354 0.77166 0.60596 0.0
O137 O 0.17316 0.6773 0.63709 0.0
O138 O 0.1999 0.73144 0.68974 0.0
O139 O 0.21358 0.77174 0.67417 0.0
C140 C 0.14883 0.74545 0.68244 0.0
C141 C 0.17882 0.85672 0.59737 0.0
C142 C 0.18257 0.9015 0.57684 0.0
C143 C 0.1584 0.90639 0.59187 0.0
C144 C 0.15473 0.8624 0.6119 0.0
C145 C 0.14471 0.88702 0.60936 0.0
C146 C 0.19293 0.87656 0.5801 0.0
C147 C 0.1456 0.74642 0.60055 0.0
C148 C 0.18903 0.83021 0.59969 0.0
C149 C 0.15738 0.85065 0.75699 0.0
C150 C 0.13252 0.84652 0.74343 0.0
C151 C 0.20751 0.75634 0.57862 0.0
C152 C 0.18305 0.65079 0.68758 0.0
C153 C 0.18489 0.61129 0.72415 0.0
C154 C 0.16939 0.62332 0.75021 0.0
C155 C 0.16763 0.66209 0.71408 0.0
C156 C 0.19175 0.6254 0.69274 0.0
C157 C 0.16085 0.64839 0.74511 0.0
C158 C 0.20872 0.75426 0.6994 0.0
C159 C 0.19104 0.66585 0.65547 0.0
H160 H 0.15011 0.92535 0.5902 0.0
H161 H 0.14342 0.84785 0.62497 0.0
H162 H 0.12611 0.89105 0.6208 0.0
H163 H 0.21152 0.87249 0.56857 0.0
H164 H 0.16417 0.61351 0.77503 0.0
H165 H 0.16104 0.68161 0.71097 0.0
H166 H 0.20369 0.61668 0.67226 0.0
H167 H 0.14907 0.65734 0.76553 0.0
Tb168 Tb 0.71873 0.81604 0.40385 0.0
C169 C 0.82574 0.87171 0.359 0.0
N170 N 0.814 0.84902 0.35122 0.0
C171 C 0.82566 0.85349 0.28862 0.0
C172 C 0.83696 0.88686 0.33162 0.0
C173 C 0.81482 0.83916 0.31686 0.0
C174 C 0.83645 0.87763 0.29593 0.0
C175 C 0.83997 0.90209 0.40472 0.0
C176 C 0.8272 0.87919 0.39482 0.0
C177 C 0.85015 0.91801 0.37748 0.0
C178 C 0.84869 0.91037 0.34096 0.0
Tb179 Tb 0.79544 0.82809 0.39901 0.0
N180 N 0.81753 0.86304 0.42017 0.0
C181 C 0.84284 0.90778 0.44168 0.0
C182 C 0.82176 0.86756 0.45622 0.0
C183 C 0.8341 0.89019 0.46755 0.0
H184 H 0.80662 0.82053 0.31108 0.0
H185 H 0.83685 0.89403 0.49619 0.0
H186 H 0.70571 0.85568 0.47421 0.0
H187 H 0.71561 0.7133 0.38921 0.0
H188 H 0.81527 0.85383 0.47625 0.0
H189 H 0.85244 0.92525 0.45049 0.0
H190 H 0.7249 0.75787 0.36943 0.0
H191 H 0.8257 0.8459 0.26127 0.0
H192 H 0.85978 0.93587 0.38444 0.0
H193 H 0.85718 0.92249 0.32029 0.0
H194 H 0.69089 0.85066 0.5367 0.0
H195 H 0.84485 0.88867 0.27404 0.0
H196 H 0.69893 0.70513 0.45092 0.0
N197 N 0.70691 0.81538 0.46346 0.0
C198 C 0.70092 0.79148 0.47614 0.0
C199 C 0.69393 0.83385 0.52006 0.0
C200 C 0.69158 0.78791 0.51162 0.0
C201 C 0.70291 0.83654 0.48458 0.0
C202 C 0.68825 0.80948 0.53365 0.0
N203 N 0.71465 0.77425 0.42008 0.0
C204 C 0.71803 0.75431 0.39659 0.0
C205 C 0.6988 0.74534 0.46588 0.0
C206 C 0.70449 0.77033 0.45358 0.0
C207 C 0.70305 0.72464 0.44245 0.0
C208 C 0.71261 0.72916 0.40763 0.0
H209 H 0.68095 0.80758 0.56099 0.0
H210 H 0.67856 0.75992 0.55111 0.0
H211 H 0.68494 0.72273 0.51117 0.0
O212 O 0.69072 0.80204 0.36705 0.0
O213 O 0.74891 0.79137 0.42896 0.0
O214 O 0.77927 0.81785 0.45189 0.0
O215 O 0.68005 0.8264 0.41096 0.0
O216 O 0.73477 0.80665 0.35093 0.0
O217 O 0.77865 0.80021 0.35918 0.0
O218 O 0.83487 0.82233 0.40976 0.0
O219 O 0.77386 0.85155 0.35924 0.0
O220 O 0.72956 0.85007 0.37127 0.0
O221 O 0.80935 0.79028 0.401 0.0
O222 O 0.77269 0.8468 0.44167 0.0
O223 O 0.73132 0.85465 0.42207 0.0
C224 C 0.76318 0.79875 0.45682 0.0
C225 C 0.65352 0.82693 0.35828 0.0
C226 C 0.61391 0.82627 0.32159 0.0
C227 C 0.61944 0.8516 0.31065 0.0
C228 C 0.65821 0.85226 0.34728 0.0
C229 C 0.64132 0.86445 0.3235 0.0
C230 C 0.63116 0.81403 0.34568 0.0
C231 C 0.75728 0.79891 0.33937 0.0
C232 C 0.6719 0.81379 0.38261 0.0
C233 C 0.6858 0.763 0.52395 0.0
C234 C 0.68938 0.7418 0.50116 0.0
C235 C 0.75007 0.85984 0.35478 0.0
C236 C 0.84409 0.78443 0.44305 0.0
C237 C 0.88176 0.77303 0.48055 0.0
C238 C 0.86518 0.75983 0.50425 0.0
C239 C 0.82838 0.77088 0.46737 0.0
C240 C 0.87096 0.78527 0.44963 0.0
C241 C 0.83884 0.75881 0.49768 0.0
C242 C 0.75309 0.86232 0.43747 0.0
C243 C 0.83245 0.7975 0.41096 0.0
H244 H 0.60656 0.86172 0.29256 0.0
H245 H 0.6749 0.86261 0.35726 0.0
H246 H 0.64515 0.88401 0.31509 0.0
H247 H 0.6274 0.79445 0.35423 0.0
H248 H 0.87263 0.74981 0.52777 0.0
H249 H 0.80794 0.7694 0.46289 0.0
H250 H 0.88331 0.79563 0.43106 0.0
H251 H 0.82643 0.74843 0.51613 0.0
Tb252 Tb 0.81831 0.29195 0.63782 0.0
C253 C 0.78754 0.19543 0.69867 0.0
N254 N 0.81265 0.19633 0.68935 0.0
C255 C 0.82419 0.1734 0.74331 0.0
C256 C 0.77985 0.18412 0.73166 0.0
C257 C 0.83097 0.18514 0.71058 0.0
C258 C 0.79854 0.17304 0.75403 0.0
C259 C 0.74355 0.20661 0.68519 0.0
C260 C 0.76976 0.20689 0.67569 0.0
C261 C 0.73582 0.19567 0.71827 0.0
C262 C 0.75391 0.18447 0.74144 0.0
Tb263 Tb 0.82219 0.21632 0.63643 0.0
N264 N 0.77805 0.21795 0.64411 0.0
C265 C 0.72574 0.2169 0.66094 0.0
C266 C 0.76016 0.22595 0.61923 0.0
C267 C 0.73405 0.22608 0.62754 0.0
H268 H 0.85085 0.1858 0.70251 0.0
H269 H 0.72026 0.23301 0.60784 0.0
H270 H 0.75518 0.27684 0.6436 0.0
H271 H 0.87034 0.35622 0.54924 0.0
H272 H 0.765 0.23166 0.59238 0.0
H273 H 0.70547 0.21702 0.66718 0.0
H274 H 0.86607 0.3232 0.59692 0.0
H275 H 0.83876 0.16484 0.76037 0.0
H276 H 0.71581 0.19553 0.72601 0.0
H277 H 0.74764 0.17605 0.7668 0.0
H278 H 0.7152 0.29201 0.61633 0.0
H279 H 0.79338 0.16418 0.77959 0.0
H280 H 0.8316 0.37443 0.52037 0.0
N281 N 0.7792 0.30239 0.6135 0.0
C282 C 0.77993 0.32206 0.58903 0.0
C283 C 0.7333 0.30053 0.60829 0.0
C284 C 0.75728 0.33129 0.57274 0.0
C285 C 0.75623 0.29178 0.62352 0.0
C286 C 0.7338 0.32035 0.58283 0.0
N287 N 0.82527 0.32201 0.59401 0.0
C288 C 0.84904 0.33049 0.58379 0.0
C289 C 0.80531 0.35095 0.55157 0.0
C290 C 0.80371 0.33179 0.57848 0.0
C291 C 0.82958 0.35974 0.54099 0.0
C292 C 0.85152 0.34943 0.55713 0.0
H293 H 0.71597 0.32695 0.57096 0.0
H294 H 0.74158 0.35809 0.53366 0.0
H295 H 0.78358 0.37527 0.51515 0.0
O296 O 0.8248 0.33133 0.65047 0.0
O297 O 0.85354 0.2786 0.61073 0.0
O298 O 0.84812 0.23477 0.59674 0.0
O299 O 0.81235 0.30524 0.6911 0.0
O300 O 0.85424 0.27693 0.66245 0.0
O301 O 0.85726 0.23173 0.66353 0.0
O302 O 0.80868 0.18039 0.61766 0.0
O303 O 0.8209 0.23602 0.68937 0.0
O304 O 0.79409 0.26722 0.672 0.0
O305 O 0.84824 0.1858 0.63058 0.0
O306 O 0.80977 0.23162 0.58306 0.0
O307 O 0.80229 0.2756 0.58695 0.0
C308 C 0.86015 0.25723 0.59341 0.0
C309 C 0.79491 0.34684 0.69336 0.0
C310 C 0.77923 0.38803 0.71665 0.0
C311 C 0.75401 0.37837 0.71381 0.0
C312 C 0.76948 0.33775 0.69205 0.0
C313 C 0.74924 0.35349 0.70166 0.0
C314 C 0.79977 0.37223 0.70558 0.0
C315 C 0.86615 0.2552 0.67144 0.0
C316 C 0.81594 0.32925 0.68306 0.0
C317 C 0.7588 0.35073 0.5464 0.0
C318 C 0.78273 0.3605 0.53582 0.0
C319 C 0.80401 0.2533 0.69812 0.0
C320 C 0.83763 0.15543 0.58435 0.0
C321 C 0.83327 0.11656 0.54687 0.0
C322 C 0.85005 0.12776 0.52151 0.0
C323 C 0.85424 0.16603 0.55848 0.0
C324 C 0.82698 0.13072 0.57829 0.0
C325 C 0.86035 0.15227 0.52728 0.0
C326 C 0.80266 0.25381 0.56862 0.0
C327 C 0.83111 0.16999 0.61752 0.0
H328 H 0.73783 0.39012 0.72123 0.0
H329 H 0.7652 0.31823 0.68413 0.0
H330 H 0.72975 0.34624 0.70015 0.0
H331 H 0.81933 0.37933 0.70746 0.0
H332 H 0.85501 0.11765 0.49687 0.0
H333 H 0.86251 0.18493 0.56245 0.0
H334 H 0.81417 0.12243 0.59824 0.0
H335 H 0.87315 0.16065 0.50744 0.0
Tb336 Tb 0.22164 0.31581 0.89384 0.0
C337 C 0.33136 0.37418 0.89511 0.0
N338 N 0.32168 0.35628 0.87195 0.0
C339 C 0.3416 0.37779 0.82181 0.0
C340 C 0.34602 0.39513 0.88245 0.0
C341 C 0.32751 0.35712 0.83585 0.0
C342 C 0.35055 0.39711 0.84513 0.0
C343 C 0.34046 0.38649 0.95727 0.0
C344 C 0.32849 0.37004 0.93186 0.0
C345 C 0.35386 0.4083 0.94494 0.0
C346 C 0.35654 0.41268 0.90756 0.0
Tb347 Tb 0.29615 0.32543 0.89743 0.0
N348 N 0.31589 0.34848 0.94252 0.0
C349 C 0.33964 0.3798 0.99406 0.0
C350 C 0.31676 0.34078 0.97795 0.0
C351 C 0.32824 0.35654 1.00435 0.0
H352 H 0.32058 0.34223 0.81779 0.0
H353 H 0.32827 0.35074 0.03256 0.0
H354 H 0.18272 0.3382 0.95667 0.0
H355 H 0.27283 0.22449 0.88633 0.0
H356 H 0.30816 0.3228 0.98594 0.0
H357 H 0.3486 0.39192 1.0145 0.0
H358 H 0.26582 0.26903 0.87126 0.0
H359 H 0.34559 0.37878 0.79305 0.0
H360 H 0.36297 0.42138 0.96403 0.0
H361 H 0.36762 0.42911 0.89841 0.0
H362 H 0.15649 0.32023 1.00638 0.0
H363 H 0.36168 0.41296 0.83425 0.0
H364 H 0.24578 0.20282 0.93184 0.0
N365 N 0.19945 0.30233 0.94326 0.0
C366 C 0.20127 0.27694 0.95108 0.0
C367 C 0.16894 0.30785 0.99098 0.0
C368 C 0.18701 0.26604 0.97969 0.0
C369 C 0.18372 0.31793 0.96276 0.0
C370 C 0.17049 0.28177 0.99937 0.0
N371 N 0.23377 0.27402 0.90627 0.0
C372 C 0.25311 0.26052 0.89035 0.0
C373 C 0.22295 0.23648 0.94216 0.0
C374 C 0.21909 0.26238 0.93226 0.0
C375 C 0.24217 0.22268 0.9249 0.0
C376 C 0.25746 0.23485 0.89922 0.0
H377 H 0.15922 0.27409 0.02153 0.0
H378 H 0.1793 0.23132 1.01021 0.0
H379 H 0.21077 0.20545 0.97745 0.0
O380 O 0.19164 0.29695 0.86512 0.0
O381 O 0.23738 0.31606 0.94959 0.0
O382 O 0.27784 0.30062 0.93972 0.0
O383 O 0.18545 0.33334 0.88943 0.0
O384 O 0.23946 0.30146 0.84378 0.0
O385 O 0.28279 0.31348 0.84215 0.0
O386 O 0.3357 0.31681 0.89912 0.0
O387 O 0.27852 0.35196 0.85808 0.0
O388 O 0.23368 0.34823 0.85926 0.0
O389 O 0.30733 0.28702 0.89178 0.0
O390 O 0.27441 0.34941 0.93524 0.0
O391 O 0.23269 0.35483 0.91353 0.0
C392 C 0.25829 0.30484 0.96168 0.0
C393 C 0.16002 0.32311 0.83781 0.0
C394 C 0.12183 0.31847 0.79847 0.0
C395 C 0.13074 0.33961 0.77809 0.0
C396 C 0.16821 0.34396 0.81677 0.0
C397 C 0.15371 0.35208 0.7871 0.0
C398 C 0.13677 0.31035 0.8286 0.0
C399 C 0.26164 0.30386 0.82673 0.0
C400 C 0.17525 0.31517 0.86993 0.0
C401 C 0.19018 0.24006 0.98844 0.0
C402 C 0.2081 0.22533 0.96976 0.0
C403 C 0.25526 0.35929 0.84827 0.0
C404 C 0.34447 0.27674 0.92731 0.0
C405 C 0.3826 0.26621 0.96412 0.0
C406 C 0.36765 0.24849 0.98366 0.0
C407 C 0.33041 0.2583 0.94693 0.0
C408 C 0.37089 0.28029 0.93566 0.0
C409 C 0.34189 0.24448 0.97495 0.0
C410 C 0.25374 0.3635 0.93035 0.0
C411 C 0.3315 0.29217 0.89852 0.0
H412 H 0.1197 0.34701 0.75548 0.0
H413 H 0.18564 0.3542 0.82374 0.0
H414 H 0.16014 0.36838 0.77125 0.0
H415 H 0.13048 0.29416 0.84481 0.0
H416 H 0.37608 0.23733 1.00543 0.0
H417 H 0.31034 0.25464 0.94097 0.0
H418 H 0.38215 0.29416 0.92053 0.0
H419 H 0.33071 0.23056 0.99005 0.0
Tb420 Tb 0.32448 0.79587 0.14152 0.0
C421 C 0.28022 0.70141 0.20085 0.0
N422 N 0.30594 0.70099 0.19572 0.0
C423 C 0.31189 0.67998 0.25299 0.0
C424 C 0.26935 0.69218 0.23327 0.0
C425 C 0.32184 0.6898 0.22059 0.0
C426 C 0.28557 0.68151 0.25959 0.0
C427 C 0.23804 0.71115 0.17725 0.0
C428 C 0.26494 0.71114 0.1733 0.0
C429 C 0.2271 0.70312 0.21017 0.0
C430 C 0.24273 0.69363 0.23812 0.0
Tb431 Tb 0.32061 0.71781 0.14276 0.0
N432 N 0.27628 0.71854 0.14167 0.0
C433 C 0.22289 0.71786 0.14737 0.0
C434 C 0.26127 0.7212 0.1113 0.0
C435 C 0.23454 0.72209 0.11394 0.0
H436 H 0.34224 0.68911 0.21574 0.0
H437 H 0.22292 0.72512 0.08989 0.0
H438 H 0.27887 0.81662 0.08451 0.0
H439 H 0.42051 0.83418 0.15459 0.0
H440 H 0.26932 0.72128 0.08455 0.0
H441 H 0.20217 0.71806 0.1492 0.0
H442 H 0.38025 0.81423 0.17611 0.0
H443 H 0.32454 0.67153 0.273 0.0
H444 H 0.2065 0.70332 0.2138 0.0
H445 H 0.23398 0.68692 0.26301 0.0
H446 H 0.2765 0.83461 0.0226 0.0
H447 H 0.27795 0.67414 0.28486 0.0
H448 H 0.42488 0.8466 0.09007 0.0
N449 N 0.31962 0.81458 0.0852 0.0
C450 C 0.34149 0.82274 0.0689 0.0
C451 C 0.29498 0.83094 0.03501 0.0
C452 C 0.34113 0.83392 0.03403 0.0
C453 C 0.29641 0.82038 0.06989 0.0
C454 C 0.31749 0.83703 0.01652 0.0
N455 N 0.36236 0.81451 0.12403 0.0
C456 C 0.38205 0.81933 0.14786 0.0
C457 C 0.38631 0.83442 0.07571 0.0
C458 C 0.36374 0.82302 0.08926 0.0
C459 C 0.40724 0.8377 0.09931 0.0
C460 C 0.40484 0.83075 0.13579 0.0
H461 H 0.31633 0.84555 0.98974 0.0
H462 H 0.36425 0.85159 0.99202 0.0
H463 H 0.40392 0.85207 0.02867 0.0
O464 O 0.32904 0.82037 0.18729 0.0
O465 O 0.35801 0.77566 0.1182 0.0
O466 O 0.34614 0.73402 0.10107 0.0
O467 O 0.30288 0.82985 0.14532 0.0
O468 O 0.34938 0.77678 0.18254 0.0
O469 O 0.35617 0.73298 0.16903 0.0
O470 O 0.3089 0.68208 0.11946 0.0
O471 O 0.31525 0.73947 0.19393 0.0
O472 O 0.29503 0.77542 0.1741 0.0
O473 O 0.3464 0.68684 0.14428 0.0
O474 O 0.31255 0.73658 0.09019 0.0
O475 O 0.29554 0.7751 0.1073 0.0
C476 C 0.36241 0.75365 0.10135 0.0
C477 C 0.32295 0.86492 0.17524 0.0
C478 C 0.32412 0.90863 0.20084 0.0
C479 C 0.34149 0.91584 0.1736 0.0
C480 C 0.33953 0.87331 0.1478 0.0
C481 C 0.34896 0.89837 0.14724 0.0
C482 C 0.3148 0.88293 0.2016 0.0
C483 C 0.36305 0.75528 0.18431 0.0
C484 C 0.31358 0.83779 0.17511 0.0
C485 C 0.36407 0.84327 0.01898 0.0
C486 C 0.38666 0.84358 0.03986 0.0
C487 C 0.30069 0.75941 0.20068 0.0
C488 C 0.3368 0.64413 0.11962 0.0
C489 C 0.32689 0.60189 0.09271 0.0
C490 C 0.35044 0.59286 0.10587 0.0
C491 C 0.36023 0.63432 0.13228 0.0
C492 C 0.32001 0.62769 0.09963 0.0
C493 C 0.36693 0.60894 0.12545 0.0
C494 C 0.30102 0.75822 0.0816 0.0
C495 C 0.33046 0.67135 0.12791 0.0
H496 H 0.34875 0.93536 0.17206 0.0
H497 H 0.34492 0.86069 0.12625 0.0
H498 H 0.36184 0.90438 0.12589 0.0
H499 H 0.3014 0.87705 0.22241 0.0
H500 H 0.3561 0.57321 0.10089 0.0
H501 H 0.37348 0.64628 0.14766 0.0
H502 H 0.30185 0.63481 0.08958 0.0
H503 H 0.38504 0.60169 0.13542 0.0
Tb504 Tb 0.79529 0.68659 0.90104 0.0
C505 C 0.69153 0.72727 0.85671 0.0
N506 N 0.70741 0.72534 0.88622 0.0
C507 C 0.70134 0.77028 0.89856 0.0
C508 C 0.68079 0.75099 0.84643 0.0
C509 C 0.71143 0.7464 0.90793 0.0
C510 C 0.68616 0.77267 0.86755 0.0
C511 C 0.67003 0.70668 0.80547 0.0
C512 C 0.68588 0.70533 0.83658 0.0
C513 C 0.65941 0.73028 0.79528 0.0
C514 C 0.66476 0.75236 0.8157 0.0
Tb515 Tb 0.71953 0.68397 0.89986 0.0
N516 N 0.69695 0.68285 0.8466 0.0
C517 C 0.66575 0.68437 0.78505 0.0
C518 C 0.6929 0.66099 0.82665 0.0
C519 C 0.67736 0.66149 0.79558 0.0
H520 H 0.72213 0.74547 0.93288 0.0
H521 H 0.67407 0.64412 0.78004 0.0
H522 H 0.83144 0.66016 0.96352 0.0
H523 H 0.75758 0.784 0.88719 0.0
H524 H 0.70078 0.64288 0.83518 0.0
H525 H 0.65371 0.68466 0.76098 0.0
H526 H 0.75906 0.73873 0.87307 0.0
H527 H 0.70506 0.78684 0.91563 0.0
H528 H 0.64717 0.73169 0.77149 0.0
H529 H 0.65639 0.77043 0.8075 0.0
H530 H 0.85743 0.67462 0.01635 0.0
H531 H 0.67828 0.79121 0.86055 0.0
H532 H 0.78361 0.80184 0.93742 0.0
N533 N 0.81755 0.69748 0.95176 0.0
C534 C 0.81754 0.72273 0.96075 0.0
C535 C 0.84631 0.68833 1.00093 0.0
C536 C 0.83186 0.73176 0.99081 0.0
C537 C 0.83167 0.68021 0.97107 0.0
C538 C 0.84644 0.71422 1.01084 0.0
N539 N 0.78759 0.72951 0.91279 0.0
C540 C 0.77156 0.74549 0.89404 0.0
C541 C 0.80092 0.76541 0.95064 0.0
C542 C 0.80208 0.73924 0.94079 0.0
C543 C 0.78496 0.78164 0.9308 0.0
C544 C 0.77026 0.77162 0.90243 0.0
H545 H 0.85767 0.72043 0.03413 0.0
H546 H 0.84178 0.76514 0.02323 0.0
H547 H 0.81481 0.79463 0.988 0.0
O548 O 0.8293 0.70336 0.88072 0.0
O549 O 0.77787 0.68675 0.95533 0.0
O550 O 0.7402 0.7066 0.94202 0.0
O551 O 0.82808 0.66362 0.89398 0.0
O552 O 0.78048 0.70182 0.84927 0.0
O553 O 0.73614 0.6955 0.84643 0.0
O554 O 0.6882 0.65881 0.9081 0.0
O555 O 0.73639 0.64965 0.87519 0.0
O556 O 0.77946 0.6586 0.86158 0.0
O557 O 0.6894 0.69481 0.93521 0.0
O558 O 0.73749 0.65339 0.93355 0.0
O559 O 0.78212 0.64978 0.92542 0.0
C560 C 0.75748 0.6992 0.966 0.0
C561 C 0.85625 0.67658 0.8467 0.0
C562 C 0.8944 0.68259 0.80835 0.0
C563 C 0.88289 0.66618 0.7824 0.0
C564 C 0.84534 0.66071 0.81996 0.0
C565 C 0.85862 0.65549 0.78815 0.0
C566 C 0.88083 0.68756 0.84081 0.0
C567 C 0.75834 0.70205 0.83148 0.0
C568 C 0.84191 0.68208 0.88039 0.0
C569 C 0.83089 0.75781 1.00025 0.0
C570 C 0.81551 0.77459 0.98019 0.0
C571 C 0.75818 0.64463 0.85839 0.0
C572 C 0.64776 0.67852 0.91908 0.0
C573 C 0.60342 0.68886 0.93648 0.0
C574 C 0.59539 0.68302 0.90094 0.0
C575 C 0.63851 0.67198 0.88433 0.0
C576 C 0.62991 0.68714 0.94537 0.0
C577 C 0.61278 0.67471 0.87518 0.0
C578 C 0.75971 0.64125 0.93813 0.0
C579 C 0.67549 0.67463 0.92824 0.0
H580 H 0.89277 0.66125 0.75765 0.0
H581 H 0.82655 0.65227 0.8238 0.0
H582 H 0.85008 0.64299 0.76784 0.0
H583 H 0.88911 0.70017 0.86122 0.0
H584 H 0.57537 0.6845 0.8932 0.0
H585 H 0.65095 0.66415 0.86415 0.0
H586 H 0.63639 0.69155 0.97268 0.0
H587 H 0.60617 0.66977 0.84812 0.0
Tb588 Tb 0.67703 0.28941 0.12887 0.0
C589 C 0.71268 0.19526 0.04971 0.0
N590 N 0.68954 0.20066 0.06481 0.0
C591 C 0.66833 0.18808 1.00936 0.0
C592 C 0.71449 0.18672 1.01347 0.0
C593 C 0.66741 0.19616 0.04552 0.0
C594 C 0.69194 0.18351 0.99318 0.0
C595 C 0.75904 0.19281 0.05612 0.0
C596 C 0.73478 0.19834 0.07065 0.0
C597 C 0.76085 0.18435 0.02004 0.0
C598 C 0.73866 0.18143 0.99874 0.0
Tb599 Tb 0.69176 0.21253 0.12478 0.0
N600 N 0.73253 0.20771 0.10492 0.0
C601 C 0.78078 0.19634 0.07814 0.0
C602 C 0.75353 0.21042 0.12698 0.0
C603 C 0.77799 0.20507 0.11377 0.0
H604 H 0.64882 0.1978 0.05777 0.0
H605 H 0.79466 0.20756 0.13112 0.0
H606 H 0.67406 0.30555 0.21586 0.0
H607 H 0.6255 0.32761 1.01406 0.0
H608 H 0.75141 0.21675 0.15471 0.0
H609 H 0.79977 0.19233 0.06796 0.0
H610 H 0.66216 0.30737 0.0456 0.0
H611 H 0.65075 0.18484 0.9942 0.0
H612 H 0.77934 0.18018 1.00828 0.0
H613 H 0.74038 0.17496 0.97091 0.0
H614 H 0.64281 0.32552 0.25707 0.0
H615 H 0.69251 0.17695 0.96529 0.0
H616 H 0.58854 0.34321 0.04947 0.0
N617 N 0.65063 0.30989 0.16883 0.0
C618 C 0.62893 0.32006 0.15483 0.0
C619 C 0.63857 0.32397 0.22835 0.0
C620 C 0.61058 0.33182 0.17707 0.0
C621 C 0.65627 0.3127 0.20493 0.0
C622 C 0.61542 0.33322 0.21444 0.0
N623 N 0.64554 0.31053 0.09793 0.0
C624 C 0.64605 0.31401 0.06121 0.0
C625 C 0.60502 0.3322 0.10123 0.0
C626 C 0.62619 0.32024 0.11777 0.0
C627 C 0.60448 0.33421 0.06334 0.0
C628 C 0.62535 0.32552 0.04329 0.0
H629 H 0.60181 0.34206 0.23257 0.0
H630 H 0.57403 0.35134 0.17768 0.0
H631 H 0.56914 0.35167 0.11102 0.0
O632 O 0.68609 0.32876 0.12316 0.0
O633 O 0.65478 0.26727 0.16897 0.0
O634 O 0.65887 0.22273 0.15944 0.0
O635 O 0.71595 0.30057 0.12764 0.0
O636 O 0.65918 0.26468 0.08715 0.0
O637 O 0.65228 0.22381 0.10891 0.0
O638 O 0.70458 0.18575 0.16392 0.0
O639 O 0.71591 0.2431 0.09917 0.0
O640 O 0.68812 0.27224 0.07702 0.0
O641 O 0.68325 0.17316 0.1176 0.0
O642 O 0.70711 0.23006 0.17453 0.0
O643 O 0.69814 0.27414 0.17687 0.0
C644 C 0.64836 0.24302 0.17527 0.0
C645 C 0.72393 0.33718 0.08944 0.0
C646 C 0.73484 0.37578 0.05345 0.0
C647 C 0.74896 0.36004 0.02996 0.0
C648 C 0.73835 0.32234 0.0653 0.0
C649 C 0.75065 0.33368 0.03587 0.0
C650 C 0.72242 0.36411 0.08352 0.0
C651 C 0.64391 0.24488 0.09276 0.0
C652 C 0.71058 0.32461 0.12059 0.0
C653 C 0.58856 0.34248 0.16108 0.0
C654 C 0.58577 0.34265 0.12314 0.0
C655 C 0.70789 0.25739 0.07188 0.0
C656 C 0.68026 0.14735 0.17048 0.0
C657 C 0.67876 0.10687 0.2053 0.0
C658 C 0.65281 0.11184 0.21287 0.0
C659 C 0.65446 0.15156 0.17872 0.0
C660 C 0.69238 0.12492 0.18372 0.0
C661 C 0.6409 0.13394 0.19981 0.0
C662 C 0.70789 0.25272 0.19073 0.0
C663 C 0.69438 0.16606 0.14756 0.0
H664 H 0.75914 0.36818 1.0071 0.0
H665 H 0.74032 0.30189 0.06918 0.0
H666 H 0.76169 0.32194 0.01755 0.0
H667 H 0.71138 0.3758 0.10191 0.0
H668 H 0.64141 0.09839 0.22847 0.0
H669 H 0.64474 0.16838 0.16849 0.0
H670 H 0.71237 0.12169 0.17747 0.0
H671 H 0.62093 0.13732 0.20586 0.0
H672 H 0.2265 0.11848 0.31224 0.0
H673 H 0.23898 0.07602 0.29175 0.0
H674 H 0.31449 0.0878 0.33743 0.0
H675 H 0.30177 0.13061 0.35849 0.0
H676 H 0.27572 0.06087 0.24522 0.0
H677 H 0.294 0.01859 0.38113 0.0
H678 H 0.27777 0.04876 0.37509 0.0
H679 H 0.31208 0.04734 0.37186 0.0
C680 C 0.24587 0.11221 0.31788 0.0
C681 C 0.26317 0.12809 0.33727 0.0
C682 C 0.25296 0.08778 0.30613 0.0
C683 C 0.27754 0.07831 0.3135 0.0
C684 C 0.29519 0.09433 0.33205 0.0
H685 H 0.35403 0.93924 0.24402 0.0
H686 H 0.34168 0.9791 0.27432 0.0
C687 C 0.28804 0.11899 0.3438 0.0
C688 C 0.28442 0.05189 0.30096 0.0
H689 H 0.30378 0.99261 0.3301 0.0
C690 C 0.28178 0.04597 0.26387 0.0
C691 C 0.29217 0.03224 0.3252 0.0
C692 C 0.29397 0.03687 0.36559 0.0
C693 C 0.287 0.02129 0.25033 0.0
C694 C 0.29485 1.00168 0.27448 0.0
C695 C 0.29763 0.00755 0.31158 0.0
C696 C 0.30137 0.97541 0.26111 0.0
C697 C 0.28456 0.0165 0.21005 0.0
C698 C 0.28268 0.95934 0.24492 0.0
C699 C 0.28969 0.93628 0.22789 0.0
C700 C 0.31555 0.92895 0.22656 0.0
C701 C 0.33394 0.94431 0.24473 0.0
C702 C 0.32691 0.96716 0.26198 0.0
H703 H 0.28315 0.03466 0.19438 0.0
H704 H 0.30124 0.00552 0.19998 0.0
H705 H 0.26699 1.00492 0.20461 0.0
H706 H 0.2628 0.96514 0.24419 0.0
H707 H 0.27515 0.92507 0.21377 0.0
H708 H 0.11824 0.70271 0.68118 0.0
H709 H 0.07635 0.69636 0.70852 0.0
H710 H 0.08117 0.77178 0.75646 0.0
H711 H 0.12341 0.77831 0.72874 0.0
H712 H 0.06001 0.69471 0.77646 0.0
H713 H 0.01248 0.77582 0.70623 0.0
H714 H 0.04399 0.76493 0.694 0.0
H715 H 0.03985 0.78496 0.73324 0.0
C716 C 0.11062 0.71797 0.69777 0.0
C717 C 0.12424 0.74125 0.7023 0.0
C718 C 0.08647 0.7143 0.71337 0.0
C719 C 0.07513 0.73372 0.7341 0.0
C720 C 0.08902 0.75671 0.73977 0.0
H721 H 0.93469 0.69141 0.85634 0.0
H722 H 0.97817 0.70648 0.84232 0.0
C723 C 0.11325 0.76045 0.72393 0.0
C724 C 0.04883 0.7295 0.7494 0.0
H725 H 0.98739 0.75215 0.74774 0.0
C726 C 0.04417 0.70739 0.77034 0.0
C727 C 0.02796 0.74579 0.74114 0.0
C728 C 0.03115 0.76908 0.71716 0.0
C729 C 0.0194 0.70085 0.78257 0.0
C730 C 0.99853 0.71726 0.77464 0.0
C731 C 1.00328 0.73963 0.75424 0.0
C732 C 0.9714 0.71048 0.78452 0.0
C733 C 0.01572 0.67573 0.80235 0.0
C734 C 0.95245 0.70904 0.7573 0.0
C735 C 0.92743 0.701 0.76539 0.0
C736 C 0.92049 0.69394 0.80099 0.0
C737 C 0.93917 0.69655 0.82861 0.0
C738 C 0.96425 0.70484 0.8205 0.0
H739 H 0.032 0.66251 0.7979 0.0
H740 H 0.0145 0.67949 0.83193 0.0
H741 H 0.99777 0.6659 0.79348 0.0
H742 H 0.95717 0.71351 0.7294 0.0
H743 H 0.91355 0.70002 0.74343 0.0
H744 H 0.70721 0.87486 0.31697 0.0
H745 H 0.69864 0.91668 0.28957 0.0
H746 H 0.77561 0.94152 0.31612 0.0
H747 H 0.78345 0.90039 0.34572 0.0
H748 H 0.74438 0.97793 0.33279 0.0
H749 H 0.71739 0.94675 0.19438 0.0
H750 H 0.6975 0.9316 0.22771 0.0
H751 H 0.73139 0.92511 0.22701 0.0
C752 C 0.72233 0.88918 0.3169 0.0
C753 C 0.74615 0.88395 0.33334 0.0
C754 C 0.71754 0.9131 0.30067 0.0
C755 C 0.73659 0.93242 0.29986 0.0
C756 C 0.76055 0.92706 0.31585 0.0
H757 H 0.71338 0.07449 0.17204 0.0
H758 H 0.72997 0.03348 0.19467 0.0
C759 C 0.76523 0.90322 0.33234 0.0
C760 C 0.73111 0.95859 0.2844 0.0
H761 H 0.70591 0.98976 0.21055 0.0
C762 C 0.73618 0.98042 0.30589 0.0
C763 C 0.72085 0.96229 0.24901 0.0
C764 C 0.71673 0.9402 0.22307 0.0
C765 C 0.73059 0.00544 0.29364 0.0
C766 C 0.71883 0.009 0.25915 0.0
C767 C 0.71457 0.98727 0.23715 0.0
C768 C 0.71003 0.03486 0.24598 0.0
C769 C 0.73776 0.02782 0.31777 0.0
C770 C 0.69331 0.04964 0.26704 0.0
C771 C 0.6841 0.07323 0.25437 0.0
C772 C 0.69086 0.08274 0.21983 0.0
C773 C 0.70789 0.06809 0.19887 0.0
C774 C 0.71723 0.04443 0.21171 0.0
H775 H 0.75408 0.02301 0.33601 0.0
H776 H 0.74307 0.04504 0.30163 0.0
H777 H 0.7212 0.03264 0.33516 0.0
H778 H 0.68686 0.04269 0.29315 0.0
H779 H 0.67135 0.08393 0.27169 0.0
H780 H 0.1019 0.30995 0.73011 0.0
H781 H 0.05905 0.29514 0.71341 0.0
H782 H 0.04204 0.28131 0.82612 0.0
H783 H 0.08449 0.29789 0.84338 0.0
H784 H 0.03259 0.25281 0.71814 0.0
H785 H 0.98311 0.32591 0.80096 0.0
H786 H 0.01731 0.32645 0.79453 0.0
H787 H 1.00311 0.30511 0.82734 0.0
C788 C 0.08903 0.3041 0.75157 0.0
C789 C 0.0967 0.30585 0.7883 0.0
C790 C 0.06447 0.2953 0.74185 0.0
C791 C 0.04678 0.28769 0.76843 0.0
C792 C 0.05487 0.28783 0.80501 0.0
H793 H 0.89819 0.21756 0.69864 0.0
H794 H 0.94157 0.22312 0.72394 0.0
C795 C 0.07943 0.29698 0.81485 0.0
C796 C 0.01987 0.28041 0.7575 0.0
H797 H 0.95688 0.29572 0.77045 0.0
C798 C 0.01605 0.26214 0.72974 0.0
C799 C 0.9981 0.29276 0.77209 0.0
C800 C 1.00054 0.31382 0.8001 0.0
C801 C 0.99138 0.25624 0.71591 0.0
C802 C 0.96963 0.26831 0.73094 0.0
C803 C 0.97342 0.28622 0.75909 0.0
C804 C 0.94302 0.26432 0.71614 0.0
C805 C 0.98902 0.23801 0.68419 0.0
C806 C 0.92889 0.28556 0.70422 0.0
C807 C 0.90402 0.28249 0.6903 0.0
C808 C 0.89241 0.25801 0.68772 0.0
C809 C 0.90646 0.23668 0.69996 0.0
C810 C 0.93142 0.23983 0.71421 0.0
H811 H 0.00761 0.23554 0.6701 0.0
H812 H 0.98266 0.21891 0.69413 0.0
H813 H 0.97464 0.2449 0.66414 0.0
H814 H 0.93724 0.30467 0.70531 0.0
H815 H 0.89406 0.29947 0.68111 0.0
H816 H 0.32687 0.5932 0.01982 0.0
H817 H 0.30804 0.55616 0.9877 0.0
H818 H 0.27343 0.53041 0.08739 0.0
H819 H 0.29207 0.56758 0.11926 0.0
H820 H 0.31991 0.50701 1.0022 0.0
H821 H 0.215 0.51762 0.01625 0.0
H822 H 0.23721 0.54384 0.02426 0.0
H823 H 0.2317 0.5201 0.05888 0.0
C824 C 0.31438 0.58016 0.03446 0.0
C825 C 0.31036 0.58363 0.07181 0.0
C826 C 0.30381 0.55883 0.01619 0.0
C827 C 0.28897 0.54045 0.03486 0.0
C828 C 0.28419 0.54449 0.07198 0.0
H829 H 0.27797 0.37826 0.99266 0.0
H830 H 0.28504 0.42171 1.01553 0.0
C831 C 0.29481 0.5658 0.09025 0.0
C832 C 0.28103 0.51581 0.01666 0.0
H833 H 0.22984 0.47559 1.00017 0.0
C834 C 0.30014 0.50036 1.00146 0.0
C835 C 0.25523 0.50698 1.01521 0.0
C836 C 0.23356 0.52311 0.02919 0.0
C837 C 0.29439 0.47617 0.98621 0.0
C838 C 0.26882 0.46677 0.98644 0.0
C839 C 0.24949 0.48258 1.0003 0.0
C840 C 0.2623 0.44014 0.97389 0.0
C841 C 0.31589 0.46075 0.97016 0.0
C842 C 0.24621 0.43568 0.94362 0.0
C843 C 0.24216 0.41058 0.93034 0.0
C844 C 0.25408 0.38952 0.9472 0.0
C845 C 0.26901 0.39404 0.97853 0.0
C846 C 0.27304 0.41895 0.9917 0.0
H847 H 0.33255 0.4731 0.96291 0.0
H848 H 0.32249 0.44649 0.99046 0.0
H849 H 0.30936 0.4502 0.94552 0.0
H850 H 0.23756 0.45168 0.9295 0.0
H851 H 0.23071 0.4078 0.90599 0.0
H852 H 0.56223 0.65976 0.95497 0.0
H853 H 0.52368 0.6733 0.98689 0.0
H854 H 0.55888 0.74682 1.00904 0.0
H855 H 0.59782 0.73326 0.97667 0.0
H856 H 0.52607 0.71948 0.07003 0.0
H857 H 0.47792 0.73131 0.93611 0.0
H858 H 0.49501 0.70183 0.94286 0.0
H859 H 0.5124 0.73169 0.9413 0.0
C860 C 0.56204 0.67861 0.9674 0.0
C861 C 0.58312 0.69543 0.96331 0.0
C862 C 0.53991 0.68637 0.98549 0.0
C863 C 0.53817 0.71119 0.99998 0.0
C864 C 0.55975 0.72758 0.99802 0.0
H865 H 0.40721 0.78062 0.11313 0.0
H866 H 0.44963 0.77263 0.08848 0.0
C867 C 0.58206 0.71977 0.97977 0.0
C868 C 0.51311 0.72022 1.01454 0.0
H869 H 0.45172 0.73392 0.98803 0.0
C870 C 0.50986 0.72293 0.05216 0.0
C871 C 0.49187 0.72453 0.99125 0.0
C872 C 0.49435 0.72241 0.95058 0.0
C873 C 0.48577 0.729 0.06712 0.0
C874 C 0.46439 0.73308 0.04375 0.0
C875 C 0.4679 0.73079 1.00608 0.0
C876 C 0.43809 0.73903 0.05764 0.0
C877 C 0.48328 0.7299 0.1079 0.0
C878 C 0.41687 0.72371 0.04744 0.0
C879 C 0.39226 0.72886 0.06074 0.0
C880 C 0.38811 0.74959 0.08449 0.0
C881 C 0.40933 0.76508 0.09416 0.0
C882 C 0.43388 0.76008 0.08066 0.0
H883 H 0.49892 0.7192 0.12162 0.0
H884 H 0.48449 0.75015 0.11711 0.0
H885 H 0.46461 0.72175 0.11678 0.0
H886 H 0.41941 0.70741 0.0296 0.0
H887 H 0.37652 0.71634 0.05272 0.0
H888 H 0.73955 0.41659 0.10134 0.0
H889 H 0.74231 0.46262 0.08665 0.0
H890 H 0.7318 0.44497 0.97319 0.0
H891 H 0.7282 0.39947 0.98769 0.0
H892 H 0.77715 0.48852 0.04503 0.0
H893 H 0.68091 0.50168 0.98471 0.0
H894 H 0.68921 0.47342 1.01036 0.0
H895 H 0.69782 0.47607 0.96322 0.0
C896 C 0.73725 0.42258 0.07337 0.0
C897 C 0.73368 0.40414 0.04577 0.0
C898 C 0.73908 0.44894 0.06492 0.0
C899 C 0.73704 0.45755 0.02874 0.0
C900 C 0.73298 0.43915 1.00136 0.0
H901 H 0.79434 0.60163 0.93426 0.0
H902 H 0.7895 0.55789 0.95791 0.0
C903 C 0.73117 0.41295 1.00973 0.0
C904 C 0.74013 0.48547 0.01913 0.0
H905 H 0.712 0.53437 0.97167 0.0
C906 C 0.76278 0.49859 0.02927 0.0
C907 C 0.72136 0.49898 0.99888 0.0
C908 C 0.69586 0.4869 0.98899 0.0
C909 C 0.76742 0.52435 0.01897 0.0
C910 C 0.74918 0.53744 0.9972 0.0
C911 C 0.72625 0.52449 0.98791 0.0
C912 C 0.75311 0.56458 0.98414 0.0
C913 C 0.7917 0.53737 0.03213 0.0
C914 C 0.7342 0.58316 0.99019 0.0
C915 C 0.7368 0.60812 0.97628 0.0
C916 C 0.75846 0.6154 0.95593 0.0
C917 C 0.77763 0.59696 0.95034 0.0
C918 C 0.77489 0.57184 0.96401 0.0
H919 H 0.7994 0.52798 0.05695 0.0
H920 H 0.80651 0.53603 1.01075 0.0
H921 H 0.78846 0.55796 0.03817 0.0
H922 H 0.71717 0.57827 1.00548 0.0
H923 H 0.72157 0.62166 0.98116 0.0
H924 H 0.60001 0.22225 0.11885 0.0
H925 H 0.55606 0.22668 0.09507 0.0
H926 H 0.58445 0.2736 1.00747 0.0
H927 H 0.62826 0.26855 0.03045 0.0
H928 H 0.5413 0.29486 0.0455 0.0
H929 H 0.52381 0.1941 1.00163 0.0
H930 H 0.5354 0.19828 0.04738 0.0
H931 H 0.55564 0.20684 1.00999 0.0
C932 C 0.59688 0.23316 0.09421 0.0
C933 C 0.61759 0.2454 0.07684 0.0
C934 C 0.57174 0.23575 0.08067 0.0
C935 C 0.56685 0.25049 0.04938 0.0
C936 C 0.58762 0.26228 0.03173 0.0
H937 H 0.42468 0.26077 0.92034 0.0
H938 H 0.46997 0.25848 0.93952 0.0
C939 C 0.61267 0.25956 0.04509 0.0
C940 C 0.54015 0.25418 0.03532 0.0
H941 H 0.48861 0.22243 0.99789 0.0
C942 C 0.5298 0.27902 0.03508 0.0
C943 C 0.52517 0.2336 0.02129 0.0
C944 C 0.53553 0.20669 0.01971 0.0
C945 C 0.5048 0.28368 0.02195 0.0
C946 C 0.48967 0.26304 1.00853 0.0
C947 C 0.50017 0.23828 1.00815 0.0
C948 C 0.46257 0.26657 0.99608 0.0
C949 C 0.49474 0.31072 0.02229 0.0
C950 C 0.44335 0.27221 0.02129 0.0
C951 C 0.41757 0.27336 1.01043 0.0
C952 C 0.41033 0.26914 0.97399 0.0
C953 C 0.42967 0.26447 0.94846 0.0
C954 C 0.45552 0.26295 0.95947 0.0
H955 H 0.51029 0.32512 0.02671 0.0
H956 H 0.48473 0.3151 0.99633 0.0
H957 H 0.48064 0.31265 0.04454 0.0
H958 H 0.4482 0.27487 0.04969 0.0
H959 H 0.40311 0.27686 0.03078 0.0
H960 H 0.78954 0.63206 0.80167 0.0
H961 H 0.79573 0.58961 0.77446 0.0
H962 H 0.73814 0.55789 0.84538 0.0
H963 H 0.73186 0.60019 0.87246 0.0
H964 H 0.81164 0.54477 0.80526 0.0
H965 H 0.71406 0.53081 0.74844 0.0
H966 H 0.72546 0.56158 0.76463 0.0
H967 H 0.71359 0.53789 0.79606 0.0
C968 C 0.7782 0.61603 0.81141 0.0
C969 C 0.76023 0.61956 0.83926 0.0
C970 C 0.78169 0.59176 0.79575 0.0
C971 C 0.7672 0.57047 0.80745 0.0
C972 C 0.74914 0.57403 0.83514 0.0
H973 H 0.75798 0.40768 0.77775 0.0
H974 H 0.75781 0.45225 0.79807 0.0
C975 C 0.74554 0.5983 0.85064 0.0
C976 C 0.77142 0.54442 0.79159 0.0
H977 H 0.74006 0.49333 0.7527 0.0
C978 C 0.79605 0.53364 0.79336 0.0
C979 C 0.75117 0.52985 0.77578 0.0
C980 C 0.72466 0.54072 0.77073 0.0
C981 C 0.80067 0.50841 0.78124 0.0
C982 C 0.78019 0.49359 0.76672 0.0
C983 C 0.75576 0.50461 0.76405 0.0
C984 C 0.78308 0.46612 0.75601 0.0
C985 C 0.82718 0.49742 0.78527 0.0
C986 C 0.7979 0.4588 0.72598 0.0
C987 C 0.798 0.43309 0.71414 0.0
C988 C 0.78314 0.41435 0.73201 0.0
C989 C 0.76938 0.42166 0.76306 0.0
C990 C 0.76926 0.44717 0.77476 0.0
H991 H 0.83991 0.50979 0.80225 0.0
H992 H 0.82619 0.47798 0.79759 0.0
H993 H 0.83593 0.4955 0.75804 0.0
H994 H 0.80854 0.47311 0.71083 0.0
H995 H 0.80863 0.42814 0.69001 0.0
H996 H 0.63577 0.20024 0.21519 0.0
H997 H 0.59477 0.19037 0.24461 0.0
H998 H 0.56635 0.26473 0.21379 0.0
H999 H 0.60695 0.27441 0.1838 0.0
H1000 H 0.56873 0.21734 0.30129 0.0
H1001 H 0.51083 0.21461 0.1742 0.0
H1002 H 0.54541 0.21295 0.17428 0.0
H1003 H 0.52986 0.24317 0.18099 0.0
C1004 C 0.62081 0.21449 0.21471 0.0
C1005 C 0.62479 0.23815 0.19711 0.0
C1006 C 0.59736 0.20885 0.23161 0.0
C1007 C 0.5772 0.2266 0.23093 0.0
C1008 C 0.58137 0.2505 0.21422 0.0
H1009 H 0.42007 0.22348 0.31687 0.0
H1010 H 0.45919 0.23371 0.28241 0.0
C1011 C 0.60484 0.2562 0.19754 0.0
C1012 C 0.55198 0.22021 0.24799 0.0
H1013 H 0.48811 0.21067 0.22947 0.0
C1014 C 0.55113 0.2158 0.28555 0.0
C1015 C 0.52889 0.21842 0.22757 0.0
C1016 C 0.52866 0.22232 0.18698 0.0
C1017 C 0.52795 0.20996 0.30329 0.0
C1018 C 0.50487 0.20762 0.28283 0.0
C1019 C 0.50568 0.21229 0.24524 0.0
C1020 C 0.47994 0.20009 0.30013 0.0
C1021 C 0.52839 0.207 0.34405 0.0
C1022 C 0.47794 0.17722 0.3202 0.0
C1023 C 0.45574 0.17147 0.3399 0.0
C1024 C 0.43467 0.18813 0.33943 0.0
C1025 C 0.43588 0.21015 0.31741 0.0
C1026 C 0.45832 0.21606 0.29791 0.0
H1027 H 0.54522 0.21698 0.35642 0.0
H1028 H 0.5107 0.21472 0.35642 0.0
H1029 H 0.52975 0.18634 0.35099 0.0
H1030 H 0.49393 0.16412 0.32158 0.0
H1031 H 0.45535 0.15438 0.35665 0.0
H1032 H 0.23223 0.59022 0.70952 0.0
H1033 H 0.24748 0.54715 0.72527 0.0
H1034 H 0.17357 0.52847 0.7702 0.0
H1035 H 0.15805 0.57101 0.75396 0.0
H1036 H 0.21565 0.51765 0.81728 0.0
H1037 H 0.22913 0.47612 0.67975 0.0
H1038 H 0.24396 0.50692 0.68795 0.0
H1039 H 0.20964 0.50405 0.6876 0.0
C1040 C 0.21904 0.5768 0.7221 0.0
C1041 C 0.1939 0.58435 0.73064 0.0
C1042 C 0.22784 0.55215 0.7312 0.0
C1043 C 0.21168 0.53445 0.74892 0.0
C1044 C 0.18648 0.54175 0.75673 0.0
H1045 H 0.22023 0.37168 0.79538 0.0
H1046 H 0.21162 0.41443 0.77043 0.0
C1047 C 0.17766 0.56623 0.74754 0.0
C1048 C 0.22107 0.50873 0.76083 0.0
H1049 H 0.24142 0.45045 0.72972 0.0
C1050 C 0.22143 0.50302 0.79812 0.0
C1051 C 0.2284 0.4895 0.73588 0.0
C1052 C 0.22765 0.49423 0.69551 0.0
C1053 C 0.22881 0.47873 0.8111 0.0
C1054 C 0.23628 0.45952 0.78618 0.0
C1055 C 0.23593 0.4652 0.74886 0.0
C1056 C 0.24325 0.43311 0.79845 0.0
C1057 C 0.22782 0.47358 0.8514 0.0
C1058 C 0.26443 0.42906 0.82151 0.0
C1059 C 0.26925 0.40463 0.83593 0.0
C1060 C 0.25294 0.38373 0.82769 0.0
C1061 C 0.23265 0.38752 0.80302 0.0
C1062 C 0.22789 0.41192 0.78848 0.0
H1063 H 0.21648 0.48824 0.86599 0.0
H1064 H 0.21936 0.45435 0.85693 0.0
H1065 H 0.2476 0.47395 0.86271 0.0
H1066 H 0.27683 0.44497 0.82919 0.0
H1067 H 0.28497 0.40243 0.85502 0.0
H1068 H 0.57759 0.79909 0.36012 0.0
H1069 H 0.536 0.78277 0.33819 0.0
H1070 H 0.55448 0.80786 0.22985 0.0
H1071 H 0.59563 0.82469 0.25182 0.0
H1072 H 0.50865 0.82319 0.24588 0.0
H1073 H 0.51372 0.72041 0.28267 0.0
H1074 H 0.51886 0.74108 0.32101 0.0
H1075 H 0.54143 0.74138 0.28424 0.0
C1076 C 0.57297 0.80067 0.3315 0.0
C1077 C 0.58998 0.81329 0.3078 0.0
C1078 C 0.54915 0.79123 0.31889 0.0
C1079 C 0.54194 0.79376 0.28213 0.0
C1080 C 0.55935 0.80564 0.25831 0.0
H1081 H 0.40658 0.72751 0.17116 0.0
H1082 H 0.44993 0.73562 0.19531 0.0
C1083 C 0.58295 0.81529 0.27093 0.0
C1084 C 0.51574 0.78585 0.26875 0.0
H1085 H 0.47244 0.73596 0.26512 0.0
C1086 C 0.50088 0.80405 0.25005 0.0
C1087 C 0.50545 0.76077 0.27349 0.0
C1088 C 0.52079 0.7397 0.2911 0.0
C1089 C 0.47619 0.79811 0.23663 0.0
C1090 C 0.46544 0.77344 0.24283 0.0
C1091 C 0.48041 0.755 0.26082 0.0
C1092 C 0.43872 0.76668 0.23069 0.0
C1093 C 0.46204 0.81821 0.21509 0.0
C1094 C 0.41772 0.78078 0.24328 0.0
C1095 C 0.39298 0.77621 0.2295 0.0
C1096 C 0.38847 0.75718 0.20302 0.0
C1097 C 0.40927 0.74212 0.19181 0.0
C1098 C 0.43413 0.74683 0.20547 0.0
H1099 H 0.47526 0.8332 0.2044 0.0
H1100 H 0.4515 0.80936 0.1919 0.0
H1101 H 0.44793 0.82778 0.23285 0.0
H1102 H 0.42055 0.79579 0.26328 0.0
H1103 H 0.37743 0.78807 0.23895 0.0
H1104 H 0.78351 0.09918 0.55414 0.0
H1105 H 0.76599 0.05684 0.53768 0.0
H1106 H 0.84157 0.03198 0.50758 0.0
H1107 H 0.85899 0.07424 0.52329 0.0
H1108 H 0.80792 0.01873 0.45661 0.0
H1109 H 0.76892 0.98936 0.59007 0.0
H1110 H 0.75631 0.0192 0.57384 0.0
H1111 H 0.78987 0.01683 0.58488 0.0
C1112 C 0.79643 0.08455 0.54453 0.0
C1113 C 0.82266 0.09018 0.54 0.0
C1114 C 0.7864 0.06028 0.53516 0.0
C1115 C 0.80244 0.04093 0.52165 0.0
C1116 C 0.8287 0.04646 0.51778 0.0
H1117 H 0.77677 0.87723 0.50037 0.0
H1118 H 0.78684 0.92107 0.52008 0.0
C1119 C 0.83866 0.07071 0.52679 0.0
C1120 C 0.79203 0.01524 0.51021 0.0
H1121 H 0.75892 0.96234 0.54002 0.0
C1122 C 0.79717 0.00645 0.4749 0.0
C1123 C 0.7782 0.99895 0.53405 0.0
C1124 C 0.77319 0.0064 0.57292 0.0
C1125 C 0.78908 0.98199 0.46289 0.0
C1126 C 0.77477 0.96595 0.48647 0.0
C1127 C 0.76955 0.97472 0.52174 0.0
C1128 C 0.76657 0.9394 0.47581 0.0
C1129 C 0.79681 0.97321 0.42548 0.0
C1130 C 0.75101 0.93491 0.44503 0.0
C1131 C 0.7454 0.90976 0.43357 0.0
C1132 C 0.75526 0.88864 0.45266 0.0
C1133 C 0.76943 0.89315 0.48464 0.0
C1134 C 0.77506 0.91823 0.49606 0.0
H1135 H 0.81301 0.98483 0.41465 0.0
H1136 H 0.80251 0.95272 0.42572 0.0
H1137 H 0.7803 0.97529 0.40657 0.0
H1138 H 0.74364 0.95086 0.4294 0.0
H1139 H 0.73428 0.90686 0.40894 0.0
H1140 H 0.09904 0.25337 0.48227 0.0
H1141 H 0.05893 0.26069 0.51538 0.0
H1142 H 0.02187 0.20067 0.45318 0.0
H1143 H 0.06159 0.19373 0.41987 0.0
H1144 H 0.9951 0.24483 0.45034 0.0
H1145 H 0.01906 0.22363 0.59427 0.0
H1146 H 0.04008 0.24639 0.57274 0.0
H1147 H 0.03918 0.21368 0.55721 0.0
C1148 C 0.08255 0.24121 0.47659 0.0
C1149 C 0.08353 0.22287 0.44861 0.0
C1150 C 0.05955 0.24543 0.49548 0.0
C1151 C 0.03719 0.23119 0.48699 0.0
C1152 C 0.03869 0.21198 0.46032 0.0
H1153 H 0.87521 0.2252 0.53882 0.0
H1154 H 0.91817 0.22033 0.51374 0.0
C1155 C 0.06149 0.2079 0.44141 0.0
C1156 C 0.01166 0.2376 0.50303 0.0
H1157 H 0.97814 0.2413 0.58252 0.0
C1158 C 0.99146 0.24399 0.47928 0.0
C1159 C 0.00677 0.23688 0.54083 0.0
C1160 C 0.02732 0.22958 0.56781 0.0
C1161 C 0.9667 0.24943 0.49203 0.0
C1162 C 0.96161 0.24806 0.5297 0.0
C1163 C 0.98191 0.2423 0.55364 0.0
C1164 C 0.93518 0.25162 0.5445 0.0
C1165 C 0.94628 0.25694 0.46493 0.0
C1166 C 0.93019 0.27068 0.5705 0.0
C1167 C 0.90552 0.27341 0.58505 0.0
C1168 C 0.88531 0.25688 0.57434 0.0
C1169 C 0.89029 0.2381 0.54792 0.0
C1170 C 0.91489 0.23544 0.53331 0.0
H1171 H 0.9548 0.26468 0.43958 0.0
H1172 H 0.93469 0.23972 0.45761 0.0
H1173 H 0.93326 0.27156 0.47639 0.0
H1174 H 0.94546 0.28335 0.57975 0.0
H1175 H 0.90253 0.28787 0.60568 0.0
H1176 H 0.16396 0.93103 0.52207 0.0
H1177 H 0.18245 0.97052 0.49724 0.0
H1178 H 0.24962 0.96083 0.56453 0.0
H1179 H 0.23101 0.92101 0.5896 0.0
H1180 H 0.22678 0.01005 0.57011 0.0
H1181 H 0.24147 0.98398 0.42607 0.0
H1182 H 0.20997 0.97598 0.44216 0.0
H1183 H 0.23745 0.96023 0.46135 0.0
C1184 C 0.18292 0.93702 0.53102 0.0
C1185 C 0.19608 0.92285 0.55769 0.0
C1186 C 0.19352 0.95958 0.51671 0.0
C1187 C 0.21754 0.96864 0.52873 0.0
C1188 C 0.23112 0.95416 0.55465 0.0
H1189 H 0.28711 0.10586 0.42971 0.0
H1190 H 0.28045 0.06288 0.4547 0.0
C1191 C 0.22058 0.93133 0.56877 0.0
C1192 C 0.22722 0.99418 0.51615 0.0
H1193 H 0.24065 0.02893 0.43969 0.0
C1194 C 0.23012 0.01409 0.54164 0.0
C1195 C 0.23182 0.99952 0.47906 0.0
C1196 C 0.23027 0.97875 0.45058 0.0
C1197 C 0.23641 0.03932 0.53088 0.0
C1198 C 0.23963 0.04494 0.49356 0.0
C1199 C 0.23785 0.02479 0.46825 0.0
C1200 C 0.2443 0.07162 0.4801 0.0
C1201 C 0.23953 0.05975 0.55963 0.0
C1202 C 0.2262 0.09102 0.48594 0.0
C1203 C 0.22995 0.11572 0.47166 0.0
C1204 C 0.25187 0.12163 0.4511 0.0
C1205 C 0.27014 0.10223 0.44576 0.0
C1206 C 0.2663 0.07751 0.45986 0.0
H1207 H 0.2437 0.05127 0.58668 0.0
H1208 H 0.25519 0.07342 0.55263 0.0
H1209 H 0.22144 0.07069 0.56172 0.0
H1210 H 0.20883 0.0869 0.50086 0.0
H1211 H 0.21546 0.13009 0.47632 0.0
H1212 H 0.12805 0.77992 0.54909 0.0
H1213 H 0.08447 0.78407 0.5253 0.0
H1214 H 0.06083 0.71773 0.58687 0.0
H1215 H 0.10475 0.71326 0.61062 0.0
H1216 H 0.0387 0.71888 0.5172 0.0
H1217 H 0.02621 0.81247 0.58602 0.0
H1218 H 0.05358 0.81164 0.55679 0.0
H1219 H 0.05255 0.79142 0.59632 0.0
C1220 C 0.1137 0.76597 0.55733 0.0
C1221 C 0.11999 0.74631 0.58202 0.0
C1222 C 0.08865 0.76851 0.54386 0.0
C1223 C 0.06905 0.75162 0.55485 0.0
C1224 C 0.0755 0.73116 0.57808 0.0
H1225 H 0.90535 0.78036 0.54644 0.0
H1226 H 0.95048 0.77512 0.56224 0.0
C1227 C 0.10069 0.72853 0.59153 0.0
C1228 C 0.04184 0.75586 0.54289 0.0
H1229 H 0.99349 0.79991 0.54448 0.0
C1230 C 0.02882 0.7366 0.52317 0.0
C1231 C 0.02866 0.77882 0.55104 0.0
C1232 C 0.04082 0.79969 0.574 0.0
C1233 C 1.00327 0.73978 0.51107 0.0
C1234 C 0.99035 0.76308 0.51825 0.0
C1235 C 1.00334 0.7822 0.53835 0.0
C1236 C 0.96287 0.7674 0.50742 0.0
C1237 C 0.99012 0.71778 0.49162 0.0
C1238 C 0.9545 0.76564 0.47102 0.0
C1239 C 0.9284 0.76855 0.46182 0.0
C1240 C 0.91004 0.77331 0.48882 0.0
C1241 C 0.91875 0.77623 0.52493 0.0
C1242 C 0.9447 0.77333 0.53405 0.0
H1243 H 1.00011 0.69932 0.49639 0.0
H1244 H 0.96991 0.71566 0.50047 0.0
H1245 H 0.99015 0.72158 0.46199 0.0
H1246 H 0.9681 0.76177 0.44969 0.0
H1247 H 0.92248 0.76617 0.43378 0.0
H1248 H 0.22328 0.31378 1.01588 0.0
H1249 H 0.22337 0.29858 0.07858 0.0
H1250 H 0.295 0.26034 0.0603 0.0
H1251 H 0.29468 0.27516 0.99712 0.0
H1252 H 0.22369 0.24879 0.10788 0.0
H1253 H 0.31053 0.30275 0.1522 0.0
H1254 H 0.29379 0.30979 0.11035 0.0
H1255 H 0.31494 0.28281 0.11296 0.0
C1256 C 0.23897 0.30189 0.02481 0.0
C1257 C 0.25886 0.29557 1.00065 0.0
C1258 C 0.23906 0.29326 0.06106 0.0
C1259 C 0.2593 0.27842 0.07487 0.0
C1260 C 0.27925 0.27205 0.05091 0.0
H1261 H 0.2626 0.18617 0.27459 0.0
H1262 H 0.26089 0.20222 0.21202 0.0
C1263 C 0.279 0.28046 1.01445 0.0
C1264 C 0.2593 0.26955 0.11404 0.0
H1265 H 0.29294 0.2732 0.19447 0.0
C1266 C 0.23889 0.25416 0.1267 0.0
C1267 C 0.27881 0.27672 0.13926 0.0
C1268 C 0.30067 0.29411 0.12826 0.0
C1269 C 0.23778 0.2454 0.16309 0.0
C1270 C 0.25762 0.25202 0.18806 0.0
C1271 C 0.27774 0.26787 0.17563 0.0
C1272 C 0.258 0.24227 0.22679 0.0
C1273 C 0.21503 0.22944 0.17478 0.0
C1274 C 0.25724 0.25924 0.25665 0.0
C1275 C 0.25801 0.24998 0.29274 0.0
C1276 C 0.25978 0.22349 0.29992 0.0
C1277 C 0.26087 0.20664 0.27008 0.0
C1278 C 0.25981 0.21583 0.23416 0.0
H1279 H 0.19877 0.23089 0.15526 0.0
H1280 H 0.22069 0.209 0.17654 0.0
H1281 H 0.20841 0.23554 0.20199 0.0
H1282 H 0.25603 0.27972 0.25204 0.0
H1283 H 0.25762 0.26353 0.31502 0.0
H1284 H 0.25725 0.78304 0.05408 0.0
H1285 H 0.24254 0.78588 0.99096 0.0
H1286 H 0.30402 0.73634 0.95824 0.0
H1287 H 0.32036 0.73616 0.02035 0.0
H1288 H 0.30002 0.76495 0.90729 0.0
H1289 H 0.19844 0.74243 0.93379 0.0
H1290 H 0.20765 0.77158 0.95621 0.0
H1291 H 0.22218 0.74159 0.96937 0.0
C1292 C 0.26813 0.77339 0.03334 0.0
C1293 C 0.29065 0.76008 0.04285 0.0
C1294 C 0.25918 0.77436 0.99686 0.0
C1295 C 0.27151 0.76085 0.96858 0.0
C1296 C 0.29378 0.7472 0.97848 0.0
H1297 H 0.19284 0.72753 0.75944 0.0
H1298 H 0.20864 0.72924 0.82186 0.0
C1299 C 0.30313 0.74693 1.01457 0.0
C1300 C 0.26193 0.76098 0.92896 0.0
H1301 H 0.20816 0.75696 0.87437 0.0
C1302 C 0.27986 0.76294 0.90044 0.0
C1303 C 0.23568 0.75799 0.91854 0.0
C1304 C 0.21495 0.75299 0.94607 0.0
C1305 C 0.27267 0.76182 0.86311 0.0
C1306 C 0.24631 0.76028 0.85271 0.0
C1307 C 0.22836 0.75846 0.88123 0.0
C1308 C 0.23688 0.75933 0.81302 0.0
C1309 C 0.2939 0.76102 0.83553 0.0
C1310 C 0.247 0.77545 0.78552 0.0
C1311 C 0.23854 0.77366 0.7489 0.0
C1312 C 0.21853 0.75678 0.73839 0.0
C1313 C 0.20811 0.74103 0.76594 0.0
C1314 C 0.21712 0.74217 0.80222 0.0
H1315 H 0.31181 0.75317 0.8475 0.0
H1316 H 0.28853 0.74903 0.81172 0.0
H1317 H 0.29828 0.78082 0.82623 0.0
H1318 H 0.2616 0.78957 0.79212 0.0
H1319 H 0.2482 0.78519 0.72876 0.0
H1320 H 0.79576 0.77094 0.30561 0.0
H1321 H 0.79629 0.75419 0.24309 0.0
H1322 H 0.72098 0.78483 0.22418 0.0
H1323 H 0.72027 0.80154 0.28603 0.0
H1324 H 0.76153 0.71907 0.20647 0.0
H1325 H 0.76182 0.81373 0.13788 0.0
H1326 H 0.76975 0.81008 0.18538 0.0
H1327 H 0.73682 0.80949 0.17069 0.0
C1328 C 0.7793 0.77417 0.28819 0.0
C1329 C 0.75801 0.78778 0.3014 0.0
C1330 C 0.77961 0.76451 0.25227 0.0
C1331 C 0.75883 0.76846 0.22824 0.0
C1332 C 0.73751 0.78179 0.24153 0.0
H1333 H 0.72309 0.73245 0.99859 0.0
H1334 H 0.72333 0.74844 0.06133 0.0
C1335 C 0.73709 0.79122 0.27735 0.0
C1336 C 0.75905 0.75845 0.18961 0.0
H1337 H 0.75509 0.77727 0.10036 0.0
C1338 C 0.76031 0.73185 0.18331 0.0
C1339 C 0.75717 0.77488 0.15897 0.0
C1340 C 0.75653 0.80365 0.16337 0.0
C1341 C 0.75917 0.72132 0.14782 0.0
C1342 C 0.75752 0.73777 0.11703 0.0
C1343 C 0.75632 0.76441 0.12343 0.0
C1344 C 0.75725 0.72782 0.07823 0.0
C1345 C 0.75877 0.69249 0.14396 0.0
C1346 C 0.77628 0.711 0.06579 0.0
C1347 C 0.77594 0.70154 0.02997 0.0
C1348 C 0.75697 0.70902 1.00468 0.0
C1349 C 0.73808 0.72615 0.0169 0.0
C1350 C 0.73826 0.73542 0.05301 0.0
H1351 H 0.75147 0.68303 0.16892 0.0
H1352 H 0.74663 0.68626 0.12065 0.0
H1353 H 0.7786 0.68567 0.13955 0.0
H1354 H 0.79169 0.70522 0.08374 0.0
H1355 H 0.79075 0.6883 0.02215 0.0
H1356 H 0.75922 0.2746 0.7245 0.0
H1357 H 0.74358 0.2748 0.78749 0.0
H1358 H 0.81114 0.23447 0.82224 0.0
H1359 H 0.82671 0.23405 0.75966 0.0
H1360 H 0.73595 0.22838 0.83726 0.0
H1361 H 0.80651 0.29944 0.89134 0.0
H1362 H 0.79851 0.29741 0.8436 0.0
H1363 H 0.81886 0.27379 0.86398 0.0
C1364 C 0.77085 0.26591 0.74556 0.0
C1365 C 0.79436 0.2544 0.73667 0.0
C1366 C 0.76181 0.26594 0.78169 0.0
C1367 C 0.7762 0.25487 0.81013 0.0
C1368 C 0.79968 0.24343 0.80123 0.0
H1369 H 0.75809 0.24886 0.04978 0.0
H1370 H 0.77454 0.24669 0.98731 0.0
C1371 C 0.80856 0.24314 0.76518 0.0
C1372 C 0.7667 0.25489 0.84889 0.0
H1373 H 0.77899 0.2797 0.93375 0.0
C1374 C 0.7453 0.23973 0.85827 0.0
C1375 C 0.77901 0.26924 0.87684 0.0
C1376 C 0.80192 0.28606 0.86867 0.0
C1377 C 0.73615 0.23833 0.8944 0.0
C1378 C 0.74802 0.25325 0.92235 0.0
C1379 C 0.7696 0.26825 0.91288 0.0
C1380 C 0.73802 0.25399 0.96105 0.0
C1381 C 0.71433 0.22003 0.90232 0.0
C1382 C 0.71206 0.25919 0.96809 0.0
C1383 C 0.70261 0.25994 1.00378 0.0
C1384 C 0.71873 0.25571 0.03404 0.0
C1385 C 0.74488 0.25131 0.02728 0.0
C1386 C 0.75436 0.25038 0.99137 0.0
H1387 H 0.71361 0.20399 0.88243 0.0
H1388 H 0.71604 0.2118 0.92998 0.0
H1389 H 0.69591 0.23043 0.90022 0.0
H1390 H 0.69896 0.26306 0.94589 0.0
H1391 H 0.68244 0.26382 1.00765 0.0
H1392 H 0.75541 0.74799 0.47774 0.0
H1393 H 0.75334 0.73051 0.53989 0.0
H1394 H 0.76531 0.80652 0.58325 0.0
H1395 H 0.76692 0.8239 0.52159 0.0
H1396 H 0.7895 0.731 0.59663 0.0
H1397 H 0.70313 0.78315 0.64081 0.0
H1398 H 0.71203 0.78025 0.59378 0.0
H1399 H 0.72758 0.80373 0.62232 0.0
C1400 C 0.7571 0.76101 0.50055 0.0
C1401 C 0.76077 0.78748 0.49441 0.0
C1402 C 0.75618 0.75096 0.53624 0.0
C1403 C 0.75873 0.76711 0.56689 0.0
C1404 C 0.76267 0.79351 0.56058 0.0
H1405 H 0.79791 0.72502 0.79313 0.0
H1406 H 0.79823 0.73971 0.72996 0.0
C1407 C 0.76377 0.80347 0.52507 0.0
C1408 C 0.75795 0.75654 0.60531 0.0
H1409 H 0.72726 0.76251 0.68715 0.0
C1410 C 0.77579 0.73788 0.61629 0.0
C1411 C 0.74002 0.76509 0.63146 0.0
C1412 C 0.71943 0.784 0.62156 0.0
C1413 C 0.77655 0.72815 0.65229 0.0
C1414 C 0.75913 0.73733 0.67872 0.0
C1415 C 0.7409 0.75553 0.66747 0.0
C1416 C 0.75916 0.72809 0.71782 0.0
C1417 C 0.79582 0.70772 0.66153 0.0
C1418 C 0.73705 0.71691 0.73315 0.0
C1419 C 0.73686 0.70839 0.76952 0.0
C1420 C 0.75856 0.71113 0.79231 0.0
C1421 C 0.78069 0.72243 0.77691 0.0
C1422 C 0.78097 0.73079 0.74041 0.0
H1423 H 0.80287 0.69788 0.63682 0.0
H1424 H 0.81255 0.71675 0.67542 0.0
H1425 H 0.78744 0.69313 0.68005 0.0
H1426 H 0.71989 0.7144 0.71676 0.0
H1427 H 0.71973 0.69927 0.77951 0.0
H1428 H 0.79426 0.21261 0.52207 0.0
H1429 H 0.77925 0.21301 0.45882 0.0
H1430 H 0.77366 0.29539 0.46277 0.0
H1431 H 0.78925 0.29516 0.52526 0.0
H1432 H 0.73525 0.22809 0.42643 0.0
H1433 H 0.8134 0.28841 0.37077 0.0
H1434 H 0.81485 0.27502 0.41587 0.0
H1435 H 0.79682 0.30372 0.40723 0.0
C1436 C 0.78997 0.2309 0.50957 0.0
C1437 C 0.79309 0.25388 0.52957 0.0
C1438 C 0.78127 0.23109 0.47311 0.0
C1439 C 0.77558 0.25427 0.45506 0.0
C1440 C 0.77839 0.27718 0.47513 0.0
H1441 H 0.7173 0.29481 0.23583 0.0
H1442 H 0.73301 0.29511 0.29881 0.0
C1443 C 0.7871 0.27699 0.51149 0.0
C1444 C 0.76628 0.25443 0.41581 0.0
H1445 H 0.77779 0.28045 0.33156 0.0
C1446 C 0.74474 0.23946 0.40576 0.0
C1447 C 0.7783 0.26927 0.38821 0.0
C1448 C 0.80226 0.28482 0.39589 0.0
C1449 C 0.73476 0.23927 0.36982 0.0
C1450 C 0.7468 0.25407 0.34221 0.0
C1451 C 0.76831 0.2691 0.35225 0.0
C1452 C 0.73757 0.25397 0.30294 0.0
C1453 C 0.71083 0.22368 0.3621 0.0
C1454 C 0.73526 0.23092 0.28312 0.0
C1455 C 0.72618 0.23068 0.24694 0.0
C1456 C 0.71912 0.25353 0.22889 0.0
C1457 C 0.72212 0.27671 0.24845 0.0
C1458 C 0.73126 0.27692 0.28473 0.0
H1459 H 0.69971 0.22 0.38722 0.0
H1460 H 0.69821 0.2335 0.34218 0.0
H1461 H 0.7163 0.20482 0.35066 0.0
H1462 H 0.74057 0.21291 0.2956 0.0
H1463 H 0.72446 0.21234 0.23327 0.0
H1464 H 0.29827 0.31347 0.77367 0.0
H1465 H 0.29825 0.2993 0.71007 0.0
H1466 H 0.22785 0.25743 0.72795 0.0
H1467 H 0.22725 0.27232 0.7907 0.0
H1468 H 0.30131 0.25592 0.67509 0.0
H1469 H 0.2059 0.29377 0.63972 0.0
H1470 H 0.22141 0.3012 0.68233 0.0
H1471 H 0.20371 0.27154 0.67665 0.0
C1472 C 0.2827 0.30134 0.76411 0.0
C1473 C 0.26262 0.29443 0.7878 0.0
C1474 C 0.28269 0.29315 0.72743 0.0
C1475 C 0.26266 0.27769 0.71309 0.0
C1476 C 0.24311 0.2701 0.73718 0.0
H1477 H 0.23108 0.19512 0.50921 0.0
H1478 H 0.23312 0.21146 0.57158 0.0
C1479 C 0.24292 0.27852 0.77357 0.0
C1480 C 0.26233 0.2692 0.67346 0.0
H1481 H 0.22369 0.26399 0.59763 0.0
C1482 C 0.28435 0.258 0.65822 0.0
C1483 C 0.2404 0.2718 0.65053 0.0
C1484 C 0.21665 0.28548 0.66302 0.0
C1485 C 0.28474 0.24884 0.62189 0.0
C1486 C 0.26257 0.25077 0.59955 0.0
C1487 C 0.24069 0.26217 0.61452 0.0
C1488 C 0.26159 0.24084 0.56085 0.0
C1489 C 0.30873 0.23644 0.60785 0.0
C1490 C 0.27652 0.252 0.53316 0.0
C1491 C 0.27504 0.24292 0.49703 0.0
C1492 C 0.25895 0.22204 0.4874 0.0
C1493 C 0.24384 0.21112 0.51517 0.0
C1494 C 0.24503 0.22043 0.55114 0.0
H1495 H 0.32274 0.23243 0.62993 0.0
H1496 H 0.30392 0.21818 0.59369 0.0
H1497 H 0.31804 0.2494 0.58789 0.0
H1498 H 0.2891 0.26809 0.53934 0.0
H1499 H 0.28629 0.25256 0.47652 0.0
H1500 H 0.26294 0.7922 0.22811 0.0
H1501 H 0.24786 0.79593 0.29121 0.0
H1502 H 0.3007 0.73707 0.32394 0.0
H1503 H 0.31688 0.73482 0.26245 0.0
H1504 H 0.22397 0.7677 0.3372 0.0
H1505 H 0.31767 0.78422 0.40282 0.0
H1506 H 0.31398 0.78443 0.35417 0.0
H1507 H 0.31818 0.75458 0.3783 0.0
C1508 C 0.27161 0.78031 0.24885 0.0
C1509 C 0.29113 0.76297 0.23938 0.0
C1510 C 0.26283 0.78234 0.28523 0.0
C1511 C 0.2733 0.76721 0.3136 0.0
C1512 C 0.29257 0.74977 0.30379 0.0
H1513 H 0.19292 0.73047 0.51693 0.0
H1514 H 0.20902 0.73384 0.45549 0.0
C1515 C 0.30155 0.74807 0.26784 0.0
C1516 C 0.26378 0.76887 0.35285 0.0
H1517 H 0.28386 0.76995 0.44222 0.0
C1518 C 0.23723 0.76841 0.35997 0.0
C1519 C 0.28055 0.77048 0.38357 0.0
C1520 C 0.30913 0.77376 0.37931 0.0
C1521 C 0.22726 0.76859 0.39584 0.0
C1522 C 0.24408 0.76825 0.42656 0.0
C1523 C 0.2706 0.76967 0.41944 0.0
C1524 C 0.23464 0.76597 0.46581 0.0
C1525 C 0.19855 0.76984 0.40009 0.0
C1526 C 0.24421 0.78188 0.49415 0.0
C1527 C 0.23549 0.77928 0.53052 0.0
C1528 C 0.21691 0.7606 0.53995 0.0
C1529 C 0.20741 0.7449 0.51151 0.0
C1530 C 0.21636 0.74717 0.47561 0.0
H1531 H 0.18948 0.77962 0.37654 0.0
H1532 H 0.19055 0.75005 0.40118 0.0
H1533 H 0.19314 0.7802 0.42519 0.0
H1534 H 0.25843 0.79652 0.48817 0.0
H1535 H 0.24345 0.7918 0.55125 0.0
loop_
_geom_bond_atom_site_label_1
_geom_bond_atom_site_label_2
_geom_bond_distance
_geom_bond_site_symmetry_2
_ccdc_geom_bond_type
Tb0 N29 2.617 . S
Tb0 N35 2.572 . S
Tb0 O44 2.465 . S
Tb0 O45 2.387 . S
Tb0 O47 2.428 . S
Tb0 O48 2.308 . S
Tb0 O52 2.349 . S
Tb0 O55 2.393 . S
Tb0 C64 2.802 . S
C1 N2 1.379 . S
C1 C4 1.416 . S
C1 C8 1.424 . S
N2 C1 1.379 . S
N2 C5 1.334 . S
N2 Tb11 2.617 . S
C3 C5 1.390 . S
C3 C6 1.339 . S
C3 H23 0.930 . S
C4 C1 1.416 . S
C4 C6 1.416 . S
C4 C10 1.448 . S
C5 N2 1.334 . S
C5 C3 1.390 . S
C5 H16 0.930 . S
C6 C3 1.339 . S
C6 C4 1.416 . S
C6 H27 0.930 . S
C7 C8 1.413 . S
C7 C9 1.427 . S
C7 C13 1.416 . S
C8 C1 1.424 . S
C8 C7 1.413 . S
C8 N12 1.361 . S
C9 C7 1.427 . S
C9 C10 1.328 . S
C9 H24 0.929 . S
C10 C4 1.448 . S
C10 C9 1.328 . S
C10 H25 0.930 . S
Tb11 N2 2.617 . S
Tb11 N12 2.572 . S
Tb11 O46 2.349 . S
Tb11 O49 2.393 . S
Tb11 O50 2.465 . S
Tb11 O51 2.387 . S
Tb11 O53 2.428 . S
Tb11 O54 2.308 . S
Tb11 C75 2.802 . S
N12 C8 1.361 . S
N12 Tb11 2.572 . S
N12 C14 1.340 . S
C13 C7 1.416 . S
C13 C15 1.332 . S
C13 H21 0.931 . S
C14 N12 1.340 . S
C14 C15 1.407 . S
C14 H20 0.930 . S
C15 C13 1.332 . S
C15 C14 1.407 . S
C15 H17 0.929 . S
H16 C5 0.930 . S
H17 C15 0.929 . S
H18 C33 0.930 . S
H19 C40 0.929 . S
H20 C14 0.930 . S
H21 C13 0.931 . S
H22 C36 0.930 . S
H23 C3 0.930 . S
H24 C9 0.929 . S
H25 C10 0.930 . S
H26 C31 0.930 . S
H27 C6 0.930 . S
H28 C39 0.931 . S
N29 Tb0 2.617 . S
N29 C30 1.379 . S
N29 C33 1.334 . S
C30 N29 1.379 . S
C30 C32 1.416 . S
C30 C38 1.424 . S
C31 H26 0.930 . S
C31 C33 1.390 . S
C31 C34 1.339 . S
C32 C30 1.416 . S
C32 C34 1.416 . S
C32 C65 1.448 . S
C33 H18 0.930 . S
C33 N29 1.334 . S
C33 C31 1.390 . S
C34 C31 1.339 . S
C34 C32 1.416 . S
C34 H41 0.930 . S
N35 Tb0 2.572 . S
N35 C36 1.340 . S
N35 C38 1.361 . S
C36 H22 0.930 . S
C36 N35 1.340 . S
C36 C40 1.407 . S
C37 C38 1.413 . S
C37 C39 1.416 . S
C37 C66 1.427 . S
C38 C30 1.424 . S
C38 N35 1.361 . S
C38 C37 1.413 . S
C39 H28 0.931 . S
C39 C37 1.416 . S
C39 C40 1.332 . S
C40 H19 0.929 . S
C40 C36 1.407 . S
C40 C39 1.332 . S
H41 C34 0.930 . S
H42 C65 0.930 . S
H43 C66 0.929 . S
O44 Tb0 2.465 . S
O44 C64 1.264 . S
O45 Tb0 2.387 . S
O45 C56 1.264 . S
O46 Tb11 2.349 . S
O46 C56 1.243 . S
O47 Tb0 2.428 . S
O47 C64 1.256 . S
O48 Tb0 2.308 . S
O48 C63 1.266 . S
O49 Tb11 2.393 . S
O49 C63 1.248 . S
O50 Tb11 2.465 . S
O50 C75 1.264 . S
O51 Tb11 2.387 . S
O51 C67 1.264 . S
O52 Tb0 2.349 . S
O52 C67 1.243 . S
O53 Tb11 2.428 . S
O53 C75 1.256 . S
O54 Tb11 2.308 . S
O54 C74 1.266 . S
O55 Tb0 2.393 . S
O55 C74 1.248 . S
C56 O45 1.264 . S
C56 O46 1.243 . S
C57 C60 1.399 . S
C57 C62 1.383 . S
C57 C64 1.496 . S
C58 C59 1.399 . S
C58 C62 1.389 . S
C59 C58 1.399 . S
C59 C61 1.380 . S
C59 H76 0.929 . S
C60 C57 1.399 . S
C60 C61 1.392 . S
C60 H77 0.929 . S
C61 C59 1.380 . S
C61 C60 1.392 . S
C61 H78 0.929 . S
C62 C57 1.383 . S
C62 C58 1.389 . S
C62 H79 0.931 . S
C63 O48 1.266 . S
C63 O49 1.248 . S
C64 Tb0 2.802 . S
C64 O44 1.264 . S
C64 O47 1.256 . S
C64 C57 1.496 . S
C65 C32 1.448 . S
C65 H42 0.930 . S
C65 C66 1.328 . S
C66 C37 1.427 . S
C66 H43 0.929 . S
C66 C65 1.328 . S
C67 O51 1.264 . S
C67 O52 1.243 . S
C68 C71 1.399 . S
C68 C72 1.383 . S
C68 C75 1.496 . S
C69 C70 1.399 . S
C69 C72 1.389 . S
C70 C69 1.399 . S
C70 C73 1.380 . S
C70 H80 0.929 . S
C71 C68 1.399 . S
C71 C73 1.392 . S
C71 H81 0.929 . S
C72 C68 1.383 . S
C72 C69 1.389 . S
C72 H82 0.931 . S
C73 C70 1.380 . S
C73 C71 1.392 . S
C73 H83 0.929 . S
C74 O54 1.266 . S
C74 O55 1.248 . S
C75 Tb11 2.802 . S
C75 O50 1.264 . S
C75 O53 1.256 . S
C75 C68 1.496 . S
H76 C59 0.929 . S
H77 C60 0.929 . S
H78 C61 0.929 . S
H79 C62 0.931 . S
H80 C70 0.929 . S
H81 C71 0.929 . S
H82 C72 0.931 . S
H83 C73 0.929 . S
Tb84 N113 2.617 . S
Tb84 N119 2.572 . S
Tb84 O128 2.465 . S
Tb84 O129 2.387 . S
Tb84 O131 2.428 . S
Tb84 O132 2.308 . S
Tb84 O136 2.349 . S
Tb84 O139 2.393 . S
Tb84 C148 2.802 . S
C85 N86 1.379 . S
C85 C88 1.416 . S
C85 C92 1.424 . S
N86 C85 1.379 . S
N86 C89 1.334 . S
N86 Tb95 2.617 . S
C87 C89 1.390 . S
C87 C90 1.339 . S
C87 H107 0.930 . S
C88 C85 1.416 . S
C88 C90 1.416 . S
C88 C94 1.448 . S
C89 N86 1.334 . S
C89 C87 1.390 . S
C89 H100 0.930 . S
C90 C87 1.339 . S
C90 C88 1.416 . S
C90 H111 0.930 . S
C91 C92 1.413 . S
C91 C93 1.427 . S
C91 C97 1.416 . S
C92 C85 1.424 . S
C92 C91 1.413 . S
C92 N96 1.361 . S
C93 C91 1.427 . S
C93 C94 1.328 . S
C93 H108 0.929 . S
C94 C88 1.448 . S
C94 C93 1.328 . S
C94 H109 0.930 . S
Tb95 N86 2.617 . S
Tb95 N96 2.572 . S
Tb95 O130 2.349 . S
Tb95 O133 2.393 . S
Tb95 O134 2.465 . S
Tb95 O135 2.387 . S
Tb95 O137 2.428 . S
Tb95 O138 2.308 . S
Tb95 C159 2.802 . S
N96 C92 1.361 . S
N96 Tb95 2.572 . S
N96 C98 1.340 . S
C97 C91 1.416 . S
C97 C99 1.332 . S
C97 H105 0.931 . S
C98 N96 1.340 . S
C98 C99 1.407 . S
C98 H104 0.930 . S
C99 C97 1.332 . S
C99 C98 1.407 . S
C99 H101 0.929 . S
H100 C89 0.930 . S
H101 C99 0.929 . S
H102 C117 0.930 . S
H103 C124 0.929 . S
H104 C98 0.930 . S
H105 C97 0.931 . S
H106 C120 0.930 . S
H107 C87 0.930 . S
H108 C93 0.929 . S
H109 C94 0.930 . S
H110 C115 0.930 . S
H111 C90 0.930 . S
H112 C123 0.931 . S
N113 Tb84 2.617 . S
N113 C114 1.379 . S
N113 C117 1.334 . S
C114 N113 1.379 . S
C114 C116 1.416 . S
C114 C122 1.424 . S
C115 H110 0.930 . S
C115 C117 1.390 . S
C115 C118 1.339 . S
C116 C114 1.416 . S
C116 C118 1.416 . S
C116 C149 1.448 . S
C117 H102 0.930 . S
C117 N113 1.334 . S
C117 C115 1.390 . S
C118 C115 1.339 . S
C118 C116 1.416 . S
C118 H125 0.930 . S
N119 Tb84 2.572 . S
N119 C120 1.340 . S
N119 C122 1.361 . S
C120 H106 0.930 . S
C120 N119 1.340 . S
C120 C124 1.407 . S
C121 C122 1.413 . S
C121 C123 1.416 . S
C121 C150 1.427 . S
C122 C114 1.424 . S
C122 N119 1.361 . S
C122 C121 1.413 . S
C123 H112 0.931 . S
C123 C121 1.416 . S
C123 C124 1.332 . S
C124 H103 0.929 . S
C124 C120 1.407 . S
C124 C123 1.332 . S
H125 C118 0.930 . S
H126 C149 0.930 . S
H127 C150 0.929 . S
O128 Tb84 2.465 . S
O128 C148 1.264 . S
O129 Tb84 2.387 . S
O129 C140 1.264 . S
O130 Tb95 2.349 . S
O130 C140 1.243 . S
O131 Tb84 2.428 . S
O131 C148 1.256 . S
O132 Tb84 2.308 . S
O132 C147 1.266 . S
O133 Tb95 2.393 . S
O133 C147 1.248 . S
O134 Tb95 2.465 . S
O134 C159 1.264 . S
O135 Tb95 2.387 . S
O135 C151 1.264 . S
O136 Tb84 2.349 . S
O136 C151 1.243 . S
O137 Tb95 2.428 . S
O137 C159 1.256 . S
O138 Tb95 2.308 . S
O138 C158 1.266 . S
O139 Tb84 2.393 . S
O139 C158 1.248 . S
C140 O129 1.264 . S
C140 O130 1.243 . S
C141 C144 1.399 . S
C141 C146 1.383 . S
C141 C148 1.496 . S
C142 C143 1.399 . S
C142 C146 1.389 . S
C143 C142 1.399 . S
C143 C145 1.380 . S
C143 H160 0.929 . S
C144 C141 1.399 . S
C144 C145 1.392 . S
C144 H161 0.929 . S
C145 C143 1.380 . S
C145 C144 1.392 . S
C145 H162 0.929 . S
C146 C141 1.383 . S
C146 C142 1.389 . S
C146 H163 0.931 . S
C147 O132 1.266 . S
C147 O133 1.248 . S
C148 Tb84 2.802 . S
C148 O128 1.264 . S
C148 O131 1.256 . S
C148 C141 1.496 . S
C149 C116 1.448 . S
C149 H126 0.930 . S
C149 C150 1.328 . S
C150 C121 1.427 . S
C150 H127 0.929 . S
C150 C149 1.328 . S
C151 O135 1.264 . S
C151 O136 1.243 . S
C152 C155 1.399 . S
C152 C156 1.383 . S
C152 C159 1.496 . S
C153 C154 1.399 . S
C153 C156 1.389 . S
C154 C153 1.399 . S
C154 C157 1.380 . S
C154 H164 0.929 . S
C155 C152 1.399 . S
C155 C157 1.392 . S
C155 H165 0.929 . S
C156 C152 1.383 . S
C156 C153 1.389 . S
C156 H166 0.931 . S
C157 C154 1.380 . S
C157 C155 1.392 . S
C157 H167 0.929 . S
C158 O138 1.266 . S
C158 O139 1.248 . S
C159 Tb95 2.802 . S
C159 O134 1.264 . S
C159 O137 1.256 . S
C159 C152 1.496 . S
H160 C143 0.929 . S
H161 C144 0.929 . S
H162 C145 0.929 . S
H163 C146 0.931 . S
H164 C154 0.929 . S
H165 C155 0.929 . S
H166 C156 0.931 . S
H167 C157 0.929 . S
Tb168 N197 2.617 . S
Tb168 N203 2.572 . S
Tb168 O212 2.465 . S
Tb168 O213 2.387 . S
Tb168 O215 2.428 . S
Tb168 O216 2.308 . S
Tb168 O220 2.349 . S
Tb168 O223 2.393 . S
Tb168 C232 2.802 . S
C169 N170 1.379 . S
C169 C172 1.416 . S
C169 C176 1.424 . S
N170 C169 1.379 . S
N170 C173 1.334 . S
N170 Tb179 2.617 . S
C171 C173 1.390 . S
C171 C174 1.339 . S
C171 H191 0.930 . S
C172 C169 1.416 . S
C172 C174 1.416 . S
C172 C178 1.448 . S
C173 N170 1.334 . S
C173 C171 1.390 . S
C173 H184 0.930 . S
C174 C171 1.339 . S
C174 C172 1.416 . S
C174 H195 0.930 . S
C175 C176 1.413 . S
C175 C177 1.427 . S
C175 C181 1.416 . S
C176 C169 1.424 . S
C176 C175 1.413 . S
C176 N180 1.361 . S
C177 C175 1.427 . S
C177 C178 1.328 . S
C177 H192 0.929 . S
C178 C172 1.448 . S
C178 C177 1.328 . S
C178 H193 0.930 . S
Tb179 N170 2.617 . S
Tb179 N180 2.572 . S
Tb179 O214 2.349 . S
Tb179 O217 2.393 . S
Tb179 O218 2.465 . S
Tb179 O219 2.387 . S
Tb179 O221 2.428 . S
Tb179 O222 2.308 . S
Tb179 C243 2.802 . S
N180 C176 1.361 . S
N180 Tb179 2.572 . S
N180 C182 1.340 . S
C181 C175 1.416 . S
C181 C183 1.332 . S
C181 H189 0.931 . S
C182 N180 1.340 . S
C182 C183 1.407 . S
C182 H188 0.930 . S
C183 C181 1.332 . S
C183 C182 1.407 . S
C183 H185 0.929 . S
H184 C173 0.930 . S
H185 C183 0.929 . S
H186 C201 0.930 . S
H187 C208 0.929 . S
H188 C182 0.930 . S
H189 C181 0.931 . S
H190 C204 0.930 . S
H191 C171 0.930 . S
H192 C177 0.929 . S
H193 C178 0.930 . S
H194 C199 0.930 . S
H195 C174 0.930 . S
H196 C207 0.931 . S
N197 Tb168 2.617 . S
N197 C198 1.379 . S
N197 C201 1.334 . S
C198 N197 1.379 . S
C198 C200 1.416 . S
C198 C206 1.424 . S
C199 H194 0.930 . S
C199 C201 1.390 . S
C199 C202 1.339 . S
C200 C198 1.416 . S
C200 C202 1.416 . S
C200 C233 1.448 . S
C201 H186 0.930 . S
C201 N197 1.334 . S
C201 C199 1.390 . S
C202 C199 1.339 . S
C202 C200 1.416 . S
C202 H209 0.930 . S
N203 Tb168 2.572 . S
N203 C204 1.340 . S
N203 C206 1.361 . S
C204 H190 0.930 . S
C204 N203 1.340 . S
C204 C208 1.407 . S
C205 C206 1.413 . S
C205 C207 1.416 . S
C205 C234 1.427 . S
C206 C198 1.424 . S
C206 N203 1.361 . S
C206 C205 1.413 . S
C207 H196 0.931 . S
C207 C205 1.416 . S
C207 C208 1.332 . S
C208 H187 0.929 . S
C208 C204 1.407 . S
C208 C207 1.332 . S
H209 C202 0.930 . S
H210 C233 0.930 . S
H211 C234 0.929 . S
O212 Tb168 2.465 . S
O212 C232 1.264 . S
O213 Tb168 2.387 . S
O213 C224 1.264 . S
O214 Tb179 2.349 . S
O214 C224 1.243 . S
O215 Tb168 2.428 . S
O215 C232 1.256 . S
O216 Tb168 2.308 . S
O216 C231 1.266 . S
O217 Tb179 2.393 . S
O217 C231 1.248 . S
O218 Tb179 2.465 . S
O218 C243 1.264 . S
O219 Tb179 2.387 . S
O219 C235 1.264 . S
O220 Tb168 2.349 . S
O220 C235 1.243 . S
O221 Tb179 2.428 . S
O221 C243 1.256 . S
O222 Tb179 2.308 . S
O222 C242 1.266 . S
O223 Tb168 2.393 . S
O223 C242 1.248 . S
C224 O213 1.264 . S
C224 O214 1.243 . S
C225 C228 1.399 . S
C225 C230 1.383 . S
C225 C232 1.496 . S
C226 C227 1.399 . S
C226 C230 1.389 . S
C227 C226 1.399 . S
C227 C229 1.380 . S
C227 H244 0.929 . S
C228 C225 1.399 . S
C228 C229 1.392 . S
C228 H245 0.929 . S
C229 C227 1.380 . S
C229 C228 1.392 . S
C229 H246 0.929 . S
C230 C225 1.383 . S
C230 C226 1.389 . S
C230 H247 0.931 . S
C231 O216 1.266 . S
C231 O217 1.248 . S
C232 Tb168 2.802 . S
C232 O212 1.264 . S
C232 O215 1.256 . S
C232 C225 1.496 . S
C233 C200 1.448 . S
C233 H210 0.930 . S
C233 C234 1.328 . S
C234 C205 1.427 . S
C234 H211 0.929 . S
C234 C233 1.328 . S
C235 O219 1.264 . S
C235 O220 1.243 . S
C236 C239 1.399 . S
C236 C240 1.383 . S
C236 C243 1.496 . S
C237 C238 1.399 . S
C237 C240 1.389 . S
C238 C237 1.399 . S
C238 C241 1.380 . S
C238 H248 0.929 . S
C239 C236 1.399 . S
C239 C241 1.392 . S
C239 H249 0.929 . S
C240 C236 1.383 . S
C240 C237 1.389 . S
C240 H250 0.931 . S
C241 C238 1.380 . S
C241 C239 1.392 . S
C241 H251 0.929 . S
C242 O222 1.266 . S
C242 O223 1.248 . S
C243 Tb179 2.802 . S
C243 O218 1.264 . S
C243 O221 1.256 . S
C243 C236 1.496 . S
H244 C227 0.929 . S
H245 C228 0.929 . S
H246 C229 0.929 . S
H247 C230 0.931 . S
H248 C238 0.929 . S
H249 C239 0.929 . S
H250 C240 0.931 . S
H251 C241 0.929 . S
Tb252 N281 2.617 . S
Tb252 N287 2.572 . S
Tb252 O296 2.465 . S
Tb252 O297 2.387 . S
Tb252 O299 2.428 . S
Tb252 O300 2.308 . S
Tb252 O304 2.349 . S
Tb252 O307 2.393 . S
Tb252 C316 2.802 . S
C253 N254 1.379 . S
C253 C256 1.416 . S
C253 C260 1.424 . S
N254 C253 1.379 . S
N254 C257 1.334 . S
N254 Tb263 2.617 . S
C255 C257 1.390 . S
C255 C258 1.339 . S
C255 H275 0.930 . S
C256 C253 1.416 . S
C256 C258 1.416 . S
C256 C262 1.448 . S
C257 N254 1.334 . S
C257 C255 1.390 . S
C257 H268 0.930 . S
C258 C255 1.339 . S
C258 C256 1.416 . S
C258 H279 0.930 . S
C259 C260 1.413 . S
C259 C261 1.427 . S
C259 C265 1.416 . S
C260 C253 1.424 . S
C260 C259 1.413 . S
C260 N264 1.361 . S
C261 C259 1.427 . S
C261 C262 1.328 . S
C261 H276 0.929 . S
C262 C256 1.448 . S
C262 C261 1.328 . S
C262 H277 0.930 . S
Tb263 N254 2.617 . S
Tb263 N264 2.572 . S
Tb263 O298 2.349 . S
Tb263 O301 2.393 . S
Tb263 O302 2.465 . S
Tb263 O303 2.387 . S
Tb263 O305 2.428 . S
Tb263 O306 2.308 . S
Tb263 C327 2.802 . S
N264 C260 1.361 . S
N264 Tb263 2.572 . S
N264 C266 1.340 . S
C265 C259 1.416 . S
C265 C267 1.332 . S
C265 H273 0.931 . S
C266 N264 1.340 . S
C266 C267 1.407 . S
C266 H272 0.930 . S
C267 C265 1.332 . S
C267 C266 1.407 . S
C267 H269 0.929 . S
H268 C257 0.930 . S
H269 C267 0.929 . S
H270 C285 0.930 . S
H271 C292 0.929 . S
H272 C266 0.930 . S
H273 C265 0.931 . S
H274 C288 0.930 . S
H275 C255 0.930 . S
H276 C261 0.929 . S
H277 C262 0.930 . S
H278 C283 0.930 . S
H279 C258 0.930 . S
H280 C291 0.931 . S
N281 Tb252 2.617 . S
N281 C282 1.379 . S
N281 C285 1.334 . S
C282 N281 1.379 . S
C282 C284 1.416 . S
C282 C290 1.424 . S
C283 H278 0.930 . S
C283 C285 1.390 . S
C283 C286 1.339 . S
C284 C282 1.416 . S
C284 C286 1.416 . S
C284 C317 1.448 . S
C285 H270 0.930 . S
C285 N281 1.334 . S
C285 C283 1.390 . S
C286 C283 1.339 . S
C286 C284 1.416 . S
C286 H293 0.930 . S
N287 Tb252 2.572 . S
N287 C288 1.340 . S
N287 C290 1.361 . S
C288 H274 0.930 . S
C288 N287 1.340 . S
C288 C292 1.407 . S
C289 C290 1.413 . S
C289 C291 1.416 . S
C289 C318 1.427 . S
C290 C282 1.424 . S
C290 N287 1.361 . S
C290 C289 1.413 . S
C291 H280 0.931 . S
C291 C289 1.416 . S
C291 C292 1.332 . S
C292 H271 0.929 . S
C292 C288 1.407 . S
C292 C291 1.332 . S
H293 C286 0.930 . S
H294 C317 0.930 . S
H295 C318 0.929 . S
O296 Tb252 2.465 . S
O296 C316 1.264 . S
O297 Tb252 2.387 . S
O297 C308 1.264 . S
O298 Tb263 2.349 . S
O298 C308 1.243 . S
O299 Tb252 2.428 . S
O299 C316 1.256 . S
O300 Tb252 2.308 . S
O300 C315 1.266 . S
O301 Tb263 2.393 . S
O301 C315 1.248 . S
O302 Tb263 2.465 . S
O302 C327 1.264 . S
O303 Tb263 2.387 . S
O303 C319 1.264 . S
O304 Tb252 2.349 . S
O304 C319 1.243 . S
O305 Tb263 2.428 . S
O305 C327 1.256 . S
O306 Tb263 2.308 . S
O306 C326 1.266 . S
O307 Tb252 2.393 . S
O307 C326 1.248 . S
C308 O297 1.264 . S
C308 O298 1.243 . S
C309 C312 1.399 . S
C309 C314 1.383 . S
C309 C316 1.496 . S
C310 C311 1.399 . S
C310 C314 1.389 . S
C311 C310 1.399 . S
C311 C313 1.380 . S
C311 H328 0.929 . S
C312 C309 1.399 . S
C312 C313 1.392 . S
C312 H329 0.929 . S
C313 C311 1.380 . S
C313 C312 1.392 . S
C313 H330 0.929 . S
C314 C309 1.383 . S
C314 C310 1.389 . S
C314 H331 0.931 . S
C315 O300 1.266 . S
C315 O301 1.248 . S
C316 Tb252 2.802 . S
C316 O296 1.264 . S
C316 O299 1.256 . S
C316 C309 1.496 . S
C317 C284 1.448 . S
C317 H294 0.930 . S
C317 C318 1.328 . S
C318 C289 1.427 . S
C318 H295 0.929 . S
C318 C317 1.328 . S
C319 O303 1.264 . S
C319 O304 1.243 . S
C320 C323 1.399 . S
C320 C324 1.383 . S
C320 C327 1.496 . S
C321 C322 1.399 . S
C321 C324 1.389 . S
C322 C321 1.399 . S
C322 C325 1.380 . S
C322 H332 0.929 . S
C323 C320 1.399 . S
C323 C325 1.392 . S
C323 H333 0.929 . S
C324 C320 1.383 . S
C324 C321 1.389 . S
C324 H334 0.931 . S
C325 C322 1.380 . S
C325 C323 1.392 . S
C325 H335 0.929 . S
C326 O306 1.266 . S
C326 O307 1.248 . S
C327 Tb263 2.802 . S
C327 O302 1.264 . S
C327 O305 1.256 . S
C327 C320 1.496 . S
H328 C311 0.929 . S
H329 C312 0.929 . S
H330 C313 0.929 . S
H331 C314 0.931 . S
H332 C322 0.929 . S
H333 C323 0.929 . S
H334 C324 0.931 . S
H335 C325 0.929 . S
Tb336 N365 2.617 . S
Tb336 N371 2.572 . S
Tb336 O380 2.465 . S
Tb336 O381 2.387 . S
Tb336 O383 2.428 . S
Tb336 O384 2.308 . S
Tb336 O388 2.349 . S
Tb336 O391 2.393 . S
Tb336 C400 2.802 . S
C337 N338 1.379 . S
C337 C340 1.416 . S
C337 C344 1.424 . S
N338 C337 1.379 . S
N338 C341 1.334 . S
N338 Tb347 2.617 . S
C339 C341 1.390 . S
C339 C342 1.339 . S
C339 H359 0.930 . S
C340 C337 1.416 . S
C340 C342 1.416 . S
C340 C346 1.448 . S
C341 N338 1.334 . S
C341 C339 1.390 . S
C341 H352 0.930 . S
C342 C339 1.339 . S
C342 C340 1.416 . S
C342 H363 0.930 . S
C343 C344 1.413 . S
C343 C345 1.427 . S
C343 C349 1.416 . S
C344 C337 1.424 . S
C344 C343 1.413 . S
C344 N348 1.361 . S
C345 C343 1.427 . S
C345 C346 1.328 . S
C345 H360 0.929 . S
C346 C340 1.448 . S
C346 C345 1.328 . S
C346 H361 0.930 . S
Tb347 N338 2.617 . S
Tb347 N348 2.572 . S
Tb347 O382 2.349 . S
Tb347 O385 2.393 . S
Tb347 O386 2.465 . S
Tb347 O387 2.387 . S
Tb347 O389 2.428 . S
Tb347 O390 2.308 . S
Tb347 C411 2.802 . S
N348 C344 1.361 . S
N348 Tb347 2.572 . S
N348 C350 1.340 . S
C349 C343 1.416 . S
C349 C351 1.332 . S
C349 H357 0.931 . S
C350 N348 1.340 . S
C350 C351 1.407 . S
C350 H356 0.930 . S
C351 C349 1.332 . S
C351 C350 1.407 . S
C351 H353 0.929 . S
H352 C341 0.930 . S
H353 C351 0.929 . S
H354 C369 0.930 . S
H355 C376 0.929 . S
H356 C350 0.930 . S
H357 C349 0.931 . S
H358 C372 0.930 . S
H359 C339 0.930 . S
H360 C345 0.929 . S
H361 C346 0.930 . S
H362 C367 0.930 . S
H363 C342 0.930 . S
H364 C375 0.931 . S
N365 Tb336 2.617 . S
N365 C366 1.379 . S
N365 C369 1.334 . S
C366 N365 1.379 . S
C366 C368 1.416 . S
C366 C374 1.424 . S
C367 H362 0.930 . S
C367 C369 1.390 1_554 S
C367 C370 1.339 . S
C368 C366 1.416 . S
C368 C370 1.416 1_556 S
C368 C401 1.448 1_556 S
C369 H354 0.930 . S
C369 N365 1.334 . S
C369 C367 1.390 1_556 S
C370 C367 1.339 . S
C370 C368 1.416 1_554 S
C370 H377 0.930 . S
N371 Tb336 2.572 . S
N371 C372 1.340 . S
N371 C374 1.361 . S
C372 H358 0.930 . S
C372 N371 1.340 . S
C372 C376 1.407 . S
C373 C374 1.413 . S
C373 C375 1.416 . S
C373 C402 1.427 . S
C374 C366 1.424 . S
C374 N371 1.361 . S
C374 C373 1.413 . S
C375 H364 0.931 . S
C375 C373 1.416 . S
C375 C376 1.332 . S
C376 H355 0.929 . S
C376 C372 1.407 . S
C376 C375 1.332 . S
H377 C370 0.930 . S
H378 C401 0.930 . S
H379 C402 0.936 . S
O380 Tb336 2.465 . S
O380 C400 1.264 . S
O381 Tb336 2.387 . S
O381 C392 1.264 . S
O382 Tb347 2.349 . S
O382 C392 1.243 . S
O383 Tb336 2.428 . S
O383 C400 1.256 . S
O384 Tb336 2.308 . S
O384 C399 1.266 . S
O385 Tb347 2.393 . S
O385 C399 1.248 . S
O386 Tb347 2.465 . S
O386 C411 1.264 . S
O387 Tb347 2.387 . S
O387 C403 1.264 . S
O388 Tb336 2.349 . S
O388 C403 1.243 . S
O389 Tb347 2.428 . S
O389 C411 1.256 . S
O390 Tb347 2.308 . S
O390 C410 1.266 . S
O391 Tb336 2.393 . S
O391 C410 1.248 . S
C392 O381 1.264 . S
C392 O382 1.243 . S
C393 C396 1.399 . S
C393 C398 1.383 . S
C393 C400 1.496 . S
C394 C395 1.399 . S
C394 C398 1.389 . S
C395 C394 1.399 . S
C395 C397 1.380 . S
C395 H412 0.929 . S
C396 C393 1.399 . S
C396 C397 1.392 . S
C396 H413 0.929 . S
C397 C395 1.380 . S
C397 C396 1.392 . S
C397 H414 0.929 . S
C398 C393 1.383 . S
C398 C394 1.389 . S
C398 H415 0.931 . S
C399 O384 1.266 . S
C399 O385 1.248 . S
C400 Tb336 2.802 . S
C400 O380 1.264 . S
C400 O383 1.256 . S
C400 C393 1.496 . S
C401 C368 1.448 1_554 S
C401 H378 0.930 . S
C401 C402 1.328 1_554 S
C402 C373 1.427 . S
C402 H379 0.936 . S
C402 C401 1.328 1_556 S
C403 O387 1.264 . S
C403 O388 1.243 . S
C404 C407 1.399 . S
C404 C408 1.383 . S
C404 C411 1.496 . S
C405 C406 1.399 . S
C405 C408 1.389 . S
C406 C405 1.399 . S
C406 C409 1.380 . S
C406 H416 0.929 . S
C407 C404 1.399 . S
C407 C409 1.392 . S
C407 H417 0.929 . S
C408 C404 1.383 . S
C408 C405 1.389 . S
C408 H418 0.931 . S
C409 C406 1.380 . S
C409 C407 1.392 . S
C409 H419 0.929 . S
C410 O390 1.266 . S
C410 O391 1.248 . S
C411 Tb347 2.802 . S
C411 O386 1.264 . S
C411 O389 1.256 . S
C411 C404 1.496 . S
H412 C395 0.929 . S
H413 C396 0.929 . S
H414 C397 0.929 . S
H415 C398 0.931 . S
H416 C406 0.929 . S
H417 C407 0.929 . S
H418 C408 0.931 . S
H419 C409 0.929 . S
Tb420 N449 2.617 . S
Tb420 N455 2.572 . S
Tb420 O464 2.465 . S
Tb420 O465 2.387 . S
Tb420 O467 2.428 . S
Tb420 O468 2.308 . S
Tb420 O472 2.349 . S
Tb420 O475 2.393 . S
Tb420 C484 2.802 . S
C421 N422 1.379 . S
C421 C424 1.416 . S
C421 C428 1.424 . S
N422 C421 1.379 . S
N422 C425 1.334 . S
N422 Tb431 2.617 . S
C423 C425 1.390 . S
C423 C426 1.339 . S
C423 H443 0.930 . S
C424 C421 1.416 . S
C424 C426 1.416 . S
C424 C430 1.448 . S
C425 N422 1.334 . S
C425 C423 1.390 . S
C425 H436 0.930 . S
C426 C423 1.339 . S
C426 C424 1.416 . S
C426 H447 0.930 . S
C427 C428 1.413 . S
C427 C429 1.427 . S
C427 C433 1.416 . S
C428 C421 1.424 . S
C428 C427 1.413 . S
C428 N432 1.361 . S
C429 C427 1.427 . S
C429 C430 1.328 . S
C429 H444 0.929 . S
C430 C424 1.448 . S
C430 C429 1.328 . S
C430 H445 0.930 . S
Tb431 N422 2.617 . S
Tb431 N432 2.572 . S
Tb431 O466 2.349 . S
Tb431 O469 2.393 . S
Tb431 O470 2.465 . S
Tb431 O471 2.387 . S
Tb431 O473 2.428 . S
Tb431 O474 2.308 . S
Tb431 C495 2.802 . S
N432 C428 1.361 . S
N432 Tb431 2.572 . S
N432 C434 1.340 . S
C433 C427 1.416 . S
C433 C435 1.332 . S
C433 H441 0.931 . S
C434 N432 1.340 . S
C434 C435 1.407 . S
C434 H440 0.930 . S
C435 C433 1.332 . S
C435 C434 1.407 . S
C435 H437 0.929 . S
H436 C425 0.930 . S
H437 C435 0.929 . S
H438 C453 0.930 . S
H439 C460 0.929 . S
H440 C434 0.930 . S
H441 C433 0.931 . S
H442 C456 0.930 . S
H443 C423 0.930 . S
H444 C429 0.929 . S
H445 C430 0.930 . S
H446 C451 0.930 . S
H447 C426 0.930 . S
H448 C459 0.931 . S
N449 Tb420 2.617 . S
N449 C450 1.379 . S
N449 C453 1.334 . S
C450 N449 1.379 . S
C450 C452 1.445 . S
C450 C458 1.424 . S
C451 H446 0.930 . S
C451 C453 1.390 1_556 S
C451 C454 1.339 . S
C452 C450 1.445 . S
C452 C454 1.399 1_554 S
C452 C485 1.438 1_554 S
C453 H438 0.930 . S
C453 N449 1.334 . S
C453 C451 1.390 1_554 S
C454 C451 1.339 . S
C454 C452 1.399 1_556 S
C454 H461 0.930 . S
N455 Tb420 2.572 . S
N455 C456 1.340 . S
N455 C458 1.361 . S
C456 H442 0.930 . S
C456 N455 1.340 . S
C456 C460 1.407 . S
C457 C458 1.413 . S
C457 C459 1.416 . S
C457 C486 1.427 . S
C458 C450 1.424 . S
C458 N455 1.361 . S
C458 C457 1.413 . S
C459 H448 0.931 . S
C459 C457 1.416 . S
C459 C460 1.332 . S
C460 H439 0.929 . S
C460 C456 1.407 . S
C460 C459 1.332 . S
H461 C454 0.930 . S
H462 C485 0.930 . S
H463 C486 0.926 1_556 S
O464 Tb420 2.465 . S
O464 C484 1.264 . S
O465 Tb420 2.387 . S
O465 C476 1.264 . S
O466 Tb431 2.349 . S
O466 C476 1.243 . S
O467 Tb420 2.428 . S
O467 C484 1.256 . S
O468 Tb420 2.308 . S
O468 C483 1.266 . S
O469 Tb431 2.393 . S
O469 C483 1.248 . S
O470 Tb431 2.465 . S
O470 C495 1.264 . S
O471 Tb431 2.387 . S
O471 C487 1.264 . S
O472 Tb420 2.349 . S
O472 C487 1.243 . S
O473 Tb431 2.428 . S
O473 C495 1.256 . S
O474 Tb431 2.308 . S
O474 C494 1.266 . S
O475 Tb420 2.393 . S
O475 C494 1.248 . S
C476 O465 1.264 . S
C476 O466 1.243 . S
C477 C480 1.399 . S
C477 C482 1.383 . S
C477 C484 1.496 . S
C478 C479 1.399 . S
C478 C482 1.389 . S
C479 C478 1.399 . S
C479 C481 1.380 . S
C479 H496 0.929 . S
C480 C477 1.399 . S
C480 C481 1.392 . S
C480 H497 0.929 . S
C481 C479 1.380 . S
C481 C480 1.392 . S
C481 H498 0.929 . S
C482 C477 1.383 . S
C482 C478 1.389 . S
C482 H499 0.931 . S
C483 O468 1.266 . S
C483 O469 1.248 . S
C484 Tb420 2.802 . S
C484 O464 1.264 . S
C484 O467 1.256 . S
C484 C477 1.496 . S
C485 C452 1.438 1_556 S
C485 H462 0.930 . S
C485 C486 1.328 1_556 S
C486 C457 1.427 . S
C486 H463 0.926 1_554 S
C486 C485 1.328 1_554 S
C487 O471 1.264 . S
C487 O472 1.243 . S
C488 C491 1.399 . S
C488 C492 1.383 . S
C488 C495 1.496 . S
C489 C490 1.399 . S
C489 C492 1.389 . S
C490 C489 1.399 . S
C490 C493 1.380 . S
C490 H500 0.929 . S
C491 C488 1.399 . S
C491 C493 1.392 . S
C491 H501 0.929 . S
C492 C488 1.383 . S
C492 C489 1.389 . S
C492 H502 0.931 . S
C493 C490 1.380 . S
C493 C491 1.392 . S
C493 H503 0.929 . S
C494 O474 1.266 . S
C494 O475 1.248 . S
C495 Tb431 2.802 . S
C495 O470 1.264 . S
C495 O473 1.256 . S
C495 C488 1.496 . S
H496 C479 0.929 . S
H497 C480 0.929 . S
H498 C481 0.929 . S
H499 C482 0.931 . S
H500 C490 0.929 . S
H501 C491 0.929 . S
H502 C492 0.931 . S
H503 C493 0.929 . S
Tb504 N533 2.617 . S
Tb504 N539 2.572 . S
Tb504 O548 2.465 . S
Tb504 O549 2.387 . S
Tb504 O551 2.428 . S
Tb504 O552 2.308 . S
Tb504 O556 2.349 . S
Tb504 O559 2.393 . S
Tb504 C568 2.802 . S
C505 N506 1.379 . S
C505 C508 1.416 . S
C505 C512 1.424 . S
N506 C505 1.379 . S
N506 C509 1.334 . S
N506 Tb515 2.617 . S
C507 C509 1.390 . S
C507 C510 1.339 . S
C507 H527 0.930 . S
C508 C505 1.416 . S
C508 C510 1.416 . S
C508 C514 1.448 . S
C509 N506 1.334 . S
C509 C507 1.390 . S
C509 H520 0.930 . S
C510 C507 1.339 . S
C510 C508 1.416 . S
C510 H531 0.930 . S
C511 C512 1.413 . S
C511 C513 1.427 . S
C511 C517 1.416 . S
C512 C505 1.424 . S
C512 C511 1.413 . S
C512 N516 1.361 . S
C513 C511 1.427 . S
C513 C514 1.328 . S
C513 H528 0.929 . S
C514 C508 1.448 . S
C514 C513 1.328 . S
C514 H529 0.930 . S
Tb515 N506 2.617 . S
Tb515 N516 2.572 . S
Tb515 O550 2.349 . S
Tb515 O553 2.393 . S
Tb515 O554 2.465 . S
Tb515 O555 2.387 . S
Tb515 O557 2.428 . S
Tb515 O558 2.308 . S
Tb515 C579 2.802 . S
N516 C512 1.361 . S
N516 Tb515 2.572 . S
N516 C518 1.340 . S
C517 C511 1.416 . S
C517 C519 1.332 . S
C517 H525 0.931 . S
C518 N516 1.340 . S
C518 C519 1.407 . S
C518 H524 0.930 . S
C519 C517 1.332 . S
C519 C518 1.407 . S
C519 H521 0.929 . S
H520 C509 0.930 . S
H521 C519 0.929 . S
H522 C537 0.930 . S
H523 C544 0.929 . S
H524 C518 0.930 . S
H525 C517 0.931 . S
H526 C540 0.930 . S
H527 C507 0.930 . S
H528 C513 0.929 . S
H529 C514 0.930 . S
H530 C535 0.930 . S
H531 C510 0.930 . S
H532 C543 0.931 . S
N533 Tb504 2.617 . S
N533 C534 1.379 . S
N533 C537 1.334 . S
C534 N533 1.379 . S
C534 C536 1.416 . S
C534 C542 1.424 . S
C535 H530 0.930 . S
C535 C537 1.390 1_554 S
C535 C538 1.339 . S
C536 C534 1.416 . S
C536 C538 1.416 1_556 S
C536 C569 1.448 1_556 S
C537 H522 0.930 . S
C537 N533 1.334 . S
C537 C535 1.390 1_556 S
C538 C535 1.339 . S
C538 C536 1.416 1_554 S
C538 H545 0.930 . S
N539 Tb504 2.572 . S
N539 C540 1.340 . S
N539 C542 1.361 . S
C540 H526 0.930 . S
C540 N539 1.340 . S
C540 C544 1.407 . S
C541 C542 1.413 . S
C541 C543 1.416 . S
C541 C570 1.427 . S
C542 C534 1.424 . S
C542 N539 1.361 . S
C542 C541 1.413 . S
C543 H532 0.931 . S
C543 C541 1.416 . S
C543 C544 1.332 . S
C544 H523 0.929 . S
C544 C540 1.407 . S
C544 C543 1.332 . S
H545 C538 0.930 . S
H546 C569 0.930 . S
H547 C570 0.922 1_554 S
O548 Tb504 2.465 . S
O548 C568 1.264 . S
O549 Tb504 2.387 . S
O549 C560 1.264 . S
O550 Tb515 2.349 . S
O550 C560 1.243 . S
O551 Tb504 2.428 . S
O551 C568 1.256 . S
O552 Tb504 2.308 . S
O552 C567 1.266 . S
O553 Tb515 2.393 . S
O553 C567 1.248 . S
O554 Tb515 2.465 . S
O554 C579 1.264 . S
O555 Tb515 2.387 . S
O555 C571 1.264 . S
O556 Tb504 2.349 . S
O556 C571 1.243 . S
O557 Tb515 2.428 . S
O557 C579 1.256 . S
O558 Tb515 2.308 . S
O558 C578 1.266 . S
O559 Tb504 2.393 . S
O559 C578 1.248 . S
C560 O549 1.264 . S
C560 O550 1.243 . S
C561 C564 1.399 . S
C561 C566 1.383 . S
C561 C568 1.496 . S
C562 C563 1.399 . S
C562 C566 1.389 . S
C563 C562 1.399 . S
C563 C565 1.380 . S
C563 H580 0.929 . S
C564 C561 1.399 . S
C564 C565 1.392 . S
C564 H581 0.929 . S
C565 C563 1.380 . S
C565 C564 1.392 . S
C565 H582 0.929 . S
C566 C561 1.383 . S
C566 C562 1.389 . S
C566 H583 0.931 . S
C567 O552 1.266 . S
C567 O553 1.248 . S
C568 Tb504 2.802 . S
C568 O548 1.264 . S
C568 O551 1.256 . S
C568 C561 1.496 . S
C569 C536 1.448 1_554 S
C569 H546 0.930 . S
C569 C570 1.328 1_554 S
C570 C541 1.427 . S
C570 H547 0.922 1_556 S
C570 C569 1.328 1_556 S
C571 O555 1.264 . S
C571 O556 1.243 . S
C572 C575 1.399 . S
C572 C576 1.383 . S
C572 C579 1.496 . S
C573 C574 1.399 . S
C573 C576 1.389 . S
C574 C573 1.399 . S
C574 C577 1.380 . S
C574 H584 0.929 . S
C575 C572 1.399 . S
C575 C577 1.392 . S
C575 H585 0.929 . S
C576 C572 1.383 . S
C576 C573 1.389 . S
C576 H586 0.931 . S
C577 C574 1.380 . S
C577 C575 1.392 . S
C577 H587 0.929 . S
C578 O558 1.266 . S
C578 O559 1.248 . S
C579 Tb515 2.802 . S
C579 O554 1.264 . S
C579 O557 1.256 . S
C579 C572 1.496 . S
H580 C563 0.929 . S
H581 C564 0.929 . S
H582 C565 0.929 . S
H583 C566 0.931 . S
H584 C574 0.929 . S
H585 C575 0.929 . S
H586 C576 0.931 . S
H587 C577 0.929 . S
Tb588 N617 2.617 . S
Tb588 N623 2.572 . S
Tb588 O632 2.465 . S
Tb588 O633 2.387 . S
Tb588 O635 2.428 . S
Tb588 O636 2.308 . S
Tb588 O640 2.349 . S
Tb588 O643 2.393 . S
Tb588 C652 2.802 . S
C589 N590 1.379 . S
C589 C592 1.416 . S
C589 C596 1.424 . S
N590 C589 1.379 . S
N590 C593 1.334 . S
N590 Tb599 2.617 . S
C591 C593 1.390 1_556 S
C591 C594 1.339 . S
C591 H611 0.930 . S
C592 C589 1.416 . S
C592 C594 1.416 1_554 S
C592 C598 1.448 1_554 S
C593 N590 1.334 . S
C593 C591 1.390 1_554 S
C593 H604 0.930 . S
C594 C591 1.339 . S
C594 C592 1.416 1_556 S
C594 H615 0.930 . S
C595 C596 1.413 . S
C595 C597 1.427 . S
C595 C601 1.416 . S
C596 C589 1.424 . S
C596 C595 1.413 . S
C596 N600 1.361 . S
C597 C595 1.427 . S
C597 C598 1.328 1_554 S
C597 H612 0.942 . S
C598 C592 1.448 1_556 S
C598 C597 1.328 1_556 S
C598 H613 0.930 . S
Tb599 N590 2.617 . S
Tb599 N600 2.572 . S
Tb599 O634 2.349 . S
Tb599 O637 2.393 . S
Tb599 O638 2.465 . S
Tb599 O639 2.387 . S
Tb599 O641 2.428 . S
Tb599 O642 2.308 . S
Tb599 C663 2.802 . S
N600 C596 1.361 . S
N600 Tb599 2.572 . S
N600 C602 1.340 . S
C601 C595 1.416 . S
C601 C603 1.332 . S
C601 H609 0.931 . S
C602 N600 1.340 . S
C602 C603 1.407 . S
C602 H608 0.930 . S
C603 C601 1.332 . S
C603 C602 1.407 . S
C603 H605 0.929 . S
H604 C593 0.930 . S
H605 C603 0.929 . S
H606 C621 0.930 . S
H607 C628 0.929 . S
H608 C602 0.930 . S
H609 C601 0.931 . S
H610 C624 0.930 . S
H611 C591 0.930 . S
H612 C597 0.942 . S
H613 C598 0.930 . S
H614 C619 0.930 . S
H615 C594 0.930 . S
H616 C627 0.931 . S
N617 Tb588 2.617 . S
N617 C618 1.379 . S
N617 C621 1.334 . S
C618 N617 1.379 . S
C618 C620 1.416 . S
C618 C626 1.424 . S
C619 H614 0.930 . S
C619 C621 1.390 . S
C619 C622 1.339 . S
C620 C618 1.416 . S
C620 C622 1.416 . S
C620 C653 1.448 . S
C621 H606 0.930 . S
C621 N617 1.334 . S
C621 C619 1.390 . S
C622 C619 1.339 . S
C622 C620 1.416 . S
C622 H629 0.930 . S
N623 Tb588 2.572 . S
N623 C624 1.340 . S
N623 C626 1.361 . S
C624 H610 0.930 . S
C624 N623 1.340 . S
C624 C628 1.407 . S
C625 C626 1.413 . S
C625 C627 1.416 . S
C625 C654 1.427 . S
C626 C618 1.424 . S
C626 N623 1.361 . S
C626 C625 1.413 . S
C627 H616 0.931 . S
C627 C625 1.416 . S
C627 C628 1.332 . S
C628 H607 0.929 . S
C628 C624 1.407 . S
C628 C627 1.332 . S
H629 C622 0.930 . S
H630 C653 0.930 . S
H631 C654 0.929 . S
O632 Tb588 2.465 . S
O632 C652 1.264 . S
O633 Tb588 2.387 . S
O633 C644 1.264 . S
O634 Tb599 2.349 . S
O634 C644 1.243 . S
O635 Tb588 2.428 . S
O635 C652 1.256 . S
O636 Tb588 2.308 . S
O636 C651 1.266 . S
O637 Tb599 2.393 . S
O637 C651 1.248 . S
O638 Tb599 2.465 . S
O638 C663 1.264 . S
O639 Tb599 2.387 . S
O639 C655 1.264 . S
O640 Tb588 2.349 . S
O640 C655 1.243 . S
O641 Tb599 2.428 . S
O641 C663 1.256 . S
O642 Tb599 2.308 . S
O642 C662 1.266 . S
O643 Tb588 2.393 . S
O643 C662 1.248 . S
C644 O633 1.264 . S
C644 O634 1.243 . S
C645 C648 1.399 . S
C645 C650 1.383 . S
C645 C652 1.496 . S
C646 C647 1.399 . S
C646 C650 1.389 . S
C647 C646 1.399 . S
C647 C649 1.380 . S
C647 H664 0.929 . S
C648 C645 1.399 . S
C648 C649 1.392 . S
C648 H665 0.929 . S
C649 C647 1.380 . S
C649 C648 1.392 . S
C649 H666 0.929 . S
C650 C645 1.383 . S
C650 C646 1.389 . S
C650 H667 0.931 . S
C651 O636 1.266 . S
C651 O637 1.248 . S
C652 Tb588 2.802 . S
C652 O632 1.264 . S
C652 O635 1.256 . S
C652 C645 1.496 . S
C653 C620 1.448 . S
C653 H630 0.930 . S
C653 C654 1.328 . S
C654 C625 1.427 . S
C654 H631 0.929 . S
C654 C653 1.328 . S
C655 O639 1.264 . S
C655 O640 1.243 . S
C656 C659 1.399 . S
C656 C660 1.383 . S
C656 C663 1.496 . S
C657 C658 1.399 . S
C657 C660 1.389 . S
C658 C657 1.399 . S
C658 C661 1.380 . S
C658 H668 0.929 . S
C659 C656 1.399 . S
C659 C661 1.392 . S
C659 H669 0.929 . S
C660 C656 1.383 . S
C660 C657 1.389 . S
C660 H670 0.931 . S
C661 C658 1.380 . S
C661 C659 1.392 . S
C661 H671 0.929 . S
C662 O642 1.266 . S
C662 O643 1.248 . S
C663 Tb599 2.802 . S
C663 O638 1.264 . S
C663 O641 1.256 . S
C663 C656 1.496 . S
H664 C647 0.929 . S
H665 C648 0.929 . S
H666 C649 0.929 . S
H667 C650 0.931 . S
H668 C658 0.929 . S
H669 C659 0.929 . S
H670 C660 0.931 . S
H671 C661 0.929 . S
H672 C680 0.929 . S
H673 C682 0.930 . S
H674 C684 0.930 . S
H675 C687 0.929 . S
H676 C690 0.930 . S
H677 C692 0.976 . S
H678 C692 0.956 1_545 S
H679 C692 0.949 1_545 S
C680 H672 0.929 . S
C680 C681 1.377 . S
C680 C682 1.384 . S
C681 C680 1.377 . S
C681 C687 1.390 . S
C682 H673 0.930 . S
C682 C680 1.384 . S
C682 C683 1.372 . S
C683 C682 1.372 . S
C683 C684 1.400 . S
C683 C688 1.490 . S
C684 H674 0.930 . S
C684 C683 1.400 . S
C684 C687 1.386 . S
H685 C701 0.930 . S
H686 C702 0.931 . S
C687 H675 0.929 . S
C687 C681 1.390 . S
C687 C684 1.386 . S
C688 C683 1.490 . S
C688 C690 1.395 . S
C688 C691 1.403 . S
H689 C695 0.930 . S
C690 H676 0.930 . S
C690 C688 1.395 . S
C690 C693 1.403 . S
C691 C688 1.403 . S
C691 C692 1.523 1_545 S
C691 C695 1.400 1_545 S
C692 H677 0.976 . S
C692 H678 0.956 1_565 S
C692 H679 0.949 1_565 S
C692 C691 1.523 1_565 S
C693 C690 1.403 . S
C693 C694 1.392 1_545 S
C693 C697 1.495 . S
C694 C693 1.392 1_565 S
C694 C695 1.385 . S
C694 C696 1.478 . S
C695 H689 0.930 . S
C695 C691 1.400 1_565 S
C695 C694 1.385 . S
C696 C694 1.478 . S
C696 C698 1.381 . S
C696 C702 1.383 . S
C697 C693 1.495 . S
C697 H703 0.959 . S
C697 H704 0.961 1_545 S
C697 H705 0.960 1_545 S
C698 C696 1.381 . S
C698 C699 1.394 . S
C698 H706 0.930 . S
C699 C698 1.394 . S
C699 C700 1.383 . S
C699 H707 0.929 . S
C700 C699 1.383 . S
C700 C701 1.377 . S
C701 H685 0.930 . S
C701 C700 1.377 . S
C701 C702 1.379 . S
C702 H686 0.931 . S
C702 C696 1.383 . S
C702 C701 1.379 . S
H703 C697 0.959 . S
H704 C697 0.961 1_565 S
H705 C697 0.960 1_565 S
H706 C698 0.930 . S
H707 C699 0.929 . S
H708 C716 0.929 . S
H709 C718 0.930 . S
H710 C720 0.930 . S
H711 C723 0.929 . S
H712 C726 0.930 . S
H713 C728 0.960 1_655 S
H714 C728 0.960 . S
H715 C728 0.960 . S
C716 H708 0.929 . S
C716 C717 1.377 . S
C716 C718 1.384 . S
C717 C716 1.377 . S
C717 C723 1.390 . S
C718 H709 0.930 . S
C718 C716 1.384 . S
C718 C719 1.372 . S
C719 C718 1.372 . S
C719 C720 1.400 . S
C719 C724 1.490 . S
C720 H710 0.930 . S
C720 C719 1.400 . S
C720 C723 1.386 . S
H721 C737 0.930 . S
H722 C738 0.931 . S
C723 H711 0.929 . S
C723 C717 1.390 . S
C723 C720 1.386 . S
C724 C719 1.490 . S
C724 C726 1.395 . S
C724 C727 1.403 . S
H725 C731 0.930 . S
C726 H712 0.930 . S
C726 C724 1.395 . S
C726 C729 1.403 1_455 S
C727 C724 1.403 . S
C727 C728 1.524 . S
C727 C731 1.400 1_455 S
C728 H713 0.960 1_455 S
C728 H714 0.960 . S
C728 H715 0.960 . S
C728 C727 1.524 . S
C729 C726 1.403 1_655 S
C729 C730 1.392 . S
C729 C733 1.495 . S
C730 C729 1.392 . S
C730 C731 1.385 . S
C730 C732 1.478 . S
C731 H725 0.930 . S
C731 C727 1.400 1_655 S
C731 C730 1.385 . S
C732 C730 1.478 . S
C732 C734 1.381 . S
C732 C738 1.383 . S
C733 C729 1.495 . S
C733 H739 0.959 1_655 S
C733 H740 0.961 . S
C733 H741 0.960 . S
C734 C732 1.381 . S
C734 C735 1.394 . S
C734 H742 0.930 . S
C735 C734 1.394 . S
C735 C736 1.383 . S
C735 H743 0.929 . S
C736 C735 1.383 . S
C736 C737 1.377 . S
C737 H721 0.930 . S
C737 C736 1.377 . S
C737 C738 1.379 . S
C738 H722 0.931 . S
C738 C732 1.383 . S
C738 C737 1.379 . S
H739 C733 0.959 1_455 S
H740 C733 0.961 . S
H741 C733 0.960 . S
H742 C734 0.930 . S
H743 C735 0.929 . S
H744 C752 0.929 . S
H745 C754 0.930 . S
H746 C756 0.930 . S
H747 C759 0.929 . S
H748 C762 0.930 . S
H749 C764 0.960 . S
H750 C764 0.960 . S
H751 C764 0.960 . S
C752 H744 0.929 . S
C752 C753 1.377 . S
C752 C754 1.384 . S
C753 C752 1.377 . S
C753 C759 1.390 . S
C754 H745 0.930 . S
C754 C752 1.384 . S
C754 C755 1.372 . S
C755 C754 1.372 . S
C755 C756 1.400 . S
C755 C760 1.490 . S
C756 H746 0.930 . S
C756 C755 1.400 . S
C756 C759 1.386 . S
H757 C773 0.930 . S
H758 C774 0.931 . S
C759 H747 0.929 . S
C759 C753 1.390 . S
C759 C756 1.386 . S
C760 C755 1.490 . S
C760 C762 1.395 . S
C760 C763 1.403 . S
H761 C767 0.930 . S
C762 H748 0.930 . S
C762 C760 1.395 . S
C762 C765 1.403 1_565 S
C763 C760 1.403 . S
C763 C764 1.524 . S
C763 C767 1.400 1_565 S
C764 H749 0.960 . S
C764 H750 0.960 . S
C764 H751 0.960 . S
C764 C763 1.524 . S
C765 C762 1.403 1_545 S
C765 C766 1.392 . S
C765 C769 1.495 . S
C766 C765 1.392 . S
C766 C767 1.385 . S
C766 C768 1.478 . S
C767 H761 0.930 . S
C767 C763 1.400 1_545 S
C767 C766 1.385 . S
C768 C766 1.478 . S
C768 C770 1.381 . S
C768 C774 1.383 . S
C769 C765 1.495 . S
C769 H775 0.959 . S
C769 H776 0.961 . S
C769 H777 0.960 . S
C770 C768 1.381 . S
C770 C771 1.394 . S
C770 H778 0.930 . S
C771 C770 1.394 . S
C771 C772 1.383 . S
C771 H779 0.929 . S
C772 C771 1.383 . S
C772 C773 1.377 . S
C773 H757 0.930 . S
C773 C772 1.377 . S
C773 C774 1.379 . S
C774 H758 0.931 . S
C774 C768 1.383 . S
C774 C773 1.379 . S
H775 C769 0.959 . S
H776 C769 0.961 . S
H777 C769 0.960 . S
H778 C770 0.930 . S
H779 C771 0.929 . S
H780 C788 0.929 . S
H781 C790 0.930 . S
H782 C792 0.930 . S
H783 C795 0.929 . S
H784 C798 0.930 . S
H785 C800 0.960 1_655 S
H786 C800 0.960 . S
H787 C800 0.960 . S
C788 H780 0.929 . S
C788 C789 1.377 . S
C788 C790 1.384 . S
C789 C788 1.377 . S
C789 C795 1.390 . S
C790 H781 0.930 . S
C790 C788 1.384 . S
C790 C791 1.372 . S
C791 C790 1.372 . S
C791 C792 1.400 . S
C791 C796 1.490 . S
C792 H782 0.930 . S
C792 C791 1.400 . S
C792 C795 1.386 . S
H793 C809 0.930 . S
H794 C810 0.931 . S
C795 H783 0.929 . S
C795 C789 1.390 . S
C795 C792 1.386 . S
C796 C791 1.490 . S
C796 C798 1.395 . S
C796 C799 1.403 . S
H797 C803 0.930 . S
C798 H784 0.930 . S
C798 C796 1.395 . S
C798 C801 1.403 1_455 S
C799 C796 1.403 . S
C799 C800 1.524 . S
C799 C803 1.400 1_455 S
C800 H785 0.960 1_455 S
C800 H786 0.960 . S
C800 H787 0.960 . S
C800 C799 1.524 . S
C801 C798 1.403 1_655 S
C801 C802 1.392 . S
C801 C805 1.495 . S
C802 C801 1.392 . S
C802 C803 1.385 . S
C802 C804 1.478 . S
C803 H797 0.930 . S
C803 C799 1.400 1_655 S
C803 C802 1.385 . S
C804 C802 1.478 . S
C804 C806 1.381 . S
C804 C810 1.383 . S
C805 C801 1.495 . S
C805 H811 0.959 1_655 S
C805 H812 0.961 . S
C805 H813 0.960 . S
C806 C804 1.381 . S
C806 C807 1.394 . S
C806 H814 0.930 . S
C807 C806 1.394 . S
C807 C808 1.383 . S
C807 H815 0.929 . S
C808 C807 1.383 . S
C808 C809 1.377 . S
C809 H793 0.930 . S
C809 C808 1.377 . S
C809 C810 1.379 . S
C810 H794 0.931 . S
C810 C804 1.383 . S
C810 C809 1.379 . S
H811 C805 0.959 1_455 S
H812 C805 0.961 . S
H813 C805 0.960 . S
H814 C806 0.930 . S
H815 C807 0.929 . S
H816 C824 0.929 . S
H817 C826 0.930 . S
H818 C828 0.930 . S
H819 C831 0.929 . S
H820 C834 0.930 . S
H821 C836 0.960 . S
H822 C836 0.960 . S
H823 C836 0.960 1_554 S
C824 H816 0.929 . S
C824 C825 1.377 1_556 S
C824 C826 1.384 . S
C825 C824 1.377 1_554 S
C825 C831 1.390 . S
C826 H817 0.930 . S
C826 C824 1.384 . S
C826 C827 1.368 1_556 S
C827 C826 1.368 1_554 S
C827 C828 1.405 . S
C827 C832 1.488 1_554 S
C828 H818 0.930 . S
C828 C827 1.405 . S
C828 C831 1.386 . S
H829 C845 0.930 . S
H830 C846 0.931 1_554 S
C831 H819 0.929 . S
C831 C825 1.390 . S
C831 C828 1.386 . S
C832 C827 1.488 1_556 S
C832 C834 1.395 . S
C832 C835 1.403 . S
H833 C839 0.930 . S
C834 H820 0.930 . S
C834 C832 1.395 . S
C834 C837 1.403 . S
C835 C832 1.403 . S
C835 C836 1.524 . S
C835 C839 1.400 . S
C836 H821 0.960 . S
C836 H822 0.960 . S
C836 H823 0.960 1_556 S
C836 C835 1.524 . S
C837 C834 1.403 . S
C837 C838 1.392 . S
C837 C841 1.495 . S
C838 C837 1.392 . S
C838 C839 1.385 . S
C838 C840 1.478 . S
C839 H833 0.930 . S
C839 C835 1.400 . S
C839 C838 1.385 . S
C840 C838 1.478 . S
C840 C842 1.381 . S
C840 C846 1.383 . S
C841 C837 1.495 . S
C841 H847 0.959 . S
C841 H848 0.961 . S
C841 H849 0.960 . S
C842 C840 1.381 . S
C842 C843 1.394 . S
C842 H850 0.930 . S
C843 C842 1.394 . S
C843 C844 1.383 . S
C843 H851 0.929 . S
C844 C843 1.383 . S
C844 C845 1.377 . S
C845 H829 0.930 . S
C845 C844 1.377 . S
C845 C846 1.379 . S
C846 H830 0.931 1_556 S
C846 C840 1.383 . S
C846 C845 1.379 . S
H847 C841 0.959 . S
H848 C841 0.961 . S
H849 C841 0.960 . S
H850 C842 0.930 . S
H851 C843 0.929 . S
H852 C860 0.929 1_554 S
H853 C862 0.930 . S
H854 C864 0.930 . S
H855 C867 0.929 . S
H856 C870 0.930 . S
H857 C872 0.960 . S
H858 C872 0.960 . S
H859 C872 0.960 . S
C860 H852 0.929 1_556 S
C860 C861 1.377 . S
C860 C862 1.384 1_556 S
C861 C860 1.377 . S
C861 C867 1.390 . S
C862 H853 0.930 . S
C862 C860 1.384 1_554 S
C862 C863 1.372 1_554 S
C863 C862 1.372 1_556 S
C863 C864 1.400 . S
C863 C868 1.490 1_556 S
C864 H854 0.930 . S
C864 C863 1.400 . S
C864 C867 1.386 . S
H865 C881 0.930 . S
H866 C882 0.931 . S
C867 H855 0.929 . S
C867 C861 1.390 . S
C867 C864 1.386 . S
C868 C863 1.490 1_554 S
C868 C870 1.395 . S
C868 C871 1.403 1_554 S
H869 C875 0.930 . S
C870 H856 0.930 . S
C870 C868 1.395 . S
C870 C873 1.403 . S
C871 C868 1.403 1_556 S
C871 C872 1.524 . S
C871 C875 1.400 . S
C872 H857 0.960 . S
C872 H858 0.960 . S
C872 H859 0.960 . S
C872 C871 1.524 . S
C873 C870 1.403 . S
C873 C874 1.392 . S
C873 C877 1.495 . S
C874 C873 1.392 . S
C874 C875 1.385 1_554 S
C874 C876 1.478 . S
C875 H869 0.930 . S
C875 C871 1.400 . S
C875 C874 1.385 1_556 S
C876 C874 1.478 . S
C876 C878 1.381 . S
C876 C882 1.383 . S
C877 C873 1.495 . S
C877 H883 0.959 . S
C877 H884 0.961 . S
C877 H885 0.960 . S
C878 C876 1.381 . S
C878 C879 1.394 . S
C878 H886 0.930 . S
C879 C878 1.394 . S
C879 C880 1.383 . S
C879 H887 0.929 . S
C880 C879 1.383 . S
C880 C881 1.377 . S
C881 H865 0.930 . S
C881 C880 1.377 . S
C881 C882 1.379 . S
C882 H866 0.931 . S
C882 C876 1.383 . S
C882 C881 1.379 . S
H883 C877 0.959 . S
H884 C877 0.961 . S
H885 C877 0.960 . S
H886 C878 0.930 . S
H887 C879 0.929 . S
H888 C896 0.929 . S
H889 C898 0.930 . S
H890 C900 0.930 . S
H891 C903 0.929 . S
H892 C906 0.930 1_554 S
H893 C908 0.960 . S
H894 C908 0.960 1_554 S
H895 C908 0.960 . S
C896 H888 0.929 . S
C896 C897 1.377 . S
C896 C898 1.384 . S
C897 C896 1.377 . S
C897 C903 1.390 1_554 S
C898 H889 0.930 . S
C898 C896 1.384 . S
C898 C899 1.372 . S
C899 C898 1.372 . S
C899 C900 1.400 1_554 S
C899 C904 1.490 1_554 S
C900 H890 0.930 . S
C900 C899 1.400 1_556 S
C900 C903 1.386 . S
H901 C917 0.930 . S
H902 C918 0.931 . S
C903 H891 0.929 . S
C903 C897 1.390 1_556 S
C903 C900 1.386 . S
C904 C899 1.490 1_556 S
C904 C906 1.395 . S
C904 C907 1.403 . S
H905 C911 0.930 . S
C906 H892 0.930 1_556 S
C906 C904 1.395 . S
C906 C909 1.403 . S
C907 C904 1.403 . S
C907 C908 1.524 . S
C907 C911 1.400 . S
C908 H893 0.960 . S
C908 H894 0.960 1_556 S
C908 H895 0.960 . S
C908 C907 1.524 . S
C909 C906 1.403 . S
C909 C910 1.392 . S
C909 C913 1.495 . S
C910 C909 1.392 . S
C910 C911 1.385 . S
C910 C912 1.478 . S
C911 H905 0.930 . S
C911 C907 1.400 . S
C911 C910 1.385 . S
C912 C910 1.478 . S
C912 C914 1.381 . S
C912 C918 1.383 . S
C913 C909 1.495 . S
C913 H919 0.959 . S
C913 H920 0.961 . S
C913 H921 0.960 1_556 S
C914 C912 1.381 . S
C914 C915 1.394 . S
C914 H922 0.930 1_556 S
C915 C914 1.394 . S
C915 C916 1.383 . S
C915 H923 0.929 . S
C916 C915 1.383 . S
C916 C917 1.377 . S
C917 H901 0.930 . S
C917 C916 1.377 . S
C917 C918 1.379 . S
C918 H902 0.931 . S
C918 C912 1.383 . S
C918 C917 1.379 . S
H919 C913 0.959 . S
H920 C913 0.961 . S
H921 C913 0.960 1_554 S
H922 C914 0.930 1_554 S
H923 C915 0.929 . S
H924 C932 0.929 . S
H925 C934 0.930 . S
H926 C936 0.930 1_556 S
H927 C939 0.929 . S
H928 C942 0.930 . S
H929 C944 0.960 . S
H930 C944 0.960 . S
H931 C944 0.960 . S
C932 H924 0.929 . S
C932 C933 1.377 . S
C932 C934 1.384 . S
C933 C932 1.377 . S
C933 C939 1.390 . S
C934 H925 0.930 . S
C934 C932 1.384 . S
C934 C935 1.372 . S
C935 C934 1.372 . S
C935 C936 1.400 . S
C935 C940 1.490 . S
C936 H926 0.930 1_554 S
C936 C935 1.400 . S
C936 C939 1.386 . S
H937 C953 0.930 . S
H938 C954 0.931 . S
C939 H927 0.929 . S
C939 C933 1.390 . S
C939 C936 1.386 . S
C940 C935 1.490 . S
C940 C942 1.395 . S
C940 C943 1.403 . S
H941 C947 0.930 . S
C942 H928 0.930 . S
C942 C940 1.395 . S
C942 C945 1.403 . S
C943 C940 1.403 . S
C943 C944 1.524 . S
C943 C947 1.400 . S
C944 H929 0.960 . S
C944 H930 0.960 . S
C944 H931 0.960 . S
C944 C943 1.524 . S
C945 C942 1.403 . S
C945 C946 1.392 . S
C945 C949 1.495 . S
C946 C945 1.392 . S
C946 C947 1.385 . S
C946 C948 1.478 1_554 S
C947 H941 0.930 . S
C947 C943 1.400 . S
C947 C946 1.385 . S
C948 C946 1.478 1_556 S
C948 C950 1.381 1_556 S
C948 C954 1.383 . S
C949 C945 1.495 . S
C949 H955 0.959 . S
C949 H956 0.961 1_554 S
C949 H957 0.960 . S
C950 C948 1.381 1_554 S
C950 C951 1.394 . S
C950 H958 0.930 . S
C951 C950 1.394 . S
C951 C952 1.383 1_554 S
C951 H959 0.929 . S
C952 C951 1.383 1_556 S
C952 C953 1.377 . S
C953 H937 0.930 . S
C953 C952 1.377 . S
C953 C954 1.379 . S
C954 H938 0.931 . S
C954 C948 1.383 . S
C954 C953 1.379 . S
H955 C949 0.959 . S
H956 C949 0.961 1_556 S
H957 C949 0.960 . S
H958 C950 0.930 . S
H959 C951 0.929 . S
H960 C968 0.929 . S
H961 C970 0.930 . S
H962 C972 0.930 . S
H963 C975 0.929 . S
H964 C978 0.930 . S
H965 C980 0.960 . S
H966 C980 0.960 . S
H967 C980 0.960 . S
C968 H960 0.929 . S
C968 C969 1.377 . S
C968 C970 1.384 . S
C969 C968 1.377 . S
C969 C975 1.390 . S
C970 H961 0.930 . S
C970 C968 1.384 . S
C970 C971 1.372 . S
C971 C970 1.372 . S
C971 C972 1.400 . S
C971 C976 1.490 . S
C972 H962 0.930 . S
C972 C971 1.400 . S
C972 C975 1.386 . S
H973 C989 0.930 . S
H974 C990 0.931 . S
C975 H963 0.929 . S
C975 C969 1.390 . S
C975 C972 1.386 . S
C976 C971 1.490 . S
C976 C978 1.395 . S
C976 C979 1.403 . S
H977 C983 0.930 . S
C978 H964 0.930 . S
C978 C976 1.395 . S
C978 C981 1.403 . S
C979 C976 1.403 . S
C979 C980 1.524 . S
C979 C983 1.400 . S
C980 H965 0.960 . S
C980 H966 0.960 . S
C980 H967 0.960 . S
C980 C979 1.524 . S
C981 C978 1.403 . S
C981 C982 1.392 . S
C981 C985 1.495 . S
C982 C981 1.392 . S
C982 C983 1.385 . S
C982 C984 1.478 . S
C983 H977 0.930 . S
C983 C979 1.400 . S
C983 C982 1.385 . S
C984 C982 1.478 . S
C984 C986 1.381 . S
C984 C990 1.383 . S
C985 C981 1.495 . S
C985 H991 0.959 . S
C985 H992 0.961 . S
C985 H993 0.960 . S
C986 C984 1.381 . S
C986 C987 1.394 . S
C986 H994 0.930 . S
C987 C986 1.394 . S
C987 C988 1.383 . S
C987 H995 0.929 . S
C988 C987 1.383 . S
C988 C989 1.377 . S
C989 H973 0.930 . S
C989 C988 1.377 . S
C989 C990 1.379 . S
C990 H974 0.931 . S
C990 C984 1.383 . S
C990 C989 1.379 . S
H991 C985 0.959 . S
H992 C985 0.961 . S
H993 C985 0.960 . S
H994 C986 0.930 . S
H995 C987 0.929 . S
H996 C1004 0.929 . S
H997 C1006 0.930 . S
H998 C1008 0.930 . S
H999 C1011 0.929 . S
H1000 C1014 0.930 . S
H1001 C1016 0.960 . S
H1002 C1016 0.960 . S
H1003 C1016 0.960 . S
C1004 H996 0.929 . S
C1004 C1005 1.377 . S
C1004 C1006 1.384 . S
C1005 C1004 1.377 . S
C1005 C1011 1.390 . S
C1006 H997 0.930 . S
C1006 C1004 1.384 . S
C1006 C1007 1.372 . S
C1007 C1006 1.372 . S
C1007 C1008 1.400 . S
C1007 C1012 1.490 . S
C1008 H998 0.930 . S
C1008 C1007 1.400 . S
C1008 C1011 1.386 . S
H1009 C1025 0.930 . S
H1010 C1026 0.931 . S
C1011 H999 0.929 . S
C1011 C1005 1.390 . S
C1011 C1008 1.386 . S
C1012 C1007 1.490 . S
C1012 C1014 1.395 . S
C1012 C1015 1.403 . S
H1013 C1019 0.930 . S
C1014 H1000 0.930 . S
C1014 C1012 1.395 . S
C1014 C1017 1.403 . S
C1015 C1012 1.403 . S
C1015 C1016 1.524 . S
C1015 C1019 1.400 . S
C1016 H1001 0.960 . S
C1016 H1002 0.960 . S
C1016 H1003 0.960 . S
C1016 C1015 1.524 . S
C1017 C1014 1.403 . S
C1017 C1018 1.392 . S
C1017 C1021 1.495 . S
C1018 C1017 1.392 . S
C1018 C1019 1.385 . S
C1018 C1020 1.478 . S
C1019 H1013 0.930 . S
C1019 C1015 1.400 . S
C1019 C1018 1.385 . S
C1020 C1018 1.478 . S
C1020 C1022 1.381 . S
C1020 C1026 1.383 . S
C1021 C1017 1.495 . S
C1021 H1027 0.959 . S
C1021 H1028 0.961 . S
C1021 H1029 0.960 . S
C1022 C1020 1.381 . S
C1022 C1023 1.394 . S
C1022 H1030 0.930 . S
C1023 C1022 1.394 . S
C1023 C1024 1.383 . S
C1023 H1031 0.929 . S
C1024 C1023 1.383 . S
C1024 C1025 1.377 . S
C1025 H1009 0.930 . S
C1025 C1024 1.377 . S
C1025 C1026 1.379 . S
C1026 H1010 0.931 . S
C1026 C1020 1.383 . S
C1026 C1025 1.379 . S
H1027 C1021 0.959 . S
H1028 C1021 0.961 . S
H1029 C1021 0.960 . S
H1030 C1022 0.930 . S
H1031 C1023 0.929 . S
H1032 C1040 0.929 . S
H1033 C1042 0.930 . S
H1034 C1044 0.930 . S
H1035 C1047 0.929 . S
H1036 C1050 0.930 . S
H1037 C1052 0.960 . S
H1038 C1052 0.960 . S
H1039 C1052 0.960 . S
C1040 H1032 0.929 . S
C1040 C1041 1.377 . S
C1040 C1042 1.384 . S
C1041 C1040 1.377 . S
C1041 C1047 1.390 . S
C1042 H1033 0.930 . S
C1042 C1040 1.384 . S
C1042 C1043 1.372 . S
C1043 C1042 1.372 . S
C1043 C1044 1.400 . S
C1043 C1048 1.490 . S
C1044 H1034 0.930 . S
C1044 C1043 1.400 . S
C1044 C1047 1.386 . S
H1045 C1061 0.930 . S
H1046 C1062 0.931 . S
C1047 H1035 0.929 . S
C1047 C1041 1.390 . S
C1047 C1044 1.386 . S
C1048 C1043 1.490 . S
C1048 C1050 1.395 . S
C1048 C1051 1.403 . S
H1049 C1055 0.930 . S
C1050 H1036 0.930 . S
C1050 C1048 1.395 . S
C1050 C1053 1.403 . S
C1051 C1048 1.403 . S
C1051 C1052 1.524 . S
C1051 C1055 1.400 . S
C1052 H1037 0.960 . S
C1052 H1038 0.960 . S
C1052 H1039 0.960 . S
C1052 C1051 1.524 . S
C1053 C1050 1.403 . S
C1053 C1054 1.392 . S
C1053 C1057 1.495 . S
C1054 C1053 1.392 . S
C1054 C1055 1.385 . S
C1054 C1056 1.478 . S
C1055 H1049 0.930 . S
C1055 C1051 1.400 . S
C1055 C1054 1.385 . S
C1056 C1054 1.478 . S
C1056 C1058 1.381 . S
C1056 C1062 1.383 . S
C1057 C1053 1.495 . S
C1057 H1063 0.959 . S
C1057 H1064 0.961 . S
C1057 H1065 0.960 . S
C1058 C1056 1.381 . S
C1058 C1059 1.394 . S
C1058 H1066 0.930 . S
C1059 C1058 1.394 . S
C1059 C1060 1.383 . S
C1059 H1067 0.929 . S
C1060 C1059 1.383 . S
C1060 C1061 1.377 . S
C1061 H1045 0.930 . S
C1061 C1060 1.377 . S
C1061 C1062 1.379 . S
C1062 H1046 0.931 . S
C1062 C1056 1.383 . S
C1062 C1061 1.379 . S
H1063 C1057 0.959 . S
H1064 C1057 0.961 . S
H1065 C1057 0.960 . S
H1066 C1058 0.930 . S
H1067 C1059 0.929 . S
H1068 C1076 0.929 . S
H1069 C1078 0.930 . S
H1070 C1080 0.930 . S
H1071 C1083 0.929 . S
H1072 C1086 0.930 . S
H1073 C1088 0.960 . S
H1074 C1088 0.960 . S
H1075 C1088 0.960 . S
C1076 H1068 0.929 . S
C1076 C1077 1.377 . S
C1076 C1078 1.384 . S
C1077 C1076 1.377 . S
C1077 C1083 1.390 . S
C1078 H1069 0.930 . S
C1078 C1076 1.384 . S
C1078 C1079 1.372 . S
C1079 C1078 1.372 . S
C1079 C1080 1.400 . S
C1079 C1084 1.490 . S
C1080 H1070 0.930 . S
C1080 C1079 1.400 . S
C1080 C1083 1.386 . S
H1081 C1097 0.930 . S
H1082 C1098 0.931 . S
C1083 H1071 0.929 . S
C1083 C1077 1.390 . S
C1083 C1080 1.386 . S
C1084 C1079 1.490 . S
C1084 C1086 1.395 . S
C1084 C1087 1.403 . S
H1085 C1091 0.930 . S
C1086 H1072 0.930 . S
C1086 C1084 1.395 . S
C1086 C1089 1.403 . S
C1087 C1084 1.403 . S
C1087 C1088 1.524 . S
C1087 C1091 1.400 . S
C1088 H1073 0.960 . S
C1088 H1074 0.960 . S
C1088 H1075 0.960 . S
C1088 C1087 1.524 . S
C1089 C1086 1.403 . S
C1089 C1090 1.392 . S
C1089 C1093 1.495 . S
C1090 C1089 1.392 . S
C1090 C1091 1.385 . S
C1090 C1092 1.478 . S
C1091 H1085 0.930 . S
C1091 C1087 1.400 . S
C1091 C1090 1.385 . S
C1092 C1090 1.478 . S
C1092 C1094 1.381 . S
C1092 C1098 1.383 . S
C1093 C1089 1.495 . S
C1093 H1099 0.959 . S
C1093 H1100 0.961 . S
C1093 H1101 0.960 . S
C1094 C1092 1.381 . S
C1094 C1095 1.394 . S
C1094 H1102 0.930 . S
C1095 C1094 1.394 . S
C1095 C1096 1.383 . S
C1095 H1103 0.929 . S
C1096 C1095 1.383 . S
C1096 C1097 1.377 . S
C1097 H1081 0.930 . S
C1097 C1096 1.377 . S
C1097 C1098 1.379 . S
C1098 H1082 0.931 . S
C1098 C1092 1.383 . S
C1098 C1097 1.379 . S
H1099 C1093 0.959 . S
H1100 C1093 0.961 . S
H1101 C1093 0.960 . S
H1102 C1094 0.930 . S
H1103 C1095 0.929 . S
H1104 C1112 0.929 . S
H1105 C1114 0.930 . S
H1106 C1116 0.930 . S
H1107 C1119 0.929 . S
H1108 C1122 0.930 . S
H1109 C1124 0.960 1_565 S
H1110 C1124 0.960 . S
H1111 C1124 0.960 . S
C1112 H1104 0.929 . S
C1112 C1113 1.377 . S
C1112 C1114 1.384 . S
C1113 C1112 1.377 . S
C1113 C1119 1.390 . S
C1114 H1105 0.930 . S
C1114 C1112 1.384 . S
C1114 C1115 1.372 . S
C1115 C1114 1.372 . S
C1115 C1116 1.400 . S
C1115 C1120 1.490 . S
C1116 H1106 0.930 . S
C1116 C1115 1.400 . S
C1116 C1119 1.386 . S
H1117 C1133 0.930 . S
H1118 C1134 0.931 . S
C1119 H1107 0.929 . S
C1119 C1113 1.390 . S
C1119 C1116 1.386 . S
C1120 C1115 1.490 . S
C1120 C1122 1.395 . S
C1120 C1123 1.403 . S
H1121 C1127 0.930 . S
C1122 H1108 0.930 . S
C1122 C1120 1.395 . S
C1122 C1125 1.403 1_545 S
C1123 C1120 1.403 . S
C1123 C1124 1.524 . S
C1123 C1127 1.400 1_545 S
C1124 H1109 0.960 1_545 S
C1124 H1110 0.960 . S
C1124 H1111 0.960 . S
C1124 C1123 1.524 . S
C1125 C1122 1.403 1_565 S
C1125 C1126 1.392 . S
C1125 C1129 1.495 . S
C1126 C1125 1.392 . S
C1126 C1127 1.385 . S
C1126 C1128 1.478 . S
C1127 H1121 0.930 . S
C1127 C1123 1.400 1_565 S
C1127 C1126 1.385 . S
C1128 C1126 1.478 . S
C1128 C1130 1.381 . S
C1128 C1134 1.383 . S
C1129 C1125 1.495 . S
C1129 H1135 0.959 1_565 S
C1129 H1136 0.961 . S
C1129 H1137 0.960 . S
C1130 C1128 1.381 . S
C1130 C1131 1.394 . S
C1130 H1138 0.930 . S
C1131 C1130 1.394 . S
C1131 C1132 1.383 . S
C1131 H1139 0.929 . S
C1132 C1131 1.383 . S
C1132 C1133 1.377 . S
C1133 H1117 0.930 . S
C1133 C1132 1.377 . S
C1133 C1134 1.379 . S
C1134 H1118 0.931 . S
C1134 C1128 1.383 . S
C1134 C1133 1.379 . S
H1135 C1129 0.959 1_545 S
H1136 C1129 0.961 . S
H1137 C1129 0.960 . S
H1138 C1130 0.930 . S
H1139 C1131 0.929 . S
H1140 C1148 0.929 . S
H1141 C1150 0.930 . S
H1142 C1152 0.930 . S
H1143 C1155 0.929 . S
H1144 C1158 0.930 . S
H1145 C1160 0.960 . S
H1146 C1160 0.960 . S
H1147 C1160 0.960 . S
C1148 H1140 0.929 . S
C1148 C1149 1.377 . S
C1148 C1150 1.384 . S
C1149 C1148 1.377 . S
C1149 C1155 1.390 . S
C1150 H1141 0.930 . S
C1150 C1148 1.384 . S
C1150 C1151 1.372 . S
C1151 C1150 1.372 . S
C1151 C1152 1.400 . S
C1151 C1156 1.490 . S
C1152 H1142 0.930 . S
C1152 C1151 1.400 . S
C1152 C1155 1.386 . S
H1153 C1169 0.930 . S
H1154 C1170 0.931 . S
C1155 H1143 0.929 . S
C1155 C1149 1.390 . S
C1155 C1152 1.386 . S
C1156 C1151 1.490 . S
C1156 C1158 1.395 . S
C1156 C1159 1.403 . S
H1157 C1163 0.930 . S
C1158 H1144 0.930 . S
C1158 C1156 1.395 . S
C1158 C1161 1.403 1_455 S
C1159 C1156 1.403 . S
C1159 C1160 1.524 . S
C1159 C1163 1.400 1_455 S
C1160 H1145 0.960 . S
C1160 H1146 0.960 . S
C1160 H1147 0.960 . S
C1160 C1159 1.524 . S
C1161 C1158 1.403 1_655 S
C1161 C1162 1.392 . S
C1161 C1165 1.495 . S
C1162 C1161 1.392 . S
C1162 C1163 1.385 . S
C1162 C1164 1.478 . S
C1163 H1157 0.930 . S
C1163 C1159 1.400 1_655 S
C1163 C1162 1.385 . S
C1164 C1162 1.478 . S
C1164 C1166 1.381 . S
C1164 C1170 1.383 . S
C1165 C1161 1.495 . S
C1165 H1171 0.959 . S
C1165 H1172 0.961 . S
C1165 H1173 0.960 . S
C1166 C1164 1.381 . S
C1166 C1167 1.394 . S
C1166 H1174 0.930 . S
C1167 C1166 1.394 . S
C1167 C1168 1.383 . S
C1167 H1175 0.929 . S
C1168 C1167 1.383 . S
C1168 C1169 1.377 . S
C1169 H1153 0.930 . S
C1169 C1168 1.377 . S
C1169 C1170 1.379 . S
C1170 H1154 0.931 . S
C1170 C1164 1.383 . S
C1170 C1169 1.379 . S
H1171 C1165 0.959 . S
H1172 C1165 0.961 . S
H1173 C1165 0.960 . S
H1174 C1166 0.930 . S
H1175 C1167 0.929 . S
H1176 C1184 0.929 . S
H1177 C1186 0.930 . S
H1178 C1188 0.930 . S
H1179 C1191 0.929 . S
H1180 C1194 0.934 . S
H1181 C1196 0.960 . S
H1182 C1196 0.960 . S
H1183 C1196 0.960 . S
C1184 H1176 0.929 . S
C1184 C1185 1.377 . S
C1184 C1186 1.384 . S
C1185 C1184 1.377 . S
C1185 C1191 1.390 . S
C1186 H1177 0.930 . S
C1186 C1184 1.384 . S
C1186 C1187 1.372 . S
C1187 C1186 1.372 . S
C1187 C1188 1.400 . S
C1187 C1192 1.490 . S
C1188 H1178 0.930 . S
C1188 C1187 1.400 . S
C1188 C1191 1.386 . S
H1189 C1205 0.930 . S
H1190 C1206 0.931 . S
C1191 H1179 0.929 . S
C1191 C1185 1.390 . S
C1191 C1188 1.386 . S
C1192 C1187 1.490 . S
C1192 C1194 1.422 . S
C1192 C1195 1.403 . S
H1193 C1199 0.930 . S
C1194 H1180 0.934 . S
C1194 C1192 1.422 . S
C1194 C1197 1.373 1_565 S
C1195 C1192 1.403 . S
C1195 C1196 1.524 . S
C1195 C1199 1.400 1_565 S
C1196 H1181 0.960 . S
C1196 H1182 0.960 . S
C1196 H1183 0.960 . S
C1196 C1195 1.524 . S
C1197 C1194 1.373 1_545 S
C1197 C1198 1.392 . S
C1197 C1201 1.495 . S
C1198 C1197 1.392 . S
C1198 C1199 1.385 . S
C1198 C1200 1.478 . S
C1199 H1193 0.930 . S
C1199 C1195 1.400 1_545 S
C1199 C1198 1.385 . S
C1200 C1198 1.478 . S
C1200 C1202 1.381 . S
C1200 C1206 1.383 . S
C1201 C1197 1.495 . S
C1201 H1207 0.959 . S
C1201 H1208 0.961 . S
C1201 H1209 0.960 . S
C1202 C1200 1.381 . S
C1202 C1203 1.394 . S
C1202 H1210 0.930 . S
C1203 C1202 1.394 . S
C1203 C1204 1.383 . S
C1203 H1211 0.929 . S
C1204 C1203 1.383 . S
C1204 C1205 1.377 . S
C1205 H1189 0.930 . S
C1205 C1204 1.377 . S
C1205 C1206 1.379 . S
C1206 H1190 0.931 . S
C1206 C1200 1.383 . S
C1206 C1205 1.379 . S
H1207 C1201 0.959 . S
H1208 C1201 0.961 . S
H1209 C1201 0.960 . S
H1210 C1202 0.930 . S
H1211 C1203 0.929 . S
H1212 C1220 0.929 . S
H1213 C1222 0.930 . S
H1214 C1224 0.930 . S
H1215 C1227 0.929 . S
H1216 C1230 0.930 . S
H1217 C1232 0.960 . S
H1218 C1232 0.960 . S
H1219 C1232 0.960 . S
C1220 H1212 0.929 . S
C1220 C1221 1.377 . S
C1220 C1222 1.384 . S
C1221 C1220 1.377 . S
C1221 C1227 1.390 . S
C1222 H1213 0.930 . S
C1222 C1220 1.384 . S
C1222 C1223 1.372 . S
C1223 C1222 1.372 . S
C1223 C1224 1.400 . S
C1223 C1228 1.490 . S
C1224 H1214 0.930 . S
C1224 C1223 1.400 . S
C1224 C1227 1.386 . S
H1225 C1241 0.930 . S
H1226 C1242 0.931 . S
C1227 H1215 0.929 . S
C1227 C1221 1.390 . S
C1227 C1224 1.386 . S
C1228 C1223 1.490 . S
C1228 C1230 1.395 . S
C1228 C1231 1.403 . S
H1229 C1235 0.930 . S
C1230 H1216 0.930 . S
C1230 C1228 1.395 . S
C1230 C1233 1.403 1_455 S
C1231 C1228 1.403 . S
C1231 C1232 1.524 . S
C1231 C1235 1.400 1_455 S
C1232 H1217 0.960 . S
C1232 H1218 0.960 . S
C1232 H1219 0.960 . S
C1232 C1231 1.524 . S
C1233 C1230 1.403 1_655 S
C1233 C1234 1.392 . S
C1233 C1237 1.495 . S
C1234 C1233 1.392 . S
C1234 C1235 1.385 . S
C1234 C1236 1.478 . S
C1235 H1229 0.930 . S
C1235 C1231 1.400 1_655 S
C1235 C1234 1.385 . S
C1236 C1234 1.478 . S
C1236 C1238 1.381 . S
C1236 C1242 1.383 . S
C1237 C1233 1.495 . S
C1237 H1243 0.959 . S
C1237 H1244 0.961 . S
C1237 H1245 0.960 . S
C1238 C1236 1.381 . S
C1238 C1239 1.394 . S
C1238 H1246 0.930 . S
C1239 C1238 1.394 . S
C1239 C1240 1.383 . S
C1239 H1247 0.929 . S
C1240 C1239 1.383 . S
C1240 C1241 1.377 . S
C1241 H1225 0.930 . S
C1241 C1240 1.377 . S
C1241 C1242 1.379 . S
C1242 H1226 0.931 . S
C1242 C1236 1.383 . S
C1242 C1241 1.379 . S
H1243 C1237 0.959 . S
H1244 C1237 0.961 . S
H1245 C1237 0.960 . S
H1246 C1238 0.930 . S
H1247 C1239 0.929 . S
H1248 C1256 0.929 1_556 S
H1249 C1258 0.930 . S
H1250 C1260 0.930 . S
H1251 C1263 0.930 1_556 S
H1252 C1266 0.930 . S
H1253 C1268 0.960 . S
H1254 C1268 0.960 . S
H1255 C1268 0.960 . S
C1256 H1248 0.929 1_554 S
C1256 C1257 1.377 1_554 S
C1256 C1258 1.384 . S
C1257 C1256 1.377 1_556 S
C1257 C1263 1.390 1_556 S
C1258 H1249 0.930 . S
C1258 C1256 1.384 . S
C1258 C1259 1.372 . S
C1259 C1258 1.372 . S
C1259 C1260 1.400 . S
C1259 C1264 1.490 . S
C1260 H1250 0.930 . S
C1260 C1259 1.400 . S
C1260 C1263 1.386 . S
H1261 C1277 0.930 . S
H1262 C1278 0.931 . S
C1263 H1251 0.930 1_554 S
C1263 C1257 1.390 1_554 S
C1263 C1260 1.386 . S
C1264 C1259 1.490 . S
C1264 C1266 1.395 . S
C1264 C1267 1.403 . S
H1265 C1271 0.930 . S
C1266 H1252 0.930 . S
C1266 C1264 1.395 . S
C1266 C1269 1.403 . S
C1267 C1264 1.403 . S
C1267 C1268 1.524 . S
C1267 C1271 1.400 . S
C1268 H1253 0.960 . S
C1268 H1254 0.960 . S
C1268 H1255 0.960 . S
C1268 C1267 1.524 . S
C1269 C1266 1.403 . S
C1269 C1270 1.392 . S
C1269 C1273 1.495 . S
C1270 C1269 1.392 . S
C1270 C1271 1.385 . S
C1270 C1272 1.478 . S
C1271 H1265 0.930 . S
C1271 C1267 1.400 . S
C1271 C1270 1.385 . S
C1272 C1270 1.478 . S
C1272 C1274 1.381 . S
C1272 C1278 1.383 . S
C1273 C1269 1.495 . S
C1273 H1279 0.959 . S
C1273 H1280 0.961 . S
C1273 H1281 0.960 . S
C1274 C1272 1.381 . S
C1274 C1275 1.394 . S
C1274 H1282 0.930 . S
C1275 C1274 1.394 . S
C1275 C1276 1.383 . S
C1275 H1283 0.929 . S
C1276 C1275 1.383 . S
C1276 C1277 1.377 . S
C1277 H1261 0.930 . S
C1277 C1276 1.377 . S
C1277 C1278 1.379 . S
C1278 H1262 0.931 . S
C1278 C1272 1.383 . S
C1278 C1277 1.379 . S
H1279 C1273 0.959 . S
H1280 C1273 0.961 . S
H1281 C1273 0.960 . S
H1282 C1274 0.930 . S
H1283 C1275 0.929 . S
H1284 C1292 0.929 1_554 S
H1285 C1294 0.930 . S
H1286 C1296 0.930 . S
H1287 C1299 0.929 1_554 S
H1288 C1302 0.930 . S
H1289 C1304 0.960 . S
H1290 C1304 0.960 . S
H1291 C1304 0.960 . S
C1292 H1284 0.929 1_556 S
C1292 C1293 1.377 1_556 S
C1292 C1294 1.384 . S
C1293 C1292 1.377 1_554 S
C1293 C1299 1.390 1_554 S
C1294 H1285 0.930 . S
C1294 C1292 1.384 . S
C1294 C1295 1.372 . S
C1295 C1294 1.372 . S
C1295 C1296 1.400 . S
C1295 C1300 1.490 . S
C1296 H1286 0.930 . S
C1296 C1295 1.400 . S
C1296 C1299 1.386 . S
H1297 C1313 0.930 . S
H1298 C1314 0.931 . S
C1299 H1287 0.929 1_556 S
C1299 C1293 1.390 1_556 S
C1299 C1296 1.386 . S
C1300 C1295 1.490 . S
C1300 C1302 1.395 . S
C1300 C1303 1.403 . S
H1301 C1307 0.930 . S
C1302 H1288 0.930 . S
C1302 C1300 1.395 . S
C1302 C1305 1.403 . S
C1303 C1300 1.403 . S
C1303 C1304 1.524 . S
C1303 C1307 1.400 . S
C1304 H1289 0.960 . S
C1304 H1290 0.960 . S
C1304 H1291 0.960 . S
C1304 C1303 1.524 . S
C1305 C1302 1.403 . S
C1305 C1306 1.392 . S
C1305 C1309 1.495 . S
C1306 C1305 1.392 . S
C1306 C1307 1.385 . S
C1306 C1308 1.478 . S
C1307 H1301 0.930 . S
C1307 C1303 1.400 . S
C1307 C1306 1.385 . S
C1308 C1306 1.478 . S
C1308 C1310 1.381 . S
C1308 C1314 1.383 . S
C1309 C1305 1.495 . S
C1309 H1315 0.959 . S
C1309 H1316 0.961 . S
C1309 H1317 0.960 . S
C1310 C1308 1.381 . S
C1310 C1311 1.394 . S
C1310 H1318 0.930 . S
C1311 C1310 1.394 . S
C1311 C1312 1.383 . S
C1311 H1319 0.929 . S
C1312 C1311 1.383 . S
C1312 C1313 1.377 . S
C1313 H1297 0.930 . S
C1313 C1312 1.377 . S
C1313 C1314 1.379 . S
C1314 H1298 0.931 . S
C1314 C1308 1.383 . S
C1314 C1313 1.379 . S
H1315 C1309 0.959 . S
H1316 C1309 0.961 . S
H1317 C1309 0.960 . S
H1318 C1310 0.930 . S
H1319 C1311 0.929 . S
H1320 C1328 0.929 . S
H1321 C1330 0.930 . S
H1322 C1332 0.930 . S
H1323 C1335 0.929 . S
H1324 C1338 0.930 . S
H1325 C1340 0.960 . S
H1326 C1340 0.960 . S
H1327 C1340 0.960 . S
C1328 H1320 0.929 . S
C1328 C1329 1.377 . S
C1328 C1330 1.384 . S
C1329 C1328 1.377 . S
C1329 C1335 1.390 . S
C1330 H1321 0.930 . S
C1330 C1328 1.384 . S
C1330 C1331 1.372 . S
C1331 C1330 1.372 . S
C1331 C1332 1.400 . S
C1331 C1336 1.490 . S
C1332 H1322 0.930 . S
C1332 C1331 1.400 . S
C1332 C1335 1.386 . S
H1333 C1349 0.930 1_556 S
H1334 C1350 0.931 . S
C1335 H1323 0.929 . S
C1335 C1329 1.390 . S
C1335 C1332 1.386 . S
C1336 C1331 1.490 . S
C1336 C1338 1.395 . S
C1336 C1339 1.403 . S
H1337 C1343 0.930 . S
C1338 H1324 0.930 . S
C1338 C1336 1.395 . S
C1338 C1341 1.403 . S
C1339 C1336 1.403 . S
C1339 C1340 1.524 . S
C1339 C1343 1.400 . S
C1340 H1325 0.960 . S
C1340 H1326 0.960 . S
C1340 H1327 0.960 . S
C1340 C1339 1.524 . S
C1341 C1338 1.403 . S
C1341 C1342 1.392 . S
C1341 C1345 1.495 . S
C1342 C1341 1.392 . S
C1342 C1343 1.385 . S
C1342 C1344 1.478 . S
C1343 H1337 0.930 . S
C1343 C1339 1.400 . S
C1343 C1342 1.385 . S
C1344 C1342 1.478 . S
C1344 C1346 1.381 . S
C1344 C1350 1.383 . S
C1345 C1341 1.495 . S
C1345 H1351 0.959 . S
C1345 H1352 0.961 . S
C1345 H1353 0.960 . S
C1346 C1344 1.381 . S
C1346 C1347 1.394 . S
C1346 H1354 0.930 . S
C1347 C1346 1.394 . S
C1347 C1348 1.383 1_554 S
C1347 H1355 0.929 1_554 S
C1348 C1347 1.383 1_556 S
C1348 C1349 1.377 1_556 S
C1349 H1333 0.930 1_554 S
C1349 C1348 1.377 1_554 S
C1349 C1350 1.379 . S
C1350 H1334 0.931 . S
C1350 C1344 1.383 . S
C1350 C1349 1.379 . S
H1351 C1345 0.959 . S
H1352 C1345 0.961 . S
H1353 C1345 0.960 . S
H1354 C1346 0.930 . S
H1355 C1347 0.929 1_556 S
H1356 C1364 0.929 . S
H1357 C1366 0.930 . S
H1358 C1368 0.930 . S
H1359 C1371 0.929 . S
H1360 C1374 0.930 . S
H1361 C1376 0.960 . S
H1362 C1376 0.960 . S
H1363 C1376 0.960 . S
C1364 H1356 0.929 . S
C1364 C1365 1.377 . S
C1364 C1366 1.384 . S
C1365 C1364 1.377 . S
C1365 C1371 1.390 . S
C1366 H1357 0.930 . S
C1366 C1364 1.384 . S
C1366 C1367 1.372 . S
C1367 C1366 1.372 . S
C1367 C1368 1.400 . S
C1367 C1372 1.490 . S
C1368 H1358 0.930 . S
C1368 C1367 1.400 . S
C1368 C1371 1.386 . S
H1369 C1385 0.919 1_554 S
H1370 C1386 0.931 . S
C1371 H1359 0.929 . S
C1371 C1365 1.390 . S
C1371 C1368 1.386 . S
C1372 C1367 1.490 . S
C1372 C1374 1.395 . S
C1372 C1375 1.403 . S
H1373 C1379 0.930 . S
C1374 H1360 0.930 . S
C1374 C1372 1.395 . S
C1374 C1377 1.403 . S
C1375 C1372 1.403 . S
C1375 C1376 1.524 . S
C1375 C1379 1.400 . S
C1376 H1361 0.960 . S
C1376 H1362 0.960 . S
C1376 H1363 0.960 . S
C1376 C1375 1.524 . S
C1377 C1374 1.403 . S
C1377 C1378 1.392 . S
C1377 C1381 1.495 . S
C1378 C1377 1.392 . S
C1378 C1379 1.385 . S
C1378 C1380 1.478 . S
C1379 H1373 0.930 . S
C1379 C1375 1.400 . S
C1379 C1378 1.385 . S
C1380 C1378 1.478 . S
C1380 C1382 1.381 . S
C1380 C1386 1.383 . S
C1381 C1377 1.495 . S
C1381 H1387 0.959 . S
C1381 H1388 0.961 . S
C1381 H1389 0.960 . S
C1382 C1380 1.381 . S
C1382 C1383 1.394 . S
C1382 H1390 0.930 . S
C1383 C1382 1.394 . S
C1383 C1384 1.383 1_556 S
C1383 H1391 0.929 1_556 S
C1384 C1383 1.383 1_554 S
C1384 C1385 1.377 1_554 S
C1385 H1369 0.919 1_556 S
C1385 C1384 1.377 1_556 S
C1385 C1386 1.379 . S
C1386 H1370 0.931 . S
C1386 C1380 1.383 . S
C1386 C1385 1.379 . S
H1387 C1381 0.959 . S
H1388 C1381 0.961 . S
H1389 C1381 0.960 . S
H1390 C1382 0.930 . S
H1391 C1383 0.929 1_554 S
H1392 C1400 0.929 . S
H1393 C1402 0.930 . S
H1394 C1404 0.930 . S
H1395 C1407 0.929 . S
H1396 C1410 0.930 . S
H1397 C1412 0.960 . S
H1398 C1412 0.960 . S
H1399 C1412 0.960 . S
C1400 H1392 0.929 . S
C1400 C1401 1.377 . S
C1400 C1402 1.384 . S
C1401 C1400 1.377 . S
C1401 C1407 1.390 . S
C1402 H1393 0.930 . S
C1402 C1400 1.384 . S
C1402 C1403 1.372 . S
C1403 C1402 1.372 . S
C1403 C1404 1.400 . S
C1403 C1408 1.490 . S
C1404 H1394 0.930 . S
C1404 C1403 1.400 . S
C1404 C1407 1.386 . S
H1405 C1421 0.930 . S
H1406 C1422 0.931 . S
C1407 H1395 0.929 . S
C1407 C1401 1.390 . S
C1407 C1404 1.386 . S
C1408 C1403 1.490 . S
C1408 C1410 1.395 . S
C1408 C1411 1.403 . S
H1409 C1415 0.930 . S
C1410 H1396 0.930 . S
C1410 C1408 1.395 . S
C1410 C1413 1.403 . S
C1411 C1408 1.403 . S
C1411 C1412 1.524 . S
C1411 C1415 1.400 . S
C1412 H1397 0.960 . S
C1412 H1398 0.960 . S
C1412 H1399 0.960 . S
C1412 C1411 1.524 . S
C1413 C1410 1.403 . S
C1413 C1414 1.392 . S
C1413 C1417 1.495 . S
C1414 C1413 1.392 . S
C1414 C1415 1.385 . S
C1414 C1416 1.478 . S
C1415 H1409 0.930 . S
C1415 C1411 1.400 . S
C1415 C1414 1.385 . S
C1416 C1414 1.478 . S
C1416 C1418 1.381 . S
C1416 C1422 1.383 . S
C1417 C1413 1.495 . S
C1417 H1423 0.959 . S
C1417 H1424 0.961 . S
C1417 H1425 0.960 . S
C1418 C1416 1.381 . S
C1418 C1419 1.394 . S
C1418 H1426 0.930 . S
C1419 C1418 1.394 . S
C1419 C1420 1.383 . S
C1419 H1427 0.929 . S
C1420 C1419 1.383 . S
C1420 C1421 1.377 . S
C1421 H1405 0.930 . S
C1421 C1420 1.377 . S
C1421 C1422 1.379 . S
C1422 H1406 0.931 . S
C1422 C1416 1.383 . S
C1422 C1421 1.379 . S
H1423 C1417 0.959 . S
H1424 C1417 0.961 . S
H1425 C1417 0.960 . S
H1426 C1418 0.930 . S
H1427 C1419 0.929 . S
H1428 C1436 0.929 . S
H1429 C1438 0.930 . S
H1430 C1440 0.930 . S
H1431 C1443 0.929 . S
H1432 C1446 0.930 . S
H1433 C1448 0.960 . S
H1434 C1448 0.960 . S
H1435 C1448 0.960 . S
C1436 H1428 0.929 . S
C1436 C1437 1.377 . S
C1436 C1438 1.384 . S
C1437 C1436 1.377 . S
C1437 C1443 1.390 . S
C1438 H1429 0.930 . S
C1438 C1436 1.384 . S
C1438 C1439 1.372 . S
C1439 C1438 1.372 . S
C1439 C1440 1.400 . S
C1439 C1444 1.490 . S
C1440 H1430 0.930 . S
C1440 C1439 1.400 . S
C1440 C1443 1.386 . S
H1441 C1457 0.930 . S
H1442 C1458 0.931 . S
C1443 H1431 0.929 . S
C1443 C1437 1.390 . S
C1443 C1440 1.386 . S
C1444 C1439 1.490 . S
C1444 C1446 1.395 . S
C1444 C1447 1.403 . S
H1445 C1451 0.930 . S
C1446 H1432 0.930 . S
C1446 C1444 1.395 . S
C1446 C1449 1.403 . S
C1447 C1444 1.403 . S
C1447 C1448 1.524 . S
C1447 C1451 1.400 . S
C1448 H1433 0.960 . S
C1448 H1434 0.960 . S
C1448 H1435 0.960 . S
C1448 C1447 1.524 . S
C1449 C1446 1.403 . S
C1449 C1450 1.392 . S
C1449 C1453 1.495 . S
C1450 C1449 1.392 . S
C1450 C1451 1.385 . S
C1450 C1452 1.478 . S
C1451 H1445 0.930 . S
C1451 C1447 1.400 . S
C1451 C1450 1.385 . S
C1452 C1450 1.478 . S
C1452 C1454 1.381 . S
C1452 C1458 1.383 . S
C1453 C1449 1.495 . S
C1453 H1459 0.959 . S
C1453 H1460 0.961 . S
C1453 H1461 0.960 . S
C1454 C1452 1.381 . S
C1454 C1455 1.394 . S
C1454 H1462 0.930 . S
C1455 C1454 1.394 . S
C1455 C1456 1.383 . S
C1455 H1463 0.929 . S
C1456 C1455 1.383 . S
C1456 C1457 1.377 . S
C1457 H1441 0.930 . S
C1457 C1456 1.377 . S
C1457 C1458 1.379 . S
C1458 H1442 0.931 . S
C1458 C1452 1.383 . S
C1458 C1457 1.379 . S
H1459 C1453 0.959 . S
H1460 C1453 0.961 . S
H1461 C1453 0.960 . S
H1462 C1454 0.930 . S
H1463 C1455 0.929 . S
H1464 C1472 0.929 . S
H1465 C1474 0.930 . S
H1466 C1476 0.930 . S
H1467 C1479 0.929 . S
H1468 C1482 0.930 . S
H1469 C1484 0.960 . S
H1470 C1484 0.960 . S
H1471 C1484 0.960 . S
C1472 H1464 0.929 . S
C1472 C1473 1.377 . S
C1472 C1474 1.384 . S
C1473 C1472 1.377 . S
C1473 C1479 1.390 . S
C1474 H1465 0.930 . S
C1474 C1472 1.384 . S
C1474 C1475 1.372 . S
C1475 C1474 1.372 . S
C1475 C1476 1.400 . S
C1475 C1480 1.490 . S
C1476 H1466 0.930 . S
C1476 C1475 1.400 . S
C1476 C1479 1.386 . S
H1477 C1493 0.930 . S
H1478 C1494 0.931 . S
C1479 H1467 0.929 . S
C1479 C1473 1.390 . S
C1479 C1476 1.386 . S
C1480 C1475 1.490 . S
C1480 C1482 1.395 . S
C1480 C1483 1.403 . S
H1481 C1487 0.930 . S
C1482 H1468 0.930 . S
C1482 C1480 1.395 . S
C1482 C1485 1.403 . S
C1483 C1480 1.403 . S
C1483 C1484 1.524 . S
C1483 C1487 1.400 . S
C1484 H1469 0.960 . S
C1484 H1470 0.960 . S
C1484 H1471 0.960 . S
C1484 C1483 1.524 . S
C1485 C1482 1.403 . S
C1485 C1486 1.392 . S
C1485 C1489 1.495 . S
C1486 C1485 1.392 . S
C1486 C1487 1.385 . S
C1486 C1488 1.478 . S
C1487 H1481 0.930 . S
C1487 C1483 1.400 . S
C1487 C1486 1.385 . S
C1488 C1486 1.478 . S
C1488 C1490 1.381 . S
C1488 C1494 1.383 . S
C1489 C1485 1.495 . S
C1489 H1495 0.959 . S
C1489 H1496 0.961 . S
C1489 H1497 0.960 . S
C1490 C1488 1.381 . S
C1490 C1491 1.394 . S
C1490 H1498 0.930 . S
C1491 C1490 1.394 . S
C1491 C1492 1.383 . S
C1491 H1499 0.929 . S
C1492 C1491 1.383 . S
C1492 C1493 1.377 . S
C1493 H1477 0.930 . S
C1493 C1492 1.377 . S
C1493 C1494 1.379 . S
C1494 H1478 0.931 . S
C1494 C1488 1.383 . S
C1494 C1493 1.379 . S
H1495 C1489 0.959 . S
H1496 C1489 0.961 . S
H1497 C1489 0.960 . S
H1498 C1490 0.930 . S
H1499 C1491 0.929 . S
H1500 C1508 0.929 . S
H1501 C1510 0.930 . S
H1502 C1512 0.930 . S
H1503 C1515 0.929 . S
H1504 C1518 0.930 . S
H1505 C1520 0.960 . S
H1506 C1520 0.960 . S
H1507 C1520 0.960 . S
C1508 H1500 0.929 . S
C1508 C1509 1.377 . S
C1508 C1510 1.384 . S
C1509 C1508 1.377 . S
C1509 C1515 1.390 . S
C1510 H1501 0.930 . S
C1510 C1508 1.384 . S
C1510 C1511 1.372 . S
C1511 C1510 1.372 . S
C1511 C1512 1.400 . S
C1511 C1516 1.490 . S
C1512 H1502 0.930 . S
C1512 C1511 1.400 . S
C1512 C1515 1.386 . S
H1513 C1529 0.930 . S
H1514 C1530 0.931 . S
C1515 H1503 0.929 . S
C1515 C1509 1.390 . S
C1515 C1512 1.386 . S
C1516 C1511 1.490 . S
C1516 C1518 1.395 . S
C1516 C1519 1.403 . S
H1517 C1523 0.930 . S
C1518 H1504 0.930 . S
C1518 C1516 1.395 . S
C1518 C1521 1.403 . S
C1519 C1516 1.403 . S
C1519 C1520 1.524 . S
C1519 C1523 1.400 . S
C1520 H1505 0.960 . S
C1520 H1506 0.960 . S
C1520 H1507 0.960 . S
C1520 C1519 1.524 . S
C1521 C1518 1.403 . S
C1521 C1522 1.392 . S
C1521 C1525 1.495 . S
C1522 C1521 1.392 . S
C1522 C1523 1.385 . S
C1522 C1524 1.478 . S
C1523 H1517 0.930 . S
C1523 C1519 1.400 . S
C1523 C1522 1.385 . S
C1524 C1522 1.478 . S
C1524 C1526 1.381 . S
C1524 C1530 1.383 . S
C1525 C1521 1.495 . S
C1525 H1531 0.959 . S
C1525 H1532 0.961 . S
C1525 H1533 0.960 . S
C1526 C1524 1.381 . S
C1526 C1527 1.394 . S
C1526 H1534 0.930 . S
C1527 C1526 1.394 . S
C1527 C1528 1.383 . S
C1527 H1535 0.929 . S
C1528 C1527 1.383 . S
C1528 C1529 1.377 . S
C1529 H1513 0.930 . S
C1529 C1528 1.377 . S
C1529 C1530 1.379 . S
C1530 H1514 0.931 . S
C1530 C1524 1.383 . S
C1530 C1529 1.379 . S
H1531 C1525 0.959 . S
H1532 C1525 0.961 . S
H1533 C1525 0.960 . S
H1534 C1526 0.930 . S
H1535 C1527 0.929 . S
C681 C67 1.207 . S
C700 C478 0.991 . S
C717 C140 1.224 . S
C736 C562 1.152 . S
C753 C235 1.269 . S
C772 C657 1.232 . S
C789 C394 1.136 . S
C808 C315 1.133 . S
C825 C489 1.212 . S
C844 C410 1.248 . S
C861 C573 1.060 . S
C880 C476 1.246 . S
C897 C646 1.007 . S
C916 C578 1.164 . S
C933 C651 1.206 . S
C952 C405 1.076 . S
C969 C571 1.208 . S
C988 C310 1.076 . S
C1005 C644 1.221 . S
C1024 C58 1.121 . S
C1041 C153 1.205 . S
C1060 C403 1.243 . S
C1077 C226 1.146 . S
C1096 C483 1.205 . S
C1113 C321 1.204 . S
C1132 C242 1.199 . S
C1149 C69 1.051 . S
C1168 C308 1.285 . S
C1185 C142 1.023 . S
C1204 C74 1.196 . S
C1221 C147 1.220 . S
C1240 C237 0.981 . S
C1257 C392 2.754 . S
C1276 C63 2.775 . S
C1293 C494 2.769 . S
C1312 C158 2.764 . S
C1329 C231 2.783 . S
C1348 C560 2.739 . S
C1365 C319 2.773 . S
C1384 C655 2.760 . S
C1401 C224 2.754 . S
C1420 C567 2.774 . S
C1437 C326 2.771 . S
C1456 C662 2.760 . S
C1473 C399 2.786 . S
C1492 C56 2.749 . S
C1509 C487 2.775 . S
C1528 C151 2.758 . S
