# Generated by pormake.
# Topology pbz, (3)-cn, num edge types: 1
# Building blocks:
#     Node 0, Type 0, BuildingBlock: OLANEW_clean_sbu_2, # of connection points: 3
#     Node 1, Type 0, BuildingBlock: OLANEW_clean_sbu_2, # of connection points: 3
#     Node 2, Type 0, BuildingBlock: OLANEW_clean_sbu_2, # of connection points: 3
#     Node 3, Type 0, BuildingBlock: OLANEW_clean_sbu_2, # of connection points: 3
#     Node 4, Type 0, BuildingBlock: OLANEW_clean_sbu_2, # of connection points: 3
#     Node 5, Type 0, BuildingBlock: OLANEW_clean_sbu_2, # of connection points: 3
#     Node 6, Type 0, BuildingBlock: OLANEW_clean_sbu_2, # of connection points: 3
#     Node 7, Type 0, BuildingBlock: OLANEW_clean_sbu_2, # of connection points: 3
#     Node 8, Type 0, BuildingBlock: OLANEW_clean_sbu_2, # of connection points: 3
#     Node 9, Type 0, BuildingBlock: OLANEW_clean_sbu_2, # of connection points: 3
#     Node 10, Type 0, BuildingBlock: OLANEW_clean_sbu_2, # of connection points: 3
#     Node 11, Type 0, BuildingBlock: OLANEW_clean_sbu_2, # of connection points: 3
#     Node 12, Type 0, BuildingBlock: OLANEW_clean_sbu_2, # of connection points: 3
#     Node 13, Type 0, BuildingBlock: OLANEW_clean_sbu_2, # of connection points: 3
#     Node 14, Type 0, BuildingBlock: OLANEW_clean_sbu_2, # of connection points: 3
#     Node 15, Type 0, BuildingBlock: OLANEW_clean_sbu_2, # of connection points: 3
#     Node 16, Type 0, BuildingBlock: OLANEW_clean_sbu_2, # of connection points: 3
#     Node 17, Type 0, BuildingBlock: OLANEW_clean_sbu_2, # of connection points: 3
#     Node 18, Type 0, BuildingBlock: OLANEW_clean_sbu_2, # of connection points: 3
#     Node 19, Type 0, BuildingBlock: OLANEW_clean_sbu_2, # of connection points: 3
#     Node 20, Type 0, BuildingBlock: OLANEW_clean_sbu_2, # of connection points: 3
#     Node 21, Type 0, BuildingBlock: OLANEW_clean_sbu_2, # of connection points: 3
#     Node 22, Type 0, BuildingBlock: OLANEW_clean_sbu_2, # of connection points: 3
#     Node 23, Type 0, BuildingBlock: OLANEW_clean_sbu_2, # of connection points: 3
#     Edge 24, Type (0, 0), BuildingBlock: MIFKUJ_clean_linker_0, # of connection points: 2
#     Edge 25, Type (0, 0), BuildingBlock: MIFKUJ_clean_linker_0, # of connection points: 2
#     Edge 26, Type (0, 0), BuildingBlock: MIFKUJ_clean_linker_0, # of connection points: 2
#     Edge 27, Type (0, 0), BuildingBlock: MIFKUJ_clean_linker_0, # of connection points: 2
#     Edge 28, Type (0, 0), BuildingBlock: MIFKUJ_clean_linker_0, # of connection points: 2
#     Edge 29, Type (0, 0), BuildingBlock: MIFKUJ_clean_linker_0, # of connection points: 2
#     Edge 30, Type (0, 0), BuildingBlock: MIFKUJ_clean_linker_0, # of connection points: 2
#     Edge 31, Type (0, 0), BuildingBlock: MIFKUJ_clean_linker_0, # of connection points: 2
#     Edge 32, Type (0, 0), BuildingBlock: MIFKUJ_clean_linker_0, # of connection points: 2
#     Edge 33, Type (0, 0), BuildingBlock: MIFKUJ_clean_linker_0, # of connection points: 2
#     Edge 34, Type (0, 0), BuildingBlock: MIFKUJ_clean_linker_0, # of connection points: 2
#     Edge 35, Type (0, 0), BuildingBlock: MIFKUJ_clean_linker_0, # of connection points: 2
#     Edge 36, Type (0, 0), BuildingBlock: MIFKUJ_clean_linker_0, # of connection points: 2
#     Edge 37, Type (0, 0), BuildingBlock: MIFKUJ_clean_linker_0, # of connection points: 2
#     Edge 38, Type (0, 0), BuildingBlock: MIFKUJ_clean_linker_0, # of connection points: 2
#     Edge 39, Type (0, 0), BuildingBlock: MIFKUJ_clean_linker_0, # of connection points: 2
#     Edge 40, Type (0, 0), BuildingBlock: MIFKUJ_clean_linker_0, # of connection points: 2
#     Edge 41, Type (0, 0), BuildingBlock: MIFKUJ_clean_linker_0, # of connection points: 2
#     Edge 42, Type (0, 0), BuildingBlock: MIFKUJ_clean_linker_0, # of connection points: 2
#     Edge 43, Type (0, 0), BuildingBlock: MIFKUJ_clean_linker_0, # of connection points: 2
#     Edge 44, Type (0, 0), BuildingBlock: MIFKUJ_clean_linker_0, # of connection points: 2
#     Edge 45, Type (0, 0), BuildingBlock: MIFKUJ_clean_linker_0, # of connection points: 2
#     Edge 46, Type (0, 0), BuildingBlock: MIFKUJ_clean_linker_0, # of connection points: 2
#     Edge 47, Type (0, 0), BuildingBlock: MIFKUJ_clean_linker_0, # of connection points: 2
#     Edge 48, Type (0, 0), BuildingBlock: MIFKUJ_clean_linker_0, # of connection points: 2
#     Edge 49, Type (0, 0), BuildingBlock: MIFKUJ_clean_linker_0, # of connection points: 2
#     Edge 50, Type (0, 0), BuildingBlock: MIFKUJ_clean_linker_0, # of connection points: 2
#     Edge 51, Type (0, 0), BuildingBlock: MIFKUJ_clean_linker_0, # of connection points: 2
#     Edge 52, Type (0, 0), BuildingBlock: MIFKUJ_clean_linker_0, # of connection points: 2
#     Edge 53, Type (0, 0), BuildingBlock: MIFKUJ_clean_linker_0, # of connection points: 2
#     Edge 54, Type (0, 0), BuildingBlock: MIFKUJ_clean_linker_0, # of connection points: 2
#     Edge 55, Type (0, 0), BuildingBlock: MIFKUJ_clean_linker_0, # of connection points: 2
#     Edge 56, Type (0, 0), BuildingBlock: MIFKUJ_clean_linker_0, # of connection points: 2
#     Edge 57, Type (0, 0), BuildingBlock: MIFKUJ_clean_linker_0, # of connection points: 2
#     Edge 58, Type (0, 0), BuildingBlock: MIFKUJ_clean_linker_0, # of connection points: 2
#     Edge 59, Type (0, 0), BuildingBlock: MIFKUJ_clean_linker_0, # of connection points: 2
# Relax obj value: 0.052
# Max RMSD: 0.149
# Mean RMSD: 0.114
data_MOF--net-pbz--node1-OLANEW_clean_sbu_2--edge1-MIFKUJ_clean_linker_0
_symmetry_space_group_name_H-M    P1
_symmetry_Int_Tables_number       1
_symmetry_cell_setting            triclinic
loop_
_symmetry_equiv_pos_as_xyz
'x, y, z'
_cell_length_a     85.340294
_cell_length_b     83.060253
_cell_length_c     81.539536
_cell_angle_alpha  91.147096
_cell_angle_beta   90.012048
_cell_angle_gamma 94.494166
loop_
_atom_site_label
_atom_site_type_symbol
_atom_site_fract_x
_atom_site_fract_y
_atom_site_fract_z
_atom_type_partial_charge
O0 O 0.03927 0.25035 0.75069 0.0
Cd1 Cd 0.03788 0.22467 0.73535 0.0
O2 O 0.01903 0.24303 0.7663 0.0
Cd3 Cd 0.0126 0.22107 0.75191 0.0
O4 O 0.99783 0.20728 0.73386 0.0
C5 C -0.00026 0.21043 0.71877 0.0
O6 O 0.01115 0.22107 0.71454 0.0
C7 C 0.03015 0.25338 0.7625 0.0
C8 C 0.05971 0.20397 0.74627 0.0
O9 O 0.06322 0.21415 0.73498 0.0
O10 O 0.04588 0.20363 0.75244 0.0
O11 O 0.90702 0.60487 0.21215 0.0
Cd12 Cd 0.88156 0.6025 0.19822 0.0
O13 O 0.89489 0.59984 0.23535 0.0
Cd14 Cd 0.89247 0.59852 0.26202 0.0
O15 O 0.88542 0.59828 0.28777 0.0
C16 C 0.87778 0.60974 0.2933 0.0
O17 O 0.87473 0.62143 0.28345 0.0
C18 C 0.90761 0.60318 0.22758 0.0
C19 C 0.87701 0.57558 0.1773 0.0
O20 O 0.88395 0.58883 0.17234 0.0
O21 O 0.87239 0.57498 0.19225 0.0
O22 O 0.52983 0.35274 0.74786 0.0
Cd23 Cd 0.52824 0.37031 0.72432 0.0
O24 O 0.51552 0.3326 0.736 0.0
Cd25 Cd 0.50721 0.34881 0.71772 0.0
O26 O 0.49399 0.3691 0.71073 0.0
C27 C 0.48032 0.36676 0.70451 0.0
O28 O 0.47459 0.35188 0.70129 0.0
C29 C 0.52414 0.33811 0.74788 0.0
C30 C 0.55487 0.36771 0.70489 0.0
O31 O 0.54254 0.35807 0.7027 0.0
O32 O 0.55448 0.37876 0.71605 0.0
O33 O 0.80396 0.04371 0.20969 0.0
Cd34 Cd 0.79128 0.03338 0.18435 0.0
O35 O 0.78382 0.03291 0.2232 0.0
Cd36 Cd 0.76908 0.02449 0.24375 0.0
O37 O 0.74971 0.01522 0.25924 0.0
C38 C 0.75023 0.01589 0.27481 0.0
O39 O 0.76301 0.02234 0.28213 0.0
C40 C 0.79717 0.04091 0.22332 0.0
C41 C 0.79323 0.05613 0.15964 0.0
O42 O 0.78139 0.05491 0.16932 0.0
O43 O 0.80416 0.04662 0.16169 0.0
O44 O 0.01547 0.42456 0.82029 0.0
Cd45 Cd 0.01009 0.4516 0.82991 0.0
O46 O -0.0001 0.41253 0.83858 0.0
Cd47 Cd 0.99184 0.43454 0.84968 0.0
O48 O 0.97788 0.44837 0.86648 0.0
C49 C 0.96339 0.44929 0.86335 0.0
O50 O 0.95762 0.44284 0.84956 0.0
C51 C 0.00949 0.41168 0.82672 0.0
C52 C 0.0383 0.47004 0.83579 0.0
O53 O 0.03155 0.46158 0.84712 0.0
O54 O 0.03158 0.46997 0.82173 0.0
O55 O 0.82762 0.602 0.46929 0.0
Cd56 Cd 0.82046 0.60362 0.49825 0.0
O57 O 0.80744 0.61561 0.46365 0.0
Cd58 Cd 0.79013 0.62682 0.44869 0.0
O59 O 0.77004 0.63806 0.43855 0.0
C60 C 0.76544 0.63521 0.42389 0.0
O61 O 0.77315 0.6255 0.41452 0.0
C62 C 0.81937 0.60859 0.45875 0.0
C63 C 0.816 0.57339 0.51255 0.0
O64 O 0.80456 0.57986 0.50576 0.0
O65 O 0.82957 0.58118 0.51246 0.0
O66 O 0.53376 0.23064 0.89384 0.0
Cd67 Cd 0.5338 0.21431 0.91848 0.0
O68 O 0.5344 0.25384 0.90744 0.0
Cd69 Cd 0.52947 0.24161 0.93052 0.0
O70 O 0.51685 0.2262 0.94834 0.0
C71 C 0.50368 0.23041 0.95344 0.0
O72 O 0.49878 0.24411 0.94846 0.0
C73 C 0.53472 0.24601 0.89389 0.0
C74 C 0.56441 0.21358 0.93038 0.0
O75 O 0.55873 0.20295 0.91994 0.0
O76 O 0.55554 0.22443 0.93536 0.0
O77 O 0.94654 0.05988 0.42566 0.0
Cd78 Cd 0.95818 0.04565 0.40269 0.0
O79 O 0.92986 0.06592 0.40687 0.0
Cd80 Cd 0.90865 0.07503 0.39667 0.0
O81 O 0.88998 0.07675 0.37863 0.0
C82 C 0.89428 0.07729 0.36372 0.0
O83 O 0.90935 0.0775 0.36037 0.0
C84 C 0.9345 0.06701 0.4217 0.0
C85 C 0.98105 0.02491 0.41069 0.0
O86 O 0.98483 0.03972 0.40733 0.0
O87 O 0.96642 0.02004 0.41068 0.0
O88 O 0.28113 0.69315 0.14563 0.0
Cd89 Cd 0.26703 0.66638 0.14443 0.0
O90 O 0.28321 0.69349 0.17252 0.0
Cd91 Cd 0.2696 0.67038 0.17561 0.0
O92 O 0.25163 0.65314 0.18558 0.0
C93 C 0.25321 0.64866 0.20026 0.0
O94 O 0.26599 0.65379 0.2084 0.0
C95 C 0.28591 0.70027 0.15886 0.0
C96 C 0.26385 0.65526 0.11203 0.0
O97 O 0.25361 0.66383 0.11864 0.0
O98 O 0.27554 0.6518 0.12081 0.0
O99 O 0.2381 0.84106 0.67569 0.0
Cd100 Cd 0.21348 0.85073 0.68575 0.0
O101 O 0.23156 0.85058 0.65207 0.0
Cd102 Cd 0.23402 0.85644 0.62615 0.0
O103 O 0.22945 0.86348 0.60109 0.0
C104 C 0.21671 0.87005 0.59872 0.0
O105 O 0.20747 0.87235 0.6113 0.0
C106 C 0.24102 0.84307 0.66056 0.0
C107 C 0.21604 0.88292 0.69636 0.0
O108 O 0.21733 0.87146 0.70645 0.0
O109 O 0.21374 0.87916 0.68118 0.0
O110 O 0.3985 0.70281 0.60017 0.0
Cd111 Cd 0.39751 0.72986 0.5891 0.0
O112 O 0.37643 0.69338 0.58831 0.0
Cd113 Cd 0.3703 0.71737 0.5814 0.0
O114 O 0.35754 0.73897 0.58495 0.0
C115 C 0.36048 0.74762 0.59778 0.0
O116 O 0.37166 0.74377 0.60771 0.0
C117 C 0.38847 0.69105 0.59686 0.0
C118 C 0.41736 0.73379 0.56206 0.0
O119 O 0.42235 0.73738 0.57661 0.0
O120 O 0.40293 0.72848 0.5603 0.0
O121 O 0.40441 0.91733 0.18311 0.0
Cd122 Cd 0.38124 0.91278 0.16537 0.0
O123 O 0.41201 0.89303 0.17793 0.0
Cd124 Cd 0.39171 0.88435 0.16305 0.0
O125 O 0.37372 0.86513 0.15663 0.0
C126 C 0.3675 0.85755 0.16868 0.0
O127 O 0.37166 0.86234 0.18362 0.0
C128 C 0.41421 0.90676 0.18511 0.0
C129 C 0.3781 0.93765 0.14332 0.0
O130 O 0.37216 0.93821 0.15774 0.0
O131 O 0.38563 0.92538 0.13938 0.0
O132 O 0.13248 0.88536 0.44205 0.0
Cd133 Cd 0.11515 0.88178 0.41818 0.0
O134 O 0.15352 0.87923 0.42844 0.0
Cd135 Cd 0.13973 0.8702 0.40721 0.0
O136 O 0.12832 0.84949 0.39383 0.0
C137 C 0.12111 0.8388 0.40259 0.0
O138 O 0.12028 0.84143 0.4185 0.0
C139 C 0.14721 0.88396 0.44163 0.0
C140 C 0.09385 0.90558 0.41794 0.0
O141 O 0.09023 0.89186 0.42443 0.0
O142 O 0.10749 0.90799 0.41146 0.0
O143 O 0.2564 0.60402 0.88996 0.0
Cd144 Cd 0.23872 0.6195 0.90645 0.0
O145 O 0.23482 0.59156 0.88028 0.0
Cd146 Cd 0.21863 0.57587 0.86512 0.0
O147 O 0.19732 0.56181 0.85681 0.0
C148 C 0.18995 0.55306 0.86734 0.0
O149 O 0.19578 0.55254 0.88222 0.0
C150 C 0.24977 0.59335 0.88034 0.0
C151 C 0.24613 0.62155 0.93974 0.0
O152 O 0.23746 0.60953 0.9338 0.0
O153 O 0.25149 0.63247 0.92987 0.0
O154 O 0.58554 0.72993 0.36687 0.0
Cd155 Cd 0.58758 0.70086 0.36935 0.0
O156 O 0.57127 0.72855 0.38917 0.0
Cd157 Cd 0.55584 0.73718 0.40836 0.0
O158 O 0.53939 0.7409 0.42837 0.0
C159 C 0.52476 0.73754 0.42599 0.0
O160 O 0.51992 0.73233 0.41139 0.0
C161 C 0.57765 0.73693 0.37772 0.0
C162 C 0.61793 0.69269 0.37649 0.0
O163 O 0.61298 0.69274 0.36164 0.0
O164 O 0.60858 0.69666 0.38792 0.0
O165 O 0.37902 0.10621 0.00451 0.0
Cd166 Cd 0.35573 0.08705 0.00412 0.0
O167 O 0.36547 0.12743 0.00146 0.0
Cd168 Cd 0.34324 0.11359 0.99592 0.0
O169 O 0.32414 0.10777 0.97842 0.0
C170 C 0.32811 0.10861 0.96342 0.0
O171 O 0.34298 0.11218 0.95984 0.0
C172 C 0.37855 0.12144 0.00368 0.0
C173 C 0.35862 0.06257 0.02668 0.0
O174 O 0.36341 0.06108 0.01187 0.0
O175 O 0.35238 0.0756 0.0308 0.0
O176 O 0.11001 0.6297 0.29845 0.0
Cd177 Cd 0.08972 0.64039 0.31584 0.0
O178 O 0.12773 0.63127 0.31811 0.0
Cd179 Cd 0.11284 0.64408 0.3348 0.0
O180 O 0.10523 0.66627 0.34591 0.0
C181 C 0.10508 0.67831 0.33655 0.0
O182 O 0.10865 0.67638 0.321 0.0
C183 C 0.12377 0.6274 0.30343 0.0
C184 C 0.05965 0.63375 0.30284 0.0
O185 O 0.06823 0.6464 0.29878 0.0
O186 O 0.06531 0.6242 0.31306 0.0
O187 O 0.36278 0.5396 0.69111 0.0
Cd188 Cd 0.35506 0.51866 0.71081 0.0
O189 O 0.37999 0.55179 0.70823 0.0
Cd190 Cd 0.37087 0.53862 0.72957 0.0
O191 O 0.35816 0.53823 0.75285 0.0
C192 C 0.34498 0.53027 0.75479 0.0
O193 O 0.33908 0.52101 0.7427 0.0
C194 C 0.37375 0.55054 0.69405 0.0
C195 C 0.37533 0.4939 0.70896 0.0
O196 O 0.36253 0.49306 0.70065 0.0
O197 O 0.37846 0.50638 0.71824 0.0
O198 O 0.58187 0.9171 0.38075 0.0
Cd199 Cd 0.58477 0.94655 0.37982 0.0
O200 O 0.56835 0.91702 0.35797 0.0
Cd201 Cd 0.55344 0.90771 0.3375 0.0
O202 O 0.5372 0.90594 0.31666 0.0
C203 C 0.52998 0.91834 0.31349 0.0
O204 O 0.53257 0.93136 0.32283 0.0
C205 C 0.57429 0.90921 0.36939 0.0
C206 C 0.61215 0.95749 0.36348 0.0
O207 O 0.61208 0.95582 0.37907 0.0
O208 O 0.59927 0.95399 0.35564 0.0
O209 O 0.20869 0.07994 0.82764 0.0
Cd210 Cd 0.19196 0.07003 0.80463 0.0
O211 O 0.2303 0.08097 0.81287 0.0
Cd212 Cd 0.21891 0.06817 0.79192 0.0
O213 O 0.21387 0.04595 0.77749 0.0
C214 C 0.21704 0.04462 0.76232 0.0
O215 O 0.22282 0.0574 0.75445 0.0
C216 C 0.22342 0.08345 0.82642 0.0
C217 C 0.17074 0.09226 0.79569 0.0
O218 O 0.1671 0.08154 0.80642 0.0
O219 O 0.18443 0.09248 0.78919 0.0
O220 O 0.85817 0.44162 0.0055 0.0
Cd221 Cd 0.84243 0.4296 0.02781 0.0
O222 O 0.8393 0.43958 0.98702 0.0
Cd223 Cd 0.82387 0.42451 0.00279 0.0
O224 O 0.81534 0.40011 0.00968 0.0
C225 C 0.82499 0.38953 0.00664 0.0
O226 O 0.83879 0.39425 0.00051 0.0
C227 C 0.85332 0.44427 0.99112 0.0
C228 C 0.84544 0.45001 0.05539 0.0
O229 O 0.85524 0.43935 0.05262 0.0
O230 O 0.83405 0.45081 0.04527 0.0
O231 O 0.87343 0.18305 0.5912 0.0
Cd232 Cd 0.85179 0.18023 0.57148 0.0
O233 O 0.85847 0.17613 0.61227 0.0
Cd234 Cd 0.83711 0.18097 0.59909 0.0
O235 O 0.82002 0.19858 0.59425 0.0
C236 C 0.82471 0.21104 0.58628 0.0
O237 O 0.83905 0.21205 0.58032 0.0
C238 C 0.87206 0.17938 0.60623 0.0
C239 C 0.86085 0.16083 0.54537 0.0
O240 O 0.86237 0.17627 0.54456 0.0
O241 O 0.85467 0.1546 0.55833 0.0
O242 O 0.78853 0.37643 0.61571 0.0
Cd243 Cd 0.7878 0.4035 0.62785 0.0
O244 O 0.76382 0.37244 0.62248 0.0
Cd245 Cd 0.73992 0.36128 0.62553 0.0
O246 O 0.7155 0.36076 0.63366 0.0
C247 C 0.70491 0.34956 0.63032 0.0
O248 O 0.7085 0.33704 0.62138 0.0
C249 C 0.77607 0.36702 0.61626 0.0
C250 C 0.79256 0.42841 0.60554 0.0
O251 O 0.80415 0.42301 0.61315 0.0
O252 O 0.77874 0.42184 0.60832 0.0
O253 O 0.80598 0.21001 0.0004 0.0
Cd254 Cd 0.80255 0.18103 0.99441 0.0
O255 O 0.78064 0.21055 0.9969 0.0
Cd256 Cd 0.75804 0.22078 0.99342 0.0
O257 O 0.73356 0.22385 0.98731 0.0
C258 C 0.72682 0.21338 0.97755 0.0
O259 O 0.73491 0.20173 0.9717 0.0
C260 C 0.7939 0.21802 0.00012 0.0
C261 C 0.80121 0.16284 0.02277 0.0
O262 O 0.81429 0.16618 0.01539 0.0
O263 O 0.78878 0.16816 0.01676 0.0
H264 H 0.03098 0.40511 0.80297 0.0
H265 H 0.03765 0.37858 0.79286 0.0
H266 H 0.00401 0.35558 0.82615 0.0
H267 H 0.99749 0.38197 0.83654 0.0
H268 H 0.03047 0.34064 0.8261 0.0
H269 H 0.99567 0.3592 0.78523 0.0
H270 H 0.98675 0.37814 0.76494 0.0
H271 H 0.02924 0.37435 0.7374 0.0
H272 H 0.0385 0.35553 0.75766 0.0
H273 H 0.01367 0.26324 0.78913 0.0
H274 H 0.01378 0.29046 0.80094 0.0
H275 H 0.04973 0.30716 0.76674 0.0
H276 H 0.04964 0.27991 0.75474 0.0
H277 H 0.02516 0.32598 0.76698 0.0
H278 H 0.05848 0.30482 0.80694 0.0
H279 H 0.06653 0.28539 0.82718 0.0
H280 H 0.02599 0.29353 0.85647 0.0
H281 H 0.01757 0.31284 0.83628 0.0
C282 C 0.02501 0.39441 0.80815 0.0
C283 C 0.01365 0.39568 0.82051 0.0
C284 C 0.02881 0.37925 0.80233 0.0
C285 C 0.02122 0.36509 0.80864 0.0
C286 C 0.01003 0.36633 0.82112 0.0
C287 C 0.00628 0.38146 0.82699 0.0
C288 C 0.02468 0.34893 0.80215 0.0
C289 C 0.0292 0.33738 0.81319 0.0
C290 C 0.02341 0.34482 0.78525 0.0
C291 C 0.01786 0.35612 0.77306 0.0
C292 C 0.00317 0.36251 0.77492 0.0
C293 C 0.99804 0.3732 0.76341 0.0
C294 C 0.00744 0.37748 0.74992 0.0
C295 C 0.02198 0.37104 0.74788 0.0
C296 C 0.02717 0.36036 0.75936 0.0
C297 C 0.02177 0.27262 0.78425 0.0
C298 C 0.0316 0.26939 0.77094 0.0
C299 C 0.02186 0.28819 0.79107 0.0
C300 C 0.03181 0.30082 0.78477 0.0
C301 C 0.04197 0.29756 0.77179 0.0
C302 C 0.04193 0.28197 0.76499 0.0
C303 C 0.03074 0.31761 0.79096 0.0
C304 C 0.02665 0.32928 0.77986 0.0
C305 C 0.0323 0.32179 0.80782 0.0
C306 C 0.03733 0.31019 0.82002 0.0
C307 C 0.05121 0.30237 0.81763 0.0
C308 C 0.05585 0.2914 0.8291 0.0
C309 C 0.04676 0.2882 0.84308 0.0
C310 C 0.03302 0.29601 0.84563 0.0
C311 C 0.02832 0.30699 0.83418 0.0
H312 H 0.05037 0.27971 0.85196 0.0
H313 H 0.00345 0.38576 0.74102 0.0
H314 H 0.81464 0.63068 0.43501 0.0
H315 H 0.82342 0.63009 0.40651 0.0
H316 H 0.84392 0.58506 0.41464 0.0
H317 H 0.83498 0.58551 0.44312 0.0
H318 H 0.8642 0.60573 0.39984 0.0
H319 H 0.81046 0.58631 0.39148 0.0
H320 H 0.7816 0.58614 0.39314 0.0
H321 H 0.78312 0.63112 0.36794 0.0
H322 H 0.81204 0.63166 0.36628 0.0
H323 H 0.88104 0.58689 0.31655 0.0
H324 H 0.87068 0.58655 0.3445 0.0
H325 H 0.85105 0.6321 0.33676 0.0
H326 H 0.86117 0.63243 0.30873 0.0
H327 H 0.83015 0.61102 0.35124 0.0
H328 H 0.88429 0.63004 0.35967 0.0
H329 H 0.91301 0.62915 0.35721 0.0
H330 H 0.91052 0.58397 0.38213 0.0
H331 H 0.88175 0.58448 0.38455 0.0
C332 C 0.82055 0.6204 0.43061 0.0
C333 C 0.82379 0.60795 0.44122 0.0
C334 C 0.8257 0.62014 0.41433 0.0
C335 C 0.83419 0.60743 0.40838 0.0
C336 C 0.83737 0.59497 0.41895 0.0
C337 C 0.83224 0.59523 0.43521 0.0
C338 C 0.84048 0.60755 0.3914 0.0
C339 C 0.85671 0.60665 0.38919 0.0
C340 C 0.83078 0.60915 0.37754 0.0
C341 C 0.81343 0.60909 0.37889 0.0
C342 C 0.80466 0.59625 0.38644 0.0
C343 C 0.78829 0.59606 0.38732 0.0
C344 C 0.78054 0.60859 0.38061 0.0
C345 C 0.78915 0.6214 0.37309 0.0
C346 C 0.80553 0.62165 0.37216 0.0
C347 C 0.87457 0.59687 0.32081 0.0
C348 C 0.87196 0.6097 0.31041 0.0
C349 C 0.8687 0.59668 0.33681 0.0
C350 C 0.86021 0.60938 0.34276 0.0
C351 C 0.85757 0.62219 0.33241 0.0
C352 C 0.86341 0.62237 0.31641 0.0
C353 C 0.85384 0.60918 0.3597 0.0
C354 C 0.83762 0.6101 0.3619 0.0
C355 C 0.86353 0.60754 0.37355 0.0
C356 C 0.88084 0.60723 0.37215 0.0
C357 C 0.88985 0.61985 0.36451 0.0
C358 C 0.90614 0.61943 0.36315 0.0
C359 C 0.91358 0.60649 0.36947 0.0
C360 C 0.90474 0.59397 0.37722 0.0
C361 C 0.88844 0.59433 0.3786 0.0
H362 H 0.9262 0.60618 0.3684 0.0
H363 H 0.76786 0.60838 0.38126 0.0
H364 H 0.51813 0.30535 0.74997 0.0
H365 H 0.52184 0.2886 0.77376 0.0
H366 H 0.53993 0.33078 0.80155 0.0
H367 H 0.53677 0.34749 0.77767 0.0
H368 H 0.55642 0.30662 0.80831 0.0
H369 H 0.50123 0.31409 0.80546 0.0
H370 H 0.47505 0.3133 0.79252 0.0
H371 H 0.47495 0.2619 0.78562 0.0
H372 H 0.50123 0.26242 0.79834 0.0
H373 H 0.54119 0.27841 0.88935 0.0
H374 H 0.54137 0.29283 0.86347 0.0
H375 H 0.53024 0.24785 0.83713 0.0
H376 H 0.53012 0.23329 0.86292 0.0
H377 H 0.5109 0.27208 0.82899 0.0
H378 H 0.56597 0.26516 0.83411 0.0
H379 H 0.59167 0.26681 0.84811 0.0
H380 H 0.59132 0.31841 0.85206 0.0
H381 H 0.5655 0.31705 0.83828 0.0
C382 C 0.52298 0.31105 0.76112 0.0
C383 C 0.52705 0.32778 0.76196 0.0
C384 C 0.52503 0.30146 0.77474 0.0
C385 C 0.53089 0.30847 0.78955 0.0
C386 C 0.53536 0.3251 0.79027 0.0
C387 C 0.5335 0.33465 0.77661 0.0
C388 C 0.53204 0.2986 0.80444 0.0
C389 C 0.54642 0.2992 0.81291 0.0
C390 C 0.51908 0.28867 0.81031 0.0
C391 C 0.50327 0.28832 0.80269 0.0
C392 C 0.49567 0.30264 0.80107 0.0
C393 C 0.48081 0.30224 0.7938 0.0
C394 C 0.47336 0.28757 0.7882 0.0
C395 C 0.48075 0.27326 0.78992 0.0
C396 C 0.49562 0.2736 0.79718 0.0
C397 C 0.53889 0.27156 0.87805 0.0
C398 C 0.53562 0.2547 0.8782 0.0
C399 C 0.53906 0.27982 0.86327 0.0
C400 C 0.53589 0.27138 0.84841 0.0
C401 C 0.53273 0.25456 0.84849 0.0
C402 C 0.53272 0.24627 0.86323 0.0
C403 C 0.53521 0.28021 0.83286 0.0
C404 C 0.52091 0.27943 0.8243 0.0
C405 C 0.54818 0.29012 0.82704 0.0
C406 C 0.56373 0.29098 0.83529 0.0
C407 C 0.57131 0.27685 0.83809 0.0
C408 C 0.58591 0.27773 0.84596 0.0
C409 C 0.59311 0.2927 0.85101 0.0
C410 C 0.58573 0.30682 0.84816 0.0
C411 C 0.57112 0.306 0.8403 0.0
H412 H 0.60442 0.29337 0.8571 0.0
H413 H 0.46186 0.28728 0.78258 0.0
H414 H 0.8621 0.07516 0.36611 0.0
H415 H 0.843 0.07175 0.34364 0.0
H416 H 0.8809 0.07366 0.30856 0.0
H417 H 0.89998 0.07734 0.33083 0.0
H418 H 0.85754 0.0904 0.29813 0.0
H419 H 0.86246 0.0376 0.32075 0.0
H420 H 0.86142 0.01754 0.3427 0.0
H421 H 0.8126 0.02429 0.35061 0.0
H422 H 0.81342 0.04456 0.32883 0.0
H423 H 0.82849 0.0477 0.22796 0.0
H424 H 0.8422 0.0567 0.25314 0.0
H425 H 0.79799 0.05583 0.27885 0.0
H426 H 0.7841 0.04729 0.2535 0.0
H427 H 0.82103 0.04087 0.29585 0.0
H428 H 0.81567 0.09114 0.2701 0.0
H429 H 0.81712 0.1105 0.24752 0.0
H430 H 0.86714 0.10806 0.24494 0.0
H431 H 0.86596 0.0885 0.26735 0.0
C432 C 0.86635 0.075 0.3536 0.0
C433 C 0.88257 0.07641 0.35026 0.0
C434 C 0.85542 0.07299 0.34078 0.0
C435 C 0.86053 0.07224 0.32443 0.0
C436 C 0.87669 0.07419 0.32108 0.0
C437 C 0.88759 0.07624 0.33385 0.0
C438 C 0.84922 0.06886 0.31073 0.0
C439 C 0.8496 0.07954 0.2976 0.0
C440 C 0.83855 0.05491 0.31024 0.0
C441 C 0.83805 0.04273 0.32332 0.0
C442 C 0.85154 0.0349 0.32727 0.0
C443 C 0.85099 0.02348 0.33966 0.0
C444 C 0.83697 0.01969 0.34808 0.0
C445 C 0.82346 0.02727 0.3441 0.0
C446 C 0.82396 0.03872 0.33174 0.0
C447 C 0.82164 0.04947 0.23894 0.0
C448 C 0.8052 0.0464 0.23878 0.0
C449 C 0.8295 0.05465 0.25332 0.0
C450 C 0.8211 0.05699 0.26784 0.0
C451 C 0.80469 0.05399 0.26778 0.0
C452 C 0.79678 0.04889 0.25332 0.0
C453 C 0.82966 0.06222 0.28309 0.0
C454 C 0.82876 0.05188 0.29651 0.0
C455 C 0.83992 0.07644 0.2838 0.0
C456 C 0.8407 0.08826 0.27035 0.0
C457 C 0.82697 0.09464 0.26464 0.0
C458 C 0.82774 0.10566 0.25188 0.0
C459 C 0.84221 0.11048 0.24478 0.0
C460 C 0.85594 0.10431 0.25045 0.0
C461 C 0.85522 0.09327 0.2632 0.0
H462 H 0.84279 0.11902 0.2349 0.0
H463 H 0.83656 0.01083 0.35767 0.0
H464 H 0.29432 0.71821 0.13191 0.0
H465 H 0.30681 0.74575 0.13154 0.0
H466 H 0.30835 0.74701 0.18442 0.0
H467 H 0.2958 0.7196 0.18495 0.0
H468 H 0.29735 0.77429 0.17215 0.0
H469 H 0.34109 0.74175 0.16242 0.0
H470 H 0.35541 0.72117 0.14782 0.0
H471 H 0.35421 0.7481 0.10349 0.0
H472 H 0.33969 0.76875 0.11779 0.0
H473 H 0.35332 0.83842 0.19201 0.0
H474 H 0.33773 0.81281 0.18798 0.0
H475 H 0.34195 0.81739 0.13552 0.0
H476 H 0.35788 0.84302 0.13947 0.0
H477 H 0.34836 0.788 0.14463 0.0
H478 H 0.30682 0.82188 0.15482 0.0
H479 H 0.29249 0.84255 0.16925 0.0
H480 H 0.28915 0.81342 0.2122 0.0
H481 H 0.30365 0.79265 0.19811 0.0
C482 C 0.29738 0.72432 0.14347 0.0
C483 C 0.29408 0.71668 0.15847 0.0
C484 C 0.30454 0.74004 0.14322 0.0
C485 C 0.30856 0.74839 0.15795 0.0
C486 C 0.30531 0.74079 0.17292 0.0
C487 C 0.2982 0.72508 0.17318 0.0
C488 C 0.31605 0.76511 0.15789 0.0
C489 C 0.30857 0.77729 0.16626 0.0
C490 C 0.33041 0.76909 0.14971 0.0
C491 C 0.33914 0.75669 0.14112 0.0
C492 C 0.34376 0.74321 0.14952 0.0
C493 C 0.35194 0.73155 0.14131 0.0
C494 C 0.35568 0.7333 0.12472 0.0
C495 C 0.35128 0.74675 0.11633 0.0
C496 C 0.34308 0.75844 0.12448 0.0
C497 C 0.35082 0.8341 0.17959 0.0
C498 C 0.35687 0.84276 0.16606 0.0
C499 C 0.34181 0.81947 0.1773 0.0
C500 C 0.33853 0.81324 0.16144 0.0
C501 C 0.34432 0.82199 0.14787 0.0
C502 C 0.35337 0.83665 0.15015 0.0
C503 C 0.32981 0.79717 0.15918 0.0
C504 C 0.33704 0.7851 0.15036 0.0
C505 C 0.31518 0.79329 0.1669 0.0
C506 C 0.30643 0.80575 0.17543 0.0
C507 C 0.30314 0.81993 0.16738 0.0
C508 C 0.29496 0.83166 0.1755 0.0
C509 C 0.28994 0.82932 0.19164 0.0
C510 C 0.29305 0.81522 0.1997 0.0
C511 C 0.30123 0.80346 0.19164 0.0
H512 H 0.28361 0.83841 0.1979 0.0
H513 H 0.36201 0.72426 0.11839 0.0
H514 H 0.36342 0.76788 0.62461 0.0
H515 H 0.34496 0.78702 0.63416 0.0
H516 H 0.31587 0.7757 0.59158 0.0
H517 H 0.3344 0.75665 0.58179 0.0
H518 H 0.31729 0.808 0.59964 0.0
H519 H 0.30712 0.75744 0.62709 0.0
H520 H 0.31399 0.7344 0.64353 0.0
H521 H 0.32776 0.76667 0.68368 0.0
H522 H 0.32116 0.78994 0.66738 0.0
H523 H 0.24361 0.83022 0.62969 0.0
H524 H 0.26585 0.81716 0.61809 0.0
H525 H 0.29169 0.8267 0.66319 0.0
H526 H 0.26934 0.83969 0.6749 0.0
H527 H 0.2931 0.79659 0.65393 0.0
H528 H 0.30141 0.84723 0.62695 0.0
H529 H 0.29397 0.87001 0.61046 0.0
H530 H 0.28328 0.83775 0.56948 0.0
H531 H 0.29046 0.81473 0.58579 0.0
C532 C 0.35321 0.76959 0.61714 0.0
C533 C 0.35029 0.76059 0.60252 0.0
C534 C 0.34265 0.78052 0.62265 0.0
C535 C 0.32891 0.78258 0.61372 0.0
C536 C 0.32638 0.77426 0.59868 0.0
C537 C 0.33696 0.76333 0.59314 0.0
C538 C 0.31671 0.79257 0.62057 0.0
C539 C 0.31189 0.80546 0.61145 0.0
C540 C 0.30989 0.78942 0.63611 0.0
C541 C 0.31381 0.77544 0.64596 0.0
C542 C 0.31173 0.75963 0.63938 0.0
C543 C 0.31555 0.74653 0.64868 0.0
C544 C 0.32135 0.74908 0.66463 0.0
C545 C 0.32329 0.76473 0.67132 0.0
C546 C 0.3195 0.77787 0.66206 0.0
C547 C 0.25421 0.83 0.63695 0.0
C548 C 0.25488 0.8363 0.65307 0.0
C549 C 0.2669 0.82244 0.63033 0.0
C550 C 0.28058 0.82116 0.63965 0.0
C551 C 0.28131 0.8276 0.65573 0.0
C552 C 0.26855 0.83503 0.6624 0.0
C553 C 0.29365 0.81215 0.63307 0.0
C554 C 0.29859 0.79932 0.64221 0.0
C555 C 0.30053 0.81539 0.61755 0.0
C556 C 0.29636 0.82923 0.60764 0.0
C557 C 0.29738 0.84498 0.61445 0.0
C558 C 0.29322 0.85794 0.60513 0.0
C559 C 0.28812 0.85532 0.58894 0.0
C560 C 0.28722 0.83975 0.58203 0.0
C561 C 0.29135 0.82675 0.5913 0.0
H562 H 0.28489 0.86537 0.58175 0.0
H563 H 0.3243 0.73892 0.67181 0.0
H564 H 0.10756 0.81274 0.4186 0.0
H565 H 0.10095 0.78557 0.40741 0.0
H566 H 0.11519 0.80151 0.35926 0.0
H567 H 0.12181 0.82882 0.37035 0.0
H568 H 0.08804 0.78005 0.3588 0.0
H569 H 0.14045 0.78361 0.38147 0.0
H570 H 0.1604 0.78955 0.40309 0.0
H571 H 0.13603 0.75485 0.43423 0.0
H572 H 0.1158 0.74886 0.41287 0.0
H573 H 0.10678 0.70676 0.32021 0.0
H574 H 0.10542 0.7339 0.33177 0.0
H575 H 0.09622 0.71403 0.37961 0.0
H576 H 0.09792 0.68677 0.36818 0.0
H577 H 0.11889 0.73731 0.38132 0.0
H578 H 0.06757 0.73188 0.35772 0.0
H579 H 0.04766 0.72586 0.33609 0.0
H580 H 0.0695 0.76368 0.30678 0.0
H581 H 0.08969 0.76977 0.32814 0.0
C582 C 0.10911 0.81056 0.40559 0.0
C583 C 0.11538 0.82291 0.3954 0.0
C584 C 0.10534 0.79501 0.39922 0.0
C585 C 0.10778 0.7915 0.38256 0.0
C586 C 0.11325 0.80398 0.37217 0.0
C587 C 0.11707 0.81956 0.37854 0.0
C588 C 0.1057 0.77462 0.37625 0.0
C589 C 0.09485 0.77069 0.3636 0.0
C590 C 0.11434 0.76239 0.38282 0.0
C591 C 0.12652 0.76592 0.39565 0.0
C592 C 0.13928 0.77734 0.39298 0.0
C593 C 0.15065 0.7807 0.40518 0.0
C594 C 0.14946 0.77262 0.42005 0.0
C595 C 0.13692 0.76112 0.42273 0.0
C596 C 0.1255 0.75774 0.41057 0.0
C597 C 0.10427 0.70811 0.33316 0.0
C598 C 0.10254 0.69459 0.34329 0.0
C599 C 0.1034 0.72367 0.33974 0.0
C600 C 0.10059 0.72602 0.35654 0.0
C601 C 0.09839 0.7125 0.36661 0.0
C602 C 0.09934 0.69693 0.36004 0.0
C603 C 0.1012 0.74261 0.36379 0.0
C604 C 0.11188 0.74654 0.3766 0.0
C605 C 0.09237 0.7548 0.35736 0.0
C606 C 0.08022 0.75119 0.34449 0.0
C607 C 0.0682 0.73883 0.34661 0.0
C608 C 0.05685 0.73542 0.33441 0.0
C609 C 0.05734 0.74436 0.32006 0.0
C610 C 0.06915 0.75675 0.3179 0.0
C611 C 0.08054 0.76021 0.33006 0.0
H612 H 0.04854 0.7417 0.31062 0.0
H613 H 0.15827 0.77523 0.42947 0.0
H614 H 0.35211 0.55167 0.78007 0.0
H615 H 0.33555 0.55814 0.8032 0.0
H616 H 0.30016 0.52135 0.78688 0.0
H617 H 0.31656 0.51508 0.76333 0.0
H618 H 0.28702 0.54792 0.79361 0.0
H619 H 0.32226 0.5172 0.82238 0.0
H620 H 0.34777 0.50834 0.83125 0.0
H621 H 0.36018 0.55529 0.85259 0.0
H622 H 0.33483 0.56452 0.84364 0.0
H623 H 0.24217 0.56355 0.86573 0.0
H624 H 0.25782 0.54924 0.84592 0.0
H625 H 0.29536 0.58692 0.85072 0.0
H626 H 0.27959 0.60156 0.8701 0.0
H627 H 0.30582 0.55588 0.851 0.0
H628 H 0.27135 0.58677 0.81874 0.0
H629 H 0.24547 0.59494 0.81013 0.0
H630 H 0.23124 0.54592 0.79587 0.0
H631 H 0.25698 0.53743 0.80461 0.0
C632 C 0.3409 0.54478 0.78148 0.0
C633 C 0.33565 0.53288 0.7698 0.0
C634 C 0.33146 0.54844 0.79481 0.0
C635 C 0.31665 0.54012 0.79693 0.0
C636 C 0.31154 0.52792 0.78553 0.0
C637 C 0.32095 0.52433 0.77209 0.0
C638 C 0.30613 0.54504 0.81035 0.0
C639 C 0.29103 0.54929 0.80622 0.0
C640 C 0.31138 0.54707 0.8268 0.0
C641 C 0.32666 0.54159 0.83223 0.0
C642 C 0.33047 0.52568 0.82886 0.0
C643 C 0.3449 0.52058 0.83392 0.0
C644 C 0.3556 0.53125 0.84245 0.0
C645 C 0.35188 0.54704 0.84597 0.0
C646 C 0.33747 0.5522 0.84093 0.0
C647 C 0.25357 0.56899 0.8623 0.0
C648 C 0.25939 0.58398 0.86908 0.0
C649 C 0.2626 0.56067 0.85115 0.0
C650 C 0.27766 0.56712 0.84672 0.0
C651 C 0.28375 0.58175 0.85396 0.0
C652 C 0.2747 0.59011 0.86501 0.0
C653 C 0.28696 0.559 0.83412 0.0
C654 C 0.30179 0.5542 0.83842 0.0
C655 C 0.28142 0.55631 0.81787 0.0
C656 C 0.26601 0.56144 0.8125 0.0
C657 C 0.26265 0.57772 0.81389 0.0
C658 C 0.24802 0.58241 0.80897 0.0
C659 C 0.2367 0.57095 0.80251 0.0
C660 C 0.24001 0.55478 0.80091 0.0
C661 C 0.25462 0.55002 0.80583 0.0
H662 H 0.22538 0.5746 0.79871 0.0
H663 H 0.36676 0.52728 0.84636 0.0
H664 H 0.57382 0.8905 0.39631 0.0
H665 H 0.57291 0.86107 0.39729 0.0
H666 H 0.57056 0.85812 0.34446 0.0
H667 H 0.57144 0.88762 0.34342 0.0
H668 H 0.55108 0.83481 0.35797 0.0
H669 H 0.60501 0.85449 0.36417 0.0
H670 H 0.62748 0.87118 0.37613 0.0
H671 H 0.61845 0.84973 0.423 0.0
H672 H 0.59577 0.83306 0.41137 0.0
H673 H 0.57621 0.75477 0.35021 0.0
H674 H 0.57403 0.78393 0.34853 0.0
H675 H 0.57334 0.78779 0.40136 0.0
H676 H 0.5758 0.75872 0.40309 0.0
H677 H 0.5941 0.8105 0.38731 0.0
H678 H 0.54013 0.79042 0.38045 0.0
H679 H 0.51809 0.77357 0.36787 0.0
H680 H 0.52789 0.79552 0.32137 0.0
H681 H 0.55015 0.81235 0.33362 0.0
C682 C 0.57298 0.88358 0.3849 0.0
C683 C 0.57254 0.89137 0.36979 0.0
C684 C 0.57251 0.86676 0.38548 0.0
C685 C 0.57187 0.8574 0.37094 0.0
C686 C 0.57099 0.86511 0.35583 0.0
C687 C 0.57137 0.88197 0.35525 0.0
C688 C 0.57265 0.83962 0.37156 0.0
C689 C 0.56059 0.82948 0.36419 0.0
C690 C 0.58494 0.83267 0.3799 0.0
C691 C 0.5986 0.84264 0.38693 0.0
C692 C 0.60774 0.85342 0.37706 0.0
C693 C 0.62053 0.86286 0.38377 0.0
C694 C 0.62437 0.86155 0.40032 0.0
C695 C 0.61545 0.85075 0.41019 0.0
C696 C 0.60263 0.84129 0.40354 0.0
C697 C 0.5755 0.76184 0.36145 0.0
C698 C 0.57585 0.75443 0.37678 0.0
C699 C 0.57417 0.77846 0.36048 0.0
C700 C 0.57332 0.78798 0.37482 0.0
C701 C 0.57383 0.78063 0.39014 0.0
C702 C 0.57503 0.76399 0.39112 0.0
C703 C 0.57248 0.8057 0.37386 0.0
C704 C 0.58458 0.81583 0.38111 0.0
C705 C 0.56031 0.8126 0.36531 0.0
C706 C 0.54691 0.80253 0.35792 0.0
C707 C 0.53767 0.79155 0.36751 0.0
C708 C 0.52512 0.78203 0.36044 0.0
C709 C 0.52161 0.78344 0.34382 0.0
C710 C 0.53063 0.79442 0.33424 0.0
C711 C 0.54321 0.80397 0.34124 0.0
H712 H 0.51189 0.77606 0.33837 0.0
H713 H 0.63427 0.86887 0.4055 0.0
H714 H 0.29604 0.10382 0.96628 0.0
H715 H 0.27662 0.10139 0.94408 0.0
H716 H 0.31395 0.106 0.90841 0.0
H717 H 0.33335 0.1087 0.93044 0.0
H718 H 0.29106 0.12454 0.90068 0.0
H719 H 0.29437 0.06928 0.91664 0.0
H720 H 0.29316 0.0467 0.9359 0.0
H721 H 0.24497 0.05414 0.94664 0.0
H722 H 0.24596 0.07692 0.92759 0.0
H723 H 0.25495 0.09219 0.82794 0.0
H724 H 0.27085 0.09871 0.85237 0.0
H725 H 0.22922 0.09409 0.88244 0.0
H726 H 0.21317 0.08734 0.85801 0.0
H727 H 0.2521 0.07725 0.89457 0.0
H728 H 0.24827 0.13103 0.87628 0.0
H729 H 0.24967 0.15316 0.8565 0.0
H730 H 0.29898 0.14828 0.84971 0.0
H731 H 0.29784 0.12596 0.86929 0.0
C732 C 0.30011 0.10425 0.95371 0.0
C733 C 0.31625 0.10644 0.95013 0.0
C734 C 0.28899 0.10283 0.94103 0.0
C735 C 0.29383 0.10342 0.92457 0.0
C736 C 0.30994 0.10556 0.92101 0.0
C737 C 0.32102 0.10703 0.93364 0.0
C738 C 0.28221 0.10192 0.91096 0.0
C739 C 0.28262 0.11413 0.89926 0.0
C740 C 0.2709 0.08859 0.90938 0.0
C741 C 0.2703 0.07492 0.92084 0.0
C742 C 0.28356 0.06619 0.92322 0.0
C743 C 0.28291 0.05334 0.93407 0.0
C744 C 0.26902 0.04902 0.94253 0.0
C745 C 0.25573 0.05752 0.94011 0.0
C746 C 0.25633 0.07039 0.92928 0.0
C747 C 0.24911 0.09276 0.8397 0.0
C748 C 0.23277 0.0892 0.84101 0.0
C749 C 0.25823 0.09656 0.85367 0.0
C750 C 0.25121 0.09699 0.86923 0.0
C751 C 0.23487 0.09384 0.87055 0.0
C752 C 0.22571 0.09004 0.85656 0.0
C753 C 0.26112 0.09973 0.88414 0.0
C754 C 0.2604 0.08776 0.89608 0.0
C755 C 0.27218 0.11326 0.88591 0.0
C756 C 0.27294 0.12673 0.87417 0.0
C757 C 0.25939 0.13459 0.87048 0.0
C758 C 0.26014 0.14718 0.85932 0.0
C759 C 0.2744 0.1521 0.85183 0.0
C760 C 0.28794 0.14445 0.85552 0.0
C761 C 0.28725 0.13184 0.86666 0.0
H762 H 0.27496 0.16185 0.84319 0.0
H763 H 0.26853 0.03907 0.95092 0.0
H764 H 0.77237 0.23772 0.01298 0.0
H765 H 0.77557 0.26709 0.01697 0.0
H766 H 0.82288 0.26752 0.99825 0.0
H767 H 0.81967 0.23826 0.99406 0.0
H768 H 0.82154 0.28598 0.02571 0.0
H769 H 0.79244 0.27864 0.97455 0.0
H770 H 0.76999 0.26795 0.95745 0.0
H771 H 0.73841 0.2924 0.98847 0.0
H772 H 0.76067 0.30306 0.00588 0.0
H773 H 0.84298 0.36446 0.00039 0.0
H774 H 0.83559 0.33571 0.00271 0.0
H775 H 0.78979 0.34615 0.02048 0.0
H776 H 0.79704 0.37516 0.0179 0.0
H777 H 0.78747 0.3225 0.99747 0.0
H778 H 0.81677 0.33263 0.04666 0.0
H779 H 0.83903 0.34327 0.06402 0.0
H780 H 0.86984 0.3136 0.03759 0.0
H781 H 0.84782 0.30294 0.01991 0.0
C782 C 0.7833 0.24411 0.00936 0.0
C783 C 0.79562 0.23573 0.00279 0.0
C784 C 0.78518 0.26088 0.01181 0.0
C785 C 0.7994 0.26952 0.00773 0.0
C786 C 0.8118 0.2611 0.00148 0.0
C787 C 0.80994 0.24439 0.99906 0.0
C788 C 0.80153 0.28733 0.00985 0.0
C789 C 0.81416 0.29398 0.01946 0.0
C790 C 0.79153 0.29775 0.0022 0.0
C791 C 0.77819 0.29149 0.99162 0.0
C792 C 0.78069 0.28164 0.97779 0.0
C793 C 0.76801 0.2756 0.96803 0.0
C794 C 0.75277 0.27945 0.9719 0.0
C795 C 0.75021 0.2894 0.98551 0.0
C796 C 0.76285 0.29545 0.99532 0.0
C797 C 0.83136 0.36071 0.00491 0.0
C798 C 0.82061 0.37213 0.00899 0.0
C799 C 0.82717 0.34423 0.00631 0.0
C800 C 0.81221 0.33877 0.01199 0.0
C801 C 0.80142 0.35011 0.01614 0.0
C802 C 0.8056 0.36667 0.0147 0.0
C803 C 0.8078 0.32116 0.01292 0.0
C804 C 0.79472 0.31454 0.00394 0.0
C805 C 0.81735 0.31074 0.02122 0.0
C806 C 0.83064 0.31706 0.03188 0.0
C807 C 0.82831 0.32845 0.04447 0.0
C808 C 0.84089 0.33447 0.05438 0.0
C809 C 0.85584 0.32913 0.0519 0.0
C810 C 0.85825 0.31773 0.03951 0.0
C811 C 0.84572 0.31167 0.02955 0.0
H812 H 0.86556 0.33381 0.05958 0.0
H813 H 0.74297 0.27476 0.96434 0.0
H814 H 0.75715 0.34031 0.62532 0.0
H815 H 0.75972 0.3122 0.6171 0.0
H816 H 0.79911 0.32719 0.58635 0.0
H817 H 0.79619 0.35535 0.59399 0.0
H818 H 0.78129 0.30281 0.57186 0.0
H819 H 0.80434 0.31459 0.6256 0.0
H820 H 0.80396 0.32345 0.65465 0.0
H821 H 0.76775 0.28609 0.66463 0.0
H822 H 0.7678 0.27713 0.63558 0.0
H823 H 0.83182 0.23959 0.57095 0.0
H824 H 0.81798 0.26411 0.57317 0.0
H825 H 0.78209 0.23915 0.60252 0.0
H826 H 0.79604 0.21453 0.60055 0.0
H827 H 0.79301 0.26657 0.61715 0.0
H828 H 0.77373 0.25185 0.56381 0.0
H829 H 0.77508 0.24295 0.53485 0.0
H830 H 0.80474 0.28553 0.52389 0.0
H831 H 0.80377 0.29458 0.55284 0.0
C832 C 0.76599 0.33772 0.61638 0.0
C833 C 0.77635 0.35012 0.61019 0.0
C834 C 0.76759 0.32158 0.61185 0.0
C835 C 0.77972 0.31757 0.60124 0.0
C836 C 0.78965 0.32999 0.59453 0.0
C837 C 0.78803 0.34608 0.599 0.0
C838 C 0.78296 0.30048 0.59804 0.0
C839 C 0.78389 0.29487 0.58174 0.0
C840 C 0.78594 0.28998 0.61095 0.0
C841 C 0.78593 0.29533 0.6284 0.0
C842 C 0.79622 0.30835 0.63397 0.0
C843 C 0.79607 0.31337 0.65043 0.0
C844 C 0.7858 0.30537 0.66147 0.0
C845 C 0.77568 0.2923 0.65607 0.0
C846 C 0.77576 0.28724 0.63961 0.0
C847 C 0.82084 0.2392 0.57765 0.0
C848 C 0.8151 0.22512 0.58567 0.0
C849 C 0.81287 0.25323 0.57882 0.0
C850 C 0.79892 0.25346 0.58792 0.0
C851 C 0.79282 0.23924 0.59541 0.0
C852 C 0.8008 0.22517 0.59424 0.0
C853 C 0.79169 0.26895 0.59092 0.0
C854 C 0.79006 0.27431 0.60722 0.0
C855 C 0.78815 0.27921 0.578 0.0
C856 C 0.78874 0.27384 0.56054 0.0
C857 C 0.78064 0.25926 0.55526 0.0
C858 C 0.78132 0.2542 0.53883 0.0
C859 C 0.79001 0.26366 0.52755 0.0
C860 C 0.79801 0.27821 0.53265 0.0
C861 C 0.79738 0.28333 0.54906 0.0
H862 H 0.79052 0.25971 0.51484 0.0
H863 H 0.78571 0.30928 0.67421 0.0
H864 H 0.14085 0.09463 0.80709 0.0
H865 H 0.12214 0.11384 0.79899 0.0
H866 H 0.15617 0.13551 0.76528 0.0
H867 H 0.17504 0.11646 0.77347 0.0
H868 H 0.14187 0.15822 0.7825 0.0
H869 H 0.1257 0.11014 0.75138 0.0
H870 H 0.11763 0.0812 0.74715 0.0
H871 H 0.07748 0.08588 0.7781 0.0
H872 H 0.08543 0.11482 0.78269 0.0
H873 H 0.08995 0.20206 0.73578 0.0
H874 H 0.10882 0.18337 0.74473 0.0
H875 H 0.07456 0.16206 0.7784 0.0
H876 H 0.05554 0.1806 0.76938 0.0
H877 H 0.08893 0.13923 0.76143 0.0
H878 H 0.10499 0.18746 0.7923 0.0
H879 H 0.11304 0.21643 0.79633 0.0
H880 H 0.15339 0.21152 0.76572 0.0
H881 H 0.14546 0.18254 0.76131 0.0
C882 C 0.14437 0.10348 0.79796 0.0
C883 C 0.15943 0.10398 0.79088 0.0
C884 C 0.13363 0.11442 0.79329 0.0
C885 C 0.13769 0.12599 0.78139 0.0
C886 C 0.15278 0.12666 0.77447 0.0
C887 C 0.16354 0.11573 0.77913 0.0
C888 C 0.12621 0.13743 0.77618 0.0
C889 C 0.13037 0.15408 0.77769 0.0
C890 C 0.11107 0.13201 0.77026 0.0
C891 C 0.10625 0.11461 0.76751 0.0
C892 C 0.11522 0.10497 0.75739 0.0
C893 C 0.11066 0.08857 0.75491 0.0
C894 C 0.09707 0.08169 0.76239 0.0
C895 C 0.08801 0.09122 0.77234 0.0
C896 C 0.09253 0.10762 0.77487 0.0
C897 C 0.08643 0.19343 0.74512 0.0
C898 C 0.07125 0.19284 0.75189 0.0
C899 C 0.09726 0.1828 0.75027 0.0
C900 C 0.09315 0.17142 0.76236 0.0
C901 C 0.07798 0.17075 0.76908 0.0
C902 C 0.06714 0.18139 0.76394 0.0
C903 C 0.10459 0.16003 0.76776 0.0
C904 C 0.10042 0.14339 0.76627 0.0
C905 C 0.11973 0.16545 0.77369 0.0
C906 C 0.12455 0.18286 0.77635 0.0
C907 C 0.11551 0.19258 0.78632 0.0
C908 C 0.12007 0.209 0.78869 0.0
C909 C 0.13369 0.21582 0.78125 0.0
C910 C 0.14282 0.20622 0.77146 0.0
C911 C 0.13831 0.1898 0.76903 0.0
H912 H 0.1372 0.22853 0.78311 0.0
H913 H 0.09356 0.06899 0.76045 0.0
H914 H 0.04589 0.64953 0.27827 0.0
H915 H 0.01957 0.64382 0.26681 0.0
H916 H 0.01078 0.60472 0.30048 0.0
H917 H 0.03731 0.61009 0.31171 0.0
H918 H 0.00032 0.59564 0.2712 0.0
H919 H 0.99461 0.64141 0.30633 0.0
H920 H 0.00104 0.66881 0.31785 0.0
H921 H 0.99289 0.68912 0.27088 0.0
H922 H 0.98661 0.66182 0.25902 0.0
H923 H 0.91746 0.58816 0.25495 0.0
H924 H 0.94279 0.59306 0.26909 0.0
H925 H 0.95765 0.62872 0.2334 0.0
H926 H 0.9323 0.62404 0.21938 0.0
H927 H 0.96408 0.63909 0.26557 0.0
H928 H 0.97087 0.59249 0.23062 0.0
H929 H 0.96415 0.56487 0.21982 0.0
H930 H 0.96961 0.54593 0.26792 0.0
H931 H 0.97617 0.57349 0.27905 0.0
C932 C 0.03836 0.63973 0.28326 0.0
C933 C 0.04367 0.6303 0.29594 0.0
C934 C 0.02327 0.63652 0.27675 0.0
C935 C 0.01308 0.624 0.28296 0.0
C936 C 0.01841 0.61447 0.29552 0.0
C937 C 0.03357 0.61758 0.30195 0.0
C938 C 0.99698 0.62073 0.27614 0.0
C939 C 0.9923 0.60509 0.27024 0.0
C940 C 0.98657 0.6331 0.27466 0.0
C941 C 0.99027 0.64955 0.28176 0.0
C942 C 0.9943 0.65171 0.29843 0.0
C943 C 0.9979 0.66723 0.30502 0.0
C944 C 0.99741 0.6807 0.29509 0.0
C945 C 0.99328 0.67868 0.27856 0.0
C946 C 0.98968 0.66318 0.27189 0.0
C947 C 0.92602 0.59724 0.25031 0.0
C948 C 0.92282 0.60592 0.23624 0.0
C949 C 0.94055 0.59989 0.25827 0.0
C950 C 0.95208 0.61125 0.25227 0.0
C951 C 0.94888 0.61995 0.23825 0.0
C952 C 0.93444 0.6172 0.23022 0.0
C953 C 0.96756 0.61409 0.26051 0.0
C954 C 0.97208 0.62965 0.26668 0.0
C955 C 0.97776 0.60163 0.26238 0.0
C956 C 0.97383 0.58506 0.2557 0.0
C957 C 0.9705 0.58245 0.23892 0.0
C958 C 0.96675 0.56681 0.23273 0.0
C959 C 0.96641 0.55366 0.24319 0.0
C960 C 0.96986 0.55613 0.25985 0.0
C961 C 0.9736 0.57176 0.2661 0.0
H962 H 0.96351 0.54155 0.23837 0.0
H963 H 0.0002 0.6927 0.30022 0.0
H964 H 0.45097 0.36618 0.69085 0.0
H965 H 0.43366 0.38828 0.69011 0.0
H966 H 0.46968 0.42027 0.7133 0.0
H967 H 0.48706 0.39827 0.71412 0.0
H968 H 0.44108 0.42098 0.72859 0.0
H969 H 0.46127 0.42449 0.6736 0.0
H970 H 0.46738 0.41409 0.646 0.0
H971 H 0.41836 0.40109 0.63723 0.0
H972 H 0.41197 0.41122 0.66489 0.0
H973 H 0.40499 0.49416 0.72161 0.0
H974 H 0.42308 0.47285 0.71956 0.0
H975 H 0.38845 0.44288 0.69195 0.0
H976 H 0.37043 0.46436 0.69355 0.0
H977 H 0.41631 0.44092 0.67865 0.0
H978 H 0.39575 0.43646 0.73309 0.0
H979 H 0.38893 0.44593 0.76085 0.0
H980 H 0.43764 0.45943 0.77093 0.0
H981 H 0.44472 0.45023 0.74314 0.0
C982 C 0.45529 0.37797 0.69562 0.0
C983 C 0.47038 0.38045 0.70259 0.0
C984 C 0.44539 0.39059 0.69514 0.0
C985 C 0.45041 0.40592 0.70162 0.0
C986 C 0.46558 0.40852 0.70826 0.0
C987 C 0.47551 0.39594 0.70866 0.0
C988 C 0.43956 0.41902 0.70226 0.0
C989 C 0.43584 0.42553 0.71765 0.0
C990 C 0.43234 0.42454 0.68803 0.0
C991 C 0.43616 0.41847 0.67138 0.0
C992 C 0.4518 0.41929 0.66585 0.0
C993 C 0.45532 0.41347 0.65018 0.0
C994 C 0.44327 0.40689 0.63988 0.0
C995 C 0.42768 0.40617 0.64523 0.0
C996 C 0.42411 0.41196 0.66089 0.0
C997 C 0.4012 0.48303 0.71512 0.0
C998 C 0.38624 0.48092 0.70782 0.0
C999 C 0.41155 0.47082 0.714 0.0
C1000 C 0.40705 0.45614 0.70581 0.0
C1001 C 0.39217 0.45408 0.69835 0.0
C1002 C 0.38187 0.46635 0.69933 0.0
C1003 C 0.41788 0.44298 0.705 0.0
C1004 C 0.42156 0.43642 0.68959 0.0
C1005 C 0.42496 0.43727 0.71924 0.0
C1006 C 0.42074 0.4428 0.73597 0.0
C1007 C 0.40499 0.44156 0.74118 0.0
C1008 C 0.40108 0.44686 0.75693 0.0
C1009 C 0.41284 0.45332 0.76763 0.0
C1010 C 0.42854 0.45445 0.76262 0.0
C1011 C 0.43251 0.44918 0.74688 0.0
H1012 H 0.40979 0.45742 0.77982 0.0
H1013 H 0.44602 0.4024 0.62776 0.0
H1014 H 0.72206 0.00238 0.26325 0.0
H1015 H 0.69913 0.99262 0.2791 0.0
H1016 H 0.72403 0.00564 0.32406 0.0
H1017 H 0.74718 0.01532 0.30827 0.0
H1018 H 0.70801 0.97586 0.32555 0.0
H1019 H 0.69682 0.02925 0.31017 0.0
H1020 H 0.69392 0.05144 0.29103 0.0
H1021 H 0.65798 0.02241 0.26477 0.0
H1022 H 0.66082 0.99995 0.28363 0.0
H1023 H 0.64046 0.96855 0.37686 0.0
H1024 H 0.66427 0.97849 0.3624 0.0
H1025 H 0.64057 0.96929 0.31602 0.0
H1026 H 0.61662 0.95969 0.33039 0.0
H1027 H 0.65642 0.99782 0.31605 0.0
H1028 H 0.66787 0.94424 0.33061 0.0
H1029 H 0.67081 0.92166 0.34927 0.0
H1030 H 0.70617 0.9505 0.37654 0.0
H1031 H 0.70328 0.97333 0.35816 0.0
C1032 C 0.72271 0.00318 0.27651 0.0
C1033 C 0.73644 0.00972 0.2845 0.0
C1034 C 0.70955 0.99764 0.28555 0.0
C1035 C 0.70981 0.9986 0.30275 0.0
C1036 C 0.72358 0.00484 0.31079 0.0
C1037 C 0.73678 0.0104 0.30175 0.0
C1038 C 0.69565 0.99312 0.31228 0.0
C1039 C 0.69677 0.98082 0.32367 0.0
C1040 C 0.68093 0.99935 0.30953 0.0
C1041 C 0.67913 0.01287 0.29823 0.0
C1042 C 0.68838 0.02755 0.30024 0.0
C1043 C 0.68673 0.04019 0.28946 0.0
C1044 C 0.6758 0.03832 0.27667 0.0
C1045 C 0.66646 0.02383 0.27467 0.0
C1046 C 0.66807 0.01115 0.28541 0.0
C1047 C 0.64033 0.96861 0.36358 0.0
C1048 C 0.62665 0.96331 0.35477 0.0
C1049 C 0.65397 0.97423 0.35533 0.0
C1050 C 0.65427 0.97446 0.33811 0.0
C1051 C 0.64062 0.96922 0.3293 0.0
C1052 C 0.62694 0.9637 0.33754 0.0
C1053 C 0.66871 0.98044 0.32924 0.0
C1054 C 0.66765 0.99287 0.31798 0.0
C1055 C 0.68347 0.97427 0.33206 0.0
C1056 C 0.68524 0.96055 0.34311 0.0
C1057 C 0.67618 0.94581 0.34066 0.0
C1058 C 0.67785 0.93296 0.35117 0.0
C1059 C 0.68864 0.93466 0.36411 0.0
C1060 C 0.6978 0.94921 0.36653 0.0
C1061 C 0.69616 0.9621 0.35606 0.0
H1062 H 0.68992 0.9247 0.37223 0.0
H1063 H 0.67454 0.04812 0.26833 0.0
H1064 H 0.05531 0.48946 0.81443 0.0
H1065 H 0.08094 0.50412 0.81916 0.0
H1066 H 0.08162 0.48611 0.8684 0.0
H1067 H 0.05589 0.47164 0.86387 0.0
H1068 H 0.09126 0.51758 0.86792 0.0
H1069 H 0.10289 0.46962 0.83762 0.0
H1070 H 0.10058 0.45001 0.81447 0.0
H1071 H 0.11626 0.48732 0.78121 0.0
H1072 H 0.11846 0.50721 0.80415 0.0
H1073 H 0.17159 0.53331 0.88712 0.0
H1074 H 0.14578 0.51979 0.88093 0.0
H1075 H 0.14762 0.53952 0.83237 0.0
H1076 H 0.17361 0.55294 0.83838 0.0
H1077 H 0.13648 0.50818 0.83166 0.0
H1078 H 0.12567 0.55598 0.86205 0.0
H1079 H 0.128 0.57561 0.88517 0.0
H1080 H 0.11072 0.53874 0.91821 0.0
H1081 H 0.10849 0.51882 0.89531 0.0
C1082 C 0.06089 0.48866 0.82629 0.0
C1083 C 0.05359 0.47933 0.83876 0.0
C1084 C 0.07557 0.49698 0.82894 0.0
C1085 C 0.08328 0.49604 0.84406 0.0
C1086 C 0.07589 0.48699 0.85663 0.0
C1087 C 0.0612 0.47869 0.854 0.0
C1088 C 0.09909 0.50443 0.84682 0.0
C1089 C 0.10119 0.51538 0.86011 0.0
C1090 C 0.11194 0.50188 0.83636 0.0
C1091 C 0.11068 0.48993 0.82257 0.0
C1092 C 0.10573 0.47366 0.82535 0.0
C1093 C 0.10446 0.4625 0.81227 0.0
C1094 C 0.10823 0.46742 0.79637 0.0
C1095 C 0.11332 0.48352 0.79353 0.0
C1096 C 0.11459 0.49475 0.80656 0.0
C1097 C 0.16655 0.53475 0.87509 0.0
C1098 C 0.17463 0.54429 0.86327 0.0
C1099 C 0.15175 0.52707 0.87161 0.0
C1100 C 0.14467 0.52886 0.85629 0.0
C1101 C 0.15285 0.53803 0.8443 0.0
C1102 C 0.16769 0.54571 0.84776 0.0
C1103 C 0.12868 0.5212 0.85286 0.0
C1104 C 0.12653 0.51042 0.83944 0.0
C1105 C 0.11577 0.52391 0.86319 0.0
C1106 C 0.11705 0.53587 0.87698 0.0
C1107 C 0.12248 0.55202 0.87426 0.0
C1108 C 0.12376 0.56321 0.88732 0.0
C1109 C 0.11955 0.55842 0.90315 0.0
C1110 C 0.114 0.54243 0.90595 0.0
C1111 C 0.11271 0.53119 0.89293 0.0
H1112 H 0.12054 0.5671 0.91325 0.0
H1113 H 0.10724 0.45876 0.78626 0.0
H1114 H 0.63822 0.67825 0.35599 0.0
H1115 H 0.66407 0.66931 0.36277 0.0
H1116 H 0.65947 0.6873 0.41238 0.0
H1117 H 0.63356 0.69616 0.40575 0.0
H1118 H 0.68921 0.69548 0.39838 0.0
H1119 H 0.65301 0.64868 0.40565 0.0
H1120 H 0.63203 0.62808 0.39721 0.0
H1121 H 0.66085 0.61243 0.35773 0.0
H1122 H 0.68193 0.63311 0.36581 0.0
H1123 H 0.7466 0.65516 0.4404 0.0
H1124 H 0.72255 0.66588 0.43065 0.0
H1125 H 0.72791 0.64208 0.3837 0.0
H1126 H 0.75195 0.63111 0.39344 0.0
H1127 H 0.69834 0.63725 0.39458 0.0
H1128 H 0.73516 0.6828 0.38788 0.0
H1129 H 0.75626 0.70342 0.39593 0.0
H1130 H 0.7267 0.72163 0.43347 0.0
H1131 H 0.70549 0.70096 0.4258 0.0
C1132 C 0.64274 0.68037 0.36833 0.0
C1133 C 0.63382 0.68786 0.38036 0.0
C1134 C 0.65748 0.67522 0.37218 0.0
C1135 C 0.66361 0.67756 0.3881 0.0
C1136 C 0.65492 0.68538 0.40002 0.0
C1137 C 0.64011 0.69038 0.39623 0.0
C1138 C 0.67896 0.67158 0.39242 0.0
C1139 C 0.69119 0.68274 0.39771 0.0
C1140 C 0.68163 0.655 0.3911 0.0
C1141 C 0.66897 0.64257 0.38622 0.0
C1142 C 0.65481 0.64095 0.39508 0.0
C1143 C 0.64292 0.62924 0.39038 0.0
C1144 C 0.64509 0.61899 0.37691 0.0
C1145 C 0.65918 0.6204 0.36814 0.0
C1146 C 0.67111 0.63211 0.37278 0.0
C1147 C 0.74274 0.65226 0.42796 0.0
C1148 C 0.75121 0.64226 0.4177 0.0
C1149 C 0.72901 0.65847 0.42237 0.0
C1150 C 0.7235 0.65492 0.40638 0.0
C1151 C 0.73195 0.64499 0.39608 0.0
C1152 C 0.74571 0.63876 0.40166 0.0
C1153 C 0.70864 0.66114 0.40067 0.0
C1154 C 0.69646 0.65002 0.39513 0.0
C1155 C 0.70605 0.67777 0.40169 0.0
C1156 C 0.71878 0.69023 0.40635 0.0
C1157 C 0.7332 0.69112 0.39794 0.0
C1158 C 0.74518 0.70283 0.40242 0.0
C1159 C 0.74284 0.71381 0.41522 0.0
C1160 C 0.7285 0.71311 0.42356 0.0
C1161 C 0.71649 0.70141 0.41914 0.0
H1162 H 0.75212 0.72287 0.41867 0.0
H1163 H 0.63586 0.60992 0.37329 0.0
H1164 H 0.50944 0.20047 0.96451 0.0
H1165 H 0.49099 0.18118 0.9783 0.0
H1166 H 0.45587 0.21581 0.97821 0.0
H1167 H 0.47427 0.23523 0.96473 0.0
H1168 H 0.45501 0.19943 0.00647 0.0
H1169 H 0.45663 0.18654 0.94829 0.0
H1170 H 0.46961 0.17957 0.92235 0.0
H1171 H 0.48529 0.1369 0.94393 0.0
H1172 H 0.47256 0.14374 0.97007 0.0
H1173 H 0.38156 0.15439 0.0027 0.0
H1174 H 0.40563 0.17183 -0.00042 0.0
H1175 H 0.43303 0.13045 0.00199 0.0
H1176 H 0.4089 0.11279 0.00491 0.0
H1177 H 0.44082 0.14812 0.97589 0.0
H1178 H 0.43497 0.15909 0.03292 0.0
H1179 H 0.42121 0.16615 0.05833 0.0
H1180 H 0.41281 0.21237 0.03891 0.0
H1181 H 0.42632 0.20551 0.01328 0.0
C1182 C 0.49786 0.20406 0.96763 0.0
C1183 C 0.49326 0.21933 0.96335 0.0
C1184 C 0.48732 0.193 0.97548 0.0
C1185 C 0.47198 0.19697 0.97906 0.0
C1186 C 0.46764 0.21248 0.97554 0.0
C1187 C 0.47817 0.22355 0.96776 0.0
C1188 C 0.46003 0.1847 0.98539 0.0
C1189 C 0.45185 0.18822 -0.00021 0.0
C1190 C 0.45621 0.16989 0.97688 0.0
C1191 C 0.46382 0.16575 0.96117 0.0
C1192 C 0.46295 0.17574 0.94753 0.0
C1193 C 0.47024 0.1718 0.93279 0.0
C1194 C 0.47831 0.15783 0.93151 0.0
C1195 C 0.47906 0.14774 0.94495 0.0
C1196 C 0.47181 0.15163 0.95973 0.0
C1197 C 0.3927 0.14898 0.00283 0.0
C1198 C 0.39328 0.13216 0.00396 0.0
C1199 C 0.40649 0.15901 0.00115 0.0
C1200 C 0.42116 0.15247 0.00067 0.0
C1201 C 0.42184 0.13575 0.00237 0.0
C1202 C 0.40803 0.12569 0.00407 0.0
C1203 C 0.43554 0.16295 0.99685 0.0
C1204 C 0.44416 0.15913 0.98284 0.0
C1205 C 0.43969 0.1775 0.00569 0.0
C1206 C 0.43159 0.18173 0.02112 0.0
C1207 C 0.43009 0.17071 0.03401 0.0
C1208 C 0.42235 0.17469 0.04847 0.0
C1209 C 0.41612 0.18969 0.05022 0.0
C1210 C 0.41764 0.20076 0.03753 0.0
C1211 C 0.42537 0.19684 0.02305 0.0
H1212 H 0.41012 0.19274 0.06143 0.0
H1213 H 0.48395 0.1548 0.92009 0.0
H1214 H 0.97674 0.99349 0.4202 0.0
H1215 H 0.99673 0.9742 0.42305 0.0
H1216 H 0.03283 0.01117 0.41054 0.0
H1217 H 0.0129 0.03056 0.40764 0.0
H1218 H 0.03502 0.98309 0.39269 0.0
H1219 H 0.02976 0.99876 0.44921 0.0
H1220 H 0.01551 0.00367 0.4749 0.0
H1221 H 0.99848 0.95366 0.47581 0.0
H1222 H 0.01246 0.9485 0.44999 0.0
H1223 H 0.09948 0.93712 0.40927 0.0
H1224 H 0.08098 0.95812 0.40943 0.0
H1225 H 0.0443 0.92379 0.42648 0.0
H1226 H 0.06288 0.90285 0.42682 0.0
H1227 H 0.04299 0.95139 0.44252 0.0
H1228 H 0.04681 0.93568 0.38576 0.0
H1229 H 0.06033 0.93036 0.35971 0.0
H1230 H 0.07912 0.97983 0.35877 0.0
H1231 H 0.06587 0.98539 0.38494 0.0
C1232 C 0.98895 0.99757 0.41821 0.0
C1233 C 0.99323 0.01356 0.41367 0.0
C1234 C 0.00036 0.98654 0.4199 0.0
C1235 C 0.01627 0.99128 0.41708 0.0
C1236 C 0.02061 0.00728 0.41278 0.0
C1237 C 0.00922 0.01835 0.41118 0.0
C1238 C 0.02826 0.97932 0.41785 0.0
C1239 C 0.03696 0.97634 0.40367 0.0
C1240 C 0.03044 0.97022 0.43203 0.0
C1241 C 0.02205 0.97328 0.44758 0.0
C1242 C 0.02287 0.98884 0.45481 0.0
C1243 C 0.01486 0.99166 0.46941 0.0
C1244 C 0.00606 0.97899 0.47696 0.0
C1245 C 0.00529 0.96347 0.46994 0.0
C1246 C 0.01327 0.96058 0.45533 0.0
C1247 C 0.08747 0.93403 0.41304 0.0
C1248 C 0.08263 0.9183 0.41795 0.0
C1249 C 0.07688 0.94604 0.41307 0.0
C1250 C 0.06117 0.94249 0.41774 0.0
C1251 C 0.05635 0.92682 0.42282 0.0
C1252 C 0.06698 0.91485 0.42295 0.0
C1253 C 0.04974 0.95508 0.41732 0.0
C1254 C 0.04112 0.95818 0.43156 0.0
C1255 C 0.04752 0.96422 0.40314 0.0
C1256 C 0.05548 0.96091 0.38739 0.0
C1257 C 0.05393 0.94539 0.38006 0.0
C1258 C 0.06152 0.94234 0.36526 0.0
C1259 C 0.07062 0.95474 0.35761 0.0
C1260 C 0.07209 0.97023 0.36472 0.0
C1261 C 0.06453 0.97334 0.37953 0.0
H1262 H 0.07649 0.95235 0.34615 0.0
H1263 H -0.00013 0.9812 0.48827 0.0
H1264 H 0.77073 0.07578 0.15024 0.0
H1265 H 0.77209 0.09488 0.12775 0.0
H1266 H 0.8191 0.08253 0.11648 0.0
H1267 H 0.81787 0.06341 0.13897 0.0
H1268 H 0.81618 0.11553 0.11628 0.0
H1269 H 0.78942 0.06688 0.09352 0.0
H1270 H 0.76889 0.04428 0.09248 0.0
H1271 H 0.7332 0.07782 0.08978 0.0
H1272 H 0.75353 0.10064 0.09104 0.0
H1273 H 0.82474 0.14701 0.03641 0.0
H1274 H 0.82322 0.12999 0.06051 0.0
H1275 H 0.77459 0.13943 0.06712 0.0
H1276 H 0.77592 0.15615 0.04275 0.0
H1277 H 0.77787 0.10853 0.07041 0.0
H1278 H 0.80413 0.15722 0.09229 0.0
H1279 H 0.8243 0.18014 0.0937 0.0
H1280 H 0.86039 0.14732 0.09864 0.0
H1281 H 0.84044 0.12418 0.09703 0.0
C1282 C 0.78138 0.07716 0.14302 0.0
C1283 C 0.79417 0.06803 0.14634 0.0
C1284 C 0.78212 0.08804 0.13014 0.0
C1285 C 0.79565 0.09 0.12038 0.0
C1286 C 0.80855 0.08117 0.12388 0.0
C1287 C 0.8078 0.07022 0.13669 0.0
C1288 C 0.79626 0.10107 0.10633 0.0
C1289 C 0.80793 0.11393 0.10614 0.0
C1290 C 0.78521 0.09918 0.09336 0.0
C1291 C 0.77298 0.08547 0.09255 0.0
C1292 C 0.77719 0.06944 0.09285 0.0
C1293 C 0.76559 0.05659 0.09219 0.0
C1294 C 0.74975 0.05961 0.09111 0.0
C1295 C 0.74548 0.0755 0.09064 0.0
C1296 C 0.75703 0.08839 0.09131 0.0
C1297 C 0.81374 0.14553 0.04303 0.0
C1298 C 0.80045 0.15294 0.03768 0.0
C1299 C 0.81291 0.13585 0.05687 0.0
C1300 C 0.79885 0.13359 0.06577 0.0
C1301 C 0.78557 0.14102 0.06046 0.0
C1302 C 0.78636 0.1506 0.04655 0.0
C1303 C 0.79785 0.12305 0.08028 0.0
C1304 C 0.7861 0.11024 0.08056 0.0
C1305 C 0.80877 0.12506 0.09339 0.0
C1306 C 0.8208 0.13896 0.09439 0.0
C1307 C 0.81638 0.15488 0.09355 0.0
C1308 C 0.82777 0.16792 0.09441 0.0
C1309 C 0.84362 0.16519 0.09622 0.0
C1310 C 0.84811 0.14942 0.09722 0.0
C1311 C 0.83676 0.13634 0.09635 0.0
H1312 H 0.85242 0.1753 0.09689 0.0
H1313 H 0.74078 0.04964 0.0906 0.0
H1314 H 0.00096 0.21406 0.68557 0.0
H1315 H 0.98047 0.20588 0.66552 0.0
H1316 H 0.95168 0.18402 0.70379 0.0
H1317 H 0.97226 0.19189 0.72392 0.0
H1318 H 0.94908 0.16597 0.67587 0.0
H1319 H 0.94584 0.22164 0.69126 0.0
H1320 H 0.9557 0.25009 0.69572 0.0
H1321 H 0.96713 0.25394 0.64459 0.0
H1322 H 0.95753 0.22541 0.63988 0.0
H1323 H 0.87376 0.17005 0.63817 0.0
H1324 H 0.89681 0.1724 0.65615 0.0
H1325 H 0.92529 0.19176 0.61639 0.0
H1326 H 0.90234 0.18948 0.59833 0.0
H1327 H 0.92853 0.21037 0.64445 0.0
H1328 H 0.92981 0.15442 0.62917 0.0
H1329 H 0.919 0.12618 0.62542 0.0
H1330 H 0.91002 0.12311 0.67712 0.0
H1331 H 0.92058 0.15142 0.68115 0.0
C1332 C 0.99036 0.20733 0.68972 0.0
C1333 C 0.98817 0.20379 0.70638 0.0
C1334 C 0.97864 0.20271 0.67823 0.0
C1335 C 0.96443 0.19462 0.68322 0.0
C1336 C 0.96253 0.19031 0.69969 0.0
C1337 C 0.9743 0.19486 0.71119 0.0
C1338 C 0.95122 0.19153 0.67145 0.0
C1339 C 0.94448 0.17569 0.6691 0.0
C1340 C 0.94536 0.20419 0.66246 0.0
C1341 C 0.95113 0.22134 0.66525 0.0
C1342 C 0.95058 0.22851 0.681 0.0
C1343 C 0.9561 0.24466 0.68357 0.0
C1344 C 0.96208 0.2538 0.67046 0.0
C1345 C 0.96252 0.24683 0.65474 0.0
C1346 C 0.95703 0.23068 0.65211 0.0
C1347 C 0.88496 0.17466 0.63319 0.0
C1348 C 0.88619 0.17963 0.61682 0.0
C1349 C 0.89813 0.17592 0.64347 0.0
C1350 C 0.91276 0.18218 0.63757 0.0
C1351 C 0.91409 0.18688 0.62117 0.0
C1352 C 0.90096 0.18553 0.61086 0.0
C1353 C 0.92644 0.1848 0.64877 0.0
C1354 C 0.93321 0.20061 0.65109 0.0
C1355 C 0.93219 0.17214 0.65782 0.0
C1356 C 0.92585 0.1551 0.65543 0.0
C1357 C 0.92541 0.14778 0.63972 0.0
C1358 C 0.91935 0.13174 0.63755 0.0
C1359 C 0.91379 0.12287 0.65102 0.0
C1360 C 0.91431 0.13 0.6667 0.0
C1361 C 0.92035 0.14604 0.66893 0.0
H1362 H 0.90911 0.11046 0.64931 0.0
H1363 H 0.96635 0.26631 0.67247 0.0
H1364 H 0.88842 0.57183 0.14628 0.0
H1365 H 0.88233 0.54932 0.12701 0.0
H1366 H 0.85229 0.52535 0.16307 0.0
H1367 H 0.8587 0.54764 0.1826 0.0
H1368 H 0.86821 0.50401 0.14761 0.0
H1369 H 0.83694 0.54617 0.13141 0.0
H1370 H 0.83159 0.57375 0.12362 0.0
H1371 H 0.86157 0.57038 0.0816 0.0
H1372 H 0.86725 0.54285 0.08926 0.0
H1373 H 0.82483 0.47115 0.06685 0.0
H1374 H 0.8289 0.49097 0.08931 0.0
H1375 H 0.87511 0.47507 0.09778 0.0
H1376 H 0.87092 0.4549 0.0757 0.0
H1377 H 0.84862 0.51588 0.09219 0.0
H1378 H 0.88609 0.48134 0.13727 0.0
H1379 H 0.88841 0.45341 0.14619 0.0
H1380 H 0.84041 0.4407 0.1324 0.0
H1381 H 0.83773 0.46858 0.12361 0.0
C1382 C 0.88058 0.56173 0.15015 0.0
C1383 C 0.87395 0.56157 0.16593 0.0
C1384 C 0.87706 0.5489 0.13909 0.0
C1385 C 0.86662 0.53577 0.14348 0.0
C1386 C 0.86034 0.53537 0.15939 0.0
C1387 C 0.86398 0.54814 0.17053 0.0
C1388 C 0.86204 0.52266 0.13136 0.0
C1389 C 0.86392 0.50659 0.13549 0.0
C1390 C 0.85606 0.52597 0.11569 0.0
C1391 C 0.85262 0.5425 0.11099 0.0
C1392 C 0.84247 0.55135 0.12057 0.0
C1393 C 0.83937 0.56697 0.11617 0.0
C1394 C 0.84626 0.57383 0.10214 0.0
C1395 C 0.85625 0.56506 0.09247 0.0
C1396 C 0.8594 0.54944 0.09683 0.0
C1397 C 0.8358 0.47176 0.07361 0.0
C1398 C 0.84755 0.46144 0.06951 0.0
C1399 C 0.83812 0.48313 0.08643 0.0
C1400 C 0.85226 0.48446 0.09535 0.0
C1401 C 0.86397 0.47408 0.09132 0.0
C1402 C 0.86159 0.4626 0.07863 0.0
C1403 C 0.85505 0.49721 0.1083 0.0
C1404 C 0.85287 0.51325 0.10431 0.0
C1405 C 0.86032 0.4938 0.12424 0.0
C1406 C 0.86177 0.47702 0.12964 0.0
C1407 C 0.87602 0.4726 0.13621 0.0
C1408 C 0.8774 0.45677 0.14123 0.0
C1409 C 0.86458 0.44528 0.13982 0.0
C1410 C 0.85034 0.4496 0.13343 0.0
C1411 C 0.8489 0.46541 0.1284 0.0
H1412 H 0.86568 0.43303 0.1437 0.0
H1413 H 0.84385 0.58592 0.09875 0.0
H1414 H 0.56061 0.34339 0.68309 0.0
H1415 H 0.58504 0.33961 0.66829 0.0
H1416 H 0.60622 0.38382 0.69007 0.0
H1417 H 0.58186 0.38771 0.70489 0.0
H1418 H 0.61271 0.38108 0.65707 0.0
H1419 H 0.6142 0.34839 0.70527 0.0
H1420 H 0.60411 0.32727 0.72424 0.0
H1421 H 0.60421 0.29167 0.68533 0.0
H1422 H 0.6141 0.31264 0.66607 0.0
H1423 H 0.69385 0.37413 0.64856 0.0
H1424 H 0.66726 0.37631 0.65879 0.0
H1425 H 0.6525 0.33018 0.63624 0.0
H1426 H 0.67925 0.32779 0.62606 0.0
H1427 H 0.64142 0.33252 0.66715 0.0
H1428 H 0.64195 0.36463 0.61938 0.0
H1429 H 0.65206 0.38562 0.6003 0.0
H1430 H 0.64797 0.4221 0.63777 0.0
H1431 H 0.63805 0.40129 0.65717 0.0
C1432 C 0.57043 0.35236 0.68465 0.0
C1433 C 0.56932 0.36582 0.69522 0.0
C1434 C 0.5844 0.35015 0.67623 0.0
C1435 C 0.59748 0.36136 0.67821 0.0
C1436 C 0.59626 0.37502 0.68839 0.0
C1437 C 0.58234 0.3772 0.69688 0.0
C1438 C 0.61259 0.35872 0.66999 0.0
C1439 C 0.61906 0.37054 0.65936 0.0
C1440 C 0.62063 0.34472 0.67262 0.0
C1441 C 0.61471 0.33211 0.68419 0.0
C1442 C 0.61194 0.33608 0.70073 0.0
C1443 C 0.60628 0.32414 0.71154 0.0
C1444 C 0.60347 0.30815 0.70598 0.0
C1445 C 0.60636 0.30406 0.68961 0.0
C1446 C 0.61199 0.31597 0.67874 0.0
C1447 C 0.68497 0.36444 0.64572 0.0
C1448 C 0.68869 0.3508 0.63644 0.0
C1449 C 0.66974 0.36575 0.65152 0.0
C1450 C 0.65783 0.35352 0.64808 0.0
C1451 C 0.6615 0.3398 0.63897 0.0
C1452 C 0.67678 0.33847 0.63314 0.0
C1453 C 0.64169 0.35501 0.6544 0.0
C1454 C 0.63501 0.34299 0.66468 0.0
C1455 C 0.63343 0.3688 0.65141 0.0
C1456 C 0.63937 0.38137 0.63977 0.0
C1457 C 0.64332 0.37711 0.6236 0.0
C1458 C 0.649 0.38898 0.61272 0.0
C1459 C 0.65069 0.40518 0.61783 0.0
C1460 C 0.64667 0.40954 0.63383 0.0
C1461 C 0.641 0.39772 0.64477 0.0
H1462 H 0.65509 0.41435 0.60939 0.0
H1463 H 0.5991 0.29892 0.71437 0.0
H1464 H 0.8379 0.55661 0.52789 0.0
H1465 H 0.83362 0.53095 0.54197 0.0
H1466 H 0.78439 0.52859 0.52936 0.0
H1467 H 0.78853 0.55437 0.5154 0.0
H1468 H 0.78856 0.52218 0.56116 0.0
H1469 H 0.80909 0.50429 0.50983 0.0
H1470 H 0.82799 0.50404 0.48698 0.0
H1471 H 0.86426 0.49235 0.52021 0.0
H1472 H 0.84562 0.49274 0.54331 0.0
H1473 H 0.77046 0.44216 0.5873 0.0
H1474 H 0.77431 0.46577 0.56993 0.0
H1475 H 0.82387 0.4696 0.58123 0.0
H1476 H 0.82017 0.44582 0.59842 0.0
H1477 H 0.81899 0.47481 0.54925 0.0
H1478 H 0.79905 0.49388 0.60061 0.0
H1479 H 0.78043 0.49439 0.62371 0.0
H1480 H 0.74338 0.50417 0.5906 0.0
H1481 H 0.76174 0.50352 0.56726 0.0
C1482 C 0.82618 0.5506 0.52802 0.0
C1483 C 0.81355 0.55753 0.52052 0.0
C1484 C 0.82377 0.53588 0.53602 0.0
C1485 C 0.80871 0.52778 0.53658 0.0
C1486 C 0.79611 0.53464 0.52905 0.0
C1487 C 0.7985 0.54935 0.52105 0.0
C1488 C 0.80602 0.51245 0.54557 0.0
C1489 C 0.79502 0.51173 0.55837 0.0
C1490 C 0.81475 0.49896 0.5422 0.0
C1491 C 0.82598 0.49869 0.52833 0.0
C1492 C 0.82112 0.50179 0.51229 0.0
C1493 C 0.83179 0.5016 0.49929 0.0
C1494 C 0.84732 0.49823 0.50215 0.0
C1495 C 0.85222 0.49499 0.51802 0.0
C1496 C 0.84161 0.49517 0.53107 0.0
C1497 C 0.7822 0.44796 0.58602 0.0
C1498 C 0.79499 0.44217 0.59432 0.0
C1499 C 0.78437 0.4615 0.57613 0.0
C1500 C 0.79934 0.46959 0.57447 0.0
C1501 C 0.81221 0.46356 0.58236 0.0
C1502 C 0.81006 0.44999 0.59222 0.0
C1503 C 0.80154 0.48456 0.56484 0.0
C1504 C 0.81246 0.48524 0.55195 0.0
C1505 C 0.79278 0.49804 0.56815 0.0
C1506 C 0.78173 0.49848 0.58217 0.0
C1507 C 0.7869 0.49602 0.59824 0.0
C1508 C 0.7764 0.49635 0.61138 0.0
C1509 C 0.76072 0.49926 0.60862 0.0
C1510 C 0.75552 0.50189 0.59271 0.0
C1511 C 0.76597 0.50155 0.57953 0.0
H1512 H 0.75261 0.49952 0.61881 0.0
H1513 H 0.85556 0.49808 0.49206 0.0
H1514 H 0.58612 0.1924 0.92187 0.0
H1515 H 0.61341 0.1928 0.93104 0.0
H1516 H 0.60713 0.23495 0.96138 0.0
H1517 H 0.57986 0.23476 0.95211 0.0
H1518 H 0.63416 0.23843 0.94437 0.0
H1519 H 0.60861 0.19816 0.97846 0.0
H1520 H 0.59177 0.17353 0.98461 0.0
H1521 H 0.62194 0.14497 0.95601 0.0
H1522 H 0.63885 0.16946 0.9495 0.0
H1523 H 0.70634 0.23524 0.98805 0.0
H1524 H 0.67851 0.23567 0.98097 0.0
H1525 H 0.68162 0.19342 0.94985 0.0
H1526 H 0.70932 0.19276 0.95704 0.0
H1527 H 0.65584 0.19055 0.96863 0.0
H1528 H 0.68079 0.231 0.93373 0.0
H1529 H 0.69762 0.25564 0.9276 0.0
H1530 H 0.66853 0.28388 0.95786 0.0
H1531 H 0.65163 0.25936 0.96435 0.0
C1532 C 0.59051 0.20172 0.93055 0.0
C1533 C 0.5808 0.21352 0.93629 0.0
C1534 C 0.6061 0.2019 0.93582 0.0
C1535 C 0.61226 0.21381 0.94703 0.0
C1536 C 0.60261 0.22564 0.95275 0.0
C1537 C 0.58701 0.22547 0.94747 0.0
C1538 C 0.62886 0.21409 0.9525 0.0
C1539 C 0.63885 0.22805 0.94992 0.0
C1540 C 0.63504 0.20044 0.95944 0.0
C1541 C 0.62492 0.18567 0.96337 0.0
C1542 C 0.61159 0.18664 0.97338 0.0
C1543 C 0.60204 0.1727 0.97695 0.0
C1544 C 0.60577 0.1577 0.97067 0.0
C1545 C 0.61907 0.1566 0.96085 0.0
C1546 C 0.62864 0.17051 0.95722 0.0
C1547 C 0.70111 0.22606 0.97967 0.0
C1548 C 0.71006 0.21398 0.97309 0.0
C1549 C 0.68521 0.22636 0.9756 0.0
C1550 C 0.67802 0.21465 0.96478 0.0
C1551 C 0.68692 0.20256 0.95824 0.0
C1552 C 0.70278 0.20224 0.96232 0.0
C1553 C 0.66117 0.21483 0.96035 0.0
C1554 C 0.65113 0.20096 0.96315 0.0
C1555 C 0.65495 0.22856 0.95362 0.0
C1556 C 0.66505 0.24332 0.94966 0.0
C1557 C 0.67805 0.24245 0.93918 0.0
C1558 C 0.68759 0.25639 0.93562 0.0
C1559 C 0.68417 0.27131 0.94237 0.0
C1560 C 0.67118 0.27232 0.95266 0.0
C1561 C 0.66161 0.2584 0.95627 0.0
H1562 H 0.69157 0.28209 0.9396 0.0
H1563 H 0.59836 0.14692 0.97345 0.0
H1564 H 0.86846 0.16936 0.51397 0.0
H1565 H 0.87963 0.15259 0.49255 0.0
H1566 H 0.87815 0.11252 0.52548 0.0
H1567 H 0.86672 0.12908 0.54685 0.0
H1568 H 0.90811 0.12051 0.50944 0.0
H1569 H 0.85293 0.10986 0.49696 0.0
H1570 H 0.82629 0.1175 0.49061 0.0
H1571 H 0.84373 0.14161 0.44744 0.0
H1572 H 0.87054 0.13431 0.45366 0.0
H1573 H 0.93045 0.06014 0.45398 0.0
H1574 H 0.91677 0.07545 0.47472 0.0
H1575 H 0.90661 0.11026 0.43834 0.0
H1576 H 0.91984 0.09466 0.41751 0.0
H1577 H 0.88214 0.10504 0.45637 0.0
H1578 H 0.93669 0.11733 0.46797 0.0
H1579 H 0.96407 0.11174 0.47381 0.0
H1580 H 0.94919 0.08741 0.51778 0.0
H1581 H 0.92168 0.09267 0.51208 0.0
C1582 C 0.87038 0.15693 0.5166 0.0
C1583 C 0.86671 0.15053 0.53208 0.0
C1584 C 0.87673 0.14738 0.50435 0.0
C1585 C 0.87968 0.13134 0.50747 0.0
C1586 C 0.87594 0.12488 0.52287 0.0
C1587 C 0.86935 0.13433 0.53502 0.0
C1588 C 0.88721 0.12148 0.49486 0.0
C1589 C 0.90238 0.1169 0.49791 0.0
C1590 C 0.87989 0.11732 0.47965 0.0
C1591 C 0.86377 0.12168 0.47588 0.0
C1592 C 0.85112 0.11692 0.4862 0.0
C1593 C 0.83598 0.12116 0.4826 0.0
C1594 C 0.83333 0.13007 0.46866 0.0
C1595 C 0.84581 0.13473 0.45825 0.0
C1596 C 0.86097 0.13053 0.4618 0.0
C1597 C 0.92524 0.07104 0.45044 0.0
C1598 C 0.92604 0.07614 0.43413 0.0
C1599 C 0.9175 0.07983 0.4623 0.0
C1600 C 0.91083 0.09417 0.45818 0.0
C1601 C 0.91158 0.09921 0.44183 0.0
C1602 C 0.91908 0.09026 0.42991 0.0
C1603 C 0.90314 0.10395 0.47089 0.0
C1604 C 0.88793 0.10858 0.46787 0.0
C1605 C 0.91057 0.10844 0.48603 0.0
C1606 C 0.9271 0.10525 0.4895 0.0
C1607 C 0.93924 0.11068 0.47881 0.0
C1608 C 0.95478 0.10758 0.48211 0.0
C1609 C 0.95836 0.09918 0.49613 0.0
C1610 C 0.9464 0.09389 0.50691 0.0
C1611 C 0.93083 0.09694 0.50366 0.0
H1612 H 0.9704 0.0968 0.49867 0.0
H1613 H 0.8216 0.13334 0.46589 0.0
H1614 H 0.97124 0.46221 0.89369 0.0
H1615 H 0.95331 0.46809 0.91602 0.0
H1616 H 0.91363 0.45553 0.88425 0.0
H1617 H 0.93144 0.44987 0.86179 0.0
H1618 H 0.90799 0.48059 0.90527 0.0
H1619 H 0.92733 0.42745 0.90843 0.0
H1620 H 0.9479 0.40825 0.90983 0.0
H1621 H 0.96579 0.43149 0.95427 0.0
H1622 H 0.94543 0.45097 0.953 0.0
H1623 H 0.8483 0.44763 0.95825 0.0
H1624 H 0.86786 0.45526 0.93742 0.0
H1625 H 0.90308 0.4646 0.97511 0.0
H1626 H 0.88365 0.45667 0.99602 0.0
H1627 H 0.91278 0.44472 0.95264 0.0
H1628 H 0.89034 0.49536 0.95163 0.0
H1629 H 0.86926 0.51395 0.95016 0.0
H1630 H 0.8566 0.49536 0.90205 0.0
H1631 H 0.87746 0.47648 0.90332 0.0
C1632 C 0.95871 0.46098 0.89135 0.0
C1633 C 0.95276 0.45531 0.87603 0.0
C1634 C 0.94848 0.46435 0.90414 0.0
C1635 C 0.93214 0.46196 0.90187 0.0
C1636 C 0.9262 0.4574 0.88628 0.0
C1637 C 0.93641 0.4541 0.87347 0.0
C1638 C 0.9213 0.46253 0.91605 0.0
C1639 C 0.90897 0.47274 0.91564 0.0
C1640 C 0.9228 0.45251 0.9297 0.0
C1641 C 0.93499 0.44077 0.93051 0.0
C1642 C 0.93573 0.42854 0.91843 0.0
C1643 C 0.94733 0.4176 0.91921 0.0
C1644 C 0.95818 0.41868 0.9321 0.0
C1645 C 0.95741 0.43068 0.94427 0.0
C1646 C 0.94584 0.44167 0.94353 0.0
C1647 C 0.86012 0.45162 0.96216 0.0
C1648 C 0.86444 0.45138 0.9788 0.0
C1649 C 0.87129 0.45608 0.95022 0.0
C1650 C 0.88695 0.46056 0.95469 0.0
C1651 C 0.89108 0.46115 0.97137 0.0
C1652 C 0.87994 0.45662 0.98331 0.0
C1653 C 0.8993 0.46273 0.94193 0.0
C1654 C 0.91191 0.45289 0.94252 0.0
C1655 C 0.89797 0.47306 0.92847 0.0
C1656 C 0.88541 0.48441 0.92763 0.0
C1657 C 0.88299 0.49514 0.94079 0.0
C1658 C 0.87109 0.50575 0.93998 0.0
C1659 C 0.86158 0.50581 0.92604 0.0
C1660 C 0.86397 0.49529 0.91285 0.0
C1661 C 0.87585 0.48465 0.9136 0.0
H1662 H 0.85237 0.51404 0.92544 0.0
H1663 H 0.96716 0.4102 0.93269 0.0
H1664 H 0.22493 0.63667 0.1873 0.0
H1665 H 0.20184 0.62568 0.20232 0.0
H1666 H 0.22828 0.62997 0.2475 0.0
H1667 H 0.25148 0.64062 0.23257 0.0
H1668 H 0.20783 0.60329 0.24737 0.0
H1669 H 0.20635 0.66016 0.23552 0.0
H1670 H 0.20674 0.68359 0.21736 0.0
H1671 H 0.16605 0.6621 0.19187 0.0
H1672 H 0.16555 0.63844 0.20976 0.0
H1673 H 0.15469 0.62327 0.30955 0.0
H1674 H 0.17524 0.61939 0.28946 0.0
H1675 H 0.14062 0.61555 0.25072 0.0
H1676 H 0.11995 0.61973 0.27076 0.0
H1677 H 0.16315 0.63789 0.24422 0.0
H1678 H 0.16194 0.58321 0.2605 0.0
H1679 H 0.1617 0.56056 0.2796 0.0
H1680 H 0.20722 0.57815 0.29773 0.0
H1681 H 0.20765 0.60104 0.27891 0.0
C1682 C 0.22592 0.635 0.20039 0.0
C1683 C 0.23998 0.63977 0.20878 0.0
C1684 C 0.21271 0.62873 0.20895 0.0
C1685 C 0.21327 0.62729 0.22607 0.0
C1686 C 0.22757 0.63101 0.2343 0.0
C1687 C 0.24081 0.63718 0.22574 0.0
C1688 C 0.1987 0.6236 0.23566 0.0
C1689 C 0.19804 0.61083 0.24673 0.0
C1690 C 0.18578 0.63322 0.23454 0.0
C1691 C 0.18604 0.64746 0.22383 0.0
C1692 C 0.19756 0.66039 0.22596 0.0
C1693 C 0.19779 0.67371 0.21573 0.0
C1694 C 0.18645 0.67431 0.20343 0.0
C1695 C 0.17484 0.6616 0.20137 0.0
C1696 C 0.17458 0.64823 0.21155 0.0
C1697 C 0.15136 0.62124 0.29681 0.0
C1698 C 0.13568 0.622 0.29175 0.0
C1699 C 0.16315 0.61891 0.28532 0.0
C1700 C 0.15949 0.61712 0.26856 0.0
C1701 C 0.14372 0.61691 0.26359 0.0
C1702 C 0.13191 0.61928 0.27507 0.0
C1703 C 0.17229 0.61769 0.2562 0.0
C1704 C 0.17269 0.63 0.24464 0.0
C1705 C 0.18496 0.60769 0.25699 0.0
C1706 C 0.18478 0.59392 0.26834 0.0
C1707 C 0.17186 0.58232 0.26864 0.0
C1708 C 0.17169 0.56942 0.2794 0.0
C1709 C 0.18443 0.56793 0.28989 0.0
C1710 C 0.19736 0.57932 0.2896 0.0
C1711 C 0.19759 0.59225 0.27887 0.0
H1712 H 0.18428 0.55793 0.29822 0.0
H1713 H 0.18665 0.68463 0.19553 0.0
H1714 H 0.13737 0.89311 0.47211 0.0
H1715 H 0.15241 0.89433 0.49761 0.0
H1716 H 0.19366 0.88197 0.47106 0.0
H1717 H 0.17864 0.88051 0.44547 0.0
H1718 H 0.18827 0.86295 0.49674 0.0
H1719 H 0.19171 0.91971 0.48807 0.0
H1720 H 0.18194 0.94614 0.48213 0.0
H1721 H 0.15334 0.94331 0.52545 0.0
H1722 H 0.16276 0.91675 0.53153 0.0
H1723 H 0.23339 0.86797 0.57012 0.0
H1724 H 0.22466 0.87376 0.54242 0.0
H1725 H 0.18043 0.88728 0.56186 0.0
H1726 H 0.18917 0.88188 0.58955 0.0
H1727 H 0.19059 0.90744 0.53838 0.0
H1728 H 0.18433 0.84953 0.54487 0.0
H1729 H 0.19335 0.82275 0.55078 0.0
H1730 H 0.22663 0.82766 0.51136 0.0
H1731 H 0.21793 0.85458 0.50536 0.0
C1732 C 0.1497 0.89088 0.47162 0.0
C1733 C 0.15677 0.88662 0.45675 0.0
C1734 C 0.15832 0.89167 0.48622 0.0
C1735 C 0.17419 0.88833 0.48623 0.0
C1736 C 0.18142 0.88459 0.47133 0.0
C1737 C 0.17282 0.8838 0.45671 0.0
C1738 C 0.1828 0.88742 0.50195 0.0
C1739 C 0.18908 0.87282 0.5057 0.0
C1740 C 0.18355 0.90016 0.51377 0.0
C1741 C 0.17787 0.91617 0.51019 0.0
C1742 C 0.18325 0.92466 0.49626 0.0
C1743 C 0.17779 0.93968 0.49289 0.0
C1744 C 0.167 0.94639 0.50339 0.0
C1745 C 0.16168 0.9381 0.51732 0.0
C1746 C 0.1671 0.92307 0.52075 0.0
C1747 C 0.22185 0.87228 0.5685 0.0
C1748 C 0.21192 0.87433 0.58203 0.0
C1749 C 0.21687 0.87556 0.55266 0.0
C1750 C 0.20181 0.88075 0.55005 0.0
C1751 C 0.19209 0.88329 0.56358 0.0
C1752 C 0.19709 0.88011 0.57941 0.0
C1753 C 0.19581 0.8829 0.53322 0.0
C1754 C 0.18999 0.8977 0.52929 0.0
C1755 C 0.19541 0.87032 0.52122 0.0
C1756 C 0.20062 0.85414 0.5248 0.0
C1757 C 0.19366 0.84495 0.53755 0.0
C1758 C 0.19869 0.82974 0.5409 0.0
C1759 C 0.21059 0.82353 0.53148 0.0
C1760 C 0.21744 0.8325 0.51866 0.0
C1761 C 0.21246 0.84773 0.51528 0.0
H1762 H 0.21447 0.81175 0.53409 0.0
H1763 H 0.16279 0.95802 0.50075 0.0
H1764 H 0.24229 0.66337 0.08951 0.0
H1765 H 0.24028 0.65498 0.06068 0.0
H1766 H 0.27978 0.62616 0.06648 0.0
H1767 H 0.28211 0.63485 0.09528 0.0
H1768 H 0.2829 0.64217 0.03932 0.0
H1769 H 0.24186 0.60852 0.06331 0.0
H1770 H 0.21835 0.60179 0.08015 0.0
H1771 H 0.19135 0.63102 0.04981 0.0
H1772 H 0.21476 0.6381 0.03291 0.0
H1773 H 0.23944 0.59895 0.96317 0.0
H1774 H 0.24397 0.60186 0.99273 0.0
H1775 H 0.26417 0.65058 0.98616 0.0
H1776 H 0.26011 0.64757 0.95659 0.0
H1777 H 0.23231 0.62065 0.01437 0.0
H1778 H 0.29106 0.66134 0.0151 0.0
H1779 H 0.31532 0.66514 0.99873 0.0
H1780 H 0.30837 0.61627 0.98043 0.0
H1781 H 0.28419 0.6121 0.99686 0.0
C1782 C 0.25051 0.65519 0.08468 0.0
C1783 C 0.26234 0.64975 0.09469 0.0
C1784 C 0.2493 0.65034 0.0682 0.0
C1785 C 0.25975 0.63977 0.06145 0.0
C1786 C 0.27157 0.63431 0.07142 0.0
C1787 C 0.27287 0.63925 0.08789 0.0
C1788 C 0.25855 0.63479 0.04387 0.0
C1789 C 0.27186 0.6374 0.03387 0.0
C1790 C 0.24424 0.62819 0.03682 0.0
C1791 C 0.23011 0.62394 0.04692 0.0
C1792 C 0.23094 0.61361 0.0603 0.0
C1793 C 0.21763 0.60971 0.06984 0.0
C1794 C 0.20338 0.616 0.06607 0.0
C1795 C 0.2024 0.62617 0.05272 0.0
C1796 C 0.21569 0.63011 0.04314 0.0
C1797 C 0.24499 0.61023 0.96801 0.0
C1798 C 0.24945 0.62302 0.95754 0.0
C1799 C 0.24753 0.61189 0.98492 0.0
C1800 C 0.25455 0.62638 0.99168 0.0
C1801 C 0.25904 0.63916 0.98122 0.0
C1802 C 0.25664 0.63745 0.96431 0.0
C1803 C 0.25657 0.62842 0.00972 0.0
C1804 C 0.2434 0.62528 0.01982 0.0
C1805 C 0.27111 0.63412 0.01692 0.0
C1806 C 0.28574 0.63646 0.00712 0.0
C1807 C 0.29475 0.65138 0.00765 0.0
C1808 C 0.30848 0.6536 0.99834 0.0
C1809 C 0.31336 0.64097 0.98851 0.0
C1810 C 0.30455 0.62606 0.988 0.0
C1811 C 0.29082 0.62377 0.99729 0.0
H1812 H 0.32399 0.64272 0.98131 0.0
H1813 H 0.19308 0.61297 0.07348 0.0
H1814 H 0.44861 0.74406 0.56197 0.0
H1815 H 0.46636 0.74592 0.53846 0.0
H1816 H 0.42808 0.72922 0.5063 0.0
H1817 H 0.41028 0.72711 0.5298 0.0
H1818 H 0.4537 0.71362 0.49986 0.0
H1819 H 0.44233 0.7689 0.50739 0.0
H1820 H 0.44011 0.79446 0.52281 0.0
H1821 H 0.4896 0.79748 0.5332 0.0
H1822 H 0.49208 0.77181 0.51802 0.0
H1823 H 0.49291 0.73069 0.42504 0.0
H1824 H 0.4744 0.73125 0.44784 0.0
H1825 H 0.51235 0.7472 0.4807 0.0
H1826 H 0.53095 0.74687 0.4579 0.0
H1827 H 0.48663 0.76353 0.48652 0.0
H1828 H 0.49789 0.70805 0.47969 0.0
H1829 H 0.50022 0.68239 0.46448 0.0
H1830 H 0.45095 0.67969 0.45302 0.0
H1831 H 0.44838 0.70547 0.46799 0.0
C1832 C 0.44393 0.74086 0.54989 0.0
C1833 C 0.42802 0.73545 0.54776 0.0
C1834 C 0.45409 0.742 0.53645 0.0
C1835 C 0.44852 0.73787 0.52059 0.0
C1836 C 0.43263 0.73249 0.51843 0.0
C1837 C 0.42247 0.73133 0.53186 0.0
C1838 C 0.45936 0.73867 0.50634 0.0
C1839 C 0.46071 0.72461 0.49679 0.0
C1840 C 0.46881 0.75289 0.50259 0.0
C1841 C 0.46736 0.76835 0.51169 0.0
C1842 C 0.45272 0.77495 0.51307 0.0
C1843 C 0.45142 0.78947 0.52175 0.0
C1844 C 0.4647 0.79757 0.52902 0.0
C1845 C 0.47932 0.79118 0.52758 0.0
C1846 C 0.48068 0.77666 0.51893 0.0
C1847 C 0.49733 0.73439 0.43709 0.0
C1848 C 0.51344 0.73864 0.43966 0.0
C1849 C 0.48673 0.73465 0.45013 0.0
C1850 C 0.49203 0.73905 0.46602 0.0
C1851 C 0.50802 0.74372 0.46855 0.0
C1852 C 0.51864 0.74349 0.45551 0.0
C1853 C 0.48093 0.73849 0.48005 0.0
C1854 C 0.47956 0.75257 0.48957 0.0
C1855 C 0.47146 0.72428 0.4838 0.0
C1856 C 0.47298 0.70877 0.47482 0.0
C1857 C 0.48758 0.70205 0.47381 0.0
C1858 C 0.48894 0.68747 0.46526 0.0
C1859 C 0.47575 0.67944 0.45775 0.0
C1860 C 0.46116 0.68594 0.45882 0.0
C1861 C 0.45974 0.70053 0.46735 0.0
H1862 H 0.47683 0.66815 0.45113 0.0
H1863 H 0.46367 0.80881 0.53573 0.0
H1864 H 0.34937 0.06207 0.05881 0.0
H1865 H 0.35252 0.0409 0.07867 0.0
H1866 H 0.37507 0.01286 0.04176 0.0
H1867 H 0.37175 0.03387 0.02175 0.0
H1868 H 0.35418 0.99416 0.05886 0.0
H1869 H 0.39651 0.03395 0.07162 0.0
H1870 H 0.40858 0.06118 0.07856 0.0
H1871 H 0.38132 0.0621 0.12277 0.0
H1872 H 0.36892 0.03494 0.11599 0.0
H1873 H 0.38772 0.93896 0.11134 0.0
H1874 H 0.38408 0.96024 0.09174 0.0
H1875 H 0.36039 0.98701 0.12881 0.0
H1876 H 0.36407 0.96581 0.14854 0.0
H1877 H 0.38158 0.0064 0.11185 0.0
H1878 H 0.33945 0.96647 0.09917 0.0
H1879 H 0.32742 0.93923 0.09221 0.0
H1880 H 0.3544 0.93857 0.04779 0.0
H1881 H 0.36676 0.96573 0.0546 0.0
C1882 C 0.35499 0.0514 0.0549 0.0
C1883 C 0.36036 0.04968 0.0387 0.0
C1884 C 0.35684 0.03933 0.0663 0.0
C1885 C 0.36421 0.02538 0.06176 0.0
C1886 C 0.36938 0.02354 0.04554 0.0
C1887 C 0.36751 0.03558 0.03413 0.0
C1888 C 0.36647 0.01266 0.0739 0.0
C1889 C 0.36035 0.9968 0.07035 0.0
C1890 C 0.3742 0.01617 0.08908 0.0
C1891 C 0.38167 0.03248 0.09321 0.0
C1892 C 0.393 0.04001 0.08276 0.0
C1893 C 0.39992 0.05542 0.08667 0.0
C1894 C 0.39569 0.06338 0.10107 0.0
C1895 C 0.38456 0.05593 0.11161 0.0
C1896 C 0.3776 0.04052 0.10774 0.0
C1897 C 0.38175 0.94937 0.11535 0.0
C1898 C 0.37614 0.95066 0.1315 0.0
C1899 C 0.37962 0.9615 0.1041 0.0
C1900 C 0.37181 0.97513 0.10877 0.0
C1901 C 0.36642 0.97658 0.12495 0.0
C1902 C 0.3685 0.96443 0.13619 0.0
C1903 C 0.36933 0.98791 0.09677 0.0
C1904 C 0.3754 0.00378 0.10036 0.0
C1905 C 0.36157 0.9844 0.08162 0.0
C1906 C 0.35415 0.96807 0.07749 0.0
C1907 C 0.34292 0.96046 0.08799 0.0
C1908 C 0.33602 0.94505 0.08406 0.0
C1909 C 0.34017 0.93716 0.06959 0.0
C1910 C 0.35121 0.94469 0.05901 0.0
C1911 C 0.35815 0.9601 0.06289 0.0
H1912 H 0.33482 0.92522 0.06657 0.0
H1913 H 0.40106 0.07531 0.10408 0.0
H1914 H 0.52246 0.89382 0.29119 0.0
H1915 H 0.50388 0.89375 0.26834 0.0
H1916 H 0.49379 0.94246 0.2813 0.0
H1917 H 0.51221 0.94259 0.30426 0.0
H1918 H 0.46722 0.92356 0.27531 0.0
H1919 H 0.51656 0.93516 0.24833 0.0
H1920 H 0.54393 0.93092 0.24077 0.0
H1921 H 0.52892 0.88473 0.21911 0.0
H1922 H 0.50148 0.88859 0.22675 0.0
H1923 H 0.42227 0.93418 0.20358 0.0
H1924 H 0.44312 0.9381 0.22423 0.0
H1925 H 0.45701 0.89017 0.2136 0.0
H1926 H 0.4365 0.88627 0.19278 0.0
H1927 H 0.48223 0.91067 0.21803 0.0
H1928 H 0.43347 0.89802 0.24658 0.0
H1929 H 0.40605 0.9017 0.2544 0.0
H1930 H 0.41995 0.94929 0.27334 0.0
H1931 H 0.44744 0.94597 0.26543 0.0
C1932 C 0.51632 0.90453 0.28916 0.0
C1933 C 0.51884 0.91822 0.29954 0.0
C1934 C 0.50575 0.9045 0.27605 0.0
C1935 C 0.49757 0.91817 0.27301 0.0
C1936 C 0.5 0.9318 0.2834 0.0
C1937 C 0.51057 0.93186 0.2965 0.0
C1938 C 0.4862 0.91811 0.25923 0.0
C1939 C 0.47056 0.92101 0.26274 0.0
C1940 C 0.49049 0.91446 0.24288 0.0
C1941 C 0.50698 0.91211 0.23824 0.0
C1942 C 0.51911 0.92404 0.24207 0.0
C1943 C 0.53464 0.92171 0.23775 0.0
C1944 C 0.53817 0.90754 0.2295 0.0
C1945 C 0.52617 0.89569 0.22552 0.0
C1946 C 0.51063 0.89795 0.22983 0.0
C1947 C 0.42987 0.92454 0.20551 0.0
C1948 C 0.42763 0.90987 0.19659 0.0
C1949 C 0.44173 0.92677 0.21738 0.0
C1950 C 0.45147 0.91433 0.22065 0.0
C1951 C 0.44963 0.89993 0.21133 0.0
C1952 C 0.43784 0.89771 0.19944 0.0
C1953 C 0.46322 0.91598 0.23413 0.0
C1954 C 0.47892 0.91336 0.23058 0.0
C1955 C 0.45898 0.91981 0.25046 0.0
C1956 C 0.44247 0.92181 0.25524 0.0
C1957 C 0.43066 0.90932 0.25229 0.0
C1958 C 0.41511 0.91133 0.25676 0.0
C1959 C 0.41125 0.92574 0.26431 0.0
C1960 C 0.42295 0.93815 0.26746 0.0
C1961 C 0.43851 0.93621 0.26299 0.0
H1962 H 0.3992 0.92727 0.26777 0.0
H1963 H 0.55019 0.90577 0.22617 0.0
H1964 H 0.22179 0.03718 0.72986 0.0
H1965 H 0.22159 0.01021 0.71705 0.0
H1966 H 0.20936 0.9887 0.76348 0.0
H1967 H 0.20948 0.01548 0.77635 0.0
H1968 H 0.23485 0.9757 0.74827 0.0
H1969 H 0.18229 0.98902 0.73441 0.0
H1970 H 0.16288 0.00577 0.72225 0.0
H1971 H 0.18414 0.00051 0.67492 0.0
H1972 H 0.20382 0.98389 0.68686 0.0
H1973 H 0.21472 0.89421 0.72792 0.0
H1974 H 0.21518 0.92225 0.73749 0.0
H1975 H 0.21993 0.93826 0.68757 0.0
H1976 H 0.2189 0.91012 0.67786 0.0
H1977 H 0.1998 0.9551 0.70272 0.0
H1978 H 0.25152 0.94128 0.71515 0.0
H1979 H 0.27189 0.92513 0.72641 0.0
H1980 H 0.25406 0.93224 0.77504 0.0
H1981 H 0.23343 0.94826 0.76404 0.0
C1982 C 0.21891 0.02672 0.7373 0.0
C1983 C 0.21569 0.02849 0.75414 0.0
C1984 C 0.21878 0.01133 0.72996 0.0
C1985 C 0.21547 0.99749 0.73934 0.0
C1986 C 0.21199 0.99924 0.75605 0.0
C1987 C 0.212 0.01458 0.76336 0.0
C1988 C 0.2162 0.98111 0.732 0.0
C1989 C 0.22709 0.97111 0.73842 0.0
C1990 C 0.20648 0.97541 0.71874 0.0
C1991 C 0.19463 0.98536 0.71156 0.0
C1992 C 0.18291 0.99155 0.72144 0.0
C1993 C 0.17184 0.001 0.71458 0.0
C1994 C 0.1723 0.00425 0.69783 0.0
C1995 C 0.18381 0.99801 0.6879 0.0
C1996 C 0.19492 0.98857 0.6947 0.0
C1997 C 0.21594 0.90369 0.71897 0.0
C1998 C 0.21685 0.89995 0.70214 0.0
C1999 C 0.21627 0.91974 0.72447 0.0
C2000 C 0.21787 0.93242 0.71328 0.0
C2001 C 0.21873 0.92871 0.69644 0.0
C2002 C 0.21819 0.91262 0.69091 0.0
C2003 C 0.21828 0.94949 0.71921 0.0
C2004 C 0.20766 0.95967 0.71249 0.0
C2005 C 0.22843 0.95546 0.73206 0.0
C2006 C 0.24084 0.94587 0.73874 0.0
C2007 C 0.25187 0.93931 0.72823 0.0
C2008 C 0.26347 0.93019 0.73457 0.0
C2009 C 0.26425 0.92763 0.75142 0.0
C2010 C 0.25343 0.93422 0.76198 0.0
C2011 C 0.2418 0.94334 0.7557 0.0
H2012 H 0.27324 0.92057 0.75631 0.0
H2013 H 0.16372 0.01156 0.69254 0.0
H2014 H 0.399 0.57292 0.69482 0.0
H2015 H 0.40486 0.59497 0.67588 0.0
H2016 H 0.3648 0.57801 0.64627 0.0
H2017 H 0.35907 0.55564 0.66495 0.0
H2018 H 0.38871 0.5893 0.6272 0.0
H2019 H 0.36205 0.60804 0.67507 0.0
H2020 H 0.35793 0.61238 0.70472 0.0
H2021 H 0.4025 0.64006 0.70838 0.0
H2022 H 0.40697 0.6357 0.67877 0.0
H2023 H 0.36965 0.66317 0.59174 0.0
H2024 H 0.37077 0.63762 0.60584 0.0
H2025 H 0.41211 0.65693 0.63217 0.0
H2026 H 0.41105 0.68259 0.61821 0.0
H2027 H 0.38967 0.6442 0.65249 0.0
H2028 H 0.41473 0.6274 0.60327 0.0
H2029 H 0.41777 0.62329 0.57345 0.0
H2030 H 0.37503 0.59236 0.57195 0.0
H2031 H 0.37161 0.59647 0.60174 0.0
C2032 C 0.39155 0.57374 0.68416 0.0
C2033 C 0.37844 0.56264 0.68151 0.0
C2034 C 0.3949 0.58638 0.67336 0.0
C2035 C 0.38508 0.58833 0.65985 0.0
C2036 C 0.3725 0.57677 0.65666 0.0
C2037 C 0.36922 0.56401 0.66738 0.0
C2038 C 0.38723 0.60302 0.64976 0.0
C2039 C 0.38881 0.60131 0.63269 0.0
C2040 C 0.38762 0.6187 0.65697 0.0
C2041 C 0.38492 0.62139 0.67475 0.0
C2042 C 0.37102 0.61495 0.68222 0.0
C2043 C 0.36862 0.61743 0.69901 0.0
C2044 C 0.37997 0.62645 0.70843 0.0
C2045 C 0.39373 0.63305 0.70107 0.0
C2046 C 0.3962 0.63058 0.68429 0.0
C2047 C 0.37913 0.66193 0.60035 0.0
C2048 C 0.3902 0.67498 0.60392 0.0
C2049 C 0.37979 0.64726 0.60834 0.0
C2050 C 0.39156 0.64535 0.62 0.0
C2051 C 0.40294 0.65816 0.6232 0.0
C2052 C 0.40232 0.67281 0.61518 0.0
C2053 C 0.39116 0.63053 0.62989 0.0
C2054 C 0.3898 0.63221 0.64697 0.0
C2055 C 0.39083 0.61487 0.62265 0.0
C2056 C 0.39285 0.61236 0.60473 0.0
C2057 C 0.40591 0.61983 0.59656 0.0
C2058 C 0.40771 0.61748 0.57966 0.0
C2059 C 0.39658 0.6076 0.5708 0.0
C2060 C 0.38364 0.60002 0.57883 0.0
C2061 C 0.38177 0.60234 0.59572 0.0
H2062 H 0.398 0.60579 0.55772 0.0
H2063 H 0.37808 0.62836 0.72143 0.0
loop_
_geom_bond_atom_site_label_1
_geom_bond_atom_site_label_2
_geom_bond_distance
_geom_bond_site_symmetry_2
_ccdc_geom_bond_type
O0 Cd1 2.300 . S
O0 C7 1.275 . S
Cd1 O0 2.300 . S
Cd1 O9 2.381 . S
Cd1 O10 2.378 . S
O2 Cd3 2.385 . S
O2 C7 1.255 1_655 S
Cd3 O2 2.385 . S
Cd3 O4 2.317 . S
O4 Cd3 2.317 . S
O4 C5 1.232 . S
C5 O4 1.232 . S
C5 O6 1.218 . S
O6 C5 1.218 . S
C7 O0 1.275 . S
C7 O2 1.255 1_455 S
C8 O9 1.258 . S
C8 O10 1.256 . S
O9 Cd1 2.381 . S
O9 C8 1.258 . S
O10 Cd1 2.378 . S
O10 C8 1.256 . S
O11 Cd12 2.300 . S
O11 C18 1.275 . S
Cd12 O11 2.300 . S
Cd12 O20 2.381 . S
Cd12 O21 2.378 . S
O13 Cd14 2.385 . S
O13 C18 1.255 . S
Cd14 O13 2.385 . S
Cd14 O15 2.317 . S
O15 Cd14 2.317 . S
O15 C16 1.232 . S
C16 O15 1.232 . S
C16 O17 1.218 . S
O17 C16 1.218 . S
C18 O11 1.275 . S
C18 O13 1.255 . S
C19 O20 1.258 . S
C19 O21 1.256 . S
O20 Cd12 2.381 . S
O20 C19 1.258 . S
O21 Cd12 2.378 . S
O21 C19 1.256 . S
O22 Cd23 2.300 . S
O22 C29 1.275 . S
Cd23 O22 2.300 . S
Cd23 O31 2.381 . S
Cd23 O32 2.378 . S
O24 Cd25 2.385 . S
O24 C29 1.255 . S
Cd25 O24 2.385 . S
Cd25 O26 2.317 . S
O26 Cd25 2.317 . S
O26 C27 1.232 . S
C27 O26 1.232 . S
C27 O28 1.218 . S
O28 C27 1.218 . S
C29 O22 1.275 . S
C29 O24 1.255 . S
C30 O31 1.258 . S
C30 O32 1.256 . S
O31 Cd23 2.381 . S
O31 C30 1.258 . S
O32 Cd23 2.378 . S
O32 C30 1.256 . S
O33 Cd34 2.300 . S
O33 C40 1.275 . S
Cd34 O33 2.300 . S
Cd34 O42 2.381 . S
Cd34 O43 2.378 . S
O35 Cd36 2.385 . S
O35 C40 1.255 . S
Cd36 O35 2.385 . S
Cd36 O37 2.317 . S
O37 Cd36 2.317 . S
O37 C38 1.232 . S
C38 O37 1.232 . S
C38 O39 1.218 . S
O39 C38 1.218 . S
C40 O33 1.275 . S
C40 O35 1.255 . S
C41 O42 1.258 . S
C41 O43 1.256 . S
O42 Cd34 2.381 . S
O42 C41 1.258 . S
O43 Cd34 2.378 . S
O43 C41 1.256 . S
O44 Cd45 2.300 . S
O44 C51 1.329 . S
Cd45 O44 2.300 . S
Cd45 O53 2.381 . S
Cd45 O54 2.378 . S
O46 Cd47 2.385 . S
O46 C51 1.212 1_655 S
Cd47 O46 2.385 . S
Cd47 O48 2.317 . S
O48 Cd47 2.317 . S
O48 C49 1.232 . S
C49 O48 1.232 . S
C49 O50 1.218 . S
O50 C49 1.218 . S
C51 O44 1.329 . S
C51 O46 1.212 1_455 S
C52 O53 1.258 . S
C52 O54 1.256 . S
O53 Cd45 2.381 . S
O53 C52 1.258 . S
O54 Cd45 2.378 . S
O54 C52 1.256 . S
O55 Cd56 2.300 . S
O55 C62 1.275 . S
Cd56 O55 2.300 . S
Cd56 O64 2.381 . S
Cd56 O65 2.378 . S
O57 Cd58 2.385 . S
O57 C62 1.255 . S
Cd58 O57 2.385 . S
Cd58 O59 2.317 . S
O59 Cd58 2.317 . S
O59 C60 1.232 . S
C60 O59 1.232 . S
C60 O61 1.218 . S
O61 C60 1.218 . S
C62 O55 1.275 . S
C62 O57 1.255 . S
C63 O64 1.258 . S
C63 O65 1.256 . S
O64 Cd56 2.381 . S
O64 C63 1.258 . S
O65 Cd56 2.378 . S
O65 C63 1.256 . S
O66 Cd67 2.300 . S
O66 C73 1.275 . S
Cd67 O66 2.300 . S
Cd67 O75 2.381 . S
Cd67 O76 2.378 . S
O68 Cd69 2.385 . S
O68 C73 1.255 . S
Cd69 O68 2.385 . S
Cd69 O70 2.317 . S
O70 Cd69 2.317 . S
O70 C71 1.232 . S
C71 O70 1.232 . S
C71 O72 1.218 . S
O72 C71 1.218 . S
C73 O66 1.275 . S
C73 O68 1.255 . S
C74 O75 1.258 . S
C74 O76 1.256 . S
O75 Cd67 2.381 . S
O75 C74 1.258 . S
O76 Cd67 2.378 . S
O76 C74 1.256 . S
O77 Cd78 2.300 . S
O77 C84 1.275 . S
Cd78 O77 2.300 . S
Cd78 O86 2.381 . S
Cd78 O87 2.378 . S
O79 Cd80 2.385 . S
O79 C84 1.255 . S
Cd80 O79 2.385 . S
Cd80 O81 2.317 . S
O81 Cd80 2.317 . S
O81 C82 1.232 . S
C82 O81 1.232 . S
C82 O83 1.218 . S
O83 C82 1.218 . S
C84 O77 1.275 . S
C84 O79 1.255 . S
C85 O86 1.258 . S
C85 O87 1.256 . S
O86 Cd78 2.381 . S
O86 C85 1.258 . S
O87 Cd78 2.378 . S
O87 C85 1.256 . S
O88 Cd89 2.300 . S
O88 C95 1.275 . S
Cd89 O88 2.300 . S
Cd89 O97 2.381 . S
Cd89 O98 2.378 . S
O90 Cd91 2.385 . S
O90 C95 1.255 . S
Cd91 O90 2.385 . S
Cd91 O92 2.317 . S
O92 Cd91 2.317 . S
O92 C93 1.232 . S
C93 O92 1.232 . S
C93 O94 1.218 . S
O94 C93 1.218 . S
C95 O88 1.275 . S
C95 O90 1.255 . S
C96 O97 1.258 . S
C96 O98 1.256 . S
O97 Cd89 2.381 . S
O97 C96 1.258 . S
O98 Cd89 2.378 . S
O98 C96 1.256 . S
O99 Cd100 2.300 . S
O99 C106 1.275 . S
Cd100 O99 2.300 . S
Cd100 O108 2.381 . S
Cd100 O109 2.378 . S
O101 Cd102 2.385 . S
O101 C106 1.255 . S
Cd102 O101 2.385 . S
Cd102 O103 2.317 . S
O103 Cd102 2.317 . S
O103 C104 1.232 . S
C104 O103 1.232 . S
C104 O105 1.218 . S
O105 C104 1.218 . S
C106 O99 1.275 . S
C106 O101 1.255 . S
C107 O108 1.258 . S
C107 O109 1.256 . S
O108 Cd100 2.381 . S
O108 C107 1.258 . S
O109 Cd100 2.378 . S
O109 C107 1.256 . S
O110 Cd111 2.300 . S
O110 C117 1.275 . S
Cd111 O110 2.300 . S
Cd111 O119 2.381 . S
Cd111 O120 2.378 . S
O112 Cd113 2.385 . S
O112 C117 1.255 . S
Cd113 O112 2.385 . S
Cd113 O114 2.317 . S
O114 Cd113 2.317 . S
O114 C115 1.232 . S
C115 O114 1.232 . S
C115 O116 1.218 . S
O116 C115 1.218 . S
C117 O110 1.275 . S
C117 O112 1.255 . S
C118 O119 1.258 . S
C118 O120 1.256 . S
O119 Cd111 2.381 . S
O119 C118 1.258 . S
O120 Cd111 2.378 . S
O120 C118 1.256 . S
O121 Cd122 2.300 . S
O121 C128 1.275 . S
Cd122 O121 2.300 . S
Cd122 O130 2.381 . S
Cd122 O131 2.378 . S
O123 Cd124 2.385 . S
O123 C128 1.255 . S
Cd124 O123 2.385 . S
Cd124 O125 2.317 . S
O125 Cd124 2.317 . S
O125 C126 1.232 . S
C126 O125 1.232 . S
C126 O127 1.218 . S
O127 C126 1.218 . S
C128 O121 1.275 . S
C128 O123 1.255 . S
C129 O130 1.258 . S
C129 O131 1.256 . S
O130 Cd122 2.381 . S
O130 C129 1.258 . S
O131 Cd122 2.378 . S
O131 C129 1.256 . S
O132 Cd133 2.300 . S
O132 C139 1.275 . S
Cd133 O132 2.300 . S
Cd133 O141 2.381 . S
Cd133 O142 2.378 . S
O134 Cd135 2.385 . S
O134 C139 1.255 . S
Cd135 O134 2.385 . S
Cd135 O136 2.317 . S
O136 Cd135 2.317 . S
O136 C137 1.232 . S
C137 O136 1.232 . S
C137 O138 1.218 . S
O138 C137 1.218 . S
C139 O132 1.275 . S
C139 O134 1.255 . S
C140 O141 1.258 . S
C140 O142 1.256 . S
O141 Cd133 2.381 . S
O141 C140 1.258 . S
O142 Cd133 2.378 . S
O142 C140 1.256 . S
O143 Cd144 2.300 . S
O143 C150 1.275 . S
Cd144 O143 2.300 . S
Cd144 O152 2.381 . S
Cd144 O153 2.378 . S
O145 Cd146 2.385 . S
O145 C150 1.255 . S
Cd146 O145 2.385 . S
Cd146 O147 2.317 . S
O147 Cd146 2.317 . S
O147 C148 1.232 . S
C148 O147 1.232 . S
C148 O149 1.218 . S
O149 C148 1.218 . S
C150 O143 1.275 . S
C150 O145 1.255 . S
C151 O152 1.258 . S
C151 O153 1.256 . S
O152 Cd144 2.381 . S
O152 C151 1.258 . S
O153 Cd144 2.378 . S
O153 C151 1.256 . S
O154 Cd155 2.300 . S
O154 C161 1.275 . S
Cd155 O154 2.300 . S
Cd155 O163 2.381 . S
Cd155 O164 2.378 . S
O156 Cd157 2.385 . S
O156 C161 1.255 . S
Cd157 O156 2.385 . S
Cd157 O158 2.317 . S
O158 Cd157 2.317 . S
O158 C159 1.232 . S
C159 O158 1.232 . S
C159 O160 1.218 . S
O160 C159 1.218 . S
C161 O154 1.275 . S
C161 O156 1.255 . S
C162 O163 1.258 . S
C162 O164 1.256 . S
O163 Cd155 2.381 . S
O163 C162 1.258 . S
O164 Cd155 2.378 . S
O164 C162 1.256 . S
O165 Cd166 2.300 . S
O165 C172 1.275 . S
Cd166 O165 2.300 . S
Cd166 O174 2.381 1_556 S
Cd166 O175 2.378 1_556 S
O167 Cd168 2.385 . S
O167 C172 1.255 . S
Cd168 O167 2.385 . S
Cd168 O169 2.317 . S
O169 Cd168 2.317 . S
O169 C170 1.232 . S
C170 O169 1.232 . S
C170 O171 1.218 . S
O171 C170 1.218 . S
C172 O165 1.275 . S
C172 O167 1.255 . S
C173 O174 1.258 . S
C173 O175 1.256 . S
O174 Cd166 2.381 1_554 S
O174 C173 1.258 . S
O175 Cd166 2.378 1_554 S
O175 C173 1.256 . S
O176 Cd177 2.300 . S
O176 C183 1.275 . S
Cd177 O176 2.300 . S
Cd177 O185 2.381 . S
Cd177 O186 2.378 . S
O178 Cd179 2.385 . S
O178 C183 1.255 . S
Cd179 O178 2.385 . S
Cd179 O180 2.317 . S
O180 Cd179 2.317 . S
O180 C181 1.232 . S
C181 O180 1.232 . S
C181 O182 1.218 . S
O182 C181 1.218 . S
C183 O176 1.275 . S
C183 O178 1.255 . S
C184 O185 1.258 . S
C184 O186 1.256 . S
O185 Cd177 2.381 . S
O185 C184 1.258 . S
O186 Cd177 2.378 . S
O186 C184 1.256 . S
O187 Cd188 2.300 . S
O187 C194 1.275 . S
Cd188 O187 2.300 . S
Cd188 O196 2.381 . S
Cd188 O197 2.378 . S
O189 Cd190 2.385 . S
O189 C194 1.255 . S
Cd190 O189 2.385 . S
Cd190 O191 2.317 . S
O191 Cd190 2.317 . S
O191 C192 1.232 . S
C192 O191 1.232 . S
C192 O193 1.218 . S
O193 C192 1.218 . S
C194 O187 1.275 . S
C194 O189 1.255 . S
C195 O196 1.258 . S
C195 O197 1.256 . S
O196 Cd188 2.381 . S
O196 C195 1.258 . S
O197 Cd188 2.378 . S
O197 C195 1.256 . S
O198 Cd199 2.300 . S
O198 C205 1.275 . S
Cd199 O198 2.300 . S
Cd199 O207 2.381 . S
Cd199 O208 2.378 . S
O200 Cd201 2.385 . S
O200 C205 1.255 . S
Cd201 O200 2.385 . S
Cd201 O202 2.317 . S
O202 Cd201 2.317 . S
O202 C203 1.232 . S
C203 O202 1.232 . S
C203 O204 1.218 . S
O204 C203 1.218 . S
C205 O198 1.275 . S
C205 O200 1.255 . S
C206 O207 1.258 . S
C206 O208 1.256 . S
O207 Cd199 2.381 . S
O207 C206 1.258 . S
O208 Cd199 2.378 . S
O208 C206 1.256 . S
O209 Cd210 2.300 . S
O209 C216 1.275 . S
Cd210 O209 2.300 . S
Cd210 O218 2.381 . S
Cd210 O219 2.378 . S
O211 Cd212 2.385 . S
O211 C216 1.255 . S
Cd212 O211 2.385 . S
Cd212 O213 2.317 . S
O213 Cd212 2.317 . S
O213 C214 1.232 . S
C214 O213 1.232 . S
C214 O215 1.218 . S
O215 C214 1.218 . S
C216 O209 1.275 . S
C216 O211 1.255 . S
C217 O218 1.258 . S
C217 O219 1.256 . S
O218 Cd210 2.381 . S
O218 C217 1.258 . S
O219 Cd210 2.378 . S
O219 C217 1.256 . S
O220 Cd221 2.300 . S
O220 C227 1.275 1_554 S
Cd221 O220 2.300 . S
Cd221 O229 2.381 . S
Cd221 O230 2.378 . S
O222 Cd223 2.385 . S
O222 C227 1.255 . S
Cd223 O222 2.385 . S
Cd223 O224 2.317 1_556 S
O224 Cd223 2.317 1_554 S
O224 C225 1.232 . S
C225 O224 1.232 . S
C225 O226 1.218 1_554 S
O226 C225 1.218 1_556 S
C227 O220 1.275 1_556 S
C227 O222 1.255 . S
C228 O229 1.258 . S
C228 O230 1.256 . S
O229 Cd221 2.381 . S
O229 C228 1.258 . S
O230 Cd221 2.378 . S
O230 C228 1.256 . S
O231 Cd232 2.300 . S
O231 C238 1.275 . S
Cd232 O231 2.300 . S
Cd232 O240 2.381 . S
Cd232 O241 2.378 . S
O233 Cd234 2.385 . S
O233 C238 1.255 . S
Cd234 O233 2.385 . S
Cd234 O235 2.317 . S
O235 Cd234 2.317 . S
O235 C236 1.232 . S
C236 O235 1.232 . S
C236 O237 1.218 . S
O237 C236 1.218 . S
C238 O231 1.275 . S
C238 O233 1.255 . S
C239 O240 1.258 . S
C239 O241 1.256 . S
O240 Cd232 2.381 . S
O240 C239 1.258 . S
O241 Cd232 2.378 . S
O241 C239 1.256 . S
O242 Cd243 2.300 . S
O242 C249 1.275 . S
Cd243 O242 2.300 . S
Cd243 O251 2.381 . S
Cd243 O252 2.378 . S
O244 Cd245 2.385 . S
O244 C249 1.255 . S
Cd245 O244 2.385 . S
Cd245 O246 2.317 . S
O246 Cd245 2.317 . S
O246 C247 1.232 . S
C247 O246 1.232 . S
C247 O248 1.218 . S
O248 C247 1.218 . S
C249 O242 1.275 . S
C249 O244 1.255 . S
C250 O251 1.258 . S
C250 O252 1.256 . S
O251 Cd243 2.381 . S
O251 C250 1.258 . S
O252 Cd243 2.378 . S
O252 C250 1.256 . S
O253 Cd254 2.300 . S
O253 C260 1.296 . S
Cd254 O253 2.300 . S
Cd254 O262 2.381 . S
Cd254 O263 2.378 . S
O255 Cd256 2.385 . S
O255 C260 1.275 . S
Cd256 O255 2.385 . S
Cd256 O257 2.317 1_554 S
O257 Cd256 2.317 1_556 S
O257 C258 1.232 . S
C258 O257 1.232 . S
C258 O259 1.218 . S
O259 C258 1.218 . S
C260 O253 1.296 . S
C260 O255 1.275 . S
C261 O262 1.258 . S
C261 O263 1.256 . S
O262 Cd254 2.381 . S
O262 C261 1.258 . S
O263 Cd254 2.378 . S
O263 C261 1.256 . S
H264 C282 0.951 . S
H265 C284 0.951 . S
H266 C286 0.950 . S
H267 C287 0.950 . S
H268 C289 0.950 . S
H269 C292 0.950 . S
H270 C293 0.950 . S
H271 C295 0.950 . S
H272 C296 0.950 . S
H273 C297 0.951 . S
H274 C299 0.951 . S
H275 C301 0.950 . S
H276 C302 0.950 . S
H277 C304 0.950 . S
H278 C307 0.950 . S
H279 C308 0.950 . S
H280 C310 0.950 . S
H281 C311 0.950 . S
C282 H264 0.951 . S
C282 C283 1.366 1_455 S
C282 C284 1.388 . S
C283 C282 1.366 1_655 S
C283 C287 1.385 . S
C284 H265 0.951 . S
C284 C282 1.388 . S
C284 C285 1.366 1_455 S
C285 C284 1.366 1_655 S
C285 C286 1.414 . S
C285 C288 1.499 . S
C286 H266 0.950 . S
C286 C285 1.414 . S
C286 C287 1.374 . S
C287 H267 0.950 . S
C287 C283 1.385 . S
C287 C286 1.374 . S
C288 C285 1.499 . S
C288 C289 1.373 1_655 S
C288 C290 1.389 . S
C289 H268 0.950 . S
C289 C288 1.373 1_455 S
C289 C305 1.377 . S
C290 C288 1.389 . S
C290 C291 1.524 . S
C290 C304 1.377 . S
C291 C290 1.524 . S
C291 C292 1.397 . S
C291 C296 1.363 . S
C292 H269 0.950 . S
C292 C291 1.397 . S
C292 C293 1.334 . S
C293 H270 0.950 . S
C293 C292 1.334 . S
C293 C294 1.287 . S
C294 C293 1.287 . S
C294 C295 1.524 . S
C294 H313 0.913 . S
C295 H271 0.950 . S
C295 C294 1.524 . S
C295 C296 1.415 . S
C296 H272 0.950 . S
C296 C291 1.363 . S
C296 C295 1.415 . S
C297 H273 0.951 . S
C297 C298 1.340 1_655 S
C297 C299 1.388 . S
C298 C297 1.340 1_455 S
C298 C302 1.408 . S
C299 H274 0.951 . S
C299 C297 1.388 . S
C299 C300 1.366 1_655 S
C300 C299 1.366 1_455 S
C300 C301 1.414 . S
C300 C303 1.499 . S
C301 H275 0.950 . S
C301 C300 1.414 . S
C301 C302 1.374 . S
C302 H276 0.950 . S
C302 C298 1.408 . S
C302 C301 1.374 . S
C303 C300 1.499 . S
C303 C304 1.373 1_455 S
C303 C305 1.389 . S
C304 H277 0.950 . S
C304 C290 1.377 . S
C304 C303 1.373 1_655 S
C305 C289 1.377 . S
C305 C303 1.389 . S
C305 C306 1.524 . S
C306 C305 1.524 . S
C306 C307 1.397 . S
C306 C311 1.363 . S
C307 H278 0.950 . S
C307 C306 1.397 . S
C307 C308 1.334 . S
C308 H279 0.950 . S
C308 C307 1.334 . S
C308 C309 1.287 . S
C309 C308 1.287 . S
C309 C310 1.524 . S
C309 H312 0.999 . S
C310 H280 0.950 . S
C310 C309 1.524 . S
C310 C311 1.415 . S
C311 H281 0.950 . S
C311 C306 1.363 . S
C311 C310 1.415 . S
H312 C309 0.999 . S
H313 C294 0.913 . S
H314 C332 0.951 . S
H315 C334 0.951 . S
H316 C336 0.950 . S
H317 C337 0.950 . S
H318 C339 0.950 . S
H319 C342 0.950 . S
H320 C343 0.950 . S
H321 C345 0.950 . S
H322 C346 0.950 . S
H323 C347 0.951 . S
H324 C349 0.951 . S
H325 C351 0.950 . S
H326 C352 0.950 . S
H327 C354 0.950 . S
H328 C357 0.950 . S
H329 C358 0.950 . S
H330 C360 0.950 . S
H331 C361 0.950 . S
C332 H314 0.951 . S
C332 C333 1.366 . S
C332 C334 1.388 . S
C333 C332 1.366 . S
C333 C337 1.385 . S
C334 H315 0.951 . S
C334 C332 1.388 . S
C334 C335 1.366 . S
C335 C334 1.366 . S
C335 C336 1.414 . S
C335 C338 1.499 . S
C336 H316 0.950 . S
C336 C335 1.414 . S
C336 C337 1.374 . S
C337 H317 0.950 . S
C337 C333 1.385 . S
C337 C336 1.374 . S
C338 C335 1.499 . S
C338 C339 1.373 . S
C338 C340 1.389 . S
C339 H318 0.950 . S
C339 C338 1.373 . S
C339 C355 1.377 . S
C340 C338 1.389 . S
C340 C341 1.524 . S
C340 C354 1.377 . S
C341 C340 1.524 . S
C341 C342 1.397 . S
C341 C346 1.363 . S
C342 H319 0.950 . S
C342 C341 1.397 . S
C342 C343 1.334 . S
C343 H320 0.950 . S
C343 C342 1.334 . S
C343 C344 1.287 . S
C344 C343 1.287 . S
C344 C345 1.524 . S
C344 H363 0.913 . S
C345 H321 0.950 . S
C345 C344 1.524 . S
C345 C346 1.415 . S
C346 H322 0.950 . S
C346 C341 1.363 . S
C346 C345 1.415 . S
C347 H323 0.951 . S
C347 C348 1.366 . S
C347 C349 1.388 . S
C348 C347 1.366 . S
C348 C352 1.385 . S
C349 H324 0.951 . S
C349 C347 1.388 . S
C349 C350 1.366 . S
C350 C349 1.366 . S
C350 C351 1.414 . S
C350 C353 1.499 . S
C351 H325 0.950 . S
C351 C350 1.414 . S
C351 C352 1.374 . S
C352 H326 0.950 . S
C352 C348 1.385 . S
C352 C351 1.374 . S
C353 C350 1.499 . S
C353 C354 1.373 . S
C353 C355 1.389 . S
C354 H327 0.950 . S
C354 C340 1.377 . S
C354 C353 1.373 . S
C355 C339 1.377 . S
C355 C353 1.389 . S
C355 C356 1.524 . S
C356 C355 1.524 . S
C356 C357 1.397 . S
C356 C361 1.363 . S
C357 H328 0.950 . S
C357 C356 1.397 . S
C357 C358 1.334 . S
C358 H329 0.950 . S
C358 C357 1.334 . S
C358 C359 1.287 . S
C359 C358 1.287 . S
C359 C360 1.524 . S
C359 H362 0.999 . S
C360 H330 0.950 . S
C360 C359 1.524 . S
C360 C361 1.415 . S
C361 H331 0.950 . S
C361 C356 1.363 . S
C361 C360 1.415 . S
H362 C359 0.999 . S
H363 C344 0.913 . S
H364 C382 0.951 . S
H365 C384 0.951 . S
H366 C386 0.950 . S
H367 C387 0.950 . S
H368 C389 0.950 . S
H369 C392 0.950 . S
H370 C393 0.950 . S
H371 C395 0.950 . S
H372 C396 0.950 . S
H373 C397 0.951 . S
H374 C399 0.951 . S
H375 C401 0.950 . S
H376 C402 0.950 . S
H377 C404 0.950 . S
H378 C407 0.950 . S
H379 C408 0.950 . S
H380 C410 0.950 . S
H381 C411 0.950 . S
C382 H364 0.951 . S
C382 C383 1.366 . S
C382 C384 1.388 . S
C383 C382 1.366 . S
C383 C387 1.385 . S
C384 H365 0.951 . S
C384 C382 1.388 . S
C384 C385 1.366 . S
C385 C384 1.366 . S
C385 C386 1.414 . S
C385 C388 1.499 . S
C386 H366 0.950 . S
C386 C385 1.414 . S
C386 C387 1.374 . S
C387 H367 0.950 . S
C387 C383 1.385 . S
C387 C386 1.374 . S
C388 C385 1.499 . S
C388 C389 1.373 . S
C388 C390 1.389 . S
C389 H368 0.950 . S
C389 C388 1.373 . S
C389 C405 1.377 . S
C390 C388 1.389 . S
C390 C391 1.524 . S
C390 C404 1.377 . S
C391 C390 1.524 . S
C391 C392 1.397 . S
C391 C396 1.363 . S
C392 H369 0.950 . S
C392 C391 1.397 . S
C392 C393 1.334 . S
C393 H370 0.950 . S
C393 C392 1.334 . S
C393 C394 1.287 . S
C394 C393 1.287 . S
C394 C395 1.524 . S
C394 H413 0.913 . S
C395 H371 0.950 . S
C395 C394 1.524 . S
C395 C396 1.415 . S
C396 H372 0.950 . S
C396 C391 1.363 . S
C396 C395 1.415 . S
C397 H373 0.951 . S
C397 C398 1.366 . S
C397 C399 1.388 . S
C398 C397 1.366 . S
C398 C402 1.385 . S
C399 H374 0.951 . S
C399 C397 1.388 . S
C399 C400 1.366 . S
C400 C399 1.366 . S
C400 C401 1.414 . S
C400 C403 1.499 . S
C401 H375 0.950 . S
C401 C400 1.414 . S
C401 C402 1.374 . S
C402 H376 0.950 . S
C402 C398 1.385 . S
C402 C401 1.374 . S
C403 C400 1.499 . S
C403 C404 1.373 . S
C403 C405 1.389 . S
C404 H377 0.950 . S
C404 C390 1.377 . S
C404 C403 1.373 . S
C405 C389 1.377 . S
C405 C403 1.389 . S
C405 C406 1.524 . S
C406 C405 1.524 . S
C406 C407 1.397 . S
C406 C411 1.363 . S
C407 H378 0.950 . S
C407 C406 1.397 . S
C407 C408 1.334 . S
C408 H379 0.950 . S
C408 C407 1.334 . S
C408 C409 1.287 . S
C409 C408 1.287 . S
C409 C410 1.524 . S
C409 H412 0.999 . S
C410 H380 0.950 . S
C410 C409 1.524 . S
C410 C411 1.415 . S
C411 H381 0.950 . S
C411 C406 1.363 . S
C411 C410 1.415 . S
H412 C409 0.999 . S
H413 C394 0.913 . S
H414 C432 0.951 . S
H415 C434 0.951 . S
H416 C436 0.950 . S
H417 C437 0.950 . S
H418 C439 0.950 . S
H419 C442 0.950 . S
H420 C443 0.950 . S
H421 C445 0.950 . S
H422 C446 0.950 . S
H423 C447 0.951 . S
H424 C449 0.951 . S
H425 C451 0.950 . S
H426 C452 0.950 . S
H427 C454 0.950 . S
H428 C457 0.950 . S
H429 C458 0.950 . S
H430 C460 0.950 . S
H431 C461 0.950 . S
C432 H414 0.951 . S
C432 C433 1.366 . S
C432 C434 1.388 . S
C433 C432 1.366 . S
C433 C437 1.385 . S
C434 H415 0.951 . S
C434 C432 1.388 . S
C434 C435 1.366 . S
C435 C434 1.366 . S
C435 C436 1.414 . S
C435 C438 1.499 . S
C436 H416 0.950 . S
C436 C435 1.414 . S
C436 C437 1.374 . S
C437 H417 0.950 . S
C437 C433 1.385 . S
C437 C436 1.374 . S
C438 C435 1.499 . S
C438 C439 1.373 . S
C438 C440 1.389 . S
C439 H418 0.950 . S
C439 C438 1.373 . S
C439 C455 1.377 . S
C440 C438 1.389 . S
C440 C441 1.524 . S
C440 C454 1.377 . S
C441 C440 1.524 . S
C441 C442 1.397 . S
C441 C446 1.363 . S
C442 H419 0.950 . S
C442 C441 1.397 . S
C442 C443 1.334 . S
C443 H420 0.950 . S
C443 C442 1.334 . S
C443 C444 1.287 . S
C444 C443 1.287 . S
C444 C445 1.524 . S
C444 H463 0.913 1_545 S
C445 H421 0.950 . S
C445 C444 1.524 . S
C445 C446 1.415 . S
C446 H422 0.950 . S
C446 C441 1.363 . S
C446 C445 1.415 . S
C447 H423 0.951 . S
C447 C448 1.366 . S
C447 C449 1.388 . S
C448 C447 1.366 . S
C448 C452 1.385 . S
C449 H424 0.951 . S
C449 C447 1.388 . S
C449 C450 1.366 . S
C450 C449 1.366 . S
C450 C451 1.414 . S
C450 C453 1.499 . S
C451 H425 0.950 . S
C451 C450 1.414 . S
C451 C452 1.374 . S
C452 H426 0.950 . S
C452 C448 1.385 . S
C452 C451 1.374 . S
C453 C450 1.499 . S
C453 C454 1.373 . S
C453 C455 1.389 . S
C454 H427 0.950 . S
C454 C440 1.377 . S
C454 C453 1.373 . S
C455 C439 1.377 . S
C455 C453 1.389 . S
C455 C456 1.524 . S
C456 C455 1.524 . S
C456 C457 1.397 . S
C456 C461 1.363 . S
C457 H428 0.950 . S
C457 C456 1.397 . S
C457 C458 1.334 . S
C458 H429 0.950 . S
C458 C457 1.334 . S
C458 C459 1.287 . S
C459 C458 1.287 . S
C459 C460 1.524 . S
C459 H462 0.999 . S
C460 H430 0.950 . S
C460 C459 1.524 . S
C460 C461 1.415 . S
C461 H431 0.950 . S
C461 C456 1.363 . S
C461 C460 1.415 . S
H462 C459 0.999 . S
H463 C444 0.913 1_565 S
H464 C482 0.951 . S
H465 C484 0.951 . S
H466 C486 0.950 . S
H467 C487 0.950 . S
H468 C489 0.950 . S
H469 C492 0.950 . S
H470 C493 0.950 . S
H471 C495 0.950 . S
H472 C496 0.950 . S
H473 C497 0.951 . S
H474 C499 0.951 . S
H475 C501 0.950 . S
H476 C502 0.950 . S
H477 C504 0.950 . S
H478 C507 0.950 . S
H479 C508 0.950 . S
H480 C510 0.950 . S
H481 C511 0.950 . S
C482 H464 0.951 . S
C482 C483 1.366 . S
C482 C484 1.388 . S
C483 C482 1.366 . S
C483 C487 1.385 . S
C484 H465 0.951 . S
C484 C482 1.388 . S
C484 C485 1.366 . S
C485 C484 1.366 . S
C485 C486 1.414 . S
C485 C488 1.499 . S
C486 H466 0.950 . S
C486 C485 1.414 . S
C486 C487 1.374 . S
C487 H467 0.950 . S
C487 C483 1.385 . S
C487 C486 1.374 . S
C488 C485 1.499 . S
C488 C489 1.373 . S
C488 C490 1.389 . S
C489 H468 0.950 . S
C489 C488 1.373 . S
C489 C505 1.377 . S
C490 C488 1.389 . S
C490 C491 1.524 . S
C490 C504 1.377 . S
C491 C490 1.524 . S
C491 C492 1.397 . S
C491 C496 1.363 . S
C492 H469 0.950 . S
C492 C491 1.397 . S
C492 C493 1.334 . S
C493 H470 0.950 . S
C493 C492 1.334 . S
C493 C494 1.287 . S
C494 C493 1.287 . S
C494 C495 1.524 . S
C494 H513 0.913 . S
C495 H471 0.950 . S
C495 C494 1.524 . S
C495 C496 1.415 . S
C496 H472 0.950 . S
C496 C491 1.363 . S
C496 C495 1.415 . S
C497 H473 0.951 . S
C497 C498 1.366 . S
C497 C499 1.388 . S
C498 C497 1.366 . S
C498 C502 1.385 . S
C499 H474 0.951 . S
C499 C497 1.388 . S
C499 C500 1.366 . S
C500 C499 1.366 . S
C500 C501 1.414 . S
C500 C503 1.499 . S
C501 H475 0.950 . S
C501 C500 1.414 . S
C501 C502 1.374 . S
C502 H476 0.950 . S
C502 C498 1.385 . S
C502 C501 1.374 . S
C503 C500 1.499 . S
C503 C504 1.373 . S
C503 C505 1.389 . S
C504 H477 0.950 . S
C504 C490 1.377 . S
C504 C503 1.373 . S
C505 C489 1.377 . S
C505 C503 1.389 . S
C505 C506 1.524 . S
C506 C505 1.524 . S
C506 C507 1.397 . S
C506 C511 1.363 . S
C507 H478 0.950 . S
C507 C506 1.397 . S
C507 C508 1.334 . S
C508 H479 0.950 . S
C508 C507 1.334 . S
C508 C509 1.287 . S
C509 C508 1.287 . S
C509 C510 1.524 . S
C509 H512 0.999 . S
C510 H480 0.950 . S
C510 C509 1.524 . S
C510 C511 1.415 . S
C511 H481 0.950 . S
C511 C506 1.363 . S
C511 C510 1.415 . S
H512 C509 0.999 . S
H513 C494 0.913 . S
H514 C532 0.951 . S
H515 C534 0.951 . S
H516 C536 0.950 . S
H517 C537 0.950 . S
H518 C539 0.950 . S
H519 C542 0.950 . S
H520 C543 0.950 . S
H521 C545 0.950 . S
H522 C546 0.950 . S
H523 C547 0.951 . S
H524 C549 0.951 . S
H525 C551 0.950 . S
H526 C552 0.950 . S
H527 C554 0.950 . S
H528 C557 0.950 . S
H529 C558 0.950 . S
H530 C560 0.950 . S
H531 C561 0.950 . S
C532 H514 0.951 . S
C532 C533 1.366 . S
C532 C534 1.388 . S
C533 C532 1.366 . S
C533 C537 1.385 . S
C534 H515 0.951 . S
C534 C532 1.388 . S
C534 C535 1.366 . S
C535 C534 1.366 . S
C535 C536 1.414 . S
C535 C538 1.499 . S
C536 H516 0.950 . S
C536 C535 1.414 . S
C536 C537 1.374 . S
C537 H517 0.950 . S
C537 C533 1.385 . S
C537 C536 1.374 . S
C538 C535 1.499 . S
C538 C539 1.373 . S
C538 C540 1.389 . S
C539 H518 0.950 . S
C539 C538 1.373 . S
C539 C555 1.377 . S
C540 C538 1.389 . S
C540 C541 1.524 . S
C540 C554 1.377 . S
C541 C540 1.524 . S
C541 C542 1.397 . S
C541 C546 1.363 . S
C542 H519 0.950 . S
C542 C541 1.397 . S
C542 C543 1.334 . S
C543 H520 0.950 . S
C543 C542 1.334 . S
C543 C544 1.287 . S
C544 C543 1.287 . S
C544 C545 1.524 . S
C544 H563 0.913 . S
C545 H521 0.950 . S
C545 C544 1.524 . S
C545 C546 1.415 . S
C546 H522 0.950 . S
C546 C541 1.363 . S
C546 C545 1.415 . S
C547 H523 0.951 . S
C547 C548 1.366 . S
C547 C549 1.388 . S
C548 C547 1.366 . S
C548 C552 1.385 . S
C549 H524 0.951 . S
C549 C547 1.388 . S
C549 C550 1.366 . S
C550 C549 1.366 . S
C550 C551 1.414 . S
C550 C553 1.499 . S
C551 H525 0.950 . S
C551 C550 1.414 . S
C551 C552 1.374 . S
C552 H526 0.950 . S
C552 C548 1.385 . S
C552 C551 1.374 . S
C553 C550 1.499 . S
C553 C554 1.373 . S
C553 C555 1.389 . S
C554 H527 0.950 . S
C554 C540 1.377 . S
C554 C553 1.373 . S
C555 C539 1.377 . S
C555 C553 1.389 . S
C555 C556 1.524 . S
C556 C555 1.524 . S
C556 C557 1.397 . S
C556 C561 1.363 . S
C557 H528 0.950 . S
C557 C556 1.397 . S
C557 C558 1.334 . S
C558 H529 0.950 . S
C558 C557 1.334 . S
C558 C559 1.287 . S
C559 C558 1.287 . S
C559 C560 1.524 . S
C559 H562 0.999 . S
C560 H530 0.950 . S
C560 C559 1.524 . S
C560 C561 1.415 . S
C561 H531 0.950 . S
C561 C556 1.363 . S
C561 C560 1.415 . S
H562 C559 0.999 . S
H563 C544 0.913 . S
H564 C582 0.951 . S
H565 C584 0.951 . S
H566 C586 0.950 . S
H567 C587 0.950 . S
H568 C589 0.950 . S
H569 C592 0.950 . S
H570 C593 0.950 . S
H571 C595 0.950 . S
H572 C596 0.950 . S
H573 C597 0.951 . S
H574 C599 0.951 . S
H575 C601 0.950 . S
H576 C602 0.950 . S
H577 C604 0.950 . S
H578 C607 0.950 . S
H579 C608 0.950 . S
H580 C610 0.950 . S
H581 C611 0.950 . S
C582 H564 0.951 . S
C582 C583 1.366 . S
C582 C584 1.388 . S
C583 C582 1.366 . S
C583 C587 1.385 . S
C584 H565 0.951 . S
C584 C582 1.388 . S
C584 C585 1.366 . S
C585 C584 1.366 . S
C585 C586 1.414 . S
C585 C588 1.499 . S
C586 H566 0.950 . S
C586 C585 1.414 . S
C586 C587 1.374 . S
C587 H567 0.950 . S
C587 C583 1.385 . S
C587 C586 1.374 . S
C588 C585 1.499 . S
C588 C589 1.373 . S
C588 C590 1.389 . S
C589 H568 0.950 . S
C589 C588 1.373 . S
C589 C605 1.377 . S
C590 C588 1.389 . S
C590 C591 1.524 . S
C590 C604 1.377 . S
C591 C590 1.524 . S
C591 C592 1.397 . S
C591 C596 1.363 . S
C592 H569 0.950 . S
C592 C591 1.397 . S
C592 C593 1.334 . S
C593 H570 0.950 . S
C593 C592 1.334 . S
C593 C594 1.287 . S
C594 C593 1.287 . S
C594 C595 1.524 . S
C594 H613 0.913 . S
C595 H571 0.950 . S
C595 C594 1.524 . S
C595 C596 1.415 . S
C596 H572 0.950 . S
C596 C591 1.363 . S
C596 C595 1.415 . S
C597 H573 0.951 . S
C597 C598 1.366 . S
C597 C599 1.388 . S
C598 C597 1.366 . S
C598 C602 1.385 . S
C599 H574 0.951 . S
C599 C597 1.388 . S
C599 C600 1.366 . S
C600 C599 1.366 . S
C600 C601 1.414 . S
C600 C603 1.499 . S
C601 H575 0.950 . S
C601 C600 1.414 . S
C601 C602 1.374 . S
C602 H576 0.950 . S
C602 C598 1.385 . S
C602 C601 1.374 . S
C603 C600 1.499 . S
C603 C604 1.373 . S
C603 C605 1.389 . S
C604 H577 0.950 . S
C604 C590 1.377 . S
C604 C603 1.373 . S
C605 C589 1.377 . S
C605 C603 1.389 . S
C605 C606 1.524 . S
C606 C605 1.524 . S
C606 C607 1.397 . S
C606 C611 1.363 . S
C607 H578 0.950 . S
C607 C606 1.397 . S
C607 C608 1.334 . S
C608 H579 0.950 . S
C608 C607 1.334 . S
C608 C609 1.287 . S
C609 C608 1.287 . S
C609 C610 1.524 . S
C609 H612 0.999 . S
C610 H580 0.950 . S
C610 C609 1.524 . S
C610 C611 1.415 . S
C611 H581 0.950 . S
C611 C606 1.363 . S
C611 C610 1.415 . S
H612 C609 0.999 . S
H613 C594 0.913 . S
H614 C632 0.951 . S
H615 C634 0.951 . S
H616 C636 0.950 . S
H617 C637 0.950 . S
H618 C639 0.950 . S
H619 C642 0.950 . S
H620 C643 0.950 . S
H621 C645 0.950 . S
H622 C646 0.950 . S
H623 C647 0.951 . S
H624 C649 0.951 . S
H625 C651 0.950 . S
H626 C652 0.950 . S
H627 C654 0.950 . S
H628 C657 0.950 . S
H629 C658 0.950 . S
H630 C660 0.950 . S
H631 C661 0.950 . S
C632 H614 0.951 . S
C632 C633 1.366 . S
C632 C634 1.388 . S
C633 C632 1.366 . S
C633 C637 1.385 . S
C634 H615 0.951 . S
C634 C632 1.388 . S
C634 C635 1.366 . S
C635 C634 1.366 . S
C635 C636 1.414 . S
C635 C638 1.499 . S
C636 H616 0.950 . S
C636 C635 1.414 . S
C636 C637 1.374 . S
C637 H617 0.950 . S
C637 C633 1.385 . S
C637 C636 1.374 . S
C638 C635 1.499 . S
C638 C639 1.373 . S
C638 C640 1.389 . S
C639 H618 0.950 . S
C639 C638 1.373 . S
C639 C655 1.377 . S
C640 C638 1.389 . S
C640 C641 1.524 . S
C640 C654 1.377 . S
C641 C640 1.524 . S
C641 C642 1.397 . S
C641 C646 1.363 . S
C642 H619 0.950 . S
C642 C641 1.397 . S
C642 C643 1.334 . S
C643 H620 0.950 . S
C643 C642 1.334 . S
C643 C644 1.287 . S
C644 C643 1.287 . S
C644 C645 1.524 . S
C644 H663 0.913 . S
C645 H621 0.950 . S
C645 C644 1.524 . S
C645 C646 1.415 . S
C646 H622 0.950 . S
C646 C641 1.363 . S
C646 C645 1.415 . S
C647 H623 0.951 . S
C647 C648 1.366 . S
C647 C649 1.388 . S
C648 C647 1.366 . S
C648 C652 1.385 . S
C649 H624 0.951 . S
C649 C647 1.388 . S
C649 C650 1.366 . S
C650 C649 1.366 . S
C650 C651 1.414 . S
C650 C653 1.499 . S
C651 H625 0.950 . S
C651 C650 1.414 . S
C651 C652 1.374 . S
C652 H626 0.950 . S
C652 C648 1.385 . S
C652 C651 1.374 . S
C653 C650 1.499 . S
C653 C654 1.373 . S
C653 C655 1.389 . S
C654 H627 0.950 . S
C654 C640 1.377 . S
C654 C653 1.373 . S
C655 C639 1.377 . S
C655 C653 1.389 . S
C655 C656 1.524 . S
C656 C655 1.524 . S
C656 C657 1.397 . S
C656 C661 1.363 . S
C657 H628 0.950 . S
C657 C656 1.397 . S
C657 C658 1.334 . S
C658 H629 0.950 . S
C658 C657 1.334 . S
C658 C659 1.287 . S
C659 C658 1.287 . S
C659 C660 1.524 . S
C659 H662 0.999 . S
C660 H630 0.950 . S
C660 C659 1.524 . S
C660 C661 1.415 . S
C661 H631 0.950 . S
C661 C656 1.363 . S
C661 C660 1.415 . S
H662 C659 0.999 . S
H663 C644 0.913 . S
H664 C682 0.951 . S
H665 C684 0.951 . S
H666 C686 0.950 . S
H667 C687 0.950 . S
H668 C689 0.950 . S
H669 C692 0.950 . S
H670 C693 0.950 . S
H671 C695 0.950 . S
H672 C696 0.950 . S
H673 C697 0.951 . S
H674 C699 0.951 . S
H675 C701 0.950 . S
H676 C702 0.950 . S
H677 C704 0.950 . S
H678 C707 0.950 . S
H679 C708 0.950 . S
H680 C710 0.950 . S
H681 C711 0.950 . S
C682 H664 0.951 . S
C682 C683 1.366 . S
C682 C684 1.388 . S
C683 C682 1.366 . S
C683 C687 1.385 . S
C684 H665 0.951 . S
C684 C682 1.388 . S
C684 C685 1.366 . S
C685 C684 1.366 . S
C685 C686 1.414 . S
C685 C688 1.499 . S
C686 H666 0.950 . S
C686 C685 1.414 . S
C686 C687 1.374 . S
C687 H667 0.950 . S
C687 C683 1.385 . S
C687 C686 1.374 . S
C688 C685 1.499 . S
C688 C689 1.373 . S
C688 C690 1.389 . S
C689 H668 0.950 . S
C689 C688 1.373 . S
C689 C705 1.377 . S
C690 C688 1.389 . S
C690 C691 1.524 . S
C690 C704 1.377 . S
C691 C690 1.524 . S
C691 C692 1.397 . S
C691 C696 1.363 . S
C692 H669 0.950 . S
C692 C691 1.397 . S
C692 C693 1.334 . S
C693 H670 0.950 . S
C693 C692 1.334 . S
C693 C694 1.287 . S
C694 C693 1.287 . S
C694 C695 1.524 . S
C694 H713 0.913 . S
C695 H671 0.950 . S
C695 C694 1.524 . S
C695 C696 1.415 . S
C696 H672 0.950 . S
C696 C691 1.363 . S
C696 C695 1.415 . S
C697 H673 0.951 . S
C697 C698 1.366 . S
C697 C699 1.388 . S
C698 C697 1.366 . S
C698 C702 1.385 . S
C699 H674 0.951 . S
C699 C697 1.388 . S
C699 C700 1.366 . S
C700 C699 1.366 . S
C700 C701 1.414 . S
C700 C703 1.499 . S
C701 H675 0.950 . S
C701 C700 1.414 . S
C701 C702 1.374 . S
C702 H676 0.950 . S
C702 C698 1.385 . S
C702 C701 1.374 . S
C703 C700 1.499 . S
C703 C704 1.373 . S
C703 C705 1.389 . S
C704 H677 0.950 . S
C704 C690 1.377 . S
C704 C703 1.373 . S
C705 C689 1.377 . S
C705 C703 1.389 . S
C705 C706 1.524 . S
C706 C705 1.524 . S
C706 C707 1.397 . S
C706 C711 1.363 . S
C707 H678 0.950 . S
C707 C706 1.397 . S
C707 C708 1.334 . S
C708 H679 0.950 . S
C708 C707 1.334 . S
C708 C709 1.287 . S
C709 C708 1.287 . S
C709 C710 1.524 . S
C709 H712 0.999 . S
C710 H680 0.950 . S
C710 C709 1.524 . S
C710 C711 1.415 . S
C711 H681 0.950 . S
C711 C706 1.363 . S
C711 C710 1.415 . S
H712 C709 0.999 . S
H713 C694 0.913 . S
H714 C732 0.951 . S
H715 C734 0.951 . S
H716 C736 0.950 . S
H717 C737 0.950 . S
H718 C739 0.950 . S
H719 C742 0.950 . S
H720 C743 0.950 . S
H721 C745 0.950 . S
H722 C746 0.950 . S
H723 C747 0.951 . S
H724 C749 0.951 . S
H725 C751 0.950 . S
H726 C752 0.950 . S
H727 C754 0.950 . S
H728 C757 0.950 . S
H729 C758 0.950 . S
H730 C760 0.950 . S
H731 C761 0.950 . S
C732 H714 0.951 . S
C732 C733 1.366 . S
C732 C734 1.388 . S
C733 C732 1.366 . S
C733 C737 1.385 . S
C734 H715 0.951 . S
C734 C732 1.388 . S
C734 C735 1.366 . S
C735 C734 1.366 . S
C735 C736 1.414 . S
C735 C738 1.499 . S
C736 H716 0.950 . S
C736 C735 1.414 . S
C736 C737 1.374 . S
C737 H717 0.950 . S
C737 C733 1.385 . S
C737 C736 1.374 . S
C738 C735 1.499 . S
C738 C739 1.373 . S
C738 C740 1.389 . S
C739 H718 0.950 . S
C739 C738 1.373 . S
C739 C755 1.377 . S
C740 C738 1.389 . S
C740 C741 1.524 . S
C740 C754 1.377 . S
C741 C740 1.524 . S
C741 C742 1.397 . S
C741 C746 1.363 . S
C742 H719 0.950 . S
C742 C741 1.397 . S
C742 C743 1.334 . S
C743 H720 0.950 . S
C743 C742 1.334 . S
C743 C744 1.287 . S
C744 C743 1.287 . S
C744 C745 1.524 . S
C744 H763 0.913 . S
C745 H721 0.950 . S
C745 C744 1.524 . S
C745 C746 1.415 . S
C746 H722 0.950 . S
C746 C741 1.363 . S
C746 C745 1.415 . S
C747 H723 0.951 . S
C747 C748 1.366 . S
C747 C749 1.388 . S
C748 C747 1.366 . S
C748 C752 1.385 . S
C749 H724 0.951 . S
C749 C747 1.388 . S
C749 C750 1.366 . S
C750 C749 1.366 . S
C750 C751 1.414 . S
C750 C753 1.499 . S
C751 H725 0.950 . S
C751 C750 1.414 . S
C751 C752 1.374 . S
C752 H726 0.950 . S
C752 C748 1.385 . S
C752 C751 1.374 . S
C753 C750 1.499 . S
C753 C754 1.373 . S
C753 C755 1.389 . S
C754 H727 0.950 . S
C754 C740 1.377 . S
C754 C753 1.373 . S
C755 C739 1.377 . S
C755 C753 1.389 . S
C755 C756 1.524 . S
C756 C755 1.524 . S
C756 C757 1.397 . S
C756 C761 1.363 . S
C757 H728 0.950 . S
C757 C756 1.397 . S
C757 C758 1.334 . S
C758 H729 0.950 . S
C758 C757 1.334 . S
C758 C759 1.287 . S
C759 C758 1.287 . S
C759 C760 1.524 . S
C759 H762 0.999 . S
C760 H730 0.950 . S
C760 C759 1.524 . S
C760 C761 1.415 . S
C761 H731 0.950 . S
C761 C756 1.363 . S
C761 C760 1.415 . S
H762 C759 0.999 . S
H763 C744 0.913 . S
H764 C782 0.951 . S
H765 C784 0.951 . S
H766 C786 0.950 . S
H767 C787 0.950 . S
H768 C789 0.954 . S
H769 C792 0.950 . S
H770 C793 0.950 . S
H771 C795 0.934 1_554 S
H772 C796 0.950 . S
H773 C797 0.951 . S
H774 C799 0.951 . S
H775 C801 0.950 . S
H776 C802 0.950 . S
H777 C804 0.950 . S
H778 C807 0.950 . S
H779 C808 0.950 . S
H780 C810 0.950 1_556 S
H781 C811 0.950 . S
C782 H764 0.951 . S
C782 C783 1.366 1_554 S
C782 C784 1.388 . S
C783 C782 1.366 1_556 S
C783 C787 1.385 . S
C784 H765 0.951 . S
C784 C782 1.388 . S
C784 C785 1.366 1_554 S
C785 C784 1.366 1_556 S
C785 C786 1.414 . S
C785 C788 1.499 . S
C786 H766 0.950 . S
C786 C785 1.414 . S
C786 C787 1.374 . S
C787 H767 0.950 . S
C787 C783 1.385 . S
C787 C786 1.374 . S
C788 C785 1.499 . S
C788 C789 1.365 1_556 S
C788 C790 1.389 . S
C789 H768 0.954 . S
C789 C788 1.365 1_554 S
C789 C805 1.387 . S
C790 C788 1.389 . S
C790 C791 1.524 . S
C790 C804 1.372 1_556 S
C791 C790 1.524 . S
C791 C792 1.397 . S
C791 C796 1.363 1_556 S
C792 H769 0.950 . S
C792 C791 1.397 . S
C792 C793 1.334 . S
C793 H770 0.950 . S
C793 C792 1.334 . S
C793 C794 1.287 . S
C794 C793 1.287 . S
C794 C795 1.549 . S
C794 H813 0.913 . S
C795 H771 0.934 1_556 S
C795 C794 1.549 . S
C795 C796 1.408 1_556 S
C796 H772 0.950 . S
C796 C791 1.363 1_554 S
C796 C795 1.408 1_554 S
C797 H773 0.951 . S
C797 C798 1.366 1_556 S
C797 C799 1.388 . S
C798 C797 1.366 1_554 S
C798 C802 1.385 . S
C799 H774 0.951 . S
C799 C797 1.388 . S
C799 C800 1.366 1_556 S
C800 C799 1.366 1_554 S
C800 C801 1.414 . S
C800 C803 1.499 . S
C801 H775 0.950 . S
C801 C800 1.414 . S
C801 C802 1.374 . S
C802 H776 0.950 . S
C802 C798 1.385 . S
C802 C801 1.374 . S
C803 C800 1.499 . S
C803 C804 1.379 . S
C803 C805 1.389 . S
C804 H777 0.950 . S
C804 C790 1.372 1_554 S
C804 C803 1.379 . S
C805 C789 1.387 . S
C805 C803 1.389 . S
C805 C806 1.524 . S
C806 C805 1.524 . S
C806 C807 1.397 . S
C806 C811 1.363 1_554 S
C807 H778 0.950 . S
C807 C806 1.397 . S
C807 C808 1.334 . S
C808 H779 0.950 . S
C808 C807 1.334 . S
C808 C809 1.287 . S
C809 C808 1.287 . S
C809 C810 1.524 . S
C809 H812 0.999 . S
C810 H780 0.950 1_554 S
C810 C809 1.524 . S
C810 C811 1.415 1_554 S
C811 H781 0.950 . S
C811 C806 1.363 1_556 S
C811 C810 1.415 1_556 S
H812 C809 0.999 . S
H813 C794 0.913 . S
H814 C832 0.951 . S
H815 C834 0.951 . S
H816 C836 0.950 . S
H817 C837 0.950 . S
H818 C839 0.950 . S
H819 C842 0.950 . S
H820 C843 0.950 . S
H821 C845 0.950 . S
H822 C846 0.950 . S
H823 C847 0.951 . S
H824 C849 0.951 . S
H825 C851 0.950 . S
H826 C852 0.950 . S
H827 C854 0.950 . S
H828 C857 0.950 . S
H829 C858 0.950 . S
H830 C860 0.950 . S
H831 C861 0.950 . S
C832 H814 0.951 . S
C832 C833 1.366 . S
C832 C834 1.388 . S
C833 C832 1.366 . S
C833 C837 1.385 . S
C834 H815 0.951 . S
C834 C832 1.388 . S
C834 C835 1.366 . S
C835 C834 1.366 . S
C835 C836 1.414 . S
C835 C838 1.499 . S
C836 H816 0.950 . S
C836 C835 1.414 . S
C836 C837 1.374 . S
C837 H817 0.950 . S
C837 C833 1.385 . S
C837 C836 1.374 . S
C838 C835 1.499 . S
C838 C839 1.373 . S
C838 C840 1.389 . S
C839 H818 0.950 . S
C839 C838 1.373 . S
C839 C855 1.377 . S
C840 C838 1.389 . S
C840 C841 1.524 . S
C840 C854 1.377 . S
C841 C840 1.524 . S
C841 C842 1.397 . S
C841 C846 1.363 . S
C842 H819 0.950 . S
C842 C841 1.397 . S
C842 C843 1.334 . S
C843 H820 0.950 . S
C843 C842 1.334 . S
C843 C844 1.287 . S
C844 C843 1.287 . S
C844 C845 1.524 . S
C844 H863 0.913 . S
C845 H821 0.950 . S
C845 C844 1.524 . S
C845 C846 1.415 . S
C846 H822 0.950 . S
C846 C841 1.363 . S
C846 C845 1.415 . S
C847 H823 0.951 . S
C847 C848 1.366 . S
C847 C849 1.388 . S
C848 C847 1.366 . S
C848 C852 1.385 . S
C849 H824 0.951 . S
C849 C847 1.388 . S
C849 C850 1.366 . S
C850 C849 1.366 . S
C850 C851 1.414 . S
C850 C853 1.499 . S
C851 H825 0.950 . S
C851 C850 1.414 . S
C851 C852 1.374 . S
C852 H826 0.950 . S
C852 C848 1.385 . S
C852 C851 1.374 . S
C853 C850 1.499 . S
C853 C854 1.373 . S
C853 C855 1.389 . S
C854 H827 0.950 . S
C854 C840 1.377 . S
C854 C853 1.373 . S
C855 C839 1.377 . S
C855 C853 1.389 . S
C855 C856 1.524 . S
C856 C855 1.524 . S
C856 C857 1.397 . S
C856 C861 1.363 . S
C857 H828 0.950 . S
C857 C856 1.397 . S
C857 C858 1.334 . S
C858 H829 0.950 . S
C858 C857 1.334 . S
C858 C859 1.287 . S
C859 C858 1.287 . S
C859 C860 1.524 . S
C859 H862 0.999 . S
C860 H830 0.950 . S
C860 C859 1.524 . S
C860 C861 1.415 . S
C861 H831 0.950 . S
C861 C856 1.363 . S
C861 C860 1.415 . S
H862 C859 0.999 . S
H863 C844 0.913 . S
H864 C882 0.951 . S
H865 C884 0.951 . S
H866 C886 0.950 . S
H867 C887 0.950 . S
H868 C889 0.950 . S
H869 C892 0.950 . S
H870 C893 0.950 . S
H871 C895 0.950 . S
H872 C896 0.950 . S
H873 C897 0.951 . S
H874 C899 0.951 . S
H875 C901 0.950 . S
H876 C902 0.950 . S
H877 C904 0.950 . S
H878 C907 0.950 . S
H879 C908 0.950 . S
H880 C910 0.950 . S
H881 C911 0.950 . S
C882 H864 0.951 . S
C882 C883 1.366 . S
C882 C884 1.388 . S
C883 C882 1.366 . S
C883 C887 1.385 . S
C884 H865 0.951 . S
C884 C882 1.388 . S
C884 C885 1.366 . S
C885 C884 1.366 . S
C885 C886 1.414 . S
C885 C888 1.499 . S
C886 H866 0.950 . S
C886 C885 1.414 . S
C886 C887 1.374 . S
C887 H867 0.950 . S
C887 C883 1.385 . S
C887 C886 1.374 . S
C888 C885 1.499 . S
C888 C889 1.373 . S
C888 C890 1.389 . S
C889 H868 0.950 . S
C889 C888 1.373 . S
C889 C905 1.377 . S
C890 C888 1.389 . S
C890 C891 1.524 . S
C890 C904 1.377 . S
C891 C890 1.524 . S
C891 C892 1.397 . S
C891 C896 1.363 . S
C892 H869 0.950 . S
C892 C891 1.397 . S
C892 C893 1.334 . S
C893 H870 0.950 . S
C893 C892 1.334 . S
C893 C894 1.287 . S
C894 C893 1.287 . S
C894 C895 1.524 . S
C894 H913 0.913 . S
C895 H871 0.950 . S
C895 C894 1.524 . S
C895 C896 1.415 . S
C896 H872 0.950 . S
C896 C891 1.363 . S
C896 C895 1.415 . S
C897 H873 0.951 . S
C897 C898 1.366 . S
C897 C899 1.388 . S
C898 C897 1.366 . S
C898 C902 1.385 . S
C899 H874 0.951 . S
C899 C897 1.388 . S
C899 C900 1.366 . S
C900 C899 1.366 . S
C900 C901 1.414 . S
C900 C903 1.499 . S
C901 H875 0.950 . S
C901 C900 1.414 . S
C901 C902 1.374 . S
C902 H876 0.950 . S
C902 C898 1.385 . S
C902 C901 1.374 . S
C903 C900 1.499 . S
C903 C904 1.373 . S
C903 C905 1.389 . S
C904 H877 0.950 . S
C904 C890 1.377 . S
C904 C903 1.373 . S
C905 C889 1.377 . S
C905 C903 1.389 . S
C905 C906 1.524 . S
C906 C905 1.524 . S
C906 C907 1.397 . S
C906 C911 1.363 . S
C907 H878 0.950 . S
C907 C906 1.397 . S
C907 C908 1.334 . S
C908 H879 0.950 . S
C908 C907 1.334 . S
C908 C909 1.287 . S
C909 C908 1.287 . S
C909 C910 1.524 . S
C909 H912 0.999 . S
C910 H880 0.950 . S
C910 C909 1.524 . S
C910 C911 1.415 . S
C911 H881 0.950 . S
C911 C906 1.363 . S
C911 C910 1.415 . S
H912 C909 0.999 . S
H913 C894 0.913 . S
H914 C932 0.951 . S
H915 C934 0.951 . S
H916 C936 0.950 . S
H917 C937 0.950 . S
H918 C939 0.950 . S
H919 C942 0.950 . S
H920 C943 0.950 . S
H921 C945 0.950 . S
H922 C946 0.950 . S
H923 C947 0.951 . S
H924 C949 0.951 . S
H925 C951 0.950 . S
H926 C952 0.950 . S
H927 C954 0.950 . S
H928 C957 0.950 . S
H929 C958 0.950 . S
H930 C960 0.950 1_455 S
H931 C961 0.950 1_455 S
C932 H914 0.951 . S
C932 C933 1.366 . S
C932 C934 1.388 . S
C933 C932 1.366 . S
C933 C937 1.385 . S
C934 H915 0.951 . S
C934 C932 1.388 . S
C934 C935 1.366 . S
C935 C934 1.366 . S
C935 C936 1.414 . S
C935 C938 1.499 . S
C936 H916 0.950 . S
C936 C935 1.414 . S
C936 C937 1.374 . S
C937 H917 0.950 . S
C937 C933 1.385 . S
C937 C936 1.374 . S
C938 C935 1.499 . S
C938 C939 1.373 . S
C938 C940 1.379 1_455 S
C939 H918 0.950 . S
C939 C938 1.373 . S
C939 C955 1.377 1_455 S
C940 C938 1.379 1_655 S
C940 C941 1.526 1_655 S
C940 C954 1.388 . S
C941 C940 1.526 1_455 S
C941 C942 1.418 . S
C941 C946 1.340 1_455 S
C942 H919 0.950 . S
C942 C941 1.418 . S
C942 C943 1.334 . S
C943 H920 0.950 . S
C943 C942 1.334 . S
C943 C944 1.287 . S
C944 C943 1.287 . S
C944 C945 1.524 1_455 S
C944 H963 0.913 . S
C945 H921 0.950 . S
C945 C944 1.524 1_655 S
C945 C946 1.415 . S
C946 H922 0.950 . S
C946 C941 1.340 1_655 S
C946 C945 1.415 . S
C947 H923 0.951 . S
C947 C948 1.366 . S
C947 C949 1.388 . S
C948 C947 1.366 . S
C948 C952 1.385 . S
C949 H924 0.951 . S
C949 C947 1.388 . S
C949 C950 1.366 . S
C950 C949 1.366 . S
C950 C951 1.414 . S
C950 C953 1.499 . S
C951 H925 0.950 . S
C951 C950 1.414 . S
C951 C952 1.374 . S
C952 H926 0.950 . S
C952 C948 1.385 . S
C952 C951 1.374 . S
C953 C950 1.499 . S
C953 C954 1.373 . S
C953 C955 1.389 . S
C954 H927 0.950 . S
C954 C940 1.388 . S
C954 C953 1.373 . S
C955 C939 1.377 1_655 S
C955 C953 1.389 . S
C955 C956 1.524 . S
C956 C955 1.524 . S
C956 C957 1.397 . S
C956 C961 1.363 . S
C957 H928 0.950 . S
C957 C956 1.397 . S
C957 C958 1.334 . S
C958 H929 0.950 . S
C958 C957 1.334 . S
C958 C959 1.287 . S
C959 C958 1.287 . S
C959 C960 1.524 . S
C959 H962 0.999 . S
C960 H930 0.950 1_655 S
C960 C959 1.524 . S
C960 C961 1.415 . S
C961 H931 0.950 1_655 S
C961 C956 1.363 . S
C961 C960 1.415 . S
H962 C959 0.999 . S
H963 C944 0.913 . S
H964 C982 0.951 . S
H965 C984 0.951 . S
H966 C986 0.950 . S
H967 C987 0.950 . S
H968 C989 0.950 . S
H969 C992 0.950 . S
H970 C993 0.950 . S
H971 C995 0.950 . S
H972 C996 0.950 . S
H973 C997 0.951 . S
H974 C999 0.951 . S
H975 C1001 0.950 . S
H976 C1002 0.950 . S
H977 C1004 0.950 . S
H978 C1007 0.950 . S
H979 C1008 0.950 . S
H980 C1010 0.950 . S
H981 C1011 0.950 . S
C982 H964 0.951 . S
C982 C983 1.366 . S
C982 C984 1.388 . S
C983 C982 1.366 . S
C983 C987 1.385 . S
C984 H965 0.951 . S
C984 C982 1.388 . S
C984 C985 1.366 . S
C985 C984 1.366 . S
C985 C986 1.414 . S
C985 C988 1.499 . S
C986 H966 0.950 . S
C986 C985 1.414 . S
C986 C987 1.374 . S
C987 H967 0.950 . S
C987 C983 1.385 . S
C987 C986 1.374 . S
C988 C985 1.499 . S
C988 C989 1.373 . S
C988 C990 1.389 . S
C989 H968 0.950 . S
C989 C988 1.373 . S
C989 C1005 1.377 . S
C990 C988 1.389 . S
C990 C991 1.524 . S
C990 C1004 1.377 . S
C991 C990 1.524 . S
C991 C992 1.397 . S
C991 C996 1.363 . S
C992 H969 0.950 . S
C992 C991 1.397 . S
C992 C993 1.334 . S
C993 H970 0.950 . S
C993 C992 1.334 . S
C993 C994 1.287 . S
C994 C993 1.287 . S
C994 C995 1.524 . S
C994 H1013 0.913 . S
C995 H971 0.950 . S
C995 C994 1.524 . S
C995 C996 1.415 . S
C996 H972 0.950 . S
C996 C991 1.363 . S
C996 C995 1.415 . S
C997 H973 0.951 . S
C997 C998 1.366 . S
C997 C999 1.388 . S
C998 C997 1.366 . S
C998 C1002 1.385 . S
C999 H974 0.951 . S
C999 C997 1.388 . S
C999 C1000 1.366 . S
C1000 C999 1.366 . S
C1000 C1001 1.414 . S
C1000 C1003 1.499 . S
C1001 H975 0.950 . S
C1001 C1000 1.414 . S
C1001 C1002 1.374 . S
C1002 H976 0.950 . S
C1002 C998 1.385 . S
C1002 C1001 1.374 . S
C1003 C1000 1.499 . S
C1003 C1004 1.373 . S
C1003 C1005 1.389 . S
C1004 H977 0.950 . S
C1004 C990 1.377 . S
C1004 C1003 1.373 . S
C1005 C989 1.377 . S
C1005 C1003 1.389 . S
C1005 C1006 1.524 . S
C1006 C1005 1.524 . S
C1006 C1007 1.397 . S
C1006 C1011 1.363 . S
C1007 H978 0.950 . S
C1007 C1006 1.397 . S
C1007 C1008 1.334 . S
C1008 H979 0.950 . S
C1008 C1007 1.334 . S
C1008 C1009 1.287 . S
C1009 C1008 1.287 . S
C1009 C1010 1.524 . S
C1009 H1012 0.999 . S
C1010 H980 0.950 . S
C1010 C1009 1.524 . S
C1010 C1011 1.415 . S
C1011 H981 0.950 . S
C1011 C1006 1.363 . S
C1011 C1010 1.415 . S
H1012 C1009 0.999 . S
H1013 C994 0.913 . S
H1014 C1032 0.951 . S
H1015 C1034 0.951 . S
H1016 C1036 0.950 . S
H1017 C1037 0.950 . S
H1018 C1039 0.950 . S
H1019 C1042 0.950 . S
H1020 C1043 0.950 . S
H1021 C1045 0.950 . S
H1022 C1046 0.950 . S
H1023 C1047 0.951 . S
H1024 C1049 0.951 . S
H1025 C1051 0.950 . S
H1026 C1052 0.950 . S
H1027 C1054 0.950 . S
H1028 C1057 0.950 . S
H1029 C1058 0.950 . S
H1030 C1060 0.950 . S
H1031 C1061 0.950 . S
C1032 H1014 0.951 . S
C1032 C1033 1.366 . S
C1032 C1034 1.388 1_545 S
C1033 C1032 1.366 . S
C1033 C1037 1.385 . S
C1034 H1015 0.951 . S
C1034 C1032 1.388 1_565 S
C1034 C1035 1.366 1_565 S
C1035 C1034 1.366 1_545 S
C1035 C1036 1.414 . S
C1035 C1038 1.499 1_545 S
C1036 H1016 0.950 . S
C1036 C1035 1.414 . S
C1036 C1037 1.374 . S
C1037 H1017 0.950 . S
C1037 C1033 1.385 . S
C1037 C1036 1.374 . S
C1038 C1035 1.499 1_565 S
C1038 C1039 1.373 . S
C1038 C1040 1.389 . S
C1039 H1018 0.950 . S
C1039 C1038 1.373 . S
C1039 C1055 1.377 . S
C1040 C1038 1.389 . S
C1040 C1041 1.524 . S
C1040 C1054 1.377 . S
C1041 C1040 1.524 . S
C1041 C1042 1.397 1_565 S
C1041 C1046 1.363 . S
C1042 H1019 0.950 . S
C1042 C1041 1.397 1_545 S
C1042 C1043 1.334 . S
C1043 H1020 0.950 . S
C1043 C1042 1.334 . S
C1043 C1044 1.287 . S
C1044 C1043 1.287 . S
C1044 C1045 1.524 1_545 S
C1044 H1063 0.913 . S
C1045 H1021 0.950 . S
C1045 C1044 1.524 1_565 S
C1045 C1046 1.415 . S
C1046 H1022 0.950 . S
C1046 C1041 1.363 . S
C1046 C1045 1.415 . S
C1047 H1023 0.951 . S
C1047 C1048 1.366 . S
C1047 C1049 1.388 . S
C1048 C1047 1.366 . S
C1048 C1052 1.385 . S
C1049 H1024 0.951 . S
C1049 C1047 1.388 . S
C1049 C1050 1.366 . S
C1050 C1049 1.366 . S
C1050 C1051 1.414 . S
C1050 C1053 1.499 . S
C1051 H1025 0.950 . S
C1051 C1050 1.414 . S
C1051 C1052 1.374 . S
C1052 H1026 0.950 . S
C1052 C1048 1.385 . S
C1052 C1051 1.374 . S
C1053 C1050 1.499 . S
C1053 C1054 1.373 . S
C1053 C1055 1.389 . S
C1054 H1027 0.950 . S
C1054 C1040 1.377 . S
C1054 C1053 1.373 . S
C1055 C1039 1.377 . S
C1055 C1053 1.389 . S
C1055 C1056 1.524 . S
C1056 C1055 1.524 . S
C1056 C1057 1.397 . S
C1056 C1061 1.363 . S
C1057 H1028 0.950 . S
C1057 C1056 1.397 . S
C1057 C1058 1.334 . S
C1058 H1029 0.950 . S
C1058 C1057 1.334 . S
C1058 C1059 1.287 . S
C1059 C1058 1.287 . S
C1059 C1060 1.524 . S
C1059 H1062 0.999 . S
C1060 H1030 0.950 . S
C1060 C1059 1.524 . S
C1060 C1061 1.415 . S
C1061 H1031 0.950 . S
C1061 C1056 1.363 . S
C1061 C1060 1.415 . S
H1062 C1059 0.999 . S
H1063 C1044 0.913 . S
H1064 C1082 0.951 . S
H1065 C1084 0.951 . S
H1066 C1086 0.950 . S
H1067 C1087 0.950 . S
H1068 C1089 0.950 . S
H1069 C1092 0.950 . S
H1070 C1093 0.950 . S
H1071 C1095 0.950 . S
H1072 C1096 0.950 . S
H1073 C1097 0.951 . S
H1074 C1099 0.951 . S
H1075 C1101 0.950 . S
H1076 C1102 0.950 . S
H1077 C1104 0.950 . S
H1078 C1107 0.950 . S
H1079 C1108 0.950 . S
H1080 C1110 0.950 . S
H1081 C1111 0.950 . S
C1082 H1064 0.951 . S
C1082 C1083 1.366 . S
C1082 C1084 1.388 . S
C1083 C1082 1.366 . S
C1083 C1087 1.385 . S
C1084 H1065 0.951 . S
C1084 C1082 1.388 . S
C1084 C1085 1.366 . S
C1085 C1084 1.366 . S
C1085 C1086 1.414 . S
C1085 C1088 1.499 . S
C1086 H1066 0.950 . S
C1086 C1085 1.414 . S
C1086 C1087 1.374 . S
C1087 H1067 0.950 . S
C1087 C1083 1.385 . S
C1087 C1086 1.374 . S
C1088 C1085 1.499 . S
C1088 C1089 1.373 . S
C1088 C1090 1.389 . S
C1089 H1068 0.950 . S
C1089 C1088 1.373 . S
C1089 C1105 1.377 . S
C1090 C1088 1.389 . S
C1090 C1091 1.524 . S
C1090 C1104 1.377 . S
C1091 C1090 1.524 . S
C1091 C1092 1.397 . S
C1091 C1096 1.363 . S
C1092 H1069 0.950 . S
C1092 C1091 1.397 . S
C1092 C1093 1.334 . S
C1093 H1070 0.950 . S
C1093 C1092 1.334 . S
C1093 C1094 1.287 . S
C1094 C1093 1.287 . S
C1094 C1095 1.524 . S
C1094 H1113 0.913 . S
C1095 H1071 0.950 . S
C1095 C1094 1.524 . S
C1095 C1096 1.415 . S
C1096 H1072 0.950 . S
C1096 C1091 1.363 . S
C1096 C1095 1.415 . S
C1097 H1073 0.951 . S
C1097 C1098 1.366 . S
C1097 C1099 1.388 . S
C1098 C1097 1.366 . S
C1098 C1102 1.385 . S
C1099 H1074 0.951 . S
C1099 C1097 1.388 . S
C1099 C1100 1.366 . S
C1100 C1099 1.366 . S
C1100 C1101 1.414 . S
C1100 C1103 1.499 . S
C1101 H1075 0.950 . S
C1101 C1100 1.414 . S
C1101 C1102 1.374 . S
C1102 H1076 0.950 . S
C1102 C1098 1.385 . S
C1102 C1101 1.374 . S
C1103 C1100 1.499 . S
C1103 C1104 1.373 . S
C1103 C1105 1.389 . S
C1104 H1077 0.950 . S
C1104 C1090 1.377 . S
C1104 C1103 1.373 . S
C1105 C1089 1.377 . S
C1105 C1103 1.389 . S
C1105 C1106 1.524 . S
C1106 C1105 1.524 . S
C1106 C1107 1.397 . S
C1106 C1111 1.363 . S
C1107 H1078 0.950 . S
C1107 C1106 1.397 . S
C1107 C1108 1.334 . S
C1108 H1079 0.950 . S
C1108 C1107 1.334 . S
C1108 C1109 1.287 . S
C1109 C1108 1.287 . S
C1109 C1110 1.524 . S
C1109 H1112 0.999 . S
C1110 H1080 0.950 . S
C1110 C1109 1.524 . S
C1110 C1111 1.415 . S
C1111 H1081 0.950 . S
C1111 C1106 1.363 . S
C1111 C1110 1.415 . S
H1112 C1109 0.999 . S
H1113 C1094 0.913 . S
H1114 C1132 0.951 . S
H1115 C1134 0.951 . S
H1116 C1136 0.950 . S
H1117 C1137 0.950 . S
H1118 C1139 0.950 . S
H1119 C1142 0.950 . S
H1120 C1143 0.950 . S
H1121 C1145 0.950 . S
H1122 C1146 0.950 . S
H1123 C1147 0.951 . S
H1124 C1149 0.951 . S
H1125 C1151 0.950 . S
H1126 C1152 0.950 . S
H1127 C1154 0.950 . S
H1128 C1157 0.950 . S
H1129 C1158 0.950 . S
H1130 C1160 0.950 . S
H1131 C1161 0.950 . S
C1132 H1114 0.951 . S
C1132 C1133 1.366 . S
C1132 C1134 1.388 . S
C1133 C1132 1.366 . S
C1133 C1137 1.385 . S
C1134 H1115 0.951 . S
C1134 C1132 1.388 . S
C1134 C1135 1.366 . S
C1135 C1134 1.366 . S
C1135 C1136 1.414 . S
C1135 C1138 1.499 . S
C1136 H1116 0.950 . S
C1136 C1135 1.414 . S
C1136 C1137 1.374 . S
C1137 H1117 0.950 . S
C1137 C1133 1.385 . S
C1137 C1136 1.374 . S
C1138 C1135 1.499 . S
C1138 C1139 1.373 . S
C1138 C1140 1.389 . S
C1139 H1118 0.950 . S
C1139 C1138 1.373 . S
C1139 C1155 1.377 . S
C1140 C1138 1.389 . S
C1140 C1141 1.524 . S
C1140 C1154 1.377 . S
C1141 C1140 1.524 . S
C1141 C1142 1.397 . S
C1141 C1146 1.363 . S
C1142 H1119 0.950 . S
C1142 C1141 1.397 . S
C1142 C1143 1.334 . S
C1143 H1120 0.950 . S
C1143 C1142 1.334 . S
C1143 C1144 1.287 . S
C1144 C1143 1.287 . S
C1144 C1145 1.524 . S
C1144 H1163 0.913 . S
C1145 H1121 0.950 . S
C1145 C1144 1.524 . S
C1145 C1146 1.415 . S
C1146 H1122 0.950 . S
C1146 C1141 1.363 . S
C1146 C1145 1.415 . S
C1147 H1123 0.951 . S
C1147 C1148 1.366 . S
C1147 C1149 1.388 . S
C1148 C1147 1.366 . S
C1148 C1152 1.385 . S
C1149 H1124 0.951 . S
C1149 C1147 1.388 . S
C1149 C1150 1.366 . S
C1150 C1149 1.366 . S
C1150 C1151 1.414 . S
C1150 C1153 1.499 . S
C1151 H1125 0.950 . S
C1151 C1150 1.414 . S
C1151 C1152 1.374 . S
C1152 H1126 0.950 . S
C1152 C1148 1.385 . S
C1152 C1151 1.374 . S
C1153 C1150 1.499 . S
C1153 C1154 1.373 . S
C1153 C1155 1.389 . S
C1154 H1127 0.950 . S
C1154 C1140 1.377 . S
C1154 C1153 1.373 . S
C1155 C1139 1.377 . S
C1155 C1153 1.389 . S
C1155 C1156 1.524 . S
C1156 C1155 1.524 . S
C1156 C1157 1.397 . S
C1156 C1161 1.363 . S
C1157 H1128 0.950 . S
C1157 C1156 1.397 . S
C1157 C1158 1.334 . S
C1158 H1129 0.950 . S
C1158 C1157 1.334 . S
C1158 C1159 1.287 . S
C1159 C1158 1.287 . S
C1159 C1160 1.524 . S
C1159 H1162 0.999 . S
C1160 H1130 0.950 . S
C1160 C1159 1.524 . S
C1160 C1161 1.415 . S
C1161 H1131 0.950 . S
C1161 C1156 1.363 . S
C1161 C1160 1.415 . S
H1162 C1159 0.999 . S
H1163 C1144 0.913 . S
H1164 C1182 0.951 . S
H1165 C1184 0.951 . S
H1166 C1186 0.950 . S
H1167 C1187 0.950 . S
H1168 C1189 0.950 . S
H1169 C1192 0.950 . S
H1170 C1193 0.950 . S
H1171 C1195 0.950 . S
H1172 C1196 0.950 . S
H1173 C1197 0.951 . S
H1174 C1199 0.951 . S
H1175 C1201 0.950 . S
H1176 C1202 0.950 . S
H1177 C1204 0.950 . S
H1178 C1207 0.950 . S
H1179 C1208 0.950 1_554 S
H1180 C1210 0.950 . S
H1181 C1211 0.950 . S
C1182 H1164 0.951 . S
C1182 C1183 1.366 . S
C1182 C1184 1.388 . S
C1183 C1182 1.366 . S
C1183 C1187 1.385 . S
C1184 H1165 0.951 . S
C1184 C1182 1.388 . S
C1184 C1185 1.366 . S
C1185 C1184 1.366 . S
C1185 C1186 1.414 . S
C1185 C1188 1.499 . S
C1186 H1166 0.950 . S
C1186 C1185 1.414 . S
C1186 C1187 1.374 . S
C1187 H1167 0.950 . S
C1187 C1183 1.385 . S
C1187 C1186 1.374 . S
C1188 C1185 1.499 . S
C1188 C1189 1.373 . S
C1188 C1190 1.389 . S
C1189 H1168 0.950 . S
C1189 C1188 1.373 . S
C1189 C1205 1.377 . S
C1190 C1188 1.389 . S
C1190 C1191 1.524 . S
C1190 C1204 1.377 . S
C1191 C1190 1.524 . S
C1191 C1192 1.397 . S
C1191 C1196 1.363 . S
C1192 H1169 0.950 . S
C1192 C1191 1.397 . S
C1192 C1193 1.334 . S
C1193 H1170 0.950 . S
C1193 C1192 1.334 . S
C1193 C1194 1.287 . S
C1194 C1193 1.287 . S
C1194 C1195 1.524 . S
C1194 H1213 0.913 . S
C1195 H1171 0.950 . S
C1195 C1194 1.524 . S
C1195 C1196 1.415 . S
C1196 H1172 0.950 . S
C1196 C1191 1.363 . S
C1196 C1195 1.415 . S
C1197 H1173 0.951 . S
C1197 C1198 1.366 . S
C1197 C1199 1.388 . S
C1198 C1197 1.366 . S
C1198 C1202 1.385 . S
C1199 H1174 0.951 . S
C1199 C1197 1.388 . S
C1199 C1200 1.366 . S
C1200 C1199 1.366 . S
C1200 C1201 1.414 . S
C1200 C1203 1.499 . S
C1201 H1175 0.950 . S
C1201 C1200 1.414 . S
C1201 C1202 1.374 . S
C1202 H1176 0.950 . S
C1202 C1198 1.385 . S
C1202 C1201 1.374 . S
C1203 C1200 1.499 . S
C1203 C1204 1.373 . S
C1203 C1205 1.389 . S
C1204 H1177 0.950 . S
C1204 C1190 1.377 . S
C1204 C1203 1.373 . S
C1205 C1189 1.377 . S
C1205 C1203 1.389 . S
C1205 C1206 1.524 . S
C1206 C1205 1.524 . S
C1206 C1207 1.397 . S
C1206 C1211 1.363 . S
C1207 H1178 0.950 . S
C1207 C1206 1.397 . S
C1207 C1208 1.334 . S
C1208 H1179 0.950 1_556 S
C1208 C1207 1.334 . S
C1208 C1209 1.287 . S
C1209 C1208 1.287 . S
C1209 C1210 1.524 . S
C1209 H1212 0.999 . S
C1210 H1180 0.950 . S
C1210 C1209 1.524 . S
C1210 C1211 1.415 . S
C1211 H1181 0.950 . S
C1211 C1206 1.363 . S
C1211 C1210 1.415 . S
H1212 C1209 0.999 . S
H1213 C1194 0.913 . S
H1214 C1232 0.951 1_565 S
H1215 C1234 0.951 . S
H1216 C1236 0.950 . S
H1217 C1237 0.950 . S
H1218 C1239 0.985 . S
H1219 C1242 0.950 . S
H1220 C1243 0.950 . S
H1221 C1245 0.979 . S
H1222 C1246 0.950 . S
H1223 C1247 0.951 . S
H1224 C1249 0.951 . S
H1225 C1251 0.950 . S
H1226 C1252 0.950 . S
H1227 C1254 0.950 . S
H1228 C1257 0.950 . S
H1229 C1258 0.950 . S
H1230 C1260 0.958 . S
H1231 C1261 0.950 1_545 S
C1232 H1214 0.951 1_545 S
C1232 C1233 1.366 . S
C1232 C1234 1.388 1_645 S
C1233 C1232 1.366 . S
C1233 C1237 1.385 1_655 S
C1234 H1215 0.951 . S
C1234 C1232 1.388 1_465 S
C1234 C1235 1.385 . S
C1235 C1234 1.385 . S
C1235 C1236 1.360 1_565 S
C1235 C1238 1.533 . S
C1236 H1216 0.950 . S
C1236 C1235 1.360 1_545 S
C1236 C1237 1.374 . S
C1237 H1217 0.950 . S
C1237 C1233 1.385 1_455 S
C1237 C1236 1.374 . S
C1238 C1235 1.533 . S
C1238 C1239 1.373 . S
C1238 C1240 1.389 . S
C1239 H1218 0.985 . S
C1239 C1238 1.373 . S
C1239 C1255 1.377 . S
C1240 C1238 1.389 . S
C1240 C1241 1.524 . S
C1240 C1254 1.377 . S
C1241 C1240 1.524 . S
C1241 C1242 1.397 . S
C1241 C1246 1.363 . S
C1242 H1219 0.950 . S
C1242 C1241 1.397 . S
C1242 C1243 1.334 . S
C1243 H1220 0.950 . S
C1243 C1242 1.334 . S
C1243 C1244 1.287 . S
C1244 C1243 1.287 . S
C1244 C1245 1.524 . S
C1244 H1263 0.913 1_455 S
C1245 H1221 0.979 . S
C1245 C1244 1.524 . S
C1245 C1246 1.415 . S
C1246 H1222 0.950 . S
C1246 C1241 1.363 . S
C1246 C1245 1.415 . S
C1247 H1223 0.951 . S
C1247 C1248 1.366 . S
C1247 C1249 1.388 . S
C1248 C1247 1.366 . S
C1248 C1252 1.385 . S
C1249 H1224 0.951 . S
C1249 C1247 1.388 . S
C1249 C1250 1.366 . S
C1250 C1249 1.366 . S
C1250 C1251 1.414 . S
C1250 C1253 1.499 . S
C1251 H1225 0.950 . S
C1251 C1250 1.414 . S
C1251 C1252 1.374 . S
C1252 H1226 0.950 . S
C1252 C1248 1.385 . S
C1252 C1251 1.374 . S
C1253 C1250 1.499 . S
C1253 C1254 1.373 . S
C1253 C1255 1.389 . S
C1254 H1227 0.950 . S
C1254 C1240 1.377 . S
C1254 C1253 1.373 . S
C1255 C1239 1.377 . S
C1255 C1253 1.389 . S
C1255 C1256 1.524 . S
C1256 C1255 1.524 . S
C1256 C1257 1.397 . S
C1256 C1261 1.363 . S
C1257 H1228 0.950 . S
C1257 C1256 1.397 . S
C1257 C1258 1.334 . S
C1258 H1229 0.950 . S
C1258 C1257 1.334 . S
C1258 C1259 1.287 . S
C1259 C1258 1.287 . S
C1259 C1260 1.515 1_565 S
C1259 H1262 0.999 . S
C1260 H1230 0.958 . S
C1260 C1259 1.515 1_545 S
C1260 C1261 1.414 1_545 S
C1261 H1231 0.950 1_565 S
C1261 C1256 1.363 . S
C1261 C1260 1.414 1_565 S
H1262 C1259 0.999 . S
H1263 C1244 0.913 1_655 S
H1264 C1282 0.951 . S
H1265 C1284 0.951 . S
H1266 C1286 0.950 . S
H1267 C1287 0.950 . S
H1268 C1289 0.950 . S
H1269 C1292 0.950 . S
H1270 C1293 0.950 . S
H1271 C1295 0.950 . S
H1272 C1296 0.950 . S
H1273 C1297 0.951 . S
H1274 C1299 0.951 . S
H1275 C1301 0.950 . S
H1276 C1302 0.950 . S
H1277 C1304 0.950 . S
H1278 C1307 0.950 . S
H1279 C1308 0.950 . S
H1280 C1310 0.950 . S
H1281 C1311 0.950 . S
C1282 H1264 0.951 . S
C1282 C1283 1.366 . S
C1282 C1284 1.388 . S
C1283 C1282 1.366 . S
C1283 C1287 1.385 . S
C1284 H1265 0.951 . S
C1284 C1282 1.388 . S
C1284 C1285 1.366 . S
C1285 C1284 1.366 . S
C1285 C1286 1.414 . S
C1285 C1288 1.499 . S
C1286 H1266 0.950 . S
C1286 C1285 1.414 . S
C1286 C1287 1.374 . S
C1287 H1267 0.950 . S
C1287 C1283 1.385 . S
C1287 C1286 1.374 . S
C1288 C1285 1.499 . S
C1288 C1289 1.373 . S
C1288 C1290 1.389 . S
C1289 H1268 0.950 . S
C1289 C1288 1.373 . S
C1289 C1305 1.377 . S
C1290 C1288 1.389 . S
C1290 C1291 1.524 . S
C1290 C1304 1.377 . S
C1291 C1290 1.524 . S
C1291 C1292 1.397 . S
C1291 C1296 1.363 . S
C1292 H1269 0.950 . S
C1292 C1291 1.397 . S
C1292 C1293 1.334 . S
C1293 H1270 0.950 . S
C1293 C1292 1.334 . S
C1293 C1294 1.287 . S
C1294 C1293 1.287 . S
C1294 C1295 1.524 . S
C1294 H1313 0.913 . S
C1295 H1271 0.950 . S
C1295 C1294 1.524 . S
C1295 C1296 1.415 . S
C1296 H1272 0.950 . S
C1296 C1291 1.363 . S
C1296 C1295 1.415 . S
C1297 H1273 0.951 . S
C1297 C1298 1.366 . S
C1297 C1299 1.388 . S
C1298 C1297 1.366 . S
C1298 C1302 1.385 . S
C1299 H1274 0.951 . S
C1299 C1297 1.388 . S
C1299 C1300 1.366 . S
C1300 C1299 1.366 . S
C1300 C1301 1.414 . S
C1300 C1303 1.499 . S
C1301 H1275 0.950 . S
C1301 C1300 1.414 . S
C1301 C1302 1.374 . S
C1302 H1276 0.950 . S
C1302 C1298 1.385 . S
C1302 C1301 1.374 . S
C1303 C1300 1.499 . S
C1303 C1304 1.373 . S
C1303 C1305 1.389 . S
C1304 H1277 0.950 . S
C1304 C1290 1.377 . S
C1304 C1303 1.373 . S
C1305 C1289 1.377 . S
C1305 C1303 1.389 . S
C1305 C1306 1.524 . S
C1306 C1305 1.524 . S
C1306 C1307 1.397 . S
C1306 C1311 1.363 . S
C1307 H1278 0.950 . S
C1307 C1306 1.397 . S
C1307 C1308 1.334 . S
C1308 H1279 0.950 . S
C1308 C1307 1.334 . S
C1308 C1309 1.287 . S
C1309 C1308 1.287 . S
C1309 C1310 1.524 . S
C1309 H1312 0.999 . S
C1310 H1280 0.950 . S
C1310 C1309 1.524 . S
C1310 C1311 1.415 . S
C1311 H1281 0.950 . S
C1311 C1306 1.363 . S
C1311 C1310 1.415 . S
H1312 C1309 0.999 . S
H1313 C1294 0.913 . S
H1314 C1332 0.951 . S
H1315 C1334 0.951 . S
H1316 C1336 0.950 . S
H1317 C1337 0.950 . S
H1318 C1339 0.950 . S
H1319 C1342 0.950 . S
H1320 C1343 0.950 . S
H1321 C1345 0.950 . S
H1322 C1346 0.950 . S
H1323 C1347 0.951 . S
H1324 C1349 0.951 . S
H1325 C1351 0.950 . S
H1326 C1352 0.950 . S
H1327 C1354 0.950 . S
H1328 C1357 0.950 . S
H1329 C1358 0.950 . S
H1330 C1360 0.950 . S
H1331 C1361 0.950 . S
C1332 H1314 0.951 . S
C1332 C1333 1.366 . S
C1332 C1334 1.388 . S
C1333 C1332 1.366 . S
C1333 C1337 1.385 . S
C1334 H1315 0.951 . S
C1334 C1332 1.388 . S
C1334 C1335 1.366 . S
C1335 C1334 1.366 . S
C1335 C1336 1.414 . S
C1335 C1338 1.499 . S
C1336 H1316 0.950 . S
C1336 C1335 1.414 . S
C1336 C1337 1.374 . S
C1337 H1317 0.950 . S
C1337 C1333 1.385 . S
C1337 C1336 1.374 . S
C1338 C1335 1.499 . S
C1338 C1339 1.373 . S
C1338 C1340 1.389 . S
C1339 H1318 0.950 . S
C1339 C1338 1.373 . S
C1339 C1355 1.377 . S
C1340 C1338 1.389 . S
C1340 C1341 1.524 . S
C1340 C1354 1.377 . S
C1341 C1340 1.524 . S
C1341 C1342 1.397 . S
C1341 C1346 1.363 . S
C1342 H1319 0.950 . S
C1342 C1341 1.397 . S
C1342 C1343 1.334 . S
C1343 H1320 0.950 . S
C1343 C1342 1.334 . S
C1343 C1344 1.287 . S
C1344 C1343 1.287 . S
C1344 C1345 1.524 . S
C1344 H1363 0.913 . S
C1345 H1321 0.950 . S
C1345 C1344 1.524 . S
C1345 C1346 1.415 . S
C1346 H1322 0.950 . S
C1346 C1341 1.363 . S
C1346 C1345 1.415 . S
C1347 H1323 0.951 . S
C1347 C1348 1.366 . S
C1347 C1349 1.388 . S
C1348 C1347 1.366 . S
C1348 C1352 1.385 . S
C1349 H1324 0.951 . S
C1349 C1347 1.388 . S
C1349 C1350 1.366 . S
C1350 C1349 1.366 . S
C1350 C1351 1.414 . S
C1350 C1353 1.499 . S
C1351 H1325 0.950 . S
C1351 C1350 1.414 . S
C1351 C1352 1.374 . S
C1352 H1326 0.950 . S
C1352 C1348 1.385 . S
C1352 C1351 1.374 . S
C1353 C1350 1.499 . S
C1353 C1354 1.373 . S
C1353 C1355 1.389 . S
C1354 H1327 0.950 . S
C1354 C1340 1.377 . S
C1354 C1353 1.373 . S
C1355 C1339 1.377 . S
C1355 C1353 1.389 . S
C1355 C1356 1.524 . S
C1356 C1355 1.524 . S
C1356 C1357 1.397 . S
C1356 C1361 1.363 . S
C1357 H1328 0.950 . S
C1357 C1356 1.397 . S
C1357 C1358 1.334 . S
C1358 H1329 0.950 . S
C1358 C1357 1.334 . S
C1358 C1359 1.287 . S
C1359 C1358 1.287 . S
C1359 C1360 1.524 . S
C1359 H1362 0.999 . S
C1360 H1330 0.950 . S
C1360 C1359 1.524 . S
C1360 C1361 1.415 . S
C1361 H1331 0.950 . S
C1361 C1356 1.363 . S
C1361 C1360 1.415 . S
H1362 C1359 0.999 . S
H1363 C1344 0.913 . S
H1364 C1382 0.951 . S
H1365 C1384 0.951 . S
H1366 C1386 0.950 . S
H1367 C1387 0.950 . S
H1368 C1389 0.950 . S
H1369 C1392 0.950 . S
H1370 C1393 0.950 . S
H1371 C1395 0.950 . S
H1372 C1396 0.950 . S
H1373 C1397 0.951 . S
H1374 C1399 0.951 . S
H1375 C1401 0.950 . S
H1376 C1402 0.950 . S
H1377 C1404 0.950 . S
H1378 C1407 0.950 . S
H1379 C1408 0.950 . S
H1380 C1410 0.950 . S
H1381 C1411 0.950 . S
C1382 H1364 0.951 . S
C1382 C1383 1.366 . S
C1382 C1384 1.388 . S
C1383 C1382 1.366 . S
C1383 C1387 1.385 . S
C1384 H1365 0.951 . S
C1384 C1382 1.388 . S
C1384 C1385 1.366 . S
C1385 C1384 1.366 . S
C1385 C1386 1.414 . S
C1385 C1388 1.499 . S
C1386 H1366 0.950 . S
C1386 C1385 1.414 . S
C1386 C1387 1.374 . S
C1387 H1367 0.950 . S
C1387 C1383 1.385 . S
C1387 C1386 1.374 . S
C1388 C1385 1.499 . S
C1388 C1389 1.373 . S
C1388 C1390 1.389 . S
C1389 H1368 0.950 . S
C1389 C1388 1.373 . S
C1389 C1405 1.377 . S
C1390 C1388 1.389 . S
C1390 C1391 1.524 . S
C1390 C1404 1.377 . S
C1391 C1390 1.524 . S
C1391 C1392 1.397 . S
C1391 C1396 1.363 . S
C1392 H1369 0.950 . S
C1392 C1391 1.397 . S
C1392 C1393 1.334 . S
C1393 H1370 0.950 . S
C1393 C1392 1.334 . S
C1393 C1394 1.287 . S
C1394 C1393 1.287 . S
C1394 C1395 1.524 . S
C1394 H1413 0.913 . S
C1395 H1371 0.950 . S
C1395 C1394 1.524 . S
C1395 C1396 1.415 . S
C1396 H1372 0.950 . S
C1396 C1391 1.363 . S
C1396 C1395 1.415 . S
C1397 H1373 0.951 . S
C1397 C1398 1.366 . S
C1397 C1399 1.388 . S
C1398 C1397 1.366 . S
C1398 C1402 1.385 . S
C1399 H1374 0.951 . S
C1399 C1397 1.388 . S
C1399 C1400 1.366 . S
C1400 C1399 1.366 . S
C1400 C1401 1.414 . S
C1400 C1403 1.499 . S
C1401 H1375 0.950 . S
C1401 C1400 1.414 . S
C1401 C1402 1.374 . S
C1402 H1376 0.950 . S
C1402 C1398 1.385 . S
C1402 C1401 1.374 . S
C1403 C1400 1.499 . S
C1403 C1404 1.373 . S
C1403 C1405 1.389 . S
C1404 H1377 0.950 . S
C1404 C1390 1.377 . S
C1404 C1403 1.373 . S
C1405 C1389 1.377 . S
C1405 C1403 1.389 . S
C1405 C1406 1.524 . S
C1406 C1405 1.524 . S
C1406 C1407 1.397 . S
C1406 C1411 1.363 . S
C1407 H1378 0.950 . S
C1407 C1406 1.397 . S
C1407 C1408 1.334 . S
C1408 H1379 0.950 . S
C1408 C1407 1.334 . S
C1408 C1409 1.287 . S
C1409 C1408 1.287 . S
C1409 C1410 1.524 . S
C1409 H1412 0.999 . S
C1410 H1380 0.950 . S
C1410 C1409 1.524 . S
C1410 C1411 1.415 . S
C1411 H1381 0.950 . S
C1411 C1406 1.363 . S
C1411 C1410 1.415 . S
H1412 C1409 0.999 . S
H1413 C1394 0.913 . S
H1414 C1432 0.951 . S
H1415 C1434 0.951 . S
H1416 C1436 0.950 . S
H1417 C1437 0.950 . S
H1418 C1439 0.950 . S
H1419 C1442 0.950 . S
H1420 C1443 0.950 . S
H1421 C1445 0.950 . S
H1422 C1446 0.950 . S
H1423 C1447 0.951 . S
H1424 C1449 0.951 . S
H1425 C1451 0.950 . S
H1426 C1452 0.950 . S
H1427 C1454 0.950 . S
H1428 C1457 0.950 . S
H1429 C1458 0.950 . S
H1430 C1460 0.950 . S
H1431 C1461 0.950 . S
C1432 H1414 0.951 . S
C1432 C1433 1.366 . S
C1432 C1434 1.388 . S
C1433 C1432 1.366 . S
C1433 C1437 1.385 . S
C1434 H1415 0.951 . S
C1434 C1432 1.388 . S
C1434 C1435 1.366 . S
C1435 C1434 1.366 . S
C1435 C1436 1.414 . S
C1435 C1438 1.499 . S
C1436 H1416 0.950 . S
C1436 C1435 1.414 . S
C1436 C1437 1.374 . S
C1437 H1417 0.950 . S
C1437 C1433 1.385 . S
C1437 C1436 1.374 . S
C1438 C1435 1.499 . S
C1438 C1439 1.373 . S
C1438 C1440 1.389 . S
C1439 H1418 0.950 . S
C1439 C1438 1.373 . S
C1439 C1455 1.377 . S
C1440 C1438 1.389 . S
C1440 C1441 1.524 . S
C1440 C1454 1.377 . S
C1441 C1440 1.524 . S
C1441 C1442 1.397 . S
C1441 C1446 1.363 . S
C1442 H1419 0.950 . S
C1442 C1441 1.397 . S
C1442 C1443 1.334 . S
C1443 H1420 0.950 . S
C1443 C1442 1.334 . S
C1443 C1444 1.287 . S
C1444 C1443 1.287 . S
C1444 C1445 1.524 . S
C1444 H1463 0.913 . S
C1445 H1421 0.950 . S
C1445 C1444 1.524 . S
C1445 C1446 1.415 . S
C1446 H1422 0.950 . S
C1446 C1441 1.363 . S
C1446 C1445 1.415 . S
C1447 H1423 0.951 . S
C1447 C1448 1.366 . S
C1447 C1449 1.388 . S
C1448 C1447 1.366 . S
C1448 C1452 1.385 . S
C1449 H1424 0.951 . S
C1449 C1447 1.388 . S
C1449 C1450 1.366 . S
C1450 C1449 1.366 . S
C1450 C1451 1.414 . S
C1450 C1453 1.499 . S
C1451 H1425 0.950 . S
C1451 C1450 1.414 . S
C1451 C1452 1.374 . S
C1452 H1426 0.950 . S
C1452 C1448 1.385 . S
C1452 C1451 1.374 . S
C1453 C1450 1.499 . S
C1453 C1454 1.373 . S
C1453 C1455 1.389 . S
C1454 H1427 0.950 . S
C1454 C1440 1.377 . S
C1454 C1453 1.373 . S
C1455 C1439 1.377 . S
C1455 C1453 1.389 . S
C1455 C1456 1.524 . S
C1456 C1455 1.524 . S
C1456 C1457 1.397 . S
C1456 C1461 1.363 . S
C1457 H1428 0.950 . S
C1457 C1456 1.397 . S
C1457 C1458 1.334 . S
C1458 H1429 0.950 . S
C1458 C1457 1.334 . S
C1458 C1459 1.287 . S
C1459 C1458 1.287 . S
C1459 C1460 1.524 . S
C1459 H1462 0.999 . S
C1460 H1430 0.950 . S
C1460 C1459 1.524 . S
C1460 C1461 1.415 . S
C1461 H1431 0.950 . S
C1461 C1456 1.363 . S
C1461 C1460 1.415 . S
H1462 C1459 0.999 . S
H1463 C1444 0.913 . S
H1464 C1482 0.951 . S
H1465 C1484 0.951 . S
H1466 C1486 0.950 . S
H1467 C1487 0.950 . S
H1468 C1489 0.950 . S
H1469 C1492 0.950 . S
H1470 C1493 0.950 . S
H1471 C1495 0.950 . S
H1472 C1496 0.950 . S
H1473 C1497 0.951 . S
H1474 C1499 0.951 . S
H1475 C1501 0.950 . S
H1476 C1502 0.950 . S
H1477 C1504 0.950 . S
H1478 C1507 0.950 . S
H1479 C1508 0.950 . S
H1480 C1510 0.950 . S
H1481 C1511 0.950 . S
C1482 H1464 0.951 . S
C1482 C1483 1.366 . S
C1482 C1484 1.388 . S
C1483 C1482 1.366 . S
C1483 C1487 1.385 . S
C1484 H1465 0.951 . S
C1484 C1482 1.388 . S
C1484 C1485 1.366 . S
C1485 C1484 1.366 . S
C1485 C1486 1.414 . S
C1485 C1488 1.499 . S
C1486 H1466 0.950 . S
C1486 C1485 1.414 . S
C1486 C1487 1.374 . S
C1487 H1467 0.950 . S
C1487 C1483 1.385 . S
C1487 C1486 1.374 . S
C1488 C1485 1.499 . S
C1488 C1489 1.373 . S
C1488 C1490 1.389 . S
C1489 H1468 0.950 . S
C1489 C1488 1.373 . S
C1489 C1505 1.377 . S
C1490 C1488 1.389 . S
C1490 C1491 1.524 . S
C1490 C1504 1.377 . S
C1491 C1490 1.524 . S
C1491 C1492 1.397 . S
C1491 C1496 1.363 . S
C1492 H1469 0.950 . S
C1492 C1491 1.397 . S
C1492 C1493 1.334 . S
C1493 H1470 0.950 . S
C1493 C1492 1.334 . S
C1493 C1494 1.287 . S
C1494 C1493 1.287 . S
C1494 C1495 1.524 . S
C1494 H1513 0.913 . S
C1495 H1471 0.950 . S
C1495 C1494 1.524 . S
C1495 C1496 1.415 . S
C1496 H1472 0.950 . S
C1496 C1491 1.363 . S
C1496 C1495 1.415 . S
C1497 H1473 0.951 . S
C1497 C1498 1.366 . S
C1497 C1499 1.388 . S
C1498 C1497 1.366 . S
C1498 C1502 1.385 . S
C1499 H1474 0.951 . S
C1499 C1497 1.388 . S
C1499 C1500 1.366 . S
C1500 C1499 1.366 . S
C1500 C1501 1.414 . S
C1500 C1503 1.499 . S
C1501 H1475 0.950 . S
C1501 C1500 1.414 . S
C1501 C1502 1.374 . S
C1502 H1476 0.950 . S
C1502 C1498 1.385 . S
C1502 C1501 1.374 . S
C1503 C1500 1.499 . S
C1503 C1504 1.373 . S
C1503 C1505 1.389 . S
C1504 H1477 0.950 . S
C1504 C1490 1.377 . S
C1504 C1503 1.373 . S
C1505 C1489 1.377 . S
C1505 C1503 1.389 . S
C1505 C1506 1.524 . S
C1506 C1505 1.524 . S
C1506 C1507 1.397 . S
C1506 C1511 1.363 . S
C1507 H1478 0.950 . S
C1507 C1506 1.397 . S
C1507 C1508 1.334 . S
C1508 H1479 0.950 . S
C1508 C1507 1.334 . S
C1508 C1509 1.287 . S
C1509 C1508 1.287 . S
C1509 C1510 1.524 . S
C1509 H1512 0.999 . S
C1510 H1480 0.950 . S
C1510 C1509 1.524 . S
C1510 C1511 1.415 . S
C1511 H1481 0.950 . S
C1511 C1506 1.363 . S
C1511 C1510 1.415 . S
H1512 C1509 0.999 . S
H1513 C1494 0.913 . S
H1514 C1532 0.951 . S
H1515 C1534 0.951 . S
H1516 C1536 0.950 . S
H1517 C1537 0.950 . S
H1518 C1539 0.950 . S
H1519 C1542 0.950 . S
H1520 C1543 0.950 . S
H1521 C1545 0.950 . S
H1522 C1546 0.950 . S
H1523 C1547 0.951 . S
H1524 C1549 0.951 . S
H1525 C1551 0.950 . S
H1526 C1552 0.950 . S
H1527 C1554 0.950 . S
H1528 C1557 0.950 . S
H1529 C1558 0.950 . S
H1530 C1560 0.950 . S
H1531 C1561 0.950 . S
C1532 H1514 0.951 . S
C1532 C1533 1.366 . S
C1532 C1534 1.388 . S
C1533 C1532 1.366 . S
C1533 C1537 1.385 . S
C1534 H1515 0.951 . S
C1534 C1532 1.388 . S
C1534 C1535 1.366 . S
C1535 C1534 1.366 . S
C1535 C1536 1.414 . S
C1535 C1538 1.499 . S
C1536 H1516 0.950 . S
C1536 C1535 1.414 . S
C1536 C1537 1.374 . S
C1537 H1517 0.950 . S
C1537 C1533 1.385 . S
C1537 C1536 1.374 . S
C1538 C1535 1.499 . S
C1538 C1539 1.373 . S
C1538 C1540 1.389 . S
C1539 H1518 0.950 . S
C1539 C1538 1.373 . S
C1539 C1555 1.377 . S
C1540 C1538 1.389 . S
C1540 C1541 1.524 . S
C1540 C1554 1.377 . S
C1541 C1540 1.524 . S
C1541 C1542 1.397 . S
C1541 C1546 1.363 . S
C1542 H1519 0.950 . S
C1542 C1541 1.397 . S
C1542 C1543 1.334 . S
C1543 H1520 0.950 . S
C1543 C1542 1.334 . S
C1543 C1544 1.287 . S
C1544 C1543 1.287 . S
C1544 C1545 1.524 . S
C1544 H1563 0.913 . S
C1545 H1521 0.950 . S
C1545 C1544 1.524 . S
C1545 C1546 1.415 . S
C1546 H1522 0.950 . S
C1546 C1541 1.363 . S
C1546 C1545 1.415 . S
C1547 H1523 0.951 . S
C1547 C1548 1.366 . S
C1547 C1549 1.388 . S
C1548 C1547 1.366 . S
C1548 C1552 1.385 . S
C1549 H1524 0.951 . S
C1549 C1547 1.388 . S
C1549 C1550 1.366 . S
C1550 C1549 1.366 . S
C1550 C1551 1.414 . S
C1550 C1553 1.499 . S
C1551 H1525 0.950 . S
C1551 C1550 1.414 . S
C1551 C1552 1.374 . S
C1552 H1526 0.950 . S
C1552 C1548 1.385 . S
C1552 C1551 1.374 . S
C1553 C1550 1.499 . S
C1553 C1554 1.373 . S
C1553 C1555 1.389 . S
C1554 H1527 0.950 . S
C1554 C1540 1.377 . S
C1554 C1553 1.373 . S
C1555 C1539 1.377 . S
C1555 C1553 1.389 . S
C1555 C1556 1.524 . S
C1556 C1555 1.524 . S
C1556 C1557 1.397 . S
C1556 C1561 1.363 . S
C1557 H1528 0.950 . S
C1557 C1556 1.397 . S
C1557 C1558 1.334 . S
C1558 H1529 0.950 . S
C1558 C1557 1.334 . S
C1558 C1559 1.287 . S
C1559 C1558 1.287 . S
C1559 C1560 1.524 . S
C1559 H1562 0.999 . S
C1560 H1530 0.950 . S
C1560 C1559 1.524 . S
C1560 C1561 1.415 . S
C1561 H1531 0.950 . S
C1561 C1556 1.363 . S
C1561 C1560 1.415 . S
H1562 C1559 0.999 . S
H1563 C1544 0.913 . S
H1564 C1582 0.951 . S
H1565 C1584 0.951 . S
H1566 C1586 0.950 . S
H1567 C1587 0.950 . S
H1568 C1589 0.950 . S
H1569 C1592 0.950 . S
H1570 C1593 0.950 . S
H1571 C1595 0.950 . S
H1572 C1596 0.950 . S
H1573 C1597 0.951 . S
H1574 C1599 0.951 . S
H1575 C1601 0.950 . S
H1576 C1602 0.950 . S
H1577 C1604 0.950 . S
H1578 C1607 0.950 . S
H1579 C1608 0.950 . S
H1580 C1610 0.950 . S
H1581 C1611 0.950 . S
C1582 H1564 0.951 . S
C1582 C1583 1.366 . S
C1582 C1584 1.388 . S
C1583 C1582 1.366 . S
C1583 C1587 1.385 . S
C1584 H1565 0.951 . S
C1584 C1582 1.388 . S
C1584 C1585 1.366 . S
C1585 C1584 1.366 . S
C1585 C1586 1.414 . S
C1585 C1588 1.499 . S
C1586 H1566 0.950 . S
C1586 C1585 1.414 . S
C1586 C1587 1.374 . S
C1587 H1567 0.950 . S
C1587 C1583 1.385 . S
C1587 C1586 1.374 . S
C1588 C1585 1.499 . S
C1588 C1589 1.373 . S
C1588 C1590 1.389 . S
C1589 H1568 0.950 . S
C1589 C1588 1.373 . S
C1589 C1605 1.377 . S
C1590 C1588 1.389 . S
C1590 C1591 1.524 . S
C1590 C1604 1.377 . S
C1591 C1590 1.524 . S
C1591 C1592 1.397 . S
C1591 C1596 1.363 . S
C1592 H1569 0.950 . S
C1592 C1591 1.397 . S
C1592 C1593 1.334 . S
C1593 H1570 0.950 . S
C1593 C1592 1.334 . S
C1593 C1594 1.287 . S
C1594 C1593 1.287 . S
C1594 C1595 1.524 . S
C1594 H1613 0.913 . S
C1595 H1571 0.950 . S
C1595 C1594 1.524 . S
C1595 C1596 1.415 . S
C1596 H1572 0.950 . S
C1596 C1591 1.363 . S
C1596 C1595 1.415 . S
C1597 H1573 0.951 . S
C1597 C1598 1.366 . S
C1597 C1599 1.388 . S
C1598 C1597 1.366 . S
C1598 C1602 1.385 . S
C1599 H1574 0.951 . S
C1599 C1597 1.388 . S
C1599 C1600 1.366 . S
C1600 C1599 1.366 . S
C1600 C1601 1.414 . S
C1600 C1603 1.499 . S
C1601 H1575 0.950 . S
C1601 C1600 1.414 . S
C1601 C1602 1.374 . S
C1602 H1576 0.950 . S
C1602 C1598 1.385 . S
C1602 C1601 1.374 . S
C1603 C1600 1.499 . S
C1603 C1604 1.373 . S
C1603 C1605 1.389 . S
C1604 H1577 0.950 . S
C1604 C1590 1.377 . S
C1604 C1603 1.373 . S
C1605 C1589 1.377 . S
C1605 C1603 1.389 . S
C1605 C1606 1.524 . S
C1606 C1605 1.524 . S
C1606 C1607 1.397 . S
C1606 C1611 1.363 . S
C1607 H1578 0.950 . S
C1607 C1606 1.397 . S
C1607 C1608 1.334 . S
C1608 H1579 0.950 . S
C1608 C1607 1.334 . S
C1608 C1609 1.287 . S
C1609 C1608 1.287 . S
C1609 C1610 1.524 . S
C1609 H1612 0.999 . S
C1610 H1580 0.950 . S
C1610 C1609 1.524 . S
C1610 C1611 1.415 . S
C1611 H1581 0.950 . S
C1611 C1606 1.363 . S
C1611 C1610 1.415 . S
H1612 C1609 0.999 . S
H1613 C1594 0.913 . S
H1614 C1632 0.951 . S
H1615 C1634 0.951 . S
H1616 C1636 0.950 . S
H1617 C1637 0.950 . S
H1618 C1639 0.950 . S
H1619 C1642 0.950 . S
H1620 C1643 0.950 . S
H1621 C1645 0.950 . S
H1622 C1646 0.950 . S
H1623 C1647 0.951 . S
H1624 C1649 0.951 . S
H1625 C1651 0.950 . S
H1626 C1652 0.950 . S
H1627 C1654 0.950 . S
H1628 C1657 0.950 . S
H1629 C1658 0.950 . S
H1630 C1660 0.950 . S
H1631 C1661 0.950 . S
C1632 H1614 0.951 . S
C1632 C1633 1.366 . S
C1632 C1634 1.388 . S
C1633 C1632 1.366 . S
C1633 C1637 1.385 . S
C1634 H1615 0.951 . S
C1634 C1632 1.388 . S
C1634 C1635 1.366 . S
C1635 C1634 1.366 . S
C1635 C1636 1.414 . S
C1635 C1638 1.499 . S
C1636 H1616 0.950 . S
C1636 C1635 1.414 . S
C1636 C1637 1.374 . S
C1637 H1617 0.950 . S
C1637 C1633 1.385 . S
C1637 C1636 1.374 . S
C1638 C1635 1.499 . S
C1638 C1639 1.373 . S
C1638 C1640 1.389 . S
C1639 H1618 0.950 . S
C1639 C1638 1.373 . S
C1639 C1655 1.377 . S
C1640 C1638 1.389 . S
C1640 C1641 1.524 . S
C1640 C1654 1.377 . S
C1641 C1640 1.524 . S
C1641 C1642 1.397 . S
C1641 C1646 1.363 . S
C1642 H1619 0.950 . S
C1642 C1641 1.397 . S
C1642 C1643 1.334 . S
C1643 H1620 0.950 . S
C1643 C1642 1.334 . S
C1643 C1644 1.287 . S
C1644 C1643 1.287 . S
C1644 C1645 1.524 . S
C1644 H1663 0.913 . S
C1645 H1621 0.950 . S
C1645 C1644 1.524 . S
C1645 C1646 1.415 . S
C1646 H1622 0.950 . S
C1646 C1641 1.363 . S
C1646 C1645 1.415 . S
C1647 H1623 0.951 . S
C1647 C1648 1.366 . S
C1647 C1649 1.388 . S
C1648 C1647 1.366 . S
C1648 C1652 1.385 . S
C1649 H1624 0.951 . S
C1649 C1647 1.388 . S
C1649 C1650 1.366 . S
C1650 C1649 1.366 . S
C1650 C1651 1.414 . S
C1650 C1653 1.499 . S
C1651 H1625 0.950 . S
C1651 C1650 1.414 . S
C1651 C1652 1.374 . S
C1652 H1626 0.950 . S
C1652 C1648 1.385 . S
C1652 C1651 1.374 . S
C1653 C1650 1.499 . S
C1653 C1654 1.373 . S
C1653 C1655 1.389 . S
C1654 H1627 0.950 . S
C1654 C1640 1.377 . S
C1654 C1653 1.373 . S
C1655 C1639 1.377 . S
C1655 C1653 1.389 . S
C1655 C1656 1.524 . S
C1656 C1655 1.524 . S
C1656 C1657 1.397 . S
C1656 C1661 1.363 . S
C1657 H1628 0.950 . S
C1657 C1656 1.397 . S
C1657 C1658 1.334 . S
C1658 H1629 0.950 . S
C1658 C1657 1.334 . S
C1658 C1659 1.287 . S
C1659 C1658 1.287 . S
C1659 C1660 1.524 . S
C1659 H1662 0.999 . S
C1660 H1630 0.950 . S
C1660 C1659 1.524 . S
C1660 C1661 1.415 . S
C1661 H1631 0.950 . S
C1661 C1656 1.363 . S
C1661 C1660 1.415 . S
H1662 C1659 0.999 . S
H1663 C1644 0.913 . S
H1664 C1682 0.951 . S
H1665 C1684 0.951 . S
H1666 C1686 0.950 . S
H1667 C1687 0.950 . S
H1668 C1689 0.950 . S
H1669 C1692 0.950 . S
H1670 C1693 0.950 . S
H1671 C1695 0.950 . S
H1672 C1696 0.950 . S
H1673 C1697 0.951 . S
H1674 C1699 0.951 . S
H1675 C1701 0.950 . S
H1676 C1702 0.950 . S
H1677 C1704 0.950 . S
H1678 C1707 0.950 . S
H1679 C1708 0.950 . S
H1680 C1710 0.950 . S
H1681 C1711 0.950 . S
C1682 H1664 0.951 . S
C1682 C1683 1.366 . S
C1682 C1684 1.388 . S
C1683 C1682 1.366 . S
C1683 C1687 1.385 . S
C1684 H1665 0.951 . S
C1684 C1682 1.388 . S
C1684 C1685 1.366 . S
C1685 C1684 1.366 . S
C1685 C1686 1.414 . S
C1685 C1688 1.499 . S
C1686 H1666 0.950 . S
C1686 C1685 1.414 . S
C1686 C1687 1.374 . S
C1687 H1667 0.950 . S
C1687 C1683 1.385 . S
C1687 C1686 1.374 . S
C1688 C1685 1.499 . S
C1688 C1689 1.373 . S
C1688 C1690 1.389 . S
C1689 H1668 0.950 . S
C1689 C1688 1.373 . S
C1689 C1705 1.377 . S
C1690 C1688 1.389 . S
C1690 C1691 1.524 . S
C1690 C1704 1.377 . S
C1691 C1690 1.524 . S
C1691 C1692 1.397 . S
C1691 C1696 1.363 . S
C1692 H1669 0.950 . S
C1692 C1691 1.397 . S
C1692 C1693 1.334 . S
C1693 H1670 0.950 . S
C1693 C1692 1.334 . S
C1693 C1694 1.287 . S
C1694 C1693 1.287 . S
C1694 C1695 1.524 . S
C1694 H1713 0.913 . S
C1695 H1671 0.950 . S
C1695 C1694 1.524 . S
C1695 C1696 1.415 . S
C1696 H1672 0.950 . S
C1696 C1691 1.363 . S
C1696 C1695 1.415 . S
C1697 H1673 0.951 . S
C1697 C1698 1.366 . S
C1697 C1699 1.388 . S
C1698 C1697 1.366 . S
C1698 C1702 1.385 . S
C1699 H1674 0.951 . S
C1699 C1697 1.388 . S
C1699 C1700 1.366 . S
C1700 C1699 1.366 . S
C1700 C1701 1.414 . S
C1700 C1703 1.499 . S
C1701 H1675 0.950 . S
C1701 C1700 1.414 . S
C1701 C1702 1.374 . S
C1702 H1676 0.950 . S
C1702 C1698 1.385 . S
C1702 C1701 1.374 . S
C1703 C1700 1.499 . S
C1703 C1704 1.373 . S
C1703 C1705 1.389 . S
C1704 H1677 0.950 . S
C1704 C1690 1.377 . S
C1704 C1703 1.373 . S
C1705 C1689 1.377 . S
C1705 C1703 1.389 . S
C1705 C1706 1.524 . S
C1706 C1705 1.524 . S
C1706 C1707 1.397 . S
C1706 C1711 1.363 . S
C1707 H1678 0.950 . S
C1707 C1706 1.397 . S
C1707 C1708 1.334 . S
C1708 H1679 0.950 . S
C1708 C1707 1.334 . S
C1708 C1709 1.287 . S
C1709 C1708 1.287 . S
C1709 C1710 1.524 . S
C1709 H1712 0.999 . S
C1710 H1680 0.950 . S
C1710 C1709 1.524 . S
C1710 C1711 1.415 . S
C1711 H1681 0.950 . S
C1711 C1706 1.363 . S
C1711 C1710 1.415 . S
H1712 C1709 0.999 . S
H1713 C1694 0.913 . S
H1714 C1732 0.951 . S
H1715 C1734 0.951 . S
H1716 C1736 0.950 . S
H1717 C1737 0.950 . S
H1718 C1739 0.950 . S
H1719 C1742 0.950 . S
H1720 C1743 0.950 . S
H1721 C1745 0.950 . S
H1722 C1746 0.950 . S
H1723 C1747 0.951 . S
H1724 C1749 0.951 . S
H1725 C1751 0.950 . S
H1726 C1752 0.950 . S
H1727 C1754 0.950 . S
H1728 C1757 0.950 . S
H1729 C1758 0.950 . S
H1730 C1760 0.950 . S
H1731 C1761 0.950 . S
C1732 H1714 0.951 . S
C1732 C1733 1.366 . S
C1732 C1734 1.388 . S
C1733 C1732 1.366 . S
C1733 C1737 1.385 . S
C1734 H1715 0.951 . S
C1734 C1732 1.388 . S
C1734 C1735 1.366 . S
C1735 C1734 1.366 . S
C1735 C1736 1.414 . S
C1735 C1738 1.499 . S
C1736 H1716 0.950 . S
C1736 C1735 1.414 . S
C1736 C1737 1.374 . S
C1737 H1717 0.950 . S
C1737 C1733 1.385 . S
C1737 C1736 1.374 . S
C1738 C1735 1.499 . S
C1738 C1739 1.373 . S
C1738 C1740 1.389 . S
C1739 H1718 0.950 . S
C1739 C1738 1.373 . S
C1739 C1755 1.377 . S
C1740 C1738 1.389 . S
C1740 C1741 1.524 . S
C1740 C1754 1.377 . S
C1741 C1740 1.524 . S
C1741 C1742 1.397 . S
C1741 C1746 1.363 . S
C1742 H1719 0.950 . S
C1742 C1741 1.397 . S
C1742 C1743 1.334 . S
C1743 H1720 0.950 . S
C1743 C1742 1.334 . S
C1743 C1744 1.287 . S
C1744 C1743 1.287 . S
C1744 C1745 1.524 . S
C1744 H1763 0.913 . S
C1745 H1721 0.950 . S
C1745 C1744 1.524 . S
C1745 C1746 1.415 . S
C1746 H1722 0.950 . S
C1746 C1741 1.363 . S
C1746 C1745 1.415 . S
C1747 H1723 0.951 . S
C1747 C1748 1.366 . S
C1747 C1749 1.388 . S
C1748 C1747 1.366 . S
C1748 C1752 1.385 . S
C1749 H1724 0.951 . S
C1749 C1747 1.388 . S
C1749 C1750 1.366 . S
C1750 C1749 1.366 . S
C1750 C1751 1.414 . S
C1750 C1753 1.499 . S
C1751 H1725 0.950 . S
C1751 C1750 1.414 . S
C1751 C1752 1.374 . S
C1752 H1726 0.950 . S
C1752 C1748 1.385 . S
C1752 C1751 1.374 . S
C1753 C1750 1.499 . S
C1753 C1754 1.373 . S
C1753 C1755 1.389 . S
C1754 H1727 0.950 . S
C1754 C1740 1.377 . S
C1754 C1753 1.373 . S
C1755 C1739 1.377 . S
C1755 C1753 1.389 . S
C1755 C1756 1.524 . S
C1756 C1755 1.524 . S
C1756 C1757 1.397 . S
C1756 C1761 1.363 . S
C1757 H1728 0.950 . S
C1757 C1756 1.397 . S
C1757 C1758 1.334 . S
C1758 H1729 0.950 . S
C1758 C1757 1.334 . S
C1758 C1759 1.287 . S
C1759 C1758 1.287 . S
C1759 C1760 1.524 . S
C1759 H1762 0.999 . S
C1760 H1730 0.950 . S
C1760 C1759 1.524 . S
C1760 C1761 1.415 . S
C1761 H1731 0.950 . S
C1761 C1756 1.363 . S
C1761 C1760 1.415 . S
H1762 C1759 0.999 . S
H1763 C1744 0.913 . S
H1764 C1782 0.951 . S
H1765 C1784 0.951 . S
H1766 C1786 0.950 . S
H1767 C1787 0.950 . S
H1768 C1789 0.950 . S
H1769 C1792 0.950 . S
H1770 C1793 0.950 . S
H1771 C1795 0.950 . S
H1772 C1796 0.950 . S
H1773 C1797 0.951 . S
H1774 C1799 0.951 . S
H1775 C1801 0.950 . S
H1776 C1802 0.950 . S
H1777 C1804 0.950 . S
H1778 C1807 0.950 . S
H1779 C1808 0.950 . S
H1780 C1810 0.950 . S
H1781 C1811 0.948 1_554 S
C1782 H1764 0.951 . S
C1782 C1783 1.366 . S
C1782 C1784 1.388 . S
C1783 C1782 1.366 . S
C1783 C1787 1.385 . S
C1784 H1765 0.951 . S
C1784 C1782 1.388 . S
C1784 C1785 1.366 . S
C1785 C1784 1.366 . S
C1785 C1786 1.414 . S
C1785 C1788 1.499 . S
C1786 H1766 0.950 . S
C1786 C1785 1.414 . S
C1786 C1787 1.374 . S
C1787 H1767 0.950 . S
C1787 C1783 1.385 . S
C1787 C1786 1.374 . S
C1788 C1785 1.499 . S
C1788 C1789 1.373 . S
C1788 C1790 1.389 . S
C1789 H1768 0.950 . S
C1789 C1788 1.373 . S
C1789 C1805 1.377 . S
C1790 C1788 1.389 . S
C1790 C1791 1.524 . S
C1790 C1804 1.377 . S
C1791 C1790 1.524 . S
C1791 C1792 1.397 . S
C1791 C1796 1.363 . S
C1792 H1769 0.950 . S
C1792 C1791 1.397 . S
C1792 C1793 1.334 . S
C1793 H1770 0.950 . S
C1793 C1792 1.334 . S
C1793 C1794 1.287 . S
C1794 C1793 1.287 . S
C1794 C1795 1.524 . S
C1794 H1813 0.913 . S
C1795 H1771 0.950 . S
C1795 C1794 1.524 . S
C1795 C1796 1.415 . S
C1796 H1772 0.950 . S
C1796 C1791 1.363 . S
C1796 C1795 1.415 . S
C1797 H1773 0.951 . S
C1797 C1798 1.366 . S
C1797 C1799 1.388 . S
C1798 C1797 1.366 . S
C1798 C1802 1.385 . S
C1799 H1774 0.951 . S
C1799 C1797 1.388 . S
C1799 C1800 1.366 . S
C1800 C1799 1.366 . S
C1800 C1801 1.414 . S
C1800 C1803 1.499 1_556 S
C1801 H1775 0.950 . S
C1801 C1800 1.414 . S
C1801 C1802 1.374 . S
C1802 H1776 0.950 . S
C1802 C1798 1.385 . S
C1802 C1801 1.374 . S
C1803 C1800 1.499 1_554 S
C1803 C1804 1.373 . S
C1803 C1805 1.389 . S
C1804 H1777 0.950 . S
C1804 C1790 1.377 . S
C1804 C1803 1.373 . S
C1805 C1789 1.377 . S
C1805 C1803 1.389 . S
C1805 C1806 1.482 1_554 S
C1806 C1805 1.482 1_556 S
C1806 C1807 1.440 . S
C1806 C1811 1.361 . S
C1807 H1778 0.950 . S
C1807 C1806 1.440 . S
C1807 C1808 1.334 . S
C1808 H1779 0.950 . S
C1808 C1807 1.334 . S
C1808 C1809 1.287 . S
C1809 C1808 1.287 . S
C1809 C1810 1.524 . S
C1809 H1812 0.999 . S
C1810 H1780 0.950 . S
C1810 C1809 1.524 . S
C1810 C1811 1.417 . S
C1811 H1781 0.948 1_556 S
C1811 C1806 1.361 . S
C1811 C1810 1.417 . S
H1812 C1809 0.999 . S
H1813 C1794 0.913 . S
H1814 C1832 0.951 . S
H1815 C1834 0.951 . S
H1816 C1836 0.950 . S
H1817 C1837 0.950 . S
H1818 C1839 0.950 . S
H1819 C1842 0.950 . S
H1820 C1843 0.950 . S
H1821 C1845 0.950 . S
H1822 C1846 0.950 . S
H1823 C1847 0.951 . S
H1824 C1849 0.951 . S
H1825 C1851 0.950 . S
H1826 C1852 0.950 . S
H1827 C1854 0.950 . S
H1828 C1857 0.950 . S
H1829 C1858 0.950 . S
H1830 C1860 0.950 . S
H1831 C1861 0.950 . S
C1832 H1814 0.951 . S
C1832 C1833 1.366 . S
C1832 C1834 1.388 . S
C1833 C1832 1.366 . S
C1833 C1837 1.385 . S
C1834 H1815 0.951 . S
C1834 C1832 1.388 . S
C1834 C1835 1.366 . S
C1835 C1834 1.366 . S
C1835 C1836 1.414 . S
C1835 C1838 1.499 . S
C1836 H1816 0.950 . S
C1836 C1835 1.414 . S
C1836 C1837 1.374 . S
C1837 H1817 0.950 . S
C1837 C1833 1.385 . S
C1837 C1836 1.374 . S
C1838 C1835 1.499 . S
C1838 C1839 1.373 . S
C1838 C1840 1.389 . S
C1839 H1818 0.950 . S
C1839 C1838 1.373 . S
C1839 C1855 1.377 . S
C1840 C1838 1.389 . S
C1840 C1841 1.524 . S
C1840 C1854 1.377 . S
C1841 C1840 1.524 . S
C1841 C1842 1.397 . S
C1841 C1846 1.363 . S
C1842 H1819 0.950 . S
C1842 C1841 1.397 . S
C1842 C1843 1.334 . S
C1843 H1820 0.950 . S
C1843 C1842 1.334 . S
C1843 C1844 1.287 . S
C1844 C1843 1.287 . S
C1844 C1845 1.524 . S
C1844 H1863 0.913 . S
C1845 H1821 0.950 . S
C1845 C1844 1.524 . S
C1845 C1846 1.415 . S
C1846 H1822 0.950 . S
C1846 C1841 1.363 . S
C1846 C1845 1.415 . S
C1847 H1823 0.951 . S
C1847 C1848 1.366 . S
C1847 C1849 1.388 . S
C1848 C1847 1.366 . S
C1848 C1852 1.385 . S
C1849 H1824 0.951 . S
C1849 C1847 1.388 . S
C1849 C1850 1.366 . S
C1850 C1849 1.366 . S
C1850 C1851 1.414 . S
C1850 C1853 1.499 . S
C1851 H1825 0.950 . S
C1851 C1850 1.414 . S
C1851 C1852 1.374 . S
C1852 H1826 0.950 . S
C1852 C1848 1.385 . S
C1852 C1851 1.374 . S
C1853 C1850 1.499 . S
C1853 C1854 1.373 . S
C1853 C1855 1.389 . S
C1854 H1827 0.950 . S
C1854 C1840 1.377 . S
C1854 C1853 1.373 . S
C1855 C1839 1.377 . S
C1855 C1853 1.389 . S
C1855 C1856 1.524 . S
C1856 C1855 1.524 . S
C1856 C1857 1.397 . S
C1856 C1861 1.363 . S
C1857 H1828 0.950 . S
C1857 C1856 1.397 . S
C1857 C1858 1.334 . S
C1858 H1829 0.950 . S
C1858 C1857 1.334 . S
C1858 C1859 1.287 . S
C1859 C1858 1.287 . S
C1859 C1860 1.524 . S
C1859 H1862 0.999 . S
C1860 H1830 0.950 . S
C1860 C1859 1.524 . S
C1860 C1861 1.415 . S
C1861 H1831 0.950 . S
C1861 C1856 1.363 . S
C1861 C1860 1.415 . S
H1862 C1859 0.999 . S
H1863 C1844 0.913 . S
H1864 C1882 0.951 . S
H1865 C1884 0.951 . S
H1866 C1886 0.950 . S
H1867 C1887 0.950 . S
H1868 C1889 0.950 . S
H1869 C1892 0.950 . S
H1870 C1893 0.950 . S
H1871 C1895 0.950 . S
H1872 C1896 0.950 . S
H1873 C1897 0.951 . S
H1874 C1899 0.951 . S
H1875 C1901 0.950 . S
H1876 C1902 0.950 . S
H1877 C1904 0.950 . S
H1878 C1907 0.951 1_545 S
H1879 C1908 0.949 1_545 S
H1880 C1910 0.950 . S
H1881 C1911 0.950 . S
C1882 H1864 0.951 . S
C1882 C1883 1.366 . S
C1882 C1884 1.388 . S
C1883 C1882 1.366 . S
C1883 C1887 1.385 . S
C1884 H1865 0.951 . S
C1884 C1882 1.388 . S
C1884 C1885 1.366 . S
C1885 C1884 1.366 . S
C1885 C1886 1.414 . S
C1885 C1888 1.499 . S
C1886 H1866 0.950 . S
C1886 C1885 1.414 . S
C1886 C1887 1.374 . S
C1887 H1867 0.950 . S
C1887 C1883 1.385 . S
C1887 C1886 1.374 . S
C1888 C1885 1.499 . S
C1888 C1889 1.373 . S
C1888 C1890 1.389 . S
C1889 H1868 0.950 . S
C1889 C1888 1.373 . S
C1889 C1905 1.377 1_545 S
C1890 C1888 1.389 . S
C1890 C1891 1.524 . S
C1890 C1904 1.377 1_545 S
C1891 C1890 1.524 . S
C1891 C1892 1.397 1_545 S
C1891 C1896 1.363 . S
C1892 H1869 0.950 . S
C1892 C1891 1.397 1_565 S
C1892 C1893 1.334 . S
C1893 H1870 0.950 . S
C1893 C1892 1.334 . S
C1893 C1894 1.287 1_565 S
C1894 C1893 1.287 1_545 S
C1894 C1895 1.524 . S
C1894 H1913 0.913 . S
C1895 H1871 0.950 . S
C1895 C1894 1.524 . S
C1895 C1896 1.415 . S
C1896 H1872 0.950 . S
C1896 C1891 1.363 . S
C1896 C1895 1.415 . S
C1897 H1873 0.951 . S
C1897 C1898 1.366 . S
C1897 C1899 1.388 . S
C1898 C1897 1.366 . S
C1898 C1902 1.385 . S
C1899 H1874 0.951 . S
C1899 C1897 1.388 . S
C1899 C1900 1.366 . S
C1900 C1899 1.366 . S
C1900 C1901 1.414 . S
C1900 C1903 1.499 . S
C1901 H1875 0.950 . S
C1901 C1900 1.414 . S
C1901 C1902 1.374 . S
C1902 H1876 0.950 . S
C1902 C1898 1.385 . S
C1902 C1901 1.374 . S
C1903 C1900 1.499 . S
C1903 C1904 1.373 . S
C1903 C1905 1.389 . S
C1904 H1877 0.950 . S
C1904 C1890 1.377 1_565 S
C1904 C1903 1.373 . S
C1905 C1889 1.377 1_565 S
C1905 C1903 1.389 . S
C1905 C1906 1.524 . S
C1906 C1905 1.524 . S
C1906 C1907 1.395 . S
C1906 C1911 1.363 . S
C1907 H1878 0.951 1_565 S
C1907 C1906 1.395 . S
C1907 C1908 1.335 . S
C1908 H1879 0.949 1_565 S
C1908 C1907 1.335 . S
C1908 C1909 1.288 . S
C1909 C1908 1.288 . S
C1909 C1910 1.524 . S
C1909 H1912 0.999 . S
C1910 H1880 0.950 . S
C1910 C1909 1.524 . S
C1910 C1911 1.415 . S
C1911 H1881 0.950 . S
C1911 C1906 1.363 . S
C1911 C1910 1.415 . S
H1912 C1909 0.999 . S
H1913 C1894 0.913 . S
H1914 C1932 0.951 . S
H1915 C1934 0.951 . S
H1916 C1936 0.950 . S
H1917 C1937 0.950 . S
H1918 C1939 0.950 . S
H1919 C1942 0.950 . S
H1920 C1943 0.950 . S
H1921 C1945 0.950 . S
H1922 C1946 0.950 . S
H1923 C1947 0.951 . S
H1924 C1949 0.951 . S
H1925 C1951 0.950 . S
H1926 C1952 0.950 . S
H1927 C1954 0.950 . S
H1928 C1957 0.950 . S
H1929 C1958 0.950 . S
H1930 C1960 0.950 . S
H1931 C1961 0.950 . S
C1932 H1914 0.951 . S
C1932 C1933 1.366 . S
C1932 C1934 1.388 . S
C1933 C1932 1.366 . S
C1933 C1937 1.385 . S
C1934 H1915 0.951 . S
C1934 C1932 1.388 . S
C1934 C1935 1.366 . S
C1935 C1934 1.366 . S
C1935 C1936 1.414 . S
C1935 C1938 1.499 . S
C1936 H1916 0.950 . S
C1936 C1935 1.414 . S
C1936 C1937 1.374 . S
C1937 H1917 0.950 . S
C1937 C1933 1.385 . S
C1937 C1936 1.374 . S
C1938 C1935 1.499 . S
C1938 C1939 1.373 . S
C1938 C1940 1.389 . S
C1939 H1918 0.950 . S
C1939 C1938 1.373 . S
C1939 C1955 1.377 . S
C1940 C1938 1.389 . S
C1940 C1941 1.524 . S
C1940 C1954 1.377 . S
C1941 C1940 1.524 . S
C1941 C1942 1.397 . S
C1941 C1946 1.363 . S
C1942 H1919 0.950 . S
C1942 C1941 1.397 . S
C1942 C1943 1.334 . S
C1943 H1920 0.950 . S
C1943 C1942 1.334 . S
C1943 C1944 1.287 . S
C1944 C1943 1.287 . S
C1944 C1945 1.524 . S
C1944 H1963 0.913 . S
C1945 H1921 0.950 . S
C1945 C1944 1.524 . S
C1945 C1946 1.415 . S
C1946 H1922 0.950 . S
C1946 C1941 1.363 . S
C1946 C1945 1.415 . S
C1947 H1923 0.951 . S
C1947 C1948 1.366 . S
C1947 C1949 1.388 . S
C1948 C1947 1.366 . S
C1948 C1952 1.385 . S
C1949 H1924 0.951 . S
C1949 C1947 1.388 . S
C1949 C1950 1.366 . S
C1950 C1949 1.366 . S
C1950 C1951 1.414 . S
C1950 C1953 1.499 . S
C1951 H1925 0.950 . S
C1951 C1950 1.414 . S
C1951 C1952 1.374 . S
C1952 H1926 0.950 . S
C1952 C1948 1.385 . S
C1952 C1951 1.374 . S
C1953 C1950 1.499 . S
C1953 C1954 1.373 . S
C1953 C1955 1.389 . S
C1954 H1927 0.950 . S
C1954 C1940 1.377 . S
C1954 C1953 1.373 . S
C1955 C1939 1.377 . S
C1955 C1953 1.389 . S
C1955 C1956 1.524 . S
C1956 C1955 1.524 . S
C1956 C1957 1.397 . S
C1956 C1961 1.363 . S
C1957 H1928 0.950 . S
C1957 C1956 1.397 . S
C1957 C1958 1.334 . S
C1958 H1929 0.950 . S
C1958 C1957 1.334 . S
C1958 C1959 1.287 . S
C1959 C1958 1.287 . S
C1959 C1960 1.524 . S
C1959 H1962 0.999 . S
C1960 H1930 0.950 . S
C1960 C1959 1.524 . S
C1960 C1961 1.415 . S
C1961 H1931 0.950 . S
C1961 C1956 1.363 . S
C1961 C1960 1.415 . S
H1962 C1959 0.999 . S
H1963 C1944 0.913 . S
H1964 C1982 0.951 . S
H1965 C1984 0.951 . S
H1966 C1986 0.950 . S
H1967 C1987 0.950 . S
H1968 C1989 0.950 . S
H1969 C1992 0.950 . S
H1970 C1993 0.950 . S
H1971 C1995 0.950 . S
H1972 C1996 0.950 1_565 S
H1973 C1997 0.951 . S
H1974 C1999 0.951 . S
H1975 C2001 0.950 . S
H1976 C2002 0.950 . S
H1977 C2004 0.950 . S
H1978 C2007 0.950 . S
H1979 C2008 0.950 . S
H1980 C2010 0.950 . S
H1981 C2011 0.950 . S
C1982 H1964 0.951 . S
C1982 C1983 1.366 . S
C1982 C1984 1.388 . S
C1983 C1982 1.366 . S
C1983 C1987 1.385 . S
C1984 H1965 0.951 . S
C1984 C1982 1.388 . S
C1984 C1985 1.366 . S
C1985 C1984 1.366 . S
C1985 C1986 1.414 . S
C1985 C1988 1.499 1_545 S
C1986 H1966 0.950 . S
C1986 C1985 1.414 . S
C1986 C1987 1.374 . S
C1987 H1967 0.950 . S
C1987 C1983 1.385 . S
C1987 C1986 1.374 . S
C1988 C1985 1.499 1_565 S
C1988 C1989 1.373 . S
C1988 C1990 1.389 . S
C1989 H1968 0.950 . S
C1989 C1988 1.373 . S
C1989 C2005 1.377 . S
C1990 C1988 1.389 . S
C1990 C1991 1.524 1_565 S
C1990 C2004 1.377 . S
C1991 C1990 1.524 1_545 S
C1991 C1992 1.397 . S
C1991 C1996 1.363 . S
C1992 H1969 0.950 . S
C1992 C1991 1.397 . S
C1992 C1993 1.334 . S
C1993 H1970 0.950 . S
C1993 C1992 1.334 . S
C1993 C1994 1.287 . S
C1994 C1993 1.287 . S
C1994 C1995 1.524 . S
C1994 H2013 0.913 . S
C1995 H1971 0.950 . S
C1995 C1994 1.524 . S
C1995 C1996 1.415 . S
C1996 H1972 0.950 1_545 S
C1996 C1991 1.363 . S
C1996 C1995 1.415 . S
C1997 H1973 0.951 . S
C1997 C1998 1.366 . S
C1997 C1999 1.388 . S
C1998 C1997 1.366 . S
C1998 C2002 1.385 . S
C1999 H1974 0.951 . S
C1999 C1997 1.388 . S
C1999 C2000 1.366 . S
C2000 C1999 1.366 . S
C2000 C2001 1.414 . S
C2000 C2003 1.499 . S
C2001 H1975 0.950 . S
C2001 C2000 1.414 . S
C2001 C2002 1.374 . S
C2002 H1976 0.950 . S
C2002 C1998 1.385 . S
C2002 C2001 1.374 . S
C2003 C2000 1.499 . S
C2003 C2004 1.373 . S
C2003 C2005 1.389 . S
C2004 H1977 0.950 . S
C2004 C1990 1.377 . S
C2004 C2003 1.373 . S
C2005 C1989 1.377 . S
C2005 C2003 1.389 . S
C2005 C2006 1.524 . S
C2006 C2005 1.524 . S
C2006 C2007 1.397 . S
C2006 C2011 1.363 . S
C2007 H1978 0.950 . S
C2007 C2006 1.397 . S
C2007 C2008 1.334 . S
C2008 H1979 0.950 . S
C2008 C2007 1.334 . S
C2008 C2009 1.287 . S
C2009 C2008 1.287 . S
C2009 C2010 1.524 . S
C2009 H2012 0.999 . S
C2010 H1980 0.950 . S
C2010 C2009 1.524 . S
C2010 C2011 1.415 . S
C2011 H1981 0.950 . S
C2011 C2006 1.363 . S
C2011 C2010 1.415 . S
H2012 C2009 0.999 . S
H2013 C1994 0.913 . S
H2014 C2032 0.951 . S
H2015 C2034 0.951 . S
H2016 C2036 0.950 . S
H2017 C2037 0.950 . S
H2018 C2039 0.950 . S
H2019 C2042 0.950 . S
H2020 C2043 0.950 . S
H2021 C2045 0.950 . S
H2022 C2046 0.950 . S
H2023 C2047 0.951 . S
H2024 C2049 0.951 . S
H2025 C2051 0.950 . S
H2026 C2052 0.950 . S
H2027 C2054 0.950 . S
H2028 C2057 0.950 . S
H2029 C2058 0.950 . S
H2030 C2060 0.950 . S
H2031 C2061 0.950 . S
C2032 H2014 0.951 . S
C2032 C2033 1.366 . S
C2032 C2034 1.388 . S
C2033 C2032 1.366 . S
C2033 C2037 1.385 . S
C2034 H2015 0.951 . S
C2034 C2032 1.388 . S
C2034 C2035 1.366 . S
C2035 C2034 1.366 . S
C2035 C2036 1.414 . S
C2035 C2038 1.499 . S
C2036 H2016 0.950 . S
C2036 C2035 1.414 . S
C2036 C2037 1.374 . S
C2037 H2017 0.950 . S
C2037 C2033 1.385 . S
C2037 C2036 1.374 . S
C2038 C2035 1.499 . S
C2038 C2039 1.373 . S
C2038 C2040 1.389 . S
C2039 H2018 0.950 . S
C2039 C2038 1.373 . S
C2039 C2055 1.377 . S
C2040 C2038 1.389 . S
C2040 C2041 1.524 . S
C2040 C2054 1.377 . S
C2041 C2040 1.524 . S
C2041 C2042 1.397 . S
C2041 C2046 1.363 . S
C2042 H2019 0.950 . S
C2042 C2041 1.397 . S
C2042 C2043 1.334 . S
C2043 H2020 0.950 . S
C2043 C2042 1.334 . S
C2043 C2044 1.287 . S
C2044 C2043 1.287 . S
C2044 C2045 1.524 . S
C2044 H2063 0.913 . S
C2045 H2021 0.950 . S
C2045 C2044 1.524 . S
C2045 C2046 1.415 . S
C2046 H2022 0.950 . S
C2046 C2041 1.363 . S
C2046 C2045 1.415 . S
C2047 H2023 0.951 . S
C2047 C2048 1.366 . S
C2047 C2049 1.388 . S
C2048 C2047 1.366 . S
C2048 C2052 1.385 . S
C2049 H2024 0.951 . S
C2049 C2047 1.388 . S
C2049 C2050 1.366 . S
C2050 C2049 1.366 . S
C2050 C2051 1.414 . S
C2050 C2053 1.499 . S
C2051 H2025 0.950 . S
C2051 C2050 1.414 . S
C2051 C2052 1.374 . S
C2052 H2026 0.950 . S
C2052 C2048 1.385 . S
C2052 C2051 1.374 . S
C2053 C2050 1.499 . S
C2053 C2054 1.373 . S
C2053 C2055 1.389 . S
C2054 H2027 0.950 . S
C2054 C2040 1.377 . S
C2054 C2053 1.373 . S
C2055 C2039 1.377 . S
C2055 C2053 1.389 . S
C2055 C2056 1.524 . S
C2056 C2055 1.524 . S
C2056 C2057 1.397 . S
C2056 C2061 1.363 . S
C2057 H2028 0.950 . S
C2057 C2056 1.397 . S
C2057 C2058 1.334 . S
C2058 H2029 0.950 . S
C2058 C2057 1.334 . S
C2058 C2059 1.287 . S
C2059 C2058 1.287 . S
C2059 C2060 1.524 . S
C2059 H2062 0.999 . S
C2060 H2030 0.950 . S
C2060 C2059 1.524 . S
C2060 C2061 1.415 . S
C2061 H2031 0.950 . S
C2061 C2056 1.363 . S
C2061 C2060 1.415 . S
H2062 C2059 0.999 . S
H2063 C2044 0.913 . S
C283 C51 1.703 1_655 S
C298 C7 1.715 . S
C333 C62 1.442 . S
C348 C16 1.210 . S
C383 C29 1.669 . S
C398 C73 1.661 . S
C433 C82 1.241 . S
C448 C40 1.439 . S
C483 C95 1.875 . S
C498 C126 1.513 . S
C533 C115 1.407 . S
C548 C106 1.549 . S
C583 C137 1.615 . S
C598 C181 1.640 . S
C633 C192 1.130 . S
C648 C150 1.366 . S
C683 C205 1.400 . S
C698 C161 1.406 . S
C733 C170 1.122 . S
C748 C216 1.212 . S
C783 C260 1.408 1_556 S
C798 C225 1.444 . S
C833 C249 1.325 . S
C848 C236 1.285 . S
C883 C217 1.685 . S
C898 C8 1.684 . S
C933 C184 1.972 . S
C948 C18 1.892 . S
C983 C27 1.982 . S
C998 C195 2.073 . S
C1033 C38 1.597 . S
C1048 C206 1.721 . S
C1083 C52 1.863 . S
C1098 C148 1.705 . S
C1133 C162 1.857 . S
C1148 C60 1.840 . S
C1183 C71 1.767 . S
C1198 C172 1.859 . S
C1233 C85 1.884 . S
C1248 C140 1.896 . S
C1283 C41 1.680 . S
C1298 C261 1.613 . S
C1333 C5 1.718 . S
C1348 C238 1.830 . S
C1383 C19 1.593 . S
C1398 C228 1.609 . S
C1433 C30 1.973 . S
C1448 C247 1.595 . S
C1483 C63 1.601 . S
C1498 C250 1.571 . S
C1533 C74 1.872 . S
C1548 C258 1.419 . S
C1583 C239 1.845 . S
C1598 C84 1.770 . S
C1633 C49 1.764 . S
C1648 C227 1.836 . S
C1683 C93 1.936 . S
C1698 C183 2.014 . S
C1733 C139 1.863 . S
C1748 C104 1.505 . S
C1783 C96 1.985 . S
C1798 C151 1.993 . S
C1833 C118 1.876 . S
C1848 C159 1.558 . S
C1883 C173 1.913 . S
C1898 C129 1.871 . S
C1933 C203 1.776 . S
C1948 C128 1.997 . S
C1983 C214 1.788 . S
C1998 C107 1.825 . S
C2033 C194 2.181 . S
C2048 C117 2.187 . S
