# Generated by pormake.
# Topology sof, (5)-cn, num edge types: 1
# Building blocks:
#     Node 0, Type 0, BuildingBlock: XOMCOT_clean_sbu_0, # of connection points: 5
#     Node 1, Type 0, BuildingBlock: XOMCOT_clean_sbu_0, # of connection points: 5
#     Node 2, Type 0, BuildingBlock: XOMCOT_clean_sbu_0, # of connection points: 5
#     Node 3, Type 0, BuildingBlock: XOMCOT_clean_sbu_0, # of connection points: 5
#     Node 4, Type 0, BuildingBlock: XOMCOT_clean_sbu_0, # of connection points: 5
#     Node 5, Type 0, BuildingBlock: XOMCOT_clean_sbu_0, # of connection points: 5
#     Node 6, Type 0, BuildingBlock: XOMCOT_clean_sbu_0, # of connection points: 5
#     Node 7, Type 0, BuildingBlock: XOMCOT_clean_sbu_0, # of connection points: 5
#     Edge 8, Type (0, 0), BuildingBlock: OJICUG_clean_linker_0, # of connection points: 2
#     Edge 9, Type (0, 0), BuildingBlock: OJICUG_clean_linker_0, # of connection points: 2
#     Edge 10, Type (0, 0), BuildingBlock: OJICUG_clean_linker_0, # of connection points: 2
#     Edge 11, Type (0, 0), BuildingBlock: OJICUG_clean_linker_0, # of connection points: 2
#     Edge 12, Type (0, 0), BuildingBlock: OJICUG_clean_linker_0, # of connection points: 2
#     Edge 13, Type (0, 0), BuildingBlock: OJICUG_clean_linker_0, # of connection points: 2
#     Edge 14, Type (0, 0), BuildingBlock: OJICUG_clean_linker_0, # of connection points: 2
#     Edge 15, Type (0, 0), BuildingBlock: OJICUG_clean_linker_0, # of connection points: 2
#     Edge 16, Type (0, 0), BuildingBlock: OJICUG_clean_linker_0, # of connection points: 2
#     Edge 17, Type (0, 0), BuildingBlock: OJICUG_clean_linker_0, # of connection points: 2
#     Edge 18, Type (0, 0), BuildingBlock: OJICUG_clean_linker_0, # of connection points: 2
#     Edge 19, Type (0, 0), BuildingBlock: OJICUG_clean_linker_0, # of connection points: 2
#     Edge 20, Type (0, 0), BuildingBlock: OJICUG_clean_linker_0, # of connection points: 2
#     Edge 21, Type (0, 0), BuildingBlock: OJICUG_clean_linker_0, # of connection points: 2
#     Edge 22, Type (0, 0), BuildingBlock: OJICUG_clean_linker_0, # of connection points: 2
#     Edge 23, Type (0, 0), BuildingBlock: OJICUG_clean_linker_0, # of connection points: 2
#     Edge 24, Type (0, 0), BuildingBlock: OJICUG_clean_linker_0, # of connection points: 2
#     Edge 25, Type (0, 0), BuildingBlock: OJICUG_clean_linker_0, # of connection points: 2
#     Edge 26, Type (0, 0), BuildingBlock: OJICUG_clean_linker_0, # of connection points: 2
#     Edge 27, Type (0, 0), BuildingBlock: OJICUG_clean_linker_0, # of connection points: 2
# Relax obj value: 0.130
# Max RMSD: 0.155
# Mean RMSD: 0.155
data_MOF--net-sof--node1-XOMCOT_clean_sbu_0--edge1-OJICUG_clean_linker_0
_symmetry_space_group_name_H-M    P1
_symmetry_Int_Tables_number       1
_symmetry_cell_setting            triclinic
loop_
_symmetry_equiv_pos_as_xyz
'x, y, z'
_cell_length_a     44.797063
_cell_length_b     13.539118
_cell_length_c     34.376255
_cell_angle_alpha  90.004886
_cell_angle_beta   90.001678
_cell_angle_gamma 89.976977
loop_
_atom_site_label
_atom_site_type_symbol
_atom_site_fract_x
_atom_site_fract_y
_atom_site_fract_z
_atom_type_partial_charge
Co0 Co 0.08016 0.09634 0.10381 0.0
C1 C 0.07998 0.87682 0.10519 0.0
C2 C 0.06017 0.93702 0.15658 0.0
C3 C 0.05785 0.8356 0.15807 0.0
N4 N 0.07489 0.96299 0.1239 0.0
N5 N 0.07029 0.79796 0.12559 0.0
H6 H 0.0893 0.87136 0.07643 0.0
H7 H 0.05051 0.98809 0.17721 0.0
C8 C 0.09427 0.12776 0.18871 0.0
O9 O 0.11269 0.05225 0.18797 0.0
N10 N 0.08448 0.22869 0.0841 0.0
C11 C 0.09923 0.25761 0.05195 0.0
C12 C 0.09846 0.35935 0.0501 0.0
C13 C 0.07485 0.31228 0.10125 0.0
N14 N 0.08326 0.39342 0.08127 0.0
C15 C 0.13603 0.01507 0.07893 0.0
C16 C 0.17269 0.13114 0.12448 0.0
C17 C 0.18538 0.05562 0.10201 0.0
C18 C 0.16672 0.99908 0.07824 0.0
C19 C 0.14175 0.14562 0.12374 0.0
N20 N 0.12358 0.08279 0.10346 0.0
H21 H 0.12249 0.97426 0.05881 0.0
H22 H 0.13249 0.2073 0.13958 0.0
H23 H 0.11041 0.20838 0.03189 0.0
H24 H 0.0621 0.31371 0.12796 0.0
O25 O 0.07219 0.04929 0.05188 0.0
O26 O 0.03773 0.10141 0.09335 0.0
O27 O 0.07961 0.15238 0.15837 0.0
C28 C 0.04416 0.06523 0.05921 0.0
H29 H 0.04668 0.79332 0.18047 0.0
H30 H 0.10919 0.4047 0.02827 0.0
H31 H 0.18659 0.17956 0.14184 0.0
H32 H 0.17572 0.94234 0.05936 0.0
Co33 Co 0.41718 0.93252 0.10415 0.0
C34 C 0.41745 0.15205 0.10547 0.0
C35 C 0.43695 0.0919 0.15708 0.0
C36 C 0.43927 0.19332 0.15857 0.0
N37 N 0.42241 0.0659 0.12425 0.0
N38 N 0.42703 0.23092 0.12596 0.0
H39 H 0.40831 0.15747 0.07662 0.0
H40 H 0.44649 0.04087 0.17781 0.0
C41 C 0.40292 0.90082 0.18899 0.0
O42 O 0.38443 0.97615 0.18821 0.0
N43 N 0.4129 0.80015 0.08442 0.0
C44 C 0.39825 0.77121 0.05219 0.0
C45 C 0.39903 0.66947 0.05034 0.0
C46 C 0.4225 0.71658 0.1016 0.0
N47 N 0.41416 0.63542 0.08158 0.0
C48 C 0.36133 0.01397 0.07929 0.0
C49 C 0.32463 0.89724 0.12451 0.0
C50 C 0.31196 0.97296 0.10214 0.0
C51 C 0.33064 0.02985 0.07854 0.0
C52 C 0.35558 0.88289 0.12385 0.0
N53 N 0.37376 0.946 0.10372 0.0
H54 H 0.37489 0.05506 0.05929 0.0
H55 H 0.36485 0.8211 0.13962 0.0
H56 H 0.38712 0.82043 0.03209 0.0
H57 H 0.43519 0.71515 0.12837 0.0
O58 O 0.42519 0.97955 0.05223 0.0
O59 O 0.45962 0.9275 0.09374 0.0
O60 O 0.41768 0.87646 0.15871 0.0
C61 C 0.45322 0.96361 0.05959 0.0
H62 H 0.45031 0.23561 0.18108 0.0
H63 H 0.38838 0.6241 0.02846 0.0
H64 H 0.31072 0.84858 0.14174 0.0
H65 H 0.32166 0.08679 0.05973 0.0
Co66 Co 0.0801 0.43173 0.40233 0.0
C67 C 0.07989 0.65125 0.40097 0.0
C68 C 0.06011 0.59109 0.34955 0.0
C69 C 0.05779 0.69252 0.34806 0.0
N70 N 0.07481 0.56509 0.38226 0.0
N71 N 0.07021 0.73013 0.38056 0.0
H72 H 0.08919 0.65669 0.42974 0.0
H73 H 0.05047 0.54004 0.32891 0.0
C74 C 0.09426 0.40035 0.31744 0.0
O75 O 0.11268 0.47584 0.31819 0.0
N76 N 0.08445 0.29936 0.42203 0.0
C77 C 0.09918 0.2704 0.4542 0.0
C78 C 0.09841 0.16866 0.45604 0.0
C79 C 0.07482 0.2158 0.40488 0.0
N80 N 0.08322 0.13463 0.42486 0.0
C81 C 0.13593 0.51298 0.42734 0.0
C82 C 0.17268 0.39714 0.38179 0.0
C83 C 0.18532 0.47263 0.40431 0.0
C84 C 0.1666 0.52905 0.42807 0.0
C85 C 0.14173 0.3826 0.38247 0.0
N86 N 0.12352 0.44532 0.40276 0.0
H87 H 0.12235 0.5537 0.44746 0.0
H88 H 0.13251 0.32094 0.3666 0.0
H89 H 0.11035 0.3196 0.47426 0.0
H90 H 0.06207 0.2144 0.37816 0.0
O91 O 0.07207 0.47872 0.45426 0.0
O92 O 0.03766 0.42659 0.41273 0.0
O93 O 0.07961 0.37572 0.34777 0.0
C94 C 0.04405 0.46274 0.44689 0.0
H95 H 0.04664 0.73482 0.32564 0.0
H96 H 0.10913 0.12328 0.47788 0.0
H97 H 0.18661 0.3488 0.36443 0.0
H98 H 0.17556 0.58577 0.447 0.0
Co99 Co 0.41707 0.59655 0.40254 0.0
C100 C 0.41732 0.37702 0.40119 0.0
C101 C 0.43701 0.43715 0.34972 0.0
C102 C 0.43933 0.33572 0.34823 0.0
N103 N 0.42236 0.46317 0.38246 0.0
N104 N 0.42697 0.29813 0.38075 0.0
H105 H 0.40807 0.3716 0.42999 0.0
H106 H 0.44661 0.48818 0.32905 0.0
C107 C 0.40291 0.62806 0.31765 0.0
O108 O 0.38448 0.55262 0.31839 0.0
N109 N 0.41275 0.72892 0.42225 0.0
C110 C 0.39802 0.75791 0.45442 0.0
C111 C 0.3988 0.85964 0.45627 0.0
C112 C 0.42238 0.81247 0.40509 0.0
N113 N 0.41399 0.89365 0.42508 0.0
C114 C 0.36123 0.51525 0.42743 0.0
C115 C 0.32452 0.63139 0.38196 0.0
C116 C 0.31186 0.55581 0.4044 0.0
C117 C 0.33055 0.49922 0.42813 0.0
C118 C 0.35546 0.64589 0.38268 0.0
N119 N 0.37366 0.58303 0.40293 0.0
H120 H 0.37479 0.47439 0.44752 0.0
H121 H 0.3647 0.70759 0.36686 0.0
H122 H 0.38686 0.70871 0.47449 0.0
H123 H 0.43511 0.81386 0.37837 0.0
O124 O 0.42508 0.54954 0.45447 0.0
O125 O 0.45951 0.60159 0.41298 0.0
O126 O 0.41759 0.65257 0.34798 0.0
C127 C 0.45311 0.56545 0.44712 0.0
H128 H 0.45045 0.29341 0.32578 0.0
H129 H 0.3881 0.90504 0.47811 0.0
H130 H 0.3106 0.67985 0.36463 0.0
H131 H 0.32158 0.44241 0.44699 0.0
Co132 Co 0.91717 0.9305 0.90252 0.0
C133 C 0.91656 0.14982 0.90082 0.0
C134 C 0.9369 0.09044 0.84964 0.0
C135 C 0.93861 0.19207 0.84801 0.0
N136 N 0.92225 0.06383 0.88231 0.0
N137 N 0.92565 0.22911 0.88025 0.0
H138 H 0.90801 0.15509 0.93001 0.0
H139 H 0.94668 0.03976 0.82896 0.0
C140 C 0.90298 0.89896 0.81767 0.0
O141 O 0.88455 0.97446 0.81847 0.0
N142 N 0.9129 0.7983 0.92251 0.0
C143 C 0.89853 0.77081 0.95513 0.0
C144 C 0.89864 0.66917 0.95716 0.0
C145 C 0.92174 0.71377 0.90529 0.0
N146 N 0.91314 0.63341 0.92569 0.0
C147 C 0.8613 1.01141 0.92765 0.0
C148 C 0.82459 0.89558 0.88208 0.0
C149 C 0.81193 0.97107 0.90459 0.0
C150 C 0.83063 0.02749 0.92837 0.0
C151 C 0.85554 0.88107 0.88276 0.0
N152 N 0.87374 0.94383 0.90304 0.0
H153 H 0.87486 0.05212 0.94778 0.0
H154 H 0.86479 0.81945 0.86687 0.0
H155 H 0.88811 0.82107 0.97547 0.0
H156 H 0.9333 0.71105 0.87769 0.0
O157 O 0.92525 0.97801 0.95435 0.0
O158 O 0.95964 0.92573 0.91283 0.0
O159 O 0.91763 0.87423 0.848 0.0
C160 C 0.95327 0.9621 0.94695 0.0
H161 H 0.94895 0.23502 0.82514 0.0
H162 H 0.88856 0.62522 0.97993 0.0
H163 H 0.81068 0.84722 0.86472 0.0
H164 H 0.82166 0.08423 0.94728 0.0
Co165 Co 0.58021 0.09655 0.90267 0.0
C166 C 0.58081 0.87722 0.90096 0.0
C167 C 0.56018 0.93664 0.84998 0.0
C168 C 0.55847 0.835 0.84835 0.0
N169 N 0.575 0.96322 0.88253 0.0
N170 N 0.57161 0.79795 0.88046 0.0
H171 H 0.58954 0.87194 0.93006 0.0
H172 H 0.55029 0.98735 0.8294 0.0
C173 C 0.59425 0.12753 0.81775 0.0
O174 O 0.61257 0.05173 0.81852 0.0
N175 N 0.5846 0.22877 0.92259 0.0
C176 C 0.59908 0.25628 0.95512 0.0
C177 C 0.599 0.35793 0.95714 0.0
C178 C 0.5757 0.31328 0.90542 0.0
N179 N 0.58438 0.39365 0.92575 0.0
C180 C 0.63604 0.01557 0.92787 0.0
C181 C 0.67279 0.13035 0.88195 0.0
C182 C 0.68542 0.05508 0.90461 0.0
C183 C 0.66671 0.9992 0.92856 0.0
C184 C 0.64185 0.14515 0.88267 0.0
N185 N 0.62363 0.08286 0.90313 0.0
H186 H 0.62249 0.97531 0.94814 0.0
H187 H 0.63264 0.20666 0.86668 0.0
H188 H 0.60957 0.20604 0.97542 0.0
H189 H 0.56404 0.31595 0.87789 0.0
O190 O 0.57213 0.04926 0.95454 0.0
O191 O 0.53775 0.10172 0.91305 0.0
O192 O 0.57972 0.15266 0.84813 0.0
C193 C 0.54412 0.06542 0.94718 0.0
H194 H 0.54801 0.79206 0.82557 0.0
H195 H 0.60916 0.40191 0.97983 0.0
H196 H 0.68671 0.17834 0.86447 0.0
H197 H 0.67565 0.94269 0.94758 0.0
Co198 Co 0.91703 0.596 0.60377 0.0
C199 C 0.91722 0.37648 0.60514 0.0
C200 C 0.9372 0.43666 0.65643 0.0
C201 C 0.93952 0.33522 0.65791 0.0
N202 N 0.92238 0.46264 0.62381 0.0
N203 N 0.92698 0.29761 0.6255 0.0
H204 H 0.9078 0.37102 0.57645 0.0
H205 H 0.94691 0.48773 0.677 0.0
C206 C 0.90296 0.62711 0.6887 0.0
O207 O 0.88462 0.55145 0.68796 0.0
N208 N 0.91264 0.72836 0.58409 0.0
C209 C 0.89784 0.75732 0.55198 0.0
C210 C 0.89859 0.85905 0.55014 0.0
C211 C 0.92229 0.81192 0.60122 0.0
N212 N 0.91385 0.89309 0.58127 0.0
C213 C 0.86122 0.51476 0.57871 0.0
C214 C 0.82446 0.62998 0.6245 0.0
C215 C 0.81184 0.55463 0.60189 0.0
C216 C 0.83055 0.49854 0.57801 0.0
C217 C 0.8554 0.6447 0.62378 0.0
N218 N 0.87362 0.58225 0.60337 0.0
H219 H 0.87479 0.47431 0.5585 0.0
H220 H 0.8646 0.70629 0.63971 0.0
H221 H 0.88664 0.70811 0.53194 0.0
H222 H 0.93509 0.81331 0.62789 0.0
O223 O 0.92506 0.54907 0.55183 0.0
O224 O 0.95947 0.60128 0.59333 0.0
O225 O 0.91754 0.65195 0.65834 0.0
C226 C 0.95308 0.56513 0.55918 0.0
H227 H 0.95076 0.29293 0.68026 0.0
H228 H 0.88783 0.90443 0.52833 0.0
H229 H 0.81053 0.6781 0.64194 0.0
H230 H 0.8216 0.44197 0.55902 0.0
Co231 Co 0.58007 0.4311 0.60393 0.0
C232 C 0.57979 0.65063 0.60525 0.0
C233 C 0.56036 0.59054 0.6569 0.0
C234 C 0.55803 0.69196 0.65839 0.0
N235 N 0.57486 0.56449 0.62404 0.0
N236 N 0.57023 0.72954 0.62576 0.0
H237 H 0.58889 0.65603 0.57638 0.0
H238 H 0.55084 0.53953 0.67765 0.0
C239 C 0.59438 0.39929 0.68876 0.0
O240 O 0.61289 0.47451 0.68796 0.0
N241 N 0.58433 0.29873 0.58419 0.0
C242 C 0.59896 0.26974 0.55195 0.0
C243 C 0.59816 0.168 0.55009 0.0
C244 C 0.57473 0.21518 0.60138 0.0
N245 N 0.58306 0.134 0.58135 0.0
C246 C 0.63592 0.51245 0.57907 0.0
C247 C 0.67264 0.3956 0.62425 0.0
C248 C 0.6853 0.47137 0.6019 0.0
C249 C 0.6666 0.52833 0.57832 0.0
C250 C 0.64169 0.38127 0.62357 0.0
N251 N 0.62349 0.44444 0.60347 0.0
H252 H 0.62235 0.55361 0.55909 0.0
H253 H 0.63243 0.31947 0.63933 0.0
H254 H 0.61007 0.31893 0.53183 0.0
H255 H 0.56207 0.21378 0.62817 0.0
O256 O 0.57205 0.47819 0.55203 0.0
O257 O 0.53762 0.42625 0.59355 0.0
O258 O 0.57959 0.37502 0.65849 0.0
C259 C 0.54402 0.46239 0.5594 0.0
H260 H 0.54702 0.73428 0.68092 0.0
H261 H 0.6088 0.1226 0.5282 0.0
H262 H 0.68655 0.34689 0.64146 0.0
H263 H 0.67557 0.58532 0.55955 0.0
C264 C 0.2334 0.02552 0.13761 0.0
C265 C 0.21793 0.03662 0.10232 0.0
H266 H 0.27539 0.99463 0.16517 0.0
C267 C 0.23348 0.02526 0.06713 0.0
H268 H 0.22182 0.03305 0.16512 0.0
C269 C 0.26392 1.00361 0.06715 0.0
C270 C 0.2794 0.99184 0.10238 0.0
H271 H 0.2221 0.03378 0.03952 0.0
H272 H 0.27535 0.99546 0.03957 0.0
C273 C 0.26386 1.00248 0.13764 0.0
C274 C 0.26379 0.52503 0.4393 0.0
C275 C 0.27931 0.53675 0.4041 0.0
H276 H 0.22196 0.49476 0.46686 0.0
C277 C 0.26382 0.52593 0.36882 0.0
H278 H 0.27519 0.53333 0.46691 0.0
C279 C 0.23337 0.50276 0.36879 0.0
C280 C 0.21786 0.49172 0.40405 0.0
H281 H 0.27537 0.53373 0.34131 0.0
H282 H 0.22183 0.49512 0.34126 0.0
C283 C 0.23336 0.50324 0.43928 0.0
C284 C 0.76389 1.00217 0.93952 0.0
C285 C 0.77939 0.99023 0.90432 0.0
H286 H 0.7221 0.03288 0.96713 0.0
C287 C 0.76387 1.00102 0.86905 0.0
H288 H 0.7753 0.99388 0.96712 0.0
C289 C 0.73343 0.02439 0.86905 0.0
C290 C 0.71795 0.0357 0.90432 0.0
H291 H 0.7754 0.99306 0.84152 0.0
H292 H 0.72187 0.03201 0.84152 0.0
C293 C 0.73347 0.02419 0.93953 0.0
C294 C 0.73333 0.50238 0.56696 0.0
C295 C 0.71785 0.49031 0.60217 0.0
H296 H 0.77514 0.53297 0.53937 0.0
C297 C 0.73338 0.50076 0.63744 0.0
H298 H 0.72191 0.49437 0.53937 0.0
C299 C 0.76383 0.52395 0.63745 0.0
C300 C 0.7793 0.53539 0.60218 0.0
H301 H 0.72186 0.49268 0.66497 0.0
H302 H 0.7754 0.53134 0.66497 0.0
C303 C 0.76376 0.52419 0.56697 0.0
C304 C 0.02882 0.99814 0.9944 0.0
C305 C 0.02087 0.03991 0.03042 0.0
H306 H 0.01371 0.94043 0.93979 0.0
C307 C 0.99056 0.05517 0.03881 0.0
H308 H 0.05201 0.98517 0.9871 0.0
C309 C 0.96864 0.02925 0.01173 0.0
C310 C 0.97658 0.98749 0.9757 0.0
H311 H 0.98374 0.08694 0.06633 0.0
H312 H 0.94545 0.04218 0.01904 0.0
C313 C 0.00689 0.97223 0.9673 0.0
C314 C 0.50682 0.97325 0.03916 0.0
C315 C 0.47651 0.98872 0.03078 0.0
H316 H 0.55193 0.9857 0.01933 0.0
C317 C 0.46858 0.03039 0.99474 0.0
H318 H 0.51363 0.94155 0.06669 0.0
C319 C 0.49051 0.05595 0.96761 0.0
C320 C 0.52081 0.04042 0.97598 0.0
H321 H 0.44539 0.04352 0.98745 0.0
H322 H 0.4837 0.08766 0.94007 0.0
C323 C 0.52874 0.99882 0.01203 0.0
C324 C 0.99043 0.47229 0.4673 0.0
C325 C 0.02073 0.48793 0.47566 0.0
H326 H 0.94531 0.48475 0.48712 0.0
C327 C 0.02864 0.52991 0.51166 0.0
H328 H 0.98364 0.44032 0.43981 0.0
C329 C 0.00669 0.55565 0.53875 0.0
C330 C 0.9764 0.53999 0.53039 0.0
H331 H 0.05182 0.54318 0.51894 0.0
H332 H 0.01349 0.58761 0.56625 0.0
C333 C 0.96849 0.49803 0.4944 0.0
C334 C 0.50671 0.55564 0.46756 0.0
C335 C 0.47641 0.54016 0.47591 0.0
H336 H 0.55183 0.54288 0.48738 0.0
C337 C 0.46848 0.49821 0.5119 0.0
H338 H 0.51352 0.58759 0.44007 0.0
C339 C 0.49041 0.47231 0.53899 0.0
C340 C 0.52071 0.48777 0.53063 0.0
H341 H 0.44529 0.48507 0.51917 0.0
H342 H 0.48359 0.44036 0.56648 0.0
C343 C 0.52864 0.52974 0.49465 0.0
C344 C 0.12111 0.29884 0.26811 0.0
C345 C 0.09408 0.33315 0.28374 0.0
H346 H 0.14223 0.2035 0.22647 0.0
C347 C 0.06703 0.29767 0.26857 0.0
H348 H 0.14223 0.32424 0.27977 0.0
C349 C 0.06703 0.23071 0.23751 0.0
C350 C 0.09407 0.195 0.2224 0.0
H351 H 0.04594 0.32271 0.28045 0.0
H352 H 0.04594 0.20585 0.2256 0.0
C353 C 0.12111 0.22908 0.23808 0.0
C354 C 0.37607 0.72927 0.26822 0.0
C355 C 0.40311 0.6953 0.28396 0.0
H356 H 0.35495 0.82438 0.2265 0.0
C357 C 0.43016 0.73116 0.26893 0.0
H358 H 0.35495 0.70358 0.27977 0.0
C359 C 0.43016 0.79815 0.23788 0.0
C360 C 0.40311 0.83353 0.22266 0.0
H361 H 0.45125 0.70639 0.28089 0.0
H362 H 0.45125 0.82332 0.22608 0.0
C363 C 0.37607 0.79907 0.2382 0.0
C364 C 0.87612 0.79717 0.76848 0.0
C365 C 0.90316 0.8319 0.78393 0.0
H366 H 0.85501 0.70171 0.72689 0.0
C367 C 0.93021 0.79709 0.76852 0.0
H368 H 0.855 0.82209 0.78031 0.0
C369 C 0.93021 0.73035 0.73739 0.0
C370 C 0.90316 0.69419 0.72245 0.0
H371 H 0.9513 0.82249 0.78026 0.0
H372 H 0.95129 0.706 0.72529 0.0
C373 C 0.87613 0.72762 0.73837 0.0
C374 C 0.56706 0.23044 0.7689 0.0
C375 C 0.59409 0.19446 0.78397 0.0
H376 H 0.54601 0.32244 0.72593 0.0
C377 C 0.62114 0.22795 0.76814 0.0
H378 H 0.54596 0.206 0.78091 0.0
C379 C 0.62118 0.29746 0.73802 0.0
C380 C 0.59416 0.3321 0.72246 0.0
H381 H 0.64225 0.20213 0.77971 0.0
H382 H 0.64231 0.32245 0.72627 0.0
C383 C 0.56709 0.29714 0.73775 0.0
C384 C 0.07273 0.62052 0.14261 0.0
C385 C 0.07222 0.69543 0.11431 0.0
H386 H 0.07706 0.46609 0.1544 0.0
C387 C 0.07446 0.66862 0.07485 0.0
H388 H 0.07144 0.6385 0.17323 0.0
C389 C 0.07777 0.56973 0.06405 0.0
C390 C 0.07876 0.49508 0.09237 0.0
H391 H 0.07348 0.72383 0.05215 0.0
H392 H 0.07937 0.55166 0.03345 0.0
C393 C 0.07595 0.52154 0.13178 0.0
C394 C 0.42446 0.40836 0.14297 0.0
C395 C 0.42513 0.33345 0.11467 0.0
H396 H 0.42004 0.56278 0.15474 0.0
C397 C 0.42308 0.36027 0.0752 0.0
H398 H 0.42561 0.39038 0.17361 0.0
C399 C 0.41978 0.45915 0.06438 0.0
C400 C 0.41863 0.53379 0.0927 0.0
H401 H 0.42418 0.30507 0.0525 0.0
H402 H 0.41832 0.47724 0.03377 0.0
C403 C 0.42127 0.50733 0.13213 0.0
C404 C 0.07592 1.00652 0.37436 0.0
C405 C 0.07872 0.03299 0.41377 0.0
H406 H 0.07141 0.88956 0.33291 0.0
C407 C 0.07769 0.95835 0.44209 0.0
H408 H 0.07705 0.06196 0.35173 0.0
C409 C 0.07437 0.85947 0.43129 0.0
C410 C 0.07215 0.83266 0.39183 0.0
H411 H 0.07928 0.97644 0.47269 0.0
H412 H 0.07337 0.80428 0.45399 0.0
C413 C 0.07269 0.90755 0.36353 0.0
C414 C 0.41955 0.06993 0.44231 0.0
C415 C 0.41849 0.99528 0.41398 0.0
H416 H 0.42389 0.224 0.4542 0.0
C417 C 0.42124 0.02173 0.37457 0.0
H418 H 0.418 0.05185 0.4729 0.0
C419 C 0.42447 0.1207 0.36373 0.0
C420 C 0.42504 0.1956 0.39204 0.0
H421 H 0.42008 0.96629 0.35194 0.0
H422 H 0.42571 0.13867 0.33311 0.0
C423 C 0.42287 0.1688 0.4315 0.0
C424 C 0.89671 0.45912 0.92821 0.0
C425 C 0.91671 0.53121 0.91459 0.0
H426 H 0.8835 0.30762 0.92738 0.0
C427 C 0.93977 0.50204 0.88926 0.0
H428 H 0.87833 0.47888 0.94707 0.0
C429 C 0.94272 0.40326 0.87784 0.0
C430 C 0.92272 0.33131 0.89158 0.0
H431 H 0.9558 0.55526 0.87855 0.0
H432 H 0.96093 0.38315 0.85874 0.0
C433 C 0.89967 0.36061 0.91684 0.0
C434 C 0.55455 0.62377 0.87817 0.0
C435 C 0.57462 0.69573 0.89173 0.0
H436 H 0.54149 0.47176 0.87897 0.0
C437 C 0.59781 0.66644 0.91678 0.0
H438 H 0.53624 0.64388 0.85923 0.0
C439 C 0.60083 0.56793 0.92812 0.0
C440 C 0.58077 0.49584 0.91467 0.0
H441 H 0.61403 0.71943 0.92719 0.0
H442 H 0.61931 0.54817 0.94682 0.0
C443 C 0.55757 0.52499 0.88954 0.0
C444 C 0.9193 0.06938 0.56401 0.0
C445 C 0.91838 0.99474 0.59234 0.0
H446 H 0.92358 0.22346 0.55209 0.0
C447 C 0.9213 0.02121 0.63173 0.0
H448 H 0.91763 0.0513 0.53342 0.0
C449 C 0.92456 0.12018 0.64254 0.0
C450 C 0.92501 0.19508 0.61424 0.0
H451 H 0.92025 0.96577 0.65437 0.0
H452 H 0.92594 0.13817 0.67316 0.0
C453 C 0.92266 0.16826 0.57479 0.0
C454 C 0.57281 0.90697 0.64276 0.0
C455 C 0.57211 0.83206 0.61446 0.0
H456 H 0.57726 0.06137 0.65452 0.0
C457 C 0.57412 0.85887 0.57498 0.0
H458 H 0.5717 0.889 0.6734 0.0
C459 C 0.5774 0.95774 0.56415 0.0
C460 C 0.57859 0.03238 0.59247 0.0
H461 H 0.57299 0.80367 0.55229 0.0
H462 H 0.57883 0.97583 0.53355 0.0
C463 C 0.576 1.00593 0.6319 0.0
loop_
_geom_bond_atom_site_label_1
_geom_bond_atom_site_label_2
_geom_bond_distance
_geom_bond_site_symmetry_2
_ccdc_geom_bond_type
Co0 N4 2.148 1_545 S
Co0 N10 2.128 . S
Co0 N20 2.194 . S
Co0 O25 2.351 . S
Co0 O26 2.155 . S
Co0 O27 2.096 . S
C1 N4 1.301 . S
C1 N5 1.328 . S
C1 H6 0.930 . S
C2 C3 1.333 . S
C2 N4 1.317 . S
C2 H7 0.930 . S
C3 C2 1.333 . S
C3 N5 1.350 . S
C3 H29 0.931 . S
N4 Co0 2.148 1_565 S
N4 C1 1.301 . S
N4 C2 1.317 . S
N5 C1 1.328 . S
N5 C3 1.350 . S
H6 C1 0.930 . S
H7 C2 0.930 . S
C8 O9 1.224 . S
C8 O27 1.247 . S
O9 C8 1.224 . S
N10 Co0 2.128 . S
N10 C11 1.355 . S
N10 C13 1.311 . S
C11 N10 1.355 . S
C11 C12 1.363 . S
C11 H23 0.929 . S
C12 C11 1.363 . S
C12 N14 1.375 . S
C12 H30 0.931 . S
C13 N10 1.311 . S
C13 N14 1.347 . S
C13 H24 0.929 . S
N14 C12 1.375 . S
N14 C13 1.347 . S
C15 C18 1.365 . S
C15 N20 1.328 . S
C15 H21 0.929 . S
C16 C17 1.362 . S
C16 C19 1.378 . S
C16 H31 0.929 . S
C17 C16 1.362 . S
C17 C18 1.366 . S
C18 C15 1.365 . S
C18 C17 1.366 . S
C18 H32 0.930 1_545 S
C19 C16 1.378 . S
C19 N20 1.315 . S
C19 H22 0.930 . S
N20 Co0 2.194 . S
N20 C15 1.328 . S
N20 C19 1.315 . S
H21 C15 0.929 . S
H22 C19 0.930 . S
H23 C11 0.929 . S
H24 C13 0.929 . S
O25 Co0 2.351 . S
O25 C28 1.244 . S
O26 Co0 2.155 . S
O26 C28 1.240 . S
O27 Co0 2.096 . S
O27 C8 1.247 . S
C28 O25 1.244 . S
C28 O26 1.240 . S
H29 C3 0.931 . S
H30 C12 0.931 . S
H31 C16 0.929 . S
H32 C18 0.930 1_565 S
Co33 N37 2.148 1_565 S
Co33 N43 2.128 . S
Co33 N53 2.194 . S
Co33 O58 2.351 . S
Co33 O59 2.155 . S
Co33 O60 2.096 . S
C34 N37 1.301 . S
C34 N38 1.328 . S
C34 H39 0.930 . S
C35 C36 1.333 . S
C35 N37 1.317 . S
C35 H40 0.930 . S
C36 C35 1.333 . S
C36 N38 1.350 . S
C36 H62 0.931 . S
N37 Co33 2.148 1_545 S
N37 C34 1.301 . S
N37 C35 1.317 . S
N38 C34 1.328 . S
N38 C36 1.350 . S
H39 C34 0.930 . S
H40 C35 0.930 . S
C41 O42 1.224 . S
C41 O60 1.247 . S
O42 C41 1.224 . S
N43 Co33 2.128 . S
N43 C44 1.355 . S
N43 C46 1.311 . S
C44 N43 1.355 . S
C44 C45 1.363 . S
C44 H56 0.929 . S
C45 C44 1.363 . S
C45 N47 1.375 . S
C45 H63 0.931 . S
C46 N43 1.311 . S
C46 N47 1.347 . S
C46 H57 0.929 . S
N47 C45 1.375 . S
N47 C46 1.347 . S
C48 C51 1.365 . S
C48 N53 1.328 . S
C48 H54 0.929 . S
C49 C50 1.362 . S
C49 C52 1.378 . S
C49 H64 0.929 . S
C50 C49 1.362 . S
C50 C51 1.366 . S
C51 C48 1.365 . S
C51 C50 1.366 . S
C51 H65 0.930 1_565 S
C52 C49 1.378 . S
C52 N53 1.315 . S
C52 H55 0.930 . S
N53 Co33 2.194 . S
N53 C48 1.328 . S
N53 C52 1.315 . S
H54 C48 0.929 . S
H55 C52 0.930 . S
H56 C44 0.929 . S
H57 C46 0.929 . S
O58 Co33 2.351 . S
O58 C61 1.244 . S
O59 Co33 2.155 . S
O59 C61 1.240 . S
O60 Co33 2.096 . S
O60 C41 1.247 . S
C61 O58 1.244 . S
C61 O59 1.240 . S
H62 C36 0.931 . S
H63 C45 0.931 . S
H64 C49 0.929 . S
H65 C51 0.930 1_545 S
Co66 N70 2.148 . S
Co66 N76 2.128 . S
Co66 N86 2.194 . S
Co66 O91 2.351 . S
Co66 O92 2.155 . S
Co66 O93 2.096 . S
C67 N70 1.301 . S
C67 N71 1.328 . S
C67 H72 0.930 . S
C68 C69 1.333 . S
C68 N70 1.317 . S
C68 H73 0.930 . S
C69 C68 1.333 . S
C69 N71 1.350 . S
C69 H95 0.931 . S
N70 Co66 2.148 . S
N70 C67 1.301 . S
N70 C68 1.317 . S
N71 C67 1.328 . S
N71 C69 1.350 . S
H72 C67 0.930 . S
H73 C68 0.930 . S
C74 O75 1.224 . S
C74 O93 1.247 . S
O75 C74 1.224 . S
N76 Co66 2.128 . S
N76 C77 1.355 . S
N76 C79 1.311 . S
C77 N76 1.355 . S
C77 C78 1.363 . S
C77 H89 0.929 . S
C78 C77 1.363 . S
C78 N80 1.375 . S
C78 H96 0.931 . S
C79 N76 1.311 . S
C79 N80 1.347 . S
C79 H90 0.929 . S
N80 C78 1.375 . S
N80 C79 1.347 . S
C81 C84 1.365 . S
C81 N86 1.328 . S
C81 H87 0.929 . S
C82 C83 1.362 . S
C82 C85 1.378 . S
C82 H97 0.929 . S
C83 C82 1.362 . S
C83 C84 1.366 . S
C84 C81 1.365 . S
C84 C83 1.366 . S
C84 H98 0.930 . S
C85 C82 1.378 . S
C85 N86 1.315 . S
C85 H88 0.930 . S
N86 Co66 2.194 . S
N86 C81 1.328 . S
N86 C85 1.315 . S
H87 C81 0.929 . S
H88 C85 0.930 . S
H89 C77 0.929 . S
H90 C79 0.929 . S
O91 Co66 2.351 . S
O91 C94 1.244 . S
O92 Co66 2.155 . S
O92 C94 1.240 . S
O93 Co66 2.096 . S
O93 C74 1.247 . S
C94 O91 1.244 . S
C94 O92 1.240 . S
H95 C69 0.931 . S
H96 C78 0.931 . S
H97 C82 0.929 . S
H98 C84 0.930 . S
Co99 N103 2.148 . S
Co99 N109 2.128 . S
Co99 N119 2.194 . S
Co99 O124 2.351 . S
Co99 O125 2.155 . S
Co99 O126 2.096 . S
C100 N103 1.301 . S
C100 N104 1.328 . S
C100 H105 0.930 . S
C101 C102 1.333 . S
C101 N103 1.317 . S
C101 H106 0.930 . S
C102 C101 1.333 . S
C102 N104 1.350 . S
C102 H128 0.931 . S
N103 Co99 2.148 . S
N103 C100 1.301 . S
N103 C101 1.317 . S
N104 C100 1.328 . S
N104 C102 1.350 . S
H105 C100 0.930 . S
H106 C101 0.930 . S
C107 O108 1.224 . S
C107 O126 1.247 . S
O108 C107 1.224 . S
N109 Co99 2.128 . S
N109 C110 1.355 . S
N109 C112 1.311 . S
C110 N109 1.355 . S
C110 C111 1.363 . S
C110 H122 0.929 . S
C111 C110 1.363 . S
C111 N113 1.375 . S
C111 H129 0.931 . S
C112 N109 1.311 . S
C112 N113 1.347 . S
C112 H123 0.929 . S
N113 C111 1.375 . S
N113 C112 1.347 . S
C114 C117 1.365 . S
C114 N119 1.328 . S
C114 H120 0.929 . S
C115 C116 1.362 . S
C115 C118 1.378 . S
C115 H130 0.929 . S
C116 C115 1.362 . S
C116 C117 1.366 . S
C117 C114 1.365 . S
C117 C116 1.366 . S
C117 H131 0.930 . S
C118 C115 1.378 . S
C118 N119 1.315 . S
C118 H121 0.930 . S
N119 Co99 2.194 . S
N119 C114 1.328 . S
N119 C118 1.315 . S
H120 C114 0.929 . S
H121 C118 0.930 . S
H122 C110 0.929 . S
H123 C112 0.929 . S
O124 Co99 2.351 . S
O124 C127 1.244 . S
O125 Co99 2.155 . S
O125 C127 1.240 . S
O126 Co99 2.096 . S
O126 C107 1.247 . S
C127 O124 1.244 . S
C127 O125 1.240 . S
H128 C102 0.931 . S
H129 C111 0.931 . S
H130 C115 0.929 . S
H131 C117 0.930 . S
Co132 N136 2.148 1_565 S
Co132 N142 2.128 . S
Co132 N152 2.194 . S
Co132 O157 2.351 . S
Co132 O158 2.155 . S
Co132 O159 2.096 . S
C133 N136 1.301 . S
C133 N137 1.328 . S
C133 H138 0.930 . S
C134 C135 1.333 . S
C134 N136 1.317 . S
C134 H139 0.930 . S
C135 C134 1.333 . S
C135 N137 1.350 . S
C135 H161 0.931 . S
N136 Co132 2.148 1_545 S
N136 C133 1.301 . S
N136 C134 1.317 . S
N137 C133 1.328 . S
N137 C135 1.350 . S
H138 C133 0.930 . S
H139 C134 0.930 . S
C140 O141 1.224 . S
C140 O159 1.247 . S
O141 C140 1.224 . S
N142 Co132 2.128 . S
N142 C143 1.355 . S
N142 C145 1.311 . S
C143 N142 1.355 . S
C143 C144 1.363 . S
C143 H155 0.929 . S
C144 C143 1.363 . S
C144 N146 1.375 . S
C144 H162 0.931 . S
C145 N142 1.311 . S
C145 N146 1.347 . S
C145 H156 0.929 . S
N146 C144 1.375 . S
N146 C145 1.347 . S
C147 C150 1.365 . S
C147 N152 1.328 . S
C147 H153 0.929 . S
C148 C149 1.362 . S
C148 C151 1.378 . S
C148 H163 0.929 . S
C149 C148 1.362 . S
C149 C150 1.366 . S
C150 C147 1.365 . S
C150 C149 1.366 . S
C150 H164 0.930 1_565 S
C151 C148 1.378 . S
C151 N152 1.315 . S
C151 H154 0.930 . S
N152 Co132 2.194 . S
N152 C147 1.328 . S
N152 C151 1.315 . S
H153 C147 0.929 . S
H154 C151 0.930 . S
H155 C143 0.929 . S
H156 C145 0.929 . S
O157 Co132 2.351 . S
O157 C160 1.244 . S
O158 Co132 2.155 . S
O158 C160 1.240 . S
O159 Co132 2.096 . S
O159 C140 1.247 . S
C160 O157 1.244 . S
C160 O158 1.240 . S
H161 C135 0.931 . S
H162 C144 0.931 . S
H163 C148 0.929 . S
H164 C150 0.930 1_545 S
Co165 N169 2.148 1_545 S
Co165 N175 2.128 . S
Co165 N185 2.194 . S
Co165 O190 2.351 . S
Co165 O191 2.155 . S
Co165 O192 2.096 . S
C166 N169 1.301 . S
C166 N170 1.328 . S
C166 H171 0.930 . S
C167 C168 1.333 . S
C167 N169 1.317 . S
C167 H172 0.930 . S
C168 C167 1.333 . S
C168 N170 1.350 . S
C168 H194 0.931 . S
N169 Co165 2.148 1_565 S
N169 C166 1.301 . S
N169 C167 1.317 . S
N170 C166 1.328 . S
N170 C168 1.350 . S
H171 C166 0.930 . S
H172 C167 0.930 . S
C173 O174 1.224 . S
C173 O192 1.247 . S
O174 C173 1.224 . S
N175 Co165 2.128 . S
N175 C176 1.355 . S
N175 C178 1.311 . S
C176 N175 1.355 . S
C176 C177 1.363 . S
C176 H188 0.929 . S
C177 C176 1.363 . S
C177 N179 1.375 . S
C177 H195 0.931 . S
C178 N175 1.311 . S
C178 N179 1.347 . S
C178 H189 0.929 . S
N179 C177 1.375 . S
N179 C178 1.347 . S
C180 C183 1.365 . S
C180 N185 1.328 . S
C180 H186 0.929 . S
C181 C182 1.362 . S
C181 C184 1.378 . S
C181 H196 0.929 . S
C182 C181 1.362 . S
C182 C183 1.366 . S
C183 C180 1.365 . S
C183 C182 1.366 . S
C183 H197 0.930 1_545 S
C184 C181 1.378 . S
C184 N185 1.315 . S
C184 H187 0.930 . S
N185 Co165 2.194 . S
N185 C180 1.328 . S
N185 C184 1.315 . S
H186 C180 0.929 . S
H187 C184 0.930 . S
H188 C176 0.929 . S
H189 C178 0.929 . S
O190 Co165 2.351 . S
O190 C193 1.244 . S
O191 Co165 2.155 . S
O191 C193 1.240 . S
O192 Co165 2.096 . S
O192 C173 1.247 . S
C193 O190 1.244 . S
C193 O191 1.240 . S
H194 C168 0.931 . S
H195 C177 0.931 . S
H196 C181 0.929 . S
H197 C183 0.930 1_565 S
Co198 N202 2.148 . S
Co198 N208 2.128 . S
Co198 N218 2.194 . S
Co198 O223 2.351 . S
Co198 O224 2.155 . S
Co198 O225 2.096 . S
C199 N202 1.301 . S
C199 N203 1.328 . S
C199 H204 0.930 . S
C200 C201 1.333 . S
C200 N202 1.317 . S
C200 H205 0.930 . S
C201 C200 1.333 . S
C201 N203 1.350 . S
C201 H227 0.931 . S
N202 Co198 2.148 . S
N202 C199 1.301 . S
N202 C200 1.317 . S
N203 C199 1.328 . S
N203 C201 1.350 . S
H204 C199 0.930 . S
H205 C200 0.930 . S
C206 O207 1.224 . S
C206 O225 1.247 . S
O207 C206 1.224 . S
N208 Co198 2.128 . S
N208 C209 1.355 . S
N208 C211 1.311 . S
C209 N208 1.355 . S
C209 C210 1.363 . S
C209 H221 0.929 . S
C210 C209 1.363 . S
C210 N212 1.375 . S
C210 H228 0.931 . S
C211 N208 1.311 . S
C211 N212 1.347 . S
C211 H222 0.929 . S
N212 C210 1.375 . S
N212 C211 1.347 . S
C213 C216 1.365 . S
C213 N218 1.328 . S
C213 H219 0.929 . S
C214 C215 1.362 . S
C214 C217 1.378 . S
C214 H229 0.929 . S
C215 C214 1.362 . S
C215 C216 1.366 . S
C216 C213 1.365 . S
C216 C215 1.366 . S
C216 H230 0.930 . S
C217 C214 1.378 . S
C217 N218 1.315 . S
C217 H220 0.930 . S
N218 Co198 2.194 . S
N218 C213 1.328 . S
N218 C217 1.315 . S
H219 C213 0.929 . S
H220 C217 0.930 . S
H221 C209 0.929 . S
H222 C211 0.929 . S
O223 Co198 2.351 . S
O223 C226 1.244 . S
O224 Co198 2.155 . S
O224 C226 1.240 . S
O225 Co198 2.096 . S
O225 C206 1.247 . S
C226 O223 1.244 . S
C226 O224 1.240 . S
H227 C201 0.931 . S
H228 C210 0.931 . S
H229 C214 0.929 . S
H230 C216 0.930 . S
Co231 N235 2.148 . S
Co231 N241 2.128 . S
Co231 N251 2.194 . S
Co231 O256 2.351 . S
Co231 O257 2.155 . S
Co231 O258 2.096 . S
C232 N235 1.301 . S
C232 N236 1.328 . S
C232 H237 0.930 . S
C233 C234 1.333 . S
C233 N235 1.317 . S
C233 H238 0.930 . S
C234 C233 1.333 . S
C234 N236 1.350 . S
C234 H260 0.931 . S
N235 Co231 2.148 . S
N235 C232 1.301 . S
N235 C233 1.317 . S
N236 C232 1.328 . S
N236 C234 1.350 . S
H237 C232 0.930 . S
H238 C233 0.930 . S
C239 O240 1.224 . S
C239 O258 1.247 . S
O240 C239 1.224 . S
N241 Co231 2.128 . S
N241 C242 1.355 . S
N241 C244 1.311 . S
C242 N241 1.355 . S
C242 C243 1.363 . S
C242 H254 0.929 . S
C243 C242 1.363 . S
C243 N245 1.375 . S
C243 H261 0.931 . S
C244 N241 1.311 . S
C244 N245 1.347 . S
C244 H255 0.929 . S
N245 C243 1.375 . S
N245 C244 1.347 . S
C246 C249 1.365 . S
C246 N251 1.328 . S
C246 H252 0.929 . S
C247 C248 1.362 . S
C247 C250 1.378 . S
C247 H262 0.929 . S
C248 C247 1.362 . S
C248 C249 1.366 . S
C249 C246 1.365 . S
C249 C248 1.366 . S
C249 H263 0.930 . S
C250 C247 1.378 . S
C250 N251 1.315 . S
C250 H253 0.930 . S
N251 Co231 2.194 . S
N251 C246 1.328 . S
N251 C250 1.315 . S
H252 C246 0.929 . S
H253 C250 0.930 . S
H254 C242 0.929 . S
H255 C244 0.929 . S
O256 Co231 2.351 . S
O256 C259 1.244 . S
O257 Co231 2.155 . S
O257 C259 1.240 . S
O258 Co231 2.096 . S
O258 C239 1.247 . S
C259 O256 1.244 . S
C259 O257 1.240 . S
H260 C234 0.931 . S
H261 C243 0.931 . S
H262 C247 0.929 . S
H263 C249 0.930 . S
C264 C265 1.387 . S
C264 H268 0.950 . S
C264 C273 1.390 1_545 S
C265 C264 1.387 . S
C265 C267 1.387 . S
H266 C273 0.950 . S
C267 C265 1.387 . S
C267 C269 1.390 1_545 S
C267 H271 0.950 . S
H268 C264 0.950 . S
C269 C267 1.390 1_565 S
C269 C270 1.387 . S
C269 H272 0.950 . S
C270 C269 1.387 . S
C270 C273 1.387 . S
H271 C267 0.950 . S
H272 C269 0.950 . S
C273 C264 1.390 1_565 S
C273 H266 0.950 . S
C273 C270 1.387 . S
C274 C275 1.387 . S
C274 H278 0.950 . S
C274 C283 1.390 . S
C275 C274 1.387 . S
C275 C277 1.387 . S
H276 C283 0.950 . S
C277 C275 1.387 . S
C277 C279 1.390 . S
C277 H281 0.950 . S
H278 C274 0.950 . S
C279 C277 1.390 . S
C279 C280 1.387 . S
C279 H282 0.950 . S
C280 C279 1.387 . S
C280 C283 1.387 . S
H281 C277 0.950 . S
H282 C279 0.950 . S
C283 C274 1.390 . S
C283 H276 0.950 . S
C283 C280 1.387 . S
C284 C285 1.387 . S
C284 H288 0.950 . S
C284 C293 1.390 1_565 S
C285 C284 1.387 . S
C285 C287 1.387 . S
H286 C293 0.950 . S
C287 C285 1.387 . S
C287 C289 1.390 1_565 S
C287 H291 0.950 . S
H288 C284 0.950 . S
C289 C287 1.390 1_545 S
C289 C290 1.387 . S
C289 H292 0.950 . S
C290 C289 1.387 . S
C290 C293 1.387 . S
H291 C287 0.950 . S
H292 C289 0.950 . S
C293 C284 1.390 1_545 S
C293 H286 0.950 . S
C293 C290 1.387 . S
C294 C295 1.387 . S
C294 H298 0.950 . S
C294 C303 1.390 . S
C295 C294 1.387 . S
C295 C297 1.387 . S
H296 C303 0.950 . S
C297 C295 1.387 . S
C297 C299 1.390 . S
C297 H301 0.950 . S
H298 C294 0.950 . S
C299 C297 1.390 . S
C299 C300 1.387 . S
C299 H302 0.950 . S
C300 C299 1.387 . S
C300 C303 1.387 . S
H301 C297 0.950 . S
H302 C299 0.950 . S
C303 C294 1.390 . S
C303 H296 0.950 . S
C303 C300 1.387 . S
C304 C305 1.387 1_556 S
C304 H308 0.950 . S
C304 C313 1.390 1_455 S
C305 C304 1.387 1_554 S
C305 C307 1.387 1_545 S
H306 C313 0.950 . S
C307 C305 1.387 1_565 S
C307 C309 1.390 1_455 S
C307 H311 0.950 . S
H308 C304 0.950 . S
C309 C307 1.390 1_655 S
C309 C310 1.387 1_554 S
C309 H312 0.950 . S
C310 C309 1.387 1_556 S
C310 C313 1.387 1_565 S
H311 C307 0.950 . S
H312 C309 0.950 . S
C313 C304 1.390 1_655 S
C313 H306 0.950 . S
C313 C310 1.387 1_545 S
C314 C315 1.387 1_545 S
C314 H318 0.950 . S
C314 C323 1.390 . S
C315 C314 1.387 1_565 S
C315 C317 1.387 1_554 S
H316 C323 0.950 . S
C317 C315 1.387 1_556 S
C317 C319 1.390 . S
C317 H321 0.950 . S
H318 C314 0.950 . S
C319 C317 1.390 . S
C319 C320 1.387 1_565 S
C319 H322 0.950 . S
C320 C319 1.387 1_545 S
C320 C323 1.387 1_556 S
H321 C317 0.950 . S
H322 C319 0.950 . S
C323 C314 1.390 . S
C323 H316 0.950 . S
C323 C320 1.387 1_554 S
C324 C325 1.387 1_655 S
C324 H328 0.950 . S
C324 C333 1.390 . S
C325 C324 1.387 1_455 S
C325 C327 1.387 . S
H326 C333 0.950 . S
C327 C325 1.387 . S
C327 C329 1.390 . S
C327 H331 0.950 . S
H328 C324 0.950 . S
C329 C327 1.390 . S
C329 C330 1.387 1_455 S
C329 H332 0.950 . S
C330 C329 1.387 1_655 S
C330 C333 1.387 . S
H331 C327 0.950 . S
H332 C329 0.950 . S
C333 C324 1.390 . S
C333 H326 0.950 . S
C333 C330 1.387 . S
C334 C335 1.387 . S
C334 H338 0.950 . S
C334 C343 1.390 . S
C335 C334 1.387 . S
C335 C337 1.387 . S
H336 C343 0.950 . S
C337 C335 1.387 . S
C337 C339 1.390 . S
C337 H341 0.950 . S
H338 C334 0.950 . S
C339 C337 1.390 . S
C339 C340 1.387 . S
C339 H342 0.950 . S
C340 C339 1.387 . S
C340 C343 1.387 . S
H341 C337 0.950 . S
H342 C339 0.950 . S
C343 C334 1.390 . S
C343 H336 0.950 . S
C343 C340 1.387 . S
C344 C345 1.387 . S
C344 H348 0.950 . S
C344 C353 1.390 . S
C345 C344 1.387 . S
C345 C347 1.387 . S
H346 C353 0.950 . S
C347 C345 1.387 . S
C347 C349 1.390 . S
C347 H351 0.950 . S
H348 C344 0.950 . S
C349 C347 1.390 . S
C349 C350 1.387 . S
C349 H352 0.950 . S
C350 C349 1.387 . S
C350 C353 1.387 . S
H351 C347 0.950 . S
H352 C349 0.950 . S
C353 C344 1.390 . S
C353 H346 0.950 . S
C353 C350 1.387 . S
C354 C355 1.387 . S
C354 H358 0.950 . S
C354 C363 1.390 . S
C355 C354 1.387 . S
C355 C357 1.387 . S
H356 C363 0.950 . S
C357 C355 1.387 . S
C357 C359 1.390 . S
C357 H361 0.950 . S
H358 C354 0.950 . S
C359 C357 1.390 . S
C359 C360 1.387 . S
C359 H362 0.950 . S
C360 C359 1.387 . S
C360 C363 1.387 . S
H361 C357 0.950 . S
H362 C359 0.950 . S
C363 C354 1.390 . S
C363 H356 0.950 . S
C363 C360 1.387 . S
C364 C365 1.387 . S
C364 H368 0.950 . S
C364 C373 1.390 . S
C365 C364 1.387 . S
C365 C367 1.387 . S
H366 C373 0.950 . S
C367 C365 1.387 . S
C367 C369 1.390 . S
C367 H371 0.950 . S
H368 C364 0.950 . S
C369 C367 1.390 . S
C369 C370 1.387 . S
C369 H372 0.950 . S
C370 C369 1.387 . S
C370 C373 1.387 . S
H371 C367 0.950 . S
H372 C369 0.950 . S
C373 C364 1.390 . S
C373 H366 0.950 . S
C373 C370 1.387 . S
C374 C375 1.387 . S
C374 H378 0.950 . S
C374 C383 1.390 . S
C375 C374 1.387 . S
C375 C377 1.387 . S
H376 C383 0.950 . S
C377 C375 1.387 . S
C377 C379 1.390 . S
C377 H381 0.950 . S
H378 C374 0.950 . S
C379 C377 1.390 . S
C379 C380 1.387 . S
C379 H382 0.950 . S
C380 C379 1.387 . S
C380 C383 1.387 . S
H381 C377 0.950 . S
H382 C379 0.950 . S
C383 C374 1.390 . S
C383 H376 0.950 . S
C383 C380 1.387 . S
C384 C385 1.387 . S
C384 H388 0.950 . S
C384 C393 1.390 . S
C385 C384 1.387 . S
C385 C387 1.387 . S
H386 C393 0.950 . S
C387 C385 1.387 . S
C387 C389 1.390 . S
C387 H391 0.950 . S
H388 C384 0.950 . S
C389 C387 1.390 . S
C389 C390 1.387 . S
C389 H392 0.950 . S
C390 C389 1.387 . S
C390 C393 1.387 . S
H391 C387 0.950 . S
H392 C389 0.950 . S
C393 C384 1.390 . S
C393 H386 0.950 . S
C393 C390 1.387 . S
C394 C395 1.387 . S
C394 H398 0.950 . S
C394 C403 1.390 . S
C395 C394 1.387 . S
C395 C397 1.387 . S
H396 C403 0.950 . S
C397 C395 1.387 . S
C397 C399 1.390 . S
C397 H401 0.950 . S
H398 C394 0.950 . S
C399 C397 1.390 . S
C399 C400 1.387 . S
C399 H402 0.950 . S
C400 C399 1.387 . S
C400 C403 1.387 . S
H401 C397 0.950 . S
H402 C399 0.950 . S
C403 C394 1.390 . S
C403 H396 0.950 . S
C403 C400 1.387 . S
C404 C405 1.387 1_565 S
C404 H408 0.950 1_565 S
C404 C413 1.390 . S
C405 C404 1.387 1_545 S
C405 C407 1.387 1_545 S
H406 C413 0.950 . S
C407 C405 1.387 1_565 S
C407 C409 1.390 . S
C407 H411 0.950 . S
H408 C404 0.950 1_545 S
C409 C407 1.390 . S
C409 C410 1.387 . S
C409 H412 0.950 . S
C410 C409 1.387 . S
C410 C413 1.387 . S
H411 C407 0.950 . S
H412 C409 0.950 . S
C413 C404 1.390 . S
C413 H406 0.950 . S
C413 C410 1.387 . S
C414 C415 1.387 1_545 S
C414 H418 0.950 . S
C414 C423 1.390 . S
C415 C414 1.387 1_565 S
C415 C417 1.387 1_565 S
H416 C423 0.950 . S
C417 C415 1.387 1_545 S
C417 C419 1.390 . S
C417 H421 0.950 1_545 S
H418 C414 0.950 . S
C419 C417 1.390 . S
C419 C420 1.387 . S
C419 H422 0.950 . S
C420 C419 1.387 . S
C420 C423 1.387 . S
H421 C417 0.950 1_565 S
H422 C419 0.950 . S
C423 C414 1.390 . S
C423 H416 0.950 . S
C423 C420 1.387 . S
C424 C425 1.387 . S
C424 H428 0.950 . S
C424 C433 1.390 . S
C425 C424 1.387 . S
C425 C427 1.387 . S
H426 C433 0.950 . S
C427 C425 1.387 . S
C427 C429 1.390 . S
C427 H431 0.950 . S
H428 C424 0.950 . S
C429 C427 1.390 . S
C429 C430 1.387 . S
C429 H432 0.950 . S
C430 C429 1.387 . S
C430 C433 1.387 . S
H431 C427 0.950 . S
H432 C429 0.950 . S
C433 C424 1.390 . S
C433 H426 0.950 . S
C433 C430 1.387 . S
C434 C435 1.387 . S
C434 H438 0.950 . S
C434 C443 1.390 . S
C435 C434 1.387 . S
C435 C437 1.387 . S
H436 C443 0.950 . S
C437 C435 1.387 . S
C437 C439 1.390 . S
C437 H441 0.950 . S
H438 C434 0.950 . S
C439 C437 1.390 . S
C439 C440 1.387 . S
C439 H442 0.950 . S
C440 C439 1.387 . S
C440 C443 1.387 . S
H441 C437 0.950 . S
H442 C439 0.950 . S
C443 C434 1.390 . S
C443 H436 0.950 . S
C443 C440 1.387 . S
C444 C445 1.387 1_545 S
C444 H448 0.950 . S
C444 C453 1.390 . S
C445 C444 1.387 1_565 S
C445 C447 1.387 1_565 S
H446 C453 0.950 . S
C447 C445 1.387 1_545 S
C447 C449 1.390 . S
C447 H451 0.950 1_545 S
H448 C444 0.950 . S
C449 C447 1.390 . S
C449 C450 1.387 . S
C449 H452 0.950 . S
C450 C449 1.387 . S
C450 C453 1.387 . S
H451 C447 0.950 1_565 S
H452 C449 0.950 . S
C453 C444 1.390 . S
C453 H446 0.950 . S
C453 C450 1.387 . S
C454 C455 1.387 . S
C454 H458 0.950 . S
C454 C463 1.390 . S
C455 C454 1.387 . S
C455 C457 1.387 . S
H456 C463 0.950 . S
C457 C455 1.387 . S
C457 C459 1.390 . S
C457 H461 0.950 . S
H458 C454 0.950 . S
C459 C457 1.390 . S
C459 C460 1.387 1_565 S
C459 H462 0.950 . S
C460 C459 1.387 1_545 S
C460 C463 1.387 1_545 S
H461 C457 0.950 . S
H462 C459 0.950 . S
C463 C454 1.390 . S
C463 H456 0.950 . S
C463 C460 1.387 1_565 S
C265 C17 1.543 . S
C270 C50 1.543 . S
C275 C116 1.541 . S
C280 C83 1.541 . S
C285 C149 1.543 . S
C290 C182 1.543 . S
C295 C248 1.543 . S
C300 C215 1.543 . S
C305 C28 1.164 . S
C310 C160 1.164 . S
C315 C61 1.165 . S
C320 C193 1.165 . S
C325 C94 1.164 . S
C330 C226 1.164 . S
C335 C127 1.165 . S
C340 C259 1.165 . S
C345 C74 1.489 . S
C350 C8 1.489 . S
C355 C107 1.489 . S
C360 C41 1.489 . S
C365 C140 1.487 . S
C370 C206 1.487 . S
C375 C173 1.489 . S
C380 C239 1.489 . S
C385 N5 1.447 . S
C390 N14 1.449 . S
C395 N38 1.447 . S
C400 N47 1.449 . S
C405 N80 1.449 . S
C410 N71 1.447 . S
C415 N113 1.449 . S
C420 N104 1.448 . S
C425 N146 1.449 . S
C430 N137 1.447 . S
C435 N170 1.448 . S
C440 N179 1.450 . S
C445 N212 1.449 . S
C450 N203 1.447 . S
C455 N236 1.448 . S
C460 N245 1.449 . S
