# Generated by pormake.
# Topology unc, (4)-cn, num edge types: 1
# Building blocks:
#     Node 0, Type 0, BuildingBlock: UXUYUI_clean_sbu_0, # of connection points: 4
#     Node 1, Type 0, BuildingBlock: UXUYUI_clean_sbu_0, # of connection points: 4
#     Node 2, Type 0, BuildingBlock: UXUYUI_clean_sbu_0, # of connection points: 4
#     Node 3, Type 0, BuildingBlock: UXUYUI_clean_sbu_0, # of connection points: 4
#     Edge 4, Type (0, 0), BuildingBlock: XUDNAN_clean_linker_2, # of connection points: 2
#     Edge 5, Type (0, 0), BuildingBlock: XUDNAN_clean_linker_2, # of connection points: 2
#     Edge 6, Type (0, 0), BuildingBlock: XUDNAN_clean_linker_2, # of connection points: 2
#     Edge 7, Type (0, 0), BuildingBlock: XUDNAN_clean_linker_2, # of connection points: 2
#     Edge 8, Type (0, 0), BuildingBlock: XUDNAN_clean_linker_2, # of connection points: 2
#     Edge 9, Type (0, 0), BuildingBlock: XUDNAN_clean_linker_2, # of connection points: 2
#     Edge 10, Type (0, 0), BuildingBlock: XUDNAN_clean_linker_2, # of connection points: 2
#     Edge 11, Type (0, 0), BuildingBlock: XUDNAN_clean_linker_2, # of connection points: 2
# Relax obj value: 0.184
# Max RMSD: 0.213
# Mean RMSD: 0.213
data_MOF--net-unc--node1-UXUYUI_clean_sbu_0--edge1-XUDNAN_clean_linker_2
_symmetry_space_group_name_H-M    P1
_symmetry_Int_Tables_number       1
_symmetry_cell_setting            triclinic
loop_
_symmetry_equiv_pos_as_xyz
'x, y, z'
_cell_length_a     43.155993
_cell_length_b     43.154225
_cell_length_c     32.59791
_cell_angle_alpha  90.030678
_cell_angle_beta   90.020269
_cell_angle_gamma 89.99831
loop_
_atom_site_label
_atom_site_type_symbol
_atom_site_fract_x
_atom_site_fract_y
_atom_site_fract_z
_atom_type_partial_charge
Li0 Li 0.0159 0.68254 0.02223 0.0
Li1 Li 0.98432 0.63735 0.04164 0.0
Li2 Li 0.00669 0.64212 0.97462 0.0
Li3 Li 0.96541 0.67658 0.99141 0.0
C4 C 0.05515 0.62446 0.01489 0.0
N5 N 0.10722 0.59485 0.98499 0.0
C6 C 0.05725 0.59216 0.01631 0.0
C7 C 0.07957 0.64172 0.99843 0.0
C8 C 0.08375 0.57762 0.00096 0.0
C9 C 0.1057 0.62631 0.98347 0.0
C10 C 0.98104 0.70035 0.08386 0.0
C11 C 0.97779 0.74916 0.1197 0.0
N12 N 0.99686 0.73786 0.14936 0.0
C13 C 0.00051 0.68918 0.1148 0.0
C14 C 0.96948 0.73054 0.08638 0.0
C15 C 0.00825 0.7085 0.14764 0.0
C16 C 0.03913 0.7429 0.03067 0.0
N17 N 0.04384 0.7131 0.0425 0.0
C18 C 0.08432 0.72871 0.08814 0.0
C19 C 0.06617 0.70555 0.0702 0.0
C20 C 0.07945 0.75988 0.07737 0.0
C21 C 0.0568 0.76675 0.04769 0.0
H22 H 0.02108 0.74816 0.00871 0.0
H23 H 0.06913 0.68165 0.07938 0.0
C24 C 0.97526 0.57784 0.07135 0.0
N25 N 0.97264 0.60808 0.08241 0.0
C26 C 0.96733 0.5544 0.09885 0.0
C27 C 0.9536 0.59365 0.14857 0.0
C28 C 0.96156 0.61638 0.11989 0.0
C29 C 0.95655 0.56219 0.13817 0.0
H30 H 0.98348 0.57196 0.04099 0.0
H31 H 0.95871 0.64057 0.12751 0.0
C32 C 0.99931 0.69332 0.92359 0.0
N33 N 0.98744 0.70615 0.84204 0.0
C34 C 0.98046 0.67356 0.90049 0.0
C35 C 0.01212 0.7196 0.90519 0.0
C36 C 0.97473 0.68045 0.85932 0.0
C37 C 0.00585 0.72569 0.86392 0.0
C38 C 0.9343 0.61969 0.99489 0.0
C39 C 0.9223 0.59531 0.97151 0.0
C40 C 0.91599 0.63318 0.02548 0.0
C41 C 0.89222 0.58483 0.97911 0.0
C42 C 0.88604 0.62202 0.03216 0.0
N43 N 0.87487 0.59828 0.00903 0.0
C44 C 0.00997 0.58987 0.92422 0.0
C45 C 0.04601 0.62885 0.90581 0.0
C46 C 0.01839 0.57208 0.8903 0.0
N47 N 0.02334 0.6179 0.93085 0.0
C48 C 0.05555 0.61157 0.8718 0.0
C49 C 0.04125 0.58297 0.86311 0.0
H50 H 0.99211 0.58172 0.94476 0.0
H51 H 0.05624 0.65128 0.91181 0.0
C52 C 0.9296 0.72985 0.97345 0.0
N53 N 0.93093 0.6986 0.96841 0.0
C54 C 0.90696 0.74727 0.95318 0.0
C55 C 0.88758 0.70005 0.92273 0.0
C56 C 0.91046 0.68359 0.94362 0.0
C57 C 0.88587 0.73238 0.92691 0.0
H58 H 0.94693 0.74141 0.99185 0.0
H59 H 0.91257 0.65899 0.93854 0.0
O60 O 0.02908 0.63911 0.02876 0.0
O61 O 0.97404 0.68206 0.05082 0.0
O62 O 0.00515 0.68736 0.9641 0.0
O63 O 0.96387 0.62992 0.98782 0.0
H64 H 0.03856 0.57846 0.02886 0.0
H65 H 0.07815 0.66671 0.99663 0.0
H66 H 0.08564 0.55263 0.00168 0.0
H67 H 0.12469 0.63936 0.97043 0.0
H68 H 0.96911 0.77261 0.12195 0.0
H69 H 0.01006 0.66603 0.11301 0.0
H70 H 0.9543 0.73955 0.0629 0.0
H71 H 0.02349 0.70023 0.1716 0.0
H72 H 0.10121 0.72233 0.11121 0.0
H73 H 0.05255 0.79035 0.03793 0.0
H74 H 0.97011 0.53044 0.08966 0.0
H75 H 0.94491 0.60059 0.17836 0.0
H76 H 0.97027 0.65313 0.9141 0.0
H77 H 0.02671 0.73516 0.92269 0.0
H78 H 0.96016 0.66536 0.84112 0.0
H79 H 0.0156 0.74596 0.8493 0.0
H80 H 0.93602 0.58464 0.94759 0.0
H81 H 0.92465 0.65205 0.04396 0.0
H82 H 0.88267 0.566 0.9612 0.0
H83 H 0.87166 0.63224 0.05574 0.0
H84 H 0.00621 0.55056 0.8848 0.0
H85 H 0.07365 0.62075 0.8523 0.0
H86 H 0.90685 0.77224 0.9566 0.0
H87 H 0.87176 0.68764 0.90283 0.0
Li88 Li 0.35299 0.98665 0.28047 0.0
Li89 Li 0.31344 0.0259 0.26176 0.0
Li90 Li 0.3083 0.97192 0.24051 0.0
Li91 Li 0.34769 0.00312 0.21102 0.0
C92 C 0.30485 0.99728 0.33746 0.0
N93 N 0.29734 0.01574 0.41803 0.0
C94 C 0.32227 0.02192 0.35314 0.0
C95 C 0.28357 0.9821 0.36272 0.0
C96 C 0.31814 0.03089 0.39395 0.0
C97 C 0.28014 0.99174 0.40339 0.0
C98 C 0.37597 0.05191 0.24074 0.0
C99 C 0.37899 0.09683 0.19689 0.0
N100 N 0.41036 0.09674 0.20087 0.0
C101 C 0.40823 0.05235 0.24455 0.0
C102 C 0.3612 0.07436 0.2168 0.0
C103 C 0.4252 0.07517 0.2241 0.0
C104 C 0.41319 0.97629 0.3027 0.0
N105 N 0.38431 0.97568 0.31915 0.0
C106 C 0.40535 0.96948 0.38653 0.0
C107 C 0.37989 0.97087 0.35999 0.0
C108 C 0.43546 0.97279 0.37065 0.0
C109 C 0.43921 0.97487 0.32794 0.0
H110 H 0.41595 0.97938 0.26998 0.0
H111 H 0.35674 0.96948 0.37237 0.0
C112 C 0.25986 0.05986 0.28137 0.0
N113 N 0.2913 0.0614 0.28015 0.0
C114 C 0.24264 0.08487 0.29626 0.0
C115 C 0.2905 0.11262 0.30801 0.0
C116 C 0.30679 0.08695 0.29342 0.0
C117 C 0.25801 0.11173 0.30962 0.0
H118 H 0.24822 0.03906 0.27104 0.0
H119 H 0.33183 0.08727 0.29321 0.0
C120 C 0.35649 0.92997 0.24229 0.0
N121 N 0.36523 0.86894 0.26515 0.0
C122 C 0.37469 0.91033 0.21819 0.0
C123 C 0.34274 0.91857 0.27808 0.0
C124 C 0.37882 0.87955 0.23024 0.0
C125 C 0.34744 0.88765 0.28909 0.0
C126 C 0.28984 0.00233 0.16981 0.0
C127 C 0.30422 0.98035 0.14471 0.0
C128 C 0.26207 0.01598 0.15723 0.0
C129 C 0.29056 0.97243 0.1073 0.0
C130 C 0.24913 0.00744 0.11958 0.0
N131 N 0.26353 0.98602 0.09561 0.0
C132 C 0.24992 0.94412 0.24823 0.0
C133 C 0.28246 0.91971 0.1994 0.0
C134 C 0.22511 0.92522 0.23684 0.0
N135 N 0.2777 0.94139 0.22901 0.0
C136 C 0.25819 0.90053 0.18672 0.0
C137 C 0.22878 0.90356 0.20491 0.0
H138 H 0.24678 0.96172 0.27152 0.0
H139 H 0.30473 0.9182 0.18434 0.0
C140 C 0.40045 0.9974 0.16276 0.0
N141 N 0.37233 0.01149 0.16379 0.0
C142 C 0.4211 0.00353 0.1309 0.0
C143 C 0.38334 0.03845 0.10146 0.0
C144 C 0.36333 0.03155 0.13391 0.0
C145 C 0.41273 0.02445 0.0998 0.0
H146 H 0.40706 0.98184 0.18726 0.0
H147 H 0.34088 0.04261 0.13569 0.0
O148 O 0.30794 0.98833 0.2974 0.0
O149 O 0.35893 0.02924 0.25952 0.0
O150 O 0.35231 0.96012 0.23054 0.0
O151 O 0.30245 0.01019 0.20688 0.0
H152 H 0.33899 0.03386 0.33422 0.0
H153 H 0.26983 0.96307 0.35098 0.0
H154 H 0.3315 0.04987 0.4065 0.0
H155 H 0.26377 0.98018 0.4233 0.0
H156 H 0.36787 0.1142 0.17805 0.0
H157 H 0.42008 0.03529 0.26303 0.0
H158 H 0.33629 0.0741 0.21303 0.0
H159 H 0.45019 0.07573 0.22667 0.0
H160 H 0.4014 0.96766 0.41924 0.0
H161 H 0.46201 0.97662 0.31426 0.0
H162 H 0.21759 0.08338 0.29691 0.0
H163 H 0.3032 0.13274 0.31864 0.0
H164 H 0.38547 0.91882 0.19039 0.0
H165 H 0.32858 0.9333 0.29721 0.0
H166 H 0.39284 0.86409 0.21185 0.0
H167 H 0.33694 0.87852 0.31669 0.0
H168 H 0.32556 0.9693 0.15413 0.0
H169 H 0.25059 0.03293 0.17644 0.0
H170 H 0.3014 0.9554 0.08762 0.0
H171 H 0.22763 0.0178 0.10945 0.0
H172 H 0.2031 0.92802 0.25234 0.0
H173 H 0.26213 0.88452 0.16169 0.0
H174 H 0.44368 0.99258 0.13118 0.0
H175 H 0.37588 0.05452 0.07794 0.0
Li176 Li 0.01479 0.36099 0.53784 0.0
Li177 Li 0.98139 0.31643 0.52931 0.0
Li178 Li 0.03394 0.3189 0.49259 0.0
Li179 Li 0.99091 0.35275 0.47347 0.0
C180 C 0.03817 0.32082 0.58926 0.0
N181 N 0.06653 0.33199 0.66374 0.0
C182 C 0.0211 0.31889 0.62558 0.0
C183 C 0.06967 0.32821 0.59074 0.0
C184 C 0.03587 0.32466 0.66296 0.0
C185 C 0.08358 0.33384 0.62873 0.0
C186 C 0.93853 0.3642 0.52276 0.0
C187 C 0.89054 0.35078 0.48926 0.0
N188 N 0.87504 0.37011 0.51505 0.0
C189 C 0.92217 0.38405 0.54881 0.0
C190 C 0.92263 0.34751 0.49264 0.0
C191 C 0.89006 0.38667 0.54448 0.0
C192 C 0.05315 0.40828 0.57127 0.0
N193 N 0.02707 0.39116 0.57698 0.0
C194 C 0.01577 0.41809 0.63919 0.0
C195 C 0.00847 0.39554 0.61008 0.0
C196 C 0.04226 0.43657 0.63384 0.0
C197 C 0.06117 0.43137 0.59943 0.0
H198 H 0.06752 0.4042 0.54462 0.0
H199 H 0.98778 0.38164 0.61361 0.0
C200 C 0.96143 0.25733 0.54986 0.0
N201 N 0.95438 0.28774 0.55522 0.0
C202 C 0.94415 0.23445 0.56963 0.0
C203 C 0.91229 0.2746 0.5996 0.0
C204 C 0.93044 0.29676 0.57959 0.0
C205 C 0.91932 0.24301 0.59505 0.0
H206 H 0.98079 0.25091 0.53058 0.0
H207 H 0.92576 0.32109 0.58422 0.0
C208 C 0.04081 0.38339 0.45191 0.0
N209 N 0.04925 0.42228 0.3856 0.0
C210 C 0.05099 0.37143 0.41442 0.0
C211 C 0.03524 0.41515 0.45586 0.0
C212 C 0.05505 0.39148 0.38122 0.0
C213 C 0.03955 0.43443 0.42191 0.0
C214 C 0.98339 0.28928 0.43907 0.0
C215 C 0.00322 0.28492 0.40565 0.0
C216 C 0.95467 0.27429 0.43974 0.0
C217 C 0.99374 0.26612 0.37309 0.0
C218 C 0.94603 0.25567 0.40658 0.0
N219 N 0.96557 0.25202 0.37421 0.0
C220 C 0.06353 0.26477 0.46428 0.0
C221 C 0.09588 0.30903 0.46818 0.0
C222 C 0.08731 0.24756 0.4463 0.0
N223 N 0.068 0.29509 0.47381 0.0
C224 C 0.1205 0.29254 0.45093 0.0
C225 C 0.11625 0.2615 0.43883 0.0
H226 H 0.04112 0.25424 0.46938 0.0
H227 H 0.09879 0.33315 0.4764 0.0
C228 C 0.96157 0.40332 0.43464 0.0
N229 N 0.97323 0.37451 0.42758 0.0
C230 C 0.95208 0.42197 0.40194 0.0
C231 C 0.9657 0.38059 0.35539 0.0
C232 C 0.97517 0.36289 0.3889 0.0
C233 C 0.95443 0.41073 0.36164 0.0
H234 H 0.96077 0.41228 0.46561 0.0
H235 H 0.9853 0.3405 0.38369 0.0
O236 O 0.02393 0.31621 0.55234 0.0
O237 O 0.96995 0.36139 0.52689 0.0
O238 O 0.03568 0.364 0.48435 0.0
O239 O 0.99258 0.30694 0.47181 0.0
H240 H 0.99664 0.31331 0.62483 0.0
H241 H 0.08311 0.32993 0.56279 0.0
H242 H 0.02294 0.32343 0.69133 0.0
H243 H 0.1079 0.33978 0.63037 0.0
H244 H 0.87796 0.338 0.46606 0.0
H245 H 0.93417 0.39719 0.57223 0.0
H246 H 0.93494 0.33245 0.47189 0.0
H247 H 0.87709 0.40187 0.56452 0.0
H248 H 0.00035 0.42164 0.66498 0.0
H249 H 0.08188 0.44501 0.59436 0.0
H250 H 0.95016 0.21032 0.56512 0.0
H251 H 0.89356 0.28211 0.61936 0.0
H252 H 0.05529 0.34687 0.41086 0.0
H253 H 0.02719 0.42471 0.48466 0.0
H254 H 0.06269 0.38252 0.35192 0.0
H255 H 0.03505 0.45902 0.42438 0.0
H256 H 0.02556 0.29626 0.40462 0.0
H257 H 0.93924 0.27685 0.46568 0.0
H258 H 0.00878 0.26274 0.34693 0.0
H259 H 0.92383 0.24403 0.40665 0.0
H260 H 0.08261 0.22391 0.43714 0.0
H261 H 0.14251 0.30416 0.44681 0.0
H262 H 0.94346 0.44508 0.40806 0.0
H263 H 0.96848 0.37126 0.32475 0.0
Li264 Li 0.64759 0.00843 0.7857 0.0
Li265 Li 0.6851 0.96961 0.76321 0.0
Li266 Li 0.69088 0.02584 0.74388 0.0
Li267 Li 0.65078 0.9935 0.71087 0.0
C268 C 0.69488 0.01547 0.83896 0.0
N269 N 0.69856 0.03419 0.9199 0.0
C270 C 0.70124 0.99388 0.86978 0.0
C271 C 0.69087 0.04664 0.84924 0.0
C272 C 0.70289 0.00378 0.91053 0.0
C273 C 0.69268 0.05564 0.89034 0.0
C274 C 0.62846 0.93803 0.7628 0.0
C275 C 0.61521 0.88872 0.73263 0.0
N276 N 0.60664 0.87808 0.77022 0.0
C277 C 0.61904 0.92677 0.80099 0.0
C278 C 0.62613 0.91901 0.72822 0.0
C279 C 0.60828 0.89633 0.80417 0.0
C280 C 0.59719 0.04073 0.82045 0.0
N281 N 0.6191 0.01887 0.82816 0.0
C282 C 0.59769 0.00936 0.89457 0.0
C283 C 0.61974 0.00324 0.86433 0.0
C284 C 0.57447 0.03155 0.88735 0.0
C285 C 0.57459 0.04753 0.84978 0.0
H286 H 0.5968 0.05238 0.79111 0.0
H287 H 0.63705 0.98559 0.86947 0.0
C288 C 0.73402 0.92653 0.75738 0.0
N289 N 0.70782 0.93339 0.7787 0.0
C290 C 0.75194 0.90087 0.76801 0.0
C291 C 0.71662 0.89053 0.82384 0.0
C292 C 0.69905 0.91616 0.81166 0.0
C293 C 0.74332 0.88255 0.80165 0.0
H294 H 0.74139 0.94127 0.73251 0.0
H295 H 0.67881 0.92269 0.82911 0.0
C296 C 0.64475 0.06532 0.72294 0.0
N297 N 0.64263 0.12599 0.69601 0.0
C298 C 0.64095 0.0718 0.68124 0.0
C299 C 0.64695 0.0897 0.75102 0.0
C300 C 0.64008 0.10262 0.66821 0.0
C301 C 0.64598 0.12021 0.73679 0.0
C302 C 0.70732 0.97408 0.67477 0.0
C303 C 0.72652 0.99013 0.64756 0.0
C304 C 0.69938 0.94332 0.66649 0.0
C305 C 0.73706 0.97525 0.61215 0.0
C306 C 0.71041 0.92923 0.63078 0.0
N307 N 0.72883 0.94537 0.60454 0.0
C308 C 0.74256 0.06378 0.76189 0.0
C309 C 0.72135 0.07101 0.69553 0.0
C310 C 0.76662 0.08438 0.75313 0.0
N311 N 0.72068 0.05738 0.73311 0.0
C312 C 0.74488 0.09189 0.68553 0.0
C313 C 0.76821 0.09841 0.7143 0.0
H314 H 0.74191 0.05215 0.79123 0.0
H315 H 0.70433 0.06474 0.67269 0.0
C316 C 0.5966 0.98129 0.66512 0.0
N317 N 0.62731 0.98787 0.66181 0.0
C318 C 0.57795 0.97985 0.63006 0.0
C319 C 0.62307 0.99121 0.58889 0.0
C320 C 0.6407 0.99275 0.62466 0.0
C321 C 0.59109 0.98531 0.59125 0.0
H322 H 0.58643 0.978 0.69513 0.0
H323 H 0.66486 0.99893 0.62271 0.0
O324 O 0.69288 0.00616 0.79892 0.0
O325 O 0.63889 0.96786 0.7591 0.0
O326 O 0.64582 0.03526 0.73625 0.0
O327 O 0.69654 0.98845 0.70938 0.0
H328 H 0.70473 0.96972 0.86236 0.0
H329 H 0.68651 0.06371 0.82572 0.0
H330 H 0.7076 0.98729 0.93472 0.0
H331 H 0.68947 0.07968 0.89873 0.0
H332 H 0.61342 0.87372 0.70614 0.0
H333 H 0.62025 0.94127 0.82798 0.0
H334 H 0.63236 0.92758 0.6982 0.0
H335 H 0.6012 0.88724 0.83363 0.0
H336 H 0.59873 0.9967 0.92321 0.0
H337 H 0.55686 0.06442 0.84255 0.0
H338 H 0.77278 0.89586 0.75071 0.0
H339 H 0.70939 0.87705 0.85017 0.0
H340 H 0.63898 0.05326 0.6591 0.0
H341 H 0.6492 0.08514 0.78346 0.0
H342 H 0.63739 0.10796 0.63598 0.0
H343 H 0.64779 0.1393 0.75817 0.0
H344 H 0.73313 0.01386 0.65362 0.0
H345 H 0.68523 0.93033 0.68768 0.0
H346 H 0.7518 0.98744 0.59072 0.0
H347 H 0.70441 0.90543 0.624 0.0
H348 H 0.78408 0.08888 0.77625 0.0
H349 H 0.74555 0.10173 0.65498 0.0
H350 H 0.55336 0.97567 0.63354 0.0
H351 H 0.63438 0.99517 0.55971 0.0
H352 H 0.97278 0.55959 0.21941 0.0
H353 H 0.92393 0.50876 0.12446 0.0
H354 H 0.91461 0.46589 0.17314 0.0
H355 H 0.01127 0.49561 0.26185 0.0
H356 H 0.00855 0.50863 0.31427 0.0
H357 H 0.00894 0.53645 0.27317 0.0
H358 H 0.9571 0.5595 0.29927 0.0
H359 H 0.95658 0.53173 0.34055 0.0
H360 H 0.92407 0.53443 0.30601 0.0
H361 H 0.91383 0.42716 0.23048 0.0
H362 H 0.92193 0.39516 0.29245 0.0
H363 H 0.97129 0.47126 0.34992 0.0
C364 C 0.95953 0.53973 0.20915 0.0
C365 C 0.94899 0.53751 0.16821 0.0
C366 C 0.93239 0.51082 0.15563 0.0
C367 C 0.92682 0.48646 0.18311 0.0
C368 C 0.93793 0.48919 0.22308 0.0
C369 C 0.95387 0.51517 0.23613 0.0
C370 C 0.96495 0.51152 0.27996 0.0
C371 C 0.00054 0.51314 0.28243 0.0
C372 C 0.94976 0.53573 0.30811 0.0
C373 C 0.95321 0.47922 0.28928 0.0
C374 C 0.93748 0.46683 0.25617 0.0
C375 C 0.92583 0.43672 0.25675 0.0
C376 C 0.93066 0.41868 0.29195 0.0
C377 C 0.94704 0.4308 0.32604 0.0
C378 C 0.95809 0.46161 0.3247 0.0
H379 H 0.44936 0.94169 0.44259 0.0
H380 H 0.48224 0.01465 0.36185 0.0
H381 H 0.5261 0.02433 0.40831 0.0
H382 H 0.46755 0.98019 0.53659 0.0
H383 H 0.4798 0.94563 0.56304 0.0
H384 H 0.45153 0.94309 0.52252 0.0
H385 H 0.48598 0.90326 0.48433 0.0
H386 H 0.51431 0.90559 0.52483 0.0
H387 H 0.5256 0.91304 0.47252 0.0
H388 H 0.56456 0.02833 0.46448 0.0
H389 H 0.59671 0.02538 0.52659 0.0
H390 H 0.54039 0.94901 0.57119 0.0
C391 C 0.46586 0.95961 0.43466 0.0
C392 C 0.46251 0.97716 0.39827 0.0
C393 C 0.48464 0.00041 0.389 0.0
C394 C 0.50955 0.00626 0.41536 0.0
C395 C 0.51212 0.98867 0.45094 0.0
C396 C 0.49104 0.96572 0.46064 0.0
C397 C 0.49912 0.9506 0.50127 0.0
C398 C 0.47294 0.95516 0.53271 0.0
C399 C 0.50671 0.91607 0.49537 0.0
C400 C 0.52776 0.96895 0.51299 0.0
C401 C 0.53478 0.99075 0.48343 0.0
C402 C 0.5596 0.01107 0.48763 0.0
C403 C 0.57789 0.00902 0.52298 0.0
C404 C 0.57148 0.98666 0.55371 0.0
C405 C 0.54595 0.96641 0.54845 0.0
H406 H 0.0418 0.51955 0.85172 0.0
H407 H 0.05642 0.60641 0.78715 0.0
H408 H 0.06413 0.5776 0.72279 0.0
H409 H 0.09478 0.47128 0.79089 0.0
H410 H 0.0689 0.43849 0.79173 0.0
H411 H 0.0692 0.4655 0.83393 0.0
H412 H 0.01018 0.47432 0.82484 0.0
H413 H 0.00971 0.44743 0.78265 0.0
H414 H 0.99545 0.48633 0.77558 0.0
H415 H 0.06569 0.53979 0.66412 0.0
H416 H 0.05894 0.49617 0.61575 0.0
H417 H 0.04028 0.43453 0.71789 0.0
C418 C 0.04679 0.53265 0.82421 0.0
C419 C 0.04867 0.5654 0.82491 0.0
C420 C 0.05555 0.58136 0.78796 0.0
C421 C 0.0598 0.56518 0.75104 0.0
C422 C 0.05701 0.53303 0.7514 0.0
C423 C 0.05063 0.51694 0.78702 0.0
C424 C 0.04613 0.48272 0.77859 0.0
C425 C 0.07126 0.46336 0.80006 0.0
C426 C 0.01343 0.47209 0.79115 0.0
C427 C 0.05017 0.48219 0.73249 0.0
C428 C 0.05699 0.51134 0.71745 0.0
C429 C 0.06069 0.5168 0.67559 0.0
C430 C 0.05693 0.49188 0.64838 0.0
C431 C 0.04915 0.462 0.66309 0.0
C432 C 0.04614 0.45715 0.70577 0.0
H433 H 0.45031 0.98431 0.05758 0.0
H434 H 0.42547 0.08152 0.0668 0.0
H435 H 0.46377 0.0941 0.01292 0.0
H436 H 0.53163 0.99584 0.04398 0.0
H437 H 0.53599 0.96433 0.00812 0.0
H438 H 0.50594 0.96295 0.04639 0.0
H439 H 0.46463 0.95532 0.98953 0.0
H440 H 0.49456 0.95654 0.95108 0.0
H441 H 0.46223 0.98289 0.9481 0.0
H442 H 0.50612 0.0961 0.95939 0.0
H443 H 0.54812 0.08719 0.90925 0.0
H444 H 0.54451 0.98856 0.9351 0.0
C445 C 0.45297 0.00827 0.04838 0.0
C446 C 0.43488 0.03194 0.06639 0.0
C447 C 0.43879 0.06296 0.05307 0.0
C448 C 0.46062 0.07035 0.02269 0.0
C449 C 0.47826 0.04646 0.00587 0.0
C450 C 0.47455 0.01603 0.01813 0.0
C451 C 0.49643 0.99467 0.99541 0.0
C452 C 0.51882 0.9785 0.02526 0.0
C453 C 0.47838 0.97096 0.96949 0.0
C454 C 0.51321 0.01784 0.96863 0.0
C455 C 0.50243 0.04758 0.97506 0.0
C456 C 0.51462 0.07286 0.95394 0.0
C457 C 0.53838 0.06755 0.92538 0.0
C458 C 0.54969 0.03718 0.91817 0.0
C459 C 0.53679 0.01211 0.94024 0.0
H460 H 0.22746 0.84323 0.17633 0.0
H461 H 0.16884 0.92371 0.19625 0.0
H462 H 0.12433 0.8952 0.16789 0.0
H463 H 0.19447 0.82236 0.07938 0.0
H464 H 0.19749 0.78122 0.08802 0.0
H465 H 0.22454 0.80726 0.11217 0.0
H466 H 0.20999 0.78495 0.18339 0.0
H467 H 0.18288 0.75884 0.15946 0.0
H468 H 0.16998 0.78478 0.19929 0.0
H469 H 0.08635 0.85864 0.13595 0.0
H470 H 0.05747 0.81642 0.10233 0.0
H471 H 0.14118 0.76057 0.09954 0.0
C472 C 0.20531 0.85493 0.17472 0.0
C473 C 0.20175 0.88571 0.18904 0.0
C474 C 0.17217 0.89995 0.1865 0.0
C475 C 0.14673 0.88403 0.17009 0.0
C476 C 0.15114 0.85388 0.15609 0.0
C477 C 0.17966 0.83945 0.15816 0.0
C478 C 0.17828 0.80716 0.1399 0.0
C479 C 0.19998 0.80435 0.10266 0.0
C480 C 0.18572 0.78248 0.17246 0.0
C481 C 0.14455 0.80579 0.12709 0.0
C482 C 0.12931 0.83296 0.13686 0.0
C483 C 0.09805 0.8373 0.12799 0.0
C484 C 0.08191 0.81323 0.10855 0.0
C485 C 0.09704 0.78519 0.09792 0.0
C486 C 0.12882 0.78155 0.10752 0.0
H487 H 0.21061 0.11166 0.3656 0.0
H488 H 0.26572 0.17259 0.289 0.0
H489 H 0.23628 0.21773 0.31481 0.0
H490 H 0.13824 0.15139 0.35369 0.0
H491 H 0.12622 0.1454 0.40604 0.0
H492 H 0.15174 0.11798 0.38167 0.0
H493 H 0.19168 0.12525 0.44029 0.0
H494 H 0.16628 0.1527 0.46484 0.0
H495 H 0.20548 0.16361 0.45239 0.0
H496 H 0.19943 0.25577 0.34676 0.0
H497 H 0.15901 0.28445 0.38409 0.0
H498 H 0.13004 0.19901 0.44335 0.0
C499 C 0.21634 0.13451 0.35416 0.0
C500 C 0.24034 0.13871 0.32523 0.0
C501 C 0.24752 0.16896 0.31136 0.0
C502 C 0.23089 0.19468 0.32574 0.0
C503 C 0.20736 0.18975 0.35426 0.0
C504 C 0.20022 0.16046 0.36854 0.0
C505 C 0.17408 0.16156 0.39951 0.0
C506 C 0.1459 0.14298 0.3843 0.0
C507 C 0.18505 0.15011 0.44176 0.0
C508 C 0.1674 0.19601 0.40005 0.0
C509 C 0.18679 0.21183 0.37366 0.0
C510 C 0.18437 0.2437 0.36794 0.0
C511 C 0.16144 0.25984 0.38965 0.0
C512 C 0.14131 0.2442 0.41716 0.0
C513 C 0.14469 0.2118 0.42242 0.0
H514 H 0.76789 0.15345 0.67171 0.0
H515 H 0.82938 0.08725 0.7302 0.0
H516 H 0.87456 0.11799 0.70797 0.0
H517 H 0.81455 0.16718 0.58379 0.0
H518 H 0.80581 0.20796 0.58073 0.0
H519 H 0.77815 0.18165 0.60299 0.0
H520 H 0.77739 0.21436 0.66968 0.0
H521 H 0.80502 0.24083 0.64758 0.0
H522 H 0.81328 0.22238 0.69595 0.0
H523 H 0.91306 0.15395 0.67593 0.0
H524 H 0.94241 0.19436 0.63892 0.0
H525 H 0.85611 0.23766 0.60182 0.0
C526 C 0.79087 0.14552 0.67997 0.0
C527 C 0.79511 0.11803 0.70286 0.0
C528 C 0.82554 0.10848 0.71325 0.0
C529 C 0.85135 0.12568 0.70055 0.0
C530 C 0.84637 0.15249 0.67772 0.0
C531 C 0.8169 0.16253 0.66777 0.0
C532 C 0.81801 0.19193 0.64241 0.0
C533 C 0.80326 0.18686 0.59996 0.0
C534 C 0.80251 0.21897 0.66528 0.0
C535 C 0.85272 0.19659 0.63917 0.0
C536 C 0.86863 0.17353 0.65972 0.0
C537 C 0.90088 0.17224 0.65997 0.0
C538 C 0.91732 0.19516 0.63868 0.0
C539 C 0.90151 0.2191 0.6176 0.0
C540 C 0.86878 0.21983 0.6181 0.0
H541 H 0.76544 0.86858 0.87831 0.0
H542 H 0.76537 0.83664 0.75214 0.0
H543 H 0.80013 0.79344 0.77123 0.0
H544 H 0.84496 0.8536 0.89721 0.0
H545 H 0.83956 0.84127 0.94954 0.0
H546 H 0.81286 0.86831 0.92677 0.0
H547 H 0.767 0.83188 0.94424 0.0
H548 H 0.79356 0.80476 0.96727 0.0
H549 H 0.76787 0.79219 0.92696 0.0
H550 H 0.83609 0.75507 0.80326 0.0
H551 H 0.8721 0.72446 0.84579 0.0
H552 H 0.84965 0.78163 0.9513 0.0
C553 C 0.77236 0.85214 0.85492 0.0
C554 C 0.76265 0.85573 0.8138 0.0
C555 C 0.77267 0.83425 0.78378 0.0
C556 C 0.79228 0.80963 0.79436 0.0
C557 C 0.80176 0.80694 0.83506 0.0
C558 C 0.79221 0.82761 0.86489 0.0
C559 C 0.80707 0.82035 0.90592 0.0
C560 C 0.82731 0.8475 0.92071 0.0
C561 C 0.7824 0.81178 0.93799 0.0
C562 C 0.82664 0.79253 0.89439 0.0
C563 C 0.823 0.78506 0.85345 0.0
C564 C 0.83896 0.76054 0.83544 0.0
C565 C 0.85924 0.7432 0.85991 0.0
C566 C 0.86353 0.75051 0.90193 0.0
C567 C 0.84694 0.77555 0.91926 0.0
loop_
_geom_bond_atom_site_label_1
_geom_bond_atom_site_label_2
_geom_bond_distance
_geom_bond_site_symmetry_2
_ccdc_geom_bond_type
Li0 N17 1.990 . S
Li0 O60 1.956 . S
Li0 O61 1.970 1_455 S
Li0 O62 1.961 1_554 S
Li1 N25 1.990 . S
Li1 O60 1.970 1_655 S
Li1 O61 1.956 . S
Li1 O63 1.961 1_554 S
Li2 N47 1.990 . S
Li2 O60 1.961 1_556 S
Li2 O62 1.956 . S
Li2 O63 1.970 1_455 S
Li3 N53 1.990 . S
Li3 O61 1.961 1_556 S
Li3 O62 1.970 1_655 S
Li3 O63 1.956 . S
C4 C6 1.348 . S
C4 C7 1.356 1_554 S
C4 O60 1.325 . S
N5 C8 1.314 . S
N5 C9 1.279 . S
C6 C4 1.348 . S
C6 C8 1.353 . S
C6 H64 0.929 . S
C7 C4 1.356 1_556 S
C7 C9 1.358 1_556 S
C7 H65 0.930 . S
C8 N5 1.314 . S
C8 C6 1.353 . S
C8 H66 0.930 . S
C9 N5 1.279 . S
C9 C7 1.358 1_554 S
C9 H67 0.930 1_554 S
C10 C13 1.348 1_655 S
C10 C14 1.356 . S
C10 O61 1.325 . S
C11 N12 1.279 . S
C11 C14 1.358 . S
C11 H68 0.930 . S
N12 C11 1.279 . S
N12 C15 1.314 . S
C13 C10 1.348 1_455 S
C13 C15 1.353 1_455 S
C13 H69 0.929 . S
C14 C10 1.356 . S
C14 C11 1.358 . S
C14 H70 0.930 . S
C15 N12 1.314 . S
C15 C13 1.353 1_655 S
C15 H71 0.930 1_655 S
C16 N17 1.314 . S
C16 C21 1.353 . S
C16 H22 0.930 1_554 S
N17 Li0 1.990 . S
N17 C16 1.314 . S
N17 C19 1.279 . S
C18 C19 1.358 . S
C18 C20 1.356 . S
C18 H72 0.930 . S
C19 N17 1.279 . S
C19 C18 1.358 . S
C19 H23 0.930 . S
C20 C18 1.356 . S
C20 C21 1.348 . S
C21 C16 1.353 . S
C21 C20 1.348 . S
C21 H73 0.929 . S
H22 C16 0.930 1_556 S
H23 C19 0.930 . S
C24 N25 1.314 . S
C24 C26 1.353 . S
C24 H30 0.930 . S
N25 Li1 1.990 . S
N25 C24 1.314 . S
N25 C28 1.279 . S
C26 C24 1.353 . S
C26 C29 1.348 . S
C26 H74 0.929 . S
C27 C28 1.358 . S
C27 C29 1.356 . S
C27 H75 0.930 . S
C28 N25 1.279 . S
C28 C27 1.358 . S
C28 H31 0.930 . S
C29 C26 1.348 . S
C29 C27 1.356 . S
H30 C24 0.930 . S
H31 C28 0.930 . S
C32 C34 1.348 1_455 S
C32 C35 1.356 . S
C32 O62 1.325 . S
N33 C36 1.314 . S
N33 C37 1.279 . S
C34 C32 1.348 1_655 S
C34 C36 1.353 1_655 S
C34 H76 0.929 . S
C35 C32 1.356 . S
C35 C37 1.358 . S
C35 H77 0.930 . S
C36 N33 1.314 . S
C36 C34 1.353 1_455 S
C36 H78 0.930 1_455 S
C37 N33 1.279 . S
C37 C35 1.358 . S
C37 H79 0.930 . S
C38 C39 1.348 . S
C38 C40 1.356 1_556 S
C38 O63 1.325 . S
C39 C38 1.348 . S
C39 C41 1.353 . S
C39 H80 0.929 . S
C40 C38 1.356 1_554 S
C40 C42 1.358 1_554 S
C40 H81 0.930 . S
C41 C39 1.353 . S
C41 N43 1.314 . S
C41 H82 0.930 . S
C42 C40 1.358 1_556 S
C42 N43 1.279 . S
C42 H83 0.930 1_556 S
N43 C41 1.314 . S
N43 C42 1.279 . S
C44 C46 1.353 . S
C44 N47 1.314 . S
C44 H50 0.930 . S
C45 N47 1.279 . S
C45 C48 1.358 . S
C45 H51 0.930 . S
C46 C44 1.353 . S
C46 C49 1.348 . S
C46 H84 0.929 . S
N47 Li2 1.990 . S
N47 C44 1.314 . S
N47 C45 1.279 . S
C48 C45 1.358 . S
C48 C49 1.356 . S
C48 H85 0.930 . S
C49 C46 1.348 . S
C49 C48 1.356 . S
H50 C44 0.930 . S
H51 C45 0.930 . S
C52 N53 1.314 . S
C52 C54 1.353 . S
C52 H58 0.930 1_556 S
N53 Li3 1.990 . S
N53 C52 1.314 . S
N53 C56 1.279 . S
C54 C52 1.353 . S
C54 C57 1.348 . S
C54 H86 0.929 . S
C55 C56 1.358 . S
C55 C57 1.356 . S
C55 H87 0.930 . S
C56 N53 1.279 . S
C56 C55 1.358 . S
C56 H59 0.930 . S
C57 C54 1.348 . S
C57 C55 1.356 . S
H58 C52 0.930 1_554 S
H59 C56 0.930 . S
O60 Li0 1.956 . S
O60 Li1 1.970 1_455 S
O60 Li2 1.961 1_554 S
O60 C4 1.325 . S
O61 Li0 1.970 1_655 S
O61 Li1 1.956 . S
O61 Li3 1.961 1_554 S
O61 C10 1.325 . S
O62 Li0 1.961 1_556 S
O62 Li2 1.956 . S
O62 Li3 1.970 1_455 S
O62 C32 1.325 . S
O63 Li1 1.961 1_556 S
O63 Li2 1.970 1_655 S
O63 Li3 1.956 . S
O63 C38 1.325 . S
H64 C6 0.929 . S
H65 C7 0.930 . S
H66 C8 0.930 . S
H67 C9 0.930 1_556 S
H68 C11 0.930 . S
H69 C13 0.929 . S
H70 C14 0.930 . S
H71 C15 0.930 1_455 S
H72 C18 0.930 . S
H73 C21 0.929 . S
H74 C26 0.929 . S
H75 C27 0.930 . S
H76 C34 0.929 . S
H77 C35 0.930 . S
H78 C36 0.930 1_655 S
H79 C37 0.930 . S
H80 C39 0.929 . S
H81 C40 0.930 . S
H82 C41 0.930 . S
H83 C42 0.930 1_554 S
H84 C46 0.929 . S
H85 C48 0.930 . S
H86 C54 0.929 . S
H87 C55 0.930 . S
Li88 N105 1.990 . S
Li88 O148 1.956 . S
Li88 O149 1.970 1_565 S
Li88 O150 1.961 . S
Li89 N113 1.990 . S
Li89 O148 1.970 1_545 S
Li89 O149 1.956 . S
Li89 O151 1.961 . S
Li90 N135 1.990 . S
Li90 O148 1.961 . S
Li90 O150 1.956 . S
Li90 O151 1.970 1_565 S
Li91 N141 1.990 . S
Li91 O149 1.961 . S
Li91 O150 1.970 1_545 S
Li91 O151 1.956 . S
C92 C94 1.348 1_565 S
C92 C95 1.356 . S
C92 O148 1.325 . S
N93 C96 1.314 . S
N93 C97 1.279 . S
C94 C92 1.348 1_545 S
C94 C96 1.353 1_545 S
C94 H152 0.929 . S
C95 C92 1.356 . S
C95 C97 1.358 . S
C95 H153 0.930 . S
C96 N93 1.314 . S
C96 C94 1.353 1_565 S
C96 H154 0.930 1_565 S
C97 N93 1.279 . S
C97 C95 1.358 . S
C97 H155 0.930 . S
C98 C101 1.348 . S
C98 C102 1.356 . S
C98 O149 1.325 . S
C99 N100 1.279 . S
C99 C102 1.358 . S
C99 H156 0.930 . S
N100 C99 1.279 . S
N100 C103 1.314 . S
C101 C98 1.348 . S
C101 C103 1.353 . S
C101 H157 0.929 . S
C102 C98 1.356 . S
C102 C99 1.358 . S
C102 H158 0.930 . S
C103 N100 1.314 . S
C103 C101 1.353 . S
C103 H159 0.930 . S
C104 N105 1.314 . S
C104 C109 1.353 . S
C104 H110 0.930 . S
N105 Li88 1.990 . S
N105 C104 1.314 . S
N105 C107 1.279 . S
C106 C107 1.358 . S
C106 C108 1.356 . S
C106 H160 0.930 . S
C107 N105 1.279 . S
C107 C106 1.358 . S
C107 H111 0.930 . S
C108 C106 1.356 . S
C108 C109 1.348 . S
C109 C104 1.353 . S
C109 C108 1.348 . S
C109 H161 0.929 . S
H110 C104 0.930 . S
H111 C107 0.930 . S
C112 N113 1.314 . S
C112 C114 1.353 . S
C112 H118 0.930 . S
N113 Li89 1.990 . S
N113 C112 1.314 . S
N113 C116 1.279 . S
C114 C112 1.353 . S
C114 C117 1.348 . S
C114 H162 0.929 . S
C115 C116 1.358 . S
C115 C117 1.356 . S
C115 H163 0.930 . S
C116 N113 1.279 . S
C116 C115 1.358 . S
C116 H119 0.930 . S
C117 C114 1.348 . S
C117 C115 1.356 . S
H118 C112 0.930 . S
H119 C116 0.930 . S
C120 C122 1.348 . S
C120 C123 1.356 . S
C120 O150 1.325 . S
N121 C124 1.314 . S
N121 C125 1.279 . S
C122 C120 1.348 . S
C122 C124 1.353 . S
C122 H164 0.929 . S
C123 C120 1.356 . S
C123 C125 1.358 . S
C123 H165 0.930 . S
C124 N121 1.314 . S
C124 C122 1.353 . S
C124 H166 0.930 . S
C125 N121 1.279 . S
C125 C123 1.358 . S
C125 H167 0.930 . S
C126 C127 1.348 1_545 S
C126 C128 1.356 . S
C126 O151 1.325 . S
C127 C126 1.348 1_565 S
C127 C129 1.353 1_565 S
C127 H168 0.929 . S
C128 C126 1.356 . S
C128 C130 1.358 . S
C128 H169 0.930 . S
C129 C127 1.353 1_545 S
C129 N131 1.314 . S
C129 H170 0.930 1_545 S
C130 C128 1.358 . S
C130 N131 1.279 . S
C130 H171 0.930 . S
N131 C129 1.314 . S
N131 C130 1.279 . S
C132 C134 1.353 . S
C132 N135 1.314 . S
C132 H138 0.930 . S
C133 N135 1.279 . S
C133 C136 1.358 . S
C133 H139 0.930 . S
C134 C132 1.353 . S
C134 C137 1.348 . S
C134 H172 0.929 . S
N135 Li90 1.990 . S
N135 C132 1.314 . S
N135 C133 1.279 . S
C136 C133 1.358 . S
C136 C137 1.356 . S
C136 H173 0.930 . S
C137 C134 1.348 . S
C137 C136 1.356 . S
H138 C132 0.930 . S
H139 C133 0.930 . S
C140 N141 1.314 . S
C140 C142 1.353 . S
C140 H146 0.930 . S
N141 Li91 1.990 . S
N141 C140 1.314 . S
N141 C144 1.279 . S
C142 C140 1.353 . S
C142 C145 1.348 . S
C142 H174 0.929 . S
C143 C144 1.358 . S
C143 C145 1.356 . S
C143 H175 0.930 . S
C144 N141 1.279 . S
C144 C143 1.358 . S
C144 H147 0.930 . S
C145 C142 1.348 . S
C145 C143 1.356 . S
H146 C140 0.930 . S
H147 C144 0.930 . S
O148 Li88 1.956 . S
O148 Li89 1.970 1_565 S
O148 Li90 1.961 . S
O148 C92 1.325 . S
O149 Li88 1.970 1_545 S
O149 Li89 1.956 . S
O149 Li91 1.961 . S
O149 C98 1.325 . S
O150 Li88 1.961 . S
O150 Li90 1.956 . S
O150 Li91 1.970 1_565 S
O150 C120 1.325 . S
O151 Li89 1.961 . S
O151 Li90 1.970 1_545 S
O151 Li91 1.956 . S
O151 C126 1.325 . S
H152 C94 0.929 . S
H153 C95 0.930 . S
H154 C96 0.930 1_545 S
H155 C97 0.930 . S
H156 C99 0.930 . S
H157 C101 0.929 . S
H158 C102 0.930 . S
H159 C103 0.930 . S
H160 C106 0.930 . S
H161 C109 0.929 . S
H162 C114 0.929 . S
H163 C115 0.930 . S
H164 C122 0.929 . S
H165 C123 0.930 . S
H166 C124 0.930 . S
H167 C125 0.930 . S
H168 C127 0.929 . S
H169 C128 0.930 . S
H170 C129 0.930 1_565 S
H171 C130 0.930 . S
H172 C134 0.929 . S
H173 C136 0.930 . S
H174 C142 0.929 . S
H175 C143 0.930 . S
Li176 N193 1.990 . S
Li176 O236 1.956 . S
Li176 O237 1.970 1_455 S
Li176 O238 1.961 . S
Li177 N201 1.990 . S
Li177 O236 1.970 1_655 S
Li177 O237 1.956 . S
Li177 O239 1.961 . S
Li178 N223 1.990 . S
Li178 O236 1.961 . S
Li178 O238 1.956 . S
Li178 O239 1.970 1_455 S
Li179 N229 1.990 . S
Li179 O237 1.961 . S
Li179 O238 1.970 1_655 S
Li179 O239 1.956 . S
C180 C182 1.348 1_455 S
C180 C183 1.356 . S
C180 O236 1.325 . S
N181 C184 1.314 . S
N181 C185 1.279 . S
C182 C180 1.348 1_655 S
C182 C184 1.353 1_655 S
C182 H240 0.929 . S
C183 C180 1.356 . S
C183 C185 1.358 . S
C183 H241 0.930 . S
C184 N181 1.314 . S
C184 C182 1.353 1_455 S
C184 H242 0.930 1_455 S
C185 N181 1.279 . S
C185 C183 1.358 . S
C185 H243 0.930 . S
C186 C189 1.348 . S
C186 C190 1.356 . S
C186 O237 1.325 . S
C187 N188 1.279 . S
C187 C190 1.358 . S
C187 H244 0.930 . S
N188 C187 1.279 . S
N188 C191 1.314 . S
C189 C186 1.348 . S
C189 C191 1.353 . S
C189 H245 0.929 . S
C190 C186 1.356 . S
C190 C187 1.358 . S
C190 H246 0.930 . S
C191 N188 1.314 . S
C191 C189 1.353 . S
C191 H247 0.930 . S
C192 N193 1.314 . S
C192 C197 1.353 . S
C192 H198 0.930 . S
N193 Li176 1.990 . S
N193 C192 1.314 . S
N193 C195 1.279 . S
C194 C195 1.358 . S
C194 C196 1.356 . S
C194 H248 0.930 . S
C195 N193 1.279 . S
C195 C194 1.358 . S
C195 H199 0.930 . S
C196 C194 1.356 . S
C196 C197 1.348 . S
C197 C192 1.353 . S
C197 C196 1.348 . S
C197 H249 0.929 . S
H198 C192 0.930 . S
H199 C195 0.930 . S
C200 N201 1.314 . S
C200 C202 1.353 . S
C200 H206 0.930 . S
N201 Li177 1.990 . S
N201 C200 1.314 . S
N201 C204 1.279 . S
C202 C200 1.353 . S
C202 C205 1.348 . S
C202 H250 0.929 . S
C203 C204 1.358 . S
C203 C205 1.356 . S
C203 H251 0.930 . S
C204 N201 1.279 . S
C204 C203 1.358 . S
C204 H207 0.930 . S
C205 C202 1.348 . S
C205 C203 1.356 . S
H206 C200 0.930 . S
H207 C204 0.930 . S
C208 C210 1.348 . S
C208 C211 1.356 . S
C208 O238 1.325 . S
N209 C212 1.314 . S
N209 C213 1.279 . S
C210 C208 1.348 . S
C210 C212 1.353 . S
C210 H252 0.929 . S
C211 C208 1.356 . S
C211 C213 1.358 . S
C211 H253 0.930 . S
C212 N209 1.314 . S
C212 C210 1.353 . S
C212 H254 0.930 . S
C213 N209 1.279 . S
C213 C211 1.358 . S
C213 H255 0.930 . S
C214 C215 1.348 1_655 S
C214 C216 1.356 . S
C214 O239 1.325 . S
C215 C214 1.348 1_455 S
C215 C217 1.353 1_455 S
C215 H256 0.929 . S
C216 C214 1.356 . S
C216 C218 1.358 . S
C216 H257 0.930 . S
C217 C215 1.353 1_655 S
C217 N219 1.314 . S
C217 H258 0.930 1_655 S
C218 C216 1.358 . S
C218 N219 1.279 . S
C218 H259 0.930 . S
N219 C217 1.314 . S
N219 C218 1.279 . S
C220 C222 1.353 . S
C220 N223 1.314 . S
C220 H226 0.930 . S
C221 N223 1.279 . S
C221 C224 1.358 . S
C221 H227 0.930 . S
C222 C220 1.353 . S
C222 C225 1.348 . S
C222 H260 0.929 . S
N223 Li178 1.990 . S
N223 C220 1.314 . S
N223 C221 1.279 . S
C224 C221 1.358 . S
C224 C225 1.356 . S
C224 H261 0.930 . S
C225 C222 1.348 . S
C225 C224 1.356 . S
H226 C220 0.930 . S
H227 C221 0.930 . S
C228 N229 1.314 . S
C228 C230 1.353 . S
C228 H234 0.930 . S
N229 Li179 1.990 . S
N229 C228 1.314 . S
N229 C232 1.279 . S
C230 C228 1.353 . S
C230 C233 1.348 . S
C230 H262 0.929 . S
C231 C232 1.358 . S
C231 C233 1.356 . S
C231 H263 0.930 . S
C232 N229 1.279 . S
C232 C231 1.358 . S
C232 H235 0.930 . S
C233 C230 1.348 . S
C233 C231 1.356 . S
H234 C228 0.930 . S
H235 C232 0.930 . S
O236 Li176 1.956 . S
O236 Li177 1.970 1_455 S
O236 Li178 1.961 . S
O236 C180 1.325 . S
O237 Li176 1.970 1_655 S
O237 Li177 1.956 . S
O237 Li179 1.961 . S
O237 C186 1.325 . S
O238 Li176 1.961 . S
O238 Li178 1.956 . S
O238 Li179 1.970 1_455 S
O238 C208 1.325 . S
O239 Li177 1.961 . S
O239 Li178 1.970 1_655 S
O239 Li179 1.956 . S
O239 C214 1.325 . S
H240 C182 0.929 . S
H241 C183 0.930 . S
H242 C184 0.930 1_655 S
H243 C185 0.930 . S
H244 C187 0.930 . S
H245 C189 0.929 . S
H246 C190 0.930 . S
H247 C191 0.930 . S
H248 C194 0.930 . S
H249 C197 0.929 . S
H250 C202 0.929 . S
H251 C203 0.930 . S
H252 C210 0.929 . S
H253 C211 0.930 . S
H254 C212 0.930 . S
H255 C213 0.930 . S
H256 C215 0.929 . S
H257 C216 0.930 . S
H258 C217 0.930 1_455 S
H259 C218 0.930 . S
H260 C222 0.929 . S
H261 C224 0.930 . S
H262 C230 0.929 . S
H263 C231 0.930 . S
Li264 N281 1.990 . S
Li264 O324 1.956 . S
Li264 O325 1.970 1_545 S
Li264 O326 1.961 . S
Li265 N289 1.990 . S
Li265 O324 1.970 1_565 S
Li265 O325 1.956 . S
Li265 O327 1.961 . S
Li266 N311 1.990 . S
Li266 O324 1.961 . S
Li266 O326 1.956 . S
Li266 O327 1.970 1_545 S
Li267 N317 1.990 . S
Li267 O325 1.961 . S
Li267 O326 1.970 1_565 S
Li267 O327 1.956 . S
C268 C270 1.348 1_545 S
C268 C271 1.356 . S
C268 O324 1.325 . S
N269 C272 1.314 . S
N269 C273 1.279 . S
C270 C268 1.348 1_565 S
C270 C272 1.353 1_565 S
C270 H328 0.929 . S
C271 C268 1.356 . S
C271 C273 1.358 . S
C271 H329 0.930 . S
C272 N269 1.314 . S
C272 C270 1.353 1_545 S
C272 H330 0.930 1_545 S
C273 N269 1.279 . S
C273 C271 1.358 . S
C273 H331 0.930 . S
C274 C277 1.348 . S
C274 C278 1.356 . S
C274 O325 1.325 . S
C275 N276 1.279 . S
C275 C278 1.358 . S
C275 H332 0.930 . S
N276 C275 1.279 . S
N276 C279 1.314 . S
C277 C274 1.348 . S
C277 C279 1.353 . S
C277 H333 0.929 . S
C278 C274 1.356 . S
C278 C275 1.358 . S
C278 H334 0.930 . S
C279 N276 1.314 . S
C279 C277 1.353 . S
C279 H335 0.930 . S
C280 N281 1.314 . S
C280 C285 1.353 . S
C280 H286 0.930 . S
N281 Li264 1.990 . S
N281 C280 1.314 . S
N281 C283 1.279 . S
C282 C283 1.358 . S
C282 C284 1.356 . S
C282 H336 0.930 . S
C283 N281 1.279 . S
C283 C282 1.358 . S
C283 H287 0.930 . S
C284 C282 1.356 . S
C284 C285 1.348 . S
C285 C280 1.353 . S
C285 C284 1.348 . S
C285 H337 0.929 . S
H286 C280 0.930 . S
H287 C283 0.930 . S
C288 N289 1.314 . S
C288 C290 1.353 . S
C288 H294 0.930 . S
N289 Li265 1.990 . S
N289 C288 1.314 . S
N289 C292 1.279 . S
C290 C288 1.353 . S
C290 C293 1.348 . S
C290 H338 0.929 . S
C291 C292 1.358 . S
C291 C293 1.356 . S
C291 H339 0.930 . S
C292 N289 1.279 . S
C292 C291 1.358 . S
C292 H295 0.930 . S
C293 C290 1.348 . S
C293 C291 1.356 . S
H294 C288 0.930 . S
H295 C292 0.930 . S
C296 C298 1.348 . S
C296 C299 1.356 . S
C296 O326 1.325 . S
N297 C300 1.314 . S
N297 C301 1.279 . S
C298 C296 1.348 . S
C298 C300 1.353 . S
C298 H340 0.929 . S
C299 C296 1.356 . S
C299 C301 1.358 . S
C299 H341 0.930 . S
C300 N297 1.314 . S
C300 C298 1.353 . S
C300 H342 0.930 . S
C301 N297 1.279 . S
C301 C299 1.358 . S
C301 H343 0.930 . S
C302 C303 1.348 1_565 S
C302 C304 1.356 . S
C302 O327 1.325 . S
C303 C302 1.348 1_545 S
C303 C305 1.353 1_545 S
C303 H344 0.929 . S
C304 C302 1.356 . S
C304 C306 1.358 . S
C304 H345 0.930 . S
C305 C303 1.353 1_565 S
C305 N307 1.314 . S
C305 H346 0.930 1_565 S
C306 C304 1.358 . S
C306 N307 1.279 . S
C306 H347 0.930 . S
N307 C305 1.314 . S
N307 C306 1.279 . S
C308 C310 1.353 . S
C308 N311 1.314 . S
C308 H314 0.930 . S
C309 N311 1.279 . S
C309 C312 1.358 . S
C309 H315 0.930 . S
C310 C308 1.353 . S
C310 C313 1.348 . S
C310 H348 0.929 . S
N311 Li266 1.990 . S
N311 C308 1.314 . S
N311 C309 1.279 . S
C312 C309 1.358 . S
C312 C313 1.356 . S
C312 H349 0.930 . S
C313 C310 1.348 . S
C313 C312 1.356 . S
H314 C308 0.930 . S
H315 C309 0.930 . S
C316 N317 1.314 . S
C316 C318 1.353 . S
C316 H322 0.930 . S
N317 Li267 1.990 . S
N317 C316 1.314 . S
N317 C320 1.279 . S
C318 C316 1.353 . S
C318 C321 1.348 . S
C318 H350 0.929 . S
C319 C320 1.358 . S
C319 C321 1.356 . S
C319 H351 0.930 . S
C320 N317 1.279 . S
C320 C319 1.358 . S
C320 H323 0.930 . S
C321 C318 1.348 . S
C321 C319 1.356 . S
H322 C316 0.930 . S
H323 C320 0.930 . S
O324 Li264 1.956 . S
O324 Li265 1.970 1_545 S
O324 Li266 1.961 . S
O324 C268 1.325 . S
O325 Li264 1.970 1_565 S
O325 Li265 1.956 . S
O325 Li267 1.961 . S
O325 C274 1.325 . S
O326 Li264 1.961 . S
O326 Li266 1.956 . S
O326 Li267 1.970 1_545 S
O326 C296 1.325 . S
O327 Li265 1.961 . S
O327 Li266 1.970 1_565 S
O327 Li267 1.956 . S
O327 C302 1.325 . S
H328 C270 0.929 . S
H329 C271 0.930 . S
H330 C272 0.930 1_565 S
H331 C273 0.930 . S
H332 C275 0.930 . S
H333 C277 0.929 . S
H334 C278 0.930 . S
H335 C279 0.930 . S
H336 C282 0.930 . S
H337 C285 0.929 . S
H338 C290 0.929 . S
H339 C291 0.930 . S
H340 C298 0.929 . S
H341 C299 0.930 . S
H342 C300 0.930 . S
H343 C301 0.930 . S
H344 C303 0.929 . S
H345 C304 0.930 . S
H346 C305 0.930 1_545 S
H347 C306 0.930 . S
H348 C310 0.929 . S
H349 C312 0.930 . S
H350 C318 0.929 . S
H351 C319 0.930 . S
H352 C364 0.930 . S
H353 C366 0.930 . S
H354 C367 0.930 . S
H355 C371 0.959 . S
H356 C371 0.959 . S
H357 C371 0.961 . S
H358 C372 0.960 . S
H359 C372 0.961 . S
H360 C372 0.959 . S
H361 C375 0.929 . S
H362 C376 0.931 . S
H363 C378 0.930 . S
C364 H352 0.930 . S
C364 C365 1.399 . S
C364 C369 1.399 . S
C365 C364 1.399 . S
C365 C366 1.376 . S
C366 H353 0.930 . S
C366 C365 1.376 . S
C366 C367 1.388 . S
C367 H354 0.930 . S
C367 C366 1.388 . S
C367 C368 1.390 . S
C368 C367 1.390 . S
C368 C369 1.394 . S
C368 C374 1.465 . S
C369 C364 1.399 . S
C369 C368 1.394 . S
C369 C370 1.516 . S
C370 C369 1.516 . S
C370 C371 1.502 1_655 S
C370 C372 1.561 . S
C370 C373 1.526 . S
C371 H355 0.959 . S
C371 H356 0.959 . S
C371 H357 0.961 . S
C371 C370 1.502 1_455 S
C372 H358 0.960 . S
C372 H359 0.961 . S
C372 H360 0.959 . S
C372 C370 1.561 . S
C373 C370 1.526 . S
C373 C374 1.396 . S
C373 C378 1.390 . S
C374 C368 1.465 . S
C374 C373 1.396 . S
C374 C375 1.399 . S
C375 H361 0.929 . S
C375 C374 1.399 . S
C375 C376 1.385 . S
C376 H362 0.931 . S
C376 C375 1.385 . S
C376 C377 1.389 . S
C377 C376 1.389 . S
C377 C378 1.387 . S
C378 H363 0.930 . S
C378 C373 1.390 . S
C378 C377 1.387 . S
H379 C391 0.930 . S
H380 C393 0.930 1_545 S
H381 C394 0.930 . S
H382 C398 0.959 . S
H383 C398 0.959 . S
H384 C398 0.961 . S
H385 C399 0.960 . S
H386 C399 0.961 . S
H387 C399 0.959 . S
H388 C402 0.929 . S
H389 C403 0.931 1_545 S
H390 C405 0.930 . S
C391 H379 0.930 . S
C391 C392 1.399 . S
C391 C396 1.399 . S
C392 C391 1.399 . S
C392 C393 1.376 . S
C393 H380 0.930 1_565 S
C393 C392 1.376 . S
C393 C394 1.388 1_565 S
C394 H381 0.930 . S
C394 C393 1.388 1_545 S
C394 C395 1.390 1_545 S
C395 C394 1.390 1_565 S
C395 C396 1.394 . S
C395 C401 1.465 . S
C396 C391 1.399 . S
C396 C395 1.394 . S
C396 C397 1.516 . S
C397 C396 1.516 . S
C397 C398 1.502 . S
C397 C399 1.561 . S
C397 C400 1.526 . S
C398 H382 0.959 . S
C398 H383 0.959 . S
C398 H384 0.961 . S
C398 C397 1.502 . S
C399 H385 0.960 . S
C399 H386 0.961 . S
C399 H387 0.959 . S
C399 C397 1.561 . S
C400 C397 1.526 . S
C400 C401 1.396 . S
C400 C405 1.390 . S
C401 C395 1.465 . S
C401 C400 1.396 . S
C401 C402 1.399 1_565 S
C402 H388 0.929 . S
C402 C401 1.399 1_545 S
C402 C403 1.385 1_545 S
C403 H389 0.931 1_565 S
C403 C402 1.385 1_565 S
C403 C404 1.389 . S
C404 C403 1.389 . S
C404 C405 1.387 . S
C405 H390 0.930 . S
C405 C400 1.390 . S
C405 C404 1.387 . S
H406 C418 0.930 . S
H407 C420 0.930 . S
H408 C421 0.930 . S
H409 C425 0.959 . S
H410 C425 0.959 . S
H411 C425 0.961 . S
H412 C426 0.960 . S
H413 C426 0.961 . S
H414 C426 0.959 1_655 S
H415 C429 0.929 . S
H416 C430 0.931 . S
H417 C432 0.930 . S
C418 H406 0.930 . S
C418 C419 1.399 . S
C418 C423 1.399 . S
C419 C418 1.399 . S
C419 C420 1.376 . S
C420 H407 0.930 . S
C420 C419 1.376 . S
C420 C421 1.388 . S
C421 H408 0.930 . S
C421 C420 1.388 . S
C421 C422 1.390 . S
C422 C421 1.390 . S
C422 C423 1.394 . S
C422 C428 1.465 . S
C423 C418 1.399 . S
C423 C422 1.394 . S
C423 C424 1.516 . S
C424 C423 1.516 . S
C424 C425 1.502 . S
C424 C426 1.561 . S
C424 C427 1.526 . S
C425 H409 0.959 . S
C425 H410 0.959 . S
C425 H411 0.961 . S
C425 C424 1.502 . S
C426 H412 0.960 . S
C426 H413 0.961 . S
C426 H414 0.959 1_455 S
C426 C424 1.561 . S
C427 C424 1.526 . S
C427 C428 1.396 . S
C427 C432 1.390 . S
C428 C422 1.465 . S
C428 C427 1.396 . S
C428 C429 1.399 . S
C429 H415 0.929 . S
C429 C428 1.399 . S
C429 C430 1.385 . S
C430 H416 0.931 . S
C430 C429 1.385 . S
C430 C431 1.389 . S
C431 C430 1.389 . S
C431 C432 1.387 . S
C432 H417 0.930 . S
C432 C427 1.390 . S
C432 C431 1.387 . S
H433 C445 0.930 1_565 S
H434 C447 0.930 . S
H435 C448 0.930 . S
H436 C452 0.959 1_545 S
H437 C452 0.959 . S
H438 C452 0.961 . S
H439 C453 0.960 1_554 S
H440 C453 0.961 . S
H441 C453 0.959 . S
H442 C456 0.929 . S
H443 C457 0.931 . S
H444 C459 0.930 1_565 S
C445 H433 0.930 1_545 S
C445 C446 1.399 . S
C445 C450 1.399 . S
C446 C445 1.399 . S
C446 C447 1.376 . S
C447 H434 0.930 . S
C447 C446 1.376 . S
C447 C448 1.388 . S
C448 H435 0.930 . S
C448 C447 1.388 . S
C448 C449 1.390 . S
C449 C448 1.390 . S
C449 C450 1.394 . S
C449 C455 1.465 1_554 S
C450 C445 1.399 . S
C450 C449 1.394 . S
C450 C451 1.516 1_545 S
C451 C450 1.516 1_565 S
C451 C452 1.502 . S
C451 C453 1.561 1_554 S
C451 C454 1.526 1_564 S
C452 H436 0.959 1_565 S
C452 H437 0.959 . S
C452 H438 0.961 . S
C452 C451 1.502 . S
C453 H439 0.960 1_556 S
C453 H440 0.961 . S
C453 H441 0.959 . S
C453 C451 1.561 1_556 S
C454 C451 1.526 1_546 S
C454 C455 1.396 . S
C454 C459 1.390 . S
C455 C449 1.465 1_556 S
C455 C454 1.396 . S
C455 C456 1.399 . S
C456 H442 0.929 . S
C456 C455 1.399 . S
C456 C457 1.385 . S
C457 H443 0.931 . S
C457 C456 1.385 . S
C457 C458 1.389 . S
C458 C457 1.389 . S
C458 C459 1.387 . S
C459 H444 0.930 1_545 S
C459 C454 1.390 . S
C459 C458 1.387 . S
H460 C472 0.930 . S
H461 C474 0.930 . S
H462 C475 0.930 . S
H463 C479 0.959 . S
H464 C479 0.959 . S
H465 C479 0.961 . S
H466 C480 0.960 . S
H467 C480 0.961 . S
H468 C480 0.959 . S
H469 C483 0.929 . S
H470 C484 0.931 . S
H471 C486 0.930 . S
C472 H460 0.930 . S
C472 C473 1.399 . S
C472 C477 1.399 . S
C473 C472 1.399 . S
C473 C474 1.376 . S
C474 H461 0.930 . S
C474 C473 1.376 . S
C474 C475 1.388 . S
C475 H462 0.930 . S
C475 C474 1.388 . S
C475 C476 1.390 . S
C476 C475 1.390 . S
C476 C477 1.394 . S
C476 C482 1.465 . S
C477 C472 1.399 . S
C477 C476 1.394 . S
C477 C478 1.516 . S
C478 C477 1.516 . S
C478 C479 1.502 . S
C478 C480 1.561 . S
C478 C481 1.526 . S
C479 H463 0.959 . S
C479 H464 0.959 . S
C479 H465 0.961 . S
C479 C478 1.502 . S
C480 H466 0.960 . S
C480 H467 0.961 . S
C480 H468 0.959 . S
C480 C478 1.561 . S
C481 C478 1.526 . S
C481 C482 1.396 . S
C481 C486 1.390 . S
C482 C476 1.465 . S
C482 C481 1.396 . S
C482 C483 1.399 . S
C483 H469 0.929 . S
C483 C482 1.399 . S
C483 C484 1.385 . S
C484 H470 0.931 . S
C484 C483 1.385 . S
C484 C485 1.389 . S
C485 C484 1.389 . S
C485 C486 1.387 . S
C486 H471 0.930 . S
C486 C481 1.390 . S
C486 C485 1.387 . S
H487 C499 0.930 . S
H488 C501 0.930 . S
H489 C502 0.930 . S
H490 C506 0.959 . S
H491 C506 0.959 . S
H492 C506 0.961 . S
H493 C507 0.960 . S
H494 C507 0.961 . S
H495 C507 0.959 . S
H496 C510 0.929 . S
H497 C511 0.931 . S
H498 C513 0.930 . S
C499 H487 0.930 . S
C499 C500 1.399 . S
C499 C504 1.399 . S
C500 C499 1.399 . S
C500 C501 1.376 . S
C501 H488 0.930 . S
C501 C500 1.376 . S
C501 C502 1.388 . S
C502 H489 0.930 . S
C502 C501 1.388 . S
C502 C503 1.390 . S
C503 C502 1.390 . S
C503 C504 1.394 . S
C503 C509 1.465 . S
C504 C499 1.399 . S
C504 C503 1.394 . S
C504 C505 1.516 . S
C505 C504 1.516 . S
C505 C506 1.502 . S
C505 C507 1.561 . S
C505 C508 1.526 . S
C506 H490 0.959 . S
C506 H491 0.959 . S
C506 H492 0.961 . S
C506 C505 1.502 . S
C507 H493 0.960 . S
C507 H494 0.961 . S
C507 H495 0.959 . S
C507 C505 1.561 . S
C508 C505 1.526 . S
C508 C509 1.396 . S
C508 C513 1.390 . S
C509 C503 1.465 . S
C509 C508 1.396 . S
C509 C510 1.399 . S
C510 H496 0.929 . S
C510 C509 1.399 . S
C510 C511 1.385 . S
C511 H497 0.931 . S
C511 C510 1.385 . S
C511 C512 1.389 . S
C512 C511 1.389 . S
C512 C513 1.387 . S
C513 H498 0.930 . S
C513 C508 1.390 . S
C513 C512 1.387 . S
H514 C526 0.930 . S
H515 C528 0.930 . S
H516 C529 0.930 . S
H517 C533 0.959 . S
H518 C533 0.959 . S
H519 C533 0.961 . S
H520 C534 0.960 . S
H521 C534 0.961 . S
H522 C534 0.959 . S
H523 C537 0.929 . S
H524 C538 0.931 . S
H525 C540 0.930 . S
C526 H514 0.930 . S
C526 C527 1.399 . S
C526 C531 1.399 . S
C527 C526 1.399 . S
C527 C528 1.376 . S
C528 H515 0.930 . S
C528 C527 1.376 . S
C528 C529 1.388 . S
C529 H516 0.930 . S
C529 C528 1.388 . S
C529 C530 1.390 . S
C530 C529 1.390 . S
C530 C531 1.394 . S
C530 C536 1.465 . S
C531 C526 1.399 . S
C531 C530 1.394 . S
C531 C532 1.516 . S
C532 C531 1.516 . S
C532 C533 1.502 . S
C532 C534 1.561 . S
C532 C535 1.526 . S
C533 H517 0.959 . S
C533 H518 0.959 . S
C533 H519 0.961 . S
C533 C532 1.502 . S
C534 H520 0.960 . S
C534 H521 0.961 . S
C534 H522 0.959 . S
C534 C532 1.561 . S
C535 C532 1.526 . S
C535 C536 1.396 . S
C535 C540 1.390 . S
C536 C530 1.465 . S
C536 C535 1.396 . S
C536 C537 1.399 . S
C537 H523 0.929 . S
C537 C536 1.399 . S
C537 C538 1.385 . S
C538 H524 0.931 . S
C538 C537 1.385 . S
C538 C539 1.389 . S
C539 C538 1.389 . S
C539 C540 1.387 . S
C540 H525 0.930 . S
C540 C535 1.390 . S
C540 C539 1.387 . S
H541 C553 0.930 . S
H542 C555 0.930 . S
H543 C556 0.930 . S
H544 C560 0.959 . S
H545 C560 0.959 . S
H546 C560 0.961 . S
H547 C561 0.960 . S
H548 C561 0.961 . S
H549 C561 0.959 . S
H550 C564 0.929 . S
H551 C565 0.931 . S
H552 C567 0.930 . S
C553 H541 0.930 . S
C553 C554 1.399 . S
C553 C558 1.399 . S
C554 C553 1.399 . S
C554 C555 1.376 . S
C555 H542 0.930 . S
C555 C554 1.376 . S
C555 C556 1.388 . S
C556 H543 0.930 . S
C556 C555 1.388 . S
C556 C557 1.390 . S
C557 C556 1.390 . S
C557 C558 1.394 . S
C557 C563 1.465 . S
C558 C553 1.399 . S
C558 C557 1.394 . S
C558 C559 1.516 . S
C559 C558 1.516 . S
C559 C560 1.502 . S
C559 C561 1.561 . S
C559 C562 1.526 . S
C560 H544 0.959 . S
C560 H545 0.959 . S
C560 H546 0.961 . S
C560 C559 1.502 . S
C561 H547 0.960 . S
C561 H548 0.961 . S
C561 H549 0.959 . S
C561 C559 1.561 . S
C562 C559 1.526 . S
C562 C563 1.396 . S
C562 C567 1.390 . S
C563 C557 1.465 . S
C563 C562 1.396 . S
C563 C564 1.399 . S
C564 H550 0.929 . S
C564 C563 1.399 . S
C564 C565 1.385 . S
C565 H551 0.931 . S
C565 C564 1.385 . S
C565 C566 1.389 . S
C566 C565 1.389 . S
C566 C567 1.387 . S
C567 H552 0.930 . S
C567 C562 1.390 . S
C567 C566 1.387 . S
C365 C29 0.876 . S
C377 C233 0.891 . S
C392 C108 0.838 . S
C404 C321 0.857 . S
C419 C49 0.864 . S
C431 C196 0.843 . S
C446 C145 0.895 . S
C458 C284 0.877 . S
C473 C137 1.637 . S
C485 C20 1.642 . S
C500 C117 1.659 . S
C512 C225 1.630 . S
C527 C313 1.638 . S
C539 C205 1.642 . S
C554 C293 1.668 . S
C566 C57 1.630 . S
