# Generated by pormake.
# Topology bcu-h, (3)-cn, num edge types: 1
# Building blocks:
#     Node 0, Type 0, BuildingBlock: OLANEW_clean_sbu_2, # of connection points: 3
#     Node 1, Type 0, BuildingBlock: OLANEW_clean_sbu_2, # of connection points: 3
#     Node 2, Type 0, BuildingBlock: OLANEW_clean_sbu_2, # of connection points: 3
#     Node 3, Type 0, BuildingBlock: OLANEW_clean_sbu_2, # of connection points: 3
#     Node 4, Type 0, BuildingBlock: OLANEW_clean_sbu_2, # of connection points: 3
#     Node 5, Type 0, BuildingBlock: OLANEW_clean_sbu_2, # of connection points: 3
#     Node 6, Type 0, BuildingBlock: OLANEW_clean_sbu_2, # of connection points: 3
#     Node 7, Type 0, BuildingBlock: OLANEW_clean_sbu_2, # of connection points: 3
#     Node 8, Type 0, BuildingBlock: OLANEW_clean_sbu_2, # of connection points: 3
#     Node 9, Type 0, BuildingBlock: OLANEW_clean_sbu_2, # of connection points: 3
#     Node 10, Type 0, BuildingBlock: OLANEW_clean_sbu_2, # of connection points: 3
#     Node 11, Type 0, BuildingBlock: OLANEW_clean_sbu_2, # of connection points: 3
#     Node 12, Type 0, BuildingBlock: OLANEW_clean_sbu_2, # of connection points: 3
#     Node 13, Type 0, BuildingBlock: OLANEW_clean_sbu_2, # of connection points: 3
#     Node 14, Type 0, BuildingBlock: OLANEW_clean_sbu_2, # of connection points: 3
#     Node 15, Type 0, BuildingBlock: OLANEW_clean_sbu_2, # of connection points: 3
#     Edge 16, Type (0, 0), BuildingBlock: OJICUG_clean_linker_0, # of connection points: 2
#     Edge 17, Type (0, 0), BuildingBlock: OJICUG_clean_linker_0, # of connection points: 2
#     Edge 18, Type (0, 0), BuildingBlock: OJICUG_clean_linker_0, # of connection points: 2
#     Edge 19, Type (0, 0), BuildingBlock: OJICUG_clean_linker_0, # of connection points: 2
#     Edge 20, Type (0, 0), BuildingBlock: OJICUG_clean_linker_0, # of connection points: 2
#     Edge 21, Type (0, 0), BuildingBlock: OJICUG_clean_linker_0, # of connection points: 2
#     Edge 22, Type (0, 0), BuildingBlock: OJICUG_clean_linker_0, # of connection points: 2
#     Edge 23, Type (0, 0), BuildingBlock: OJICUG_clean_linker_0, # of connection points: 2
#     Edge 24, Type (0, 0), BuildingBlock: OJICUG_clean_linker_0, # of connection points: 2
#     Edge 25, Type (0, 0), BuildingBlock: OJICUG_clean_linker_0, # of connection points: 2
#     Edge 26, Type (0, 0), BuildingBlock: OJICUG_clean_linker_0, # of connection points: 2
#     Edge 27, Type (0, 0), BuildingBlock: OJICUG_clean_linker_0, # of connection points: 2
#     Edge 28, Type (0, 0), BuildingBlock: OJICUG_clean_linker_0, # of connection points: 2
#     Edge 29, Type (0, 0), BuildingBlock: OJICUG_clean_linker_0, # of connection points: 2
#     Edge 30, Type (0, 0), BuildingBlock: OJICUG_clean_linker_0, # of connection points: 2
#     Edge 31, Type (0, 0), BuildingBlock: OJICUG_clean_linker_0, # of connection points: 2
#     Edge 32, Type (0, 0), BuildingBlock: OJICUG_clean_linker_0, # of connection points: 2
#     Edge 33, Type (0, 0), BuildingBlock: OJICUG_clean_linker_0, # of connection points: 2
#     Edge 34, Type (0, 0), BuildingBlock: OJICUG_clean_linker_0, # of connection points: 2
#     Edge 35, Type (0, 0), BuildingBlock: OJICUG_clean_linker_0, # of connection points: 2
#     Edge 36, Type (0, 0), BuildingBlock: OJICUG_clean_linker_0, # of connection points: 2
#     Edge 37, Type (0, 0), BuildingBlock: OJICUG_clean_linker_0, # of connection points: 2
#     Edge 38, Type (0, 0), BuildingBlock: OJICUG_clean_linker_0, # of connection points: 2
#     Edge 39, Type (0, 0), BuildingBlock: OJICUG_clean_linker_0, # of connection points: 2
# Relax obj value: 0.004
# Max RMSD: 0.045
# Mean RMSD: 0.045
data_MOF--net-bcu-h--node1-OLANEW_clean_sbu_2--edge1-OJICUG_clean_linker_0
_symmetry_space_group_name_H-M    P1
_symmetry_Int_Tables_number       1
_symmetry_cell_setting            triclinic
loop_
_symmetry_equiv_pos_as_xyz
'x, y, z'
_cell_length_a     44.006533
_cell_length_b     43.998101
_cell_length_c     33.923323
_cell_angle_alpha  90.001341
_cell_angle_beta   89.989336
_cell_angle_gamma 89.999671
loop_
_atom_site_label
_atom_site_type_symbol
_atom_site_fract_x
_atom_site_fract_y
_atom_site_fract_z
_atom_type_partial_charge
O0 O 0.61182 0.0044 0.18475 0.0
Cd1 Cd 0.64233 0.98896 0.12773 0.0
O2 O 0.59634 0.04594 0.15473 0.0
Cd3 Cd 0.63214 0.0422 0.11068 0.0
O4 O 0.68084 0.04612 0.09983 0.0
C5 C 0.6923 0.07262 0.0991 0.0
O6 O 0.67414 0.09624 0.10183 0.0
C7 C 0.59506 0.02798 0.18409 0.0
C8 C 0.60639 0.96158 0.07002 0.0
O9 O 0.62184 0.94546 0.09428 0.0
O10 O 0.60804 0.99055 0.07288 0.0
O11 O 0.45277 0.58658 0.65406 0.0
Cd12 Cd 0.46251 0.61702 0.59506 0.0
O13 O 0.48262 0.61318 0.69297 0.0
Cd14 Cd 0.49204 0.64786 0.6488 0.0
O15 O 0.48646 0.69557 0.63305 0.0
C16 C 0.46046 0.70449 0.62156 0.0
O17 O 0.43883 0.68426 0.61652 0.0
C18 C 0.46461 0.59095 0.68778 0.0
C19 C 0.50074 0.58727 0.54216 0.0
O20 O 0.51125 0.60713 0.5662 0.0
O21 O 0.47221 0.58149 0.54314 0.0
O22 O 0.89458 0.49017 0.18015 0.0
Cd23 Cd 0.86234 0.50766 0.1258 0.0
O24 O 0.9086 0.44948 0.14708 0.0
Cd25 Cd 0.87155 0.45504 0.10516 0.0
O26 O 0.82261 0.45263 0.09564 0.0
C27 C 0.81042 0.42645 0.09509 0.0
O28 O 0.82797 0.40235 0.09732 0.0
C29 C 0.91102 0.46646 0.17728 0.0
C30 C 0.89652 0.53638 0.06736 0.0
O31 O 0.88197 0.55193 0.09314 0.0
O32 O 0.89482 0.50736 0.06906 0.0
O33 O 0.04767 0.91698 0.65598 0.0
Cd34 Cd 0.03964 0.88685 0.59628 0.0
O35 O 0.01697 0.89005 0.69338 0.0
Cd36 Cd 0.00858 0.85574 0.64837 0.0
O37 O 0.01422 0.80823 0.63171 0.0
C38 C 0.04046 0.79925 0.62125 0.0
O39 O 0.06239 0.81935 0.61781 0.0
C40 C 0.03505 0.91235 0.68916 0.0
C41 C 0.0002 0.91502 0.54342 0.0
O42 O 0.99063 0.89434 0.56698 0.0
O43 O 0.02834 0.92239 0.54493 0.0
O44 O 0.10731 0.99039 0.82219 0.0
Cd45 Cd 0.13913 0.00733 0.87723 0.0
O46 O 0.09283 0.94957 0.85463 0.0
Cd47 Cd 0.12971 0.95449 0.89696 0.0
O48 O 0.17852 0.9511 0.90718 0.0
C49 C 0.19017 0.92468 0.90811 0.0
O50 O 0.17216 0.90093 0.90582 0.0
C51 C 0.0907 0.96677 0.82461 0.0
C52 C 0.10436 0.03559 0.93547 0.0
O53 O 0.11912 0.05134 0.91009 0.0
O54 O 0.10616 0.00658 0.93348 0.0
O55 O 0.55664 0.07264 0.35707 0.0
Cd56 Cd 0.55046 0.10112 0.41845 0.0
O57 O 0.5259 0.1015 0.32226 0.0
Cd58 Cd 0.51884 0.13464 0.36912 0.0
O59 O 0.52342 0.18252 0.38473 0.0
C60 C 0.52371 0.20034 0.35524 0.0
O61 O 0.52027 0.18873 0.31982 0.0
C62 C 0.54349 0.07867 0.32462 0.0
C63 C 0.50721 0.07564 0.4685 0.0
O64 O 0.50034 0.09792 0.44585 0.0
O65 O 0.53444 0.06535 0.46732 0.0
O66 O 0.39036 0.51099 0.81722 0.0
Cd67 Cd 0.35842 0.49279 0.87148 0.0
O68 O 0.40359 0.55172 0.8507 0.0
Cd69 Cd 0.3661 0.54583 0.89191 0.0
O70 O 0.31718 0.54854 0.90163 0.0
C71 C 0.30532 0.57479 0.90432 0.0
O72 O 0.32316 0.59874 0.90405 0.0
C73 C 0.40649 0.53487 0.82046 0.0
C74 C 0.39385 0.46574 0.92999 0.0
O75 O 0.38002 0.4495 0.90426 0.0
O76 O 0.39072 0.49464 0.92831 0.0
O77 O 0.9544 0.41522 0.34499 0.0
Cd78 Cd 0.96251 0.38477 0.40439 0.0
O79 O 0.98474 0.38829 0.3071 0.0
Cd80 Cd 0.99304 0.3537 0.35178 0.0
O81 O 0.98707 0.30624 0.36852 0.0
C82 C 0.96086 0.29752 0.37946 0.0
O83 O 0.93917 0.31783 0.3833 0.0
C84 C 0.96684 0.41069 0.31167 0.0
C85 C 0.00096 0.41348 0.45796 0.0
O86 O 0.01113 0.39312 0.43437 0.0
O87 O 0.97267 0.42026 0.4562 0.0
O88 O 0.47766 0.89863 0.8437 0.0
Cd89 Cd 0.4869 0.87374 0.90707 0.0
O90 O 0.43302 0.90757 0.86919 0.0
Cd91 Cd 0.38506 0.92049 0.87253 0.0
O92 O 0.33683 0.92931 0.88244 0.0
C93 C 0.31988 0.90746 0.89323 0.0
O94 O 0.33194 0.88036 0.89783 0.0
C95 C 0.45116 0.90976 0.84007 0.0
C96 C 0.52736 0.90402 0.95655 0.0
O97 O 0.53622 0.8816 0.93533 0.0
O98 O 0.49956 0.91243 0.95386 0.0
O99 O 0.5998 0.48224 0.31972 0.0
Cd100 Cd 0.62027 0.49256 0.3854 0.0
O101 O 0.58582 0.43873 0.34498 0.0
Cd102 Cd 0.56951 0.39176 0.34437 0.0
O103 O 0.55498 0.34444 0.3407 0.0
C104 C 0.55235 0.32804 0.37136 0.0
O105 O 0.55829 0.33996 0.40602 0.0
C106 C 0.58728 0.45643 0.31535 0.0
C107 C 0.58038 0.52407 0.43441 0.0
O108 O 0.60136 0.53809 0.41552 0.0
O109 O 0.57807 0.49525 0.42979 0.0
O110 O 0.01869 0.60271 0.83684 0.0
Cd111 Cd 0.00993 0.62765 0.9003 0.0
O112 O 0.06307 0.5928 0.86246 0.0
Cd113 Cd 0.11081 0.57911 0.86583 0.0
O114 O 0.15896 0.5701 0.87603 0.0
C115 C 0.17562 0.59161 0.88862 0.0
O116 O 0.16331 0.61839 0.89484 0.0
C117 C 0.04498 0.59108 0.83325 0.0
C118 C 0.97149 0.59635 0.9514 0.0
O119 O 0.96152 0.6185 0.93054 0.0
O120 O 0.99943 0.58869 0.94761 0.0
O121 O 0.89915 0.01609 0.31989 0.0
Cd122 Cd 0.87764 0.00314 0.38422 0.0
O123 O 0.91415 0.05776 0.34895 0.0
Cd124 Cd 0.93175 0.1041 0.35437 0.0
O125 O 0.94683 0.15102 0.36176 0.0
C126 C 0.92926 0.17011 0.37825 0.0
O127 O 0.90247 0.161 0.39063 0.0
C128 C 0.91243 0.04168 0.31782 0.0
C129 C 0.91845 0.97398 0.43436 0.0
O130 O 0.89909 0.95872 0.41423 0.0
O131 O 0.91872 0.00295 0.43047 0.0
O132 O 0.97939 0.10099 0.16407 0.0
Cd133 Cd 0.98822 0.12566 0.10045 0.0
O134 O 0.93486 0.09136 0.13873 0.0
Cd135 Cd 0.88702 0.07797 0.13546 0.0
O136 O 0.83889 0.06889 0.1252 0.0
C137 C 0.82186 0.09064 0.11427 0.0
O138 O 0.83377 0.1178 0.10974 0.0
C139 C 0.95303 0.08957 0.16785 0.0
C140 C 0.02762 0.09472 0.05021 0.0
O141 O 0.03705 0.11713 0.07104 0.0
O142 O -0.00023 0.08664 0.05364 0.0
O143 O 0.39674 0.98429 0.68936 0.0
Cd144 Cd 0.37567 0.99843 0.62525 0.0
O145 O 0.41237 0.94326 0.65932 0.0
Cd146 Cd 0.4305 0.89722 0.65264 0.0
O147 O 0.44588 0.85053 0.6439 0.0
C148 C 0.42871 0.83181 0.62608 0.0
O149 O 0.40215 0.84115 0.61317 0.0
C150 C 0.41028 0.95881 0.69087 0.0
C151 C 0.41876 0.0237 0.57477 0.0
O152 O 0.40088 0.04067 0.5949 0.0
O153 O 0.41638 0.99483 0.57867 0.0
O154 O 0.52271 0.40258 0.1567 0.0
Cd155 Cd 0.51529 0.37955 0.09177 0.0
O156 O 0.56769 0.41285 0.13319 0.0
Cd157 Cd 0.61562 0.42604 0.1319 0.0
O158 O 0.66401 0.43405 0.12221 0.0
C159 C 0.68047 0.41187 0.11124 0.0
O160 O 0.66783 0.38506 0.10649 0.0
C161 C 0.549 0.41387 0.16181 0.0
C162 C 0.47377 0.40926 0.04324 0.0
O163 O 0.4659 0.3857 0.06299 0.0
O164 O 0.50103 0.41907 0.04701 0.0
O165 O 0.09923 0.51728 0.68169 0.0
Cd166 Cd 0.12113 0.50435 0.61758 0.0
O167 O 0.08472 0.5591 0.65256 0.0
Cd168 Cd 0.06751 0.60558 0.647 0.0
O169 O 0.05293 0.65263 0.63934 0.0
C170 C 0.07084 0.67155 0.62313 0.0
O171 O 0.09766 0.66218 0.6112 0.0
C172 C 0.0861 0.54297 0.68367 0.0
C173 C 0.08099 0.4742 0.56752 0.0
O174 O 0.10058 0.4594 0.58784 0.0
O175 O 0.08018 0.50318 0.57117 0.0
C176 C 0.57371 0.90364 0.99921 0.0
C177 C 0.54832 0.91919 0.98427 0.0
H178 H 0.61174 0.90471 0.03868 0.0
C179 C 0.54257 0.94901 0.99706 0.0
H180 H 0.5786 0.88057 0.98999 0.0
C181 C 0.56186 0.96301 0.0243 0.0
C182 C 0.58681 0.94718 0.03999 0.0
H183 H 0.5232 0.96154 0.98595 0.0
H184 H 0.55685 0.98599 0.03373 0.0
C185 C 0.59258 0.91737 0.02719 0.0
C186 C 0.51226 0.54331 0.49785 0.0
C187 C 0.52095 0.57133 0.51418 0.0
H188 H 0.52447 0.50617 0.46019 0.0
C189 C 0.54915 0.58392 0.50366 0.0
H190 H 0.49068 0.53304 0.50552 0.0
C191 C 0.56822 0.56883 0.47712 0.0
C192 C 0.55975 0.54055 0.46131 0.0
H193 H 0.55638 0.60555 0.51568 0.0
H194 H 0.58984 0.57905 0.46952 0.0
C195 C 0.53162 0.5279 0.47201 0.0
C196 C 0.95809 0.55073 0.99176 0.0
C197 C 0.9516 0.58061 0.97989 0.0
H198 H 0.94531 0.51309 0.02826 0.0
C199 C 0.92648 0.59566 0.99642 0.0
H200 H 0.97728 0.53858 0.97942 0.0
C201 C 0.90863 0.58135 0.02502 0.0
C202 C 0.9151 0.55144 0.03684 0.0
H203 H 0.92106 0.61877 0.98792 0.0
H204 H 0.88966 0.59361 0.03773 0.0
C205 C 0.93977 0.53613 0.0196 0.0
C206 C 0.95229 0.91566 0.50371 0.0
C207 C 0.97939 0.92996 0.51529 0.0
H208 H 0.91201 0.91816 0.46837 0.0
C209 C 0.98647 0.9587 0.49973 0.0
H210 H 0.94633 0.89345 0.51512 0.0
C211 C 0.96659 0.97307 0.47356 0.0
C212 C 0.93959 0.95867 0.46175 0.0
H213 H 0.00718 0.97029 0.50822 0.0
H214 H 0.97248 0.99535 0.46232 0.0
C215 C 0.93274 0.92973 0.47683 0.0
C216 C 0.09144 0.08037 0.97775 0.0
C217 C 0.08538 0.05042 0.96578 0.0
H218 H 0.07824 0.11765 0.01465 0.0
C219 C 0.0607 0.03484 0.98259 0.0
H220 H 0.1104 0.09284 0.96538 0.0
C221 C 0.04195 0.04923 0.01013 0.0
C222 C 0.04801 0.07918 0.02212 0.0
H223 H 0.05547 0.01176 0.9738 0.0
H224 H 0.02276 0.03688 0.02212 0.0
C225 C 0.07314 0.09449 0.00606 0.0
C226 C 0.43762 0.06668 0.53312 0.0
C227 C 0.44139 0.03701 0.54763 0.0
H228 H 0.45526 0.10198 0.49608 0.0
C229 C 0.46688 0.0201 0.53579 0.0
H230 H 0.41811 0.08019 0.54162 0.0
C231 C 0.4884 0.03275 0.5103 0.0
C232 C 0.48448 0.06231 0.49548 0.0
H233 H 0.4704 0.9972 0.54659 0.0
H234 H 0.50795 0.01927 0.50188 0.0
C235 C 0.45879 0.07909 0.50693 0.0
C236 C 0.42818 0.40765 0.99926 0.0
C237 C 0.45238 0.42413 0.01581 0.0
H238 H 0.39096 0.4078 0.95849 0.0
C239 C 0.45662 0.4546 0.00478 0.0
H240 H 0.42448 0.38408 0.00711 0.0
C241 C 0.4371 0.46833 0.97761 0.0
C242 C 0.41343 0.45161 0.96021 0.0
H243 H 0.47505 0.46784 0.01717 0.0
H244 H 0.441 0.49182 0.96949 0.0
C245 C 0.40911 0.42116 0.97133 0.0
C246 C 0.033 0.47221 0.52811 0.0
C247 C 0.06025 0.4584 0.54011 0.0
H248 H 0.99262 0.46856 0.49316 0.0
C249 C 0.06776 0.42958 0.52514 0.0
H250 H 0.02661 0.49438 0.53926 0.0
C251 C 0.04862 0.41509 0.49814 0.0
C252 C 0.02127 0.42882 0.48634 0.0
H253 H 0.08869 0.41846 0.53375 0.0
H254 H 0.05509 0.393 0.48679 0.0
C255 C 0.01352 0.4574 0.50183 0.0
C256 C 0.55619 0.0608 0.21698 0.0
C257 C 0.57712 0.03674 0.2192 0.0
H258 H 0.52864 0.09254 0.24853 0.0
C259 C 0.58337 0.0237 0.25616 0.0
H260 H 0.55066 0.07114 0.18891 0.0
C261 C 0.57093 0.03616 0.2905 0.0
C262 C 0.55175 0.06168 0.28847 0.0
H263 H 0.59931 0.00506 0.25886 0.0
H264 H 0.57752 0.0267 0.3187 0.0
C265 C 0.54351 0.07303 0.25123 0.0
C266 C 0.42127 0.53367 0.74915 0.0
C267 C 0.42584 0.54514 0.78737 0.0
H268 H 0.43004 0.53915 0.68747 0.0
C269 C 0.44662 0.56902 0.79286 0.0
H270 H 0.40546 0.51522 0.74396 0.0
C271 C 0.46092 0.58253 0.76055 0.0
C272 C 0.45444 0.5727 0.72202 0.0
H273 H 0.45087 0.57816 0.82199 0.0
H274 H 0.47569 0.60181 0.76573 0.0
C275 C 0.4353 0.54744 0.71675 0.0
C276 C 0.96454 0.41901 0.23877 0.0
C277 C 0.95746 0.42895 0.27707 0.0
H278 H 0.95547 0.4232 0.17706 0.0
C279 C 0.93837 0.45434 0.2817 0.0
H280 H 0.97931 0.39964 0.2341 0.0
C281 C 0.92491 0.46805 0.24886 0.0
C282 C 0.93001 0.45641 0.21083 0.0
H283 H 0.93266 0.46273 0.31079 0.0
H284 H 0.90908 0.48656 0.25355 0.0
C285 C 0.95082 0.43247 0.20602 0.0
C286 C 0.03706 0.92021 0.76216 0.0
C287 C 0.04443 0.93033 0.72402 0.0
H288 H 0.04585 0.92394 0.82398 0.0
C289 C 0.0638 0.95554 0.71982 0.0
H290 H 0.02207 0.90097 0.76651 0.0
C291 C 0.07723 0.96892 0.75292 0.0
C292 C 0.07181 0.9571 0.79078 0.0
H293 H 0.06973 0.96405 0.69087 0.0
H294 H 0.09326 0.98729 0.74856 0.0
C295 C 0.05074 0.93334 0.79516 0.0
C296 C 0.41818 0.94513 0.80066 0.0
C297 C 0.44148 0.92335 0.80213 0.0
H298 H 0.38999 0.97324 0.76435 0.0
C299 C 0.45569 0.91459 0.76679 0.0
H300 H 0.40781 0.95357 0.82737 0.0
C301 C 0.44596 0.92641 0.73066 0.0
C302 C 0.42169 0.9471 0.72904 0.0
H303 H 0.47416 0.8983 0.76699 0.0
H304 H 0.45782 0.91966 0.70417 0.0
C305 C 0.40834 0.95682 0.76452 0.0
C306 C 0.58108 0.4478 0.20452 0.0
C307 C 0.55787 0.42607 0.20086 0.0
H308 H 0.60861 0.47435 0.24363 0.0
C309 C 0.54303 0.41588 0.23511 0.0
H310 H 0.59195 0.45727 0.17874 0.0
C311 C 0.55213 0.42617 0.27228 0.0
C312 C 0.57637 0.44673 0.27604 0.0
H313 H 0.52463 0.3996 0.23326 0.0
H314 H 0.53991 0.41827 0.29795 0.0
C315 C 0.59027 0.45799 0.24172 0.0
C316 C 0.0775 0.55542 0.79362 0.0
C317 C 0.05457 0.57759 0.79521 0.0
H318 H 0.10548 0.52723 0.75711 0.0
C319 C 0.04073 0.58693 0.75988 0.0
H320 H 0.08757 0.54657 0.8203 0.0
C321 C 0.05052 0.57532 0.72365 0.0
C322 C 0.07447 0.55427 0.72194 0.0
H323 H 0.02256 0.60353 0.76016 0.0
H324 H 0.039 0.58258 0.69714 0.0
C325 C 0.08739 0.54393 0.75738 0.0
C326 C 0.92037 0.05423 0.20779 0.0
C327 C 0.9435 0.07618 0.20598 0.0
H328 H 0.89237 0.02626 0.24456 0.0
C329 C 0.95765 0.08535 0.24118 0.0
H330 H 0.91004 0.0455 0.18122 0.0
C331 C 0.948 0.0738 0.2775 0.0
C332 C 0.92387 0.05296 0.27944 0.0
H333 H 0.97598 0.10178 0.24074 0.0
H334 H 0.95976 0.08091 0.30389 0.0
C335 C 0.91061 0.04279 0.24412 0.0
C336 C 0.76952 0.11054 0.10112 0.0
C337 C 0.78894 0.08573 0.10793 0.0
H338 H 0.72383 0.12584 0.09282 0.0
C339 C 0.77649 0.05633 0.10946 0.0
H340 H 0.77839 0.13347 0.09964 0.0
C341 C 0.74519 0.05192 0.10522 0.0
C342 C 0.72567 0.07686 0.09967 0.0
H343 H 0.79085 0.03671 0.11441 0.0
H344 H 0.73624 0.02905 0.10732 0.0
C345 C 0.73822 0.10616 0.09718 0.0
C346 C 0.46683 0.78985 0.63352 0.0
C347 C 0.43777 0.79957 0.62183 0.0
H348 H 0.49698 0.75227 0.64209 0.0
C349 C 0.41706 0.77798 0.6073 0.0
H350 H 0.4834 0.80593 0.64459 0.0
C351 C 0.42481 0.74719 0.60596 0.0
C352 C 0.45351 0.73735 0.61889 0.0
H353 H 0.39453 0.78472 0.59788 0.0
H354 H 0.40803 0.73105 0.59561 0.0
C355 C 0.47466 0.75908 0.63194 0.0
C356 C 0.75815 0.44854 0.10206 0.0
C357 C 0.77696 0.42311 0.09617 0.0
H358 H 0.71294 0.46494 0.11168 0.0
C359 C 0.76361 0.39416 0.09367 0.0
H360 H 0.76772 0.47116 0.10418 0.0
C361 C 0.73223 0.39061 0.09785 0.0
C362 C 0.71351 0.41591 0.1049 0.0
H363 H 0.77745 0.37411 0.08907 0.0
H364 H 0.72274 0.36793 0.0963 0.0
C365 C 0.72676 0.44496 0.10653 0.0
C366 C 0.03295 0.71376 0.63018 0.0
C367 C 0.06223 0.70396 0.61959 0.0
H368 H 0.00293 0.75148 0.63849 0.0
C369 C 0.08357 0.7256 0.60682 0.0
H370 H 0.01591 0.69764 0.63989 0.0
C371 C 0.07616 0.75649 0.60612 0.0
C372 C 0.04719 0.76638 0.61793 0.0
H373 H 0.1063 0.71881 0.59829 0.0
H374 H 0.09338 0.77265 0.59712 0.0
C375 C 0.02547 0.74463 0.62923 0.0
C376 C 0.23631 0.89145 0.91014 0.0
C377 C 0.22357 0.92067 0.90746 0.0
H378 H 0.27666 0.86439 0.90793 0.0
C379 C 0.24293 0.9457 0.90177 0.0
H380 H 0.22204 0.87169 0.91461 0.0
C381 C 0.27426 0.94149 0.89763 0.0
C382 C 0.28691 0.91218 0.89938 0.0
H383 H 0.23383 0.96851 0.89952 0.0
H384 H 0.28851 0.96118 0.89258 0.0
C385 C 0.26764 0.88726 0.90628 0.0
C386 C 0.53735 0.28309 0.33057 0.0
C387 C 0.5437 0.29563 0.36776 0.0
H388 H 0.52593 0.24337 0.29756 0.0
C389 C 0.54232 0.27677 0.40118 0.0
H390 H 0.53809 0.29699 0.30423 0.0
C391 C 0.53531 0.24588 0.39735 0.0
C392 C 0.52952 0.23327 0.36002 0.0
H393 H 0.54703 0.28574 0.43027 0.0
H394 H 0.53483 0.23182 0.42356 0.0
C395 C 0.53034 0.2523 0.32676 0.0
C396 C 0.22756 0.61163 0.90393 0.0
C397 C 0.20857 0.58689 0.89499 0.0
H398 H 0.27295 0.62719 0.91404 0.0
C399 C 0.22147 0.55779 0.8914 0.0
H400 H 0.21834 0.63433 0.90703 0.0
C401 C 0.2528 0.55366 0.89573 0.0
C402 C 0.2719 0.57857 0.90346 0.0
H403 H 0.20744 0.53823 0.88476 0.0
H404 H 0.26211 0.53104 0.89204 0.0
C405 C 0.25889 0.60753 0.90798 0.0
C406 C 0.96747 0.21196 0.3705 0.0
C407 C 0.9382 0.20244 0.38161 0.0
H408 H 0.99775 0.24939 0.36162 0.0
C409 C 0.9172 0.22429 0.39471 0.0
H410 H 0.98426 0.19568 0.36052 0.0
C411 C 0.92491 0.2551 0.39525 0.0
C412 C 0.95385 0.26472 0.38292 0.0
H413 H 0.8945 0.21772 0.40364 0.0
H414 H 0.90793 0.27143 0.40452 0.0
C415 C 0.97525 0.24275 0.37127 0.0
loop_
_geom_bond_atom_site_label_1
_geom_bond_atom_site_label_2
_geom_bond_distance
_geom_bond_site_symmetry_2
_ccdc_geom_bond_type
O0 Cd1 2.300 . S
O0 C7 1.275 . S
Cd1 O0 2.300 . S
Cd1 O9 2.381 . S
Cd1 O10 2.378 . S
O2 Cd3 2.385 . S
O2 C7 1.255 . S
Cd3 O2 2.385 . S
Cd3 O4 2.317 . S
O4 Cd3 2.317 . S
O4 C5 1.232 . S
C5 O4 1.232 . S
C5 O6 1.218 . S
O6 C5 1.218 . S
C7 O0 1.275 . S
C7 O2 1.255 . S
C8 O9 1.258 . S
C8 O10 1.256 . S
O9 Cd1 2.381 . S
O9 C8 1.258 . S
O10 Cd1 2.378 . S
O10 C8 1.256 . S
O11 Cd12 2.300 . S
O11 C18 1.275 . S
Cd12 O11 2.300 . S
Cd12 O20 2.381 . S
Cd12 O21 2.378 . S
O13 Cd14 2.385 . S
O13 C18 1.255 . S
Cd14 O13 2.385 . S
Cd14 O15 2.317 . S
O15 Cd14 2.317 . S
O15 C16 1.232 . S
C16 O15 1.232 . S
C16 O17 1.218 . S
O17 C16 1.218 . S
C18 O11 1.275 . S
C18 O13 1.255 . S
C19 O20 1.258 . S
C19 O21 1.256 . S
O20 Cd12 2.381 . S
O20 C19 1.258 . S
O21 Cd12 2.378 . S
O21 C19 1.256 . S
O22 Cd23 2.300 . S
O22 C29 1.275 . S
Cd23 O22 2.300 . S
Cd23 O31 2.381 . S
Cd23 O32 2.378 . S
O24 Cd25 2.385 . S
O24 C29 1.255 . S
Cd25 O24 2.385 . S
Cd25 O26 2.317 . S
O26 Cd25 2.317 . S
O26 C27 1.232 . S
C27 O26 1.232 . S
C27 O28 1.218 . S
O28 C27 1.218 . S
C29 O22 1.275 . S
C29 O24 1.255 . S
C30 O31 1.258 . S
C30 O32 1.256 . S
O31 Cd23 2.381 . S
O31 C30 1.258 . S
O32 Cd23 2.378 . S
O32 C30 1.256 . S
O33 Cd34 2.300 . S
O33 C40 1.275 . S
Cd34 O33 2.300 . S
Cd34 O42 2.381 . S
Cd34 O43 2.378 . S
O35 Cd36 2.385 . S
O35 C40 1.255 . S
Cd36 O35 2.385 . S
Cd36 O37 2.317 . S
O37 Cd36 2.317 . S
O37 C38 1.232 . S
C38 O37 1.232 . S
C38 O39 1.218 . S
O39 C38 1.218 . S
C40 O33 1.275 . S
C40 O35 1.255 . S
C41 O42 1.258 . S
C41 O43 1.256 . S
O42 Cd34 2.381 . S
O42 C41 1.258 . S
O43 Cd34 2.378 . S
O43 C41 1.256 . S
O44 Cd45 2.300 . S
O44 C51 1.275 . S
Cd45 O44 2.300 . S
Cd45 O53 2.381 . S
Cd45 O54 2.378 . S
O46 Cd47 2.385 . S
O46 C51 1.255 . S
Cd47 O46 2.385 . S
Cd47 O48 2.317 . S
O48 Cd47 2.317 . S
O48 C49 1.232 . S
C49 O48 1.232 . S
C49 O50 1.218 . S
O50 C49 1.218 . S
C51 O44 1.275 . S
C51 O46 1.255 . S
C52 O53 1.258 . S
C52 O54 1.256 . S
O53 Cd45 2.381 . S
O53 C52 1.258 . S
O54 Cd45 2.378 . S
O54 C52 1.256 . S
O55 Cd56 2.300 . S
O55 C62 1.275 . S
Cd56 O55 2.300 . S
Cd56 O64 2.381 . S
Cd56 O65 2.378 . S
O57 Cd58 2.385 . S
O57 C62 1.255 . S
Cd58 O57 2.385 . S
Cd58 O59 2.317 . S
O59 Cd58 2.317 . S
O59 C60 1.232 . S
C60 O59 1.232 . S
C60 O61 1.218 . S
O61 C60 1.218 . S
C62 O55 1.275 . S
C62 O57 1.255 . S
C63 O64 1.258 . S
C63 O65 1.256 . S
O64 Cd56 2.381 . S
O64 C63 1.258 . S
O65 Cd56 2.378 . S
O65 C63 1.256 . S
O66 Cd67 2.300 . S
O66 C73 1.275 . S
Cd67 O66 2.300 . S
Cd67 O75 2.381 . S
Cd67 O76 2.378 . S
O68 Cd69 2.385 . S
O68 C73 1.255 . S
Cd69 O68 2.385 . S
Cd69 O70 2.317 . S
O70 Cd69 2.317 . S
O70 C71 1.232 . S
C71 O70 1.232 . S
C71 O72 1.218 . S
O72 C71 1.218 . S
C73 O66 1.275 . S
C73 O68 1.255 . S
C74 O75 1.258 . S
C74 O76 1.256 . S
O75 Cd67 2.381 . S
O75 C74 1.258 . S
O76 Cd67 2.378 . S
O76 C74 1.256 . S
O77 Cd78 2.300 . S
O77 C84 1.275 . S
Cd78 O77 2.300 . S
Cd78 O86 2.381 . S
Cd78 O87 2.378 . S
O79 Cd80 2.385 . S
O79 C84 1.255 . S
Cd80 O79 2.385 . S
Cd80 O81 2.317 . S
O81 Cd80 2.317 . S
O81 C82 1.232 . S
C82 O81 1.232 . S
C82 O83 1.218 . S
O83 C82 1.218 . S
C84 O77 1.275 . S
C84 O79 1.255 . S
C85 O86 1.258 . S
C85 O87 1.256 . S
O86 Cd78 2.381 . S
O86 C85 1.258 . S
O87 Cd78 2.378 . S
O87 C85 1.256 . S
O88 Cd89 2.300 . S
O88 C95 1.275 . S
Cd89 O88 2.300 . S
Cd89 O97 2.381 . S
Cd89 O98 2.378 . S
O90 Cd91 2.385 . S
O90 C95 1.255 . S
Cd91 O90 2.385 . S
Cd91 O92 2.317 . S
O92 Cd91 2.317 . S
O92 C93 1.232 . S
C93 O92 1.232 . S
C93 O94 1.218 . S
O94 C93 1.218 . S
C95 O88 1.275 . S
C95 O90 1.255 . S
C96 O97 1.258 . S
C96 O98 1.256 . S
O97 Cd89 2.381 . S
O97 C96 1.258 . S
O98 Cd89 2.378 . S
O98 C96 1.256 . S
O99 Cd100 2.300 . S
O99 C106 1.275 . S
Cd100 O99 2.300 . S
Cd100 O108 2.381 . S
Cd100 O109 2.378 . S
O101 Cd102 2.385 . S
O101 C106 1.255 . S
Cd102 O101 2.385 . S
Cd102 O103 2.317 . S
O103 Cd102 2.317 . S
O103 C104 1.232 . S
C104 O103 1.232 . S
C104 O105 1.218 . S
O105 C104 1.218 . S
C106 O99 1.275 . S
C106 O101 1.255 . S
C107 O108 1.258 . S
C107 O109 1.256 . S
O108 Cd100 2.381 . S
O108 C107 1.258 . S
O109 Cd100 2.378 . S
O109 C107 1.256 . S
O110 Cd111 2.300 . S
O110 C117 1.275 . S
Cd111 O110 2.300 . S
Cd111 O119 2.381 . S
Cd111 O120 2.378 . S
O112 Cd113 2.385 . S
O112 C117 1.255 . S
Cd113 O112 2.385 . S
Cd113 O114 2.317 . S
O114 Cd113 2.317 . S
O114 C115 1.232 . S
C115 O114 1.232 . S
C115 O116 1.218 . S
O116 C115 1.218 . S
C117 O110 1.275 . S
C117 O112 1.255 . S
C118 O119 1.258 . S
C118 O120 1.256 . S
O119 Cd111 2.381 . S
O119 C118 1.258 . S
O120 Cd111 2.378 . S
O120 C118 1.256 . S
O121 Cd122 2.300 . S
O121 C128 1.275 . S
Cd122 O121 2.300 . S
Cd122 O130 2.381 . S
Cd122 O131 2.378 . S
O123 Cd124 2.385 . S
O123 C128 1.255 . S
Cd124 O123 2.385 . S
Cd124 O125 2.317 . S
O125 Cd124 2.317 . S
O125 C126 1.232 . S
C126 O125 1.232 . S
C126 O127 1.218 . S
O127 C126 1.218 . S
C128 O121 1.275 . S
C128 O123 1.255 . S
C129 O130 1.258 . S
C129 O131 1.256 . S
O130 Cd122 2.381 . S
O130 C129 1.258 . S
O131 Cd122 2.378 . S
O131 C129 1.256 . S
O132 Cd133 2.300 . S
O132 C139 1.275 . S
Cd133 O132 2.300 . S
Cd133 O141 2.381 . S
Cd133 O142 2.378 . S
O134 Cd135 2.385 . S
O134 C139 1.255 . S
Cd135 O134 2.385 . S
Cd135 O136 2.317 . S
O136 Cd135 2.317 . S
O136 C137 1.232 . S
C137 O136 1.232 . S
C137 O138 1.218 . S
O138 C137 1.218 . S
C139 O132 1.275 . S
C139 O134 1.255 . S
C140 O141 1.258 . S
C140 O142 1.256 . S
O141 Cd133 2.381 . S
O141 C140 1.258 . S
O142 Cd133 2.378 . S
O142 C140 1.256 . S
O143 Cd144 2.300 . S
O143 C150 1.275 . S
Cd144 O143 2.300 . S
Cd144 O152 2.381 . S
Cd144 O153 2.378 . S
O145 Cd146 2.385 . S
O145 C150 1.255 . S
Cd146 O145 2.385 . S
Cd146 O147 2.317 . S
O147 Cd146 2.317 . S
O147 C148 1.232 . S
C148 O147 1.232 . S
C148 O149 1.218 . S
O149 C148 1.218 . S
C150 O143 1.275 . S
C150 O145 1.255 . S
C151 O152 1.258 . S
C151 O153 1.256 . S
O152 Cd144 2.381 . S
O152 C151 1.258 . S
O153 Cd144 2.378 . S
O153 C151 1.256 . S
O154 Cd155 2.300 . S
O154 C161 1.275 . S
Cd155 O154 2.300 . S
Cd155 O163 2.381 . S
Cd155 O164 2.378 . S
O156 Cd157 2.385 . S
O156 C161 1.255 . S
Cd157 O156 2.385 . S
Cd157 O158 2.317 . S
O158 Cd157 2.317 . S
O158 C159 1.232 . S
C159 O158 1.232 . S
C159 O160 1.218 . S
O160 C159 1.218 . S
C161 O154 1.275 . S
C161 O156 1.255 . S
C162 O163 1.258 . S
C162 O164 1.256 . S
O163 Cd155 2.381 . S
O163 C162 1.258 . S
O164 Cd155 2.378 . S
O164 C162 1.256 . S
O165 Cd166 2.300 . S
O165 C172 1.275 . S
Cd166 O165 2.300 . S
Cd166 O174 2.381 . S
Cd166 O175 2.378 . S
O167 Cd168 2.385 . S
O167 C172 1.255 . S
Cd168 O167 2.385 . S
Cd168 O169 2.317 . S
O169 Cd168 2.317 . S
O169 C170 1.232 . S
C170 O169 1.232 . S
C170 O171 1.218 . S
O171 C170 1.218 . S
C172 O165 1.275 . S
C172 O167 1.255 . S
C173 O174 1.258 . S
C173 O175 1.256 . S
O174 Cd166 2.381 . S
O174 C173 1.258 . S
O175 Cd166 2.378 . S
O175 C173 1.256 . S
C176 C177 1.387 1_554 S
C176 H180 0.950 . S
C176 C185 1.390 . S
C177 C176 1.387 1_556 S
C177 C179 1.387 1_565 S
H178 C185 0.950 . S
C179 C177 1.387 1_545 S
C179 C181 1.390 . S
C179 H183 0.950 . S
H180 C176 0.950 . S
C181 C179 1.390 . S
C181 C182 1.387 1_556 S
C181 H184 0.950 . S
C182 C181 1.387 1_554 S
C182 C185 1.387 1_545 S
H183 C179 0.950 . S
H184 C181 0.950 . S
C185 C176 1.390 . S
C185 H178 0.950 . S
C185 C182 1.387 1_565 S
C186 C187 1.387 . S
C186 H190 0.950 . S
C186 C195 1.390 . S
C187 C186 1.387 . S
C187 C189 1.387 . S
H188 C195 0.950 . S
C189 C187 1.387 . S
C189 C191 1.390 . S
C189 H193 0.950 . S
H190 C186 0.950 . S
C191 C189 1.390 . S
C191 C192 1.387 . S
C191 H194 0.950 . S
C192 C191 1.387 . S
C192 C195 1.387 . S
H193 C189 0.950 . S
H194 C191 0.950 . S
C195 C186 1.390 . S
C195 H188 0.950 . S
C195 C192 1.387 . S
C196 C197 1.387 . S
C196 H200 0.950 . S
C196 C205 1.390 1_455 S
C197 C196 1.387 . S
C197 C199 1.387 1_556 S
H198 C205 0.950 . S
C199 C197 1.387 1_554 S
C199 C201 1.390 1_455 S
C199 H203 0.950 . S
H200 C196 0.950 . S
C201 C199 1.390 1_655 S
C201 C202 1.387 . S
C201 H204 0.950 . S
C202 C201 1.387 . S
C202 C205 1.387 1_554 S
H203 C199 0.950 . S
H204 C201 0.950 . S
C205 C196 1.390 1_655 S
C205 H198 0.950 . S
C205 C202 1.387 1_556 S
C206 C207 1.387 . S
C206 H210 0.950 . S
C206 C215 1.390 1_455 S
C207 C206 1.387 . S
C207 C209 1.387 1_565 S
H208 C215 0.950 . S
C209 C207 1.387 1_545 S
C209 C211 1.390 1_455 S
C209 H213 0.950 . S
H210 C206 0.950 . S
C211 C209 1.390 1_655 S
C211 C212 1.387 . S
C211 H214 0.950 . S
C212 C211 1.387 . S
C212 C215 1.387 1_545 S
H213 C209 0.950 . S
H214 C211 0.950 . S
C215 C206 1.390 1_655 S
C215 H208 0.950 . S
C215 C212 1.387 1_565 S
C216 C217 1.387 1_545 S
C216 H220 0.950 . S
C216 C225 1.390 1_455 S
C217 C216 1.387 1_565 S
C217 C219 1.387 1_556 S
H218 C225 0.950 . S
C219 C217 1.387 1_554 S
C219 C221 1.390 1_455 S
C219 H223 0.950 . S
H220 C216 0.950 . S
C221 C219 1.390 1_655 S
C221 C222 1.387 1_565 S
C221 H224 0.950 . S
C222 C221 1.387 1_545 S
C222 C225 1.387 1_554 S
H223 C219 0.950 . S
H224 C221 0.950 . S
C225 C216 1.390 1_655 S
C225 H218 0.950 . S
C225 C222 1.387 1_556 S
C226 C227 1.387 . S
C226 H230 0.950 . S
C226 C235 1.390 1_565 S
C227 C226 1.387 . S
C227 C229 1.387 . S
H228 C235 0.950 . S
C229 C227 1.387 . S
C229 C231 1.390 1_565 S
C229 H233 0.950 . S
H230 C226 0.950 . S
C231 C229 1.390 1_545 S
C231 C232 1.387 . S
C231 H234 0.950 . S
C232 C231 1.387 . S
C232 C235 1.387 . S
H233 C229 0.950 . S
H234 C231 0.950 . S
C235 C226 1.390 1_545 S
C235 H228 0.950 . S
C235 C232 1.387 . S
C236 C237 1.387 1_556 S
C236 H240 0.950 . S
C236 C245 1.390 . S
C237 C236 1.387 1_554 S
C237 C239 1.387 . S
H238 C245 0.950 . S
C239 C237 1.387 . S
C239 C241 1.390 . S
C239 H243 0.950 . S
H240 C236 0.950 . S
C241 C239 1.390 . S
C241 C242 1.387 1_554 S
C241 H244 0.950 . S
C242 C241 1.387 1_556 S
C242 C245 1.387 . S
H243 C239 0.950 . S
H244 C241 0.950 . S
C245 C236 1.390 . S
C245 H238 0.950 . S
C245 C242 1.387 . S
C246 C247 1.387 . S
C246 H250 0.950 . S
C246 C255 1.390 1_455 S
C247 C246 1.387 . S
C247 C249 1.387 . S
H248 C255 0.950 . S
C249 C247 1.387 . S
C249 C251 1.390 1_455 S
C249 H253 0.950 . S
H250 C246 0.950 . S
C251 C249 1.390 1_655 S
C251 C252 1.387 . S
C251 H254 0.950 . S
C252 C251 1.387 . S
C252 C255 1.387 . S
H253 C249 0.950 . S
H254 C251 0.950 . S
C255 C246 1.390 1_655 S
C255 H248 0.950 . S
C255 C252 1.387 . S
C256 C257 1.387 . S
C256 H260 0.950 . S
C256 C265 1.390 . S
C257 C256 1.387 . S
C257 C259 1.387 . S
H258 C265 0.950 . S
C259 C257 1.387 . S
C259 C261 1.390 . S
C259 H263 0.950 . S
H260 C256 0.950 . S
C261 C259 1.390 . S
C261 C262 1.387 . S
C261 H264 0.950 . S
C262 C261 1.387 . S
C262 C265 1.387 . S
H263 C259 0.950 . S
H264 C261 0.950 . S
C265 C256 1.390 . S
C265 H258 0.950 . S
C265 C262 1.387 . S
C266 C267 1.387 . S
C266 H270 0.950 . S
C266 C275 1.390 . S
C267 C266 1.387 . S
C267 C269 1.387 . S
H268 C275 0.950 . S
C269 C267 1.387 . S
C269 C271 1.390 . S
C269 H273 0.950 . S
H270 C266 0.950 . S
C271 C269 1.390 . S
C271 C272 1.387 . S
C271 H274 0.950 . S
C272 C271 1.387 . S
C272 C275 1.387 . S
H273 C269 0.950 . S
H274 C271 0.950 . S
C275 C266 1.390 . S
C275 H268 0.950 . S
C275 C272 1.387 . S
C276 C277 1.387 . S
C276 H280 0.950 . S
C276 C285 1.390 . S
C277 C276 1.387 . S
C277 C279 1.387 . S
H278 C285 0.950 . S
C279 C277 1.387 . S
C279 C281 1.390 . S
C279 H283 0.950 . S
H280 C276 0.950 . S
C281 C279 1.390 . S
C281 C282 1.387 . S
C281 H284 0.950 . S
C282 C281 1.387 . S
C282 C285 1.387 . S
H283 C279 0.950 . S
H284 C281 0.950 . S
C285 C276 1.390 . S
C285 H278 0.950 . S
C285 C282 1.387 . S
C286 C287 1.387 . S
C286 H290 0.950 . S
C286 C295 1.390 . S
C287 C286 1.387 . S
C287 C289 1.387 . S
H288 C295 0.950 . S
C289 C287 1.387 . S
C289 C291 1.390 . S
C289 H293 0.950 . S
H290 C286 0.950 . S
C291 C289 1.390 . S
C291 C292 1.387 . S
C291 H294 0.950 . S
C292 C291 1.387 . S
C292 C295 1.387 . S
H293 C289 0.950 . S
H294 C291 0.950 . S
C295 C286 1.390 . S
C295 H288 0.950 . S
C295 C292 1.387 . S
C296 C297 1.387 . S
C296 H300 0.950 . S
C296 C305 1.390 . S
C297 C296 1.387 . S
C297 C299 1.387 . S
H298 C305 0.950 . S
C299 C297 1.387 . S
C299 C301 1.390 . S
C299 H303 0.950 . S
H300 C296 0.950 . S
C301 C299 1.390 . S
C301 C302 1.387 . S
C301 H304 0.950 . S
C302 C301 1.387 . S
C302 C305 1.387 . S
H303 C299 0.950 . S
H304 C301 0.950 . S
C305 C296 1.390 . S
C305 H298 0.950 . S
C305 C302 1.387 . S
C306 C307 1.387 . S
C306 H310 0.950 . S
C306 C315 1.390 . S
C307 C306 1.387 . S
C307 C309 1.387 . S
H308 C315 0.950 . S
C309 C307 1.387 . S
C309 C311 1.390 . S
C309 H313 0.950 . S
H310 C306 0.950 . S
C311 C309 1.390 . S
C311 C312 1.387 . S
C311 H314 0.950 . S
C312 C311 1.387 . S
C312 C315 1.387 . S
H313 C309 0.950 . S
H314 C311 0.950 . S
C315 C306 1.390 . S
C315 H308 0.950 . S
C315 C312 1.387 . S
C316 C317 1.387 . S
C316 H320 0.950 . S
C316 C325 1.390 . S
C317 C316 1.387 . S
C317 C319 1.387 . S
H318 C325 0.950 . S
C319 C317 1.387 . S
C319 C321 1.390 . S
C319 H323 0.950 . S
H320 C316 0.950 . S
C321 C319 1.390 . S
C321 C322 1.387 . S
C321 H324 0.950 . S
C322 C321 1.387 . S
C322 C325 1.387 . S
H323 C319 0.950 . S
H324 C321 0.950 . S
C325 C316 1.390 . S
C325 H318 0.950 . S
C325 C322 1.387 . S
C326 C327 1.387 . S
C326 H330 0.950 . S
C326 C335 1.390 . S
C327 C326 1.387 . S
C327 C329 1.387 . S
H328 C335 0.950 . S
C329 C327 1.387 . S
C329 C331 1.390 . S
C329 H333 0.950 . S
H330 C326 0.950 . S
C331 C329 1.390 . S
C331 C332 1.387 . S
C331 H334 0.950 . S
C332 C331 1.387 . S
C332 C335 1.387 . S
H333 C329 0.950 . S
H334 C331 0.950 . S
C335 C326 1.390 . S
C335 H328 0.950 . S
C335 C332 1.387 . S
C336 C337 1.387 . S
C336 H340 0.950 . S
C336 C345 1.390 . S
C337 C336 1.387 . S
C337 C339 1.387 . S
H338 C345 0.950 . S
C339 C337 1.387 . S
C339 C341 1.390 . S
C339 H343 0.950 . S
H340 C336 0.950 . S
C341 C339 1.390 . S
C341 C342 1.387 . S
C341 H344 0.950 . S
C342 C341 1.387 . S
C342 C345 1.387 . S
H343 C339 0.950 . S
H344 C341 0.950 . S
C345 C336 1.390 . S
C345 H338 0.950 . S
C345 C342 1.387 . S
C346 C347 1.387 . S
C346 H350 0.950 . S
C346 C355 1.390 . S
C347 C346 1.387 . S
C347 C349 1.387 . S
H348 C355 0.950 . S
C349 C347 1.387 . S
C349 C351 1.390 . S
C349 H353 0.950 . S
H350 C346 0.950 . S
C351 C349 1.390 . S
C351 C352 1.387 . S
C351 H354 0.950 . S
C352 C351 1.387 . S
C352 C355 1.387 . S
H353 C349 0.950 . S
H354 C351 0.950 . S
C355 C346 1.390 . S
C355 H348 0.950 . S
C355 C352 1.387 . S
C356 C357 1.387 . S
C356 H360 0.950 . S
C356 C365 1.390 . S
C357 C356 1.387 . S
C357 C359 1.387 . S
H358 C365 0.950 . S
C359 C357 1.387 . S
C359 C361 1.390 . S
C359 H363 0.950 . S
H360 C356 0.950 . S
C361 C359 1.390 . S
C361 C362 1.387 . S
C361 H364 0.950 . S
C362 C361 1.387 . S
C362 C365 1.387 . S
H363 C359 0.950 . S
H364 C361 0.950 . S
C365 C356 1.390 . S
C365 H358 0.950 . S
C365 C362 1.387 . S
C366 C367 1.387 . S
C366 H370 0.950 . S
C366 C375 1.390 . S
C367 C366 1.387 . S
C367 C369 1.387 . S
H368 C375 0.950 . S
C369 C367 1.387 . S
C369 C371 1.390 . S
C369 H373 0.950 . S
H370 C366 0.950 . S
C371 C369 1.390 . S
C371 C372 1.387 . S
C371 H374 0.950 . S
C372 C371 1.387 . S
C372 C375 1.387 . S
H373 C369 0.950 . S
H374 C371 0.950 . S
C375 C366 1.390 . S
C375 H368 0.950 . S
C375 C372 1.387 . S
C376 C377 1.387 . S
C376 H380 0.950 . S
C376 C385 1.390 . S
C377 C376 1.387 . S
C377 C379 1.387 . S
H378 C385 0.950 . S
C379 C377 1.387 . S
C379 C381 1.390 . S
C379 H383 0.950 . S
H380 C376 0.950 . S
C381 C379 1.390 . S
C381 C382 1.387 . S
C381 H384 0.950 . S
C382 C381 1.387 . S
C382 C385 1.387 . S
H383 C379 0.950 . S
H384 C381 0.950 . S
C385 C376 1.390 . S
C385 H378 0.950 . S
C385 C382 1.387 . S
C386 C387 1.387 . S
C386 H390 0.950 . S
C386 C395 1.390 . S
C387 C386 1.387 . S
C387 C389 1.387 . S
H388 C395 0.950 . S
C389 C387 1.387 . S
C389 C391 1.390 . S
C389 H393 0.950 . S
H390 C386 0.950 . S
C391 C389 1.390 . S
C391 C392 1.387 . S
C391 H394 0.950 . S
C392 C391 1.387 . S
C392 C395 1.387 . S
H393 C389 0.950 . S
H394 C391 0.950 . S
C395 C386 1.390 . S
C395 H388 0.950 . S
C395 C392 1.387 . S
C396 C397 1.387 . S
C396 H400 0.950 . S
C396 C405 1.390 . S
C397 C396 1.387 . S
C397 C399 1.387 . S
H398 C405 0.950 . S
C399 C397 1.387 . S
C399 C401 1.390 . S
C399 H403 0.950 . S
H400 C396 0.950 . S
C401 C399 1.390 . S
C401 C402 1.387 . S
C401 H404 0.950 . S
C402 C401 1.387 . S
C402 C405 1.387 . S
H403 C399 0.950 . S
H404 C401 0.950 . S
C405 C396 1.390 . S
C405 H398 0.950 . S
C405 C402 1.387 . S
C406 C407 1.387 . S
C406 H410 0.950 . S
C406 C415 1.390 . S
C407 C406 1.387 . S
C407 C409 1.387 . S
H408 C415 0.950 . S
C409 C407 1.387 . S
C409 C411 1.390 . S
C409 H413 0.950 . S
H410 C406 0.950 . S
C411 C409 1.390 . S
C411 C412 1.387 . S
C411 H414 0.950 . S
C412 C411 1.387 . S
C412 C415 1.387 . S
H413 C409 0.950 . S
H414 C411 0.950 . S
C415 C406 1.390 . S
C415 H408 0.950 . S
C415 C412 1.387 . S
C177 C96 1.619 . S
C182 C8 1.692 . S
C187 C19 1.692 . S
C192 C107 1.620 . S
C197 C118 1.619 . S
C202 C30 1.692 . S
C207 C41 1.693 . S
C212 C129 1.620 . S
C217 C52 1.692 . S
C222 C140 1.618 . S
C227 C151 1.618 . S
C232 C63 1.692 . S
C237 C162 1.618 . S
C242 C74 1.692 . S
C247 C173 1.620 . S
C252 C85 1.692 . S
C257 C7 1.623 . S
C262 C62 1.622 . S
C267 C73 1.622 . S
C272 C18 1.623 . S
C277 C84 1.622 . S
C282 C29 1.623 . S
C287 C40 1.623 . S
C292 C51 1.623 . S
C297 C95 1.531 . S
C302 C150 1.530 . S
C307 C161 1.532 . S
C312 C106 1.530 . S
C317 C117 1.533 . S
C322 C172 1.530 . S
C327 C139 1.533 . S
C332 C128 1.530 . S
C337 C137 1.344 . S
C342 C5 1.462 . S
C347 C148 1.348 . S
C352 C16 1.461 . S
C357 C27 1.462 . S
C362 C159 1.348 . S
C367 C170 1.348 . S
C372 C38 1.462 . S
C377 C49 1.462 . S
C382 C93 1.344 . S
C387 C104 1.345 . S
C392 C60 1.459 . S
C397 C115 1.344 . S
C402 C71 1.461 . S
C407 C126 1.348 . S
C412 C82 1.462 . S
