# Generated by pormake.
# Topology unc, (4)-cn, num edge types: 1
# Building blocks:
#     Node 0, Type 0, BuildingBlock: CEKHIL_clean_sbu_0, # of connection points: 4
#     Node 1, Type 0, BuildingBlock: CEKHIL_clean_sbu_0, # of connection points: 4
#     Node 2, Type 0, BuildingBlock: CEKHIL_clean_sbu_0, # of connection points: 4
#     Node 3, Type 0, BuildingBlock: CEKHIL_clean_sbu_0, # of connection points: 4
#     Edge 4, Type (0, 0), BuildingBlock: MIFKUJ_clean_linker_0, # of connection points: 2
#     Edge 5, Type (0, 0), BuildingBlock: MIFKUJ_clean_linker_0, # of connection points: 2
#     Edge 6, Type (0, 0), BuildingBlock: MIFKUJ_clean_linker_0, # of connection points: 2
#     Edge 7, Type (0, 0), BuildingBlock: MIFKUJ_clean_linker_0, # of connection points: 2
#     Edge 8, Type (0, 0), BuildingBlock: MIFKUJ_clean_linker_0, # of connection points: 2
#     Edge 9, Type (0, 0), BuildingBlock: MIFKUJ_clean_linker_0, # of connection points: 2
#     Edge 10, Type (0, 0), BuildingBlock: MIFKUJ_clean_linker_0, # of connection points: 2
#     Edge 11, Type (0, 0), BuildingBlock: MIFKUJ_clean_linker_0, # of connection points: 2
# Relax obj value: 0.004
# Max RMSD: 0.040
# Mean RMSD: 0.040
data_MOF--net-unc--node1-CEKHIL_clean_sbu_0--edge1-MIFKUJ_clean_linker_0
_symmetry_space_group_name_H-M    P1
_symmetry_Int_Tables_number       1
_symmetry_cell_setting            triclinic
loop_
_symmetry_equiv_pos_as_xyz
'x, y, z'
_cell_length_a     38.518761
_cell_length_b     38.592566
_cell_length_c     28.688658
_cell_angle_alpha  89.983837
_cell_angle_beta   90.028597
_cell_angle_gamma 92.869563
loop_
_atom_site_label
_atom_site_type_symbol
_atom_site_fract_x
_atom_site_fract_y
_atom_site_fract_z
_atom_type_partial_charge
Co0 Co 0.03151 0.70451 0.99 0.0
O1 O 0.01883 0.73838 0.94462 0.0
O2 O 0.99271 0.73014 0.01258 0.0
C3 C 0.03518 0.66046 0.93839 0.0
O4 O 0.03631 0.67082 0.04454 0.0
Co5 Co 0.10279 0.6711 0.98392 0.0
O6 O 0.0818 0.63809 0.03025 0.0
C7 C 0.09938 0.74279 0.0185 0.0
C8 C 0.99442 0.74665 0.97299 0.0
C9 C 0.05504 0.64493 0.05403 0.0
O10 O 0.06595 0.73926 0.01956 0.0
O11 O 0.11861 0.71977 1.00157 0.0
O12 O 0.00533 0.66817 0.95554 0.0
O13 O 0.06114 0.68118 0.94993 0.0
Co14 Co 0.36479 0.04205 0.30219 0.0
O15 O 0.32769 0.05143 0.34479 0.0
O16 O 0.33863 0.08022 0.27935 0.0
C17 C 0.40642 0.03906 0.35731 0.0
O18 O 0.40143 0.04102 0.25039 0.0
Co19 Co 0.40281 0.97325 0.30663 0.0
O20 O 0.43698 0.99794 0.26542 0.0
C21 C 0.33332 0.97399 0.26267 0.0
C22 C 0.32006 0.07651 0.31706 0.0
C23 C 0.42914 0.02458 0.24221 0.0
O24 O 0.33329 0.00715 0.26776 0.0
O25 O 0.35767 0.95567 0.2781 0.0
O26 O 0.39756 0.06884 0.34143 0.0
O27 O 0.3881 0.0123 0.34253 0.0
Co28 Co 0.03921 0.36564 0.49066 0.0
O29 O 0.05123 0.33244 0.44402 0.0
O30 O 0.07784 0.33918 0.51191 0.0
C31 C 0.03581 0.41098 0.44082 0.0
O32 O 0.03509 0.3982 0.54655 0.0
Co33 Co 0.96809 0.39951 0.48645 0.0
O34 O 0.98595 0.42713 0.54025 0.0
C35 C 0.97113 0.3273 0.51906 0.0
C36 C 0.07561 0.32325 0.47194 0.0
C37 C 0.01415 0.42088 0.56114 0.0
O38 O 0.00462 0.33045 0.51928 0.0
O39 O 0.95207 0.35085 0.50322 0.0
O40 O 0.06559 0.40242 0.45733 0.0
O41 O 0.00966 0.39027 0.45169 0.0
Co42 Co 0.70557 0.02941 0.80343 0.0
O43 O 0.73996 0.01779 0.84875 0.0
O44 O 0.73126 0.99039 0.78174 0.0
C45 C 0.66197 0.0338 0.85575 0.0
O46 O 0.67114 0.0329 0.74923 0.0
Co47 Co 0.67106 0.10018 0.80761 0.0
O48 O 0.63697 0.077 0.76476 0.0
C49 C 0.74122 0.09657 0.76653 0.0
C50 C 0.74799 0.99285 0.82115 0.0
C51 C 0.64422 0.05052 0.74079 0.0
O52 O 0.73992 0.06336 0.77192 0.0
O53 O 0.71726 0.11587 0.78068 0.0
O54 O 0.66974 0.00374 0.83953 0.0
O55 O 0.68236 0.05962 0.84286 0.0
H56 H 0.01359 0.6589 0.12938 0.0
H57 H 0.00325 0.6228 0.19906 0.0
H58 H 0.06673 0.54466 0.14096 0.0
H59 H 0.07712 0.58024 0.07175 0.0
H60 H 0.00767 0.516 0.18025 0.0
H61 H 0.09942 0.60202 0.22004 0.0
H62 H 0.12411 0.66162 0.23143 0.0
H63 H 0.04504 0.68062 0.33242 0.0
H64 H 0.01956 0.62128 0.32106 0.0
H65 H 0.08768 0.45546 0.40854 0.0
H66 H 0.08379 0.4993 0.34748 0.0
H67 H 0.97322 0.47681 0.3375 0.0
H68 H 0.97701 0.43249 0.3982 0.0
H69 H 0.04954 0.55836 0.33464 0.0
H70 H 0.95065 0.48052 0.22248 0.0
H71 H 0.92848 0.42 0.2109 0.0
H72 H 0.02703 0.38324 0.25341 0.0
H73 H 0.04986 0.44354 0.26469 0.0
C74 C 0.02506 0.63388 0.13131 0.0
C75 C 0.04637 0.62259 0.09505 0.0
C76 C 0.01925 0.61336 0.17123 0.0
C77 C 0.03442 0.58111 0.17537 0.0
C78 C 0.05474 0.56942 0.13858 0.0
C79 C 0.0608 0.58993 0.09906 0.0
C80 C 0.03032 0.55963 0.21828 0.0
C81 C 0.01647 0.52543 0.2141 0.0
C82 C 0.04193 0.57178 0.26247 0.0
C83 C 0.05733 0.60739 0.26925 0.0
C84 C 0.08712 0.61903 0.24435 0.0
C85 C 0.10129 0.65274 0.25086 0.0
C86 C 0.08607 0.67494 0.28252 0.0
C87 C 0.05673 0.66343 0.30782 0.0
C88 C 0.04242 0.62977 0.30136 0.0
C89 C 0.06245 0.4601 0.39374 0.0
C90 C 0.03271 0.44022 0.40782 0.0
C91 C 0.06025 0.4853 0.35895 0.0
C92 C 0.0283 0.49108 0.33743 0.0
C93 C 0.99824 0.47248 0.35312 0.0
C94 C 1.00044 0.4472 0.38788 0.0
C95 C 0.02714 0.51468 0.29647 0.0
C96 C 0.04006 0.5492 0.30099 0.0
C97 C 0.01492 0.50279 0.25244 0.0
C98 C 1.00179 0.46648 0.24486 0.0
C99 C 0.9676 0.4595 0.22916 0.0
C100 C 0.95492 0.42526 0.22269 0.0
C101 C 0.9763 0.39779 0.23155 0.0
C102 C 0.01046 0.40453 0.2467 0.0
C103 C 0.02327 0.43873 0.25317 0.0
H104 H 0.96642 0.3713 0.2266 0.0
H105 H 0.09702 0.70103 0.2876 0.0
H106 H 0.41531 0.07915 0.43374 0.0
H107 H 0.4592 0.07536 0.49447 0.0
H108 H 0.50431 0.99101 0.4207 0.0
H109 H 0.45795 0.99283 0.36197 0.0
H110 H 0.50991 0.97746 0.50497 0.0
H111 H 0.54087 0.08101 0.42246 0.0
H112 H 0.53254 0.13755 0.38505 0.0
H113 H 0.50463 0.18065 0.51699 0.0
H114 H 0.51236 0.12428 0.5551 0.0
H115 H 0.65738 0.00887 0.66503 0.0
H116 H 0.62168 1.00114 0.59428 0.0
H117 H 0.54448 0.06495 0.6541 0.0
H118 H 0.57954 0.07283 0.72405 0.0
H119 H 0.56551 0.08669 0.56665 0.0
H120 H 0.53169 0.97678 0.64478 0.0
H121 H 0.54463 0.91975 0.67762 0.0
H122 H 0.58629 0.88908 0.54596 0.0
H123 H 0.57397 0.94609 0.51253 0.0
C124 C 0.43464 0.05982 0.43058 0.0
C125 C 0.4336 0.03653 0.39311 0.0
C126 C 0.46001 0.05784 0.46507 0.0
C127 C 0.48613 0.03374 0.46161 0.0
C128 C 0.48477 0.01007 0.42422 0.0
C129 C 0.45841 0.01117 0.39056 0.0
C130 C 0.51423 0.03319 0.49753 0.0
C131 C 0.52248 1.00138 0.51774 0.0
C132 C 0.53125 0.06419 0.51429 0.0
C133 C 0.52706 0.09834 0.49159 0.0
C134 C 0.53284 0.10251 0.44346 0.0
C135 C 0.52822 0.13454 0.42214 0.0
C136 C 0.51803 0.16266 0.44862 0.0
C137 C 0.51254 0.15885 0.49652 0.0
C138 C 0.51711 0.12689 0.51802 0.0
C139 C 0.63255 0.02079 0.66331 0.0
C140 C 0.62155 0.04178 0.70009 0.0
C141 C 0.61221 0.01637 0.62286 0.0
C142 C 0.58051 0.03268 0.61881 0.0
C143 C 0.56898 0.0524 0.65624 0.0
C144 C 0.58914 0.05685 0.69632 0.0
C145 C 0.55972 0.03133 0.57512 0.0
C146 C 0.55317 0.06284 0.55322 0.0
C147 C 0.54516 1.00006 0.55613 0.0
C148 C 0.55225 0.9658 0.57633 0.0
C149 C 0.54385 0.95797 0.62296 0.0
C150 C 0.55102 0.92563 0.64165 0.0
C151 C 0.56636 0.90085 0.61394 0.0
C152 C 0.57446 0.90831 0.56742 0.0
C153 C 0.56736 0.94061 0.54858 0.0
H154 H 0.57191 0.87584 0.62847 0.0
H155 H 0.51442 0.18741 0.43202 0.0
H156 H 0.98566 0.61088 0.91334 0.0
H157 H 0.99033 0.56537 0.85473 0.0
H158 H 0.09727 0.59878 0.82992 0.0
H159 H 0.09275 0.64446 0.88862 0.0
H160 H 0.06136 0.5909 0.7491 0.0
H161 H 0.07934 0.52337 0.88403 0.0
H162 H 0.06818 0.50048 0.9631 0.0
H163 H 0.96989 0.4548 0.91816 0.0
H164 H 0.98016 0.47793 0.83893 0.0
H165 H 0.07787 0.44462 0.5945 0.0
H166 H 0.08921 0.48116 0.6638 0.0
H167 H 0.97966 0.47637 0.6954 0.0
H168 H 0.96811 0.44097 0.62595 0.0
H169 H 0.02637 0.4669 0.7752 0.0
H170 H 0.00603 0.543 0.64418 0.0
H171 H 0.0175 0.56638 0.56539 0.0
H172 H 0.12251 0.59557 0.6047 0.0
H173 H 0.11177 0.5718 0.6836 0.0
C174 C 0.01028 0.60832 0.89576 0.0
C175 C 0.03881 0.63129 0.90553 0.0
C176 C 0.01297 0.58219 0.86239 0.0
C177 C 0.04423 0.57849 0.8381 0.0
C178 C 0.07292 0.60111 0.84827 0.0
C179 C 0.07031 0.62713 0.88191 0.0
C180 C 0.04615 0.55223 0.80038 0.0
C181 C 0.05449 0.56365 0.75508 0.0
C182 C 0.03677 0.51672 0.80796 0.0
C183 C 0.03042 0.50265 0.85556 0.0
C184 C 0.0552 0.5087 0.89107 0.0
C185 C 0.04906 0.49564 0.93592 0.0
C186 C 0.01831 0.47626 0.94568 0.0
C187 C 0.99368 0.46985 0.91056 0.0
C188 C 0.99966 0.4829 0.86564 0.0
C189 C 0.05634 0.45112 0.61657 0.0
C190 C 0.0221 0.44022 0.60471 0.0
C191 C 0.06282 0.47196 0.65602 0.0
C192 C 0.03523 0.48142 0.68464 0.0
C193 C 1.00129 0.46927 0.67386 0.0
C194 C 0.99473 0.44924 0.63402 0.0
C195 C 0.04102 0.5058 0.72417 0.0
C196 C 0.03397 0.49403 0.76964 0.0
C197 C 0.05175 0.54095 0.71687 0.0
C198 C 0.05827 0.55515 0.6695 0.0
C199 C 0.03168 0.55403 0.63585 0.0
C200 C 0.03802 0.56743 0.59121 0.0
C201 C 0.07076 0.58232 0.57998 0.0
C202 C 0.09719 0.58392 0.61341 0.0
C203 C 0.091 0.57049 0.65808 0.0
H204 H 0.07561 0.59273 0.54542 0.0
H205 H 0.01361 0.46615 0.98042 0.0
H206 H 0.41337 0.06299 0.16474 0.0
H207 H 0.44952 0.0729 0.09498 0.0
H208 H 0.53201 0.01849 0.15962 0.0
H209 H 0.49646 0.00875 0.22896 0.0
H210 H 0.55772 0.07459 0.11354 0.0
H211 H 0.47594 0.97746 0.0846 0.0
H212 H 0.41736 0.9491 0.07734 0.0
H213 H 0.39229 0.02079 0.96938 0.0
H214 H 0.45061 0.04988 0.97648 0.0
H215 H 0.61876 0.98296 0.8934 0.0
H216 H 0.57514 0.98919 0.95434 0.0
H217 H 0.59577 0.10009 0.95382 0.0
H218 H 0.63991 0.09396 0.8934 0.0
H219 H 0.51564 0.02207 0.96474 0.0
H220 H 0.59271 0.12892 0.06591 0.0
H221 H 0.65321 0.15206 0.07547 0.0
H222 H 0.69076 0.052 0.04288 0.0
H223 H 0.6305 0.02821 0.03371 0.0
C224 C 0.43943 0.05369 0.16433 0.0
C225 C 0.45192 0.03485 0.2023 0.0
C226 C 0.45997 0.05919 0.12435 0.0
C227 C 0.49335 0.0461 0.12188 0.0
C228 C 0.50637 0.02881 0.16065 0.0
C229 C 0.48589 0.02313 0.20026 0.0
C230 C 0.51442 0.04851 0.07846 0.0
C231 C 0.54832 0.06353 0.08085 0.0
C232 C 0.50241 0.03366 0.0359 0.0
C233 C 0.46744 0.01611 0.03149 0.0
C234 C 0.45782 0.98735 0.05959 0.0
C235 C 0.42469 0.97111 0.05546 0.0
C236 C 0.40107 0.98321 0.02304 0.0
C237 C 0.41058 0.0115 0.99457 0.0
C238 C 0.44366 0.02787 0.99862 0.0
C239 C 0.61377 0.00871 0.90591 0.0
C240 C 0.63307 0.03793 0.889 0.0
C241 C 0.5887 0.01226 0.94062 0.0
C242 C 0.58246 0.04505 0.95912 0.0
C243 C 0.60049 0.07446 0.94058 0.0
C244 C 0.62568 0.07092 0.906 0.0
C245 C 0.55899 0.04798 0.99997 0.0
C246 C 0.52472 0.0339 0.99711 0.0
C247 C 0.57084 0.06311 0.04243 0.0
C248 C 0.60715 0.07694 0.04862 0.0
C249 C 0.6139 0.11187 0.06094 0.0
C250 C 0.64813 0.12509 0.06627 0.0
C251 C 0.67581 0.10355 0.05963 0.0
C252 C 0.66931 0.06869 0.04785 0.0
C253 C 0.63513 0.05534 0.04255 0.0
H254 H 0.70229 0.11384 0.0637 0.0
H255 H 0.37543 0.97061 0.0199 0.0
H256 H 0.33361 0.91085 0.22031 0.0
H257 H 0.28611 0.87997 0.17906 0.0
H258 H 0.21945 0.96405 0.2064 0.0
H259 H 0.26739 0.99585 0.24691 0.0
H260 H 0.21588 0.86274 0.22131 0.0
H261 H 0.19162 0.9741 0.13053 0.0
H262 H 0.21593 0.02632 0.09 0.0
H263 H 0.28446 0.96365 0.01219 0.0
H264 H 0.26081 0.91117 0.0529 0.0
H265 H 0.07563 0.78293 0.08934 0.0
H266 H 0.10808 0.82977 0.13095 0.0
H267 H 0.19494 0.81962 0.03807 0.0
H268 H 0.16308 0.77247 0.99702 0.0
H269 H 0.18092 0.89012 0.05943 0.0
H270 H 0.1995 0.78049 0.13385 0.0
H271 H 0.18259 0.72519 0.17266 0.0
H272 H 0.1318 0.78034 0.28096 0.0
H273 H 0.14802 0.83603 0.24234 0.0
C274 C 0.30892 0.92294 0.2175 0.0
C275 C 0.30431 0.95584 0.237 0.0
C276 C 0.28182 0.90525 0.1938 0.0
C277 C 0.24942 0.91987 0.18923 0.0
C278 C 0.2445 0.95265 0.20867 0.0
C279 C 0.27185 0.97068 0.23199 0.0
C280 C 0.22089 0.89975 0.16528 0.0
C281 C 0.2074 0.8692 0.18643 0.0
C282 C 0.21064 0.90767 0.11939 0.0
C283 C 0.22486 0.93898 0.09508 0.0
C284 C 0.2121 0.97159 0.10507 0.0
C285 C 0.2257 1.00118 0.08205 0.0
C286 C 0.25181 0.99832 0.04865 0.0
C287 C 0.26433 0.96584 0.03817 0.0
C288 C 0.25088 0.9362 0.06125 0.0
C289 C 0.10142 0.79109 0.07733 0.0
C290 C 0.1169 0.77387 0.04009 0.0
C291 C 0.11992 0.81778 0.10118 0.0
C292 C 0.15392 0.82808 0.08761 0.0
C293 C 0.16869 0.81215 0.04897 0.0
C294 C 0.15052 0.78508 0.02573 0.0
C295 C 0.17536 0.85329 0.11579 0.0
C296 C 0.18808 0.88436 0.09507 0.0
C297 C 0.18501 0.84574 0.16216 0.0
C298 C 0.1745 0.81235 0.18486 0.0
C299 C 0.18432 0.7808 0.1656 0.0
C300 C 0.17496 0.74941 0.18762 0.0
C301 C 0.15606 0.74927 0.22917 0.0
C302 C 0.14638 0.78051 0.24871 0.0
C303 C 0.15564 0.81199 0.22677 0.0
H304 H 0.14915 0.72496 0.24635 0.0
H305 H 0.26227 0.02124 0.0308 0.0
H306 H 0.27209 0.06925 0.38672 0.0
H307 H 0.2302 0.11101 0.4117 0.0
H308 H 0.2655 0.18108 0.30258 0.0
H309 H 0.3075 0.13922 0.27713 0.0
H310 H 0.25977 0.21394 0.38881 0.0
H311 H 0.1904 0.1387 0.28926 0.0
H312 H 0.16592 0.08243 0.26057 0.0
H313 H 0.11732 0.06259 0.39325 0.0
H314 H 0.14196 0.11858 0.42296 0.0
H315 H 0.07533 0.28708 0.3905 0.0
H316 H 0.1166 0.24542 0.36424 0.0
H317 H 0.17252 0.2571 0.49406 0.0
H318 H 0.13134 0.2995 0.52044 0.0
H319 H 0.13307 0.18406 0.39502 0.0
H320 H 0.25947 0.24663 0.47242 0.0
H321 H 0.284 0.30434 0.49573 0.0
H322 H 0.2179 0.35267 0.39706 0.0
H323 H 0.19333 0.29525 0.37276 0.0
C324 C 0.27079 0.09342 0.36775 0.0
C325 C 0.29304 0.10087 0.32981 0.0
C326 C 0.24681 0.11727 0.38211 0.0
C327 C 0.24468 0.14916 0.359 0.0
C328 C 0.26677 0.15666 0.32098 0.0
C329 C 0.29057 0.13262 0.30627 0.0
C330 C 0.21948 0.17464 0.37482 0.0
C331 C 0.23207 0.20743 0.39022 0.0
C332 C 0.18331 0.16627 0.37627 0.0
C333 C 0.1683 0.13268 0.35847 0.0
C334 C 0.17473 0.12222 0.31244 0.0
C335 C 0.16078 0.0904 0.29597 0.0
C336 C 0.14015 0.06891 0.32511 0.0
C337 C 0.13335 0.07925 0.37074 0.0
C338 C 0.14727 0.11104 0.3874 0.0
C339 C 0.09633 0.28079 0.41364 0.0
C340 C 0.10008 0.29674 0.45757 0.0
C341 C 0.1199 0.25684 0.39856 0.0
C342 C 0.1479 0.24826 0.4269 0.0
C343 C 0.15141 0.26364 0.47124 0.0
C344 C 0.12777 0.28774 0.48639 0.0
C345 C 0.1733 0.2234 0.40953 0.0
C346 C 0.16077 0.19061 0.39389 0.0
C347 C 0.20947 0.232 0.40726 0.0
C348 C 0.22432 0.26666 0.42117 0.0
C349 C 0.25027 0.26958 0.45561 0.0
C350 C 0.26416 0.30223 0.469 0.0
C351 C 0.25243 0.33216 0.448 0.0
C352 C 0.22687 0.32948 0.41343 0.0
C353 C 0.21292 0.29689 0.39988 0.0
H354 H 0.2632 0.35741 0.45845 0.0
H355 H 0.12937 0.04428 0.31229 0.0
H356 H 0.74161 0.15766 0.71942 0.0
H357 H 0.78899 0.18587 0.67505 0.0
H358 H 0.85541 0.10317 0.71038 0.0
H359 H 0.80742 0.07394 0.75442 0.0
H360 H 0.88166 0.18188 0.72296 0.0
H361 H 0.83865 0.09705 0.61243 0.0
H362 H 0.79325 0.06338 0.56889 0.0
H363 H 0.75765 0.15727 0.50918 0.0
H364 H 0.80248 0.19157 0.55298 0.0
H365 H 1.00009 0.2737 0.56678 0.0
H366 H 0.96932 0.22478 0.60613 0.0
H367 H 0.87135 0.26165 0.55924 0.0
H368 H 0.90157 0.30983 0.51949 0.0
H369 H 0.87064 0.19361 0.55142 0.0
H370 H 0.90399 0.27837 0.67018 0.0
H371 H 0.94551 0.31505 0.71629 0.0
H372 H 0.99609 0.22446 0.76234 0.0
H373 H 0.95509 0.18726 0.71597 0.0
C374 C 0.76628 0.1454 0.71805 0.0
C375 C 0.77075 0.11356 0.74063 0.0
C376 C 0.79329 0.16154 0.6925 0.0
C377 C 0.82559 0.14656 0.68943 0.0
C378 C 0.83058 0.11507 0.71241 0.0
C379 C 0.80318 0.09841 0.73737 0.0
C380 C 0.85359 0.16446 0.66178 0.0
C381 C 0.87999 0.18372 0.68529 0.0
C382 C 0.85076 0.1674 0.61285 0.0
C383 C 0.82378 0.1469 0.58629 0.0
C384 C 0.82093 0.11055 0.59037 0.0
C385 C 0.79534 0.09134 0.56556 0.0
C386 C 0.77253 0.10818 0.53636 0.0
C387 C 0.77532 0.14426 0.53183 0.0
C388 C 0.80085 0.1636 0.5566 0.0
C389 C 0.97201 0.27117 0.56444 0.0
C390 C 0.95337 0.29594 0.54013 0.0
C391 C 0.95445 0.24325 0.58715 0.0
C392 C 0.91795 0.23968 0.58608 0.0
C393 C 0.89949 0.26374 0.56058 0.0
C394 C 0.91691 0.29148 0.53797 0.0
C395 C 0.89833 0.21192 0.61262 0.0
C396 C 0.87323 0.19097 0.58889 0.0
C397 C 0.90213 0.20778 0.66143 0.0
C398 C 0.92683 0.23011 0.68911 0.0
C399 C 0.92418 0.26631 0.6898 0.0
C400 C 0.94756 0.28719 0.71604 0.0
C401 C 0.97351 0.27211 0.74209 0.0
C402 C 0.97605 0.23611 0.74204 0.0
C403 C 0.95275 0.21512 0.71579 0.0
H404 H 0.99157 0.28831 0.76242 0.0
H405 H 0.75274 0.09326 0.51716 0.0
H406 H 0.76698 0.97771 0.90954 0.0
H407 H 0.80782 0.9356 0.93546 0.0
H408 H 0.82883 0.90936 0.79229 0.0
H409 H 0.78606 0.95035 0.76626 0.0
H410 H 0.8264 0.85339 0.83927 0.0
H411 H 0.88671 0.96298 0.86454 0.0
H412 H 0.89533 0.0229 0.89372 0.0
H413 H 0.8838 0.98642 0.03455 0.0
H414 H 0.87468 0.92631 0.00618 0.0
H415 H 0.98556 0.77436 0.88688 0.0
H416 H 0.94305 0.81552 0.86242 0.0
H417 H 0.90344 0.81914 1.00276 0.0
H418 H 0.94589 0.7773 0.02761 0.0
H419 H 0.91595 0.88598 0.95793 0.0
H420 H 0.85728 0.77486 0.92833 0.0
H421 H 0.85208 0.71576 0.89559 0.0
H422 H 0.86535 0.75713 0.75743 0.0
H423 H 0.87113 0.81648 0.78942 0.0
C424 C 0.78039 0.96308 0.8835 0.0
C425 C 0.77357 0.96758 0.83581 0.0
C426 C 0.80398 0.93908 0.89839 0.0
C427 C 0.8223 0.91978 0.86594 0.0
C428 C 0.81525 0.924 0.81814 0.0
C429 C 0.7909 0.94751 0.80322 0.0
C430 C 0.84827 0.89489 0.8821 0.0
C431 C 0.84626 0.86081 0.86469 0.0
C432 C 0.874 0.90408 0.91599 0.0
C433 C 0.87972 0.94018 0.93319 0.0
C434 C 0.88581 0.96776 0.90172 0.0
C435 C 0.89081 0.00176 0.91811 0.0
C436 C 0.89003 0.00847 0.96595 0.0
C437 C 0.88436 0.98119 0.9975 0.0
C438 C 0.87932 0.94715 0.98129 0.0
C439 C 0.9679 0.78391 0.9127 0.0
C440 C 0.9691 0.77252 0.95925 0.0
C441 C 0.94352 0.80736 0.89855 0.0
C442 C 0.91993 0.82019 0.93066 0.0
C443 C 0.9214 0.80946 0.97741 0.0
C444 C 0.94559 0.78555 0.99154 0.0
C445 C 0.89387 0.84484 0.91506 0.0
C446 C 0.89599 0.87879 0.93254 0.0
C447 C 0.86871 0.83574 0.88064 0.0
C448 C 0.86495 0.80009 0.86132 0.0
C449 C 0.85937 0.77134 0.891 0.0
C450 C 0.85626 0.73779 0.87257 0.0
C451 C 0.85846 0.73268 0.82447 0.0
C452 C 0.86368 0.76112 0.79468 0.0
C453 C 0.86684 0.79472 0.81295 0.0
H454 H 0.85606 0.70669 0.81026 0.0
H455 H 0.89389 0.03481 0.97857 0.0
loop_
_geom_bond_atom_site_label_1
_geom_bond_atom_site_label_2
_geom_bond_distance
_geom_bond_site_symmetry_2
_ccdc_geom_bond_type
Co0 O1 2.216 1_554 S
Co0 O2 2.091 1_455 S
Co0 O4 2.004 . S
Co0 O10 2.021 . S
Co0 O12 2.135 1_454 S
Co0 O13 2.244 1_554 S
O1 Co0 2.216 1_556 S
O1 C8 1.247 1_455 S
O2 Co0 2.091 1_655 S
O2 C8 1.261 1_554 S
C3 O12 1.238 1_455 S
C3 O13 1.272 . S
O4 Co0 2.004 . S
O4 C9 1.259 . S
Co5 O6 2.061 . S
Co5 O11 2.052 . S
Co5 O13 2.135 1_554 S
O6 Co5 2.061 . S
O6 C9 1.235 . S
C7 O10 1.238 . S
C7 O11 1.241 . S
C8 O1 1.247 1_655 S
C8 O2 1.261 1_556 S
C9 O4 1.259 . S
C9 O6 1.235 . S
O10 Co0 2.021 . S
O10 C7 1.238 . S
O11 Co5 2.052 . S
O11 C7 1.241 . S
O12 Co0 2.135 1_656 S
O12 C3 1.238 1_655 S
O13 Co0 2.244 1_556 S
O13 C3 1.272 . S
O13 Co5 2.135 1_556 S
Co14 O15 2.216 . S
Co14 O16 2.091 . S
Co14 O18 2.004 . S
Co14 O24 2.021 . S
Co14 O26 2.137 . S
Co14 O27 2.244 . S
O15 Co14 2.216 . S
O15 C22 1.247 . S
O16 Co14 2.091 . S
O16 C22 1.261 . S
C17 O26 1.247 . S
C17 O27 1.272 . S
O18 Co14 2.004 . S
O18 C23 1.259 . S
Co19 O20 2.061 1_565 S
Co19 O25 2.052 . S
Co19 O27 2.135 1_565 S
O20 Co19 2.061 1_545 S
O20 C23 1.235 . S
C21 O24 1.238 1_565 S
C21 O25 1.241 . S
C22 O15 1.247 . S
C22 O16 1.261 . S
C23 O18 1.259 . S
C23 O20 1.235 . S
O24 Co14 2.021 . S
O24 C21 1.238 1_545 S
O25 Co19 2.052 . S
O25 C21 1.241 . S
O26 Co14 2.137 . S
O26 C17 1.247 . S
O27 Co14 2.244 . S
O27 C17 1.272 . S
O27 Co19 2.135 1_545 S
Co28 O29 2.216 . S
Co28 O30 2.091 . S
Co28 O32 2.004 . S
Co28 O38 2.021 . S
Co28 O40 2.137 . S
Co28 O41 2.244 . S
O29 Co28 2.216 . S
O29 C36 1.247 . S
O30 Co28 2.091 . S
O30 C36 1.261 . S
C31 O40 1.247 . S
C31 O41 1.272 . S
O32 Co28 2.004 . S
O32 C37 1.259 . S
Co33 O34 2.061 1_655 S
Co33 O39 2.052 . S
Co33 O41 2.135 1_655 S
O34 Co33 2.061 1_455 S
O34 C37 1.235 . S
C35 O38 1.238 1_655 S
C35 O39 1.241 . S
C36 O29 1.247 . S
C36 O30 1.261 . S
C37 O32 1.259 . S
C37 O34 1.235 . S
O38 Co28 2.021 . S
O38 C35 1.238 1_455 S
O39 Co33 2.052 . S
O39 C35 1.241 . S
O40 Co28 2.137 . S
O40 C31 1.247 . S
O41 Co28 2.244 . S
O41 C31 1.272 . S
O41 Co33 2.135 1_455 S
Co42 O43 2.216 . S
Co42 O44 2.091 1_545 S
Co42 O46 2.004 . S
Co42 O52 2.021 . S
Co42 O54 2.135 1_545 S
Co42 O55 2.244 . S
O43 Co42 2.216 . S
O43 C50 1.247 1_545 S
O44 Co42 2.091 1_565 S
O44 C50 1.261 . S
C45 O54 1.238 1_545 S
C45 O55 1.272 . S
O46 Co42 2.004 . S
O46 C51 1.259 . S
Co47 O48 2.061 . S
Co47 O53 2.052 . S
Co47 O55 2.135 . S
O48 Co47 2.061 . S
O48 C51 1.235 . S
C49 O52 1.238 . S
C49 O53 1.241 . S
C50 O43 1.247 1_565 S
C50 O44 1.261 . S
C51 O46 1.259 . S
C51 O48 1.235 . S
O52 Co42 2.021 . S
O52 C49 1.238 . S
O53 Co47 2.052 . S
O53 C49 1.241 . S
O54 Co42 2.135 1_565 S
O54 C45 1.238 1_565 S
O55 Co42 2.244 . S
O55 C45 1.272 . S
O55 Co47 2.135 . S
H56 C74 0.951 . S
H57 C76 0.951 . S
H58 C78 0.950 . S
H59 C79 0.950 . S
H60 C81 0.950 1_655 S
H61 C84 0.950 . S
H62 C85 0.950 . S
H63 C87 0.950 . S
H64 C88 0.950 . S
H65 C89 0.951 . S
H66 C91 0.951 . S
H67 C93 0.950 . S
H68 C94 0.950 . S
H69 C96 0.950 . S
H70 C99 0.950 . S
H71 C100 0.950 . S
H72 C102 0.950 . S
H73 C103 0.950 1_455 S
C74 H56 0.951 . S
C74 C75 1.366 . S
C74 C76 1.388 . S
C75 C74 1.366 . S
C75 C79 1.385 . S
C76 H57 0.951 . S
C76 C74 1.388 . S
C76 C77 1.366 . S
C77 C76 1.366 . S
C77 C78 1.414 . S
C77 C80 1.499 . S
C78 H58 0.950 . S
C78 C77 1.414 . S
C78 C79 1.374 . S
C79 H59 0.950 . S
C79 C75 1.385 . S
C79 C78 1.374 . S
C80 C77 1.499 . S
C80 C81 1.373 . S
C80 C82 1.389 . S
C81 H60 0.950 1_455 S
C81 C80 1.373 . S
C81 C97 1.377 . S
C82 C80 1.389 . S
C82 C83 1.524 . S
C82 C96 1.377 . S
C83 C82 1.524 . S
C83 C84 1.397 . S
C83 C88 1.363 . S
C84 H61 0.950 . S
C84 C83 1.397 . S
C84 C85 1.334 . S
C85 H62 0.950 . S
C85 C84 1.334 . S
C85 C86 1.287 . S
C86 C85 1.287 . S
C86 C87 1.524 . S
C86 H105 0.913 . S
C87 H63 0.950 . S
C87 C86 1.524 . S
C87 C88 1.415 . S
C88 H64 0.950 . S
C88 C83 1.363 . S
C88 C87 1.415 . S
C89 H65 0.951 . S
C89 C90 1.366 . S
C89 C91 1.388 . S
C90 C89 1.366 . S
C90 C94 1.385 . S
C91 H66 0.951 . S
C91 C89 1.388 . S
C91 C92 1.366 . S
C92 C91 1.366 . S
C92 C93 1.414 . S
C92 C95 1.499 . S
C93 H67 0.950 . S
C93 C92 1.414 . S
C93 C94 1.374 . S
C94 H68 0.950 . S
C94 C90 1.385 . S
C94 C93 1.374 . S
C95 C92 1.499 . S
C95 C96 1.373 . S
C95 C97 1.389 . S
C96 H69 0.950 . S
C96 C82 1.377 . S
C96 C95 1.373 . S
C97 C81 1.377 . S
C97 C95 1.389 . S
C97 C98 1.524 1_455 S
C98 C97 1.524 1_655 S
C98 C99 1.397 . S
C98 C103 1.363 . S
C99 H70 0.950 . S
C99 C98 1.397 . S
C99 C100 1.334 . S
C100 H71 0.950 . S
C100 C99 1.334 . S
C100 C101 1.287 . S
C101 C100 1.287 . S
C101 C102 1.524 . S
C101 H104 0.999 . S
C102 H72 0.950 . S
C102 C101 1.524 . S
C102 C103 1.415 . S
C103 H73 0.950 1_655 S
C103 C98 1.363 . S
C103 C102 1.415 . S
H104 C101 0.999 . S
H105 C86 0.913 . S
H106 C124 0.951 . S
H107 C126 0.951 . S
H108 C128 0.950 . S
H109 C129 0.950 . S
H110 C131 0.950 1_565 S
H111 C134 0.950 . S
H112 C135 0.950 . S
H113 C137 0.950 . S
H114 C138 0.950 . S
H115 C139 0.951 . S
H116 C141 0.951 . S
H117 C143 0.950 . S
H118 C144 0.950 . S
H119 C146 0.950 . S
H120 C149 0.950 . S
H121 C150 0.950 . S
H122 C152 0.950 . S
H123 C153 0.950 . S
C124 H106 0.951 . S
C124 C125 1.366 . S
C124 C126 1.388 . S
C125 C124 1.366 . S
C125 C129 1.385 . S
C126 H107 0.951 . S
C126 C124 1.388 . S
C126 C127 1.366 . S
C127 C126 1.366 . S
C127 C128 1.414 . S
C127 C130 1.499 . S
C128 H108 0.950 . S
C128 C127 1.414 . S
C128 C129 1.374 . S
C129 H109 0.950 . S
C129 C125 1.385 . S
C129 C128 1.374 . S
C130 C127 1.499 . S
C130 C131 1.373 . S
C130 C132 1.389 . S
C131 H110 0.950 1_545 S
C131 C130 1.373 . S
C131 C147 1.380 . S
C132 C130 1.389 . S
C132 C133 1.524 . S
C132 C146 1.377 . S
C133 C132 1.524 . S
C133 C134 1.397 . S
C133 C138 1.363 . S
C134 H111 0.950 . S
C134 C133 1.397 . S
C134 C135 1.334 . S
C135 H112 0.950 . S
C135 C134 1.334 . S
C135 C136 1.287 . S
C136 C135 1.287 . S
C136 C137 1.524 . S
C136 H155 0.913 . S
C137 H113 0.950 . S
C137 C136 1.524 . S
C137 C138 1.415 . S
C138 H114 0.950 . S
C138 C133 1.363 . S
C138 C137 1.415 . S
C139 H115 0.951 . S
C139 C140 1.366 . S
C139 C141 1.388 . S
C140 C139 1.366 . S
C140 C144 1.385 . S
C141 H116 0.951 . S
C141 C139 1.388 . S
C141 C142 1.366 . S
C142 C141 1.366 . S
C142 C143 1.414 . S
C142 C145 1.499 . S
C143 H117 0.950 . S
C143 C142 1.414 . S
C143 C144 1.374 . S
C144 H118 0.950 . S
C144 C140 1.385 . S
C144 C143 1.374 . S
C145 C142 1.499 . S
C145 C146 1.373 . S
C145 C147 1.412 . S
C146 H119 0.950 . S
C146 C132 1.377 . S
C146 C145 1.373 . S
C147 C131 1.380 . S
C147 C145 1.412 . S
C147 C148 1.497 1_545 S
C148 C147 1.497 1_565 S
C148 C149 1.397 . S
C148 C153 1.363 . S
C149 H120 0.950 . S
C149 C148 1.397 . S
C149 C150 1.334 . S
C150 H121 0.950 . S
C150 C149 1.334 . S
C150 C151 1.287 . S
C151 C150 1.287 . S
C151 C152 1.524 . S
C151 H154 0.999 . S
C152 H122 0.950 . S
C152 C151 1.524 . S
C152 C153 1.415 . S
C153 H123 0.950 . S
C153 C148 1.363 . S
C153 C152 1.415 . S
H154 C151 0.999 . S
H155 C136 0.913 . S
H156 C174 0.951 1_655 S
H157 C176 0.939 1_655 S
H158 C178 0.950 . S
H159 C179 0.950 . S
H160 C181 0.950 . S
H161 C184 0.950 . S
H162 C185 0.950 . S
H163 C187 0.950 . S
H164 C188 0.950 . S
H165 C189 0.951 . S
H166 C191 0.951 . S
H167 C193 0.960 . S
H168 C194 0.950 . S
H169 C196 0.950 . S
H170 C199 0.950 . S
H171 C200 0.950 . S
H172 C202 0.950 . S
H173 C203 0.950 . S
C174 H156 0.951 1_455 S
C174 C175 1.366 . S
C174 C176 1.388 . S
C175 C174 1.366 . S
C175 C179 1.385 . S
C176 H157 0.939 1_455 S
C176 C174 1.388 . S
C176 C177 1.366 . S
C177 C176 1.366 . S
C177 C178 1.414 . S
C177 C180 1.499 . S
C178 H158 0.950 . S
C178 C177 1.414 . S
C178 C179 1.374 . S
C179 H159 0.950 . S
C179 C175 1.385 . S
C179 C178 1.374 . S
C180 C177 1.499 . S
C180 C181 1.373 . S
C180 C182 1.389 . S
C181 H160 0.950 . S
C181 C180 1.373 . S
C181 C197 1.377 . S
C182 C180 1.389 . S
C182 C183 1.524 . S
C182 C196 1.377 . S
C183 C182 1.524 . S
C183 C184 1.397 . S
C183 C188 1.363 . S
C184 H161 0.950 . S
C184 C183 1.397 . S
C184 C185 1.334 . S
C185 H162 0.950 . S
C185 C184 1.334 . S
C185 C186 1.287 . S
C186 C185 1.287 . S
C186 C187 1.524 . S
C186 H205 0.913 . S
C187 H163 0.950 . S
C187 C186 1.524 . S
C187 C188 1.415 . S
C188 H164 0.950 . S
C188 C183 1.363 . S
C188 C187 1.415 . S
C189 H165 0.951 . S
C189 C190 1.366 . S
C189 C191 1.388 . S
C190 C189 1.366 . S
C190 C194 1.385 . S
C191 H166 0.951 . S
C191 C189 1.388 . S
C191 C192 1.366 . S
C192 C191 1.366 . S
C192 C193 1.414 . S
C192 C195 1.499 . S
C193 H167 0.960 . S
C193 C192 1.414 . S
C193 C194 1.374 . S
C194 H168 0.950 . S
C194 C190 1.385 . S
C194 C193 1.374 . S
C195 C192 1.499 . S
C195 C196 1.373 . S
C195 C197 1.389 . S
C196 H169 0.950 . S
C196 C182 1.377 . S
C196 C195 1.373 . S
C197 C181 1.377 . S
C197 C195 1.389 . S
C197 C198 1.524 . S
C198 C197 1.524 . S
C198 C199 1.397 1_455 S
C198 C203 1.363 . S
C199 H170 0.950 . S
C199 C198 1.397 1_655 S
C199 C200 1.334 . S
C200 H171 0.950 . S
C200 C199 1.334 . S
C200 C201 1.287 1_655 S
C201 C200 1.287 1_455 S
C201 C202 1.524 . S
C201 H204 0.999 . S
C202 H172 0.950 . S
C202 C201 1.524 . S
C202 C203 1.415 . S
C203 H173 0.950 . S
C203 C198 1.363 . S
C203 C202 1.415 . S
H204 C201 0.999 . S
H205 C186 0.913 . S
H206 C224 0.951 . S
H207 C226 0.951 . S
H208 C228 0.950 . S
H209 C229 0.950 . S
H210 C231 0.950 . S
H211 C234 0.950 . S
H212 C235 0.950 . S
H213 C237 0.950 . S
H214 C238 0.950 . S
H215 C239 0.951 . S
H216 C241 0.951 . S
H217 C243 0.950 . S
H218 C244 0.950 . S
H219 C246 0.950 . S
H220 C249 0.950 . S
H221 C250 0.950 1_556 S
H222 C252 0.950 . S
H223 C253 0.950 . S
C224 H206 0.951 . S
C224 C225 1.366 . S
C224 C226 1.388 . S
C225 C224 1.366 . S
C225 C229 1.385 . S
C226 H207 0.951 . S
C226 C224 1.388 . S
C226 C227 1.366 . S
C227 C226 1.366 . S
C227 C228 1.414 . S
C227 C230 1.499 . S
C228 H208 0.950 . S
C228 C227 1.414 . S
C228 C229 1.374 . S
C229 H209 0.950 . S
C229 C225 1.385 . S
C229 C228 1.374 . S
C230 C227 1.499 . S
C230 C231 1.373 . S
C230 C232 1.389 . S
C231 H210 0.950 . S
C231 C230 1.373 . S
C231 C247 1.377 . S
C232 C230 1.389 . S
C232 C233 1.524 1_554 S
C232 C246 1.377 1_554 S
C233 C232 1.524 1_556 S
C233 C234 1.397 1_546 S
C233 C238 1.363 . S
C234 H211 0.950 . S
C234 C233 1.397 1_564 S
C234 C235 1.334 . S
C235 H212 0.950 . S
C235 C234 1.334 . S
C235 C236 1.287 1_554 S
C236 C235 1.287 1_556 S
C236 C237 1.524 . S
C236 H255 0.913 . S
C237 H213 0.950 . S
C237 C236 1.524 . S
C237 C238 1.415 1_565 S
C238 H214 0.950 . S
C238 C233 1.363 . S
C238 C237 1.415 1_545 S
C239 H215 0.951 . S
C239 C240 1.366 . S
C239 C241 1.388 . S
C240 C239 1.366 . S
C240 C244 1.385 . S
C241 H216 0.951 . S
C241 C239 1.388 . S
C241 C242 1.366 . S
C242 C241 1.366 . S
C242 C243 1.414 . S
C242 C245 1.499 . S
C243 H217 0.950 . S
C243 C242 1.414 . S
C243 C244 1.374 . S
C244 H218 0.950 . S
C244 C240 1.385 . S
C244 C243 1.374 . S
C245 C242 1.499 . S
C245 C246 1.373 . S
C245 C247 1.389 1_556 S
C246 H219 0.950 . S
C246 C232 1.377 1_556 S
C246 C245 1.373 . S
C247 C231 1.377 . S
C247 C245 1.389 1_554 S
C247 C248 1.524 . S
C248 C247 1.524 . S
C248 C249 1.397 1_554 S
C248 C253 1.363 . S
C249 H220 0.950 . S
C249 C248 1.397 1_556 S
C249 C250 1.334 1_556 S
C250 H221 0.950 1_554 S
C250 C249 1.334 1_554 S
C250 C251 1.287 . S
C251 C250 1.287 . S
C251 C252 1.524 . S
C251 H254 0.999 . S
C252 H222 0.950 . S
C252 C251 1.524 . S
C252 C253 1.415 . S
C253 H223 0.950 . S
C253 C248 1.363 . S
C253 C252 1.415 . S
H254 C251 0.999 . S
H255 C236 0.913 . S
H256 C274 0.951 . S
H257 C276 0.951 . S
H258 C278 0.950 . S
H259 C279 0.950 . S
H260 C281 0.950 . S
H261 C284 0.950 . S
H262 C285 0.950 1_545 S
H263 C287 0.950 1_556 S
H264 C288 0.950 . S
H265 C289 0.951 . S
H266 C291 0.951 . S
H267 C293 0.950 . S
H268 C294 0.950 . S
H269 C296 0.950 . S
H270 C299 0.950 . S
H271 C300 0.950 . S
H272 C302 0.950 . S
H273 C303 0.950 . S
C274 H256 0.951 . S
C274 C275 1.366 . S
C274 C276 1.388 . S
C275 C274 1.366 . S
C275 C279 1.385 . S
C276 H257 0.951 . S
C276 C274 1.388 . S
C276 C277 1.366 . S
C277 C276 1.366 . S
C277 C278 1.414 . S
C277 C280 1.499 . S
C278 H258 0.950 . S
C278 C277 1.414 . S
C278 C279 1.374 . S
C279 H259 0.950 . S
C279 C275 1.385 . S
C279 C278 1.374 . S
C280 C277 1.499 . S
C280 C281 1.373 . S
C280 C282 1.389 . S
C281 H260 0.950 . S
C281 C280 1.373 . S
C281 C297 1.377 . S
C282 C280 1.389 . S
C282 C283 1.524 . S
C282 C296 1.377 . S
C283 C282 1.524 . S
C283 C284 1.397 . S
C283 C288 1.363 . S
C284 H261 0.950 . S
C284 C283 1.397 . S
C284 C285 1.334 . S
C285 H262 0.950 1_565 S
C285 C284 1.334 . S
C285 C286 1.287 . S
C286 C285 1.287 . S
C286 C287 1.524 . S
C286 H305 0.913 1_565 S
C287 H263 0.950 1_554 S
C287 C286 1.524 . S
C287 C288 1.415 . S
C288 H264 0.950 . S
C288 C283 1.363 . S
C288 C287 1.415 . S
C289 H265 0.951 . S
C289 C290 1.366 . S
C289 C291 1.388 . S
C290 C289 1.366 . S
C290 C294 1.385 . S
C291 H266 0.951 . S
C291 C289 1.388 . S
C291 C292 1.366 . S
C292 C291 1.366 . S
C292 C293 1.414 . S
C292 C295 1.499 . S
C293 H267 0.950 . S
C293 C292 1.414 . S
C293 C294 1.374 . S
C294 H268 0.950 . S
C294 C290 1.385 . S
C294 C293 1.374 . S
C295 C292 1.499 . S
C295 C296 1.373 . S
C295 C297 1.389 . S
C296 H269 0.950 . S
C296 C282 1.377 . S
C296 C295 1.373 . S
C297 C281 1.377 . S
C297 C295 1.389 . S
C297 C298 1.524 . S
C298 C297 1.524 . S
C298 C299 1.397 . S
C298 C303 1.363 . S
C299 H270 0.950 . S
C299 C298 1.397 . S
C299 C300 1.334 . S
C300 H271 0.950 . S
C300 C299 1.334 . S
C300 C301 1.287 . S
C301 C300 1.287 . S
C301 C302 1.524 . S
C301 H304 0.999 . S
C302 H272 0.950 . S
C302 C301 1.524 . S
C302 C303 1.415 . S
C303 H273 0.950 . S
C303 C298 1.363 . S
C303 C302 1.415 . S
H304 C301 0.999 . S
H305 C286 0.913 1_545 S
H306 C324 0.951 . S
H307 C326 0.951 . S
H308 C328 0.950 . S
H309 C329 0.950 . S
H310 C331 0.950 . S
H311 C334 0.950 . S
H312 C335 0.950 . S
H313 C337 0.950 . S
H314 C338 0.950 . S
H315 C339 0.951 . S
H316 C341 0.951 . S
H317 C343 0.950 . S
H318 C344 0.950 . S
H319 C346 0.950 . S
H320 C349 0.950 . S
H321 C350 0.950 . S
H322 C352 0.950 . S
H323 C353 0.950 . S
C324 H306 0.951 . S
C324 C325 1.366 . S
C324 C326 1.388 . S
C325 C324 1.366 . S
C325 C329 1.385 . S
C326 H307 0.951 . S
C326 C324 1.388 . S
C326 C327 1.366 . S
C327 C326 1.366 . S
C327 C328 1.414 . S
C327 C330 1.499 . S
C328 H308 0.950 . S
C328 C327 1.414 . S
C328 C329 1.374 . S
C329 H309 0.950 . S
C329 C325 1.385 . S
C329 C328 1.374 . S
C330 C327 1.499 . S
C330 C331 1.373 . S
C330 C332 1.389 . S
C331 H310 0.950 . S
C331 C330 1.373 . S
C331 C347 1.377 . S
C332 C330 1.389 . S
C332 C333 1.524 . S
C332 C346 1.377 . S
C333 C332 1.524 . S
C333 C334 1.397 . S
C333 C338 1.363 . S
C334 H311 0.950 . S
C334 C333 1.397 . S
C334 C335 1.334 . S
C335 H312 0.950 . S
C335 C334 1.334 . S
C335 C336 1.287 . S
C336 C335 1.287 . S
C336 C337 1.524 . S
C336 H355 0.913 . S
C337 H313 0.950 . S
C337 C336 1.524 . S
C337 C338 1.415 . S
C338 H314 0.950 . S
C338 C333 1.363 . S
C338 C337 1.415 . S
C339 H315 0.951 . S
C339 C340 1.366 . S
C339 C341 1.388 . S
C340 C339 1.366 . S
C340 C344 1.385 . S
C341 H316 0.951 . S
C341 C339 1.388 . S
C341 C342 1.366 . S
C342 C341 1.366 . S
C342 C343 1.414 . S
C342 C345 1.499 . S
C343 H317 0.950 . S
C343 C342 1.414 . S
C343 C344 1.374 . S
C344 H318 0.950 . S
C344 C340 1.385 . S
C344 C343 1.374 . S
C345 C342 1.499 . S
C345 C346 1.373 . S
C345 C347 1.389 . S
C346 H319 0.950 . S
C346 C332 1.377 . S
C346 C345 1.373 . S
C347 C331 1.377 . S
C347 C345 1.389 . S
C347 C348 1.524 . S
C348 C347 1.524 . S
C348 C349 1.397 . S
C348 C353 1.363 . S
C349 H320 0.950 . S
C349 C348 1.397 . S
C349 C350 1.334 . S
C350 H321 0.950 . S
C350 C349 1.334 . S
C350 C351 1.287 . S
C351 C350 1.287 . S
C351 C352 1.524 . S
C351 H354 0.999 . S
C352 H322 0.950 . S
C352 C351 1.524 . S
C352 C353 1.415 . S
C353 H323 0.950 . S
C353 C348 1.363 . S
C353 C352 1.415 . S
H354 C351 0.999 . S
H355 C336 0.913 . S
H356 C374 0.951 . S
H357 C376 0.951 . S
H358 C378 0.950 . S
H359 C379 0.950 . S
H360 C381 0.950 . S
H361 C384 0.950 . S
H362 C385 0.950 . S
H363 C387 0.950 . S
H364 C388 0.950 . S
H365 C389 0.947 . S
H366 C391 0.951 . S
H367 C393 0.950 . S
H368 C394 0.950 . S
H369 C396 0.950 . S
H370 C399 0.950 . S
H371 C400 0.950 . S
H372 C402 0.950 . S
H373 C403 0.950 . S
C374 H356 0.951 . S
C374 C375 1.366 . S
C374 C376 1.388 . S
C375 C374 1.366 . S
C375 C379 1.385 . S
C376 H357 0.951 . S
C376 C374 1.388 . S
C376 C377 1.366 . S
C377 C376 1.366 . S
C377 C378 1.414 . S
C377 C380 1.499 . S
C378 H358 0.950 . S
C378 C377 1.414 . S
C378 C379 1.374 . S
C379 H359 0.950 . S
C379 C375 1.385 . S
C379 C378 1.374 . S
C380 C377 1.499 . S
C380 C381 1.373 . S
C380 C382 1.389 . S
C381 H360 0.950 . S
C381 C380 1.373 . S
C381 C397 1.377 . S
C382 C380 1.389 . S
C382 C383 1.524 . S
C382 C396 1.377 . S
C383 C382 1.524 . S
C383 C384 1.397 . S
C383 C388 1.363 . S
C384 H361 0.950 . S
C384 C383 1.397 . S
C384 C385 1.334 . S
C385 H362 0.950 . S
C385 C384 1.334 . S
C385 C386 1.287 . S
C386 C385 1.287 . S
C386 C387 1.524 . S
C386 H405 0.913 . S
C387 H363 0.950 . S
C387 C386 1.524 . S
C387 C388 1.415 . S
C388 H364 0.950 . S
C388 C383 1.363 . S
C388 C387 1.415 . S
C389 H365 0.947 . S
C389 C390 1.366 . S
C389 C391 1.388 . S
C390 C389 1.366 . S
C390 C394 1.385 . S
C391 H366 0.951 . S
C391 C389 1.388 . S
C391 C392 1.366 . S
C392 C391 1.366 . S
C392 C393 1.414 . S
C392 C395 1.499 . S
C393 H367 0.950 . S
C393 C392 1.414 . S
C393 C394 1.374 . S
C394 H368 0.950 . S
C394 C390 1.385 . S
C394 C393 1.374 . S
C395 C392 1.499 . S
C395 C396 1.373 . S
C395 C397 1.389 . S
C396 H369 0.950 . S
C396 C382 1.377 . S
C396 C395 1.373 . S
C397 C381 1.377 . S
C397 C395 1.389 . S
C397 C398 1.524 . S
C398 C397 1.524 . S
C398 C399 1.397 . S
C398 C403 1.363 . S
C399 H370 0.950 . S
C399 C398 1.397 . S
C399 C400 1.334 . S
C400 H371 0.950 . S
C400 C399 1.334 . S
C400 C401 1.287 . S
C401 C400 1.287 . S
C401 C402 1.524 . S
C401 H404 0.999 . S
C402 H372 0.950 . S
C402 C401 1.524 . S
C402 C403 1.415 . S
C403 H373 0.950 . S
C403 C398 1.363 . S
C403 C402 1.415 . S
H404 C401 0.999 . S
H405 C386 0.913 . S
H406 C424 0.951 . S
H407 C426 0.951 . S
H408 C428 0.950 . S
H409 C429 0.950 . S
H410 C431 0.950 . S
H411 C434 0.950 . S
H412 C435 0.950 1_545 S
H413 C437 0.950 . S
H414 C438 0.950 1_554 S
H415 C439 0.951 . S
H416 C441 0.951 . S
H417 C443 0.950 . S
H418 C444 0.950 1_554 S
H419 C446 0.950 . S
H420 C449 0.950 . S
H421 C450 0.950 . S
H422 C452 0.950 . S
H423 C453 0.950 . S
C424 H406 0.951 . S
C424 C425 1.366 . S
C424 C426 1.388 . S
C425 C424 1.366 . S
C425 C429 1.385 . S
C426 H407 0.951 . S
C426 C424 1.388 . S
C426 C427 1.366 . S
C427 C426 1.366 . S
C427 C428 1.414 . S
C427 C430 1.499 . S
C428 H408 0.950 . S
C428 C427 1.414 . S
C428 C429 1.374 . S
C429 H409 0.950 . S
C429 C425 1.385 . S
C429 C428 1.374 . S
C430 C427 1.499 . S
C430 C431 1.373 . S
C430 C432 1.389 . S
C431 H410 0.950 . S
C431 C430 1.373 . S
C431 C447 1.377 . S
C432 C430 1.389 . S
C432 C433 1.524 . S
C432 C446 1.377 . S
C433 C432 1.524 . S
C433 C434 1.397 . S
C433 C438 1.363 . S
C434 H411 0.950 . S
C434 C433 1.397 . S
C434 C435 1.334 . S
C435 H412 0.950 1_565 S
C435 C434 1.334 . S
C435 C436 1.287 . S
C436 C435 1.287 . S
C436 C437 1.524 1_556 S
C436 H455 0.913 1_565 S
C437 H413 0.950 . S
C437 C436 1.524 1_554 S
C437 C438 1.415 1_554 S
C438 H414 0.950 1_556 S
C438 C433 1.363 . S
C438 C437 1.415 1_556 S
C439 H415 0.951 . S
C439 C440 1.366 . S
C439 C441 1.388 . S
C440 C439 1.366 . S
C440 C444 1.385 . S
C441 H416 0.951 . S
C441 C439 1.388 . S
C441 C442 1.366 . S
C442 C441 1.366 . S
C442 C443 1.414 . S
C442 C445 1.499 . S
C443 H417 0.950 . S
C443 C442 1.414 . S
C443 C444 1.374 . S
C444 H418 0.950 1_556 S
C444 C440 1.385 . S
C444 C443 1.374 . S
C445 C442 1.499 . S
C445 C446 1.373 . S
C445 C447 1.389 . S
C446 H419 0.950 . S
C446 C432 1.377 . S
C446 C445 1.373 . S
C447 C431 1.377 . S
C447 C445 1.389 . S
C447 C448 1.524 . S
C448 C447 1.524 . S
C448 C449 1.397 . S
C448 C453 1.363 . S
C449 H420 0.950 . S
C449 C448 1.397 . S
C449 C450 1.334 . S
C450 H421 0.950 . S
C450 C449 1.334 . S
C450 C451 1.287 . S
C451 C450 1.287 . S
C451 C452 1.524 . S
C451 H454 0.999 . S
C452 H422 0.950 . S
C452 C451 1.524 . S
C452 C453 1.415 . S
C453 H423 0.950 . S
C453 C448 1.363 . S
C453 C452 1.415 . S
H454 C451 0.999 . S
H455 C436 0.913 1_545 S
C75 C9 1.379 . S
C90 C31 1.394 . S
C125 C17 1.394 . S
C140 C51 1.379 . S
C175 C3 1.394 . S
C190 C37 1.379 . S
C225 C23 1.379 . S
C240 C45 1.394 . S
C275 C21 1.462 . S
C290 C7 1.462 . S
C325 C22 1.484 . S
C340 C36 1.484 . S
C375 C49 1.462 . S
C390 C35 1.462 . S
C425 C50 1.484 . S
C440 C8 1.484 . S
