# Generated by pormake.
# Topology uot, (4)-cn, num edge types: 1
# Building blocks:
#     Node 0, Type 0, BuildingBlock: AZAVOO_clean_sbu_0, # of connection points: 4
#     Node 1, Type 0, BuildingBlock: AZAVOO_clean_sbu_0, # of connection points: 4
#     Node 2, Type 0, BuildingBlock: AZAVOO_clean_sbu_0, # of connection points: 4
#     Node 3, Type 0, BuildingBlock: AZAVOO_clean_sbu_0, # of connection points: 4
#     Node 4, Type 0, BuildingBlock: AZAVOO_clean_sbu_0, # of connection points: 4
#     Node 5, Type 0, BuildingBlock: AZAVOO_clean_sbu_0, # of connection points: 4
#     Node 6, Type 0, BuildingBlock: AZAVOO_clean_sbu_0, # of connection points: 4
#     Node 7, Type 0, BuildingBlock: AZAVOO_clean_sbu_0, # of connection points: 4
#     Node 8, Type 0, BuildingBlock: AZAVOO_clean_sbu_0, # of connection points: 4
#     Node 9, Type 0, BuildingBlock: AZAVOO_clean_sbu_0, # of connection points: 4
#     Node 10, Type 0, BuildingBlock: AZAVOO_clean_sbu_0, # of connection points: 4
#     Node 11, Type 0, BuildingBlock: AZAVOO_clean_sbu_0, # of connection points: 4
#     Node 12, Type 0, BuildingBlock: AZAVOO_clean_sbu_0, # of connection points: 4
#     Node 13, Type 0, BuildingBlock: AZAVOO_clean_sbu_0, # of connection points: 4
#     Node 14, Type 0, BuildingBlock: AZAVOO_clean_sbu_0, # of connection points: 4
#     Node 15, Type 0, BuildingBlock: AZAVOO_clean_sbu_0, # of connection points: 4
#     Edge 16, Type (0, 0), BuildingBlock: OJICUG_clean_linker_0, # of connection points: 2
#     Edge 17, Type (0, 0), BuildingBlock: OJICUG_clean_linker_0, # of connection points: 2
#     Edge 18, Type (0, 0), BuildingBlock: OJICUG_clean_linker_0, # of connection points: 2
#     Edge 19, Type (0, 0), BuildingBlock: OJICUG_clean_linker_0, # of connection points: 2
#     Edge 20, Type (0, 0), BuildingBlock: OJICUG_clean_linker_0, # of connection points: 2
#     Edge 21, Type (0, 0), BuildingBlock: OJICUG_clean_linker_0, # of connection points: 2
#     Edge 22, Type (0, 0), BuildingBlock: OJICUG_clean_linker_0, # of connection points: 2
#     Edge 23, Type (0, 0), BuildingBlock: OJICUG_clean_linker_0, # of connection points: 2
#     Edge 24, Type (0, 0), BuildingBlock: OJICUG_clean_linker_0, # of connection points: 2
#     Edge 25, Type (0, 0), BuildingBlock: OJICUG_clean_linker_0, # of connection points: 2
#     Edge 26, Type (0, 0), BuildingBlock: OJICUG_clean_linker_0, # of connection points: 2
#     Edge 27, Type (0, 0), BuildingBlock: OJICUG_clean_linker_0, # of connection points: 2
#     Edge 28, Type (0, 0), BuildingBlock: OJICUG_clean_linker_0, # of connection points: 2
#     Edge 29, Type (0, 0), BuildingBlock: OJICUG_clean_linker_0, # of connection points: 2
#     Edge 30, Type (0, 0), BuildingBlock: OJICUG_clean_linker_0, # of connection points: 2
#     Edge 31, Type (0, 0), BuildingBlock: OJICUG_clean_linker_0, # of connection points: 2
#     Edge 32, Type (0, 0), BuildingBlock: OJICUG_clean_linker_0, # of connection points: 2
#     Edge 33, Type (0, 0), BuildingBlock: OJICUG_clean_linker_0, # of connection points: 2
#     Edge 34, Type (0, 0), BuildingBlock: OJICUG_clean_linker_0, # of connection points: 2
#     Edge 35, Type (0, 0), BuildingBlock: OJICUG_clean_linker_0, # of connection points: 2
#     Edge 36, Type (0, 0), BuildingBlock: OJICUG_clean_linker_0, # of connection points: 2
#     Edge 37, Type (0, 0), BuildingBlock: OJICUG_clean_linker_0, # of connection points: 2
#     Edge 38, Type (0, 0), BuildingBlock: OJICUG_clean_linker_0, # of connection points: 2
#     Edge 39, Type (0, 0), BuildingBlock: OJICUG_clean_linker_0, # of connection points: 2
#     Edge 40, Type (0, 0), BuildingBlock: OJICUG_clean_linker_0, # of connection points: 2
#     Edge 41, Type (0, 0), BuildingBlock: OJICUG_clean_linker_0, # of connection points: 2
#     Edge 42, Type (0, 0), BuildingBlock: OJICUG_clean_linker_0, # of connection points: 2
#     Edge 43, Type (0, 0), BuildingBlock: OJICUG_clean_linker_0, # of connection points: 2
#     Edge 44, Type (0, 0), BuildingBlock: OJICUG_clean_linker_0, # of connection points: 2
#     Edge 45, Type (0, 0), BuildingBlock: OJICUG_clean_linker_0, # of connection points: 2
#     Edge 46, Type (0, 0), BuildingBlock: OJICUG_clean_linker_0, # of connection points: 2
#     Edge 47, Type (0, 0), BuildingBlock: OJICUG_clean_linker_0, # of connection points: 2
# Relax obj value: 0.218
# Max RMSD: 0.325
# Mean RMSD: 0.232
data_MOF--net-uot--node1-AZAVOO_clean_sbu_0--edge1-OJICUG_clean_linker_0
_symmetry_space_group_name_H-M    P1
_symmetry_Int_Tables_number       1
_symmetry_cell_setting            triclinic
loop_
_symmetry_equiv_pos_as_xyz
'x, y, z'
_cell_length_a     35.476202
_cell_length_b     25.104745
_cell_length_c     31.401045
_cell_angle_alpha  90.008204
_cell_angle_beta   90.018901
_cell_angle_gamma 90.000511
loop_
_atom_site_label
_atom_site_type_symbol
_atom_site_fract_x
_atom_site_fract_y
_atom_site_fract_z
_atom_type_partial_charge
Mg0 Mg 0.18843 0.44178 0.31125 0.0
O1 O 0.15987 0.50737 0.2711 0.0
O2 O 0.18964 0.58305 0.28688 0.0
Mg3 Mg 0.23346 0.56691 0.33908 0.0
C4 C 0.16447 0.55747 0.26622 0.0
C5 C 0.14313 0.34292 0.29584 0.0
O6 O 0.14361 0.34702 0.33753 0.0
O7 O 0.24207 0.44172 0.27152 0.0
O8 O 0.27079 0.51507 0.29585 0.0
O9 O 0.14773 0.45477 0.36365 0.0
O10 O 0.20339 0.49408 0.35821 0.0
C11 C 0.27082 0.47233 0.2737 0.0
C12 C 0.17305 0.48595 0.3797 0.0
O13 O 0.16054 0.37723 0.27344 0.0
Mg14 Mg 0.48676 0.69948 0.65202 0.0
O15 O 0.45655 0.77622 0.67207 0.0
O16 O 0.49426 0.84652 0.66555 0.0
Mg17 Mg 0.55048 0.81377 0.63998 0.0
C18 C 0.46257 0.82609 0.67561 0.0
C19 C 0.42331 0.61743 0.67696 0.0
O20 O 0.45168 0.59267 0.69516 0.0
O21 O 0.48292 0.71995 0.58071 0.0
O22 O 0.52405 0.78784 0.57734 0.0
O23 O 0.51147 0.69233 0.71789 0.0
O24 O 0.53856 0.73279 0.66343 0.0
C25 C 0.50139 0.7551 0.55967 0.0
C26 C 0.53956 0.71929 0.7027 0.0
O27 O 0.42934 0.65953 0.65551 0.0
Mg28 Mg 0.82505 0.56807 0.30972 0.0
O29 O 0.85366 0.50243 0.26971 0.0
O30 O 0.82439 0.42662 0.28622 0.0
Mg31 Mg 0.78087 0.44283 0.3387 0.0
C32 C 0.84928 0.45223 0.26519 0.0
C33 C 0.86906 0.66756 0.29377 0.0
O34 O 0.86801 0.66404 0.33549 0.0
O35 O 0.7712 0.56718 0.27042 0.0
O36 O 0.74296 0.49386 0.29545 0.0
O37 O 0.86633 0.55602 0.36166 0.0
O38 O 0.81081 0.51606 0.35717 0.0
C39 C 0.7426 0.53635 0.27301 0.0
C40 C 0.84137 0.52465 0.37817 0.0
O41 O 0.85231 0.63257 0.27138 0.0
Mg42 Mg 0.53125 0.31152 0.65238 0.0
O43 O 0.56152 0.23468 0.67202 0.0
O44 O 0.52357 0.16455 0.66616 0.0
Mg45 Mg 0.46713 0.19749 0.64133 0.0
C46 C 0.55543 0.18486 0.67572 0.0
C47 C 0.5952 0.39274 0.67718 0.0
O48 O 0.56712 0.41699 0.69635 0.0
O49 O 0.53418 0.29097 0.58097 0.0
O50 O 0.4929 0.22321 0.57833 0.0
O51 O 0.50738 0.31867 0.71865 0.0
O52 O 0.47951 0.27844 0.66457 0.0
C53 C 0.5154 0.25582 0.56027 0.0
C54 C 0.47906 0.29183 0.70387 0.0
O55 O 0.58883 0.35121 0.65513 0.0
Mg56 Mg 0.19057 0.56867 0.62723 0.0
O57 O 0.16202 0.50323 0.66752 0.0
O58 O 0.19142 0.4274 0.65132 0.0
Mg59 Mg 0.23491 0.44334 0.59878 0.0
C60 C 0.16649 0.45308 0.67225 0.0
C61 C 0.14645 0.66823 0.64277 0.0
O62 O 0.14734 0.66436 0.60107 0.0
O63 O 0.24443 0.56816 0.66655 0.0
O64 O 0.27275 0.49473 0.64186 0.0
O65 O 0.14933 0.55618 0.57531 0.0
O66 O 0.20488 0.51636 0.58001 0.0
C67 C 0.27305 0.53737 0.66412 0.0
C68 C 0.17433 0.52476 0.55894 0.0
O69 O 0.16328 0.63344 0.66527 0.0
Mg70 Mg 0.52894 0.69849 0.28521 0.0
O71 O 0.55924 0.77512 0.26504 0.0
O72 O 0.52159 0.8455 0.27145 0.0
Mg73 Mg 0.46532 0.81293 0.29702 0.0
C74 C 0.55327 0.82499 0.26145 0.0
C75 C 0.5923 0.61625 0.26038 0.0
O76 O 0.56389 0.59144 0.2423 0.0
O77 O 0.53282 0.71923 0.35649 0.0
O78 O 0.49175 0.78721 0.3597 0.0
O79 O 0.50422 0.69118 0.21936 0.0
O80 O 0.47717 0.73185 0.27375 0.0
C81 C 0.51439 0.75451 0.37744 0.0
C82 C 0.47615 0.71822 0.23451 0.0
O83 O 0.58633 0.65844 0.28175 0.0
Mg84 Mg 0.8277 0.44239 0.62599 0.0
O85 O 0.85631 0.50808 0.66601 0.0
O86 O 0.8265 0.58371 0.65021 0.0
Mg87 Mg 0.78258 0.56744 0.59815 0.0
C88 C 0.85171 0.55819 0.67084 0.0
C89 C 0.87317 0.34367 0.64145 0.0
O90 O 0.87273 0.34775 0.59976 0.0
O91 O 0.77413 0.44236 0.66585 0.0
O92 O 0.74536 0.51567 0.64154 0.0
O93 O 0.86831 0.45533 0.5735 0.0
O94 O 0.81264 0.4946 0.57902 0.0
C95 C 0.74538 0.47297 0.66372 0.0
C96 C 0.84294 0.48646 0.55748 0.0
O97 O 0.85568 0.37795 0.66382 0.0
Mg98 Mg 0.48474 0.3105 0.2859 0.0
O99 O 0.45437 0.23369 0.26633 0.0
O100 O 0.49217 0.16343 0.27251 0.0
Mg101 Mg 0.54859 0.19626 0.29748 0.0
C102 C 0.46038 0.18383 0.26277 0.0
C103 C 0.42098 0.39192 0.2608 0.0
O104 O 0.44915 0.41612 0.24176 0.0
O105 O 0.48157 0.29029 0.35735 0.0
O106 O 0.52272 0.2224 0.36033 0.0
O107 O 0.50881 0.31732 0.21972 0.0
O108 O 0.53645 0.27715 0.27398 0.0
C109 C 0.50024 0.25519 0.37822 0.0
C110 C 0.53704 0.29041 0.23465 0.0
O111 O 0.42723 0.35038 0.28287 0.0
Mg112 Mg 0.69074 0.94212 0.8103 0.0
O113 O 0.66213 0.00775 0.77026 0.0
O114 O 0.69147 0.08354 0.78673 0.0
Mg115 Mg 0.73501 0.06734 0.8392 0.0
C116 C 0.66654 0.05793 0.76571 0.0
C117 C 0.64661 0.84268 0.79437 0.0
O118 O 0.64759 0.84628 0.83608 0.0
O119 O 0.74457 0.94291 0.77098 0.0
O120 O 0.77286 0.01623 0.79595 0.0
O121 O 0.64951 0.95427 0.86224 0.0
O122 O 0.70505 0.99416 0.85772 0.0
C123 C 0.77318 0.97371 0.77353 0.0
C124 C 0.6745 0.98562 0.87874 0.0
O125 O 0.66343 0.8776 0.77199 0.0
Mg126 Mg 0.98479 0.19875 0.15202 0.0
O127 O 0.95443 0.27553 0.17164 0.0
O128 O 0.99226 0.34578 0.16563 0.0
Mg129 Mg 0.04871 0.31297 0.14075 0.0
C130 C 0.96045 0.32539 0.17527 0.0
C131 C 0.92105 0.11732 0.17702 0.0
O132 O 0.94923 0.09315 0.19607 0.0
O133 O 0.98167 0.21917 0.08059 0.0
O134 O 0.02284 0.28705 0.07783 0.0
O135 O 0.00882 0.19177 0.21824 0.0
O136 O 0.0365 0.23203 0.16407 0.0
C137 C 1.00036 0.25434 0.05984 0.0
C138 C 0.03707 0.21868 0.20338 0.0
O139 O 0.92728 0.15887 0.15495 0.0
Mg140 Mg 0.32783 0.06849 0.81143 0.0
O141 O 0.35637 1.00295 0.77118 0.0
O142 O 0.32652 0.92729 0.78681 0.0
Mg143 Mg 0.28269 0.94336 0.83897 0.0
C144 C 0.35172 0.95287 0.76622 0.0
C145 C 0.37324 0.16733 0.79627 0.0
O146 O 0.37284 0.16305 0.83795 0.0
O147 O 0.27421 0.06873 0.77162 0.0
O148 O 0.24544 0.99534 0.79575 0.0
O149 O 0.36849 0.05529 0.86387 0.0
O150 O 0.31281 0.01607 0.85826 0.0
C151 C 0.24545 0.03814 0.77368 0.0
C152 C 0.34313 0.02411 0.87982 0.0
O153 O 0.35578 0.13313 0.7738 0.0
Mg154 Mg 0.02921 0.8106 0.15182 0.0
O155 O 0.0595 0.73396 0.17199 0.0
O156 O 0.02189 0.66355 0.16536 0.0
Mg157 Mg 0.96566 0.69612 0.13965 0.0
C158 C 0.05354 0.68407 0.17551 0.0
C159 C 0.09253 0.89294 0.17674 0.0
O160 O 0.0641 0.91779 0.19473 0.0
O161 O 0.03317 0.79005 0.08053 0.0
O162 O 0.99213 0.72207 0.07707 0.0
O163 O 1.00437 0.81778 0.21761 0.0
O164 O 0.97743 0.77716 0.1631 0.0
C165 C 0.01477 0.75486 0.05945 0.0
C166 C 0.97634 0.79073 0.20235 0.0
O167 O 0.08658 0.85069 0.15543 0.0
Mg168 Mg 0.68852 0.06756 0.12664 0.0
O169 O 0.6599 1.00186 0.16659 0.0
O170 O 0.68964 0.92621 0.1507 0.0
Mg171 Mg 0.73352 0.9425 0.09862 0.0
C172 C 0.66446 0.95174 0.17136 0.0
C173 C 0.64321 0.16635 0.14222 0.0
O174 O 0.64373 0.16241 0.10052 0.0
O175 O 0.74214 0.06747 0.16644 0.0
O176 O 0.77085 0.99421 0.14198 0.0
O177 O 0.64784 0.05477 0.07416 0.0
O178 O 0.70349 0.01541 0.07959 0.0
C179 C 0.77089 0.03688 0.16421 0.0
C180 C 0.67316 0.02363 0.05808 0.0
O181 O 0.66061 0.13197 0.16457 0.0
Mg182 Mg 0.03133 0.19953 0.78553 0.0
O183 O 0.06161 0.27642 0.76608 0.0
O184 O 0.02369 0.34657 0.77211 0.0
Mg185 Mg 0.96726 0.31357 0.79687 0.0
C186 C 0.05554 0.32627 0.76249 0.0
C187 C 0.09526 0.11843 0.76048 0.0
O188 O 0.06718 0.09432 0.74119 0.0
O189 O 0.03429 0.21975 0.85699 0.0
O190 O 0.99303 0.28752 0.85982 0.0
O191 O 1.00743 0.19265 0.71924 0.0
O192 O 0.97959 0.23271 0.77341 0.0
C193 C 0.01551 0.2548 0.87779 0.0
C194 C 0.97913 0.21947 0.73407 0.0
O195 O 0.0889 0.15982 0.7827 0.0
Mg196 Mg 0.32526 0.94155 0.12734 0.0
O197 O 0.35382 0.00702 0.16762 0.0
O198 O 0.3245 0.08287 0.15129 0.0
Mg199 Mg 0.28104 0.06688 0.09869 0.0
C200 C 0.3494 0.05718 0.17229 0.0
C201 C 0.36925 0.84194 0.14303 0.0
O202 O 0.36828 0.8457 0.10133 0.0
O203 O 0.27139 0.94222 0.16658 0.0
O204 O 0.24313 0.01563 0.14175 0.0
O205 O 0.36656 0.95387 0.07549 0.0
O206 O 0.31103 0.99378 0.08004 0.0
C207 C 0.24278 0.97304 0.16407 0.0
C208 C 0.3416 0.9853 0.05904 0.0
O209 O 0.35248 0.87683 0.1655 0.0
Mg210 Mg 0.98693 0.81157 0.78506 0.0
O211 O 0.95672 0.73488 0.76483 0.0
O212 O 0.99449 0.66461 0.77112 0.0
Mg213 Mg 0.05073 0.6973 0.7967 0.0
C214 C 0.96276 0.68504 0.76117 0.0
C215 C 0.92346 0.89377 0.76048 0.0
O216 O 0.95182 0.91868 0.74244 0.0
O217 O 0.98319 0.79074 0.85632 0.0
O218 O 0.02435 0.72287 0.85943 0.0
O219 O 0.01155 0.81901 0.71918 0.0
O220 O 0.03873 0.77838 0.77351 0.0
C221 C 1.00169 0.75549 0.87722 0.0
C222 C 0.03967 0.79203 0.73428 0.0
O223 O 0.92948 0.8515 0.78172 0.0
C224 C 0.31464 0.3967 0.26044 0.0
C225 C 0.30779 0.45183 0.25938 0.0
H226 H 0.35605 0.33474 0.26278 0.0
C227 C 0.33838 0.48676 0.2536 0.0
H228 H 0.2918 0.3687 0.26521 0.0
C229 C 0.37527 0.46711 0.25173 0.0
C230 C 0.38216 0.4124 0.25672 0.0
H231 H 0.33396 0.52945 0.2528 0.0
H232 H 0.39846 0.49497 0.24898 0.0
C233 C 0.3515 0.37725 0.25969 0.0
C234 C 0.37766 0.54205 0.68535 0.0
C235 C 0.38453 0.59687 0.68114 0.0
H236 H 0.33634 0.47976 0.68366 0.0
C237 C 0.35386 0.63209 0.67895 0.0
H238 H 0.40086 0.51412 0.6875 0.0
C239 C 0.317 0.61267 0.67816 0.0
C240 C 0.31014 0.55752 0.6784 0.0
H241 H 0.3584 0.67467 0.67648 0.0
H242 H 0.29413 0.6408 0.674 0.0
C243 C 0.34076 0.52245 0.68346 0.0
C244 C 0.66174 0.63092 0.25804 0.0
C245 C 0.63107 0.59567 0.25612 0.0
H246 H 0.72147 0.6397 0.26272 0.0
C247 C 0.63793 0.54083 0.25211 0.0
H248 H 0.65719 0.67351 0.26034 0.0
C249 C 0.67485 0.52126 0.25394 0.0
C250 C 0.70548 0.55638 0.25874 0.0
H251 H 0.61473 0.51287 0.25017 0.0
H252 H 0.67928 0.47857 0.25391 0.0
C253 C 0.6986 0.61153 0.25876 0.0
C254 C 0.66468 0.37797 0.67798 0.0
C255 C 0.63405 0.41316 0.68109 0.0
H256 H 0.72436 0.36935 0.67221 0.0
C257 C 0.64099 0.46786 0.68609 0.0
H258 H 0.66009 0.33547 0.67488 0.0
C259 C 0.67789 0.48747 0.68408 0.0
C260 C 0.70844 0.4525 0.67816 0.0
H261 H 0.61783 0.49575 0.68896 0.0
H262 H 0.68234 0.53015 0.6849 0.0
C263 C 0.70154 0.39737 0.6771 0.0
C264 C 0.84089 0.98877 0.75435 0.0
C265 C 0.81027 0.95366 0.7592 0.0
H266 H 0.90099 0.99715 0.75041 0.0
C267 C 0.81714 0.89851 0.7592 0.0
H268 H 0.83646 0.03147 0.75433 0.0
C269 C 0.854 0.87911 0.75836 0.0
C270 C 0.88467 0.91435 0.75636 0.0
H271 H 0.79428 0.87035 0.7632 0.0
H272 H 0.85854 0.83652 0.76063 0.0
C273 C 0.8778 0.9692 0.7524 0.0
C274 C 0.81471 0.11251 0.1775 0.0
C275 C 0.80786 0.05737 0.17853 0.0
H276 H 0.85611 0.17449 0.17514 0.0
C277 C 0.83847 0.02245 0.18425 0.0
H278 H 0.79185 0.14051 0.17277 0.0
C279 C 0.87537 0.04211 0.18609 0.0
C280 C 0.88224 0.09683 0.18112 0.0
H281 H 0.83406 0.97976 0.18503 0.0
H282 H 0.89856 0.01425 0.1888 0.0
C283 C 0.85157 0.13197 0.17821 0.0
C284 C 0.14105 0.04337 0.75131 0.0
C285 C 0.13411 0.09804 0.75652 0.0
H286 H 0.18241 0.98108 0.75228 0.0
C287 C 0.16474 0.13321 0.75978 0.0
H288 H 0.11789 0.01549 0.74833 0.0
C289 C 0.20161 0.1138 0.7606 0.0
C290 C 0.2085 0.05868 0.75932 0.0
H291 H 0.16015 0.17569 0.76304 0.0
H292 H 0.22442 0.1418 0.7656 0.0
C293 C 0.17795 0.02375 0.75326 0.0
C294 C 0.19883 0.89779 0.17826 0.0
C295 C 0.20567 0.95295 0.17831 0.0
H296 H 0.15746 0.83575 0.1767 0.0
C297 C 0.17503 0.98802 0.18314 0.0
H298 H 0.22172 0.86965 0.17428 0.0
C299 C 0.13813 0.96841 0.185 0.0
C300 C 0.13129 0.91356 0.18098 0.0
H301 H 0.17944 0.03072 0.1832 0.0
H302 H 0.11491 0.99634 0.18697 0.0
C303 C 0.16198 0.87835 0.17902 0.0
C304 C 0.14427 0.64236 0.23053 0.0
C305 C 0.13796 0.58797 0.23865 0.0
H306 H 0.1231 0.7149 0.20412 0.0
C307 C 0.10475 0.56444 0.22287 0.0
H308 H 0.16957 0.66188 0.24191 0.0
C309 C 0.07781 0.59511 0.2012 0.0
C310 C 0.08351 0.65 0.19461 0.0
H311 H 0.0989 0.52269 0.2285 0.0
H312 H 0.05208 0.57602 0.19064 0.0
C313 C 0.1175 0.67288 0.20876 0.0
C314 C 0.56525 0.74969 0.77299 0.0
C315 C 0.56993 0.741 0.72923 0.0
H316 H 0.58658 0.78923 0.8285 0.0
C317 C 0.60274 0.75939 0.7089 0.0
H318 H 0.54024 0.73571 0.78932 0.0
C319 C 0.62871 0.79028 0.73083 0.0
C320 C 0.62267 0.80269 0.7737 0.0
H321 H 0.60747 0.75219 0.67529 0.0
H322 H 0.65276 0.80616 0.71376 0.0
C323 C 0.59166 0.78035 0.79523 0.0
C324 C 0.93605 0.41447 0.20051 0.0
C325 C 0.93038 0.35955 0.19402 0.0
H326 H 0.91487 0.48697 0.22757 0.0
C327 C 0.89633 0.33672 0.20802 0.0
H328 H 0.96182 0.43352 0.19004 0.0
C329 C 0.8695 0.3673 0.22961 0.0
C330 C 0.87579 0.4217 0.23768 0.0
H331 H 0.89076 0.29468 0.20344 0.0
H332 H 0.84417 0.34782 0.24092 0.0
C333 C 0.90903 0.4452 0.22198 0.0
C334 C 0.41583 0.25223 0.71101 0.0
C335 C 0.44906 0.26998 0.73084 0.0
H336 H 0.36578 0.20563 0.71634 0.0
C337 C 0.45455 0.26026 0.77435 0.0
H338 H 0.41051 0.26019 0.67763 0.0
C339 C 0.42847 0.22923 0.79675 0.0
C340 C 0.397 0.20754 0.77561 0.0
H341 H 0.47991 0.2737 0.79028 0.0
H342 H 0.43414 0.21957 0.82975 0.0
C343 C 0.39019 0.22098 0.73308 0.0
C344 C 0.10673 0.44607 0.71546 0.0
C345 C 0.14005 0.42263 0.69989 0.0
H346 H 0.05393 0.43433 0.74736 0.0
C347 C 0.14647 0.36832 0.70821 0.0
H348 H 0.10079 0.48776 0.70967 0.0
C349 C 0.11969 0.33775 0.72989 0.0
C350 C 0.08557 0.3605 0.74374 0.0
H351 H 0.17187 0.34889 0.69702 0.0
H352 H 0.12538 0.29577 0.73464 0.0
C353 C 0.07977 0.41534 0.73702 0.0
C354 C 0.42414 0.77952 0.14205 0.0
C355 C 0.39312 0.80179 0.1636 0.0
H356 H 0.47555 0.73485 0.14792 0.0
C357 C 0.38701 0.78919 0.20642 0.0
H358 H 0.42927 0.78855 0.10882 0.0
C359 C 0.41294 0.75819 0.2283 0.0
C360 C 0.44578 0.73989 0.20797 0.0
H361 H 0.36295 0.80501 0.2235 0.0
H362 H 0.40818 0.75088 0.26188 0.0
C363 C 0.45052 0.74875 0.16424 0.0
C364 C 0.87193 0.64313 0.70645 0.0
C365 C 0.87827 0.58875 0.6983 0.0
H366 H 0.8931 0.71572 0.73279 0.0
C367 C 0.91156 0.5653 0.71395 0.0
H368 H 0.84658 0.66259 0.69517 0.0
C369 C 0.93853 0.59603 0.73552 0.0
C370 C 0.93279 0.6509 0.74214 0.0
H371 H 0.91743 0.52356 0.7083 0.0
H372 H 0.96431 0.57699 0.74599 0.0
C373 C 0.89874 0.67371 0.72812 0.0
C374 C 0.58805 0.22836 0.14179 0.0
C375 C 0.61935 0.20635 0.16301 0.0
H376 H 0.53666 0.27298 0.14814 0.0
C377 C 0.62589 0.21924 0.20571 0.0
H378 H 0.58258 0.21912 0.10866 0.0
C379 C 0.60016 0.25033 0.2278 0.0
C380 C 0.5671 0.26846 0.20782 0.0
H381 H 0.65016 0.20363 0.22253 0.0
H382 H 0.60529 0.25791 0.26128 0.0
C383 C 0.56188 0.25923 0.1642 0.0
C384 C 0.6464 0.14282 0.73003 0.0
C385 C 0.64004 0.08846 0.73818 0.0
H386 H 0.62521 0.21543 0.70378 0.0
C387 C 0.60674 0.06501 0.72254 0.0
H388 H 0.67177 0.16226 0.74128 0.0
C389 C 0.57974 0.09577 0.70106 0.0
C390 C 0.58548 0.15065 0.69448 0.0
H391 H 0.60086 0.02328 0.7282 0.0
H392 H 0.55393 0.07676 0.69064 0.0
C393 C 0.61958 0.17342 0.70841 0.0
C394 C 0.12594 0.28972 0.23246 0.0
C395 C 0.11931 0.30282 0.27509 0.0
H396 H 0.10543 0.25085 0.17692 0.0
C397 C 0.08796 0.28093 0.29627 0.0
H398 H 0.15026 0.30523 0.21568 0.0
C399 C 0.06181 0.24999 0.27386 0.0
C400 C 0.06712 0.24059 0.23028 0.0
H401 H 0.08243 0.29033 0.32935 0.0
H402 H 0.03655 0.23636 0.28986 0.0
C403 C 0.10024 0.25856 0.21037 0.0
C404 C 0.37181 0.86802 0.73039 0.0
C405 C 0.37821 0.92236 0.73865 0.0
H406 H 0.39289 0.79548 0.70391 0.0
C407 C 0.41149 0.94581 0.72301 0.0
H408 H 0.34645 0.84857 0.74164 0.0
C409 C 0.43841 0.91509 0.70136 0.0
C410 C 0.43262 0.86024 0.69465 0.0
H411 H 0.41742 0.98752 0.72874 0.0
H412 H 0.46421 0.93411 0.69091 0.0
C413 C 0.39856 0.83746 0.70865 0.0
C414 C 0.92399 0.72993 0.29476 0.0
C415 C 0.89305 0.7075 0.27313 0.0
H416 H 0.97541 0.77457 0.289 0.0
C417 C 0.88713 0.71976 0.23021 0.0
H418 H 0.92897 0.72117 0.32807 0.0
C419 C 0.91316 0.75059 0.20834 0.0
C420 C 0.9459 0.76906 0.22878 0.0
H421 H 0.86314 0.70381 0.21306 0.0
H422 H 0.90853 0.75766 0.1747 0.0
C423 C 0.95046 0.76052 0.27258 0.0
C424 C 0.60464 0.94469 0.21447 0.0
C425 C 0.63788 0.92117 0.19876 0.0
H426 H 0.55189 0.93308 0.24648 0.0
C427 C 0.64413 0.86675 0.20679 0.0
H428 H 0.59883 0.98647 0.20891 0.0
C429 C 0.61729 0.8362 0.2284 0.0
C430 C 0.58328 0.85908 0.24247 0.0
H431 H 0.66945 0.84724 0.19547 0.0
H432 H 0.62285 0.79416 0.23297 0.0
C433 C 0.57763 0.91399 0.23597 0.0
C434 C 0.89029 0.29048 0.70484 0.0
C435 C 0.89699 0.30362 0.66223 0.0
H436 H 0.91071 0.25158 0.7604 0.0
C437 C 0.9284 0.28178 0.64111 0.0
H438 H 0.86593 0.30595 0.72158 0.0
C439 C 0.95451 0.25085 0.66357 0.0
C440 C 0.94912 0.2414 0.70713 0.0
H441 H 0.93398 0.29122 0.60805 0.0
H442 H 0.97982 0.23726 0.64762 0.0
C443 C 0.91596 0.25933 0.72697 0.0
C444 C 0.43605 0.09479 0.2373 0.0
C445 C 0.43033 0.14968 0.24392 0.0
H446 H 0.41496 0.02238 0.20999 0.0
C447 C 0.39629 0.17251 0.22991 0.0
H448 H 0.46183 0.07574 0.24777 0.0
C449 C 0.3695 0.14198 0.20818 0.0
C450 C 0.37584 0.08762 0.19997 0.0
H451 H 0.39067 0.21452 0.23458 0.0
H452 H 0.34416 0.16147 0.19687 0.0
C453 C 0.40908 0.06411 0.21568 0.0
C454 C 0.12882 0.72123 0.70607 0.0
C455 C 0.1226 0.70843 0.66331 0.0
H456 H 0.10777 0.75972 0.76151 0.0
C457 C 0.0915 0.73056 0.64179 0.0
H458 H 0.15295 0.70552 0.72312 0.0
C459 C 0.06515 0.76136 0.66399 0.0
C460 C 0.07001 0.7704 0.70769 0.0
H461 H 0.08628 0.72138 0.6086 0.0
H462 H 0.04005 0.77513 0.64771 0.0
C463 C 0.10293 0.75227 0.72795 0.0
C464 C 0.20662 0.50755 0.49104 0.0
C465 C 0.17269 0.51107 0.51371 0.0
H466 H 0.23308 0.49971 0.43063 0.0
C467 C 0.13825 0.50884 0.49172 0.0
H468 H 0.23361 0.51027 0.50708 0.0
C469 C 0.13794 0.50206 0.44752 0.0
C470 C 0.17206 0.49951 0.42498 0.0
H471 H 0.11177 0.51232 0.50866 0.0
H472 H 0.11122 0.49886 0.43101 0.0
C473 C 0.20632 0.50268 0.4471 0.0
C474 C 0.51091 0.80223 0.44652 0.0
C475 C 0.51432 0.75397 0.42429 0.0
H476 H 0.50355 0.84021 0.50696 0.0
C477 C 0.5112 0.70571 0.44666 0.0
H478 H 0.51258 0.83995 0.42984 0.0
C479 C 0.50446 0.70587 0.49062 0.0
C480 C 0.50151 0.75428 0.51282 0.0
H481 H 0.51279 0.66799 0.42999 0.0
H482 H 0.50273 0.66826 0.50742 0.0
C483 C 0.50509 0.80239 0.49041 0.0
C484 C 0.87755 0.50901 0.44535 0.0
C485 C 0.84308 0.51123 0.42344 0.0
H486 H 0.9047 0.49915 0.50601 0.0
C487 C 0.80918 0.5079 0.4462 0.0
H488 H 0.90401 0.51234 0.42833 0.0
C489 C 0.80957 0.50317 0.49015 0.0
C490 C 0.84386 0.49997 0.51219 0.0
H491 H 0.78217 0.51062 0.43022 0.0
H492 H 0.78284 0.50031 0.50669 0.0
C493 C 0.87795 0.50237 0.48957 0.0
C494 C 0.50421 0.30448 0.44721 0.0
C495 C 0.50084 0.25607 0.42507 0.0
H496 H 0.51339 0.34235 0.50769 0.0
C497 C 0.50455 0.20796 0.44746 0.0
H498 H 0.5024 0.34208 0.43041 0.0
C499 C 0.51091 0.20811 0.49125 0.0
C500 C 0.51475 0.25637 0.51342 0.0
H501 H 0.5027 0.17013 0.43096 0.0
H502 H 0.51268 0.1704 0.50792 0.0
C503 C 0.51149 0.30463 0.49107 0.0
C504 C 0.70645 0.00709 -0.00931 0.0
C505 C 0.67219 0.01022 0.01277 0.0
H506 H 0.73377 0.99972 0.93073 0.0
C507 C 0.63807 0.00783 -0.00982 0.0
H508 H 0.7332 0.00994 0.00721 0.0
C509 C 0.6384 1.00124 0.94595 0.0
C510 C 0.67285 0.99906 0.92401 0.0
H511 H 0.61134 0.01101 0.00665 0.0
H512 H 0.61193 0.9979 0.92896 0.0
C513 C 0.70678 1.00241 0.94673 0.0
C514 C 0.01093 0.30209 0.94699 0.0
C515 C 0.01484 0.25398 0.92465 0.0
H516 H 1.00266 0.33969 0.00742 0.0
C517 C 0.01166 0.20558 0.94682 0.0
H518 H 0.01264 0.33991 0.93046 0.0
C519 C 1.00437 0.20545 -0.00933 0.0
C520 C 1.00093 0.25372 0.01298 0.0
H521 H 0.01363 0.16796 0.93005 0.0
H522 H 1.00263 0.16775 0.00734 0.0
C523 C 1.00456 0.30197 -0.00922 0.0
C524 C 0.37815 0.00798 0.94771 0.0
C525 C 0.34406 0.01046 0.92508 0.0
H526 H 0.40423 0.99779 0.00894 0.0
C527 C 0.30977 0.0072 0.9471 0.0
H528 H 0.4049 0.01125 0.93129 0.0
C529 C 0.3094 1.00232 -0.00896 0.0
C530 C 0.3433 0.9989 0.01381 0.0
H531 H 0.28304 0.0101 0.93056 0.0
H532 H 0.28239 0.99955 0.007 0.0
C533 C 0.37777 1.00119 -0.00808 0.0
C534 C 1.00537 0.70773 0.94627 0.0
C535 C 1.00182 0.75599 0.92407 0.0
H536 H 0.01285 0.66975 0.00669 0.0
C537 C 1.00484 0.80425 0.94648 0.0
H538 H 1.00379 0.67002 0.92957 0.0
C539 C 0.01161 0.8041 -0.00957 0.0
C540 C 0.01468 0.75569 0.0126 0.0
H541 H 1.00314 0.84198 0.92983 0.0
H542 H 0.01324 0.84171 0.00726 0.0
C543 C 0.01121 0.70758 -0.00983 0.0
loop_
_geom_bond_atom_site_label_1
_geom_bond_atom_site_label_2
_geom_bond_distance
_geom_bond_site_symmetry_2
_ccdc_geom_bond_type
Mg0 O1 2.028 . S
Mg0 O7 1.986 . S
Mg0 O9 2.114 . S
Mg0 O10 2.251 . S
Mg0 O13 2.010 . S
O1 Mg0 2.028 . S
O1 C4 1.250 . S
O2 Mg3 2.028 . S
O2 C4 1.248 . S
Mg3 O2 2.028 . S
Mg3 O8 2.032 . S
Mg3 O10 2.079 . S
C4 O1 1.250 . S
C4 O2 1.248 . S
C5 O6 1.264 . S
C5 O13 1.249 . S
O6 C5 1.264 . S
O7 Mg0 1.986 . S
O7 C11 1.246 . S
O8 Mg3 2.032 . S
O8 C11 1.259 . S
O9 Mg0 2.114 . S
O9 C12 1.252 . S
O10 Mg0 2.251 . S
O10 Mg3 2.079 . S
O10 C12 1.273 . S
C11 O7 1.246 . S
C11 O8 1.259 . S
C12 O9 1.252 . S
C12 O10 1.273 . S
O13 Mg0 2.010 . S
O13 C5 1.249 . S
Mg14 O15 2.028 . S
Mg14 O21 1.986 . S
Mg14 O23 2.114 . S
Mg14 O24 2.251 . S
Mg14 O27 2.010 . S
O15 Mg14 2.028 . S
O15 C18 1.250 . S
O16 Mg17 2.028 . S
O16 C18 1.248 . S
Mg17 O16 2.028 . S
Mg17 O22 2.032 . S
Mg17 O24 2.079 . S
C18 O15 1.250 . S
C18 O16 1.248 . S
C19 O20 1.264 . S
C19 O27 1.249 . S
O20 C19 1.264 . S
O21 Mg14 1.986 . S
O21 C25 1.246 . S
O22 Mg17 2.032 . S
O22 C25 1.259 . S
O23 Mg14 2.114 . S
O23 C26 1.252 . S
O24 Mg14 2.251 . S
O24 Mg17 2.079 . S
O24 C26 1.273 . S
C25 O21 1.246 . S
C25 O22 1.259 . S
C26 O23 1.252 . S
C26 O24 1.273 . S
O27 Mg14 2.010 . S
O27 C19 1.249 . S
Mg28 O29 2.028 . S
Mg28 O35 1.986 . S
Mg28 O37 2.114 . S
Mg28 O38 2.251 . S
Mg28 O41 2.010 . S
O29 Mg28 2.028 . S
O29 C32 1.250 . S
O30 Mg31 2.028 . S
O30 C32 1.248 . S
Mg31 O30 2.028 . S
Mg31 O36 2.032 . S
Mg31 O38 2.079 . S
C32 O29 1.250 . S
C32 O30 1.248 . S
C33 O34 1.264 . S
C33 O41 1.249 . S
O34 C33 1.264 . S
O35 Mg28 1.986 . S
O35 C39 1.246 . S
O36 Mg31 2.032 . S
O36 C39 1.259 . S
O37 Mg28 2.114 . S
O37 C40 1.252 . S
O38 Mg28 2.251 . S
O38 Mg31 2.079 . S
O38 C40 1.273 . S
C39 O35 1.246 . S
C39 O36 1.259 . S
C40 O37 1.252 . S
C40 O38 1.273 . S
O41 Mg28 2.010 . S
O41 C33 1.249 . S
Mg42 O43 2.028 . S
Mg42 O49 1.986 . S
Mg42 O51 2.114 . S
Mg42 O52 2.251 . S
Mg42 O55 2.010 . S
O43 Mg42 2.028 . S
O43 C46 1.250 . S
O44 Mg45 2.028 . S
O44 C46 1.248 . S
Mg45 O44 2.028 . S
Mg45 O50 2.032 . S
Mg45 O52 2.079 . S
C46 O43 1.250 . S
C46 O44 1.248 . S
C47 O48 1.264 . S
C47 O55 1.249 . S
O48 C47 1.264 . S
O49 Mg42 1.986 . S
O49 C53 1.246 . S
O50 Mg45 2.032 . S
O50 C53 1.259 . S
O51 Mg42 2.114 . S
O51 C54 1.252 . S
O52 Mg42 2.251 . S
O52 Mg45 2.079 . S
O52 C54 1.273 . S
C53 O49 1.246 . S
C53 O50 1.259 . S
C54 O51 1.252 . S
C54 O52 1.273 . S
O55 Mg42 2.010 . S
O55 C47 1.249 . S
Mg56 O57 2.028 . S
Mg56 O63 1.986 . S
Mg56 O65 2.114 . S
Mg56 O66 2.251 . S
Mg56 O69 2.010 . S
O57 Mg56 2.028 . S
O57 C60 1.250 . S
O58 Mg59 2.028 . S
O58 C60 1.248 . S
Mg59 O58 2.028 . S
Mg59 O64 2.032 . S
Mg59 O66 2.079 . S
C60 O57 1.250 . S
C60 O58 1.248 . S
C61 O62 1.264 . S
C61 O69 1.249 . S
O62 C61 1.264 . S
O63 Mg56 1.986 . S
O63 C67 1.246 . S
O64 Mg59 2.032 . S
O64 C67 1.259 . S
O65 Mg56 2.114 . S
O65 C68 1.252 . S
O66 Mg56 2.251 . S
O66 Mg59 2.079 . S
O66 C68 1.273 . S
C67 O63 1.246 . S
C67 O64 1.259 . S
C68 O65 1.252 . S
C68 O66 1.273 . S
O69 Mg56 2.010 . S
O69 C61 1.249 . S
Mg70 O71 2.028 . S
Mg70 O77 1.986 . S
Mg70 O79 2.114 . S
Mg70 O80 2.251 . S
Mg70 O83 2.010 . S
O71 Mg70 2.028 . S
O71 C74 1.250 . S
O72 Mg73 2.028 . S
O72 C74 1.248 . S
Mg73 O72 2.028 . S
Mg73 O78 2.032 . S
Mg73 O80 2.079 . S
C74 O71 1.250 . S
C74 O72 1.248 . S
C75 O76 1.264 . S
C75 O83 1.249 . S
O76 C75 1.264 . S
O77 Mg70 1.986 . S
O77 C81 1.246 . S
O78 Mg73 2.032 . S
O78 C81 1.259 . S
O79 Mg70 2.114 . S
O79 C82 1.252 . S
O80 Mg70 2.251 . S
O80 Mg73 2.079 . S
O80 C82 1.273 . S
C81 O77 1.246 . S
C81 O78 1.259 . S
C82 O79 1.252 . S
C82 O80 1.273 . S
O83 Mg70 2.010 . S
O83 C75 1.249 . S
Mg84 O85 2.028 . S
Mg84 O91 1.986 . S
Mg84 O93 2.114 . S
Mg84 O94 2.251 . S
Mg84 O97 2.010 . S
O85 Mg84 2.028 . S
O85 C88 1.250 . S
O86 Mg87 2.028 . S
O86 C88 1.248 . S
Mg87 O86 2.028 . S
Mg87 O92 2.032 . S
Mg87 O94 2.079 . S
C88 O85 1.250 . S
C88 O86 1.248 . S
C89 O90 1.264 . S
C89 O97 1.249 . S
O90 C89 1.264 . S
O91 Mg84 1.986 . S
O91 C95 1.246 . S
O92 Mg87 2.032 . S
O92 C95 1.259 . S
O93 Mg84 2.114 . S
O93 C96 1.252 . S
O94 Mg84 2.251 . S
O94 Mg87 2.079 . S
O94 C96 1.273 . S
C95 O91 1.246 . S
C95 O92 1.259 . S
C96 O93 1.252 . S
C96 O94 1.273 . S
O97 Mg84 2.010 . S
O97 C89 1.249 . S
Mg98 O99 2.028 . S
Mg98 O105 1.986 . S
Mg98 O107 2.114 . S
Mg98 O108 2.251 . S
Mg98 O111 2.010 . S
O99 Mg98 2.028 . S
O99 C102 1.250 . S
O100 Mg101 2.028 . S
O100 C102 1.248 . S
Mg101 O100 2.028 . S
Mg101 O106 2.032 . S
Mg101 O108 2.079 . S
C102 O99 1.250 . S
C102 O100 1.248 . S
C103 O104 1.264 . S
C103 O111 1.249 . S
O104 C103 1.264 . S
O105 Mg98 1.986 . S
O105 C109 1.246 . S
O106 Mg101 2.032 . S
O106 C109 1.259 . S
O107 Mg98 2.114 . S
O107 C110 1.252 . S
O108 Mg98 2.251 . S
O108 Mg101 2.079 . S
O108 C110 1.273 . S
C109 O105 1.246 . S
C109 O106 1.259 . S
C110 O107 1.252 . S
C110 O108 1.273 . S
O111 Mg98 2.010 . S
O111 C103 1.249 . S
Mg112 O113 2.028 . S
Mg112 O119 1.986 . S
Mg112 O121 2.114 . S
Mg112 O122 2.251 . S
Mg112 O125 2.010 . S
O113 Mg112 2.028 . S
O113 C116 1.250 1_565 S
O114 Mg115 2.028 . S
O114 C116 1.248 . S
Mg115 O114 2.028 . S
Mg115 O120 2.032 1_545 S
Mg115 O122 2.079 1_545 S
C116 O113 1.250 1_545 S
C116 O114 1.248 . S
C117 O118 1.264 . S
C117 O125 1.249 . S
O118 C117 1.264 . S
O119 Mg112 1.986 . S
O119 C123 1.246 . S
O120 Mg115 2.032 1_565 S
O120 C123 1.259 . S
O121 Mg112 2.114 . S
O121 C124 1.252 . S
O122 Mg112 2.251 . S
O122 Mg115 2.079 1_565 S
O122 C124 1.273 . S
C123 O119 1.246 . S
C123 O120 1.259 . S
C124 O121 1.252 . S
C124 O122 1.273 . S
O125 Mg112 2.010 . S
O125 C117 1.249 . S
Mg126 O127 2.028 . S
Mg126 O133 1.986 . S
Mg126 O135 2.114 . S
Mg126 O136 2.251 . S
Mg126 O139 2.010 . S
O127 Mg126 2.028 . S
O127 C130 1.250 . S
O128 Mg129 2.028 . S
O128 C130 1.248 . S
Mg129 O128 2.028 . S
Mg129 O134 2.032 . S
Mg129 O136 2.079 . S
C130 O127 1.250 . S
C130 O128 1.248 . S
C131 O132 1.264 . S
C131 O139 1.249 . S
O132 C131 1.264 . S
O133 Mg126 1.986 . S
O133 C137 1.246 . S
O134 Mg129 2.032 . S
O134 C137 1.259 . S
O135 Mg126 2.114 . S
O135 C138 1.252 . S
O136 Mg126 2.251 . S
O136 Mg129 2.079 . S
O136 C138 1.273 . S
C137 O133 1.246 . S
C137 O134 1.259 . S
C138 O135 1.252 . S
C138 O136 1.273 . S
O139 Mg126 2.010 . S
O139 C131 1.249 . S
Mg140 O141 2.028 . S
Mg140 O147 1.986 . S
Mg140 O149 2.114 . S
Mg140 O150 2.251 . S
Mg140 O153 2.010 . S
O141 Mg140 2.028 . S
O141 C144 1.250 1_545 S
O142 Mg143 2.028 . S
O142 C144 1.248 . S
Mg143 O142 2.028 . S
Mg143 O148 2.032 1_565 S
Mg143 O150 2.079 1_565 S
C144 O141 1.250 1_565 S
C144 O142 1.248 . S
C145 O146 1.264 . S
C145 O153 1.249 . S
O146 C145 1.264 . S
O147 Mg140 1.986 . S
O147 C151 1.246 . S
O148 Mg143 2.032 1_545 S
O148 C151 1.259 . S
O149 Mg140 2.114 . S
O149 C152 1.252 . S
O150 Mg140 2.251 . S
O150 Mg143 2.079 1_545 S
O150 C152 1.273 . S
C151 O147 1.246 . S
C151 O148 1.259 . S
C152 O149 1.252 . S
C152 O150 1.273 . S
O153 Mg140 2.010 . S
O153 C145 1.249 . S
Mg154 O155 2.028 . S
Mg154 O161 1.986 . S
Mg154 O163 2.114 . S
Mg154 O164 2.251 . S
Mg154 O167 2.010 . S
O155 Mg154 2.028 . S
O155 C158 1.250 . S
O156 Mg157 2.028 . S
O156 C158 1.248 . S
Mg157 O156 2.028 . S
Mg157 O162 2.032 . S
Mg157 O164 2.079 . S
C158 O155 1.250 . S
C158 O156 1.248 . S
C159 O160 1.264 . S
C159 O167 1.249 . S
O160 C159 1.264 . S
O161 Mg154 1.986 . S
O161 C165 1.246 . S
O162 Mg157 2.032 . S
O162 C165 1.259 . S
O163 Mg154 2.114 . S
O163 C166 1.252 . S
O164 Mg154 2.251 . S
O164 Mg157 2.079 . S
O164 C166 1.273 . S
C165 O161 1.246 . S
C165 O162 1.259 . S
C166 O163 1.252 . S
C166 O164 1.273 . S
O167 Mg154 2.010 . S
O167 C159 1.249 . S
Mg168 O169 2.028 . S
Mg168 O175 1.986 . S
Mg168 O177 2.114 . S
Mg168 O178 2.251 . S
Mg168 O181 2.010 . S
O169 Mg168 2.028 . S
O169 C172 1.250 1_545 S
O170 Mg171 2.028 . S
O170 C172 1.248 . S
Mg171 O170 2.028 . S
Mg171 O176 2.032 1_565 S
Mg171 O178 2.079 1_565 S
C172 O169 1.250 1_565 S
C172 O170 1.248 . S
C173 O174 1.264 . S
C173 O181 1.249 . S
O174 C173 1.264 . S
O175 Mg168 1.986 . S
O175 C179 1.246 . S
O176 Mg171 2.032 1_545 S
O176 C179 1.259 . S
O177 Mg168 2.114 . S
O177 C180 1.252 . S
O178 Mg168 2.251 . S
O178 Mg171 2.079 1_545 S
O178 C180 1.273 . S
C179 O175 1.246 . S
C179 O176 1.259 . S
C180 O177 1.252 . S
C180 O178 1.273 . S
O181 Mg168 2.010 . S
O181 C173 1.249 . S
Mg182 O183 2.028 . S
Mg182 O189 1.986 . S
Mg182 O191 2.114 . S
Mg182 O192 2.251 . S
Mg182 O195 2.010 . S
O183 Mg182 2.028 . S
O183 C186 1.250 . S
O184 Mg185 2.028 . S
O184 C186 1.248 . S
Mg185 O184 2.028 . S
Mg185 O190 2.032 . S
Mg185 O192 2.079 . S
C186 O183 1.250 . S
C186 O184 1.248 . S
C187 O188 1.264 . S
C187 O195 1.249 . S
O188 C187 1.264 . S
O189 Mg182 1.986 . S
O189 C193 1.246 . S
O190 Mg185 2.032 . S
O190 C193 1.259 . S
O191 Mg182 2.114 . S
O191 C194 1.252 . S
O192 Mg182 2.251 . S
O192 Mg185 2.079 . S
O192 C194 1.273 . S
C193 O189 1.246 . S
C193 O190 1.259 . S
C194 O191 1.252 . S
C194 O192 1.273 . S
O195 Mg182 2.010 . S
O195 C187 1.249 . S
Mg196 O197 2.028 . S
Mg196 O203 1.986 . S
Mg196 O205 2.114 . S
Mg196 O206 2.251 . S
Mg196 O209 2.010 . S
O197 Mg196 2.028 . S
O197 C200 1.250 1_565 S
O198 Mg199 2.028 . S
O198 C200 1.248 . S
Mg199 O198 2.028 . S
Mg199 O204 2.032 1_545 S
Mg199 O206 2.079 1_545 S
C200 O197 1.250 1_545 S
C200 O198 1.248 . S
C201 O202 1.264 . S
C201 O209 1.249 . S
O202 C201 1.264 . S
O203 Mg196 1.986 . S
O203 C207 1.246 . S
O204 Mg199 2.032 1_565 S
O204 C207 1.259 . S
O205 Mg196 2.114 . S
O205 C208 1.252 . S
O206 Mg196 2.251 . S
O206 Mg199 2.079 1_565 S
O206 C208 1.273 . S
C207 O203 1.246 . S
C207 O204 1.259 . S
C208 O205 1.252 . S
C208 O206 1.273 . S
O209 Mg196 2.010 . S
O209 C201 1.249 . S
Mg210 O211 2.028 . S
Mg210 O217 1.986 . S
Mg210 O219 2.114 . S
Mg210 O220 2.251 . S
Mg210 O223 2.010 . S
O211 Mg210 2.028 . S
O211 C214 1.250 . S
O212 Mg213 2.028 . S
O212 C214 1.248 . S
Mg213 O212 2.028 . S
Mg213 O218 2.032 . S
Mg213 O220 2.079 . S
C214 O211 1.250 . S
C214 O212 1.248 . S
C215 O216 1.264 . S
C215 O223 1.249 . S
O216 C215 1.264 . S
O217 Mg210 1.986 . S
O217 C221 1.246 . S
O218 Mg213 2.032 . S
O218 C221 1.259 . S
O219 Mg210 2.114 . S
O219 C222 1.252 . S
O220 Mg210 2.251 . S
O220 Mg213 2.079 . S
O220 C222 1.273 . S
C221 O217 1.246 . S
C221 O218 1.259 . S
C222 O219 1.252 . S
C222 O220 1.273 . S
O223 Mg210 2.010 . S
O223 C215 1.249 . S
C224 C225 1.387 . S
C224 H228 0.950 . S
C224 C233 1.390 . S
C225 C224 1.387 . S
C225 C227 1.387 . S
H226 C233 0.950 . S
C227 C225 1.387 . S
C227 C229 1.390 . S
C227 H231 0.950 . S
H228 C224 0.950 . S
C229 C227 1.390 . S
C229 C230 1.387 . S
C229 H232 0.950 . S
C230 C229 1.387 . S
C230 C233 1.387 . S
H231 C227 0.950 . S
H232 C229 0.950 . S
C233 C224 1.390 . S
C233 H226 0.950 . S
C233 C230 1.387 . S
C234 C235 1.387 . S
C234 H238 0.950 . S
C234 C243 1.390 . S
C235 C234 1.387 . S
C235 C237 1.387 . S
H236 C243 0.950 . S
C237 C235 1.387 . S
C237 C239 1.390 . S
C237 H241 0.950 . S
H238 C234 0.950 . S
C239 C237 1.390 . S
C239 C240 1.387 . S
C239 H242 0.950 . S
C240 C239 1.387 . S
C240 C243 1.387 . S
H241 C237 0.950 . S
H242 C239 0.950 . S
C243 C234 1.390 . S
C243 H236 0.950 . S
C243 C240 1.387 . S
C244 C245 1.387 . S
C244 H248 0.950 . S
C244 C253 1.390 . S
C245 C244 1.387 . S
C245 C247 1.387 . S
H246 C253 0.950 . S
C247 C245 1.387 . S
C247 C249 1.390 . S
C247 H251 0.950 . S
H248 C244 0.950 . S
C249 C247 1.390 . S
C249 C250 1.387 . S
C249 H252 0.950 . S
C250 C249 1.387 . S
C250 C253 1.387 . S
H251 C247 0.950 . S
H252 C249 0.950 . S
C253 C244 1.390 . S
C253 H246 0.950 . S
C253 C250 1.387 . S
C254 C255 1.387 . S
C254 H258 0.950 . S
C254 C263 1.390 . S
C255 C254 1.387 . S
C255 C257 1.387 . S
H256 C263 0.950 . S
C257 C255 1.387 . S
C257 C259 1.390 . S
C257 H261 0.950 . S
H258 C254 0.950 . S
C259 C257 1.390 . S
C259 C260 1.387 . S
C259 H262 0.950 . S
C260 C259 1.387 . S
C260 C263 1.387 . S
H261 C257 0.950 . S
H262 C259 0.950 . S
C263 C254 1.390 . S
C263 H256 0.950 . S
C263 C260 1.387 . S
C264 C265 1.387 . S
C264 H268 0.950 . S
C264 C273 1.390 . S
C265 C264 1.387 . S
C265 C267 1.387 . S
H266 C273 0.950 . S
C267 C265 1.387 . S
C267 C269 1.390 . S
C267 H271 0.950 . S
H268 C264 0.950 . S
C269 C267 1.390 . S
C269 C270 1.387 . S
C269 H272 0.950 . S
C270 C269 1.387 . S
C270 C273 1.387 . S
H271 C267 0.950 . S
H272 C269 0.950 . S
C273 C264 1.390 . S
C273 H266 0.950 . S
C273 C270 1.387 . S
C274 C275 1.387 . S
C274 H278 0.950 . S
C274 C283 1.390 . S
C275 C274 1.387 . S
C275 C277 1.387 . S
H276 C283 0.950 . S
C277 C275 1.387 . S
C277 C279 1.390 . S
C277 H281 0.950 . S
H278 C274 0.950 . S
C279 C277 1.390 . S
C279 C280 1.387 . S
C279 H282 0.950 . S
C280 C279 1.387 . S
C280 C283 1.387 . S
H281 C277 0.950 . S
H282 C279 0.950 . S
C283 C274 1.390 . S
C283 H276 0.950 . S
C283 C280 1.387 . S
C284 C285 1.387 . S
C284 H288 0.950 . S
C284 C293 1.390 . S
C285 C284 1.387 . S
C285 C287 1.387 . S
H286 C293 0.950 . S
C287 C285 1.387 . S
C287 C289 1.390 . S
C287 H291 0.950 . S
H288 C284 0.950 . S
C289 C287 1.390 . S
C289 C290 1.387 . S
C289 H292 0.950 . S
C290 C289 1.387 . S
C290 C293 1.387 . S
H291 C287 0.950 . S
H292 C289 0.950 . S
C293 C284 1.390 . S
C293 H286 0.950 . S
C293 C290 1.387 . S
C294 C295 1.387 . S
C294 H298 0.950 . S
C294 C303 1.390 . S
C295 C294 1.387 . S
C295 C297 1.387 . S
H296 C303 0.950 . S
C297 C295 1.387 . S
C297 C299 1.390 . S
C297 H301 0.950 . S
H298 C294 0.950 . S
C299 C297 1.390 . S
C299 C300 1.387 . S
C299 H302 0.950 . S
C300 C299 1.387 . S
C300 C303 1.387 . S
H301 C297 0.950 . S
H302 C299 0.950 . S
C303 C294 1.390 . S
C303 H296 0.950 . S
C303 C300 1.387 . S
C304 C305 1.387 . S
C304 H308 0.950 . S
C304 C313 1.390 . S
C305 C304 1.387 . S
C305 C307 1.387 . S
H306 C313 0.950 . S
C307 C305 1.387 . S
C307 C309 1.390 . S
C307 H311 0.950 . S
H308 C304 0.950 . S
C309 C307 1.390 . S
C309 C310 1.387 . S
C309 H312 0.950 . S
C310 C309 1.387 . S
C310 C313 1.387 . S
H311 C307 0.950 . S
H312 C309 0.950 . S
C313 C304 1.390 . S
C313 H306 0.950 . S
C313 C310 1.387 . S
C314 C315 1.387 . S
C314 H318 0.950 . S
C314 C323 1.390 . S
C315 C314 1.387 . S
C315 C317 1.387 . S
H316 C323 0.950 . S
C317 C315 1.387 . S
C317 C319 1.390 . S
C317 H321 0.950 . S
H318 C314 0.950 . S
C319 C317 1.390 . S
C319 C320 1.387 . S
C319 H322 0.950 . S
C320 C319 1.387 . S
C320 C323 1.387 . S
H321 C317 0.950 . S
H322 C319 0.950 . S
C323 C314 1.390 . S
C323 H316 0.950 . S
C323 C320 1.387 . S
C324 C325 1.387 . S
C324 H328 0.950 . S
C324 C333 1.390 . S
C325 C324 1.387 . S
C325 C327 1.387 . S
H326 C333 0.950 . S
C327 C325 1.387 . S
C327 C329 1.390 . S
C327 H331 0.950 . S
H328 C324 0.950 . S
C329 C327 1.390 . S
C329 C330 1.387 . S
C329 H332 0.950 . S
C330 C329 1.387 . S
C330 C333 1.387 . S
H331 C327 0.950 . S
H332 C329 0.950 . S
C333 C324 1.390 . S
C333 H326 0.950 . S
C333 C330 1.387 . S
C334 C335 1.387 . S
C334 H338 0.950 . S
C334 C343 1.390 . S
C335 C334 1.387 . S
C335 C337 1.387 . S
H336 C343 0.950 . S
C337 C335 1.387 . S
C337 C339 1.390 . S
C337 H341 0.950 . S
H338 C334 0.950 . S
C339 C337 1.390 . S
C339 C340 1.387 . S
C339 H342 0.950 . S
C340 C339 1.387 . S
C340 C343 1.387 . S
H341 C337 0.950 . S
H342 C339 0.950 . S
C343 C334 1.390 . S
C343 H336 0.950 . S
C343 C340 1.387 . S
C344 C345 1.387 . S
C344 H348 0.950 . S
C344 C353 1.390 . S
C345 C344 1.387 . S
C345 C347 1.387 . S
H346 C353 0.950 . S
C347 C345 1.387 . S
C347 C349 1.390 . S
C347 H351 0.950 . S
H348 C344 0.950 . S
C349 C347 1.390 . S
C349 C350 1.387 . S
C349 H352 0.950 . S
C350 C349 1.387 . S
C350 C353 1.387 . S
H351 C347 0.950 . S
H352 C349 0.950 . S
C353 C344 1.390 . S
C353 H346 0.950 . S
C353 C350 1.387 . S
C354 C355 1.387 . S
C354 H358 0.950 . S
C354 C363 1.390 . S
C355 C354 1.387 . S
C355 C357 1.387 . S
H356 C363 0.950 . S
C357 C355 1.387 . S
C357 C359 1.390 . S
C357 H361 0.950 . S
H358 C354 0.950 . S
C359 C357 1.390 . S
C359 C360 1.387 . S
C359 H362 0.950 . S
C360 C359 1.387 . S
C360 C363 1.387 . S
H361 C357 0.950 . S
H362 C359 0.950 . S
C363 C354 1.390 . S
C363 H356 0.950 . S
C363 C360 1.387 . S
C364 C365 1.387 . S
C364 H368 0.950 . S
C364 C373 1.390 . S
C365 C364 1.387 . S
C365 C367 1.387 . S
H366 C373 0.950 . S
C367 C365 1.387 . S
C367 C369 1.390 . S
C367 H371 0.950 . S
H368 C364 0.950 . S
C369 C367 1.390 . S
C369 C370 1.387 . S
C369 H372 0.950 . S
C370 C369 1.387 . S
C370 C373 1.387 . S
H371 C367 0.950 . S
H372 C369 0.950 . S
C373 C364 1.390 . S
C373 H366 0.950 . S
C373 C370 1.387 . S
C374 C375 1.387 . S
C374 H378 0.950 . S
C374 C383 1.390 . S
C375 C374 1.387 . S
C375 C377 1.387 . S
H376 C383 0.950 . S
C377 C375 1.387 . S
C377 C379 1.390 . S
C377 H381 0.950 . S
H378 C374 0.950 . S
C379 C377 1.390 . S
C379 C380 1.387 . S
C379 H382 0.950 . S
C380 C379 1.387 . S
C380 C383 1.387 . S
H381 C377 0.950 . S
H382 C379 0.950 . S
C383 C374 1.390 . S
C383 H376 0.950 . S
C383 C380 1.387 . S
C384 C385 1.387 . S
C384 H388 0.950 . S
C384 C393 1.390 . S
C385 C384 1.387 . S
C385 C387 1.387 . S
H386 C393 0.950 . S
C387 C385 1.387 . S
C387 C389 1.390 . S
C387 H391 0.950 . S
H388 C384 0.950 . S
C389 C387 1.390 . S
C389 C390 1.387 . S
C389 H392 0.950 . S
C390 C389 1.387 . S
C390 C393 1.387 . S
H391 C387 0.950 . S
H392 C389 0.950 . S
C393 C384 1.390 . S
C393 H386 0.950 . S
C393 C390 1.387 . S
C394 C395 1.387 . S
C394 H398 0.950 . S
C394 C403 1.390 . S
C395 C394 1.387 . S
C395 C397 1.387 . S
H396 C403 0.950 . S
C397 C395 1.387 . S
C397 C399 1.390 . S
C397 H401 0.950 . S
H398 C394 0.950 . S
C399 C397 1.390 . S
C399 C400 1.387 . S
C399 H402 0.950 . S
C400 C399 1.387 . S
C400 C403 1.387 . S
H401 C397 0.950 . S
H402 C399 0.950 . S
C403 C394 1.390 . S
C403 H396 0.950 . S
C403 C400 1.387 . S
C404 C405 1.387 . S
C404 H408 0.950 . S
C404 C413 1.390 . S
C405 C404 1.387 . S
C405 C407 1.387 . S
H406 C413 0.950 . S
C407 C405 1.387 . S
C407 C409 1.390 . S
C407 H411 0.950 . S
H408 C404 0.950 . S
C409 C407 1.390 . S
C409 C410 1.387 . S
C409 H412 0.950 . S
C410 C409 1.387 . S
C410 C413 1.387 . S
H411 C407 0.950 . S
H412 C409 0.950 . S
C413 C404 1.390 . S
C413 H406 0.950 . S
C413 C410 1.387 . S
C414 C415 1.387 . S
C414 H418 0.950 . S
C414 C423 1.390 . S
C415 C414 1.387 . S
C415 C417 1.387 . S
H416 C423 0.950 . S
C417 C415 1.387 . S
C417 C419 1.390 . S
C417 H421 0.950 . S
H418 C414 0.950 . S
C419 C417 1.390 . S
C419 C420 1.387 . S
C419 H422 0.950 . S
C420 C419 1.387 . S
C420 C423 1.387 . S
H421 C417 0.950 . S
H422 C419 0.950 . S
C423 C414 1.390 . S
C423 H416 0.950 . S
C423 C420 1.387 . S
C424 C425 1.387 . S
C424 H428 0.950 . S
C424 C433 1.390 . S
C425 C424 1.387 . S
C425 C427 1.387 . S
H426 C433 0.950 . S
C427 C425 1.387 . S
C427 C429 1.390 . S
C427 H431 0.950 . S
H428 C424 0.950 . S
C429 C427 1.390 . S
C429 C430 1.387 . S
C429 H432 0.950 . S
C430 C429 1.387 . S
C430 C433 1.387 . S
H431 C427 0.950 . S
H432 C429 0.950 . S
C433 C424 1.390 . S
C433 H426 0.950 . S
C433 C430 1.387 . S
C434 C435 1.387 . S
C434 H438 0.950 . S
C434 C443 1.390 . S
C435 C434 1.387 . S
C435 C437 1.387 . S
H436 C443 0.950 . S
C437 C435 1.387 . S
C437 C439 1.390 . S
C437 H441 0.950 . S
H438 C434 0.950 . S
C439 C437 1.390 . S
C439 C440 1.387 . S
C439 H442 0.950 . S
C440 C439 1.387 . S
C440 C443 1.387 . S
H441 C437 0.950 . S
H442 C439 0.950 . S
C443 C434 1.390 . S
C443 H436 0.950 . S
C443 C440 1.387 . S
C444 C445 1.387 . S
C444 H448 0.950 . S
C444 C453 1.390 . S
C445 C444 1.387 . S
C445 C447 1.387 . S
H446 C453 0.950 . S
C447 C445 1.387 . S
C447 C449 1.390 . S
C447 H451 0.950 . S
H448 C444 0.950 . S
C449 C447 1.390 . S
C449 C450 1.387 . S
C449 H452 0.950 . S
C450 C449 1.387 . S
C450 C453 1.387 . S
H451 C447 0.950 . S
H452 C449 0.950 . S
C453 C444 1.390 . S
C453 H446 0.950 . S
C453 C450 1.387 . S
C454 C455 1.387 . S
C454 H458 0.950 . S
C454 C463 1.390 . S
C455 C454 1.387 . S
C455 C457 1.387 . S
H456 C463 0.950 . S
C457 C455 1.387 . S
C457 C459 1.390 . S
C457 H461 0.950 . S
H458 C454 0.950 . S
C459 C457 1.390 . S
C459 C460 1.387 . S
C459 H462 0.950 . S
C460 C459 1.387 . S
C460 C463 1.387 . S
H461 C457 0.950 . S
H462 C459 0.950 . S
C463 C454 1.390 . S
C463 H456 0.950 . S
C463 C460 1.387 . S
C464 C465 1.387 . S
C464 H468 0.950 . S
C464 C473 1.390 . S
C465 C464 1.387 . S
C465 C467 1.387 . S
H466 C473 0.950 . S
C467 C465 1.387 . S
C467 C469 1.390 . S
C467 H471 0.950 . S
H468 C464 0.950 . S
C469 C467 1.390 . S
C469 C470 1.387 . S
C469 H472 0.950 . S
C470 C469 1.387 . S
C470 C473 1.387 . S
H471 C467 0.950 . S
H472 C469 0.950 . S
C473 C464 1.390 . S
C473 H466 0.950 . S
C473 C470 1.387 . S
C474 C475 1.387 . S
C474 H478 0.950 . S
C474 C483 1.390 . S
C475 C474 1.387 . S
C475 C477 1.387 . S
H476 C483 0.950 . S
C477 C475 1.387 . S
C477 C479 1.390 . S
C477 H481 0.950 . S
H478 C474 0.950 . S
C479 C477 1.390 . S
C479 C480 1.387 . S
C479 H482 0.950 . S
C480 C479 1.387 . S
C480 C483 1.387 . S
H481 C477 0.950 . S
H482 C479 0.950 . S
C483 C474 1.390 . S
C483 H476 0.950 . S
C483 C480 1.387 . S
C484 C485 1.387 . S
C484 H488 0.950 . S
C484 C493 1.390 . S
C485 C484 1.387 . S
C485 C487 1.387 . S
H486 C493 0.950 . S
C487 C485 1.387 . S
C487 C489 1.390 . S
C487 H491 0.950 . S
H488 C484 0.950 . S
C489 C487 1.390 . S
C489 C490 1.387 . S
C489 H492 0.950 . S
C490 C489 1.387 . S
C490 C493 1.387 . S
H491 C487 0.950 . S
H492 C489 0.950 . S
C493 C484 1.390 . S
C493 H486 0.950 . S
C493 C490 1.387 . S
C494 C495 1.387 . S
C494 H498 0.950 . S
C494 C503 1.390 . S
C495 C494 1.387 . S
C495 C497 1.387 . S
H496 C503 0.950 . S
C497 C495 1.387 . S
C497 C499 1.390 . S
C497 H501 0.950 . S
H498 C494 0.950 . S
C499 C497 1.390 . S
C499 C500 1.387 . S
C499 H502 0.950 . S
C500 C499 1.387 . S
C500 C503 1.387 . S
H501 C497 0.950 . S
H502 C499 0.950 . S
C503 C494 1.390 . S
C503 H496 0.950 . S
C503 C500 1.387 . S
C504 C505 1.387 . S
C504 H508 0.950 . S
C504 C513 1.390 1_544 S
C505 C504 1.387 . S
C505 C507 1.387 . S
H506 C513 0.950 . S
C507 C505 1.387 . S
C507 C509 1.390 1_544 S
C507 H511 0.950 . S
H508 C504 0.950 . S
C509 C507 1.390 1_566 S
C509 C510 1.387 . S
C509 H512 0.950 . S
C510 C509 1.387 . S
C510 C513 1.387 . S
H511 C507 0.950 . S
H512 C509 0.950 . S
C513 C504 1.390 1_566 S
C513 H506 0.950 . S
C513 C510 1.387 . S
C514 C515 1.387 . S
C514 H518 0.950 . S
C514 C523 1.390 1_456 S
C515 C514 1.387 . S
C515 C517 1.387 . S
H516 C523 0.950 . S
C517 C515 1.387 . S
C517 C519 1.390 1_456 S
C517 H521 0.950 . S
H518 C514 0.950 . S
C519 C517 1.390 1_654 S
C519 C520 1.387 . S
C519 H522 0.950 . S
C520 C519 1.387 . S
C520 C523 1.387 . S
H521 C517 0.950 . S
H522 C519 0.950 . S
C523 C514 1.390 1_654 S
C523 H516 0.950 . S
C523 C520 1.387 . S
C524 C525 1.387 . S
C524 H528 0.950 . S
C524 C533 1.390 1_546 S
C525 C524 1.387 . S
C525 C527 1.387 . S
H526 C533 0.950 . S
C527 C525 1.387 . S
C527 C529 1.390 1_546 S
C527 H531 0.950 . S
H528 C524 0.950 . S
C529 C527 1.390 1_564 S
C529 C530 1.387 . S
C529 H532 0.950 . S
C530 C529 1.387 . S
C530 C533 1.387 . S
H531 C527 0.950 . S
H532 C529 0.950 . S
C533 C524 1.390 1_564 S
C533 H526 0.950 . S
C533 C530 1.387 . S
C534 C535 1.387 . S
C534 H538 0.950 . S
C534 C543 1.390 1_656 S
C535 C534 1.387 . S
C535 C537 1.387 . S
H536 C543 0.950 . S
C537 C535 1.387 . S
C537 C539 1.390 1_656 S
C537 H541 0.950 . S
H538 C534 0.950 . S
C539 C537 1.390 1_454 S
C539 C540 1.387 . S
C539 H542 0.950 . S
C540 C539 1.387 . S
C540 C543 1.387 . S
H541 C537 0.950 . S
H542 C539 0.950 . S
C543 C534 1.390 1_454 S
C543 H536 0.950 . S
C543 C540 1.387 . S
C225 C11 1.449 . S
C230 C103 1.448 . S
C235 C19 1.444 . S
C240 C67 1.452 . S
C245 C75 1.448 . S
C250 C39 1.449 . S
C255 C47 1.448 . S
C260 C95 1.448 . S
C265 C123 1.450 . S
C270 C215 1.446 . S
C275 C179 1.448 . S
C280 C131 1.448 . S
C285 C187 1.444 . S
C290 C151 1.452 . S
C295 C207 1.449 . S
C300 C159 1.447 . S
C305 C4 1.384 . S
C310 C158 1.355 . S
C315 C26 1.202 . S
C320 C117 1.031 . S
C325 C130 1.355 . S
C330 C32 1.385 . S
C335 C54 1.205 . S
C340 C145 1.035 . S
C345 C60 1.386 . S
C350 C186 1.357 . S
C355 C201 1.030 . S
C360 C82 1.201 . S
C365 C88 1.386 . S
C370 C214 1.357 . S
C375 C173 1.030 . S
C380 C110 1.202 . S
C385 C116 1.386 . S
C390 C46 1.357 . S
C395 C5 1.034 . S
C400 C138 1.205 1_455 S
C405 C144 1.385 . S
C410 C18 1.357 . S
C415 C33 1.030 . S
C420 C166 1.201 1_655 S
C425 C172 1.385 . S
C430 C74 1.354 . S
C435 C89 1.035 . S
C440 C194 1.206 1_655 S
C445 C102 1.354 . S
C450 C200 1.385 . S
C455 C61 1.035 . S
C460 C222 1.206 1_455 S
C465 C68 1.424 . S
C470 C12 1.424 . S
C475 C81 1.646 . S
C480 C25 1.646 . S
C485 C40 1.423 . S
C490 C96 1.423 . S
C495 C109 1.644 . S
C500 C53 1.644 . S
C505 C180 1.424 . S
C510 C124 1.424 . S
C515 C193 1.646 . S
C520 C137 1.646 . S
C525 C152 1.423 . S
C530 C208 1.423 . S
C535 C221 1.646 . S
C540 C165 1.646 . S
