# Generated by pormake.
# Topology smb, (6)-cn, num edge types: 1
# Building blocks:
#     Node 0, Type 0, BuildingBlock: IZENUY_clean_sbu_0, # of connection points: 6
#     Node 1, Type 0, BuildingBlock: IZENUY_clean_sbu_0, # of connection points: 6
#     Node 2, Type 0, BuildingBlock: IZENUY_clean_sbu_0, # of connection points: 6
#     Node 3, Type 0, BuildingBlock: IZENUY_clean_sbu_0, # of connection points: 6
#     Node 4, Type 0, BuildingBlock: IZENUY_clean_sbu_0, # of connection points: 6
#     Node 5, Type 0, BuildingBlock: IZENUY_clean_sbu_0, # of connection points: 6
#     Node 6, Type 0, BuildingBlock: IZENUY_clean_sbu_0, # of connection points: 6
#     Node 7, Type 0, BuildingBlock: IZENUY_clean_sbu_0, # of connection points: 6
#     Node 8, Type 0, BuildingBlock: IZENUY_clean_sbu_0, # of connection points: 6
#     Edge 9, Type (0, 0), BuildingBlock: XIVTED_clean_linker_0, # of connection points: 2
#     Edge 10, Type (0, 0), BuildingBlock: XIVTED_clean_linker_0, # of connection points: 2
#     Edge 11, Type (0, 0), BuildingBlock: XIVTED_clean_linker_0, # of connection points: 2
#     Edge 12, Type (0, 0), BuildingBlock: XIVTED_clean_linker_0, # of connection points: 2
#     Edge 13, Type (0, 0), BuildingBlock: XIVTED_clean_linker_0, # of connection points: 2
#     Edge 14, Type (0, 0), BuildingBlock: XIVTED_clean_linker_0, # of connection points: 2
#     Edge 15, Type (0, 0), BuildingBlock: XIVTED_clean_linker_0, # of connection points: 2
#     Edge 16, Type (0, 0), BuildingBlock: XIVTED_clean_linker_0, # of connection points: 2
#     Edge 17, Type (0, 0), BuildingBlock: XIVTED_clean_linker_0, # of connection points: 2
#     Edge 18, Type (0, 0), BuildingBlock: XIVTED_clean_linker_0, # of connection points: 2
#     Edge 19, Type (0, 0), BuildingBlock: XIVTED_clean_linker_0, # of connection points: 2
#     Edge 20, Type (0, 0), BuildingBlock: XIVTED_clean_linker_0, # of connection points: 2
#     Edge 21, Type (0, 0), BuildingBlock: XIVTED_clean_linker_0, # of connection points: 2
#     Edge 22, Type (0, 0), BuildingBlock: XIVTED_clean_linker_0, # of connection points: 2
#     Edge 23, Type (0, 0), BuildingBlock: XIVTED_clean_linker_0, # of connection points: 2
#     Edge 24, Type (0, 0), BuildingBlock: XIVTED_clean_linker_0, # of connection points: 2
#     Edge 25, Type (0, 0), BuildingBlock: XIVTED_clean_linker_0, # of connection points: 2
#     Edge 26, Type (0, 0), BuildingBlock: XIVTED_clean_linker_0, # of connection points: 2
#     Edge 27, Type (0, 0), BuildingBlock: XIVTED_clean_linker_0, # of connection points: 2
#     Edge 28, Type (0, 0), BuildingBlock: XIVTED_clean_linker_0, # of connection points: 2
#     Edge 29, Type (0, 0), BuildingBlock: XIVTED_clean_linker_0, # of connection points: 2
#     Edge 30, Type (0, 0), BuildingBlock: XIVTED_clean_linker_0, # of connection points: 2
#     Edge 31, Type (0, 0), BuildingBlock: XIVTED_clean_linker_0, # of connection points: 2
#     Edge 32, Type (0, 0), BuildingBlock: XIVTED_clean_linker_0, # of connection points: 2
#     Edge 33, Type (0, 0), BuildingBlock: XIVTED_clean_linker_0, # of connection points: 2
#     Edge 34, Type (0, 0), BuildingBlock: XIVTED_clean_linker_0, # of connection points: 2
#     Edge 35, Type (0, 0), BuildingBlock: XIVTED_clean_linker_0, # of connection points: 2
# Relax obj value: 0.326
# Max RMSD: 0.238
# Mean RMSD: 0.238
data_MOF--net-smb--node1-IZENUY_clean_sbu_0--edge1-XIVTED_clean_linker_0
_symmetry_space_group_name_H-M    P1
_symmetry_Int_Tables_number       1
_symmetry_cell_setting            triclinic
loop_
_symmetry_equiv_pos_as_xyz
'x, y, z'
_cell_length_a     38.774064
_cell_length_b     38.717405
_cell_length_c     29.880181
_cell_angle_alpha  90.155263
_cell_angle_beta   89.854562
_cell_angle_gamma 120.00902
loop_
_atom_site_label
_atom_site_type_symbol
_atom_site_fract_x
_atom_site_fract_y
_atom_site_fract_z
_atom_type_partial_charge
Fe0 Fe 0.41173 0.19678 0.965 0.0
Fe1 Fe 0.34359 0.16583 0.0338 0.0
O2 O 0.39511 0.19323 0.02086 0.0
Fe3 Fe 0.43013 0.21698 0.06408 0.0
O4 O 0.46572 0.25831 0.02945 0.0
O5 O 0.43533 0.25076 0.96522 0.0
O6 O 0.36799 0.19573 0.94065 0.0
C7 C 0.34334 0.20461 0.95725 0.0
C8 C 0.46822 0.18688 0.01466 0.0
O9 O 0.33344 0.19786 0.99805 0.0
C10 C 0.37488 0.14371 0.10249 0.0
O11 O 0.38946 0.14331 0.96081 0.0
O12 O 0.3312 0.12876 0.98863 0.0
O13 O 0.45379 0.18774 0.05226 0.0
O14 O 0.45841 0.19836 0.97974 0.0
C15 C 0.37318 0.2341 0.08975 0.0
O16 O 0.35104 0.13217 0.06984 0.0
O17 O 0.40075 0.18012 0.10693 0.0
C18 C 0.35301 0.11883 0.9667 0.0
O19 O 0.34695 0.19819 0.08152 0.0
O20 O 0.40878 0.24761 0.07799 0.0
C21 C 0.46052 0.27275 0.99395 0.0
Fe22 Fe 0.82895 0.16974 0.03327 0.0
Fe23 Fe 0.79331 0.22103 0.06172 0.0
O24 O 0.80499 0.19697 0.019 0.0
Fe25 Fe 0.79244 0.19989 0.9627 0.0
O26 O 0.76234 0.14622 0.95822 0.0
O27 O 0.80573 0.13255 0.98829 0.0
O28 O 0.78718 0.13623 0.06856 0.0
C29 C 0.77463 0.14798 0.10086 0.0
C30 C 0.86958 0.20875 0.95741 0.0
O31 O 0.78576 0.18457 0.10527 0.0
C32 C 0.81744 0.27597 0.99042 0.0
O33 O 0.85697 0.20235 0.08107 0.0
O34 O 0.84519 0.25207 0.07556 0.0
O35 O 0.83668 0.20046 0.93939 0.0
O36 O 0.87143 0.20153 0.99831 0.0
C37 C 0.7252 0.18918 0.01234 0.0
O38 O 0.79859 0.26191 0.02652 0.0
O39 O 0.82152 0.25392 0.96247 0.0
C40 C 0.86699 0.23851 0.08819 0.0
O41 O 0.74079 0.19132 0.04994 0.0
O42 O 0.74617 0.19994 0.97693 0.0
C43 C 0.77452 0.1221 0.96546 0.0
Fe44 Fe 0.78747 0.57398 0.94393 0.0
Fe45 Fe 0.82029 0.63443 0.02192 0.0
O46 O 0.79569 0.58468 0.00196 0.0
Fe47 Fe 0.77892 0.54512 0.04055 0.0
O48 O 0.78426 0.51117 0.00245 0.0
O49 O 0.8154 0.54772 0.94406 0.0
O50 O 0.83381 0.61837 0.92654 0.0
C51 C 0.86544 0.64085 0.94801 0.0
C52 C 0.71531 0.51712 0.9845 0.0
O53 O 0.8646 0.6466 0.98954 0.0
C54 C 0.76216 0.59889 0.0852 0.0
O55 O 0.75933 0.59953 0.93956 0.0
O56 O 0.80075 0.65303 0.97782 0.0
O57 O 0.72794 0.52677 0.02402 0.0
O58 O 0.73936 0.5277 0.95171 0.0
C59 C 0.85186 0.59598 0.07454 0.0
O60 O 0.77713 0.62537 0.05536 0.0
O61 O 0.77051 0.57133 0.0866 0.0
C62 C 0.77137 0.63499 0.9515 0.0
O63 O 0.84448 0.62425 0.06963 0.0
O64 O 0.82916 0.56193 0.05839 0.0
C65 C 0.80781 0.51919 0.9699 0.0
Fe66 Fe 0.08093 0.53466 0.29929 0.0
Fe67 Fe 0.01154 0.50122 0.36668 0.0
O68 O 0.06323 0.52955 0.35487 0.0
Fe69 Fe 0.09738 0.55263 0.39902 0.0
O70 O 0.1334 0.59487 0.36581 0.0
O71 O 0.10411 0.58862 0.30113 0.0
O72 O 0.03742 0.53376 0.27446 0.0
C73 C 0.01184 0.54133 0.29108 0.0
C74 C 0.13675 0.52411 0.34942 0.0
O75 O 0.00131 0.53347 0.33159 0.0
C76 C 0.04215 0.47841 0.43537 0.0
O77 O 0.05923 0.48134 0.29339 0.0
O78 O 0.00037 0.46526 0.32061 0.0
O79 O 0.12164 0.52405 0.38687 0.0
O80 O 0.12752 0.53632 0.31465 0.0
C81 C 0.03933 0.56829 0.42416 0.0
O82 O 0.01899 0.4672 0.40212 0.0
O83 O 0.06753 0.51484 0.44077 0.0
C84 C 0.02281 0.45634 0.29842 0.0
O85 O 0.01362 0.53241 0.41499 0.0
O86 O 0.07524 0.58246 0.41327 0.0
C87 C 0.12883 0.61006 0.33056 0.0
Fe88 Fe 0.46098 0.53646 0.29507 0.0
Fe89 Fe 0.49369 0.50091 0.36398 0.0
O90 O 0.47165 0.53026 0.35114 0.0
Fe91 Fe 0.45981 0.55312 0.3951 0.0
O92 O 0.40756 0.52515 0.3815 0.0
O93 O 0.41521 0.53749 0.30918 0.0
O94 O 0.42967 0.48329 0.28727 0.0
C95 C 0.44017 0.4577 0.29332 0.0
C96 C 0.48728 0.61151 0.32729 0.0
O97 O 0.47026 0.46566 0.3172 0.0
C98 C 0.53205 0.56725 0.42284 0.0
O99 O 0.50487 0.5364 0.27186 0.0
O100 O 0.53736 0.53281 0.33058 0.0
O101 O 0.46712 0.59601 0.36228 0.0
O102 O 0.49147 0.5904 0.29812 0.0
C103 C 0.43828 0.47807 0.43063 0.0
O104 O 0.52149 0.53128 0.41336 0.0
O105 O 0.51137 0.58226 0.41077 0.0
C106 C 0.5368 0.54203 0.29012 0.0
O107 O 0.45072 0.46697 0.39766 0.0
O108 O 0.45024 0.51464 0.43673 0.0
C109 C 0.39321 0.5253 0.34375 0.0
Fe110 Fe 0.44764 0.88422 0.38058 0.0
Fe111 Fe 0.4572 0.91052 0.28287 0.0
O112 O 0.46507 0.92278 0.34058 0.0
Fe113 Fe 0.4899 0.97303 0.35895 0.0
O114 O 0.51369 0.96373 0.40778 0.0
O115 O 0.49768 0.90091 0.39902 0.0
O116 O 0.45243 0.84888 0.34439 0.0
C117 C 0.4763 0.85565 0.31247 0.0
C118 C 0.43152 0.93957 0.42219 0.0
O119 O 0.48446 0.88354 0.28538 0.0
C120 C 0.44195 0.97241 0.28665 0.0
O121 O 0.39682 0.86603 0.3634 0.0
O122 O 0.40862 0.86491 0.29143 0.0
O123 O 0.44663 0.96515 0.39147 0.0
O124 O 0.43963 0.91193 0.42514 0.0
C125 C 0.53548 0.97731 0.28624 0.0
O126 O 0.42976 0.93661 0.27601 0.0
O127 O 0.47092 0.99082 0.31341 0.0
C128 C 0.38438 0.85534 0.32396 0.0
O129 O 0.50406 0.95404 0.26484 0.0
O130 O 0.53432 0.98419 0.3274 0.0
C131 C 0.52066 0.93533 0.41409 0.0
Fe132 Fe 0.74437 0.86388 0.63244 0.0
Fe133 Fe 0.67639 0.83256 0.70155 0.0
O134 O 0.72795 0.85906 0.6886 0.0
Fe135 Fe 0.76327 0.8806 0.73199 0.0
O136 O 0.79954 0.92259 0.69855 0.0
O137 O 0.76926 0.91793 0.63493 0.0
O138 O 0.70128 0.86487 0.60924 0.0
C139 C 0.67729 0.8741 0.627 0.0
C140 C 0.79983 0.85068 0.67977 0.0
O141 O 0.6674 0.86632 0.66766 0.0
C142 C 0.70615 0.80704 0.76855 0.0
O143 O 0.72079 0.81042 0.62607 0.0
O144 O 0.66308 0.79651 0.65512 0.0
O145 O 0.78546 0.8505 0.71772 0.0
O146 O 0.79044 0.86368 0.64581 0.0
C147 C 0.70798 0.89899 0.76081 0.0
O148 O 0.68241 0.7971 0.73594 0.0
O149 O 0.73335 0.84285 0.7737 0.0
C150 C 0.68428 0.78635 0.63231 0.0
O151 O 0.68072 0.86401 0.75053 0.0
O152 O 0.7434 0.91187 0.74869 0.0
C153 C 0.79494 0.93855 0.66395 0.0
Fe154 Fe 0.12647 0.86914 0.62827 0.0
Fe155 Fe 0.16063 0.83542 0.69754 0.0
O156 O 0.1378 0.86395 0.68441 0.0
Fe157 Fe 0.12591 0.88699 0.72809 0.0
O158 O 0.07358 0.85839 0.71495 0.0
O159 O 0.08047 0.86971 0.64243 0.0
O160 O 0.09563 0.81578 0.62153 0.0
C161 C 0.10679 0.79077 0.62797 0.0
C162 C 0.15235 0.94444 0.65931 0.0
O163 O 0.13752 0.79978 0.65111 0.0
C164 C 0.19851 0.90212 0.75576 0.0
O165 O 0.17056 0.86944 0.60502 0.0
O166 O 0.20393 0.86774 0.66389 0.0
O167 O 0.13259 0.92932 0.69465 0.0
O168 O 0.15641 0.92309 0.63036 0.0
C169 C 0.10543 0.81242 0.76431 0.0
O170 O 0.18818 0.86617 0.7467 0.0
O171 O 0.17758 0.91677 0.74337 0.0
C172 C 0.20294 0.87643 0.62332 0.0
O173 O 0.11803 0.80131 0.73148 0.0
O174 O 0.11695 0.84894 0.7701 0.0
C175 C 0.05878 0.85768 0.67723 0.0
Fe176 Fe 0.15475 0.30435 0.69037 0.0
Fe177 Fe 0.1113 0.21551 0.71176 0.0
O178 O 0.1289 0.25417 0.67192 0.0
Fe179 Fe 0.12016 0.24203 0.61425 0.0
O180 O 0.1671 0.28519 0.59568 0.0
O181 O 0.19854 0.31471 0.65795 0.0
O182 O 0.1787 0.29434 0.73865 0.0
C183 C 0.18492 0.26537 0.74463 0.0
C184 C 0.10629 0.30471 0.6191 0.0
O185 O 0.16132 0.23121 0.72934 0.0
C186 C 0.04749 0.18761 0.65621 0.0
O187 O 0.11215 0.29724 0.72369 0.0
O188 O 0.10449 0.24357 0.75686 0.0
O189 O 0.09331 0.26878 0.60844 0.0
O190 O 0.13572 0.32275 0.64541 0.0
C191 C 0.13859 0.18649 0.64281 0.0
O192 O 0.06049 0.19831 0.69544 0.0
O193 O 0.07131 0.19677 0.6233 0.0
C194 C 0.09692 0.2716 0.75434 0.0
O195 O 0.11492 0.17984 0.67493 0.0
O196 O 0.14683 0.21449 0.61587 0.0
C197 C 0.19899 0.30796 0.61662 0.0
H198 H 0.38643 0.09714 0.89942 0.0
H199 H 0.18687 0.89289 0.84505 0.0
H200 H 0.27795 0.05381 0.97597 0.0
H201 H 0.27446 0.96292 0.74535 0.0
H202 H 0.2286 0.94125 0.90252 0.0
H203 H 0.35352 0.03779 0.85212 0.0
C204 C 0.35585 0.07492 0.90674 0.0
C205 C 0.33472 0.08078 0.94141 0.0
C206 C 0.23914 0.94546 0.86827 0.0
C207 C 0.29715 0.01262 0.88748 0.0
C208 C 0.21566 0.91773 0.83571 0.0
C209 C 0.2278 0.92391 0.79084 0.0
C210 C 0.27493 0.9794 0.85565 0.0
C211 C 0.26459 0.95701 0.77984 0.0
C212 C 0.33713 0.04111 0.87961 0.0
C213 C 0.29521 0.05078 0.94929 0.0
N214 N 0.28688 0.98373 0.81206 0.0
N215 N 0.27761 0.01806 0.92235 0.0
H216 H 0.87956 0.23563 0.8709 0.0
H217 H 0.08897 0.24855 0.84114 0.0
H218 H 0.94245 0.21823 0.9796 0.0
H219 H 0.04256 0.29664 0.74367 0.0
H220 H 0.03647 0.23945 0.89305 0.0
H221 H 0.93891 0.25919 0.82403 0.0
C222 C 0.90584 0.23681 0.88498 0.0
C223 C 0.9058 0.22443 0.92917 0.0
C224 C 0.03799 0.25255 0.86062 0.0
C225 C 0.97388 0.25152 0.87562 0.0
C226 C 0.068 0.2578 0.83099 0.0
C227 C 0.06996 0.27326 0.78807 0.0
C228 C 0.00911 0.26204 0.84697 0.0
C229 C 0.04215 0.28482 0.77659 0.0
C230 C 0.9398 0.25052 0.85825 0.0
C231 C 0.94092 0.22712 0.94569 0.0
N232 N 0.01238 0.27836 0.80566 0.0
N233 N 0.97336 0.23999 0.91879 0.0
H234 H 0.67194 0.72582 0.75787 0.0
H235 H 0.78457 0.70937 0.97297 0.0
H236 H 0.73608 0.82087 0.85298 0.0
H237 H 0.71788 0.6112 0.88213 0.0
H238 H 0.75972 0.74771 0.93397 0.0
H239 H 0.6803 0.6802 0.80766 0.0
C240 C 0.687 0.73686 0.7896 0.0
C241 C 0.70381 0.77727 0.80105 0.0
C242 C 0.75023 0.71767 0.9227 0.0
C243 C 0.7139 0.72564 0.85771 0.0
C244 C 0.76453 0.69577 0.94495 0.0
C245 C 0.7538 0.65721 0.93044 0.0
C246 C 0.72524 0.7011 0.88535 0.0
C247 C 0.72727 0.64098 0.89425 0.0
C248 C 0.69199 0.71091 0.81787 0.0
C249 C 0.72318 0.79007 0.84247 0.0
N250 N 0.71426 0.66317 0.87261 0.0
N251 N 0.72803 0.76449 0.869 0.0
H252 H 0.09176 0.82536 0.85052 0.0
H253 H 0.88126 0.62755 0.86242 0.0
H254 H 0.05126 0.73357 0.74936 0.0
H255 H 0.9365 0.70359 0.97697 0.0
H256 H 0.94337 0.6654 0.82073 0.0
H257 H 0.03601 0.78046 0.89807 0.0
C258 C 0.0714 0.79548 0.83859 0.0
C259 C 0.07599 0.78319 0.79585 0.0
C260 C 0.942 0.67361 0.85509 0.0
C261 C 0.01163 0.73187 0.84982 0.0
C262 C 0.90646 0.65218 0.87887 0.0
C263 C 0.90349 0.66268 0.92316 0.0
C264 C 0.97475 0.70611 0.8755 0.0
C265 C 0.93731 0.69456 0.94284 0.0
C266 C 0.03957 0.76986 0.86577 0.0
C267 C 0.04885 0.74415 0.78216 0.0
N268 N 0.9714 0.7154 0.91873 0.0
N269 N 0.01743 0.72003 0.80881 0.0
H270 H 0.20181 0.29552 0.83009 0.0
H271 H 0.3543 0.21598 0.86733 0.0
H272 H 0.23685 0.23996 0.7284 0.0
H273 H 0.28925 0.2294 0.97718 0.0
H274 H 0.32212 0.23951 0.8162 0.0
H275 H 0.24466 0.28641 0.88416 0.0
C276 C 0.21946 0.28254 0.81895 0.0
C277 C 0.21622 0.26865 0.77489 0.0
C278 C 0.31487 0.23742 0.85148 0.0
C279 C 0.26442 0.25786 0.83595 0.0
C280 C 0.33322 0.22389 0.88087 0.0
C281 C 0.32406 0.22005 0.92674 0.0
C282 C 0.28709 0.24747 0.86774 0.0
C283 C 0.29681 0.23138 0.94203 0.0
C284 C 0.2434 0.27692 0.84979 0.0
C285 C 0.23879 0.25119 0.7621 0.0
N286 N 0.27907 0.24444 0.9125 0.0
N287 N 0.26185 0.24623 0.79247 0.0
H288 H 0.67835 0.94955 0.7534 0.0
H289 H 0.78611 0.0587 0.97891 0.0
H290 H 0.72729 0.90166 0.84761 0.0
H291 H 0.71894 0.09668 0.89821 0.0
H292 H 0.75916 -0.00243 0.93471 0.0
H293 H 0.68597 -0.00039 0.80932 0.0
C294 C 0.68942 0.94885 0.78645 0.0
C295 C 0.70185 0.92148 0.79642 0.0
C296 C 0.74993 0.01904 0.92692 0.0
C297 C 0.71206 0.97907 0.85964 0.0
C298 C 0.76546 0.05407 0.95211 0.0
C299 C 0.75524 0.08316 0.94192 0.0
C300 C 0.72435 0.01319 0.89083 0.0
C301 C 0.72793 0.07524 0.90708 0.0
C302 C 0.69412 0.97754 0.8182 0.0
C303 C 0.71702 0.92219 0.8391 0.0
N304 N 0.71388 0.04128 0.8824 0.0
N305 N 0.72218 0.95086 0.86897 0.0
H306 H 0.93899 0.30276 0.07026 0.0
H307 H 0.05921 0.43472 0.2344 0.0
H308 H 0.86369 0.23146 0.17845 0.0
H309 H 0.9466 0.39236 0.30209 0.0
H310 H 0.02802 0.37668 0.1851 0.0
H311 H 0.98326 0.35276 0.12455 0.0
C312 C 0.93277 0.29707 0.1057 0.0
C313 C 0.89844 0.26281 0.12028 0.0
C314 C 0.01018 0.38013 0.21072 0.0
C315 C 0.94792 0.32001 0.18242 0.0
C316 C 0.02798 0.41312 0.23917 0.0
C317 C 0.00528 0.4189 0.27198 0.0
C318 C 0.96941 0.35256 0.21517 0.0
C319 C 0.96508 0.38949 0.27683 0.0
C320 C 0.95793 0.32554 0.13669 0.0
C321 C 0.89055 0.25723 0.16628 0.0
N322 N 0.94836 0.35766 0.24855 0.0
N323 N 0.91474 0.28598 0.19578 0.0
H324 H 0.55029 0.57466 0.20624 0.0
H325 H 0.74958 0.56807 0.16918 0.0
H326 H 0.60635 0.54312 0.31056 0.0
H327 H 0.71207 0.62969 0.0789 0.0
H328 H 0.69793 0.55992 0.22184 0.0
H329 H 0.60914 0.59561 0.15926 0.0
C330 C 0.575 0.57222 0.21935 0.0
C331 C 0.57314 0.55666 0.2623 0.0
C332 C 0.70123 0.57569 0.19082 0.0
C333 C 0.64063 0.58064 0.20856 0.0
C334 C 0.73071 0.58033 0.1607 0.0
C335 C 0.73496 0.59944 0.11953 0.0
C336 C 0.6752 0.58958 0.17946 0.0
C337 C 0.70985 0.61491 0.11037 0.0
C338 C 0.60868 0.58442 0.19256 0.0
C339 C 0.6063 0.55468 0.27763 0.0
N340 N 0.68059 0.60912 0.13985 0.0
N341 N 0.63848 0.56612 0.25061 0.0
H342 H 0.40638 0.16008 0.18634 0.0
H343 H 0.38668 0.9462 0.2189 0.0
H344 H 0.34327 0.06261 0.09373 0.0
H345 H 0.45775 0.04863 0.30276 0.0
H346 H 0.36246 0.9848 0.17862 0.0
H347 H 0.41625 0.11584 0.23558 0.0
C348 C 0.39411 0.12914 0.17661 0.0
C349 C 0.37433 0.11512 0.13559 0.0
C350 C 0.38312 -0.00131 0.20605 0.0
C351 C 0.3861 0.06426 0.19176 0.0
C352 C 0.39701 0.9767 0.2291 0.0
C353 C 0.42474 0.99434 0.264 0.0
C354 C 0.39692 0.03857 0.21805 0.0
C355 C 0.43678 0.03388 0.27582 0.0
C356 C 0.39987 0.10389 0.20475 0.0
C357 C 0.35873 0.07465 0.12503 0.0
N358 N 0.42299 0.05466 0.25275 0.0
N359 N 0.36541 0.05071 0.15269 0.0
H360 H 0.75969 0.16309 0.18575 0.0
H361 H 0.55253 0.96184 0.20214 0.0
H362 H 0.72238 0.06819 0.08887 0.0
H363 H 0.60559 0.04196 0.31411 0.0
H364 H 0.61464 -0.00021 0.16043 0.0
H365 H 0.70437 0.11854 0.23403 0.0
C366 C 0.74015 0.13264 0.17493 0.0
C367 C 0.74551 0.11934 0.13313 0.0
C368 C 0.61281 0.00886 0.19425 0.0
C369 C 0.68162 0.06838 0.18794 0.0
C370 C 0.57726 0.98736 0.21803 0.0
C371 C 0.57365 -0.00102 0.26156 0.0
C372 C 0.6449 0.04257 0.21387 0.0
C373 C 0.6069 0.03202 0.28057 0.0
C374 C 0.70855 0.10722 0.20253 0.0
C375 C 0.71938 0.07959 0.12089 0.0
N376 N 0.64097 0.0529 0.25643 0.0
N377 N 0.68816 0.05565 0.14789 0.0
H378 H 0.9554 0.56267 0.3116 0.0
H379 H 0.90795 0.57636 0.05655 0.0
H380 H 0.02354 0.55479 0.20144 0.0
H381 H 0.86515 0.62185 0.16152 0.0
H382 H 0.95137 0.56944 0.11023 0.0
H383 H 0.92185 0.5848 0.25885 0.0
C384 C 0.9634 0.56568 0.27649 0.0
C385 C 0.99195 0.55629 0.2609 0.0
C386 C 0.93308 0.58161 0.1216 0.0
C387 C 0.95394 0.58165 0.20071 0.0
C388 C 0.90843 0.58564 0.0909 0.0
C389 C 0.88333 0.59986 0.1048 0.0
C390 C 0.93187 0.5909 0.16686 0.0
C391 C 0.8846 0.61122 0.14964 0.0
C392 C 0.94444 0.57854 0.2465 0.0
C393 C 0.00145 0.56119 0.2151 0.0
N394 N 0.90806 0.60587 0.17943 0.0
N395 N 0.98228 0.57315 0.18672 0.0
H396 H 0.36648 0.22482 0.17973 0.0
H397 H 0.39195 0.44063 0.22012 0.0
H398 H 0.36768 0.29994 0.07302 0.0
H399 H 0.44264 0.38887 0.30718 0.0
H400 H 0.3642 0.3807 0.17346 0.0
H401 H 0.37463 0.27612 0.23419 0.0
C402 C 0.36684 0.25148 0.16805 0.0
C403 C 0.36576 0.25816 0.12215 0.0
C404 C 0.38103 0.38235 0.20306 0.0
C405 C 0.37591 0.31691 0.18362 0.0
C406 C 0.39685 0.41648 0.2298 0.0
C407 C 0.42013 0.42001 0.26738 0.0
C408 C 0.38795 0.35119 0.21428 0.0
C409 C 0.42533 0.38764 0.27822 0.0
C410 C 0.37202 0.28086 0.19895 0.0
C411 C 0.36773 0.29361 0.1083 0.0
N412 N 0.40948 0.35461 0.2517 0.0
N413 N 0.37288 0.32182 0.13893 0.0
H414 H 0.60917 0.72205 0.64341 0.0
H415 H 0.6097 0.62402 0.41211 0.0
H416 H 0.716 0.76334 0.56433 0.0
H417 H 0.51914 0.5622 0.51192 0.0
H418 H 0.65128 0.67328 0.46877 0.0
H419 H 0.57666 0.66176 0.59725 0.0
C420 C 0.62589 0.71832 0.61659 0.0
C421 C 0.66522 0.74805 0.60745 0.0
C422 C 0.62281 0.64833 0.47867 0.0
C423 C 0.62814 0.67923 0.55432 0.0
C424 C 0.59936 0.6201 0.44645 0.0
C425 C 0.56151 0.58888 0.45786 0.0
C426 C 0.6076 0.64579 0.52209 0.0
C427 C 0.5486 0.58561 0.50229 0.0
C428 C 0.60739 0.68379 0.59038 0.0
C429 C 0.68555 0.74138 0.57248 0.0
N430 N 0.57133 0.61413 0.5327 0.0
N431 N 0.66661 0.70799 0.54681 0.0
H432 H 0.42284 0.91589 0.50882 0.0
H433 H 0.21443 0.90559 0.53776 0.0
H434 H 0.37744 0.96498 0.41135 0.0
H435 H 0.27503 0.88402 0.64577 0.0
H436 H 0.27413 0.92921 0.49154 0.0
H437 H 0.3702 0.90683 0.56044 0.0
C438 C 0.40204 0.92533 0.49858 0.0
C439 C 0.40431 0.94104 0.45573 0.0
C440 C 0.27445 0.91961 0.52546 0.0
C441 C 0.34333 0.92993 0.51435 0.0
C442 C 0.24029 0.90587 0.55184 0.0
C443 C 0.23948 0.89228 0.59561 0.0
C444 C 0.30798 0.91945 0.54278 0.0
C445 C 0.27409 0.89386 0.61215 0.0
C446 C 0.37195 0.92012 0.52806 0.0
C447 C 0.37675 0.95291 0.4442 0.0
N448 N 0.30675 0.9068 0.58558 0.0
N449 N 0.34692 0.94651 0.47312 0.0
H450 H 0.05028 0.27899 0.55226 0.0
H451 H 0.07295 0.49408 0.51955 0.0
H452 H 0.12393 0.38163 0.63474 0.0
H453 H 0.01049 0.39732 0.4259 0.0
H454 H 0.08218 0.44939 0.5687 0.0
H455 H 0.02688 0.31826 0.51203 0.0
C456 C 0.06135 0.30968 0.56219 0.0
C457 C 0.08955 0.32717 0.59667 0.0
C458 C 0.06609 0.43771 0.53765 0.0
C459 C 0.06266 0.37217 0.55074 0.0
C460 C 0.06069 0.46321 0.50955 0.0
C461 C 0.04129 0.44952 0.46826 0.0
C462 C 0.05228 0.39814 0.5244 0.0
C463 C 0.02568 0.40912 0.45739 0.0
C464 C 0.04793 0.33206 0.53914 0.0
C465 C 0.10255 0.36698 0.60813 0.0
N466 N 0.03196 0.38491 0.48507 0.0
N467 N 0.08917 0.38814 0.58507 0.0
H468 H 0.21387 0.29393 0.53078 0.0
H469 H 0.42541 0.4908 0.5172 0.0
H470 H 0.27066 0.37033 0.64465 0.0
H471 H 0.38302 0.39951 0.41535 0.0
H472 H 0.36981 0.44616 0.56506 0.0
H473 H 0.27563 0.33134 0.48826 0.0
C474 C 0.23934 0.31851 0.54692 0.0
C475 C 0.23688 0.32925 0.59128 0.0
C476 C 0.37289 0.43559 0.53252 0.0
C477 C 0.30774 0.37221 0.54265 0.0
C478 C 0.40465 0.46108 0.50516 0.0
C479 C 0.40871 0.44887 0.46215 0.0
C480 C 0.34446 0.3978 0.51653 0.0
C481 C 0.38105 0.41002 0.44835 0.0
C482 C 0.27467 0.33971 0.52266 0.0
C483 C 0.27104 0.36109 0.61052 0.0
N484 N 0.3497 0.38603 0.47521 0.0
N485 N 0.3049 0.38167 0.58595 0.0
H486 H 0.57941 0.91996 0.39497 0.0
H487 H 0.62038 0.89448 0.64891 0.0
H488 H 0.53108 0.95737 0.50229 0.0
H489 H 0.69193 0.89298 0.53869 0.0
H490 H 0.58811 0.91919 0.59762 0.0
H491 H 0.62277 0.91254 0.44831 0.0
C492 C 0.57881 0.92757 0.4298 0.0
C493 C 0.55224 0.93971 0.44443 0.0
C494 C 0.61118 0.91378 0.58496 0.0
C495 C 0.60039 0.92973 0.50609 0.0
C496 C 0.62943 0.89948 0.61412 0.0
C497 C 0.65845 0.89096 0.59799 0.0
C498 C 0.62193 0.9193 0.53947 0.0
C499 C 0.66932 0.89847 0.55266 0.0
C500 C 0.60333 0.92314 0.46032 0.0
C501 C 0.5518 0.94854 0.48989 0.0
N502 N 0.65085 0.9118 0.52506 0.0
N503 N 0.57511 0.94271 0.51944 0.0
H504 H 0.02526 0.62903 0.40804 0.0
H505 H 0.11209 0.72377 0.64288 0.0
H506 H 0.03917 0.56198 0.51414 0.0
H507 H 0.05574 0.77039 0.55685 0.0
H508 H 0.08335 0.66304 0.59739 0.0
H509 H 0.03231 0.67949 0.4628 0.0
C510 C 0.02827 0.62432 0.44322 0.0
C511 C 0.03094 0.59124 0.45702 0.0
C512 C 0.07684 0.68635 0.58885 0.0
C513 C 0.04106 0.64939 0.51927 0.0
C514 C 0.09344 0.72111 0.61464 0.0
C515 C 0.08673 0.75241 0.60336 0.0
C516 C 0.05394 0.68314 0.55102 0.0
C517 C 0.06194 0.74714 0.56666 0.0
C518 C 0.03265 0.65319 0.47439 0.0
C519 C 0.03621 0.58687 0.50259 0.0
N520 N 0.04697 0.71346 0.54139 0.0
N521 N 0.04182 0.61602 0.53207 0.0
H522 H 0.50916 0.18625 0.94028 0.0
H523 H 0.67147 0.16394 0.08122 0.0
H524 H 0.50241 0.16751 0.08323 0.0
H525 H 0.68307 0.19223 0.94027 0.0
H526 H 0.60474 0.15525 0.0803 0.0
H527 H 0.56786 0.17864 0.93769 0.0
C528 C 0.51982 0.18024 0.97112 0.0
C529 C 0.50118 0.17818 0.01218 0.0
C530 C 0.62174 0.16306 0.04949 0.0
C531 C 0.56848 0.16948 0.00936 0.0
C532 C 0.6599 0.16806 0.04995 0.0
C533 C 0.68321 0.17951 0.01088 0.0
C534 C 0.60673 0.16961 0.00971 0.0
C535 C 0.66636 0.18382 0.97127 0.0
C536 C 0.55337 0.17589 0.96957 0.0
C537 C 0.51608 0.16984 0.05091 0.0
N538 N 0.62927 0.17926 0.97181 0.0
N539 N 0.54909 0.16616 0.0486 0.0
H540 H 0.85333 0.50764 0.02831 0.0
H541 H 0.81753 0.30839 0.9086 0.0
H542 H 0.80073 0.47233 0.8974 0.0
H543 H 0.84637 0.33811 0.04784 0.0
H544 H 0.82858 0.37597 0.89551 0.0
H545 H 0.87007 0.45487 0.02626 0.0
C546 C 0.84617 0.48918 0.99864 0.0
C547 C 0.82553 0.49391 0.9631 0.0
C548 C 0.83321 0.36784 0.92868 0.0
C549 C 0.84298 0.43239 0.96111 0.0
C550 C 0.82707 0.32946 0.9361 0.0
C551 C 0.83046 0.31773 0.9795 0.0
C552 C 0.8433 0.39443 0.96487 0.0
C553 C 0.8428 0.34588 0.01405 0.0
C554 C 0.85549 0.45891 0.99752 0.0
C555 C 0.81675 0.46937 0.92538 0.0
N556 N 0.84847 0.38277 0.00605 0.0
N557 N 0.8248 0.43891 0.92569 0.0
H558 H 0.67856 0.47077 0.91061 0.0
H559 H 0.4843 0.33413 0.05139 0.0
H560 H 0.65472 0.49882 0.04299 0.0
H561 H 0.50055 0.30635 0.91594 0.0
H562 H 0.54077 0.40119 0.04227 0.0
H563 H 0.60902 0.41718 0.90542 0.0
C564 C 0.65858 0.46605 0.93828 0.0
C565 C 0.67262 0.48855 0.97776 0.0
C566 C 0.53177 0.38084 0.01413 0.0
C567 C 0.59334 0.42763 0.972 0.0
C568 C 0.49949 0.34262 0.01937 0.0
C569 C 0.48836 0.31488 0.98453 0.0
C570 C 0.55378 0.39102 0.97412 0.0
C571 C 0.50853 0.32712 0.94357 0.0
C572 C 0.61891 0.43551 0.93527 0.0
C573 C 0.64541 0.48152 0.01237 0.0
N574 N 0.54102 0.36419 0.93975 0.0
N575 N 0.60726 0.45139 0.00887 0.0
H576 H 0.35309 0.53041 0.27091 0.0
H577 H 0.16765 0.50032 0.4173 0.0
H578 H 0.33827 0.5 0.41135 0.0
H579 H 0.18103 0.52813 0.27617 0.0
H580 H 0.22641 0.49271 0.41383 0.0
H581 H 0.28646 0.52228 0.27017 0.0
C582 C 0.33573 0.52171 0.30149 0.0
C583 C 0.35157 0.51654 0.34141 0.0
C584 C 0.21629 0.50017 0.38354 0.0
C585 C 0.27538 0.50731 0.34085 0.0
C586 C 0.18275 0.50455 0.38552 0.0
C587 C 0.16977 0.51551 0.34713 0.0
C588 C 0.23707 0.50694 0.34295 0.0
C589 C 0.19024 0.52014 0.30675 0.0
C590 C 0.29768 0.51707 0.30106 0.0
C591 C 0.32754 0.50488 0.37993 0.0
N592 N 0.22311 0.51622 0.30583 0.0
N593 N 0.29081 0.50105 0.37878 0.0
H594 H 0.48208 0.81846 0.23626 0.0
H595 H 0.51887 0.67118 0.38778 0.0
H596 H 0.5073 0.83208 0.37765 0.0
H597 H 0.48673 0.64775 0.24846 0.0
H598 H 0.53028 0.73852 0.37872 0.0
H599 H 0.49797 0.76421 0.23428 0.0
C600 C 0.49191 0.81065 0.26652 0.0
C601 C 0.49285 0.82905 0.30732 0.0
C602 C 0.52123 0.71902 0.34981 0.0
C603 C 0.5109 0.76773 0.30546 0.0
C604 C 0.51478 0.68059 0.35504 0.0
C605 C 0.50133 0.65393 0.31898 0.0
C606 C 0.51313 0.73066 0.30845 0.0
C607 C 0.49695 0.66757 0.27709 0.0
C608 C 0.50079 0.77969 0.26547 0.0
C609 C 0.5056 0.81803 0.34569 0.0
N610 N 0.502 0.70489 0.27312 0.0
N611 N 0.51377 0.78792 0.34389 0.0
H612 H 0.34775 0.80905 0.24998 0.0
H613 H 0.15349 0.67031 0.38984 0.0
H614 H 0.32361 0.83623 0.38267 0.0
H615 H 0.169 0.64516 0.25301 0.0
H616 H 0.2104 0.7373 0.38201 0.0
H617 H 0.2784 0.75516 0.24467 0.0
C618 C 0.32776 0.80407 0.27772 0.0
C619 C 0.3417 0.82649 0.31728 0.0
C620 C 0.20113 0.71755 0.35331 0.0
C621 C 0.26255 0.76512 0.31138 0.0
C622 C 0.16861 0.67936 0.35782 0.0
C623 C 0.15708 0.65234 0.32217 0.0
C624 C 0.22298 0.72845 0.31319 0.0
C625 C 0.17722 0.66533 0.28125 0.0
C626 C 0.28818 0.77334 0.27463 0.0
C627 C 0.31442 0.81907 0.35195 0.0
N628 N 0.20991 0.70235 0.27811 0.0
N629 N 0.27635 0.78873 0.34838 0.0
H630 H 0.00321 0.82794 0.74413 0.0
H631 H 0.84264 0.85449 0.60511 0.0
H632 H 0.01827 0.86409 0.6055 0.0
H633 H 0.8322 0.82714 0.74627 0.0
H634 H 0.902 0.84802 0.60174 0.0
H635 H 0.93589 0.81764 0.7424 0.0
C636 C 0.99231 0.83352 0.7132 0.0
C637 C 0.01671 0.84759 0.67508 0.0
C638 C 0.88653 0.8431 0.63336 0.0
C639 C 0.93954 0.83581 0.67296 0.0
C640 C 0.85258 0.84675 0.63534 0.0
C641 C 0.83278 0.84203 0.67623 0.0
C642 C 0.90082 0.83469 0.67254 0.0
C643 C 0.84681 0.83157 0.71415 0.0
C644 C 0.9538 0.82755 0.71225 0.0
C645 C 0.00069 0.85364 0.6358 0.0
N646 N 0.88022 0.82866 0.71147 0.0
N647 N 0.96321 0.84811 0.63589 0.0
H648 H 0.18512 0.00495 0.71862 0.0
H649 H 0.14449 0.14933 0.56667 0.0
H650 H 0.15019 0.97936 0.58022 0.0
H651 H 0.17012 0.16357 0.70797 0.0
H652 H 0.16142 0.0958 0.56472 0.0
H653 H 0.19619 0.0721 0.70874 0.0
C654 C 0.18034 0.01385 0.6859 0.0
C655 C 0.16617 0.98666 0.65037 0.0
C656 C 0.1641 0.11128 0.59588 0.0
C657 C 0.17752 0.06306 0.63895 0.0
C658 C 0.1546 0.14179 0.59691 0.0
C659 C 0.15536 0.16012 0.63769 0.0
C660 C 0.17469 0.09976 0.63585 0.0
C661 C 0.16853 0.14955 0.67604 0.0
C662 C 0.18659 0.05215 0.6802 0.0
C663 C 0.16094 -0.00038 0.60846 0.0
N664 N 0.17734 0.1199 0.67424 0.0
N665 N 0.16576 0.0368 0.60407 0.0
H666 H 0.82928 0.9755 0.58449 0.0
H667 H 0.9875 0.17111 0.71502 0.0
H668 H 0.82613 -0.00277 0.72567 0.0
H669 H 0.00991 0.13862 0.58429 0.0
H670 H 0.91899 0.1165 0.71082 0.0
H671 H 0.88622 0.04358 0.57624 0.0
C672 C 0.84 0.99496 0.61344 0.0
C673 C 0.82365 0.98085 0.65593 0.0
C674 C 0.93873 0.12154 0.6828 0.0
C675 C 0.88799 0.058 0.64684 0.0
C676 C 0.97789 0.15268 0.6852 0.0
C677 C 0.0047 0.15874 0.65044 0.0
C678 C 0.92629 0.09598 0.64555 0.0
C679 C 0.99033 0.13456 0.61214 0.0
C680 C 0.87249 0.03358 0.60879 0.0
C681 C 0.83846 0.00694 0.69247 0.0
N682 N 0.95216 0.1037 0.61101 0.0
N683 N 0.86998 0.04414 0.68715 0.0
loop_
_geom_bond_atom_site_label_1
_geom_bond_atom_site_label_2
_geom_bond_distance
_geom_bond_site_symmetry_2
_ccdc_geom_bond_type
Fe0 O2 1.918 1_556 S
Fe0 O5 1.997 . S
Fe0 O6 2.002 . S
Fe0 O11 1.976 . S
Fe0 O14 1.996 . S
Fe1 O2 1.918 . S
Fe1 O9 1.997 1_554 S
Fe1 O12 1.996 1_554 S
Fe1 O16 1.976 . S
Fe1 O19 2.002 . S
O2 Fe0 1.918 1_554 S
O2 Fe1 1.918 . S
O2 Fe3 1.918 . S
Fe3 O2 1.918 . S
Fe3 O4 2.002 . S
Fe3 O13 1.976 . S
Fe3 O17 1.996 . S
Fe3 O20 1.997 . S
O4 Fe3 2.002 . S
O4 C21 1.295 1_554 S
O5 Fe0 1.997 . S
O5 C21 1.235 . S
O6 Fe0 2.002 . S
O6 C7 1.295 . S
C7 O6 1.295 . S
C7 O9 1.235 . S
C8 O13 1.287 1_556 S
C8 O14 1.255 . S
O9 Fe1 1.997 1_556 S
O9 C7 1.235 . S
C10 O16 1.287 . S
C10 O17 1.255 . S
O11 Fe0 1.976 . S
O11 C18 1.287 . S
O12 Fe1 1.996 1_556 S
O12 C18 1.255 . S
O13 Fe3 1.976 . S
O13 C8 1.287 1_554 S
O14 Fe0 1.996 . S
O14 C8 1.255 . S
C15 O19 1.295 . S
C15 O20 1.235 . S
O16 Fe1 1.976 . S
O16 C10 1.287 . S
O17 Fe3 1.996 . S
O17 C10 1.255 . S
C18 O11 1.287 . S
C18 O12 1.255 . S
O19 Fe1 2.002 . S
O19 C15 1.295 . S
O20 Fe3 1.997 . S
O20 C15 1.235 . S
C21 O4 1.295 1_556 S
C21 O5 1.235 . S
Fe22 O24 1.918 . S
Fe22 O27 1.997 1_554 S
Fe22 O28 2.002 . S
Fe22 O33 1.976 . S
Fe22 O36 1.996 1_554 S
Fe23 O24 1.918 . S
Fe23 O31 1.997 . S
Fe23 O34 1.996 . S
Fe23 O38 1.976 . S
Fe23 O41 2.002 . S
O24 Fe22 1.918 . S
O24 Fe23 1.918 . S
O24 Fe25 1.918 1_554 S
Fe25 O24 1.918 1_556 S
Fe25 O26 2.002 . S
Fe25 O35 1.976 . S
Fe25 O39 1.996 . S
Fe25 O42 1.997 . S
O26 Fe25 2.002 . S
O26 C43 1.295 . S
O27 Fe22 1.997 1_556 S
O27 C43 1.235 . S
O28 Fe22 2.002 . S
O28 C29 1.295 . S
C29 O28 1.295 . S
C29 O31 1.235 . S
C30 O35 1.287 . S
C30 O36 1.255 . S
O31 Fe23 1.997 . S
O31 C29 1.235 . S
C32 O38 1.287 1_556 S
C32 O39 1.255 . S
O33 Fe22 1.976 . S
O33 C40 1.287 . S
O34 Fe23 1.996 . S
O34 C40 1.255 . S
O35 Fe25 1.976 . S
O35 C30 1.287 . S
O36 Fe22 1.996 1_556 S
O36 C30 1.255 . S
C37 O41 1.295 1_556 S
C37 O42 1.235 . S
O38 Fe23 1.976 . S
O38 C32 1.287 1_554 S
O39 Fe25 1.996 . S
O39 C32 1.255 . S
C40 O33 1.287 . S
C40 O34 1.255 . S
O41 Fe23 2.002 . S
O41 C37 1.295 1_554 S
O42 Fe25 1.997 . S
O42 C37 1.235 . S
C43 O26 1.295 . S
C43 O27 1.235 . S
Fe44 O46 1.918 1_556 S
Fe44 O49 1.997 . S
Fe44 O50 2.002 . S
Fe44 O55 1.976 . S
Fe44 O58 1.996 . S
Fe45 O46 1.918 . S
Fe45 O53 1.997 1_554 S
Fe45 O56 1.996 1_554 S
Fe45 O60 1.976 . S
Fe45 O63 2.002 . S
O46 Fe44 1.918 1_554 S
O46 Fe45 1.918 . S
O46 Fe47 1.918 . S
Fe47 O46 1.918 . S
Fe47 O48 2.002 . S
Fe47 O57 1.976 . S
Fe47 O61 1.996 . S
Fe47 O64 1.997 . S
O48 Fe47 2.002 . S
O48 C65 1.295 1_554 S
O49 Fe44 1.997 . S
O49 C65 1.235 . S
O50 Fe44 2.002 . S
O50 C51 1.295 . S
C51 O50 1.295 . S
C51 O53 1.235 . S
C52 O57 1.287 1_556 S
C52 O58 1.255 . S
O53 Fe45 1.997 1_556 S
O53 C51 1.235 . S
C54 O60 1.287 . S
C54 O61 1.255 . S
O55 Fe44 1.976 . S
O55 C62 1.287 . S
O56 Fe45 1.996 1_556 S
O56 C62 1.255 . S
O57 Fe47 1.976 . S
O57 C52 1.287 1_554 S
O58 Fe44 1.996 . S
O58 C52 1.255 . S
C59 O63 1.295 . S
C59 O64 1.235 . S
O60 Fe45 1.976 . S
O60 C54 1.287 . S
O61 Fe47 1.996 . S
O61 C54 1.255 . S
C62 O55 1.287 . S
C62 O56 1.255 . S
O63 Fe45 2.002 . S
O63 C59 1.295 . S
O64 Fe47 1.997 . S
O64 C59 1.235 . S
C65 O48 1.295 1_556 S
C65 O49 1.235 . S
Fe66 O68 1.918 . S
Fe66 O71 1.997 . S
Fe66 O72 2.002 . S
Fe66 O77 1.976 . S
Fe66 O80 1.996 . S
Fe67 O68 1.918 . S
Fe67 O75 1.997 . S
Fe67 O78 1.996 . S
Fe67 O82 1.976 . S
Fe67 O85 2.002 . S
O68 Fe66 1.918 . S
O68 Fe67 1.918 . S
O68 Fe69 1.918 . S
Fe69 O68 1.918 . S
Fe69 O70 2.002 . S
Fe69 O79 1.976 . S
Fe69 O83 1.996 . S
Fe69 O86 1.997 . S
O70 Fe69 2.002 . S
O70 C87 1.295 . S
O71 Fe66 1.997 . S
O71 C87 1.235 . S
O72 Fe66 2.002 . S
O72 C73 1.295 . S
C73 O72 1.295 . S
C73 O75 1.235 . S
C74 O79 1.287 . S
C74 O80 1.255 . S
O75 Fe67 1.997 . S
O75 C73 1.235 . S
C76 O82 1.287 . S
C76 O83 1.255 . S
O77 Fe66 1.976 . S
O77 C84 1.287 . S
O78 Fe67 1.996 . S
O78 C84 1.255 . S
O79 Fe69 1.976 . S
O79 C74 1.287 . S
O80 Fe66 1.996 . S
O80 C74 1.255 . S
C81 O85 1.295 . S
C81 O86 1.235 . S
O82 Fe67 1.976 . S
O82 C76 1.287 . S
O83 Fe69 1.996 . S
O83 C76 1.255 . S
C84 O77 1.287 . S
C84 O78 1.255 . S
O85 Fe67 2.002 . S
O85 C81 1.295 . S
O86 Fe69 1.997 . S
O86 C81 1.235 . S
C87 O70 1.295 . S
C87 O71 1.235 . S
Fe88 O90 1.918 . S
Fe88 O93 1.997 . S
Fe88 O94 2.002 . S
Fe88 O99 1.976 . S
Fe88 O102 1.996 . S
Fe89 O90 1.918 . S
Fe89 O97 1.997 . S
Fe89 O100 1.996 . S
Fe89 O104 1.976 . S
Fe89 O107 2.002 . S
O90 Fe88 1.918 . S
O90 Fe89 1.918 . S
O90 Fe91 1.918 . S
Fe91 O90 1.918 . S
Fe91 O92 2.002 . S
Fe91 O101 1.976 . S
Fe91 O105 1.996 . S
Fe91 O108 1.997 . S
O92 Fe91 2.002 . S
O92 C109 1.295 . S
O93 Fe88 1.997 . S
O93 C109 1.235 . S
O94 Fe88 2.002 . S
O94 C95 1.295 . S
C95 O94 1.295 . S
C95 O97 1.235 . S
C96 O101 1.287 . S
C96 O102 1.255 . S
O97 Fe89 1.997 . S
O97 C95 1.235 . S
C98 O104 1.287 . S
C98 O105 1.255 . S
O99 Fe88 1.976 . S
O99 C106 1.287 . S
O100 Fe89 1.996 . S
O100 C106 1.255 . S
O101 Fe91 1.976 . S
O101 C96 1.287 . S
O102 Fe88 1.996 . S
O102 C96 1.255 . S
C103 O107 1.295 . S
C103 O108 1.235 . S
O104 Fe89 1.976 . S
O104 C98 1.287 . S
O105 Fe91 1.996 . S
O105 C98 1.255 . S
C106 O99 1.287 . S
C106 O100 1.255 . S
O107 Fe89 2.002 . S
O107 C103 1.295 . S
O108 Fe91 1.997 . S
O108 C103 1.235 . S
C109 O92 1.295 . S
C109 O93 1.235 . S
Fe110 O112 1.918 . S
Fe110 O115 1.997 . S
Fe110 O116 2.002 . S
Fe110 O121 1.976 . S
Fe110 O124 1.996 . S
Fe111 O112 1.918 . S
Fe111 O119 1.997 . S
Fe111 O122 1.996 . S
Fe111 O126 1.976 . S
Fe111 O129 2.002 . S
O112 Fe110 1.918 . S
O112 Fe111 1.918 . S
O112 Fe113 1.918 . S
Fe113 O112 1.918 . S
Fe113 O114 2.002 . S
Fe113 O123 1.976 . S
Fe113 O127 1.996 . S
Fe113 O130 1.997 . S
O114 Fe113 2.002 . S
O114 C131 1.295 . S
O115 Fe110 1.997 . S
O115 C131 1.235 . S
O116 Fe110 2.002 . S
O116 C117 1.295 . S
C117 O116 1.295 . S
C117 O119 1.235 . S
C118 O123 1.287 . S
C118 O124 1.255 . S
O119 Fe111 1.997 . S
O119 C117 1.235 . S
C120 O126 1.287 . S
C120 O127 1.255 . S
O121 Fe110 1.976 . S
O121 C128 1.287 . S
O122 Fe111 1.996 . S
O122 C128 1.255 . S
O123 Fe113 1.976 . S
O123 C118 1.287 . S
O124 Fe110 1.996 . S
O124 C118 1.255 . S
C125 O129 1.295 . S
C125 O130 1.235 . S
O126 Fe111 1.976 . S
O126 C120 1.287 . S
O127 Fe113 1.996 . S
O127 C120 1.255 . S
C128 O121 1.287 . S
C128 O122 1.255 . S
O129 Fe111 2.002 . S
O129 C125 1.295 . S
O130 Fe113 1.997 . S
O130 C125 1.235 . S
C131 O114 1.295 . S
C131 O115 1.235 . S
Fe132 O134 1.918 . S
Fe132 O137 1.997 . S
Fe132 O138 2.002 . S
Fe132 O143 1.976 . S
Fe132 O146 1.996 . S
Fe133 O134 1.918 . S
Fe133 O141 1.997 . S
Fe133 O144 1.996 . S
Fe133 O148 1.976 . S
Fe133 O151 2.002 . S
O134 Fe132 1.918 . S
O134 Fe133 1.918 . S
O134 Fe135 1.918 . S
Fe135 O134 1.918 . S
Fe135 O136 2.002 . S
Fe135 O145 1.976 . S
Fe135 O149 1.996 . S
Fe135 O152 1.997 . S
O136 Fe135 2.002 . S
O136 C153 1.295 . S
O137 Fe132 1.997 . S
O137 C153 1.235 . S
O138 Fe132 2.002 . S
O138 C139 1.295 . S
C139 O138 1.295 . S
C139 O141 1.235 . S
C140 O145 1.287 . S
C140 O146 1.255 . S
O141 Fe133 1.997 . S
O141 C139 1.235 . S
C142 O148 1.287 . S
C142 O149 1.255 . S
O143 Fe132 1.976 . S
O143 C150 1.287 . S
O144 Fe133 1.996 . S
O144 C150 1.255 . S
O145 Fe135 1.976 . S
O145 C140 1.287 . S
O146 Fe132 1.996 . S
O146 C140 1.255 . S
C147 O151 1.295 . S
C147 O152 1.235 . S
O148 Fe133 1.976 . S
O148 C142 1.287 . S
O149 Fe135 1.996 . S
O149 C142 1.255 . S
C150 O143 1.287 . S
C150 O144 1.255 . S
O151 Fe133 2.002 . S
O151 C147 1.295 . S
O152 Fe135 1.997 . S
O152 C147 1.235 . S
C153 O136 1.295 . S
C153 O137 1.235 . S
Fe154 O156 1.918 . S
Fe154 O159 1.997 . S
Fe154 O160 2.002 . S
Fe154 O165 1.976 . S
Fe154 O168 1.996 . S
Fe155 O156 1.918 . S
Fe155 O163 1.997 . S
Fe155 O166 1.996 . S
Fe155 O170 1.976 . S
Fe155 O173 2.002 . S
O156 Fe154 1.918 . S
O156 Fe155 1.918 . S
O156 Fe157 1.918 . S
Fe157 O156 1.918 . S
Fe157 O158 2.002 . S
Fe157 O167 1.976 . S
Fe157 O171 1.996 . S
Fe157 O174 1.997 . S
O158 Fe157 2.002 . S
O158 C175 1.295 . S
O159 Fe154 1.997 . S
O159 C175 1.235 . S
O160 Fe154 2.002 . S
O160 C161 1.295 . S
C161 O160 1.295 . S
C161 O163 1.235 . S
C162 O167 1.287 . S
C162 O168 1.255 . S
O163 Fe155 1.997 . S
O163 C161 1.235 . S
C164 O170 1.287 . S
C164 O171 1.255 . S
O165 Fe154 1.976 . S
O165 C172 1.287 . S
O166 Fe155 1.996 . S
O166 C172 1.255 . S
O167 Fe157 1.976 . S
O167 C162 1.287 . S
O168 Fe154 1.996 . S
O168 C162 1.255 . S
C169 O173 1.295 . S
C169 O174 1.235 . S
O170 Fe155 1.976 . S
O170 C164 1.287 . S
O171 Fe157 1.996 . S
O171 C164 1.255 . S
C172 O165 1.287 . S
C172 O166 1.255 . S
O173 Fe155 2.002 . S
O173 C169 1.295 . S
O174 Fe157 1.997 . S
O174 C169 1.235 . S
C175 O158 1.295 . S
C175 O159 1.235 . S
Fe176 O178 1.918 . S
Fe176 O181 1.997 . S
Fe176 O182 2.002 . S
Fe176 O187 1.976 . S
Fe176 O190 1.996 . S
Fe177 O178 1.918 . S
Fe177 O185 1.997 . S
Fe177 O188 1.996 . S
Fe177 O192 1.976 . S
Fe177 O195 2.002 . S
O178 Fe176 1.918 . S
O178 Fe177 1.918 . S
O178 Fe179 1.918 . S
Fe179 O178 1.918 . S
Fe179 O180 2.002 . S
Fe179 O189 1.976 . S
Fe179 O193 1.996 . S
Fe179 O196 1.997 . S
O180 Fe179 2.002 . S
O180 C197 1.295 . S
O181 Fe176 1.997 . S
O181 C197 1.235 . S
O182 Fe176 2.002 . S
O182 C183 1.295 . S
C183 O182 1.295 . S
C183 O185 1.235 . S
C184 O189 1.287 . S
C184 O190 1.255 . S
O185 Fe177 1.997 . S
O185 C183 1.235 . S
C186 O192 1.287 . S
C186 O193 1.255 . S
O187 Fe176 1.976 . S
O187 C194 1.287 . S
O188 Fe177 1.996 . S
O188 C194 1.255 . S
O189 Fe179 1.976 . S
O189 C184 1.287 . S
O190 Fe176 1.996 . S
O190 C184 1.255 . S
C191 O195 1.295 . S
C191 O196 1.235 . S
O192 Fe177 1.976 . S
O192 C186 1.287 . S
O193 Fe179 1.996 . S
O193 C186 1.255 . S
C194 O187 1.287 . S
C194 O188 1.255 . S
O195 Fe177 2.002 . S
O195 C191 1.295 . S
O196 Fe179 1.997 . S
O196 C191 1.235 . S
C197 O180 1.295 . S
C197 O181 1.235 . S
H198 C204 0.930 . S
H199 C208 0.930 . S
H200 C213 0.929 . S
H201 C211 0.929 . S
H202 C206 0.929 . S
H203 C212 0.929 . S
C204 H198 0.930 . S
C204 C205 1.367 . S
C204 C212 1.378 . S
C205 C204 1.367 . S
C205 C213 1.433 . S
C206 H202 0.929 . S
C206 C208 1.378 . S
C206 C210 1.350 . S
C207 C210 1.463 1_545 S
C207 C212 1.350 . S
C207 N215 1.427 . S
C208 H199 0.930 . S
C208 C206 1.378 . S
C208 C209 1.367 . S
C209 C208 1.367 . S
C209 C211 1.433 . S
C210 C206 1.350 . S
C210 C207 1.463 1_565 S
C210 N214 1.427 . S
C211 H201 0.929 . S
C211 C209 1.433 . S
C211 N214 1.384 . S
C212 H203 0.929 . S
C212 C204 1.378 . S
C212 C207 1.350 . S
C213 H200 0.929 . S
C213 C205 1.433 . S
C213 N215 1.384 . S
N214 C210 1.427 . S
N214 C211 1.384 . S
N215 C207 1.427 . S
N215 C213 1.384 . S
H216 C222 0.930 . S
H217 C226 0.930 . S
H218 C231 0.929 . S
H219 C229 0.929 . S
H220 C224 0.929 . S
H221 C230 0.929 . S
C222 H216 0.930 . S
C222 C223 1.367 . S
C222 C230 1.378 . S
C223 C222 1.367 . S
C223 C231 1.433 . S
C224 H220 0.929 . S
C224 C226 1.378 . S
C224 C228 1.350 . S
C225 C228 1.463 1_655 S
C225 C230 1.350 . S
C225 N233 1.427 . S
C226 H217 0.930 . S
C226 C224 1.378 . S
C226 C227 1.367 . S
C227 C226 1.367 . S
C227 C229 1.433 . S
C228 C224 1.350 . S
C228 C225 1.463 1_455 S
C228 N232 1.427 1_455 S
C229 H219 0.929 . S
C229 C227 1.433 . S
C229 N232 1.373 1_455 S
C230 H221 0.929 . S
C230 C222 1.378 . S
C230 C225 1.350 . S
C231 H218 0.929 . S
C231 C223 1.433 . S
C231 N233 1.384 . S
N232 C228 1.427 1_655 S
N232 C229 1.373 1_655 S
N233 C225 1.427 . S
N233 C231 1.384 . S
H234 C240 0.930 . S
H235 C244 0.930 . S
H236 C249 0.929 . S
H237 C247 0.929 . S
H238 C242 0.929 . S
H239 C248 0.929 . S
C240 H234 0.930 . S
C240 C241 1.367 . S
C240 C248 1.378 . S
C241 C240 1.367 . S
C241 C249 1.433 . S
C242 H238 0.929 . S
C242 C244 1.378 . S
C242 C246 1.350 . S
C243 C246 1.463 . S
C243 C248 1.350 . S
C243 N251 1.427 . S
C244 H235 0.930 . S
C244 C242 1.378 . S
C244 C245 1.367 . S
C245 C244 1.367 . S
C245 C247 1.433 . S
C246 C242 1.350 . S
C246 C243 1.463 . S
C246 N250 1.427 . S
C247 H237 0.929 . S
C247 C245 1.433 . S
C247 N250 1.384 . S
C248 H239 0.929 . S
C248 C240 1.378 . S
C248 C243 1.350 . S
C249 H236 0.929 . S
C249 C241 1.433 . S
C249 N251 1.384 . S
N250 C246 1.427 . S
N250 C247 1.384 . S
N251 C243 1.427 . S
N251 C249 1.384 . S
H252 C258 0.930 . S
H253 C262 0.930 . S
H254 C267 0.929 . S
H255 C265 0.929 . S
H256 C260 0.929 . S
H257 C266 0.929 . S
C258 H252 0.930 . S
C258 C259 1.367 . S
C258 C266 1.378 . S
C259 C258 1.367 . S
C259 C267 1.433 . S
C260 H256 0.929 . S
C260 C262 1.378 . S
C260 C264 1.350 . S
C261 C264 1.463 1_455 S
C261 C266 1.350 . S
C261 N269 1.423 1_455 S
C262 H253 0.930 . S
C262 C260 1.378 . S
C262 C263 1.367 . S
C263 C262 1.367 . S
C263 C265 1.433 . S
C264 C260 1.350 . S
C264 C261 1.463 1_655 S
C264 N268 1.427 . S
C265 H255 0.929 . S
C265 C263 1.433 . S
C265 N268 1.384 . S
C266 H257 0.929 . S
C266 C258 1.378 . S
C266 C261 1.350 . S
C267 H254 0.929 . S
C267 C259 1.433 . S
C267 N269 1.368 1_455 S
N268 C264 1.427 . S
N268 C265 1.384 . S
N269 C261 1.423 1_655 S
N269 C267 1.368 1_655 S
H270 C276 0.930 . S
H271 C280 0.930 . S
H272 C285 0.929 . S
H273 C283 0.929 . S
H274 C278 0.929 . S
H275 C284 0.929 . S
C276 H270 0.930 . S
C276 C277 1.367 . S
C276 C284 1.378 . S
C277 C276 1.367 . S
C277 C285 1.433 . S
C278 H274 0.929 . S
C278 C280 1.378 . S
C278 C282 1.350 . S
C279 C282 1.463 . S
C279 C284 1.350 . S
C279 N287 1.427 . S
C280 H271 0.930 . S
C280 C278 1.378 . S
C280 C281 1.367 . S
C281 C280 1.367 . S
C281 C283 1.433 . S
C282 C278 1.350 . S
C282 C279 1.463 . S
C282 N286 1.427 . S
C283 H273 0.929 . S
C283 C281 1.433 . S
C283 N286 1.384 . S
C284 H275 0.929 . S
C284 C276 1.378 . S
C284 C279 1.350 . S
C285 H272 0.929 . S
C285 C277 1.433 . S
C285 N287 1.384 . S
N286 C282 1.427 . S
N286 C283 1.384 . S
N287 C279 1.427 . S
N287 C285 1.384 . S
H288 C294 0.930 . S
H289 C298 0.930 . S
H290 C303 0.929 . S
H291 C301 0.929 . S
H292 C296 0.929 . S
H293 C302 0.929 . S
C294 H288 0.930 . S
C294 C295 1.367 . S
C294 C302 1.378 . S
C295 C294 1.367 . S
C295 C303 1.433 . S
C296 H292 0.929 . S
C296 C298 1.378 . S
C296 C300 1.350 . S
C297 C300 1.463 1_565 S
C297 C302 1.350 . S
C297 N305 1.427 . S
C298 H289 0.930 . S
C298 C296 1.378 . S
C298 C299 1.367 . S
C299 C298 1.367 . S
C299 C301 1.433 . S
C300 C296 1.350 . S
C300 C297 1.463 1_545 S
C300 N304 1.427 . S
C301 H291 0.929 . S
C301 C299 1.433 . S
C301 N304 1.384 . S
C302 H293 0.929 . S
C302 C294 1.378 . S
C302 C297 1.350 . S
C303 H290 0.929 . S
C303 C295 1.433 . S
C303 N305 1.384 . S
N304 C300 1.427 . S
N304 C301 1.384 . S
N305 C297 1.427 . S
N305 C303 1.384 . S
H306 C312 0.930 . S
H307 C316 0.912 1_455 S
H308 C321 0.929 . S
H309 C319 0.929 . S
H310 C314 0.929 . S
H311 C320 0.929 . S
C312 H306 0.930 . S
C312 C313 1.367 . S
C312 C320 1.378 . S
C313 C312 1.367 . S
C313 C321 1.433 . S
C314 H310 0.929 . S
C314 C316 1.385 . S
C314 C318 1.350 . S
C315 C318 1.463 . S
C315 C320 1.350 . S
C315 N323 1.427 . S
C316 H307 0.912 1_655 S
C316 C314 1.385 . S
C316 C317 1.380 1_655 S
C317 C316 1.380 1_455 S
C317 C319 1.433 1_455 S
C318 C314 1.350 . S
C318 C315 1.463 . S
C318 N322 1.427 . S
C319 H309 0.929 . S
C319 C317 1.433 1_655 S
C319 N322 1.384 . S
C320 H311 0.929 . S
C320 C312 1.378 . S
C320 C315 1.350 . S
C321 H308 0.929 . S
C321 C313 1.433 . S
C321 N323 1.384 . S
N322 C318 1.427 . S
N322 C319 1.384 . S
N323 C315 1.427 . S
N323 C321 1.384 . S
H324 C330 0.930 . S
H325 C334 0.930 . S
H326 C339 0.929 . S
H327 C337 0.929 . S
H328 C332 0.929 . S
H329 C338 0.929 . S
C330 H324 0.930 . S
C330 C331 1.367 . S
C330 C338 1.378 . S
C331 C330 1.367 . S
C331 C339 1.433 . S
C332 H328 0.929 . S
C332 C334 1.378 . S
C332 C336 1.350 . S
C333 C336 1.463 . S
C333 C338 1.350 . S
C333 N341 1.427 . S
C334 H325 0.930 . S
C334 C332 1.378 . S
C334 C335 1.367 . S
C335 C334 1.367 . S
C335 C337 1.433 . S
C336 C332 1.350 . S
C336 C333 1.463 . S
C336 N340 1.427 . S
C337 H327 0.929 . S
C337 C335 1.433 . S
C337 N340 1.384 . S
C338 H329 0.929 . S
C338 C330 1.378 . S
C338 C333 1.350 . S
C339 H326 0.929 . S
C339 C331 1.433 . S
C339 N341 1.384 . S
N340 C336 1.427 . S
N340 C337 1.384 . S
N341 C333 1.427 . S
N341 C339 1.384 . S
H342 C348 0.930 . S
H343 C352 0.930 . S
H344 C357 0.929 . S
H345 C355 0.929 . S
H346 C350 0.929 . S
H347 C356 0.929 . S
C348 H342 0.930 . S
C348 C349 1.367 . S
C348 C356 1.378 . S
C349 C348 1.367 . S
C349 C357 1.433 . S
C350 H346 0.929 . S
C350 C352 1.378 1_545 S
C350 C354 1.350 . S
C351 C354 1.463 . S
C351 C356 1.350 . S
C351 N359 1.427 . S
C352 H343 0.930 . S
C352 C350 1.378 1_565 S
C352 C353 1.367 . S
C353 C352 1.367 . S
C353 C355 1.433 1_565 S
C354 C350 1.350 . S
C354 C351 1.463 . S
C354 N358 1.427 . S
C355 H345 0.929 . S
C355 C353 1.433 1_545 S
C355 N358 1.384 . S
C356 H347 0.929 . S
C356 C348 1.378 . S
C356 C351 1.350 . S
C357 H344 0.929 . S
C357 C349 1.433 . S
C357 N359 1.384 . S
N358 C354 1.427 . S
N358 C355 1.384 . S
N359 C351 1.427 . S
N359 C357 1.384 . S
H360 C366 0.930 . S
H361 C370 0.930 . S
H362 C375 0.929 . S
H363 C373 0.929 . S
H364 C368 0.929 . S
H365 C374 0.929 . S
C366 H360 0.930 . S
C366 C367 1.367 . S
C366 C374 1.378 . S
C367 C366 1.367 . S
C367 C375 1.433 . S
C368 H364 0.929 . S
C368 C370 1.378 1_545 S
C368 C372 1.350 . S
C369 C372 1.463 . S
C369 C374 1.350 . S
C369 N377 1.427 . S
C370 H361 0.930 . S
C370 C368 1.378 1_565 S
C370 C371 1.367 . S
C371 C370 1.367 . S
C371 C373 1.433 1_565 S
C372 C368 1.350 . S
C372 C369 1.463 . S
C372 N376 1.427 . S
C373 H363 0.929 . S
C373 C371 1.433 1_545 S
C373 N376 1.384 . S
C374 H365 0.929 . S
C374 C366 1.378 . S
C374 C369 1.350 . S
C375 H362 0.929 . S
C375 C367 1.433 . S
C375 N377 1.384 . S
N376 C372 1.427 . S
N376 C373 1.384 . S
N377 C369 1.427 . S
N377 C375 1.384 . S
H378 C384 0.930 . S
H379 C388 0.930 . S
H380 C393 0.929 . S
H381 C391 0.929 . S
H382 C386 0.929 . S
H383 C392 0.929 . S
C384 H378 0.930 . S
C384 C385 1.367 1_655 S
C384 C392 1.378 . S
C385 C384 1.367 1_455 S
C385 C393 1.433 . S
C386 H382 0.929 . S
C386 C388 1.378 . S
C386 C390 1.350 . S
C387 C390 1.463 . S
C387 C392 1.350 . S
C387 N395 1.427 . S
C388 H379 0.930 . S
C388 C386 1.378 . S
C388 C389 1.367 . S
C389 C388 1.367 . S
C389 C391 1.433 . S
C390 C386 1.350 . S
C390 C387 1.463 . S
C390 N394 1.427 . S
C391 H381 0.929 . S
C391 C389 1.433 . S
C391 N394 1.384 . S
C392 H383 0.929 . S
C392 C384 1.378 . S
C392 C387 1.350 . S
C393 H380 0.929 . S
C393 C385 1.433 . S
C393 N395 1.384 1_455 S
N394 C390 1.427 . S
N394 C391 1.384 . S
N395 C387 1.427 . S
N395 C393 1.384 1_655 S
H396 C402 0.930 . S
H397 C406 0.930 . S
H398 C411 0.929 . S
H399 C409 0.929 . S
H400 C404 0.929 . S
H401 C410 0.929 . S
C402 H396 0.930 . S
C402 C403 1.367 . S
C402 C410 1.378 . S
C403 C402 1.367 . S
C403 C411 1.433 . S
C404 H400 0.929 . S
C404 C406 1.378 . S
C404 C408 1.350 . S
C405 C408 1.463 . S
C405 C410 1.350 . S
C405 N413 1.427 . S
C406 H397 0.930 . S
C406 C404 1.378 . S
C406 C407 1.367 . S
C407 C406 1.367 . S
C407 C409 1.433 . S
C408 C404 1.350 . S
C408 C405 1.463 . S
C408 N412 1.427 . S
C409 H399 0.929 . S
C409 C407 1.433 . S
C409 N412 1.384 . S
C410 H401 0.929 . S
C410 C402 1.378 . S
C410 C405 1.350 . S
C411 H398 0.929 . S
C411 C403 1.433 . S
C411 N413 1.384 . S
N412 C408 1.427 . S
N412 C409 1.384 . S
N413 C405 1.427 . S
N413 C411 1.384 . S
H414 C420 0.930 . S
H415 C424 0.930 . S
H416 C429 0.929 . S
H417 C427 0.929 . S
H418 C422 0.929 . S
H419 C428 0.929 . S
C420 H414 0.930 . S
C420 C421 1.367 . S
C420 C428 1.378 . S
C421 C420 1.367 . S
C421 C429 1.433 . S
C422 H418 0.929 . S
C422 C424 1.378 . S
C422 C426 1.350 . S
C423 C426 1.463 . S
C423 C428 1.350 . S
C423 N431 1.427 . S
C424 H415 0.930 . S
C424 C422 1.378 . S
C424 C425 1.367 . S
C425 C424 1.367 . S
C425 C427 1.433 . S
C426 C422 1.350 . S
C426 C423 1.463 . S
C426 N430 1.427 . S
C427 H417 0.929 . S
C427 C425 1.433 . S
C427 N430 1.384 . S
C428 H419 0.929 . S
C428 C420 1.378 . S
C428 C423 1.350 . S
C429 H416 0.929 . S
C429 C421 1.433 . S
C429 N431 1.384 . S
N430 C426 1.427 . S
N430 C427 1.384 . S
N431 C423 1.427 . S
N431 C429 1.384 . S
H432 C438 0.930 . S
H433 C442 0.930 . S
H434 C447 0.929 . S
H435 C445 0.929 . S
H436 C440 0.929 . S
H437 C446 0.929 . S
C438 H432 0.930 . S
C438 C439 1.367 . S
C438 C446 1.378 . S
C439 C438 1.367 . S
C439 C447 1.433 . S
C440 H436 0.929 . S
C440 C442 1.378 . S
C440 C444 1.350 . S
C441 C444 1.463 . S
C441 C446 1.350 . S
C441 N449 1.427 . S
C442 H433 0.930 . S
C442 C440 1.378 . S
C442 C443 1.367 . S
C443 C442 1.367 . S
C443 C445 1.433 . S
C444 C440 1.350 . S
C444 C441 1.463 . S
C444 N448 1.427 . S
C445 H435 0.929 . S
C445 C443 1.433 . S
C445 N448 1.384 . S
C446 H437 0.929 . S
C446 C438 1.378 . S
C446 C441 1.350 . S
C447 H434 0.929 . S
C447 C439 1.433 . S
C447 N449 1.384 . S
N448 C444 1.427 . S
N448 C445 1.384 . S
N449 C441 1.427 . S
N449 C447 1.384 . S
H450 C456 0.930 . S
H451 C460 0.930 . S
H452 C465 0.929 . S
H453 C463 0.929 . S
H454 C458 0.929 . S
H455 C464 0.929 . S
C456 H450 0.930 . S
C456 C457 1.367 . S
C456 C464 1.378 . S
C457 C456 1.367 . S
C457 C465 1.433 . S
C458 H454 0.929 . S
C458 C460 1.378 . S
C458 C462 1.350 . S
C459 C462 1.463 . S
C459 C464 1.350 . S
C459 N467 1.427 . S
C460 H451 0.930 . S
C460 C458 1.378 . S
C460 C461 1.367 . S
C461 C460 1.367 . S
C461 C463 1.433 . S
C462 C458 1.350 . S
C462 C459 1.463 . S
C462 N466 1.427 . S
C463 H453 0.929 . S
C463 C461 1.433 . S
C463 N466 1.384 . S
C464 H455 0.929 . S
C464 C456 1.378 . S
C464 C459 1.350 . S
C465 H452 0.929 . S
C465 C457 1.433 . S
C465 N467 1.384 . S
N466 C462 1.427 . S
N466 C463 1.384 . S
N467 C459 1.427 . S
N467 C465 1.384 . S
H468 C474 0.930 . S
H469 C478 0.930 . S
H470 C483 0.929 . S
H471 C481 0.929 . S
H472 C476 0.929 . S
H473 C482 0.929 . S
C474 H468 0.930 . S
C474 C475 1.367 . S
C474 C482 1.378 . S
C475 C474 1.367 . S
C475 C483 1.433 . S
C476 H472 0.929 . S
C476 C478 1.378 . S
C476 C480 1.350 . S
C477 C480 1.463 . S
C477 C482 1.350 . S
C477 N485 1.427 . S
C478 H469 0.930 . S
C478 C476 1.378 . S
C478 C479 1.367 . S
C479 C478 1.367 . S
C479 C481 1.433 . S
C480 C476 1.350 . S
C480 C477 1.463 . S
C480 N484 1.427 . S
C481 H471 0.929 . S
C481 C479 1.433 . S
C481 N484 1.384 . S
C482 H473 0.929 . S
C482 C474 1.378 . S
C482 C477 1.350 . S
C483 H470 0.929 . S
C483 C475 1.433 . S
C483 N485 1.384 . S
N484 C480 1.427 . S
N484 C481 1.384 . S
N485 C477 1.427 . S
N485 C483 1.384 . S
H486 C492 0.930 . S
H487 C496 0.930 . S
H488 C501 0.929 . S
H489 C499 0.929 . S
H490 C494 0.929 . S
H491 C500 0.929 . S
C492 H486 0.930 . S
C492 C493 1.367 . S
C492 C500 1.378 . S
C493 C492 1.367 . S
C493 C501 1.433 . S
C494 H490 0.929 . S
C494 C496 1.378 . S
C494 C498 1.350 . S
C495 C498 1.463 . S
C495 C500 1.350 . S
C495 N503 1.427 . S
C496 H487 0.930 . S
C496 C494 1.378 . S
C496 C497 1.367 . S
C497 C496 1.367 . S
C497 C499 1.433 . S
C498 C494 1.350 . S
C498 C495 1.463 . S
C498 N502 1.427 . S
C499 H489 0.929 . S
C499 C497 1.433 . S
C499 N502 1.384 . S
C500 H491 0.929 . S
C500 C492 1.378 . S
C500 C495 1.350 . S
C501 H488 0.929 . S
C501 C493 1.433 . S
C501 N503 1.384 . S
N502 C498 1.427 . S
N502 C499 1.384 . S
N503 C495 1.427 . S
N503 C501 1.384 . S
H504 C510 0.930 . S
H505 C514 0.930 . S
H506 C519 0.929 . S
H507 C517 0.929 . S
H508 C512 0.929 . S
H509 C518 0.929 . S
C510 H504 0.930 . S
C510 C511 1.367 . S
C510 C518 1.378 . S
C511 C510 1.367 . S
C511 C519 1.433 . S
C512 H508 0.929 . S
C512 C514 1.378 . S
C512 C516 1.350 . S
C513 C516 1.463 . S
C513 C518 1.350 . S
C513 N521 1.427 . S
C514 H505 0.930 . S
C514 C512 1.378 . S
C514 C515 1.367 . S
C515 C514 1.367 . S
C515 C517 1.433 . S
C516 C512 1.350 . S
C516 C513 1.463 . S
C516 N520 1.427 . S
C517 H507 0.929 . S
C517 C515 1.433 . S
C517 N520 1.384 . S
C518 H509 0.929 . S
C518 C510 1.378 . S
C518 C513 1.350 . S
C519 H506 0.929 . S
C519 C511 1.433 . S
C519 N521 1.384 . S
N520 C516 1.427 . S
N520 C517 1.384 . S
N521 C513 1.427 . S
N521 C519 1.384 . S
H522 C528 0.930 . S
H523 C532 0.930 . S
H524 C537 0.929 . S
H525 C535 0.929 . S
H526 C530 0.929 . S
H527 C536 0.929 . S
C528 H522 0.930 . S
C528 C529 1.367 . S
C528 C536 1.378 . S
C529 C528 1.367 . S
C529 C537 1.433 1_556 S
C530 H526 0.929 . S
C530 C532 1.378 . S
C530 C534 1.350 1_554 S
C531 C534 1.463 . S
C531 C536 1.350 . S
C531 N539 1.427 1_556 S
C532 H523 0.930 . S
C532 C530 1.378 . S
C532 C533 1.367 1_554 S
C533 C532 1.367 1_556 S
C533 C535 1.433 . S
C534 C530 1.350 1_556 S
C534 C531 1.463 . S
C534 N538 1.427 . S
C535 H525 0.929 . S
C535 C533 1.433 . S
C535 N538 1.384 . S
C536 H527 0.929 . S
C536 C528 1.378 . S
C536 C531 1.350 . S
C537 H524 0.929 . S
C537 C529 1.433 1_554 S
C537 N539 1.384 . S
N538 C534 1.427 . S
N538 C535 1.384 . S
N539 C531 1.427 1_554 S
N539 C537 1.384 . S
H540 C546 0.930 . S
H541 C550 0.930 . S
H542 C555 0.929 . S
H543 C553 0.929 . S
H544 C548 0.929 . S
H545 C554 0.929 . S
C546 H540 0.930 . S
C546 C547 1.367 1_554 S
C546 C554 1.378 . S
C547 C546 1.367 1_556 S
C547 C555 1.433 . S
C548 H544 0.929 . S
C548 C550 1.378 . S
C548 C552 1.350 . S
C549 C552 1.463 . S
C549 C554 1.350 1_556 S
C549 N557 1.427 . S
C550 H541 0.930 . S
C550 C548 1.378 . S
C550 C551 1.367 . S
C551 C550 1.367 . S
C551 C553 1.433 1_556 S
C552 C548 1.350 . S
C552 C549 1.463 . S
C552 N556 1.427 1_556 S
C553 H543 0.929 . S
C553 C551 1.433 1_554 S
C553 N556 1.384 . S
C554 H545 0.929 . S
C554 C546 1.378 . S
C554 C549 1.350 1_554 S
C555 H542 0.929 . S
C555 C547 1.433 . S
C555 N557 1.384 . S
N556 C552 1.427 1_554 S
N556 C553 1.384 . S
N557 C549 1.427 . S
N557 C555 1.384 . S
H558 C564 0.930 . S
H559 C568 0.930 . S
H560 C573 0.929 . S
H561 C571 0.929 . S
H562 C566 0.929 . S
H563 C572 0.929 . S
C564 H558 0.930 . S
C564 C565 1.367 . S
C564 C572 1.378 . S
C565 C564 1.367 . S
C565 C573 1.433 1_556 S
C566 H562 0.929 . S
C566 C568 1.378 . S
C566 C570 1.350 1_554 S
C567 C570 1.463 . S
C567 C572 1.350 . S
C567 N575 1.427 1_556 S
C568 H559 0.930 . S
C568 C566 1.378 . S
C568 C569 1.367 1_554 S
C569 C568 1.367 1_556 S
C569 C571 1.433 . S
C570 C566 1.350 1_556 S
C570 C567 1.463 . S
C570 N574 1.427 . S
C571 H561 0.929 . S
C571 C569 1.433 . S
C571 N574 1.384 . S
C572 H563 0.929 . S
C572 C564 1.378 . S
C572 C567 1.350 . S
C573 H560 0.929 . S
C573 C565 1.433 1_554 S
C573 N575 1.384 . S
N574 C570 1.427 . S
N574 C571 1.384 . S
N575 C567 1.427 1_554 S
N575 C573 1.384 . S
H576 C582 0.930 . S
H577 C586 0.930 . S
H578 C591 0.929 . S
H579 C589 0.929 . S
H580 C584 0.929 . S
H581 C590 0.929 . S
C582 H576 0.930 . S
C582 C583 1.367 . S
C582 C590 1.378 . S
C583 C582 1.367 . S
C583 C591 1.433 . S
C584 H580 0.929 . S
C584 C586 1.378 . S
C584 C588 1.350 . S
C585 C588 1.463 . S
C585 C590 1.350 . S
C585 N593 1.427 . S
C586 H577 0.930 . S
C586 C584 1.378 . S
C586 C587 1.367 . S
C587 C586 1.367 . S
C587 C589 1.433 . S
C588 C584 1.350 . S
C588 C585 1.463 . S
C588 N592 1.427 . S
C589 H579 0.929 . S
C589 C587 1.433 . S
C589 N592 1.384 . S
C590 H581 0.929 . S
C590 C582 1.378 . S
C590 C585 1.350 . S
C591 H578 0.929 . S
C591 C583 1.433 . S
C591 N593 1.384 . S
N592 C588 1.427 . S
N592 C589 1.384 . S
N593 C585 1.427 . S
N593 C591 1.384 . S
H594 C600 0.930 . S
H595 C604 0.930 . S
H596 C609 0.929 . S
H597 C607 0.929 . S
H598 C602 0.929 . S
H599 C608 0.929 . S
C600 H594 0.930 . S
C600 C601 1.367 . S
C600 C608 1.378 . S
C601 C600 1.367 . S
C601 C609 1.433 . S
C602 H598 0.929 . S
C602 C604 1.378 . S
C602 C606 1.350 . S
C603 C606 1.463 . S
C603 C608 1.350 . S
C603 N611 1.427 . S
C604 H595 0.930 . S
C604 C602 1.378 . S
C604 C605 1.367 . S
C605 C604 1.367 . S
C605 C607 1.433 . S
C606 C602 1.350 . S
C606 C603 1.463 . S
C606 N610 1.427 . S
C607 H597 0.929 . S
C607 C605 1.433 . S
C607 N610 1.384 . S
C608 H599 0.929 . S
C608 C600 1.378 . S
C608 C603 1.350 . S
C609 H596 0.929 . S
C609 C601 1.433 . S
C609 N611 1.384 . S
N610 C606 1.427 . S
N610 C607 1.384 . S
N611 C603 1.427 . S
N611 C609 1.384 . S
H612 C618 0.930 . S
H613 C622 0.930 . S
H614 C627 0.929 . S
H615 C625 0.929 . S
H616 C620 0.929 . S
H617 C626 0.929 . S
C618 H612 0.930 . S
C618 C619 1.367 . S
C618 C626 1.378 . S
C619 C618 1.367 . S
C619 C627 1.433 . S
C620 H616 0.929 . S
C620 C622 1.378 . S
C620 C624 1.350 . S
C621 C624 1.463 . S
C621 C626 1.350 . S
C621 N629 1.427 . S
C622 H613 0.930 . S
C622 C620 1.378 . S
C622 C623 1.367 . S
C623 C622 1.367 . S
C623 C625 1.433 . S
C624 C620 1.350 . S
C624 C621 1.463 . S
C624 N628 1.427 . S
C625 H615 0.929 . S
C625 C623 1.433 . S
C625 N628 1.384 . S
C626 H617 0.929 . S
C626 C618 1.378 . S
C626 C621 1.350 . S
C627 H614 0.929 . S
C627 C619 1.433 . S
C627 N629 1.384 . S
N628 C624 1.427 . S
N628 C625 1.384 . S
N629 C621 1.427 . S
N629 C627 1.384 . S
H630 C636 0.930 . S
H631 C640 0.930 . S
H632 C645 0.929 . S
H633 C643 0.929 . S
H634 C638 0.929 . S
H635 C644 0.929 . S
C636 H630 0.930 . S
C636 C637 1.367 . S
C636 C644 1.378 1_455 S
C637 C636 1.367 . S
C637 C645 1.433 1_455 S
C638 H634 0.929 . S
C638 C640 1.378 . S
C638 C642 1.350 . S
C639 C642 1.463 . S
C639 C644 1.350 . S
C639 N647 1.427 . S
C640 H631 0.930 . S
C640 C638 1.378 . S
C640 C641 1.367 . S
C641 C640 1.367 . S
C641 C643 1.433 . S
C642 C638 1.350 . S
C642 C639 1.463 . S
C642 N646 1.427 . S
C643 H633 0.929 . S
C643 C641 1.433 . S
C643 N646 1.384 . S
C644 H635 0.929 . S
C644 C636 1.378 1_655 S
C644 C639 1.350 . S
C645 H632 0.929 . S
C645 C637 1.433 1_655 S
C645 N647 1.384 . S
N646 C642 1.427 . S
N646 C643 1.384 . S
N647 C639 1.427 . S
N647 C645 1.384 . S
H648 C654 0.930 . S
H649 C658 0.930 . S
H650 C663 0.929 . S
H651 C661 0.929 . S
H652 C656 0.929 . S
H653 C662 0.929 . S
C654 H648 0.930 . S
C654 C655 1.367 1_545 S
C654 C662 1.378 . S
C655 C654 1.367 1_565 S
C655 C663 1.433 . S
C656 H652 0.929 . S
C656 C658 1.378 . S
C656 C660 1.350 . S
C657 C660 1.463 . S
C657 C662 1.350 . S
C657 N665 1.427 . S
C658 H649 0.930 . S
C658 C656 1.378 . S
C658 C659 1.367 . S
C659 C658 1.367 . S
C659 C661 1.433 . S
C660 C656 1.350 . S
C660 C657 1.463 . S
C660 N664 1.427 . S
C661 H651 0.929 . S
C661 C659 1.433 . S
C661 N664 1.384 . S
C662 H653 0.929 . S
C662 C654 1.378 . S
C662 C657 1.350 . S
C663 H650 0.929 . S
C663 C655 1.433 . S
C663 N665 1.384 1_565 S
N664 C660 1.427 . S
N664 C661 1.384 . S
N665 C657 1.427 . S
N665 C663 1.384 1_545 S
H666 C672 0.930 . S
H667 C676 0.930 . S
H668 C681 0.929 . S
H669 C679 0.929 . S
H670 C674 0.929 . S
H671 C680 0.929 . S
C672 H666 0.930 . S
C672 C673 1.367 . S
C672 C680 1.378 1_565 S
C673 C672 1.367 . S
C673 C681 1.433 1_565 S
C674 H670 0.929 . S
C674 C676 1.378 . S
C674 C678 1.350 . S
C675 C678 1.463 . S
C675 C680 1.350 . S
C675 N683 1.427 . S
C676 H667 0.930 . S
C676 C674 1.378 . S
C676 C677 1.367 1_655 S
C677 C676 1.367 1_455 S
C677 C679 1.433 . S
C678 C674 1.350 . S
C678 C675 1.463 . S
C678 N682 1.427 . S
C679 H669 0.929 . S
C679 C677 1.433 . S
C679 N682 1.384 1_455 S
C680 H671 0.929 . S
C680 C672 1.378 1_545 S
C680 C675 1.350 . S
C681 H668 0.929 . S
C681 C673 1.433 1_545 S
C681 N683 1.384 . S
N682 C678 1.427 . S
N682 C679 1.384 1_655 S
N683 C675 1.427 . S
N683 C681 1.384 . S
C205 C18 1.268 . S
C209 C164 1.237 . S
C223 C30 1.265 . S
C227 C194 1.244 . S
C241 C142 1.232 . S
C245 C62 1.269 . S
C259 C169 1.352 . S
C263 C51 1.348 . S
C277 C183 1.354 . S
C281 C7 1.347 . S
C295 C147 1.355 . S
C299 C43 1.349 . S
C313 C40 1.231 . S
C317 C84 1.269 . S
C331 C106 1.269 . S
C335 C54 1.231 . S
C349 C10 1.231 . S
C353 C120 1.269 . S
C367 C29 1.351 . S
C371 C125 1.349 . S
C385 C73 1.354 . S
C389 C59 1.351 . S
C403 C15 1.354 . S
C407 C95 1.346 . S
C421 C150 1.266 . S
C425 C98 1.240 . S
C439 C118 1.231 . S
C443 C172 1.269 . S
C457 C184 1.269 . S
C461 C76 1.231 . S
C475 C197 1.346 . S
C479 C103 1.355 . S
C493 C131 1.356 . S
C497 C139 1.347 . S
C511 C81 1.356 . S
C515 C161 1.348 . S
C529 C8 0.910 . S
C533 C37 0.886 . S
C547 C65 0.900 . S
C551 C32 0.902 . S
C565 C52 0.902 . S
C569 C21 0.900 . S
C583 C109 0.887 . S
C587 C74 0.908 . S
C601 C117 0.901 . S
C605 C96 0.899 . S
C619 C128 0.902 . S
C623 C87 0.900 . S
C637 C175 0.886 . S
C641 C140 0.910 . S
C655 C162 0.905 . S
C659 C191 0.891 . S
C673 C153 0.886 . S
C677 C186 0.909 . S
