# Generated by pormake.
# Topology fni, (5)-cn, num edge types: 1
# Building blocks:
#     Node 0, Type 0, BuildingBlock: BEQFEK_clean_sbu_0, # of connection points: 5
#     Node 1, Type 0, BuildingBlock: BEQFEK_clean_sbu_0, # of connection points: 5
#     Node 2, Type 0, BuildingBlock: BEQFEK_clean_sbu_0, # of connection points: 5
#     Node 3, Type 0, BuildingBlock: BEQFEK_clean_sbu_0, # of connection points: 5
#     Node 4, Type 0, BuildingBlock: BEQFEK_clean_sbu_0, # of connection points: 5
#     Node 5, Type 0, BuildingBlock: BEQFEK_clean_sbu_0, # of connection points: 5
#     Node 6, Type 0, BuildingBlock: BEQFEK_clean_sbu_0, # of connection points: 5
#     Node 7, Type 0, BuildingBlock: BEQFEK_clean_sbu_0, # of connection points: 5
#     Edge 8, Type (0, 0), BuildingBlock: AJUNOK_clean_linker_0, # of connection points: 2
#     Edge 9, Type (0, 0), BuildingBlock: AJUNOK_clean_linker_0, # of connection points: 2
#     Edge 10, Type (0, 0), BuildingBlock: AJUNOK_clean_linker_0, # of connection points: 2
#     Edge 11, Type (0, 0), BuildingBlock: AJUNOK_clean_linker_0, # of connection points: 2
#     Edge 12, Type (0, 0), BuildingBlock: AJUNOK_clean_linker_0, # of connection points: 2
#     Edge 13, Type (0, 0), BuildingBlock: AJUNOK_clean_linker_0, # of connection points: 2
#     Edge 14, Type (0, 0), BuildingBlock: AJUNOK_clean_linker_0, # of connection points: 2
#     Edge 15, Type (0, 0), BuildingBlock: AJUNOK_clean_linker_0, # of connection points: 2
#     Edge 16, Type (0, 0), BuildingBlock: AJUNOK_clean_linker_0, # of connection points: 2
#     Edge 17, Type (0, 0), BuildingBlock: AJUNOK_clean_linker_0, # of connection points: 2
#     Edge 18, Type (0, 0), BuildingBlock: AJUNOK_clean_linker_0, # of connection points: 2
#     Edge 19, Type (0, 0), BuildingBlock: AJUNOK_clean_linker_0, # of connection points: 2
#     Edge 20, Type (0, 0), BuildingBlock: AJUNOK_clean_linker_0, # of connection points: 2
#     Edge 21, Type (0, 0), BuildingBlock: AJUNOK_clean_linker_0, # of connection points: 2
#     Edge 22, Type (0, 0), BuildingBlock: AJUNOK_clean_linker_0, # of connection points: 2
#     Edge 23, Type (0, 0), BuildingBlock: AJUNOK_clean_linker_0, # of connection points: 2
#     Edge 24, Type (0, 0), BuildingBlock: AJUNOK_clean_linker_0, # of connection points: 2
#     Edge 25, Type (0, 0), BuildingBlock: AJUNOK_clean_linker_0, # of connection points: 2
#     Edge 26, Type (0, 0), BuildingBlock: AJUNOK_clean_linker_0, # of connection points: 2
#     Edge 27, Type (0, 0), BuildingBlock: AJUNOK_clean_linker_0, # of connection points: 2
# Relax obj value: 0.171
# Max RMSD: 0.222
# Mean RMSD: 0.192
data_MOF--net-fni--node1-BEQFEK_clean_sbu_0--edge1-AJUNOK_clean_linker_0
_symmetry_space_group_name_H-M    P1
_symmetry_Int_Tables_number       1
_symmetry_cell_setting            triclinic
loop_
_symmetry_equiv_pos_as_xyz
'x, y, z'
_cell_length_a     38.202562
_cell_length_b     40.168189
_cell_length_c     15.066406
_cell_angle_alpha  91.32626
_cell_angle_beta   90.648579
_cell_angle_gamma 89.98559
loop_
_atom_site_label
_atom_site_type_symbol
_atom_site_fract_x
_atom_site_fract_y
_atom_site_fract_z
_atom_type_partial_charge
Co0 Co 0.37084 0.40023 0.11878 0.0
Co1 Co 0.39225 0.37702 0.92684 0.0
C2 C 0.31737 0.39687 0.97701 0.0
O3 O 0.32417 0.40372 0.05855 0.0
O4 O 0.34091 0.38628 0.9242 0.0
C5 C 0.35614 0.39429 0.29888 0.0
O6 O 0.33453 0.37147 0.26685 0.0
C7 C 0.39067 0.38592 0.73637 0.0
C8 C 0.42992 0.35039 0.68515 0.0
C9 C 0.40495 0.37331 0.6589 0.0
N10 N 0.40587 0.37104 0.8057 0.0
N11 N 0.42961 0.34993 0.77476 0.0
C12 C 0.36334 0.4123 0.74427 0.0
H13 H 0.36668 0.42651 0.80783 0.0
H14 H 0.36462 0.42956 0.6879 0.0
H15 H 0.33731 0.40009 0.7427 0.0
C16 C 0.42393 0.45169 0.08432 0.0
N17 N 0.40554 0.42443 0.05926 0.0
N18 N 0.41587 0.4141 0.98028 0.0
C19 C 0.44149 0.43441 0.95281 0.0
C20 C 0.44732 0.45896 0.01777 0.0
C21 C 0.42002 0.46938 0.17216 0.0
H22 H 0.39199 0.47517 0.18333 0.0
H23 H 0.4357 0.49259 0.17661 0.0
H24 H 0.42885 0.45266 0.22549 0.0
O25 O 0.38448 0.35321 0.12541 0.0
O26 O 0.40165 0.33514 0.99319 0.0
H27 H 0.46853 0.40522 0.8548 0.0
H28 H 0.48099 0.44879 0.85889 0.0
C29 C 0.4589 0.43109 0.86462 0.0
H30 H 0.43943 0.43603 0.81138 0.0
H31 H 0.44503 0.33472 0.81458 0.0
O32 O 0.37135 0.41347 0.24566 0.0
C33 C 0.39653 0.33023 0.07537 0.0
Co34 Co 0.61651 0.87887 0.35675 0.0
Co35 Co 0.6407 0.89918 0.168 0.0
C36 C 0.61521 0.82919 0.21095 0.0
O37 O 0.60694 0.83583 0.29126 0.0
O38 O 0.62886 0.85128 0.1632 0.0
C39 C 0.58618 0.87151 0.54543 0.0
O40 O 0.55345 0.86521 0.5235 0.0
C41 C 0.62121 0.89992 0.98238 0.0
C42 C 0.66673 0.92289 0.91896 0.0
C43 C 0.63489 0.90743 0.90058 0.0
N44 N 0.64387 0.9103 0.04612 0.0
N45 N 0.67086 0.92444 0.00796 0.0
C46 C 0.58925 0.87963 0.9998 0.0
H47 H 0.59488 0.85303 0.9843 0.0
H48 H 0.58153 0.88236 0.07035 0.0
H49 H 0.56709 0.88736 0.95699 0.0
C50 C 0.56813 0.93653 0.32951 0.0
N51 N 0.59361 0.91546 0.30285 0.0
N52 N 0.60467 0.92446 0.22443 0.0
C53 C 0.58672 0.95162 0.19913 0.0
C54 C 0.5628 0.96 0.26455 0.0
C55 C 0.55047 0.93531 0.41738 0.0
H56 H 0.57047 0.93342 0.47087 0.0
H57 H 0.53355 0.91291 0.41836 0.0
H58 H 0.53417 0.95775 0.43016 0.0
O59 O 0.66724 0.8879 0.36055 0.0
O60 O 0.68652 0.90522 0.23147 0.0
H61 H 0.62015 0.9713 0.09977 0.0
H62 H 0.57905 0.99335 0.11212 0.0
C63 C 0.59178 0.96856 0.11276 0.0
H64 H 0.5801 0.95295 0.05848 0.0
H65 H 0.6928 0.93367 0.04231 0.0
O66 O 0.6087 0.87669 0.48608 0.0
C67 C 0.69182 0.89856 0.31285 0.0
Co68 Co 0.11737 0.12951 0.43095 0.0
Co69 Co 0.14486 0.11251 0.62103 0.0
C70 C 0.11588 0.18093 0.57319 0.0
O71 O 0.10765 0.17296 0.49311 0.0
O72 O 0.13045 0.15995 0.62368 0.0
C73 C 0.1186 0.14693 0.25149 0.0
O74 O 0.13912 0.17045 0.28466 0.0
C75 C 0.13116 0.11315 0.80947 0.0
C76 C 0.1771 0.08804 0.86738 0.0
C77 C 0.14652 0.10474 0.88922 0.0
N78 N 0.15164 0.1022 0.74299 0.0
N79 N 0.17897 0.08689 0.77793 0.0
C80 C 0.09699 0.13072 0.7969 0.0
H81 H 0.0871 0.12716 0.7278 0.0
H82 H 0.07747 0.12124 0.84415 0.0
H83 H 0.1004 0.15767 0.81151 0.0
C84 C 0.07087 0.07247 0.46627 0.0
N85 N 0.09679 0.09359 0.49048 0.0
N86 N 0.10896 0.08555 0.56915 0.0
C87 C 0.09135 0.05875 0.59724 0.0
C88 C 0.06646 0.04972 0.53319 0.0
C89 C 0.05195 0.07339 0.37884 0.0
H90 H 0.07097 0.06908 0.32469 0.0
H91 H 0.04041 0.09848 0.37018 0.0
H92 H 0.03113 0.05419 0.37322 0.0
O93 O 0.16845 0.12287 0.42274 0.0
O94 O 0.18945 0.10791 0.55338 0.0
H95 H 0.12592 0.04023 0.69763 0.0
H96 H 0.08451 0.01834 0.68843 0.0
C97 C 0.09741 0.04299 0.68512 0.0
H98 H 0.08659 0.05941 0.73822 0.0
H99 H 0.19946 0.0767 0.74098 0.0
O100 O 0.10279 0.12805 0.3044 0.0
C101 C 0.194 0.11407 0.4716 0.0
Co102 Co 0.87145 0.61556 0.66811 0.0
Co103 Co 0.89361 0.63621 0.86109 0.0
C104 C 0.81861 0.61713 0.8076 0.0
O105 O 0.82526 0.60953 0.72683 0.0
O106 O 0.84261 0.62788 0.85984 0.0
C107 C 0.86178 0.58751 0.47601 0.0
O108 O 0.85065 0.55737 0.49238 0.0
C109 C 0.8946 0.61793 0.04575 0.0
C110 C 0.92161 0.66034 0.11219 0.0
C111 C 0.90393 0.63095 0.12856 0.0
N112 N 0.9059 0.63874 0.98357 0.0
N113 N 0.9225 0.66382 0.02354 0.0
C114 C 0.87284 0.58755 0.02606 0.0
H115 H 0.86779 0.58422 0.95393 0.0
H116 H 0.88687 0.56511 0.0487 0.0
H117 H 0.84781 0.58926 0.06257 0.0
C118 C 0.92772 0.5649 0.69715 0.0
N119 N 0.908 0.59109 0.72356 0.0
N120 N 0.91815 0.60076 0.80388 0.0
C121 C 0.94485 0.5813 0.83067 0.0
C122 C 0.95166 0.55784 0.76407 0.0
C123 C 0.92431 0.54756 0.60865 0.0
H124 H 0.92545 0.56615 0.55553 0.0
H125 H 0.89855 0.53489 0.60426 0.0
H126 H 0.94538 0.52891 0.59812 0.0
O127 O 0.88339 0.66345 0.66912 0.0
O128 O 0.90189 0.67957 0.80339 0.0
H129 H 0.96745 0.61066 0.93734 0.0
H130 H 0.98708 0.56989 0.92272 0.0
C131 C 0.96227 0.58412 0.92005 0.0
H132 H 0.94459 0.57393 0.97042 0.0
H133 H 0.93301 0.68403 0.99063 0.0
O134 O 0.86942 0.60773 0.53908 0.0
C135 C 0.8954 0.68569 0.72228 0.0
Co136 Co 0.40535 0.1475 0.36217 0.0
Co137 Co 0.38253 0.12612 0.16932 0.0
C138 C 0.40239 0.19762 0.22353 0.0
O139 O 0.41076 0.19141 0.30368 0.0
O140 O 0.39096 0.17468 0.17142 0.0
C141 C 0.43556 0.15637 0.55356 0.0
O142 O 0.46791 0.16438 0.5348 0.0
C143 C 0.40221 0.12522 0.98431 0.0
C144 C 0.35593 0.10337 0.91624 0.0
C145 C 0.38794 0.11843 0.90099 0.0
N146 N 0.37966 0.11494 0.04589 0.0
N147 N 0.35224 0.10143 0.00483 0.0
C148 C 0.43512 0.1442 0.00526 0.0
H149 H 0.43874 0.14804 0.07784 0.0
H150 H 0.45796 0.1301 0.97966 0.0
H151 H 0.43447 0.16853 0.97181 0.0
C152 C 0.45709 0.09246 0.33026 0.0
N153 N 0.43093 0.1127 0.30413 0.0
N154 N 0.42024 0.10309 0.2241 0.0
C155 C 0.43898 0.07632 0.19734 0.0
C156 C 0.46306 0.06884 0.26349 0.0
C157 C 0.47432 0.09415 0.41979 0.0
H158 H 0.48965 0.11753 0.42598 0.0
H159 H 0.49209 0.0727 0.43021 0.0
H160 H 0.45403 0.09449 0.47182 0.0
O161 O 0.35555 0.13465 0.36279 0.0
O162 O 0.33744 0.11679 0.22994 0.0
H163 H 0.40531 0.05465 0.09693 0.0
H164 H 0.44712 0.03373 0.10875 0.0
C165 C 0.43369 0.0582 0.11028 0.0
H166 H 0.44456 0.07339 0.05666 0.0
H167 H 0.33023 0.09253 0.03714 0.0
O168 O 0.41344 0.1501 0.49197 0.0
C169 C 0.33179 0.12251 0.31212 0.0
Co170 Co 0.87968 0.89033 0.62625 0.0
Co171 Co 0.90373 0.86709 0.43781 0.0
C172 C 0.82951 0.89293 0.48078 0.0
O173 O 0.83553 0.90129 0.5618 0.0
O174 O 0.8532 0.87919 0.43379 0.0
C175 C 0.8726 0.9167 0.821 0.0
O176 O 0.86181 0.94714 0.8063 0.0
C177 C 0.90718 0.886 0.25348 0.0
C178 C 0.93255 0.84264 0.18895 0.0
C179 C 0.9163 0.87275 0.17104 0.0
N180 N 0.91694 0.8645 0.31633 0.0
N181 N 0.93268 0.83888 0.27752 0.0
C182 C 0.88736 0.91752 0.2723 0.0
H183 H 0.882 0.92079 0.34395 0.0
H184 H 0.90321 0.93918 0.25274 0.0
H185 H 0.86256 0.91764 0.23319 0.0
C186 C 0.93952 0.93707 0.60473 0.0
N187 N 0.91911 0.9115 0.57649 0.0
N188 N 0.93015 0.90071 0.49857 0.0
C189 C 0.95826 0.91874 0.47543 0.0
C190 C 0.96489 0.94258 0.54157 0.0
C191 C 0.93486 0.95574 0.69075 0.0
H192 H 0.93608 0.93803 0.74604 0.0
H193 H 0.90871 0.96772 0.69091 0.0
H194 H 0.95536 0.97502 0.70166 0.0
O195 O 0.88536 0.84156 0.62145 0.0
O196 O 0.90846 0.82299 0.49586 0.0
H197 H 0.97938 0.88771 0.37132 0.0
H198 H 1.00349 0.9259 0.39268 0.0
C199 C 0.97705 0.91454 0.38929 0.0
H200 H 0.96184 0.92695 0.33641 0.0
H201 H 0.94199 0.81816 0.311 0.0
O202 O 0.879 0.89684 0.75654 0.0
C203 C 0.89684 0.81772 0.57324 0.0
Co204 Co 0.10385 0.36671 0.86184 0.0
Co205 Co 0.12716 0.38694 0.6721 0.0
C206 C 0.10478 0.31606 0.71892 0.0
O207 O 0.09701 0.32276 0.79952 0.0
O208 O 0.11674 0.33836 0.66889 0.0
C209 C 0.07255 0.36015 0.04873 0.0
O210 O 0.04063 0.35168 0.02418 0.0
C211 C 0.10577 0.39087 0.4869 0.0
C212 C 0.15353 0.4088 0.42239 0.0
C213 C 0.11983 0.39736 0.40461 0.0
N214 N 0.12997 0.39817 0.55003 0.0
N215 N 0.1583 0.40938 0.51115 0.0
C216 C 0.0711 0.37517 0.50513 0.0
H217 H 0.07051 0.36513 0.57289 0.0
H218 H 0.05018 0.39417 0.50108 0.0
H219 H 0.06507 0.35539 0.45467 0.0
C220 C 0.05444 0.42383 0.83275 0.0
N221 N 0.0797 0.40248 0.80586 0.0
N222 N 0.09102 0.41175 0.72793 0.0
C223 C 0.07399 0.43958 0.7039 0.0
C224 C 0.05004 0.44794 0.76908 0.0
C225 C 0.03655 0.42261 0.9203 0.0
H226 H 0.02077 0.39951 0.92245 0.0
H227 H 0.01912 0.44439 0.93125 0.0
H228 H 0.05645 0.42212 0.97435 0.0
O229 O 0.15439 0.37659 0.86518 0.0
O230 O 0.17266 0.3949 0.73622 0.0
H231 H 0.07127 0.48414 0.6252 0.0
H232 H 0.06776 0.44568 0.56411 0.0
C233 C 0.08117 0.45824 0.62107 0.0
H234 H 0.10969 0.45851 0.60821 0.0
H235 H 0.18146 0.41576 0.54477 0.0
O236 O 0.09574 0.36565 0.99123 0.0
C237 C 0.17858 0.38788 0.81718 0.0
Co238 Co 0.60441 0.64313 0.91831 0.0
Co239 Co 0.63001 0.62527 0.10946 0.0
C240 C 0.60636 0.69529 0.05878 0.0
O241 O 0.5993 0.68777 0.97779 0.0
O242 O 0.61836 0.6738 0.11206 0.0
C243 C 0.60947 0.65761 0.73936 0.0
O244 O 0.63202 0.67947 0.77199 0.0
C245 C 0.62105 0.62681 0.30032 0.0
C246 C 0.66 0.59092 0.3491 0.0
C247 C 0.6349 0.61368 0.37687 0.0
N248 N 0.63728 0.61302 0.23006 0.0
N249 N 0.66047 0.59133 0.25951 0.0
C250 C 0.59212 0.65161 0.29406 0.0
H251 H 0.57754 0.64809 0.23042 0.0
H252 H 0.57387 0.64936 0.35045 0.0
H253 H 0.60378 0.67687 0.29709 0.0
C254 C 0.55366 0.58964 0.95442 0.0
N255 N 0.58062 0.60945 0.97924 0.0
N256 N 0.59211 0.60076 0.05803 0.0
C257 C 0.57295 0.57486 0.08562 0.0
C258 C 0.54789 0.56703 0.02093 0.0
C259 C 0.53557 0.59104 0.86597 0.0
H260 H 0.52754 0.61705 0.85313 0.0
H261 H 0.5124 0.57443 0.86185 0.0
H262 H 0.5542 0.58326 0.81357 0.0
O263 O 0.65428 0.6318 0.90925 0.0
O264 O 0.6741 0.61744 0.04135 0.0
H265 H 0.60592 0.55041 0.17945 0.0
H266 H 0.56074 0.53662 0.17972 0.0
C267 C 0.57823 0.55841 0.17283 0.0
H268 H 0.57282 0.57665 0.22732 0.0
H269 H 0.677 0.57727 0.21868 0.0
O270 O 0.59028 0.64179 0.79221 0.0
C271 C 0.67893 0.62167 0.95876 0.0
C272 C 0.53307 0.50646 0.01985 0.0
C273 C 0.52192 0.53981 0.02067 0.0
C274 C 0.50873 0.48028 0.01758 0.0
C275 C 0.47258 0.48676 0.01675 0.0
H276 H 0.56076 0.50064 0.02039 0.0
H277 H 0.51817 0.45485 0.01737 0.0
S278 S 0.43022 0.56971 0.01837 0.0
N279 N 0.4726 0.57793 0.02071 0.0
N280 N 0.42681 0.5287 0.01617 0.0
C281 C 0.46117 0.51997 0.0175 0.0
C282 C 0.48589 0.54655 0.01949 0.0
C283 C 0.52425 0.04707 0.26433 0.0
C284 C 0.48808 0.04083 0.26484 0.0
C285 C 0.54841 0.02073 0.26391 0.0
C286 C 0.53705 0.98746 0.26473 0.0
H287 H 0.53386 0.07243 0.26348 0.0
H288 H 0.57614 0.02638 0.26334 0.0
S289 S 0.44515 0.95825 0.26964 0.0
N290 N 0.44204 0.99927 0.26883 0.0
N291 N 0.48746 0.94973 0.26768 0.0
C292 C 0.50098 0.981 0.26655 0.0
C293 C 0.47644 0.00774 0.26662 0.0
C294 C 0.0266 0.96335 0.54095 0.0
C295 C 0.99051 0.9701 0.54011 0.0
C296 C 0.05118 0.9893 0.53935 0.0
C297 C 0.04032 0.0227 0.53658 0.0
H298 H 0.03583 0.93787 0.5431 0.0
H299 H 0.07881 0.98324 0.53955 0.0
S300 S 0.94886 0.05332 0.53352 0.0
N301 N 0.94511 0.01237 0.53597 0.0
N302 N 0.99131 0.06117 0.53397 0.0
C303 C 1.00434 0.02971 0.53594 0.0
C304 C 0.9794 1.00337 0.53761 0.0
C305 C 0.98926 0.4705 0.76431 0.0
C306 C 0.02546 0.47633 0.77047 0.0
C307 C 0.96548 0.4971 0.7618 0.0
C308 C 0.97724 0.53026 0.76602 0.0
H309 H 0.97934 0.44524 0.76039 0.0
H310 H 0.93772 0.49174 0.75684 0.0
S311 S 0.06939 0.55851 0.78397 0.0
N312 N 0.07195 0.51744 0.78295 0.0
N313 N 0.02728 0.56748 0.77602 0.0
C314 C 0.01335 0.53635 0.77261 0.0
C315 C 0.0375 0.50933 0.77551 0.0
C316 C 0.3454 0.38291 0.4582 0.0
C317 C 0.36869 0.39209 0.3916 0.0
C318 C 0.35735 0.37727 0.54484 0.0
C319 C 0.39311 0.37993 0.56736 0.0
H320 H 0.31779 0.37977 0.44302 0.0
H321 H 0.33856 0.36997 0.59402 0.0
S322 S 0.46502 0.40152 0.4165 0.0
N323 N 0.42938 0.40276 0.35358 0.0
N324 N 0.45174 0.39152 0.51639 0.0
C325 C 0.41672 0.3887 0.50141 0.0
C326 C 0.40452 0.39507 0.41355 0.0
C327 C 0.58744 0.90376 0.7841 0.0
C328 C 0.62182 0.89639 0.81193 0.0
C329 C 0.57518 0.89404 0.69908 0.0
C330 C 0.5971 0.87702 0.63901 0.0
H331 H 0.57028 0.91807 0.82709 0.0
H332 H 0.54897 0.90119 0.67895 0.0
S333 S 0.68812 0.84905 0.68312 0.0
N334 N 0.67664 0.86903 0.77529 0.0
N335 N 0.65395 0.85124 0.61538 0.0
C336 C 0.63119 0.86876 0.66714 0.0
C337 C 0.64351 0.87844 0.75353 0.0
C338 C 0.12649 0.09315 0.04251 0.0
C339 C 0.13625 0.11622 0.97885 0.0
C340 C 0.11855 0.10361 0.12952 0.0
C341 C 0.12095 0.13743 0.15616 0.0
H342 H 0.12542 0.06684 0.02519 0.0
H343 H 0.11211 0.08485 0.17719 0.0
S344 S 0.14448 0.20758 0.01245 0.0
N345 N 0.14683 0.17426 0.94648 0.0
N346 N 0.13263 0.19397 0.1103 0.0
C347 C 0.12997 0.16076 0.09214 0.0
C348 C 0.13748 0.15013 0.00336 0.0
C349 C 0.8935 0.58588 0.23838 0.0
C350 C 0.89212 0.61974 0.21623 0.0
C351 C 0.88197 0.57513 0.32113 0.0
C352 C 0.86925 0.59801 0.38489 0.0
H353 H 0.90459 0.56765 0.19292 0.0
H354 H 0.8844 0.54902 0.33656 0.0
S355 S 0.85884 0.68918 0.35824 0.0
N356 N 0.8757 0.67579 0.26356 0.0
N357 N 0.85471 0.65584 0.41926 0.0
C358 C 0.86735 0.63186 0.36305 0.0
C359 C 0.87878 0.64268 0.27888 0.0
C360 C 0.43555 0.12464 0.78878 0.0
C361 C 0.40062 0.12996 0.81444 0.0
C362 C 0.44747 0.13487 0.70579 0.0
C363 C 0.42471 0.15045 0.64567 0.0
H364 H 0.45348 0.11149 0.83161 0.0
H365 H 0.47416 0.12923 0.68712 0.0
S366 S 0.332 0.17342 0.68523 0.0
N367 N 0.34435 0.15423 0.77612 0.0
N368 N 0.36649 0.17299 0.62014 0.0
C369 C 0.39008 0.15682 0.67185 0.0
C370 C 0.37807 0.14659 0.75613 0.0
C371 C 0.90479 0.91804 0.06077 0.0
C372 C 0.90493 0.88404 0.08195 0.0
C373 C 0.89294 0.92871 0.97749 0.0
C374 C 0.88148 0.90571 0.91172 0.0
H375 H 0.91481 0.93657 0.10747 0.0
H376 H 0.89393 0.95503 0.96355 0.0
S377 S 0.87657 0.81392 0.93365 0.0
N378 N 0.89205 0.82757 0.03036 0.0
N379 N 0.87071 0.84736 0.87368 0.0
C380 C 0.88161 0.87165 0.93197 0.0
C381 C 0.89327 0.86089 0.01682 0.0
C382 C 0.12793 0.36978 0.25686 0.0
C383 C 0.10595 0.38725 0.31579 0.0
C384 C 0.11621 0.35991 0.17199 0.0
C385 C 0.08195 0.3669 0.14279 0.0
H386 H 0.15452 0.36371 0.27638 0.0
H387 H 0.13435 0.34705 0.12828 0.0
S388 S 0.0148 0.41414 0.2688 0.0
N389 N 0.0489 0.41291 0.33705 0.0
N390 N 0.02647 0.39329 0.17807 0.0
C391 C 0.05951 0.38409 0.20108 0.0
C392 C 0.07163 0.39459 0.28744 0.0
C393 C 0.62114 0.66901 0.58058 0.0
C394 C 0.61267 0.64613 0.64606 0.0
C395 C 0.62791 0.65828 0.49332 0.0
C396 C 0.62715 0.62425 0.46904 0.0
H397 H 0.62286 0.69535 0.59712 0.0
H398 H 0.63466 0.67671 0.44504 0.0
S399 S 0.60823 0.5542 0.61645 0.0
N400 N 0.6048 0.58776 0.68116 0.0
N401 N 0.61817 0.56772 0.51714 0.0
C402 C 0.61914 0.60109 0.53386 0.0
C403 C 0.61159 0.61201 0.62237 0.0
C404 C 0.22235 0.37497 0.93649 0.0
C405 C 0.21385 0.39233 0.85862 0.0
C406 C 0.25537 0.37801 0.9775 0.0
C407 C 0.28111 0.39865 0.94257 0.0
H408 H 0.20363 0.35817 0.96511 0.0
H409 H 0.26123 0.36313 0.03487 0.0
S410 S 0.27093 0.45333 0.74906 0.0
N411 N 0.23327 0.43326 0.75343 0.0
N412 N 0.29493 0.43965 0.8325 0.0
C413 C 0.27258 0.4174 0.86773 0.0
C414 C 0.23907 0.41406 0.8252 0.0
C415 C 0.62662 0.78683 0.08993 0.0
C416 C 0.60986 0.79537 0.17047 0.0
C417 C 0.62366 0.75485 0.05124 0.0
C418 C 0.60376 0.73016 0.09128 0.0
H419 H 0.64308 0.80469 0.05741 0.0
H420 H 0.63828 0.749 0.99166 0.0
S421 S 0.54993 0.7407 0.29317 0.0
N422 N 0.56959 0.77703 0.28335 0.0
N423 N 0.56342 0.71724 0.2088 0.0
C424 C 0.58525 0.73871 0.1686 0.0
C425 C 0.58844 0.77121 0.20865 0.0
C426 C 0.26633 0.12051 0.30062 0.0
C427 C 0.297 0.11617 0.35112 0.0
C428 C 0.23327 0.11889 0.33993 0.0
C429 C 0.22946 0.11252 0.43126 0.0
H430 H 0.26788 0.12657 0.23108 0.0
H431 H 0.21054 0.12345 0.29831 0.0
S432 S 0.30187 0.09435 0.58929 0.0
N433 N 0.32163 0.10191 0.495 0.0
N434 N 0.25959 0.09854 0.56859 0.0
C435 C 0.25998 0.10628 0.48126 0.0
C436 C 0.29367 0.10821 0.44132 0.0
C437 C 0.92149 0.72797 0.62321 0.0
C438 C 0.89763 0.7199 0.68986 0.0
C439 C 0.92104 0.75953 0.58448 0.0
C440 C 0.89634 0.78379 0.6104 0.0
H441 H 0.94047 0.70969 0.60064 0.0
H442 H 0.94025 0.76503 0.53454 0.0
S443 S 0.82429 0.77208 0.77064 0.0
N444 N 0.84659 0.7369 0.77322 0.0
N445 N 0.84493 0.79578 0.70002 0.0
C446 C 0.87155 0.77529 0.67487 0.0
C447 C 0.87237 0.74344 0.71466 0.0
C448 C 0.79004 0.8919 0.34642 0.0
C449 C 0.79453 0.89826 0.43857 0.0
C450 C 0.75706 0.89382 0.30496 0.0
C451 C 0.72711 0.90175 0.35409 0.0
H452 H 0.81206 0.88457 0.30579 0.0
H453 H 0.75481 0.88756 0.23479 0.0
S454 S 0.72468 0.92487 0.59411 0.0
N455 N 0.76621 0.91605 0.57551 0.0
N456 N 0.70421 0.91918 0.49787 0.0
C457 C 0.7313 0.90972 0.44522 0.0
C458 C 0.76497 0.90813 0.48734 0.0
C459 C 0.11665 0.22252 0.70037 0.0
C460 C 0.10948 0.2152 0.60974 0.0
C461 C 0.11302 0.25482 0.73651 0.0
C462 C 0.10286 0.28138 0.68316 0.0
H463 H 0.1261 0.20336 0.74384 0.0
H464 H 0.1199 0.25926 0.80575 0.0
S465 S 0.07893 0.2759 0.44369 0.0
N466 N 0.08963 0.23742 0.46898 0.0
N467 N 0.08391 0.29817 0.53642 0.0
C468 C 0.09475 0.27443 0.59321 0.0
C469 C 0.09779 0.2414 0.55663 0.0
C470 C 0.74418 0.61771 0.97313 0.0
C471 C 0.71403 0.6166 0.91901 0.0
C472 C 0.77767 0.61692 0.93617 0.0
C473 C 0.78257 0.61458 0.84346 0.0
H474 H 0.74199 0.62049 0.04455 0.0
H475 H 0.79992 0.61891 0.9811 0.0
S476 S 0.71201 0.60767 0.67261 0.0
N477 N 0.69112 0.61065 0.76776 0.0
N478 N 0.7541 0.60902 0.69869 0.0
C479 C 0.75263 0.61187 0.78865 0.0
C480 C 0.71842 0.61294 0.82628 0.0
C481 C 0.40177 0.26819 0.0593 0.0
C482 C 0.40247 0.29694 0.11405 0.0
C483 C 0.40277 0.23637 0.0956 0.0
C484 C 0.40493 0.23186 0.18822 0.0
H485 H 0.39902 0.27017 0.98797 0.0
H486 H 0.40104 0.2151 0.0503 0.0
S487 S 0.41113 0.29928 0.36036 0.0
N488 N 0.40812 0.31899 0.26565 0.0
N489 N 0.41013 0.2592 0.33347 0.0
C490 C 0.40741 0.26044 0.24357 0.0
C491 C 0.40612 0.29292 0.20663 0.0
loop_
_geom_bond_atom_site_label_1
_geom_bond_atom_site_label_2
_geom_bond_distance
_geom_bond_site_symmetry_2
_ccdc_geom_bond_type
Co0 O3 1.970 . S
Co0 N17 1.989 . S
Co0 O25 1.967 . S
Co0 O32 1.920 . S
Co1 O4 1.966 . S
Co1 N10 2.022 . S
Co1 N18 1.993 . S
Co1 O26 1.941 . S
C2 O3 1.258 . S
C2 O4 1.263 1_554 S
O3 Co0 1.970 . S
O3 C2 1.258 . S
O4 Co1 1.966 . S
O4 C2 1.263 1_556 S
C5 O6 1.235 . S
C5 O32 1.289 . S
O6 C5 1.235 . S
C7 C9 1.400 . S
C7 N10 1.351 . S
C7 C12 1.501 . S
C8 C9 1.387 . S
C8 N11 1.341 . S
C9 C7 1.400 . S
C9 C8 1.387 . S
N10 Co1 2.022 . S
N10 C7 1.351 . S
N10 N11 1.365 . S
N11 C8 1.341 . S
N11 N10 1.365 . S
N11 H31 0.862 . S
C12 C7 1.501 . S
C12 H13 0.961 . S
C12 H14 0.961 . S
C12 H15 0.960 . S
H13 C12 0.961 . S
H14 C12 0.961 . S
H15 C12 0.960 . S
C16 N17 1.342 . S
C16 C20 1.401 . S
C16 C21 1.499 . S
N17 Co0 1.989 . S
N17 C16 1.342 . S
N17 N18 1.388 1_554 S
N18 Co1 1.993 . S
N18 N17 1.388 1_556 S
N18 C19 1.346 . S
C19 N18 1.346 . S
C19 C20 1.396 1_556 S
C19 C29 1.510 . S
C20 C16 1.401 . S
C20 C19 1.396 1_554 S
C21 C16 1.499 . S
C21 H22 0.959 . S
C21 H23 0.960 . S
C21 H24 0.961 . S
H22 C21 0.959 . S
H23 C21 0.960 . S
H24 C21 0.961 . S
O25 Co0 1.967 . S
O25 C33 1.258 . S
O26 Co1 1.941 . S
O26 C33 1.266 1_556 S
H27 C29 0.959 . S
H28 C29 0.961 . S
C29 C19 1.510 . S
C29 H27 0.959 . S
C29 H28 0.961 . S
C29 H30 0.960 . S
H30 C29 0.960 . S
H31 N11 0.862 . S
O32 Co0 1.920 . S
O32 C5 1.289 . S
C33 O25 1.258 . S
C33 O26 1.266 1_554 S
Co34 O37 1.970 . S
Co34 N51 1.989 . S
Co34 O59 1.967 . S
Co34 O66 1.920 . S
Co35 O38 1.966 . S
Co35 N44 2.022 . S
Co35 N52 1.993 . S
Co35 O60 1.941 . S
C36 O37 1.258 . S
C36 O38 1.263 . S
O37 Co34 1.970 . S
O37 C36 1.258 . S
O38 Co35 1.966 . S
O38 C36 1.263 . S
C39 O40 1.235 . S
C39 O66 1.289 . S
O40 C39 1.235 . S
C41 C43 1.400 . S
C41 N44 1.351 1_556 S
C41 C46 1.501 . S
C42 C43 1.387 . S
C42 N45 1.341 . S
C43 C41 1.400 . S
C43 C42 1.387 . S
N44 Co35 2.022 . S
N44 C41 1.351 1_554 S
N44 N45 1.365 1_554 S
N45 C42 1.341 . S
N45 N44 1.365 1_556 S
N45 H65 0.862 1_556 S
C46 C41 1.501 . S
C46 H47 0.961 1_556 S
C46 H48 0.961 . S
C46 H49 0.960 . S
H47 C46 0.961 1_554 S
H48 C46 0.961 . S
H49 C46 0.960 . S
C50 N51 1.342 . S
C50 C54 1.401 . S
C50 C55 1.499 . S
N51 Co34 1.989 . S
N51 C50 1.342 . S
N51 N52 1.388 . S
N52 Co35 1.993 . S
N52 N51 1.388 . S
N52 C53 1.346 . S
C53 N52 1.346 . S
C53 C54 1.396 . S
C53 C63 1.510 . S
C54 C50 1.401 . S
C54 C53 1.396 . S
C55 C50 1.499 . S
C55 H56 0.959 . S
C55 H57 0.960 . S
C55 H58 0.961 . S
H56 C55 0.959 . S
H57 C55 0.960 . S
H58 C55 0.961 . S
O59 Co34 1.967 . S
O59 C67 1.258 . S
O60 Co35 1.941 . S
O60 C67 1.266 . S
H61 C63 0.959 . S
H62 C63 0.961 . S
C63 C53 1.510 . S
C63 H61 0.959 . S
C63 H62 0.961 . S
C63 H64 0.960 . S
H64 C63 0.960 . S
H65 N45 0.862 1_554 S
O66 Co34 1.920 . S
O66 C39 1.289 . S
C67 O59 1.258 . S
C67 O60 1.266 . S
Co68 O71 1.970 . S
Co68 N85 1.989 . S
Co68 O93 1.967 . S
Co68 O100 1.920 . S
Co69 O72 1.966 . S
Co69 N78 2.022 . S
Co69 N86 1.993 . S
Co69 O94 1.941 . S
C70 O71 1.258 . S
C70 O72 1.263 . S
O71 Co68 1.970 . S
O71 C70 1.258 . S
O72 Co69 1.966 . S
O72 C70 1.263 . S
C73 O74 1.235 . S
C73 O100 1.289 . S
O74 C73 1.235 . S
C75 C77 1.400 . S
C75 N78 1.351 . S
C75 C80 1.501 . S
C76 C77 1.387 . S
C76 N79 1.341 . S
C77 C75 1.400 . S
C77 C76 1.387 . S
N78 Co69 2.022 . S
N78 C75 1.351 . S
N78 N79 1.365 . S
N79 C76 1.341 . S
N79 N78 1.365 . S
N79 H99 0.862 . S
C80 C75 1.501 . S
C80 H81 0.961 . S
C80 H82 0.961 . S
C80 H83 0.960 . S
H81 C80 0.961 . S
H82 C80 0.961 . S
H83 C80 0.960 . S
C84 N85 1.342 . S
C84 C88 1.401 . S
C84 C89 1.499 . S
N85 Co68 1.989 . S
N85 C84 1.342 . S
N85 N86 1.388 . S
N86 Co69 1.993 . S
N86 N85 1.388 . S
N86 C87 1.346 . S
C87 N86 1.346 . S
C87 C88 1.396 . S
C87 C97 1.510 . S
C88 C84 1.401 . S
C88 C87 1.396 . S
C89 C84 1.499 . S
C89 H90 0.959 . S
C89 H91 0.960 . S
C89 H92 0.961 . S
H90 C89 0.959 . S
H91 C89 0.960 . S
H92 C89 0.961 . S
O93 Co68 1.967 . S
O93 C101 1.258 . S
O94 Co69 1.941 . S
O94 C101 1.266 . S
H95 C97 0.959 . S
H96 C97 0.961 . S
C97 C87 1.510 . S
C97 H95 0.959 . S
C97 H96 0.961 . S
C97 H98 0.960 . S
H98 C97 0.960 . S
H99 N79 0.862 . S
O100 Co68 1.920 . S
O100 C73 1.289 . S
C101 O93 1.258 . S
C101 O94 1.266 . S
Co102 O105 1.970 . S
Co102 N119 1.989 . S
Co102 O127 1.967 . S
Co102 O134 1.920 . S
Co103 O106 1.966 . S
Co103 N112 2.022 1_556 S
Co103 N120 1.993 . S
Co103 O128 1.941 . S
C104 O105 1.258 . S
C104 O106 1.263 . S
O105 Co102 1.970 . S
O105 C104 1.258 . S
O106 Co103 1.966 . S
O106 C104 1.263 . S
C107 O108 1.235 . S
C107 O134 1.289 . S
O108 C107 1.235 . S
C109 C111 1.400 . S
C109 N112 1.351 . S
C109 C114 1.501 . S
C110 C111 1.387 . S
C110 N113 1.341 . S
C111 C109 1.400 . S
C111 C110 1.387 . S
N112 Co103 2.022 1_554 S
N112 C109 1.351 . S
N112 N113 1.365 . S
N113 C110 1.341 . S
N113 N112 1.365 . S
N113 H133 0.862 . S
C114 C109 1.501 . S
C114 H115 0.961 . S
C114 H116 0.961 . S
C114 H117 0.960 . S
H115 C114 0.961 . S
H116 C114 0.961 . S
H117 C114 0.960 . S
C118 N119 1.342 . S
C118 C122 1.401 . S
C118 C123 1.499 . S
N119 Co102 1.989 . S
N119 C118 1.342 . S
N119 N120 1.388 . S
N120 Co103 1.993 . S
N120 N119 1.388 . S
N120 C121 1.346 . S
C121 N120 1.346 . S
C121 C122 1.396 . S
C121 C131 1.510 . S
C122 C118 1.401 . S
C122 C121 1.396 . S
C123 C118 1.499 . S
C123 H124 0.959 . S
C123 H125 0.960 . S
C123 H126 0.961 . S
H124 C123 0.959 . S
H125 C123 0.960 . S
H126 C123 0.961 . S
O127 Co102 1.967 . S
O127 C135 1.258 . S
O128 Co103 1.941 . S
O128 C135 1.266 . S
H129 C131 0.959 . S
H130 C131 0.961 . S
C131 C121 1.510 . S
C131 H129 0.959 . S
C131 H130 0.961 . S
C131 H132 0.960 . S
H132 C131 0.960 . S
H133 N113 0.862 . S
O134 Co102 1.920 . S
O134 C107 1.289 . S
C135 O127 1.258 . S
C135 O128 1.266 . S
Co136 O139 1.970 . S
Co136 N153 1.989 . S
Co136 O161 1.967 . S
Co136 O168 1.920 . S
Co137 O140 1.966 . S
Co137 N146 2.022 . S
Co137 N154 1.993 . S
Co137 O162 1.941 . S
C138 O139 1.258 . S
C138 O140 1.263 . S
O139 Co136 1.970 . S
O139 C138 1.258 . S
O140 Co137 1.966 . S
O140 C138 1.263 . S
C141 O142 1.235 . S
C141 O168 1.289 . S
O142 C141 1.235 . S
C143 C145 1.400 . S
C143 N146 1.351 1_556 S
C143 C148 1.501 . S
C144 C145 1.387 . S
C144 N147 1.341 . S
C145 C143 1.400 . S
C145 C144 1.387 . S
N146 Co137 2.022 . S
N146 C143 1.351 1_554 S
N146 N147 1.365 1_554 S
N147 C144 1.341 . S
N147 N146 1.365 1_556 S
N147 H167 0.862 1_556 S
C148 C143 1.501 . S
C148 H149 0.961 1_556 S
C148 H150 0.961 . S
C148 H151 0.960 . S
H149 C148 0.961 1_554 S
H150 C148 0.961 . S
H151 C148 0.960 . S
C152 N153 1.342 . S
C152 C156 1.401 . S
C152 C157 1.499 . S
N153 Co136 1.989 . S
N153 C152 1.342 . S
N153 N154 1.388 . S
N154 Co137 1.993 . S
N154 N153 1.388 . S
N154 C155 1.346 . S
C155 N154 1.346 . S
C155 C156 1.396 . S
C155 C165 1.510 . S
C156 C152 1.401 . S
C156 C155 1.396 . S
C157 C152 1.499 . S
C157 H158 0.959 . S
C157 H159 0.960 . S
C157 H160 0.961 . S
H158 C157 0.959 . S
H159 C157 0.960 . S
H160 C157 0.961 . S
O161 Co136 1.967 . S
O161 C169 1.258 . S
O162 Co137 1.941 . S
O162 C169 1.266 . S
H163 C165 0.959 . S
H164 C165 0.961 . S
C165 C155 1.510 . S
C165 H163 0.959 . S
C165 H164 0.961 . S
C165 H166 0.960 . S
H166 C165 0.960 . S
H167 N147 0.862 1_554 S
O168 Co136 1.920 . S
O168 C141 1.289 . S
C169 O161 1.258 . S
C169 O162 1.266 . S
Co170 O173 1.970 . S
Co170 N187 1.989 . S
Co170 O195 1.967 . S
Co170 O202 1.920 . S
Co171 O174 1.966 . S
Co171 N180 2.022 . S
Co171 N188 1.993 . S
Co171 O196 1.941 . S
C172 O173 1.258 . S
C172 O174 1.263 . S
O173 Co170 1.970 . S
O173 C172 1.258 . S
O174 Co171 1.966 . S
O174 C172 1.263 . S
C175 O176 1.235 . S
C175 O202 1.289 . S
O176 C175 1.235 . S
C177 C179 1.400 . S
C177 N180 1.351 . S
C177 C182 1.501 . S
C178 C179 1.387 . S
C178 N181 1.341 . S
C179 C177 1.400 . S
C179 C178 1.387 . S
N180 Co171 2.022 . S
N180 C177 1.351 . S
N180 N181 1.365 . S
N181 C178 1.341 . S
N181 N180 1.365 . S
N181 H201 0.862 . S
C182 C177 1.501 . S
C182 H183 0.961 . S
C182 H184 0.961 . S
C182 H185 0.960 . S
H183 C182 0.961 . S
H184 C182 0.961 . S
H185 C182 0.960 . S
C186 N187 1.342 . S
C186 C190 1.401 . S
C186 C191 1.499 . S
N187 Co170 1.989 . S
N187 C186 1.342 . S
N187 N188 1.388 . S
N188 Co171 1.993 . S
N188 N187 1.388 . S
N188 C189 1.346 . S
C189 N188 1.346 . S
C189 C190 1.396 . S
C189 C199 1.510 . S
C190 C186 1.401 . S
C190 C189 1.396 . S
C191 C186 1.499 . S
C191 H192 0.959 . S
C191 H193 0.960 . S
C191 H194 0.961 . S
H192 C191 0.959 . S
H193 C191 0.960 . S
H194 C191 0.961 . S
O195 Co170 1.967 . S
O195 C203 1.258 . S
O196 Co171 1.941 . S
O196 C203 1.266 . S
H197 C199 0.959 . S
H198 C199 0.961 . S
C199 C189 1.510 . S
C199 H197 0.959 . S
C199 H198 0.961 . S
C199 H200 0.960 . S
H200 C199 0.960 . S
H201 N181 0.862 . S
O202 Co170 1.920 . S
O202 C175 1.289 . S
C203 O195 1.258 . S
C203 O196 1.266 . S
Co204 O207 1.970 . S
Co204 N221 1.989 . S
Co204 O229 1.967 . S
Co204 O236 1.920 1_556 S
Co205 O208 1.966 . S
Co205 N214 2.022 . S
Co205 N222 1.993 . S
Co205 O230 1.941 . S
C206 O207 1.258 . S
C206 O208 1.263 . S
O207 Co204 1.970 . S
O207 C206 1.258 . S
O208 Co205 1.966 . S
O208 C206 1.263 . S
C209 O210 1.235 1_554 S
C209 O236 1.289 . S
O210 C209 1.235 1_556 S
C211 C213 1.400 . S
C211 N214 1.351 . S
C211 C216 1.501 . S
C212 C213 1.387 . S
C212 N215 1.341 . S
C213 C211 1.400 . S
C213 C212 1.387 . S
N214 Co205 2.022 . S
N214 C211 1.351 . S
N214 N215 1.365 . S
N215 C212 1.341 . S
N215 N214 1.365 . S
N215 H235 0.862 . S
C216 C211 1.501 . S
C216 H217 0.961 . S
C216 H218 0.961 . S
C216 H219 0.960 . S
H217 C216 0.961 . S
H218 C216 0.961 . S
H219 C216 0.960 . S
C220 N221 1.342 . S
C220 C224 1.401 . S
C220 C225 1.499 . S
N221 Co204 1.989 . S
N221 C220 1.342 . S
N221 N222 1.388 . S
N222 Co205 1.993 . S
N222 N221 1.388 . S
N222 C223 1.346 . S
C223 N222 1.346 . S
C223 C224 1.396 . S
C223 C233 1.510 . S
C224 C220 1.401 . S
C224 C223 1.396 . S
C225 C220 1.499 . S
C225 H226 0.959 . S
C225 H227 0.960 . S
C225 H228 0.961 . S
H226 C225 0.959 . S
H227 C225 0.960 . S
H228 C225 0.961 . S
O229 Co204 1.967 . S
O229 C237 1.258 . S
O230 Co205 1.941 . S
O230 C237 1.266 . S
H231 C233 0.959 . S
H232 C233 0.961 . S
C233 C223 1.510 . S
C233 H231 0.959 . S
C233 H232 0.961 . S
C233 H234 0.960 . S
H234 C233 0.960 . S
H235 N215 0.862 . S
O236 Co204 1.920 1_554 S
O236 C209 1.289 . S
C237 O229 1.258 . S
C237 O230 1.266 . S
Co238 O241 1.970 . S
Co238 N255 1.989 . S
Co238 O263 1.967 . S
Co238 O270 1.920 . S
Co239 O242 1.966 . S
Co239 N248 2.022 . S
Co239 N256 1.993 . S
Co239 O264 1.941 . S
C240 O241 1.258 1_554 S
C240 O242 1.263 . S
O241 Co238 1.970 . S
O241 C240 1.258 1_556 S
O242 Co239 1.966 . S
O242 C240 1.263 . S
C243 O244 1.235 . S
C243 O270 1.289 . S
O244 C243 1.235 . S
C245 C247 1.400 . S
C245 N248 1.351 . S
C245 C250 1.501 . S
C246 C247 1.387 . S
C246 N249 1.341 . S
C247 C245 1.400 . S
C247 C246 1.387 . S
N248 Co239 2.022 . S
N248 C245 1.351 . S
N248 N249 1.365 . S
N249 C246 1.341 . S
N249 N248 1.365 . S
N249 H269 0.862 . S
C250 C245 1.501 . S
C250 H251 0.961 . S
C250 H252 0.961 . S
C250 H253 0.960 . S
H251 C250 0.961 . S
H252 C250 0.961 . S
H253 C250 0.960 . S
C254 N255 1.342 . S
C254 C258 1.401 1_556 S
C254 C259 1.499 . S
N255 Co238 1.989 . S
N255 C254 1.342 . S
N255 N256 1.388 1_556 S
N256 Co239 1.993 . S
N256 N255 1.388 1_554 S
N256 C257 1.346 . S
C257 N256 1.346 . S
C257 C258 1.396 . S
C257 C267 1.510 . S
C258 C254 1.401 1_554 S
C258 C257 1.396 . S
C259 C254 1.499 . S
C259 H260 0.959 . S
C259 H261 0.960 . S
C259 H262 0.961 . S
H260 C259 0.959 . S
H261 C259 0.960 . S
H262 C259 0.961 . S
O263 Co238 1.967 . S
O263 C271 1.258 1_556 S
O264 Co239 1.941 . S
O264 C271 1.266 . S
H265 C267 0.959 . S
H266 C267 0.961 . S
C267 C257 1.510 . S
C267 H265 0.959 . S
C267 H266 0.961 . S
C267 H268 0.960 . S
H268 C267 0.960 . S
H269 N249 0.862 . S
O270 Co238 1.920 . S
O270 C243 1.289 . S
C271 O263 1.258 1_554 S
C271 O264 1.266 . S
C272 C273 1.369 . S
C272 C274 1.419 . S
C272 H276 0.930 . S
C273 C272 1.369 . S
C273 C282 1.429 . S
C274 C272 1.419 . S
C274 C275 1.363 . S
C274 H277 0.929 . S
C275 C274 1.363 . S
C275 C281 1.428 . S
H276 C272 0.930 . S
H277 C274 0.929 . S
S278 N279 1.613 . S
S278 N280 1.608 1_556 S
N279 S278 1.613 . S
N279 C282 1.350 1_556 S
N280 S278 1.608 1_554 S
N280 C281 1.353 . S
C281 C275 1.428 . S
C281 N280 1.353 . S
C281 C282 1.434 . S
C282 C273 1.429 . S
C282 N279 1.350 1_554 S
C282 C281 1.434 . S
C283 C284 1.369 . S
C283 C285 1.419 . S
C283 H287 0.930 . S
C284 C283 1.369 . S
C284 C293 1.429 . S
C285 C283 1.419 . S
C285 C286 1.363 1_545 S
C285 H288 0.929 . S
C286 C285 1.363 1_565 S
C286 C292 1.428 . S
H287 C283 0.930 . S
H288 C285 0.929 . S
S289 N290 1.613 1_565 S
S289 N291 1.610 . S
N290 S289 1.613 1_545 S
N290 C293 1.350 . S
N291 S289 1.610 . S
N291 C292 1.351 . S
C292 C286 1.428 . S
C292 N291 1.351 . S
C292 C293 1.434 1_565 S
C293 C284 1.429 . S
C293 N290 1.350 . S
C293 C292 1.434 1_545 S
C294 C295 1.342 1_455 S
C294 C296 1.419 . S
C294 H298 0.930 . S
C295 C294 1.342 1_655 S
C295 C304 1.433 . S
C296 C294 1.419 . S
C296 C297 1.363 1_565 S
C296 H299 0.929 . S
C297 C296 1.363 1_545 S
C297 C303 1.428 . S
H298 C294 0.930 . S
H299 C296 0.929 . S
S300 N301 1.613 1_545 S
S300 N302 1.610 1_655 S
N301 S300 1.613 1_565 S
N301 C304 1.350 . S
N302 S300 1.610 1_455 S
N302 C303 1.351 . S
C303 C297 1.428 . S
C303 N302 1.351 . S
C303 C304 1.434 1_445 S
C304 C295 1.433 . S
C304 N301 1.350 . S
C304 C303 1.434 1_665 S
C305 C306 1.369 . S
C305 C307 1.419 1_455 S
C305 H309 0.930 . S
C306 C305 1.369 . S
C306 C315 1.429 . S
C307 C305 1.419 1_655 S
C307 C308 1.363 . S
C307 H310 0.929 . S
C308 C307 1.363 . S
C308 C314 1.428 . S
H309 C305 0.930 . S
H310 C307 0.929 . S
S311 N312 1.613 . S
S311 N313 1.610 1_455 S
N312 S311 1.613 . S
N312 C315 1.350 . S
N313 S311 1.610 1_655 S
N313 C314 1.351 . S
C314 C308 1.428 . S
C314 N313 1.351 . S
C314 C315 1.434 1_655 S
C315 C306 1.429 . S
C315 N312 1.350 . S
C315 C314 1.434 1_455 S
C316 C317 1.369 . S
C316 C318 1.419 . S
C316 H320 0.930 . S
C317 C316 1.369 . S
C317 C326 1.429 . S
C318 C316 1.419 . S
C318 C319 1.363 . S
C318 H321 0.929 . S
C319 C318 1.363 . S
C319 C325 1.428 . S
H320 C316 0.930 . S
H321 C318 0.929 . S
S322 N323 1.613 . S
S322 N324 1.610 . S
N323 S322 1.613 . S
N323 C326 1.350 . S
N324 S322 1.610 . S
N324 C325 1.351 . S
C325 C319 1.428 . S
C325 N324 1.351 . S
C325 C326 1.434 . S
C326 C317 1.429 . S
C326 N323 1.350 . S
C326 C325 1.434 . S
C327 C328 1.369 . S
C327 C329 1.419 . S
C327 H331 0.930 . S
C328 C327 1.369 . S
C328 C337 1.429 . S
C329 C327 1.419 . S
C329 C330 1.363 . S
C329 H332 0.929 . S
C330 C329 1.363 . S
C330 C336 1.428 . S
H331 C327 0.930 . S
H332 C329 0.929 . S
S333 N334 1.613 . S
S333 N335 1.610 . S
N334 S333 1.613 . S
N334 C337 1.350 . S
N335 S333 1.610 . S
N335 C336 1.351 . S
C336 C330 1.428 . S
C336 N335 1.351 . S
C336 C337 1.434 . S
C337 C328 1.429 . S
C337 N334 1.350 . S
C337 C336 1.434 . S
C338 C339 1.368 1_554 S
C338 C340 1.419 . S
C338 H342 0.930 . S
C339 C338 1.368 1_556 S
C339 C348 1.428 1_556 S
C340 C338 1.419 . S
C340 C341 1.363 . S
C340 H343 0.929 . S
C341 C340 1.363 . S
C341 C347 1.428 . S
H342 C338 0.930 . S
H343 C340 0.929 . S
S344 N345 1.613 1_554 S
S344 N346 1.610 . S
N345 S344 1.613 1_556 S
N345 C348 1.350 1_556 S
N346 S344 1.610 . S
N346 C347 1.351 . S
C347 C341 1.428 . S
C347 N346 1.351 . S
C347 C348 1.434 . S
C348 C339 1.428 1_554 S
C348 N345 1.350 1_554 S
C348 C347 1.434 . S
C349 C350 1.369 . S
C349 C351 1.419 . S
C349 H353 0.930 . S
C350 C349 1.369 . S
C350 C359 1.429 . S
C351 C349 1.419 . S
C351 C352 1.363 . S
C351 H354 0.929 . S
C352 C351 1.363 . S
C352 C358 1.428 . S
H353 C349 0.930 . S
H354 C351 0.929 . S
S355 N356 1.613 . S
S355 N357 1.610 . S
N356 S355 1.613 . S
N356 C359 1.350 . S
N357 S355 1.610 . S
N357 C358 1.351 . S
C358 C352 1.428 . S
C358 N357 1.351 . S
C358 C359 1.434 . S
C359 C350 1.429 . S
C359 N356 1.350 . S
C359 C358 1.434 . S
C360 C361 1.369 . S
C360 C362 1.419 . S
C360 H364 0.930 . S
C361 C360 1.369 . S
C361 C370 1.429 . S
C362 C360 1.419 . S
C362 C363 1.363 . S
C362 H365 0.929 . S
C363 C362 1.363 . S
C363 C369 1.428 . S
H364 C360 0.930 . S
H365 C362 0.929 . S
S366 N367 1.613 . S
S366 N368 1.610 . S
N367 S366 1.613 . S
N367 C370 1.350 . S
N368 S366 1.610 . S
N368 C369 1.351 . S
C369 C363 1.428 . S
C369 N368 1.351 . S
C369 C370 1.434 . S
C370 C361 1.429 . S
C370 N367 1.350 . S
C370 C369 1.434 . S
C371 C372 1.371 . S
C371 C373 1.415 1_554 S
C371 H375 0.931 . S
C372 C371 1.371 . S
C372 C381 1.429 . S
C373 C371 1.415 1_556 S
C373 C374 1.363 . S
C373 H376 0.929 . S
C374 C373 1.363 . S
C374 C380 1.428 . S
H375 C371 0.931 . S
H376 C373 0.929 . S
S377 N378 1.613 1_556 S
S377 N379 1.610 . S
N378 S377 1.613 1_554 S
N378 C381 1.350 . S
N379 S377 1.610 . S
N379 C380 1.351 . S
C380 C374 1.428 . S
C380 N379 1.351 . S
C380 C381 1.434 1_556 S
C381 C372 1.429 . S
C381 N378 1.350 . S
C381 C380 1.434 1_554 S
C382 C383 1.369 . S
C382 C384 1.419 . S
C382 H386 0.930 . S
C383 C382 1.369 . S
C383 C392 1.429 . S
C384 C382 1.419 . S
C384 C385 1.363 . S
C384 H387 0.929 . S
C385 C384 1.363 . S
C385 C391 1.428 . S
H386 C382 0.930 . S
H387 C384 0.929 . S
S388 N389 1.613 . S
S388 N390 1.610 . S
N389 S388 1.613 . S
N389 C392 1.350 . S
N390 S388 1.610 . S
N390 C391 1.351 . S
C391 C385 1.428 . S
C391 N390 1.351 . S
C391 C392 1.434 . S
C392 C383 1.429 . S
C392 N389 1.350 . S
C392 C391 1.434 . S
C393 C394 1.369 . S
C393 C395 1.419 . S
C393 H397 0.930 . S
C394 C393 1.369 . S
C394 C403 1.429 . S
C395 C393 1.419 . S
C395 C396 1.363 . S
C395 H398 0.929 . S
C396 C395 1.363 . S
C396 C402 1.428 . S
H397 C393 0.930 . S
H398 C395 0.929 . S
S399 N400 1.613 . S
S399 N401 1.610 . S
N400 S399 1.613 . S
N400 C403 1.350 . S
N401 S399 1.610 . S
N401 C402 1.351 . S
C402 C396 1.428 . S
C402 N401 1.351 . S
C402 C403 1.434 . S
C403 C394 1.429 . S
C403 N400 1.350 . S
C403 C402 1.434 . S
C404 C405 1.369 . S
C404 C406 1.419 . S
C404 H408 0.930 . S
C405 C404 1.369 . S
C405 C414 1.429 . S
C406 C404 1.419 . S
C406 C407 1.363 . S
C406 H409 0.929 . S
C407 C406 1.363 . S
C407 C413 1.428 . S
H408 C404 0.930 . S
H409 C406 0.929 . S
S410 N411 1.613 . S
S410 N412 1.610 . S
N411 S410 1.613 . S
N411 C414 1.350 . S
N412 S410 1.610 . S
N412 C413 1.351 . S
C413 C407 1.428 . S
C413 N412 1.351 . S
C413 C414 1.434 . S
C414 C405 1.429 . S
C414 N411 1.350 . S
C414 C413 1.434 . S
C415 C416 1.369 . S
C415 C417 1.419 . S
C415 H419 0.930 . S
C416 C415 1.369 . S
C416 C425 1.429 . S
C417 C415 1.419 . S
C417 C418 1.363 . S
C417 H420 0.929 . S
C418 C417 1.363 . S
C418 C424 1.428 . S
H419 C415 0.930 . S
H420 C417 0.929 . S
S421 N422 1.613 . S
S421 N423 1.610 . S
N422 S421 1.613 . S
N422 C425 1.350 . S
N423 S421 1.610 . S
N423 C424 1.351 . S
C424 C418 1.428 . S
C424 N423 1.351 . S
C424 C425 1.434 . S
C425 C416 1.429 . S
C425 N422 1.350 . S
C425 C424 1.434 . S
C426 C427 1.369 . S
C426 C428 1.419 . S
C426 H430 0.930 . S
C427 C426 1.369 . S
C427 C436 1.429 . S
C428 C426 1.419 . S
C428 C429 1.363 . S
C428 H431 0.929 . S
C429 C428 1.363 . S
C429 C435 1.428 . S
H430 C426 0.930 . S
H431 C428 0.929 . S
S432 N433 1.613 . S
S432 N434 1.610 . S
N433 S432 1.613 . S
N433 C436 1.350 . S
N434 S432 1.610 . S
N434 C435 1.351 . S
C435 C429 1.428 . S
C435 N434 1.351 . S
C435 C436 1.434 . S
C436 C427 1.429 . S
C436 N433 1.350 . S
C436 C435 1.434 . S
C437 C438 1.369 . S
C437 C439 1.419 . S
C437 H441 0.930 . S
C438 C437 1.369 . S
C438 C447 1.429 . S
C439 C437 1.419 . S
C439 C440 1.363 . S
C439 H442 0.929 . S
C440 C439 1.363 . S
C440 C446 1.428 . S
H441 C437 0.930 . S
H442 C439 0.929 . S
S443 N444 1.613 . S
S443 N445 1.610 . S
N444 S443 1.613 . S
N444 C447 1.350 . S
N445 S443 1.610 . S
N445 C446 1.351 . S
C446 C440 1.428 . S
C446 N445 1.351 . S
C446 C447 1.434 . S
C447 C438 1.429 . S
C447 N444 1.350 . S
C447 C446 1.434 . S
C448 C449 1.369 . S
C448 C450 1.419 . S
C448 H452 0.930 . S
C449 C448 1.369 . S
C449 C458 1.429 . S
C450 C448 1.419 . S
C450 C451 1.363 . S
C450 H453 0.929 . S
C451 C450 1.363 . S
C451 C457 1.428 . S
H452 C448 0.930 . S
H453 C450 0.929 . S
S454 N455 1.613 . S
S454 N456 1.610 . S
N455 S454 1.613 . S
N455 C458 1.350 . S
N456 S454 1.610 . S
N456 C457 1.351 . S
C457 C451 1.428 . S
C457 N456 1.351 . S
C457 C458 1.434 . S
C458 C449 1.429 . S
C458 N455 1.350 . S
C458 C457 1.434 . S
C459 C460 1.369 . S
C459 C461 1.419 . S
C459 H463 0.930 . S
C460 C459 1.369 . S
C460 C469 1.429 . S
C461 C459 1.419 . S
C461 C462 1.363 . S
C461 H464 0.929 . S
C462 C461 1.363 . S
C462 C468 1.428 . S
H463 C459 0.930 . S
H464 C461 0.929 . S
S465 N466 1.613 . S
S465 N467 1.610 . S
N466 S465 1.613 . S
N466 C469 1.350 . S
N467 S465 1.610 . S
N467 C468 1.351 . S
C468 C462 1.428 . S
C468 N467 1.351 . S
C468 C469 1.434 . S
C469 C460 1.429 . S
C469 N466 1.350 . S
C469 C468 1.434 . S
C470 C471 1.369 . S
C470 C472 1.419 . S
C470 H474 0.930 1_556 S
C471 C470 1.369 . S
C471 C480 1.429 . S
C472 C470 1.419 . S
C472 C473 1.363 . S
C472 H475 0.929 . S
C473 C472 1.363 . S
C473 C479 1.428 . S
H474 C470 0.930 1_554 S
H475 C472 0.929 . S
S476 N477 1.613 . S
S476 N478 1.610 . S
N477 S476 1.613 . S
N477 C480 1.350 . S
N478 S476 1.610 . S
N478 C479 1.351 . S
C479 C473 1.428 . S
C479 N478 1.351 . S
C479 C480 1.434 . S
C480 C471 1.429 . S
C480 N477 1.350 . S
C480 C479 1.434 . S
C481 C482 1.369 . S
C481 C483 1.419 . S
C481 H485 0.930 . S
C482 C481 1.369 . S
C482 C491 1.429 . S
C483 C481 1.419 . S
C483 C484 1.363 . S
C483 H486 0.929 . S
C484 C483 1.363 . S
C484 C490 1.428 . S
H485 C481 0.930 . S
H486 C483 0.929 . S
S487 N488 1.613 . S
S487 N489 1.610 . S
N488 S487 1.613 . S
N488 C491 1.350 . S
N489 S487 1.610 . S
N489 C490 1.351 . S
C490 C484 1.428 . S
C490 N489 1.351 . S
C490 C491 1.434 . S
C491 C482 1.429 . S
C491 N488 1.350 . S
C491 C490 1.434 . S
C273 C258 1.468 . S
C275 C20 1.470 . S
C284 C156 1.523 . S
C286 C54 1.517 . S
C295 C190 1.644 . S
C297 C88 1.615 . S
C306 C224 1.551 . S
C308 C122 1.534 . S
C317 C5 1.409 . S
C319 C9 1.419 . S
C328 C43 1.346 . S
C330 C39 1.350 . S
C339 C77 1.418 . S
C341 C73 1.409 . S
C350 C111 1.485 . S
C352 C107 1.462 . S
C361 C145 1.467 . S
C363 C141 1.444 . S
C372 C179 1.485 . S
C374 C175 1.464 . S
C383 C213 1.360 . S
C385 C209 1.361 . S
C394 C243 1.357 . S
C396 C247 1.357 . S
C405 C237 1.533 . S
C407 C2 1.521 1_556 S
C416 C36 1.498 . S
C418 C240 1.493 . S
C427 C169 1.685 . S
C429 C101 1.671 . S
C438 C135 1.688 . S
C440 C203 1.684 . S
C449 C172 1.714 . S
C451 C67 1.714 . S
C460 C70 1.696 . S
C462 C206 1.693 . S
C471 C271 1.626 1_556 S
C473 C104 1.626 . S
C482 C33 1.658 . S
C484 C138 1.652 . S
