# Generated by pormake.
# Topology dia-j, (6)-cn, num edge types: 1
# Building blocks:
#     Node 0, Type 0, BuildingBlock: OJICUG_clean_sbu_0, # of connection points: 6
#     Node 1, Type 0, BuildingBlock: OJICUG_clean_sbu_0, # of connection points: 6
#     Node 2, Type 0, BuildingBlock: OJICUG_clean_sbu_0, # of connection points: 6
#     Node 3, Type 0, BuildingBlock: OJICUG_clean_sbu_0, # of connection points: 6
#     Node 4, Type 0, BuildingBlock: OJICUG_clean_sbu_0, # of connection points: 6
#     Node 5, Type 0, BuildingBlock: OJICUG_clean_sbu_0, # of connection points: 6
#     Node 6, Type 0, BuildingBlock: OJICUG_clean_sbu_0, # of connection points: 6
#     Node 7, Type 0, BuildingBlock: OJICUG_clean_sbu_0, # of connection points: 6
#     Node 8, Type 0, BuildingBlock: OJICUG_clean_sbu_0, # of connection points: 6
#     Node 9, Type 0, BuildingBlock: OJICUG_clean_sbu_0, # of connection points: 6
#     Node 10, Type 0, BuildingBlock: OJICUG_clean_sbu_0, # of connection points: 6
#     Node 11, Type 0, BuildingBlock: OJICUG_clean_sbu_0, # of connection points: 6
#     Node 12, Type 0, BuildingBlock: OJICUG_clean_sbu_0, # of connection points: 6
#     Node 13, Type 0, BuildingBlock: OJICUG_clean_sbu_0, # of connection points: 6
#     Node 14, Type 0, BuildingBlock: OJICUG_clean_sbu_0, # of connection points: 6
#     Node 15, Type 0, BuildingBlock: OJICUG_clean_sbu_0, # of connection points: 6
#     Node 16, Type 0, BuildingBlock: OJICUG_clean_sbu_0, # of connection points: 6
#     Node 17, Type 0, BuildingBlock: OJICUG_clean_sbu_0, # of connection points: 6
#     Node 18, Type 0, BuildingBlock: OJICUG_clean_sbu_0, # of connection points: 6
#     Node 19, Type 0, BuildingBlock: OJICUG_clean_sbu_0, # of connection points: 6
#     Node 20, Type 0, BuildingBlock: OJICUG_clean_sbu_0, # of connection points: 6
#     Node 21, Type 0, BuildingBlock: OJICUG_clean_sbu_0, # of connection points: 6
#     Node 22, Type 0, BuildingBlock: OJICUG_clean_sbu_0, # of connection points: 6
#     Node 23, Type 0, BuildingBlock: OJICUG_clean_sbu_0, # of connection points: 6
#     Node 24, Type 0, BuildingBlock: OJICUG_clean_sbu_0, # of connection points: 6
#     Node 25, Type 0, BuildingBlock: OJICUG_clean_sbu_0, # of connection points: 6
#     Node 26, Type 0, BuildingBlock: OJICUG_clean_sbu_0, # of connection points: 6
#     Node 27, Type 0, BuildingBlock: OJICUG_clean_sbu_0, # of connection points: 6
#     Node 28, Type 0, BuildingBlock: OJICUG_clean_sbu_0, # of connection points: 6
#     Node 29, Type 0, BuildingBlock: OJICUG_clean_sbu_0, # of connection points: 6
#     Node 30, Type 0, BuildingBlock: OJICUG_clean_sbu_0, # of connection points: 6
#     Node 31, Type 0, BuildingBlock: OJICUG_clean_sbu_0, # of connection points: 6
#     Node 32, Type 0, BuildingBlock: OJICUG_clean_sbu_0, # of connection points: 6
#     Node 33, Type 0, BuildingBlock: OJICUG_clean_sbu_0, # of connection points: 6
#     Node 34, Type 0, BuildingBlock: OJICUG_clean_sbu_0, # of connection points: 6
#     Node 35, Type 0, BuildingBlock: OJICUG_clean_sbu_0, # of connection points: 6
#     Node 36, Type 0, BuildingBlock: OJICUG_clean_sbu_0, # of connection points: 6
#     Node 37, Type 0, BuildingBlock: OJICUG_clean_sbu_0, # of connection points: 6
#     Node 38, Type 0, BuildingBlock: OJICUG_clean_sbu_0, # of connection points: 6
#     Node 39, Type 0, BuildingBlock: OJICUG_clean_sbu_0, # of connection points: 6
#     Node 40, Type 0, BuildingBlock: OJICUG_clean_sbu_0, # of connection points: 6
#     Node 41, Type 0, BuildingBlock: OJICUG_clean_sbu_0, # of connection points: 6
#     Node 42, Type 0, BuildingBlock: OJICUG_clean_sbu_0, # of connection points: 6
#     Node 43, Type 0, BuildingBlock: OJICUG_clean_sbu_0, # of connection points: 6
#     Node 44, Type 0, BuildingBlock: OJICUG_clean_sbu_0, # of connection points: 6
#     Node 45, Type 0, BuildingBlock: OJICUG_clean_sbu_0, # of connection points: 6
#     Node 46, Type 0, BuildingBlock: OJICUG_clean_sbu_0, # of connection points: 6
#     Node 47, Type 0, BuildingBlock: OJICUG_clean_sbu_0, # of connection points: 6
#     Node 48, Type 0, BuildingBlock: OJICUG_clean_sbu_0, # of connection points: 6
#     Node 49, Type 0, BuildingBlock: OJICUG_clean_sbu_0, # of connection points: 6
#     Node 50, Type 0, BuildingBlock: OJICUG_clean_sbu_0, # of connection points: 6
#     Node 51, Type 0, BuildingBlock: OJICUG_clean_sbu_0, # of connection points: 6
#     Node 52, Type 0, BuildingBlock: OJICUG_clean_sbu_0, # of connection points: 6
#     Node 53, Type 0, BuildingBlock: OJICUG_clean_sbu_0, # of connection points: 6
#     Node 54, Type 0, BuildingBlock: OJICUG_clean_sbu_0, # of connection points: 6
#     Node 55, Type 0, BuildingBlock: OJICUG_clean_sbu_0, # of connection points: 6
#     Node 56, Type 0, BuildingBlock: OJICUG_clean_sbu_0, # of connection points: 6
#     Node 57, Type 0, BuildingBlock: OJICUG_clean_sbu_0, # of connection points: 6
#     Node 58, Type 0, BuildingBlock: OJICUG_clean_sbu_0, # of connection points: 6
#     Node 59, Type 0, BuildingBlock: OJICUG_clean_sbu_0, # of connection points: 6
#     Node 60, Type 0, BuildingBlock: OJICUG_clean_sbu_0, # of connection points: 6
#     Node 61, Type 0, BuildingBlock: OJICUG_clean_sbu_0, # of connection points: 6
#     Node 62, Type 0, BuildingBlock: OJICUG_clean_sbu_0, # of connection points: 6
#     Node 63, Type 0, BuildingBlock: OJICUG_clean_sbu_0, # of connection points: 6
#     Node 64, Type 0, BuildingBlock: OJICUG_clean_sbu_0, # of connection points: 6
#     Node 65, Type 0, BuildingBlock: OJICUG_clean_sbu_0, # of connection points: 6
#     Node 66, Type 0, BuildingBlock: OJICUG_clean_sbu_0, # of connection points: 6
#     Node 67, Type 0, BuildingBlock: OJICUG_clean_sbu_0, # of connection points: 6
#     Node 68, Type 0, BuildingBlock: OJICUG_clean_sbu_0, # of connection points: 6
#     Node 69, Type 0, BuildingBlock: OJICUG_clean_sbu_0, # of connection points: 6
#     Node 70, Type 0, BuildingBlock: OJICUG_clean_sbu_0, # of connection points: 6
#     Node 71, Type 0, BuildingBlock: OJICUG_clean_sbu_0, # of connection points: 6
#     Node 72, Type 0, BuildingBlock: OJICUG_clean_sbu_0, # of connection points: 6
#     Node 73, Type 0, BuildingBlock: OJICUG_clean_sbu_0, # of connection points: 6
#     Node 74, Type 0, BuildingBlock: OJICUG_clean_sbu_0, # of connection points: 6
#     Node 75, Type 0, BuildingBlock: OJICUG_clean_sbu_0, # of connection points: 6
#     Node 76, Type 0, BuildingBlock: OJICUG_clean_sbu_0, # of connection points: 6
#     Node 77, Type 0, BuildingBlock: OJICUG_clean_sbu_0, # of connection points: 6
#     Node 78, Type 0, BuildingBlock: OJICUG_clean_sbu_0, # of connection points: 6
#     Node 79, Type 0, BuildingBlock: OJICUG_clean_sbu_0, # of connection points: 6
#     Node 80, Type 0, BuildingBlock: OJICUG_clean_sbu_0, # of connection points: 6
#     Node 81, Type 0, BuildingBlock: OJICUG_clean_sbu_0, # of connection points: 6
#     Node 82, Type 0, BuildingBlock: OJICUG_clean_sbu_0, # of connection points: 6
#     Node 83, Type 0, BuildingBlock: OJICUG_clean_sbu_0, # of connection points: 6
#     Node 84, Type 0, BuildingBlock: OJICUG_clean_sbu_0, # of connection points: 6
#     Node 85, Type 0, BuildingBlock: OJICUG_clean_sbu_0, # of connection points: 6
#     Node 86, Type 0, BuildingBlock: OJICUG_clean_sbu_0, # of connection points: 6
#     Node 87, Type 0, BuildingBlock: OJICUG_clean_sbu_0, # of connection points: 6
#     Node 88, Type 0, BuildingBlock: OJICUG_clean_sbu_0, # of connection points: 6
#     Node 89, Type 0, BuildingBlock: OJICUG_clean_sbu_0, # of connection points: 6
#     Node 90, Type 0, BuildingBlock: OJICUG_clean_sbu_0, # of connection points: 6
#     Node 91, Type 0, BuildingBlock: OJICUG_clean_sbu_0, # of connection points: 6
#     Node 92, Type 0, BuildingBlock: OJICUG_clean_sbu_0, # of connection points: 6
#     Node 93, Type 0, BuildingBlock: OJICUG_clean_sbu_0, # of connection points: 6
#     Node 94, Type 0, BuildingBlock: OJICUG_clean_sbu_0, # of connection points: 6
#     Node 95, Type 0, BuildingBlock: OJICUG_clean_sbu_0, # of connection points: 6
#     Edge 96, Type (0, 0), BuildingBlock: OJICUG_clean_linker_0, # of connection points: 2
#     Edge 97, Type (0, 0), BuildingBlock: OJICUG_clean_linker_0, # of connection points: 2
#     Edge 98, Type (0, 0), BuildingBlock: OJICUG_clean_linker_0, # of connection points: 2
#     Edge 99, Type (0, 0), BuildingBlock: OJICUG_clean_linker_0, # of connection points: 2
#     Edge 100, Type (0, 0), BuildingBlock: OJICUG_clean_linker_0, # of connection points: 2
#     Edge 101, Type (0, 0), BuildingBlock: OJICUG_clean_linker_0, # of connection points: 2
#     Edge 102, Type (0, 0), BuildingBlock: OJICUG_clean_linker_0, # of connection points: 2
#     Edge 103, Type (0, 0), BuildingBlock: OJICUG_clean_linker_0, # of connection points: 2
#     Edge 104, Type (0, 0), BuildingBlock: OJICUG_clean_linker_0, # of connection points: 2
#     Edge 105, Type (0, 0), BuildingBlock: OJICUG_clean_linker_0, # of connection points: 2
#     Edge 106, Type (0, 0), BuildingBlock: OJICUG_clean_linker_0, # of connection points: 2
#     Edge 107, Type (0, 0), BuildingBlock: OJICUG_clean_linker_0, # of connection points: 2
#     Edge 108, Type (0, 0), BuildingBlock: OJICUG_clean_linker_0, # of connection points: 2
#     Edge 109, Type (0, 0), BuildingBlock: OJICUG_clean_linker_0, # of connection points: 2
#     Edge 110, Type (0, 0), BuildingBlock: OJICUG_clean_linker_0, # of connection points: 2
#     Edge 111, Type (0, 0), BuildingBlock: OJICUG_clean_linker_0, # of connection points: 2
#     Edge 112, Type (0, 0), BuildingBlock: OJICUG_clean_linker_0, # of connection points: 2
#     Edge 113, Type (0, 0), BuildingBlock: OJICUG_clean_linker_0, # of connection points: 2
#     Edge 114, Type (0, 0), BuildingBlock: OJICUG_clean_linker_0, # of connection points: 2
#     Edge 115, Type (0, 0), BuildingBlock: OJICUG_clean_linker_0, # of connection points: 2
#     Edge 116, Type (0, 0), BuildingBlock: OJICUG_clean_linker_0, # of connection points: 2
#     Edge 117, Type (0, 0), BuildingBlock: OJICUG_clean_linker_0, # of connection points: 2
#     Edge 118, Type (0, 0), BuildingBlock: OJICUG_clean_linker_0, # of connection points: 2
#     Edge 119, Type (0, 0), BuildingBlock: OJICUG_clean_linker_0, # of connection points: 2
#     Edge 120, Type (0, 0), BuildingBlock: OJICUG_clean_linker_0, # of connection points: 2
#     Edge 121, Type (0, 0), BuildingBlock: OJICUG_clean_linker_0, # of connection points: 2
#     Edge 122, Type (0, 0), BuildingBlock: OJICUG_clean_linker_0, # of connection points: 2
#     Edge 123, Type (0, 0), BuildingBlock: OJICUG_clean_linker_0, # of connection points: 2
#     Edge 124, Type (0, 0), BuildingBlock: OJICUG_clean_linker_0, # of connection points: 2
#     Edge 125, Type (0, 0), BuildingBlock: OJICUG_clean_linker_0, # of connection points: 2
#     Edge 126, Type (0, 0), BuildingBlock: OJICUG_clean_linker_0, # of connection points: 2
#     Edge 127, Type (0, 0), BuildingBlock: OJICUG_clean_linker_0, # of connection points: 2
#     Edge 128, Type (0, 0), BuildingBlock: OJICUG_clean_linker_0, # of connection points: 2
#     Edge 129, Type (0, 0), BuildingBlock: OJICUG_clean_linker_0, # of connection points: 2
#     Edge 130, Type (0, 0), BuildingBlock: OJICUG_clean_linker_0, # of connection points: 2
#     Edge 131, Type (0, 0), BuildingBlock: OJICUG_clean_linker_0, # of connection points: 2
#     Edge 132, Type (0, 0), BuildingBlock: OJICUG_clean_linker_0, # of connection points: 2
#     Edge 133, Type (0, 0), BuildingBlock: OJICUG_clean_linker_0, # of connection points: 2
#     Edge 134, Type (0, 0), BuildingBlock: OJICUG_clean_linker_0, # of connection points: 2
#     Edge 135, Type (0, 0), BuildingBlock: OJICUG_clean_linker_0, # of connection points: 2
#     Edge 136, Type (0, 0), BuildingBlock: OJICUG_clean_linker_0, # of connection points: 2
#     Edge 137, Type (0, 0), BuildingBlock: OJICUG_clean_linker_0, # of connection points: 2
#     Edge 138, Type (0, 0), BuildingBlock: OJICUG_clean_linker_0, # of connection points: 2
#     Edge 139, Type (0, 0), BuildingBlock: OJICUG_clean_linker_0, # of connection points: 2
#     Edge 140, Type (0, 0), BuildingBlock: OJICUG_clean_linker_0, # of connection points: 2
#     Edge 141, Type (0, 0), BuildingBlock: OJICUG_clean_linker_0, # of connection points: 2
#     Edge 142, Type (0, 0), BuildingBlock: OJICUG_clean_linker_0, # of connection points: 2
#     Edge 143, Type (0, 0), BuildingBlock: OJICUG_clean_linker_0, # of connection points: 2
#     Edge 144, Type (0, 0), BuildingBlock: OJICUG_clean_linker_0, # of connection points: 2
#     Edge 145, Type (0, 0), BuildingBlock: OJICUG_clean_linker_0, # of connection points: 2
#     Edge 146, Type (0, 0), BuildingBlock: OJICUG_clean_linker_0, # of connection points: 2
#     Edge 147, Type (0, 0), BuildingBlock: OJICUG_clean_linker_0, # of connection points: 2
#     Edge 148, Type (0, 0), BuildingBlock: OJICUG_clean_linker_0, # of connection points: 2
#     Edge 149, Type (0, 0), BuildingBlock: OJICUG_clean_linker_0, # of connection points: 2
#     Edge 150, Type (0, 0), BuildingBlock: OJICUG_clean_linker_0, # of connection points: 2
#     Edge 151, Type (0, 0), BuildingBlock: OJICUG_clean_linker_0, # of connection points: 2
#     Edge 152, Type (0, 0), BuildingBlock: OJICUG_clean_linker_0, # of connection points: 2
#     Edge 153, Type (0, 0), BuildingBlock: OJICUG_clean_linker_0, # of connection points: 2
#     Edge 154, Type (0, 0), BuildingBlock: OJICUG_clean_linker_0, # of connection points: 2
#     Edge 155, Type (0, 0), BuildingBlock: OJICUG_clean_linker_0, # of connection points: 2
#     Edge 156, Type (0, 0), BuildingBlock: OJICUG_clean_linker_0, # of connection points: 2
#     Edge 157, Type (0, 0), BuildingBlock: OJICUG_clean_linker_0, # of connection points: 2
#     Edge 158, Type (0, 0), BuildingBlock: OJICUG_clean_linker_0, # of connection points: 2
#     Edge 159, Type (0, 0), BuildingBlock: OJICUG_clean_linker_0, # of connection points: 2
#     Edge 160, Type (0, 0), BuildingBlock: OJICUG_clean_linker_0, # of connection points: 2
#     Edge 161, Type (0, 0), BuildingBlock: OJICUG_clean_linker_0, # of connection points: 2
#     Edge 162, Type (0, 0), BuildingBlock: OJICUG_clean_linker_0, # of connection points: 2
#     Edge 163, Type (0, 0), BuildingBlock: OJICUG_clean_linker_0, # of connection points: 2
#     Edge 164, Type (0, 0), BuildingBlock: OJICUG_clean_linker_0, # of connection points: 2
#     Edge 165, Type (0, 0), BuildingBlock: OJICUG_clean_linker_0, # of connection points: 2
#     Edge 166, Type (0, 0), BuildingBlock: OJICUG_clean_linker_0, # of connection points: 2
#     Edge 167, Type (0, 0), BuildingBlock: OJICUG_clean_linker_0, # of connection points: 2
#     Edge 168, Type (0, 0), BuildingBlock: OJICUG_clean_linker_0, # of connection points: 2
#     Edge 169, Type (0, 0), BuildingBlock: OJICUG_clean_linker_0, # of connection points: 2
#     Edge 170, Type (0, 0), BuildingBlock: OJICUG_clean_linker_0, # of connection points: 2
#     Edge 171, Type (0, 0), BuildingBlock: OJICUG_clean_linker_0, # of connection points: 2
#     Edge 172, Type (0, 0), BuildingBlock: OJICUG_clean_linker_0, # of connection points: 2
#     Edge 173, Type (0, 0), BuildingBlock: OJICUG_clean_linker_0, # of connection points: 2
#     Edge 174, Type (0, 0), BuildingBlock: OJICUG_clean_linker_0, # of connection points: 2
#     Edge 175, Type (0, 0), BuildingBlock: OJICUG_clean_linker_0, # of connection points: 2
#     Edge 176, Type (0, 0), BuildingBlock: OJICUG_clean_linker_0, # of connection points: 2
#     Edge 177, Type (0, 0), BuildingBlock: OJICUG_clean_linker_0, # of connection points: 2
#     Edge 178, Type (0, 0), BuildingBlock: OJICUG_clean_linker_0, # of connection points: 2
#     Edge 179, Type (0, 0), BuildingBlock: OJICUG_clean_linker_0, # of connection points: 2
#     Edge 180, Type (0, 0), BuildingBlock: OJICUG_clean_linker_0, # of connection points: 2
#     Edge 181, Type (0, 0), BuildingBlock: OJICUG_clean_linker_0, # of connection points: 2
#     Edge 182, Type (0, 0), BuildingBlock: OJICUG_clean_linker_0, # of connection points: 2
#     Edge 183, Type (0, 0), BuildingBlock: OJICUG_clean_linker_0, # of connection points: 2
#     Edge 184, Type (0, 0), BuildingBlock: OJICUG_clean_linker_0, # of connection points: 2
#     Edge 185, Type (0, 0), BuildingBlock: OJICUG_clean_linker_0, # of connection points: 2
#     Edge 186, Type (0, 0), BuildingBlock: OJICUG_clean_linker_0, # of connection points: 2
#     Edge 187, Type (0, 0), BuildingBlock: OJICUG_clean_linker_0, # of connection points: 2
#     Edge 188, Type (0, 0), BuildingBlock: OJICUG_clean_linker_0, # of connection points: 2
#     Edge 189, Type (0, 0), BuildingBlock: OJICUG_clean_linker_0, # of connection points: 2
#     Edge 190, Type (0, 0), BuildingBlock: OJICUG_clean_linker_0, # of connection points: 2
#     Edge 191, Type (0, 0), BuildingBlock: OJICUG_clean_linker_0, # of connection points: 2
#     Edge 192, Type (0, 0), BuildingBlock: OJICUG_clean_linker_0, # of connection points: 2
#     Edge 193, Type (0, 0), BuildingBlock: OJICUG_clean_linker_0, # of connection points: 2
#     Edge 194, Type (0, 0), BuildingBlock: OJICUG_clean_linker_0, # of connection points: 2
#     Edge 195, Type (0, 0), BuildingBlock: OJICUG_clean_linker_0, # of connection points: 2
#     Edge 196, Type (0, 0), BuildingBlock: OJICUG_clean_linker_0, # of connection points: 2
#     Edge 197, Type (0, 0), BuildingBlock: OJICUG_clean_linker_0, # of connection points: 2
#     Edge 198, Type (0, 0), BuildingBlock: OJICUG_clean_linker_0, # of connection points: 2
#     Edge 199, Type (0, 0), BuildingBlock: OJICUG_clean_linker_0, # of connection points: 2
#     Edge 200, Type (0, 0), BuildingBlock: OJICUG_clean_linker_0, # of connection points: 2
#     Edge 201, Type (0, 0), BuildingBlock: OJICUG_clean_linker_0, # of connection points: 2
#     Edge 202, Type (0, 0), BuildingBlock: OJICUG_clean_linker_0, # of connection points: 2
#     Edge 203, Type (0, 0), BuildingBlock: OJICUG_clean_linker_0, # of connection points: 2
#     Edge 204, Type (0, 0), BuildingBlock: OJICUG_clean_linker_0, # of connection points: 2
#     Edge 205, Type (0, 0), BuildingBlock: OJICUG_clean_linker_0, # of connection points: 2
#     Edge 206, Type (0, 0), BuildingBlock: OJICUG_clean_linker_0, # of connection points: 2
#     Edge 207, Type (0, 0), BuildingBlock: OJICUG_clean_linker_0, # of connection points: 2
#     Edge 208, Type (0, 0), BuildingBlock: OJICUG_clean_linker_0, # of connection points: 2
#     Edge 209, Type (0, 0), BuildingBlock: OJICUG_clean_linker_0, # of connection points: 2
#     Edge 210, Type (0, 0), BuildingBlock: OJICUG_clean_linker_0, # of connection points: 2
#     Edge 211, Type (0, 0), BuildingBlock: OJICUG_clean_linker_0, # of connection points: 2
#     Edge 212, Type (0, 0), BuildingBlock: OJICUG_clean_linker_0, # of connection points: 2
#     Edge 213, Type (0, 0), BuildingBlock: OJICUG_clean_linker_0, # of connection points: 2
#     Edge 214, Type (0, 0), BuildingBlock: OJICUG_clean_linker_0, # of connection points: 2
#     Edge 215, Type (0, 0), BuildingBlock: OJICUG_clean_linker_0, # of connection points: 2
#     Edge 216, Type (0, 0), BuildingBlock: OJICUG_clean_linker_0, # of connection points: 2
#     Edge 217, Type (0, 0), BuildingBlock: OJICUG_clean_linker_0, # of connection points: 2
#     Edge 218, Type (0, 0), BuildingBlock: OJICUG_clean_linker_0, # of connection points: 2
#     Edge 219, Type (0, 0), BuildingBlock: OJICUG_clean_linker_0, # of connection points: 2
#     Edge 220, Type (0, 0), BuildingBlock: OJICUG_clean_linker_0, # of connection points: 2
#     Edge 221, Type (0, 0), BuildingBlock: OJICUG_clean_linker_0, # of connection points: 2
#     Edge 222, Type (0, 0), BuildingBlock: OJICUG_clean_linker_0, # of connection points: 2
#     Edge 223, Type (0, 0), BuildingBlock: OJICUG_clean_linker_0, # of connection points: 2
#     Edge 224, Type (0, 0), BuildingBlock: OJICUG_clean_linker_0, # of connection points: 2
#     Edge 225, Type (0, 0), BuildingBlock: OJICUG_clean_linker_0, # of connection points: 2
#     Edge 226, Type (0, 0), BuildingBlock: OJICUG_clean_linker_0, # of connection points: 2
#     Edge 227, Type (0, 0), BuildingBlock: OJICUG_clean_linker_0, # of connection points: 2
#     Edge 228, Type (0, 0), BuildingBlock: OJICUG_clean_linker_0, # of connection points: 2
#     Edge 229, Type (0, 0), BuildingBlock: OJICUG_clean_linker_0, # of connection points: 2
#     Edge 230, Type (0, 0), BuildingBlock: OJICUG_clean_linker_0, # of connection points: 2
#     Edge 231, Type (0, 0), BuildingBlock: OJICUG_clean_linker_0, # of connection points: 2
#     Edge 232, Type (0, 0), BuildingBlock: OJICUG_clean_linker_0, # of connection points: 2
#     Edge 233, Type (0, 0), BuildingBlock: OJICUG_clean_linker_0, # of connection points: 2
#     Edge 234, Type (0, 0), BuildingBlock: OJICUG_clean_linker_0, # of connection points: 2
#     Edge 235, Type (0, 0), BuildingBlock: OJICUG_clean_linker_0, # of connection points: 2
#     Edge 236, Type (0, 0), BuildingBlock: OJICUG_clean_linker_0, # of connection points: 2
#     Edge 237, Type (0, 0), BuildingBlock: OJICUG_clean_linker_0, # of connection points: 2
#     Edge 238, Type (0, 0), BuildingBlock: OJICUG_clean_linker_0, # of connection points: 2
#     Edge 239, Type (0, 0), BuildingBlock: OJICUG_clean_linker_0, # of connection points: 2
#     Edge 240, Type (0, 0), BuildingBlock: OJICUG_clean_linker_0, # of connection points: 2
#     Edge 241, Type (0, 0), BuildingBlock: OJICUG_clean_linker_0, # of connection points: 2
#     Edge 242, Type (0, 0), BuildingBlock: OJICUG_clean_linker_0, # of connection points: 2
#     Edge 243, Type (0, 0), BuildingBlock: OJICUG_clean_linker_0, # of connection points: 2
#     Edge 244, Type (0, 0), BuildingBlock: OJICUG_clean_linker_0, # of connection points: 2
#     Edge 245, Type (0, 0), BuildingBlock: OJICUG_clean_linker_0, # of connection points: 2
#     Edge 246, Type (0, 0), BuildingBlock: OJICUG_clean_linker_0, # of connection points: 2
#     Edge 247, Type (0, 0), BuildingBlock: OJICUG_clean_linker_0, # of connection points: 2
#     Edge 248, Type (0, 0), BuildingBlock: OJICUG_clean_linker_0, # of connection points: 2
#     Edge 249, Type (0, 0), BuildingBlock: OJICUG_clean_linker_0, # of connection points: 2
#     Edge 250, Type (0, 0), BuildingBlock: OJICUG_clean_linker_0, # of connection points: 2
#     Edge 251, Type (0, 0), BuildingBlock: OJICUG_clean_linker_0, # of connection points: 2
#     Edge 252, Type (0, 0), BuildingBlock: OJICUG_clean_linker_0, # of connection points: 2
#     Edge 253, Type (0, 0), BuildingBlock: OJICUG_clean_linker_0, # of connection points: 2
#     Edge 254, Type (0, 0), BuildingBlock: OJICUG_clean_linker_0, # of connection points: 2
#     Edge 255, Type (0, 0), BuildingBlock: OJICUG_clean_linker_0, # of connection points: 2
#     Edge 256, Type (0, 0), BuildingBlock: OJICUG_clean_linker_0, # of connection points: 2
#     Edge 257, Type (0, 0), BuildingBlock: OJICUG_clean_linker_0, # of connection points: 2
#     Edge 258, Type (0, 0), BuildingBlock: OJICUG_clean_linker_0, # of connection points: 2
#     Edge 259, Type (0, 0), BuildingBlock: OJICUG_clean_linker_0, # of connection points: 2
#     Edge 260, Type (0, 0), BuildingBlock: OJICUG_clean_linker_0, # of connection points: 2
#     Edge 261, Type (0, 0), BuildingBlock: OJICUG_clean_linker_0, # of connection points: 2
#     Edge 262, Type (0, 0), BuildingBlock: OJICUG_clean_linker_0, # of connection points: 2
#     Edge 263, Type (0, 0), BuildingBlock: OJICUG_clean_linker_0, # of connection points: 2
#     Edge 264, Type (0, 0), BuildingBlock: OJICUG_clean_linker_0, # of connection points: 2
#     Edge 265, Type (0, 0), BuildingBlock: OJICUG_clean_linker_0, # of connection points: 2
#     Edge 266, Type (0, 0), BuildingBlock: OJICUG_clean_linker_0, # of connection points: 2
#     Edge 267, Type (0, 0), BuildingBlock: OJICUG_clean_linker_0, # of connection points: 2
#     Edge 268, Type (0, 0), BuildingBlock: OJICUG_clean_linker_0, # of connection points: 2
#     Edge 269, Type (0, 0), BuildingBlock: OJICUG_clean_linker_0, # of connection points: 2
#     Edge 270, Type (0, 0), BuildingBlock: OJICUG_clean_linker_0, # of connection points: 2
#     Edge 271, Type (0, 0), BuildingBlock: OJICUG_clean_linker_0, # of connection points: 2
#     Edge 272, Type (0, 0), BuildingBlock: OJICUG_clean_linker_0, # of connection points: 2
#     Edge 273, Type (0, 0), BuildingBlock: OJICUG_clean_linker_0, # of connection points: 2
#     Edge 274, Type (0, 0), BuildingBlock: OJICUG_clean_linker_0, # of connection points: 2
#     Edge 275, Type (0, 0), BuildingBlock: OJICUG_clean_linker_0, # of connection points: 2
#     Edge 276, Type (0, 0), BuildingBlock: OJICUG_clean_linker_0, # of connection points: 2
#     Edge 277, Type (0, 0), BuildingBlock: OJICUG_clean_linker_0, # of connection points: 2
#     Edge 278, Type (0, 0), BuildingBlock: OJICUG_clean_linker_0, # of connection points: 2
#     Edge 279, Type (0, 0), BuildingBlock: OJICUG_clean_linker_0, # of connection points: 2
#     Edge 280, Type (0, 0), BuildingBlock: OJICUG_clean_linker_0, # of connection points: 2
#     Edge 281, Type (0, 0), BuildingBlock: OJICUG_clean_linker_0, # of connection points: 2
#     Edge 282, Type (0, 0), BuildingBlock: OJICUG_clean_linker_0, # of connection points: 2
#     Edge 283, Type (0, 0), BuildingBlock: OJICUG_clean_linker_0, # of connection points: 2
#     Edge 284, Type (0, 0), BuildingBlock: OJICUG_clean_linker_0, # of connection points: 2
#     Edge 285, Type (0, 0), BuildingBlock: OJICUG_clean_linker_0, # of connection points: 2
#     Edge 286, Type (0, 0), BuildingBlock: OJICUG_clean_linker_0, # of connection points: 2
#     Edge 287, Type (0, 0), BuildingBlock: OJICUG_clean_linker_0, # of connection points: 2
#     Edge 288, Type (0, 0), BuildingBlock: OJICUG_clean_linker_0, # of connection points: 2
#     Edge 289, Type (0, 0), BuildingBlock: OJICUG_clean_linker_0, # of connection points: 2
#     Edge 290, Type (0, 0), BuildingBlock: OJICUG_clean_linker_0, # of connection points: 2
#     Edge 291, Type (0, 0), BuildingBlock: OJICUG_clean_linker_0, # of connection points: 2
#     Edge 292, Type (0, 0), BuildingBlock: OJICUG_clean_linker_0, # of connection points: 2
#     Edge 293, Type (0, 0), BuildingBlock: OJICUG_clean_linker_0, # of connection points: 2
#     Edge 294, Type (0, 0), BuildingBlock: OJICUG_clean_linker_0, # of connection points: 2
#     Edge 295, Type (0, 0), BuildingBlock: OJICUG_clean_linker_0, # of connection points: 2
#     Edge 296, Type (0, 0), BuildingBlock: OJICUG_clean_linker_0, # of connection points: 2
#     Edge 297, Type (0, 0), BuildingBlock: OJICUG_clean_linker_0, # of connection points: 2
#     Edge 298, Type (0, 0), BuildingBlock: OJICUG_clean_linker_0, # of connection points: 2
#     Edge 299, Type (0, 0), BuildingBlock: OJICUG_clean_linker_0, # of connection points: 2
#     Edge 300, Type (0, 0), BuildingBlock: OJICUG_clean_linker_0, # of connection points: 2
#     Edge 301, Type (0, 0), BuildingBlock: OJICUG_clean_linker_0, # of connection points: 2
#     Edge 302, Type (0, 0), BuildingBlock: OJICUG_clean_linker_0, # of connection points: 2
#     Edge 303, Type (0, 0), BuildingBlock: OJICUG_clean_linker_0, # of connection points: 2
#     Edge 304, Type (0, 0), BuildingBlock: OJICUG_clean_linker_0, # of connection points: 2
#     Edge 305, Type (0, 0), BuildingBlock: OJICUG_clean_linker_0, # of connection points: 2
#     Edge 306, Type (0, 0), BuildingBlock: OJICUG_clean_linker_0, # of connection points: 2
#     Edge 307, Type (0, 0), BuildingBlock: OJICUG_clean_linker_0, # of connection points: 2
#     Edge 308, Type (0, 0), BuildingBlock: OJICUG_clean_linker_0, # of connection points: 2
#     Edge 309, Type (0, 0), BuildingBlock: OJICUG_clean_linker_0, # of connection points: 2
#     Edge 310, Type (0, 0), BuildingBlock: OJICUG_clean_linker_0, # of connection points: 2
#     Edge 311, Type (0, 0), BuildingBlock: OJICUG_clean_linker_0, # of connection points: 2
#     Edge 312, Type (0, 0), BuildingBlock: OJICUG_clean_linker_0, # of connection points: 2
#     Edge 313, Type (0, 0), BuildingBlock: OJICUG_clean_linker_0, # of connection points: 2
#     Edge 314, Type (0, 0), BuildingBlock: OJICUG_clean_linker_0, # of connection points: 2
#     Edge 315, Type (0, 0), BuildingBlock: OJICUG_clean_linker_0, # of connection points: 2
#     Edge 316, Type (0, 0), BuildingBlock: OJICUG_clean_linker_0, # of connection points: 2
#     Edge 317, Type (0, 0), BuildingBlock: OJICUG_clean_linker_0, # of connection points: 2
#     Edge 318, Type (0, 0), BuildingBlock: OJICUG_clean_linker_0, # of connection points: 2
#     Edge 319, Type (0, 0), BuildingBlock: OJICUG_clean_linker_0, # of connection points: 2
#     Edge 320, Type (0, 0), BuildingBlock: OJICUG_clean_linker_0, # of connection points: 2
#     Edge 321, Type (0, 0), BuildingBlock: OJICUG_clean_linker_0, # of connection points: 2
#     Edge 322, Type (0, 0), BuildingBlock: OJICUG_clean_linker_0, # of connection points: 2
#     Edge 323, Type (0, 0), BuildingBlock: OJICUG_clean_linker_0, # of connection points: 2
#     Edge 324, Type (0, 0), BuildingBlock: OJICUG_clean_linker_0, # of connection points: 2
#     Edge 325, Type (0, 0), BuildingBlock: OJICUG_clean_linker_0, # of connection points: 2
#     Edge 326, Type (0, 0), BuildingBlock: OJICUG_clean_linker_0, # of connection points: 2
#     Edge 327, Type (0, 0), BuildingBlock: OJICUG_clean_linker_0, # of connection points: 2
#     Edge 328, Type (0, 0), BuildingBlock: OJICUG_clean_linker_0, # of connection points: 2
#     Edge 329, Type (0, 0), BuildingBlock: OJICUG_clean_linker_0, # of connection points: 2
#     Edge 330, Type (0, 0), BuildingBlock: OJICUG_clean_linker_0, # of connection points: 2
#     Edge 331, Type (0, 0), BuildingBlock: OJICUG_clean_linker_0, # of connection points: 2
#     Edge 332, Type (0, 0), BuildingBlock: OJICUG_clean_linker_0, # of connection points: 2
#     Edge 333, Type (0, 0), BuildingBlock: OJICUG_clean_linker_0, # of connection points: 2
#     Edge 334, Type (0, 0), BuildingBlock: OJICUG_clean_linker_0, # of connection points: 2
#     Edge 335, Type (0, 0), BuildingBlock: OJICUG_clean_linker_0, # of connection points: 2
#     Edge 336, Type (0, 0), BuildingBlock: OJICUG_clean_linker_0, # of connection points: 2
#     Edge 337, Type (0, 0), BuildingBlock: OJICUG_clean_linker_0, # of connection points: 2
#     Edge 338, Type (0, 0), BuildingBlock: OJICUG_clean_linker_0, # of connection points: 2
#     Edge 339, Type (0, 0), BuildingBlock: OJICUG_clean_linker_0, # of connection points: 2
#     Edge 340, Type (0, 0), BuildingBlock: OJICUG_clean_linker_0, # of connection points: 2
#     Edge 341, Type (0, 0), BuildingBlock: OJICUG_clean_linker_0, # of connection points: 2
#     Edge 342, Type (0, 0), BuildingBlock: OJICUG_clean_linker_0, # of connection points: 2
#     Edge 343, Type (0, 0), BuildingBlock: OJICUG_clean_linker_0, # of connection points: 2
#     Edge 344, Type (0, 0), BuildingBlock: OJICUG_clean_linker_0, # of connection points: 2
#     Edge 345, Type (0, 0), BuildingBlock: OJICUG_clean_linker_0, # of connection points: 2
#     Edge 346, Type (0, 0), BuildingBlock: OJICUG_clean_linker_0, # of connection points: 2
#     Edge 347, Type (0, 0), BuildingBlock: OJICUG_clean_linker_0, # of connection points: 2
#     Edge 348, Type (0, 0), BuildingBlock: OJICUG_clean_linker_0, # of connection points: 2
#     Edge 349, Type (0, 0), BuildingBlock: OJICUG_clean_linker_0, # of connection points: 2
#     Edge 350, Type (0, 0), BuildingBlock: OJICUG_clean_linker_0, # of connection points: 2
#     Edge 351, Type (0, 0), BuildingBlock: OJICUG_clean_linker_0, # of connection points: 2
#     Edge 352, Type (0, 0), BuildingBlock: OJICUG_clean_linker_0, # of connection points: 2
#     Edge 353, Type (0, 0), BuildingBlock: OJICUG_clean_linker_0, # of connection points: 2
#     Edge 354, Type (0, 0), BuildingBlock: OJICUG_clean_linker_0, # of connection points: 2
#     Edge 355, Type (0, 0), BuildingBlock: OJICUG_clean_linker_0, # of connection points: 2
#     Edge 356, Type (0, 0), BuildingBlock: OJICUG_clean_linker_0, # of connection points: 2
#     Edge 357, Type (0, 0), BuildingBlock: OJICUG_clean_linker_0, # of connection points: 2
#     Edge 358, Type (0, 0), BuildingBlock: OJICUG_clean_linker_0, # of connection points: 2
#     Edge 359, Type (0, 0), BuildingBlock: OJICUG_clean_linker_0, # of connection points: 2
#     Edge 360, Type (0, 0), BuildingBlock: OJICUG_clean_linker_0, # of connection points: 2
#     Edge 361, Type (0, 0), BuildingBlock: OJICUG_clean_linker_0, # of connection points: 2
#     Edge 362, Type (0, 0), BuildingBlock: OJICUG_clean_linker_0, # of connection points: 2
#     Edge 363, Type (0, 0), BuildingBlock: OJICUG_clean_linker_0, # of connection points: 2
#     Edge 364, Type (0, 0), BuildingBlock: OJICUG_clean_linker_0, # of connection points: 2
#     Edge 365, Type (0, 0), BuildingBlock: OJICUG_clean_linker_0, # of connection points: 2
#     Edge 366, Type (0, 0), BuildingBlock: OJICUG_clean_linker_0, # of connection points: 2
#     Edge 367, Type (0, 0), BuildingBlock: OJICUG_clean_linker_0, # of connection points: 2
#     Edge 368, Type (0, 0), BuildingBlock: OJICUG_clean_linker_0, # of connection points: 2
#     Edge 369, Type (0, 0), BuildingBlock: OJICUG_clean_linker_0, # of connection points: 2
#     Edge 370, Type (0, 0), BuildingBlock: OJICUG_clean_linker_0, # of connection points: 2
#     Edge 371, Type (0, 0), BuildingBlock: OJICUG_clean_linker_0, # of connection points: 2
#     Edge 372, Type (0, 0), BuildingBlock: OJICUG_clean_linker_0, # of connection points: 2
#     Edge 373, Type (0, 0), BuildingBlock: OJICUG_clean_linker_0, # of connection points: 2
#     Edge 374, Type (0, 0), BuildingBlock: OJICUG_clean_linker_0, # of connection points: 2
#     Edge 375, Type (0, 0), BuildingBlock: OJICUG_clean_linker_0, # of connection points: 2
#     Edge 376, Type (0, 0), BuildingBlock: OJICUG_clean_linker_0, # of connection points: 2
#     Edge 377, Type (0, 0), BuildingBlock: OJICUG_clean_linker_0, # of connection points: 2
#     Edge 378, Type (0, 0), BuildingBlock: OJICUG_clean_linker_0, # of connection points: 2
#     Edge 379, Type (0, 0), BuildingBlock: OJICUG_clean_linker_0, # of connection points: 2
#     Edge 380, Type (0, 0), BuildingBlock: OJICUG_clean_linker_0, # of connection points: 2
#     Edge 381, Type (0, 0), BuildingBlock: OJICUG_clean_linker_0, # of connection points: 2
#     Edge 382, Type (0, 0), BuildingBlock: OJICUG_clean_linker_0, # of connection points: 2
#     Edge 383, Type (0, 0), BuildingBlock: OJICUG_clean_linker_0, # of connection points: 2
# Relax obj value: 0.563
# Max RMSD: 0.245
# Mean RMSD: 0.245
data_MOF--net-dia-j--node1-OJICUG_clean_sbu_0--edge1-OJICUG_clean_linker_0
_symmetry_space_group_name_H-M    P1
_symmetry_Int_Tables_number       1
_symmetry_cell_setting            triclinic
loop_
_symmetry_equiv_pos_as_xyz
'x, y, z'
_cell_length_a     61.026738
_cell_length_b     61.029418
_cell_length_c     61.03038
_cell_angle_alpha  90.001735
_cell_angle_beta   89.998934
_cell_angle_gamma 89.998626
loop_
_atom_site_label
_atom_site_type_symbol
_atom_site_fract_x
_atom_site_fract_y
_atom_site_fract_z
_atom_type_partial_charge
Sc0 Sc 0.03299 0.03287 0.40958 0.0
Sc1 Sc 0.06929 0.06894 0.38297 0.0
Sc2 Sc 0.06713 0.06683 0.44092 0.0
O3 O 0.05645 0.05619 0.41112 0.0
C4 C 0.01584 0.06179 0.44956 0.0
C5 C 0.01885 0.06477 0.37055 0.0
C6 C 0.06294 0.11102 0.41362 0.0
C7 C 0.06491 0.01851 0.37064 0.0
C8 C 0.06178 0.01558 0.44959 0.0
C9 C 0.11133 0.06242 0.41367 0.0
O10 O 0.01286 0.04837 0.43393 0.0
O11 O 0.03774 0.07303 0.36754 0.0
O12 O 0.06479 0.10044 0.4314 0.0
O13 O 0.05048 0.01472 0.38515 0.0
O14 O 0.07003 0.03418 0.45403 0.0
O15 O 0.10249 0.06427 0.39489 0.0
O16 O 0.04836 0.01267 0.43395 0.0
O17 O 0.0733 0.03735 0.36763 0.0
O18 O 0.10073 0.06427 0.43144 0.0
O19 O 0.01495 0.05044 0.38513 0.0
O20 O 0.03448 0.06994 0.454 0.0
O21 O 0.0647 0.10215 0.39484 0.0
Sc22 Sc 0.00619 0.317 0.69067 0.0
Sc23 Sc 0.00406 0.31912 0.63272 0.0
Sc24 Sc 0.04042 0.28312 0.65934 0.0
O25 O 0.01691 0.30639 0.66088 0.0
C26 C 0.0575 0.31204 0.69933 0.0
C27 C 0.01038 0.3612 0.66341 0.0
C28 C 0.05452 0.31507 0.62033 0.0
C29 C 0.96201 0.31254 0.66341 0.0
C30 C 0.01161 0.26574 0.6993 0.0
C31 C 0.00853 0.2687 0.62039 0.0
O32 O 0.03883 0.32013 0.70378 0.0
O33 O 0.00862 0.35233 0.64463 0.0
O34 O 0.05844 0.30074 0.63491 0.0
O35 O 0.9726 0.31441 0.68119 0.0
O36 O 0.02508 0.26288 0.68369 0.0
O37 O 0.0001 0.28752 0.61738 0.0
O38 O 0.00332 0.28432 0.70374 0.0
O39 O 0.97086 0.31439 0.64464 0.0
O40 O 0.02297 0.26495 0.63491 0.0
O41 O 0.00851 0.35061 0.68119 0.0
O42 O 0.06051 0.29865 0.68369 0.0
O43 O 0.0356 0.32327 0.6173 0.0
Sc44 Sc 0.75659 0.25667 0.941 0.0
Sc45 Sc 0.75437 0.25454 0.88305 0.0
Sc46 Sc 0.79089 0.29043 0.90961 0.0
O47 O 0.76731 0.26724 0.91119 0.0
C48 C 0.76222 0.30791 0.94963 0.0
C49 C 0.71239 0.26125 0.91378 0.0
C50 C 0.75899 0.30493 0.87069 0.0
C51 C 0.76062 0.21245 0.91372 0.0
C52 C 0.80792 0.26148 0.94961 0.0
C53 C 0.80482 0.25843 0.87058 0.0
O54 O 0.75386 0.28936 0.95407 0.0
O55 O 0.72121 0.25934 0.895 0.0
O56 O 0.77348 0.30865 0.88518 0.0
O57 O 0.75879 0.22305 0.9315 0.0
O58 O 0.81096 0.27486 0.93396 0.0
O59 O 0.78587 0.2503 0.86758 0.0
O60 O 0.78924 0.25344 0.95407 0.0
O61 O 0.75886 0.22132 0.89495 0.0
O62 O 0.80883 0.27274 0.88516 0.0
O63 O 0.723 0.25938 0.93155 0.0
O64 O 0.77566 0.31073 0.93399 0.0
O65 O 0.75048 0.28615 0.86772 0.0
Sc66 Sc 0.78283 0.04049 0.15953 0.0
Sc67 Sc 0.81911 0.00445 0.13286 0.0
Sc68 Sc 0.81699 0.0065 0.19081 0.0
O69 O 0.80629 0.01717 0.16104 0.0
C70 C 0.81166 0.05775 0.19953 0.0
C71 C 0.81471 0.05488 0.12057 0.0
C72 C 0.86117 0.01093 0.16355 0.0
C73 C 0.76866 0.00861 0.12048 0.0
C74 C 0.76569 0.01155 0.19949 0.0
C75 C 0.81275 0.96234 0.16348 0.0
O76 O 0.79821 0.06066 0.18391 0.0
O77 O 0.8231 0.03606 0.11754 0.0
O78 O 0.85058 0.00904 0.18132 0.0
O79 O 0.76477 0.02294 0.13507 0.0
O80 O 0.78434 0.0034 0.20392 0.0
O81 O 0.81453 0.97122 0.14472 0.0
O82 O 0.76271 0.02497 0.18387 0.0
O83 O 0.78755 0.00036 0.11745 0.0
O84 O 0.81461 0.9729 0.18128 0.0
O85 O 0.8003 0.05866 0.13511 0.0
O86 O 0.81992 0.03914 0.20394 0.0
O87 O 0.85231 0.00912 0.14477 0.0
Sc88 Sc 0.03262 0.29009 0.91373 0.0
Sc89 Sc 0.06905 0.25413 0.94033 0.0
Sc90 Sc 0.06688 0.25626 0.88238 0.0
O91 O 0.05616 0.26685 0.91218 0.0
C92 C 0.01557 0.26112 0.87375 0.0
C93 C 0.0186 0.25817 0.95279 0.0
C94 C 0.06276 0.21205 0.90966 0.0
C95 C 0.06455 0.30455 0.95265 0.0
C96 C 0.06134 0.3075 0.87372 0.0
C97 C 0.11107 0.26073 0.90962 0.0
O98 O 0.01255 0.27453 0.88939 0.0
O99 O 0.03753 0.25 0.9558 0.0
O100 O 0.06466 0.22264 0.89188 0.0
O101 O 0.05007 0.30829 0.93817 0.0
O102 O 0.06966 0.28893 0.86927 0.0
O103 O 0.10224 0.25882 0.9284 0.0
O104 O 0.04791 0.31035 0.88936 0.0
O105 O 0.07302 0.28575 0.95564 0.0
O106 O 0.10046 0.25893 0.89185 0.0
O107 O 0.01463 0.27247 0.93819 0.0
O108 O 0.03424 0.25304 0.8693 0.0
O109 O 0.06446 0.22092 0.92844 0.0
Sc110 Sc 0.81719 0.31703 0.13275 0.0
Sc111 Sc 0.81937 0.31914 0.1907 0.0
Sc112 Sc 0.78293 0.2832 0.16411 0.0
O113 O 0.80648 0.30643 0.16255 0.0
C114 C 0.76587 0.31217 0.12413 0.0
C115 C 0.81311 0.36124 0.16003 0.0
C116 C 0.76892 0.31514 0.20316 0.0
C117 C 0.86138 0.3125 0.15998 0.0
C118 C 0.81163 0.26579 0.12408 0.0
C119 C 0.81484 0.26874 0.20304 0.0
O120 O 0.78454 0.32026 0.11969 0.0
O121 O 0.81482 0.35236 0.17881 0.0
O122 O 0.76495 0.30083 0.18856 0.0
O123 O 0.85077 0.31433 0.14221 0.0
O124 O 0.79821 0.26293 0.13973 0.0
O125 O 0.82332 0.28753 0.20602 0.0
O126 O 0.81995 0.28436 0.11964 0.0
O127 O 0.85256 0.31441 0.17876 0.0
O128 O 0.80037 0.265 0.18854 0.0
O129 O 0.81498 0.35065 0.14226 0.0
O130 O 0.76285 0.29876 0.13976 0.0
O131 O 0.78785 0.32331 0.20617 0.0
Sc132 Sc 0.75657 0.06695 0.38259 0.0
Sc133 Sc 0.75441 0.06911 0.44053 0.0
Sc134 Sc 0.79062 0.03292 0.41395 0.0
O135 O 0.76723 0.0563 0.41238 0.0
C136 C 0.76181 0.01567 0.37394 0.0
C137 C 0.71237 0.06261 0.40984 0.0
C138 C 0.75869 0.01868 0.45292 0.0
C139 C 0.76083 0.11116 0.40985 0.0
C140 C 0.80786 0.06177 0.37395 0.0
C141 C 0.80484 0.06487 0.45292 0.0
O142 O 0.75361 0.03429 0.36949 0.0
O143 O 0.72122 0.06444 0.42861 0.0
O144 O 0.77309 0.01483 0.43839 0.0
O145 O 0.759 0.10056 0.39207 0.0
O146 O 0.8108 0.04835 0.38959 0.0
O147 O 0.78597 0.07319 0.45592 0.0
O148 O 0.78924 0.06997 0.36951 0.0
O149 O 0.75902 0.1023 0.42862 0.0
O150 O 0.8087 0.05048 0.43839 0.0
O151 O 0.72297 0.06447 0.39206 0.0
O152 O 0.77522 0.01274 0.38958 0.0
O153 O 0.75036 0.03755 0.45592 0.0
Sc154 Sc 0.04059 0.04005 0.66393 0.0
Sc155 Sc 0.00425 0.004 0.69051 0.0
Sc156 Sc 0.00644 0.00614 0.63257 0.0
O157 O 0.01711 0.01675 0.66237 0.0
C158 C 0.01187 0.0574 0.62391 0.0
C159 C 0.00861 0.05443 0.70282 0.0
C160 C 0.96223 0.01057 0.65979 0.0
C161 C 0.05469 0.00812 0.70295 0.0
C162 C 0.05775 0.01111 0.62398 0.0
C163 C 0.01061 0.96193 0.65985 0.0
O164 O 0.02527 0.06028 0.63956 0.0
O165 O 0.00021 0.0356 0.70583 0.0
O166 O 0.97284 0.00876 0.64202 0.0
O167 O 0.05861 0.02245 0.68838 0.0
O168 O 0.0391 0.00298 0.61952 0.0
O169 O 0.00886 0.9708 0.67863 0.0
O170 O 0.06072 0.02454 0.6396 0.0
O171 O 0.03578 -0.0001 0.70598 0.0
O172 O 0.00872 0.97252 0.64207 0.0
O173 O 0.02308 0.0582 0.68834 0.0
O174 O 0.0036 0.03881 0.61945 0.0
O175 O 0.97106 0.00867 0.67857 0.0
Sc176 Sc 0.4409 0.06801 0.06744 0.0
Sc177 Sc 0.38293 0.07014 0.06953 0.0
Sc178 Sc 0.40957 0.03385 0.03349 0.0
O179 O 0.4111 0.05731 0.0568 0.0
C180 C 0.44951 0.06272 0.01618 0.0
C181 C 0.41366 0.11218 0.06298 0.0
C182 C 0.37059 0.06571 0.0191 0.0
C183 C 0.41363 0.06379 0.11162 0.0
C184 C 0.44953 0.01671 0.06244 0.0
C185 C 0.37058 0.01968 0.06544 0.0
O186 O 0.45398 0.07095 0.03478 0.0
O187 O 0.39487 0.10334 0.06477 0.0
O188 O 0.38514 0.05131 0.01533 0.0
O189 O 0.43141 0.06564 0.10103 0.0
O190 O 0.43391 0.01373 0.04901 0.0
O191 O 0.36753 0.03857 0.07368 0.0
O192 O 0.454 0.03536 0.07054 0.0
O193 O 0.39485 0.06557 0.10275 0.0
O194 O 0.38515 0.0158 0.05108 0.0
O195 O 0.43142 0.10159 0.06492 0.0
O196 O 0.4339 0.04925 0.01329 0.0
O197 O 0.36755 0.0741 0.03792 0.0
Sc198 Sc 0.04072 0.65953 0.28324 0.0
Sc199 Sc 0.0043 0.63288 0.31914 0.0
Sc200 Sc 0.00642 0.69084 0.31706 0.0
O201 O 0.01717 0.66105 0.30646 0.0
C202 C 0.05773 0.69952 0.31221 0.0
C203 C 0.05478 0.62051 0.31517 0.0
C204 C 0.01053 0.66354 0.36125 0.0
C205 C 0.00889 0.62057 0.26873 0.0
C206 C 0.01192 0.69948 0.26582 0.0
C207 C 0.96225 0.66356 0.31255 0.0
O208 O 0.06076 0.68389 0.29881 0.0
O209 O 0.03586 0.61746 0.32333 0.0
O210 O 0.00868 0.68132 0.35067 0.0
O211 O 0.02334 0.63509 0.26502 0.0
O212 O 0.0036 0.70393 0.28439 0.0
O213 O 0.9711 0.64479 0.31439 0.0
O214 O 0.02539 0.68387 0.26298 0.0
O215 O 0.0004 0.61755 0.28752 0.0
O216 O 0.97284 0.68134 0.31442 0.0
O217 O 0.05873 0.63511 0.30087 0.0
O218 O 0.03905 0.70396 0.32027 0.0
O219 O 0.0088 0.64476 0.35237 0.0
Sc220 Sc 0.3825 0.25622 0.56729 0.0
Sc221 Sc 0.44046 0.25401 0.56949 0.0
Sc222 Sc 0.41392 0.29018 0.53324 0.0
O223 O 0.41233 0.26683 0.55665 0.0
C224 C 0.37394 0.26133 0.516 0.0
C225 C 0.40971 0.21199 0.56301 0.0
C226 C 0.45291 0.25823 0.51907 0.0
C227 C 0.40972 0.26052 0.61151 0.0
C228 C 0.37392 0.3075 0.56203 0.0
C229 C 0.45287 0.30444 0.56522 0.0
O230 O 0.36945 0.25317 0.53462 0.0
O231 O 0.4285 0.22083 0.5648 0.0
O232 O 0.43836 0.27261 0.51519 0.0
O233 O 0.39195 0.25871 0.60089 0.0
O234 O 0.38958 0.3104 0.54862 0.0
O235 O 0.45586 0.28558 0.57357 0.0
O236 O 0.36944 0.28889 0.57023 0.0
O237 O 0.4285 0.25866 0.60268 0.0
O238 O 0.43836 0.30827 0.55079 0.0
O239 O 0.39195 0.2226 0.56491 0.0
O240 O 0.38958 0.27475 0.51307 0.0
O241 O 0.45591 0.24994 0.53795 0.0
Sc242 Sc 0.81721 0.63269 0.81723 0.0
Sc243 Sc 0.81937 0.69064 0.81943 0.0
Sc244 Sc 0.7829 0.66407 0.7835 0.0
O245 O 0.80647 0.6625 0.8067 0.0
C246 C 0.81165 0.62413 0.76598 0.0
C247 C 0.86139 0.65995 0.81275 0.0
C248 C 0.81481 0.703 0.76904 0.0
C249 C 0.81311 0.65991 0.86148 0.0
C250 C 0.76589 0.62404 0.81241 0.0
C251 C 0.7689 0.70307 0.81551 0.0
O252 O 0.82 0.61966 0.78453 0.0
O253 O 0.85255 0.67872 0.81467 0.0
O254 O 0.80032 0.68852 0.76532 0.0
O255 O 0.81498 0.64214 0.85087 0.0
O256 O 0.76284 0.6397 0.79904 0.0
O257 O 0.78784 0.7061 0.82364 0.0
O258 O 0.78458 0.61958 0.82044 0.0
O259 O 0.81483 0.6787 0.85263 0.0
O260 O 0.76492 0.68848 0.8012 0.0
O261 O 0.8508 0.64217 0.81456 0.0
O262 O 0.79818 0.63975 0.76318 0.0
O263 O 0.8233 0.70598 0.78783 0.0
Sc264 Sc 0.44118 0.25625 0.25642 0.0
Sc265 Sc 0.38323 0.25411 0.25421 0.0
Sc266 Sc 0.40978 0.29025 0.29046 0.0
O267 O 0.41136 0.26689 0.26705 0.0
C268 C 0.44975 0.26139 0.30772 0.0
C269 C 0.41393 0.21206 0.2607 0.0
C270 C 0.37078 0.25832 0.30463 0.0
C271 C 0.41398 0.26057 0.2122 0.0
C272 C 0.44979 0.30753 0.26164 0.0
C273 C 0.37083 0.30454 0.2585 0.0
O274 O 0.45424 0.25323 0.28909 0.0
O275 O 0.39515 0.22091 0.25887 0.0
O276 O 0.38533 0.27269 0.30851 0.0
O277 O 0.43174 0.25871 0.22282 0.0
O278 O 0.43415 0.31044 0.27507 0.0
O279 O 0.36783 0.28568 0.25015 0.0
O280 O 0.45426 0.28891 0.25345 0.0
O281 O 0.39519 0.25877 0.22103 0.0
O282 O 0.38536 0.30836 0.27292 0.0
O283 O 0.4317 0.22266 0.25884 0.0
O284 O 0.43411 0.27481 0.31065 0.0
O285 O 0.36778 0.25003 0.28575 0.0
Sc286 Sc 0.81689 0.69101 0.50626 0.0
Sc287 Sc 0.81902 0.63306 0.50406 0.0
Sc288 Sc 0.78269 0.65964 0.54012 0.0
O289 O 0.80618 0.66121 0.51684 0.0
C290 C 0.81144 0.69963 0.55753 0.0
C291 C 0.86107 0.66374 0.51064 0.0
C292 C 0.81463 0.6207 0.55447 0.0
C293 C 0.8127 0.66379 0.46202 0.0
C294 C 0.76559 0.69964 0.51121 0.0
C295 C 0.76858 0.62062 0.50818 0.0
O296 O 0.81972 0.7041 0.53895 0.0
O297 O 0.85223 0.64497 0.5087 0.0
O298 O 0.80017 0.63519 0.55825 0.0
O299 O 0.81463 0.68155 0.47263 0.0
O300 O 0.76259 0.684 0.52461 0.0
O301 O 0.78749 0.61761 0.49996 0.0
O302 O 0.78425 0.7041 0.5031 0.0
O303 O 0.81439 0.645 0.47087 0.0
O304 O 0.76466 0.63521 0.5225 0.0
O305 O 0.85047 0.68152 0.50889 0.0
O306 O 0.79801 0.68398 0.56038 0.0
O307 O 0.82305 0.61771 0.53565 0.0
Sc308 Sc 0.41401 0.03343 0.7901 0.0
Sc309 Sc 0.44057 0.06959 0.75387 0.0
Sc310 Sc 0.38261 0.06736 0.756 0.0
O311 O 0.41243 0.05677 0.76668 0.0
C312 C 0.3741 0.01607 0.76124 0.0
C313 C 0.45299 0.01917 0.75819 0.0
C314 C 0.40989 0.06305 0.71182 0.0
C315 C 0.45291 0.06546 0.80432 0.0
C316 C 0.37399 0.06226 0.8073 0.0
C317 C 0.40979 0.1116 0.76029 0.0
O318 O 0.38971 0.0132 0.7747 0.0
O319 O 0.45601 0.03802 0.74984 0.0
O320 O 0.39211 0.0649 0.72241 0.0
O321 O 0.43839 0.05105 0.80817 0.0
O322 O 0.36951 0.07039 0.78865 0.0
O323 O 0.42859 0.10278 0.75848 0.0
O324 O 0.38965 0.04887 0.81025 0.0
O325 O 0.45595 0.07372 0.78543 0.0
O326 O 0.39204 0.10098 0.75842 0.0
O327 O 0.43846 0.01535 0.77259 0.0
O328 O 0.3696 0.03467 0.75302 0.0
O329 O 0.42866 0.06488 0.72067 0.0
Sc330 Sc 0.0412 0.664 0.03993 0.0
Sc331 Sc 0.00477 0.69059 0.00397 0.0
Sc332 Sc 0.0069 0.63264 0.00617 0.0
O333 O 0.01764 0.66244 0.01672 0.0
C334 C 0.05821 0.62399 0.01098 0.0
C335 C 0.05522 0.70304 0.00799 0.0
C336 C 0.01104 0.65986 0.96193 0.0
C337 C 0.00928 0.70293 0.05438 0.0
C338 C 0.01248 0.62402 0.05742 0.0
C339 C 0.96273 0.65991 0.01064 0.0
O340 O 0.06125 0.63963 0.02437 0.0
O341 O 0.03629 0.70606 -0.00016 0.0
O342 O 0.00908 0.6421 0.97253 0.0
O343 O 0.02377 0.68846 0.05811 0.0
O344 O 0.00415 0.61956 0.03886 0.0
O345 O 0.97157 0.67868 0.00866 0.0
O346 O 0.02593 0.63966 0.06024 0.0
O347 O 0.00079 0.70591 0.03558 0.0
O348 O 0.97333 0.64213 0.00889 0.0
O349 O 0.05919 0.68843 0.02228 0.0
O350 O 0.03952 0.61955 0.00292 0.0
O351 O 0.00938 0.67865 0.97078 0.0
Sc352 Sc 0.06729 0.44082 0.06691 0.0
Sc353 Sc 0.06941 0.38287 0.06903 0.0
Sc354 Sc 0.03289 0.4095 0.03319 0.0
O355 O 0.05651 0.41103 0.05635 0.0
C356 C 0.01597 0.44954 0.06214 0.0
C357 C 0.06318 0.41356 0.11112 0.0
C358 C 0.01893 0.37045 0.06515 0.0
C359 C 0.11145 0.41355 0.06237 0.0
C360 C 0.06167 0.44943 0.01568 0.0
C361 C 0.06474 0.37054 0.01864 0.0
O362 O 0.03468 0.45397 0.07016 0.0
O363 O 0.06489 0.39478 0.10225 0.0
O364 O 0.01492 0.38508 0.05089 0.0
O365 O 0.10086 0.43133 0.06421 0.0
O366 O 0.04818 0.43383 0.01288 0.0
O367 O 0.07329 0.36756 0.03741 0.0
O368 O 0.07005 0.45387 0.03422 0.0
O369 O 0.1026 0.39478 0.06426 0.0
O370 O 0.05025 0.38502 0.01496 0.0
O371 O 0.06508 0.43134 0.10053 0.0
O372 O 0.01289 0.43388 0.04878 0.0
O373 O 0.03788 0.36741 0.07324 0.0
Sc374 Sc 0.56731 0.38263 0.25664 0.0
Sc375 Sc 0.56947 0.44058 0.25449 0.0
Sc376 Sc 0.53312 0.41399 0.29052 0.0
O377 O 0.55661 0.41243 0.26724 0.0
C378 C 0.51601 0.37398 0.26164 0.0
C379 C 0.56313 0.40989 0.21243 0.0
C380 C 0.51901 0.45299 0.25856 0.0
C381 C 0.61151 0.40989 0.26104 0.0
C382 C 0.56192 0.37402 0.3079 0.0
C383 C 0.56501 0.45295 0.3049 0.0
O384 O 0.53467 0.36952 0.25353 0.0
O385 O 0.56491 0.42867 0.22128 0.0
O386 O 0.51509 0.43842 0.2729 0.0
O387 O 0.60091 0.39212 0.25919 0.0
O388 O 0.54846 0.38964 0.31076 0.0
O389 O 0.57344 0.45594 0.28608 0.0
O390 O 0.57021 0.36957 0.28931 0.0
O391 O 0.60266 0.42866 0.2592 0.0
O392 O 0.55058 0.43843 0.30867 0.0
O393 O 0.56497 0.39211 0.22302 0.0
O394 O 0.51301 0.38963 0.27502 0.0
O395 O 0.53792 0.45601 0.25034 0.0
Sc396 Sc 0.69083 0.8174 0.50631 0.0
Sc397 Sc 0.63287 0.81956 0.50411 0.0
Sc398 Sc 0.65943 0.78328 0.54022 0.0
O399 O 0.66101 0.80672 0.5169 0.0
C400 C 0.69941 0.7661 0.51134 0.0
C401 C 0.66362 0.81316 0.46207 0.0
C402 C 0.62047 0.76911 0.50825 0.0
C403 C 0.66358 0.86159 0.51066 0.0
C404 C 0.69938 0.81209 0.55759 0.0
C405 C 0.62049 0.81522 0.55453 0.0
O406 O 0.7039 0.78474 0.50322 0.0
O407 O 0.64482 0.81493 0.47091 0.0
O408 O 0.63502 0.76523 0.52262 0.0
O409 O 0.68135 0.85099 0.50884 0.0
O410 O 0.68375 0.79865 0.56045 0.0
O411 O 0.61747 0.82359 0.53569 0.0
O412 O 0.70387 0.82032 0.53899 0.0
O413 O 0.6448 0.85275 0.50879 0.0
O414 O 0.635 0.80079 0.55833 0.0
O415 O 0.68138 0.81505 0.47269 0.0
O416 O 0.68377 0.76314 0.52475 0.0
O417 O 0.61744 0.788 0.49999 0.0
Sc418 Sc 0.29095 0.90954 0.79019 0.0
Sc419 Sc 0.25456 0.88291 0.75423 0.0
Sc420 Sc 0.25672 0.94086 0.75631 0.0
O421 O 0.26743 0.91107 0.76693 0.0
C422 C 0.26218 0.94955 0.80754 0.0
C423 C 0.25901 0.87065 0.80466 0.0
C424 C 0.21252 0.91362 0.76076 0.0
C425 C 0.305 0.87045 0.75831 0.0
C426 C 0.30803 0.94949 0.76123 0.0
C427 C 0.26091 0.91355 0.71213 0.0
O428 O 0.27564 0.93394 0.81041 0.0
O429 O 0.25057 0.86762 0.78585 0.0
O430 O 0.22313 0.93139 0.75892 0.0
O431 O 0.30895 0.88505 0.77261 0.0
O432 O 0.28936 0.95395 0.75315 0.0
O433 O 0.25916 0.89477 0.72101 0.0
O434 O 0.31105 0.93385 0.77462 0.0
O435 O 0.28608 0.86743 0.75012 0.0
O436 O 0.25902 0.93133 0.7227 0.0
O437 O 0.27348 0.88514 0.80839 0.0
O438 O 0.25386 0.95397 0.78897 0.0
O439 O 0.22137 0.89484 0.7589 0.0
Sc440 Sc 0.66386 0.54027 0.54028 0.0
Sc441 Sc 0.69045 0.50403 0.50415 0.0
Sc442 Sc 0.6325 0.50619 0.5063 0.0
O443 O 0.6623 0.51685 0.51693 0.0
C444 C 0.62391 0.51143 0.55758 0.0
C445 C 0.70282 0.50835 0.55457 0.0
C446 C 0.65974 0.46199 0.51065 0.0
C447 C 0.70283 0.55448 0.50832 0.0
C448 C 0.62389 0.55748 0.5114 0.0
C449 C 0.65975 0.51046 0.4621 0.0
O450 O 0.63954 0.52486 0.56048 0.0
O451 O 0.70584 0.49999 0.53572 0.0
O452 O 0.64197 0.47259 0.50879 0.0
O453 O 0.68828 0.55834 0.5227 0.0
O454 O 0.61942 0.53885 0.50325 0.0
O455 O 0.67853 0.50865 0.47095 0.0
O456 O 0.63952 0.56043 0.52483 0.0
O457 O 0.70586 0.53559 0.50005 0.0
O458 O 0.64198 0.50859 0.4727 0.0
O459 O 0.6883 0.52276 0.55838 0.0
O460 O 0.61942 0.50323 0.53897 0.0
O461 O 0.67852 0.47083 0.50883 0.0
Sc462 Sc 0.29101 0.91429 0.03356 0.0
Sc463 Sc 0.25448 0.94092 0.0694 0.0
Sc464 Sc 0.25664 0.88297 0.06731 0.0
O465 O 0.26739 0.91276 0.05673 0.0
C466 C 0.26229 0.8743 0.01608 0.0
C467 C 0.25909 0.95319 0.01898 0.0
C468 C 0.21246 0.91021 0.06275 0.0
C469 C 0.30494 0.9534 0.06546 0.0
C470 C 0.30796 0.87431 0.06258 0.0
C471 C 0.26072 0.91027 0.1115 0.0
O472 O 0.27576 0.88991 0.01327 0.0
O473 O 0.25054 0.95618 0.03775 0.0
O474 O 0.22307 0.89244 0.06456 0.0
O475 O 0.30896 0.93876 0.05122 0.0
O476 O 0.28926 0.86988 0.0706 0.0
O477 O 0.25905 0.92904 0.10262 0.0
O478 O 0.31104 0.88995 0.04919 0.0
O479 O 0.28598 0.95643 0.07356 0.0
O480 O 0.25879 0.89249 0.10092 0.0
O481 O 0.27361 0.93872 0.01531 0.0
O482 O 0.25392 0.86987 0.03463 0.0
O483 O 0.22129 0.92898 0.06468 0.0
Sc484 Sc 0.65962 0.04031 0.28341 0.0
Sc485 Sc 0.63303 0.00401 0.31948 0.0
Sc486 Sc 0.69099 0.00613 0.31728 0.0
O487 O 0.66118 0.01684 0.3067 0.0
C488 C 0.69954 0.01147 0.266 0.0
C489 C 0.6206 0.00846 0.26908 0.0
C490 C 0.66371 0.96196 0.31287 0.0
C491 C 0.6207 0.05447 0.31544 0.0
C492 C 0.69965 0.05742 0.31227 0.0
C493 C 0.66379 0.01034 0.36151 0.0
O494 O 0.68392 0.02493 0.26315 0.0
O495 O 0.6176 6e-05 0.28792 0.0
O496 O 0.68149 0.97255 0.31474 0.0
O497 O 0.63523 0.05836 0.30106 0.0
O498 O 0.70411 0.03877 0.32038 0.0
O499 O 0.645 0.00856 0.35268 0.0
O500 O 0.684 0.06042 0.29888 0.0
O501 O 0.61766 0.03557 0.32367 0.0
O502 O 0.68155 0.00848 0.3509 0.0
O503 O 0.63514 0.02286 0.26529 0.0
O504 O 0.70402 0.00322 0.28459 0.0
O505 O 0.64493 0.97082 0.31471 0.0
Sc506 Sc 0.16376 0.28326 0.78293 0.0
Sc507 Sc 0.19033 0.31939 0.81919 0.0
Sc508 Sc 0.13237 0.3172 0.81704 0.0
O509 O 0.16218 0.30659 0.80636 0.0
C510 C 0.12374 0.3121 0.76574 0.0
C511 C 0.20272 0.31524 0.76875 0.0
C512 C 0.15958 0.36142 0.81277 0.0
C513 C 0.20274 0.26897 0.81484 0.0
C514 C 0.12381 0.26592 0.81178 0.0
C515 C 0.15963 0.31289 0.86123 0.0
O516 O 0.1394 0.29871 0.76278 0.0
O517 O 0.20573 0.32351 0.78763 0.0
O518 O 0.14182 0.35081 0.81462 0.0
O519 O 0.18821 0.26515 0.80043 0.0
O520 O 0.11933 0.28452 0.82001 0.0
O521 O 0.17841 0.3147 0.85238 0.0
O522 O 0.13943 0.26304 0.79833 0.0
O523 O 0.20574 0.28782 0.8232 0.0
O524 O 0.14185 0.31474 0.85063 0.0
O525 O 0.18818 0.30085 0.76487 0.0
O526 O 0.11926 0.32023 0.78439 0.0
O527 O 0.17837 0.35259 0.81458 0.0
Sc528 Sc 0.03272 0.79029 0.41394 0.0
Sc529 Sc 0.06893 0.75413 0.44055 0.0
Sc530 Sc 0.06685 0.75631 0.3826 0.0
O531 O 0.05614 0.76693 0.4124 0.0
C532 C 0.01557 0.76143 0.37393 0.0
C533 C 0.01849 0.75837 0.45293 0.0
C534 C 0.06255 0.71209 0.40984 0.0
C535 C 0.06464 0.80455 0.45293 0.0
C536 C 0.06156 0.80758 0.37397 0.0
C537 C 0.11102 0.76063 0.40991 0.0
O538 O 0.0126 0.77484 0.38957 0.0
O539 O 0.03736 0.75007 0.45594 0.0
O540 O 0.06445 0.72269 0.39207 0.0
O541 O 0.05023 0.80839 0.43839 0.0
O542 O 0.0698 0.78898 0.36952 0.0
O543 O 0.10215 0.75876 0.42867 0.0
O544 O 0.04812 0.81049 0.38959 0.0
O545 O 0.07298 0.7857 0.45593 0.0
O546 O 0.10043 0.75882 0.39212 0.0
O547 O 0.01463 0.77274 0.43837 0.0
O548 O 0.0342 0.75326 0.36949 0.0
O549 O 0.0643 0.72094 0.42862 0.0
Sc550 Sc 0.31701 0.81739 0.13279 0.0
Sc551 Sc 0.31907 0.81957 0.19074 0.0
Sc552 Sc 0.28277 0.78352 0.16411 0.0
O553 O 0.30626 0.8068 0.16258 0.0
C554 C 0.26571 0.81246 0.12411 0.0
C555 C 0.31277 0.86162 0.16004 0.0
C556 C 0.26862 0.81542 0.20313 0.0
C557 C 0.36116 0.81299 0.16012 0.0
C558 C 0.31154 0.76612 0.12414 0.0
C559 C 0.3147 0.76914 0.20305 0.0
O560 O 0.28438 0.82058 0.11969 0.0
O561 O 0.31442 0.85276 0.17883 0.0
O562 O 0.26471 0.80111 0.18853 0.0
O563 O 0.35057 0.81472 0.14232 0.0
O564 O 0.29811 0.76326 0.13978 0.0
O565 O 0.32312 0.78796 0.20605 0.0
O566 O 0.31983 0.78471 0.11969 0.0
O567 O 0.35229 0.81496 0.17887 0.0
O568 O 0.30023 0.76537 0.18856 0.0
O569 O 0.31476 0.85102 0.14227 0.0
O570 O 0.2627 0.79904 0.13973 0.0
O571 O 0.28753 0.82363 0.20617 0.0
Sc572 Sc 0.25655 0.0672 0.88248 0.0
Sc573 Sc 0.2544 0.06938 0.94043 0.0
Sc574 Sc 0.29084 0.03343 0.91385 0.0
O575 O 0.26729 0.05664 0.91228 0.0
C576 C 0.2621 0.01596 0.87387 0.0
C577 C 0.21237 0.06272 0.90973 0.0
C578 C 0.25897 0.01898 0.95282 0.0
C579 C 0.26065 0.11144 0.90971 0.0
C580 C 0.30787 0.06234 0.87382 0.0
C581 C 0.30486 0.06541 0.95287 0.0
O582 O 0.25376 0.03452 0.86942 0.0
O583 O 0.22121 0.06462 0.92851 0.0
O584 O 0.27343 0.01524 0.93832 0.0
O585 O 0.25879 0.10083 0.89194 0.0
O586 O 0.31091 0.04897 0.88948 0.0
O587 O 0.28593 0.07358 0.95588 0.0
O588 O 0.28918 0.07039 0.86937 0.0
O589 O 0.25892 0.10259 0.9285 0.0
O590 O 0.30883 0.05109 0.93829 0.0
O591 O 0.22297 0.06455 0.89196 0.0
O592 O 0.27555 0.01314 0.8895 0.0
O593 O 0.25048 0.03778 0.95578 0.0
Sc594 Sc 0.00662 0.81704 0.19085 0.0
Sc595 Sc 0.0045 0.81918 0.1329 0.0
Sc596 Sc 0.04085 0.78317 0.15952 0.0
O597 O 0.01735 0.80644 0.16106 0.0
C598 C 0.05792 0.81201 0.19957 0.0
C599 C 0.01085 0.86124 0.16361 0.0
C600 C 0.05496 0.81516 0.12054 0.0
C601 C 0.96244 0.81262 0.16356 0.0
C602 C 0.01198 0.76578 0.19944 0.0
C603 C 0.00903 0.76878 0.1205 0.0
O604 O 0.03925 0.8201 0.20401 0.0
O605 O 0.00902 0.85239 0.14483 0.0
O606 O 0.05889 0.80081 0.1351 0.0
O607 O 0.97302 0.81453 0.18134 0.0
O608 O 0.02548 0.76292 0.18385 0.0
O609 O 0.00059 0.78759 0.11751 0.0
O610 O 0.00367 0.78436 0.20387 0.0
O611 O 0.97131 0.81441 0.14479 0.0
O612 O 0.02344 0.76501 0.13504 0.0
O613 O 0.00903 0.85064 0.18138 0.0
O614 O 0.06094 0.79865 0.1839 0.0
O615 O 0.03605 0.82337 0.11752 0.0
Sc616 Sc 0.25667 0.75667 0.94111 0.0
Sc617 Sc 0.25454 0.75443 0.88317 0.0
Sc618 Sc 0.29093 0.79045 0.90972 0.0
O619 O 0.2674 0.76721 0.9113 0.0
C620 C 0.2622 0.80794 0.94969 0.0
C621 C 0.2125 0.76108 0.91382 0.0
C622 C 0.25903 0.80481 0.87075 0.0
C623 C 0.26083 0.71241 0.91391 0.0
C624 C 0.30798 0.76158 0.94978 0.0
C625 C 0.30499 0.75843 0.87076 0.0
O626 O 0.25388 0.78937 0.95416 0.0
O627 O 0.22134 0.75913 0.89506 0.0
O628 O 0.2735 0.80858 0.88523 0.0
O629 O 0.25892 0.72303 0.93167 0.0
O630 O 0.311 0.77496 0.93413 0.0
O631 O 0.28606 0.75026 0.86774 0.0
O632 O 0.2893 0.75349 0.95422 0.0
O633 O 0.25911 0.72125 0.89512 0.0
O634 O 0.30895 0.77277 0.88532 0.0
O635 O 0.22309 0.75933 0.93161 0.0
O636 O 0.27563 0.81076 0.93404 0.0
O637 O 0.25056 0.78601 0.8678 0.0
Sc638 Sc 0.28301 0.04012 0.65948 0.0
Sc639 Sc 0.31935 0.00408 0.63287 0.0
Sc640 Sc 0.31725 0.00626 0.69082 0.0
O641 O 0.30652 0.01684 0.66103 0.0
C642 C 0.31184 0.05753 0.69941 0.0
C643 C 0.31488 0.0545 0.6205 0.0
C644 C 0.36141 0.01068 0.66352 0.0
C645 C 0.26889 0.00813 0.62052 0.0
C646 C 0.26594 0.01123 0.6995 0.0
C647 C 0.31305 0.96203 0.6636 0.0
O648 O 0.29837 0.06038 0.6838 0.0
O649 O 0.3233 0.03568 0.61749 0.0
O650 O 0.35083 0.00884 0.68131 0.0
O651 O 0.26498 0.02248 0.63508 0.0
O652 O 0.28461 0.00314 0.70395 0.0
O653 O 0.31481 0.97088 0.64481 0.0
O654 O 0.26293 0.02462 0.68386 0.0
O655 O 0.28779 -8e-05 0.61749 0.0
O656 O 0.31492 0.97264 0.68136 0.0
O657 O 0.30045 0.05827 0.63503 0.0
O658 O 0.32013 0.03895 0.70387 0.0
O659 O 0.35255 0.00882 0.64476 0.0
Sc660 Sc 0.66388 0.04046 0.04002 0.0
Sc661 Sc 0.69043 0.00412 0.00396 0.0
Sc662 Sc 0.63246 0.00633 0.00614 0.0
O663 O 0.66229 0.01699 0.01673 0.0
C664 C 0.62389 0.0117 0.0574 0.0
C665 C 0.70282 0.00853 0.05438 0.0
C666 C 0.65967 0.96212 0.01054 0.0
C667 C 0.70286 0.05456 0.00804 0.0
C668 C 0.62392 0.05764 0.0111 0.0
C669 C 0.6597 0.01046 0.96191 0.0
O670 O 0.63954 0.02512 0.06027 0.0
O671 O 0.70582 0.00012 0.03555 0.0
O672 O 0.64191 0.97274 0.0087 0.0
O673 O 0.68831 0.05847 0.0224 0.0
O674 O 0.61941 0.03899 0.003 0.0
O675 O 0.67848 0.0087 0.97076 0.0
O676 O 0.63955 0.06059 0.02452 0.0
O677 O 0.70588 0.03566 -0.00019 0.0
O678 O 0.64193 0.00861 0.97253 0.0
O679 O 0.68831 0.02297 0.05816 0.0
O680 O 0.61939 0.00346 0.03881 0.0
O681 O 0.67846 0.97093 0.00869 0.0
Sc682 Sc 0.06678 0.38247 0.75607 0.0
Sc683 Sc 0.06896 0.44042 0.75392 0.0
Sc684 Sc 0.03255 0.41385 0.7899 0.0
O685 O 0.05608 0.41228 0.76666 0.0
C686 C 0.01547 0.37385 0.76099 0.0
C687 C 0.06261 0.40972 0.71186 0.0
C688 C 0.01852 0.45289 0.75796 0.0
C689 C 0.11098 0.4097 0.7605 0.0
C690 C 0.06128 0.37385 0.80732 0.0
C691 C 0.06449 0.45277 0.80433 0.0
O692 O 0.03414 0.36939 0.7529 0.0
O693 O 0.06434 0.4285 0.72071 0.0
O694 O 0.01455 0.4383 0.77227 0.0
O695 O 0.10037 0.39193 0.75871 0.0
O696 O 0.04784 0.38949 0.81017 0.0
O697 O 0.07296 0.45574 0.78552 0.0
O698 O 0.0696 0.3694 0.78875 0.0
O699 O 0.10215 0.42848 0.7586 0.0
O700 O 0.05 0.43829 0.80807 0.0
O701 O 0.06452 0.39195 0.72245 0.0
O702 O 0.01245 0.3895 0.77437 0.0
O703 O 0.03745 0.4559 0.74979 0.0
Sc704 Sc 0.29078 0.40961 0.29039 0.0
Sc705 Sc 0.25451 0.38302 0.25429 0.0
Sc706 Sc 0.25665 0.44096 0.25643 0.0
O707 O 0.26734 0.41117 0.26706 0.0
C708 C 0.26202 0.44963 0.3077 0.0
C709 C 0.25885 0.37066 0.30471 0.0
C710 C 0.21247 0.41372 0.26084 0.0
C711 C 0.30495 0.3706 0.25848 0.0
C712 C 0.30795 0.44958 0.26146 0.0
C713 C 0.26087 0.4137 0.21222 0.0
O714 O 0.27541 0.43397 0.31061 0.0
O715 O 0.25047 0.36767 0.28587 0.0
O716 O 0.22307 0.43149 0.25904 0.0
O717 O 0.30884 0.38517 0.27282 0.0
O718 O 0.28931 0.45402 0.25329 0.0
O719 O 0.25914 0.39492 0.22109 0.0
O720 O 0.31091 0.43397 0.27491 0.0
O721 O 0.28606 0.36758 0.25021 0.0
O722 O 0.25896 0.43147 0.22282 0.0
O723 O 0.27328 0.38517 0.30852 0.0
O724 O 0.25379 0.45409 0.28909 0.0
O725 O 0.22131 0.39494 0.25894 0.0
Sc726 Sc 0.66397 0.78315 0.78378 0.0
Sc727 Sc 0.69052 0.81947 0.81985 0.0
Sc728 Sc 0.63256 0.81729 0.81767 0.0
O729 O 0.66238 0.80662 0.80708 0.0
C730 C 0.62397 0.81191 0.7664 0.0
C731 C 0.70291 0.81508 0.76942 0.0
C732 C 0.65978 0.86149 0.81329 0.0
C733 C 0.70297 0.76904 0.81573 0.0
C734 C 0.624 0.76598 0.8127 0.0
C735 C 0.65977 0.81312 0.8619 0.0
O736 O 0.63962 0.79849 0.76354 0.0
O737 O 0.70591 0.82348 0.78826 0.0
O738 O 0.64201 0.85088 0.8151 0.0
O739 O 0.68841 0.76513 0.80138 0.0
O740 O 0.6195 0.78463 0.8208 0.0
O741 O 0.67857 0.81486 0.85306 0.0
O742 O 0.63964 0.76302 0.79929 0.0
O743 O 0.70598 0.78793 0.82398 0.0
O744 O 0.64201 0.815 0.85128 0.0
O745 O 0.68839 0.80065 0.76565 0.0
O746 O 0.61948 0.82016 0.78499 0.0
O747 O 0.67856 0.85266 0.81516 0.0
Sc748 Sc 0.29058 0.41399 0.5331 0.0
Sc749 Sc 0.25425 0.4406 0.56914 0.0
Sc750 Sc 0.25642 0.38265 0.56702 0.0
O751 O 0.26711 0.41244 0.5564 0.0
C752 C 0.26176 0.37401 0.51576 0.0
C753 C 0.25871 0.45297 0.51873 0.0
C754 C 0.21222 0.40989 0.5626 0.0
C755 C 0.3047 0.45299 0.56506 0.0
C756 C 0.30772 0.37398 0.56198 0.0
C757 C 0.26061 0.40992 0.61122 0.0
O758 O 0.27522 0.38963 0.51288 0.0
O759 O 0.2503 0.45597 0.53756 0.0
O760 O 0.22281 0.39212 0.56449 0.0
O761 O 0.30862 0.43843 0.55071 0.0
O762 O 0.28906 0.36954 0.5701 0.0
O763 O 0.2588 0.42869 0.60236 0.0
O764 O 0.31071 0.38963 0.54859 0.0
O765 O 0.2858 0.456 0.5733 0.0
O766 O 0.25879 0.39214 0.60062 0.0
O767 O 0.27312 0.43844 0.51495 0.0
O768 O 0.25349 0.36958 0.53436 0.0
O769 O 0.22107 0.42867 0.5644 0.0
Sc770 Sc 0.5409 0.65947 0.78377 0.0
Sc771 Sc 0.50443 0.63291 0.8197 0.0
Sc772 Sc 0.50655 0.69086 0.81747 0.0
O773 O 0.51731 0.66105 0.80695 0.0
C774 C 0.55787 0.69951 0.81269 0.0
C775 C 0.5549 0.6205 0.81578 0.0
C776 C 0.51066 0.66368 0.86174 0.0
C777 C 0.509 0.62053 0.76931 0.0
C778 C 0.51215 0.69939 0.76621 0.0
C779 C 0.46238 0.66357 0.81299 0.0
O780 O 0.56092 0.68386 0.79932 0.0
O781 O 0.53596 0.61746 0.8239 0.0
O782 O 0.50872 0.68143 0.85111 0.0
O783 O 0.5235 0.635 0.7656 0.0
O784 O 0.5038 0.70388 0.78475 0.0
O785 O 0.47123 0.64481 0.81496 0.0
O786 O 0.52562 0.68377 0.76342 0.0
O787 O 0.50049 0.61756 0.7881 0.0
O788 O 0.47297 0.68136 0.81475 0.0
O789 O 0.55888 0.63509 0.80148 0.0
O790 O 0.53917 0.70396 0.82072 0.0
O791 O 0.509 0.64488 0.85289 0.0
Sc792 Sc 0.8172 0.1325 0.3173 0.0
Sc793 Sc 0.81938 0.19045 0.31946 0.0
Sc794 Sc 0.78293 0.16388 0.28352 0.0
O795 O 0.80648 0.16231 0.30674 0.0
C796 C 0.81171 0.12393 0.26605 0.0
C797 C 0.8614 0.15973 0.31286 0.0
C798 C 0.81484 0.20281 0.26906 0.0
C799 C 0.81306 0.15974 0.36152 0.0
C800 C 0.76588 0.12385 0.3124 0.0
C801 C 0.76893 0.2029 0.31549 0.0
O802 O 0.82004 0.11946 0.28461 0.0
O803 O 0.85256 0.17851 0.31473 0.0
O804 O 0.80036 0.18833 0.26534 0.0
O805 O 0.81491 0.14197 0.35092 0.0
O806 O 0.76285 0.13952 0.29905 0.0
O807 O 0.78786 0.20592 0.32364 0.0
O808 O 0.78456 0.11938 0.32045 0.0
O809 O 0.81482 0.17853 0.35267 0.0
O810 O 0.76495 0.18831 0.30118 0.0
O811 O 0.85079 0.14197 0.3147 0.0
O812 O 0.79823 0.13954 0.26323 0.0
O813 O 0.82333 0.20579 0.28786 0.0
Sc814 Sc 0.44095 0.56733 0.56749 0.0
Sc815 Sc 0.38299 0.56945 0.56965 0.0
Sc816 Sc 0.4096 0.5333 0.53344 0.0
O817 O 0.41115 0.55667 0.55684 0.0
C818 C 0.44958 0.56215 0.5162 0.0
C819 C 0.41369 0.61151 0.56321 0.0
C820 C 0.37065 0.56527 0.51919 0.0
C821 C 0.41371 0.563 0.61169 0.0
C822 C 0.44954 0.51604 0.56233 0.0
C823 C 0.3706 0.51902 0.56532 0.0
O824 O 0.45405 0.57032 0.53483 0.0
O825 O 0.39491 0.60266 0.56506 0.0
O826 O 0.38518 0.55087 0.51535 0.0
O827 O 0.43147 0.56491 0.60109 0.0
O828 O 0.43393 0.51313 0.54888 0.0
O829 O 0.36758 0.53788 0.57365 0.0
O830 O 0.45402 0.53466 0.57052 0.0
O831 O 0.39492 0.56475 0.60284 0.0
O832 O 0.38516 0.5152 0.55094 0.0
O833 O 0.43147 0.60091 0.56502 0.0
O834 O 0.43394 0.54874 0.51327 0.0
O835 O 0.36761 0.57357 0.53807 0.0
Sc836 Sc 0.81703 0.19103 0.00629 0.0
Sc837 Sc 0.81913 0.13308 0.00409 0.0
Sc838 Sc 0.78268 0.15967 0.04002 0.0
O839 O 0.80626 0.16123 0.01683 0.0
C840 C 0.81146 0.19959 0.05754 0.0
C841 C 0.86119 0.16374 0.01073 0.0
C842 C 0.81459 0.12073 0.05448 0.0
C843 C 0.81284 0.1638 0.96205 0.0
C844 C 0.76571 0.19973 0.01113 0.0
C845 C 0.76867 0.12065 0.00806 0.0
O846 O 0.81982 0.20406 0.039 0.0
O847 O 0.85234 0.14498 0.00878 0.0
O848 O 0.80008 0.13519 0.05819 0.0
O849 O 0.8148 0.18157 0.97266 0.0
O850 O 0.76265 0.18407 0.02448 0.0
O851 O 0.78761 0.1176 -5e-05 0.0
O852 O 0.78441 0.20417 0.00309 0.0
O853 O 0.81453 0.14501 0.9709 0.0
O854 O 0.76468 0.13527 0.02233 0.0
O855 O 0.8506 0.18152 0.00897 0.0
O856 O 0.79798 0.18398 0.06034 0.0
O857 O 0.82311 0.11776 0.0357 0.0
Sc858 Sc 0.94092 0.75622 0.25609 0.0
Sc859 Sc 0.88296 0.75411 0.25393 0.0
Sc860 Sc 0.90957 0.79044 0.28995 0.0
O861 O 0.91111 0.76694 0.26668 0.0
C862 C 0.94948 0.76157 0.30735 0.0
C863 C 0.91364 0.71205 0.26049 0.0
C864 C 0.87054 0.75862 0.30434 0.0
C865 C 0.91371 0.76044 0.21187 0.0
C866 C 0.94959 0.80751 0.26106 0.0
C867 C 0.87061 0.80458 0.25796 0.0
O868 O 0.95395 0.7533 0.28877 0.0
O869 O 0.89486 0.72091 0.25868 0.0
O870 O 0.88509 0.77303 0.3081 0.0
O871 O 0.93147 0.75857 0.22248 0.0
O872 O 0.93394 0.81052 0.27445 0.0
O873 O 0.86756 0.78567 0.24976 0.0
O874 O 0.95405 0.78885 0.25298 0.0
O875 O 0.89491 0.75867 0.22072 0.0
O876 O 0.88517 0.80849 0.27231 0.0
O877 O 0.93141 0.72264 0.25861 0.0
O878 O 0.93388 0.77506 0.3102 0.0
O879 O 0.86755 0.75018 0.28553 0.0
Sc880 Sc 0.03292 0.53322 0.90935 0.0
Sc881 Sc 0.06936 0.56912 0.88271 0.0
Sc882 Sc 0.06727 0.567 0.94066 0.0
O883 O 0.0565 0.55642 0.91088 0.0
C884 C 0.01596 0.56218 0.94939 0.0
C885 C 0.01888 0.56518 0.87034 0.0
C886 C 0.06314 0.61121 0.9134 0.0
C887 C 0.06473 0.51872 0.87036 0.0
C888 C 0.06171 0.51576 0.94929 0.0
C889 C 0.11142 0.56248 0.91337 0.0
O890 O 0.0129 0.54879 0.93375 0.0
O891 O 0.03782 0.57331 0.86729 0.0
O892 O 0.06504 0.60062 0.93118 0.0
O893 O 0.05027 0.51501 0.88487 0.0
O894 O 0.07005 0.53431 0.95373 0.0
O895 O 0.10256 0.56436 0.8946 0.0
O896 O 0.04823 0.51293 0.93368 0.0
O897 O 0.07325 0.5375 0.86737 0.0
O898 O 0.10084 0.56431 0.93115 0.0
O899 O 0.01491 0.55089 0.88495 0.0
O900 O 0.03466 0.57023 0.9538 0.0
O901 O 0.06484 0.60234 0.89462 0.0
Sc902 Sc 0.75634 0.75659 0.44082 0.0
Sc903 Sc 0.75421 0.75451 0.38287 0.0
Sc904 Sc 0.79042 0.79064 0.40952 0.0
O905 O 0.76701 0.76727 0.41104 0.0
C906 C 0.76159 0.80785 0.44954 0.0
C907 C 0.71215 0.76099 0.41357 0.0
C908 C 0.75852 0.80494 0.37053 0.0
C909 C 0.76061 0.71242 0.41352 0.0
C910 C 0.80761 0.76173 0.44949 0.0
C911 C 0.80466 0.75878 0.37047 0.0
O912 O 0.75338 0.78923 0.45396 0.0
O913 O 0.72101 0.75916 0.39479 0.0
O914 O 0.77291 0.80877 0.38508 0.0
O915 O 0.75873 0.723 0.4313 0.0
O916 O 0.81057 0.77518 0.43388 0.0
O917 O 0.78579 0.75046 0.36746 0.0
O918 O 0.78898 0.75353 0.4539 0.0
O919 O 0.75885 0.72129 0.39475 0.0
O920 O 0.80851 0.77313 0.38504 0.0
O921 O 0.72274 0.75911 0.43134 0.0
O922 O 0.775 0.81081 0.43389 0.0
O923 O 0.75018 0.78609 0.36752 0.0
Sc924 Sc 0.78283 0.54052 0.65955 0.0
Sc925 Sc 0.81913 0.50443 0.63295 0.0
Sc926 Sc 0.81703 0.50663 0.6909 0.0
O927 O 0.80631 0.51722 0.6611 0.0
C928 C 0.81166 0.5579 0.69949 0.0
C929 C 0.8147 0.55483 0.62053 0.0
C930 C 0.8612 0.511 0.66359 0.0
C931 C 0.76868 0.50851 0.6206 0.0
C932 C 0.76573 0.51168 0.69959 0.0
C933 C 0.8128 0.46239 0.66368 0.0
O934 O 0.7982 0.56077 0.68387 0.0
O935 O 0.8231 0.536 0.61755 0.0
O936 O 0.85062 0.50917 0.68138 0.0
O937 O 0.76478 0.52289 0.63514 0.0
O938 O 0.78439 0.50355 0.70403 0.0
O939 O 0.81458 0.47123 0.64489 0.0
O940 O 0.76273 0.52506 0.68394 0.0
O941 O 0.78758 0.50027 0.61758 0.0
O942 O 0.81466 0.47301 0.68144 0.0
O943 O 0.80029 0.55864 0.63507 0.0
O944 O 0.81994 0.53932 0.70394 0.0
O945 O 0.85233 0.50914 0.64483 0.0
Sc946 Sc 0.8168 0.81714 0.6327 0.0
Sc947 Sc 0.81903 0.81927 0.69065 0.0
Sc948 Sc 0.7827 0.78318 0.66408 0.0
O949 O 0.80615 0.8065 0.66251 0.0
C950 C 0.7655 0.8121 0.62413 0.0
C951 C 0.81261 0.86134 0.65999 0.0
C952 C 0.76861 0.81507 0.70316 0.0
C953 C 0.86103 0.81273 0.65989 0.0
C954 C 0.81143 0.76588 0.62402 0.0
C955 C 0.8147 0.76884 0.70298 0.0
O956 O 0.78414 0.82026 0.61968 0.0
O957 O 0.81438 0.85247 0.67876 0.0
O958 O 0.76469 0.80073 0.68858 0.0
O959 O 0.85041 0.81455 0.64213 0.0
O960 O 0.79803 0.76297 0.63968 0.0
O961 O 0.82308 0.78768 0.70597 0.0
O962 O 0.81967 0.78448 0.61958 0.0
O963 O 0.85221 0.81462 0.67868 0.0
O964 O 0.80025 0.76504 0.68849 0.0
O965 O 0.81449 0.85075 0.64221 0.0
O966 O 0.76254 0.79867 0.63976 0.0
O967 O 0.7875 0.82333 0.70614 0.0
Sc968 Sc 0.75679 0.56718 0.88272 0.0
Sc969 Sc 0.75473 0.56928 0.94067 0.0
Sc970 Sc 0.7911 0.53334 0.91399 0.0
O971 O 0.76756 0.55657 0.91249 0.0
C972 C 0.76229 0.51594 0.87404 0.0
C973 C 0.71265 0.56266 0.91004 0.0
C974 C 0.7593 0.51888 0.95301 0.0
C975 C 0.76096 0.61138 0.91 0.0
C976 C 0.80808 0.5623 0.87398 0.0
C977 C 0.80521 0.56528 0.953 0.0
O978 O 0.75397 0.53451 0.86962 0.0
O979 O 0.72152 0.56454 0.9288 0.0
O980 O 0.77373 0.51514 0.93848 0.0
O981 O 0.75904 0.6008 0.89222 0.0
O982 O 0.81113 0.54889 0.8896 0.0
O983 O 0.78628 0.57345 0.95605 0.0
O984 O 0.7894 0.57039 0.86958 0.0
O985 O 0.75925 0.6025 0.92878 0.0
O986 O 0.80914 0.55097 0.9384 0.0
O987 O 0.72322 0.56451 0.89225 0.0
O988 O 0.77575 0.51308 0.88965 0.0
O989 O 0.75082 0.53768 0.956 0.0
Sc990 Sc 0.04115 0.5402 0.16381 0.0
Sc991 Sc 0.00475 0.50419 0.19038 0.0
Sc992 Sc 0.00688 0.50641 0.13244 0.0
O993 O 0.01762 0.51696 0.16224 0.0
C994 C 0.01244 0.55766 0.12382 0.0
C995 C 0.00921 0.5546 0.20275 0.0
C996 C 0.96271 0.51085 0.1597 0.0
C997 C 0.0552 0.50825 0.20283 0.0
C998 C 0.05819 0.51126 0.1238 0.0
C999 C 0.01104 0.46216 0.15965 0.0
O1000 O 0.02586 0.5605 0.13948 0.0
O1001 O 0.00074 0.53579 0.20571 0.0
O1002 O 0.97331 0.50912 0.14192 0.0
O1003 O 0.05916 0.52255 0.18823 0.0
O1004 O 0.03952 0.50317 0.11936 0.0
O1005 O 0.00938 0.47101 0.17844 0.0
O1006 O 0.06122 0.52467 0.13943 0.0
O1007 O 0.03627 0.50008 0.20585 0.0
O1008 O 0.00907 0.47276 0.14189 0.0
O1009 O 0.0237 0.55835 0.18828 0.0
O1010 O 0.00413 0.5391 0.11936 0.0
O1011 O 0.97155 0.50886 0.17847 0.0
Sc1012 Sc 0.04048 0.15941 0.78295 0.0
Sc1013 Sc 0.00424 0.13282 0.81908 0.0
Sc1014 Sc 0.00636 0.19077 0.81691 0.0
O1015 O 0.01705 0.16097 0.80629 0.0
C1016 C 0.05765 0.19942 0.81182 0.0
C1017 C 0.05469 0.1204 0.81485 0.0
C1018 C 0.01063 0.16352 0.86112 0.0
C1019 C 0.00854 0.12046 0.76866 0.0
C1020 C 0.01166 0.19938 0.76564 0.0
C1021 C 0.96217 0.1635 0.81258 0.0
O1022 O 0.06061 0.18379 0.7984 0.0
O1023 O 0.0358 0.11738 0.82312 0.0
O1024 O 0.00872 0.18129 0.85053 0.0
O1025 O 0.02297 0.13497 0.76485 0.0
O1026 O 0.00343 0.20385 0.78424 0.0
O1027 O 0.97102 0.14473 0.81446 0.0
O1028 O 0.02509 0.18375 0.76274 0.0
O1029 O 0.00017 0.11747 0.7875 0.0
O1030 O 0.97277 0.18128 0.81437 0.0
O1031 O 0.05856 0.13499 0.80051 0.0
O1032 O 0.03901 0.20385 0.81999 0.0
O1033 O 0.00889 0.14473 0.85227 0.0
Sc1034 Sc 0.38251 0.75638 0.06774 0.0
Sc1035 Sc 0.44048 0.75419 0.06996 0.0
Sc1036 Sc 0.41394 0.79043 0.03379 0.0
O1037 O 0.41234 0.76702 0.05714 0.0
C1038 C 0.37398 0.76163 0.01644 0.0
C1039 C 0.40975 0.71217 0.06343 0.0
C1040 C 0.45287 0.75845 0.01954 0.0
C1041 C 0.40973 0.76063 0.11197 0.0
C1042 C 0.37397 0.80769 0.06264 0.0
C1043 C 0.45285 0.80464 0.0658 0.0
O1044 O 0.36947 0.75344 0.03505 0.0
O1045 O 0.42854 0.721 0.06531 0.0
O1046 O 0.43837 0.77288 0.01571 0.0
O1047 O 0.39197 0.75876 0.10136 0.0
O1048 O 0.3896 0.81061 0.04922 0.0
O1049 O 0.45589 0.78576 0.07407 0.0
O1050 O 0.36946 0.78906 0.07079 0.0
O1051 O 0.42852 0.75884 0.10314 0.0
O1052 O 0.43833 0.80849 0.0514 0.0
O1053 O 0.39198 0.72278 0.06524 0.0
O1054 O 0.38963 0.77505 0.01356 0.0
O1055 O 0.45588 0.75012 0.0384 0.0
Sc1056 Sc 0.44101 0.75589 0.75626 0.0
Sc1057 Sc 0.38305 0.75378 0.75417 0.0
Sc1058 Sc 0.4097 0.79 0.79026 0.0
O1059 O 0.41122 0.76658 0.76692 0.0
C1060 C 0.44963 0.76109 0.80753 0.0
C1061 C 0.41374 0.71172 0.76065 0.0
C1062 C 0.37073 0.75812 0.80461 0.0
C1063 C 0.41373 0.76018 0.71209 0.0
C1064 C 0.44966 0.80718 0.76135 0.0
C1065 C 0.37071 0.80424 0.75835 0.0
O1066 O 0.45409 0.75289 0.78892 0.0
O1067 O 0.39496 0.72058 0.75887 0.0
O1068 O 0.38528 0.77252 0.8084 0.0
O1069 O 0.43151 0.75832 0.72267 0.0
O1070 O 0.43404 0.81014 0.77477 0.0
O1071 O 0.36766 0.78536 0.75008 0.0
O1072 O 0.45413 0.78853 0.75321 0.0
O1073 O 0.39495 0.75838 0.72095 0.0
O1074 O 0.38528 0.80809 0.77271 0.0
O1075 O 0.43152 0.7223 0.75872 0.0
O1076 O 0.43403 0.77456 0.81044 0.0
O1077 O 0.36768 0.74977 0.78576 0.0
Sc1078 Sc 0.41412 0.53331 0.29025 0.0
Sc1079 Sc 0.44072 0.56945 0.25403 0.0
Sc1080 Sc 0.38276 0.5673 0.25618 0.0
O1081 O 0.41256 0.55666 0.26684 0.0
C1082 C 0.37416 0.51602 0.2614 0.0
C1083 C 0.45312 0.51902 0.25836 0.0
C1084 C 0.41001 0.56294 0.21199 0.0
C1085 C 0.45307 0.56527 0.30448 0.0
C1086 C 0.37414 0.56218 0.30746 0.0
C1087 C 0.41 0.6115 0.26043 0.0
O1088 O 0.38979 0.51311 0.27483 0.0
O1089 O 0.45613 0.53788 0.25002 0.0
O1090 O 0.39224 0.56482 0.22258 0.0
O1091 O 0.43853 0.55088 0.30833 0.0
O1092 O 0.36967 0.57034 0.28883 0.0
O1093 O 0.42878 0.60266 0.25863 0.0
O1094 O 0.38977 0.54875 0.3104 0.0
O1095 O 0.4561 0.57356 0.28561 0.0
O1096 O 0.39223 0.6009 0.25859 0.0
O1097 O 0.43857 0.5152 0.27275 0.0
O1098 O 0.36968 0.53463 0.2532 0.0
O1099 O 0.42879 0.56475 0.22084 0.0
Sc1100 Sc 0.04068 0.16376 0.54019 0.0
Sc1101 Sc 0.00439 0.19031 0.50407 0.0
Sc1102 Sc 0.00656 0.13236 0.50627 0.0
O1103 O 0.01723 0.16217 0.51686 0.0
C1104 C 0.05786 0.12375 0.51133 0.0
C1105 C 0.05482 0.20277 0.50826 0.0
C1106 C 0.01079 0.1596 0.46204 0.0
C1107 C 0.00871 0.20269 0.55448 0.0
C1108 C 0.01191 0.12376 0.55754 0.0
C1109 C 0.96236 0.1596 0.5106 0.0
O1110 O 0.06083 0.1394 0.52473 0.0
O1111 O 0.03593 0.20577 0.5 0.0
O1112 O 0.0089 0.14183 0.47265 0.0
O1113 O 0.02316 0.1882 0.5583 0.0
O1114 O 0.00366 0.11929 0.53894 0.0
O1115 O 0.97119 0.17838 0.50871 0.0
O1116 O 0.02533 0.1394 0.56042 0.0
O1117 O 0.00033 0.20567 0.53564 0.0
O1118 O 0.97296 0.14183 0.50882 0.0
O1119 O 0.05873 0.1882 0.5226 0.0
O1120 O 0.03922 0.11929 0.50318 0.0
O1121 O 0.00903 0.17838 0.47088 0.0
Sc1122 Sc 0.06707 0.94068 0.56729 0.0
Sc1123 Sc 0.06919 0.88273 0.5694 0.0
Sc1124 Sc 0.03285 0.90937 0.5334 0.0
O1125 O 0.05635 0.9109 0.55667 0.0
C1126 C 0.01577 0.94936 0.56231 0.0
C1127 C 0.06285 0.9134 0.61148 0.0
C1128 C 0.01873 0.87037 0.56534 0.0
C1129 C 0.11125 0.91341 0.56285 0.0
C1130 C 0.06168 0.94932 0.51603 0.0
C1131 C 0.06473 0.87041 0.51898 0.0
O1132 O 0.03443 0.9538 0.57042 0.0
O1133 O 0.06461 0.89463 0.60261 0.0
O1134 O 0.01481 0.88496 0.55102 0.0
O1135 O 0.10066 0.93119 0.5647 0.0
O1136 O 0.04821 0.9337 0.51316 0.0
O1137 O 0.07317 0.8674 0.5378 0.0
O1138 O 0.06995 0.95376 0.53461 0.0
O1139 O 0.10239 0.89464 0.5647 0.0
O1140 O 0.05029 0.88492 0.51523 0.0
O1141 O 0.06474 0.93118 0.60089 0.0
O1142 O 0.01276 0.93373 0.54891 0.0
O1143 O 0.03764 0.86732 0.57353 0.0
Sc1144 Sc 0.567 0.88252 0.75657 0.0
Sc1145 Sc 0.56911 0.94047 0.75443 0.0
Sc1146 Sc 0.53255 0.91386 0.79023 0.0
O1147 O 0.5562 0.91232 0.76711 0.0
C1148 C 0.51568 0.87379 0.76128 0.0
C1149 C 0.56292 0.90977 0.71235 0.0
C1150 C 0.51862 0.9529 0.75826 0.0
C1151 C 0.61115 0.90981 0.76112 0.0
C1152 C 0.5613 0.87393 0.8078 0.0
C1153 C 0.56438 0.95283 0.8048 0.0
O1154 O 0.5344 0.86937 0.75328 0.0
O1155 O 0.56459 0.92856 0.72122 0.0
O1156 O 0.51459 0.93826 0.7725 0.0
O1157 O 0.60056 0.89203 0.75933 0.0
O1158 O 0.54781 0.88955 0.81057 0.0
O1159 O 0.57298 0.95578 0.78605 0.0
O1160 O 0.5697 0.86948 0.78927 0.0
O1161 O 0.6023 0.92858 0.75919 0.0
O1162 O 0.54987 0.93836 0.80847 0.0
O1163 O 0.56485 0.892 0.72294 0.0
O1164 O 0.51257 0.88945 0.77463 0.0
O1165 O 0.5376 0.95595 0.75021 0.0
Sc1166 Sc 0.69118 0.31769 0.00632 0.0
Sc1167 Sc 0.63322 0.31996 0.00419 0.0
Sc1168 Sc 0.65976 0.28357 0.04021 0.0
O1169 O 0.66135 0.30706 0.01693 0.0
C1170 C 0.69971 0.26637 0.0113 0.0
C1171 C 0.66391 0.31357 0.96212 0.0
C1172 C 0.62077 0.26951 0.00823 0.0
C1173 C 0.66401 0.36193 0.01075 0.0
C1174 C 0.69976 0.31233 0.05758 0.0
C1175 C 0.62085 0.31552 0.05461 0.0
O1176 O 0.70422 0.28502 0.0032 0.0
O1177 O 0.64513 0.31539 0.97098 0.0
O1178 O 0.63532 0.26559 0.02259 0.0
O1179 O 0.68175 0.3513 0.00886 0.0
O1180 O 0.68412 0.2989 0.06045 0.0
O1181 O 0.61784 0.32394 0.03579 0.0
O1182 O 0.70425 0.32058 0.03899 0.0
O1183 O 0.64521 0.35312 0.00894 0.0
O1184 O 0.63536 0.30107 0.05838 0.0
O1185 O 0.68169 0.31537 0.97272 0.0
O1186 O 0.68407 0.26342 0.0247 0.0
O1187 O 0.61775 0.28843 2e-05 0.0
Sc1188 Sc 0.65967 0.54039 0.78364 0.0
Sc1189 Sc 0.63318 0.50406 0.81976 0.0
Sc1190 Sc 0.69114 0.50627 0.81747 0.0
O1191 O 0.6613 0.51693 0.80693 0.0
C1192 C 0.69963 0.51162 0.76619 0.0
C1193 C 0.6207 0.50846 0.76936 0.0
C1194 C 0.66391 0.46206 0.81315 0.0
C1195 C 0.62075 0.5545 0.8157 0.0
C1196 C 0.6997 0.55757 0.81245 0.0
C1197 C 0.66399 0.51045 0.86175 0.0
O1198 O 0.68399 0.52505 0.76335 0.0
O1199 O 0.61772 0.50007 0.7882 0.0
O1200 O 0.68167 0.47267 0.81496 0.0
O1201 O 0.63527 0.55841 0.8013 0.0
O1202 O 0.70421 0.53892 0.82055 0.0
O1203 O 0.64519 0.50865 0.85294 0.0
O1204 O 0.68403 0.56054 0.79908 0.0
O1205 O 0.61775 0.5356 0.82394 0.0
O1206 O 0.68174 0.50861 0.8511 0.0
O1207 O 0.63521 0.52289 0.76554 0.0
O1208 O 0.70414 0.50337 0.78477 0.0
O1209 O 0.64512 0.47089 0.81502 0.0
Sc1210 Sc 0.16396 0.78314 0.28351 0.0
Sc1211 Sc 0.1905 0.81937 0.31971 0.0
Sc1212 Sc 0.13254 0.8172 0.31747 0.0
O1213 O 0.16237 0.80655 0.30688 0.0
C1214 C 0.12399 0.81194 0.26618 0.0
C1215 C 0.20289 0.81516 0.26928 0.0
C1216 C 0.15977 0.86141 0.3132 0.0
C1217 C 0.20296 0.76894 0.31543 0.0
C1218 C 0.12397 0.76591 0.31236 0.0
C1219 C 0.15974 0.81288 0.3617 0.0
O1220 O 0.13964 0.79853 0.26329 0.0
O1221 O 0.20587 0.82351 0.28814 0.0
O1222 O 0.142 0.85079 0.31496 0.0
O1223 O 0.18839 0.76507 0.30108 0.0
O1224 O 0.11949 0.78454 0.32053 0.0
O1225 O 0.17854 0.81462 0.35288 0.0
O1226 O 0.13961 0.76297 0.29894 0.0
O1227 O 0.20597 0.78782 0.32372 0.0
O1228 O 0.14198 0.81484 0.35109 0.0
O1229 O 0.1884 0.8007 0.26545 0.0
O1230 O 0.11949 0.82013 0.28479 0.0
O1231 O 0.17855 0.85257 0.31512 0.0
Sc1232 Sc 0.317 0.31722 0.63247 0.0
Sc1233 Sc 0.31912 0.31939 0.69042 0.0
Sc1234 Sc 0.28282 0.28332 0.66381 0.0
O1235 O 0.30629 0.30662 0.66227 0.0
C1236 C 0.2657 0.31223 0.62383 0.0
C1237 C 0.31278 0.36144 0.65972 0.0
C1238 C 0.26866 0.31526 0.7028 0.0
C1239 C 0.36118 0.31283 0.65976 0.0
C1240 C 0.31161 0.26595 0.62385 0.0
C1241 C 0.31474 0.26897 0.70276 0.0
O1242 O 0.28436 0.32036 0.61938 0.0
O1243 O 0.31449 0.35258 0.67851 0.0
O1244 O 0.26476 0.30092 0.68822 0.0
O1245 O 0.35059 0.31461 0.64197 0.0
O1246 O 0.29818 0.26308 0.63949 0.0
O1247 O 0.32314 0.2878 0.70577 0.0
O1248 O 0.31987 0.28454 0.61938 0.0
O1249 O 0.35232 0.31474 0.67852 0.0
O1250 O 0.3003 0.26519 0.68826 0.0
O1251 O 0.3147 0.35084 0.64195 0.0
O1252 O 0.26272 0.29881 0.63945 0.0
O1253 O 0.28756 0.32348 0.70584 0.0
Sc1254 Sc 0.25667 0.56732 0.3826 0.0
Sc1255 Sc 0.2545 0.56948 0.44055 0.0
Sc1256 Sc 0.29085 0.53344 0.41397 0.0
O1257 O 0.26736 0.55672 0.4124 0.0
C1258 C 0.26207 0.51606 0.37398 0.0
C1259 C 0.21247 0.56295 0.40984 0.0
C1260 C 0.25889 0.51906 0.45289 0.0
C1261 C 0.2609 0.61153 0.40986 0.0
C1262 C 0.30797 0.56232 0.37396 0.0
C1263 C 0.30494 0.56536 0.453 0.0
O1264 O 0.25379 0.53464 0.36953 0.0
O1265 O 0.2213 0.56483 0.42862 0.0
O1266 O 0.27337 0.51529 0.4384 0.0
O1267 O 0.25899 0.60094 0.39208 0.0
O1268 O 0.31097 0.54893 0.38961 0.0
O1269 O 0.28603 0.57356 0.45601 0.0
O1270 O 0.28931 0.57043 0.36951 0.0
O1271 O 0.25914 0.60267 0.42864 0.0
O1272 O 0.30888 0.55104 0.43841 0.0
O1273 O 0.22307 0.56475 0.39207 0.0
O1274 O 0.27551 0.51319 0.38961 0.0
O1275 O 0.25046 0.53788 0.45587 0.0
Sc1276 Sc 0.25643 0.25633 0.44087 0.0
Sc1277 Sc 0.25434 0.2542 0.38291 0.0
Sc1278 Sc 0.29064 0.29023 0.40956 0.0
O1279 O 0.26715 0.26694 0.41108 0.0
C1280 C 0.2618 0.30759 0.4495 0.0
C1281 C 0.21226 0.26074 0.41357 0.0
C1282 C 0.25876 0.30462 0.37059 0.0
C1283 C 0.26064 0.21212 0.4136 0.0
C1284 C 0.30772 0.26132 0.44956 0.0
C1285 C 0.3048 0.2583 0.37056 0.0
O1286 O 0.25353 0.289 0.45396 0.0
O1287 O 0.22113 0.25888 0.3948 0.0
O1288 O 0.27319 0.30839 0.38511 0.0
O1289 O 0.25876 0.22271 0.43138 0.0
O1290 O 0.31072 0.27473 0.43393 0.0
O1291 O 0.2859 0.25008 0.36751 0.0
O1292 O 0.28906 0.2532 0.454 0.0
O1293 O 0.25891 0.22099 0.39482 0.0
O1294 O 0.3087 0.27264 0.38515 0.0
O1295 O 0.22284 0.2589 0.43136 0.0
O1296 O 0.27526 0.31046 0.43389 0.0
O1297 O 0.25035 0.2858 0.36757 0.0
Sc1298 Sc 0.28293 0.54024 0.15957 0.0
Sc1299 Sc 0.31932 0.50426 0.13295 0.0
Sc1300 Sc 0.31718 0.50638 0.1909 0.0
O1301 O 0.30645 0.51698 0.16111 0.0
C1302 C 0.31175 0.55763 0.19953 0.0
C1303 C 0.31485 0.55469 0.12065 0.0
C1304 C 0.36137 0.51077 0.16364 0.0
C1305 C 0.26887 0.50834 0.1205 0.0
C1306 C 0.26587 0.51134 0.19957 0.0
C1307 C 0.31296 0.46218 0.16363 0.0
O1308 O 0.29826 0.56047 0.18394 0.0
O1309 O 0.3233 0.53588 0.11763 0.0
O1310 O 0.35077 0.50894 0.18141 0.0
O1311 O 0.26492 0.52264 0.1351 0.0
O1312 O 0.28454 0.50327 0.20403 0.0
O1313 O 0.31473 0.47104 0.14485 0.0
O1314 O 0.26284 0.5247 0.1839 0.0
O1315 O 0.28779 0.50014 0.11749 0.0
O1316 O 0.31483 0.47278 0.18141 0.0
O1317 O 0.30039 0.55842 0.13515 0.0
O1318 O 0.32008 0.53906 0.20396 0.0
O1319 O 0.35251 0.50894 0.14486 0.0
Sc1320 Sc 0.0672 0.88246 0.25625 0.0
Sc1321 Sc 0.06937 0.94041 0.25411 0.0
Sc1322 Sc 0.03292 0.91382 0.29005 0.0
O1323 O 0.05648 0.91226 0.26683 0.0
C1324 C 0.01587 0.87385 0.26107 0.0
C1325 C 0.06309 0.90973 0.21204 0.0
C1326 C 0.01891 0.95286 0.25811 0.0
C1327 C 0.11139 0.9097 0.26077 0.0
C1328 C 0.06164 0.87383 0.3075 0.0
C1329 C 0.06486 0.95271 0.30453 0.0
O1330 O 0.03455 0.86939 0.25302 0.0
O1331 O 0.06479 0.92851 0.22091 0.0
O1332 O 0.01494 0.93827 0.2724 0.0
O1333 O 0.10078 0.89193 0.25896 0.0
O1334 O 0.04819 0.88947 0.31033 0.0
O1335 O 0.07334 0.95572 0.28573 0.0
O1336 O 0.06996 0.86937 0.28894 0.0
O1337 O 0.10255 0.92848 0.25884 0.0
O1338 O 0.05037 0.93824 0.30825 0.0
O1339 O 0.065 0.89196 0.22263 0.0
O1340 O 0.01285 0.88949 0.27448 0.0
O1341 O 0.03785 0.95589 0.24995 0.0
Sc1342 Sc 0.6642 0.28329 0.28365 0.0
Sc1343 Sc 0.69081 0.3195 0.31978 0.0
Sc1344 Sc 0.63285 0.31738 0.31763 0.0
O1345 O 0.66265 0.30671 0.307 0.0
C1346 C 0.62423 0.31213 0.26636 0.0
C1347 C 0.70318 0.3152 0.26935 0.0
C1348 C 0.66011 0.36156 0.31328 0.0
C1349 C 0.70317 0.26905 0.31558 0.0
C1350 C 0.62424 0.2661 0.31256 0.0
C1351 C 0.66009 0.3131 0.36184 0.0
O1352 O 0.63987 0.2987 0.26344 0.0
O1353 O 0.7062 0.32355 0.2882 0.0
O1354 O 0.64234 0.35097 0.31512 0.0
O1355 O 0.68862 0.2652 0.30121 0.0
O1356 O 0.61978 0.28473 0.32072 0.0
O1357 O 0.67888 0.31485 0.35298 0.0
O1358 O 0.63985 0.26315 0.29912 0.0
O1359 O 0.70622 0.28793 0.32386 0.0
O1360 O 0.64232 0.31502 0.35124 0.0
O1361 O 0.68864 0.3008 0.26554 0.0
O1362 O 0.61976 0.32033 0.28497 0.0
O1363 O 0.67889 0.35271 0.31512 0.0
Sc1364 Sc 0.541 0.15971 0.28369 0.0
Sc1365 Sc 0.50454 0.13311 0.31959 0.0
Sc1366 Sc 0.50673 0.19106 0.31749 0.0
O1367 O 0.51744 0.16126 0.3069 0.0
C1368 C 0.55806 0.19966 0.31266 0.0
C1369 C 0.55498 0.12063 0.31559 0.0
C1370 C 0.51084 0.16375 0.36169 0.0
C1371 C 0.50903 0.12087 0.26917 0.0
C1372 C 0.51229 0.19971 0.26625 0.0
C1373 C 0.46253 0.16383 0.313 0.0
O1374 O 0.56109 0.18402 0.29927 0.0
O1375 O 0.53604 0.11761 0.32373 0.0
O1376 O 0.50896 0.18154 0.35111 0.0
O1377 O 0.52354 0.13532 0.26547 0.0
O1378 O 0.50394 0.20415 0.28481 0.0
O1379 O 0.47136 0.14506 0.31491 0.0
O1380 O 0.52575 0.18409 0.26343 0.0
O1381 O 0.50055 0.11785 0.28796 0.0
O1382 O 0.47314 0.1816 0.31481 0.0
O1383 O 0.55896 0.13524 0.30131 0.0
O1384 O 0.53938 0.20413 0.32071 0.0
O1385 O 0.50912 0.14498 0.35281 0.0
Sc1386 Sc 0.94078 0.256 0.75599 0.0
Sc1387 Sc 0.88281 0.25387 0.7539 0.0
Sc1388 Sc 0.90946 0.29005 0.79005 0.0
O1389 O 0.91099 0.26666 0.76666 0.0
C1390 C 0.94943 0.26117 0.80726 0.0
C1391 C 0.91353 0.21181 0.76037 0.0
C1392 C 0.87049 0.25816 0.80435 0.0
C1393 C 0.91349 0.26029 0.71181 0.0
C1394 C 0.94939 0.30729 0.76113 0.0
C1395 C 0.87049 0.30432 0.75812 0.0
O1396 O 0.95388 0.25299 0.78864 0.0
O1397 O 0.89474 0.22067 0.75859 0.0
O1398 O 0.88505 0.27253 0.80817 0.0
O1399 O 0.93127 0.25844 0.7224 0.0
O1400 O 0.93378 0.31021 0.77458 0.0
O1401 O 0.86744 0.28546 0.74982 0.0
O1402 O 0.95386 0.28866 0.75295 0.0
O1403 O 0.89472 0.25848 0.72068 0.0
O1404 O 0.88503 0.30814 0.77251 0.0
O1405 O 0.9313 0.2224 0.75844 0.0
O1406 O 0.93381 0.27461 0.8102 0.0
O1407 O 0.86743 0.24984 0.78549 0.0
Sc1408 Sc 0.53244 0.03357 0.90961 0.0
Sc1409 Sc 0.569 0.06935 0.88297 0.0
Sc1410 Sc 0.56686 0.06727 0.94092 0.0
O1411 O 0.55608 0.0567 0.91113 0.0
C1412 C 0.51553 0.06262 0.94959 0.0
C1413 C 0.51853 0.06551 0.87054 0.0
C1414 C 0.56285 0.11148 0.91362 0.0
C1415 C 0.56429 0.01894 0.87069 0.0
C1416 C 0.56112 0.01606 0.9496 0.0
C1417 C 0.61102 0.06264 0.91365 0.0
O1418 O 0.51245 0.04922 0.93396 0.0
O1419 O 0.5375 0.07358 0.8675 0.0
O1420 O 0.56476 0.1009 0.9314 0.0
O1421 O 0.54979 0.01529 0.88517 0.0
O1422 O 0.56953 0.03459 0.95403 0.0
O1423 O 0.60218 0.06458 0.89488 0.0
O1424 O 0.54766 0.01326 0.93398 0.0
O1425 O 0.57287 0.0377 0.8677 0.0
O1426 O 0.60043 0.06445 0.93143 0.0
O1427 O 0.5145 0.05126 0.88517 0.0
O1428 O 0.53424 0.07062 0.95402 0.0
O1429 O 0.56451 0.10258 0.89484 0.0
Sc1430 Sc 0.5068 0.31721 0.19115 0.0
Sc1431 Sc 0.50466 0.31938 0.1332 0.0
Sc1432 Sc 0.54101 0.28334 0.15978 0.0
O1433 O 0.51751 0.30662 0.16134 0.0
C1434 C 0.5581 0.31221 0.19982 0.0
C1435 C 0.51097 0.36143 0.16391 0.0
C1436 C 0.55511 0.31533 0.12079 0.0
C1437 C 0.46262 0.31279 0.16388 0.0
C1438 C 0.51223 0.26595 0.19976 0.0
C1439 C 0.50915 0.26899 0.12078 0.0
O1440 O 0.53944 0.32033 0.20426 0.0
O1441 O 0.50921 0.35258 0.14513 0.0
O1442 O 0.55904 0.30098 0.13535 0.0
O1443 O 0.47321 0.31462 0.18165 0.0
O1444 O 0.52567 0.26308 0.18412 0.0
O1445 O 0.50071 0.28781 0.11781 0.0
O1446 O 0.50394 0.28453 0.20421 0.0
O1447 O 0.47147 0.31465 0.14511 0.0
O1448 O 0.52357 0.2652 0.1353 0.0
O1449 O 0.50912 0.35083 0.18168 0.0
O1450 O 0.56111 0.29883 0.18416 0.0
O1451 O 0.5362 0.32354 0.11779 0.0
Sc1452 Sc 0.53303 0.2903 0.41418 0.0
Sc1453 Sc 0.56938 0.25429 0.44081 0.0
Sc1454 Sc 0.56726 0.25641 0.38286 0.0
O1455 O 0.55653 0.26702 0.41265 0.0
C1456 C 0.51595 0.2614 0.37418 0.0
C1457 C 0.51891 0.25835 0.45317 0.0
C1458 C 0.56306 0.21221 0.41014 0.0
C1459 C 0.56491 0.30471 0.45314 0.0
C1460 C 0.56186 0.30767 0.37423 0.0
C1461 C 0.61143 0.26086 0.41014 0.0
O1462 O 0.51294 0.27479 0.38982 0.0
O1463 O 0.53782 0.25014 0.45621 0.0
O1464 O 0.56491 0.2228 0.39236 0.0
O1465 O 0.55048 0.30847 0.43862 0.0
O1466 O 0.57015 0.28909 0.36979 0.0
O1467 O 0.60257 0.25902 0.42891 0.0
O1468 O 0.54839 0.31054 0.38984 0.0
O1469 O 0.57333 0.28589 0.45615 0.0
O1470 O 0.60085 0.25899 0.39236 0.0
O1471 O 0.515 0.27269 0.4386 0.0
O1472 O 0.53462 0.25329 0.36974 0.0
O1473 O 0.56484 0.22108 0.42891 0.0
Sc1474 Sc 0.54075 0.04075 0.16401 0.0
Sc1475 Sc 0.50429 0.00479 0.19056 0.0
Sc1476 Sc 0.50648 0.00697 0.13262 0.0
O1477 O 0.51719 0.01753 0.16243 0.0
C1478 C 0.51205 0.05823 0.12403 0.0
C1479 C 0.50885 0.05517 0.20296 0.0
C1480 C 0.46228 0.01149 0.15985 0.0
C1481 C 0.55476 0.00875 0.203 0.0
C1482 C 0.55779 0.01183 0.12398 0.0
C1483 C 0.51055 0.96273 0.15987 0.0
O1484 O 0.52547 0.06105 0.13968 0.0
O1485 O 0.50036 0.03638 0.20591 0.0
O1486 O 0.47289 0.00967 0.14208 0.0
O1487 O 0.55873 0.02306 0.18842 0.0
O1488 O 0.53912 0.00375 0.11955 0.0
O1489 O 0.50881 0.97159 0.17865 0.0
O1490 O 0.56082 0.02523 0.13963 0.0
O1491 O 0.53582 0.00059 0.20602 0.0
O1492 O 0.50869 0.97333 0.14209 0.0
O1493 O 0.52333 0.05892 0.18848 0.0
O1494 O 0.50372 0.03966 0.11956 0.0
O1495 O 0.47111 0.00956 0.17863 0.0
Sc1496 Sc 0.94099 0.06712 0.56729 0.0
Sc1497 Sc 0.88304 0.06932 0.56941 0.0
Sc1498 Sc 0.90962 0.03301 0.53334 0.0
O1499 O 0.91118 0.05646 0.55666 0.0
C1500 C 0.94962 0.0618 0.51603 0.0
C1501 C 0.91378 0.11133 0.56288 0.0
C1502 C 0.8707 0.06495 0.51898 0.0
C1503 C 0.91372 0.06291 0.61148 0.0
C1504 C 0.94957 0.01581 0.56226 0.0
C1505 C 0.8706 0.01889 0.56527 0.0
O1506 O 0.95408 0.07004 0.53463 0.0
O1507 O 0.89499 0.1025 0.56471 0.0
O1508 O 0.88521 0.05053 0.51519 0.0
O1509 O 0.9315 0.06476 0.60089 0.0
O1510 O 0.93393 0.01285 0.54884 0.0
O1511 O 0.86759 0.03778 0.57353 0.0
O1512 O 0.95405 0.03446 0.57038 0.0
O1513 O 0.89494 0.06471 0.60262 0.0
O1514 O 0.88516 0.01498 0.55091 0.0
O1515 O 0.93154 0.10072 0.56476 0.0
O1516 O 0.93399 0.04836 0.51314 0.0
O1517 O 0.86768 0.07333 0.53782 0.0
Sc1518 Sc 0.88271 0.25609 0.06742 0.0
Sc1519 Sc 0.94067 0.2539 0.06952 0.0
Sc1520 Sc 0.91407 0.29018 0.03344 0.0
O1521 O 0.91251 0.26674 0.05677 0.0
C1522 C 0.87405 0.26141 0.01616 0.0
C1523 C 0.9099 0.21189 0.06299 0.0
C1524 C 0.95297 0.2582 0.01907 0.0
C1525 C 0.91 0.26029 0.1116 0.0
C1526 C 0.87417 0.3074 0.06243 0.0
C1527 C 0.95312 0.30433 0.06532 0.0
O1528 O 0.86957 0.25321 0.03477 0.0
O1529 O 0.92869 0.22071 0.06485 0.0
O1530 O 0.93846 0.27264 0.01529 0.0
O1531 O 0.89222 0.25839 0.10102 0.0
O1532 O 0.88977 0.31033 0.04896 0.0
O1533 O 0.95614 0.28545 0.07358 0.0
O1534 O 0.86969 0.28876 0.07057 0.0
O1535 O 0.92877 0.25856 0.10273 0.0
O1536 O 0.93853 0.30822 0.05099 0.0
O1537 O 0.89214 0.2225 0.06484 0.0
O1538 O 0.8897 0.27482 0.01325 0.0
O1539 O 0.95601 0.24984 0.03791 0.0
Sc1540 Sc 0.31727 0.63268 0.31709 0.0
Sc1541 Sc 0.31943 0.69063 0.31924 0.0
Sc1542 Sc 0.28309 0.66404 0.2832 0.0
O1543 O 0.30657 0.66248 0.30648 0.0
C1544 C 0.31186 0.62405 0.26582 0.0
C1545 C 0.36146 0.65993 0.31263 0.0
C1546 C 0.31497 0.70301 0.26883 0.0
C1547 C 0.31312 0.65994 0.3613 0.0
C1548 C 0.26597 0.62405 0.31211 0.0
C1549 C 0.26897 0.70303 0.31518 0.0
O1550 O 0.32012 0.61959 0.28441 0.0
O1551 O 0.35262 0.67871 0.3145 0.0
O1552 O 0.30054 0.68849 0.26505 0.0
O1553 O 0.31497 0.64216 0.3507 0.0
O1554 O 0.26298 0.63968 0.29869 0.0
O1555 O 0.28788 0.70605 0.3234 0.0
O1556 O 0.28462 0.6196 0.32023 0.0
O1557 O 0.31488 0.67872 0.35244 0.0
O1558 O 0.26506 0.68846 0.30082 0.0
O1559 O 0.35086 0.64215 0.31448 0.0
O1560 O 0.29843 0.63969 0.26295 0.0
O1561 O 0.32339 0.706 0.28765 0.0
Sc1562 Sc 0.3172 0.69108 0.00656 0.0
Sc1563 Sc 0.31936 0.63313 0.00438 0.0
Sc1564 Sc 0.28291 0.65971 0.04033 0.0
O1565 O 0.30647 0.66128 0.01712 0.0
C1566 C 0.31163 0.6997 0.05781 0.0
C1567 C 0.36138 0.66382 0.01106 0.0
C1568 C 0.31481 0.62075 0.05477 0.0
C1569 C 0.31309 0.66384 0.96233 0.0
C1570 C 0.26589 0.69974 0.0114 0.0
C1571 C 0.2689 0.62068 0.00835 0.0
O1572 O 0.31996 0.70415 0.03925 0.0
O1573 O 0.35254 0.64505 0.00912 0.0
O1574 O 0.30033 0.63524 0.05851 0.0
O1575 O 0.315 0.68161 0.97293 0.0
O1576 O 0.26285 0.68409 0.02479 0.0
O1577 O 0.28784 0.61767 0.0002 0.0
O1578 O 0.28457 0.70417 0.00334 0.0
O1579 O 0.31479 0.64506 0.97119 0.0
O1580 O 0.26492 0.63527 0.02266 0.0
O1581 O 0.35078 0.6816 0.00926 0.0
O1582 O 0.29819 0.68406 0.06064 0.0
O1583 O 0.3233 0.61779 0.03597 0.0
Sc1584 Sc 0.91404 0.03299 0.29005 0.0
Sc1585 Sc 0.94063 0.06933 0.25401 0.0
Sc1586 Sc 0.88267 0.0672 0.2562 0.0
O1587 O 0.91248 0.05649 0.26678 0.0
C1588 C 0.87404 0.0159 0.26113 0.0
C1589 C 0.95302 0.01888 0.25807 0.0
C1590 C 0.90988 0.06303 0.21197 0.0
C1591 C 0.95302 0.06488 0.30443 0.0
C1592 C 0.87408 0.06178 0.30746 0.0
C1593 C 0.90993 0.11137 0.26063 0.0
O1594 O 0.88967 0.0129 0.27454 0.0
O1595 O 0.95605 0.03778 0.24986 0.0
O1596 O 0.89212 0.06492 0.22258 0.0
O1597 O 0.9385 0.05045 0.3082 0.0
O1598 O 0.8696 0.07005 0.28888 0.0
O1599 O 0.92871 0.10253 0.25874 0.0
O1600 O 0.88971 0.04833 0.31032 0.0
O1601 O 0.95602 0.0733 0.2856 0.0
O1602 O 0.89215 0.10078 0.25881 0.0
O1603 O 0.93846 0.01496 0.27242 0.0
O1604 O 0.86957 0.03456 0.25304 0.0
O1605 O 0.92867 0.06475 0.22081 0.0
Sc1606 Sc 0.54069 0.66397 0.54028 0.0
Sc1607 Sc 0.50424 0.69055 0.50435 0.0
Sc1608 Sc 0.50642 0.6326 0.50649 0.0
O1609 O 0.51714 0.66241 0.51706 0.0
C1610 C 0.55774 0.62398 0.51135 0.0
C1611 C 0.55469 0.70301 0.50833 0.0
C1612 C 0.51055 0.65987 0.46228 0.0
C1613 C 0.50876 0.70288 0.55476 0.0
C1614 C 0.51196 0.62398 0.55773 0.0
C1615 C 0.46222 0.65984 0.51096 0.0
O1616 O 0.56077 0.63963 0.52473 0.0
O1617 O 0.53575 0.70603 0.50018 0.0
O1618 O 0.50867 0.64209 0.47287 0.0
O1619 O 0.52325 0.6884 0.55848 0.0
O1620 O 0.50362 0.61953 0.53917 0.0
O1621 O 0.47106 0.67862 0.50907 0.0
O1622 O 0.52541 0.63961 0.56056 0.0
O1623 O 0.50028 0.70587 0.53596 0.0
O1624 O 0.47283 0.64207 0.50914 0.0
O1625 O 0.55866 0.68842 0.52263 0.0
O1626 O 0.53906 0.61952 0.50329 0.0
O1627 O 0.5088 0.67865 0.47114 0.0
Sc1628 Sc 0.567 0.44095 0.56734 0.0
Sc1629 Sc 0.56914 0.383 0.5695 0.0
Sc1630 Sc 0.53282 0.40959 0.53344 0.0
O1631 O 0.5563 0.41115 0.55674 0.0
C1632 C 0.5157 0.44957 0.56238 0.0
C1633 C 0.5628 0.41369 0.61155 0.0
C1634 C 0.51869 0.37056 0.56534 0.0
C1635 C 0.61119 0.4137 0.56293 0.0
C1636 C 0.56156 0.44959 0.51607 0.0
C1637 C 0.56478 0.37066 0.51908 0.0
O1638 O 0.53435 0.45401 0.57052 0.0
O1639 O 0.56449 0.39491 0.60269 0.0
O1640 O 0.51478 0.38515 0.55103 0.0
O1641 O 0.60058 0.43147 0.56469 0.0
O1642 O 0.54816 0.43394 0.5132 0.0
O1643 O 0.57319 0.36768 0.53791 0.0
O1644 O 0.56982 0.45406 0.53467 0.0
O1645 O 0.60235 0.39492 0.56487 0.0
O1646 O 0.55031 0.38515 0.5153 0.0
O1647 O 0.56474 0.43146 0.60096 0.0
O1648 O 0.51272 0.43395 0.54895 0.0
O1649 O 0.5376 0.36753 0.57357 0.0
Sc1650 Sc 0.19116 0.8176 0.00622 0.0
Sc1651 Sc 0.13319 0.81976 0.00406 0.0
Sc1652 Sc 0.15978 0.78351 0.04018 0.0
O1653 O 0.16134 0.80693 0.01684 0.0
C1654 C 0.19979 0.7663 0.01136 0.0
C1655 C 0.16392 0.81334 0.96202 0.0
C1656 C 0.12085 0.7693 0.00818 0.0
C1657 C 0.1639 0.8618 0.01054 0.0
C1658 C 0.1997 0.81241 0.05751 0.0
C1659 C 0.1208 0.8154 0.05448 0.0
O1660 O 0.20428 0.78494 0.00323 0.0
O1661 O 0.14513 0.81519 0.97085 0.0
O1662 O 0.13538 0.76544 0.02258 0.0
O1663 O 0.18167 0.8512 0.00864 0.0
O1664 O 0.18409 0.79894 0.06039 0.0
O1665 O 0.11777 0.82375 0.03563 0.0
O1666 O 0.20418 0.82062 0.0389 0.0
O1667 O 0.14511 0.85295 0.00878 0.0
O1668 O 0.13534 0.801 0.05829 0.0
O1669 O 0.18169 0.81513 0.97263 0.0
O1670 O 0.18413 0.76336 0.02475 0.0
O1671 O 0.11781 0.78818 -9e-05 0.0
Sc1672 Sc 0.79064 0.90957 0.28994 0.0
Sc1673 Sc 0.75426 0.883 0.25392 0.0
Sc1674 Sc 0.75642 0.94096 0.25612 0.0
O1675 O 0.76713 0.91115 0.26668 0.0
C1676 C 0.76186 0.94952 0.30738 0.0
C1677 C 0.75869 0.87066 0.30434 0.0
C1678 C 0.71223 0.91371 0.2605 0.0
C1679 C 0.80471 0.87057 0.25797 0.0
C1680 C 0.80774 0.94957 0.26105 0.0
C1681 C 0.7606 0.91374 0.21188 0.0
O1682 O 0.77532 0.9339 0.31021 0.0
O1683 O 0.75025 0.86766 0.28552 0.0
O1684 O 0.72283 0.93148 0.25872 0.0
O1685 O 0.80865 0.88514 0.2723 0.0
O1686 O 0.78907 0.95405 0.25298 0.0
O1687 O 0.75886 0.89494 0.22072 0.0
O1688 O 0.81074 0.93391 0.27443 0.0
O1689 O 0.78579 0.86755 0.24978 0.0
O1690 O 0.75871 0.9315 0.22249 0.0
O1691 O 0.77316 0.88514 0.30809 0.0
O1692 O 0.75357 0.954 0.28881 0.0
O1693 O 0.72107 0.89493 0.2586 0.0
Sc1694 Sc 0.1642 0.5402 0.03997 0.0
Sc1695 Sc 0.19084 0.50402 0.00382 0.0
Sc1696 Sc 0.13287 0.50614 0.00594 0.0
O1697 O 0.16267 0.5168 0.0166 0.0
C1698 C 0.12425 0.51132 0.05722 0.0
C1699 C 0.20317 0.50829 0.05427 0.0
C1700 C 0.16012 0.46195 0.01027 0.0
C1701 C 0.20319 0.55447 0.00808 0.0
C1702 C 0.12426 0.55742 0.01105 0.0
C1703 C 0.16013 0.51043 0.96175 0.0
O1704 O 0.13987 0.52475 0.06014 0.0
O1705 O 0.20621 0.49996 0.03542 0.0
O1706 O 0.14235 0.47255 0.00842 0.0
O1707 O 0.18862 0.5583 0.02245 0.0
O1708 O 0.11979 0.53879 0.00288 0.0
O1709 O 0.17892 0.50867 0.97061 0.0
O1710 O 0.13986 0.56035 0.02451 0.0
O1711 O 0.20624 0.53561 -0.00022 0.0
O1712 O 0.14236 0.50854 0.97234 0.0
O1713 O 0.18863 0.52268 0.05808 0.0
O1714 O 0.11976 0.50315 0.03859 0.0
O1715 O 0.1789 0.4708 0.00846 0.0
Sc1716 Sc 0.79047 0.91394 0.53345 0.0
Sc1717 Sc 0.75416 0.9406 0.56947 0.0
Sc1718 Sc 0.75624 0.88264 0.56735 0.0
O1719 O 0.76698 0.91242 0.55673 0.0
C1720 C 0.76163 0.874 0.51608 0.0
C1721 C 0.75858 0.9529 0.51904 0.0
C1722 C 0.71208 0.90994 0.56293 0.0
C1723 C 0.80463 0.95295 0.56536 0.0
C1724 C 0.80754 0.87395 0.56238 0.0
C1725 C 0.76048 0.90992 0.61154 0.0
O1726 O 0.77509 0.88961 0.51322 0.0
O1727 O 0.75016 0.95592 0.53786 0.0
O1728 O 0.72266 0.89216 0.56475 0.0
O1729 O 0.80853 0.93835 0.55104 0.0
O1730 O 0.78887 0.86951 0.57049 0.0
O1731 O 0.75876 0.9287 0.60267 0.0
O1732 O 0.81054 0.88957 0.54897 0.0
O1733 O 0.78572 0.95601 0.57357 0.0
O1734 O 0.75856 0.89214 0.60096 0.0
O1735 O 0.77303 0.93838 0.51529 0.0
O1736 O 0.75336 0.86955 0.53467 0.0
O1737 O 0.72095 0.92871 0.5648 0.0
Sc1738 Sc 0.15962 0.04006 0.78302 0.0
Sc1739 Sc 0.13307 0.00397 0.81933 0.0
Sc1740 Sc 0.19103 0.00617 0.81717 0.0
O1741 O 0.16121 0.01676 0.80649 0.0
C1742 C 0.19966 0.01121 0.76587 0.0
C1743 C 0.12066 0.00807 0.76889 0.0
C1744 C 0.16383 0.96194 0.81295 0.0
C1745 C 0.12063 0.05437 0.81492 0.0
C1746 C 0.19958 0.05745 0.81184 0.0
C1747 C 0.16379 0.01053 0.86136 0.0
O1748 O 0.184 0.0246 0.7629 0.0
O1749 O 0.11764 -0.00017 0.78779 0.0
O1750 O 0.18159 0.97256 0.81481 0.0
O1751 O 0.13515 0.05817 0.8005 0.0
O1752 O 0.20407 0.03886 0.82008 0.0
O1753 O 0.14501 0.00868 0.85252 0.0
O1754 O 0.18395 0.06031 0.7984 0.0
O1755 O 0.11765 0.03554 0.82333 0.0
O1756 O 0.18156 0.00869 0.85076 0.0
O1757 O 0.13521 0.02243 0.76498 0.0
O1758 O 0.20413 0.00309 0.78452 0.0
O1759 O 0.14504 0.97077 0.81472 0.0
Sc1760 Sc 0.53243 0.79019 0.91418 0.0
Sc1761 Sc 0.56895 0.75443 0.94091 0.0
Sc1762 Sc 0.56689 0.75644 0.88296 0.0
O1763 O 0.55607 0.76705 0.91271 0.0
C1764 C 0.51558 0.76113 0.87418 0.0
C1765 C 0.51846 0.75829 0.95326 0.0
C1766 C 0.56279 0.71228 0.91029 0.0
C1767 C 0.56419 0.80485 0.95317 0.0
C1768 C 0.56122 0.80765 0.87424 0.0
C1769 C 0.61102 0.76108 0.91027 0.0
O1770 O 0.51247 0.77453 0.8898 0.0
O1771 O 0.53742 0.75023 0.95634 0.0
O1772 O 0.56472 0.72283 0.8925 0.0
O1773 O 0.54971 0.80848 0.93865 0.0
O1774 O 0.56962 0.78911 0.86984 0.0
O1775 O 0.60215 0.7592 0.92903 0.0
O1776 O 0.54772 0.81047 0.88983 0.0
O1777 O 0.57278 0.7861 0.95617 0.0
O1778 O 0.60045 0.75921 0.89248 0.0
O1779 O 0.51444 0.77252 0.93861 0.0
O1780 O 0.5343 0.75313 0.86979 0.0
O1781 O 0.56446 0.72119 0.92906 0.0
Sc1782 Sc 0.50657 0.8169 0.69117 0.0
Sc1783 Sc 0.50438 0.81913 0.63323 0.0
Sc1784 Sc 0.54079 0.7831 0.65974 0.0
O1785 O 0.51727 0.80635 0.66135 0.0
C1786 C 0.55789 0.81193 0.6998 0.0
C1787 C 0.51073 0.86115 0.66397 0.0
C1788 C 0.55481 0.81511 0.62075 0.0
C1789 C 0.46236 0.81251 0.66393 0.0
C1790 C 0.51206 0.76563 0.69972 0.0
C1791 C 0.50884 0.76874 0.62081 0.0
O1792 O 0.53922 0.82002 0.70426 0.0
O1793 O 0.50896 0.85232 0.64517 0.0
O1794 O 0.55878 0.80077 0.63531 0.0
O1795 O 0.47297 0.81429 0.6817 0.0
O1796 O 0.52551 0.7628 0.68408 0.0
O1797 O 0.50039 0.78755 0.61786 0.0
O1798 O 0.50374 0.78419 0.70419 0.0
O1799 O 0.47119 0.81442 0.64516 0.0
O1800 O 0.52332 0.76497 0.63528 0.0
O1801 O 0.50887 0.85053 0.68173 0.0
O1802 O 0.5609 0.79858 0.68412 0.0
O1803 O 0.53589 0.82329 0.61776 0.0
Sc1804 Sc 0.16399 0.03996 0.54035 0.0
Sc1805 Sc 0.19057 0.00379 0.50414 0.0
Sc1806 Sc 0.13262 0.00596 0.5063 0.0
O1807 O 0.16242 0.01659 0.51695 0.0
C1808 C 0.12401 0.01111 0.55759 0.0
C1809 C 0.20296 0.00802 0.55457 0.0
C1810 C 0.15984 0.96175 0.51061 0.0
C1811 C 0.20296 0.05423 0.50843 0.0
C1812 C 0.12402 0.05724 0.51149 0.0
C1813 C 0.15987 0.01025 0.4621 0.0
O1814 O 0.13965 0.02452 0.56053 0.0
O1815 O 0.20597 -0.00029 0.5357 0.0
O1816 O 0.14208 0.97236 0.50875 0.0
O1817 O 0.18841 0.05806 0.52282 0.0
O1818 O 0.11956 0.03863 0.50328 0.0
O1819 O 0.17865 0.00845 0.47095 0.0
O1820 O 0.13964 0.06015 0.52494 0.0
O1821 O 0.20598 0.03537 0.50009 0.0
O1822 O 0.1421 0.00839 0.4727 0.0
O1823 O 0.18842 0.02241 0.55843 0.0
O1824 O 0.11952 0.00296 0.53895 0.0
O1825 O 0.17863 0.97059 0.50879 0.0
Sc1826 Sc 0.79095 0.4097 0.79006 0.0
Sc1827 Sc 0.75445 0.38309 0.7542 0.0
Sc1828 Sc 0.75659 0.44105 0.75634 0.0
O1829 O 0.76735 0.41125 0.76689 0.0
C1830 C 0.76222 0.44967 0.80757 0.0
C1831 C 0.75905 0.3708 0.80461 0.0
C1832 C 0.71242 0.41378 0.76084 0.0
C1833 C 0.8049 0.37063 0.75813 0.0
C1834 C 0.80791 0.44972 0.76111 0.0
C1835 C 0.7607 0.41378 0.71212 0.0
O1836 O 0.7757 0.43406 0.81036 0.0
O1837 O 0.75052 0.36781 0.78583 0.0
O1838 O 0.72302 0.43155 0.75905 0.0
O1839 O 0.80891 0.38525 0.7724 0.0
O1840 O 0.78921 0.45417 0.7531 0.0
O1841 O 0.759 0.39499 0.72099 0.0
O1842 O 0.81099 0.43405 0.77446 0.0
O1843 O 0.78595 0.36761 0.75002 0.0
O1844 O 0.75879 0.43155 0.72271 0.0
O1845 O 0.77355 0.38527 0.80829 0.0
O1846 O 0.75384 0.45411 0.78903 0.0
O1847 O 0.72126 0.39501 0.75892 0.0
Sc1848 Sc 0.79126 0.41406 0.03363 0.0
Sc1849 Sc 0.75486 0.44072 0.06954 0.0
Sc1850 Sc 0.75688 0.38277 0.06738 0.0
O1851 O 0.76768 0.41254 0.05682 0.0
C1852 C 0.76244 0.37415 0.01614 0.0
C1853 C 0.75942 0.45303 0.01913 0.0
C1854 C 0.71275 0.41011 0.06294 0.0
C1855 C 0.80533 0.45308 0.06555 0.0
C1856 C 0.80818 0.37401 0.06257 0.0
C1857 C 0.76109 0.41 0.1116 0.0
O1858 O 0.77594 0.38974 0.01333 0.0
O1859 O 0.75091 0.45603 0.03792 0.0
O1860 O 0.72332 0.39232 0.06469 0.0
O1861 O 0.80929 0.43845 0.05128 0.0
O1862 O 0.78948 0.36959 0.07061 0.0
O1863 O 0.75944 0.42879 0.10275 0.0
O1864 O 0.81126 0.38966 0.0492 0.0
O1865 O 0.7864 0.45615 0.07368 0.0
O1866 O 0.7591 0.39224 0.10101 0.0
O1867 O 0.77389 0.43854 0.01543 0.0
O1868 O 0.75408 0.36971 0.03469 0.0
O1869 O 0.72163 0.42887 0.06487 0.0
Sc1870 Sc 0.31703 0.13264 0.81693 0.0
Sc1871 Sc 0.31913 0.19059 0.81904 0.0
Sc1872 Sc 0.28292 0.16394 0.78291 0.0
O1873 O 0.30633 0.16242 0.80627 0.0
C1874 C 0.31178 0.12397 0.76565 0.0
C1875 C 0.3612 0.15992 0.81256 0.0
C1876 C 0.31482 0.20293 0.76861 0.0
C1877 C 0.31274 0.15992 0.86111 0.0
C1878 C 0.26575 0.12395 0.8118 0.0
C1879 C 0.26868 0.20295 0.81481 0.0
O1880 O 0.31999 0.11953 0.78427 0.0
O1881 O 0.35234 0.17869 0.81439 0.0
O1882 O 0.30041 0.18839 0.76479 0.0
O1883 O 0.31462 0.14214 0.85053 0.0
O1884 O 0.26279 0.13957 0.79837 0.0
O1885 O 0.28755 0.20598 0.8231 0.0
O1886 O 0.28438 0.11953 0.81998 0.0
O1887 O 0.3145 0.1787 0.85225 0.0
O1888 O 0.26482 0.18838 0.80045 0.0
O1889 O 0.35062 0.14214 0.81441 0.0
O1890 O 0.29834 0.1396 0.76273 0.0
O1891 O 0.32316 0.20594 0.78746 0.0
Sc1892 Sc 0.9414 0.56748 0.0673 0.0
Sc1893 Sc 0.88344 0.56969 0.0695 0.0
Sc1894 Sc 0.90998 0.53343 0.03334 0.0
O1895 O 0.91158 0.55685 0.0567 0.0
C1896 C 0.94994 0.56226 0.01601 0.0
C1897 C 0.91418 0.6117 0.06298 0.0
C1898 C 0.87102 0.56538 0.01908 0.0
C1899 C 0.91419 0.56324 0.11153 0.0
C1900 C 0.94996 0.51618 0.06218 0.0
C1901 C 0.87105 0.51925 0.06535 0.0
O1902 O 0.95444 0.57046 0.03462 0.0
O1903 O 0.89539 0.60287 0.06479 0.0
O1904 O 0.88555 0.55097 0.01525 0.0
O1905 O 0.93195 0.56506 0.10091 0.0
O1906 O 0.93431 0.51325 0.04878 0.0
O1907 O 0.86804 0.53813 0.07364 0.0
O1908 O 0.95447 0.53481 0.07032 0.0
O1909 O 0.8954 0.56508 0.10269 0.0
O1910 O 0.88556 0.51538 0.05094 0.0
O1911 O 0.93194 0.60109 0.06485 0.0
O1912 O 0.93431 0.54883 0.01313 0.0
O1913 O 0.86802 0.57371 0.03794 0.0
Sc1914 Sc 0.31696 0.19084 0.50632 0.0
Sc1915 Sc 0.31914 0.13289 0.50418 0.0
Sc1916 Sc 0.28284 0.15947 0.54028 0.0
O1917 O 0.30629 0.16104 0.51695 0.0
C1918 C 0.31161 0.1995 0.55758 0.0
C1919 C 0.36116 0.16362 0.51072 0.0
C1920 C 0.31479 0.12053 0.5546 0.0
C1921 C 0.31275 0.16357 0.46212 0.0
C1922 C 0.26566 0.19946 0.51138 0.0
C1923 C 0.26871 0.12043 0.50837 0.0
O1924 O 0.31985 0.20394 0.53898 0.0
O1925 O 0.35233 0.14484 0.50885 0.0
O1926 O 0.30036 0.13504 0.55841 0.0
O1927 O 0.31462 0.18135 0.47271 0.0
O1928 O 0.26269 0.18382 0.5248 0.0
O1929 O 0.2876 0.11744 0.5001 0.0
O1930 O 0.2843 0.20391 0.50323 0.0
O1931 O 0.31451 0.1448 0.47098 0.0
O1932 O 0.2648 0.13501 0.52271 0.0
O1933 O 0.35056 0.18139 0.50888 0.0
O1934 O 0.2982 0.18385 0.56049 0.0
O1935 O 0.32318 0.11754 0.53577 0.0
Sc1936 Sc 0.53285 0.53335 0.40969 0.0
Sc1937 Sc 0.56922 0.56938 0.38313 0.0
Sc1938 Sc 0.56703 0.56721 0.44107 0.0
O1939 O 0.55635 0.55662 0.41126 0.0
C1940 C 0.51572 0.56225 0.44968 0.0
C1941 C 0.51879 0.56528 0.37065 0.0
C1942 C 0.56285 0.61143 0.41382 0.0
C1943 C 0.56483 0.51896 0.37079 0.0
C1944 C 0.56158 0.51595 0.4497 0.0
C1945 C 0.61124 0.5628 0.41384 0.0
O1946 O 0.51272 0.54885 0.43403 0.0
O1947 O 0.53771 0.57349 0.36765 0.0
O1948 O 0.56474 0.60083 0.43159 0.0
O1949 O 0.55035 0.5152 0.38526 0.0
O1950 O 0.56988 0.53453 0.45415 0.0
O1951 O 0.60241 0.56471 0.39506 0.0
O1952 O 0.54815 0.51309 0.43406 0.0
O1953 O 0.57325 0.53778 0.3678 0.0
O1954 O 0.60063 0.5646 0.43161 0.0
O1955 O 0.51484 0.55096 0.38523 0.0
O1956 O 0.53438 0.57035 0.45414 0.0
O1957 O 0.5646 0.60257 0.39504 0.0
Sc1958 Sc 0.54076 0.54034 0.66417 0.0
Sc1959 Sc 0.50442 0.50432 0.6908 0.0
Sc1960 Sc 0.50654 0.50645 0.63285 0.0
O1961 O 0.51726 0.51706 0.66264 0.0
C1962 C 0.51198 0.5577 0.62418 0.0
C1963 C 0.50889 0.55473 0.70316 0.0
C1964 C 0.46236 0.51088 0.66012 0.0
C1965 C 0.55488 0.50843 0.70321 0.0
C1966 C 0.55783 0.51141 0.62417 0.0
C1967 C 0.51073 0.46225 0.66012 0.0
O1968 O 0.52541 0.56058 0.63982 0.0
O1969 O 0.50044 0.53592 0.70614 0.0
O1970 O 0.47296 0.50907 0.64234 0.0
O1971 O 0.55881 0.52274 0.68861 0.0
O1972 O 0.53917 0.50328 0.61975 0.0
O1973 O 0.50901 0.47111 0.6789 0.0
O1974 O 0.56084 0.52482 0.63979 0.0
O1975 O 0.53597 0.50022 0.70624 0.0
O1976 O 0.50882 0.47283 0.64235 0.0
O1977 O 0.52332 0.5585 0.68864 0.0
O1978 O 0.5037 0.53911 0.61974 0.0
O1979 O 0.47122 0.50901 0.67889 0.0
Sc1980 Sc 0.88234 0.75622 0.56729 0.0
Sc1981 Sc 0.9403 0.75404 0.56948 0.0
Sc1982 Sc 0.91374 0.79039 0.53342 0.0
O1983 O 0.91216 0.7669 0.55671 0.0
C1984 C 0.87376 0.76163 0.51602 0.0
C1985 C 0.90957 0.71203 0.5629 0.0
C1986 C 0.95268 0.75844 0.51906 0.0
C1987 C 0.90957 0.76042 0.61152 0.0
C1988 C 0.87376 0.80753 0.56233 0.0
C1989 C 0.95273 0.80448 0.56538 0.0
O1990 O 0.86927 0.75337 0.53461 0.0
O1991 O 0.92835 0.72085 0.5648 0.0
O1992 O 0.93818 0.7729 0.51529 0.0
O1993 O 0.8918 0.75852 0.60091 0.0
O1994 O 0.88939 0.81051 0.54892 0.0
O1995 O 0.95575 0.78557 0.5736 0.0
O1996 O 0.86928 0.78888 0.57043 0.0
O1997 O 0.92836 0.75867 0.60267 0.0
O1998 O 0.93817 0.8084 0.55105 0.0
O1999 O 0.8918 0.72264 0.5647 0.0
O2000 O 0.88941 0.77505 0.51317 0.0
O2001 O 0.95566 0.75002 0.53788 0.0
Sc2002 Sc 0.91401 0.53345 0.79003 0.0
Sc2003 Sc 0.94061 0.56964 0.75385 0.0
Sc2004 Sc 0.88265 0.56754 0.75606 0.0
O2005 O 0.91246 0.55686 0.76667 0.0
C2006 C 0.87401 0.51626 0.76117 0.0
C2007 C 0.95291 0.51917 0.75802 0.0
C2008 C 0.90985 0.56327 0.71183 0.0
C2009 C 0.95304 0.56532 0.80427 0.0
C2010 C 0.8741 0.56233 0.80736 0.0
C2011 C 0.90994 0.61171 0.76041 0.0
O2012 O 0.88963 0.51332 0.7746 0.0
O2013 O 0.95597 0.53805 0.74973 0.0
O2014 O 0.89209 0.56514 0.72245 0.0
O2015 O 0.93849 0.55094 0.80811 0.0
O2016 O 0.8696 0.57052 0.78874 0.0
O2017 O 0.92871 0.60285 0.75856 0.0
O2018 O 0.88973 0.5489 0.81025 0.0
O2019 O 0.95605 0.57365 0.78541 0.0
O2020 O 0.89216 0.60113 0.75854 0.0
O2021 O 0.93838 0.51534 0.77243 0.0
O2022 O 0.86955 0.5349 0.75301 0.0
O2023 O 0.92864 0.56504 0.72067 0.0
Sc2024 Sc 0.54105 0.16433 0.03996 0.0
Sc2025 Sc 0.50455 0.19097 0.00412 0.0
Sc2026 Sc 0.50661 0.13301 0.00629 0.0
O2027 O 0.51742 0.1628 0.01682 0.0
C2028 C 0.55792 0.12427 0.01102 0.0
C2029 C 0.55503 0.20337 0.00803 0.0
C2030 C 0.51077 0.16024 0.96206 0.0
C2031 C 0.50918 0.20327 0.05452 0.0
C2032 C 0.51225 0.12444 0.05752 0.0
C2033 C 0.46247 0.16033 0.01078 0.0
O2034 O 0.56103 0.13993 0.02436 0.0
O2035 O 0.53607 0.20644 -5e-05 0.0
O2036 O 0.5088 0.14247 0.97265 0.0
O2037 O 0.5237 0.1888 0.05818 0.0
O2038 O 0.50385 0.11999 0.03899 0.0
O2039 O 0.47133 0.17908 0.00884 0.0
O2040 O 0.52577 0.14002 0.06029 0.0
O2041 O 0.50062 0.20626 0.03576 0.0
O2042 O 0.47305 0.14254 0.009 0.0
O2043 O 0.55903 0.18873 0.02226 0.0
O2044 O 0.53921 0.11984 0.00303 0.0
O2045 O 0.50912 0.17903 0.97091 0.0
Sc2046 Sc 0.5668 0.94125 0.06732 0.0
Sc2047 Sc 0.56889 0.88331 0.06951 0.0
Sc2048 Sc 0.53229 0.9099 0.03374 0.0
O2049 O 0.55598 0.91146 0.05682 0.0
C2050 C 0.51548 0.95002 0.06265 0.0
C2051 C 0.56274 0.91404 0.11156 0.0
C2052 C 0.51841 0.87091 0.06578 0.0
C2053 C 0.61094 0.91394 0.06276 0.0
C2054 C 0.56105 0.9498 0.01609 0.0
C2055 C 0.56409 0.87091 0.01915 0.0
O2056 O 0.53421 0.95444 0.07061 0.0
O2057 O 0.56442 0.89525 0.10271 0.0
O2058 O 0.51435 0.88553 0.05153 0.0
O2059 O 0.60036 0.93172 0.06455 0.0
O2060 O 0.54754 0.9342 0.01335 0.0
O2061 O 0.57272 0.86797 0.03788 0.0
O2062 O 0.56949 0.95425 0.0346 0.0
O2063 O 0.60209 0.89518 0.0647 0.0
O2064 O 0.54957 0.88538 0.0155 0.0
O2065 O 0.56465 0.93181 0.10095 0.0
O2066 O 0.51234 0.93433 0.04934 0.0
O2067 O 0.53739 0.86786 0.07379 0.0
Sc2068 Sc 0.19088 0.31724 0.50613 0.0
Sc2069 Sc 0.13292 0.31939 0.50396 0.0
Sc2070 Sc 0.1595 0.28328 0.54023 0.0
O2071 O 0.16107 0.30662 0.51679 0.0
C2072 C 0.19949 0.26597 0.51142 0.0
C2073 C 0.16366 0.3129 0.46193 0.0
C2074 C 0.12056 0.26896 0.50827 0.0
C2075 C 0.16364 0.36145 0.51039 0.0
C2076 C 0.19947 0.31218 0.55743 0.0
C2077 C 0.12048 0.3152 0.55439 0.0
O2078 O 0.20396 0.28457 0.5032 0.0
O2079 O 0.14487 0.31474 0.47076 0.0
O2080 O 0.13508 0.26516 0.5227 0.0
O2081 O 0.1814 0.35085 0.5085 0.0
O2082 O 0.18383 0.29876 0.56038 0.0
O2083 O 0.11747 0.32347 0.5355 0.0
O2084 O 0.20394 0.32032 0.53879 0.0
O2085 O 0.14485 0.3526 0.50862 0.0
O2086 O 0.13505 0.30085 0.55828 0.0
O2087 O 0.18142 0.31473 0.47254 0.0
O2088 O 0.18385 0.26308 0.52485 0.0
O2089 O 0.11755 0.2878 0.4999 0.0
Sc2090 Sc 0.15976 0.54034 0.28335 0.0
Sc2091 Sc 0.13319 0.50413 0.31952 0.0
Sc2092 Sc 0.19115 0.50633 0.31739 0.0
O2093 O 0.16133 0.51695 0.30673 0.0
C2094 C 0.19975 0.51148 0.26611 0.0
C2095 C 0.12085 0.50834 0.26908 0.0
C2096 C 0.16394 0.4621 0.31312 0.0
C2097 C 0.12074 0.55454 0.31525 0.0
C2098 C 0.19973 0.55762 0.31219 0.0
C2099 C 0.16389 0.51067 0.36157 0.0
O2100 O 0.18413 0.52493 0.26319 0.0
O2101 O 0.11782 0.50002 0.28794 0.0
O2102 O 0.1817 0.47272 0.31498 0.0
O2103 O 0.13529 0.55841 0.30088 0.0
O2104 O 0.20422 0.539 0.32035 0.0
O2105 O 0.14511 0.50882 0.35272 0.0
O2106 O 0.18407 0.56055 0.29879 0.0
O2107 O 0.11774 0.53567 0.32356 0.0
O2108 O 0.18166 0.50881 0.35098 0.0
O2109 O 0.13537 0.52276 0.26525 0.0
O2110 O 0.20421 0.50329 0.28473 0.0
O2111 O 0.14515 0.47094 0.3149 0.0
C2112 C 0.05634 0.97646 0.46069 0.0
C2113 C 0.06588 0.99705 0.46472 0.0
H2114 H 0.0478 0.9451 0.47361 0.0
C2115 C 0.0771 0.00038 0.48456 0.0
H2116 H 0.04786 0.97316 0.44546 0.0
C2117 C 0.07707 0.98422 0.50076 0.0
C2118 C 0.06582 0.9644 0.49747 0.0
H2119 H 0.08482 0.01592 0.48813 0.0
H2120 H 0.08477 0.98783 0.51631 0.0
C2121 C 0.05631 0.96032 0.47688 0.0
C2122 C 0.07251 0.32724 0.73443 0.0
C2123 C 0.07599 0.31627 0.71448 0.0
H2124 H 0.08495 0.33469 0.76627 0.0
C2125 C 0.0967 0.30707 0.71033 0.0
H2126 H 0.05686 0.33468 0.7381 0.0
C2127 C 0.11285 0.30708 0.72652 0.0
C2128 C 0.10864 0.31629 0.74722 0.0
H2129 H 0.10011 0.2988 0.695 0.0
H2130 H 0.12819 0.29882 0.72316 0.0
C2131 C 0.08867 0.32725 0.75063 0.0
C2132 C 0.74681 0.32323 0.98452 0.0
C2133 C 0.75821 0.32646 0.96477 0.0
H2134 H 0.739 0.33584 0.01622 0.0
C2135 C 0.76799 0.34695 0.96084 0.0
H2136 H 0.7389 0.30776 0.98801 0.0
C2137 C 0.76805 0.36308 0.97704 0.0
C2138 C 0.75834 0.35909 0.99755 0.0
H2139 H 0.77663 0.35018 0.94567 0.0
H2140 H 0.77673 0.37822 0.97384 0.0
C2141 C 0.74687 0.33937 0.00074 0.0
C2142 C 0.73451 0.99622 0.25074 0.0
C2143 C 0.7146 0.00732 0.24743 0.0
H2144 H 0.76625 0.98866 0.23811 0.0
C2145 C 0.71042 0.0167 0.2268 0.0
H2146 H 0.73819 0.98864 0.26632 0.0
C2147 C 0.72654 0.0167 0.21059 0.0
C2148 C 0.7472 0.00734 0.21464 0.0
H2149 H 0.69512 0.02508 0.22352 0.0
H2150 H 0.72316 0.0251 0.19532 0.0
C2151 C 0.75064 0.99623 0.23451 0.0
C2152 C 0.07673 0.33897 0.82263 0.0
C2153 C 0.06536 0.35874 0.82588 0.0
H2154 H 0.08457 0.3073 0.83528 0.0
C2155 C 0.0557 0.36274 0.84642 0.0
H2156 H 0.08455 0.33543 0.80713 0.0
C2157 C 0.05572 0.34658 0.86259 0.0
C2158 C 0.06539 0.32605 0.8586 0.0
H2159 H 0.0471 0.37792 0.84966 0.0
H2160 H 0.04713 0.34982 0.87778 0.0
C2161 C 0.07675 0.3228 0.83882 0.0
C2162 C 0.73475 0.32753 0.07285 0.0
C2163 C 0.71482 0.31646 0.07616 0.0
H2164 H 0.76649 0.33505 0.0855 0.0
C2165 C 0.71061 0.30712 0.09679 0.0
H2166 H 0.73846 0.3351 0.05726 0.0
C2167 C 0.72672 0.3071 0.11302 0.0
C2168 C 0.74739 0.31642 0.10898 0.0
H2169 H 0.6953 0.29877 0.10008 0.0
H2170 H 0.72331 0.29872 0.12829 0.0
C2171 C 0.75087 0.32751 0.08909 0.0
C2172 C 0.76725 0.97657 0.36277 0.0
C2173 C 0.7577 0.99716 0.35879 0.0
H2174 H 0.7758 0.94524 0.34978 0.0
C2175 C 0.74644 0.00051 0.33897 0.0
H2176 H 0.77576 0.97325 0.37798 0.0
C2177 C 0.74646 0.98439 0.32274 0.0
C2178 C 0.75774 0.96457 0.32598 0.0
H2179 H 0.73871 0.01606 0.33544 0.0
H2180 H 0.73874 0.98802 0.30721 0.0
C2181 C 0.76727 0.96046 0.34655 0.0
C2182 C 0.11309 0.01619 0.5968 0.0
C2183 C 0.10892 0.00691 0.57612 0.0
H2184 H 0.10032 0.02451 0.62829 0.0
C2185 C 0.08899 0.99587 0.57274 0.0
H2186 H 0.1284 0.02452 0.60014 0.0
C2187 C 0.07283 0.99586 0.58894 0.0
C2188 C 0.07627 0.00689 0.60886 0.0
H2189 H 0.08531 0.98835 0.55712 0.0
H2190 H 0.05721 0.98834 0.58529 0.0
C2191 C 0.09694 0.01618 0.61298 0.0
C2192 C 0.46026 0.05776 0.97691 0.0
C2193 C 0.46455 0.06692 0.99761 0.0
H2194 H 0.47287 0.04951 0.94534 0.0
C2195 C 0.48454 0.07786 0.00097 0.0
H2196 H 0.44489 0.04953 0.97359 0.0
C2197 C 0.50064 0.07785 0.98471 0.0
C2198 C 0.49709 0.06691 0.96476 0.0
H2199 H 0.48832 0.08527 0.01661 0.0
H2200 H 0.51632 0.08526 0.98835 0.0
C2201 C 0.47634 0.05776 0.96067 0.0
C2202 C 0.99649 0.75051 0.2343 0.0
C2203 C 0.00785 0.74723 0.21453 0.0
H2204 H 0.98868 0.73791 0.266 0.0
C2205 C 0.01747 0.72668 0.21054 0.0
H2206 H 0.9887 0.76602 0.23784 0.0
C2207 C 0.01746 0.71053 0.22672 0.0
C2208 C 0.00782 0.71456 0.24725 0.0
H2209 H 0.02606 0.72341 0.19535 0.0
H2210 H 0.02603 0.69533 0.22348 0.0
C2211 C 0.99648 0.73434 0.2505 0.0
C2212 C 0.3469 0.26638 0.46059 0.0
C2213 C 0.32622 0.25711 0.4647 0.0
H2214 H 0.37836 0.2747 0.47344 0.0
C2215 C 0.32276 0.24609 0.48463 0.0
H2216 H 0.3503 0.27469 0.44527 0.0
C2217 C 0.33892 0.2461 0.50084 0.0
C2218 C 0.35885 0.25713 0.49745 0.0
H2219 H 0.30713 0.23859 0.48828 0.0
H2220 H 0.33522 0.2386 0.51646 0.0
C2221 C 0.36304 0.26638 0.47678 0.0
C2222 C 0.82713 0.58931 0.75058 0.0
C2223 C 0.81573 0.60908 0.74738 0.0
H2224 H 0.83498 0.55767 0.73787 0.0
C2225 C 0.80606 0.61311 0.72686 0.0
H2226 H 0.83496 0.58575 0.76606 0.0
C2227 C 0.80607 0.59698 0.71066 0.0
C2228 C 0.81576 0.57645 0.71461 0.0
H2229 H 0.79744 0.62829 0.72366 0.0
H2230 H 0.79745 0.60024 0.69549 0.0
C2231 C 0.82714 0.57317 0.73436 0.0
C2232 C 0.4848 0.24622 0.32286 0.0
C2233 C 0.46484 0.2572 0.32626 0.0
H2234 H 0.51659 0.23876 0.33542 0.0
C2235 C 0.46063 0.26641 0.34695 0.0
H2236 H 0.48852 0.23876 0.30723 0.0
C2237 C 0.47676 0.2664 0.36315 0.0
C2238 C 0.49747 0.25718 0.35903 0.0
H2239 H 0.44529 0.27469 0.3503 0.0
H2240 H 0.47334 0.27468 0.37848 0.0
C2241 C 0.50095 0.24621 0.33908 0.0
C2242 C 0.82677 0.73455 0.57283 0.0
C2243 C 0.81552 0.71472 0.5761 0.0
H2244 H 0.8345 0.76624 0.58549 0.0
C2245 C 0.80597 0.71064 0.59667 0.0
H2246 H 0.8345 0.73816 0.5573 0.0
C2247 C 0.80597 0.72678 0.61286 0.0
C2248 C 0.81552 0.74736 0.60886 0.0
H2249 H 0.79746 0.69541 0.59992 0.0
H2250 H 0.79745 0.72347 0.62808 0.0
C2251 C 0.82678 0.7507 0.58905 0.0
C2252 C 0.32282 0.07747 0.83867 0.0
C2253 C 0.32633 0.06655 0.85865 0.0
H2254 H 0.33519 0.08485 0.80679 0.0
C2255 C 0.34706 0.05736 0.86277 0.0
H2256 H 0.30715 0.0849 0.83502 0.0
C2257 C 0.36316 0.05733 0.84655 0.0
C2258 C 0.35892 0.06649 0.82584 0.0
H2259 H 0.3505 0.04913 0.87811 0.0
H2260 H 0.37852 0.04908 0.8499 0.0
C2261 C 0.33894 0.07744 0.82244 0.0
C2262 C 0.01814 0.59673 0.11267 0.0
C2263 C 0.00841 0.57623 0.10871 0.0
H2264 H 0.0268 0.62805 0.09971 0.0
C2265 C 0.997 0.573 0.08896 0.0
H2266 H 0.02678 0.59996 0.12783 0.0
C2267 C 0.99701 0.58917 0.07277 0.0
C2268 C 0.00843 0.60892 0.07599 0.0
H2269 H 0.98913 0.55752 0.08544 0.0
H2270 H 0.98915 0.58565 0.05729 0.0
C2271 C 0.01815 0.61289 0.0965 0.0
C2272 C 0.96071 0.4769 0.05726 0.0
C2273 C 0.96501 0.49761 0.06639 0.0
H2274 H 0.9733 0.44531 0.04905 0.0
C2275 C 0.98502 0.50099 0.07728 0.0
H2276 H 0.94533 0.47357 0.04905 0.0
C2277 C 0.00112 0.48472 0.07729 0.0
C2278 C 0.99754 0.46475 0.0664 0.0
H2279 H 0.98882 0.51664 0.08466 0.0
H2280 H 0.0168 0.48836 0.08468 0.0
C2281 C 0.97679 0.46065 0.05727 0.0
C2282 C 0.50095 0.33891 0.2464 0.0
C2283 C 0.49751 0.35883 0.25745 0.0
H2284 H 0.48849 0.30709 0.23888 0.0
C2285 C 0.47684 0.36293 0.26676 0.0
H2286 H 0.51657 0.33528 0.23887 0.0
C2287 C 0.4607 0.34673 0.26677 0.0
C2288 C 0.46488 0.32607 0.25747 0.0
H2289 H 0.47346 0.37823 0.27509 0.0
H2290 H 0.4454 0.35006 0.27511 0.0
C2291 C 0.4848 0.3227 0.24641 0.0
C2292 C 0.71028 0.72687 0.51632 0.0
C2293 C 0.71448 0.74755 0.50709 0.0
H2294 H 0.72301 0.69534 0.52458 0.0
C2295 C 0.73441 0.75094 0.49605 0.0
H2296 H 0.69497 0.72352 0.52464 0.0
C2297 C 0.75055 0.73472 0.49601 0.0
C2298 C 0.74709 0.71478 0.50701 0.0
H2299 H 0.73811 0.76656 0.48856 0.0
H2300 H 0.76618 0.73836 0.4885 0.0
C2301 C 0.72641 0.71066 0.51628 0.0
C2302 C 0.34719 0.9606 0.76633 0.0
C2303 C 0.32651 0.96465 0.75701 0.0
H2304 H 0.37859 0.97355 0.7747 0.0
C2305 C 0.32304 0.98455 0.74594 0.0
H2306 H 0.3506 0.94531 0.77468 0.0
C2307 C 0.33915 0.0008 0.74596 0.0
C2308 C 0.35907 0.99748 0.75704 0.0
H2309 H 0.30742 0.98815 0.7384 0.0
H2310 H 0.33543 0.0164 0.73843 0.0
C2311 C 0.36328 0.97683 0.76634 0.0
C2312 C 0.59694 0.61295 0.51632 0.0
C2313 C 0.57622 0.60882 0.50712 0.0
H2314 H 0.6284 0.60009 0.52461 0.0
C2315 C 0.57272 0.58886 0.49618 0.0
H2316 H 0.60037 0.62828 0.52457 0.0
C2317 C 0.58886 0.57263 0.49621 0.0
C2318 C 0.60882 0.57603 0.50717 0.0
H2319 H 0.55707 0.5852 0.48874 0.0
H2320 H 0.58512 0.55698 0.48879 0.0
C2321 C 0.61306 0.59674 0.51635 0.0
C2322 C 0.32282 0.83915 0.07776 0.0
C2323 C 0.3264 0.85912 0.06686 0.0
H2324 H 0.33512 0.80723 0.08513 0.0
C2325 C 0.34716 0.86322 0.05774 0.0
H2326 H 0.30713 0.83551 0.08514 0.0
C2327 C 0.36324 0.84697 0.05774 0.0
C2328 C 0.35893 0.82626 0.06686 0.0
H2329 H 0.35064 0.87856 0.04952 0.0
H2330 H 0.37862 0.8503 0.04953 0.0
C2331 C 0.33892 0.82288 0.07776 0.0
C2332 C 0.75091 0.08868 0.32746 0.0
C2333 C 0.7474 0.10869 0.3166 0.0
H2334 H 0.73849 0.0568 0.33478 0.0
C2335 C 0.72666 0.11287 0.30747 0.0
H2336 H 0.76658 0.08498 0.33484 0.0
C2337 C 0.71053 0.09668 0.30743 0.0
C2338 C 0.71476 0.07594 0.31652 0.0
H2339 H 0.72323 0.12824 0.29928 0.0
H2340 H 0.69516 0.10008 0.29921 0.0
C2341 C 0.73475 0.07247 0.32742 0.0
C2342 C 0.08886 0.25067 0.8271 0.0
C2343 C 0.10875 0.24736 0.81595 0.0
H2344 H 0.05714 0.23804 0.83472 0.0
C2345 C 0.11291 0.22673 0.80657 0.0
H2346 H 0.08519 0.26625 0.83469 0.0
C2347 C 0.09679 0.21052 0.80659 0.0
C2348 C 0.07615 0.21457 0.81599 0.0
H2349 H 0.12819 0.22344 0.79816 0.0
H2350 H 0.10015 0.19525 0.79819 0.0
C2351 C 0.07273 0.23444 0.82712 0.0
C2352 C 0.99651 0.07266 0.58897 0.0
C2353 C 0.00778 0.07595 0.60879 0.0
H2354 H 0.98879 0.08526 0.55726 0.0
C2355 C 0.01735 0.09652 0.61282 0.0
H2356 H 0.98877 0.05713 0.5854 0.0
C2357 C 0.01736 0.11268 0.59666 0.0
C2358 C 0.0078 0.10865 0.57609 0.0
H2359 H 0.02588 0.09979 0.62805 0.0
H2360 H 0.0259 0.12789 0.59993 0.0
C2361 C 0.99652 0.08884 0.57279 0.0
C2362 C 0.98438 0.7462 0.32264 0.0
C2363 C 0.96452 0.75739 0.32593 0.0
H2364 H 0.01608 0.73852 0.33531 0.0
C2365 C 0.96035 0.76678 0.34655 0.0
H2366 H 0.98806 0.7386 0.30706 0.0
C2367 C 0.97645 0.76673 0.36278 0.0
C2368 C 0.99708 0.75729 0.35876 0.0
H2369 H 0.94508 0.77522 0.34982 0.0
H2370 H 0.97308 0.77514 0.37805 0.0
C2371 C 0.0005 0.74616 0.33889 0.0
C2372 C 0.32696 0.75082 0.08925 0.0
C2373 C 0.31563 0.74756 0.10904 0.0
H2374 H 0.33477 0.73818 0.05757 0.0
C2375 C 0.30601 0.72701 0.11305 0.0
H2376 H 0.33473 0.76634 0.08569 0.0
C2377 C 0.30603 0.71083 0.0969 0.0
C2378 C 0.31567 0.71483 0.07636 0.0
H2379 H 0.29744 0.72376 0.12825 0.0
H2380 H 0.29747 0.69563 0.10016 0.0
C2381 C 0.32698 0.73463 0.07308 0.0
C2382 C 0.36318 0.76677 0.97721 0.0
C2383 C 0.35895 0.75745 -0.00215 0.0
H2384 H 0.35053 0.77511 0.94568 0.0
C2385 C 0.33904 0.74635 0.00114 0.0
H2386 H 0.37849 0.77514 0.97394 0.0
C2387 C 0.32295 0.74632 0.98487 0.0
C2388 C 0.32644 0.7574 0.96497 0.0
H2389 H 0.33532 0.7388 0.01673 0.0
H2390 H 0.30734 0.73876 0.98844 0.0
C2391 C 0.34711 0.76675 0.96095 0.0
C2392 C 0.32715 0.08901 0.75049 0.0
C2393 C 0.31593 0.10885 0.74713 0.0
H2394 H 0.33484 0.05726 0.73797 0.0
C2395 C 0.30646 0.11288 0.72652 0.0
H2396 H 0.33482 0.08544 0.76606 0.0
C2397 C 0.30647 0.09669 0.71038 0.0
C2398 C 0.31596 0.0761 0.71449 0.0
H2399 H 0.29798 0.12811 0.7232 0.0
H2400 H 0.29801 0.09996 0.69513 0.0
C2401 C 0.32717 0.07281 0.73434 0.0
C2402 C 0.00076 0.07706 0.4846 0.0
C2403 C 0.99733 0.06597 0.4647 0.0
H2404 H 0.9883 0.08461 0.51641 0.0
C2405 C 0.97668 0.05662 0.46063 0.0
H2406 H 0.01637 0.08462 0.48822 0.0
C2407 C 0.96055 0.05661 0.47683 0.0
C2408 C 0.96471 0.06595 0.49748 0.0
H2409 H 0.9733 0.04825 0.44535 0.0
H2410 H 0.94525 0.04823 0.47352 0.0
C2411 C 0.98462 0.07705 0.50082 0.0
C2412 C 0.59694 0.01694 0.11285 0.0
C2413 C 0.57627 0.00761 0.10882 0.0
H2414 H 0.62835 0.02529 0.09989 0.0
C2415 C 0.5728 0.9965 0.08894 0.0
H2416 H 0.60035 0.02533 0.12812 0.0
C2417 C 0.58891 0.99649 0.07269 0.0
C2418 C 0.60883 0.00757 0.07599 0.0
H2419 H 0.55718 0.98895 0.08536 0.0
H2420 H 0.5852 0.98892 0.0571 0.0
C2421 C 0.61304 0.01693 0.09662 0.0
C2422 C 0.75041 0.82745 0.58914 0.0
C2423 C 0.74699 0.81628 0.60899 0.0
H2424 H 0.73796 0.83505 0.55733 0.0
C2425 C 0.72636 0.80685 0.61301 0.0
H2426 H 0.76599 0.83508 0.58557 0.0
C2427 C 0.71026 0.80683 0.59679 0.0
C2428 C 0.71442 0.81625 0.57618 0.0
H2429 H 0.723 0.79842 0.62826 0.0
H2430 H 0.69499 0.79839 0.60005 0.0
C2431 C 0.73429 0.82743 0.5729 0.0
C2432 C 0.24667 0.48459 0.32291 0.0
C2433 C 0.25792 0.46476 0.32623 0.0
H2434 H 0.23898 0.51633 0.33547 0.0
C2435 C 0.26746 0.46073 0.34681 0.0
H2436 H 0.23895 0.48816 0.30737 0.0
C2437 C 0.26748 0.47692 0.36296 0.0
C2438 C 0.25795 0.4975 0.35889 0.0
H2439 H 0.27596 0.44551 0.35011 0.0
H2440 H 0.27599 0.47365 0.37818 0.0
C2441 C 0.24669 0.50079 0.33907 0.0
C2442 C 0.58903 0.8272 0.75111 0.0
C2443 C 0.60892 0.81606 0.74782 0.0
H2444 H 0.55733 0.83483 0.73842 0.0
C2445 C 0.61311 0.80668 0.7272 0.0
H2446 H 0.58534 0.83479 0.76669 0.0
C2447 C 0.59701 0.8067 0.71096 0.0
C2448 C 0.57637 0.8161 0.71498 0.0
H2449 H 0.62839 0.79827 0.72393 0.0
H2450 H 0.6004 0.7983 0.6957 0.0
C2451 C 0.57292 0.82722 0.73485 0.0
C2452 C 0.26719 0.34673 0.46051 0.0
C2453 C 0.25766 0.32615 0.46458 0.0
H2454 H 0.27568 0.37814 0.47335 0.0
C2455 C 0.2464 0.32287 0.4844 0.0
H2456 H 0.2757 0.35 0.44528 0.0
C2457 C 0.24639 0.33907 0.50056 0.0
C2458 C 0.25764 0.3589 0.49723 0.0
H2459 H 0.23869 0.30733 0.488 0.0
H2460 H 0.23866 0.33551 0.5161 0.0
C2461 C 0.26718 0.36292 0.47665 0.0
C2462 C 0.07721 0.48423 0.0003 0.0
C2463 C 0.06574 0.46451 0.9971 0.0
H2464 H 0.08512 0.51587 0.98762 0.0
C2465 C 0.056 0.46054 0.97661 0.0
H2466 H 0.0851 0.48775 0.01577 0.0
C2467 C 0.05601 0.47669 0.96043 0.0
C2468 C 0.06577 0.49719 0.96438 0.0
H2469 H 0.04732 0.44539 0.9734 0.0
H2470 H 0.04734 0.47348 0.94528 0.0
C2471 C 0.07722 0.50041 0.98411 0.0
C2472 C 0.08924 0.5726 0.99584 0.0
C2473 C 0.10921 0.57598 0.00681 0.0
H2474 H 0.05747 0.58521 0.98837 0.0
C2475 C 0.11348 0.59669 0.01596 0.0
H2476 H 0.08548 0.55695 0.98843 0.0
C2477 C 0.09739 0.61292 0.01592 0.0
C2478 C 0.07667 0.60881 0.00674 0.0
H2479 H 0.12884 0.60002 0.02422 0.0
H2480 H 0.10084 0.62826 0.02417 0.0
C2481 C 0.07314 0.58885 0.99581 0.0
C2482 C 0.58895 0.75086 0.82787 0.0
C2483 C 0.60894 0.74744 0.81695 0.0
H2484 H 0.55714 0.73831 0.83527 0.0
C2485 C 0.6132 0.72672 0.80783 0.0
H2486 H 0.58519 0.76652 0.83526 0.0
C2487 C 0.59708 0.71051 0.80783 0.0
C2488 C 0.57634 0.71466 0.81696 0.0
H2489 H 0.62856 0.72335 0.7996 0.0
H2490 H 0.60053 0.69516 0.79961 0.0
C2491 C 0.57281 0.73464 0.82788 0.0
C2492 C 0.36301 0.3467 0.55685 0.0
C2493 C 0.35884 0.32606 0.56618 0.0
H2494 H 0.35027 0.3782 0.54849 0.0
C2495 C 0.33891 0.32271 0.57724 0.0
H2496 H 0.37832 0.35002 0.5485 0.0
C2497 C 0.32277 0.33893 0.57723 0.0
C2498 C 0.32621 0.35883 0.56617 0.0
H2499 H 0.33522 0.30711 0.58478 0.0
H2500 H 0.30715 0.33531 0.58477 0.0
C2501 C 0.34688 0.36291 0.55685 0.0
C2502 C 0.50065 0.48462 0.57765 0.0
C2503 C 0.4972 0.4647 0.56659 0.0
H2504 H 0.48821 0.51645 0.58514 0.0
C2505 C 0.47653 0.46061 0.55729 0.0
H2506 H 0.51627 0.48824 0.58518 0.0
C2507 C 0.46041 0.47682 0.55726 0.0
C2508 C 0.4646 0.49749 0.56655 0.0
H2509 H 0.47314 0.44532 0.54895 0.0
H2510 H 0.4451 0.4735 0.54891 0.0
C2511 C 0.48452 0.50084 0.57762 0.0
C2512 C 0.73475 0.25121 0.99612 0.0
C2513 C 0.71475 0.24781 0.00703 0.0
H2514 H 0.76652 0.2386 0.98867 0.0
C2515 C 0.71045 0.22708 0.01611 0.0
H2516 H 0.73854 0.26688 0.98877 0.0
C2517 C 0.72653 0.21083 0.01605 0.0
C2518 C 0.74727 0.21494 0.00691 0.0
H2519 H 0.69508 0.22373 0.02432 0.0
H2520 H 0.72305 0.19547 0.02423 0.0
C2521 C 0.75084 0.23494 0.99606 0.0
C2522 C 0.96047 0.84676 0.26589 0.0
C2523 C 0.96471 0.82601 0.25682 0.0
H2524 H 0.9732 0.87831 0.27406 0.0
C2525 C 0.98472 0.82253 0.24596 0.0
H2526 H 0.9451 0.85018 0.27407 0.0
C2527 C 0.00089 0.83872 0.24595 0.0
C2528 C 0.99738 0.85873 0.25681 0.0
H2529 H 0.98846 0.80685 0.23861 0.0
H2530 H 0.01657 0.83499 0.23861 0.0
C2531 C 0.97663 0.86294 0.26588 0.0
C2532 C 0.11316 0.80683 0.22695 0.0
C2533 C 0.10894 0.81612 0.2476 0.0
H2534 H 0.10048 0.79853 0.19541 0.0
C2535 C 0.08901 0.82718 0.25093 0.0
H2536 H 0.12847 0.79848 0.22365 0.0
C2537 C 0.0729 0.8272 0.23468 0.0
C2538 C 0.07638 0.81617 0.21476 0.0
H2539 H 0.08528 0.83469 0.26654 0.0
H2540 H 0.05728 0.83474 0.23828 0.0
C2541 C 0.09706 0.80686 0.21071 0.0
C2542 C 0.74632 0.82292 0.48458 0.0
C2543 C 0.75745 0.82634 0.46471 0.0
H2544 H 0.73873 0.83537 0.51639 0.0
C2545 C 0.76687 0.84698 0.46067 0.0
H2546 H 0.7387 0.80734 0.48816 0.0
C2547 C 0.76688 0.86309 0.47689 0.0
C2548 C 0.75748 0.85893 0.49751 0.0
H2549 H 0.77527 0.85035 0.44541 0.0
H2550 H 0.7753 0.87837 0.47361 0.0
C2551 C 0.74634 0.83905 0.50082 0.0
C2552 C 0.75068 0.49635 0.73462 0.0
C2553 C 0.74725 0.50751 0.71477 0.0
H2554 H 0.73825 0.48871 0.76643 0.0
C2555 C 0.72661 0.51693 0.71077 0.0
H2556 H 0.76627 0.48872 0.73818 0.0
C2557 C 0.71051 0.51692 0.727 0.0
C2558 C 0.71468 0.50749 0.7476 0.0
H2559 H 0.72323 0.52536 0.69552 0.0
H2560 H 0.69523 0.52535 0.72374 0.0
C2561 C 0.73457 0.49634 0.75087 0.0
C2562 C 0.07699 0.82279 0.33905 0.0
C2563 C 0.06569 0.82611 0.35884 0.0
H2564 H 0.08477 0.83534 0.30732 0.0
C2565 C 0.0561 0.84668 0.36282 0.0
H2566 H 0.08475 0.80726 0.33551 0.0
C2567 C 0.05612 0.86282 0.34662 0.0
C2568 C 0.06571 0.85875 0.32608 0.0
H2569 H 0.04755 0.84998 0.37802 0.0
H2570 H 0.04757 0.87804 0.34986 0.0
C2571 C 0.07701 0.83894 0.32284 0.0
C2572 C 0.7468 0.48452 0.82295 0.0
C2573 C 0.75818 0.46475 0.82615 0.0
H2574 H 0.73898 0.51618 0.83565 0.0
C2575 C 0.76787 0.46073 0.84666 0.0
H2576 H 0.73895 0.48809 0.80747 0.0
C2577 C 0.76788 0.47687 0.86286 0.0
C2578 C 0.7582 0.4974 0.85891 0.0
H2579 H 0.77648 0.44554 0.84987 0.0
H2580 H 0.77651 0.47361 0.87802 0.0
C2581 C 0.74681 0.50068 0.83916 0.0
C2582 C 0.09736 0.51629 0.1127 0.0
C2583 C 0.07665 0.50704 0.10862 0.0
H2584 H 0.12878 0.52462 0.09978 0.0
C2585 C 0.07315 0.49605 0.08868 0.0
H2586 H 0.10079 0.52458 0.12802 0.0
C2587 C 0.08925 0.49608 0.07243 0.0
C2588 C 0.1092 0.5071 0.07578 0.0
H2589 H 0.05751 0.48856 0.08506 0.0
H2590 H 0.08551 0.48862 0.0568 0.0
C2591 C 0.11345 0.51632 0.09647 0.0
C2592 C 0.50071 0.57743 0.48479 0.0
C2593 C 0.49724 0.56644 0.46484 0.0
H2594 H 0.4883 0.58487 0.51665 0.0
C2595 C 0.47655 0.55716 0.46075 0.0
H2596 H 0.51634 0.58493 0.48842 0.0
C2597 C 0.46043 0.55713 0.47697 0.0
C2598 C 0.46465 0.56637 0.49765 0.0
H2599 H 0.47314 0.54887 0.44543 0.0
H2600 H 0.44511 0.54881 0.47364 0.0
C2601 C 0.48458 0.57739 0.50102 0.0
C2602 C 0.99626 0.2343 0.7504 0.0
C2603 C 0.00752 0.21448 0.74709 0.0
H2604 H 0.98853 0.26602 0.73782 0.0
C2605 C 0.01705 0.21044 0.7265 0.0
H2606 H 0.98854 0.23788 0.76594 0.0
C2607 C 0.01704 0.22661 0.71034 0.0
C2608 C 0.0075 0.24719 0.7144 0.0
H2609 H 0.02556 0.19522 0.72322 0.0
H2610 H 0.02554 0.22333 0.69511 0.0
C2611 C 0.99625 0.25048 0.73422 0.0
C2612 C 0.82709 0.08905 0.25069 0.0
C2613 C 0.8158 0.10887 0.24746 0.0
H2614 H 0.83484 0.05738 0.23799 0.0
C2615 C 0.80622 0.11296 0.22691 0.0
H2616 H 0.83485 0.08544 0.26621 0.0
C2617 C 0.80621 0.09684 0.2107 0.0
C2618 C 0.81579 0.07626 0.21467 0.0
H2619 H 0.79768 0.12818 0.22369 0.0
H2620 H 0.79767 0.10015 0.1955 0.0
C2621 C 0.82709 0.07292 0.23446 0.0
C2622 C 0.47638 0.76588 0.86309 0.0
C2623 C 0.49717 0.75684 0.85897 0.0
H2624 H 0.4449 0.77404 0.85018 0.0
C2625 C 0.50079 0.74602 0.83897 0.0
H2626 H 0.47286 0.77403 0.87846 0.0
C2627 C 0.48471 0.74603 0.82269 0.0
C2628 C 0.46467 0.75686 0.82609 0.0
H2629 H 0.51651 0.73871 0.83531 0.0
H2630 H 0.48854 0.73872 0.80702 0.0
C2631 C 0.46031 0.76589 0.84683 0.0
C2632 C 0.80589 0.22675 0.11286 0.0
C2633 C 0.81566 0.24725 0.10894 0.0
H2634 H 0.79717 0.19548 0.09984 0.0
C2635 C 0.82707 0.2505 0.0892 0.0
H2636 H 0.79725 0.22351 0.12802 0.0
C2637 C 0.82702 0.23436 0.07297 0.0
C2638 C 0.81556 0.21463 0.07615 0.0
H2639 H 0.83497 0.26597 0.08571 0.0
H2640 H 0.83489 0.23791 0.05749 0.0
C2641 C 0.80585 0.21063 0.09665 0.0
C2642 C 0.32299 0.57748 0.33885 0.0
C2643 C 0.32646 0.5665 0.3588 0.0
H2644 H 0.33541 0.5849 0.30699 0.0
C2645 C 0.34715 0.55724 0.36291 0.0
H2646 H 0.30736 0.58498 0.3352 0.0
C2647 C 0.36327 0.55719 0.3467 0.0
C2648 C 0.35906 0.56641 0.32601 0.0
H2649 H 0.35055 0.54895 0.37823 0.0
H2650 H 0.37859 0.54888 0.35004 0.0
C2651 C 0.33912 0.57744 0.32262 0.0
C2652 C 0.96043 0.97656 0.55733 0.0
C2653 C 0.96465 0.99728 0.56649 0.0
H2654 H 0.97314 0.94502 0.54911 0.0
C2655 C 0.98463 0.0007 0.57744 0.0
H2656 H 0.94508 0.97319 0.54908 0.0
C2657 C 0.00077 0.98449 0.57746 0.0
C2658 C 0.99728 0.96451 0.56653 0.0
H2659 H 0.98836 0.01635 0.58485 0.0
H2660 H 0.01643 0.98817 0.58488 0.0
C2661 C 0.97656 0.96036 0.55735 0.0
C2662 C 0.48479 0.82227 0.7463 0.0
C2663 C 0.46473 0.82572 0.75709 0.0
H2664 H 0.5166 0.83484 0.73898 0.0
C2665 C 0.46039 0.84648 0.76607 0.0
H2666 H 0.48861 0.80657 0.73904 0.0
C2667 C 0.47647 0.86273 0.76604 0.0
C2668 C 0.49726 0.85858 0.75702 0.0
H2669 H 0.44497 0.84987 0.77419 0.0
H2670 H 0.47295 0.87813 0.77414 0.0
C2671 C 0.50088 0.83853 0.74627 0.0
C2672 C 0.32303 0.48459 0.24614 0.0
C2673 C 0.32645 0.46471 0.25725 0.0
H2674 H 0.3355 0.5164 0.23856 0.0
C2675 C 0.34711 0.46063 0.26659 0.0
H2676 H 0.30742 0.48821 0.23858 0.0
C2677 C 0.36325 0.47682 0.26658 0.0
C2678 C 0.35909 0.49746 0.25723 0.0
H2679 H 0.35048 0.44535 0.27497 0.0
H2680 H 0.37855 0.47351 0.27495 0.0
C2681 C 0.33918 0.5008 0.24613 0.0
C2682 C 0.59713 0.1132 0.0158 0.0
C2683 C 0.57635 0.10905 0.00676 0.0
H2684 H 0.62861 0.10032 0.02398 0.0
C2685 C 0.57274 0.08903 0.99597 0.0
H2686 H 0.60064 0.12858 0.02392 0.0
C2687 C 0.58883 0.07276 0.996 0.0
C2688 C 0.60887 0.07619 0.00683 0.0
H2689 H 0.55702 0.08535 0.98866 0.0
H2690 H 0.58501 0.05707 0.98871 0.0
C2691 C 0.61321 0.09695 0.01583 0.0
C2692 C 0.72668 0.61302 0.80748 0.0
C2693 C 0.74741 0.60888 0.81665 0.0
H2694 H 0.6952 0.60018 0.79924 0.0
C2695 C 0.75092 0.58892 0.82759 0.0
H2696 H 0.72325 0.62836 0.79923 0.0
C2697 C 0.73477 0.5727 0.82759 0.0
C2698 C 0.71479 0.57611 0.81666 0.0
H2699 H 0.76658 0.58526 0.83501 0.0
H2700 H 0.73851 0.55706 0.83502 0.0
C2701 C 0.71056 0.59682 0.80748 0.0
C2702 C 0.07272 0.7346 0.32745 0.0
C2703 C 0.07621 0.71465 0.31648 0.0
H2704 H 0.08516 0.76644 0.33492 0.0
C2705 C 0.09694 0.7105 0.30732 0.0
H2706 H 0.05705 0.73827 0.33486 0.0
C2707 C 0.11309 0.72668 0.30736 0.0
C2708 C 0.10887 0.74738 0.31655 0.0
H2709 H 0.10037 0.69517 0.29906 0.0
H2710 H 0.12845 0.72332 0.29912 0.0
C2711 C 0.08888 0.7508 0.32748 0.0
C2712 C 0.00059 0.24594 0.83864 0.0
C2713 C 0.99709 0.25689 0.8586 0.0
H2714 H 0.9882 0.23854 0.80677 0.0
C2715 C 0.97637 0.26609 0.86272 0.0
H2716 H 0.01625 0.2385 0.83498 0.0
C2717 C 0.96026 0.26612 0.84651 0.0
C2718 C 0.9645 0.25694 0.82581 0.0
H2719 H 0.97295 0.27435 0.87806 0.0
H2720 H 0.94491 0.27439 0.84986 0.0
C2721 C 0.98446 0.24597 0.82241 0.0
C2722 C 0.30619 0.22681 0.61284 0.0
C2723 C 0.31572 0.24738 0.60876 0.0
H2724 H 0.29769 0.19539 0.6 0.0
C2725 C 0.32697 0.25066 0.58893 0.0
H2726 H 0.29769 0.22354 0.62807 0.0
C2727 C 0.32697 0.23446 0.57277 0.0
C2728 C 0.31572 0.21463 0.57611 0.0
H2729 H 0.33468 0.2662 0.58532 0.0
H2730 H 0.33468 0.23802 0.55723 0.0
C2731 C 0.3062 0.21062 0.5967 0.0
C2732 C 0.32722 0.58912 0.25058 0.0
C2733 C 0.31594 0.60893 0.24728 0.0
H2734 H 0.33493 0.55739 0.23799 0.0
C2735 C 0.30634 0.61294 0.22672 0.0
H2736 H 0.33499 0.58556 0.2661 0.0
C2737 C 0.30631 0.59676 0.21058 0.0
C2738 C 0.31588 0.57619 0.21462 0.0
H2739 H 0.29781 0.62816 0.22345 0.0
H2740 H 0.29776 0.60002 0.19537 0.0
C2741 C 0.32719 0.57292 0.23441 0.0
C2742 C 0.98496 0.57742 0.00077 0.0
C2743 C 0.96498 0.56644 0.99743 0.0
H2744 H 0.01672 0.58486 0.98812 0.0
C2745 C 0.96071 0.55722 0.97676 0.0
H2746 H 0.98872 0.58488 0.01639 0.0
C2747 C 0.9768 0.55721 0.96051 0.0
C2748 C 0.99752 0.56643 0.96458 0.0
H2749 H 0.94536 0.54895 0.97345 0.0
H2750 H 0.97334 0.54893 0.9452 0.0
C2751 C 0.00106 0.57741 0.98451 0.0
C2752 C 0.61309 0.5165 0.59682 0.0
C2753 C 0.60886 0.50724 0.57616 0.0
H2754 H 0.60042 0.52479 0.62836 0.0
C2755 C 0.58892 0.4962 0.57281 0.0
H2756 H 0.62841 0.52481 0.60013 0.0
C2757 C 0.5728 0.49618 0.58906 0.0
C2758 C 0.5763 0.5072 0.60899 0.0
H2759 H 0.58518 0.48871 0.5572 0.0
H2760 H 0.55717 0.48868 0.58545 0.0
C2761 C 0.59699 0.51648 0.61306 0.0
C2762 C 0.26771 0.97686 0.86279 0.0
C2763 C 0.25804 0.99739 0.85878 0.0
H2764 H 0.27634 0.94551 0.84989 0.0
C2765 C 0.24669 0.00062 0.839 0.0
H2766 H 0.2763 0.97364 0.87798 0.0
C2767 C 0.24671 0.98443 0.82282 0.0
C2768 C 0.25809 0.96467 0.82609 0.0
H2769 H 0.23887 0.01612 0.83544 0.0
H2770 H 0.2389 0.98796 0.80732 0.0
C2771 C 0.26774 0.96069 0.84663 0.0
C2772 C 0.61337 0.30707 0.22713 0.0
C2773 C 0.60916 0.31632 0.2478 0.0
H2774 H 0.60067 0.29879 0.1956 0.0
C2775 C 0.58922 0.32736 0.25116 0.0
H2776 H 0.62869 0.29874 0.22381 0.0
C2777 C 0.5731 0.32739 0.23493 0.0
C2778 C 0.57658 0.31639 0.21499 0.0
H2779 H 0.58551 0.33485 0.26678 0.0
H2780 H 0.55747 0.3349 0.23855 0.0
C2781 C 0.59726 0.3071 0.2109 0.0
C2782 C 0.2468 0.83946 0.00074 0.0
C2783 C 0.25823 0.85919 0.99752 0.0
H2784 H 0.23889 0.80781 0.98807 0.0
C2785 C 0.26795 0.86316 0.977 0.0
H2786 H 0.23894 0.83594 0.01622 0.0
C2787 C 0.26791 0.847 0.96083 0.0
C2788 C 0.25817 0.82651 0.96479 0.0
H2789 H 0.2766 0.87832 0.97378 0.0
H2790 H 0.27655 0.85022 0.94566 0.0
C2791 C 0.24677 0.82329 0.98455 0.0
C2792 C 0.08906 0.07245 0.49617 0.0
C2793 C 0.10896 0.0758 0.50728 0.0
H2794 H 0.05733 0.08506 0.48854 0.0
C2795 C 0.11313 0.09646 0.51659 0.0
H2796 H 0.08538 0.05685 0.48863 0.0
C2797 C 0.09701 0.11267 0.51654 0.0
C2798 C 0.07636 0.10859 0.50717 0.0
H2799 H 0.12842 0.09977 0.52498 0.0
H2800 H 0.10038 0.12796 0.52489 0.0
C2801 C 0.07293 0.08868 0.49611 0.0
C2802 C 0.6134 0.22684 0.30768 0.0
C2803 C 0.60917 0.24756 0.31682 0.0
H2804 H 0.6007 0.19529 0.2995 0.0
C2805 C 0.5892 0.25099 0.32777 0.0
H2806 H 0.62875 0.22347 0.29944 0.0
C2807 C 0.57306 0.23478 0.32781 0.0
C2808 C 0.57655 0.2148 0.3169 0.0
H2809 H 0.58546 0.26665 0.33517 0.0
H2810 H 0.55739 0.23846 0.33523 0.0
C2811 C 0.59727 0.21064 0.30773 0.0
C2812 C 0.50074 0.98535 0.07756 0.0
C2813 C 0.49708 0.96527 0.06689 0.0
H2814 H 0.48852 0.01736 0.08467 0.0
C2815 C 0.47627 0.9611 0.05793 0.0
H2816 H 0.51648 0.98905 0.0848 0.0
C2817 C 0.4602 0.97737 0.05785 0.0
C2818 C 0.46458 -0.00184 0.06674 0.0
H2819 H 0.47272 0.94568 0.04989 0.0
H2820 H 0.44477 0.97397 0.04977 0.0
C2821 C 0.48466 0.00163 0.07749 0.0
C2822 C 0.98438 0.32248 0.74587 0.0
C2823 C 0.96444 0.32585 0.75689 0.0
H2824 H 0.01613 0.33509 0.73833 0.0
C2825 C 0.9602 0.34654 0.76609 0.0
H2826 H 0.98811 0.30685 0.73842 0.0
C2827 C 0.9763 0.36278 0.76604 0.0
C2828 C 0.997 0.35868 0.75678 0.0
H2829 H 0.94487 0.34987 0.77439 0.0
H2830 H 0.97287 0.3781 0.77431 0.0
C2831 C 0.00049 0.33873 0.74582 0.0
C2832 C 0.57669 0.00066 0.98438 0.0
C2833 C 0.56512 0.99749 0.96472 0.0
H2834 H 0.58469 0.98799 0.01601 0.0
C2835 C 0.5552 0.97706 0.96086 0.0
H2836 H 0.58472 0.01608 0.98781 0.0
C2837 C 0.55518 0.96092 0.97705 0.0
C2838 C 0.56508 0.96485 0.99748 0.0
H2839 H 0.54642 0.97388 0.94576 0.0
H2840 H 0.54639 0.94583 0.97391 0.0
C2841 C 0.57668 0.98451 0.00059 0.0
C2842 C 0.23476 0.99607 0.75081 0.0
C2843 C 0.21478 0.007 0.74736 0.0
H2844 H 0.26659 0.98866 0.73831 0.0
C2845 C 0.21058 0.01617 0.72665 0.0
H2846 H 0.23847 0.98865 0.76646 0.0
C2847 C 0.22673 0.01618 0.71047 0.0
C2848 C 0.24745 0.00701 0.71464 0.0
H2849 H 0.19522 0.02442 0.72326 0.0
H2850 H 0.22332 0.02442 0.69513 0.0
C2851 C 0.25093 0.99607 0.73462 0.0
C2852 C 0.57731 0.32295 0.33936 0.0
C2853 C 0.56599 0.32623 0.35914 0.0
H2854 H 0.5851 0.33556 0.30766 0.0
C2855 C 0.55641 0.34679 0.36317 0.0
H2856 H 0.58507 0.30743 0.33579 0.0
C2857 C 0.55642 0.36296 0.34701 0.0
C2858 C 0.56602 0.35893 0.32645 0.0
H2859 H 0.54785 0.35005 0.37837 0.0
H2860 H 0.54788 0.37817 0.35027 0.0
C2861 C 0.57733 0.33913 0.32318 0.0
C2862 C 0.22651 0.30719 0.61283 0.0
C2863 C 0.2472 0.31644 0.6087 0.0
H2864 H 0.19505 0.29886 0.6 0.0
C2865 C 0.25065 0.32745 0.58876 0.0
H2866 H 0.22313 0.29889 0.62815 0.0
C2867 C 0.23449 0.32743 0.57256 0.0
C2868 C 0.21455 0.31641 0.57596 0.0
H2869 H 0.26628 0.33494 0.5851 0.0
H2870 H 0.23818 0.33491 0.55693 0.0
C2871 C 0.21037 0.30717 0.59665 0.0
C2872 C 0.51785 0.72659 0.71092 0.0
C2873 C 0.50802 0.74706 0.71482 0.0
H2874 H 0.52661 0.69534 0.72396 0.0
C2875 C 0.49652 0.75027 0.73452 0.0
H2876 H 0.52656 0.72338 0.6958 0.0
C2877 C 0.49656 0.73413 0.75074 0.0
C2878 C 0.50808 0.71443 0.7476 0.0
H2879 H 0.48857 0.76572 0.73799 0.0
H2880 H 0.48862 0.73764 0.76618 0.0
C2881 C 0.51788 0.71046 0.72712 0.0
C2882 C 0.8471 0.26649 0.9607 0.0
C2883 C 0.82639 0.25725 0.96478 0.0
H2884 H 0.87854 0.27479 0.97361 0.0
C2885 C 0.82289 0.24626 0.98472 0.0
H2886 H 0.85053 0.27479 0.94539 0.0
C2887 C 0.83901 0.24626 0.00096 0.0
C2888 C 0.85897 0.25725 0.9976 0.0
H2889 H 0.80724 0.23878 0.98834 0.0
H2890 H 0.83527 0.23878 0.01658 0.0
C2891 C 0.8632 0.26649 0.97693 0.0
C2892 C 0.82301 0.07712 0.33898 0.0
C2893 C 0.82638 0.06591 0.35881 0.0
H2894 H 0.83552 0.0848 0.30721 0.0
C2895 C 0.84699 0.05642 0.36283 0.0
H2896 H 0.80745 0.08481 0.33542 0.0
C2897 C 0.86311 0.05641 0.34663 0.0
C2898 C 0.859 0.0659 0.32604 0.0
H2899 H 0.85031 0.04794 0.37806 0.0
H2900 H 0.87836 0.04793 0.34989 0.0
C2901 C 0.83916 0.07712 0.32276 0.0
C2902 C 0.51752 0.61293 0.59684 0.0
C2903 C 0.50789 0.60889 0.57631 0.0
H2904 H 0.52609 0.60006 0.62822 0.0
C2905 C 0.49656 0.5891 0.57307 0.0
H2906 H 0.52609 0.62813 0.60007 0.0
C2907 C 0.49656 0.57294 0.58927 0.0
C2908 C 0.50789 0.57624 0.60906 0.0
H2909 H 0.48877 0.58552 0.55756 0.0
H2910 H 0.48877 0.55742 0.58574 0.0
C2911 C 0.51752 0.59679 0.61303 0.0
C2912 C 0.2267 0.71082 0.01632 0.0
C2913 C 0.24744 0.71493 0.00717 0.0
H2914 H 0.19523 0.7237 0.02454 0.0
C2915 C 0.25098 0.7349 0.99626 0.0
H2916 H 0.22324 0.69547 0.02455 0.0
C2917 C 0.23487 0.75115 0.99626 0.0
C2918 C 0.21487 0.74775 0.00717 0.0
H2919 H 0.26666 0.73855 0.98885 0.0
H2920 H 0.23864 0.7668 0.98886 0.0
C2921 C 0.2106 0.72704 0.01632 0.0
C2922 C 0.84696 0.9605 0.26599 0.0
C2923 C 0.82624 0.96469 0.25683 0.0
H2924 H 0.87847 0.97326 0.27425 0.0
C2925 C 0.82278 0.98468 0.24592 0.0
H2926 H 0.85036 0.94514 0.27421 0.0
C2927 C 0.83895 0.00086 0.24594 0.0
C2928 C 0.85893 0.99739 0.25688 0.0
H2929 H 0.80712 0.98839 0.23851 0.0
H2930 H 0.83524 0.01653 0.23855 0.0
C2931 C 0.86312 0.97667 0.26601 0.0
C2932 C 0.82254 0.83883 0.57753 0.0
C2933 C 0.82602 0.8588 0.56661 0.0
H2934 H 0.83497 0.80697 0.58493 0.0
C2935 C 0.84674 0.86297 0.55744 0.0
H2936 H 0.80687 0.83515 0.58496 0.0
C2937 C 0.86288 0.84677 0.55742 0.0
C2938 C 0.85867 0.82606 0.56658 0.0
H2939 H 0.85016 0.87831 0.5492 0.0
H2940 H 0.87823 0.85015 0.54917 0.0
C2941 C 0.83869 0.82263 0.57752 0.0
C2942 C 0.25065 0.08896 0.82715 0.0
C2943 C 0.24725 0.10881 0.81597 0.0
H2944 H 0.23818 0.05717 0.83479 0.0
C2945 C 0.22662 0.11284 0.80654 0.0
H2946 H 0.26623 0.08538 0.83478 0.0
C2947 C 0.2105 0.09663 0.80654 0.0
C2948 C 0.21464 0.07602 0.81598 0.0
H2949 H 0.22326 0.12808 0.7981 0.0
H2950 H 0.19523 0.0999 0.79811 0.0
C2951 C 0.23451 0.07273 0.82715 0.0
C2952 C 0.49653 0.07359 0.08921 0.0
C2953 C 0.50803 0.07679 0.10891 0.0
H2954 H 0.48865 0.08623 0.05755 0.0
C2955 C 0.5179 0.09724 0.11281 0.0
H2956 H 0.48855 0.05816 0.08576 0.0
C2957 C 0.51796 0.11337 0.0966 0.0
C2958 C 0.50815 0.10941 0.07613 0.0
H2959 H 0.52661 0.10045 0.12793 0.0
H2960 H 0.52671 0.12848 0.09976 0.0
C2961 C 0.49659 0.08973 0.07299 0.0
C2962 C 0.83882 0.74635 0.50072 0.0
C2963 C 0.8587 0.75751 0.49744 0.0
H2964 H 0.80711 0.73872 0.48804 0.0
C2965 C 0.86285 0.76697 0.47684 0.0
H2966 H 0.83516 0.7387 0.51627 0.0
C2967 C 0.84674 0.76699 0.46063 0.0
C2968 C 0.82611 0.75755 0.46464 0.0
H2969 H 0.87812 0.77541 0.47359 0.0
H2970 H 0.8501 0.77544 0.44539 0.0
C2971 C 0.8227 0.74636 0.48448 0.0
C2972 C 0.21048 0.80734 0.09675 0.0
C2973 C 0.21472 0.81663 0.07609 0.0
H2974 H 0.22315 0.79902 0.12828 0.0
C2975 C 0.23463 0.82771 0.07278 0.0
H2976 H 0.19517 0.79898 0.10003 0.0
C2977 C 0.25073 0.82774 0.08904 0.0
C2978 C 0.24725 0.81668 0.10894 0.0
H2979 H 0.23836 0.83523 0.05718 0.0
H2980 H 0.26635 0.83528 0.08545 0.0
C2981 C 0.22657 0.80736 0.11299 0.0
C2982 C 0.57695 0.4845 0.5008 0.0
C2983 C 0.56565 0.4647 0.49752 0.0
H2984 H 0.58473 0.5162 0.48818 0.0
C2985 C 0.55605 0.46068 0.47696 0.0
H2986 H 0.58471 0.48807 0.51632 0.0
C2987 C 0.55606 0.47685 0.46079 0.0
C2988 C 0.56566 0.4974 0.46481 0.0
H2989 H 0.5475 0.44548 0.4737 0.0
H2990 H 0.54751 0.47358 0.44559 0.0
C2991 C 0.57696 0.50068 0.48461 0.0
C2992 C 0.86345 0.3467 0.05765 0.0
C2993 C 0.85914 0.32596 0.06672 0.0
H2994 H 0.85086 0.37831 0.04953 0.0
C2995 C 0.83914 0.32255 0.07761 0.0
H2996 H 0.87883 0.35005 0.04945 0.0
C2997 C 0.82304 0.33881 0.07766 0.0
C2998 C 0.82662 0.35882 0.06682 0.0
H2999 H 0.83534 0.30688 0.08495 0.0
H3000 H 0.80735 0.33515 0.08503 0.0
C3001 C 0.84737 0.36294 0.05771 0.0
C3002 C 0.22651 0.21055 0.51659 0.0
C3003 C 0.24716 0.21461 0.50721 0.0
H3004 H 0.1951 0.22347 0.525 0.0
C3005 C 0.25059 0.2345 0.49612 0.0
H3006 H 0.22314 0.19527 0.52497 0.0
C3007 C 0.23445 0.25073 0.49614 0.0
C3008 C 0.21456 0.2474 0.50725 0.0
H3009 H 0.26619 0.2381 0.48853 0.0
H3010 H 0.23813 0.26632 0.48857 0.0
C3011 C 0.21039 0.22676 0.51661 0.0
C3012 C 0.21059 0.51647 0.22687 0.0
C3013 C 0.21481 0.50726 0.24756 0.0
H3014 H 0.22328 0.5247 0.19532 0.0
C3015 C 0.23475 0.49623 0.25093 0.0
H3016 H 0.19527 0.52478 0.22354 0.0
C3017 C 0.25088 0.49618 0.23469 0.0
C3018 C 0.24739 0.50716 0.21474 0.0
H3019 H 0.23848 0.48877 0.26656 0.0
H3020 H 0.26651 0.48869 0.23833 0.0
C3021 C 0.2267 0.51642 0.21064 0.0
C3022 C 0.57681 0.83915 0.82323 0.0
C3023 C 0.56533 0.85886 0.82639 0.0
H3024 H 0.58472 0.80752 0.83596 0.0
C3025 C 0.55552 0.86283 0.84686 0.0
H3026 H 0.58475 0.83563 0.80779 0.0
C3027 C 0.5555 0.84669 0.86304 0.0
C3028 C 0.56529 0.8262 0.85913 0.0
H3029 H 0.54682 0.87798 0.85003 0.0
H3030 H 0.54678 0.84991 0.87817 0.0
C3031 C 0.57679 0.82298 0.83944 0.0
C3032 C 0.4968 0.25069 0.23466 0.0
C3033 C 0.50816 0.24741 0.21489 0.0
H3034 H 0.489 0.23812 0.26637 0.0
C3035 C 0.51785 0.22688 0.21094 0.0
H3036 H 0.48896 0.26619 0.23817 0.0
C3037 C 0.51787 0.21075 0.22714 0.0
C3038 C 0.50821 0.21478 0.24767 0.0
H3039 H 0.52645 0.22362 0.19576 0.0
H3040 H 0.52648 0.19557 0.22393 0.0
C3041 C 0.49682 0.23455 0.25088 0.0
C3042 C 0.82298 0.5775 0.83884 0.0
C3043 C 0.82653 0.56654 0.85879 0.0
H3044 H 0.83531 0.58493 0.80695 0.0
C3045 C 0.84725 0.55735 0.86286 0.0
H3046 H 0.80732 0.58494 0.83522 0.0
C3047 C 0.86334 0.55734 0.84662 0.0
C3048 C 0.85906 0.56654 0.82593 0.0
H3049 H 0.85071 0.54908 0.87818 0.0
H3050 H 0.8787 0.54908 0.84993 0.0
C3051 C 0.83908 0.5775 0.82258 0.0
C3052 C 0.84711 0.46076 0.76599 0.0
C3053 C 0.82637 0.4649 0.75687 0.0
H3054 H 0.87859 0.47362 0.77422 0.0
C3055 C 0.82281 0.4849 0.74601 0.0
H3056 H 0.85058 0.4454 0.77417 0.0
C3057 C 0.83893 0.50115 0.74605 0.0
C3058 C 0.85893 0.49772 0.75694 0.0
H3059 H 0.80712 0.48858 0.73864 0.0
H3060 H 0.83515 0.51682 0.73869 0.0
C3061 C 0.86322 0.47699 0.76602 0.0
C3062 C 0.2509 0.58901 0.32738 0.0
C3063 C 0.24747 0.60891 0.31632 0.0
H3064 H 0.23844 0.5572 0.33493 0.0
C3065 C 0.22678 0.61302 0.30703 0.0
H3066 H 0.26653 0.58537 0.3349 0.0
C3067 C 0.21064 0.59683 0.30705 0.0
C3068 C 0.21482 0.57617 0.31636 0.0
H3069 H 0.2234 0.62831 0.29869 0.0
H3070 H 0.19533 0.60016 0.29872 0.0
C3071 C 0.23475 0.5728 0.3274 0.0
C3072 C 0.14392 0.01363 0.42493 0.0
C3073 C 0.1578 0.02205 0.44119 0.0
H3074 H 0.11891 0.02095 0.40152 0.0
C3075 C 0.16164 0.04478 0.44185 0.0
H3076 H 0.14041 0.99624 0.42434 0.0
C3077 C 0.14853 0.05903 0.42956 0.0
C3078 C 0.13224 0.05061 0.41572 0.0
H3079 H 0.17202 0.0517 0.45449 0.0
H3080 H 0.14912 0.07642 0.43308 0.0
C3081 C 0.13158 0.02789 0.41187 0.0
C3082 C 0.05918 0.39376 0.67469 0.0
C3083 C 0.05078 0.40763 0.69096 0.0
H3084 H 0.05184 0.36878 0.65125 0.0
C3085 C 0.02805 0.41147 0.69164 0.0
H3086 H 0.07658 0.39024 0.67409 0.0
C3087 C 0.01379 0.39838 0.67934 0.0
C3088 C 0.0222 0.38211 0.66547 0.0
H3089 H 0.02114 0.42185 0.70429 0.0
H3090 H 0.9964 0.39898 0.68286 0.0
C3091 C 0.04492 0.38144 0.66161 0.0
C3092 C 0.67519 0.26475 0.92964 0.0
C3093 C 0.69151 0.27312 0.91582 0.0
H3094 H 0.65165 0.27214 0.95452 0.0
C3095 C 0.69223 0.29584 0.91195 0.0
H3096 H 0.67455 0.24736 0.93317 0.0
C3097 C 0.67989 0.31013 0.92497 0.0
C3098 C 0.66595 0.30176 0.94121 0.0
H3099 H 0.70493 0.30272 0.90162 0.0
H3100 H 0.68343 0.32752 0.92437 0.0
C3101 C 0.66207 0.27904 0.94188 0.0
C3102 C 0.77823 0.94208 0.16167 0.0
C3103 C 0.80096 0.94141 0.16551 0.0
H3104 H 0.74659 0.93325 0.17413 0.0
C3105 C 0.80938 0.92512 0.17934 0.0
H3106 H 0.77131 0.95476 0.15132 0.0
C3107 C 0.79512 0.912 0.19162 0.0
C3108 C 0.7724 0.91584 0.19096 0.0
H3109 H 0.82677 0.92452 0.18285 0.0
H3110 H 0.80205 0.90161 0.20426 0.0
C3111 C 0.76398 0.92973 0.17472 0.0
C3112 C 0.14827 0.26411 0.89375 0.0
C3113 C 0.13199 0.27253 0.9076 0.0
H3114 H 0.17177 0.27142 0.86882 0.0
C3115 C 0.13133 0.29525 0.91145 0.0
H3116 H 0.14886 0.24671 0.89023 0.0
C3117 C 0.14368 0.3095 0.8984 0.0
C3118 C 0.15756 0.30108 0.88214 0.0
H3119 H 0.11866 0.30217 0.92181 0.0
H3120 H 0.14018 0.3269 0.89899 0.0
C3121 C 0.1614 0.27836 0.88147 0.0
C3122 C 0.79563 0.4116 0.13183 0.0
C3123 C 0.77289 0.40786 0.13251 0.0
H3124 H 0.82724 0.39897 0.14058 0.0
C3125 C 0.76443 0.394 0.14876 0.0
H3126 H 0.80258 0.42196 0.11918 0.0
C3127 C 0.77865 0.38161 0.16182 0.0
C3128 C 0.80138 0.38219 0.15797 0.0
H3129 H 0.74703 0.39055 0.14937 0.0
H3130 H 0.77168 0.36897 0.17218 0.0
C3131 C 0.80985 0.39844 0.14411 0.0
C3132 C 0.66204 0.04489 0.38171 0.0
C3133 C 0.66588 0.02216 0.38241 0.0
H3134 H 0.67455 0.07655 0.3904 0.0
C3135 C 0.6798 0.01378 0.39866 0.0
H3136 H 0.65163 0.05178 0.36907 0.0
C3137 C 0.69215 0.02807 0.41168 0.0
C3138 C 0.69146 0.05078 0.4078 0.0
H3139 H 0.68331 0.99639 0.39928 0.0
H3140 H 0.70483 0.02116 0.42203 0.0
C3141 C 0.67516 0.05917 0.39395 0.0
C3142 C 0.01401 0.92475 0.64391 0.0
C3143 C 0.02241 0.94102 0.65779 0.0
H3144 H 0.02137 0.90128 0.61898 0.0
C3145 C 0.04512 0.94166 0.6617 0.0
H3146 H 0.99662 0.92418 0.64036 0.0
C3147 C 0.0594 0.92932 0.64865 0.0
C3148 C 0.05101 0.91547 0.63236 0.0
H3149 H 0.05203 0.95431 0.67209 0.0
H3150 H 0.07679 0.93282 0.64929 0.0
C3151 C 0.02828 0.91164 0.63165 0.0
C3152 C 0.42967 0.14932 0.05951 0.0
C3153 C 0.41578 0.13306 0.05111 0.0
H3154 H 0.45478 0.17263 0.05219 0.0
C3155 C 0.41202 0.13232 0.02838 0.0
H3156 H 0.43312 0.14997 0.07692 0.0
C3157 C 0.42522 0.14452 0.01412 0.0
C3158 C 0.44152 0.15835 0.02255 0.0
H3159 H 0.40163 0.11967 0.02147 0.0
H3160 H 0.42468 0.14093 0.99674 0.0
C3161 C 0.44211 0.16229 0.04525 0.0
C3162 C 0.92957 0.67487 0.26382 0.0
C3163 C 0.91571 0.69113 0.27228 0.0
H3164 H 0.95459 0.65145 0.27108 0.0
C3165 C 0.91192 0.69178 0.29501 0.0
H3166 H 0.93305 0.6743 0.24642 0.0
C3167 C 0.92505 0.67947 0.30923 0.0
C3168 C 0.94132 0.66562 0.30077 0.0
H3169 H 0.90156 0.70442 0.30196 0.0
H3170 H 0.92449 0.68297 0.32663 0.0
C3171 C 0.94194 0.66179 0.27804 0.0
C3172 C 0.38138 0.1618 0.54527 0.0
C3173 C 0.38207 0.16568 0.52255 0.0
H3174 H 0.39018 0.17422 0.57694 0.0
C3175 C 0.39836 0.17954 0.51417 0.0
H3176 H 0.3687 0.15144 0.55216 0.0
C3177 C 0.41146 0.1918 0.52845 0.0
C3178 C 0.40762 0.1911 0.55117 0.0
H3179 H 0.39897 0.18308 0.49678 0.0
H3180 H 0.42185 0.20445 0.52155 0.0
C3181 C 0.39371 0.17484 0.55955 0.0
C3182 C 0.91173 0.63185 0.79498 0.0
C3183 C 0.90789 0.6326 0.77226 0.0
H3184 H 0.89921 0.64048 0.82666 0.0
C3185 C 0.89399 0.64887 0.76391 0.0
H3186 H 0.92212 0.61918 0.80185 0.0
C3187 C 0.88163 0.66187 0.77822 0.0
C3188 C 0.8823 0.65794 0.80093 0.0
H3189 H 0.89047 0.64952 0.74652 0.0
H3190 H 0.86895 0.67223 0.77133 0.0
C3191 C 0.8986 0.64407 0.80929 0.0
C3192 C 0.42532 0.17971 0.30957 0.0
C3193 C 0.44162 0.16585 0.30118 0.0
H3194 H 0.40179 0.20458 0.30217 0.0
C3195 C 0.44227 0.16192 0.27847 0.0
H3196 H 0.42474 0.18329 0.32695 0.0
C3197 C 0.42989 0.17491 0.26418 0.0
C3198 C 0.41599 0.19118 0.27256 0.0
H3199 H 0.45494 0.15155 0.27158 0.0
H3200 H 0.43339 0.17425 0.24679 0.0
C3201 C 0.41217 0.19192 0.29528 0.0
C3202 C 0.88132 0.66182 0.54515 0.0
C3203 C 0.88199 0.66573 0.52243 0.0
H3204 H 0.89013 0.67421 0.57683 0.0
C3205 C 0.89828 0.67959 0.51406 0.0
H3206 H 0.86865 0.65145 0.55203 0.0
C3207 C 0.91139 0.69185 0.52834 0.0
C3208 C 0.90754 0.69113 0.55107 0.0
H3209 H 0.89888 0.68315 0.49667 0.0
H3210 H 0.92177 0.70451 0.52145 0.0
C3211 C 0.89366 0.67485 0.55944 0.0
C3212 C 0.41153 0.1318 0.79484 0.0
C3213 C 0.40769 0.1325 0.77212 0.0
H3214 H 0.39902 0.1405 0.8265 0.0
C3215 C 0.39378 0.14875 0.76374 0.0
H3216 H 0.42194 0.11915 0.80173 0.0
C3217 C 0.38143 0.16177 0.77802 0.0
C3218 C 0.38211 0.15789 0.80073 0.0
H3219 H 0.39026 0.14936 0.74634 0.0
H3220 H 0.36875 0.17212 0.77111 0.0
C3221 C 0.39841 0.14405 0.80912 0.0
C3222 C 0.92551 0.64411 0.01411 0.0
C3223 C 0.94183 0.65794 0.02248 0.0
H3224 H 0.90198 0.61924 0.02152 0.0
C3225 C 0.94253 0.66184 0.04519 0.0
H3226 H 0.92489 0.64056 0.99673 0.0
C3227 C 0.93018 0.64883 0.05949 0.0
C3228 C 0.91626 0.63258 0.05113 0.0
H3229 H 0.95523 0.67219 0.05207 0.0
H3230 H 0.93372 0.64946 0.07688 0.0
C3231 C 0.91239 0.63188 0.02841 0.0
C3232 C 0.0144 0.42499 0.14365 0.0
C3233 C 0.02285 0.44125 0.15752 0.0
H3234 H 0.02169 0.40151 0.1187 0.0
C3235 C 0.04557 0.44187 0.16136 0.0
H3236 H 0.99701 0.42443 0.14014 0.0
C3237 C 0.05981 0.42952 0.14829 0.0
C3238 C 0.05137 0.41566 0.13203 0.0
H3239 H 0.05251 0.45452 0.17174 0.0
H3240 H 0.07721 0.433 0.14889 0.0
C3241 C 0.02864 0.41186 0.13136 0.0
C3242 C 0.52861 0.41169 0.19217 0.0
C3243 C 0.55133 0.40784 0.19151 0.0
H3244 H 0.49696 0.39921 0.18338 0.0
C3245 C 0.55975 0.39398 0.17523 0.0
H3246 H 0.52169 0.42205 0.20484 0.0
C3247 C 0.54549 0.38168 0.16214 0.0
C3248 C 0.52277 0.38235 0.16598 0.0
H3249 H 0.57714 0.39046 0.17464 0.0
H3250 H 0.55242 0.36903 0.15176 0.0
C3251 C 0.51435 0.39861 0.17985 0.0
C3252 C 0.67962 0.8098 0.42492 0.0
C3253 C 0.66572 0.80137 0.44115 0.0
H3254 H 0.70463 0.80249 0.4015 0.0
C3255 C 0.66186 0.77865 0.44178 0.0
H3256 H 0.68315 0.82719 0.42436 0.0
C3257 C 0.67495 0.7644 0.42946 0.0
C3258 C 0.69125 0.77282 0.41563 0.0
H3259 H 0.65146 0.77172 0.45441 0.0
H3260 H 0.67433 0.747 0.43294 0.0
C3261 C 0.69194 0.79555 0.41183 0.0
C3262 C 0.27855 0.94175 0.66183 0.0
C3263 C 0.30127 0.94111 0.66568 0.0
H3264 H 0.2469 0.93295 0.67432 0.0
C3265 C 0.30969 0.92486 0.67957 0.0
H3266 H 0.27162 0.9544 0.65144 0.0
C3267 C 0.29544 0.91177 0.69189 0.0
C3268 C 0.27271 0.9156 0.69121 0.0
H3269 H 0.32708 0.92428 0.68309 0.0
H3270 H 0.30237 0.90143 0.70456 0.0
C3271 C 0.26429 0.92944 0.67492 0.0
C3272 C 0.64844 0.55933 0.42971 0.0
C3273 C 0.63214 0.55096 0.41585 0.0
H3274 H 0.67194 0.55191 0.4546 0.0
C3275 C 0.63145 0.52825 0.41194 0.0
H3276 H 0.64905 0.57671 0.43327 0.0
C3277 C 0.64379 0.51395 0.42495 0.0
C3278 C 0.65769 0.52231 0.44122 0.0
H3279 H 0.61877 0.52137 0.40157 0.0
H3280 H 0.64026 0.49656 0.42431 0.0
C3281 C 0.66155 0.54503 0.44194 0.0
C3282 C 0.30946 0.89879 0.14406 0.0
C3283 C 0.30099 0.88254 0.15791 0.0
H3284 H 0.30221 0.92229 0.11912 0.0
C3285 C 0.27826 0.88194 0.16175 0.0
H3286 H 0.32686 0.89934 0.14056 0.0
C3287 C 0.26405 0.89431 0.14867 0.0
C3288 C 0.27251 0.90817 0.13242 0.0
H3289 H 0.2713 0.8693 0.17211 0.0
H3290 H 0.24664 0.89085 0.14926 0.0
C3291 C 0.29525 0.91194 0.13176 0.0
C3292 C 0.92504 0.01404 0.6439 0.0
C3293 C 0.94134 0.02242 0.65775 0.0
H3294 H 0.90153 0.02145 0.619 0.0
C3295 C 0.94202 0.04513 0.66166 0.0
H3296 H 0.92443 0.99666 0.64034 0.0
C3297 C 0.92968 0.05943 0.64864 0.0
C3298 C 0.91578 0.05106 0.63237 0.0
H3299 H 0.9547 0.05201 0.67202 0.0
H3300 H 0.93321 0.07681 0.64927 0.0
C3301 C 0.91192 0.02834 0.63166 0.0
C3302 C 0.02804 0.69182 0.41154 0.0
C3303 C 0.05077 0.69117 0.40774 0.0
H3304 H 0.99642 0.68298 0.399 0.0
C3305 C 0.05922 0.6749 0.3939 0.0
H3306 H 0.02109 0.70448 0.42189 0.0
C3307 C 0.045 0.66178 0.38158 0.0
C3308 C 0.02227 0.66561 0.3822 0.0
H3309 H 0.07663 0.67432 0.39042 0.0
H3310 H 0.05196 0.65141 0.36894 0.0
C3311 C 0.01381 0.67948 0.39844 0.0
C3312 C 0.38135 0.77845 0.16209 0.0
C3313 C 0.38206 0.80116 0.15817 0.0
H3314 H 0.39014 0.74675 0.14974 0.0
C3315 C 0.3984 0.80951 0.14434 0.0
H3316 H 0.36863 0.77159 0.17243 0.0
C3317 C 0.41152 0.79519 0.13214 0.0
C3318 C 0.40763 0.77248 0.13286 0.0
H3319 H 0.39903 0.82689 0.14077 0.0
H3320 H 0.42195 0.80206 0.1195 0.0
C3321 C 0.39369 0.76414 0.1491 0.0
C3322 C 0.26398 0.14859 0.89372 0.0
C3323 C 0.27243 0.13236 0.90761 0.0
H3324 H 0.27126 0.172 0.86869 0.0
C3325 C 0.29515 0.13174 0.91144 0.0
H3326 H 0.24658 0.14915 0.89021 0.0
C3327 C 0.30938 0.14404 0.89832 0.0
C3328 C 0.30094 0.15786 0.88203 0.0
H3329 H 0.3021 0.11911 0.92184 0.0
H3330 H 0.32678 0.14055 0.89891 0.0
C3331 C 0.27821 0.16167 0.88137 0.0
C3332 C 0.94215 0.7781 0.16174 0.0
C3333 C 0.94152 0.80082 0.16562 0.0
H3334 H 0.93322 0.74645 0.17411 0.0
C3335 C 0.92522 0.80924 0.17945 0.0
H3336 H 0.95484 0.77118 0.1514 0.0
C3337 C 0.91204 0.79499 0.19167 0.0
C3338 C 0.91582 0.77226 0.19097 0.0
H3339 H 0.92465 0.82663 0.18299 0.0
H3340 H 0.90164 0.80192 0.2043 0.0
C3341 C 0.92974 0.76385 0.17474 0.0
C3342 C 0.26424 0.67525 0.9299 0.0
C3343 C 0.27265 0.69151 0.91602 0.0
H3344 H 0.2716 0.65177 0.95482 0.0
C3345 C 0.29537 0.69216 0.91213 0.0
H3346 H 0.24686 0.67467 0.93344 0.0
C3347 C 0.30964 0.67982 0.92518 0.0
C3348 C 0.30124 0.66595 0.94145 0.0
H3349 H 0.30228 0.70482 0.90175 0.0
H3350 H 0.32703 0.68332 0.92455 0.0
C3351 C 0.27851 0.66213 0.94216 0.0
C3352 C 0.38161 0.04524 0.66164 0.0
C3353 C 0.38231 0.02252 0.66554 0.0
H3354 H 0.39038 0.07693 0.67401 0.0
C3355 C 0.39861 0.01417 0.67941 0.0
H3356 H 0.36892 0.05211 0.65127 0.0
C3357 C 0.41171 0.02848 0.69165 0.0
C3358 C 0.40783 0.0512 0.69093 0.0
H3359 H 0.39924 0.99679 0.68297 0.0
H3360 H 0.4221 0.0216 0.70431 0.0
C3361 C 0.39393 0.05955 0.67465 0.0
C3362 C 0.02844 0.1313 0.41181 0.0
C3363 C 0.05116 0.13195 0.41567 0.0
H3364 H 0.99679 0.14013 0.42426 0.0
C3365 C 0.05958 0.14822 0.42953 0.0
H3366 H 0.02152 0.11864 0.40144 0.0
C3367 C 0.04533 0.16133 0.44182 0.0
C3368 C 0.0226 0.1575 0.44114 0.0
H3369 H 0.07697 0.1488 0.43305 0.0
H3370 H 0.05225 0.1717 0.45447 0.0
C3371 C 0.01418 0.14363 0.42487 0.0
C3372 C 0.64818 0.92973 0.05937 0.0
C3373 C 0.63187 0.91592 0.05096 0.0
H3374 H 0.67177 0.95457 0.05203 0.0
C3375 C 0.63123 0.91201 0.02825 0.0
H3376 H 0.64875 0.93329 0.07676 0.0
C3377 C 0.64365 0.92499 0.01398 0.0
C3378 C 0.65757 0.94123 0.02238 0.0
H3379 H 0.61854 0.90168 0.02133 0.0
H3380 H 0.64017 0.92436 0.99659 0.0
C3381 C 0.66137 0.94194 0.04511 0.0
C3382 C 0.13122 0.41157 0.79503 0.0
C3383 C 0.13189 0.40768 0.77232 0.0
H3384 H 0.14006 0.3992 0.82671 0.0
C3385 C 0.1482 0.39384 0.76393 0.0
H3386 H 0.11853 0.42193 0.80193 0.0
C3387 C 0.16133 0.3816 0.77822 0.0
C3388 C 0.15749 0.38232 0.80094 0.0
H3389 H 0.1488 0.39028 0.74655 0.0
H3390 H 0.17173 0.36896 0.77132 0.0
C3391 C 0.14358 0.39857 0.80932 0.0
C3392 C 0.69185 0.91181 0.5284 0.0
C3393 C 0.69117 0.90792 0.55112 0.0
H3394 H 0.68305 0.89939 0.49673 0.0
C3395 C 0.67488 0.89406 0.5595 0.0
H3396 H 0.70453 0.92217 0.52151 0.0
C3397 C 0.66178 0.88179 0.54521 0.0
C3398 C 0.66564 0.88249 0.52249 0.0
H3399 H 0.67427 0.89051 0.57688 0.0
H3400 H 0.6514 0.86913 0.55211 0.0
C3401 C 0.67952 0.89877 0.51412 0.0
C3402 C 0.19228 0.4119 0.2954 0.0
C3403 C 0.19157 0.41575 0.27268 0.0
H3404 H 0.18351 0.42435 0.32707 0.0
C3405 C 0.17526 0.42959 0.2643 0.0
H3406 H 0.20498 0.40156 0.30229 0.0
C3407 C 0.16216 0.44187 0.27858 0.0
C3408 C 0.16604 0.4412 0.3013 0.0
H3409 H 0.17463 0.43311 0.24691 0.0
H3410 H 0.15176 0.45451 0.27168 0.0
C3411 C 0.17996 0.42495 0.30968 0.0
C3412 C 0.66152 0.88173 0.77877 0.0
C3413 C 0.6577 0.88241 0.80149 0.0
H3414 H 0.64898 0.89044 0.74712 0.0
C3415 C 0.64379 0.89865 0.8099 0.0
H3416 H 0.67192 0.86909 0.77186 0.0
C3417 C 0.63141 0.91167 0.79564 0.0
C3418 C 0.63207 0.9078 0.77292 0.0
H3419 H 0.64029 0.89925 0.82729 0.0
H3420 H 0.61873 0.922 0.80256 0.0
C3421 C 0.64838 0.89398 0.76451 0.0
C3422 C 0.17963 0.3986 0.51379 0.0
C3423 C 0.16574 0.38235 0.52221 0.0
H3424 H 0.20465 0.422 0.52111 0.0
C3425 C 0.16191 0.38168 0.54493 0.0
H3426 H 0.18313 0.39919 0.4964 0.0
C3427 C 0.17503 0.39397 0.55919 0.0
C3428 C 0.19132 0.40781 0.55077 0.0
H3429 H 0.15152 0.36904 0.55185 0.0
H3430 H 0.17443 0.39045 0.57658 0.0
C3431 C 0.19198 0.41166 0.52804 0.0
C3432 C 0.66193 0.94186 0.27826 0.0
C3433 C 0.66576 0.94109 0.30099 0.0
H3434 H 0.67445 0.93322 0.24658 0.0
C3435 C 0.67964 0.92479 0.30933 0.0
H3436 H 0.65156 0.95455 0.2714 0.0
C3437 C 0.69197 0.91178 0.29502 0.0
C3438 C 0.69131 0.91573 0.27232 0.0
H3439 H 0.68314 0.92412 0.32672 0.0
H3440 H 0.70463 0.90139 0.3019 0.0
C3441 C 0.67504 0.92962 0.26396 0.0
C3442 C 0.14867 0.4294 0.05901 0.0
C3443 C 0.13238 0.41559 0.05057 0.0
H3444 H 0.17222 0.4543 0.05174 0.0
C3445 C 0.13174 0.41176 0.02784 0.0
H3446 H 0.14925 0.43291 0.07641 0.0
C3447 C 0.14413 0.4248 0.01361 0.0
C3448 C 0.15803 0.44103 0.02206 0.0
H3449 H 0.11906 0.40143 0.0209 0.0
H3450 H 0.14064 0.42421 0.99622 0.0
C3451 C 0.16183 0.44167 0.04479 0.0
C3452 C 0.02863 0.63149 0.91168 0.0
C3453 C 0.05136 0.63213 0.9155 0.0
H3454 H 0.997 0.64035 0.92418 0.0
C3455 C 0.0598 0.64839 0.92936 0.0
H3456 H 0.02169 0.61884 0.90132 0.0
C3457 C 0.04557 0.66151 0.94167 0.0
C3458 C 0.02284 0.65771 0.94102 0.0
H3459 H 0.0772 0.64897 0.93286 0.0
H3460 H 0.05252 0.67188 0.95431 0.0
C3461 C 0.0144 0.64384 0.92477 0.0
C3462 C 0.51401 0.67973 0.89888 0.0
C3463 C 0.52245 0.66583 0.88265 0.0
H3464 H 0.52128 0.70472 0.92232 0.0
C3465 C 0.54518 0.66199 0.88204 0.0
H3466 H 0.49661 0.68324 0.89943 0.0
C3467 C 0.55941 0.67508 0.89437 0.0
C3468 C 0.55097 0.69137 0.90821 0.0
H3469 H 0.55213 0.65159 0.86941 0.0
H3470 H 0.57681 0.67448 0.8909 0.0
C3471 C 0.52824 0.69204 0.91199 0.0
C3472 C 0.3814 0.2783 0.66167 0.0
C3473 C 0.38209 0.30101 0.65776 0.0
H3474 H 0.39021 0.24661 0.6493 0.0
C3475 C 0.39839 0.30938 0.64391 0.0
H3476 H 0.36871 0.27142 0.67203 0.0
C3477 C 0.41151 0.29508 0.63167 0.0
C3478 C 0.40765 0.27236 0.6324 0.0
H3479 H 0.399 0.32676 0.64034 0.0
H3480 H 0.42191 0.30197 0.61902 0.0
C3481 C 0.39375 0.264 0.64866 0.0
C3482 C 0.79535 0.13141 0.4117 0.0
C3483 C 0.77264 0.13207 0.40781 0.0
H3484 H 0.82702 0.14026 0.3993 0.0
C3485 C 0.76424 0.14836 0.39396 0.0
H3486 H 0.80226 0.11874 0.42206 0.0
C3487 C 0.77851 0.16149 0.38172 0.0
C3488 C 0.80124 0.15766 0.38242 0.0
H3489 H 0.74685 0.14895 0.39041 0.0
H3490 H 0.7716 0.17188 0.36907 0.0
C3491 C 0.80963 0.14377 0.39868 0.0
C3492 C 0.42972 0.55964 0.64884 0.0
C3493 C 0.41583 0.5512 0.6326 0.0
H3494 H 0.45476 0.55236 0.67223 0.0
C3495 C 0.41202 0.52847 0.63196 0.0
H3496 H 0.43321 0.57704 0.64942 0.0
C3497 C 0.42515 0.51424 0.64425 0.0
C3498 C 0.44144 0.52268 0.65808 0.0
H3499 H 0.40163 0.52153 0.61932 0.0
H3500 H 0.42457 0.49684 0.64074 0.0
C3501 C 0.44208 0.54541 0.66191 0.0
C3502 C 0.76399 0.17527 0.92965 0.0
C3503 C 0.7724 0.19153 0.91577 0.0
H3504 H 0.77133 0.15177 0.95457 0.0
C3505 C 0.79512 0.19215 0.91187 0.0
H3506 H 0.7466 0.17471 0.93321 0.0
C3507 C 0.80939 0.1798 0.92491 0.0
C3508 C 0.80098 0.16593 0.94118 0.0
H3509 H 0.80204 0.2048 0.90149 0.0
H3510 H 0.82678 0.18328 0.92427 0.0
C3511 C 0.77825 0.16213 0.9419 0.0
C3512 C 0.16183 0.54493 0.94146 0.0
C3513 C 0.15803 0.5222 0.94082 0.0
H3514 H 0.14924 0.57655 0.93271 0.0
C3515 C 0.14413 0.51375 0.9246 0.0
H3516 H 0.17222 0.55188 0.95409 0.0
C3517 C 0.13173 0.52798 0.91155 0.0
C3518 C 0.13236 0.5507 0.91539 0.0
H3519 H 0.14065 0.49635 0.92402 0.0
H3520 H 0.11905 0.52102 0.90124 0.0
C3521 C 0.14866 0.55916 0.92919 0.0
C3522 C 0.02856 0.91152 0.19179 0.0
C3523 C 0.05128 0.90765 0.19113 0.0
H3524 H 0.99689 0.89907 0.18302 0.0
C3525 C 0.05967 0.89375 0.17487 0.0
H3526 H 0.02166 0.92192 0.20444 0.0
C3527 C 0.04539 0.88145 0.1618 0.0
C3528 C 0.02267 0.88215 0.16564 0.0
H3529 H 0.07706 0.89021 0.17428 0.0
H3530 H 0.0523 0.86877 0.15144 0.0
C3531 C 0.01428 0.89844 0.1795 0.0
C3532 C 0.7783 0.4421 0.66189 0.0
C3533 C 0.80103 0.44147 0.66575 0.0
H3534 H 0.74666 0.43324 0.67435 0.0
C3535 C 0.80946 0.4252 0.6796 0.0
H3536 H 0.77137 0.45477 0.65154 0.0
C3537 C 0.79522 0.41206 0.69188 0.0
C3538 C 0.77249 0.41587 0.69121 0.0
H3539 H 0.82686 0.42463 0.68312 0.0
H3540 H 0.80216 0.40169 0.70452 0.0
C3541 C 0.76406 0.42975 0.67495 0.0
C3542 C 0.1437 0.8094 0.39883 0.0
C3543 C 0.1576 0.80101 0.38257 0.0
H3544 H 0.11864 0.80205 0.42217 0.0
C3545 C 0.1614 0.77828 0.38185 0.0
H3546 H 0.14022 0.8268 0.39947 0.0
C3547 C 0.14824 0.76401 0.39407 0.0
C3548 C 0.13194 0.77242 0.40791 0.0
H3549 H 0.17179 0.77138 0.3692 0.0
H3550 H 0.14881 0.74663 0.39049 0.0
C3551 C 0.13131 0.79513 0.41183 0.0
C3552 C 0.79501 0.91165 0.63178 0.0
C3553 C 0.77228 0.90783 0.63245 0.0
H3554 H 0.82665 0.89912 0.64054 0.0
C3555 C 0.76386 0.89396 0.64872 0.0
H3556 H 0.80193 0.92202 0.61913 0.0
C3557 C 0.77811 0.88162 0.66179 0.0
C3558 C 0.80083 0.88226 0.65793 0.0
H3559 H 0.74646 0.89046 0.64932 0.0
H3560 H 0.77117 0.86896 0.67215 0.0
C3561 C 0.80926 0.89853 0.64407 0.0
C3562 C 0.69245 0.5281 0.91188 0.0
C3563 C 0.69175 0.55082 0.90804 0.0
H3564 H 0.68361 0.49644 0.89944 0.0
C3565 C 0.6754 0.55922 0.89426 0.0
H3566 H 0.70517 0.52119 0.92218 0.0
C3567 C 0.66225 0.54496 0.88202 0.0
C3568 C 0.66612 0.52223 0.88267 0.0
H3569 H 0.67477 0.57661 0.89075 0.0
H3570 H 0.65182 0.55187 0.86941 0.0
C3571 C 0.68007 0.51383 0.89886 0.0
C3572 C 0.44199 0.6617 0.5455 0.0
C3573 C 0.44131 0.65781 0.52278 0.0
H3574 H 0.43316 0.64931 0.57717 0.0
C3575 C 0.42501 0.64397 0.51439 0.0
H3576 H 0.45467 0.67206 0.55239 0.0
C3577 C 0.41189 0.63172 0.52867 0.0
C3578 C 0.41574 0.63242 0.5514 0.0
H3579 H 0.42441 0.64042 0.49701 0.0
H3580 H 0.4015 0.61907 0.52177 0.0
C3581 C 0.42963 0.64868 0.55978 0.0
C3582 C 0.91182 0.19164 0.79494 0.0
C3583 C 0.91562 0.19092 0.77221 0.0
H3584 H 0.92439 0.18296 0.82659 0.0
C3585 C 0.9295 0.17465 0.76381 0.0
H3586 H 0.90145 0.20431 0.80184 0.0
C3587 C 0.94187 0.16162 0.77808 0.0
C3588 C 0.94123 0.16552 0.8008 0.0
H3589 H 0.93298 0.17401 0.74642 0.0
H3590 H 0.95453 0.15126 0.77116 0.0
C3591 C 0.92496 0.17939 0.8092 0.0
C3592 C 0.39379 0.67502 0.05996 0.0
C3593 C 0.40772 0.69127 0.05161 0.0
H3594 H 0.3688 0.65162 0.05253 0.0
C3595 C 0.41164 0.69194 0.0289 0.0
H3596 H 0.39022 0.67442 0.07735 0.0
C3597 C 0.39858 0.67966 0.01459 0.0
C3598 C 0.38225 0.66583 0.02294 0.0
H3599 H 0.42206 0.70458 0.02203 0.0
H3600 H 0.39924 0.68319 0.9972 0.0
C3601 C 0.38151 0.66196 0.04566 0.0
C3602 C 0.88168 0.16159 0.27836 0.0
C3603 C 0.88232 0.15769 0.30107 0.0
H3604 H 0.89053 0.1492 0.24669 0.0
C3605 C 0.89859 0.14381 0.30947 0.0
H3606 H 0.86902 0.17197 0.27145 0.0
C3607 C 0.91171 0.13154 0.29519 0.0
C3608 C 0.90789 0.13227 0.27247 0.0
H3609 H 0.89916 0.14025 0.32685 0.0
H3610 H 0.92207 0.11887 0.3021 0.0
C3611 C 0.89403 0.14856 0.26408 0.0
C3612 C 0.44214 0.66161 0.77846 0.0
C3613 C 0.44147 0.66554 0.80117 0.0
H3614 H 0.43327 0.67392 0.74677 0.0
C3615 C 0.42515 0.67939 0.80954 0.0
H3616 H 0.45483 0.65126 0.77159 0.0
C3617 C 0.412 0.69158 0.79523 0.0
C3618 C 0.41583 0.69084 0.77251 0.0
H3619 H 0.42455 0.68297 0.82691 0.0
H3620 H 0.40159 0.70423 0.80211 0.0
C3621 C 0.42975 0.67458 0.76416 0.0
C3622 C 0.8815 0.16178 0.04522 0.0
C3623 C 0.88213 0.16572 0.02251 0.0
H3624 H 0.89042 0.17408 0.0769 0.0
C3625 C 0.89843 0.17956 0.01412 0.0
H3626 H 0.86882 0.15142 0.05212 0.0
C3627 C 0.9116 0.19176 0.0284 0.0
C3628 C 0.90781 0.191 0.05113 0.0
H3629 H 0.899 0.18315 0.99674 0.0
H3630 H 0.922 0.20441 0.02151 0.0
C3631 C 0.89391 0.17474 0.0595 0.0
C3632 C 0.38167 0.66172 0.27808 0.0
C3633 C 0.38237 0.65788 0.3008 0.0
H3634 H 0.39048 0.64925 0.24643 0.0
C3635 C 0.39867 0.64405 0.30921 0.0
H3636 H 0.36898 0.67206 0.27117 0.0
C3637 C 0.41178 0.63177 0.29494 0.0
C3638 C 0.40793 0.63243 0.27222 0.0
H3639 H 0.39929 0.64054 0.3266 0.0
H3640 H 0.42218 0.61913 0.30186 0.0
C3641 C 0.39402 0.64867 0.26382 0.0
C3642 C 0.91204 0.13146 0.5283 0.0
C3643 C 0.91586 0.13221 0.55102 0.0
H3644 H 0.92457 0.14013 0.49663 0.0
C3645 C 0.92974 0.14849 0.55939 0.0
H3646 H 0.90166 0.11879 0.52142 0.0
C3647 C 0.94208 0.16151 0.5451 0.0
C3648 C 0.94143 0.15759 0.52239 0.0
H3649 H 0.93323 0.14914 0.57679 0.0
H3650 H 0.95474 0.17189 0.552 0.0
C3651 C 0.92516 0.14371 0.51401 0.0
C3652 C 0.52836 0.91147 0.69216 0.0
C3653 C 0.55109 0.90766 0.69146 0.0
H3654 H 0.49671 0.89892 0.68346 0.0
C3655 C 0.5595 0.89378 0.67519 0.0
H3656 H 0.52145 0.92185 0.70482 0.0
C3657 C 0.54523 0.88143 0.66216 0.0
C3658 C 0.52251 0.88207 0.66604 0.0
H3659 H 0.5769 0.89029 0.67457 0.0
H3660 H 0.55216 0.86877 0.65179 0.0
C3661 C 0.5141 0.89834 0.6799 0.0
C3662 C 0.26419 0.42964 0.17504 0.0
C3663 C 0.27265 0.41578 0.1913 0.0
H3664 H 0.27147 0.4546 0.15156 0.0
C3665 C 0.29537 0.41193 0.19191 0.0
H3666 H 0.2468 0.43316 0.17449 0.0
C3667 C 0.3096 0.425 0.17955 0.0
C3668 C 0.30116 0.44127 0.1657 0.0
H3669 H 0.30232 0.40156 0.20455 0.0
H3670 H 0.327 0.4244 0.18303 0.0
C3671 C 0.27842 0.44194 0.16191 0.0
C3672 C 0.64365 0.01383 0.9248 0.0
C3673 C 0.6576 0.02225 0.94099 0.0
H3674 H 0.61853 0.02116 0.9015 0.0
C3675 C 0.66144 0.04497 0.94164 0.0
H3676 H 0.64014 0.99644 0.92422 0.0
C3677 C 0.64827 0.05922 0.92941 0.0
C3678 C 0.63193 0.05081 0.91564 0.0
H3679 H 0.67188 0.05189 0.95424 0.0
H3680 H 0.64888 0.07662 0.93293 0.0
C3681 C 0.63125 0.02808 0.91179 0.0
C3682 C 0.264 0.39403 0.64841 0.0
C3683 C 0.27242 0.40788 0.63213 0.0
H3684 H 0.27132 0.36906 0.67187 0.0
C3685 C 0.29515 0.41171 0.63145 0.0
H3686 H 0.2466 0.39053 0.64901 0.0
C3687 C 0.3094 0.39861 0.64376 0.0
C3688 C 0.30097 0.38235 0.65763 0.0
H3689 H 0.30207 0.42206 0.61879 0.0
H3690 H 0.32679 0.39919 0.64023 0.0
C3691 C 0.27825 0.38171 0.66149 0.0
C3692 C 0.94254 0.54541 0.16165 0.0
C3693 C 0.94182 0.5227 0.15774 0.0
H3694 H 0.93376 0.57712 0.1493 0.0
C3695 C 0.92548 0.51436 0.14391 0.0
H3696 H 0.95525 0.55227 0.17199 0.0
C3697 C 0.91237 0.52868 0.13169 0.0
C3698 C 0.91626 0.5514 0.13242 0.0
H3699 H 0.92484 0.49698 0.14034 0.0
H3700 H 0.90194 0.52181 0.11905 0.0
C3701 C 0.9302 0.55973 0.14866 0.0
C3702 C 0.01401 0.17946 0.8983 0.0
C3703 C 0.02245 0.16561 0.88203 0.0
H3704 H 0.0213 0.20441 0.92178 0.0
C3705 C 0.04518 0.16179 0.88137 0.0
H3706 H 0.99661 0.18295 0.89889 0.0
C3707 C 0.05941 0.17488 0.8937 0.0
C3708 C 0.05097 0.19113 0.90757 0.0
H3709 H 0.05211 0.15143 0.8687 0.0
H3710 H 0.07681 0.17431 0.89019 0.0
C3711 C 0.02825 0.19177 0.91141 0.0
C3712 C 0.30974 0.64399 0.39847 0.0
C3713 C 0.30132 0.65787 0.38222 0.0
H3714 H 0.30239 0.61904 0.42194 0.0
C3715 C 0.27861 0.66176 0.38158 0.0
H3716 H 0.32712 0.64044 0.39904 0.0
C3717 C 0.26434 0.6487 0.39392 0.0
C3718 C 0.27274 0.63242 0.40777 0.0
H3719 H 0.27169 0.67215 0.36894 0.0
H3720 H 0.24694 0.64933 0.39042 0.0
C3721 C 0.29547 0.63171 0.41158 0.0
C3722 C 0.92481 0.3091 0.67931 0.0
C3723 C 0.94111 0.3007 0.66547 0.0
H3724 H 0.90132 0.30175 0.70424 0.0
C3725 C 0.94179 0.27798 0.6616 0.0
H3726 H 0.92421 0.32649 0.68284 0.0
C3727 C 0.92945 0.26371 0.67465 0.0
C3728 C 0.91555 0.27211 0.69091 0.0
H3729 H 0.95447 0.27108 0.65125 0.0
H3730 H 0.93297 0.24632 0.67404 0.0
C3731 C 0.9117 0.29483 0.69159 0.0
C3732 C 0.29514 0.19183 0.41184 0.0
C3733 C 0.27242 0.19119 0.41568 0.0
H3734 H 0.32678 0.18299 0.42433 0.0
C3735 C 0.26398 0.17494 0.42956 0.0
H3736 H 0.30208 0.20447 0.40146 0.0
C3737 C 0.27822 0.16184 0.44187 0.0
C3738 C 0.30095 0.16565 0.4412 0.0
H3739 H 0.24659 0.17437 0.43307 0.0
H3740 H 0.27128 0.15149 0.45453 0.0
C3741 C 0.30938 0.1795 0.42493 0.0
C3742 C 0.41171 0.52838 0.1918 0.0
C3743 C 0.40792 0.55111 0.19109 0.0
H3744 H 0.39913 0.49674 0.1831 0.0
C3745 C 0.39405 0.55952 0.17482 0.0
H3746 H 0.42208 0.52147 0.20447 0.0
C3747 C 0.38168 0.54527 0.16179 0.0
C3748 C 0.3823 0.52255 0.16568 0.0
H3749 H 0.39058 0.57692 0.17419 0.0
H3750 H 0.36902 0.5522 0.15143 0.0
C3751 C 0.39857 0.51413 0.17955 0.0
C3752 C 0.6615 0.44181 0.54521 0.0
C3753 C 0.65766 0.4411 0.52249 0.0
H3754 H 0.649 0.43312 0.57688 0.0
C3755 C 0.64376 0.42483 0.51412 0.0
H3756 H 0.6719 0.45447 0.5521 0.0
C3757 C 0.63142 0.4118 0.52841 0.0
C3758 C 0.6321 0.4157 0.55112 0.0
H3759 H 0.64024 0.4242 0.49673 0.0
H3760 H 0.61874 0.40144 0.52151 0.0
C3761 C 0.6484 0.42956 0.5595 0.0
C3762 C 0.16166 0.88158 0.27865 0.0
C3763 C 0.15775 0.8823 0.30136 0.0
H3764 H 0.14924 0.89026 0.24694 0.0
C3765 C 0.14382 0.89857 0.30969 0.0
H3766 H 0.17207 0.86892 0.2718 0.0
C3767 C 0.13152 0.91159 0.29536 0.0
C3768 C 0.13226 0.90768 0.27265 0.0
H3769 H 0.14025 0.8992 0.32707 0.0
H3770 H 0.11882 0.92195 0.30222 0.0
C3771 C 0.14859 0.89382 0.26432 0.0
C3772 C 0.69246 0.41205 0.02845 0.0
C3773 C 0.69181 0.40815 0.05116 0.0
H3774 H 0.68354 0.39968 0.99679 0.0
C3775 C 0.6755 0.39434 0.05957 0.0
H3776 H 0.70515 0.42238 0.02153 0.0
C3777 C 0.66233 0.38212 0.04531 0.0
C3778 C 0.66613 0.38282 0.02258 0.0
H3779 H 0.67492 0.39078 0.07696 0.0
H3780 H 0.65193 0.36948 0.05223 0.0
C3781 C 0.68005 0.39906 0.01418 0.0
C3782 C 0.17985 0.9248 0.80953 0.0
C3783 C 0.16595 0.94104 0.80112 0.0
H3784 H 0.20492 0.90145 0.80221 0.0
C3785 C 0.16215 0.94173 0.77839 0.0
H3786 H 0.18334 0.92419 0.82693 0.0
C3787 C 0.17531 0.92949 0.76414 0.0
C3788 C 0.19161 0.91566 0.77256 0.0
H3789 H 0.15175 0.95437 0.77147 0.0
H3790 H 0.17473 0.93303 0.74675 0.0
C3791 C 0.19224 0.91178 0.79528 0.0
C3792 C 0.6487 0.39397 0.26444 0.0
C3793 C 0.63243 0.40784 0.27285 0.0
H3794 H 0.67221 0.36907 0.27179 0.0
C3795 C 0.6318 0.41174 0.29556 0.0
H3796 H 0.64927 0.39041 0.24706 0.0
C3797 C 0.64417 0.39873 0.30983 0.0
C3798 C 0.65805 0.38245 0.30143 0.0
H3799 H 0.61914 0.42212 0.30248 0.0
H3800 H 0.64069 0.39937 0.32723 0.0
C3801 C 0.66185 0.38173 0.2787 0.0
C3802 C 0.16215 0.88205 0.04507 0.0
C3803 C 0.166 0.88271 0.02235 0.0
H3804 H 0.17463 0.89082 0.07673 0.0
C3805 C 0.17991 0.89895 0.01394 0.0
H3806 H 0.15174 0.86941 0.05198 0.0
C3807 C 0.19225 0.91201 0.02821 0.0
C3808 C 0.19155 0.90817 0.05093 0.0
H3809 H 0.18343 0.89954 0.99655 0.0
H3810 H 0.20493 0.92235 0.02129 0.0
C3811 C 0.17525 0.89434 0.05933 0.0
C3812 C 0.69221 0.41188 0.79538 0.0
C3813 C 0.69152 0.41578 0.77267 0.0
H3814 H 0.68341 0.42427 0.82706 0.0
C3815 C 0.67521 0.42963 0.7643 0.0
H3816 H 0.7049 0.40152 0.80226 0.0
C3817 C 0.6621 0.44187 0.77859 0.0
C3818 C 0.66597 0.44116 0.80131 0.0
H3819 H 0.67459 0.43319 0.74692 0.0
H3820 H 0.6517 0.45453 0.77171 0.0
C3821 C 0.67987 0.4249 0.80968 0.0
C3822 C 0.16158 0.94156 0.54517 0.0
C3823 C 0.15776 0.94085 0.52244 0.0
H3824 H 0.14905 0.93286 0.57682 0.0
C3825 C 0.14386 0.9246 0.51405 0.0
H3826 H 0.17197 0.95422 0.55206 0.0
C3827 C 0.1315 0.91157 0.52833 0.0
C3828 C 0.13216 0.91545 0.55104 0.0
H3829 H 0.14036 0.92397 0.49666 0.0
H3830 H 0.11883 0.90121 0.52141 0.0
C3831 C 0.14845 0.92931 0.55944 0.0
C3832 C 0.54537 0.16195 0.38192 0.0
C3833 C 0.52265 0.16581 0.3826 0.0
H3834 H 0.57704 0.17441 0.39069 0.0
C3835 C 0.51426 0.17969 0.39887 0.0
H3836 H 0.55228 0.15157 0.36926 0.0
C3837 C 0.52853 0.19199 0.41195 0.0
C3838 C 0.55126 0.1913 0.40809 0.0
H3839 H 0.49687 0.18322 0.39947 0.0
H3840 H 0.52162 0.20465 0.42232 0.0
C3841 C 0.55965 0.17502 0.39422 0.0
C3842 C 0.76435 0.64856 0.89408 0.0
C3843 C 0.77278 0.63228 0.90792 0.0
H3844 H 0.77165 0.67204 0.86912 0.0
C3845 C 0.79551 0.6316 0.91173 0.0
H3846 H 0.74695 0.64916 0.89059 0.0
C3847 C 0.80975 0.64392 0.89864 0.0
C3848 C 0.80132 0.65781 0.8824 0.0
H3849 H 0.80243 0.61894 0.92209 0.0
H3850 H 0.82714 0.6404 0.89921 0.0
C3851 C 0.77859 0.66166 0.88176 0.0
C3852 C 0.42506 0.01495 0.14401 0.0
C3853 C 0.44138 0.02334 0.15783 0.0
H3854 H 0.40148 0.02232 0.11917 0.0
C3855 C 0.44205 0.04605 0.16173 0.0
H3856 H 0.42446 0.99756 0.14045 0.0
C3857 C 0.42965 0.06033 0.14875 0.0
C3858 C 0.41572 0.05195 0.13251 0.0
H3859 H 0.45475 0.05295 0.17206 0.0
H3860 H 0.43316 0.07773 0.14938 0.0
C3861 C 0.41189 0.02923 0.13181 0.0
C3862 C 0.76396 0.67522 0.42941 0.0
C3863 C 0.77241 0.6915 0.41558 0.0
H3864 H 0.77123 0.65172 0.45435 0.0
C3865 C 0.79515 0.69216 0.41178 0.0
H3866 H 0.74656 0.67463 0.43288 0.0
C3867 C 0.80937 0.67982 0.42488 0.0
C3868 C 0.80091 0.66593 0.4411 0.0
H3869 H 0.80209 0.70483 0.40145 0.0
H3870 H 0.82677 0.68332 0.42432 0.0
C3871 C 0.77819 0.6621 0.44172 0.0
C3872 C 0.19198 0.29524 0.41172 0.0
C3873 C 0.19133 0.27252 0.41559 0.0
H3874 H 0.18312 0.3269 0.42415 0.0
C3875 C 0.17504 0.26411 0.42943 0.0
H3876 H 0.20466 0.30216 0.40137 0.0
C3877 C 0.16191 0.27837 0.4417 0.0
C3878 C 0.16573 0.30109 0.44101 0.0
H3879 H 0.17446 0.24672 0.43297 0.0
H3880 H 0.15152 0.27144 0.45434 0.0
C3881 C 0.17962 0.3095 0.42476 0.0
C3882 C 0.64864 0.26427 0.39426 0.0
C3883 C 0.63234 0.27268 0.4081 0.0
H3884 H 0.67219 0.27161 0.36939 0.0
C3885 C 0.63169 0.29539 0.41199 0.0
H3886 H 0.64922 0.24688 0.39072 0.0
C3887 C 0.64408 0.30966 0.39897 0.0
C3888 C 0.65798 0.30126 0.38273 0.0
H3889 H 0.61901 0.30231 0.42233 0.0
H3890 H 0.64058 0.32706 0.3996 0.0
C3891 C 0.6618 0.27853 0.38203 0.0
C3892 C 0.19211 0.0282 0.91157 0.0
C3893 C 0.19145 0.05092 0.9077 0.0
H3894 H 0.18326 0.99655 0.89914 0.0
C3895 C 0.17516 0.05933 0.89385 0.0
H3896 H 0.20478 0.02129 0.92192 0.0
C3897 C 0.16204 0.04507 0.88158 0.0
C3898 C 0.16586 0.02234 0.88227 0.0
H3899 H 0.17457 0.07672 0.89032 0.0
H3900 H 0.15165 0.05199 0.86893 0.0
C3901 C 0.17975 0.01394 0.89853 0.0
C3902 C 0.52817 0.91237 0.13173 0.0
C3903 C 0.5509 0.91616 0.13245 0.0
H3904 H 0.49653 0.92497 0.14038 0.0
C3905 C 0.5593 0.93005 0.14871 0.0
H3906 H 0.52127 0.90199 0.11907 0.0
C3907 C 0.54504 0.94242 0.16172 0.0
C3908 C 0.52232 0.9418 0.15781 0.0
H3909 H 0.5767 0.93352 0.14935 0.0
H3910 H 0.55196 0.95509 0.17209 0.0
C3911 C 0.51391 0.92553 0.14396 0.0
C3912 C 0.54524 0.44198 0.66184 0.0
C3913 C 0.52251 0.44132 0.65803 0.0
H3914 H 0.57687 0.43316 0.64931 0.0
C3915 C 0.51406 0.42506 0.64418 0.0
H3916 H 0.55218 0.45463 0.6722 0.0
C3917 C 0.52829 0.41197 0.63184 0.0
C3918 C 0.55102 0.41579 0.63248 0.0
H3919 H 0.49666 0.42448 0.64069 0.0
H3920 H 0.52134 0.4016 0.61919 0.0
C3921 C 0.55947 0.42966 0.64873 0.0
C3922 C 0.19225 0.7956 0.91188 0.0
C3923 C 0.19158 0.77289 0.91579 0.0
H3924 H 0.18341 0.82728 0.92423 0.0
C3925 C 0.17525 0.76451 0.92962 0.0
H3926 H 0.20495 0.80248 0.90153 0.0
C3927 C 0.16211 0.7788 0.94183 0.0
C3928 C 0.16596 0.80152 0.94111 0.0
H3929 H 0.17465 0.74713 0.93318 0.0
H3930 H 0.1517 0.77191 0.95447 0.0
C3931 C 0.17988 0.80989 0.92486 0.0
C3932 C 0.91132 0.79497 0.63172 0.0
C3933 C 0.90746 0.77225 0.63241 0.0
H3934 H 0.89885 0.82665 0.64044 0.0
C3935 C 0.89354 0.76388 0.64866 0.0
H3936 H 0.92172 0.80186 0.61907 0.0
C3937 C 0.88122 0.77817 0.6617 0.0
C3938 C 0.88192 0.80089 0.65783 0.0
H3939 H 0.89001 0.74649 0.64927 0.0
H3940 H 0.86853 0.77127 0.67205 0.0
C3941 C 0.89822 0.80926 0.64398 0.0
C3942 C 0.41199 0.79478 0.69199 0.0
C3943 C 0.41579 0.77205 0.69121 0.0
H3944 H 0.42457 0.82645 0.68342 0.0
C3945 C 0.42969 0.7637 0.67494 0.0
H3946 H 0.4016 0.80165 0.70466 0.0
C3947 C 0.44208 0.77801 0.66197 0.0
C3948 C 0.44144 0.80071 0.66594 0.0
H3949 H 0.43318 0.74631 0.67426 0.0
H3950 H 0.45475 0.77111 0.6516 0.0
C3951 C 0.42515 0.80908 0.6798 0.0
C3952 C 0.88144 0.04545 0.16179 0.0
C3953 C 0.88209 0.02272 0.16562 0.0
H3954 H 0.89034 0.07708 0.17425 0.0
C3955 C 0.89839 0.01428 0.17943 0.0
H3956 H 0.86876 0.05239 0.15146 0.0
C3957 C 0.91155 0.02851 0.1917 0.0
C3958 C 0.90774 0.05125 0.19105 0.0
H3959 H 0.89897 0.99689 0.18293 0.0
H3960 H 0.92195 0.02157 0.20432 0.0
C3961 C 0.89383 0.05968 0.17483 0.0
C3962 C 0.55956 0.14867 0.92957 0.0
C3963 C 0.55109 0.13242 0.91571 0.0
H3964 H 0.5523 0.17218 0.9545 0.0
C3965 C 0.52837 0.13184 0.91185 0.0
H3966 H 0.57695 0.14919 0.9331 0.0
C3967 C 0.51415 0.14423 0.9249 0.0
C3968 C 0.5226 0.15808 0.94116 0.0
H3969 H 0.52141 0.1192 0.90148 0.0
H3970 H 0.49674 0.14078 0.92429 0.0
C3971 C 0.54534 0.16183 0.94185 0.0
C3972 C 0.52828 0.63162 0.41204 0.0
C3973 C 0.551 0.63232 0.4159 0.0
H3974 H 0.49661 0.64036 0.42449 0.0
C3975 C 0.55938 0.6486 0.42977 0.0
H3976 H 0.5214 0.61894 0.40166 0.0
C3977 C 0.54509 0.66168 0.44206 0.0
C3978 C 0.52237 0.6578 0.44137 0.0
H3979 H 0.57677 0.64923 0.4333 0.0
H3980 H 0.55199 0.67206 0.45472 0.0
C3981 C 0.51399 0.64391 0.4251 0.0
C3982 C 0.89859 0.30909 0.14411 0.0
C3983 C 0.88229 0.30067 0.15793 0.0
H3984 H 0.92213 0.30176 0.11922 0.0
C3985 C 0.88162 0.27795 0.16178 0.0
H3986 H 0.89919 0.32648 0.14059 0.0
C3987 C 0.89399 0.26369 0.14875 0.0
C3988 C 0.9079 0.2721 0.13251 0.0
H3989 H 0.86893 0.27103 0.17212 0.0
H3990 H 0.89048 0.2463 0.14935 0.0
C3991 C 0.91173 0.29483 0.13185 0.0
C3992 C 0.66146 0.77864 0.88223 0.0
C3993 C 0.65764 0.80137 0.88284 0.0
H3994 H 0.64888 0.74702 0.891 0.0
C3995 C 0.64369 0.80983 0.89902 0.0
H3996 H 0.67188 0.77169 0.86964 0.0
C3997 C 0.63128 0.79561 0.91206 0.0
C3998 C 0.63194 0.77288 0.90826 0.0
H3999 H 0.6402 0.82723 0.89957 0.0
H4000 H 0.61857 0.80256 0.92234 0.0
C4001 C 0.64828 0.76442 0.89449 0.0
C4002 C 0.16214 0.54526 0.3817 0.0
C4003 C 0.16594 0.52253 0.38245 0.0
H4004 H 0.17469 0.57692 0.39035 0.0
C4005 C 0.17982 0.51416 0.39874 0.0
H4006 H 0.15177 0.55214 0.36902 0.0
C4007 C 0.19217 0.52845 0.41175 0.0
C4008 C 0.19154 0.55116 0.40782 0.0
H4009 H 0.18331 0.49677 0.3994 0.0
H4010 H 0.20483 0.52155 0.42213 0.0
C4011 C 0.17527 0.55954 0.39394 0.0
C4012 C 0.44237 0.27826 0.16204 0.0
C4013 C 0.4417 0.30098 0.16591 0.0
H4014 H 0.4335 0.2466 0.17444 0.0
C4015 C 0.4254 0.30938 0.17975 0.0
H4016 H 0.45505 0.27136 0.15169 0.0
C4017 C 0.41226 0.29512 0.192 0.0
C4018 C 0.41609 0.27239 0.1913 0.0
H4019 H 0.42481 0.32677 0.18329 0.0
H4020 H 0.40187 0.30203 0.20464 0.0
C4021 C 0.42999 0.26399 0.17506 0.0
C4022 C 0.91157 0.5287 0.69166 0.0
C4023 C 0.90774 0.55143 0.69094 0.0
H4024 H 0.89902 0.49704 0.683 0.0
C4025 C 0.89382 0.55981 0.6747 0.0
H4026 H 0.92198 0.52181 0.7043 0.0
C4027 C 0.88145 0.54552 0.6617 0.0
C4028 C 0.88211 0.52281 0.66561 0.0
H4029 H 0.89032 0.5772 0.67407 0.0
H4030 H 0.86876 0.55243 0.65136 0.0
C4031 C 0.89842 0.51442 0.67944 0.0
C4032 C 0.07856 0.00521 0.33423 0.0
C4033 C 0.07007 0.00064 0.35516 0.0
H4034 H 0.08372 0.99342 0.30158 0.0
C4035 C 0.0637 0.97909 0.36016 0.0
H4036 H 0.08375 0.02163 0.32993 0.0
C4037 C 0.06368 0.96301 0.34399 0.0
C4038 C 0.07004 0.96811 0.32247 0.0
H4039 H 0.05752 0.97491 0.37627 0.0
H4040 H 0.05749 0.94688 0.3481 0.0
C4041 C 0.07854 0.98904 0.31799 0.0
C4042 C 0.09398 0.31433 0.60997 0.0
C4043 C 0.07236 0.32034 0.60485 0.0
H4044 H 0.12631 0.30844 0.59806 0.0
C4045 C 0.06772 0.32853 0.58382 0.0
H4046 H 0.0982 0.30838 0.62616 0.0
C4047 C 0.08394 0.32857 0.56761 0.0
C4048 C 0.10498 0.32041 0.57224 0.0
H4049 H 0.05124 0.33343 0.57941 0.0
H4050 H 0.07953 0.33349 0.55114 0.0
C4051 C 0.11011 0.31437 0.59385 0.0
C4052 C 0.7604 0.36045 0.84406 0.0
C4053 C 0.75392 0.35539 0.82255 0.0
H4054 H 0.76665 0.3485 0.8763 0.0
C4055 C 0.74532 0.33449 0.81809 0.0
H4056 H 0.76667 0.37654 0.84815 0.0
C4057 C 0.7453 0.31831 0.83433 0.0
C4058 C 0.75389 0.32284 0.85523 0.0
H4059 H 0.74005 0.33015 0.80171 0.0
H4060 H 0.74002 0.30192 0.83004 0.0
C4061 C 0.76038 0.34435 0.86021 0.0
C4062 C 0.75545 0.99508 0.08399 0.0
C4063 C 0.75082 0.00341 0.10497 0.0
H4064 H 0.74369 0.99002 0.05131 0.0
C4065 C 0.72922 0.00958 0.11001 0.0
H4066 H 0.77191 0.99005 0.07965 0.0
C4067 C 0.71313 0.00956 0.09385 0.0
C4068 C 0.71827 0.00337 0.07228 0.0
H4069 H 0.725 0.01563 0.12616 0.0
H4070 H 0.69696 0.0156 0.098 0.0
C4071 C 0.73928 0.99506 0.06774 0.0
C4072 C 0.06324 0.34399 0.96308 0.0
C4073 C 0.0697 0.32247 0.96809 0.0
H4074 H 0.05704 0.37622 0.9751 0.0
C4075 C 0.07831 0.31796 0.98898 0.0
H4076 H 0.05696 0.34812 0.947 0.0
C4077 C 0.07836 0.33417 0.00519 0.0
C4078 C 0.0698 0.35509 0.00071 0.0
H4079 H 0.08356 0.30157 0.99329 0.0
H4080 H 0.08365 0.32984 0.02157 0.0
C4081 C 0.06329 0.36012 0.97921 0.0
C4082 C 0.73966 0.3286 0.25599 0.0
C4083 C 0.71862 0.3204 0.25144 0.0
H4084 H 0.77231 0.33352 0.24406 0.0
C4085 C 0.71342 0.31433 0.22986 0.0
H4086 H 0.74412 0.33354 0.27244 0.0
C4087 C 0.72949 0.31432 0.21367 0.0
C4088 C 0.75112 0.32038 0.21871 0.0
H4089 H 0.69722 0.30838 0.22571 0.0
H4090 H 0.72522 0.30836 0.1975 0.0
C4091 C 0.75582 0.32859 0.23972 0.0
C4092 C 0.75969 0.96317 0.47957 0.0
C4093 C 0.75343 0.96831 0.50111 0.0
H4094 H 0.76583 0.97504 0.44727 0.0
C4095 C 0.74505 0.9893 0.50562 0.0
H4096 H 0.76578 0.94701 0.47545 0.0
C4097 C 0.74508 0.00546 0.48937 0.0
C4098 C 0.75348 0.00084 0.46842 0.0
H4099 H 0.73995 0.99371 0.52204 0.0
H4100 H 0.74 0.02191 0.49369 0.0
C4101 C 0.75972 0.97926 0.4634 0.0
C4102 C 0.08411 0.99469 0.75569 0.0
C4103 C 0.10516 0.00283 0.75105 0.0
H4104 H 0.05141 0.98982 0.7439 0.0
C4105 C 0.11029 0.00884 0.72943 0.0
H4106 H 0.07971 0.9898 0.77217 0.0
C4107 C 0.09416 0.00886 0.71331 0.0
C4108 C 0.07253 0.00287 0.71844 0.0
H4109 H 0.12649 0.01475 0.7252 0.0
H4110 H 0.09838 0.01478 0.69711 0.0
C4111 C 0.0679 0.9947 0.73949 0.0
C4112 C 0.31795 0.07898 0.9894 0.0
C4113 C 0.32266 0.07068 0.96842 0.0
H4114 H 0.32964 0.08406 0.0221 0.0
C4115 C 0.34429 0.0646 0.96341 0.0
H4116 H 0.30146 0.08394 0.99371 0.0
C4117 C 0.36035 0.06468 0.9796 0.0
C4118 C 0.35515 0.07084 0.00117 0.0
H4119 H 0.34856 0.05857 0.94727 0.0
H4120 H 0.37655 0.05871 0.97548 0.0
C4121 C 0.3341 0.07906 0.00567 0.0
C4122 C 0.99544 0.56795 0.23909 0.0
C4123 C 0.00401 0.57249 0.21819 0.0
H4124 H 0.99011 0.57982 0.27169 0.0
C4125 C 0.01037 0.59404 0.21317 0.0
H4126 H 0.99026 0.55154 0.24341 0.0
C4127 C 0.01028 0.61017 0.22929 0.0
C4128 C 0.00383 0.60511 0.2508 0.0
H4129 H 0.01662 0.59819 0.19708 0.0
H4130 H 0.01646 0.62629 0.22517 0.0
C4131 C 0.99535 0.58417 0.2553 0.0
C4132 C 0.46329 0.25907 0.47962 0.0
C4133 C 0.46841 0.25302 0.50122 0.0
H4134 H 0.47523 0.26506 0.44732 0.0
C4135 C 0.48944 0.24484 0.50586 0.0
H4136 H 0.4471 0.26501 0.4754 0.0
C4137 C 0.50567 0.24487 0.48966 0.0
C4138 C 0.50105 0.25308 0.46864 0.0
H4139 H 0.49384 0.2399 0.52233 0.0
H4140 H 0.52214 0.23996 0.49407 0.0
C4141 C 0.47944 0.2591 0.4635 0.0
C4142 C 0.81361 0.71331 0.72958 0.0
C4143 C 0.81995 0.71842 0.75111 0.0
H4144 H 0.80741 0.72522 0.69731 0.0
C4145 C 0.8284 0.73937 0.75561 0.0
H4146 H 0.80746 0.69717 0.72546 0.0
C4147 C 0.82838 0.75555 0.73937 0.0
C4148 C 0.8199 0.75097 0.71844 0.0
H4149 H 0.83356 0.74375 0.77202 0.0
H4150 H 0.83352 0.77198 0.74369 0.0
C4151 C 0.81359 0.72941 0.71343 0.0
C4152 C 0.34427 0.25914 0.36021 0.0
C4153 C 0.32266 0.25307 0.35509 0.0
H4154 H 0.37658 0.26511 0.34831 0.0
C4155 C 0.31805 0.24487 0.33406 0.0
H4156 H 0.34847 0.2651 0.3764 0.0
C4157 C 0.33427 0.24487 0.31785 0.0
C4158 C 0.35529 0.25309 0.32248 0.0
H4159 H 0.30158 0.23992 0.32965 0.0
H4160 H 0.32988 0.23993 0.30138 0.0
C4161 C 0.3604 0.25915 0.34409 0.0
C4162 C 0.82823 0.56811 0.58407 0.0
C4163 C 0.81985 0.5727 0.60504 0.0
H4164 H 0.8333 0.57991 0.55141 0.0
C4165 C 0.81357 0.59426 0.61008 0.0
H4166 H 0.83333 0.55167 0.57973 0.0
C4167 C 0.81356 0.61036 0.59393 0.0
C4168 C 0.81981 0.60526 0.57238 0.0
H4169 H 0.80747 0.59845 0.62622 0.0
H4170 H 0.80744 0.62651 0.59808 0.0
C4171 C 0.82821 0.58429 0.56784 0.0
C4172 C 0.47911 0.06486 0.86003 0.0
C4173 C 0.50076 0.07079 0.85498 0.0
H4174 H 0.44683 0.05896 0.84799 0.0
C4175 C 0.50552 0.07888 0.83394 0.0
H4176 H 0.47479 0.059 0.87623 0.0
C4177 C 0.48939 0.07886 0.81765 0.0
C4178 C 0.46831 0.07075 0.82221 0.0
H4179 H 0.52203 0.08372 0.82959 0.0
H4180 H 0.49389 0.08369 0.80117 0.0
C4181 C 0.46306 0.06484 0.84383 0.0
C4182 C 0.9955 0.75545 0.08406 0.0
C4183 C 0.00395 0.75089 0.105 0.0
H4184 H 0.99041 0.74364 0.0514 0.0
C4185 C 0.01036 0.72936 0.11001 0.0
H4186 H 0.99029 0.77186 0.07974 0.0
C4187 C 0.01044 0.71327 0.09384 0.0
C4188 C 0.0041 0.71835 0.07231 0.0
H4189 H 0.01653 0.72519 0.12613 0.0
H4190 H 0.01665 0.69716 0.09796 0.0
C4191 C 0.99557 0.73928 0.06781 0.0
C4192 C 0.97948 0.35999 0.06451 0.0
C4193 C 0.00113 0.35491 0.07043 0.0
H4194 H 0.94716 0.34801 0.0587 0.0
C4195 C 0.00585 0.33386 0.07855 0.0
H4196 H 0.97519 0.37618 0.05863 0.0
C4197 C 0.98968 0.31761 0.0786 0.0
C4198 C 0.96859 0.32221 0.07052 0.0
H4199 H 0.02236 0.32949 0.08338 0.0
H4200 H 0.99414 0.30113 0.08345 0.0
C4201 C 0.96339 0.34382 0.06456 0.0
C4202 C 0.50582 0.48949 0.24503 0.0
C4203 C 0.50118 0.46849 0.2533 0.0
H4204 H 0.49404 0.52217 0.23999 0.0
C4205 C 0.47956 0.46341 0.25937 0.0
H4206 H 0.5223 0.49385 0.24007 0.0
C4207 C 0.46345 0.47956 0.25932 0.0
C4208 C 0.46859 0.50114 0.2532 0.0
H4209 H 0.47533 0.44725 0.26538 0.0
H4210 H 0.44726 0.47538 0.26529 0.0
C4211 C 0.48963 0.50571 0.24498 0.0
C4212 C 0.61021 0.72963 0.50898 0.0
C4213 C 0.60501 0.75124 0.50301 0.0
H4214 H 0.59841 0.69727 0.51491 0.0
C4215 C 0.58394 0.75583 0.49489 0.0
H4216 H 0.62644 0.72544 0.51486 0.0
C4217 C 0.56777 0.73958 0.49492 0.0
C4218 C 0.57248 0.71854 0.50305 0.0
H4219 H 0.57948 0.77231 0.49003 0.0
H4220 H 0.55127 0.74395 0.49006 0.0
C4221 C 0.59413 0.71346 0.509 0.0
C4222 C 0.33424 0.81759 0.74492 0.0
C4223 C 0.35529 0.82214 0.75312 0.0
H4224 H 0.30161 0.82953 0.73998 0.0
C4225 C 0.36049 0.84374 0.75916 0.0
H4226 H 0.32978 0.80114 0.73999 0.0
C4227 C 0.34442 0.85993 0.75916 0.0
C4228 C 0.32279 0.85489 0.7531 0.0
H4229 H 0.37669 0.84789 0.76512 0.0
H4230 H 0.3487 0.8761 0.76511 0.0
C4231 C 0.31809 0.83387 0.74491 0.0
C4232 C 0.75545 0.58406 0.49479 0.0
C4233 C 0.75077 0.60509 0.50297 0.0
H4234 H 0.74374 0.55133 0.48991 0.0
C4235 C 0.72915 0.61015 0.50905 0.0
H4236 H 0.77193 0.57971 0.48984 0.0
C4237 C 0.71307 0.59397 0.50909 0.0
C4238 C 0.71826 0.57237 0.50306 0.0
H4239 H 0.72489 0.62633 0.51499 0.0
H4240 H 0.69688 0.59814 0.51506 0.0
C4241 C 0.73929 0.5678 0.49483 0.0
C4242 C 0.31794 0.99005 0.07879 0.0
C4243 C 0.3227 0.969 0.0707 0.0
H4244 H 0.32957 0.02281 0.08361 0.0
C4245 C 0.34436 0.96395 0.06477 0.0
H4246 H 0.30142 0.99439 0.08363 0.0
C4247 C 0.36041 0.98016 0.06477 0.0
C4248 C 0.35516 0.00178 0.07069 0.0
H4249 H 0.34868 0.94776 0.05891 0.0
H4250 H 0.37664 0.976 0.0589 0.0
C4251 C 0.33407 0.00634 0.07878 0.0
C4252 C 0.61049 0.09397 0.31482 0.0
C4253 C 0.60527 0.07235 0.32075 0.0
H4254 H 0.5987 0.12636 0.30899 0.0
C4255 C 0.58421 0.06776 0.32889 0.0
H4256 H 0.6267 0.09815 0.30893 0.0
C4257 C 0.56805 0.08403 0.32892 0.0
C4258 C 0.57277 0.10508 0.32083 0.0
H4259 H 0.57974 0.05128 0.33372 0.0
H4260 H 0.55155 0.07966 0.33379 0.0
C4261 C 0.59442 0.11016 0.31486 0.0
C4262 C 0.22923 0.21337 0.81381 0.0
C4263 C 0.25081 0.21844 0.82 0.0
H4264 H 0.19695 0.22534 0.80776 0.0
C4265 C 0.25541 0.23943 0.82832 0.0
H4266 H 0.22503 0.19722 0.80775 0.0
C4267 C 0.23921 0.25565 0.82833 0.0
C4268 C 0.21821 0.25108 0.82001 0.0
H4269 H 0.27186 0.24379 0.83336 0.0
H4270 H 0.2436 0.27209 0.83337 0.0
C4271 C 0.21311 0.22951 0.81382 0.0
C4272 C 0.00961 0.11004 0.72923 0.0
C4273 C 0.00335 0.105 0.75079 0.0
H4274 H 0.01576 0.09804 0.69698 0.0
C4275 C 0.99495 0.08404 0.75538 0.0
H4276 H 0.01572 0.12618 0.72504 0.0
C4277 C 0.99497 0.0678 0.7392 0.0
C4278 C 0.00339 0.07234 0.71824 0.0
H4279 H 0.98984 0.0797 0.77181 0.0
H4280 H 0.98988 0.05138 0.74358 0.0
C4281 C 0.00964 0.09389 0.71313 0.0
C4282 C 0.00526 0.74485 0.48942 0.0
C4283 C 0.00064 0.7532 0.46844 0.0
H4284 H 0.99349 0.73981 0.5221 0.0
C4285 C 0.97906 0.75943 0.46341 0.0
H4286 H 0.0217 0.73977 0.49375 0.0
C4287 C 0.96297 0.75946 0.47958 0.0
C4288 C 0.9681 0.75324 0.50114 0.0
H4289 H 0.97484 0.76551 0.44727 0.0
H4290 H 0.94681 0.76555 0.47545 0.0
C4291 C 0.98909 0.74487 0.50567 0.0
C4292 C 0.3284 0.75572 0.23939 0.0
C4293 C 0.31992 0.75121 0.21845 0.0
H4294 H 0.33365 0.74379 0.27197 0.0
C4295 C 0.31365 0.72967 0.21334 0.0
H4296 H 0.33352 0.77215 0.24377 0.0
C4297 C 0.31373 0.71349 0.22942 0.0
C4298 C 0.32008 0.71851 0.25096 0.0
H4299 H 0.30748 0.72554 0.19721 0.0
H4300 H 0.30761 0.69736 0.22523 0.0
C4301 C 0.32849 0.73947 0.25555 0.0
C4302 C 0.33426 0.74475 0.818 0.0
C4303 C 0.35531 0.75296 0.82253 0.0
H4304 H 0.30161 0.73989 0.82993 0.0
C4305 C 0.3605 0.7591 0.8441 0.0
H4306 H 0.32981 0.73975 0.80157 0.0
C4307 C 0.34443 0.75918 0.86027 0.0
C4308 C 0.3228 0.75313 0.85524 0.0
H4309 H 0.37671 0.76506 0.84823 0.0
H4310 H 0.34869 0.76521 0.87642 0.0
C4311 C 0.3181 0.74483 0.83427 0.0
C4312 C 0.3137 0.1101 0.59404 0.0
C4313 C 0.31998 0.10506 0.57248 0.0
H4314 H 0.3076 0.0981 0.62629 0.0
C4315 C 0.32841 0.08411 0.56789 0.0
H4316 H 0.30756 0.12622 0.59822 0.0
C4317 C 0.32843 0.06788 0.58409 0.0
C4318 C 0.32002 0.07241 0.60505 0.0
H4319 H 0.33352 0.07977 0.55146 0.0
H4320 H 0.33355 0.05146 0.57971 0.0
C4321 C 0.31372 0.09395 0.61015 0.0
C4322 C 0.00565 0.0783 0.33405 0.0
C4323 C 0.00101 0.06998 0.35503 0.0
H4324 H 0.9939 0.08336 0.30137 0.0
C4325 C 0.97941 0.06381 0.36006 0.0
H4326 H 0.02212 0.08332 0.32971 0.0
C4327 C 0.96332 0.06383 0.3439 0.0
C4328 C 0.96847 0.07003 0.32233 0.0
H4329 H 0.97518 0.05776 0.37621 0.0
H4330 H 0.94715 0.0578 0.34804 0.0
C4331 C 0.98948 0.07833 0.3178 0.0
C4332 C 0.0783 0.50531 0.83395 0.0
C4333 C 0.06979 0.5008 0.85489 0.0
H4334 H 0.08344 0.49344 0.80133 0.0
C4335 C 0.06332 0.47929 0.85991 0.0
H4336 H 0.08356 0.5217 0.82963 0.0
C4337 C 0.06325 0.46318 0.84377 0.0
C4338 C 0.06966 0.46821 0.82224 0.0
H4339 H 0.05711 0.47516 0.87602 0.0
H4340 H 0.05699 0.44708 0.84791 0.0
C4341 C 0.07823 0.48911 0.81773 0.0
C4342 C 0.61029 0.81436 0.59403 0.0
C4343 C 0.60507 0.82043 0.57245 0.0
H4344 H 0.59852 0.80836 0.62639 0.0
C4345 C 0.58402 0.82863 0.56792 0.0
H4346 H 0.6265 0.80841 0.59816 0.0
C4347 C 0.56788 0.8286 0.5842 0.0
C4348 C 0.5726 0.82037 0.6052 0.0
H4349 H 0.57955 0.83357 0.55147 0.0
H4350 H 0.55139 0.83353 0.57988 0.0
C4351 C 0.59424 0.81433 0.61023 0.0
C4352 C 0.2452 0.31801 0.33419 0.0
C4353 C 0.25361 0.32254 0.35515 0.0
H4354 H 0.24011 0.32991 0.30157 0.0
C4355 C 0.25991 0.34408 0.36025 0.0
H4356 H 0.24007 0.30159 0.32981 0.0
C4357 C 0.25993 0.36023 0.34415 0.0
C4358 C 0.25366 0.35519 0.32258 0.0
H4359 H 0.26603 0.34822 0.3764 0.0
H4360 H 0.26607 0.37635 0.34833 0.0
C4361 C 0.24522 0.33424 0.318 0.0
C4362 C 0.73936 0.82853 0.756 0.0
C4363 C 0.71833 0.82026 0.7515 0.0
H4364 H 0.77197 0.83353 0.74403 0.0
C4365 C 0.71314 0.81411 0.72993 0.0
H4366 H 0.74381 0.83353 0.77244 0.0
C4367 C 0.7292 0.8141 0.71373 0.0
C4368 C 0.75081 0.82025 0.71873 0.0
H4369 H 0.69695 0.80809 0.72581 0.0
H4370 H 0.72493 0.80808 0.69758 0.0
C4371 C 0.7555 0.82853 0.73972 0.0
C4372 C 0.24518 0.48942 0.50543 0.0
C4373 C 0.25359 0.46847 0.50085 0.0
H4374 H 0.24011 0.52209 0.49363 0.0
C4375 C 0.25993 0.46344 0.47931 0.0
H4376 H 0.24002 0.49375 0.52185 0.0
C4377 C 0.25998 0.47959 0.46321 0.0
C4378 C 0.25369 0.50114 0.46831 0.0
H4379 H 0.26606 0.4473 0.47513 0.0
H4380 H 0.26614 0.47546 0.44708 0.0
C4381 C 0.24523 0.50566 0.48925 0.0
C4382 C 0.56789 0.99521 0.23952 0.0
C4383 C 0.57257 0.00346 0.21851 0.0
H4384 H 0.57963 0.99018 0.27221 0.0
C4385 C 0.5942 0.00949 0.21345 0.0
H4386 H 0.5514 0.9903 0.24387 0.0
C4387 C 0.6103 0.00942 0.22961 0.0
C4388 C 0.60513 0.00332 0.25119 0.0
H4389 H 0.59846 0.01547 0.19729 0.0
H4390 H 0.6265 0.01536 0.22545 0.0
C4391 C 0.58407 0.99514 0.25576 0.0
C4392 C 0.0844 0.75594 0.9947 0.0
C4393 C 0.10545 0.75139 0.00289 0.0
H4394 H 0.05178 0.74399 0.98973 0.0
C4395 C 0.11069 0.72978 0.00885 0.0
H4396 H 0.07992 0.77241 0.98983 0.0
C4397 C 0.09464 0.71357 0.0088 0.0
C4398 C 0.073 0.71861 0.00277 0.0
H4399 H 0.1269 0.72563 0.01479 0.0
H4400 H 0.09894 0.69739 0.0147 0.0
C4401 C 0.06827 0.73965 0.99464 0.0
C4402 C 0.61047 0.59398 0.81511 0.0
C4403 C 0.60529 0.57234 0.82101 0.0
H4404 H 0.59862 0.62634 0.80928 0.0
C4405 C 0.58423 0.5677 0.82912 0.0
H4406 H 0.62669 0.5982 0.80924 0.0
C4407 C 0.56804 0.58394 0.82915 0.0
C4408 C 0.57272 0.605 0.82106 0.0
H4409 H 0.57979 0.55121 0.83394 0.0
H4410 H 0.55154 0.57953 0.83398 0.0
C4411 C 0.59436 0.61013 0.81514 0.0
C4412 C 0.50552 0.334 0.57874 0.0
C4413 C 0.50086 0.35502 0.57052 0.0
H4414 H 0.49377 0.30129 0.58365 0.0
C4415 C 0.47926 0.36009 0.56441 0.0
H4416 H 0.52199 0.32964 0.58371 0.0
C4417 C 0.46317 0.34392 0.56438 0.0
C4418 C 0.46832 0.32232 0.57045 0.0
H4419 H 0.47502 0.37626 0.55845 0.0
H4420 H 0.44698 0.34809 0.55838 0.0
C4421 C 0.48934 0.31775 0.5787 0.0
C4422 C 0.71341 0.22956 0.31479 0.0
C4423 C 0.71862 0.25116 0.3208 0.0
H4424 H 0.72521 0.1972 0.30884 0.0
C4425 C 0.73968 0.25573 0.32896 0.0
H4426 H 0.6972 0.22539 0.30888 0.0
C4427 C 0.75584 0.23946 0.32893 0.0
C4428 C 0.75113 0.21844 0.32076 0.0
H4429 H 0.74414 0.27219 0.33386 0.0
H4430 H 0.77233 0.24382 0.33382 0.0
C4431 C 0.72949 0.21338 0.31477 0.0
C4432 C 0.3179 0.48948 0.57862 0.0
C4433 C 0.32254 0.46849 0.57033 0.0
H4434 H 0.32967 0.52215 0.58369 0.0
C4435 C 0.34416 0.46341 0.56426 0.0
H4436 H 0.30142 0.49384 0.58357 0.0
C4437 C 0.36027 0.47956 0.56433 0.0
C4438 C 0.35513 0.50114 0.57047 0.0
H4439 H 0.34839 0.44725 0.55824 0.0
H4440 H 0.37646 0.47538 0.55836 0.0
C4441 C 0.33409 0.50571 0.57869 0.0
C4442 C 0.75558 0.08406 0.9947 0.0
C4443 C 0.75087 0.10511 0.00279 0.0
H4444 H 0.74386 0.05132 0.98987 0.0
C4445 C 0.72921 0.11021 0.0087 0.0
H4446 H 0.77208 0.07967 0.98987 0.0
C4447 C 0.71312 0.09405 0.0087 0.0
C4448 C 0.71832 0.07242 0.00277 0.0
H4449 H 0.72494 0.12642 0.01457 0.0
H4450 H 0.6969 0.09825 0.01456 0.0
C4451 C 0.7394 0.06781 0.99469 0.0
C4452 C 0.4792 0.96344 0.75895 0.0
C4453 C 0.50086 0.96847 0.75299 0.0
H4454 H 0.44693 0.97551 0.76484 0.0
C4455 C 0.50561 0.9895 0.74485 0.0
H4456 H 0.47489 0.94727 0.76485 0.0
C4457 C 0.48948 0.00579 0.74484 0.0
C4458 C 0.46841 0.00125 0.75297 0.0
H4459 H 0.52212 0.99383 0.73998 0.0
H4460 H 0.49398 0.02226 0.73997 0.0
C4461 C 0.46316 0.97966 0.75894 0.0
C4462 C 0.86029 0.84406 0.25867 0.0
C4463 C 0.85513 0.82244 0.25269 0.0
H4464 H 0.84841 0.87639 0.26459 0.0
C4465 C 0.83408 0.81781 0.24455 0.0
H4466 H 0.8765 0.84827 0.26458 0.0
C4467 C 0.81788 0.83403 0.24455 0.0
C4468 C 0.82254 0.85507 0.2527 0.0
H4469 H 0.82966 0.80133 0.23967 0.0
H4470 H 0.80139 0.82963 0.23968 0.0
C4471 C 0.84417 0.8602 0.25868 0.0
C4472 C 0.09441 0.81437 0.11011 0.0
C4473 C 0.07279 0.82044 0.10505 0.0
H4474 H 0.1267 0.80846 0.09811 0.0
C4475 C 0.06813 0.82874 0.08406 0.0
H4476 H 0.09865 0.80835 0.12626 0.0
C4477 C 0.08431 0.8288 0.06782 0.0
C4478 C 0.10534 0.82057 0.07237 0.0
H4479 H 0.05165 0.83369 0.07971 0.0
H4480 H 0.07988 0.8338 0.05138 0.0
C4481 C 0.11051 0.81443 0.09395 0.0
C4482 C 0.75971 0.86042 0.34382 0.0
C4483 C 0.75347 0.85527 0.32227 0.0
H4484 H 0.76577 0.84857 0.37614 0.0
C4485 C 0.74504 0.83431 0.31778 0.0
H4486 H 0.76585 0.87656 0.34793 0.0
C4487 C 0.74499 0.81816 0.33405 0.0
C4488 C 0.75337 0.82279 0.35501 0.0
H4489 H 0.73995 0.82989 0.30136 0.0
H4490 H 0.73986 0.80172 0.32974 0.0
C4491 C 0.75966 0.84435 0.36001 0.0
C4492 C 0.71312 0.50931 0.59404 0.0
C4493 C 0.71827 0.50315 0.57247 0.0
H4494 H 0.725 0.51539 0.62634 0.0
C4495 C 0.73929 0.49489 0.5679 0.0
H4496 H 0.69694 0.51531 0.5982 0.0
C4497 C 0.75547 0.49493 0.58414 0.0
C4498 C 0.75083 0.50324 0.60512 0.0
H4499 H 0.7437 0.48988 0.55146 0.0
H4500 H 0.77194 0.48995 0.57978 0.0
C4501 C 0.72923 0.50935 0.61019 0.0
C4502 C 0.06357 0.84399 0.46337 0.0
C4503 C 0.06983 0.82242 0.46841 0.0
H4504 H 0.05748 0.87623 0.47539 0.0
C4505 C 0.07825 0.81782 0.48935 0.0
H4506 H 0.05744 0.84818 0.44725 0.0
C4507 C 0.07828 0.834 0.50559 0.0
C4508 C 0.06988 0.85498 0.50107 0.0
H4509 H 0.08335 0.80138 0.49368 0.0
H4510 H 0.0834 0.82961 0.52201 0.0
C4511 C 0.06359 0.86009 0.47952 0.0
C4512 C 0.74571 0.48936 0.00566 0.0
C4513 C 0.75429 0.46844 0.00119 0.0
H4514 H 0.74042 0.52192 0.99371 0.0
C4515 C 0.76073 0.46338 0.97968 0.0
H4516 H 0.74048 0.49371 0.02205 0.0
C4517 C 0.7607 0.47947 0.96352 0.0
C4518 C 0.75422 0.50099 0.9685 0.0
H4519 H 0.76699 0.44728 0.97558 0.0
H4520 H 0.76694 0.47531 0.94742 0.0
C4521 C 0.74568 0.50553 0.98941 0.0
C4522 C 0.08441 0.49487 0.2557 0.0
C4523 C 0.10545 0.50308 0.25116 0.0
H4524 H 0.05179 0.4899 0.24374 0.0
C4525 C 0.11067 0.50912 0.22957 0.0
H4526 H 0.07994 0.48995 0.27215 0.0
C4527 C 0.09462 0.50909 0.21337 0.0
C4528 C 0.07299 0.50303 0.21839 0.0
H4529 H 0.12687 0.51508 0.22543 0.0
H4530 H 0.0989 0.51503 0.19719 0.0
C4531 C 0.06827 0.49484 0.23941 0.0
C4532 C 0.34436 0.5645 0.46351 0.0
C4533 C 0.32274 0.57057 0.46855 0.0
H4534 H 0.37663 0.55851 0.47554 0.0
C4535 C 0.31805 0.57877 0.48957 0.0
H4536 H 0.34863 0.55855 0.44733 0.0
C4537 C 0.3342 0.57875 0.50584 0.0
C4538 C 0.35523 0.57052 0.50129 0.0
H4539 H 0.30156 0.58372 0.49391 0.0
H4540 H 0.32974 0.58367 0.5223 0.0
C4541 C 0.36043 0.56448 0.4797 0.0
C4542 C 0.50542 0.74492 0.98986 0.0
C4543 C 0.50068 0.75306 0.96883 0.0
H4544 H 0.4938 0.7401 0.02263 0.0
C4545 C 0.47904 0.75907 0.96381 0.0
H4546 H 0.52192 0.74002 0.99419 0.0
C4547 C 0.463 0.75913 0.98003 0.0
C4548 C 0.46825 0.75316 0.00163 0.0
H4549 H 0.47473 0.76497 0.94762 0.0
H4550 H 0.44679 0.76506 0.97589 0.0
C4551 C 0.4893 0.74497 0.00616 0.0
C4552 C 0.8285 0.25536 0.23942 0.0
C4553 C 0.81997 0.25083 0.2185 0.0
H4554 H 0.83372 0.24351 0.27204 0.0
C4555 C 0.81356 0.2293 0.21348 0.0
H4556 H 0.83372 0.27177 0.24373 0.0
C4557 C 0.81356 0.21319 0.22962 0.0
C4558 C 0.81998 0.21824 0.25114 0.0
H4559 H 0.80734 0.22515 0.19737 0.0
H4560 H 0.80734 0.19708 0.22549 0.0
C4561 C 0.8285 0.23917 0.25564 0.0
C4562 C 0.81342 0.09431 0.1101 0.0
C4563 C 0.81983 0.07278 0.10509 0.0
H4564 H 0.80716 0.12651 0.09806 0.0
C4565 C 0.82833 0.06822 0.08417 0.0
H4566 H 0.80723 0.09847 0.12621 0.0
C4567 C 0.82829 0.0844 0.06792 0.0
C4568 C 0.81975 0.10532 0.07242 0.0
H4569 H 0.83354 0.05181 0.07985 0.0
H4570 H 0.83348 0.08004 0.05152 0.0
C4571 C 0.81338 0.1104 0.09394 0.0
C4572 C 0.48954 0.5787 0.31782 0.0
C4573 C 0.4685 0.57051 0.32238 0.0
H4574 H 0.52219 0.58361 0.32974 0.0
C4575 C 0.46329 0.56449 0.34398 0.0
H4576 H 0.494 0.58361 0.30136 0.0
C4577 C 0.47936 0.56449 0.36016 0.0
C4578 C 0.50099 0.57052 0.35511 0.0
H4579 H 0.44709 0.55855 0.34814 0.0
H4580 H 0.47509 0.55855 0.37634 0.0
C4581 C 0.5057 0.5787 0.33409 0.0
C4582 C 0.00976 0.21311 0.59392 0.0
C4583 C 0.0035 0.21815 0.57236 0.0
H4584 H 0.01582 0.22511 0.62618 0.0
C4585 C 0.99505 0.2391 0.56778 0.0
H4586 H 0.01591 0.19699 0.59811 0.0
C4587 C 0.995 0.25532 0.58397 0.0
C4588 C 0.0034 0.25079 0.60494 0.0
H4589 H 0.98994 0.24343 0.55134 0.0
H4590 H 0.98986 0.27173 0.5796 0.0
C4591 C 0.00971 0.22925 0.61004 0.0
C4592 C 0.0055 0.83385 0.57876 0.0
C4593 C 0.00087 0.8549 0.5706 0.0
H4594 H 0.99368 0.80117 0.58366 0.0
C4595 C 0.97925 0.86005 0.56463 0.0
H4596 H 0.02199 0.82943 0.58364 0.0
C4597 C 0.96311 0.84394 0.56464 0.0
C4598 C 0.96823 0.82231 0.57063 0.0
H4599 H 0.97503 0.87625 0.55872 0.0
H4600 H 0.94691 0.84817 0.55874 0.0
C4601 C 0.98928 0.81766 0.57878 0.0
C4602 C 0.61054 0.23001 0.00876 0.0
C4603 C 0.60532 0.25166 0.00291 0.0
H4604 H 0.59876 0.19761 0.0145 0.0
C4605 C 0.58425 0.25627 0.99483 0.0
H4606 H 0.62677 0.22581 0.01461 0.0
C4607 C 0.56809 0.24001 0.99476 0.0
C4608 C 0.57282 0.21893 0.00278 0.0
H4609 H 0.57977 0.27277 0.99005 0.0
H4610 H 0.55158 0.2444 0.98995 0.0
C4611 C 0.59447 0.21383 0.00869 0.0
C4612 C 0.3444 0.36016 0.25942 0.0
C4613 C 0.3228 0.35509 0.25328 0.0
H4614 H 0.37668 0.34818 0.26545 0.0
C4615 C 0.31817 0.33409 0.24501 0.0
H4616 H 0.34862 0.37632 0.26543 0.0
C4617 C 0.33436 0.31785 0.24502 0.0
C4618 C 0.35537 0.32242 0.2533 0.0
H4619 H 0.30171 0.32972 0.24001 0.0
H4620 H 0.32996 0.3014 0.24002 0.0
C4621 C 0.3605 0.34401 0.25943 0.0
C4622 C 0.25575 0.73952 0.32869 0.0
C4623 C 0.25112 0.7185 0.32046 0.0
H4624 H 0.24392 0.77218 0.33371 0.0
C4625 C 0.2295 0.71337 0.31444 0.0
H4626 H 0.27223 0.74392 0.33359 0.0
C4627 C 0.21336 0.72949 0.31451 0.0
C4628 C 0.21847 0.75109 0.3206 0.0
H4629 H 0.22529 0.6972 0.30847 0.0
H4630 H 0.19716 0.72528 0.30859 0.0
C4631 C 0.23952 0.75572 0.32876 0.0
C4632 C 0.00553 0.24471 0.98935 0.0
C4633 C 0.00081 0.25295 0.96835 0.0
H4634 H 0.99387 0.23976 0.02209 0.0
C4635 C 0.97918 0.25905 0.96335 0.0
H4636 H 0.02201 0.23974 0.99366 0.0
C4637 C 0.96314 0.25906 0.97956 0.0
C4638 C 0.96836 0.25298 0.00114 0.0
H4639 H 0.9749 0.26503 0.94719 0.0
H4640 H 0.94694 0.26505 0.97544 0.0
C4641 C 0.9894 0.24472 0.00564 0.0
C4642 C 0.32835 0.25561 0.73915 0.0
C4643 C 0.31995 0.25107 0.71819 0.0
H4644 H 0.33346 0.24372 0.77177 0.0
C4645 C 0.31371 0.22951 0.71308 0.0
H4646 H 0.33343 0.27204 0.74354 0.0
C4647 C 0.31373 0.21336 0.72918 0.0
C4648 C 0.31999 0.21841 0.75074 0.0
H4649 H 0.3076 0.22536 0.69693 0.0
H4650 H 0.30764 0.19722 0.72499 0.0
C4651 C 0.32837 0.23937 0.75534 0.0
C4652 C 0.32847 0.58436 0.0681 0.0
C4653 C 0.31995 0.60528 0.07266 0.0
H4654 H 0.33369 0.55173 0.07992 0.0
C4655 C 0.31357 0.61029 0.0942 0.0
H4656 H 0.33367 0.58005 0.05169 0.0
C4657 C 0.31359 0.59414 0.1103 0.0
C4658 C 0.31999 0.57262 0.10522 0.0
H4659 H 0.30736 0.6264 0.09836 0.0
H4660 H 0.30739 0.59826 0.12642 0.0
C4661 C 0.32849 0.56813 0.08429 0.0
C4662 C 0.00574 0.57864 0.83381 0.0
C4663 C 0.00106 0.57045 0.85483 0.0
H4664 H 0.994 0.5836 0.8011 0.0
C4665 C 0.97943 0.56444 0.85991 0.0
H4666 H 0.02223 0.58355 0.82944 0.0
C4667 C 0.96333 0.56447 0.84374 0.0
C4668 C 0.96851 0.57051 0.82215 0.0
H4669 H 0.97517 0.55849 0.87608 0.0
H4670 H 0.94713 0.55854 0.84792 0.0
C4671 C 0.98956 0.57868 0.81756 0.0
C4672 C 0.61061 0.31451 0.0941 0.0
C4673 C 0.60543 0.32069 0.07254 0.0
H4674 H 0.5988 0.30841 0.12643 0.0
C4675 C 0.58441 0.32896 0.06803 0.0
H4676 H 0.6268 0.3085 0.09823 0.0
C4677 C 0.56825 0.32891 0.0843 0.0
C4678 C 0.57293 0.32059 0.10527 0.0
H4679 H 0.57996 0.33399 0.0516 0.0
H4680 H 0.55178 0.3339 0.07998 0.0
C4681 C 0.59454 0.31446 0.11029 0.0
C4682 C 0.26023 0.84424 0.86028 0.0
C4683 C 0.25387 0.82269 0.85527 0.0
H4684 H 0.26639 0.87646 0.84824 0.0
C4685 C 0.24538 0.81811 0.83435 0.0
H4686 H 0.26641 0.84841 0.87639 0.0
C4687 C 0.24537 0.83429 0.81811 0.0
C4688 C 0.25385 0.85524 0.8226 0.0
H4689 H 0.24021 0.80169 0.83004 0.0
H4690 H 0.2402 0.82992 0.8017 0.0
C4691 C 0.26021 0.86033 0.84412 0.0
C4692 C 0.26038 0.97958 0.96334 0.0
C4693 C 0.25388 0.00109 0.96831 0.0
H4694 H 0.2667 0.9474 0.97544 0.0
C4695 C 0.24531 0.00564 0.98921 0.0
H4696 H 0.26664 0.97542 0.94726 0.0
C4697 C 0.24535 0.98948 0.00546 0.0
C4698 C 0.25395 0.96857 0.00102 0.0
H4699 H 0.24003 0.02204 0.99349 0.0
H4700 H 0.24009 0.99384 0.02185 0.0
C4701 C 0.26042 0.9635 0.97952 0.0
C4702 C 0.58421 0.49502 0.75602 0.0
C4703 C 0.60524 0.50327 0.75146 0.0
H4704 H 0.55157 0.49003 0.74411 0.0
C4705 C 0.6104 0.50937 0.72988 0.0
H4706 H 0.57979 0.49005 0.77247 0.0
C4707 C 0.59432 0.50935 0.7137 0.0
C4708 C 0.57271 0.50324 0.71875 0.0
H4709 H 0.62659 0.51536 0.72572 0.0
H4710 H 0.59856 0.51534 0.69754 0.0
C4711 C 0.56805 0.495 0.73976 0.0
C4712 C 0.11032 0.22947 0.5092 0.0
C4713 C 0.10514 0.25104 0.50306 0.0
H4714 H 0.0985 0.19713 0.51521 0.0
C4715 C 0.08412 0.25557 0.49478 0.0
H4716 H 0.1265 0.22533 0.51522 0.0
C4717 C 0.06797 0.2393 0.49478 0.0
C4718 C 0.07264 0.21831 0.50305 0.0
H4719 H 0.07968 0.27201 0.48979 0.0
H4720 H 0.0515 0.24363 0.48978 0.0
C4721 C 0.09425 0.21328 0.50919 0.0
C4722 C 0.48933 0.818 0.07917 0.0
C4723 C 0.46824 0.82255 0.0711 0.0
H4724 H 0.52197 0.82996 0.08398 0.0
C4725 C 0.46295 0.84416 0.06521 0.0
H4726 H 0.49385 0.80152 0.08398 0.0
C4727 C 0.47898 0.86038 0.06522 0.0
C4728 C 0.50065 0.85534 0.0711 0.0
H4729 H 0.4467 0.84831 0.05937 0.0
H4730 H 0.47465 0.87658 0.05937 0.0
C4731 C 0.50544 0.8343 0.07918 0.0
C4732 C 0.73955 0.75583 0.82902 0.0
C4733 C 0.71847 0.75119 0.82095 0.0
H4734 H 0.77226 0.74402 0.83377 0.0
C4735 C 0.71331 0.72957 0.81499 0.0
H4736 H 0.74398 0.77231 0.83387 0.0
C4737 C 0.72943 0.71343 0.81492 0.0
C4738 C 0.75108 0.71857 0.82082 0.0
H4739 H 0.69708 0.72535 0.80914 0.0
H4740 H 0.72518 0.69724 0.80903 0.0
C4741 C 0.75576 0.73961 0.82895 0.0
C4742 C 0.84432 0.36006 0.75888 0.0
C4743 C 0.82267 0.35505 0.75288 0.0
H4744 H 0.87657 0.34797 0.76481 0.0
C4745 C 0.81791 0.33403 0.74472 0.0
H4746 H 0.84863 0.37623 0.7648 0.0
C4747 C 0.83403 0.31772 0.74472 0.0
C4748 C 0.85509 0.32225 0.75288 0.0
H4749 H 0.80141 0.32971 0.73982 0.0
H4750 H 0.82953 0.30127 0.73983 0.0
C4751 C 0.86035 0.34384 0.75888 0.0
C4752 C 0.56278 0.9795 0.86031 0.0
C4753 C 0.56938 0.00097 0.85529 0.0
H4754 H 0.55645 0.94729 0.84833 0.0
C4755 C 0.57809 0.0054 0.83442 0.0
H4756 H 0.55641 0.97543 0.87637 0.0
C4757 C 0.57812 0.98916 0.81824 0.0
C4758 C 0.56943 0.9683 0.82273 0.0
H4759 H 0.58346 0.02176 0.83011 0.0
H4760 H 0.5835 0.99343 0.80188 0.0
C4761 C 0.5628 0.96334 0.84421 0.0
C4762 C 0.22942 0.00891 0.61017 0.0
C4763 C 0.25103 0.00285 0.60506 0.0
H4764 H 0.19711 0.01485 0.59823 0.0
C4765 C 0.25566 0.9946 0.58405 0.0
H4766 H 0.22521 0.01489 0.62634 0.0
C4767 C 0.23946 0.99458 0.56783 0.0
C4768 C 0.21843 0.0028 0.57244 0.0
H4769 H 0.27214 0.98966 0.57966 0.0
H4770 H 0.24386 0.98962 0.55137 0.0
C4771 C 0.2133 0.00888 0.59404 0.0
C4772 C 0.56372 0.34415 0.46351 0.0
C4773 C 0.57005 0.32261 0.46859 0.0
H4774 H 0.55751 0.3764 0.47548 0.0
C4775 C 0.57849 0.31808 0.48954 0.0
H4776 H 0.55758 0.3483 0.44738 0.0
C4777 C 0.57845 0.33429 0.50575 0.0
C4778 C 0.56998 0.35522 0.50119 0.0
H4779 H 0.58365 0.30166 0.4939 0.0
H4780 H 0.58359 0.32995 0.52217 0.0
C4781 C 0.56368 0.36028 0.47964 0.0
C4782 C 0.25543 0.3287 0.73931 0.0
C4783 C 0.2508 0.32049 0.71828 0.0
H4784 H 0.24362 0.33363 0.77199 0.0
C4785 C 0.2292 0.31444 0.71316 0.0
H4786 H 0.2719 0.33364 0.7437 0.0
C4787 C 0.21307 0.31443 0.72929 0.0
C4788 C 0.21819 0.32048 0.75089 0.0
H4789 H 0.22498 0.30848 0.69697 0.0
H4790 H 0.19689 0.30846 0.72508 0.0
C4791 C 0.23922 0.3287 0.75552 0.0
C4792 C 0.86038 0.06392 0.47951 0.0
C4793 C 0.85526 0.07014 0.50107 0.0
H4794 H 0.84849 0.05781 0.44722 0.0
C4795 C 0.83426 0.07847 0.50561 0.0
H4796 H 0.87655 0.05786 0.47536 0.0
C4797 C 0.81808 0.07845 0.48938 0.0
C4798 C 0.8227 0.07009 0.46841 0.0
H4799 H 0.82986 0.08354 0.52205 0.0
H4800 H 0.80163 0.0835 0.49372 0.0
C4801 C 0.84428 0.0639 0.46336 0.0
C4802 C 0.49529 0.56803 0.73959 0.0
C4803 C 0.50378 0.5726 0.71866 0.0
H4804 H 0.49015 0.57981 0.77225 0.0
C4805 C 0.51018 0.59414 0.71367 0.0
H4806 H 0.49009 0.55161 0.74389 0.0
C4807 C 0.51022 0.61022 0.72985 0.0
C4808 C 0.50385 0.60512 0.75137 0.0
H4809 H 0.51637 0.59832 0.69757 0.0
H4810 H 0.51643 0.62634 0.72574 0.0
C4811 C 0.49533 0.58419 0.75585 0.0
C4812 C 0.84425 0.25909 0.86005 0.0
C4813 C 0.82259 0.25312 0.85502 0.0
H4814 H 0.87653 0.26491 0.84799 0.0
C4815 C 0.81785 0.24492 0.83402 0.0
H4816 H 0.84855 0.26504 0.87622 0.0
C4817 C 0.83399 0.24485 0.81774 0.0
C4818 C 0.85507 0.25297 0.82227 0.0
H4819 H 0.80134 0.24005 0.82969 0.0
H4820 H 0.8295 0.23993 0.80129 0.0
C4821 C 0.8603 0.25901 0.84385 0.0
C4822 C 0.50999 0.71321 0.59421 0.0
C4823 C 0.50362 0.7183 0.57269 0.0
H4824 H 0.51621 0.72514 0.62647 0.0
C4825 C 0.49514 0.73924 0.56819 0.0
H4826 H 0.51617 0.69708 0.59833 0.0
C4827 C 0.49517 0.75543 0.58442 0.0
C4828 C 0.50367 0.75086 0.60534 0.0
H4829 H 0.48996 0.74361 0.55179 0.0
H4830 H 0.49 0.77185 0.5801 0.0
C4831 C 0.51002 0.72931 0.61036 0.0
C4832 C 0.96306 0.47966 0.75878 0.0
C4833 C 0.9683 0.50125 0.75276 0.0
H4834 H 0.97481 0.44728 0.76471 0.0
C4835 C 0.98935 0.50577 0.74455 0.0
H4836 H 0.94685 0.47553 0.76473 0.0
C4837 C 0.00547 0.48947 0.74454 0.0
C4838 C 0.00074 0.46846 0.75273 0.0
H4839 H 0.99384 0.52222 0.73964 0.0
H4840 H 0.02197 0.49379 0.73961 0.0
C4841 C 0.97911 0.46345 0.75877 0.0
C4842 C 0.22947 0.61016 0.00906 0.0
C4843 C 0.25112 0.60513 0.00307 0.0
H4844 H 0.19719 0.59812 0.01489 0.0
C4845 C 0.25585 0.58413 0.99484 0.0
H4846 H 0.22518 0.62632 0.01503 0.0
C4847 C 0.23969 0.56785 0.99477 0.0
C4848 C 0.21863 0.57239 0.00291 0.0
H4849 H 0.27235 0.57979 0.98995 0.0
H4850 H 0.24417 0.5514 0.98983 0.0
C4851 C 0.21341 0.59397 0.00898 0.0
C4852 C 0.84409 0.9633 0.56452 0.0
C4853 C 0.82248 0.96844 0.57057 0.0
H4854 H 0.87641 0.9752 0.55854 0.0
C4855 C 0.81786 0.98948 0.57875 0.0
H4856 H 0.8483 0.94711 0.55859 0.0
C4857 C 0.83408 0.00569 0.57872 0.0
C4858 C 0.85511 0.00105 0.57052 0.0
H4859 H 0.80139 0.99389 0.58368 0.0
H4860 H 0.82968 0.02216 0.58363 0.0
C4861 C 0.86022 0.97943 0.5645 0.0
C4862 C 0.11025 0.09383 0.81388 0.0
C4863 C 0.10514 0.07226 0.82007 0.0
H4864 H 0.09834 0.12612 0.80782 0.0
C4865 C 0.08414 0.06769 0.82837 0.0
H4866 H 0.12642 0.098 0.80784 0.0
C4867 C 0.06794 0.08391 0.82836 0.0
C4868 C 0.07255 0.1049 0.82004 0.0
H4869 H 0.07975 0.05125 0.83341 0.0
H4870 H 0.05148 0.07955 0.83338 0.0
C4871 C 0.09413 0.10997 0.81387 0.0
C4872 C 0.49521 0.06845 0.23937 0.0
C4873 C 0.50374 0.07304 0.21846 0.0
H4874 H 0.49005 0.08021 0.27203 0.0
C4875 C 0.51018 0.09457 0.2135 0.0
H4876 H 0.48997 0.05205 0.24364 0.0
C4877 C 0.51023 0.11063 0.22969 0.0
C4878 C 0.50383 0.10551 0.2512 0.0
H4879 H 0.5164 0.09875 0.1974 0.0
H4880 H 0.51647 0.12674 0.22561 0.0
C4881 C 0.49526 0.0846 0.25564 0.0
C4882 C 0.84409 0.75986 0.35996 0.0
C4883 C 0.82251 0.75361 0.35495 0.0
H4884 H 0.87634 0.7659 0.34794 0.0
C4885 C 0.8179 0.74522 0.33399 0.0
H4886 H 0.8483 0.76598 0.37609 0.0
C4887 C 0.83408 0.74517 0.31774 0.0
C4888 C 0.85507 0.75353 0.32226 0.0
H4889 H 0.80145 0.74013 0.32966 0.0
H4890 H 0.82968 0.74006 0.30132 0.0
C4891 C 0.86019 0.75982 0.3438 0.0
C4892 C 0.56381 0.46336 0.34433 0.0
C4893 C 0.57015 0.46841 0.32279 0.0
H4894 H 0.55758 0.47536 0.37656 0.0
C4895 C 0.57857 0.48937 0.31824 0.0
H4896 H 0.55767 0.44723 0.34849 0.0
C4897 C 0.57852 0.50559 0.33443 0.0
C4898 C 0.57004 0.50106 0.35536 0.0
H4899 H 0.58373 0.49371 0.30182 0.0
H4900 H 0.58364 0.52202 0.33007 0.0
C4901 C 0.56375 0.47951 0.36044 0.0
C4902 C 0.23931 0.82873 0.25595 0.0
C4903 C 0.2183 0.82045 0.25139 0.0
H4904 H 0.27193 0.8338 0.24403 0.0
C4905 C 0.21312 0.81439 0.22979 0.0
H4906 H 0.24374 0.83367 0.27241 0.0
C4907 C 0.22919 0.81447 0.21361 0.0
C4908 C 0.2508 0.8206 0.21866 0.0
H4909 H 0.19694 0.80838 0.22563 0.0
H4910 H 0.22495 0.80851 0.19743 0.0
C4911 C 0.25546 0.82881 0.23968 0.0
C4912 C 0.09425 0.61014 0.31441 0.0
C4913 C 0.07263 0.60502 0.32043 0.0
H4914 H 0.12657 0.59822 0.30849 0.0
C4915 C 0.06799 0.58399 0.32861 0.0
H4916 H 0.09847 0.62632 0.30847 0.0
C4917 C 0.0842 0.56777 0.32863 0.0
C4918 C 0.10524 0.5724 0.32046 0.0
H4919 H 0.05151 0.57959 0.33352 0.0
H4920 H 0.07979 0.5513 0.33355 0.0
C4921 C 0.11037 0.594 0.31442 0.0
C4922 C 0.84477 0.46356 0.06473 0.0
C4923 C 0.82314 0.46862 0.07077 0.0
H4924 H 0.87703 0.47558 0.05873 0.0
C4925 C 0.81844 0.48966 0.07891 0.0
H4926 H 0.84904 0.44737 0.05883 0.0
C4927 C 0.83459 0.50593 0.07885 0.0
C4928 C 0.85563 0.50136 0.07065 0.0
H4929 H 0.80195 0.49402 0.08383 0.0
H4930 H 0.83013 0.52241 0.08373 0.0
C4931 C 0.86083 0.47975 0.06467 0.0
C4932 C 0.25557 0.08387 0.49495 0.0
C4933 C 0.2509 0.10488 0.50318 0.0
H4934 H 0.24386 0.05115 0.48999 0.0
C4935 C 0.22929 0.10991 0.5093 0.0
H4936 H 0.27205 0.07953 0.48996 0.0
C4937 C 0.21321 0.09372 0.50932 0.0
C4938 C 0.21839 0.07214 0.50322 0.0
H4939 H 0.22503 0.12607 0.51529 0.0
H4940 H 0.19703 0.09787 0.51532 0.0
C4941 C 0.23942 0.0676 0.49496 0.0
C4942 C 0.98958 0.00566 0.24473 0.0
C4943 C 0.96851 0.00103 0.25282 0.0
H4944 H 0.02227 0.99384 0.2399 0.0
C4945 C 0.96334 0.9794 0.25876 0.0
H4946 H 0.99401 0.02215 0.23988 0.0
C4947 C 0.97945 0.96326 0.25877 0.0
C4948 C 0.0011 0.96838 0.25284 0.0
H4949 H 0.94712 0.97518 0.26463 0.0
H4950 H 0.9752 0.94705 0.26464 0.0
C4951 C 0.00577 0.98944 0.24473 0.0
C4952 C 0.21339 0.50918 0.09377 0.0
C4953 C 0.21859 0.50309 0.07219 0.0
H4954 H 0.22517 0.51519 0.12612 0.0
C4955 C 0.23963 0.49486 0.06767 0.0
H4956 H 0.19719 0.51516 0.0979 0.0
C4957 C 0.25578 0.49487 0.08395 0.0
C4958 C 0.25107 0.50311 0.10495 0.0
H4959 H 0.2441 0.48989 0.05122 0.0
H4960 H 0.27226 0.48991 0.07962 0.0
C4961 C 0.22945 0.5092 0.10997 0.0
C4962 C 0.57791 0.81839 0.98947 0.0
C4963 C 0.5692 0.82281 0.9686 0.0
H4964 H 0.58328 0.83034 0.02203 0.0
C4965 C 0.56251 0.84427 0.96362 0.0
H4966 H 0.58333 0.80204 0.99376 0.0
C4967 C 0.56248 0.8604 0.97974 0.0
C4968 C 0.56913 0.85545 0.00121 0.0
H4969 H 0.55613 0.84834 0.94756 0.0
H4970 H 0.55607 0.87644 0.97564 0.0
C4971 C 0.57788 0.83461 0.00567 0.0
C4972 C 0.86075 0.5645 0.9796 0.0
C4973 C 0.85558 0.57058 0.00119 0.0
H4974 H 0.8489 0.55849 0.94727 0.0
C4975 C 0.83454 0.5788 0.00576 0.0
H4976 H 0.87694 0.55853 0.97544 0.0
C4977 C 0.81837 0.57878 0.98951 0.0
C4978 C 0.82303 0.57054 0.96851 0.0
H4979 H 0.83011 0.58376 0.02221 0.0
H4980 H 0.80189 0.58373 0.99387 0.0
C4981 C 0.84465 0.56448 0.96344 0.0
C4982 C 0.5105 0.21354 0.09399 0.0
C4983 C 0.50407 0.21866 0.07249 0.0
H4984 H 0.51671 0.22539 0.12628 0.0
C4985 C 0.49552 0.23959 0.06807 0.0
H4986 H 0.51673 0.19742 0.09806 0.0
C4987 C 0.4955 0.25573 0.08435 0.0
C4988 C 0.50404 0.25113 0.10525 0.0
H4989 H 0.49029 0.24398 0.05168 0.0
H4990 H 0.49027 0.27214 0.08009 0.0
C4991 C 0.51048 0.22959 0.11019 0.0
loop_
_geom_bond_atom_site_label_1
_geom_bond_atom_site_label_2
_geom_bond_distance
_geom_bond_site_symmetry_2
_ccdc_geom_bond_type
Sc0 O3 2.025 . S
Sc0 O10 2.105 . S
Sc0 O13 2.105 . S
Sc0 O16 2.105 . S
Sc0 O19 2.105 . S
Sc1 O3 2.025 . S
Sc1 O11 2.105 . S
Sc1 O15 2.105 . S
Sc1 O17 2.105 . S
Sc1 O21 2.105 . S
Sc2 O3 2.025 . S
Sc2 O12 2.105 . S
Sc2 O14 2.105 . S
Sc2 O18 2.105 . S
Sc2 O20 2.105 . S
O3 Sc0 2.025 . S
O3 Sc1 2.025 . S
O3 Sc2 2.025 . S
C4 O10 1.268 . S
C4 O20 1.268 . S
C5 O11 1.268 . S
C5 O19 1.268 . S
C6 O12 1.268 . S
C6 O21 1.268 . S
C7 O13 1.268 . S
C7 O17 1.268 . S
C8 O14 1.268 . S
C8 O16 1.268 . S
C9 O15 1.268 . S
C9 O18 1.268 . S
O10 Sc0 2.105 . S
O10 C4 1.268 . S
O11 Sc1 2.105 . S
O11 C5 1.268 . S
O12 Sc2 2.105 . S
O12 C6 1.268 . S
O13 Sc0 2.105 . S
O13 C7 1.268 . S
O14 Sc2 2.105 . S
O14 C8 1.268 . S
O15 Sc1 2.105 . S
O15 C9 1.268 . S
O16 Sc0 2.105 . S
O16 C8 1.268 . S
O17 Sc1 2.105 . S
O17 C7 1.268 . S
O18 Sc2 2.105 . S
O18 C9 1.268 . S
O19 Sc0 2.105 . S
O19 C5 1.268 . S
O20 Sc2 2.105 . S
O20 C4 1.268 . S
O21 Sc1 2.105 . S
O21 C6 1.268 . S
Sc22 O25 2.025 . S
Sc22 O32 2.105 . S
Sc22 O35 2.105 1_455 S
Sc22 O38 2.105 . S
Sc22 O41 2.105 . S
Sc23 O25 2.025 . S
Sc23 O33 2.105 . S
Sc23 O37 2.105 . S
Sc23 O39 2.105 1_455 S
Sc23 O43 2.105 . S
Sc24 O25 2.025 . S
Sc24 O34 2.105 . S
Sc24 O36 2.105 . S
Sc24 O40 2.105 . S
Sc24 O42 2.105 . S
O25 Sc22 2.025 . S
O25 Sc23 2.025 . S
O25 Sc24 2.025 . S
C26 O32 1.268 . S
C26 O42 1.268 . S
C27 O33 1.268 . S
C27 O41 1.268 . S
C28 O34 1.268 . S
C28 O43 1.268 . S
C29 O35 1.268 . S
C29 O39 1.268 . S
C30 O36 1.268 . S
C30 O38 1.268 . S
C31 O37 1.268 . S
C31 O40 1.268 . S
O32 Sc22 2.105 . S
O32 C26 1.268 . S
O33 Sc23 2.105 . S
O33 C27 1.268 . S
O34 Sc24 2.105 . S
O34 C28 1.268 . S
O35 Sc22 2.105 1_655 S
O35 C29 1.268 . S
O36 Sc24 2.105 . S
O36 C30 1.268 . S
O37 Sc23 2.105 . S
O37 C31 1.268 . S
O38 Sc22 2.105 . S
O38 C30 1.268 . S
O39 Sc23 2.105 1_655 S
O39 C29 1.268 . S
O40 Sc24 2.105 . S
O40 C31 1.268 . S
O41 Sc22 2.105 . S
O41 C27 1.268 . S
O42 Sc24 2.105 . S
O42 C26 1.268 . S
O43 Sc23 2.105 . S
O43 C28 1.268 . S
Sc44 O47 2.025 . S
Sc44 O54 2.105 . S
Sc44 O57 2.105 . S
Sc44 O60 2.105 . S
Sc44 O63 2.105 . S
Sc45 O47 2.025 . S
Sc45 O55 2.105 . S
Sc45 O59 2.105 . S
Sc45 O61 2.105 . S
Sc45 O65 2.105 . S
Sc46 O47 2.025 . S
Sc46 O56 2.105 . S
Sc46 O58 2.105 . S
Sc46 O62 2.105 . S
Sc46 O64 2.105 . S
O47 Sc44 2.025 . S
O47 Sc45 2.025 . S
O47 Sc46 2.025 . S
C48 O54 1.268 . S
C48 O64 1.268 . S
C49 O55 1.268 . S
C49 O63 1.268 . S
C50 O56 1.268 . S
C50 O65 1.268 . S
C51 O57 1.268 . S
C51 O61 1.268 . S
C52 O58 1.268 . S
C52 O60 1.268 . S
C53 O59 1.268 . S
C53 O62 1.268 . S
O54 Sc44 2.105 . S
O54 C48 1.268 . S
O55 Sc45 2.105 . S
O55 C49 1.268 . S
O56 Sc46 2.105 . S
O56 C50 1.268 . S
O57 Sc44 2.105 . S
O57 C51 1.268 . S
O58 Sc46 2.105 . S
O58 C52 1.268 . S
O59 Sc45 2.105 . S
O59 C53 1.268 . S
O60 Sc44 2.105 . S
O60 C52 1.268 . S
O61 Sc45 2.105 . S
O61 C51 1.268 . S
O62 Sc46 2.105 . S
O62 C53 1.268 . S
O63 Sc44 2.105 . S
O63 C49 1.268 . S
O64 Sc46 2.105 . S
O64 C48 1.268 . S
O65 Sc45 2.105 . S
O65 C50 1.268 . S
Sc66 O69 2.025 . S
Sc66 O76 2.105 . S
Sc66 O79 2.105 . S
Sc66 O82 2.105 . S
Sc66 O85 2.105 . S
Sc67 O69 2.025 . S
Sc67 O77 2.105 . S
Sc67 O81 2.105 1_545 S
Sc67 O83 2.105 . S
Sc67 O87 2.105 . S
Sc68 O69 2.025 . S
Sc68 O78 2.105 . S
Sc68 O80 2.105 . S
Sc68 O84 2.105 1_545 S
Sc68 O86 2.105 . S
O69 Sc66 2.025 . S
O69 Sc67 2.025 . S
O69 Sc68 2.025 . S
C70 O76 1.268 . S
C70 O86 1.268 . S
C71 O77 1.268 . S
C71 O85 1.268 . S
C72 O78 1.268 . S
C72 O87 1.268 . S
C73 O79 1.268 . S
C73 O83 1.268 . S
C74 O80 1.268 . S
C74 O82 1.268 . S
C75 O81 1.268 . S
C75 O84 1.268 . S
O76 Sc66 2.105 . S
O76 C70 1.268 . S
O77 Sc67 2.105 . S
O77 C71 1.268 . S
O78 Sc68 2.105 . S
O78 C72 1.268 . S
O79 Sc66 2.105 . S
O79 C73 1.268 . S
O80 Sc68 2.105 . S
O80 C74 1.268 . S
O81 Sc67 2.105 1_565 S
O81 C75 1.268 . S
O82 Sc66 2.105 . S
O82 C74 1.268 . S
O83 Sc67 2.105 . S
O83 C73 1.268 . S
O84 Sc68 2.105 1_565 S
O84 C75 1.268 . S
O85 Sc66 2.105 . S
O85 C71 1.268 . S
O86 Sc68 2.105 . S
O86 C70 1.268 . S
O87 Sc67 2.105 . S
O87 C72 1.268 . S
Sc88 O91 2.025 . S
Sc88 O98 2.105 . S
Sc88 O101 2.105 . S
Sc88 O104 2.105 . S
Sc88 O107 2.105 . S
Sc89 O91 2.025 . S
Sc89 O99 2.105 . S
Sc89 O103 2.105 . S
Sc89 O105 2.105 . S
Sc89 O109 2.105 . S
Sc90 O91 2.025 . S
Sc90 O100 2.105 . S
Sc90 O102 2.105 . S
Sc90 O106 2.105 . S
Sc90 O108 2.105 . S
O91 Sc88 2.025 . S
O91 Sc89 2.025 . S
O91 Sc90 2.025 . S
C92 O98 1.268 . S
C92 O108 1.268 . S
C93 O99 1.268 . S
C93 O107 1.268 . S
C94 O100 1.268 . S
C94 O109 1.268 . S
C95 O101 1.268 . S
C95 O105 1.268 . S
C96 O102 1.268 . S
C96 O104 1.268 . S
C97 O103 1.268 . S
C97 O106 1.268 . S
O98 Sc88 2.105 . S
O98 C92 1.268 . S
O99 Sc89 2.105 . S
O99 C93 1.268 . S
O100 Sc90 2.105 . S
O100 C94 1.268 . S
O101 Sc88 2.105 . S
O101 C95 1.268 . S
O102 Sc90 2.105 . S
O102 C96 1.268 . S
O103 Sc89 2.105 . S
O103 C97 1.268 . S
O104 Sc88 2.105 . S
O104 C96 1.268 . S
O105 Sc89 2.105 . S
O105 C95 1.268 . S
O106 Sc90 2.105 . S
O106 C97 1.268 . S
O107 Sc88 2.105 . S
O107 C93 1.268 . S
O108 Sc90 2.105 . S
O108 C92 1.268 . S
O109 Sc89 2.105 . S
O109 C94 1.268 . S
Sc110 O113 2.025 . S
Sc110 O120 2.105 . S
Sc110 O123 2.105 . S
Sc110 O126 2.105 . S
Sc110 O129 2.105 . S
Sc111 O113 2.025 . S
Sc111 O121 2.105 . S
Sc111 O125 2.105 . S
Sc111 O127 2.105 . S
Sc111 O131 2.105 . S
Sc112 O113 2.025 . S
Sc112 O122 2.105 . S
Sc112 O124 2.105 . S
Sc112 O128 2.105 . S
Sc112 O130 2.105 . S
O113 Sc110 2.025 . S
O113 Sc111 2.025 . S
O113 Sc112 2.025 . S
C114 O120 1.268 . S
C114 O130 1.268 . S
C115 O121 1.268 . S
C115 O129 1.268 . S
C116 O122 1.268 . S
C116 O131 1.268 . S
C117 O123 1.268 . S
C117 O127 1.268 . S
C118 O124 1.268 . S
C118 O126 1.268 . S
C119 O125 1.268 . S
C119 O128 1.268 . S
O120 Sc110 2.105 . S
O120 C114 1.268 . S
O121 Sc111 2.105 . S
O121 C115 1.268 . S
O122 Sc112 2.105 . S
O122 C116 1.268 . S
O123 Sc110 2.105 . S
O123 C117 1.268 . S
O124 Sc112 2.105 . S
O124 C118 1.268 . S
O125 Sc111 2.105 . S
O125 C119 1.268 . S
O126 Sc110 2.105 . S
O126 C118 1.268 . S
O127 Sc111 2.105 . S
O127 C117 1.268 . S
O128 Sc112 2.105 . S
O128 C119 1.268 . S
O129 Sc110 2.105 . S
O129 C115 1.268 . S
O130 Sc112 2.105 . S
O130 C114 1.268 . S
O131 Sc111 2.105 . S
O131 C116 1.268 . S
Sc132 O135 2.025 . S
Sc132 O142 2.105 . S
Sc132 O145 2.105 . S
Sc132 O148 2.105 . S
Sc132 O151 2.105 . S
Sc133 O135 2.025 . S
Sc133 O143 2.105 . S
Sc133 O147 2.105 . S
Sc133 O149 2.105 . S
Sc133 O153 2.105 . S
Sc134 O135 2.025 . S
Sc134 O144 2.105 . S
Sc134 O146 2.105 . S
Sc134 O150 2.105 . S
Sc134 O152 2.105 . S
O135 Sc132 2.025 . S
O135 Sc133 2.025 . S
O135 Sc134 2.025 . S
C136 O142 1.268 . S
C136 O152 1.268 . S
C137 O143 1.268 . S
C137 O151 1.268 . S
C138 O144 1.268 . S
C138 O153 1.268 . S
C139 O145 1.268 . S
C139 O149 1.268 . S
C140 O146 1.268 . S
C140 O148 1.268 . S
C141 O147 1.268 . S
C141 O150 1.268 . S
O142 Sc132 2.105 . S
O142 C136 1.268 . S
O143 Sc133 2.105 . S
O143 C137 1.268 . S
O144 Sc134 2.105 . S
O144 C138 1.268 . S
O145 Sc132 2.105 . S
O145 C139 1.268 . S
O146 Sc134 2.105 . S
O146 C140 1.268 . S
O147 Sc133 2.105 . S
O147 C141 1.268 . S
O148 Sc132 2.105 . S
O148 C140 1.268 . S
O149 Sc133 2.105 . S
O149 C139 1.268 . S
O150 Sc134 2.105 . S
O150 C141 1.268 . S
O151 Sc132 2.105 . S
O151 C137 1.268 . S
O152 Sc134 2.105 . S
O152 C136 1.268 . S
O153 Sc133 2.105 . S
O153 C138 1.268 . S
Sc154 O157 2.025 . S
Sc154 O164 2.105 . S
Sc154 O167 2.105 . S
Sc154 O170 2.105 . S
Sc154 O173 2.105 . S
Sc155 O157 2.025 . S
Sc155 O165 2.105 . S
Sc155 O169 2.105 1_545 S
Sc155 O171 2.105 . S
Sc155 O175 2.105 1_455 S
Sc156 O157 2.025 . S
Sc156 O166 2.105 1_455 S
Sc156 O168 2.105 . S
Sc156 O172 2.105 1_545 S
Sc156 O174 2.105 . S
O157 Sc154 2.025 . S
O157 Sc155 2.025 . S
O157 Sc156 2.025 . S
C158 O164 1.268 . S
C158 O174 1.268 . S
C159 O165 1.268 . S
C159 O173 1.268 . S
C160 O166 1.268 . S
C160 O175 1.268 . S
C161 O167 1.268 . S
C161 O171 1.268 . S
C162 O168 1.268 . S
C162 O170 1.268 . S
C163 O169 1.268 . S
C163 O172 1.268 . S
O164 Sc154 2.105 . S
O164 C158 1.268 . S
O165 Sc155 2.105 . S
O165 C159 1.268 . S
O166 Sc156 2.105 1_655 S
O166 C160 1.268 . S
O167 Sc154 2.105 . S
O167 C161 1.268 . S
O168 Sc156 2.105 . S
O168 C162 1.268 . S
O169 Sc155 2.105 1_565 S
O169 C163 1.268 . S
O170 Sc154 2.105 . S
O170 C162 1.268 . S
O171 Sc155 2.105 . S
O171 C161 1.268 . S
O172 Sc156 2.105 1_565 S
O172 C163 1.268 . S
O173 Sc154 2.105 . S
O173 C159 1.268 . S
O174 Sc156 2.105 . S
O174 C158 1.268 . S
O175 Sc155 2.105 1_655 S
O175 C160 1.268 . S
Sc176 O179 2.025 . S
Sc176 O186 2.105 . S
Sc176 O189 2.105 . S
Sc176 O192 2.105 . S
Sc176 O195 2.105 . S
Sc177 O179 2.025 . S
Sc177 O187 2.105 . S
Sc177 O191 2.105 . S
Sc177 O193 2.105 . S
Sc177 O197 2.105 . S
Sc178 O179 2.025 . S
Sc178 O188 2.105 . S
Sc178 O190 2.105 . S
Sc178 O194 2.105 . S
Sc178 O196 2.105 . S
O179 Sc176 2.025 . S
O179 Sc177 2.025 . S
O179 Sc178 2.025 . S
C180 O186 1.268 . S
C180 O196 1.268 . S
C181 O187 1.268 . S
C181 O195 1.268 . S
C182 O188 1.268 . S
C182 O197 1.268 . S
C183 O189 1.268 . S
C183 O193 1.268 . S
C184 O190 1.268 . S
C184 O192 1.268 . S
C185 O191 1.268 . S
C185 O194 1.268 . S
O186 Sc176 2.105 . S
O186 C180 1.268 . S
O187 Sc177 2.105 . S
O187 C181 1.268 . S
O188 Sc178 2.105 . S
O188 C182 1.268 . S
O189 Sc176 2.105 . S
O189 C183 1.268 . S
O190 Sc178 2.105 . S
O190 C184 1.268 . S
O191 Sc177 2.105 . S
O191 C185 1.268 . S
O192 Sc176 2.105 . S
O192 C184 1.268 . S
O193 Sc177 2.105 . S
O193 C183 1.268 . S
O194 Sc178 2.105 . S
O194 C185 1.268 . S
O195 Sc176 2.105 . S
O195 C181 1.268 . S
O196 Sc178 2.105 . S
O196 C180 1.268 . S
O197 Sc177 2.105 . S
O197 C182 1.268 . S
Sc198 O201 2.025 . S
Sc198 O208 2.105 . S
Sc198 O211 2.105 . S
Sc198 O214 2.105 . S
Sc198 O217 2.105 . S
Sc199 O201 2.025 . S
Sc199 O209 2.105 . S
Sc199 O213 2.105 1_455 S
Sc199 O215 2.105 . S
Sc199 O219 2.105 . S
Sc200 O201 2.025 . S
Sc200 O210 2.105 . S
Sc200 O212 2.105 . S
Sc200 O216 2.105 1_455 S
Sc200 O218 2.105 . S
O201 Sc198 2.025 . S
O201 Sc199 2.025 . S
O201 Sc200 2.025 . S
C202 O208 1.268 . S
C202 O218 1.268 . S
C203 O209 1.268 . S
C203 O217 1.268 . S
C204 O210 1.268 . S
C204 O219 1.268 . S
C205 O211 1.268 . S
C205 O215 1.268 . S
C206 O212 1.268 . S
C206 O214 1.268 . S
C207 O213 1.268 . S
C207 O216 1.268 . S
O208 Sc198 2.105 . S
O208 C202 1.268 . S
O209 Sc199 2.105 . S
O209 C203 1.268 . S
O210 Sc200 2.105 . S
O210 C204 1.268 . S
O211 Sc198 2.105 . S
O211 C205 1.268 . S
O212 Sc200 2.105 . S
O212 C206 1.268 . S
O213 Sc199 2.105 1_655 S
O213 C207 1.268 . S
O214 Sc198 2.105 . S
O214 C206 1.268 . S
O215 Sc199 2.105 . S
O215 C205 1.268 . S
O216 Sc200 2.105 1_655 S
O216 C207 1.268 . S
O217 Sc198 2.105 . S
O217 C203 1.268 . S
O218 Sc200 2.105 . S
O218 C202 1.268 . S
O219 Sc199 2.105 . S
O219 C204 1.268 . S
Sc220 O223 2.025 . S
Sc220 O230 2.105 . S
Sc220 O233 2.105 . S
Sc220 O236 2.105 . S
Sc220 O239 2.105 . S
Sc221 O223 2.025 . S
Sc221 O231 2.105 . S
Sc221 O235 2.105 . S
Sc221 O237 2.105 . S
Sc221 O241 2.105 . S
Sc222 O223 2.025 . S
Sc222 O232 2.105 . S
Sc222 O234 2.105 . S
Sc222 O238 2.105 . S
Sc222 O240 2.105 . S
O223 Sc220 2.025 . S
O223 Sc221 2.025 . S
O223 Sc222 2.025 . S
C224 O230 1.268 . S
C224 O240 1.268 . S
C225 O231 1.268 . S
C225 O239 1.268 . S
C226 O232 1.268 . S
C226 O241 1.268 . S
C227 O233 1.268 . S
C227 O237 1.268 . S
C228 O234 1.268 . S
C228 O236 1.268 . S
C229 O235 1.268 . S
C229 O238 1.268 . S
O230 Sc220 2.105 . S
O230 C224 1.268 . S
O231 Sc221 2.105 . S
O231 C225 1.268 . S
O232 Sc222 2.105 . S
O232 C226 1.268 . S
O233 Sc220 2.105 . S
O233 C227 1.268 . S
O234 Sc222 2.105 . S
O234 C228 1.268 . S
O235 Sc221 2.105 . S
O235 C229 1.268 . S
O236 Sc220 2.105 . S
O236 C228 1.268 . S
O237 Sc221 2.105 . S
O237 C227 1.268 . S
O238 Sc222 2.105 . S
O238 C229 1.268 . S
O239 Sc220 2.105 . S
O239 C225 1.268 . S
O240 Sc222 2.105 . S
O240 C224 1.268 . S
O241 Sc221 2.105 . S
O241 C226 1.268 . S
Sc242 O245 2.025 . S
Sc242 O252 2.105 . S
Sc242 O255 2.105 . S
Sc242 O258 2.105 . S
Sc242 O261 2.105 . S
Sc243 O245 2.025 . S
Sc243 O253 2.105 . S
Sc243 O257 2.105 . S
Sc243 O259 2.105 . S
Sc243 O263 2.105 . S
Sc244 O245 2.025 . S
Sc244 O254 2.105 . S
Sc244 O256 2.105 . S
Sc244 O260 2.105 . S
Sc244 O262 2.105 . S
O245 Sc242 2.025 . S
O245 Sc243 2.025 . S
O245 Sc244 2.025 . S
C246 O252 1.268 . S
C246 O262 1.268 . S
C247 O253 1.268 . S
C247 O261 1.268 . S
C248 O254 1.268 . S
C248 O263 1.268 . S
C249 O255 1.268 . S
C249 O259 1.268 . S
C250 O256 1.268 . S
C250 O258 1.268 . S
C251 O257 1.268 . S
C251 O260 1.268 . S
O252 Sc242 2.105 . S
O252 C246 1.268 . S
O253 Sc243 2.105 . S
O253 C247 1.268 . S
O254 Sc244 2.105 . S
O254 C248 1.268 . S
O255 Sc242 2.105 . S
O255 C249 1.268 . S
O256 Sc244 2.105 . S
O256 C250 1.268 . S
O257 Sc243 2.105 . S
O257 C251 1.268 . S
O258 Sc242 2.105 . S
O258 C250 1.268 . S
O259 Sc243 2.105 . S
O259 C249 1.268 . S
O260 Sc244 2.105 . S
O260 C251 1.268 . S
O261 Sc242 2.105 . S
O261 C247 1.268 . S
O262 Sc244 2.105 . S
O262 C246 1.268 . S
O263 Sc243 2.105 . S
O263 C248 1.268 . S
Sc264 O267 2.025 . S
Sc264 O274 2.105 . S
Sc264 O277 2.105 . S
Sc264 O280 2.105 . S
Sc264 O283 2.105 . S
Sc265 O267 2.025 . S
Sc265 O275 2.105 . S
Sc265 O279 2.105 . S
Sc265 O281 2.105 . S
Sc265 O285 2.105 . S
Sc266 O267 2.025 . S
Sc266 O276 2.105 . S
Sc266 O278 2.105 . S
Sc266 O282 2.105 . S
Sc266 O284 2.105 . S
O267 Sc264 2.025 . S
O267 Sc265 2.025 . S
O267 Sc266 2.025 . S
C268 O274 1.268 . S
C268 O284 1.268 . S
C269 O275 1.268 . S
C269 O283 1.268 . S
C270 O276 1.268 . S
C270 O285 1.268 . S
C271 O277 1.268 . S
C271 O281 1.268 . S
C272 O278 1.268 . S
C272 O280 1.268 . S
C273 O279 1.268 . S
C273 O282 1.268 . S
O274 Sc264 2.105 . S
O274 C268 1.268 . S
O275 Sc265 2.105 . S
O275 C269 1.268 . S
O276 Sc266 2.105 . S
O276 C270 1.268 . S
O277 Sc264 2.105 . S
O277 C271 1.268 . S
O278 Sc266 2.105 . S
O278 C272 1.268 . S
O279 Sc265 2.105 . S
O279 C273 1.268 . S
O280 Sc264 2.105 . S
O280 C272 1.268 . S
O281 Sc265 2.105 . S
O281 C271 1.268 . S
O282 Sc266 2.105 . S
O282 C273 1.268 . S
O283 Sc264 2.105 . S
O283 C269 1.268 . S
O284 Sc266 2.105 . S
O284 C268 1.268 . S
O285 Sc265 2.105 . S
O285 C270 1.268 . S
Sc286 O289 2.025 . S
Sc286 O296 2.105 . S
Sc286 O299 2.105 . S
Sc286 O302 2.105 . S
Sc286 O305 2.105 . S
Sc287 O289 2.025 . S
Sc287 O297 2.105 . S
Sc287 O301 2.105 . S
Sc287 O303 2.105 . S
Sc287 O307 2.105 . S
Sc288 O289 2.025 . S
Sc288 O298 2.105 . S
Sc288 O300 2.105 . S
Sc288 O304 2.105 . S
Sc288 O306 2.105 . S
O289 Sc286 2.025 . S
O289 Sc287 2.025 . S
O289 Sc288 2.025 . S
C290 O296 1.268 . S
C290 O306 1.268 . S
C291 O297 1.268 . S
C291 O305 1.268 . S
C292 O298 1.268 . S
C292 O307 1.268 . S
C293 O299 1.268 . S
C293 O303 1.268 . S
C294 O300 1.268 . S
C294 O302 1.268 . S
C295 O301 1.268 . S
C295 O304 1.268 . S
O296 Sc286 2.105 . S
O296 C290 1.268 . S
O297 Sc287 2.105 . S
O297 C291 1.268 . S
O298 Sc288 2.105 . S
O298 C292 1.268 . S
O299 Sc286 2.105 . S
O299 C293 1.268 . S
O300 Sc288 2.105 . S
O300 C294 1.268 . S
O301 Sc287 2.105 . S
O301 C295 1.268 . S
O302 Sc286 2.105 . S
O302 C294 1.268 . S
O303 Sc287 2.105 . S
O303 C293 1.268 . S
O304 Sc288 2.105 . S
O304 C295 1.268 . S
O305 Sc286 2.105 . S
O305 C291 1.268 . S
O306 Sc288 2.105 . S
O306 C290 1.268 . S
O307 Sc287 2.105 . S
O307 C292 1.268 . S
Sc308 O311 2.025 . S
Sc308 O318 2.105 . S
Sc308 O321 2.105 . S
Sc308 O324 2.105 . S
Sc308 O327 2.105 . S
Sc309 O311 2.025 . S
Sc309 O319 2.105 . S
Sc309 O323 2.105 . S
Sc309 O325 2.105 . S
Sc309 O329 2.105 . S
Sc310 O311 2.025 . S
Sc310 O320 2.105 . S
Sc310 O322 2.105 . S
Sc310 O326 2.105 . S
Sc310 O328 2.105 . S
O311 Sc308 2.025 . S
O311 Sc309 2.025 . S
O311 Sc310 2.025 . S
C312 O318 1.268 . S
C312 O328 1.268 . S
C313 O319 1.268 . S
C313 O327 1.268 . S
C314 O320 1.268 . S
C314 O329 1.268 . S
C315 O321 1.268 . S
C315 O325 1.268 . S
C316 O322 1.268 . S
C316 O324 1.268 . S
C317 O323 1.268 . S
C317 O326 1.268 . S
O318 Sc308 2.105 . S
O318 C312 1.268 . S
O319 Sc309 2.105 . S
O319 C313 1.268 . S
O320 Sc310 2.105 . S
O320 C314 1.268 . S
O321 Sc308 2.105 . S
O321 C315 1.268 . S
O322 Sc310 2.105 . S
O322 C316 1.268 . S
O323 Sc309 2.105 . S
O323 C317 1.268 . S
O324 Sc308 2.105 . S
O324 C316 1.268 . S
O325 Sc309 2.105 . S
O325 C315 1.268 . S
O326 Sc310 2.105 . S
O326 C317 1.268 . S
O327 Sc308 2.105 . S
O327 C313 1.268 . S
O328 Sc310 2.105 . S
O328 C312 1.268 . S
O329 Sc309 2.105 . S
O329 C314 1.268 . S
Sc330 O333 2.025 . S
Sc330 O340 2.105 . S
Sc330 O343 2.105 . S
Sc330 O346 2.105 . S
Sc330 O349 2.105 . S
Sc331 O333 2.025 . S
Sc331 O341 2.105 . S
Sc331 O345 2.105 1_455 S
Sc331 O347 2.105 . S
Sc331 O351 2.105 1_554 S
Sc332 O333 2.025 . S
Sc332 O342 2.105 1_554 S
Sc332 O344 2.105 . S
Sc332 O348 2.105 1_455 S
Sc332 O350 2.105 . S
O333 Sc330 2.025 . S
O333 Sc331 2.025 . S
O333 Sc332 2.025 . S
C334 O340 1.268 . S
C334 O350 1.268 . S
C335 O341 1.268 . S
C335 O349 1.268 . S
C336 O342 1.268 . S
C336 O351 1.268 . S
C337 O343 1.268 . S
C337 O347 1.268 . S
C338 O344 1.268 . S
C338 O346 1.268 . S
C339 O345 1.268 . S
C339 O348 1.268 . S
O340 Sc330 2.105 . S
O340 C334 1.268 . S
O341 Sc331 2.105 . S
O341 C335 1.268 . S
O342 Sc332 2.105 1_556 S
O342 C336 1.268 . S
O343 Sc330 2.105 . S
O343 C337 1.268 . S
O344 Sc332 2.105 . S
O344 C338 1.268 . S
O345 Sc331 2.105 1_655 S
O345 C339 1.268 . S
O346 Sc330 2.105 . S
O346 C338 1.268 . S
O347 Sc331 2.105 . S
O347 C337 1.268 . S
O348 Sc332 2.105 1_655 S
O348 C339 1.268 . S
O349 Sc330 2.105 . S
O349 C335 1.268 . S
O350 Sc332 2.105 . S
O350 C334 1.268 . S
O351 Sc331 2.105 1_556 S
O351 C336 1.268 . S
Sc352 O355 2.025 . S
Sc352 O362 2.105 . S
Sc352 O365 2.105 . S
Sc352 O368 2.105 . S
Sc352 O371 2.105 . S
Sc353 O355 2.025 . S
Sc353 O363 2.105 . S
Sc353 O367 2.105 . S
Sc353 O369 2.105 . S
Sc353 O373 2.105 . S
Sc354 O355 2.025 . S
Sc354 O364 2.105 . S
Sc354 O366 2.105 . S
Sc354 O370 2.105 . S
Sc354 O372 2.105 . S
O355 Sc352 2.025 . S
O355 Sc353 2.025 . S
O355 Sc354 2.025 . S
C356 O362 1.268 . S
C356 O372 1.268 . S
C357 O363 1.268 . S
C357 O371 1.268 . S
C358 O364 1.268 . S
C358 O373 1.268 . S
C359 O365 1.268 . S
C359 O369 1.268 . S
C360 O366 1.268 . S
C360 O368 1.268 . S
C361 O367 1.268 . S
C361 O370 1.268 . S
O362 Sc352 2.105 . S
O362 C356 1.268 . S
O363 Sc353 2.105 . S
O363 C357 1.268 . S
O364 Sc354 2.105 . S
O364 C358 1.268 . S
O365 Sc352 2.105 . S
O365 C359 1.268 . S
O366 Sc354 2.105 . S
O366 C360 1.268 . S
O367 Sc353 2.105 . S
O367 C361 1.268 . S
O368 Sc352 2.105 . S
O368 C360 1.268 . S
O369 Sc353 2.105 . S
O369 C359 1.268 . S
O370 Sc354 2.105 . S
O370 C361 1.268 . S
O371 Sc352 2.105 . S
O371 C357 1.268 . S
O372 Sc354 2.105 . S
O372 C356 1.268 . S
O373 Sc353 2.105 . S
O373 C358 1.268 . S
Sc374 O377 2.025 . S
Sc374 O384 2.105 . S
Sc374 O387 2.105 . S
Sc374 O390 2.105 . S
Sc374 O393 2.105 . S
Sc375 O377 2.025 . S
Sc375 O385 2.105 . S
Sc375 O389 2.105 . S
Sc375 O391 2.105 . S
Sc375 O395 2.105 . S
Sc376 O377 2.025 . S
Sc376 O386 2.105 . S
Sc376 O388 2.105 . S
Sc376 O392 2.105 . S
Sc376 O394 2.105 . S
O377 Sc374 2.025 . S
O377 Sc375 2.025 . S
O377 Sc376 2.025 . S
C378 O384 1.268 . S
C378 O394 1.268 . S
C379 O385 1.268 . S
C379 O393 1.268 . S
C380 O386 1.268 . S
C380 O395 1.268 . S
C381 O387 1.268 . S
C381 O391 1.268 . S
C382 O388 1.268 . S
C382 O390 1.268 . S
C383 O389 1.268 . S
C383 O392 1.268 . S
O384 Sc374 2.105 . S
O384 C378 1.268 . S
O385 Sc375 2.105 . S
O385 C379 1.268 . S
O386 Sc376 2.105 . S
O386 C380 1.268 . S
O387 Sc374 2.105 . S
O387 C381 1.268 . S
O388 Sc376 2.105 . S
O388 C382 1.268 . S
O389 Sc375 2.105 . S
O389 C383 1.268 . S
O390 Sc374 2.105 . S
O390 C382 1.268 . S
O391 Sc375 2.105 . S
O391 C381 1.268 . S
O392 Sc376 2.105 . S
O392 C383 1.268 . S
O393 Sc374 2.105 . S
O393 C379 1.268 . S
O394 Sc376 2.105 . S
O394 C378 1.268 . S
O395 Sc375 2.105 . S
O395 C380 1.268 . S
Sc396 O399 2.025 . S
Sc396 O406 2.105 . S
Sc396 O409 2.105 . S
Sc396 O412 2.105 . S
Sc396 O415 2.105 . S
Sc397 O399 2.025 . S
Sc397 O407 2.105 . S
Sc397 O411 2.105 . S
Sc397 O413 2.105 . S
Sc397 O417 2.105 . S
Sc398 O399 2.025 . S
Sc398 O408 2.105 . S
Sc398 O410 2.105 . S
Sc398 O414 2.105 . S
Sc398 O416 2.105 . S
O399 Sc396 2.025 . S
O399 Sc397 2.025 . S
O399 Sc398 2.025 . S
C400 O406 1.268 . S
C400 O416 1.268 . S
C401 O407 1.268 . S
C401 O415 1.268 . S
C402 O408 1.268 . S
C402 O417 1.268 . S
C403 O409 1.268 . S
C403 O413 1.268 . S
C404 O410 1.268 . S
C404 O412 1.268 . S
C405 O411 1.268 . S
C405 O414 1.268 . S
O406 Sc396 2.105 . S
O406 C400 1.268 . S
O407 Sc397 2.105 . S
O407 C401 1.268 . S
O408 Sc398 2.105 . S
O408 C402 1.268 . S
O409 Sc396 2.105 . S
O409 C403 1.268 . S
O410 Sc398 2.105 . S
O410 C404 1.268 . S
O411 Sc397 2.105 . S
O411 C405 1.268 . S
O412 Sc396 2.105 . S
O412 C404 1.268 . S
O413 Sc397 2.105 . S
O413 C403 1.268 . S
O414 Sc398 2.105 . S
O414 C405 1.268 . S
O415 Sc396 2.105 . S
O415 C401 1.268 . S
O416 Sc398 2.105 . S
O416 C400 1.268 . S
O417 Sc397 2.105 . S
O417 C402 1.268 . S
Sc418 O421 2.025 . S
Sc418 O428 2.105 . S
Sc418 O431 2.105 . S
Sc418 O434 2.105 . S
Sc418 O437 2.105 . S
Sc419 O421 2.025 . S
Sc419 O429 2.105 . S
Sc419 O433 2.105 . S
Sc419 O435 2.105 . S
Sc419 O439 2.105 . S
Sc420 O421 2.025 . S
Sc420 O430 2.105 . S
Sc420 O432 2.105 . S
Sc420 O436 2.105 . S
Sc420 O438 2.105 . S
O421 Sc418 2.025 . S
O421 Sc419 2.025 . S
O421 Sc420 2.025 . S
C422 O428 1.268 . S
C422 O438 1.268 . S
C423 O429 1.268 . S
C423 O437 1.268 . S
C424 O430 1.268 . S
C424 O439 1.268 . S
C425 O431 1.268 . S
C425 O435 1.268 . S
C426 O432 1.268 . S
C426 O434 1.268 . S
C427 O433 1.268 . S
C427 O436 1.268 . S
O428 Sc418 2.105 . S
O428 C422 1.268 . S
O429 Sc419 2.105 . S
O429 C423 1.268 . S
O430 Sc420 2.105 . S
O430 C424 1.268 . S
O431 Sc418 2.105 . S
O431 C425 1.268 . S
O432 Sc420 2.105 . S
O432 C426 1.268 . S
O433 Sc419 2.105 . S
O433 C427 1.268 . S
O434 Sc418 2.105 . S
O434 C426 1.268 . S
O435 Sc419 2.105 . S
O435 C425 1.268 . S
O436 Sc420 2.105 . S
O436 C427 1.268 . S
O437 Sc418 2.105 . S
O437 C423 1.268 . S
O438 Sc420 2.105 . S
O438 C422 1.268 . S
O439 Sc419 2.105 . S
O439 C424 1.268 . S
Sc440 O443 2.025 . S
Sc440 O450 2.105 . S
Sc440 O453 2.105 . S
Sc440 O456 2.105 . S
Sc440 O459 2.105 . S
Sc441 O443 2.025 . S
Sc441 O451 2.105 . S
Sc441 O455 2.105 . S
Sc441 O457 2.105 . S
Sc441 O461 2.105 . S
Sc442 O443 2.025 . S
Sc442 O452 2.105 . S
Sc442 O454 2.105 . S
Sc442 O458 2.105 . S
Sc442 O460 2.105 . S
O443 Sc440 2.025 . S
O443 Sc441 2.025 . S
O443 Sc442 2.025 . S
C444 O450 1.268 . S
C444 O460 1.268 . S
C445 O451 1.268 . S
C445 O459 1.268 . S
C446 O452 1.268 . S
C446 O461 1.268 . S
C447 O453 1.268 . S
C447 O457 1.268 . S
C448 O454 1.268 . S
C448 O456 1.268 . S
C449 O455 1.268 . S
C449 O458 1.268 . S
O450 Sc440 2.105 . S
O450 C444 1.268 . S
O451 Sc441 2.105 . S
O451 C445 1.268 . S
O452 Sc442 2.105 . S
O452 C446 1.268 . S
O453 Sc440 2.105 . S
O453 C447 1.268 . S
O454 Sc442 2.105 . S
O454 C448 1.268 . S
O455 Sc441 2.105 . S
O455 C449 1.268 . S
O456 Sc440 2.105 . S
O456 C448 1.268 . S
O457 Sc441 2.105 . S
O457 C447 1.268 . S
O458 Sc442 2.105 . S
O458 C449 1.268 . S
O459 Sc440 2.105 . S
O459 C445 1.268 . S
O460 Sc442 2.105 . S
O460 C444 1.268 . S
O461 Sc441 2.105 . S
O461 C446 1.268 . S
Sc462 O465 2.025 . S
Sc462 O472 2.105 . S
Sc462 O475 2.105 . S
Sc462 O478 2.105 . S
Sc462 O481 2.105 . S
Sc463 O465 2.025 . S
Sc463 O473 2.105 . S
Sc463 O477 2.105 . S
Sc463 O479 2.105 . S
Sc463 O483 2.105 . S
Sc464 O465 2.025 . S
Sc464 O474 2.105 . S
Sc464 O476 2.105 . S
Sc464 O480 2.105 . S
Sc464 O482 2.105 . S
O465 Sc462 2.025 . S
O465 Sc463 2.025 . S
O465 Sc464 2.025 . S
C466 O472 1.268 . S
C466 O482 1.268 . S
C467 O473 1.268 . S
C467 O481 1.268 . S
C468 O474 1.268 . S
C468 O483 1.268 . S
C469 O475 1.268 . S
C469 O479 1.268 . S
C470 O476 1.268 . S
C470 O478 1.268 . S
C471 O477 1.268 . S
C471 O480 1.268 . S
O472 Sc462 2.105 . S
O472 C466 1.268 . S
O473 Sc463 2.105 . S
O473 C467 1.268 . S
O474 Sc464 2.105 . S
O474 C468 1.268 . S
O475 Sc462 2.105 . S
O475 C469 1.268 . S
O476 Sc464 2.105 . S
O476 C470 1.268 . S
O477 Sc463 2.105 . S
O477 C471 1.268 . S
O478 Sc462 2.105 . S
O478 C470 1.268 . S
O479 Sc463 2.105 . S
O479 C469 1.268 . S
O480 Sc464 2.105 . S
O480 C471 1.268 . S
O481 Sc462 2.105 . S
O481 C467 1.268 . S
O482 Sc464 2.105 . S
O482 C466 1.268 . S
O483 Sc463 2.105 . S
O483 C468 1.268 . S
Sc484 O487 2.025 . S
Sc484 O494 2.105 . S
Sc484 O497 2.105 . S
Sc484 O500 2.105 . S
Sc484 O503 2.105 . S
Sc485 O487 2.025 . S
Sc485 O495 2.105 . S
Sc485 O499 2.105 . S
Sc485 O501 2.105 . S
Sc485 O505 2.105 1_545 S
Sc486 O487 2.025 . S
Sc486 O496 2.105 1_545 S
Sc486 O498 2.105 . S
Sc486 O502 2.105 . S
Sc486 O504 2.105 . S
O487 Sc484 2.025 . S
O487 Sc485 2.025 . S
O487 Sc486 2.025 . S
C488 O494 1.268 . S
C488 O504 1.268 . S
C489 O495 1.268 . S
C489 O503 1.268 . S
C490 O496 1.268 . S
C490 O505 1.268 . S
C491 O497 1.268 . S
C491 O501 1.268 . S
C492 O498 1.268 . S
C492 O500 1.268 . S
C493 O499 1.268 . S
C493 O502 1.268 . S
O494 Sc484 2.105 . S
O494 C488 1.268 . S
O495 Sc485 2.105 . S
O495 C489 1.268 . S
O496 Sc486 2.105 1_565 S
O496 C490 1.268 . S
O497 Sc484 2.105 . S
O497 C491 1.268 . S
O498 Sc486 2.105 . S
O498 C492 1.268 . S
O499 Sc485 2.105 . S
O499 C493 1.268 . S
O500 Sc484 2.105 . S
O500 C492 1.268 . S
O501 Sc485 2.105 . S
O501 C491 1.268 . S
O502 Sc486 2.105 . S
O502 C493 1.268 . S
O503 Sc484 2.105 . S
O503 C489 1.268 . S
O504 Sc486 2.105 . S
O504 C488 1.268 . S
O505 Sc485 2.105 1_565 S
O505 C490 1.268 . S
Sc506 O509 2.025 . S
Sc506 O516 2.105 . S
Sc506 O519 2.105 . S
Sc506 O522 2.105 . S
Sc506 O525 2.105 . S
Sc507 O509 2.025 . S
Sc507 O517 2.105 . S
Sc507 O521 2.105 . S
Sc507 O523 2.105 . S
Sc507 O527 2.105 . S
Sc508 O509 2.025 . S
Sc508 O518 2.105 . S
Sc508 O520 2.105 . S
Sc508 O524 2.105 . S
Sc508 O526 2.105 . S
O509 Sc506 2.025 . S
O509 Sc507 2.025 . S
O509 Sc508 2.025 . S
C510 O516 1.268 . S
C510 O526 1.268 . S
C511 O517 1.268 . S
C511 O525 1.268 . S
C512 O518 1.268 . S
C512 O527 1.268 . S
C513 O519 1.268 . S
C513 O523 1.268 . S
C514 O520 1.268 . S
C514 O522 1.268 . S
C515 O521 1.268 . S
C515 O524 1.268 . S
O516 Sc506 2.105 . S
O516 C510 1.268 . S
O517 Sc507 2.105 . S
O517 C511 1.268 . S
O518 Sc508 2.105 . S
O518 C512 1.268 . S
O519 Sc506 2.105 . S
O519 C513 1.268 . S
O520 Sc508 2.105 . S
O520 C514 1.268 . S
O521 Sc507 2.105 . S
O521 C515 1.268 . S
O522 Sc506 2.105 . S
O522 C514 1.268 . S
O523 Sc507 2.105 . S
O523 C513 1.268 . S
O524 Sc508 2.105 . S
O524 C515 1.268 . S
O525 Sc506 2.105 . S
O525 C511 1.268 . S
O526 Sc508 2.105 . S
O526 C510 1.268 . S
O527 Sc507 2.105 . S
O527 C512 1.268 . S
Sc528 O531 2.025 . S
Sc528 O538 2.105 . S
Sc528 O541 2.105 . S
Sc528 O544 2.105 . S
Sc528 O547 2.105 . S
Sc529 O531 2.025 . S
Sc529 O539 2.105 . S
Sc529 O543 2.105 . S
Sc529 O545 2.105 . S
Sc529 O549 2.105 . S
Sc530 O531 2.025 . S
Sc530 O540 2.105 . S
Sc530 O542 2.105 . S
Sc530 O546 2.105 . S
Sc530 O548 2.105 . S
O531 Sc528 2.025 . S
O531 Sc529 2.025 . S
O531 Sc530 2.025 . S
C532 O538 1.268 . S
C532 O548 1.268 . S
C533 O539 1.268 . S
C533 O547 1.268 . S
C534 O540 1.268 . S
C534 O549 1.268 . S
C535 O541 1.268 . S
C535 O545 1.268 . S
C536 O542 1.268 . S
C536 O544 1.268 . S
C537 O543 1.268 . S
C537 O546 1.268 . S
O538 Sc528 2.105 . S
O538 C532 1.268 . S
O539 Sc529 2.105 . S
O539 C533 1.268 . S
O540 Sc530 2.105 . S
O540 C534 1.268 . S
O541 Sc528 2.105 . S
O541 C535 1.268 . S
O542 Sc530 2.105 . S
O542 C536 1.268 . S
O543 Sc529 2.105 . S
O543 C537 1.268 . S
O544 Sc528 2.105 . S
O544 C536 1.268 . S
O545 Sc529 2.105 . S
O545 C535 1.268 . S
O546 Sc530 2.105 . S
O546 C537 1.268 . S
O547 Sc528 2.105 . S
O547 C533 1.268 . S
O548 Sc530 2.105 . S
O548 C532 1.268 . S
O549 Sc529 2.105 . S
O549 C534 1.268 . S
Sc550 O553 2.025 . S
Sc550 O560 2.105 . S
Sc550 O563 2.105 . S
Sc550 O566 2.105 . S
Sc550 O569 2.105 . S
Sc551 O553 2.025 . S
Sc551 O561 2.105 . S
Sc551 O565 2.105 . S
Sc551 O567 2.105 . S
Sc551 O571 2.105 . S
Sc552 O553 2.025 . S
Sc552 O562 2.105 . S
Sc552 O564 2.105 . S
Sc552 O568 2.105 . S
Sc552 O570 2.105 . S
O553 Sc550 2.025 . S
O553 Sc551 2.025 . S
O553 Sc552 2.025 . S
C554 O560 1.268 . S
C554 O570 1.268 . S
C555 O561 1.268 . S
C555 O569 1.268 . S
C556 O562 1.268 . S
C556 O571 1.268 . S
C557 O563 1.268 . S
C557 O567 1.268 . S
C558 O564 1.268 . S
C558 O566 1.268 . S
C559 O565 1.268 . S
C559 O568 1.268 . S
O560 Sc550 2.105 . S
O560 C554 1.268 . S
O561 Sc551 2.105 . S
O561 C555 1.268 . S
O562 Sc552 2.105 . S
O562 C556 1.268 . S
O563 Sc550 2.105 . S
O563 C557 1.268 . S
O564 Sc552 2.105 . S
O564 C558 1.268 . S
O565 Sc551 2.105 . S
O565 C559 1.268 . S
O566 Sc550 2.105 . S
O566 C558 1.268 . S
O567 Sc551 2.105 . S
O567 C557 1.268 . S
O568 Sc552 2.105 . S
O568 C559 1.268 . S
O569 Sc550 2.105 . S
O569 C555 1.268 . S
O570 Sc552 2.105 . S
O570 C554 1.268 . S
O571 Sc551 2.105 . S
O571 C556 1.268 . S
Sc572 O575 2.025 . S
Sc572 O582 2.105 . S
Sc572 O585 2.105 . S
Sc572 O588 2.105 . S
Sc572 O591 2.105 . S
Sc573 O575 2.025 . S
Sc573 O583 2.105 . S
Sc573 O587 2.105 . S
Sc573 O589 2.105 . S
Sc573 O593 2.105 . S
Sc574 O575 2.025 . S
Sc574 O584 2.105 . S
Sc574 O586 2.105 . S
Sc574 O590 2.105 . S
Sc574 O592 2.105 . S
O575 Sc572 2.025 . S
O575 Sc573 2.025 . S
O575 Sc574 2.025 . S
C576 O582 1.268 . S
C576 O592 1.268 . S
C577 O583 1.268 . S
C577 O591 1.268 . S
C578 O584 1.268 . S
C578 O593 1.268 . S
C579 O585 1.268 . S
C579 O589 1.268 . S
C580 O586 1.268 . S
C580 O588 1.268 . S
C581 O587 1.268 . S
C581 O590 1.268 . S
O582 Sc572 2.105 . S
O582 C576 1.268 . S
O583 Sc573 2.105 . S
O583 C577 1.268 . S
O584 Sc574 2.105 . S
O584 C578 1.268 . S
O585 Sc572 2.105 . S
O585 C579 1.268 . S
O586 Sc574 2.105 . S
O586 C580 1.268 . S
O587 Sc573 2.105 . S
O587 C581 1.268 . S
O588 Sc572 2.105 . S
O588 C580 1.268 . S
O589 Sc573 2.105 . S
O589 C579 1.268 . S
O590 Sc574 2.105 . S
O590 C581 1.268 . S
O591 Sc572 2.105 . S
O591 C577 1.268 . S
O592 Sc574 2.105 . S
O592 C576 1.268 . S
O593 Sc573 2.105 . S
O593 C578 1.268 . S
Sc594 O597 2.025 . S
Sc594 O604 2.105 . S
Sc594 O607 2.105 1_455 S
Sc594 O610 2.105 . S
Sc594 O613 2.105 . S
Sc595 O597 2.025 . S
Sc595 O605 2.105 . S
Sc595 O609 2.105 . S
Sc595 O611 2.105 1_455 S
Sc595 O615 2.105 . S
Sc596 O597 2.025 . S
Sc596 O606 2.105 . S
Sc596 O608 2.105 . S
Sc596 O612 2.105 . S
Sc596 O614 2.105 . S
O597 Sc594 2.025 . S
O597 Sc595 2.025 . S
O597 Sc596 2.025 . S
C598 O604 1.268 . S
C598 O614 1.268 . S
C599 O605 1.268 . S
C599 O613 1.268 . S
C600 O606 1.268 . S
C600 O615 1.268 . S
C601 O607 1.268 . S
C601 O611 1.268 . S
C602 O608 1.268 . S
C602 O610 1.268 . S
C603 O609 1.268 . S
C603 O612 1.268 . S
O604 Sc594 2.105 . S
O604 C598 1.268 . S
O605 Sc595 2.105 . S
O605 C599 1.268 . S
O606 Sc596 2.105 . S
O606 C600 1.268 . S
O607 Sc594 2.105 1_655 S
O607 C601 1.268 . S
O608 Sc596 2.105 . S
O608 C602 1.268 . S
O609 Sc595 2.105 . S
O609 C603 1.268 . S
O610 Sc594 2.105 . S
O610 C602 1.268 . S
O611 Sc595 2.105 1_655 S
O611 C601 1.268 . S
O612 Sc596 2.105 . S
O612 C603 1.268 . S
O613 Sc594 2.105 . S
O613 C599 1.268 . S
O614 Sc596 2.105 . S
O614 C598 1.268 . S
O615 Sc595 2.105 . S
O615 C600 1.268 . S
Sc616 O619 2.025 . S
Sc616 O626 2.105 . S
Sc616 O629 2.105 . S
Sc616 O632 2.105 . S
Sc616 O635 2.105 . S
Sc617 O619 2.025 . S
Sc617 O627 2.105 . S
Sc617 O631 2.105 . S
Sc617 O633 2.105 . S
Sc617 O637 2.105 . S
Sc618 O619 2.025 . S
Sc618 O628 2.105 . S
Sc618 O630 2.105 . S
Sc618 O634 2.105 . S
Sc618 O636 2.105 . S
O619 Sc616 2.025 . S
O619 Sc617 2.025 . S
O619 Sc618 2.025 . S
C620 O626 1.268 . S
C620 O636 1.268 . S
C621 O627 1.268 . S
C621 O635 1.268 . S
C622 O628 1.268 . S
C622 O637 1.268 . S
C623 O629 1.268 . S
C623 O633 1.268 . S
C624 O630 1.268 . S
C624 O632 1.268 . S
C625 O631 1.268 . S
C625 O634 1.268 . S
O626 Sc616 2.105 . S
O626 C620 1.268 . S
O627 Sc617 2.105 . S
O627 C621 1.268 . S
O628 Sc618 2.105 . S
O628 C622 1.268 . S
O629 Sc616 2.105 . S
O629 C623 1.268 . S
O630 Sc618 2.105 . S
O630 C624 1.268 . S
O631 Sc617 2.105 . S
O631 C625 1.268 . S
O632 Sc616 2.105 . S
O632 C624 1.268 . S
O633 Sc617 2.105 . S
O633 C623 1.268 . S
O634 Sc618 2.105 . S
O634 C625 1.268 . S
O635 Sc616 2.105 . S
O635 C621 1.268 . S
O636 Sc618 2.105 . S
O636 C620 1.268 . S
O637 Sc617 2.105 . S
O637 C622 1.268 . S
Sc638 O641 2.025 . S
Sc638 O648 2.105 . S
Sc638 O651 2.105 . S
Sc638 O654 2.105 . S
Sc638 O657 2.105 . S
Sc639 O641 2.025 . S
Sc639 O649 2.105 . S
Sc639 O653 2.105 1_545 S
Sc639 O655 2.105 . S
Sc639 O659 2.105 . S
Sc640 O641 2.025 . S
Sc640 O650 2.105 . S
Sc640 O652 2.105 . S
Sc640 O656 2.105 1_545 S
Sc640 O658 2.105 . S
O641 Sc638 2.025 . S
O641 Sc639 2.025 . S
O641 Sc640 2.025 . S
C642 O648 1.268 . S
C642 O658 1.268 . S
C643 O649 1.268 . S
C643 O657 1.268 . S
C644 O650 1.268 . S
C644 O659 1.268 . S
C645 O651 1.268 . S
C645 O655 1.268 . S
C646 O652 1.268 . S
C646 O654 1.268 . S
C647 O653 1.268 . S
C647 O656 1.268 . S
O648 Sc638 2.105 . S
O648 C642 1.268 . S
O649 Sc639 2.105 . S
O649 C643 1.268 . S
O650 Sc640 2.105 . S
O650 C644 1.268 . S
O651 Sc638 2.105 . S
O651 C645 1.268 . S
O652 Sc640 2.105 . S
O652 C646 1.268 . S
O653 Sc639 2.105 1_565 S
O653 C647 1.268 . S
O654 Sc638 2.105 . S
O654 C646 1.268 . S
O655 Sc639 2.105 . S
O655 C645 1.268 . S
O656 Sc640 2.105 1_565 S
O656 C647 1.268 . S
O657 Sc638 2.105 . S
O657 C643 1.268 . S
O658 Sc640 2.105 . S
O658 C642 1.268 . S
O659 Sc639 2.105 . S
O659 C644 1.268 . S
Sc660 O663 2.025 . S
Sc660 O670 2.105 . S
Sc660 O673 2.105 . S
Sc660 O676 2.105 . S
Sc660 O679 2.105 . S
Sc661 O663 2.025 . S
Sc661 O671 2.105 . S
Sc661 O675 2.105 1_554 S
Sc661 O677 2.105 . S
Sc661 O681 2.105 1_545 S
Sc662 O663 2.025 . S
Sc662 O672 2.105 1_545 S
Sc662 O674 2.105 . S
Sc662 O678 2.105 1_554 S
Sc662 O680 2.105 . S
O663 Sc660 2.025 . S
O663 Sc661 2.025 . S
O663 Sc662 2.025 . S
C664 O670 1.268 . S
C664 O680 1.268 . S
C665 O671 1.268 . S
C665 O679 1.268 . S
C666 O672 1.268 . S
C666 O681 1.268 . S
C667 O673 1.268 . S
C667 O677 1.268 . S
C668 O674 1.268 . S
C668 O676 1.268 . S
C669 O675 1.268 . S
C669 O678 1.268 . S
O670 Sc660 2.105 . S
O670 C664 1.268 . S
O671 Sc661 2.105 . S
O671 C665 1.268 . S
O672 Sc662 2.105 1_565 S
O672 C666 1.268 . S
O673 Sc660 2.105 . S
O673 C667 1.268 . S
O674 Sc662 2.105 . S
O674 C668 1.268 . S
O675 Sc661 2.105 1_556 S
O675 C669 1.268 . S
O676 Sc660 2.105 . S
O676 C668 1.268 . S
O677 Sc661 2.105 . S
O677 C667 1.268 . S
O678 Sc662 2.105 1_556 S
O678 C669 1.268 . S
O679 Sc660 2.105 . S
O679 C665 1.268 . S
O680 Sc662 2.105 . S
O680 C664 1.268 . S
O681 Sc661 2.105 1_565 S
O681 C666 1.268 . S
Sc682 O685 2.025 . S
Sc682 O692 2.105 . S
Sc682 O695 2.105 . S
Sc682 O698 2.105 . S
Sc682 O701 2.105 . S
Sc683 O685 2.025 . S
Sc683 O693 2.105 . S
Sc683 O697 2.105 . S
Sc683 O699 2.105 . S
Sc683 O703 2.105 . S
Sc684 O685 2.025 . S
Sc684 O694 2.105 . S
Sc684 O696 2.105 . S
Sc684 O700 2.105 . S
Sc684 O702 2.105 . S
O685 Sc682 2.025 . S
O685 Sc683 2.025 . S
O685 Sc684 2.025 . S
C686 O692 1.268 . S
C686 O702 1.268 . S
C687 O693 1.268 . S
C687 O701 1.268 . S
C688 O694 1.268 . S
C688 O703 1.268 . S
C689 O695 1.268 . S
C689 O699 1.268 . S
C690 O696 1.268 . S
C690 O698 1.268 . S
C691 O697 1.268 . S
C691 O700 1.268 . S
O692 Sc682 2.105 . S
O692 C686 1.268 . S
O693 Sc683 2.105 . S
O693 C687 1.268 . S
O694 Sc684 2.105 . S
O694 C688 1.268 . S
O695 Sc682 2.105 . S
O695 C689 1.268 . S
O696 Sc684 2.105 . S
O696 C690 1.268 . S
O697 Sc683 2.105 . S
O697 C691 1.268 . S
O698 Sc682 2.105 . S
O698 C690 1.268 . S
O699 Sc683 2.105 . S
O699 C689 1.268 . S
O700 Sc684 2.105 . S
O700 C691 1.268 . S
O701 Sc682 2.105 . S
O701 C687 1.268 . S
O702 Sc684 2.105 . S
O702 C686 1.268 . S
O703 Sc683 2.105 . S
O703 C688 1.268 . S
Sc704 O707 2.025 . S
Sc704 O714 2.105 . S
Sc704 O717 2.105 . S
Sc704 O720 2.105 . S
Sc704 O723 2.105 . S
Sc705 O707 2.025 . S
Sc705 O715 2.105 . S
Sc705 O719 2.105 . S
Sc705 O721 2.105 . S
Sc705 O725 2.105 . S
Sc706 O707 2.025 . S
Sc706 O716 2.105 . S
Sc706 O718 2.105 . S
Sc706 O722 2.105 . S
Sc706 O724 2.105 . S
O707 Sc704 2.025 . S
O707 Sc705 2.025 . S
O707 Sc706 2.025 . S
C708 O714 1.268 . S
C708 O724 1.268 . S
C709 O715 1.268 . S
C709 O723 1.268 . S
C710 O716 1.268 . S
C710 O725 1.268 . S
C711 O717 1.268 . S
C711 O721 1.268 . S
C712 O718 1.268 . S
C712 O720 1.268 . S
C713 O719 1.268 . S
C713 O722 1.268 . S
O714 Sc704 2.105 . S
O714 C708 1.268 . S
O715 Sc705 2.105 . S
O715 C709 1.268 . S
O716 Sc706 2.105 . S
O716 C710 1.268 . S
O717 Sc704 2.105 . S
O717 C711 1.268 . S
O718 Sc706 2.105 . S
O718 C712 1.268 . S
O719 Sc705 2.105 . S
O719 C713 1.268 . S
O720 Sc704 2.105 . S
O720 C712 1.268 . S
O721 Sc705 2.105 . S
O721 C711 1.268 . S
O722 Sc706 2.105 . S
O722 C713 1.268 . S
O723 Sc704 2.105 . S
O723 C709 1.268 . S
O724 Sc706 2.105 . S
O724 C708 1.268 . S
O725 Sc705 2.105 . S
O725 C710 1.268 . S
Sc726 O729 2.025 . S
Sc726 O736 2.105 . S
Sc726 O739 2.105 . S
Sc726 O742 2.105 . S
Sc726 O745 2.105 . S
Sc727 O729 2.025 . S
Sc727 O737 2.105 . S
Sc727 O741 2.105 . S
Sc727 O743 2.105 . S
Sc727 O747 2.105 . S
Sc728 O729 2.025 . S
Sc728 O738 2.105 . S
Sc728 O740 2.105 . S
Sc728 O744 2.105 . S
Sc728 O746 2.105 . S
O729 Sc726 2.025 . S
O729 Sc727 2.025 . S
O729 Sc728 2.025 . S
C730 O736 1.268 . S
C730 O746 1.268 . S
C731 O737 1.268 . S
C731 O745 1.268 . S
C732 O738 1.268 . S
C732 O747 1.268 . S
C733 O739 1.268 . S
C733 O743 1.268 . S
C734 O740 1.268 . S
C734 O742 1.268 . S
C735 O741 1.268 . S
C735 O744 1.268 . S
O736 Sc726 2.105 . S
O736 C730 1.268 . S
O737 Sc727 2.105 . S
O737 C731 1.268 . S
O738 Sc728 2.105 . S
O738 C732 1.268 . S
O739 Sc726 2.105 . S
O739 C733 1.268 . S
O740 Sc728 2.105 . S
O740 C734 1.268 . S
O741 Sc727 2.105 . S
O741 C735 1.268 . S
O742 Sc726 2.105 . S
O742 C734 1.268 . S
O743 Sc727 2.105 . S
O743 C733 1.268 . S
O744 Sc728 2.105 . S
O744 C735 1.268 . S
O745 Sc726 2.105 . S
O745 C731 1.268 . S
O746 Sc728 2.105 . S
O746 C730 1.268 . S
O747 Sc727 2.105 . S
O747 C732 1.268 . S
Sc748 O751 2.025 . S
Sc748 O758 2.105 . S
Sc748 O761 2.105 . S
Sc748 O764 2.105 . S
Sc748 O767 2.105 . S
Sc749 O751 2.025 . S
Sc749 O759 2.105 . S
Sc749 O763 2.105 . S
Sc749 O765 2.105 . S
Sc749 O769 2.105 . S
Sc750 O751 2.025 . S
Sc750 O760 2.105 . S
Sc750 O762 2.105 . S
Sc750 O766 2.105 . S
Sc750 O768 2.105 . S
O751 Sc748 2.025 . S
O751 Sc749 2.025 . S
O751 Sc750 2.025 . S
C752 O758 1.268 . S
C752 O768 1.268 . S
C753 O759 1.268 . S
C753 O767 1.268 . S
C754 O760 1.268 . S
C754 O769 1.268 . S
C755 O761 1.268 . S
C755 O765 1.268 . S
C756 O762 1.268 . S
C756 O764 1.268 . S
C757 O763 1.268 . S
C757 O766 1.268 . S
O758 Sc748 2.105 . S
O758 C752 1.268 . S
O759 Sc749 2.105 . S
O759 C753 1.268 . S
O760 Sc750 2.105 . S
O760 C754 1.268 . S
O761 Sc748 2.105 . S
O761 C755 1.268 . S
O762 Sc750 2.105 . S
O762 C756 1.268 . S
O763 Sc749 2.105 . S
O763 C757 1.268 . S
O764 Sc748 2.105 . S
O764 C756 1.268 . S
O765 Sc749 2.105 . S
O765 C755 1.268 . S
O766 Sc750 2.105 . S
O766 C757 1.268 . S
O767 Sc748 2.105 . S
O767 C753 1.268 . S
O768 Sc750 2.105 . S
O768 C752 1.268 . S
O769 Sc749 2.105 . S
O769 C754 1.268 . S
Sc770 O773 2.025 . S
Sc770 O780 2.105 . S
Sc770 O783 2.105 . S
Sc770 O786 2.105 . S
Sc770 O789 2.105 . S
Sc771 O773 2.025 . S
Sc771 O781 2.105 . S
Sc771 O785 2.105 . S
Sc771 O787 2.105 . S
Sc771 O791 2.105 . S
Sc772 O773 2.025 . S
Sc772 O782 2.105 . S
Sc772 O784 2.105 . S
Sc772 O788 2.105 . S
Sc772 O790 2.105 . S
O773 Sc770 2.025 . S
O773 Sc771 2.025 . S
O773 Sc772 2.025 . S
C774 O780 1.268 . S
C774 O790 1.268 . S
C775 O781 1.268 . S
C775 O789 1.268 . S
C776 O782 1.268 . S
C776 O791 1.268 . S
C777 O783 1.268 . S
C777 O787 1.268 . S
C778 O784 1.268 . S
C778 O786 1.268 . S
C779 O785 1.268 . S
C779 O788 1.268 . S
O780 Sc770 2.105 . S
O780 C774 1.268 . S
O781 Sc771 2.105 . S
O781 C775 1.268 . S
O782 Sc772 2.105 . S
O782 C776 1.268 . S
O783 Sc770 2.105 . S
O783 C777 1.268 . S
O784 Sc772 2.105 . S
O784 C778 1.268 . S
O785 Sc771 2.105 . S
O785 C779 1.268 . S
O786 Sc770 2.105 . S
O786 C778 1.268 . S
O787 Sc771 2.105 . S
O787 C777 1.268 . S
O788 Sc772 2.105 . S
O788 C779 1.268 . S
O789 Sc770 2.105 . S
O789 C775 1.268 . S
O790 Sc772 2.105 . S
O790 C774 1.268 . S
O791 Sc771 2.105 . S
O791 C776 1.268 . S
Sc792 O795 2.025 . S
Sc792 O802 2.105 . S
Sc792 O805 2.105 . S
Sc792 O808 2.105 . S
Sc792 O811 2.105 . S
Sc793 O795 2.025 . S
Sc793 O803 2.105 . S
Sc793 O807 2.105 . S
Sc793 O809 2.105 . S
Sc793 O813 2.105 . S
Sc794 O795 2.025 . S
Sc794 O804 2.105 . S
Sc794 O806 2.105 . S
Sc794 O810 2.105 . S
Sc794 O812 2.105 . S
O795 Sc792 2.025 . S
O795 Sc793 2.025 . S
O795 Sc794 2.025 . S
C796 O802 1.268 . S
C796 O812 1.268 . S
C797 O803 1.268 . S
C797 O811 1.268 . S
C798 O804 1.268 . S
C798 O813 1.268 . S
C799 O805 1.268 . S
C799 O809 1.268 . S
C800 O806 1.268 . S
C800 O808 1.268 . S
C801 O807 1.268 . S
C801 O810 1.268 . S
O802 Sc792 2.105 . S
O802 C796 1.268 . S
O803 Sc793 2.105 . S
O803 C797 1.268 . S
O804 Sc794 2.105 . S
O804 C798 1.268 . S
O805 Sc792 2.105 . S
O805 C799 1.268 . S
O806 Sc794 2.105 . S
O806 C800 1.268 . S
O807 Sc793 2.105 . S
O807 C801 1.268 . S
O808 Sc792 2.105 . S
O808 C800 1.268 . S
O809 Sc793 2.105 . S
O809 C799 1.268 . S
O810 Sc794 2.105 . S
O810 C801 1.268 . S
O811 Sc792 2.105 . S
O811 C797 1.268 . S
O812 Sc794 2.105 . S
O812 C796 1.268 . S
O813 Sc793 2.105 . S
O813 C798 1.268 . S
Sc814 O817 2.025 . S
Sc814 O824 2.105 . S
Sc814 O827 2.105 . S
Sc814 O830 2.105 . S
Sc814 O833 2.105 . S
Sc815 O817 2.025 . S
Sc815 O825 2.105 . S
Sc815 O829 2.105 . S
Sc815 O831 2.105 . S
Sc815 O835 2.105 . S
Sc816 O817 2.025 . S
Sc816 O826 2.105 . S
Sc816 O828 2.105 . S
Sc816 O832 2.105 . S
Sc816 O834 2.105 . S
O817 Sc814 2.025 . S
O817 Sc815 2.025 . S
O817 Sc816 2.025 . S
C818 O824 1.268 . S
C818 O834 1.268 . S
C819 O825 1.268 . S
C819 O833 1.268 . S
C820 O826 1.268 . S
C820 O835 1.268 . S
C821 O827 1.268 . S
C821 O831 1.268 . S
C822 O828 1.268 . S
C822 O830 1.268 . S
C823 O829 1.268 . S
C823 O832 1.268 . S
O824 Sc814 2.105 . S
O824 C818 1.268 . S
O825 Sc815 2.105 . S
O825 C819 1.268 . S
O826 Sc816 2.105 . S
O826 C820 1.268 . S
O827 Sc814 2.105 . S
O827 C821 1.268 . S
O828 Sc816 2.105 . S
O828 C822 1.268 . S
O829 Sc815 2.105 . S
O829 C823 1.268 . S
O830 Sc814 2.105 . S
O830 C822 1.268 . S
O831 Sc815 2.105 . S
O831 C821 1.268 . S
O832 Sc816 2.105 . S
O832 C823 1.268 . S
O833 Sc814 2.105 . S
O833 C819 1.268 . S
O834 Sc816 2.105 . S
O834 C818 1.268 . S
O835 Sc815 2.105 . S
O835 C820 1.268 . S
Sc836 O839 2.025 . S
Sc836 O846 2.105 . S
Sc836 O849 2.105 1_554 S
Sc836 O852 2.105 . S
Sc836 O855 2.105 . S
Sc837 O839 2.025 . S
Sc837 O847 2.105 . S
Sc837 O851 2.105 . S
Sc837 O853 2.105 1_554 S
Sc837 O857 2.105 . S
Sc838 O839 2.025 . S
Sc838 O848 2.105 . S
Sc838 O850 2.105 . S
Sc838 O854 2.105 . S
Sc838 O856 2.105 . S
O839 Sc836 2.025 . S
O839 Sc837 2.025 . S
O839 Sc838 2.025 . S
C840 O846 1.268 . S
C840 O856 1.268 . S
C841 O847 1.268 . S
C841 O855 1.268 . S
C842 O848 1.268 . S
C842 O857 1.268 . S
C843 O849 1.268 . S
C843 O853 1.268 . S
C844 O850 1.268 . S
C844 O852 1.268 . S
C845 O851 1.268 . S
C845 O854 1.268 . S
O846 Sc836 2.105 . S
O846 C840 1.268 . S
O847 Sc837 2.105 . S
O847 C841 1.268 . S
O848 Sc838 2.105 . S
O848 C842 1.268 . S
O849 Sc836 2.105 1_556 S
O849 C843 1.268 . S
O850 Sc838 2.105 . S
O850 C844 1.268 . S
O851 Sc837 2.105 . S
O851 C845 1.268 . S
O852 Sc836 2.105 . S
O852 C844 1.268 . S
O853 Sc837 2.105 1_556 S
O853 C843 1.268 . S
O854 Sc838 2.105 . S
O854 C845 1.268 . S
O855 Sc836 2.105 . S
O855 C841 1.268 . S
O856 Sc838 2.105 . S
O856 C840 1.268 . S
O857 Sc837 2.105 . S
O857 C842 1.268 . S
Sc858 O861 2.025 . S
Sc858 O868 2.105 . S
Sc858 O871 2.105 . S
Sc858 O874 2.105 . S
Sc858 O877 2.105 . S
Sc859 O861 2.025 . S
Sc859 O869 2.105 . S
Sc859 O873 2.105 . S
Sc859 O875 2.105 . S
Sc859 O879 2.105 . S
Sc860 O861 2.025 . S
Sc860 O870 2.105 . S
Sc860 O872 2.105 . S
Sc860 O876 2.105 . S
Sc860 O878 2.105 . S
O861 Sc858 2.025 . S
O861 Sc859 2.025 . S
O861 Sc860 2.025 . S
C862 O868 1.268 . S
C862 O878 1.268 . S
C863 O869 1.268 . S
C863 O877 1.268 . S
C864 O870 1.268 . S
C864 O879 1.268 . S
C865 O871 1.268 . S
C865 O875 1.268 . S
C866 O872 1.268 . S
C866 O874 1.268 . S
C867 O873 1.268 . S
C867 O876 1.268 . S
O868 Sc858 2.105 . S
O868 C862 1.268 . S
O869 Sc859 2.105 . S
O869 C863 1.268 . S
O870 Sc860 2.105 . S
O870 C864 1.268 . S
O871 Sc858 2.105 . S
O871 C865 1.268 . S
O872 Sc860 2.105 . S
O872 C866 1.268 . S
O873 Sc859 2.105 . S
O873 C867 1.268 . S
O874 Sc858 2.105 . S
O874 C866 1.268 . S
O875 Sc859 2.105 . S
O875 C865 1.268 . S
O876 Sc860 2.105 . S
O876 C867 1.268 . S
O877 Sc858 2.105 . S
O877 C863 1.268 . S
O878 Sc860 2.105 . S
O878 C862 1.268 . S
O879 Sc859 2.105 . S
O879 C864 1.268 . S
Sc880 O883 2.025 . S
Sc880 O890 2.105 . S
Sc880 O893 2.105 . S
Sc880 O896 2.105 . S
Sc880 O899 2.105 . S
Sc881 O883 2.025 . S
Sc881 O891 2.105 . S
Sc881 O895 2.105 . S
Sc881 O897 2.105 . S
Sc881 O901 2.105 . S
Sc882 O883 2.025 . S
Sc882 O892 2.105 . S
Sc882 O894 2.105 . S
Sc882 O898 2.105 . S
Sc882 O900 2.105 . S
O883 Sc880 2.025 . S
O883 Sc881 2.025 . S
O883 Sc882 2.025 . S
C884 O890 1.268 . S
C884 O900 1.268 . S
C885 O891 1.268 . S
C885 O899 1.268 . S
C886 O892 1.268 . S
C886 O901 1.268 . S
C887 O893 1.268 . S
C887 O897 1.268 . S
C888 O894 1.268 . S
C888 O896 1.268 . S
C889 O895 1.268 . S
C889 O898 1.268 . S
O890 Sc880 2.105 . S
O890 C884 1.268 . S
O891 Sc881 2.105 . S
O891 C885 1.268 . S
O892 Sc882 2.105 . S
O892 C886 1.268 . S
O893 Sc880 2.105 . S
O893 C887 1.268 . S
O894 Sc882 2.105 . S
O894 C888 1.268 . S
O895 Sc881 2.105 . S
O895 C889 1.268 . S
O896 Sc880 2.105 . S
O896 C888 1.268 . S
O897 Sc881 2.105 . S
O897 C887 1.268 . S
O898 Sc882 2.105 . S
O898 C889 1.268 . S
O899 Sc880 2.105 . S
O899 C885 1.268 . S
O900 Sc882 2.105 . S
O900 C884 1.268 . S
O901 Sc881 2.105 . S
O901 C886 1.268 . S
Sc902 O905 2.025 . S
Sc902 O912 2.105 . S
Sc902 O915 2.105 . S
Sc902 O918 2.105 . S
Sc902 O921 2.105 . S
Sc903 O905 2.025 . S
Sc903 O913 2.105 . S
Sc903 O917 2.105 . S
Sc903 O919 2.105 . S
Sc903 O923 2.105 . S
Sc904 O905 2.025 . S
Sc904 O914 2.105 . S
Sc904 O916 2.105 . S
Sc904 O920 2.105 . S
Sc904 O922 2.105 . S
O905 Sc902 2.025 . S
O905 Sc903 2.025 . S
O905 Sc904 2.025 . S
C906 O912 1.268 . S
C906 O922 1.268 . S
C907 O913 1.268 . S
C907 O921 1.268 . S
C908 O914 1.268 . S
C908 O923 1.268 . S
C909 O915 1.268 . S
C909 O919 1.268 . S
C910 O916 1.268 . S
C910 O918 1.268 . S
C911 O917 1.268 . S
C911 O920 1.268 . S
O912 Sc902 2.105 . S
O912 C906 1.268 . S
O913 Sc903 2.105 . S
O913 C907 1.268 . S
O914 Sc904 2.105 . S
O914 C908 1.268 . S
O915 Sc902 2.105 . S
O915 C909 1.268 . S
O916 Sc904 2.105 . S
O916 C910 1.268 . S
O917 Sc903 2.105 . S
O917 C911 1.268 . S
O918 Sc902 2.105 . S
O918 C910 1.268 . S
O919 Sc903 2.105 . S
O919 C909 1.268 . S
O920 Sc904 2.105 . S
O920 C911 1.268 . S
O921 Sc902 2.105 . S
O921 C907 1.268 . S
O922 Sc904 2.105 . S
O922 C906 1.268 . S
O923 Sc903 2.105 . S
O923 C908 1.268 . S
Sc924 O927 2.025 . S
Sc924 O934 2.105 . S
Sc924 O937 2.105 . S
Sc924 O940 2.105 . S
Sc924 O943 2.105 . S
Sc925 O927 2.025 . S
Sc925 O935 2.105 . S
Sc925 O939 2.105 . S
Sc925 O941 2.105 . S
Sc925 O945 2.105 . S
Sc926 O927 2.025 . S
Sc926 O936 2.105 . S
Sc926 O938 2.105 . S
Sc926 O942 2.105 . S
Sc926 O944 2.105 . S
O927 Sc924 2.025 . S
O927 Sc925 2.025 . S
O927 Sc926 2.025 . S
C928 O934 1.268 . S
C928 O944 1.268 . S
C929 O935 1.268 . S
C929 O943 1.268 . S
C930 O936 1.268 . S
C930 O945 1.268 . S
C931 O937 1.268 . S
C931 O941 1.268 . S
C932 O938 1.268 . S
C932 O940 1.268 . S
C933 O939 1.268 . S
C933 O942 1.268 . S
O934 Sc924 2.105 . S
O934 C928 1.268 . S
O935 Sc925 2.105 . S
O935 C929 1.268 . S
O936 Sc926 2.105 . S
O936 C930 1.268 . S
O937 Sc924 2.105 . S
O937 C931 1.268 . S
O938 Sc926 2.105 . S
O938 C932 1.268 . S
O939 Sc925 2.105 . S
O939 C933 1.268 . S
O940 Sc924 2.105 . S
O940 C932 1.268 . S
O941 Sc925 2.105 . S
O941 C931 1.268 . S
O942 Sc926 2.105 . S
O942 C933 1.268 . S
O943 Sc924 2.105 . S
O943 C929 1.268 . S
O944 Sc926 2.105 . S
O944 C928 1.268 . S
O945 Sc925 2.105 . S
O945 C930 1.268 . S
Sc946 O949 2.025 . S
Sc946 O956 2.105 . S
Sc946 O959 2.105 . S
Sc946 O962 2.105 . S
Sc946 O965 2.105 . S
Sc947 O949 2.025 . S
Sc947 O957 2.105 . S
Sc947 O961 2.105 . S
Sc947 O963 2.105 . S
Sc947 O967 2.105 . S
Sc948 O949 2.025 . S
Sc948 O958 2.105 . S
Sc948 O960 2.105 . S
Sc948 O964 2.105 . S
Sc948 O966 2.105 . S
O949 Sc946 2.025 . S
O949 Sc947 2.025 . S
O949 Sc948 2.025 . S
C950 O956 1.268 . S
C950 O966 1.268 . S
C951 O957 1.268 . S
C951 O965 1.268 . S
C952 O958 1.268 . S
C952 O967 1.268 . S
C953 O959 1.268 . S
C953 O963 1.268 . S
C954 O960 1.268 . S
C954 O962 1.268 . S
C955 O961 1.268 . S
C955 O964 1.268 . S
O956 Sc946 2.105 . S
O956 C950 1.268 . S
O957 Sc947 2.105 . S
O957 C951 1.268 . S
O958 Sc948 2.105 . S
O958 C952 1.268 . S
O959 Sc946 2.105 . S
O959 C953 1.268 . S
O960 Sc948 2.105 . S
O960 C954 1.268 . S
O961 Sc947 2.105 . S
O961 C955 1.268 . S
O962 Sc946 2.105 . S
O962 C954 1.268 . S
O963 Sc947 2.105 . S
O963 C953 1.268 . S
O964 Sc948 2.105 . S
O964 C955 1.268 . S
O965 Sc946 2.105 . S
O965 C951 1.268 . S
O966 Sc948 2.105 . S
O966 C950 1.268 . S
O967 Sc947 2.105 . S
O967 C952 1.268 . S
Sc968 O971 2.025 . S
Sc968 O978 2.105 . S
Sc968 O981 2.105 . S
Sc968 O984 2.105 . S
Sc968 O987 2.105 . S
Sc969 O971 2.025 . S
Sc969 O979 2.105 . S
Sc969 O983 2.105 . S
Sc969 O985 2.105 . S
Sc969 O989 2.105 . S
Sc970 O971 2.025 . S
Sc970 O980 2.105 . S
Sc970 O982 2.105 . S
Sc970 O986 2.105 . S
Sc970 O988 2.105 . S
O971 Sc968 2.025 . S
O971 Sc969 2.025 . S
O971 Sc970 2.025 . S
C972 O978 1.268 . S
C972 O988 1.268 . S
C973 O979 1.268 . S
C973 O987 1.268 . S
C974 O980 1.268 . S
C974 O989 1.268 . S
C975 O981 1.268 . S
C975 O985 1.268 . S
C976 O982 1.268 . S
C976 O984 1.268 . S
C977 O983 1.268 . S
C977 O986 1.268 . S
O978 Sc968 2.105 . S
O978 C972 1.268 . S
O979 Sc969 2.105 . S
O979 C973 1.268 . S
O980 Sc970 2.105 . S
O980 C974 1.268 . S
O981 Sc968 2.105 . S
O981 C975 1.268 . S
O982 Sc970 2.105 . S
O982 C976 1.268 . S
O983 Sc969 2.105 . S
O983 C977 1.268 . S
O984 Sc968 2.105 . S
O984 C976 1.268 . S
O985 Sc969 2.105 . S
O985 C975 1.268 . S
O986 Sc970 2.105 . S
O986 C977 1.268 . S
O987 Sc968 2.105 . S
O987 C973 1.268 . S
O988 Sc970 2.105 . S
O988 C972 1.268 . S
O989 Sc969 2.105 . S
O989 C974 1.268 . S
Sc990 O993 2.025 . S
Sc990 O1000 2.105 . S
Sc990 O1003 2.105 . S
Sc990 O1006 2.105 . S
Sc990 O1009 2.105 . S
Sc991 O993 2.025 . S
Sc991 O1001 2.105 . S
Sc991 O1005 2.105 . S
Sc991 O1007 2.105 . S
Sc991 O1011 2.105 1_455 S
Sc992 O993 2.025 . S
Sc992 O1002 2.105 1_455 S
Sc992 O1004 2.105 . S
Sc992 O1008 2.105 . S
Sc992 O1010 2.105 . S
O993 Sc990 2.025 . S
O993 Sc991 2.025 . S
O993 Sc992 2.025 . S
C994 O1000 1.268 . S
C994 O1010 1.268 . S
C995 O1001 1.268 . S
C995 O1009 1.268 . S
C996 O1002 1.268 . S
C996 O1011 1.268 . S
C997 O1003 1.268 . S
C997 O1007 1.268 . S
C998 O1004 1.268 . S
C998 O1006 1.268 . S
C999 O1005 1.268 . S
C999 O1008 1.268 . S
O1000 Sc990 2.105 . S
O1000 C994 1.268 . S
O1001 Sc991 2.105 . S
O1001 C995 1.268 . S
O1002 Sc992 2.105 1_655 S
O1002 C996 1.268 . S
O1003 Sc990 2.105 . S
O1003 C997 1.268 . S
O1004 Sc992 2.105 . S
O1004 C998 1.268 . S
O1005 Sc991 2.105 . S
O1005 C999 1.268 . S
O1006 Sc990 2.105 . S
O1006 C998 1.268 . S
O1007 Sc991 2.105 . S
O1007 C997 1.268 . S
O1008 Sc992 2.105 . S
O1008 C999 1.268 . S
O1009 Sc990 2.105 . S
O1009 C995 1.268 . S
O1010 Sc992 2.105 . S
O1010 C994 1.268 . S
O1011 Sc991 2.105 1_655 S
O1011 C996 1.268 . S
Sc1012 O1015 2.025 . S
Sc1012 O1022 2.105 . S
Sc1012 O1025 2.105 . S
Sc1012 O1028 2.105 . S
Sc1012 O1031 2.105 . S
Sc1013 O1015 2.025 . S
Sc1013 O1023 2.105 . S
Sc1013 O1027 2.105 1_455 S
Sc1013 O1029 2.105 . S
Sc1013 O1033 2.105 . S
Sc1014 O1015 2.025 . S
Sc1014 O1024 2.105 . S
Sc1014 O1026 2.105 . S
Sc1014 O1030 2.105 1_455 S
Sc1014 O1032 2.105 . S
O1015 Sc1012 2.025 . S
O1015 Sc1013 2.025 . S
O1015 Sc1014 2.025 . S
C1016 O1022 1.268 . S
C1016 O1032 1.268 . S
C1017 O1023 1.268 . S
C1017 O1031 1.268 . S
C1018 O1024 1.268 . S
C1018 O1033 1.268 . S
C1019 O1025 1.268 . S
C1019 O1029 1.268 . S
C1020 O1026 1.268 . S
C1020 O1028 1.268 . S
C1021 O1027 1.268 . S
C1021 O1030 1.268 . S
O1022 Sc1012 2.105 . S
O1022 C1016 1.268 . S
O1023 Sc1013 2.105 . S
O1023 C1017 1.268 . S
O1024 Sc1014 2.105 . S
O1024 C1018 1.268 . S
O1025 Sc1012 2.105 . S
O1025 C1019 1.268 . S
O1026 Sc1014 2.105 . S
O1026 C1020 1.268 . S
O1027 Sc1013 2.105 1_655 S
O1027 C1021 1.268 . S
O1028 Sc1012 2.105 . S
O1028 C1020 1.268 . S
O1029 Sc1013 2.105 . S
O1029 C1019 1.268 . S
O1030 Sc1014 2.105 1_655 S
O1030 C1021 1.268 . S
O1031 Sc1012 2.105 . S
O1031 C1017 1.268 . S
O1032 Sc1014 2.105 . S
O1032 C1016 1.268 . S
O1033 Sc1013 2.105 . S
O1033 C1018 1.268 . S
Sc1034 O1037 2.025 . S
Sc1034 O1044 2.105 . S
Sc1034 O1047 2.105 . S
Sc1034 O1050 2.105 . S
Sc1034 O1053 2.105 . S
Sc1035 O1037 2.025 . S
Sc1035 O1045 2.105 . S
Sc1035 O1049 2.105 . S
Sc1035 O1051 2.105 . S
Sc1035 O1055 2.105 . S
Sc1036 O1037 2.025 . S
Sc1036 O1046 2.105 . S
Sc1036 O1048 2.105 . S
Sc1036 O1052 2.105 . S
Sc1036 O1054 2.105 . S
O1037 Sc1034 2.025 . S
O1037 Sc1035 2.025 . S
O1037 Sc1036 2.025 . S
C1038 O1044 1.268 . S
C1038 O1054 1.268 . S
C1039 O1045 1.268 . S
C1039 O1053 1.268 . S
C1040 O1046 1.268 . S
C1040 O1055 1.268 . S
C1041 O1047 1.268 . S
C1041 O1051 1.268 . S
C1042 O1048 1.268 . S
C1042 O1050 1.268 . S
C1043 O1049 1.268 . S
C1043 O1052 1.268 . S
O1044 Sc1034 2.105 . S
O1044 C1038 1.268 . S
O1045 Sc1035 2.105 . S
O1045 C1039 1.268 . S
O1046 Sc1036 2.105 . S
O1046 C1040 1.268 . S
O1047 Sc1034 2.105 . S
O1047 C1041 1.268 . S
O1048 Sc1036 2.105 . S
O1048 C1042 1.268 . S
O1049 Sc1035 2.105 . S
O1049 C1043 1.268 . S
O1050 Sc1034 2.105 . S
O1050 C1042 1.268 . S
O1051 Sc1035 2.105 . S
O1051 C1041 1.268 . S
O1052 Sc1036 2.105 . S
O1052 C1043 1.268 . S
O1053 Sc1034 2.105 . S
O1053 C1039 1.268 . S
O1054 Sc1036 2.105 . S
O1054 C1038 1.268 . S
O1055 Sc1035 2.105 . S
O1055 C1040 1.268 . S
Sc1056 O1059 2.025 . S
Sc1056 O1066 2.105 . S
Sc1056 O1069 2.105 . S
Sc1056 O1072 2.105 . S
Sc1056 O1075 2.105 . S
Sc1057 O1059 2.025 . S
Sc1057 O1067 2.105 . S
Sc1057 O1071 2.105 . S
Sc1057 O1073 2.105 . S
Sc1057 O1077 2.105 . S
Sc1058 O1059 2.025 . S
Sc1058 O1068 2.105 . S
Sc1058 O1070 2.105 . S
Sc1058 O1074 2.105 . S
Sc1058 O1076 2.105 . S
O1059 Sc1056 2.025 . S
O1059 Sc1057 2.025 . S
O1059 Sc1058 2.025 . S
C1060 O1066 1.268 . S
C1060 O1076 1.268 . S
C1061 O1067 1.268 . S
C1061 O1075 1.268 . S
C1062 O1068 1.268 . S
C1062 O1077 1.268 . S
C1063 O1069 1.268 . S
C1063 O1073 1.268 . S
C1064 O1070 1.268 . S
C1064 O1072 1.268 . S
C1065 O1071 1.268 . S
C1065 O1074 1.268 . S
O1066 Sc1056 2.105 . S
O1066 C1060 1.268 . S
O1067 Sc1057 2.105 . S
O1067 C1061 1.268 . S
O1068 Sc1058 2.105 . S
O1068 C1062 1.268 . S
O1069 Sc1056 2.105 . S
O1069 C1063 1.268 . S
O1070 Sc1058 2.105 . S
O1070 C1064 1.268 . S
O1071 Sc1057 2.105 . S
O1071 C1065 1.268 . S
O1072 Sc1056 2.105 . S
O1072 C1064 1.268 . S
O1073 Sc1057 2.105 . S
O1073 C1063 1.268 . S
O1074 Sc1058 2.105 . S
O1074 C1065 1.268 . S
O1075 Sc1056 2.105 . S
O1075 C1061 1.268 . S
O1076 Sc1058 2.105 . S
O1076 C1060 1.268 . S
O1077 Sc1057 2.105 . S
O1077 C1062 1.268 . S
Sc1078 O1081 2.025 . S
Sc1078 O1088 2.105 . S
Sc1078 O1091 2.105 . S
Sc1078 O1094 2.105 . S
Sc1078 O1097 2.105 . S
Sc1079 O1081 2.025 . S
Sc1079 O1089 2.105 . S
Sc1079 O1093 2.105 . S
Sc1079 O1095 2.105 . S
Sc1079 O1099 2.105 . S
Sc1080 O1081 2.025 . S
Sc1080 O1090 2.105 . S
Sc1080 O1092 2.105 . S
Sc1080 O1096 2.105 . S
Sc1080 O1098 2.105 . S
O1081 Sc1078 2.025 . S
O1081 Sc1079 2.025 . S
O1081 Sc1080 2.025 . S
C1082 O1088 1.268 . S
C1082 O1098 1.268 . S
C1083 O1089 1.268 . S
C1083 O1097 1.268 . S
C1084 O1090 1.268 . S
C1084 O1099 1.268 . S
C1085 O1091 1.268 . S
C1085 O1095 1.268 . S
C1086 O1092 1.268 . S
C1086 O1094 1.268 . S
C1087 O1093 1.268 . S
C1087 O1096 1.268 . S
O1088 Sc1078 2.105 . S
O1088 C1082 1.268 . S
O1089 Sc1079 2.105 . S
O1089 C1083 1.268 . S
O1090 Sc1080 2.105 . S
O1090 C1084 1.268 . S
O1091 Sc1078 2.105 . S
O1091 C1085 1.268 . S
O1092 Sc1080 2.105 . S
O1092 C1086 1.268 . S
O1093 Sc1079 2.105 . S
O1093 C1087 1.268 . S
O1094 Sc1078 2.105 . S
O1094 C1086 1.268 . S
O1095 Sc1079 2.105 . S
O1095 C1085 1.268 . S
O1096 Sc1080 2.105 . S
O1096 C1087 1.268 . S
O1097 Sc1078 2.105 . S
O1097 C1083 1.268 . S
O1098 Sc1080 2.105 . S
O1098 C1082 1.268 . S
O1099 Sc1079 2.105 . S
O1099 C1084 1.268 . S
Sc1100 O1103 2.025 . S
Sc1100 O1110 2.105 . S
Sc1100 O1113 2.105 . S
Sc1100 O1116 2.105 . S
Sc1100 O1119 2.105 . S
Sc1101 O1103 2.025 . S
Sc1101 O1111 2.105 . S
Sc1101 O1115 2.105 1_455 S
Sc1101 O1117 2.105 . S
Sc1101 O1121 2.105 . S
Sc1102 O1103 2.025 . S
Sc1102 O1112 2.105 . S
Sc1102 O1114 2.105 . S
Sc1102 O1118 2.105 1_455 S
Sc1102 O1120 2.105 . S
O1103 Sc1100 2.025 . S
O1103 Sc1101 2.025 . S
O1103 Sc1102 2.025 . S
C1104 O1110 1.268 . S
C1104 O1120 1.268 . S
C1105 O1111 1.268 . S
C1105 O1119 1.268 . S
C1106 O1112 1.268 . S
C1106 O1121 1.268 . S
C1107 O1113 1.268 . S
C1107 O1117 1.268 . S
C1108 O1114 1.268 . S
C1108 O1116 1.268 . S
C1109 O1115 1.268 . S
C1109 O1118 1.268 . S
O1110 Sc1100 2.105 . S
O1110 C1104 1.268 . S
O1111 Sc1101 2.105 . S
O1111 C1105 1.268 . S
O1112 Sc1102 2.105 . S
O1112 C1106 1.268 . S
O1113 Sc1100 2.105 . S
O1113 C1107 1.268 . S
O1114 Sc1102 2.105 . S
O1114 C1108 1.268 . S
O1115 Sc1101 2.105 1_655 S
O1115 C1109 1.268 . S
O1116 Sc1100 2.105 . S
O1116 C1108 1.268 . S
O1117 Sc1101 2.105 . S
O1117 C1107 1.268 . S
O1118 Sc1102 2.105 1_655 S
O1118 C1109 1.268 . S
O1119 Sc1100 2.105 . S
O1119 C1105 1.268 . S
O1120 Sc1102 2.105 . S
O1120 C1104 1.268 . S
O1121 Sc1101 2.105 . S
O1121 C1106 1.268 . S
Sc1122 O1125 2.025 . S
Sc1122 O1132 2.105 . S
Sc1122 O1135 2.105 . S
Sc1122 O1138 2.105 . S
Sc1122 O1141 2.105 . S
Sc1123 O1125 2.025 . S
Sc1123 O1133 2.105 . S
Sc1123 O1137 2.105 . S
Sc1123 O1139 2.105 . S
Sc1123 O1143 2.105 . S
Sc1124 O1125 2.025 . S
Sc1124 O1134 2.105 . S
Sc1124 O1136 2.105 . S
Sc1124 O1140 2.105 . S
Sc1124 O1142 2.105 . S
O1125 Sc1122 2.025 . S
O1125 Sc1123 2.025 . S
O1125 Sc1124 2.025 . S
C1126 O1132 1.268 . S
C1126 O1142 1.268 . S
C1127 O1133 1.268 . S
C1127 O1141 1.268 . S
C1128 O1134 1.268 . S
C1128 O1143 1.268 . S
C1129 O1135 1.268 . S
C1129 O1139 1.268 . S
C1130 O1136 1.268 . S
C1130 O1138 1.268 . S
C1131 O1137 1.268 . S
C1131 O1140 1.268 . S
O1132 Sc1122 2.105 . S
O1132 C1126 1.268 . S
O1133 Sc1123 2.105 . S
O1133 C1127 1.268 . S
O1134 Sc1124 2.105 . S
O1134 C1128 1.268 . S
O1135 Sc1122 2.105 . S
O1135 C1129 1.268 . S
O1136 Sc1124 2.105 . S
O1136 C1130 1.268 . S
O1137 Sc1123 2.105 . S
O1137 C1131 1.268 . S
O1138 Sc1122 2.105 . S
O1138 C1130 1.268 . S
O1139 Sc1123 2.105 . S
O1139 C1129 1.268 . S
O1140 Sc1124 2.105 . S
O1140 C1131 1.268 . S
O1141 Sc1122 2.105 . S
O1141 C1127 1.268 . S
O1142 Sc1124 2.105 . S
O1142 C1126 1.268 . S
O1143 Sc1123 2.105 . S
O1143 C1128 1.268 . S
Sc1144 O1147 2.025 . S
Sc1144 O1154 2.105 . S
Sc1144 O1157 2.105 . S
Sc1144 O1160 2.105 . S
Sc1144 O1163 2.105 . S
Sc1145 O1147 2.025 . S
Sc1145 O1155 2.105 . S
Sc1145 O1159 2.105 . S
Sc1145 O1161 2.105 . S
Sc1145 O1165 2.105 . S
Sc1146 O1147 2.025 . S
Sc1146 O1156 2.105 . S
Sc1146 O1158 2.105 . S
Sc1146 O1162 2.105 . S
Sc1146 O1164 2.105 . S
O1147 Sc1144 2.025 . S
O1147 Sc1145 2.025 . S
O1147 Sc1146 2.025 . S
C1148 O1154 1.268 . S
C1148 O1164 1.268 . S
C1149 O1155 1.268 . S
C1149 O1163 1.268 . S
C1150 O1156 1.268 . S
C1150 O1165 1.268 . S
C1151 O1157 1.268 . S
C1151 O1161 1.268 . S
C1152 O1158 1.268 . S
C1152 O1160 1.268 . S
C1153 O1159 1.268 . S
C1153 O1162 1.268 . S
O1154 Sc1144 2.105 . S
O1154 C1148 1.268 . S
O1155 Sc1145 2.105 . S
O1155 C1149 1.268 . S
O1156 Sc1146 2.105 . S
O1156 C1150 1.268 . S
O1157 Sc1144 2.105 . S
O1157 C1151 1.268 . S
O1158 Sc1146 2.105 . S
O1158 C1152 1.268 . S
O1159 Sc1145 2.105 . S
O1159 C1153 1.268 . S
O1160 Sc1144 2.105 . S
O1160 C1152 1.268 . S
O1161 Sc1145 2.105 . S
O1161 C1151 1.268 . S
O1162 Sc1146 2.105 . S
O1162 C1153 1.268 . S
O1163 Sc1144 2.105 . S
O1163 C1149 1.268 . S
O1164 Sc1146 2.105 . S
O1164 C1148 1.268 . S
O1165 Sc1145 2.105 . S
O1165 C1150 1.268 . S
Sc1166 O1169 2.025 . S
Sc1166 O1176 2.105 . S
Sc1166 O1179 2.105 . S
Sc1166 O1182 2.105 . S
Sc1166 O1185 2.105 1_554 S
Sc1167 O1169 2.025 . S
Sc1167 O1177 2.105 1_554 S
Sc1167 O1181 2.105 . S
Sc1167 O1183 2.105 . S
Sc1167 O1187 2.105 . S
Sc1168 O1169 2.025 . S
Sc1168 O1178 2.105 . S
Sc1168 O1180 2.105 . S
Sc1168 O1184 2.105 . S
Sc1168 O1186 2.105 . S
O1169 Sc1166 2.025 . S
O1169 Sc1167 2.025 . S
O1169 Sc1168 2.025 . S
C1170 O1176 1.268 . S
C1170 O1186 1.268 . S
C1171 O1177 1.268 . S
C1171 O1185 1.268 . S
C1172 O1178 1.268 . S
C1172 O1187 1.268 . S
C1173 O1179 1.268 . S
C1173 O1183 1.268 . S
C1174 O1180 1.268 . S
C1174 O1182 1.268 . S
C1175 O1181 1.268 . S
C1175 O1184 1.268 . S
O1176 Sc1166 2.105 . S
O1176 C1170 1.268 . S
O1177 Sc1167 2.105 1_556 S
O1177 C1171 1.268 . S
O1178 Sc1168 2.105 . S
O1178 C1172 1.268 . S
O1179 Sc1166 2.105 . S
O1179 C1173 1.268 . S
O1180 Sc1168 2.105 . S
O1180 C1174 1.268 . S
O1181 Sc1167 2.105 . S
O1181 C1175 1.268 . S
O1182 Sc1166 2.105 . S
O1182 C1174 1.268 . S
O1183 Sc1167 2.105 . S
O1183 C1173 1.268 . S
O1184 Sc1168 2.105 . S
O1184 C1175 1.268 . S
O1185 Sc1166 2.105 1_556 S
O1185 C1171 1.268 . S
O1186 Sc1168 2.105 . S
O1186 C1170 1.268 . S
O1187 Sc1167 2.105 . S
O1187 C1172 1.268 . S
Sc1188 O1191 2.025 . S
Sc1188 O1198 2.105 . S
Sc1188 O1201 2.105 . S
Sc1188 O1204 2.105 . S
Sc1188 O1207 2.105 . S
Sc1189 O1191 2.025 . S
Sc1189 O1199 2.105 . S
Sc1189 O1203 2.105 . S
Sc1189 O1205 2.105 . S
Sc1189 O1209 2.105 . S
Sc1190 O1191 2.025 . S
Sc1190 O1200 2.105 . S
Sc1190 O1202 2.105 . S
Sc1190 O1206 2.105 . S
Sc1190 O1208 2.105 . S
O1191 Sc1188 2.025 . S
O1191 Sc1189 2.025 . S
O1191 Sc1190 2.025 . S
C1192 O1198 1.268 . S
C1192 O1208 1.268 . S
C1193 O1199 1.268 . S
C1193 O1207 1.268 . S
C1194 O1200 1.268 . S
C1194 O1209 1.268 . S
C1195 O1201 1.268 . S
C1195 O1205 1.268 . S
C1196 O1202 1.268 . S
C1196 O1204 1.268 . S
C1197 O1203 1.268 . S
C1197 O1206 1.268 . S
O1198 Sc1188 2.105 . S
O1198 C1192 1.268 . S
O1199 Sc1189 2.105 . S
O1199 C1193 1.268 . S
O1200 Sc1190 2.105 . S
O1200 C1194 1.268 . S
O1201 Sc1188 2.105 . S
O1201 C1195 1.268 . S
O1202 Sc1190 2.105 . S
O1202 C1196 1.268 . S
O1203 Sc1189 2.105 . S
O1203 C1197 1.268 . S
O1204 Sc1188 2.105 . S
O1204 C1196 1.268 . S
O1205 Sc1189 2.105 . S
O1205 C1195 1.268 . S
O1206 Sc1190 2.105 . S
O1206 C1197 1.268 . S
O1207 Sc1188 2.105 . S
O1207 C1193 1.268 . S
O1208 Sc1190 2.105 . S
O1208 C1192 1.268 . S
O1209 Sc1189 2.105 . S
O1209 C1194 1.268 . S
Sc1210 O1213 2.025 . S
Sc1210 O1220 2.105 . S
Sc1210 O1223 2.105 . S
Sc1210 O1226 2.105 . S
Sc1210 O1229 2.105 . S
Sc1211 O1213 2.025 . S
Sc1211 O1221 2.105 . S
Sc1211 O1225 2.105 . S
Sc1211 O1227 2.105 . S
Sc1211 O1231 2.105 . S
Sc1212 O1213 2.025 . S
Sc1212 O1222 2.105 . S
Sc1212 O1224 2.105 . S
Sc1212 O1228 2.105 . S
Sc1212 O1230 2.105 . S
O1213 Sc1210 2.025 . S
O1213 Sc1211 2.025 . S
O1213 Sc1212 2.025 . S
C1214 O1220 1.268 . S
C1214 O1230 1.268 . S
C1215 O1221 1.268 . S
C1215 O1229 1.268 . S
C1216 O1222 1.268 . S
C1216 O1231 1.268 . S
C1217 O1223 1.268 . S
C1217 O1227 1.268 . S
C1218 O1224 1.268 . S
C1218 O1226 1.268 . S
C1219 O1225 1.268 . S
C1219 O1228 1.268 . S
O1220 Sc1210 2.105 . S
O1220 C1214 1.268 . S
O1221 Sc1211 2.105 . S
O1221 C1215 1.268 . S
O1222 Sc1212 2.105 . S
O1222 C1216 1.268 . S
O1223 Sc1210 2.105 . S
O1223 C1217 1.268 . S
O1224 Sc1212 2.105 . S
O1224 C1218 1.268 . S
O1225 Sc1211 2.105 . S
O1225 C1219 1.268 . S
O1226 Sc1210 2.105 . S
O1226 C1218 1.268 . S
O1227 Sc1211 2.105 . S
O1227 C1217 1.268 . S
O1228 Sc1212 2.105 . S
O1228 C1219 1.268 . S
O1229 Sc1210 2.105 . S
O1229 C1215 1.268 . S
O1230 Sc1212 2.105 . S
O1230 C1214 1.268 . S
O1231 Sc1211 2.105 . S
O1231 C1216 1.268 . S
Sc1232 O1235 2.025 . S
Sc1232 O1242 2.105 . S
Sc1232 O1245 2.105 . S
Sc1232 O1248 2.105 . S
Sc1232 O1251 2.105 . S
Sc1233 O1235 2.025 . S
Sc1233 O1243 2.105 . S
Sc1233 O1247 2.105 . S
Sc1233 O1249 2.105 . S
Sc1233 O1253 2.105 . S
Sc1234 O1235 2.025 . S
Sc1234 O1244 2.105 . S
Sc1234 O1246 2.105 . S
Sc1234 O1250 2.105 . S
Sc1234 O1252 2.105 . S
O1235 Sc1232 2.025 . S
O1235 Sc1233 2.025 . S
O1235 Sc1234 2.025 . S
C1236 O1242 1.268 . S
C1236 O1252 1.268 . S
C1237 O1243 1.268 . S
C1237 O1251 1.268 . S
C1238 O1244 1.268 . S
C1238 O1253 1.268 . S
C1239 O1245 1.268 . S
C1239 O1249 1.268 . S
C1240 O1246 1.268 . S
C1240 O1248 1.268 . S
C1241 O1247 1.268 . S
C1241 O1250 1.268 . S
O1242 Sc1232 2.105 . S
O1242 C1236 1.268 . S
O1243 Sc1233 2.105 . S
O1243 C1237 1.268 . S
O1244 Sc1234 2.105 . S
O1244 C1238 1.268 . S
O1245 Sc1232 2.105 . S
O1245 C1239 1.268 . S
O1246 Sc1234 2.105 . S
O1246 C1240 1.268 . S
O1247 Sc1233 2.105 . S
O1247 C1241 1.268 . S
O1248 Sc1232 2.105 . S
O1248 C1240 1.268 . S
O1249 Sc1233 2.105 . S
O1249 C1239 1.268 . S
O1250 Sc1234 2.105 . S
O1250 C1241 1.268 . S
O1251 Sc1232 2.105 . S
O1251 C1237 1.268 . S
O1252 Sc1234 2.105 . S
O1252 C1236 1.268 . S
O1253 Sc1233 2.105 . S
O1253 C1238 1.268 . S
Sc1254 O1257 2.025 . S
Sc1254 O1264 2.105 . S
Sc1254 O1267 2.105 . S
Sc1254 O1270 2.105 . S
Sc1254 O1273 2.105 . S
Sc1255 O1257 2.025 . S
Sc1255 O1265 2.105 . S
Sc1255 O1269 2.105 . S
Sc1255 O1271 2.105 . S
Sc1255 O1275 2.105 . S
Sc1256 O1257 2.025 . S
Sc1256 O1266 2.105 . S
Sc1256 O1268 2.105 . S
Sc1256 O1272 2.105 . S
Sc1256 O1274 2.105 . S
O1257 Sc1254 2.025 . S
O1257 Sc1255 2.025 . S
O1257 Sc1256 2.025 . S
C1258 O1264 1.268 . S
C1258 O1274 1.268 . S
C1259 O1265 1.268 . S
C1259 O1273 1.268 . S
C1260 O1266 1.268 . S
C1260 O1275 1.268 . S
C1261 O1267 1.268 . S
C1261 O1271 1.268 . S
C1262 O1268 1.268 . S
C1262 O1270 1.268 . S
C1263 O1269 1.268 . S
C1263 O1272 1.268 . S
O1264 Sc1254 2.105 . S
O1264 C1258 1.268 . S
O1265 Sc1255 2.105 . S
O1265 C1259 1.268 . S
O1266 Sc1256 2.105 . S
O1266 C1260 1.268 . S
O1267 Sc1254 2.105 . S
O1267 C1261 1.268 . S
O1268 Sc1256 2.105 . S
O1268 C1262 1.268 . S
O1269 Sc1255 2.105 . S
O1269 C1263 1.268 . S
O1270 Sc1254 2.105 . S
O1270 C1262 1.268 . S
O1271 Sc1255 2.105 . S
O1271 C1261 1.268 . S
O1272 Sc1256 2.105 . S
O1272 C1263 1.268 . S
O1273 Sc1254 2.105 . S
O1273 C1259 1.268 . S
O1274 Sc1256 2.105 . S
O1274 C1258 1.268 . S
O1275 Sc1255 2.105 . S
O1275 C1260 1.268 . S
Sc1276 O1279 2.025 . S
Sc1276 O1286 2.105 . S
Sc1276 O1289 2.105 . S
Sc1276 O1292 2.105 . S
Sc1276 O1295 2.105 . S
Sc1277 O1279 2.025 . S
Sc1277 O1287 2.105 . S
Sc1277 O1291 2.105 . S
Sc1277 O1293 2.105 . S
Sc1277 O1297 2.105 . S
Sc1278 O1279 2.025 . S
Sc1278 O1288 2.105 . S
Sc1278 O1290 2.105 . S
Sc1278 O1294 2.105 . S
Sc1278 O1296 2.105 . S
O1279 Sc1276 2.025 . S
O1279 Sc1277 2.025 . S
O1279 Sc1278 2.025 . S
C1280 O1286 1.268 . S
C1280 O1296 1.268 . S
C1281 O1287 1.268 . S
C1281 O1295 1.268 . S
C1282 O1288 1.268 . S
C1282 O1297 1.268 . S
C1283 O1289 1.268 . S
C1283 O1293 1.268 . S
C1284 O1290 1.268 . S
C1284 O1292 1.268 . S
C1285 O1291 1.268 . S
C1285 O1294 1.268 . S
O1286 Sc1276 2.105 . S
O1286 C1280 1.268 . S
O1287 Sc1277 2.105 . S
O1287 C1281 1.268 . S
O1288 Sc1278 2.105 . S
O1288 C1282 1.268 . S
O1289 Sc1276 2.105 . S
O1289 C1283 1.268 . S
O1290 Sc1278 2.105 . S
O1290 C1284 1.268 . S
O1291 Sc1277 2.105 . S
O1291 C1285 1.268 . S
O1292 Sc1276 2.105 . S
O1292 C1284 1.268 . S
O1293 Sc1277 2.105 . S
O1293 C1283 1.268 . S
O1294 Sc1278 2.105 . S
O1294 C1285 1.268 . S
O1295 Sc1276 2.105 . S
O1295 C1281 1.268 . S
O1296 Sc1278 2.105 . S
O1296 C1280 1.268 . S
O1297 Sc1277 2.105 . S
O1297 C1282 1.268 . S
Sc1298 O1301 2.025 . S
Sc1298 O1308 2.105 . S
Sc1298 O1311 2.105 . S
Sc1298 O1314 2.105 . S
Sc1298 O1317 2.105 . S
Sc1299 O1301 2.025 . S
Sc1299 O1309 2.105 . S
Sc1299 O1313 2.105 . S
Sc1299 O1315 2.105 . S
Sc1299 O1319 2.105 . S
Sc1300 O1301 2.025 . S
Sc1300 O1310 2.105 . S
Sc1300 O1312 2.105 . S
Sc1300 O1316 2.105 . S
Sc1300 O1318 2.105 . S
O1301 Sc1298 2.025 . S
O1301 Sc1299 2.025 . S
O1301 Sc1300 2.025 . S
C1302 O1308 1.268 . S
C1302 O1318 1.268 . S
C1303 O1309 1.268 . S
C1303 O1317 1.268 . S
C1304 O1310 1.268 . S
C1304 O1319 1.268 . S
C1305 O1311 1.268 . S
C1305 O1315 1.268 . S
C1306 O1312 1.268 . S
C1306 O1314 1.268 . S
C1307 O1313 1.268 . S
C1307 O1316 1.268 . S
O1308 Sc1298 2.105 . S
O1308 C1302 1.268 . S
O1309 Sc1299 2.105 . S
O1309 C1303 1.268 . S
O1310 Sc1300 2.105 . S
O1310 C1304 1.268 . S
O1311 Sc1298 2.105 . S
O1311 C1305 1.268 . S
O1312 Sc1300 2.105 . S
O1312 C1306 1.268 . S
O1313 Sc1299 2.105 . S
O1313 C1307 1.268 . S
O1314 Sc1298 2.105 . S
O1314 C1306 1.268 . S
O1315 Sc1299 2.105 . S
O1315 C1305 1.268 . S
O1316 Sc1300 2.105 . S
O1316 C1307 1.268 . S
O1317 Sc1298 2.105 . S
O1317 C1303 1.268 . S
O1318 Sc1300 2.105 . S
O1318 C1302 1.268 . S
O1319 Sc1299 2.105 . S
O1319 C1304 1.268 . S
Sc1320 O1323 2.025 . S
Sc1320 O1330 2.105 . S
Sc1320 O1333 2.105 . S
Sc1320 O1336 2.105 . S
Sc1320 O1339 2.105 . S
Sc1321 O1323 2.025 . S
Sc1321 O1331 2.105 . S
Sc1321 O1335 2.105 . S
Sc1321 O1337 2.105 . S
Sc1321 O1341 2.105 . S
Sc1322 O1323 2.025 . S
Sc1322 O1332 2.105 . S
Sc1322 O1334 2.105 . S
Sc1322 O1338 2.105 . S
Sc1322 O1340 2.105 . S
O1323 Sc1320 2.025 . S
O1323 Sc1321 2.025 . S
O1323 Sc1322 2.025 . S
C1324 O1330 1.268 . S
C1324 O1340 1.268 . S
C1325 O1331 1.268 . S
C1325 O1339 1.268 . S
C1326 O1332 1.268 . S
C1326 O1341 1.268 . S
C1327 O1333 1.268 . S
C1327 O1337 1.268 . S
C1328 O1334 1.268 . S
C1328 O1336 1.268 . S
C1329 O1335 1.268 . S
C1329 O1338 1.268 . S
O1330 Sc1320 2.105 . S
O1330 C1324 1.268 . S
O1331 Sc1321 2.105 . S
O1331 C1325 1.268 . S
O1332 Sc1322 2.105 . S
O1332 C1326 1.268 . S
O1333 Sc1320 2.105 . S
O1333 C1327 1.268 . S
O1334 Sc1322 2.105 . S
O1334 C1328 1.268 . S
O1335 Sc1321 2.105 . S
O1335 C1329 1.268 . S
O1336 Sc1320 2.105 . S
O1336 C1328 1.268 . S
O1337 Sc1321 2.105 . S
O1337 C1327 1.268 . S
O1338 Sc1322 2.105 . S
O1338 C1329 1.268 . S
O1339 Sc1320 2.105 . S
O1339 C1325 1.268 . S
O1340 Sc1322 2.105 . S
O1340 C1324 1.268 . S
O1341 Sc1321 2.105 . S
O1341 C1326 1.268 . S
Sc1342 O1345 2.025 . S
Sc1342 O1352 2.105 . S
Sc1342 O1355 2.105 . S
Sc1342 O1358 2.105 . S
Sc1342 O1361 2.105 . S
Sc1343 O1345 2.025 . S
Sc1343 O1353 2.105 . S
Sc1343 O1357 2.105 . S
Sc1343 O1359 2.105 . S
Sc1343 O1363 2.105 . S
Sc1344 O1345 2.025 . S
Sc1344 O1354 2.105 . S
Sc1344 O1356 2.105 . S
Sc1344 O1360 2.105 . S
Sc1344 O1362 2.105 . S
O1345 Sc1342 2.025 . S
O1345 Sc1343 2.025 . S
O1345 Sc1344 2.025 . S
C1346 O1352 1.268 . S
C1346 O1362 1.268 . S
C1347 O1353 1.268 . S
C1347 O1361 1.268 . S
C1348 O1354 1.268 . S
C1348 O1363 1.268 . S
C1349 O1355 1.268 . S
C1349 O1359 1.268 . S
C1350 O1356 1.268 . S
C1350 O1358 1.268 . S
C1351 O1357 1.268 . S
C1351 O1360 1.268 . S
O1352 Sc1342 2.105 . S
O1352 C1346 1.268 . S
O1353 Sc1343 2.105 . S
O1353 C1347 1.268 . S
O1354 Sc1344 2.105 . S
O1354 C1348 1.268 . S
O1355 Sc1342 2.105 . S
O1355 C1349 1.268 . S
O1356 Sc1344 2.105 . S
O1356 C1350 1.268 . S
O1357 Sc1343 2.105 . S
O1357 C1351 1.268 . S
O1358 Sc1342 2.105 . S
O1358 C1350 1.268 . S
O1359 Sc1343 2.105 . S
O1359 C1349 1.268 . S
O1360 Sc1344 2.105 . S
O1360 C1351 1.268 . S
O1361 Sc1342 2.105 . S
O1361 C1347 1.268 . S
O1362 Sc1344 2.105 . S
O1362 C1346 1.268 . S
O1363 Sc1343 2.105 . S
O1363 C1348 1.268 . S
Sc1364 O1367 2.025 . S
Sc1364 O1374 2.105 . S
Sc1364 O1377 2.105 . S
Sc1364 O1380 2.105 . S
Sc1364 O1383 2.105 . S
Sc1365 O1367 2.025 . S
Sc1365 O1375 2.105 . S
Sc1365 O1379 2.105 . S
Sc1365 O1381 2.105 . S
Sc1365 O1385 2.105 . S
Sc1366 O1367 2.025 . S
Sc1366 O1376 2.105 . S
Sc1366 O1378 2.105 . S
Sc1366 O1382 2.105 . S
Sc1366 O1384 2.105 . S
O1367 Sc1364 2.025 . S
O1367 Sc1365 2.025 . S
O1367 Sc1366 2.025 . S
C1368 O1374 1.268 . S
C1368 O1384 1.268 . S
C1369 O1375 1.268 . S
C1369 O1383 1.268 . S
C1370 O1376 1.268 . S
C1370 O1385 1.268 . S
C1371 O1377 1.268 . S
C1371 O1381 1.268 . S
C1372 O1378 1.268 . S
C1372 O1380 1.268 . S
C1373 O1379 1.268 . S
C1373 O1382 1.268 . S
O1374 Sc1364 2.105 . S
O1374 C1368 1.268 . S
O1375 Sc1365 2.105 . S
O1375 C1369 1.268 . S
O1376 Sc1366 2.105 . S
O1376 C1370 1.268 . S
O1377 Sc1364 2.105 . S
O1377 C1371 1.268 . S
O1378 Sc1366 2.105 . S
O1378 C1372 1.268 . S
O1379 Sc1365 2.105 . S
O1379 C1373 1.268 . S
O1380 Sc1364 2.105 . S
O1380 C1372 1.268 . S
O1381 Sc1365 2.105 . S
O1381 C1371 1.268 . S
O1382 Sc1366 2.105 . S
O1382 C1373 1.268 . S
O1383 Sc1364 2.105 . S
O1383 C1369 1.268 . S
O1384 Sc1366 2.105 . S
O1384 C1368 1.268 . S
O1385 Sc1365 2.105 . S
O1385 C1370 1.268 . S
Sc1386 O1389 2.025 . S
Sc1386 O1396 2.105 . S
Sc1386 O1399 2.105 . S
Sc1386 O1402 2.105 . S
Sc1386 O1405 2.105 . S
Sc1387 O1389 2.025 . S
Sc1387 O1397 2.105 . S
Sc1387 O1401 2.105 . S
Sc1387 O1403 2.105 . S
Sc1387 O1407 2.105 . S
Sc1388 O1389 2.025 . S
Sc1388 O1398 2.105 . S
Sc1388 O1400 2.105 . S
Sc1388 O1404 2.105 . S
Sc1388 O1406 2.105 . S
O1389 Sc1386 2.025 . S
O1389 Sc1387 2.025 . S
O1389 Sc1388 2.025 . S
C1390 O1396 1.268 . S
C1390 O1406 1.268 . S
C1391 O1397 1.268 . S
C1391 O1405 1.268 . S
C1392 O1398 1.268 . S
C1392 O1407 1.268 . S
C1393 O1399 1.268 . S
C1393 O1403 1.268 . S
C1394 O1400 1.268 . S
C1394 O1402 1.268 . S
C1395 O1401 1.268 . S
C1395 O1404 1.268 . S
O1396 Sc1386 2.105 . S
O1396 C1390 1.268 . S
O1397 Sc1387 2.105 . S
O1397 C1391 1.268 . S
O1398 Sc1388 2.105 . S
O1398 C1392 1.268 . S
O1399 Sc1386 2.105 . S
O1399 C1393 1.268 . S
O1400 Sc1388 2.105 . S
O1400 C1394 1.268 . S
O1401 Sc1387 2.105 . S
O1401 C1395 1.268 . S
O1402 Sc1386 2.105 . S
O1402 C1394 1.268 . S
O1403 Sc1387 2.105 . S
O1403 C1393 1.268 . S
O1404 Sc1388 2.105 . S
O1404 C1395 1.268 . S
O1405 Sc1386 2.105 . S
O1405 C1391 1.268 . S
O1406 Sc1388 2.105 . S
O1406 C1390 1.268 . S
O1407 Sc1387 2.105 . S
O1407 C1392 1.268 . S
Sc1408 O1411 2.025 . S
Sc1408 O1418 2.105 . S
Sc1408 O1421 2.105 . S
Sc1408 O1424 2.105 . S
Sc1408 O1427 2.105 . S
Sc1409 O1411 2.025 . S
Sc1409 O1419 2.105 . S
Sc1409 O1423 2.105 . S
Sc1409 O1425 2.105 . S
Sc1409 O1429 2.105 . S
Sc1410 O1411 2.025 . S
Sc1410 O1420 2.105 . S
Sc1410 O1422 2.105 . S
Sc1410 O1426 2.105 . S
Sc1410 O1428 2.105 . S
O1411 Sc1408 2.025 . S
O1411 Sc1409 2.025 . S
O1411 Sc1410 2.025 . S
C1412 O1418 1.268 . S
C1412 O1428 1.268 . S
C1413 O1419 1.268 . S
C1413 O1427 1.268 . S
C1414 O1420 1.268 . S
C1414 O1429 1.268 . S
C1415 O1421 1.268 . S
C1415 O1425 1.268 . S
C1416 O1422 1.268 . S
C1416 O1424 1.268 . S
C1417 O1423 1.268 . S
C1417 O1426 1.268 . S
O1418 Sc1408 2.105 . S
O1418 C1412 1.268 . S
O1419 Sc1409 2.105 . S
O1419 C1413 1.268 . S
O1420 Sc1410 2.105 . S
O1420 C1414 1.268 . S
O1421 Sc1408 2.105 . S
O1421 C1415 1.268 . S
O1422 Sc1410 2.105 . S
O1422 C1416 1.268 . S
O1423 Sc1409 2.105 . S
O1423 C1417 1.268 . S
O1424 Sc1408 2.105 . S
O1424 C1416 1.268 . S
O1425 Sc1409 2.105 . S
O1425 C1415 1.268 . S
O1426 Sc1410 2.105 . S
O1426 C1417 1.268 . S
O1427 Sc1408 2.105 . S
O1427 C1413 1.268 . S
O1428 Sc1410 2.105 . S
O1428 C1412 1.268 . S
O1429 Sc1409 2.105 . S
O1429 C1414 1.268 . S
Sc1430 O1433 2.025 . S
Sc1430 O1440 2.105 . S
Sc1430 O1443 2.105 . S
Sc1430 O1446 2.105 . S
Sc1430 O1449 2.105 . S
Sc1431 O1433 2.025 . S
Sc1431 O1441 2.105 . S
Sc1431 O1445 2.105 . S
Sc1431 O1447 2.105 . S
Sc1431 O1451 2.105 . S
Sc1432 O1433 2.025 . S
Sc1432 O1442 2.105 . S
Sc1432 O1444 2.105 . S
Sc1432 O1448 2.105 . S
Sc1432 O1450 2.105 . S
O1433 Sc1430 2.025 . S
O1433 Sc1431 2.025 . S
O1433 Sc1432 2.025 . S
C1434 O1440 1.268 . S
C1434 O1450 1.268 . S
C1435 O1441 1.268 . S
C1435 O1449 1.268 . S
C1436 O1442 1.268 . S
C1436 O1451 1.268 . S
C1437 O1443 1.268 . S
C1437 O1447 1.268 . S
C1438 O1444 1.268 . S
C1438 O1446 1.268 . S
C1439 O1445 1.268 . S
C1439 O1448 1.268 . S
O1440 Sc1430 2.105 . S
O1440 C1434 1.268 . S
O1441 Sc1431 2.105 . S
O1441 C1435 1.268 . S
O1442 Sc1432 2.105 . S
O1442 C1436 1.268 . S
O1443 Sc1430 2.105 . S
O1443 C1437 1.268 . S
O1444 Sc1432 2.105 . S
O1444 C1438 1.268 . S
O1445 Sc1431 2.105 . S
O1445 C1439 1.268 . S
O1446 Sc1430 2.105 . S
O1446 C1438 1.268 . S
O1447 Sc1431 2.105 . S
O1447 C1437 1.268 . S
O1448 Sc1432 2.105 . S
O1448 C1439 1.268 . S
O1449 Sc1430 2.105 . S
O1449 C1435 1.268 . S
O1450 Sc1432 2.105 . S
O1450 C1434 1.268 . S
O1451 Sc1431 2.105 . S
O1451 C1436 1.268 . S
Sc1452 O1455 2.025 . S
Sc1452 O1462 2.105 . S
Sc1452 O1465 2.105 . S
Sc1452 O1468 2.105 . S
Sc1452 O1471 2.105 . S
Sc1453 O1455 2.025 . S
Sc1453 O1463 2.105 . S
Sc1453 O1467 2.105 . S
Sc1453 O1469 2.105 . S
Sc1453 O1473 2.105 . S
Sc1454 O1455 2.025 . S
Sc1454 O1464 2.105 . S
Sc1454 O1466 2.105 . S
Sc1454 O1470 2.105 . S
Sc1454 O1472 2.105 . S
O1455 Sc1452 2.025 . S
O1455 Sc1453 2.025 . S
O1455 Sc1454 2.025 . S
C1456 O1462 1.268 . S
C1456 O1472 1.268 . S
C1457 O1463 1.268 . S
C1457 O1471 1.268 . S
C1458 O1464 1.268 . S
C1458 O1473 1.268 . S
C1459 O1465 1.268 . S
C1459 O1469 1.268 . S
C1460 O1466 1.268 . S
C1460 O1468 1.268 . S
C1461 O1467 1.268 . S
C1461 O1470 1.268 . S
O1462 Sc1452 2.105 . S
O1462 C1456 1.268 . S
O1463 Sc1453 2.105 . S
O1463 C1457 1.268 . S
O1464 Sc1454 2.105 . S
O1464 C1458 1.268 . S
O1465 Sc1452 2.105 . S
O1465 C1459 1.268 . S
O1466 Sc1454 2.105 . S
O1466 C1460 1.268 . S
O1467 Sc1453 2.105 . S
O1467 C1461 1.268 . S
O1468 Sc1452 2.105 . S
O1468 C1460 1.268 . S
O1469 Sc1453 2.105 . S
O1469 C1459 1.268 . S
O1470 Sc1454 2.105 . S
O1470 C1461 1.268 . S
O1471 Sc1452 2.105 . S
O1471 C1457 1.268 . S
O1472 Sc1454 2.105 . S
O1472 C1456 1.268 . S
O1473 Sc1453 2.105 . S
O1473 C1458 1.268 . S
Sc1474 O1477 2.025 . S
Sc1474 O1484 2.105 . S
Sc1474 O1487 2.105 . S
Sc1474 O1490 2.105 . S
Sc1474 O1493 2.105 . S
Sc1475 O1477 2.025 . S
Sc1475 O1485 2.105 . S
Sc1475 O1489 2.105 1_545 S
Sc1475 O1491 2.105 . S
Sc1475 O1495 2.105 . S
Sc1476 O1477 2.025 . S
Sc1476 O1486 2.105 . S
Sc1476 O1488 2.105 . S
Sc1476 O1492 2.105 1_545 S
Sc1476 O1494 2.105 . S
O1477 Sc1474 2.025 . S
O1477 Sc1475 2.025 . S
O1477 Sc1476 2.025 . S
C1478 O1484 1.268 . S
C1478 O1494 1.268 . S
C1479 O1485 1.268 . S
C1479 O1493 1.268 . S
C1480 O1486 1.268 . S
C1480 O1495 1.268 . S
C1481 O1487 1.268 . S
C1481 O1491 1.268 . S
C1482 O1488 1.268 . S
C1482 O1490 1.268 . S
C1483 O1489 1.268 . S
C1483 O1492 1.268 . S
O1484 Sc1474 2.105 . S
O1484 C1478 1.268 . S
O1485 Sc1475 2.105 . S
O1485 C1479 1.268 . S
O1486 Sc1476 2.105 . S
O1486 C1480 1.268 . S
O1487 Sc1474 2.105 . S
O1487 C1481 1.268 . S
O1488 Sc1476 2.105 . S
O1488 C1482 1.268 . S
O1489 Sc1475 2.105 1_565 S
O1489 C1483 1.268 . S
O1490 Sc1474 2.105 . S
O1490 C1482 1.268 . S
O1491 Sc1475 2.105 . S
O1491 C1481 1.268 . S
O1492 Sc1476 2.105 1_565 S
O1492 C1483 1.268 . S
O1493 Sc1474 2.105 . S
O1493 C1479 1.268 . S
O1494 Sc1476 2.105 . S
O1494 C1478 1.268 . S
O1495 Sc1475 2.105 . S
O1495 C1480 1.268 . S
Sc1496 O1499 2.025 . S
Sc1496 O1506 2.105 . S
Sc1496 O1509 2.105 . S
Sc1496 O1512 2.105 . S
Sc1496 O1515 2.105 . S
Sc1497 O1499 2.025 . S
Sc1497 O1507 2.105 . S
Sc1497 O1511 2.105 . S
Sc1497 O1513 2.105 . S
Sc1497 O1517 2.105 . S
Sc1498 O1499 2.025 . S
Sc1498 O1508 2.105 . S
Sc1498 O1510 2.105 . S
Sc1498 O1514 2.105 . S
Sc1498 O1516 2.105 . S
O1499 Sc1496 2.025 . S
O1499 Sc1497 2.025 . S
O1499 Sc1498 2.025 . S
C1500 O1506 1.268 . S
C1500 O1516 1.268 . S
C1501 O1507 1.268 . S
C1501 O1515 1.268 . S
C1502 O1508 1.268 . S
C1502 O1517 1.268 . S
C1503 O1509 1.268 . S
C1503 O1513 1.268 . S
C1504 O1510 1.268 . S
C1504 O1512 1.268 . S
C1505 O1511 1.268 . S
C1505 O1514 1.268 . S
O1506 Sc1496 2.105 . S
O1506 C1500 1.268 . S
O1507 Sc1497 2.105 . S
O1507 C1501 1.268 . S
O1508 Sc1498 2.105 . S
O1508 C1502 1.268 . S
O1509 Sc1496 2.105 . S
O1509 C1503 1.268 . S
O1510 Sc1498 2.105 . S
O1510 C1504 1.268 . S
O1511 Sc1497 2.105 . S
O1511 C1505 1.268 . S
O1512 Sc1496 2.105 . S
O1512 C1504 1.268 . S
O1513 Sc1497 2.105 . S
O1513 C1503 1.268 . S
O1514 Sc1498 2.105 . S
O1514 C1505 1.268 . S
O1515 Sc1496 2.105 . S
O1515 C1501 1.268 . S
O1516 Sc1498 2.105 . S
O1516 C1500 1.268 . S
O1517 Sc1497 2.105 . S
O1517 C1502 1.268 . S
Sc1518 O1521 2.025 . S
Sc1518 O1528 2.105 . S
Sc1518 O1531 2.105 . S
Sc1518 O1534 2.105 . S
Sc1518 O1537 2.105 . S
Sc1519 O1521 2.025 . S
Sc1519 O1529 2.105 . S
Sc1519 O1533 2.105 . S
Sc1519 O1535 2.105 . S
Sc1519 O1539 2.105 . S
Sc1520 O1521 2.025 . S
Sc1520 O1530 2.105 . S
Sc1520 O1532 2.105 . S
Sc1520 O1536 2.105 . S
Sc1520 O1538 2.105 . S
O1521 Sc1518 2.025 . S
O1521 Sc1519 2.025 . S
O1521 Sc1520 2.025 . S
C1522 O1528 1.268 . S
C1522 O1538 1.268 . S
C1523 O1529 1.268 . S
C1523 O1537 1.268 . S
C1524 O1530 1.268 . S
C1524 O1539 1.268 . S
C1525 O1531 1.268 . S
C1525 O1535 1.268 . S
C1526 O1532 1.268 . S
C1526 O1534 1.268 . S
C1527 O1533 1.268 . S
C1527 O1536 1.268 . S
O1528 Sc1518 2.105 . S
O1528 C1522 1.268 . S
O1529 Sc1519 2.105 . S
O1529 C1523 1.268 . S
O1530 Sc1520 2.105 . S
O1530 C1524 1.268 . S
O1531 Sc1518 2.105 . S
O1531 C1525 1.268 . S
O1532 Sc1520 2.105 . S
O1532 C1526 1.268 . S
O1533 Sc1519 2.105 . S
O1533 C1527 1.268 . S
O1534 Sc1518 2.105 . S
O1534 C1526 1.268 . S
O1535 Sc1519 2.105 . S
O1535 C1525 1.268 . S
O1536 Sc1520 2.105 . S
O1536 C1527 1.268 . S
O1537 Sc1518 2.105 . S
O1537 C1523 1.268 . S
O1538 Sc1520 2.105 . S
O1538 C1522 1.268 . S
O1539 Sc1519 2.105 . S
O1539 C1524 1.268 . S
Sc1540 O1543 2.025 . S
Sc1540 O1550 2.105 . S
Sc1540 O1553 2.105 . S
Sc1540 O1556 2.105 . S
Sc1540 O1559 2.105 . S
Sc1541 O1543 2.025 . S
Sc1541 O1551 2.105 . S
Sc1541 O1555 2.105 . S
Sc1541 O1557 2.105 . S
Sc1541 O1561 2.105 . S
Sc1542 O1543 2.025 . S
Sc1542 O1552 2.105 . S
Sc1542 O1554 2.105 . S
Sc1542 O1558 2.105 . S
Sc1542 O1560 2.105 . S
O1543 Sc1540 2.025 . S
O1543 Sc1541 2.025 . S
O1543 Sc1542 2.025 . S
C1544 O1550 1.268 . S
C1544 O1560 1.268 . S
C1545 O1551 1.268 . S
C1545 O1559 1.268 . S
C1546 O1552 1.268 . S
C1546 O1561 1.268 . S
C1547 O1553 1.268 . S
C1547 O1557 1.268 . S
C1548 O1554 1.268 . S
C1548 O1556 1.268 . S
C1549 O1555 1.268 . S
C1549 O1558 1.268 . S
O1550 Sc1540 2.105 . S
O1550 C1544 1.268 . S
O1551 Sc1541 2.105 . S
O1551 C1545 1.268 . S
O1552 Sc1542 2.105 . S
O1552 C1546 1.268 . S
O1553 Sc1540 2.105 . S
O1553 C1547 1.268 . S
O1554 Sc1542 2.105 . S
O1554 C1548 1.268 . S
O1555 Sc1541 2.105 . S
O1555 C1549 1.268 . S
O1556 Sc1540 2.105 . S
O1556 C1548 1.268 . S
O1557 Sc1541 2.105 . S
O1557 C1547 1.268 . S
O1558 Sc1542 2.105 . S
O1558 C1549 1.268 . S
O1559 Sc1540 2.105 . S
O1559 C1545 1.268 . S
O1560 Sc1542 2.105 . S
O1560 C1544 1.268 . S
O1561 Sc1541 2.105 . S
O1561 C1546 1.268 . S
Sc1562 O1565 2.025 . S
Sc1562 O1572 2.105 . S
Sc1562 O1575 2.105 1_554 S
Sc1562 O1578 2.105 . S
Sc1562 O1581 2.105 . S
Sc1563 O1565 2.025 . S
Sc1563 O1573 2.105 . S
Sc1563 O1577 2.105 . S
Sc1563 O1579 2.105 1_554 S
Sc1563 O1583 2.105 . S
Sc1564 O1565 2.025 . S
Sc1564 O1574 2.105 . S
Sc1564 O1576 2.105 . S
Sc1564 O1580 2.105 . S
Sc1564 O1582 2.105 . S
O1565 Sc1562 2.025 . S
O1565 Sc1563 2.025 . S
O1565 Sc1564 2.025 . S
C1566 O1572 1.268 . S
C1566 O1582 1.268 . S
C1567 O1573 1.268 . S
C1567 O1581 1.268 . S
C1568 O1574 1.268 . S
C1568 O1583 1.268 . S
C1569 O1575 1.268 . S
C1569 O1579 1.268 . S
C1570 O1576 1.268 . S
C1570 O1578 1.268 . S
C1571 O1577 1.268 . S
C1571 O1580 1.268 . S
O1572 Sc1562 2.105 . S
O1572 C1566 1.268 . S
O1573 Sc1563 2.105 . S
O1573 C1567 1.268 . S
O1574 Sc1564 2.105 . S
O1574 C1568 1.268 . S
O1575 Sc1562 2.105 1_556 S
O1575 C1569 1.268 . S
O1576 Sc1564 2.105 . S
O1576 C1570 1.268 . S
O1577 Sc1563 2.105 . S
O1577 C1571 1.268 . S
O1578 Sc1562 2.105 . S
O1578 C1570 1.268 . S
O1579 Sc1563 2.105 1_556 S
O1579 C1569 1.268 . S
O1580 Sc1564 2.105 . S
O1580 C1571 1.268 . S
O1581 Sc1562 2.105 . S
O1581 C1567 1.268 . S
O1582 Sc1564 2.105 . S
O1582 C1566 1.268 . S
O1583 Sc1563 2.105 . S
O1583 C1568 1.268 . S
Sc1584 O1587 2.025 . S
Sc1584 O1594 2.105 . S
Sc1584 O1597 2.105 . S
Sc1584 O1600 2.105 . S
Sc1584 O1603 2.105 . S
Sc1585 O1587 2.025 . S
Sc1585 O1595 2.105 . S
Sc1585 O1599 2.105 . S
Sc1585 O1601 2.105 . S
Sc1585 O1605 2.105 . S
Sc1586 O1587 2.025 . S
Sc1586 O1596 2.105 . S
Sc1586 O1598 2.105 . S
Sc1586 O1602 2.105 . S
Sc1586 O1604 2.105 . S
O1587 Sc1584 2.025 . S
O1587 Sc1585 2.025 . S
O1587 Sc1586 2.025 . S
C1588 O1594 1.268 . S
C1588 O1604 1.268 . S
C1589 O1595 1.268 . S
C1589 O1603 1.268 . S
C1590 O1596 1.268 . S
C1590 O1605 1.268 . S
C1591 O1597 1.268 . S
C1591 O1601 1.268 . S
C1592 O1598 1.268 . S
C1592 O1600 1.268 . S
C1593 O1599 1.268 . S
C1593 O1602 1.268 . S
O1594 Sc1584 2.105 . S
O1594 C1588 1.268 . S
O1595 Sc1585 2.105 . S
O1595 C1589 1.268 . S
O1596 Sc1586 2.105 . S
O1596 C1590 1.268 . S
O1597 Sc1584 2.105 . S
O1597 C1591 1.268 . S
O1598 Sc1586 2.105 . S
O1598 C1592 1.268 . S
O1599 Sc1585 2.105 . S
O1599 C1593 1.268 . S
O1600 Sc1584 2.105 . S
O1600 C1592 1.268 . S
O1601 Sc1585 2.105 . S
O1601 C1591 1.268 . S
O1602 Sc1586 2.105 . S
O1602 C1593 1.268 . S
O1603 Sc1584 2.105 . S
O1603 C1589 1.268 . S
O1604 Sc1586 2.105 . S
O1604 C1588 1.268 . S
O1605 Sc1585 2.105 . S
O1605 C1590 1.268 . S
Sc1606 O1609 2.025 . S
Sc1606 O1616 2.105 . S
Sc1606 O1619 2.105 . S
Sc1606 O1622 2.105 . S
Sc1606 O1625 2.105 . S
Sc1607 O1609 2.025 . S
Sc1607 O1617 2.105 . S
Sc1607 O1621 2.105 . S
Sc1607 O1623 2.105 . S
Sc1607 O1627 2.105 . S
Sc1608 O1609 2.025 . S
Sc1608 O1618 2.105 . S
Sc1608 O1620 2.105 . S
Sc1608 O1624 2.105 . S
Sc1608 O1626 2.105 . S
O1609 Sc1606 2.025 . S
O1609 Sc1607 2.025 . S
O1609 Sc1608 2.025 . S
C1610 O1616 1.268 . S
C1610 O1626 1.268 . S
C1611 O1617 1.268 . S
C1611 O1625 1.268 . S
C1612 O1618 1.268 . S
C1612 O1627 1.268 . S
C1613 O1619 1.268 . S
C1613 O1623 1.268 . S
C1614 O1620 1.268 . S
C1614 O1622 1.268 . S
C1615 O1621 1.268 . S
C1615 O1624 1.268 . S
O1616 Sc1606 2.105 . S
O1616 C1610 1.268 . S
O1617 Sc1607 2.105 . S
O1617 C1611 1.268 . S
O1618 Sc1608 2.105 . S
O1618 C1612 1.268 . S
O1619 Sc1606 2.105 . S
O1619 C1613 1.268 . S
O1620 Sc1608 2.105 . S
O1620 C1614 1.268 . S
O1621 Sc1607 2.105 . S
O1621 C1615 1.268 . S
O1622 Sc1606 2.105 . S
O1622 C1614 1.268 . S
O1623 Sc1607 2.105 . S
O1623 C1613 1.268 . S
O1624 Sc1608 2.105 . S
O1624 C1615 1.268 . S
O1625 Sc1606 2.105 . S
O1625 C1611 1.268 . S
O1626 Sc1608 2.105 . S
O1626 C1610 1.268 . S
O1627 Sc1607 2.105 . S
O1627 C1612 1.268 . S
Sc1628 O1631 2.025 . S
Sc1628 O1638 2.105 . S
Sc1628 O1641 2.105 . S
Sc1628 O1644 2.105 . S
Sc1628 O1647 2.105 . S
Sc1629 O1631 2.025 . S
Sc1629 O1639 2.105 . S
Sc1629 O1643 2.105 . S
Sc1629 O1645 2.105 . S
Sc1629 O1649 2.105 . S
Sc1630 O1631 2.025 . S
Sc1630 O1640 2.105 . S
Sc1630 O1642 2.105 . S
Sc1630 O1646 2.105 . S
Sc1630 O1648 2.105 . S
O1631 Sc1628 2.025 . S
O1631 Sc1629 2.025 . S
O1631 Sc1630 2.025 . S
C1632 O1638 1.268 . S
C1632 O1648 1.268 . S
C1633 O1639 1.268 . S
C1633 O1647 1.268 . S
C1634 O1640 1.268 . S
C1634 O1649 1.268 . S
C1635 O1641 1.268 . S
C1635 O1645 1.268 . S
C1636 O1642 1.268 . S
C1636 O1644 1.268 . S
C1637 O1643 1.268 . S
C1637 O1646 1.268 . S
O1638 Sc1628 2.105 . S
O1638 C1632 1.268 . S
O1639 Sc1629 2.105 . S
O1639 C1633 1.268 . S
O1640 Sc1630 2.105 . S
O1640 C1634 1.268 . S
O1641 Sc1628 2.105 . S
O1641 C1635 1.268 . S
O1642 Sc1630 2.105 . S
O1642 C1636 1.268 . S
O1643 Sc1629 2.105 . S
O1643 C1637 1.268 . S
O1644 Sc1628 2.105 . S
O1644 C1636 1.268 . S
O1645 Sc1629 2.105 . S
O1645 C1635 1.268 . S
O1646 Sc1630 2.105 . S
O1646 C1637 1.268 . S
O1647 Sc1628 2.105 . S
O1647 C1633 1.268 . S
O1648 Sc1630 2.105 . S
O1648 C1632 1.268 . S
O1649 Sc1629 2.105 . S
O1649 C1634 1.268 . S
Sc1650 O1653 2.025 . S
Sc1650 O1660 2.105 . S
Sc1650 O1663 2.105 . S
Sc1650 O1666 2.105 . S
Sc1650 O1669 2.105 1_554 S
Sc1651 O1653 2.025 . S
Sc1651 O1661 2.105 1_554 S
Sc1651 O1665 2.105 . S
Sc1651 O1667 2.105 . S
Sc1651 O1671 2.105 . S
Sc1652 O1653 2.025 . S
Sc1652 O1662 2.105 . S
Sc1652 O1664 2.105 . S
Sc1652 O1668 2.105 . S
Sc1652 O1670 2.105 . S
O1653 Sc1650 2.025 . S
O1653 Sc1651 2.025 . S
O1653 Sc1652 2.025 . S
C1654 O1660 1.268 . S
C1654 O1670 1.268 . S
C1655 O1661 1.268 . S
C1655 O1669 1.268 . S
C1656 O1662 1.268 . S
C1656 O1671 1.268 . S
C1657 O1663 1.268 . S
C1657 O1667 1.268 . S
C1658 O1664 1.268 . S
C1658 O1666 1.268 . S
C1659 O1665 1.268 . S
C1659 O1668 1.268 . S
O1660 Sc1650 2.105 . S
O1660 C1654 1.268 . S
O1661 Sc1651 2.105 1_556 S
O1661 C1655 1.268 . S
O1662 Sc1652 2.105 . S
O1662 C1656 1.268 . S
O1663 Sc1650 2.105 . S
O1663 C1657 1.268 . S
O1664 Sc1652 2.105 . S
O1664 C1658 1.268 . S
O1665 Sc1651 2.105 . S
O1665 C1659 1.268 . S
O1666 Sc1650 2.105 . S
O1666 C1658 1.268 . S
O1667 Sc1651 2.105 . S
O1667 C1657 1.268 . S
O1668 Sc1652 2.105 . S
O1668 C1659 1.268 . S
O1669 Sc1650 2.105 1_556 S
O1669 C1655 1.268 . S
O1670 Sc1652 2.105 . S
O1670 C1654 1.268 . S
O1671 Sc1651 2.105 . S
O1671 C1656 1.268 . S
Sc1672 O1675 2.025 . S
Sc1672 O1682 2.105 . S
Sc1672 O1685 2.105 . S
Sc1672 O1688 2.105 . S
Sc1672 O1691 2.105 . S
Sc1673 O1675 2.025 . S
Sc1673 O1683 2.105 . S
Sc1673 O1687 2.105 . S
Sc1673 O1689 2.105 . S
Sc1673 O1693 2.105 . S
Sc1674 O1675 2.025 . S
Sc1674 O1684 2.105 . S
Sc1674 O1686 2.105 . S
Sc1674 O1690 2.105 . S
Sc1674 O1692 2.105 . S
O1675 Sc1672 2.025 . S
O1675 Sc1673 2.025 . S
O1675 Sc1674 2.025 . S
C1676 O1682 1.268 . S
C1676 O1692 1.268 . S
C1677 O1683 1.268 . S
C1677 O1691 1.268 . S
C1678 O1684 1.268 . S
C1678 O1693 1.268 . S
C1679 O1685 1.268 . S
C1679 O1689 1.268 . S
C1680 O1686 1.268 . S
C1680 O1688 1.268 . S
C1681 O1687 1.268 . S
C1681 O1690 1.268 . S
O1682 Sc1672 2.105 . S
O1682 C1676 1.268 . S
O1683 Sc1673 2.105 . S
O1683 C1677 1.268 . S
O1684 Sc1674 2.105 . S
O1684 C1678 1.268 . S
O1685 Sc1672 2.105 . S
O1685 C1679 1.268 . S
O1686 Sc1674 2.105 . S
O1686 C1680 1.268 . S
O1687 Sc1673 2.105 . S
O1687 C1681 1.268 . S
O1688 Sc1672 2.105 . S
O1688 C1680 1.268 . S
O1689 Sc1673 2.105 . S
O1689 C1679 1.268 . S
O1690 Sc1674 2.105 . S
O1690 C1681 1.268 . S
O1691 Sc1672 2.105 . S
O1691 C1677 1.268 . S
O1692 Sc1674 2.105 . S
O1692 C1676 1.268 . S
O1693 Sc1673 2.105 . S
O1693 C1678 1.268 . S
Sc1694 O1697 2.025 . S
Sc1694 O1704 2.105 . S
Sc1694 O1707 2.105 . S
Sc1694 O1710 2.105 . S
Sc1694 O1713 2.105 . S
Sc1695 O1697 2.025 . S
Sc1695 O1705 2.105 . S
Sc1695 O1709 2.105 1_554 S
Sc1695 O1711 2.105 . S
Sc1695 O1715 2.105 . S
Sc1696 O1697 2.025 . S
Sc1696 O1706 2.105 . S
Sc1696 O1708 2.105 . S
Sc1696 O1712 2.105 1_554 S
Sc1696 O1714 2.105 . S
O1697 Sc1694 2.025 . S
O1697 Sc1695 2.025 . S
O1697 Sc1696 2.025 . S
C1698 O1704 1.268 . S
C1698 O1714 1.268 . S
C1699 O1705 1.268 . S
C1699 O1713 1.268 . S
C1700 O1706 1.268 . S
C1700 O1715 1.268 . S
C1701 O1707 1.268 . S
C1701 O1711 1.268 . S
C1702 O1708 1.268 . S
C1702 O1710 1.268 . S
C1703 O1709 1.268 . S
C1703 O1712 1.268 . S
O1704 Sc1694 2.105 . S
O1704 C1698 1.268 . S
O1705 Sc1695 2.105 . S
O1705 C1699 1.268 . S
O1706 Sc1696 2.105 . S
O1706 C1700 1.268 . S
O1707 Sc1694 2.105 . S
O1707 C1701 1.268 . S
O1708 Sc1696 2.105 . S
O1708 C1702 1.268 . S
O1709 Sc1695 2.105 1_556 S
O1709 C1703 1.268 . S
O1710 Sc1694 2.105 . S
O1710 C1702 1.268 . S
O1711 Sc1695 2.105 . S
O1711 C1701 1.268 . S
O1712 Sc1696 2.105 1_556 S
O1712 C1703 1.268 . S
O1713 Sc1694 2.105 . S
O1713 C1699 1.268 . S
O1714 Sc1696 2.105 . S
O1714 C1698 1.268 . S
O1715 Sc1695 2.105 . S
O1715 C1700 1.268 . S
Sc1716 O1719 2.025 . S
Sc1716 O1726 2.105 . S
Sc1716 O1729 2.105 . S
Sc1716 O1732 2.105 . S
Sc1716 O1735 2.105 . S
Sc1717 O1719 2.025 . S
Sc1717 O1727 2.105 . S
Sc1717 O1731 2.105 . S
Sc1717 O1733 2.105 . S
Sc1717 O1737 2.105 . S
Sc1718 O1719 2.025 . S
Sc1718 O1728 2.105 . S
Sc1718 O1730 2.105 . S
Sc1718 O1734 2.105 . S
Sc1718 O1736 2.105 . S
O1719 Sc1716 2.025 . S
O1719 Sc1717 2.025 . S
O1719 Sc1718 2.025 . S
C1720 O1726 1.268 . S
C1720 O1736 1.268 . S
C1721 O1727 1.268 . S
C1721 O1735 1.268 . S
C1722 O1728 1.268 . S
C1722 O1737 1.268 . S
C1723 O1729 1.268 . S
C1723 O1733 1.268 . S
C1724 O1730 1.268 . S
C1724 O1732 1.268 . S
C1725 O1731 1.268 . S
C1725 O1734 1.268 . S
O1726 Sc1716 2.105 . S
O1726 C1720 1.268 . S
O1727 Sc1717 2.105 . S
O1727 C1721 1.268 . S
O1728 Sc1718 2.105 . S
O1728 C1722 1.268 . S
O1729 Sc1716 2.105 . S
O1729 C1723 1.268 . S
O1730 Sc1718 2.105 . S
O1730 C1724 1.268 . S
O1731 Sc1717 2.105 . S
O1731 C1725 1.268 . S
O1732 Sc1716 2.105 . S
O1732 C1724 1.268 . S
O1733 Sc1717 2.105 . S
O1733 C1723 1.268 . S
O1734 Sc1718 2.105 . S
O1734 C1725 1.268 . S
O1735 Sc1716 2.105 . S
O1735 C1721 1.268 . S
O1736 Sc1718 2.105 . S
O1736 C1720 1.268 . S
O1737 Sc1717 2.105 . S
O1737 C1722 1.268 . S
Sc1738 O1741 2.025 . S
Sc1738 O1748 2.105 . S
Sc1738 O1751 2.105 . S
Sc1738 O1754 2.105 . S
Sc1738 O1757 2.105 . S
Sc1739 O1741 2.025 . S
Sc1739 O1749 2.105 . S
Sc1739 O1753 2.105 . S
Sc1739 O1755 2.105 . S
Sc1739 O1759 2.105 1_545 S
Sc1740 O1741 2.025 . S
Sc1740 O1750 2.105 1_545 S
Sc1740 O1752 2.105 . S
Sc1740 O1756 2.105 . S
Sc1740 O1758 2.105 . S
O1741 Sc1738 2.025 . S
O1741 Sc1739 2.025 . S
O1741 Sc1740 2.025 . S
C1742 O1748 1.268 . S
C1742 O1758 1.268 . S
C1743 O1749 1.268 . S
C1743 O1757 1.268 . S
C1744 O1750 1.268 . S
C1744 O1759 1.268 . S
C1745 O1751 1.268 . S
C1745 O1755 1.268 . S
C1746 O1752 1.268 . S
C1746 O1754 1.268 . S
C1747 O1753 1.268 . S
C1747 O1756 1.268 . S
O1748 Sc1738 2.105 . S
O1748 C1742 1.268 . S
O1749 Sc1739 2.105 . S
O1749 C1743 1.268 . S
O1750 Sc1740 2.105 1_565 S
O1750 C1744 1.268 . S
O1751 Sc1738 2.105 . S
O1751 C1745 1.268 . S
O1752 Sc1740 2.105 . S
O1752 C1746 1.268 . S
O1753 Sc1739 2.105 . S
O1753 C1747 1.268 . S
O1754 Sc1738 2.105 . S
O1754 C1746 1.268 . S
O1755 Sc1739 2.105 . S
O1755 C1745 1.268 . S
O1756 Sc1740 2.105 . S
O1756 C1747 1.268 . S
O1757 Sc1738 2.105 . S
O1757 C1743 1.268 . S
O1758 Sc1740 2.105 . S
O1758 C1742 1.268 . S
O1759 Sc1739 2.105 1_565 S
O1759 C1744 1.268 . S
Sc1760 O1763 2.025 . S
Sc1760 O1770 2.105 . S
Sc1760 O1773 2.105 . S
Sc1760 O1776 2.105 . S
Sc1760 O1779 2.105 . S
Sc1761 O1763 2.025 . S
Sc1761 O1771 2.105 . S
Sc1761 O1775 2.105 . S
Sc1761 O1777 2.105 . S
Sc1761 O1781 2.105 . S
Sc1762 O1763 2.025 . S
Sc1762 O1772 2.105 . S
Sc1762 O1774 2.105 . S
Sc1762 O1778 2.105 . S
Sc1762 O1780 2.105 . S
O1763 Sc1760 2.025 . S
O1763 Sc1761 2.025 . S
O1763 Sc1762 2.025 . S
C1764 O1770 1.268 . S
C1764 O1780 1.268 . S
C1765 O1771 1.268 . S
C1765 O1779 1.268 . S
C1766 O1772 1.268 . S
C1766 O1781 1.268 . S
C1767 O1773 1.268 . S
C1767 O1777 1.268 . S
C1768 O1774 1.268 . S
C1768 O1776 1.268 . S
C1769 O1775 1.268 . S
C1769 O1778 1.268 . S
O1770 Sc1760 2.105 . S
O1770 C1764 1.268 . S
O1771 Sc1761 2.105 . S
O1771 C1765 1.268 . S
O1772 Sc1762 2.105 . S
O1772 C1766 1.268 . S
O1773 Sc1760 2.105 . S
O1773 C1767 1.268 . S
O1774 Sc1762 2.105 . S
O1774 C1768 1.268 . S
O1775 Sc1761 2.105 . S
O1775 C1769 1.268 . S
O1776 Sc1760 2.105 . S
O1776 C1768 1.268 . S
O1777 Sc1761 2.105 . S
O1777 C1767 1.268 . S
O1778 Sc1762 2.105 . S
O1778 C1769 1.268 . S
O1779 Sc1760 2.105 . S
O1779 C1765 1.268 . S
O1780 Sc1762 2.105 . S
O1780 C1764 1.268 . S
O1781 Sc1761 2.105 . S
O1781 C1766 1.268 . S
Sc1782 O1785 2.025 . S
Sc1782 O1792 2.105 . S
Sc1782 O1795 2.105 . S
Sc1782 O1798 2.105 . S
Sc1782 O1801 2.105 . S
Sc1783 O1785 2.025 . S
Sc1783 O1793 2.105 . S
Sc1783 O1797 2.105 . S
Sc1783 O1799 2.105 . S
Sc1783 O1803 2.105 . S
Sc1784 O1785 2.025 . S
Sc1784 O1794 2.105 . S
Sc1784 O1796 2.105 . S
Sc1784 O1800 2.105 . S
Sc1784 O1802 2.105 . S
O1785 Sc1782 2.025 . S
O1785 Sc1783 2.025 . S
O1785 Sc1784 2.025 . S
C1786 O1792 1.268 . S
C1786 O1802 1.268 . S
C1787 O1793 1.268 . S
C1787 O1801 1.268 . S
C1788 O1794 1.268 . S
C1788 O1803 1.268 . S
C1789 O1795 1.268 . S
C1789 O1799 1.268 . S
C1790 O1796 1.268 . S
C1790 O1798 1.268 . S
C1791 O1797 1.268 . S
C1791 O1800 1.268 . S
O1792 Sc1782 2.105 . S
O1792 C1786 1.268 . S
O1793 Sc1783 2.105 . S
O1793 C1787 1.268 . S
O1794 Sc1784 2.105 . S
O1794 C1788 1.268 . S
O1795 Sc1782 2.105 . S
O1795 C1789 1.268 . S
O1796 Sc1784 2.105 . S
O1796 C1790 1.268 . S
O1797 Sc1783 2.105 . S
O1797 C1791 1.268 . S
O1798 Sc1782 2.105 . S
O1798 C1790 1.268 . S
O1799 Sc1783 2.105 . S
O1799 C1789 1.268 . S
O1800 Sc1784 2.105 . S
O1800 C1791 1.268 . S
O1801 Sc1782 2.105 . S
O1801 C1787 1.268 . S
O1802 Sc1784 2.105 . S
O1802 C1786 1.268 . S
O1803 Sc1783 2.105 . S
O1803 C1788 1.268 . S
Sc1804 O1807 2.025 . S
Sc1804 O1814 2.105 . S
Sc1804 O1817 2.105 . S
Sc1804 O1820 2.105 . S
Sc1804 O1823 2.105 . S
Sc1805 O1807 2.025 . S
Sc1805 O1815 2.105 . S
Sc1805 O1819 2.105 . S
Sc1805 O1821 2.105 . S
Sc1805 O1825 2.105 1_545 S
Sc1806 O1807 2.025 . S
Sc1806 O1816 2.105 1_545 S
Sc1806 O1818 2.105 . S
Sc1806 O1822 2.105 . S
Sc1806 O1824 2.105 . S
O1807 Sc1804 2.025 . S
O1807 Sc1805 2.025 . S
O1807 Sc1806 2.025 . S
C1808 O1814 1.268 . S
C1808 O1824 1.268 . S
C1809 O1815 1.268 . S
C1809 O1823 1.268 . S
C1810 O1816 1.268 . S
C1810 O1825 1.268 . S
C1811 O1817 1.268 . S
C1811 O1821 1.268 . S
C1812 O1818 1.268 . S
C1812 O1820 1.268 . S
C1813 O1819 1.268 . S
C1813 O1822 1.268 . S
O1814 Sc1804 2.105 . S
O1814 C1808 1.268 . S
O1815 Sc1805 2.105 . S
O1815 C1809 1.268 . S
O1816 Sc1806 2.105 1_565 S
O1816 C1810 1.268 . S
O1817 Sc1804 2.105 . S
O1817 C1811 1.268 . S
O1818 Sc1806 2.105 . S
O1818 C1812 1.268 . S
O1819 Sc1805 2.105 . S
O1819 C1813 1.268 . S
O1820 Sc1804 2.105 . S
O1820 C1812 1.268 . S
O1821 Sc1805 2.105 . S
O1821 C1811 1.268 . S
O1822 Sc1806 2.105 . S
O1822 C1813 1.268 . S
O1823 Sc1804 2.105 . S
O1823 C1809 1.268 . S
O1824 Sc1806 2.105 . S
O1824 C1808 1.268 . S
O1825 Sc1805 2.105 1_565 S
O1825 C1810 1.268 . S
Sc1826 O1829 2.025 . S
Sc1826 O1836 2.105 . S
Sc1826 O1839 2.105 . S
Sc1826 O1842 2.105 . S
Sc1826 O1845 2.105 . S
Sc1827 O1829 2.025 . S
Sc1827 O1837 2.105 . S
Sc1827 O1841 2.105 . S
Sc1827 O1843 2.105 . S
Sc1827 O1847 2.105 . S
Sc1828 O1829 2.025 . S
Sc1828 O1838 2.105 . S
Sc1828 O1840 2.105 . S
Sc1828 O1844 2.105 . S
Sc1828 O1846 2.105 . S
O1829 Sc1826 2.025 . S
O1829 Sc1827 2.025 . S
O1829 Sc1828 2.025 . S
C1830 O1836 1.268 . S
C1830 O1846 1.268 . S
C1831 O1837 1.268 . S
C1831 O1845 1.268 . S
C1832 O1838 1.268 . S
C1832 O1847 1.268 . S
C1833 O1839 1.268 . S
C1833 O1843 1.268 . S
C1834 O1840 1.268 . S
C1834 O1842 1.268 . S
C1835 O1841 1.268 . S
C1835 O1844 1.268 . S
O1836 Sc1826 2.105 . S
O1836 C1830 1.268 . S
O1837 Sc1827 2.105 . S
O1837 C1831 1.268 . S
O1838 Sc1828 2.105 . S
O1838 C1832 1.268 . S
O1839 Sc1826 2.105 . S
O1839 C1833 1.268 . S
O1840 Sc1828 2.105 . S
O1840 C1834 1.268 . S
O1841 Sc1827 2.105 . S
O1841 C1835 1.268 . S
O1842 Sc1826 2.105 . S
O1842 C1834 1.268 . S
O1843 Sc1827 2.105 . S
O1843 C1833 1.268 . S
O1844 Sc1828 2.105 . S
O1844 C1835 1.268 . S
O1845 Sc1826 2.105 . S
O1845 C1831 1.268 . S
O1846 Sc1828 2.105 . S
O1846 C1830 1.268 . S
O1847 Sc1827 2.105 . S
O1847 C1832 1.268 . S
Sc1848 O1851 2.025 . S
Sc1848 O1858 2.105 . S
Sc1848 O1861 2.105 . S
Sc1848 O1864 2.105 . S
Sc1848 O1867 2.105 . S
Sc1849 O1851 2.025 . S
Sc1849 O1859 2.105 . S
Sc1849 O1863 2.105 . S
Sc1849 O1865 2.105 . S
Sc1849 O1869 2.105 . S
Sc1850 O1851 2.025 . S
Sc1850 O1860 2.105 . S
Sc1850 O1862 2.105 . S
Sc1850 O1866 2.105 . S
Sc1850 O1868 2.105 . S
O1851 Sc1848 2.025 . S
O1851 Sc1849 2.025 . S
O1851 Sc1850 2.025 . S
C1852 O1858 1.268 . S
C1852 O1868 1.268 . S
C1853 O1859 1.268 . S
C1853 O1867 1.268 . S
C1854 O1860 1.268 . S
C1854 O1869 1.268 . S
C1855 O1861 1.268 . S
C1855 O1865 1.268 . S
C1856 O1862 1.268 . S
C1856 O1864 1.268 . S
C1857 O1863 1.268 . S
C1857 O1866 1.268 . S
O1858 Sc1848 2.105 . S
O1858 C1852 1.268 . S
O1859 Sc1849 2.105 . S
O1859 C1853 1.268 . S
O1860 Sc1850 2.105 . S
O1860 C1854 1.268 . S
O1861 Sc1848 2.105 . S
O1861 C1855 1.268 . S
O1862 Sc1850 2.105 . S
O1862 C1856 1.268 . S
O1863 Sc1849 2.105 . S
O1863 C1857 1.268 . S
O1864 Sc1848 2.105 . S
O1864 C1856 1.268 . S
O1865 Sc1849 2.105 . S
O1865 C1855 1.268 . S
O1866 Sc1850 2.105 . S
O1866 C1857 1.268 . S
O1867 Sc1848 2.105 . S
O1867 C1853 1.268 . S
O1868 Sc1850 2.105 . S
O1868 C1852 1.268 . S
O1869 Sc1849 2.105 . S
O1869 C1854 1.268 . S
Sc1870 O1873 2.025 . S
Sc1870 O1880 2.105 . S
Sc1870 O1883 2.105 . S
Sc1870 O1886 2.105 . S
Sc1870 O1889 2.105 . S
Sc1871 O1873 2.025 . S
Sc1871 O1881 2.105 . S
Sc1871 O1885 2.105 . S
Sc1871 O1887 2.105 . S
Sc1871 O1891 2.105 . S
Sc1872 O1873 2.025 . S
Sc1872 O1882 2.105 . S
Sc1872 O1884 2.105 . S
Sc1872 O1888 2.105 . S
Sc1872 O1890 2.105 . S
O1873 Sc1870 2.025 . S
O1873 Sc1871 2.025 . S
O1873 Sc1872 2.025 . S
C1874 O1880 1.268 . S
C1874 O1890 1.268 . S
C1875 O1881 1.268 . S
C1875 O1889 1.268 . S
C1876 O1882 1.268 . S
C1876 O1891 1.268 . S
C1877 O1883 1.268 . S
C1877 O1887 1.268 . S
C1878 O1884 1.268 . S
C1878 O1886 1.268 . S
C1879 O1885 1.268 . S
C1879 O1888 1.268 . S
O1880 Sc1870 2.105 . S
O1880 C1874 1.268 . S
O1881 Sc1871 2.105 . S
O1881 C1875 1.268 . S
O1882 Sc1872 2.105 . S
O1882 C1876 1.268 . S
O1883 Sc1870 2.105 . S
O1883 C1877 1.268 . S
O1884 Sc1872 2.105 . S
O1884 C1878 1.268 . S
O1885 Sc1871 2.105 . S
O1885 C1879 1.268 . S
O1886 Sc1870 2.105 . S
O1886 C1878 1.268 . S
O1887 Sc1871 2.105 . S
O1887 C1877 1.268 . S
O1888 Sc1872 2.105 . S
O1888 C1879 1.268 . S
O1889 Sc1870 2.105 . S
O1889 C1875 1.268 . S
O1890 Sc1872 2.105 . S
O1890 C1874 1.268 . S
O1891 Sc1871 2.105 . S
O1891 C1876 1.268 . S
Sc1892 O1895 2.025 . S
Sc1892 O1902 2.105 . S
Sc1892 O1905 2.105 . S
Sc1892 O1908 2.105 . S
Sc1892 O1911 2.105 . S
Sc1893 O1895 2.025 . S
Sc1893 O1903 2.105 . S
Sc1893 O1907 2.105 . S
Sc1893 O1909 2.105 . S
Sc1893 O1913 2.105 . S
Sc1894 O1895 2.025 . S
Sc1894 O1904 2.105 . S
Sc1894 O1906 2.105 . S
Sc1894 O1910 2.105 . S
Sc1894 O1912 2.105 . S
O1895 Sc1892 2.025 . S
O1895 Sc1893 2.025 . S
O1895 Sc1894 2.025 . S
C1896 O1902 1.268 . S
C1896 O1912 1.268 . S
C1897 O1903 1.268 . S
C1897 O1911 1.268 . S
C1898 O1904 1.268 . S
C1898 O1913 1.268 . S
C1899 O1905 1.268 . S
C1899 O1909 1.268 . S
C1900 O1906 1.268 . S
C1900 O1908 1.268 . S
C1901 O1907 1.268 . S
C1901 O1910 1.268 . S
O1902 Sc1892 2.105 . S
O1902 C1896 1.268 . S
O1903 Sc1893 2.105 . S
O1903 C1897 1.268 . S
O1904 Sc1894 2.105 . S
O1904 C1898 1.268 . S
O1905 Sc1892 2.105 . S
O1905 C1899 1.268 . S
O1906 Sc1894 2.105 . S
O1906 C1900 1.268 . S
O1907 Sc1893 2.105 . S
O1907 C1901 1.268 . S
O1908 Sc1892 2.105 . S
O1908 C1900 1.268 . S
O1909 Sc1893 2.105 . S
O1909 C1899 1.268 . S
O1910 Sc1894 2.105 . S
O1910 C1901 1.268 . S
O1911 Sc1892 2.105 . S
O1911 C1897 1.268 . S
O1912 Sc1894 2.105 . S
O1912 C1896 1.268 . S
O1913 Sc1893 2.105 . S
O1913 C1898 1.268 . S
Sc1914 O1917 2.025 . S
Sc1914 O1924 2.105 . S
Sc1914 O1927 2.105 . S
Sc1914 O1930 2.105 . S
Sc1914 O1933 2.105 . S
Sc1915 O1917 2.025 . S
Sc1915 O1925 2.105 . S
Sc1915 O1929 2.105 . S
Sc1915 O1931 2.105 . S
Sc1915 O1935 2.105 . S
Sc1916 O1917 2.025 . S
Sc1916 O1926 2.105 . S
Sc1916 O1928 2.105 . S
Sc1916 O1932 2.105 . S
Sc1916 O1934 2.105 . S
O1917 Sc1914 2.025 . S
O1917 Sc1915 2.025 . S
O1917 Sc1916 2.025 . S
C1918 O1924 1.268 . S
C1918 O1934 1.268 . S
C1919 O1925 1.268 . S
C1919 O1933 1.268 . S
C1920 O1926 1.268 . S
C1920 O1935 1.268 . S
C1921 O1927 1.268 . S
C1921 O1931 1.268 . S
C1922 O1928 1.268 . S
C1922 O1930 1.268 . S
C1923 O1929 1.268 . S
C1923 O1932 1.268 . S
O1924 Sc1914 2.105 . S
O1924 C1918 1.268 . S
O1925 Sc1915 2.105 . S
O1925 C1919 1.268 . S
O1926 Sc1916 2.105 . S
O1926 C1920 1.268 . S
O1927 Sc1914 2.105 . S
O1927 C1921 1.268 . S
O1928 Sc1916 2.105 . S
O1928 C1922 1.268 . S
O1929 Sc1915 2.105 . S
O1929 C1923 1.268 . S
O1930 Sc1914 2.105 . S
O1930 C1922 1.268 . S
O1931 Sc1915 2.105 . S
O1931 C1921 1.268 . S
O1932 Sc1916 2.105 . S
O1932 C1923 1.268 . S
O1933 Sc1914 2.105 . S
O1933 C1919 1.268 . S
O1934 Sc1916 2.105 . S
O1934 C1918 1.268 . S
O1935 Sc1915 2.105 . S
O1935 C1920 1.268 . S
Sc1936 O1939 2.025 . S
Sc1936 O1946 2.105 . S
Sc1936 O1949 2.105 . S
Sc1936 O1952 2.105 . S
Sc1936 O1955 2.105 . S
Sc1937 O1939 2.025 . S
Sc1937 O1947 2.105 . S
Sc1937 O1951 2.105 . S
Sc1937 O1953 2.105 . S
Sc1937 O1957 2.105 . S
Sc1938 O1939 2.025 . S
Sc1938 O1948 2.105 . S
Sc1938 O1950 2.105 . S
Sc1938 O1954 2.105 . S
Sc1938 O1956 2.105 . S
O1939 Sc1936 2.025 . S
O1939 Sc1937 2.025 . S
O1939 Sc1938 2.025 . S
C1940 O1946 1.268 . S
C1940 O1956 1.268 . S
C1941 O1947 1.268 . S
C1941 O1955 1.268 . S
C1942 O1948 1.268 . S
C1942 O1957 1.268 . S
C1943 O1949 1.268 . S
C1943 O1953 1.268 . S
C1944 O1950 1.268 . S
C1944 O1952 1.268 . S
C1945 O1951 1.268 . S
C1945 O1954 1.268 . S
O1946 Sc1936 2.105 . S
O1946 C1940 1.268 . S
O1947 Sc1937 2.105 . S
O1947 C1941 1.268 . S
O1948 Sc1938 2.105 . S
O1948 C1942 1.268 . S
O1949 Sc1936 2.105 . S
O1949 C1943 1.268 . S
O1950 Sc1938 2.105 . S
O1950 C1944 1.268 . S
O1951 Sc1937 2.105 . S
O1951 C1945 1.268 . S
O1952 Sc1936 2.105 . S
O1952 C1944 1.268 . S
O1953 Sc1937 2.105 . S
O1953 C1943 1.268 . S
O1954 Sc1938 2.105 . S
O1954 C1945 1.268 . S
O1955 Sc1936 2.105 . S
O1955 C1941 1.268 . S
O1956 Sc1938 2.105 . S
O1956 C1940 1.268 . S
O1957 Sc1937 2.105 . S
O1957 C1942 1.268 . S
Sc1958 O1961 2.025 . S
Sc1958 O1968 2.105 . S
Sc1958 O1971 2.105 . S
Sc1958 O1974 2.105 . S
Sc1958 O1977 2.105 . S
Sc1959 O1961 2.025 . S
Sc1959 O1969 2.105 . S
Sc1959 O1973 2.105 . S
Sc1959 O1975 2.105 . S
Sc1959 O1979 2.105 . S
Sc1960 O1961 2.025 . S
Sc1960 O1970 2.105 . S
Sc1960 O1972 2.105 . S
Sc1960 O1976 2.105 . S
Sc1960 O1978 2.105 . S
O1961 Sc1958 2.025 . S
O1961 Sc1959 2.025 . S
O1961 Sc1960 2.025 . S
C1962 O1968 1.268 . S
C1962 O1978 1.268 . S
C1963 O1969 1.268 . S
C1963 O1977 1.268 . S
C1964 O1970 1.268 . S
C1964 O1979 1.268 . S
C1965 O1971 1.268 . S
C1965 O1975 1.268 . S
C1966 O1972 1.268 . S
C1966 O1974 1.268 . S
C1967 O1973 1.268 . S
C1967 O1976 1.268 . S
O1968 Sc1958 2.105 . S
O1968 C1962 1.268 . S
O1969 Sc1959 2.105 . S
O1969 C1963 1.268 . S
O1970 Sc1960 2.105 . S
O1970 C1964 1.268 . S
O1971 Sc1958 2.105 . S
O1971 C1965 1.268 . S
O1972 Sc1960 2.105 . S
O1972 C1966 1.268 . S
O1973 Sc1959 2.105 . S
O1973 C1967 1.268 . S
O1974 Sc1958 2.105 . S
O1974 C1966 1.268 . S
O1975 Sc1959 2.105 . S
O1975 C1965 1.268 . S
O1976 Sc1960 2.105 . S
O1976 C1967 1.268 . S
O1977 Sc1958 2.105 . S
O1977 C1963 1.268 . S
O1978 Sc1960 2.105 . S
O1978 C1962 1.268 . S
O1979 Sc1959 2.105 . S
O1979 C1964 1.268 . S
Sc1980 O1983 2.025 . S
Sc1980 O1990 2.105 . S
Sc1980 O1993 2.105 . S
Sc1980 O1996 2.105 . S
Sc1980 O1999 2.105 . S
Sc1981 O1983 2.025 . S
Sc1981 O1991 2.105 . S
Sc1981 O1995 2.105 . S
Sc1981 O1997 2.105 . S
Sc1981 O2001 2.105 . S
Sc1982 O1983 2.025 . S
Sc1982 O1992 2.105 . S
Sc1982 O1994 2.105 . S
Sc1982 O1998 2.105 . S
Sc1982 O2000 2.105 . S
O1983 Sc1980 2.025 . S
O1983 Sc1981 2.025 . S
O1983 Sc1982 2.025 . S
C1984 O1990 1.268 . S
C1984 O2000 1.268 . S
C1985 O1991 1.268 . S
C1985 O1999 1.268 . S
C1986 O1992 1.268 . S
C1986 O2001 1.268 . S
C1987 O1993 1.268 . S
C1987 O1997 1.268 . S
C1988 O1994 1.268 . S
C1988 O1996 1.268 . S
C1989 O1995 1.268 . S
C1989 O1998 1.268 . S
O1990 Sc1980 2.105 . S
O1990 C1984 1.268 . S
O1991 Sc1981 2.105 . S
O1991 C1985 1.268 . S
O1992 Sc1982 2.105 . S
O1992 C1986 1.268 . S
O1993 Sc1980 2.105 . S
O1993 C1987 1.268 . S
O1994 Sc1982 2.105 . S
O1994 C1988 1.268 . S
O1995 Sc1981 2.105 . S
O1995 C1989 1.268 . S
O1996 Sc1980 2.105 . S
O1996 C1988 1.268 . S
O1997 Sc1981 2.105 . S
O1997 C1987 1.268 . S
O1998 Sc1982 2.105 . S
O1998 C1989 1.268 . S
O1999 Sc1980 2.105 . S
O1999 C1985 1.268 . S
O2000 Sc1982 2.105 . S
O2000 C1984 1.268 . S
O2001 Sc1981 2.105 . S
O2001 C1986 1.268 . S
Sc2002 O2005 2.025 . S
Sc2002 O2012 2.105 . S
Sc2002 O2015 2.105 . S
Sc2002 O2018 2.105 . S
Sc2002 O2021 2.105 . S
Sc2003 O2005 2.025 . S
Sc2003 O2013 2.105 . S
Sc2003 O2017 2.105 . S
Sc2003 O2019 2.105 . S
Sc2003 O2023 2.105 . S
Sc2004 O2005 2.025 . S
Sc2004 O2014 2.105 . S
Sc2004 O2016 2.105 . S
Sc2004 O2020 2.105 . S
Sc2004 O2022 2.105 . S
O2005 Sc2002 2.025 . S
O2005 Sc2003 2.025 . S
O2005 Sc2004 2.025 . S
C2006 O2012 1.268 . S
C2006 O2022 1.268 . S
C2007 O2013 1.268 . S
C2007 O2021 1.268 . S
C2008 O2014 1.268 . S
C2008 O2023 1.268 . S
C2009 O2015 1.268 . S
C2009 O2019 1.268 . S
C2010 O2016 1.268 . S
C2010 O2018 1.268 . S
C2011 O2017 1.268 . S
C2011 O2020 1.268 . S
O2012 Sc2002 2.105 . S
O2012 C2006 1.268 . S
O2013 Sc2003 2.105 . S
O2013 C2007 1.268 . S
O2014 Sc2004 2.105 . S
O2014 C2008 1.268 . S
O2015 Sc2002 2.105 . S
O2015 C2009 1.268 . S
O2016 Sc2004 2.105 . S
O2016 C2010 1.268 . S
O2017 Sc2003 2.105 . S
O2017 C2011 1.268 . S
O2018 Sc2002 2.105 . S
O2018 C2010 1.268 . S
O2019 Sc2003 2.105 . S
O2019 C2009 1.268 . S
O2020 Sc2004 2.105 . S
O2020 C2011 1.268 . S
O2021 Sc2002 2.105 . S
O2021 C2007 1.268 . S
O2022 Sc2004 2.105 . S
O2022 C2006 1.268 . S
O2023 Sc2003 2.105 . S
O2023 C2008 1.268 . S
Sc2024 O2027 2.025 . S
Sc2024 O2034 2.105 . S
Sc2024 O2037 2.105 . S
Sc2024 O2040 2.105 . S
Sc2024 O2043 2.105 . S
Sc2025 O2027 2.025 . S
Sc2025 O2035 2.105 . S
Sc2025 O2039 2.105 . S
Sc2025 O2041 2.105 . S
Sc2025 O2045 2.105 1_554 S
Sc2026 O2027 2.025 . S
Sc2026 O2036 2.105 1_554 S
Sc2026 O2038 2.105 . S
Sc2026 O2042 2.105 . S
Sc2026 O2044 2.105 . S
O2027 Sc2024 2.025 . S
O2027 Sc2025 2.025 . S
O2027 Sc2026 2.025 . S
C2028 O2034 1.268 . S
C2028 O2044 1.268 . S
C2029 O2035 1.268 . S
C2029 O2043 1.268 . S
C2030 O2036 1.268 . S
C2030 O2045 1.268 . S
C2031 O2037 1.268 . S
C2031 O2041 1.268 . S
C2032 O2038 1.268 . S
C2032 O2040 1.268 . S
C2033 O2039 1.268 . S
C2033 O2042 1.268 . S
O2034 Sc2024 2.105 . S
O2034 C2028 1.268 . S
O2035 Sc2025 2.105 . S
O2035 C2029 1.268 . S
O2036 Sc2026 2.105 1_556 S
O2036 C2030 1.268 . S
O2037 Sc2024 2.105 . S
O2037 C2031 1.268 . S
O2038 Sc2026 2.105 . S
O2038 C2032 1.268 . S
O2039 Sc2025 2.105 . S
O2039 C2033 1.268 . S
O2040 Sc2024 2.105 . S
O2040 C2032 1.268 . S
O2041 Sc2025 2.105 . S
O2041 C2031 1.268 . S
O2042 Sc2026 2.105 . S
O2042 C2033 1.268 . S
O2043 Sc2024 2.105 . S
O2043 C2029 1.268 . S
O2044 Sc2026 2.105 . S
O2044 C2028 1.268 . S
O2045 Sc2025 2.105 1_556 S
O2045 C2030 1.268 . S
Sc2046 O2049 2.025 . S
Sc2046 O2056 2.105 . S
Sc2046 O2059 2.105 . S
Sc2046 O2062 2.105 . S
Sc2046 O2065 2.105 . S
Sc2047 O2049 2.025 . S
Sc2047 O2057 2.105 . S
Sc2047 O2061 2.105 . S
Sc2047 O2063 2.105 . S
Sc2047 O2067 2.105 . S
Sc2048 O2049 2.025 . S
Sc2048 O2058 2.105 . S
Sc2048 O2060 2.105 . S
Sc2048 O2064 2.105 . S
Sc2048 O2066 2.105 . S
O2049 Sc2046 2.025 . S
O2049 Sc2047 2.025 . S
O2049 Sc2048 2.025 . S
C2050 O2056 1.268 . S
C2050 O2066 1.268 . S
C2051 O2057 1.268 . S
C2051 O2065 1.268 . S
C2052 O2058 1.268 . S
C2052 O2067 1.268 . S
C2053 O2059 1.268 . S
C2053 O2063 1.268 . S
C2054 O2060 1.268 . S
C2054 O2062 1.268 . S
C2055 O2061 1.268 . S
C2055 O2064 1.268 . S
O2056 Sc2046 2.105 . S
O2056 C2050 1.268 . S
O2057 Sc2047 2.105 . S
O2057 C2051 1.268 . S
O2058 Sc2048 2.105 . S
O2058 C2052 1.268 . S
O2059 Sc2046 2.105 . S
O2059 C2053 1.268 . S
O2060 Sc2048 2.105 . S
O2060 C2054 1.268 . S
O2061 Sc2047 2.105 . S
O2061 C2055 1.268 . S
O2062 Sc2046 2.105 . S
O2062 C2054 1.268 . S
O2063 Sc2047 2.105 . S
O2063 C2053 1.268 . S
O2064 Sc2048 2.105 . S
O2064 C2055 1.268 . S
O2065 Sc2046 2.105 . S
O2065 C2051 1.268 . S
O2066 Sc2048 2.105 . S
O2066 C2050 1.268 . S
O2067 Sc2047 2.105 . S
O2067 C2052 1.268 . S
Sc2068 O2071 2.025 . S
Sc2068 O2078 2.105 . S
Sc2068 O2081 2.105 . S
Sc2068 O2084 2.105 . S
Sc2068 O2087 2.105 . S
Sc2069 O2071 2.025 . S
Sc2069 O2079 2.105 . S
Sc2069 O2083 2.105 . S
Sc2069 O2085 2.105 . S
Sc2069 O2089 2.105 . S
Sc2070 O2071 2.025 . S
Sc2070 O2080 2.105 . S
Sc2070 O2082 2.105 . S
Sc2070 O2086 2.105 . S
Sc2070 O2088 2.105 . S
O2071 Sc2068 2.025 . S
O2071 Sc2069 2.025 . S
O2071 Sc2070 2.025 . S
C2072 O2078 1.268 . S
C2072 O2088 1.268 . S
C2073 O2079 1.268 . S
C2073 O2087 1.268 . S
C2074 O2080 1.268 . S
C2074 O2089 1.268 . S
C2075 O2081 1.268 . S
C2075 O2085 1.268 . S
C2076 O2082 1.268 . S
C2076 O2084 1.268 . S
C2077 O2083 1.268 . S
C2077 O2086 1.268 . S
O2078 Sc2068 2.105 . S
O2078 C2072 1.268 . S
O2079 Sc2069 2.105 . S
O2079 C2073 1.268 . S
O2080 Sc2070 2.105 . S
O2080 C2074 1.268 . S
O2081 Sc2068 2.105 . S
O2081 C2075 1.268 . S
O2082 Sc2070 2.105 . S
O2082 C2076 1.268 . S
O2083 Sc2069 2.105 . S
O2083 C2077 1.268 . S
O2084 Sc2068 2.105 . S
O2084 C2076 1.268 . S
O2085 Sc2069 2.105 . S
O2085 C2075 1.268 . S
O2086 Sc2070 2.105 . S
O2086 C2077 1.268 . S
O2087 Sc2068 2.105 . S
O2087 C2073 1.268 . S
O2088 Sc2070 2.105 . S
O2088 C2072 1.268 . S
O2089 Sc2069 2.105 . S
O2089 C2074 1.268 . S
Sc2090 O2093 2.025 . S
Sc2090 O2100 2.105 . S
Sc2090 O2103 2.105 . S
Sc2090 O2106 2.105 . S
Sc2090 O2109 2.105 . S
Sc2091 O2093 2.025 . S
Sc2091 O2101 2.105 . S
Sc2091 O2105 2.105 . S
Sc2091 O2107 2.105 . S
Sc2091 O2111 2.105 . S
Sc2092 O2093 2.025 . S
Sc2092 O2102 2.105 . S
Sc2092 O2104 2.105 . S
Sc2092 O2108 2.105 . S
Sc2092 O2110 2.105 . S
O2093 Sc2090 2.025 . S
O2093 Sc2091 2.025 . S
O2093 Sc2092 2.025 . S
C2094 O2100 1.268 . S
C2094 O2110 1.268 . S
C2095 O2101 1.268 . S
C2095 O2109 1.268 . S
C2096 O2102 1.268 . S
C2096 O2111 1.268 . S
C2097 O2103 1.268 . S
C2097 O2107 1.268 . S
C2098 O2104 1.268 . S
C2098 O2106 1.268 . S
C2099 O2105 1.268 . S
C2099 O2108 1.268 . S
O2100 Sc2090 2.105 . S
O2100 C2094 1.268 . S
O2101 Sc2091 2.105 . S
O2101 C2095 1.268 . S
O2102 Sc2092 2.105 . S
O2102 C2096 1.268 . S
O2103 Sc2090 2.105 . S
O2103 C2097 1.268 . S
O2104 Sc2092 2.105 . S
O2104 C2098 1.268 . S
O2105 Sc2091 2.105 . S
O2105 C2099 1.268 . S
O2106 Sc2090 2.105 . S
O2106 C2098 1.268 . S
O2107 Sc2091 2.105 . S
O2107 C2097 1.268 . S
O2108 Sc2092 2.105 . S
O2108 C2099 1.268 . S
O2109 Sc2090 2.105 . S
O2109 C2095 1.268 . S
O2110 Sc2092 2.105 . S
O2110 C2094 1.268 . S
O2111 Sc2091 2.105 . S
O2111 C2096 1.268 . S
C2112 C2113 1.387 . S
C2112 H2116 0.950 . S
C2112 C2121 1.390 . S
C2113 C2112 1.387 . S
C2113 C2115 1.387 . S
H2114 C2121 0.950 . S
C2115 C2113 1.387 . S
C2115 C2117 1.390 . S
C2115 H2119 0.950 . S
H2116 C2112 0.950 . S
C2117 C2115 1.390 . S
C2117 C2118 1.387 . S
C2117 H2120 0.950 . S
C2118 C2117 1.387 . S
C2118 C2121 1.387 . S
H2119 C2115 0.950 . S
H2120 C2117 0.950 . S
C2121 C2112 1.390 . S
C2121 H2114 0.950 . S
C2121 C2118 1.387 . S
C2122 C2123 1.387 . S
C2122 H2126 0.950 . S
C2122 C2131 1.390 . S
C2123 C2122 1.387 . S
C2123 C2125 1.387 . S
H2124 C2131 0.950 . S
C2125 C2123 1.387 . S
C2125 C2127 1.390 . S
C2125 H2129 0.950 . S
H2126 C2122 0.950 . S
C2127 C2125 1.390 . S
C2127 C2128 1.387 . S
C2127 H2130 0.950 . S
C2128 C2127 1.387 . S
C2128 C2131 1.387 . S
H2129 C2125 0.950 . S
H2130 C2127 0.950 . S
C2131 C2122 1.390 . S
C2131 H2124 0.950 . S
C2131 C2128 1.387 . S
C2132 C2133 1.387 . S
C2132 H2136 0.950 . S
C2132 C2141 1.390 . S
C2133 C2132 1.387 . S
C2133 C2135 1.387 . S
H2134 C2141 0.950 . S
C2135 C2133 1.387 . S
C2135 C2137 1.390 . S
C2135 H2139 0.950 . S
H2136 C2132 0.950 . S
C2137 C2135 1.390 . S
C2137 C2138 1.387 . S
C2137 H2140 0.950 . S
C2138 C2137 1.387 . S
C2138 C2141 1.387 . S
H2139 C2135 0.950 . S
H2140 C2137 0.950 . S
C2141 C2132 1.390 . S
C2141 H2134 0.950 . S
C2141 C2138 1.387 . S
C2142 C2143 1.393 . S
C2142 H2146 0.944 1_545 S
C2142 C2151 1.390 . S
C2143 C2142 1.393 . S
C2143 C2145 1.387 . S
H2144 C2151 0.944 1_565 S
C2145 C2143 1.387 . S
C2145 C2147 1.390 . S
C2145 H2149 0.950 . S
H2146 C2142 0.944 1_565 S
C2147 C2145 1.390 . S
C2147 C2148 1.387 . S
C2147 H2150 0.950 . S
C2148 C2147 1.387 . S
C2148 C2151 1.393 . S
H2149 C2145 0.950 . S
H2150 C2147 0.950 . S
C2151 C2142 1.390 . S
C2151 H2144 0.944 1_545 S
C2151 C2148 1.393 . S
C2152 C2153 1.387 . S
C2152 H2156 0.950 . S
C2152 C2161 1.390 . S
C2153 C2152 1.387 . S
C2153 C2155 1.387 . S
H2154 C2161 0.950 . S
C2155 C2153 1.387 . S
C2155 C2157 1.390 . S
C2155 H2159 0.950 . S
H2156 C2152 0.950 . S
C2157 C2155 1.390 . S
C2157 C2158 1.387 . S
C2157 H2160 0.950 . S
C2158 C2157 1.387 . S
C2158 C2161 1.387 . S
H2159 C2155 0.950 . S
H2160 C2157 0.950 . S
C2161 C2152 1.390 . S
C2161 H2154 0.950 . S
C2161 C2158 1.387 . S
C2162 C2163 1.387 . S
C2162 H2166 0.950 . S
C2162 C2171 1.390 . S
C2163 C2162 1.387 . S
C2163 C2165 1.387 . S
H2164 C2171 0.950 . S
C2165 C2163 1.387 . S
C2165 C2167 1.390 . S
C2165 H2169 0.950 . S
H2166 C2162 0.950 . S
C2167 C2165 1.390 . S
C2167 C2168 1.387 . S
C2167 H2170 0.950 . S
C2168 C2167 1.387 . S
C2168 C2171 1.387 . S
H2169 C2165 0.950 . S
H2170 C2167 0.950 . S
C2171 C2162 1.390 . S
C2171 H2164 0.950 . S
C2171 C2168 1.387 . S
C2172 C2173 1.387 . S
C2172 H2176 0.950 . S
C2172 C2181 1.390 . S
C2173 C2172 1.387 . S
C2173 C2175 1.387 . S
H2174 C2181 0.950 . S
C2175 C2173 1.387 . S
C2175 C2177 1.390 . S
C2175 H2179 0.950 . S
H2176 C2172 0.950 . S
C2177 C2175 1.390 . S
C2177 C2178 1.387 . S
C2177 H2180 0.950 . S
C2178 C2177 1.387 . S
C2178 C2181 1.387 . S
H2179 C2175 0.950 . S
H2180 C2177 0.950 . S
C2181 C2172 1.390 . S
C2181 H2174 0.950 . S
C2181 C2178 1.387 . S
C2182 C2183 1.387 . S
C2182 H2186 0.950 . S
C2182 C2191 1.390 . S
C2183 C2182 1.387 . S
C2183 C2185 1.393 . S
H2184 C2191 0.950 . S
C2185 C2183 1.393 . S
C2185 C2187 1.390 . S
C2185 H2189 0.944 1_545 S
H2186 C2182 0.950 . S
C2187 C2185 1.390 . S
C2187 C2188 1.393 . S
C2187 H2190 0.944 1_545 S
C2188 C2187 1.393 . S
C2188 C2191 1.387 . S
H2189 C2185 0.944 1_565 S
H2190 C2187 0.944 1_565 S
C2191 C2182 1.390 . S
C2191 H2184 0.950 . S
C2191 C2188 1.387 . S
C2192 C2193 1.387 . S
C2192 H2196 0.950 . S
C2192 C2201 1.390 . S
C2193 C2192 1.387 . S
C2193 C2195 1.387 . S
H2194 C2201 0.950 . S
C2195 C2193 1.387 . S
C2195 C2197 1.390 . S
C2195 H2199 0.950 . S
H2196 C2192 0.950 . S
C2197 C2195 1.390 . S
C2197 C2198 1.387 . S
C2197 H2200 0.950 . S
C2198 C2197 1.387 . S
C2198 C2201 1.387 . S
H2199 C2195 0.950 . S
H2200 C2197 0.950 . S
C2201 C2192 1.390 . S
C2201 H2194 0.950 . S
C2201 C2198 1.387 . S
C2202 C2203 1.393 . S
C2202 H2206 0.944 1_455 S
C2202 C2211 1.390 . S
C2203 C2202 1.393 . S
C2203 C2205 1.387 . S
H2204 C2211 0.944 1_655 S
C2205 C2203 1.387 . S
C2205 C2207 1.390 . S
C2205 H2209 0.950 . S
H2206 C2202 0.944 1_655 S
C2207 C2205 1.390 . S
C2207 C2208 1.387 . S
C2207 H2210 0.950 . S
C2208 C2207 1.387 . S
C2208 C2211 1.393 . S
H2209 C2205 0.950 . S
H2210 C2207 0.950 . S
C2211 C2202 1.390 . S
C2211 H2204 0.944 1_455 S
C2211 C2208 1.393 . S
C2212 C2213 1.387 . S
C2212 H2216 0.950 . S
C2212 C2221 1.390 . S
C2213 C2212 1.387 . S
C2213 C2215 1.387 . S
H2214 C2221 0.950 . S
C2215 C2213 1.387 . S
C2215 C2217 1.390 . S
C2215 H2219 0.950 . S
H2216 C2212 0.950 . S
C2217 C2215 1.390 . S
C2217 C2218 1.387 . S
C2217 H2220 0.950 . S
C2218 C2217 1.387 . S
C2218 C2221 1.387 . S
H2219 C2215 0.950 . S
H2220 C2217 0.950 . S
C2221 C2212 1.390 . S
C2221 H2214 0.950 . S
C2221 C2218 1.387 . S
C2222 C2223 1.387 . S
C2222 H2226 0.950 . S
C2222 C2231 1.390 . S
C2223 C2222 1.387 . S
C2223 C2225 1.387 . S
H2224 C2231 0.950 . S
C2225 C2223 1.387 . S
C2225 C2227 1.390 . S
C2225 H2229 0.950 . S
H2226 C2222 0.950 . S
C2227 C2225 1.390 . S
C2227 C2228 1.387 . S
C2227 H2230 0.950 . S
C2228 C2227 1.387 . S
C2228 C2231 1.387 . S
H2229 C2225 0.950 . S
H2230 C2227 0.950 . S
C2231 C2222 1.390 . S
C2231 H2224 0.950 . S
C2231 C2228 1.387 . S
C2232 C2233 1.387 . S
C2232 H2236 0.950 . S
C2232 C2241 1.390 . S
C2233 C2232 1.387 . S
C2233 C2235 1.387 . S
H2234 C2241 0.950 . S
C2235 C2233 1.387 . S
C2235 C2237 1.390 . S
C2235 H2239 0.950 . S
H2236 C2232 0.950 . S
C2237 C2235 1.390 . S
C2237 C2238 1.387 . S
C2237 H2240 0.950 . S
C2238 C2237 1.387 . S
C2238 C2241 1.387 . S
H2239 C2235 0.950 . S
H2240 C2237 0.950 . S
C2241 C2232 1.390 . S
C2241 H2234 0.950 . S
C2241 C2238 1.387 . S
C2242 C2243 1.387 . S
C2242 H2246 0.950 . S
C2242 C2251 1.390 . S
C2243 C2242 1.387 . S
C2243 C2245 1.387 . S
H2244 C2251 0.950 . S
C2245 C2243 1.387 . S
C2245 C2247 1.390 . S
C2245 H2249 0.950 . S
H2246 C2242 0.950 . S
C2247 C2245 1.390 . S
C2247 C2248 1.387 . S
C2247 H2250 0.950 . S
C2248 C2247 1.387 . S
C2248 C2251 1.387 . S
H2249 C2245 0.950 . S
H2250 C2247 0.950 . S
C2251 C2242 1.390 . S
C2251 H2244 0.950 . S
C2251 C2248 1.387 . S
C2252 C2253 1.387 . S
C2252 H2256 0.950 . S
C2252 C2261 1.390 . S
C2253 C2252 1.387 . S
C2253 C2255 1.387 . S
H2254 C2261 0.950 . S
C2255 C2253 1.387 . S
C2255 C2257 1.390 . S
C2255 H2259 0.950 . S
H2256 C2252 0.950 . S
C2257 C2255 1.390 . S
C2257 C2258 1.387 . S
C2257 H2260 0.950 . S
C2258 C2257 1.387 . S
C2258 C2261 1.387 . S
H2259 C2255 0.950 . S
H2260 C2257 0.950 . S
C2261 C2252 1.390 . S
C2261 H2254 0.950 . S
C2261 C2258 1.387 . S
C2262 C2263 1.387 . S
C2262 H2266 0.950 . S
C2262 C2271 1.390 . S
C2263 C2262 1.387 . S
C2263 C2265 1.393 . S
H2264 C2271 0.950 . S
C2265 C2263 1.393 . S
C2265 C2267 1.390 . S
C2265 H2269 0.944 1_455 S
H2266 C2262 0.950 . S
C2267 C2265 1.390 . S
C2267 C2268 1.393 . S
C2267 H2270 0.944 1_455 S
C2268 C2267 1.393 . S
C2268 C2271 1.387 . S
H2269 C2265 0.944 1_655 S
H2270 C2267 0.944 1_655 S
C2271 C2262 1.390 . S
C2271 H2264 0.950 . S
C2271 C2268 1.387 . S
C2272 C2273 1.387 . S
C2272 H2276 0.950 . S
C2272 C2281 1.390 . S
C2273 C2272 1.387 . S
C2273 C2275 1.387 . S
H2274 C2281 0.950 . S
C2275 C2273 1.387 . S
C2275 C2277 1.390 . S
C2275 H2279 0.950 . S
H2276 C2272 0.950 . S
C2277 C2275 1.390 . S
C2277 C2278 1.387 . S
C2277 H2280 0.950 . S
C2278 C2277 1.387 . S
C2278 C2281 1.387 . S
H2279 C2275 0.950 . S
H2280 C2277 0.950 . S
C2281 C2272 1.390 . S
C2281 H2274 0.950 . S
C2281 C2278 1.387 . S
C2282 C2283 1.387 . S
C2282 H2286 0.950 . S
C2282 C2291 1.390 . S
C2283 C2282 1.387 . S
C2283 C2285 1.387 . S
H2284 C2291 0.950 . S
C2285 C2283 1.387 . S
C2285 C2287 1.390 . S
C2285 H2289 0.950 . S
H2286 C2282 0.950 . S
C2287 C2285 1.390 . S
C2287 C2288 1.387 . S
C2287 H2290 0.950 . S
C2288 C2287 1.387 . S
C2288 C2291 1.387 . S
H2289 C2285 0.950 . S
H2290 C2287 0.950 . S
C2291 C2282 1.390 . S
C2291 H2284 0.950 . S
C2291 C2288 1.387 . S
C2292 C2293 1.387 . S
C2292 H2296 0.950 . S
C2292 C2301 1.390 . S
C2293 C2292 1.387 . S
C2293 C2295 1.387 . S
H2294 C2301 0.950 . S
C2295 C2293 1.387 . S
C2295 C2297 1.390 . S
C2295 H2299 0.950 . S
H2296 C2292 0.950 . S
C2297 C2295 1.390 . S
C2297 C2298 1.387 . S
C2297 H2300 0.950 . S
C2298 C2297 1.387 . S
C2298 C2301 1.387 . S
H2299 C2295 0.950 . S
H2300 C2297 0.950 . S
C2301 C2292 1.390 . S
C2301 H2294 0.950 . S
C2301 C2298 1.387 . S
C2302 C2303 1.387 . S
C2302 H2306 0.950 . S
C2302 C2311 1.390 . S
C2303 C2302 1.387 . S
C2303 C2305 1.387 . S
H2304 C2311 0.950 . S
C2305 C2303 1.387 . S
C2305 C2307 1.390 . S
C2305 H2309 0.950 . S
H2306 C2302 0.950 . S
C2307 C2305 1.390 . S
C2307 C2308 1.387 . S
C2307 H2310 0.950 . S
C2308 C2307 1.387 . S
C2308 C2311 1.387 . S
H2309 C2305 0.950 . S
H2310 C2307 0.950 . S
C2311 C2302 1.390 . S
C2311 H2304 0.950 . S
C2311 C2308 1.387 . S
C2312 C2313 1.387 . S
C2312 H2316 0.950 . S
C2312 C2321 1.390 . S
C2313 C2312 1.387 . S
C2313 C2315 1.387 . S
H2314 C2321 0.950 . S
C2315 C2313 1.387 . S
C2315 C2317 1.390 . S
C2315 H2319 0.950 . S
H2316 C2312 0.950 . S
C2317 C2315 1.390 . S
C2317 C2318 1.387 . S
C2317 H2320 0.950 . S
C2318 C2317 1.387 . S
C2318 C2321 1.387 . S
H2319 C2315 0.950 . S
H2320 C2317 0.950 . S
C2321 C2312 1.390 . S
C2321 H2314 0.950 . S
C2321 C2318 1.387 . S
C2322 C2323 1.387 . S
C2322 H2326 0.950 . S
C2322 C2331 1.390 . S
C2323 C2322 1.387 . S
C2323 C2325 1.387 . S
H2324 C2331 0.950 . S
C2325 C2323 1.387 . S
C2325 C2327 1.390 . S
C2325 H2329 0.950 . S
H2326 C2322 0.950 . S
C2327 C2325 1.390 . S
C2327 C2328 1.387 . S
C2327 H2330 0.950 . S
C2328 C2327 1.387 . S
C2328 C2331 1.387 . S
H2329 C2325 0.950 . S
H2330 C2327 0.950 . S
C2331 C2322 1.390 . S
C2331 H2324 0.950 . S
C2331 C2328 1.387 . S
C2332 C2333 1.387 . S
C2332 H2336 0.950 . S
C2332 C2341 1.390 . S
C2333 C2332 1.387 . S
C2333 C2335 1.387 . S
H2334 C2341 0.950 . S
C2335 C2333 1.387 . S
C2335 C2337 1.390 . S
C2335 H2339 0.950 . S
H2336 C2332 0.950 . S
C2337 C2335 1.390 . S
C2337 C2338 1.387 . S
C2337 H2340 0.950 . S
C2338 C2337 1.387 . S
C2338 C2341 1.387 . S
H2339 C2335 0.950 . S
H2340 C2337 0.950 . S
C2341 C2332 1.390 . S
C2341 H2334 0.950 . S
C2341 C2338 1.387 . S
C2342 C2343 1.387 . S
C2342 H2346 0.950 . S
C2342 C2351 1.390 . S
C2343 C2342 1.387 . S
C2343 C2345 1.387 . S
H2344 C2351 0.950 . S
C2345 C2343 1.387 . S
C2345 C2347 1.390 . S
C2345 H2349 0.950 . S
H2346 C2342 0.950 . S
C2347 C2345 1.390 . S
C2347 C2348 1.387 . S
C2347 H2350 0.950 . S
C2348 C2347 1.387 . S
C2348 C2351 1.387 . S
H2349 C2345 0.950 . S
H2350 C2347 0.950 . S
C2351 C2342 1.390 . S
C2351 H2344 0.950 . S
C2351 C2348 1.387 . S
C2352 C2353 1.393 . S
C2352 H2356 0.944 1_455 S
C2352 C2361 1.390 . S
C2353 C2352 1.393 . S
C2353 C2355 1.387 . S
H2354 C2361 0.944 1_655 S
C2355 C2353 1.387 . S
C2355 C2357 1.390 . S
C2355 H2359 0.950 . S
H2356 C2352 0.944 1_655 S
C2357 C2355 1.390 . S
C2357 C2358 1.387 . S
C2357 H2360 0.950 . S
C2358 C2357 1.387 . S
C2358 C2361 1.393 . S
H2359 C2355 0.950 . S
H2360 C2357 0.950 . S
C2361 C2352 1.390 . S
C2361 H2354 0.944 1_455 S
C2361 C2358 1.393 . S
C2362 C2363 1.387 . S
C2362 H2366 0.950 . S
C2362 C2371 1.390 . S
C2363 C2362 1.387 . S
C2363 C2365 1.387 . S
H2364 C2371 0.950 . S
C2365 C2363 1.387 . S
C2365 C2367 1.390 . S
C2365 H2369 0.950 . S
H2366 C2362 0.950 . S
C2367 C2365 1.390 . S
C2367 C2368 1.387 . S
C2367 H2370 0.950 . S
C2368 C2367 1.387 . S
C2368 C2371 1.387 . S
H2369 C2365 0.950 . S
H2370 C2367 0.950 . S
C2371 C2362 1.390 . S
C2371 H2364 0.950 . S
C2371 C2368 1.387 . S
C2372 C2373 1.387 . S
C2372 H2376 0.950 . S
C2372 C2381 1.390 . S
C2373 C2372 1.387 . S
C2373 C2375 1.387 . S
H2374 C2381 0.950 . S
C2375 C2373 1.387 . S
C2375 C2377 1.390 . S
C2375 H2379 0.950 . S
H2376 C2372 0.950 . S
C2377 C2375 1.390 . S
C2377 C2378 1.387 . S
C2377 H2380 0.950 . S
C2378 C2377 1.387 . S
C2378 C2381 1.387 . S
H2379 C2375 0.950 . S
H2380 C2377 0.950 . S
C2381 C2372 1.390 . S
C2381 H2374 0.950 . S
C2381 C2378 1.387 . S
C2382 C2383 1.387 . S
C2382 H2386 0.950 . S
C2382 C2391 1.390 . S
C2383 C2382 1.387 . S
C2383 C2385 1.387 . S
H2384 C2391 0.950 . S
C2385 C2383 1.387 . S
C2385 C2387 1.390 . S
C2385 H2389 0.950 . S
H2386 C2382 0.950 . S
C2387 C2385 1.390 . S
C2387 C2388 1.387 . S
C2387 H2390 0.950 . S
C2388 C2387 1.387 . S
C2388 C2391 1.387 . S
H2389 C2385 0.950 . S
H2390 C2387 0.950 . S
C2391 C2382 1.390 . S
C2391 H2384 0.950 . S
C2391 C2388 1.387 . S
C2392 C2393 1.387 . S
C2392 H2396 0.950 . S
C2392 C2401 1.390 . S
C2393 C2392 1.387 . S
C2393 C2395 1.387 . S
H2394 C2401 0.950 . S
C2395 C2393 1.387 . S
C2395 C2397 1.390 . S
C2395 H2399 0.950 . S
H2396 C2392 0.950 . S
C2397 C2395 1.390 . S
C2397 C2398 1.387 . S
C2397 H2400 0.950 . S
C2398 C2397 1.387 . S
C2398 C2401 1.387 . S
H2399 C2395 0.950 . S
H2400 C2397 0.950 . S
C2401 C2392 1.390 . S
C2401 H2394 0.950 . S
C2401 C2398 1.387 . S
C2402 C2403 1.387 . S
C2402 H2406 0.950 . S
C2402 C2411 1.390 . S
C2403 C2402 1.387 . S
C2403 C2405 1.387 . S
H2404 C2411 0.950 . S
C2405 C2403 1.387 . S
C2405 C2407 1.390 . S
C2405 H2409 0.950 . S
H2406 C2402 0.950 . S
C2407 C2405 1.390 . S
C2407 C2408 1.387 . S
C2407 H2410 0.950 . S
C2408 C2407 1.387 . S
C2408 C2411 1.387 . S
H2409 C2405 0.950 . S
H2410 C2407 0.950 . S
C2411 C2402 1.390 . S
C2411 H2404 0.950 . S
C2411 C2408 1.387 . S
C2412 C2413 1.387 . S
C2412 H2416 0.950 . S
C2412 C2421 1.390 . S
C2413 C2412 1.387 . S
C2413 C2415 1.393 . S
H2414 C2421 0.950 . S
C2415 C2413 1.393 . S
C2415 C2417 1.390 . S
C2415 H2419 0.944 1_545 S
H2416 C2412 0.950 . S
C2417 C2415 1.390 . S
C2417 C2418 1.393 . S
C2417 H2420 0.944 1_545 S
C2418 C2417 1.393 . S
C2418 C2421 1.387 . S
H2419 C2415 0.944 1_565 S
H2420 C2417 0.944 1_565 S
C2421 C2412 1.390 . S
C2421 H2414 0.950 . S
C2421 C2418 1.387 . S
C2422 C2423 1.387 . S
C2422 H2426 0.950 . S
C2422 C2431 1.390 . S
C2423 C2422 1.387 . S
C2423 C2425 1.387 . S
H2424 C2431 0.950 . S
C2425 C2423 1.387 . S
C2425 C2427 1.390 . S
C2425 H2429 0.950 . S
H2426 C2422 0.950 . S
C2427 C2425 1.390 . S
C2427 C2428 1.387 . S
C2427 H2430 0.950 . S
C2428 C2427 1.387 . S
C2428 C2431 1.387 . S
H2429 C2425 0.950 . S
H2430 C2427 0.950 . S
C2431 C2422 1.390 . S
C2431 H2424 0.950 . S
C2431 C2428 1.387 . S
C2432 C2433 1.387 . S
C2432 H2436 0.950 . S
C2432 C2441 1.390 . S
C2433 C2432 1.387 . S
C2433 C2435 1.387 . S
H2434 C2441 0.950 . S
C2435 C2433 1.387 . S
C2435 C2437 1.390 . S
C2435 H2439 0.950 . S
H2436 C2432 0.950 . S
C2437 C2435 1.390 . S
C2437 C2438 1.387 . S
C2437 H2440 0.950 . S
C2438 C2437 1.387 . S
C2438 C2441 1.387 . S
H2439 C2435 0.950 . S
H2440 C2437 0.950 . S
C2441 C2432 1.390 . S
C2441 H2434 0.950 . S
C2441 C2438 1.387 . S
C2442 C2443 1.387 . S
C2442 H2446 0.950 . S
C2442 C2451 1.390 . S
C2443 C2442 1.387 . S
C2443 C2445 1.387 . S
H2444 C2451 0.950 . S
C2445 C2443 1.387 . S
C2445 C2447 1.390 . S
C2445 H2449 0.950 . S
H2446 C2442 0.950 . S
C2447 C2445 1.390 . S
C2447 C2448 1.387 . S
C2447 H2450 0.950 . S
C2448 C2447 1.387 . S
C2448 C2451 1.387 . S
H2449 C2445 0.950 . S
H2450 C2447 0.950 . S
C2451 C2442 1.390 . S
C2451 H2444 0.950 . S
C2451 C2448 1.387 . S
C2452 C2453 1.387 . S
C2452 H2456 0.950 . S
C2452 C2461 1.390 . S
C2453 C2452 1.387 . S
C2453 C2455 1.387 . S
H2454 C2461 0.950 . S
C2455 C2453 1.387 . S
C2455 C2457 1.390 . S
C2455 H2459 0.950 . S
H2456 C2452 0.950 . S
C2457 C2455 1.390 . S
C2457 C2458 1.387 . S
C2457 H2460 0.950 . S
C2458 C2457 1.387 . S
C2458 C2461 1.387 . S
H2459 C2455 0.950 . S
H2460 C2457 0.950 . S
C2461 C2452 1.390 . S
C2461 H2454 0.950 . S
C2461 C2458 1.387 . S
C2462 C2463 1.387 . S
C2462 H2466 0.950 . S
C2462 C2471 1.390 . S
C2463 C2462 1.387 . S
C2463 C2465 1.387 . S
H2464 C2471 0.950 . S
C2465 C2463 1.387 . S
C2465 C2467 1.390 . S
C2465 H2469 0.950 . S
H2466 C2462 0.950 . S
C2467 C2465 1.390 . S
C2467 C2468 1.387 . S
C2467 H2470 0.950 . S
C2468 C2467 1.387 . S
C2468 C2471 1.387 . S
H2469 C2465 0.950 . S
H2470 C2467 0.950 . S
C2471 C2462 1.390 . S
C2471 H2464 0.950 . S
C2471 C2468 1.387 . S
C2472 C2473 1.393 . S
C2472 H2476 0.944 1_554 S
C2472 C2481 1.390 . S
C2473 C2472 1.393 . S
C2473 C2475 1.387 . S
H2474 C2481 0.944 1_556 S
C2475 C2473 1.387 . S
C2475 C2477 1.390 . S
C2475 H2479 0.950 . S
H2476 C2472 0.944 1_556 S
C2477 C2475 1.390 . S
C2477 C2478 1.387 . S
C2477 H2480 0.950 . S
C2478 C2477 1.387 . S
C2478 C2481 1.393 . S
H2479 C2475 0.950 . S
H2480 C2477 0.950 . S
C2481 C2472 1.390 . S
C2481 H2474 0.944 1_554 S
C2481 C2478 1.393 . S
C2482 C2483 1.387 . S
C2482 H2486 0.950 . S
C2482 C2491 1.390 . S
C2483 C2482 1.387 . S
C2483 C2485 1.387 . S
H2484 C2491 0.950 . S
C2485 C2483 1.387 . S
C2485 C2487 1.390 . S
C2485 H2489 0.950 . S
H2486 C2482 0.950 . S
C2487 C2485 1.390 . S
C2487 C2488 1.387 . S
C2487 H2490 0.950 . S
C2488 C2487 1.387 . S
C2488 C2491 1.387 . S
H2489 C2485 0.950 . S
H2490 C2487 0.950 . S
C2491 C2482 1.390 . S
C2491 H2484 0.950 . S
C2491 C2488 1.387 . S
C2492 C2493 1.387 . S
C2492 H2496 0.950 . S
C2492 C2501 1.390 . S
C2493 C2492 1.387 . S
C2493 C2495 1.387 . S
H2494 C2501 0.950 . S
C2495 C2493 1.387 . S
C2495 C2497 1.390 . S
C2495 H2499 0.950 . S
H2496 C2492 0.950 . S
C2497 C2495 1.390 . S
C2497 C2498 1.387 . S
C2497 H2500 0.950 . S
C2498 C2497 1.387 . S
C2498 C2501 1.387 . S
H2499 C2495 0.950 . S
H2500 C2497 0.950 . S
C2501 C2492 1.390 . S
C2501 H2494 0.950 . S
C2501 C2498 1.387 . S
C2502 C2503 1.387 . S
C2502 H2506 0.950 . S
C2502 C2511 1.390 . S
C2503 C2502 1.387 . S
C2503 C2505 1.387 . S
H2504 C2511 0.950 . S
C2505 C2503 1.387 . S
C2505 C2507 1.390 . S
C2505 H2509 0.950 . S
H2506 C2502 0.950 . S
C2507 C2505 1.390 . S
C2507 C2508 1.387 . S
C2507 H2510 0.950 . S
C2508 C2507 1.387 . S
C2508 C2511 1.387 . S
H2509 C2505 0.950 . S
H2510 C2507 0.950 . S
C2511 C2502 1.390 . S
C2511 H2504 0.950 . S
C2511 C2508 1.387 . S
C2512 C2513 1.393 . S
C2512 H2516 0.944 1_554 S
C2512 C2521 1.390 . S
C2513 C2512 1.393 . S
C2513 C2515 1.387 . S
H2514 C2521 0.944 1_556 S
C2515 C2513 1.387 . S
C2515 C2517 1.390 . S
C2515 H2519 0.950 . S
H2516 C2512 0.944 1_556 S
C2517 C2515 1.390 . S
C2517 C2518 1.387 . S
C2517 H2520 0.950 . S
C2518 C2517 1.387 . S
C2518 C2521 1.393 . S
H2519 C2515 0.950 . S
H2520 C2517 0.950 . S
C2521 C2512 1.390 . S
C2521 H2514 0.944 1_554 S
C2521 C2518 1.393 . S
C2522 C2523 1.387 . S
C2522 H2526 0.950 . S
C2522 C2531 1.390 . S
C2523 C2522 1.387 . S
C2523 C2525 1.387 . S
H2524 C2531 0.950 . S
C2525 C2523 1.387 . S
C2525 C2527 1.390 . S
C2525 H2529 0.950 . S
H2526 C2522 0.950 . S
C2527 C2525 1.390 . S
C2527 C2528 1.387 . S
C2527 H2530 0.950 . S
C2528 C2527 1.387 . S
C2528 C2531 1.387 . S
H2529 C2525 0.950 . S
H2530 C2527 0.950 . S
C2531 C2522 1.390 . S
C2531 H2524 0.950 . S
C2531 C2528 1.387 . S
C2532 C2533 1.387 . S
C2532 H2536 0.950 . S
C2532 C2541 1.390 . S
C2533 C2532 1.387 . S
C2533 C2535 1.387 . S
H2534 C2541 0.950 . S
C2535 C2533 1.387 . S
C2535 C2537 1.390 . S
C2535 H2539 0.950 . S
H2536 C2532 0.950 . S
C2537 C2535 1.390 . S
C2537 C2538 1.387 . S
C2537 H2540 0.950 . S
C2538 C2537 1.387 . S
C2538 C2541 1.387 . S
H2539 C2535 0.950 . S
H2540 C2537 0.950 . S
C2541 C2532 1.390 . S
C2541 H2534 0.950 . S
C2541 C2538 1.387 . S
C2542 C2543 1.387 . S
C2542 H2546 0.950 . S
C2542 C2551 1.390 . S
C2543 C2542 1.387 . S
C2543 C2545 1.387 . S
H2544 C2551 0.950 . S
C2545 C2543 1.387 . S
C2545 C2547 1.390 . S
C2545 H2549 0.950 . S
H2546 C2542 0.950 . S
C2547 C2545 1.390 . S
C2547 C2548 1.387 . S
C2547 H2550 0.950 . S
C2548 C2547 1.387 . S
C2548 C2551 1.387 . S
H2549 C2545 0.950 . S
H2550 C2547 0.950 . S
C2551 C2542 1.390 . S
C2551 H2544 0.950 . S
C2551 C2548 1.387 . S
C2552 C2553 1.387 . S
C2552 H2556 0.950 . S
C2552 C2561 1.390 . S
C2553 C2552 1.387 . S
C2553 C2555 1.387 . S
H2554 C2561 0.950 . S
C2555 C2553 1.387 . S
C2555 C2557 1.390 . S
C2555 H2559 0.950 . S
H2556 C2552 0.950 . S
C2557 C2555 1.390 . S
C2557 C2558 1.387 . S
C2557 H2560 0.950 . S
C2558 C2557 1.387 . S
C2558 C2561 1.387 . S
H2559 C2555 0.950 . S
H2560 C2557 0.950 . S
C2561 C2552 1.390 . S
C2561 H2554 0.950 . S
C2561 C2558 1.387 . S
C2562 C2563 1.387 . S
C2562 H2566 0.950 . S
C2562 C2571 1.390 . S
C2563 C2562 1.387 . S
C2563 C2565 1.387 . S
H2564 C2571 0.950 . S
C2565 C2563 1.387 . S
C2565 C2567 1.390 . S
C2565 H2569 0.950 . S
H2566 C2562 0.950 . S
C2567 C2565 1.390 . S
C2567 C2568 1.387 . S
C2567 H2570 0.950 . S
C2568 C2567 1.387 . S
C2568 C2571 1.387 . S
H2569 C2565 0.950 . S
H2570 C2567 0.950 . S
C2571 C2562 1.390 . S
C2571 H2564 0.950 . S
C2571 C2568 1.387 . S
C2572 C2573 1.387 . S
C2572 H2576 0.950 . S
C2572 C2581 1.390 . S
C2573 C2572 1.387 . S
C2573 C2575 1.387 . S
H2574 C2581 0.950 . S
C2575 C2573 1.387 . S
C2575 C2577 1.390 . S
C2575 H2579 0.950 . S
H2576 C2572 0.950 . S
C2577 C2575 1.390 . S
C2577 C2578 1.387 . S
C2577 H2580 0.950 . S
C2578 C2577 1.387 . S
C2578 C2581 1.387 . S
H2579 C2575 0.950 . S
H2580 C2577 0.950 . S
C2581 C2572 1.390 . S
C2581 H2574 0.950 . S
C2581 C2578 1.387 . S
C2582 C2583 1.387 . S
C2582 H2586 0.950 . S
C2582 C2591 1.390 . S
C2583 C2582 1.387 . S
C2583 C2585 1.387 . S
H2584 C2591 0.950 . S
C2585 C2583 1.387 . S
C2585 C2587 1.390 . S
C2585 H2589 0.950 . S
H2586 C2582 0.950 . S
C2587 C2585 1.390 . S
C2587 C2588 1.387 . S
C2587 H2590 0.950 . S
C2588 C2587 1.387 . S
C2588 C2591 1.387 . S
H2589 C2585 0.950 . S
H2590 C2587 0.950 . S
C2591 C2582 1.390 . S
C2591 H2584 0.950 . S
C2591 C2588 1.387 . S
C2592 C2593 1.387 . S
C2592 H2596 0.950 . S
C2592 C2601 1.390 . S
C2593 C2592 1.387 . S
C2593 C2595 1.387 . S
H2594 C2601 0.950 . S
C2595 C2593 1.387 . S
C2595 C2597 1.390 . S
C2595 H2599 0.950 . S
H2596 C2592 0.950 . S
C2597 C2595 1.390 . S
C2597 C2598 1.387 . S
C2597 H2600 0.950 . S
C2598 C2597 1.387 . S
C2598 C2601 1.387 . S
H2599 C2595 0.950 . S
H2600 C2597 0.950 . S
C2601 C2592 1.390 . S
C2601 H2594 0.950 . S
C2601 C2598 1.387 . S
C2602 C2603 1.393 . S
C2602 H2606 0.944 1_455 S
C2602 C2611 1.390 . S
C2603 C2602 1.393 . S
C2603 C2605 1.387 . S
H2604 C2611 0.944 1_655 S
C2605 C2603 1.387 . S
C2605 C2607 1.390 . S
C2605 H2609 0.950 . S
H2606 C2602 0.944 1_655 S
C2607 C2605 1.390 . S
C2607 C2608 1.387 . S
C2607 H2610 0.950 . S
C2608 C2607 1.387 . S
C2608 C2611 1.393 . S
H2609 C2605 0.950 . S
H2610 C2607 0.950 . S
C2611 C2602 1.390 . S
C2611 H2604 0.944 1_455 S
C2611 C2608 1.393 . S
C2612 C2613 1.387 . S
C2612 H2616 0.950 . S
C2612 C2621 1.390 . S
C2613 C2612 1.387 . S
C2613 C2615 1.387 . S
H2614 C2621 0.950 . S
C2615 C2613 1.387 . S
C2615 C2617 1.390 . S
C2615 H2619 0.950 . S
H2616 C2612 0.950 . S
C2617 C2615 1.390 . S
C2617 C2618 1.387 . S
C2617 H2620 0.950 . S
C2618 C2617 1.387 . S
C2618 C2621 1.387 . S
H2619 C2615 0.950 . S
H2620 C2617 0.950 . S
C2621 C2612 1.390 . S
C2621 H2614 0.950 . S
C2621 C2618 1.387 . S
C2622 C2623 1.387 . S
C2622 H2626 0.950 . S
C2622 C2631 1.390 . S
C2623 C2622 1.387 . S
C2623 C2625 1.387 . S
H2624 C2631 0.950 . S
C2625 C2623 1.387 . S
C2625 C2627 1.390 . S
C2625 H2629 0.950 . S
H2626 C2622 0.950 . S
C2627 C2625 1.390 . S
C2627 C2628 1.387 . S
C2627 H2630 0.950 . S
C2628 C2627 1.387 . S
C2628 C2631 1.387 . S
H2629 C2625 0.950 . S
H2630 C2627 0.950 . S
C2631 C2622 1.390 . S
C2631 H2624 0.950 . S
C2631 C2628 1.387 . S
C2632 C2633 1.387 . S
C2632 H2636 0.950 . S
C2632 C2641 1.390 . S
C2633 C2632 1.387 . S
C2633 C2635 1.387 . S
H2634 C2641 0.950 . S
C2635 C2633 1.387 . S
C2635 C2637 1.390 . S
C2635 H2639 0.950 . S
H2636 C2632 0.950 . S
C2637 C2635 1.390 . S
C2637 C2638 1.387 . S
C2637 H2640 0.950 . S
C2638 C2637 1.387 . S
C2638 C2641 1.387 . S
H2639 C2635 0.950 . S
H2640 C2637 0.950 . S
C2641 C2632 1.390 . S
C2641 H2634 0.950 . S
C2641 C2638 1.387 . S
C2642 C2643 1.387 . S
C2642 H2646 0.950 . S
C2642 C2651 1.390 . S
C2643 C2642 1.387 . S
C2643 C2645 1.387 . S
H2644 C2651 0.950 . S
C2645 C2643 1.387 . S
C2645 C2647 1.390 . S
C2645 H2649 0.950 . S
H2646 C2642 0.950 . S
C2647 C2645 1.390 . S
C2647 C2648 1.387 . S
C2647 H2650 0.950 . S
C2648 C2647 1.387 . S
C2648 C2651 1.387 . S
H2649 C2645 0.950 . S
H2650 C2647 0.950 . S
C2651 C2642 1.390 . S
C2651 H2644 0.950 . S
C2651 C2648 1.387 . S
C2652 C2653 1.387 . S
C2652 H2656 0.950 . S
C2652 C2661 1.390 . S
C2653 C2652 1.387 . S
C2653 C2655 1.387 . S
H2654 C2661 0.950 . S
C2655 C2653 1.387 . S
C2655 C2657 1.390 . S
C2655 H2659 0.950 . S
H2656 C2652 0.950 . S
C2657 C2655 1.390 . S
C2657 C2658 1.387 . S
C2657 H2660 0.950 . S
C2658 C2657 1.387 . S
C2658 C2661 1.387 . S
H2659 C2655 0.950 . S
H2660 C2657 0.950 . S
C2661 C2652 1.390 . S
C2661 H2654 0.950 . S
C2661 C2658 1.387 . S
C2662 C2663 1.387 . S
C2662 H2666 0.950 . S
C2662 C2671 1.390 . S
C2663 C2662 1.387 . S
C2663 C2665 1.387 . S
H2664 C2671 0.950 . S
C2665 C2663 1.387 . S
C2665 C2667 1.390 . S
C2665 H2669 0.950 . S
H2666 C2662 0.950 . S
C2667 C2665 1.390 . S
C2667 C2668 1.387 . S
C2667 H2670 0.950 . S
C2668 C2667 1.387 . S
C2668 C2671 1.387 . S
H2669 C2665 0.950 . S
H2670 C2667 0.950 . S
C2671 C2662 1.390 . S
C2671 H2664 0.950 . S
C2671 C2668 1.387 . S
C2672 C2673 1.387 . S
C2672 H2676 0.950 . S
C2672 C2681 1.390 . S
C2673 C2672 1.387 . S
C2673 C2675 1.387 . S
H2674 C2681 0.950 . S
C2675 C2673 1.387 . S
C2675 C2677 1.390 . S
C2675 H2679 0.950 . S
H2676 C2672 0.950 . S
C2677 C2675 1.390 . S
C2677 C2678 1.387 . S
C2677 H2680 0.950 . S
C2678 C2677 1.387 . S
C2678 C2681 1.387 . S
H2679 C2675 0.950 . S
H2680 C2677 0.950 . S
C2681 C2672 1.390 . S
C2681 H2674 0.950 . S
C2681 C2678 1.387 . S
C2682 C2683 1.387 . S
C2682 H2686 0.950 . S
C2682 C2691 1.390 . S
C2683 C2682 1.387 . S
C2683 C2685 1.393 . S
H2684 C2691 0.950 . S
C2685 C2683 1.393 . S
C2685 C2687 1.390 . S
C2685 H2689 0.944 1_554 S
H2686 C2682 0.950 . S
C2687 C2685 1.390 . S
C2687 C2688 1.393 . S
C2687 H2690 0.944 1_554 S
C2688 C2687 1.393 . S
C2688 C2691 1.387 . S
H2689 C2685 0.944 1_556 S
H2690 C2687 0.944 1_556 S
C2691 C2682 1.390 . S
C2691 H2684 0.950 . S
C2691 C2688 1.387 . S
C2692 C2693 1.387 . S
C2692 H2696 0.950 . S
C2692 C2701 1.390 . S
C2693 C2692 1.387 . S
C2693 C2695 1.387 . S
H2694 C2701 0.950 . S
C2695 C2693 1.387 . S
C2695 C2697 1.390 . S
C2695 H2699 0.950 . S
H2696 C2692 0.950 . S
C2697 C2695 1.390 . S
C2697 C2698 1.387 . S
C2697 H2700 0.950 . S
C2698 C2697 1.387 . S
C2698 C2701 1.387 . S
H2699 C2695 0.950 . S
H2700 C2697 0.950 . S
C2701 C2692 1.390 . S
C2701 H2694 0.950 . S
C2701 C2698 1.387 . S
C2702 C2703 1.387 . S
C2702 H2706 0.950 . S
C2702 C2711 1.390 . S
C2703 C2702 1.387 . S
C2703 C2705 1.387 . S
H2704 C2711 0.950 . S
C2705 C2703 1.387 . S
C2705 C2707 1.390 . S
C2705 H2709 0.950 . S
H2706 C2702 0.950 . S
C2707 C2705 1.390 . S
C2707 C2708 1.387 . S
C2707 H2710 0.950 . S
C2708 C2707 1.387 . S
C2708 C2711 1.387 . S
H2709 C2705 0.950 . S
H2710 C2707 0.950 . S
C2711 C2702 1.390 . S
C2711 H2704 0.950 . S
C2711 C2708 1.387 . S
C2712 C2713 1.387 . S
C2712 H2716 0.950 . S
C2712 C2721 1.390 . S
C2713 C2712 1.387 . S
C2713 C2715 1.387 . S
H2714 C2721 0.950 . S
C2715 C2713 1.387 . S
C2715 C2717 1.390 . S
C2715 H2719 0.950 . S
H2716 C2712 0.950 . S
C2717 C2715 1.390 . S
C2717 C2718 1.387 . S
C2717 H2720 0.950 . S
C2718 C2717 1.387 . S
C2718 C2721 1.387 . S
H2719 C2715 0.950 . S
H2720 C2717 0.950 . S
C2721 C2712 1.390 . S
C2721 H2714 0.950 . S
C2721 C2718 1.387 . S
C2722 C2723 1.387 . S
C2722 H2726 0.950 . S
C2722 C2731 1.390 . S
C2723 C2722 1.387 . S
C2723 C2725 1.387 . S
H2724 C2731 0.950 . S
C2725 C2723 1.387 . S
C2725 C2727 1.390 . S
C2725 H2729 0.950 . S
H2726 C2722 0.950 . S
C2727 C2725 1.390 . S
C2727 C2728 1.387 . S
C2727 H2730 0.950 . S
C2728 C2727 1.387 . S
C2728 C2731 1.387 . S
H2729 C2725 0.950 . S
H2730 C2727 0.950 . S
C2731 C2722 1.390 . S
C2731 H2724 0.950 . S
C2731 C2728 1.387 . S
C2732 C2733 1.387 . S
C2732 H2736 0.950 . S
C2732 C2741 1.390 . S
C2733 C2732 1.387 . S
C2733 C2735 1.387 . S
H2734 C2741 0.950 . S
C2735 C2733 1.387 . S
C2735 C2737 1.390 . S
C2735 H2739 0.950 . S
H2736 C2732 0.950 . S
C2737 C2735 1.390 . S
C2737 C2738 1.387 . S
C2737 H2740 0.950 . S
C2738 C2737 1.387 . S
C2738 C2741 1.387 . S
H2739 C2735 0.950 . S
H2740 C2737 0.950 . S
C2741 C2732 1.390 . S
C2741 H2734 0.950 . S
C2741 C2738 1.387 . S
C2742 C2743 1.387 . S
C2742 H2746 0.950 . S
C2742 C2751 1.390 . S
C2743 C2742 1.387 . S
C2743 C2745 1.387 . S
H2744 C2751 0.950 . S
C2745 C2743 1.387 . S
C2745 C2747 1.390 . S
C2745 H2749 0.950 . S
H2746 C2742 0.950 . S
C2747 C2745 1.390 . S
C2747 C2748 1.387 . S
C2747 H2750 0.950 . S
C2748 C2747 1.387 . S
C2748 C2751 1.387 . S
H2749 C2745 0.950 . S
H2750 C2747 0.950 . S
C2751 C2742 1.390 . S
C2751 H2744 0.950 . S
C2751 C2748 1.387 . S
C2752 C2753 1.387 . S
C2752 H2756 0.950 . S
C2752 C2761 1.390 . S
C2753 C2752 1.387 . S
C2753 C2755 1.387 . S
H2754 C2761 0.950 . S
C2755 C2753 1.387 . S
C2755 C2757 1.390 . S
C2755 H2759 0.950 . S
H2756 C2752 0.950 . S
C2757 C2755 1.390 . S
C2757 C2758 1.387 . S
C2757 H2760 0.950 . S
C2758 C2757 1.387 . S
C2758 C2761 1.387 . S
H2759 C2755 0.950 . S
H2760 C2757 0.950 . S
C2761 C2752 1.390 . S
C2761 H2754 0.950 . S
C2761 C2758 1.387 . S
C2762 C2763 1.387 . S
C2762 H2766 0.950 . S
C2762 C2771 1.390 . S
C2763 C2762 1.387 . S
C2763 C2765 1.387 . S
H2764 C2771 0.950 . S
C2765 C2763 1.387 . S
C2765 C2767 1.390 . S
C2765 H2769 0.950 . S
H2766 C2762 0.950 . S
C2767 C2765 1.390 . S
C2767 C2768 1.387 . S
C2767 H2770 0.950 . S
C2768 C2767 1.387 . S
C2768 C2771 1.387 . S
H2769 C2765 0.950 . S
H2770 C2767 0.950 . S
C2771 C2762 1.390 . S
C2771 H2764 0.950 . S
C2771 C2768 1.387 . S
C2772 C2773 1.387 . S
C2772 H2776 0.950 . S
C2772 C2781 1.390 . S
C2773 C2772 1.387 . S
C2773 C2775 1.387 . S
H2774 C2781 0.950 . S
C2775 C2773 1.387 . S
C2775 C2777 1.390 . S
C2775 H2779 0.950 . S
H2776 C2772 0.950 . S
C2777 C2775 1.390 . S
C2777 C2778 1.387 . S
C2777 H2780 0.950 . S
C2778 C2777 1.387 . S
C2778 C2781 1.387 . S
H2779 C2775 0.950 . S
H2780 C2777 0.950 . S
C2781 C2772 1.390 . S
C2781 H2774 0.950 . S
C2781 C2778 1.387 . S
C2782 C2783 1.387 . S
C2782 H2786 0.950 . S
C2782 C2791 1.390 . S
C2783 C2782 1.387 . S
C2783 C2785 1.387 . S
H2784 C2791 0.950 . S
C2785 C2783 1.387 . S
C2785 C2787 1.390 . S
C2785 H2789 0.950 . S
H2786 C2782 0.950 . S
C2787 C2785 1.390 . S
C2787 C2788 1.387 . S
C2787 H2790 0.950 . S
C2788 C2787 1.387 . S
C2788 C2791 1.387 . S
H2789 C2785 0.950 . S
H2790 C2787 0.950 . S
C2791 C2782 1.390 . S
C2791 H2784 0.950 . S
C2791 C2788 1.387 . S
C2792 C2793 1.387 . S
C2792 H2796 0.950 . S
C2792 C2801 1.390 . S
C2793 C2792 1.387 . S
C2793 C2795 1.387 . S
H2794 C2801 0.950 . S
C2795 C2793 1.387 . S
C2795 C2797 1.390 . S
C2795 H2799 0.950 . S
H2796 C2792 0.950 . S
C2797 C2795 1.390 . S
C2797 C2798 1.387 . S
C2797 H2800 0.950 . S
C2798 C2797 1.387 . S
C2798 C2801 1.387 . S
H2799 C2795 0.950 . S
H2800 C2797 0.950 . S
C2801 C2792 1.390 . S
C2801 H2794 0.950 . S
C2801 C2798 1.387 . S
C2802 C2803 1.387 . S
C2802 H2806 0.950 . S
C2802 C2811 1.390 . S
C2803 C2802 1.387 . S
C2803 C2805 1.387 . S
H2804 C2811 0.950 . S
C2805 C2803 1.387 . S
C2805 C2807 1.390 . S
C2805 H2809 0.950 . S
H2806 C2802 0.950 . S
C2807 C2805 1.390 . S
C2807 C2808 1.387 . S
C2807 H2810 0.950 . S
C2808 C2807 1.387 . S
C2808 C2811 1.387 . S
H2809 C2805 0.950 . S
H2810 C2807 0.950 . S
C2811 C2802 1.390 . S
C2811 H2804 0.950 . S
C2811 C2808 1.387 . S
C2812 C2813 1.387 . S
C2812 H2816 0.950 . S
C2812 C2821 1.390 . S
C2813 C2812 1.387 . S
C2813 C2815 1.387 . S
H2814 C2821 0.950 . S
C2815 C2813 1.387 . S
C2815 C2817 1.390 . S
C2815 H2819 0.950 . S
H2816 C2812 0.950 . S
C2817 C2815 1.390 . S
C2817 C2818 1.387 . S
C2817 H2820 0.950 . S
C2818 C2817 1.387 . S
C2818 C2821 1.387 . S
H2819 C2815 0.950 . S
H2820 C2817 0.950 . S
C2821 C2812 1.390 . S
C2821 H2814 0.950 . S
C2821 C2818 1.387 . S
C2822 C2823 1.387 . S
C2822 H2826 0.950 . S
C2822 C2831 1.390 . S
C2823 C2822 1.387 . S
C2823 C2825 1.387 . S
H2824 C2831 0.950 . S
C2825 C2823 1.387 . S
C2825 C2827 1.390 . S
C2825 H2829 0.950 . S
H2826 C2822 0.950 . S
C2827 C2825 1.390 . S
C2827 C2828 1.387 . S
C2827 H2830 0.950 . S
C2828 C2827 1.387 . S
C2828 C2831 1.387 . S
H2829 C2825 0.950 . S
H2830 C2827 0.950 . S
C2831 C2822 1.390 . S
C2831 H2824 0.950 . S
C2831 C2828 1.387 . S
C2832 C2833 1.387 . S
C2832 H2836 0.950 . S
C2832 C2841 1.390 . S
C2833 C2832 1.387 . S
C2833 C2835 1.387 . S
H2834 C2841 0.950 . S
C2835 C2833 1.387 . S
C2835 C2837 1.390 . S
C2835 H2839 0.950 . S
H2836 C2832 0.950 . S
C2837 C2835 1.390 . S
C2837 C2838 1.387 . S
C2837 H2840 0.950 . S
C2838 C2837 1.387 . S
C2838 C2841 1.387 . S
H2839 C2835 0.950 . S
H2840 C2837 0.950 . S
C2841 C2832 1.390 . S
C2841 H2834 0.950 . S
C2841 C2838 1.387 . S
C2842 C2843 1.393 . S
C2842 H2846 0.944 1_545 S
C2842 C2851 1.390 . S
C2843 C2842 1.393 . S
C2843 C2845 1.387 . S
H2844 C2851 0.944 1_565 S
C2845 C2843 1.387 . S
C2845 C2847 1.390 . S
C2845 H2849 0.950 . S
H2846 C2842 0.944 1_565 S
C2847 C2845 1.390 . S
C2847 C2848 1.387 . S
C2847 H2850 0.950 . S
C2848 C2847 1.387 . S
C2848 C2851 1.393 . S
H2849 C2845 0.950 . S
H2850 C2847 0.950 . S
C2851 C2842 1.390 . S
C2851 H2844 0.944 1_545 S
C2851 C2848 1.393 . S
C2852 C2853 1.387 . S
C2852 H2856 0.950 . S
C2852 C2861 1.390 . S
C2853 C2852 1.387 . S
C2853 C2855 1.387 . S
H2854 C2861 0.950 . S
C2855 C2853 1.387 . S
C2855 C2857 1.390 . S
C2855 H2859 0.950 . S
H2856 C2852 0.950 . S
C2857 C2855 1.390 . S
C2857 C2858 1.387 . S
C2857 H2860 0.950 . S
C2858 C2857 1.387 . S
C2858 C2861 1.387 . S
H2859 C2855 0.950 . S
H2860 C2857 0.950 . S
C2861 C2852 1.390 . S
C2861 H2854 0.950 . S
C2861 C2858 1.387 . S
C2862 C2863 1.387 . S
C2862 H2866 0.950 . S
C2862 C2871 1.390 . S
C2863 C2862 1.387 . S
C2863 C2865 1.387 . S
H2864 C2871 0.950 . S
C2865 C2863 1.387 . S
C2865 C2867 1.390 . S
C2865 H2869 0.950 . S
H2866 C2862 0.950 . S
C2867 C2865 1.390 . S
C2867 C2868 1.387 . S
C2867 H2870 0.950 . S
C2868 C2867 1.387 . S
C2868 C2871 1.387 . S
H2869 C2865 0.950 . S
H2870 C2867 0.950 . S
C2871 C2862 1.390 . S
C2871 H2864 0.950 . S
C2871 C2868 1.387 . S
C2872 C2873 1.387 . S
C2872 H2876 0.950 . S
C2872 C2881 1.390 . S
C2873 C2872 1.387 . S
C2873 C2875 1.387 . S
H2874 C2881 0.950 . S
C2875 C2873 1.387 . S
C2875 C2877 1.390 . S
C2875 H2879 0.950 . S
H2876 C2872 0.950 . S
C2877 C2875 1.390 . S
C2877 C2878 1.387 . S
C2877 H2880 0.950 . S
C2878 C2877 1.387 . S
C2878 C2881 1.387 . S
H2879 C2875 0.950 . S
H2880 C2877 0.950 . S
C2881 C2872 1.390 . S
C2881 H2874 0.950 . S
C2881 C2878 1.387 . S
C2882 C2883 1.387 . S
C2882 H2886 0.950 . S
C2882 C2891 1.390 . S
C2883 C2882 1.387 . S
C2883 C2885 1.387 . S
H2884 C2891 0.950 . S
C2885 C2883 1.387 . S
C2885 C2887 1.390 . S
C2885 H2889 0.950 . S
H2886 C2882 0.950 . S
C2887 C2885 1.390 . S
C2887 C2888 1.387 . S
C2887 H2890 0.950 . S
C2888 C2887 1.387 . S
C2888 C2891 1.387 . S
H2889 C2885 0.950 . S
H2890 C2887 0.950 . S
C2891 C2882 1.390 . S
C2891 H2884 0.950 . S
C2891 C2888 1.387 . S
C2892 C2893 1.387 . S
C2892 H2896 0.950 . S
C2892 C2901 1.390 . S
C2893 C2892 1.387 . S
C2893 C2895 1.387 . S
H2894 C2901 0.950 . S
C2895 C2893 1.387 . S
C2895 C2897 1.390 . S
C2895 H2899 0.950 . S
H2896 C2892 0.950 . S
C2897 C2895 1.390 . S
C2897 C2898 1.387 . S
C2897 H2900 0.950 . S
C2898 C2897 1.387 . S
C2898 C2901 1.387 . S
H2899 C2895 0.950 . S
H2900 C2897 0.950 . S
C2901 C2892 1.390 . S
C2901 H2894 0.950 . S
C2901 C2898 1.387 . S
C2902 C2903 1.387 . S
C2902 H2906 0.950 . S
C2902 C2911 1.390 . S
C2903 C2902 1.387 . S
C2903 C2905 1.387 . S
H2904 C2911 0.950 . S
C2905 C2903 1.387 . S
C2905 C2907 1.390 . S
C2905 H2909 0.950 . S
H2906 C2902 0.950 . S
C2907 C2905 1.390 . S
C2907 C2908 1.387 . S
C2907 H2910 0.950 . S
C2908 C2907 1.387 . S
C2908 C2911 1.387 . S
H2909 C2905 0.950 . S
H2910 C2907 0.950 . S
C2911 C2902 1.390 . S
C2911 H2904 0.950 . S
C2911 C2908 1.387 . S
C2912 C2913 1.387 . S
C2912 H2916 0.950 . S
C2912 C2921 1.390 . S
C2913 C2912 1.387 . S
C2913 C2915 1.393 . S
H2914 C2921 0.950 . S
C2915 C2913 1.393 . S
C2915 C2917 1.390 . S
C2915 H2919 0.944 1_554 S
H2916 C2912 0.950 . S
C2917 C2915 1.390 . S
C2917 C2918 1.393 . S
C2917 H2920 0.944 1_554 S
C2918 C2917 1.393 . S
C2918 C2921 1.387 . S
H2919 C2915 0.944 1_556 S
H2920 C2917 0.944 1_556 S
C2921 C2912 1.390 . S
C2921 H2914 0.950 . S
C2921 C2918 1.387 . S
C2922 C2923 1.387 . S
C2922 H2926 0.950 . S
C2922 C2931 1.390 . S
C2923 C2922 1.387 . S
C2923 C2925 1.387 . S
H2924 C2931 0.950 . S
C2925 C2923 1.387 . S
C2925 C2927 1.390 . S
C2925 H2929 0.950 . S
H2926 C2922 0.950 . S
C2927 C2925 1.390 . S
C2927 C2928 1.387 . S
C2927 H2930 0.950 . S
C2928 C2927 1.387 . S
C2928 C2931 1.387 . S
H2929 C2925 0.950 . S
H2930 C2927 0.950 . S
C2931 C2922 1.390 . S
C2931 H2924 0.950 . S
C2931 C2928 1.387 . S
C2932 C2933 1.387 . S
C2932 H2936 0.950 . S
C2932 C2941 1.390 . S
C2933 C2932 1.387 . S
C2933 C2935 1.387 . S
H2934 C2941 0.950 . S
C2935 C2933 1.387 . S
C2935 C2937 1.390 . S
C2935 H2939 0.950 . S
H2936 C2932 0.950 . S
C2937 C2935 1.390 . S
C2937 C2938 1.387 . S
C2937 H2940 0.950 . S
C2938 C2937 1.387 . S
C2938 C2941 1.387 . S
H2939 C2935 0.950 . S
H2940 C2937 0.950 . S
C2941 C2932 1.390 . S
C2941 H2934 0.950 . S
C2941 C2938 1.387 . S
C2942 C2943 1.387 . S
C2942 H2946 0.950 . S
C2942 C2951 1.390 . S
C2943 C2942 1.387 . S
C2943 C2945 1.387 . S
H2944 C2951 0.950 . S
C2945 C2943 1.387 . S
C2945 C2947 1.390 . S
C2945 H2949 0.950 . S
H2946 C2942 0.950 . S
C2947 C2945 1.390 . S
C2947 C2948 1.387 . S
C2947 H2950 0.950 . S
C2948 C2947 1.387 . S
C2948 C2951 1.387 . S
H2949 C2945 0.950 . S
H2950 C2947 0.950 . S
C2951 C2942 1.390 . S
C2951 H2944 0.950 . S
C2951 C2948 1.387 . S
C2952 C2953 1.387 . S
C2952 H2956 0.950 . S
C2952 C2961 1.390 . S
C2953 C2952 1.387 . S
C2953 C2955 1.387 . S
H2954 C2961 0.950 . S
C2955 C2953 1.387 . S
C2955 C2957 1.390 . S
C2955 H2959 0.950 . S
H2956 C2952 0.950 . S
C2957 C2955 1.390 . S
C2957 C2958 1.387 . S
C2957 H2960 0.950 . S
C2958 C2957 1.387 . S
C2958 C2961 1.387 . S
H2959 C2955 0.950 . S
H2960 C2957 0.950 . S
C2961 C2952 1.390 . S
C2961 H2954 0.950 . S
C2961 C2958 1.387 . S
C2962 C2963 1.387 . S
C2962 H2966 0.950 . S
C2962 C2971 1.390 . S
C2963 C2962 1.387 . S
C2963 C2965 1.387 . S
H2964 C2971 0.950 . S
C2965 C2963 1.387 . S
C2965 C2967 1.390 . S
C2965 H2969 0.950 . S
H2966 C2962 0.950 . S
C2967 C2965 1.390 . S
C2967 C2968 1.387 . S
C2967 H2970 0.950 . S
C2968 C2967 1.387 . S
C2968 C2971 1.387 . S
H2969 C2965 0.950 . S
H2970 C2967 0.950 . S
C2971 C2962 1.390 . S
C2971 H2964 0.950 . S
C2971 C2968 1.387 . S
C2972 C2973 1.387 . S
C2972 H2976 0.950 . S
C2972 C2981 1.390 . S
C2973 C2972 1.387 . S
C2973 C2975 1.387 . S
H2974 C2981 0.950 . S
C2975 C2973 1.387 . S
C2975 C2977 1.390 . S
C2975 H2979 0.950 . S
H2976 C2972 0.950 . S
C2977 C2975 1.390 . S
C2977 C2978 1.387 . S
C2977 H2980 0.950 . S
C2978 C2977 1.387 . S
C2978 C2981 1.387 . S
H2979 C2975 0.950 . S
H2980 C2977 0.950 . S
C2981 C2972 1.390 . S
C2981 H2974 0.950 . S
C2981 C2978 1.387 . S
C2982 C2983 1.387 . S
C2982 H2986 0.950 . S
C2982 C2991 1.390 . S
C2983 C2982 1.387 . S
C2983 C2985 1.387 . S
H2984 C2991 0.950 . S
C2985 C2983 1.387 . S
C2985 C2987 1.390 . S
C2985 H2989 0.950 . S
H2986 C2982 0.950 . S
C2987 C2985 1.390 . S
C2987 C2988 1.387 . S
C2987 H2990 0.950 . S
C2988 C2987 1.387 . S
C2988 C2991 1.387 . S
H2989 C2985 0.950 . S
H2990 C2987 0.950 . S
C2991 C2982 1.390 . S
C2991 H2984 0.950 . S
C2991 C2988 1.387 . S
C2992 C2993 1.387 . S
C2992 H2996 0.950 . S
C2992 C3001 1.390 . S
C2993 C2992 1.387 . S
C2993 C2995 1.387 . S
H2994 C3001 0.950 . S
C2995 C2993 1.387 . S
C2995 C2997 1.390 . S
C2995 H2999 0.950 . S
H2996 C2992 0.950 . S
C2997 C2995 1.390 . S
C2997 C2998 1.387 . S
C2997 H3000 0.950 . S
C2998 C2997 1.387 . S
C2998 C3001 1.387 . S
H2999 C2995 0.950 . S
H3000 C2997 0.950 . S
C3001 C2992 1.390 . S
C3001 H2994 0.950 . S
C3001 C2998 1.387 . S
C3002 C3003 1.387 . S
C3002 H3006 0.950 . S
C3002 C3011 1.390 . S
C3003 C3002 1.387 . S
C3003 C3005 1.387 . S
H3004 C3011 0.950 . S
C3005 C3003 1.387 . S
C3005 C3007 1.390 . S
C3005 H3009 0.950 . S
H3006 C3002 0.950 . S
C3007 C3005 1.390 . S
C3007 C3008 1.387 . S
C3007 H3010 0.950 . S
C3008 C3007 1.387 . S
C3008 C3011 1.387 . S
H3009 C3005 0.950 . S
H3010 C3007 0.950 . S
C3011 C3002 1.390 . S
C3011 H3004 0.950 . S
C3011 C3008 1.387 . S
C3012 C3013 1.387 . S
C3012 H3016 0.950 . S
C3012 C3021 1.390 . S
C3013 C3012 1.387 . S
C3013 C3015 1.387 . S
H3014 C3021 0.950 . S
C3015 C3013 1.387 . S
C3015 C3017 1.390 . S
C3015 H3019 0.950 . S
H3016 C3012 0.950 . S
C3017 C3015 1.390 . S
C3017 C3018 1.387 . S
C3017 H3020 0.950 . S
C3018 C3017 1.387 . S
C3018 C3021 1.387 . S
H3019 C3015 0.950 . S
H3020 C3017 0.950 . S
C3021 C3012 1.390 . S
C3021 H3014 0.950 . S
C3021 C3018 1.387 . S
C3022 C3023 1.387 . S
C3022 H3026 0.950 . S
C3022 C3031 1.390 . S
C3023 C3022 1.387 . S
C3023 C3025 1.387 . S
H3024 C3031 0.950 . S
C3025 C3023 1.387 . S
C3025 C3027 1.390 . S
C3025 H3029 0.950 . S
H3026 C3022 0.950 . S
C3027 C3025 1.390 . S
C3027 C3028 1.387 . S
C3027 H3030 0.950 . S
C3028 C3027 1.387 . S
C3028 C3031 1.387 . S
H3029 C3025 0.950 . S
H3030 C3027 0.950 . S
C3031 C3022 1.390 . S
C3031 H3024 0.950 . S
C3031 C3028 1.387 . S
C3032 C3033 1.387 . S
C3032 H3036 0.950 . S
C3032 C3041 1.390 . S
C3033 C3032 1.387 . S
C3033 C3035 1.387 . S
H3034 C3041 0.950 . S
C3035 C3033 1.387 . S
C3035 C3037 1.390 . S
C3035 H3039 0.950 . S
H3036 C3032 0.950 . S
C3037 C3035 1.390 . S
C3037 C3038 1.387 . S
C3037 H3040 0.950 . S
C3038 C3037 1.387 . S
C3038 C3041 1.387 . S
H3039 C3035 0.950 . S
H3040 C3037 0.950 . S
C3041 C3032 1.390 . S
C3041 H3034 0.950 . S
C3041 C3038 1.387 . S
C3042 C3043 1.387 . S
C3042 H3046 0.950 . S
C3042 C3051 1.390 . S
C3043 C3042 1.387 . S
C3043 C3045 1.387 . S
H3044 C3051 0.950 . S
C3045 C3043 1.387 . S
C3045 C3047 1.390 . S
C3045 H3049 0.950 . S
H3046 C3042 0.950 . S
C3047 C3045 1.390 . S
C3047 C3048 1.387 . S
C3047 H3050 0.950 . S
C3048 C3047 1.387 . S
C3048 C3051 1.387 . S
H3049 C3045 0.950 . S
H3050 C3047 0.950 . S
C3051 C3042 1.390 . S
C3051 H3044 0.950 . S
C3051 C3048 1.387 . S
C3052 C3053 1.387 . S
C3052 H3056 0.950 . S
C3052 C3061 1.390 . S
C3053 C3052 1.387 . S
C3053 C3055 1.387 . S
H3054 C3061 0.950 . S
C3055 C3053 1.387 . S
C3055 C3057 1.390 . S
C3055 H3059 0.950 . S
H3056 C3052 0.950 . S
C3057 C3055 1.390 . S
C3057 C3058 1.387 . S
C3057 H3060 0.950 . S
C3058 C3057 1.387 . S
C3058 C3061 1.387 . S
H3059 C3055 0.950 . S
H3060 C3057 0.950 . S
C3061 C3052 1.390 . S
C3061 H3054 0.950 . S
C3061 C3058 1.387 . S
C3062 C3063 1.387 . S
C3062 H3066 0.950 . S
C3062 C3071 1.390 . S
C3063 C3062 1.387 . S
C3063 C3065 1.387 . S
H3064 C3071 0.950 . S
C3065 C3063 1.387 . S
C3065 C3067 1.390 . S
C3065 H3069 0.950 . S
H3066 C3062 0.950 . S
C3067 C3065 1.390 . S
C3067 C3068 1.387 . S
C3067 H3070 0.950 . S
C3068 C3067 1.387 . S
C3068 C3071 1.387 . S
H3069 C3065 0.950 . S
H3070 C3067 0.950 . S
C3071 C3062 1.390 . S
C3071 H3064 0.950 . S
C3071 C3068 1.387 . S
C3072 C3073 1.387 . S
C3072 H3076 0.950 . S
C3072 C3081 1.390 . S
C3073 C3072 1.387 . S
C3073 C3075 1.387 . S
H3074 C3081 0.950 . S
C3075 C3073 1.387 . S
C3075 C3077 1.390 . S
C3075 H3079 0.950 . S
H3076 C3072 0.950 . S
C3077 C3075 1.390 . S
C3077 C3078 1.387 . S
C3077 H3080 0.950 . S
C3078 C3077 1.387 . S
C3078 C3081 1.387 . S
H3079 C3075 0.950 . S
H3080 C3077 0.950 . S
C3081 C3072 1.390 . S
C3081 H3074 0.950 . S
C3081 C3078 1.387 . S
C3082 C3083 1.387 . S
C3082 H3086 0.950 . S
C3082 C3091 1.390 . S
C3083 C3082 1.387 . S
C3083 C3085 1.387 . S
H3084 C3091 0.950 . S
C3085 C3083 1.387 . S
C3085 C3087 1.390 . S
C3085 H3089 0.950 . S
H3086 C3082 0.950 . S
C3087 C3085 1.390 . S
C3087 C3088 1.387 . S
C3087 H3090 0.950 . S
C3088 C3087 1.387 . S
C3088 C3091 1.387 . S
H3089 C3085 0.950 . S
H3090 C3087 0.950 . S
C3091 C3082 1.390 . S
C3091 H3084 0.950 . S
C3091 C3088 1.387 . S
C3092 C3093 1.387 . S
C3092 H3096 0.950 . S
C3092 C3101 1.390 . S
C3093 C3092 1.387 . S
C3093 C3095 1.387 . S
H3094 C3101 0.950 . S
C3095 C3093 1.387 . S
C3095 C3097 1.390 . S
C3095 H3099 0.950 . S
H3096 C3092 0.950 . S
C3097 C3095 1.390 . S
C3097 C3098 1.387 . S
C3097 H3100 0.950 . S
C3098 C3097 1.387 . S
C3098 C3101 1.387 . S
H3099 C3095 0.950 . S
H3100 C3097 0.950 . S
C3101 C3092 1.390 . S
C3101 H3094 0.950 . S
C3101 C3098 1.387 . S
C3102 C3103 1.387 . S
C3102 H3106 0.950 . S
C3102 C3111 1.390 . S
C3103 C3102 1.387 . S
C3103 C3105 1.387 . S
H3104 C3111 0.950 . S
C3105 C3103 1.387 . S
C3105 C3107 1.390 . S
C3105 H3109 0.950 . S
H3106 C3102 0.950 . S
C3107 C3105 1.390 . S
C3107 C3108 1.387 . S
C3107 H3110 0.950 . S
C3108 C3107 1.387 . S
C3108 C3111 1.387 . S
H3109 C3105 0.950 . S
H3110 C3107 0.950 . S
C3111 C3102 1.390 . S
C3111 H3104 0.950 . S
C3111 C3108 1.387 . S
C3112 C3113 1.387 . S
C3112 H3116 0.950 . S
C3112 C3121 1.390 . S
C3113 C3112 1.387 . S
C3113 C3115 1.387 . S
H3114 C3121 0.950 . S
C3115 C3113 1.387 . S
C3115 C3117 1.390 . S
C3115 H3119 0.950 . S
H3116 C3112 0.950 . S
C3117 C3115 1.390 . S
C3117 C3118 1.387 . S
C3117 H3120 0.950 . S
C3118 C3117 1.387 . S
C3118 C3121 1.387 . S
H3119 C3115 0.950 . S
H3120 C3117 0.950 . S
C3121 C3112 1.390 . S
C3121 H3114 0.950 . S
C3121 C3118 1.387 . S
C3122 C3123 1.387 . S
C3122 H3126 0.950 . S
C3122 C3131 1.390 . S
C3123 C3122 1.387 . S
C3123 C3125 1.387 . S
H3124 C3131 0.950 . S
C3125 C3123 1.387 . S
C3125 C3127 1.390 . S
C3125 H3129 0.950 . S
H3126 C3122 0.950 . S
C3127 C3125 1.390 . S
C3127 C3128 1.387 . S
C3127 H3130 0.950 . S
C3128 C3127 1.387 . S
C3128 C3131 1.387 . S
H3129 C3125 0.950 . S
H3130 C3127 0.950 . S
C3131 C3122 1.390 . S
C3131 H3124 0.950 . S
C3131 C3128 1.387 . S
C3132 C3133 1.387 . S
C3132 H3136 0.950 . S
C3132 C3141 1.390 . S
C3133 C3132 1.387 . S
C3133 C3135 1.387 . S
H3134 C3141 0.950 . S
C3135 C3133 1.387 . S
C3135 C3137 1.390 . S
C3135 H3139 0.950 . S
H3136 C3132 0.950 . S
C3137 C3135 1.390 . S
C3137 C3138 1.387 . S
C3137 H3140 0.950 . S
C3138 C3137 1.387 . S
C3138 C3141 1.387 . S
H3139 C3135 0.950 . S
H3140 C3137 0.950 . S
C3141 C3132 1.390 . S
C3141 H3134 0.950 . S
C3141 C3138 1.387 . S
C3142 C3143 1.387 . S
C3142 H3146 0.950 . S
C3142 C3151 1.390 . S
C3143 C3142 1.387 . S
C3143 C3145 1.387 . S
H3144 C3151 0.950 . S
C3145 C3143 1.387 . S
C3145 C3147 1.390 . S
C3145 H3149 0.950 . S
H3146 C3142 0.950 . S
C3147 C3145 1.390 . S
C3147 C3148 1.387 . S
C3147 H3150 0.950 . S
C3148 C3147 1.387 . S
C3148 C3151 1.387 . S
H3149 C3145 0.950 . S
H3150 C3147 0.950 . S
C3151 C3142 1.390 . S
C3151 H3144 0.950 . S
C3151 C3148 1.387 . S
C3152 C3153 1.387 . S
C3152 H3156 0.950 . S
C3152 C3161 1.390 . S
C3153 C3152 1.387 . S
C3153 C3155 1.387 . S
H3154 C3161 0.950 . S
C3155 C3153 1.387 . S
C3155 C3157 1.390 . S
C3155 H3159 0.950 . S
H3156 C3152 0.950 . S
C3157 C3155 1.390 . S
C3157 C3158 1.387 . S
C3157 H3160 0.950 . S
C3158 C3157 1.387 . S
C3158 C3161 1.387 . S
H3159 C3155 0.950 . S
H3160 C3157 0.950 . S
C3161 C3152 1.390 . S
C3161 H3154 0.950 . S
C3161 C3158 1.387 . S
C3162 C3163 1.387 . S
C3162 H3166 0.950 . S
C3162 C3171 1.390 . S
C3163 C3162 1.387 . S
C3163 C3165 1.387 . S
H3164 C3171 0.950 . S
C3165 C3163 1.387 . S
C3165 C3167 1.390 . S
C3165 H3169 0.950 . S
H3166 C3162 0.950 . S
C3167 C3165 1.390 . S
C3167 C3168 1.387 . S
C3167 H3170 0.950 . S
C3168 C3167 1.387 . S
C3168 C3171 1.387 . S
H3169 C3165 0.950 . S
H3170 C3167 0.950 . S
C3171 C3162 1.390 . S
C3171 H3164 0.950 . S
C3171 C3168 1.387 . S
C3172 C3173 1.387 . S
C3172 H3176 0.950 . S
C3172 C3181 1.390 . S
C3173 C3172 1.387 . S
C3173 C3175 1.387 . S
H3174 C3181 0.950 . S
C3175 C3173 1.387 . S
C3175 C3177 1.390 . S
C3175 H3179 0.950 . S
H3176 C3172 0.950 . S
C3177 C3175 1.390 . S
C3177 C3178 1.387 . S
C3177 H3180 0.950 . S
C3178 C3177 1.387 . S
C3178 C3181 1.387 . S
H3179 C3175 0.950 . S
H3180 C3177 0.950 . S
C3181 C3172 1.390 . S
C3181 H3174 0.950 . S
C3181 C3178 1.387 . S
C3182 C3183 1.387 . S
C3182 H3186 0.950 . S
C3182 C3191 1.390 . S
C3183 C3182 1.387 . S
C3183 C3185 1.387 . S
H3184 C3191 0.950 . S
C3185 C3183 1.387 . S
C3185 C3187 1.390 . S
C3185 H3189 0.950 . S
H3186 C3182 0.950 . S
C3187 C3185 1.390 . S
C3187 C3188 1.387 . S
C3187 H3190 0.950 . S
C3188 C3187 1.387 . S
C3188 C3191 1.387 . S
H3189 C3185 0.950 . S
H3190 C3187 0.950 . S
C3191 C3182 1.390 . S
C3191 H3184 0.950 . S
C3191 C3188 1.387 . S
C3192 C3193 1.387 . S
C3192 H3196 0.950 . S
C3192 C3201 1.390 . S
C3193 C3192 1.387 . S
C3193 C3195 1.387 . S
H3194 C3201 0.950 . S
C3195 C3193 1.387 . S
C3195 C3197 1.390 . S
C3195 H3199 0.950 . S
H3196 C3192 0.950 . S
C3197 C3195 1.390 . S
C3197 C3198 1.387 . S
C3197 H3200 0.950 . S
C3198 C3197 1.387 . S
C3198 C3201 1.387 . S
H3199 C3195 0.950 . S
H3200 C3197 0.950 . S
C3201 C3192 1.390 . S
C3201 H3194 0.950 . S
C3201 C3198 1.387 . S
C3202 C3203 1.387 . S
C3202 H3206 0.950 . S
C3202 C3211 1.390 . S
C3203 C3202 1.387 . S
C3203 C3205 1.387 . S
H3204 C3211 0.950 . S
C3205 C3203 1.387 . S
C3205 C3207 1.390 . S
C3205 H3209 0.950 . S
H3206 C3202 0.950 . S
C3207 C3205 1.390 . S
C3207 C3208 1.387 . S
C3207 H3210 0.950 . S
C3208 C3207 1.387 . S
C3208 C3211 1.387 . S
H3209 C3205 0.950 . S
H3210 C3207 0.950 . S
C3211 C3202 1.390 . S
C3211 H3204 0.950 . S
C3211 C3208 1.387 . S
C3212 C3213 1.387 . S
C3212 H3216 0.950 . S
C3212 C3221 1.390 . S
C3213 C3212 1.387 . S
C3213 C3215 1.387 . S
H3214 C3221 0.950 . S
C3215 C3213 1.387 . S
C3215 C3217 1.390 . S
C3215 H3219 0.950 . S
H3216 C3212 0.950 . S
C3217 C3215 1.390 . S
C3217 C3218 1.387 . S
C3217 H3220 0.950 . S
C3218 C3217 1.387 . S
C3218 C3221 1.387 . S
H3219 C3215 0.950 . S
H3220 C3217 0.950 . S
C3221 C3212 1.390 . S
C3221 H3214 0.950 . S
C3221 C3218 1.387 . S
C3222 C3223 1.387 . S
C3222 H3226 0.950 . S
C3222 C3231 1.390 . S
C3223 C3222 1.387 . S
C3223 C3225 1.387 . S
H3224 C3231 0.950 . S
C3225 C3223 1.387 . S
C3225 C3227 1.390 . S
C3225 H3229 0.950 . S
H3226 C3222 0.950 . S
C3227 C3225 1.390 . S
C3227 C3228 1.387 . S
C3227 H3230 0.950 . S
C3228 C3227 1.387 . S
C3228 C3231 1.387 . S
H3229 C3225 0.950 . S
H3230 C3227 0.950 . S
C3231 C3222 1.390 . S
C3231 H3224 0.950 . S
C3231 C3228 1.387 . S
C3232 C3233 1.387 . S
C3232 H3236 0.950 . S
C3232 C3241 1.390 . S
C3233 C3232 1.387 . S
C3233 C3235 1.387 . S
H3234 C3241 0.950 . S
C3235 C3233 1.387 . S
C3235 C3237 1.390 . S
C3235 H3239 0.950 . S
H3236 C3232 0.950 . S
C3237 C3235 1.390 . S
C3237 C3238 1.387 . S
C3237 H3240 0.950 . S
C3238 C3237 1.387 . S
C3238 C3241 1.387 . S
H3239 C3235 0.950 . S
H3240 C3237 0.950 . S
C3241 C3232 1.390 . S
C3241 H3234 0.950 . S
C3241 C3238 1.387 . S
C3242 C3243 1.387 . S
C3242 H3246 0.950 . S
C3242 C3251 1.390 . S
C3243 C3242 1.387 . S
C3243 C3245 1.387 . S
H3244 C3251 0.950 . S
C3245 C3243 1.387 . S
C3245 C3247 1.390 . S
C3245 H3249 0.950 . S
H3246 C3242 0.950 . S
C3247 C3245 1.390 . S
C3247 C3248 1.387 . S
C3247 H3250 0.950 . S
C3248 C3247 1.387 . S
C3248 C3251 1.387 . S
H3249 C3245 0.950 . S
H3250 C3247 0.950 . S
C3251 C3242 1.390 . S
C3251 H3244 0.950 . S
C3251 C3248 1.387 . S
C3252 C3253 1.387 . S
C3252 H3256 0.950 . S
C3252 C3261 1.390 . S
C3253 C3252 1.387 . S
C3253 C3255 1.387 . S
H3254 C3261 0.950 . S
C3255 C3253 1.387 . S
C3255 C3257 1.390 . S
C3255 H3259 0.950 . S
H3256 C3252 0.950 . S
C3257 C3255 1.390 . S
C3257 C3258 1.387 . S
C3257 H3260 0.950 . S
C3258 C3257 1.387 . S
C3258 C3261 1.387 . S
H3259 C3255 0.950 . S
H3260 C3257 0.950 . S
C3261 C3252 1.390 . S
C3261 H3254 0.950 . S
C3261 C3258 1.387 . S
C3262 C3263 1.387 . S
C3262 H3266 0.950 . S
C3262 C3271 1.390 . S
C3263 C3262 1.387 . S
C3263 C3265 1.387 . S
H3264 C3271 0.950 . S
C3265 C3263 1.387 . S
C3265 C3267 1.390 . S
C3265 H3269 0.950 . S
H3266 C3262 0.950 . S
C3267 C3265 1.390 . S
C3267 C3268 1.387 . S
C3267 H3270 0.950 . S
C3268 C3267 1.387 . S
C3268 C3271 1.387 . S
H3269 C3265 0.950 . S
H3270 C3267 0.950 . S
C3271 C3262 1.390 . S
C3271 H3264 0.950 . S
C3271 C3268 1.387 . S
C3272 C3273 1.387 . S
C3272 H3276 0.950 . S
C3272 C3281 1.390 . S
C3273 C3272 1.387 . S
C3273 C3275 1.387 . S
H3274 C3281 0.950 . S
C3275 C3273 1.387 . S
C3275 C3277 1.390 . S
C3275 H3279 0.950 . S
H3276 C3272 0.950 . S
C3277 C3275 1.390 . S
C3277 C3278 1.387 . S
C3277 H3280 0.950 . S
C3278 C3277 1.387 . S
C3278 C3281 1.387 . S
H3279 C3275 0.950 . S
H3280 C3277 0.950 . S
C3281 C3272 1.390 . S
C3281 H3274 0.950 . S
C3281 C3278 1.387 . S
C3282 C3283 1.387 . S
C3282 H3286 0.950 . S
C3282 C3291 1.390 . S
C3283 C3282 1.387 . S
C3283 C3285 1.387 . S
H3284 C3291 0.950 . S
C3285 C3283 1.387 . S
C3285 C3287 1.390 . S
C3285 H3289 0.950 . S
H3286 C3282 0.950 . S
C3287 C3285 1.390 . S
C3287 C3288 1.387 . S
C3287 H3290 0.950 . S
C3288 C3287 1.387 . S
C3288 C3291 1.387 . S
H3289 C3285 0.950 . S
H3290 C3287 0.950 . S
C3291 C3282 1.390 . S
C3291 H3284 0.950 . S
C3291 C3288 1.387 . S
C3292 C3293 1.387 . S
C3292 H3296 0.950 . S
C3292 C3301 1.390 . S
C3293 C3292 1.387 . S
C3293 C3295 1.387 . S
H3294 C3301 0.950 . S
C3295 C3293 1.387 . S
C3295 C3297 1.390 . S
C3295 H3299 0.950 . S
H3296 C3292 0.950 . S
C3297 C3295 1.390 . S
C3297 C3298 1.387 . S
C3297 H3300 0.950 . S
C3298 C3297 1.387 . S
C3298 C3301 1.387 . S
H3299 C3295 0.950 . S
H3300 C3297 0.950 . S
C3301 C3292 1.390 . S
C3301 H3294 0.950 . S
C3301 C3298 1.387 . S
C3302 C3303 1.387 . S
C3302 H3306 0.950 . S
C3302 C3311 1.390 . S
C3303 C3302 1.387 . S
C3303 C3305 1.387 . S
H3304 C3311 0.950 . S
C3305 C3303 1.387 . S
C3305 C3307 1.390 . S
C3305 H3309 0.950 . S
H3306 C3302 0.950 . S
C3307 C3305 1.390 . S
C3307 C3308 1.387 . S
C3307 H3310 0.950 . S
C3308 C3307 1.387 . S
C3308 C3311 1.387 . S
H3309 C3305 0.950 . S
H3310 C3307 0.950 . S
C3311 C3302 1.390 . S
C3311 H3304 0.950 . S
C3311 C3308 1.387 . S
C3312 C3313 1.387 . S
C3312 H3316 0.950 . S
C3312 C3321 1.390 . S
C3313 C3312 1.387 . S
C3313 C3315 1.387 . S
H3314 C3321 0.950 . S
C3315 C3313 1.387 . S
C3315 C3317 1.390 . S
C3315 H3319 0.950 . S
H3316 C3312 0.950 . S
C3317 C3315 1.390 . S
C3317 C3318 1.387 . S
C3317 H3320 0.950 . S
C3318 C3317 1.387 . S
C3318 C3321 1.387 . S
H3319 C3315 0.950 . S
H3320 C3317 0.950 . S
C3321 C3312 1.390 . S
C3321 H3314 0.950 . S
C3321 C3318 1.387 . S
C3322 C3323 1.387 . S
C3322 H3326 0.950 . S
C3322 C3331 1.390 . S
C3323 C3322 1.387 . S
C3323 C3325 1.387 . S
H3324 C3331 0.950 . S
C3325 C3323 1.387 . S
C3325 C3327 1.390 . S
C3325 H3329 0.950 . S
H3326 C3322 0.950 . S
C3327 C3325 1.390 . S
C3327 C3328 1.387 . S
C3327 H3330 0.950 . S
C3328 C3327 1.387 . S
C3328 C3331 1.387 . S
H3329 C3325 0.950 . S
H3330 C3327 0.950 . S
C3331 C3322 1.390 . S
C3331 H3324 0.950 . S
C3331 C3328 1.387 . S
C3332 C3333 1.387 . S
C3332 H3336 0.950 . S
C3332 C3341 1.390 . S
C3333 C3332 1.387 . S
C3333 C3335 1.387 . S
H3334 C3341 0.950 . S
C3335 C3333 1.387 . S
C3335 C3337 1.390 . S
C3335 H3339 0.950 . S
H3336 C3332 0.950 . S
C3337 C3335 1.390 . S
C3337 C3338 1.387 . S
C3337 H3340 0.950 . S
C3338 C3337 1.387 . S
C3338 C3341 1.387 . S
H3339 C3335 0.950 . S
H3340 C3337 0.950 . S
C3341 C3332 1.390 . S
C3341 H3334 0.950 . S
C3341 C3338 1.387 . S
C3342 C3343 1.387 . S
C3342 H3346 0.950 . S
C3342 C3351 1.390 . S
C3343 C3342 1.387 . S
C3343 C3345 1.387 . S
H3344 C3351 0.950 . S
C3345 C3343 1.387 . S
C3345 C3347 1.390 . S
C3345 H3349 0.950 . S
H3346 C3342 0.950 . S
C3347 C3345 1.390 . S
C3347 C3348 1.387 . S
C3347 H3350 0.950 . S
C3348 C3347 1.387 . S
C3348 C3351 1.387 . S
H3349 C3345 0.950 . S
H3350 C3347 0.950 . S
C3351 C3342 1.390 . S
C3351 H3344 0.950 . S
C3351 C3348 1.387 . S
C3352 C3353 1.387 . S
C3352 H3356 0.950 . S
C3352 C3361 1.390 . S
C3353 C3352 1.387 . S
C3353 C3355 1.387 . S
H3354 C3361 0.950 . S
C3355 C3353 1.387 . S
C3355 C3357 1.390 . S
C3355 H3359 0.950 . S
H3356 C3352 0.950 . S
C3357 C3355 1.390 . S
C3357 C3358 1.387 . S
C3357 H3360 0.950 . S
C3358 C3357 1.387 . S
C3358 C3361 1.387 . S
H3359 C3355 0.950 . S
H3360 C3357 0.950 . S
C3361 C3352 1.390 . S
C3361 H3354 0.950 . S
C3361 C3358 1.387 . S
C3362 C3363 1.387 . S
C3362 H3366 0.950 . S
C3362 C3371 1.390 . S
C3363 C3362 1.387 . S
C3363 C3365 1.387 . S
H3364 C3371 0.950 . S
C3365 C3363 1.387 . S
C3365 C3367 1.390 . S
C3365 H3369 0.950 . S
H3366 C3362 0.950 . S
C3367 C3365 1.390 . S
C3367 C3368 1.387 . S
C3367 H3370 0.950 . S
C3368 C3367 1.387 . S
C3368 C3371 1.387 . S
H3369 C3365 0.950 . S
H3370 C3367 0.950 . S
C3371 C3362 1.390 . S
C3371 H3364 0.950 . S
C3371 C3368 1.387 . S
C3372 C3373 1.387 . S
C3372 H3376 0.950 . S
C3372 C3381 1.390 . S
C3373 C3372 1.387 . S
C3373 C3375 1.387 . S
H3374 C3381 0.950 . S
C3375 C3373 1.387 . S
C3375 C3377 1.390 . S
C3375 H3379 0.950 . S
H3376 C3372 0.950 . S
C3377 C3375 1.390 . S
C3377 C3378 1.387 . S
C3377 H3380 0.950 . S
C3378 C3377 1.387 . S
C3378 C3381 1.387 . S
H3379 C3375 0.950 . S
H3380 C3377 0.950 . S
C3381 C3372 1.390 . S
C3381 H3374 0.950 . S
C3381 C3378 1.387 . S
C3382 C3383 1.387 . S
C3382 H3386 0.950 . S
C3382 C3391 1.390 . S
C3383 C3382 1.387 . S
C3383 C3385 1.387 . S
H3384 C3391 0.950 . S
C3385 C3383 1.387 . S
C3385 C3387 1.390 . S
C3385 H3389 0.950 . S
H3386 C3382 0.950 . S
C3387 C3385 1.390 . S
C3387 C3388 1.387 . S
C3387 H3390 0.950 . S
C3388 C3387 1.387 . S
C3388 C3391 1.387 . S
H3389 C3385 0.950 . S
H3390 C3387 0.950 . S
C3391 C3382 1.390 . S
C3391 H3384 0.950 . S
C3391 C3388 1.387 . S
C3392 C3393 1.387 . S
C3392 H3396 0.950 . S
C3392 C3401 1.390 . S
C3393 C3392 1.387 . S
C3393 C3395 1.387 . S
H3394 C3401 0.950 . S
C3395 C3393 1.387 . S
C3395 C3397 1.390 . S
C3395 H3399 0.950 . S
H3396 C3392 0.950 . S
C3397 C3395 1.390 . S
C3397 C3398 1.387 . S
C3397 H3400 0.950 . S
C3398 C3397 1.387 . S
C3398 C3401 1.387 . S
H3399 C3395 0.950 . S
H3400 C3397 0.950 . S
C3401 C3392 1.390 . S
C3401 H3394 0.950 . S
C3401 C3398 1.387 . S
C3402 C3403 1.387 . S
C3402 H3406 0.950 . S
C3402 C3411 1.390 . S
C3403 C3402 1.387 . S
C3403 C3405 1.387 . S
H3404 C3411 0.950 . S
C3405 C3403 1.387 . S
C3405 C3407 1.390 . S
C3405 H3409 0.950 . S
H3406 C3402 0.950 . S
C3407 C3405 1.390 . S
C3407 C3408 1.387 . S
C3407 H3410 0.950 . S
C3408 C3407 1.387 . S
C3408 C3411 1.387 . S
H3409 C3405 0.950 . S
H3410 C3407 0.950 . S
C3411 C3402 1.390 . S
C3411 H3404 0.950 . S
C3411 C3408 1.387 . S
C3412 C3413 1.387 . S
C3412 H3416 0.950 . S
C3412 C3421 1.390 . S
C3413 C3412 1.387 . S
C3413 C3415 1.387 . S
H3414 C3421 0.950 . S
C3415 C3413 1.387 . S
C3415 C3417 1.390 . S
C3415 H3419 0.950 . S
H3416 C3412 0.950 . S
C3417 C3415 1.390 . S
C3417 C3418 1.387 . S
C3417 H3420 0.950 . S
C3418 C3417 1.387 . S
C3418 C3421 1.387 . S
H3419 C3415 0.950 . S
H3420 C3417 0.950 . S
C3421 C3412 1.390 . S
C3421 H3414 0.950 . S
C3421 C3418 1.387 . S
C3422 C3423 1.387 . S
C3422 H3426 0.950 . S
C3422 C3431 1.390 . S
C3423 C3422 1.387 . S
C3423 C3425 1.387 . S
H3424 C3431 0.950 . S
C3425 C3423 1.387 . S
C3425 C3427 1.390 . S
C3425 H3429 0.950 . S
H3426 C3422 0.950 . S
C3427 C3425 1.390 . S
C3427 C3428 1.387 . S
C3427 H3430 0.950 . S
C3428 C3427 1.387 . S
C3428 C3431 1.387 . S
H3429 C3425 0.950 . S
H3430 C3427 0.950 . S
C3431 C3422 1.390 . S
C3431 H3424 0.950 . S
C3431 C3428 1.387 . S
C3432 C3433 1.387 . S
C3432 H3436 0.950 . S
C3432 C3441 1.390 . S
C3433 C3432 1.387 . S
C3433 C3435 1.387 . S
H3434 C3441 0.950 . S
C3435 C3433 1.387 . S
C3435 C3437 1.390 . S
C3435 H3439 0.950 . S
H3436 C3432 0.950 . S
C3437 C3435 1.390 . S
C3437 C3438 1.387 . S
C3437 H3440 0.950 . S
C3438 C3437 1.387 . S
C3438 C3441 1.387 . S
H3439 C3435 0.950 . S
H3440 C3437 0.950 . S
C3441 C3432 1.390 . S
C3441 H3434 0.950 . S
C3441 C3438 1.387 . S
C3442 C3443 1.387 . S
C3442 H3446 0.950 . S
C3442 C3451 1.390 . S
C3443 C3442 1.387 . S
C3443 C3445 1.387 . S
H3444 C3451 0.950 . S
C3445 C3443 1.387 . S
C3445 C3447 1.390 . S
C3445 H3449 0.950 . S
H3446 C3442 0.950 . S
C3447 C3445 1.390 . S
C3447 C3448 1.387 . S
C3447 H3450 0.950 . S
C3448 C3447 1.387 . S
C3448 C3451 1.387 . S
H3449 C3445 0.950 . S
H3450 C3447 0.950 . S
C3451 C3442 1.390 . S
C3451 H3444 0.950 . S
C3451 C3448 1.387 . S
C3452 C3453 1.387 . S
C3452 H3456 0.950 . S
C3452 C3461 1.390 . S
C3453 C3452 1.387 . S
C3453 C3455 1.387 . S
H3454 C3461 0.950 . S
C3455 C3453 1.387 . S
C3455 C3457 1.390 . S
C3455 H3459 0.950 . S
H3456 C3452 0.950 . S
C3457 C3455 1.390 . S
C3457 C3458 1.387 . S
C3457 H3460 0.950 . S
C3458 C3457 1.387 . S
C3458 C3461 1.387 . S
H3459 C3455 0.950 . S
H3460 C3457 0.950 . S
C3461 C3452 1.390 . S
C3461 H3454 0.950 . S
C3461 C3458 1.387 . S
C3462 C3463 1.387 . S
C3462 H3466 0.950 . S
C3462 C3471 1.390 . S
C3463 C3462 1.387 . S
C3463 C3465 1.387 . S
H3464 C3471 0.950 . S
C3465 C3463 1.387 . S
C3465 C3467 1.390 . S
C3465 H3469 0.950 . S
H3466 C3462 0.950 . S
C3467 C3465 1.390 . S
C3467 C3468 1.387 . S
C3467 H3470 0.950 . S
C3468 C3467 1.387 . S
C3468 C3471 1.387 . S
H3469 C3465 0.950 . S
H3470 C3467 0.950 . S
C3471 C3462 1.390 . S
C3471 H3464 0.950 . S
C3471 C3468 1.387 . S
C3472 C3473 1.387 . S
C3472 H3476 0.950 . S
C3472 C3481 1.390 . S
C3473 C3472 1.387 . S
C3473 C3475 1.387 . S
H3474 C3481 0.950 . S
C3475 C3473 1.387 . S
C3475 C3477 1.390 . S
C3475 H3479 0.950 . S
H3476 C3472 0.950 . S
C3477 C3475 1.390 . S
C3477 C3478 1.387 . S
C3477 H3480 0.950 . S
C3478 C3477 1.387 . S
C3478 C3481 1.387 . S
H3479 C3475 0.950 . S
H3480 C3477 0.950 . S
C3481 C3472 1.390 . S
C3481 H3474 0.950 . S
C3481 C3478 1.387 . S
C3482 C3483 1.387 . S
C3482 H3486 0.950 . S
C3482 C3491 1.390 . S
C3483 C3482 1.387 . S
C3483 C3485 1.387 . S
H3484 C3491 0.950 . S
C3485 C3483 1.387 . S
C3485 C3487 1.390 . S
C3485 H3489 0.950 . S
H3486 C3482 0.950 . S
C3487 C3485 1.390 . S
C3487 C3488 1.387 . S
C3487 H3490 0.950 . S
C3488 C3487 1.387 . S
C3488 C3491 1.387 . S
H3489 C3485 0.950 . S
H3490 C3487 0.950 . S
C3491 C3482 1.390 . S
C3491 H3484 0.950 . S
C3491 C3488 1.387 . S
C3492 C3493 1.387 . S
C3492 H3496 0.950 . S
C3492 C3501 1.390 . S
C3493 C3492 1.387 . S
C3493 C3495 1.387 . S
H3494 C3501 0.950 . S
C3495 C3493 1.387 . S
C3495 C3497 1.390 . S
C3495 H3499 0.950 . S
H3496 C3492 0.950 . S
C3497 C3495 1.390 . S
C3497 C3498 1.387 . S
C3497 H3500 0.950 . S
C3498 C3497 1.387 . S
C3498 C3501 1.387 . S
H3499 C3495 0.950 . S
H3500 C3497 0.950 . S
C3501 C3492 1.390 . S
C3501 H3494 0.950 . S
C3501 C3498 1.387 . S
C3502 C3503 1.387 . S
C3502 H3506 0.950 . S
C3502 C3511 1.390 . S
C3503 C3502 1.387 . S
C3503 C3505 1.387 . S
H3504 C3511 0.950 . S
C3505 C3503 1.387 . S
C3505 C3507 1.390 . S
C3505 H3509 0.950 . S
H3506 C3502 0.950 . S
C3507 C3505 1.390 . S
C3507 C3508 1.387 . S
C3507 H3510 0.950 . S
C3508 C3507 1.387 . S
C3508 C3511 1.387 . S
H3509 C3505 0.950 . S
H3510 C3507 0.950 . S
C3511 C3502 1.390 . S
C3511 H3504 0.950 . S
C3511 C3508 1.387 . S
C3512 C3513 1.387 . S
C3512 H3516 0.950 . S
C3512 C3521 1.390 . S
C3513 C3512 1.387 . S
C3513 C3515 1.387 . S
H3514 C3521 0.950 . S
C3515 C3513 1.387 . S
C3515 C3517 1.390 . S
C3515 H3519 0.950 . S
H3516 C3512 0.950 . S
C3517 C3515 1.390 . S
C3517 C3518 1.387 . S
C3517 H3520 0.950 . S
C3518 C3517 1.387 . S
C3518 C3521 1.387 . S
H3519 C3515 0.950 . S
H3520 C3517 0.950 . S
C3521 C3512 1.390 . S
C3521 H3514 0.950 . S
C3521 C3518 1.387 . S
C3522 C3523 1.387 . S
C3522 H3526 0.950 . S
C3522 C3531 1.390 . S
C3523 C3522 1.387 . S
C3523 C3525 1.387 . S
H3524 C3531 0.950 . S
C3525 C3523 1.387 . S
C3525 C3527 1.390 . S
C3525 H3529 0.950 . S
H3526 C3522 0.950 . S
C3527 C3525 1.390 . S
C3527 C3528 1.387 . S
C3527 H3530 0.950 . S
C3528 C3527 1.387 . S
C3528 C3531 1.387 . S
H3529 C3525 0.950 . S
H3530 C3527 0.950 . S
C3531 C3522 1.390 . S
C3531 H3524 0.950 . S
C3531 C3528 1.387 . S
C3532 C3533 1.387 . S
C3532 H3536 0.950 . S
C3532 C3541 1.390 . S
C3533 C3532 1.387 . S
C3533 C3535 1.387 . S
H3534 C3541 0.950 . S
C3535 C3533 1.387 . S
C3535 C3537 1.390 . S
C3535 H3539 0.950 . S
H3536 C3532 0.950 . S
C3537 C3535 1.390 . S
C3537 C3538 1.387 . S
C3537 H3540 0.950 . S
C3538 C3537 1.387 . S
C3538 C3541 1.387 . S
H3539 C3535 0.950 . S
H3540 C3537 0.950 . S
C3541 C3532 1.390 . S
C3541 H3534 0.950 . S
C3541 C3538 1.387 . S
C3542 C3543 1.387 . S
C3542 H3546 0.950 . S
C3542 C3551 1.390 . S
C3543 C3542 1.387 . S
C3543 C3545 1.387 . S
H3544 C3551 0.950 . S
C3545 C3543 1.387 . S
C3545 C3547 1.390 . S
C3545 H3549 0.950 . S
H3546 C3542 0.950 . S
C3547 C3545 1.390 . S
C3547 C3548 1.387 . S
C3547 H3550 0.950 . S
C3548 C3547 1.387 . S
C3548 C3551 1.387 . S
H3549 C3545 0.950 . S
H3550 C3547 0.950 . S
C3551 C3542 1.390 . S
C3551 H3544 0.950 . S
C3551 C3548 1.387 . S
C3552 C3553 1.387 . S
C3552 H3556 0.950 . S
C3552 C3561 1.390 . S
C3553 C3552 1.387 . S
C3553 C3555 1.387 . S
H3554 C3561 0.950 . S
C3555 C3553 1.387 . S
C3555 C3557 1.390 . S
C3555 H3559 0.950 . S
H3556 C3552 0.950 . S
C3557 C3555 1.390 . S
C3557 C3558 1.387 . S
C3557 H3560 0.950 . S
C3558 C3557 1.387 . S
C3558 C3561 1.387 . S
H3559 C3555 0.950 . S
H3560 C3557 0.950 . S
C3561 C3552 1.390 . S
C3561 H3554 0.950 . S
C3561 C3558 1.387 . S
C3562 C3563 1.387 . S
C3562 H3566 0.950 . S
C3562 C3571 1.390 . S
C3563 C3562 1.387 . S
C3563 C3565 1.387 . S
H3564 C3571 0.950 . S
C3565 C3563 1.387 . S
C3565 C3567 1.390 . S
C3565 H3569 0.950 . S
H3566 C3562 0.950 . S
C3567 C3565 1.390 . S
C3567 C3568 1.387 . S
C3567 H3570 0.950 . S
C3568 C3567 1.387 . S
C3568 C3571 1.387 . S
H3569 C3565 0.950 . S
H3570 C3567 0.950 . S
C3571 C3562 1.390 . S
C3571 H3564 0.950 . S
C3571 C3568 1.387 . S
C3572 C3573 1.387 . S
C3572 H3576 0.950 . S
C3572 C3581 1.390 . S
C3573 C3572 1.387 . S
C3573 C3575 1.387 . S
H3574 C3581 0.950 . S
C3575 C3573 1.387 . S
C3575 C3577 1.390 . S
C3575 H3579 0.950 . S
H3576 C3572 0.950 . S
C3577 C3575 1.390 . S
C3577 C3578 1.387 . S
C3577 H3580 0.950 . S
C3578 C3577 1.387 . S
C3578 C3581 1.387 . S
H3579 C3575 0.950 . S
H3580 C3577 0.950 . S
C3581 C3572 1.390 . S
C3581 H3574 0.950 . S
C3581 C3578 1.387 . S
C3582 C3583 1.387 . S
C3582 H3586 0.950 . S
C3582 C3591 1.390 . S
C3583 C3582 1.387 . S
C3583 C3585 1.387 . S
H3584 C3591 0.950 . S
C3585 C3583 1.387 . S
C3585 C3587 1.390 . S
C3585 H3589 0.950 . S
H3586 C3582 0.950 . S
C3587 C3585 1.390 . S
C3587 C3588 1.387 . S
C3587 H3590 0.950 . S
C3588 C3587 1.387 . S
C3588 C3591 1.387 . S
H3589 C3585 0.950 . S
H3590 C3587 0.950 . S
C3591 C3582 1.390 . S
C3591 H3584 0.950 . S
C3591 C3588 1.387 . S
C3592 C3593 1.387 . S
C3592 H3596 0.950 . S
C3592 C3601 1.390 . S
C3593 C3592 1.387 . S
C3593 C3595 1.387 . S
H3594 C3601 0.950 . S
C3595 C3593 1.387 . S
C3595 C3597 1.390 . S
C3595 H3599 0.950 . S
H3596 C3592 0.950 . S
C3597 C3595 1.390 . S
C3597 C3598 1.387 . S
C3597 H3600 0.950 . S
C3598 C3597 1.387 . S
C3598 C3601 1.387 . S
H3599 C3595 0.950 . S
H3600 C3597 0.950 . S
C3601 C3592 1.390 . S
C3601 H3594 0.950 . S
C3601 C3598 1.387 . S
C3602 C3603 1.387 . S
C3602 H3606 0.950 . S
C3602 C3611 1.390 . S
C3603 C3602 1.387 . S
C3603 C3605 1.387 . S
H3604 C3611 0.950 . S
C3605 C3603 1.387 . S
C3605 C3607 1.390 . S
C3605 H3609 0.950 . S
H3606 C3602 0.950 . S
C3607 C3605 1.390 . S
C3607 C3608 1.387 . S
C3607 H3610 0.950 . S
C3608 C3607 1.387 . S
C3608 C3611 1.387 . S
H3609 C3605 0.950 . S
H3610 C3607 0.950 . S
C3611 C3602 1.390 . S
C3611 H3604 0.950 . S
C3611 C3608 1.387 . S
C3612 C3613 1.387 . S
C3612 H3616 0.950 . S
C3612 C3621 1.390 . S
C3613 C3612 1.387 . S
C3613 C3615 1.387 . S
H3614 C3621 0.950 . S
C3615 C3613 1.387 . S
C3615 C3617 1.390 . S
C3615 H3619 0.950 . S
H3616 C3612 0.950 . S
C3617 C3615 1.390 . S
C3617 C3618 1.387 . S
C3617 H3620 0.950 . S
C3618 C3617 1.387 . S
C3618 C3621 1.387 . S
H3619 C3615 0.950 . S
H3620 C3617 0.950 . S
C3621 C3612 1.390 . S
C3621 H3614 0.950 . S
C3621 C3618 1.387 . S
C3622 C3623 1.387 . S
C3622 H3626 0.950 . S
C3622 C3631 1.390 . S
C3623 C3622 1.387 . S
C3623 C3625 1.387 . S
H3624 C3631 0.950 . S
C3625 C3623 1.387 . S
C3625 C3627 1.390 . S
C3625 H3629 0.950 . S
H3626 C3622 0.950 . S
C3627 C3625 1.390 . S
C3627 C3628 1.387 . S
C3627 H3630 0.950 . S
C3628 C3627 1.387 . S
C3628 C3631 1.387 . S
H3629 C3625 0.950 . S
H3630 C3627 0.950 . S
C3631 C3622 1.390 . S
C3631 H3624 0.950 . S
C3631 C3628 1.387 . S
C3632 C3633 1.387 . S
C3632 H3636 0.950 . S
C3632 C3641 1.390 . S
C3633 C3632 1.387 . S
C3633 C3635 1.387 . S
H3634 C3641 0.950 . S
C3635 C3633 1.387 . S
C3635 C3637 1.390 . S
C3635 H3639 0.950 . S
H3636 C3632 0.950 . S
C3637 C3635 1.390 . S
C3637 C3638 1.387 . S
C3637 H3640 0.950 . S
C3638 C3637 1.387 . S
C3638 C3641 1.387 . S
H3639 C3635 0.950 . S
H3640 C3637 0.950 . S
C3641 C3632 1.390 . S
C3641 H3634 0.950 . S
C3641 C3638 1.387 . S
C3642 C3643 1.387 . S
C3642 H3646 0.950 . S
C3642 C3651 1.390 . S
C3643 C3642 1.387 . S
C3643 C3645 1.387 . S
H3644 C3651 0.950 . S
C3645 C3643 1.387 . S
C3645 C3647 1.390 . S
C3645 H3649 0.950 . S
H3646 C3642 0.950 . S
C3647 C3645 1.390 . S
C3647 C3648 1.387 . S
C3647 H3650 0.950 . S
C3648 C3647 1.387 . S
C3648 C3651 1.387 . S
H3649 C3645 0.950 . S
H3650 C3647 0.950 . S
C3651 C3642 1.390 . S
C3651 H3644 0.950 . S
C3651 C3648 1.387 . S
C3652 C3653 1.387 . S
C3652 H3656 0.950 . S
C3652 C3661 1.390 . S
C3653 C3652 1.387 . S
C3653 C3655 1.387 . S
H3654 C3661 0.950 . S
C3655 C3653 1.387 . S
C3655 C3657 1.390 . S
C3655 H3659 0.950 . S
H3656 C3652 0.950 . S
C3657 C3655 1.390 . S
C3657 C3658 1.387 . S
C3657 H3660 0.950 . S
C3658 C3657 1.387 . S
C3658 C3661 1.387 . S
H3659 C3655 0.950 . S
H3660 C3657 0.950 . S
C3661 C3652 1.390 . S
C3661 H3654 0.950 . S
C3661 C3658 1.387 . S
C3662 C3663 1.387 . S
C3662 H3666 0.950 . S
C3662 C3671 1.390 . S
C3663 C3662 1.387 . S
C3663 C3665 1.387 . S
H3664 C3671 0.950 . S
C3665 C3663 1.387 . S
C3665 C3667 1.390 . S
C3665 H3669 0.950 . S
H3666 C3662 0.950 . S
C3667 C3665 1.390 . S
C3667 C3668 1.387 . S
C3667 H3670 0.950 . S
C3668 C3667 1.387 . S
C3668 C3671 1.387 . S
H3669 C3665 0.950 . S
H3670 C3667 0.950 . S
C3671 C3662 1.390 . S
C3671 H3664 0.950 . S
C3671 C3668 1.387 . S
C3672 C3673 1.387 . S
C3672 H3676 0.950 . S
C3672 C3681 1.390 . S
C3673 C3672 1.387 . S
C3673 C3675 1.387 . S
H3674 C3681 0.950 . S
C3675 C3673 1.387 . S
C3675 C3677 1.390 . S
C3675 H3679 0.950 . S
H3676 C3672 0.950 . S
C3677 C3675 1.390 . S
C3677 C3678 1.387 . S
C3677 H3680 0.950 . S
C3678 C3677 1.387 . S
C3678 C3681 1.387 . S
H3679 C3675 0.950 . S
H3680 C3677 0.950 . S
C3681 C3672 1.390 . S
C3681 H3674 0.950 . S
C3681 C3678 1.387 . S
C3682 C3683 1.387 . S
C3682 H3686 0.950 . S
C3682 C3691 1.390 . S
C3683 C3682 1.387 . S
C3683 C3685 1.387 . S
H3684 C3691 0.950 . S
C3685 C3683 1.387 . S
C3685 C3687 1.390 . S
C3685 H3689 0.950 . S
H3686 C3682 0.950 . S
C3687 C3685 1.390 . S
C3687 C3688 1.387 . S
C3687 H3690 0.950 . S
C3688 C3687 1.387 . S
C3688 C3691 1.387 . S
H3689 C3685 0.950 . S
H3690 C3687 0.950 . S
C3691 C3682 1.390 . S
C3691 H3684 0.950 . S
C3691 C3688 1.387 . S
C3692 C3693 1.387 . S
C3692 H3696 0.950 . S
C3692 C3701 1.390 . S
C3693 C3692 1.387 . S
C3693 C3695 1.387 . S
H3694 C3701 0.950 . S
C3695 C3693 1.387 . S
C3695 C3697 1.390 . S
C3695 H3699 0.950 . S
H3696 C3692 0.950 . S
C3697 C3695 1.390 . S
C3697 C3698 1.387 . S
C3697 H3700 0.950 . S
C3698 C3697 1.387 . S
C3698 C3701 1.387 . S
H3699 C3695 0.950 . S
H3700 C3697 0.950 . S
C3701 C3692 1.390 . S
C3701 H3694 0.950 . S
C3701 C3698 1.387 . S
C3702 C3703 1.387 . S
C3702 H3706 0.950 . S
C3702 C3711 1.390 . S
C3703 C3702 1.387 . S
C3703 C3705 1.387 . S
H3704 C3711 0.950 . S
C3705 C3703 1.387 . S
C3705 C3707 1.390 . S
C3705 H3709 0.950 . S
H3706 C3702 0.950 . S
C3707 C3705 1.390 . S
C3707 C3708 1.387 . S
C3707 H3710 0.950 . S
C3708 C3707 1.387 . S
C3708 C3711 1.387 . S
H3709 C3705 0.950 . S
H3710 C3707 0.950 . S
C3711 C3702 1.390 . S
C3711 H3704 0.950 . S
C3711 C3708 1.387 . S
C3712 C3713 1.387 . S
C3712 H3716 0.950 . S
C3712 C3721 1.390 . S
C3713 C3712 1.387 . S
C3713 C3715 1.387 . S
H3714 C3721 0.950 . S
C3715 C3713 1.387 . S
C3715 C3717 1.390 . S
C3715 H3719 0.950 . S
H3716 C3712 0.950 . S
C3717 C3715 1.390 . S
C3717 C3718 1.387 . S
C3717 H3720 0.950 . S
C3718 C3717 1.387 . S
C3718 C3721 1.387 . S
H3719 C3715 0.950 . S
H3720 C3717 0.950 . S
C3721 C3712 1.390 . S
C3721 H3714 0.950 . S
C3721 C3718 1.387 . S
C3722 C3723 1.387 . S
C3722 H3726 0.950 . S
C3722 C3731 1.390 . S
C3723 C3722 1.387 . S
C3723 C3725 1.387 . S
H3724 C3731 0.950 . S
C3725 C3723 1.387 . S
C3725 C3727 1.390 . S
C3725 H3729 0.950 . S
H3726 C3722 0.950 . S
C3727 C3725 1.390 . S
C3727 C3728 1.387 . S
C3727 H3730 0.950 . S
C3728 C3727 1.387 . S
C3728 C3731 1.387 . S
H3729 C3725 0.950 . S
H3730 C3727 0.950 . S
C3731 C3722 1.390 . S
C3731 H3724 0.950 . S
C3731 C3728 1.387 . S
C3732 C3733 1.387 . S
C3732 H3736 0.950 . S
C3732 C3741 1.390 . S
C3733 C3732 1.387 . S
C3733 C3735 1.387 . S
H3734 C3741 0.950 . S
C3735 C3733 1.387 . S
C3735 C3737 1.390 . S
C3735 H3739 0.950 . S
H3736 C3732 0.950 . S
C3737 C3735 1.390 . S
C3737 C3738 1.387 . S
C3737 H3740 0.950 . S
C3738 C3737 1.387 . S
C3738 C3741 1.387 . S
H3739 C3735 0.950 . S
H3740 C3737 0.950 . S
C3741 C3732 1.390 . S
C3741 H3734 0.950 . S
C3741 C3738 1.387 . S
C3742 C3743 1.387 . S
C3742 H3746 0.950 . S
C3742 C3751 1.390 . S
C3743 C3742 1.387 . S
C3743 C3745 1.387 . S
H3744 C3751 0.950 . S
C3745 C3743 1.387 . S
C3745 C3747 1.390 . S
C3745 H3749 0.950 . S
H3746 C3742 0.950 . S
C3747 C3745 1.390 . S
C3747 C3748 1.387 . S
C3747 H3750 0.950 . S
C3748 C3747 1.387 . S
C3748 C3751 1.387 . S
H3749 C3745 0.950 . S
H3750 C3747 0.950 . S
C3751 C3742 1.390 . S
C3751 H3744 0.950 . S
C3751 C3748 1.387 . S
C3752 C3753 1.387 . S
C3752 H3756 0.950 . S
C3752 C3761 1.390 . S
C3753 C3752 1.387 . S
C3753 C3755 1.387 . S
H3754 C3761 0.950 . S
C3755 C3753 1.387 . S
C3755 C3757 1.390 . S
C3755 H3759 0.950 . S
H3756 C3752 0.950 . S
C3757 C3755 1.390 . S
C3757 C3758 1.387 . S
C3757 H3760 0.950 . S
C3758 C3757 1.387 . S
C3758 C3761 1.387 . S
H3759 C3755 0.950 . S
H3760 C3757 0.950 . S
C3761 C3752 1.390 . S
C3761 H3754 0.950 . S
C3761 C3758 1.387 . S
C3762 C3763 1.387 . S
C3762 H3766 0.950 . S
C3762 C3771 1.390 . S
C3763 C3762 1.387 . S
C3763 C3765 1.387 . S
H3764 C3771 0.950 . S
C3765 C3763 1.387 . S
C3765 C3767 1.390 . S
C3765 H3769 0.950 . S
H3766 C3762 0.950 . S
C3767 C3765 1.390 . S
C3767 C3768 1.387 . S
C3767 H3770 0.950 . S
C3768 C3767 1.387 . S
C3768 C3771 1.387 . S
H3769 C3765 0.950 . S
H3770 C3767 0.950 . S
C3771 C3762 1.390 . S
C3771 H3764 0.950 . S
C3771 C3768 1.387 . S
C3772 C3773 1.387 . S
C3772 H3776 0.950 . S
C3772 C3781 1.390 . S
C3773 C3772 1.387 . S
C3773 C3775 1.387 . S
H3774 C3781 0.950 . S
C3775 C3773 1.387 . S
C3775 C3777 1.390 . S
C3775 H3779 0.950 . S
H3776 C3772 0.950 . S
C3777 C3775 1.390 . S
C3777 C3778 1.387 . S
C3777 H3780 0.950 . S
C3778 C3777 1.387 . S
C3778 C3781 1.387 . S
H3779 C3775 0.950 . S
H3780 C3777 0.950 . S
C3781 C3772 1.390 . S
C3781 H3774 0.950 . S
C3781 C3778 1.387 . S
C3782 C3783 1.387 . S
C3782 H3786 0.950 . S
C3782 C3791 1.390 . S
C3783 C3782 1.387 . S
C3783 C3785 1.387 . S
H3784 C3791 0.950 . S
C3785 C3783 1.387 . S
C3785 C3787 1.390 . S
C3785 H3789 0.950 . S
H3786 C3782 0.950 . S
C3787 C3785 1.390 . S
C3787 C3788 1.387 . S
C3787 H3790 0.950 . S
C3788 C3787 1.387 . S
C3788 C3791 1.387 . S
H3789 C3785 0.950 . S
H3790 C3787 0.950 . S
C3791 C3782 1.390 . S
C3791 H3784 0.950 . S
C3791 C3788 1.387 . S
C3792 C3793 1.387 . S
C3792 H3796 0.950 . S
C3792 C3801 1.390 . S
C3793 C3792 1.387 . S
C3793 C3795 1.387 . S
H3794 C3801 0.950 . S
C3795 C3793 1.387 . S
C3795 C3797 1.390 . S
C3795 H3799 0.950 . S
H3796 C3792 0.950 . S
C3797 C3795 1.390 . S
C3797 C3798 1.387 . S
C3797 H3800 0.950 . S
C3798 C3797 1.387 . S
C3798 C3801 1.387 . S
H3799 C3795 0.950 . S
H3800 C3797 0.950 . S
C3801 C3792 1.390 . S
C3801 H3794 0.950 . S
C3801 C3798 1.387 . S
C3802 C3803 1.387 . S
C3802 H3806 0.950 . S
C3802 C3811 1.390 . S
C3803 C3802 1.387 . S
C3803 C3805 1.387 . S
H3804 C3811 0.950 . S
C3805 C3803 1.387 . S
C3805 C3807 1.390 . S
C3805 H3809 0.950 . S
H3806 C3802 0.950 . S
C3807 C3805 1.390 . S
C3807 C3808 1.387 . S
C3807 H3810 0.950 . S
C3808 C3807 1.387 . S
C3808 C3811 1.387 . S
H3809 C3805 0.950 . S
H3810 C3807 0.950 . S
C3811 C3802 1.390 . S
C3811 H3804 0.950 . S
C3811 C3808 1.387 . S
C3812 C3813 1.387 . S
C3812 H3816 0.950 . S
C3812 C3821 1.390 . S
C3813 C3812 1.387 . S
C3813 C3815 1.387 . S
H3814 C3821 0.950 . S
C3815 C3813 1.387 . S
C3815 C3817 1.390 . S
C3815 H3819 0.950 . S
H3816 C3812 0.950 . S
C3817 C3815 1.390 . S
C3817 C3818 1.387 . S
C3817 H3820 0.950 . S
C3818 C3817 1.387 . S
C3818 C3821 1.387 . S
H3819 C3815 0.950 . S
H3820 C3817 0.950 . S
C3821 C3812 1.390 . S
C3821 H3814 0.950 . S
C3821 C3818 1.387 . S
C3822 C3823 1.387 . S
C3822 H3826 0.950 . S
C3822 C3831 1.390 . S
C3823 C3822 1.387 . S
C3823 C3825 1.387 . S
H3824 C3831 0.950 . S
C3825 C3823 1.387 . S
C3825 C3827 1.390 . S
C3825 H3829 0.950 . S
H3826 C3822 0.950 . S
C3827 C3825 1.390 . S
C3827 C3828 1.387 . S
C3827 H3830 0.950 . S
C3828 C3827 1.387 . S
C3828 C3831 1.387 . S
H3829 C3825 0.950 . S
H3830 C3827 0.950 . S
C3831 C3822 1.390 . S
C3831 H3824 0.950 . S
C3831 C3828 1.387 . S
C3832 C3833 1.387 . S
C3832 H3836 0.950 . S
C3832 C3841 1.390 . S
C3833 C3832 1.387 . S
C3833 C3835 1.387 . S
H3834 C3841 0.950 . S
C3835 C3833 1.387 . S
C3835 C3837 1.390 . S
C3835 H3839 0.950 . S
H3836 C3832 0.950 . S
C3837 C3835 1.390 . S
C3837 C3838 1.387 . S
C3837 H3840 0.950 . S
C3838 C3837 1.387 . S
C3838 C3841 1.387 . S
H3839 C3835 0.950 . S
H3840 C3837 0.950 . S
C3841 C3832 1.390 . S
C3841 H3834 0.950 . S
C3841 C3838 1.387 . S
C3842 C3843 1.387 . S
C3842 H3846 0.950 . S
C3842 C3851 1.390 . S
C3843 C3842 1.387 . S
C3843 C3845 1.387 . S
H3844 C3851 0.950 . S
C3845 C3843 1.387 . S
C3845 C3847 1.390 . S
C3845 H3849 0.950 . S
H3846 C3842 0.950 . S
C3847 C3845 1.390 . S
C3847 C3848 1.387 . S
C3847 H3850 0.950 . S
C3848 C3847 1.387 . S
C3848 C3851 1.387 . S
H3849 C3845 0.950 . S
H3850 C3847 0.950 . S
C3851 C3842 1.390 . S
C3851 H3844 0.950 . S
C3851 C3848 1.387 . S
C3852 C3853 1.387 . S
C3852 H3856 0.950 . S
C3852 C3861 1.390 . S
C3853 C3852 1.387 . S
C3853 C3855 1.387 . S
H3854 C3861 0.950 . S
C3855 C3853 1.387 . S
C3855 C3857 1.390 . S
C3855 H3859 0.950 . S
H3856 C3852 0.950 . S
C3857 C3855 1.390 . S
C3857 C3858 1.387 . S
C3857 H3860 0.950 . S
C3858 C3857 1.387 . S
C3858 C3861 1.387 . S
H3859 C3855 0.950 . S
H3860 C3857 0.950 . S
C3861 C3852 1.390 . S
C3861 H3854 0.950 . S
C3861 C3858 1.387 . S
C3862 C3863 1.387 . S
C3862 H3866 0.950 . S
C3862 C3871 1.390 . S
C3863 C3862 1.387 . S
C3863 C3865 1.387 . S
H3864 C3871 0.950 . S
C3865 C3863 1.387 . S
C3865 C3867 1.390 . S
C3865 H3869 0.950 . S
H3866 C3862 0.950 . S
C3867 C3865 1.390 . S
C3867 C3868 1.387 . S
C3867 H3870 0.950 . S
C3868 C3867 1.387 . S
C3868 C3871 1.387 . S
H3869 C3865 0.950 . S
H3870 C3867 0.950 . S
C3871 C3862 1.390 . S
C3871 H3864 0.950 . S
C3871 C3868 1.387 . S
C3872 C3873 1.387 . S
C3872 H3876 0.950 . S
C3872 C3881 1.390 . S
C3873 C3872 1.387 . S
C3873 C3875 1.387 . S
H3874 C3881 0.950 . S
C3875 C3873 1.387 . S
C3875 C3877 1.390 . S
C3875 H3879 0.950 . S
H3876 C3872 0.950 . S
C3877 C3875 1.390 . S
C3877 C3878 1.387 . S
C3877 H3880 0.950 . S
C3878 C3877 1.387 . S
C3878 C3881 1.387 . S
H3879 C3875 0.950 . S
H3880 C3877 0.950 . S
C3881 C3872 1.390 . S
C3881 H3874 0.950 . S
C3881 C3878 1.387 . S
C3882 C3883 1.387 . S
C3882 H3886 0.950 . S
C3882 C3891 1.390 . S
C3883 C3882 1.387 . S
C3883 C3885 1.387 . S
H3884 C3891 0.950 . S
C3885 C3883 1.387 . S
C3885 C3887 1.390 . S
C3885 H3889 0.950 . S
H3886 C3882 0.950 . S
C3887 C3885 1.390 . S
C3887 C3888 1.387 . S
C3887 H3890 0.950 . S
C3888 C3887 1.387 . S
C3888 C3891 1.387 . S
H3889 C3885 0.950 . S
H3890 C3887 0.950 . S
C3891 C3882 1.390 . S
C3891 H3884 0.950 . S
C3891 C3888 1.387 . S
C3892 C3893 1.387 . S
C3892 H3896 0.950 . S
C3892 C3901 1.390 . S
C3893 C3892 1.387 . S
C3893 C3895 1.387 . S
H3894 C3901 0.950 . S
C3895 C3893 1.387 . S
C3895 C3897 1.390 . S
C3895 H3899 0.950 . S
H3896 C3892 0.950 . S
C3897 C3895 1.390 . S
C3897 C3898 1.387 . S
C3897 H3900 0.950 . S
C3898 C3897 1.387 . S
C3898 C3901 1.387 . S
H3899 C3895 0.950 . S
H3900 C3897 0.950 . S
C3901 C3892 1.390 . S
C3901 H3894 0.950 . S
C3901 C3898 1.387 . S
C3902 C3903 1.387 . S
C3902 H3906 0.950 . S
C3902 C3911 1.390 . S
C3903 C3902 1.387 . S
C3903 C3905 1.387 . S
H3904 C3911 0.950 . S
C3905 C3903 1.387 . S
C3905 C3907 1.390 . S
C3905 H3909 0.950 . S
H3906 C3902 0.950 . S
C3907 C3905 1.390 . S
C3907 C3908 1.387 . S
C3907 H3910 0.950 . S
C3908 C3907 1.387 . S
C3908 C3911 1.387 . S
H3909 C3905 0.950 . S
H3910 C3907 0.950 . S
C3911 C3902 1.390 . S
C3911 H3904 0.950 . S
C3911 C3908 1.387 . S
C3912 C3913 1.387 . S
C3912 H3916 0.950 . S
C3912 C3921 1.390 . S
C3913 C3912 1.387 . S
C3913 C3915 1.387 . S
H3914 C3921 0.950 . S
C3915 C3913 1.387 . S
C3915 C3917 1.390 . S
C3915 H3919 0.950 . S
H3916 C3912 0.950 . S
C3917 C3915 1.390 . S
C3917 C3918 1.387 . S
C3917 H3920 0.950 . S
C3918 C3917 1.387 . S
C3918 C3921 1.387 . S
H3919 C3915 0.950 . S
H3920 C3917 0.950 . S
C3921 C3912 1.390 . S
C3921 H3914 0.950 . S
C3921 C3918 1.387 . S
C3922 C3923 1.387 . S
C3922 H3926 0.950 . S
C3922 C3931 1.390 . S
C3923 C3922 1.387 . S
C3923 C3925 1.387 . S
H3924 C3931 0.950 . S
C3925 C3923 1.387 . S
C3925 C3927 1.390 . S
C3925 H3929 0.950 . S
H3926 C3922 0.950 . S
C3927 C3925 1.390 . S
C3927 C3928 1.387 . S
C3927 H3930 0.950 . S
C3928 C3927 1.387 . S
C3928 C3931 1.387 . S
H3929 C3925 0.950 . S
H3930 C3927 0.950 . S
C3931 C3922 1.390 . S
C3931 H3924 0.950 . S
C3931 C3928 1.387 . S
C3932 C3933 1.387 . S
C3932 H3936 0.950 . S
C3932 C3941 1.390 . S
C3933 C3932 1.387 . S
C3933 C3935 1.387 . S
H3934 C3941 0.950 . S
C3935 C3933 1.387 . S
C3935 C3937 1.390 . S
C3935 H3939 0.950 . S
H3936 C3932 0.950 . S
C3937 C3935 1.390 . S
C3937 C3938 1.387 . S
C3937 H3940 0.950 . S
C3938 C3937 1.387 . S
C3938 C3941 1.387 . S
H3939 C3935 0.950 . S
H3940 C3937 0.950 . S
C3941 C3932 1.390 . S
C3941 H3934 0.950 . S
C3941 C3938 1.387 . S
C3942 C3943 1.387 . S
C3942 H3946 0.950 . S
C3942 C3951 1.390 . S
C3943 C3942 1.387 . S
C3943 C3945 1.387 . S
H3944 C3951 0.950 . S
C3945 C3943 1.387 . S
C3945 C3947 1.390 . S
C3945 H3949 0.950 . S
H3946 C3942 0.950 . S
C3947 C3945 1.390 . S
C3947 C3948 1.387 . S
C3947 H3950 0.950 . S
C3948 C3947 1.387 . S
C3948 C3951 1.387 . S
H3949 C3945 0.950 . S
H3950 C3947 0.950 . S
C3951 C3942 1.390 . S
C3951 H3944 0.950 . S
C3951 C3948 1.387 . S
C3952 C3953 1.387 . S
C3952 H3956 0.950 . S
C3952 C3961 1.390 . S
C3953 C3952 1.387 . S
C3953 C3955 1.387 . S
H3954 C3961 0.950 . S
C3955 C3953 1.387 . S
C3955 C3957 1.390 . S
C3955 H3959 0.950 . S
H3956 C3952 0.950 . S
C3957 C3955 1.390 . S
C3957 C3958 1.387 . S
C3957 H3960 0.950 . S
C3958 C3957 1.387 . S
C3958 C3961 1.387 . S
H3959 C3955 0.950 . S
H3960 C3957 0.950 . S
C3961 C3952 1.390 . S
C3961 H3954 0.950 . S
C3961 C3958 1.387 . S
C3962 C3963 1.387 . S
C3962 H3966 0.950 . S
C3962 C3971 1.390 . S
C3963 C3962 1.387 . S
C3963 C3965 1.387 . S
H3964 C3971 0.950 . S
C3965 C3963 1.387 . S
C3965 C3967 1.390 . S
C3965 H3969 0.950 . S
H3966 C3962 0.950 . S
C3967 C3965 1.390 . S
C3967 C3968 1.387 . S
C3967 H3970 0.950 . S
C3968 C3967 1.387 . S
C3968 C3971 1.387 . S
H3969 C3965 0.950 . S
H3970 C3967 0.950 . S
C3971 C3962 1.390 . S
C3971 H3964 0.950 . S
C3971 C3968 1.387 . S
C3972 C3973 1.387 . S
C3972 H3976 0.950 . S
C3972 C3981 1.390 . S
C3973 C3972 1.387 . S
C3973 C3975 1.387 . S
H3974 C3981 0.950 . S
C3975 C3973 1.387 . S
C3975 C3977 1.390 . S
C3975 H3979 0.950 . S
H3976 C3972 0.950 . S
C3977 C3975 1.390 . S
C3977 C3978 1.387 . S
C3977 H3980 0.950 . S
C3978 C3977 1.387 . S
C3978 C3981 1.387 . S
H3979 C3975 0.950 . S
H3980 C3977 0.950 . S
C3981 C3972 1.390 . S
C3981 H3974 0.950 . S
C3981 C3978 1.387 . S
C3982 C3983 1.387 . S
C3982 H3986 0.950 . S
C3982 C3991 1.390 . S
C3983 C3982 1.387 . S
C3983 C3985 1.387 . S
H3984 C3991 0.950 . S
C3985 C3983 1.387 . S
C3985 C3987 1.390 . S
C3985 H3989 0.950 . S
H3986 C3982 0.950 . S
C3987 C3985 1.390 . S
C3987 C3988 1.387 . S
C3987 H3990 0.950 . S
C3988 C3987 1.387 . S
C3988 C3991 1.387 . S
H3989 C3985 0.950 . S
H3990 C3987 0.950 . S
C3991 C3982 1.390 . S
C3991 H3984 0.950 . S
C3991 C3988 1.387 . S
C3992 C3993 1.387 . S
C3992 H3996 0.950 . S
C3992 C4001 1.390 . S
C3993 C3992 1.387 . S
C3993 C3995 1.387 . S
H3994 C4001 0.950 . S
C3995 C3993 1.387 . S
C3995 C3997 1.390 . S
C3995 H3999 0.950 . S
H3996 C3992 0.950 . S
C3997 C3995 1.390 . S
C3997 C3998 1.387 . S
C3997 H4000 0.950 . S
C3998 C3997 1.387 . S
C3998 C4001 1.387 . S
H3999 C3995 0.950 . S
H4000 C3997 0.950 . S
C4001 C3992 1.390 . S
C4001 H3994 0.950 . S
C4001 C3998 1.387 . S
C4002 C4003 1.387 . S
C4002 H4006 0.950 . S
C4002 C4011 1.390 . S
C4003 C4002 1.387 . S
C4003 C4005 1.387 . S
H4004 C4011 0.950 . S
C4005 C4003 1.387 . S
C4005 C4007 1.390 . S
C4005 H4009 0.950 . S
H4006 C4002 0.950 . S
C4007 C4005 1.390 . S
C4007 C4008 1.387 . S
C4007 H4010 0.950 . S
C4008 C4007 1.387 . S
C4008 C4011 1.387 . S
H4009 C4005 0.950 . S
H4010 C4007 0.950 . S
C4011 C4002 1.390 . S
C4011 H4004 0.950 . S
C4011 C4008 1.387 . S
C4012 C4013 1.387 . S
C4012 H4016 0.950 . S
C4012 C4021 1.390 . S
C4013 C4012 1.387 . S
C4013 C4015 1.387 . S
H4014 C4021 0.950 . S
C4015 C4013 1.387 . S
C4015 C4017 1.390 . S
C4015 H4019 0.950 . S
H4016 C4012 0.950 . S
C4017 C4015 1.390 . S
C4017 C4018 1.387 . S
C4017 H4020 0.950 . S
C4018 C4017 1.387 . S
C4018 C4021 1.387 . S
H4019 C4015 0.950 . S
H4020 C4017 0.950 . S
C4021 C4012 1.390 . S
C4021 H4014 0.950 . S
C4021 C4018 1.387 . S
C4022 C4023 1.387 . S
C4022 H4026 0.950 . S
C4022 C4031 1.390 . S
C4023 C4022 1.387 . S
C4023 C4025 1.387 . S
H4024 C4031 0.950 . S
C4025 C4023 1.387 . S
C4025 C4027 1.390 . S
C4025 H4029 0.950 . S
H4026 C4022 0.950 . S
C4027 C4025 1.390 . S
C4027 C4028 1.387 . S
C4027 H4030 0.950 . S
C4028 C4027 1.387 . S
C4028 C4031 1.387 . S
H4029 C4025 0.950 . S
H4030 C4027 0.950 . S
C4031 C4022 1.390 . S
C4031 H4024 0.950 . S
C4031 C4028 1.387 . S
C4032 C4033 1.387 1_565 S
C4032 H4036 0.950 1_565 S
C4032 C4041 1.390 . S
C4033 C4032 1.387 1_545 S
C4033 C4035 1.387 1_545 S
H4034 C4041 0.950 . S
C4035 C4033 1.387 1_565 S
C4035 C4037 1.390 . S
C4035 H4039 0.950 1_565 S
H4036 C4032 0.950 1_545 S
C4037 C4035 1.390 . S
C4037 C4038 1.387 . S
C4037 H4040 0.950 . S
C4038 C4037 1.387 . S
C4038 C4041 1.387 . S
H4039 C4035 0.950 1_545 S
H4040 C4037 0.950 . S
C4041 C4032 1.390 . S
C4041 H4034 0.950 . S
C4041 C4038 1.387 . S
C4042 C4043 1.387 . S
C4042 H4046 0.950 . S
C4042 C4051 1.390 . S
C4043 C4042 1.387 . S
C4043 C4045 1.387 . S
H4044 C4051 0.950 . S
C4045 C4043 1.387 . S
C4045 C4047 1.390 . S
C4045 H4049 0.950 . S
H4046 C4042 0.950 . S
C4047 C4045 1.390 . S
C4047 C4048 1.387 . S
C4047 H4050 0.950 . S
C4048 C4047 1.387 . S
C4048 C4051 1.387 . S
H4049 C4045 0.950 . S
H4050 C4047 0.950 . S
C4051 C4042 1.390 . S
C4051 H4044 0.950 . S
C4051 C4048 1.387 . S
C4052 C4053 1.387 . S
C4052 H4056 0.950 . S
C4052 C4061 1.390 . S
C4053 C4052 1.387 . S
C4053 C4055 1.387 . S
H4054 C4061 0.950 . S
C4055 C4053 1.387 . S
C4055 C4057 1.390 . S
C4055 H4059 0.950 . S
H4056 C4052 0.950 . S
C4057 C4055 1.390 . S
C4057 C4058 1.387 . S
C4057 H4060 0.950 . S
C4058 C4057 1.387 . S
C4058 C4061 1.387 . S
H4059 C4055 0.950 . S
H4060 C4057 0.950 . S
C4061 C4052 1.390 . S
C4061 H4054 0.950 . S
C4061 C4058 1.387 . S
C4062 C4063 1.387 1_565 S
C4062 H4066 0.950 . S
C4062 C4071 1.390 . S
C4063 C4062 1.387 1_545 S
C4063 C4065 1.387 . S
H4064 C4071 0.950 . S
C4065 C4063 1.387 . S
C4065 C4067 1.390 . S
C4065 H4069 0.950 . S
H4066 C4062 0.950 . S
C4067 C4065 1.390 . S
C4067 C4068 1.387 . S
C4067 H4070 0.950 . S
C4068 C4067 1.387 . S
C4068 C4071 1.387 1_545 S
H4069 C4065 0.950 . S
H4070 C4067 0.950 . S
C4071 C4062 1.390 . S
C4071 H4064 0.950 . S
C4071 C4068 1.387 1_565 S
C4072 C4073 1.387 . S
C4072 H4076 0.950 . S
C4072 C4081 1.390 . S
C4073 C4072 1.387 . S
C4073 C4075 1.387 . S
H4074 C4081 0.950 1_554 S
C4075 C4073 1.387 . S
C4075 C4077 1.390 . S
C4075 H4079 0.950 . S
H4076 C4072 0.950 . S
C4077 C4075 1.390 . S
C4077 C4078 1.387 1_556 S
C4077 H4080 0.950 1_556 S
C4078 C4077 1.387 1_554 S
C4078 C4081 1.387 1_554 S
H4079 C4075 0.950 . S
H4080 C4077 0.950 1_554 S
C4081 C4072 1.390 . S
C4081 H4074 0.950 1_556 S
C4081 C4078 1.387 1_556 S
C4082 C4083 1.387 . S
C4082 H4086 0.950 . S
C4082 C4091 1.390 . S
C4083 C4082 1.387 . S
C4083 C4085 1.387 . S
H4084 C4091 0.950 . S
C4085 C4083 1.387 . S
C4085 C4087 1.390 . S
C4085 H4089 0.950 . S
H4086 C4082 0.950 . S
C4087 C4085 1.390 . S
C4087 C4088 1.387 . S
C4087 H4090 0.950 . S
C4088 C4087 1.387 . S
C4088 C4091 1.387 . S
H4089 C4085 0.950 . S
H4090 C4087 0.950 . S
C4091 C4082 1.390 . S
C4091 H4084 0.950 . S
C4091 C4088 1.387 . S
C4092 C4093 1.387 . S
C4092 H4096 0.950 . S
C4092 C4101 1.390 . S
C4093 C4092 1.387 . S
C4093 C4095 1.387 . S
H4094 C4101 0.950 1_545 S
C4095 C4093 1.387 . S
C4095 C4097 1.390 . S
C4095 H4099 0.950 . S
H4096 C4092 0.950 . S
C4097 C4095 1.390 . S
C4097 C4098 1.387 1_565 S
C4097 H4100 0.950 1_565 S
C4098 C4097 1.387 1_545 S
C4098 C4101 1.387 1_545 S
H4099 C4095 0.950 . S
H4100 C4097 0.950 1_545 S
C4101 C4092 1.390 . S
C4101 H4094 0.950 1_565 S
C4101 C4098 1.387 1_565 S
C4102 C4103 1.387 1_565 S
C4102 H4106 0.950 . S
C4102 C4111 1.390 . S
C4103 C4102 1.387 1_545 S
C4103 C4105 1.387 . S
H4104 C4111 0.950 . S
C4105 C4103 1.387 . S
C4105 C4107 1.390 . S
C4105 H4109 0.950 . S
H4106 C4102 0.950 . S
C4107 C4105 1.390 . S
C4107 C4108 1.387 . S
C4107 H4110 0.950 . S
C4108 C4107 1.387 . S
C4108 C4111 1.387 1_545 S
H4109 C4105 0.950 . S
H4110 C4107 0.950 . S
C4111 C4102 1.390 . S
C4111 H4104 0.950 . S
C4111 C4108 1.387 1_565 S
C4112 C4113 1.387 . S
C4112 H4116 0.950 . S
C4112 C4121 1.390 . S
C4113 C4112 1.387 . S
C4113 C4115 1.387 . S
H4114 C4121 0.950 1_554 S
C4115 C4113 1.387 . S
C4115 C4117 1.390 . S
C4115 H4119 0.950 . S
H4116 C4112 0.950 . S
C4117 C4115 1.390 . S
C4117 C4118 1.387 1_556 S
C4117 H4120 0.950 1_556 S
C4118 C4117 1.387 1_554 S
C4118 C4121 1.387 1_554 S
H4119 C4115 0.950 . S
H4120 C4117 0.950 1_554 S
C4121 C4112 1.390 . S
C4121 H4114 0.950 1_556 S
C4121 C4118 1.387 1_556 S
C4122 C4123 1.387 1_655 S
C4122 H4126 0.950 . S
C4122 C4131 1.390 . S
C4123 C4122 1.387 1_455 S
C4123 C4125 1.387 . S
H4124 C4131 0.950 . S
C4125 C4123 1.387 . S
C4125 C4127 1.390 . S
C4125 H4129 0.950 . S
H4126 C4122 0.950 . S
C4127 C4125 1.390 . S
C4127 C4128 1.387 . S
C4127 H4130 0.950 . S
C4128 C4127 1.387 . S
C4128 C4131 1.387 1_455 S
H4129 C4125 0.950 . S
H4130 C4127 0.950 . S
C4131 C4122 1.390 . S
C4131 H4124 0.950 . S
C4131 C4128 1.387 1_655 S
C4132 C4133 1.387 . S
C4132 H4136 0.950 . S
C4132 C4141 1.390 . S
C4133 C4132 1.387 . S
C4133 C4135 1.387 . S
H4134 C4141 0.950 . S
C4135 C4133 1.387 . S
C4135 C4137 1.390 . S
C4135 H4139 0.950 . S
H4136 C4132 0.950 . S
C4137 C4135 1.390 . S
C4137 C4138 1.387 . S
C4137 H4140 0.950 . S
C4138 C4137 1.387 . S
C4138 C4141 1.387 . S
H4139 C4135 0.950 . S
H4140 C4137 0.950 . S
C4141 C4132 1.390 . S
C4141 H4134 0.950 . S
C4141 C4138 1.387 . S
C4142 C4143 1.387 . S
C4142 H4146 0.950 . S
C4142 C4151 1.390 . S
C4143 C4142 1.387 . S
C4143 C4145 1.387 . S
H4144 C4151 0.950 . S
C4145 C4143 1.387 . S
C4145 C4147 1.390 . S
C4145 H4149 0.950 . S
H4146 C4142 0.950 . S
C4147 C4145 1.390 . S
C4147 C4148 1.387 . S
C4147 H4150 0.950 . S
C4148 C4147 1.387 . S
C4148 C4151 1.387 . S
H4149 C4145 0.950 . S
H4150 C4147 0.950 . S
C4151 C4142 1.390 . S
C4151 H4144 0.950 . S
C4151 C4148 1.387 . S
C4152 C4153 1.387 . S
C4152 H4156 0.950 . S
C4152 C4161 1.390 . S
C4153 C4152 1.387 . S
C4153 C4155 1.387 . S
H4154 C4161 0.950 . S
C4155 C4153 1.387 . S
C4155 C4157 1.390 . S
C4155 H4159 0.950 . S
H4156 C4152 0.950 . S
C4157 C4155 1.390 . S
C4157 C4158 1.387 . S
C4157 H4160 0.950 . S
C4158 C4157 1.387 . S
C4158 C4161 1.387 . S
H4159 C4155 0.950 . S
H4160 C4157 0.950 . S
C4161 C4152 1.390 . S
C4161 H4154 0.950 . S
C4161 C4158 1.387 . S
C4162 C4163 1.387 . S
C4162 H4166 0.950 . S
C4162 C4171 1.390 . S
C4163 C4162 1.387 . S
C4163 C4165 1.387 . S
H4164 C4171 0.950 . S
C4165 C4163 1.387 . S
C4165 C4167 1.390 . S
C4165 H4169 0.950 . S
H4166 C4162 0.950 . S
C4167 C4165 1.390 . S
C4167 C4168 1.387 . S
C4167 H4170 0.950 . S
C4168 C4167 1.387 . S
C4168 C4171 1.387 . S
H4169 C4165 0.950 . S
H4170 C4167 0.950 . S
C4171 C4162 1.390 . S
C4171 H4164 0.950 . S
C4171 C4168 1.387 . S
C4172 C4173 1.387 . S
C4172 H4176 0.950 . S
C4172 C4181 1.390 . S
C4173 C4172 1.387 . S
C4173 C4175 1.387 . S
H4174 C4181 0.950 . S
C4175 C4173 1.387 . S
C4175 C4177 1.390 . S
C4175 H4179 0.950 . S
H4176 C4172 0.950 . S
C4177 C4175 1.390 . S
C4177 C4178 1.387 . S
C4177 H4180 0.950 . S
C4178 C4177 1.387 . S
C4178 C4181 1.387 . S
H4179 C4175 0.950 . S
H4180 C4177 0.950 . S
C4181 C4172 1.390 . S
C4181 H4174 0.950 . S
C4181 C4178 1.387 . S
C4182 C4183 1.387 1_655 S
C4182 H4186 0.950 . S
C4182 C4191 1.390 . S
C4183 C4182 1.387 1_455 S
C4183 C4185 1.387 . S
H4184 C4191 0.950 . S
C4185 C4183 1.387 . S
C4185 C4187 1.390 . S
C4185 H4189 0.950 . S
H4186 C4182 0.950 . S
C4187 C4185 1.390 . S
C4187 C4188 1.387 . S
C4187 H4190 0.950 . S
C4188 C4187 1.387 . S
C4188 C4191 1.387 1_455 S
H4189 C4185 0.950 . S
H4190 C4187 0.950 . S
C4191 C4182 1.390 . S
C4191 H4184 0.950 . S
C4191 C4188 1.387 1_655 S
C4192 C4193 1.387 1_655 S
C4192 H4196 0.950 1_655 S
C4192 C4201 1.390 . S
C4193 C4192 1.387 1_455 S
C4193 C4195 1.387 1_455 S
H4194 C4201 0.950 . S
C4195 C4193 1.387 1_655 S
C4195 C4197 1.390 . S
C4195 H4199 0.950 1_655 S
H4196 C4192 0.950 1_455 S
C4197 C4195 1.390 . S
C4197 C4198 1.387 . S
C4197 H4200 0.950 . S
C4198 C4197 1.387 . S
C4198 C4201 1.387 . S
H4199 C4195 0.950 1_455 S
H4200 C4197 0.950 . S
C4201 C4192 1.390 . S
C4201 H4194 0.950 . S
C4201 C4198 1.387 . S
C4202 C4203 1.387 . S
C4202 H4206 0.950 . S
C4202 C4211 1.390 . S
C4203 C4202 1.387 . S
C4203 C4205 1.387 . S
H4204 C4211 0.950 . S
C4205 C4203 1.387 . S
C4205 C4207 1.390 . S
C4205 H4209 0.950 . S
H4206 C4202 0.950 . S
C4207 C4205 1.390 . S
C4207 C4208 1.387 . S
C4207 H4210 0.950 . S
C4208 C4207 1.387 . S
C4208 C4211 1.387 . S
H4209 C4205 0.950 . S
H4210 C4207 0.950 . S
C4211 C4202 1.390 . S
C4211 H4204 0.950 . S
C4211 C4208 1.387 . S
C4212 C4213 1.387 . S
C4212 H4216 0.950 . S
C4212 C4221 1.390 . S
C4213 C4212 1.387 . S
C4213 C4215 1.387 . S
H4214 C4221 0.950 . S
C4215 C4213 1.387 . S
C4215 C4217 1.390 . S
C4215 H4219 0.950 . S
H4216 C4212 0.950 . S
C4217 C4215 1.390 . S
C4217 C4218 1.387 . S
C4217 H4220 0.950 . S
C4218 C4217 1.387 . S
C4218 C4221 1.387 . S
H4219 C4215 0.950 . S
H4220 C4217 0.950 . S
C4221 C4212 1.390 . S
C4221 H4214 0.950 . S
C4221 C4218 1.387 . S
C4222 C4223 1.387 . S
C4222 H4226 0.950 . S
C4222 C4231 1.390 . S
C4223 C4222 1.387 . S
C4223 C4225 1.387 . S
H4224 C4231 0.950 . S
C4225 C4223 1.387 . S
C4225 C4227 1.390 . S
C4225 H4229 0.950 . S
H4226 C4222 0.950 . S
C4227 C4225 1.390 . S
C4227 C4228 1.387 . S
C4227 H4230 0.950 . S
C4228 C4227 1.387 . S
C4228 C4231 1.387 . S
H4229 C4225 0.950 . S
H4230 C4227 0.950 . S
C4231 C4222 1.390 . S
C4231 H4224 0.950 . S
C4231 C4228 1.387 . S
C4232 C4233 1.387 . S
C4232 H4236 0.950 . S
C4232 C4241 1.390 . S
C4233 C4232 1.387 . S
C4233 C4235 1.387 . S
H4234 C4241 0.950 . S
C4235 C4233 1.387 . S
C4235 C4237 1.390 . S
C4235 H4239 0.950 . S
H4236 C4232 0.950 . S
C4237 C4235 1.390 . S
C4237 C4238 1.387 . S
C4237 H4240 0.950 . S
C4238 C4237 1.387 . S
C4238 C4241 1.387 . S
H4239 C4235 0.950 . S
H4240 C4237 0.950 . S
C4241 C4232 1.390 . S
C4241 H4234 0.950 . S
C4241 C4238 1.387 . S
C4242 C4243 1.387 . S
C4242 H4246 0.950 . S
C4242 C4251 1.390 . S
C4243 C4242 1.387 . S
C4243 C4245 1.387 . S
H4244 C4251 0.950 1_545 S
C4245 C4243 1.387 . S
C4245 C4247 1.390 . S
C4245 H4249 0.950 . S
H4246 C4242 0.950 . S
C4247 C4245 1.390 . S
C4247 C4248 1.387 1_565 S
C4247 H4250 0.950 1_565 S
C4248 C4247 1.387 1_545 S
C4248 C4251 1.387 1_545 S
H4249 C4245 0.950 . S
H4250 C4247 0.950 1_545 S
C4251 C4242 1.390 . S
C4251 H4244 0.950 1_565 S
C4251 C4248 1.387 1_565 S
C4252 C4253 1.387 . S
C4252 H4256 0.950 . S
C4252 C4261 1.390 . S
C4253 C4252 1.387 . S
C4253 C4255 1.387 . S
H4254 C4261 0.950 . S
C4255 C4253 1.387 . S
C4255 C4257 1.390 . S
C4255 H4259 0.950 . S
H4256 C4252 0.950 . S
C4257 C4255 1.390 . S
C4257 C4258 1.387 . S
C4257 H4260 0.950 . S
C4258 C4257 1.387 . S
C4258 C4261 1.387 . S
H4259 C4255 0.950 . S
H4260 C4257 0.950 . S
C4261 C4252 1.390 . S
C4261 H4254 0.950 . S
C4261 C4258 1.387 . S
C4262 C4263 1.387 . S
C4262 H4266 0.950 . S
C4262 C4271 1.390 . S
C4263 C4262 1.387 . S
C4263 C4265 1.387 . S
H4264 C4271 0.950 . S
C4265 C4263 1.387 . S
C4265 C4267 1.390 . S
C4265 H4269 0.950 . S
H4266 C4262 0.950 . S
C4267 C4265 1.390 . S
C4267 C4268 1.387 . S
C4267 H4270 0.950 . S
C4268 C4267 1.387 . S
C4268 C4271 1.387 . S
H4269 C4265 0.950 . S
H4270 C4267 0.950 . S
C4271 C4262 1.390 . S
C4271 H4264 0.950 . S
C4271 C4268 1.387 . S
C4272 C4273 1.387 . S
C4272 H4276 0.950 . S
C4272 C4281 1.390 . S
C4273 C4272 1.387 . S
C4273 C4275 1.387 1_455 S
H4274 C4281 0.950 . S
C4275 C4273 1.387 1_655 S
C4275 C4277 1.390 . S
C4275 H4279 0.950 . S
H4276 C4272 0.950 . S
C4277 C4275 1.390 . S
C4277 C4278 1.387 1_655 S
C4277 H4280 0.950 . S
C4278 C4277 1.387 1_455 S
C4278 C4281 1.387 . S
H4279 C4275 0.950 . S
H4280 C4277 0.950 . S
C4281 C4272 1.390 . S
C4281 H4274 0.950 . S
C4281 C4278 1.387 . S
C4282 C4283 1.387 1_655 S
C4282 H4286 0.950 1_655 S
C4282 C4291 1.390 . S
C4283 C4282 1.387 1_455 S
C4283 C4285 1.387 1_455 S
H4284 C4291 0.950 . S
C4285 C4283 1.387 1_655 S
C4285 C4287 1.390 . S
C4285 H4289 0.950 1_655 S
H4286 C4282 0.950 1_455 S
C4287 C4285 1.390 . S
C4287 C4288 1.387 . S
C4287 H4290 0.950 . S
C4288 C4287 1.387 . S
C4288 C4291 1.387 . S
H4289 C4285 0.950 1_455 S
H4290 C4287 0.950 . S
C4291 C4282 1.390 . S
C4291 H4284 0.950 . S
C4291 C4288 1.387 . S
C4292 C4293 1.387 . S
C4292 H4296 0.950 . S
C4292 C4301 1.390 . S
C4293 C4292 1.387 . S
C4293 C4295 1.387 . S
H4294 C4301 0.950 . S
C4295 C4293 1.387 . S
C4295 C4297 1.390 . S
C4295 H4299 0.950 . S
H4296 C4292 0.950 . S
C4297 C4295 1.390 . S
C4297 C4298 1.387 . S
C4297 H4300 0.950 . S
C4298 C4297 1.387 . S
C4298 C4301 1.387 . S
H4299 C4295 0.950 . S
H4300 C4297 0.950 . S
C4301 C4292 1.390 . S
C4301 H4294 0.950 . S
C4301 C4298 1.387 . S
C4302 C4303 1.387 . S
C4302 H4306 0.950 . S
C4302 C4311 1.390 . S
C4303 C4302 1.387 . S
C4303 C4305 1.387 . S
H4304 C4311 0.950 . S
C4305 C4303 1.387 . S
C4305 C4307 1.390 . S
C4305 H4309 0.950 . S
H4306 C4302 0.950 . S
C4307 C4305 1.390 . S
C4307 C4308 1.387 . S
C4307 H4310 0.950 . S
C4308 C4307 1.387 . S
C4308 C4311 1.387 . S
H4309 C4305 0.950 . S
H4310 C4307 0.950 . S
C4311 C4302 1.390 . S
C4311 H4304 0.950 . S
C4311 C4308 1.387 . S
C4312 C4313 1.387 . S
C4312 H4316 0.950 . S
C4312 C4321 1.390 . S
C4313 C4312 1.387 . S
C4313 C4315 1.387 . S
H4314 C4321 0.950 . S
C4315 C4313 1.387 . S
C4315 C4317 1.390 . S
C4315 H4319 0.950 . S
H4316 C4312 0.950 . S
C4317 C4315 1.390 . S
C4317 C4318 1.387 . S
C4317 H4320 0.950 . S
C4318 C4317 1.387 . S
C4318 C4321 1.387 . S
H4319 C4315 0.950 . S
H4320 C4317 0.950 . S
C4321 C4312 1.390 . S
C4321 H4314 0.950 . S
C4321 C4318 1.387 . S
C4322 C4323 1.387 1_655 S
C4322 H4326 0.950 1_655 S
C4322 C4331 1.390 . S
C4323 C4322 1.387 1_455 S
C4323 C4325 1.387 1_455 S
H4324 C4331 0.950 . S
C4325 C4323 1.387 1_655 S
C4325 C4327 1.390 . S
C4325 H4329 0.950 1_655 S
H4326 C4322 0.950 1_455 S
C4327 C4325 1.390 . S
C4327 C4328 1.387 . S
C4327 H4330 0.950 . S
C4328 C4327 1.387 . S
C4328 C4331 1.387 . S
H4329 C4325 0.950 1_455 S
H4330 C4327 0.950 . S
C4331 C4322 1.390 . S
C4331 H4324 0.950 . S
C4331 C4328 1.387 . S
C4332 C4333 1.387 . S
C4332 H4336 0.950 . S
C4332 C4341 1.390 . S
C4333 C4332 1.387 . S
C4333 C4335 1.387 . S
H4334 C4341 0.950 . S
C4335 C4333 1.387 . S
C4335 C4337 1.390 . S
C4335 H4339 0.950 . S
H4336 C4332 0.950 . S
C4337 C4335 1.390 . S
C4337 C4338 1.387 . S
C4337 H4340 0.950 . S
C4338 C4337 1.387 . S
C4338 C4341 1.387 . S
H4339 C4335 0.950 . S
H4340 C4337 0.950 . S
C4341 C4332 1.390 . S
C4341 H4334 0.950 . S
C4341 C4338 1.387 . S
C4342 C4343 1.387 . S
C4342 H4346 0.950 . S
C4342 C4351 1.390 . S
C4343 C4342 1.387 . S
C4343 C4345 1.387 . S
H4344 C4351 0.950 . S
C4345 C4343 1.387 . S
C4345 C4347 1.390 . S
C4345 H4349 0.950 . S
H4346 C4342 0.950 . S
C4347 C4345 1.390 . S
C4347 C4348 1.387 . S
C4347 H4350 0.950 . S
C4348 C4347 1.387 . S
C4348 C4351 1.387 . S
H4349 C4345 0.950 . S
H4350 C4347 0.950 . S
C4351 C4342 1.390 . S
C4351 H4344 0.950 . S
C4351 C4348 1.387 . S
C4352 C4353 1.387 . S
C4352 H4356 0.950 . S
C4352 C4361 1.390 . S
C4353 C4352 1.387 . S
C4353 C4355 1.387 . S
H4354 C4361 0.950 . S
C4355 C4353 1.387 . S
C4355 C4357 1.390 . S
C4355 H4359 0.950 . S
H4356 C4352 0.950 . S
C4357 C4355 1.390 . S
C4357 C4358 1.387 . S
C4357 H4360 0.950 . S
C4358 C4357 1.387 . S
C4358 C4361 1.387 . S
H4359 C4355 0.950 . S
H4360 C4357 0.950 . S
C4361 C4352 1.390 . S
C4361 H4354 0.950 . S
C4361 C4358 1.387 . S
C4362 C4363 1.387 . S
C4362 H4366 0.950 . S
C4362 C4371 1.390 . S
C4363 C4362 1.387 . S
C4363 C4365 1.387 . S
H4364 C4371 0.950 . S
C4365 C4363 1.387 . S
C4365 C4367 1.390 . S
C4365 H4369 0.950 . S
H4366 C4362 0.950 . S
C4367 C4365 1.390 . S
C4367 C4368 1.387 . S
C4367 H4370 0.950 . S
C4368 C4367 1.387 . S
C4368 C4371 1.387 . S
H4369 C4365 0.950 . S
H4370 C4367 0.950 . S
C4371 C4362 1.390 . S
C4371 H4364 0.950 . S
C4371 C4368 1.387 . S
C4372 C4373 1.387 . S
C4372 H4376 0.950 . S
C4372 C4381 1.390 . S
C4373 C4372 1.387 . S
C4373 C4375 1.387 . S
H4374 C4381 0.950 . S
C4375 C4373 1.387 . S
C4375 C4377 1.390 . S
C4375 H4379 0.950 . S
H4376 C4372 0.950 . S
C4377 C4375 1.390 . S
C4377 C4378 1.387 . S
C4377 H4380 0.950 . S
C4378 C4377 1.387 . S
C4378 C4381 1.387 . S
H4379 C4375 0.950 . S
H4380 C4377 0.950 . S
C4381 C4372 1.390 . S
C4381 H4374 0.950 . S
C4381 C4378 1.387 . S
C4382 C4383 1.387 1_565 S
C4382 H4386 0.950 . S
C4382 C4391 1.390 . S
C4383 C4382 1.387 1_545 S
C4383 C4385 1.387 . S
H4384 C4391 0.950 . S
C4385 C4383 1.387 . S
C4385 C4387 1.390 . S
C4385 H4389 0.950 . S
H4386 C4382 0.950 . S
C4387 C4385 1.390 . S
C4387 C4388 1.387 . S
C4387 H4390 0.950 . S
C4388 C4387 1.387 . S
C4388 C4391 1.387 1_545 S
H4389 C4385 0.950 . S
H4390 C4387 0.950 . S
C4391 C4382 1.390 . S
C4391 H4384 0.950 . S
C4391 C4388 1.387 1_565 S
C4392 C4393 1.387 1_556 S
C4392 H4396 0.950 . S
C4392 C4401 1.390 . S
C4393 C4392 1.387 1_554 S
C4393 C4395 1.387 . S
H4394 C4401 0.950 . S
C4395 C4393 1.387 . S
C4395 C4397 1.390 . S
C4395 H4399 0.950 . S
H4396 C4392 0.950 . S
C4397 C4395 1.390 . S
C4397 C4398 1.387 . S
C4397 H4400 0.950 . S
C4398 C4397 1.387 . S
C4398 C4401 1.387 1_554 S
H4399 C4395 0.950 . S
H4400 C4397 0.950 . S
C4401 C4392 1.390 . S
C4401 H4394 0.950 . S
C4401 C4398 1.387 1_556 S
C4402 C4403 1.387 . S
C4402 H4406 0.950 . S
C4402 C4411 1.390 . S
C4403 C4402 1.387 . S
C4403 C4405 1.387 . S
H4404 C4411 0.950 . S
C4405 C4403 1.387 . S
C4405 C4407 1.390 . S
C4405 H4409 0.950 . S
H4406 C4402 0.950 . S
C4407 C4405 1.390 . S
C4407 C4408 1.387 . S
C4407 H4410 0.950 . S
C4408 C4407 1.387 . S
C4408 C4411 1.387 . S
H4409 C4405 0.950 . S
H4410 C4407 0.950 . S
C4411 C4402 1.390 . S
C4411 H4404 0.950 . S
C4411 C4408 1.387 . S
C4412 C4413 1.387 . S
C4412 H4416 0.950 . S
C4412 C4421 1.390 . S
C4413 C4412 1.387 . S
C4413 C4415 1.387 . S
H4414 C4421 0.950 . S
C4415 C4413 1.387 . S
C4415 C4417 1.390 . S
C4415 H4419 0.950 . S
H4416 C4412 0.950 . S
C4417 C4415 1.390 . S
C4417 C4418 1.387 . S
C4417 H4420 0.950 . S
C4418 C4417 1.387 . S
C4418 C4421 1.387 . S
H4419 C4415 0.950 . S
H4420 C4417 0.950 . S
C4421 C4412 1.390 . S
C4421 H4414 0.950 . S
C4421 C4418 1.387 . S
C4422 C4423 1.387 . S
C4422 H4426 0.950 . S
C4422 C4431 1.390 . S
C4423 C4422 1.387 . S
C4423 C4425 1.387 . S
H4424 C4431 0.950 . S
C4425 C4423 1.387 . S
C4425 C4427 1.390 . S
C4425 H4429 0.950 . S
H4426 C4422 0.950 . S
C4427 C4425 1.390 . S
C4427 C4428 1.387 . S
C4427 H4430 0.950 . S
C4428 C4427 1.387 . S
C4428 C4431 1.387 . S
H4429 C4425 0.950 . S
H4430 C4427 0.950 . S
C4431 C4422 1.390 . S
C4431 H4424 0.950 . S
C4431 C4428 1.387 . S
C4432 C4433 1.387 . S
C4432 H4436 0.950 . S
C4432 C4441 1.390 . S
C4433 C4432 1.387 . S
C4433 C4435 1.387 . S
H4434 C4441 0.950 . S
C4435 C4433 1.387 . S
C4435 C4437 1.390 . S
C4435 H4439 0.950 . S
H4436 C4432 0.950 . S
C4437 C4435 1.390 . S
C4437 C4438 1.387 . S
C4437 H4440 0.950 . S
C4438 C4437 1.387 . S
C4438 C4441 1.387 . S
H4439 C4435 0.950 . S
H4440 C4437 0.950 . S
C4441 C4432 1.390 . S
C4441 H4434 0.950 . S
C4441 C4438 1.387 . S
C4442 C4443 1.387 1_556 S
C4442 H4446 0.950 . S
C4442 C4451 1.390 . S
C4443 C4442 1.387 1_554 S
C4443 C4445 1.387 . S
H4444 C4451 0.950 . S
C4445 C4443 1.387 . S
C4445 C4447 1.390 . S
C4445 H4449 0.950 . S
H4446 C4442 0.950 . S
C4447 C4445 1.390 . S
C4447 C4448 1.387 . S
C4447 H4450 0.950 . S
C4448 C4447 1.387 . S
C4448 C4451 1.387 1_554 S
H4449 C4445 0.950 . S
H4450 C4447 0.950 . S
C4451 C4442 1.390 . S
C4451 H4444 0.950 . S
C4451 C4448 1.387 1_556 S
C4452 C4453 1.387 . S
C4452 H4456 0.950 . S
C4452 C4461 1.390 . S
C4453 C4452 1.387 . S
C4453 C4455 1.387 . S
H4454 C4461 0.950 1_545 S
C4455 C4453 1.387 . S
C4455 C4457 1.390 . S
C4455 H4459 0.950 . S
H4456 C4452 0.950 . S
C4457 C4455 1.390 . S
C4457 C4458 1.387 1_565 S
C4457 H4460 0.950 1_565 S
C4458 C4457 1.387 1_545 S
C4458 C4461 1.387 1_545 S
H4459 C4455 0.950 . S
H4460 C4457 0.950 1_545 S
C4461 C4452 1.390 . S
C4461 H4454 0.950 1_565 S
C4461 C4458 1.387 1_565 S
C4462 C4463 1.387 . S
C4462 H4466 0.950 . S
C4462 C4471 1.390 . S
C4463 C4462 1.387 . S
C4463 C4465 1.387 . S
H4464 C4471 0.950 . S
C4465 C4463 1.387 . S
C4465 C4467 1.390 . S
C4465 H4469 0.950 . S
H4466 C4462 0.950 . S
C4467 C4465 1.390 . S
C4467 C4468 1.387 . S
C4467 H4470 0.950 . S
C4468 C4467 1.387 . S
C4468 C4471 1.387 . S
H4469 C4465 0.950 . S
H4470 C4467 0.950 . S
C4471 C4462 1.390 . S
C4471 H4464 0.950 . S
C4471 C4468 1.387 . S
C4472 C4473 1.387 . S
C4472 H4476 0.950 . S
C4472 C4481 1.390 . S
C4473 C4472 1.387 . S
C4473 C4475 1.387 . S
H4474 C4481 0.950 . S
C4475 C4473 1.387 . S
C4475 C4477 1.390 . S
C4475 H4479 0.950 . S
H4476 C4472 0.950 . S
C4477 C4475 1.390 . S
C4477 C4478 1.387 . S
C4477 H4480 0.950 . S
C4478 C4477 1.387 . S
C4478 C4481 1.387 . S
H4479 C4475 0.950 . S
H4480 C4477 0.950 . S
C4481 C4472 1.390 . S
C4481 H4474 0.950 . S
C4481 C4478 1.387 . S
C4482 C4483 1.387 . S
C4482 H4486 0.950 . S
C4482 C4491 1.390 . S
C4483 C4482 1.387 . S
C4483 C4485 1.387 . S
H4484 C4491 0.950 . S
C4485 C4483 1.387 . S
C4485 C4487 1.390 . S
C4485 H4489 0.950 . S
H4486 C4482 0.950 . S
C4487 C4485 1.390 . S
C4487 C4488 1.387 . S
C4487 H4490 0.950 . S
C4488 C4487 1.387 . S
C4488 C4491 1.387 . S
H4489 C4485 0.950 . S
H4490 C4487 0.950 . S
C4491 C4482 1.390 . S
C4491 H4484 0.950 . S
C4491 C4488 1.387 . S
C4492 C4493 1.387 . S
C4492 H4496 0.950 . S
C4492 C4501 1.390 . S
C4493 C4492 1.387 . S
C4493 C4495 1.387 . S
H4494 C4501 0.950 . S
C4495 C4493 1.387 . S
C4495 C4497 1.390 . S
C4495 H4499 0.950 . S
H4496 C4492 0.950 . S
C4497 C4495 1.390 . S
C4497 C4498 1.387 . S
C4497 H4500 0.950 . S
C4498 C4497 1.387 . S
C4498 C4501 1.387 . S
H4499 C4495 0.950 . S
H4500 C4497 0.950 . S
C4501 C4492 1.390 . S
C4501 H4494 0.950 . S
C4501 C4498 1.387 . S
C4502 C4503 1.387 . S
C4502 H4506 0.950 . S
C4502 C4511 1.390 . S
C4503 C4502 1.387 . S
C4503 C4505 1.387 . S
H4504 C4511 0.950 . S
C4505 C4503 1.387 . S
C4505 C4507 1.390 . S
C4505 H4509 0.950 . S
H4506 C4502 0.950 . S
C4507 C4505 1.390 . S
C4507 C4508 1.387 . S
C4507 H4510 0.950 . S
C4508 C4507 1.387 . S
C4508 C4511 1.387 . S
H4509 C4505 0.950 . S
H4510 C4507 0.950 . S
C4511 C4502 1.390 . S
C4511 H4504 0.950 . S
C4511 C4508 1.387 . S
C4512 C4513 1.387 1_556 S
C4512 H4516 0.950 1_556 S
C4512 C4521 1.390 . S
C4513 C4512 1.387 1_554 S
C4513 C4515 1.387 1_554 S
H4514 C4521 0.950 . S
C4515 C4513 1.387 1_556 S
C4515 C4517 1.390 . S
C4515 H4519 0.950 1_556 S
H4516 C4512 0.950 1_554 S
C4517 C4515 1.390 . S
C4517 C4518 1.387 . S
C4517 H4520 0.950 . S
C4518 C4517 1.387 . S
C4518 C4521 1.387 . S
H4519 C4515 0.950 1_554 S
H4520 C4517 0.950 . S
C4521 C4512 1.390 . S
C4521 H4514 0.950 . S
C4521 C4518 1.387 . S
C4522 C4523 1.387 . S
C4522 H4526 0.950 . S
C4522 C4531 1.390 . S
C4523 C4522 1.387 . S
C4523 C4525 1.387 . S
H4524 C4531 0.950 . S
C4525 C4523 1.387 . S
C4525 C4527 1.390 . S
C4525 H4529 0.950 . S
H4526 C4522 0.950 . S
C4527 C4525 1.390 . S
C4527 C4528 1.387 . S
C4527 H4530 0.950 . S
C4528 C4527 1.387 . S
C4528 C4531 1.387 . S
H4529 C4525 0.950 . S
H4530 C4527 0.950 . S
C4531 C4522 1.390 . S
C4531 H4524 0.950 . S
C4531 C4528 1.387 . S
C4532 C4533 1.387 . S
C4532 H4536 0.950 . S
C4532 C4541 1.390 . S
C4533 C4532 1.387 . S
C4533 C4535 1.387 . S
H4534 C4541 0.950 . S
C4535 C4533 1.387 . S
C4535 C4537 1.390 . S
C4535 H4539 0.950 . S
H4536 C4532 0.950 . S
C4537 C4535 1.390 . S
C4537 C4538 1.387 . S
C4537 H4540 0.950 . S
C4538 C4537 1.387 . S
C4538 C4541 1.387 . S
H4539 C4535 0.950 . S
H4540 C4537 0.950 . S
C4541 C4532 1.390 . S
C4541 H4534 0.950 . S
C4541 C4538 1.387 . S
C4542 C4543 1.387 . S
C4542 H4546 0.950 . S
C4542 C4551 1.390 . S
C4543 C4542 1.387 . S
C4543 C4545 1.387 . S
H4544 C4551 0.950 1_554 S
C4545 C4543 1.387 . S
C4545 C4547 1.390 . S
C4545 H4549 0.950 . S
H4546 C4542 0.950 . S
C4547 C4545 1.390 . S
C4547 C4548 1.387 1_556 S
C4547 H4550 0.950 1_556 S
C4548 C4547 1.387 1_554 S
C4548 C4551 1.387 1_554 S
H4549 C4545 0.950 . S
H4550 C4547 0.950 1_554 S
C4551 C4542 1.390 . S
C4551 H4544 0.950 1_556 S
C4551 C4548 1.387 1_556 S
C4552 C4553 1.387 . S
C4552 H4556 0.950 . S
C4552 C4561 1.390 . S
C4553 C4552 1.387 . S
C4553 C4555 1.387 . S
H4554 C4561 0.950 . S
C4555 C4553 1.387 . S
C4555 C4557 1.390 . S
C4555 H4559 0.950 . S
H4556 C4552 0.950 . S
C4557 C4555 1.390 . S
C4557 C4558 1.387 . S
C4557 H4560 0.950 . S
C4558 C4557 1.387 . S
C4558 C4561 1.387 . S
H4559 C4555 0.950 . S
H4560 C4557 0.950 . S
C4561 C4552 1.390 . S
C4561 H4554 0.950 . S
C4561 C4558 1.387 . S
C4562 C4563 1.387 . S
C4562 H4566 0.950 . S
C4562 C4571 1.390 . S
C4563 C4562 1.387 . S
C4563 C4565 1.387 . S
H4564 C4571 0.950 . S
C4565 C4563 1.387 . S
C4565 C4567 1.390 . S
C4565 H4569 0.950 . S
H4566 C4562 0.950 . S
C4567 C4565 1.390 . S
C4567 C4568 1.387 . S
C4567 H4570 0.950 . S
C4568 C4567 1.387 . S
C4568 C4571 1.387 . S
H4569 C4565 0.950 . S
H4570 C4567 0.950 . S
C4571 C4562 1.390 . S
C4571 H4564 0.950 . S
C4571 C4568 1.387 . S
C4572 C4573 1.387 . S
C4572 H4576 0.950 . S
C4572 C4581 1.390 . S
C4573 C4572 1.387 . S
C4573 C4575 1.387 . S
H4574 C4581 0.950 . S
C4575 C4573 1.387 . S
C4575 C4577 1.390 . S
C4575 H4579 0.950 . S
H4576 C4572 0.950 . S
C4577 C4575 1.390 . S
C4577 C4578 1.387 . S
C4577 H4580 0.950 . S
C4578 C4577 1.387 . S
C4578 C4581 1.387 . S
H4579 C4575 0.950 . S
H4580 C4577 0.950 . S
C4581 C4572 1.390 . S
C4581 H4574 0.950 . S
C4581 C4578 1.387 . S
C4582 C4583 1.387 . S
C4582 H4586 0.950 . S
C4582 C4591 1.390 . S
C4583 C4582 1.387 . S
C4583 C4585 1.387 1_455 S
H4584 C4591 0.950 . S
C4585 C4583 1.387 1_655 S
C4585 C4587 1.390 . S
C4585 H4589 0.950 . S
H4586 C4582 0.950 . S
C4587 C4585 1.390 . S
C4587 C4588 1.387 1_655 S
C4587 H4590 0.950 . S
C4588 C4587 1.387 1_455 S
C4588 C4591 1.387 . S
H4589 C4585 0.950 . S
H4590 C4587 0.950 . S
C4591 C4582 1.390 . S
C4591 H4584 0.950 . S
C4591 C4588 1.387 . S
C4592 C4593 1.387 1_655 S
C4592 H4596 0.950 1_655 S
C4592 C4601 1.390 . S
C4593 C4592 1.387 1_455 S
C4593 C4595 1.387 1_455 S
H4594 C4601 0.950 . S
C4595 C4593 1.387 1_655 S
C4595 C4597 1.390 . S
C4595 H4599 0.950 1_655 S
H4596 C4592 0.950 1_455 S
C4597 C4595 1.390 . S
C4597 C4598 1.387 . S
C4597 H4600 0.950 . S
C4598 C4597 1.387 . S
C4598 C4601 1.387 . S
H4599 C4595 0.950 1_455 S
H4600 C4597 0.950 . S
C4601 C4592 1.390 . S
C4601 H4594 0.950 . S
C4601 C4598 1.387 . S
C4602 C4603 1.387 . S
C4602 H4606 0.950 . S
C4602 C4611 1.390 . S
C4603 C4602 1.387 . S
C4603 C4605 1.387 1_554 S
H4604 C4611 0.950 . S
C4605 C4603 1.387 1_556 S
C4605 C4607 1.390 . S
C4605 H4609 0.950 . S
H4606 C4602 0.950 . S
C4607 C4605 1.390 . S
C4607 C4608 1.387 1_556 S
C4607 H4610 0.950 . S
C4608 C4607 1.387 1_554 S
C4608 C4611 1.387 . S
H4609 C4605 0.950 . S
H4610 C4607 0.950 . S
C4611 C4602 1.390 . S
C4611 H4604 0.950 . S
C4611 C4608 1.387 . S
C4612 C4613 1.387 . S
C4612 H4616 0.950 . S
C4612 C4621 1.390 . S
C4613 C4612 1.387 . S
C4613 C4615 1.387 . S
H4614 C4621 0.950 . S
C4615 C4613 1.387 . S
C4615 C4617 1.390 . S
C4615 H4619 0.950 . S
H4616 C4612 0.950 . S
C4617 C4615 1.390 . S
C4617 C4618 1.387 . S
C4617 H4620 0.950 . S
C4618 C4617 1.387 . S
C4618 C4621 1.387 . S
H4619 C4615 0.950 . S
H4620 C4617 0.950 . S
C4621 C4612 1.390 . S
C4621 H4614 0.950 . S
C4621 C4618 1.387 . S
C4622 C4623 1.387 . S
C4622 H4626 0.950 . S
C4622 C4631 1.390 . S
C4623 C4622 1.387 . S
C4623 C4625 1.387 . S
H4624 C4631 0.950 . S
C4625 C4623 1.387 . S
C4625 C4627 1.390 . S
C4625 H4629 0.950 . S
H4626 C4622 0.950 . S
C4627 C4625 1.390 . S
C4627 C4628 1.387 . S
C4627 H4630 0.950 . S
C4628 C4627 1.387 . S
C4628 C4631 1.387 . S
H4629 C4625 0.950 . S
H4630 C4627 0.950 . S
C4631 C4622 1.390 . S
C4631 H4624 0.950 . S
C4631 C4628 1.387 . S
C4632 C4633 1.387 1_655 S
C4632 H4636 0.950 1_655 S
C4632 C4641 1.390 . S
C4633 C4632 1.387 1_455 S
C4633 C4635 1.387 1_455 S
H4634 C4641 0.950 1_554 S
C4635 C4633 1.387 1_655 S
C4635 C4637 1.390 . S
C4635 H4639 0.950 1_655 S
H4636 C4632 0.950 1_455 S
C4637 C4635 1.390 . S
C4637 C4638 1.387 1_556 S
C4637 H4640 0.950 1_556 S
C4638 C4637 1.387 1_554 S
C4638 C4641 1.387 1_554 S
H4639 C4635 0.950 1_455 S
H4640 C4637 0.950 1_554 S
C4641 C4632 1.390 . S
C4641 H4634 0.950 1_556 S
C4641 C4638 1.387 1_556 S
C4642 C4643 1.387 . S
C4642 H4646 0.950 . S
C4642 C4651 1.390 . S
C4643 C4642 1.387 . S
C4643 C4645 1.387 . S
H4644 C4651 0.950 . S
C4645 C4643 1.387 . S
C4645 C4647 1.390 . S
C4645 H4649 0.950 . S
H4646 C4642 0.950 . S
C4647 C4645 1.390 . S
C4647 C4648 1.387 . S
C4647 H4650 0.950 . S
C4648 C4647 1.387 . S
C4648 C4651 1.387 . S
H4649 C4645 0.950 . S
H4650 C4647 0.950 . S
C4651 C4642 1.390 . S
C4651 H4644 0.950 . S
C4651 C4648 1.387 . S
C4652 C4653 1.387 . S
C4652 H4656 0.950 . S
C4652 C4661 1.390 . S
C4653 C4652 1.387 . S
C4653 C4655 1.387 . S
H4654 C4661 0.950 . S
C4655 C4653 1.387 . S
C4655 C4657 1.390 . S
C4655 H4659 0.950 . S
H4656 C4652 0.950 . S
C4657 C4655 1.390 . S
C4657 C4658 1.387 . S
C4657 H4660 0.950 . S
C4658 C4657 1.387 . S
C4658 C4661 1.387 . S
H4659 C4655 0.950 . S
H4660 C4657 0.950 . S
C4661 C4652 1.390 . S
C4661 H4654 0.950 . S
C4661 C4658 1.387 . S
C4662 C4663 1.387 1_655 S
C4662 H4666 0.950 1_655 S
C4662 C4671 1.390 . S
C4663 C4662 1.387 1_455 S
C4663 C4665 1.387 1_455 S
H4664 C4671 0.950 . S
C4665 C4663 1.387 1_655 S
C4665 C4667 1.390 . S
C4665 H4669 0.950 1_655 S
H4666 C4662 0.950 1_455 S
C4667 C4665 1.390 . S
C4667 C4668 1.387 . S
C4667 H4670 0.950 . S
C4668 C4667 1.387 . S
C4668 C4671 1.387 . S
H4669 C4665 0.950 1_455 S
H4670 C4667 0.950 . S
C4671 C4662 1.390 . S
C4671 H4664 0.950 . S
C4671 C4668 1.387 . S
C4672 C4673 1.387 . S
C4672 H4676 0.950 . S
C4672 C4681 1.390 . S
C4673 C4672 1.387 . S
C4673 C4675 1.387 . S
H4674 C4681 0.950 . S
C4675 C4673 1.387 . S
C4675 C4677 1.390 . S
C4675 H4679 0.950 . S
H4676 C4672 0.950 . S
C4677 C4675 1.390 . S
C4677 C4678 1.387 . S
C4677 H4680 0.950 . S
C4678 C4677 1.387 . S
C4678 C4681 1.387 . S
H4679 C4675 0.950 . S
H4680 C4677 0.950 . S
C4681 C4672 1.390 . S
C4681 H4674 0.950 . S
C4681 C4678 1.387 . S
C4682 C4683 1.387 . S
C4682 H4686 0.950 . S
C4682 C4691 1.390 . S
C4683 C4682 1.387 . S
C4683 C4685 1.387 . S
H4684 C4691 0.950 . S
C4685 C4683 1.387 . S
C4685 C4687 1.390 . S
C4685 H4689 0.950 . S
H4686 C4682 0.950 . S
C4687 C4685 1.390 . S
C4687 C4688 1.387 . S
C4687 H4690 0.950 . S
C4688 C4687 1.387 . S
C4688 C4691 1.387 . S
H4689 C4685 0.950 . S
H4690 C4687 0.950 . S
C4691 C4682 1.390 . S
C4691 H4684 0.950 . S
C4691 C4688 1.387 . S
C4692 C4693 1.387 1_565 S
C4692 H4696 0.950 1_565 S
C4692 C4701 1.390 . S
C4693 C4692 1.387 1_545 S
C4693 C4695 1.387 1_545 S
H4694 C4701 0.950 1_554 S
C4695 C4693 1.387 1_565 S
C4695 C4697 1.390 . S
C4695 H4699 0.950 1_565 S
H4696 C4692 0.950 1_545 S
C4697 C4695 1.390 . S
C4697 C4698 1.387 1_556 S
C4697 H4700 0.950 1_556 S
C4698 C4697 1.387 1_554 S
C4698 C4701 1.387 1_554 S
H4699 C4695 0.950 1_545 S
H4700 C4697 0.950 1_554 S
C4701 C4692 1.390 . S
C4701 H4694 0.950 1_556 S
C4701 C4698 1.387 1_556 S
C4702 C4703 1.387 . S
C4702 H4706 0.950 . S
C4702 C4711 1.390 . S
C4703 C4702 1.387 . S
C4703 C4705 1.387 . S
H4704 C4711 0.950 . S
C4705 C4703 1.387 . S
C4705 C4707 1.390 . S
C4705 H4709 0.950 . S
H4706 C4702 0.950 . S
C4707 C4705 1.390 . S
C4707 C4708 1.387 . S
C4707 H4710 0.950 . S
C4708 C4707 1.387 . S
C4708 C4711 1.387 . S
H4709 C4705 0.950 . S
H4710 C4707 0.950 . S
C4711 C4702 1.390 . S
C4711 H4704 0.950 . S
C4711 C4708 1.387 . S
C4712 C4713 1.387 . S
C4712 H4716 0.950 . S
C4712 C4721 1.390 . S
C4713 C4712 1.387 . S
C4713 C4715 1.387 . S
H4714 C4721 0.950 . S
C4715 C4713 1.387 . S
C4715 C4717 1.390 . S
C4715 H4719 0.950 . S
H4716 C4712 0.950 . S
C4717 C4715 1.390 . S
C4717 C4718 1.387 . S
C4717 H4720 0.950 . S
C4718 C4717 1.387 . S
C4718 C4721 1.387 . S
H4719 C4715 0.950 . S
H4720 C4717 0.950 . S
C4721 C4712 1.390 . S
C4721 H4714 0.950 . S
C4721 C4718 1.387 . S
C4722 C4723 1.387 . S
C4722 H4726 0.950 . S
C4722 C4731 1.390 . S
C4723 C4722 1.387 . S
C4723 C4725 1.387 . S
H4724 C4731 0.950 . S
C4725 C4723 1.387 . S
C4725 C4727 1.390 . S
C4725 H4729 0.950 . S
H4726 C4722 0.950 . S
C4727 C4725 1.390 . S
C4727 C4728 1.387 . S
C4727 H4730 0.950 . S
C4728 C4727 1.387 . S
C4728 C4731 1.387 . S
H4729 C4725 0.950 . S
H4730 C4727 0.950 . S
C4731 C4722 1.390 . S
C4731 H4724 0.950 . S
C4731 C4728 1.387 . S
C4732 C4733 1.387 . S
C4732 H4736 0.950 . S
C4732 C4741 1.390 . S
C4733 C4732 1.387 . S
C4733 C4735 1.387 . S
H4734 C4741 0.950 . S
C4735 C4733 1.387 . S
C4735 C4737 1.390 . S
C4735 H4739 0.950 . S
H4736 C4732 0.950 . S
C4737 C4735 1.390 . S
C4737 C4738 1.387 . S
C4737 H4740 0.950 . S
C4738 C4737 1.387 . S
C4738 C4741 1.387 . S
H4739 C4735 0.950 . S
H4740 C4737 0.950 . S
C4741 C4732 1.390 . S
C4741 H4734 0.950 . S
C4741 C4738 1.387 . S
C4742 C4743 1.387 . S
C4742 H4746 0.950 . S
C4742 C4751 1.390 . S
C4743 C4742 1.387 . S
C4743 C4745 1.387 . S
H4744 C4751 0.950 . S
C4745 C4743 1.387 . S
C4745 C4747 1.390 . S
C4745 H4749 0.950 . S
H4746 C4742 0.950 . S
C4747 C4745 1.390 . S
C4747 C4748 1.387 . S
C4747 H4750 0.950 . S
C4748 C4747 1.387 . S
C4748 C4751 1.387 . S
H4749 C4745 0.950 . S
H4750 C4747 0.950 . S
C4751 C4742 1.390 . S
C4751 H4744 0.950 . S
C4751 C4748 1.387 . S
C4752 C4753 1.387 1_565 S
C4752 H4756 0.950 1_565 S
C4752 C4761 1.390 . S
C4753 C4752 1.387 1_545 S
C4753 C4755 1.387 1_545 S
H4754 C4761 0.950 . S
C4755 C4753 1.387 1_565 S
C4755 C4757 1.390 . S
C4755 H4759 0.950 1_565 S
H4756 C4752 0.950 1_545 S
C4757 C4755 1.390 . S
C4757 C4758 1.387 . S
C4757 H4760 0.950 . S
C4758 C4757 1.387 . S
C4758 C4761 1.387 . S
H4759 C4755 0.950 1_545 S
H4760 C4757 0.950 . S
C4761 C4752 1.390 . S
C4761 H4754 0.950 . S
C4761 C4758 1.387 . S
C4762 C4763 1.387 . S
C4762 H4766 0.950 . S
C4762 C4771 1.390 . S
C4763 C4762 1.387 . S
C4763 C4765 1.387 1_545 S
H4764 C4771 0.950 . S
C4765 C4763 1.387 1_565 S
C4765 C4767 1.390 . S
C4765 H4769 0.950 . S
H4766 C4762 0.950 . S
C4767 C4765 1.390 . S
C4767 C4768 1.387 1_565 S
C4767 H4770 0.950 . S
C4768 C4767 1.387 1_545 S
C4768 C4771 1.387 . S
H4769 C4765 0.950 . S
H4770 C4767 0.950 . S
C4771 C4762 1.390 . S
C4771 H4764 0.950 . S
C4771 C4768 1.387 . S
C4772 C4773 1.387 . S
C4772 H4776 0.950 . S
C4772 C4781 1.390 . S
C4773 C4772 1.387 . S
C4773 C4775 1.387 . S
H4774 C4781 0.950 . S
C4775 C4773 1.387 . S
C4775 C4777 1.390 . S
C4775 H4779 0.950 . S
H4776 C4772 0.950 . S
C4777 C4775 1.390 . S
C4777 C4778 1.387 . S
C4777 H4780 0.950 . S
C4778 C4777 1.387 . S
C4778 C4781 1.387 . S
H4779 C4775 0.950 . S
H4780 C4777 0.950 . S
C4781 C4772 1.390 . S
C4781 H4774 0.950 . S
C4781 C4778 1.387 . S
C4782 C4783 1.387 . S
C4782 H4786 0.950 . S
C4782 C4791 1.390 . S
C4783 C4782 1.387 . S
C4783 C4785 1.387 . S
H4784 C4791 0.950 . S
C4785 C4783 1.387 . S
C4785 C4787 1.390 . S
C4785 H4789 0.950 . S
H4786 C4782 0.950 . S
C4787 C4785 1.390 . S
C4787 C4788 1.387 . S
C4787 H4790 0.950 . S
C4788 C4787 1.387 . S
C4788 C4791 1.387 . S
H4789 C4785 0.950 . S
H4790 C4787 0.950 . S
C4791 C4782 1.390 . S
C4791 H4784 0.950 . S
C4791 C4788 1.387 . S
C4792 C4793 1.387 . S
C4792 H4796 0.950 . S
C4792 C4801 1.390 . S
C4793 C4792 1.387 . S
C4793 C4795 1.387 . S
H4794 C4801 0.950 . S
C4795 C4793 1.387 . S
C4795 C4797 1.390 . S
C4795 H4799 0.950 . S
H4796 C4792 0.950 . S
C4797 C4795 1.390 . S
C4797 C4798 1.387 . S
C4797 H4800 0.950 . S
C4798 C4797 1.387 . S
C4798 C4801 1.387 . S
H4799 C4795 0.950 . S
H4800 C4797 0.950 . S
C4801 C4792 1.390 . S
C4801 H4794 0.950 . S
C4801 C4798 1.387 . S
C4802 C4803 1.387 . S
C4802 H4806 0.950 . S
C4802 C4811 1.390 . S
C4803 C4802 1.387 . S
C4803 C4805 1.387 . S
H4804 C4811 0.950 . S
C4805 C4803 1.387 . S
C4805 C4807 1.390 . S
C4805 H4809 0.950 . S
H4806 C4802 0.950 . S
C4807 C4805 1.390 . S
C4807 C4808 1.387 . S
C4807 H4810 0.950 . S
C4808 C4807 1.387 . S
C4808 C4811 1.387 . S
H4809 C4805 0.950 . S
H4810 C4807 0.950 . S
C4811 C4802 1.390 . S
C4811 H4804 0.950 . S
C4811 C4808 1.387 . S
C4812 C4813 1.387 . S
C4812 H4816 0.950 . S
C4812 C4821 1.390 . S
C4813 C4812 1.387 . S
C4813 C4815 1.387 . S
H4814 C4821 0.950 . S
C4815 C4813 1.387 . S
C4815 C4817 1.390 . S
C4815 H4819 0.950 . S
H4816 C4812 0.950 . S
C4817 C4815 1.390 . S
C4817 C4818 1.387 . S
C4817 H4820 0.950 . S
C4818 C4817 1.387 . S
C4818 C4821 1.387 . S
H4819 C4815 0.950 . S
H4820 C4817 0.950 . S
C4821 C4812 1.390 . S
C4821 H4814 0.950 . S
C4821 C4818 1.387 . S
C4822 C4823 1.387 . S
C4822 H4826 0.950 . S
C4822 C4831 1.390 . S
C4823 C4822 1.387 . S
C4823 C4825 1.387 . S
H4824 C4831 0.950 . S
C4825 C4823 1.387 . S
C4825 C4827 1.390 . S
C4825 H4829 0.950 . S
H4826 C4822 0.950 . S
C4827 C4825 1.390 . S
C4827 C4828 1.387 . S
C4827 H4830 0.950 . S
C4828 C4827 1.387 . S
C4828 C4831 1.387 . S
H4829 C4825 0.950 . S
H4830 C4827 0.950 . S
C4831 C4822 1.390 . S
C4831 H4824 0.950 . S
C4831 C4828 1.387 . S
C4832 C4833 1.387 . S
C4832 H4836 0.950 . S
C4832 C4841 1.390 . S
C4833 C4832 1.387 . S
C4833 C4835 1.387 . S
H4834 C4841 0.950 1_455 S
C4835 C4833 1.387 . S
C4835 C4837 1.390 . S
C4835 H4839 0.950 . S
H4836 C4832 0.950 . S
C4837 C4835 1.390 . S
C4837 C4838 1.387 1_655 S
C4837 H4840 0.950 1_655 S
C4838 C4837 1.387 1_455 S
C4838 C4841 1.387 1_455 S
H4839 C4835 0.950 . S
H4840 C4837 0.950 1_455 S
C4841 C4832 1.390 . S
C4841 H4834 0.950 1_655 S
C4841 C4838 1.387 1_655 S
C4842 C4843 1.387 . S
C4842 H4846 0.950 . S
C4842 C4851 1.390 . S
C4843 C4842 1.387 . S
C4843 C4845 1.387 1_554 S
H4844 C4851 0.950 . S
C4845 C4843 1.387 1_556 S
C4845 C4847 1.390 . S
C4845 H4849 0.950 . S
H4846 C4842 0.950 . S
C4847 C4845 1.390 . S
C4847 C4848 1.387 1_556 S
C4847 H4850 0.950 . S
C4848 C4847 1.387 1_554 S
C4848 C4851 1.387 . S
H4849 C4845 0.950 . S
H4850 C4847 0.950 . S
C4851 C4842 1.390 . S
C4851 H4844 0.950 . S
C4851 C4848 1.387 . S
C4852 C4853 1.387 . S
C4852 H4856 0.950 . S
C4852 C4861 1.390 . S
C4853 C4852 1.387 . S
C4853 C4855 1.387 . S
H4854 C4861 0.950 1_545 S
C4855 C4853 1.387 . S
C4855 C4857 1.390 . S
C4855 H4859 0.950 . S
H4856 C4852 0.950 . S
C4857 C4855 1.390 . S
C4857 C4858 1.387 1_565 S
C4857 H4860 0.950 1_565 S
C4858 C4857 1.387 1_545 S
C4858 C4861 1.387 1_545 S
H4859 C4855 0.950 . S
H4860 C4857 0.950 1_545 S
C4861 C4852 1.390 . S
C4861 H4854 0.950 1_565 S
C4861 C4858 1.387 1_565 S
C4862 C4863 1.387 . S
C4862 H4866 0.950 . S
C4862 C4871 1.390 . S
C4863 C4862 1.387 . S
C4863 C4865 1.387 . S
H4864 C4871 0.950 . S
C4865 C4863 1.387 . S
C4865 C4867 1.390 . S
C4865 H4869 0.950 . S
H4866 C4862 0.950 . S
C4867 C4865 1.390 . S
C4867 C4868 1.387 . S
C4867 H4870 0.950 . S
C4868 C4867 1.387 . S
C4868 C4871 1.387 . S
H4869 C4865 0.950 . S
H4870 C4867 0.950 . S
C4871 C4862 1.390 . S
C4871 H4864 0.950 . S
C4871 C4868 1.387 . S
C4872 C4873 1.387 . S
C4872 H4876 0.950 . S
C4872 C4881 1.390 . S
C4873 C4872 1.387 . S
C4873 C4875 1.387 . S
H4874 C4881 0.950 . S
C4875 C4873 1.387 . S
C4875 C4877 1.390 . S
C4875 H4879 0.950 . S
H4876 C4872 0.950 . S
C4877 C4875 1.390 . S
C4877 C4878 1.387 . S
C4877 H4880 0.950 . S
C4878 C4877 1.387 . S
C4878 C4881 1.387 . S
H4879 C4875 0.950 . S
H4880 C4877 0.950 . S
C4881 C4872 1.390 . S
C4881 H4874 0.950 . S
C4881 C4878 1.387 . S
C4882 C4883 1.387 . S
C4882 H4886 0.950 . S
C4882 C4891 1.390 . S
C4883 C4882 1.387 . S
C4883 C4885 1.387 . S
H4884 C4891 0.950 . S
C4885 C4883 1.387 . S
C4885 C4887 1.390 . S
C4885 H4889 0.950 . S
H4886 C4882 0.950 . S
C4887 C4885 1.390 . S
C4887 C4888 1.387 . S
C4887 H4890 0.950 . S
C4888 C4887 1.387 . S
C4888 C4891 1.387 . S
H4889 C4885 0.950 . S
H4890 C4887 0.950 . S
C4891 C4882 1.390 . S
C4891 H4884 0.950 . S
C4891 C4888 1.387 . S
C4892 C4893 1.387 . S
C4892 H4896 0.950 . S
C4892 C4901 1.390 . S
C4893 C4892 1.387 . S
C4893 C4895 1.387 . S
H4894 C4901 0.950 . S
C4895 C4893 1.387 . S
C4895 C4897 1.390 . S
C4895 H4899 0.950 . S
H4896 C4892 0.950 . S
C4897 C4895 1.390 . S
C4897 C4898 1.387 . S
C4897 H4900 0.950 . S
C4898 C4897 1.387 . S
C4898 C4901 1.387 . S
H4899 C4895 0.950 . S
H4900 C4897 0.950 . S
C4901 C4892 1.390 . S
C4901 H4894 0.950 . S
C4901 C4898 1.387 . S
C4902 C4903 1.387 . S
C4902 H4906 0.950 . S
C4902 C4911 1.390 . S
C4903 C4902 1.387 . S
C4903 C4905 1.387 . S
H4904 C4911 0.950 . S
C4905 C4903 1.387 . S
C4905 C4907 1.390 . S
C4905 H4909 0.950 . S
H4906 C4902 0.950 . S
C4907 C4905 1.390 . S
C4907 C4908 1.387 . S
C4907 H4910 0.950 . S
C4908 C4907 1.387 . S
C4908 C4911 1.387 . S
H4909 C4905 0.950 . S
H4910 C4907 0.950 . S
C4911 C4902 1.390 . S
C4911 H4904 0.950 . S
C4911 C4908 1.387 . S
C4912 C4913 1.387 . S
C4912 H4916 0.950 . S
C4912 C4921 1.390 . S
C4913 C4912 1.387 . S
C4913 C4915 1.387 . S
H4914 C4921 0.950 . S
C4915 C4913 1.387 . S
C4915 C4917 1.390 . S
C4915 H4919 0.950 . S
H4916 C4912 0.950 . S
C4917 C4915 1.390 . S
C4917 C4918 1.387 . S
C4917 H4920 0.950 . S
C4918 C4917 1.387 . S
C4918 C4921 1.387 . S
H4919 C4915 0.950 . S
H4920 C4917 0.950 . S
C4921 C4912 1.390 . S
C4921 H4914 0.950 . S
C4921 C4918 1.387 . S
C4922 C4923 1.387 . S
C4922 H4926 0.950 . S
C4922 C4931 1.390 . S
C4923 C4922 1.387 . S
C4923 C4925 1.387 . S
H4924 C4931 0.950 . S
C4925 C4923 1.387 . S
C4925 C4927 1.390 . S
C4925 H4929 0.950 . S
H4926 C4922 0.950 . S
C4927 C4925 1.390 . S
C4927 C4928 1.387 . S
C4927 H4930 0.950 . S
C4928 C4927 1.387 . S
C4928 C4931 1.387 . S
H4929 C4925 0.950 . S
H4930 C4927 0.950 . S
C4931 C4922 1.390 . S
C4931 H4924 0.950 . S
C4931 C4928 1.387 . S
C4932 C4933 1.387 . S
C4932 H4936 0.950 . S
C4932 C4941 1.390 . S
C4933 C4932 1.387 . S
C4933 C4935 1.387 . S
H4934 C4941 0.950 . S
C4935 C4933 1.387 . S
C4935 C4937 1.390 . S
C4935 H4939 0.950 . S
H4936 C4932 0.950 . S
C4937 C4935 1.390 . S
C4937 C4938 1.387 . S
C4937 H4940 0.950 . S
C4938 C4937 1.387 . S
C4938 C4941 1.387 . S
H4939 C4935 0.950 . S
H4940 C4937 0.950 . S
C4941 C4932 1.390 . S
C4941 H4934 0.950 . S
C4941 C4938 1.387 . S
C4942 C4943 1.387 1_565 S
C4942 H4946 0.950 1_565 S
C4942 C4951 1.390 . S
C4943 C4942 1.387 1_545 S
C4943 C4945 1.387 1_545 S
H4944 C4951 0.950 1_455 S
C4945 C4943 1.387 1_565 S
C4945 C4947 1.390 . S
C4945 H4949 0.950 1_565 S
H4946 C4942 0.950 1_545 S
C4947 C4945 1.390 . S
C4947 C4948 1.387 1_655 S
C4947 H4950 0.950 1_655 S
C4948 C4947 1.387 1_455 S
C4948 C4951 1.387 1_455 S
H4949 C4945 0.950 1_545 S
H4950 C4947 0.950 1_455 S
C4951 C4942 1.390 . S
C4951 H4944 0.950 1_655 S
C4951 C4948 1.387 1_655 S
C4952 C4953 1.387 . S
C4952 H4956 0.950 . S
C4952 C4961 1.390 . S
C4953 C4952 1.387 . S
C4953 C4955 1.387 . S
H4954 C4961 0.950 . S
C4955 C4953 1.387 . S
C4955 C4957 1.390 . S
C4955 H4959 0.950 . S
H4956 C4952 0.950 . S
C4957 C4955 1.390 . S
C4957 C4958 1.387 . S
C4957 H4960 0.950 . S
C4958 C4957 1.387 . S
C4958 C4961 1.387 . S
H4959 C4955 0.950 . S
H4960 C4957 0.950 . S
C4961 C4952 1.390 . S
C4961 H4954 0.950 . S
C4961 C4958 1.387 . S
C4962 C4963 1.387 . S
C4962 H4966 0.950 . S
C4962 C4971 1.390 . S
C4963 C4962 1.387 . S
C4963 C4965 1.387 . S
H4964 C4971 0.950 1_554 S
C4965 C4963 1.387 . S
C4965 C4967 1.390 . S
C4965 H4969 0.950 . S
H4966 C4962 0.950 . S
C4967 C4965 1.390 . S
C4967 C4968 1.387 1_556 S
C4967 H4970 0.950 1_556 S
C4968 C4967 1.387 1_554 S
C4968 C4971 1.387 1_554 S
H4969 C4965 0.950 . S
H4970 C4967 0.950 1_554 S
C4971 C4962 1.390 . S
C4971 H4964 0.950 1_556 S
C4971 C4968 1.387 1_556 S
C4972 C4973 1.387 1_556 S
C4972 H4976 0.950 1_556 S
C4972 C4981 1.390 . S
C4973 C4972 1.387 1_554 S
C4973 C4975 1.387 1_554 S
H4974 C4981 0.950 . S
C4975 C4973 1.387 1_556 S
C4975 C4977 1.390 . S
C4975 H4979 0.950 1_556 S
H4976 C4972 0.950 1_554 S
C4977 C4975 1.390 . S
C4977 C4978 1.387 . S
C4977 H4980 0.950 . S
C4978 C4977 1.387 . S
C4978 C4981 1.387 . S
H4979 C4975 0.950 1_554 S
H4980 C4977 0.950 . S
C4981 C4972 1.390 . S
C4981 H4974 0.950 . S
C4981 C4978 1.387 . S
C4982 C4983 1.387 . S
C4982 H4986 0.950 . S
C4982 C4991 1.390 . S
C4983 C4982 1.387 . S
C4983 C4985 1.387 . S
H4984 C4991 0.950 . S
C4985 C4983 1.387 . S
C4985 C4987 1.390 . S
C4985 H4989 0.950 . S
H4986 C4982 0.950 . S
C4987 C4985 1.390 . S
C4987 C4988 1.387 . S
C4987 H4990 0.950 . S
C4988 C4987 1.387 . S
C4988 C4991 1.387 . S
H4989 C4985 0.950 . S
H4990 C4987 0.950 . S
C4991 C4982 1.390 . S
C4991 H4984 0.950 . S
C4991 C4988 1.387 . S
C2113 C8 1.449 1_565 S
C2118 C1130 1.451 . S
C2123 C26 1.451 . S
C2128 C510 1.449 . S
C2133 C48 1.451 . S
C2138 C1852 1.449 1_556 S
C2143 C488 1.449 . S
C2148 C74 1.451 . S
C2153 C690 1.449 . S
C2158 C96 1.451 . S
C2163 C1174 1.449 . S
C2168 C114 1.451 . S
C2173 C136 1.449 1_565 S
C2178 C1676 1.451 . S
C2183 C1808 1.451 . S
C2188 C162 1.449 . S
C2193 C180 1.449 1_556 S
C2198 C1412 1.451 . S
C2203 C602 1.449 . S
C2208 C206 1.451 . S
C2213 C1284 1.451 . S
C2218 C224 1.449 . S
C2223 C246 1.451 . S
C2228 C928 1.449 . S
C2233 C268 1.451 . S
C2238 C1456 1.449 . S
C2243 C290 1.451 . S
C2248 C954 1.449 . S
C2253 C580 1.449 . S
C2258 C316 1.451 . S
C2263 C994 1.451 . S
C2268 C338 1.449 . S
C2273 C1900 1.451 . S
C2278 C356 1.449 1_655 S
C2283 C378 1.451 . S
C2288 C272 1.449 . S
C2293 C400 1.449 . S
C2298 C294 1.451 . S
C2303 C426 1.449 . S
C2308 C312 1.451 1_565 S
C2313 C1610 1.451 . S
C2318 C448 1.449 . S
C2323 C470 1.451 . S
C2328 C1042 1.449 . S
C2333 C800 1.449 . S
C2338 C492 1.451 . S
C2343 C514 1.451 . S
C2348 C1016 1.449 . S
C2353 C158 1.449 . S
C2358 C1108 1.451 . S
C2363 C862 1.451 . S
C2368 C532 1.449 1_655 S
C2373 C558 1.449 . S
C2378 C1566 1.451 . S
C2383 C1038 1.449 1_556 S
C2388 C624 1.451 . S
C2393 C1874 1.451 . S
C2398 C642 1.449 . S
C2403 C4 1.449 1_655 S
C2408 C1500 1.451 . S
C2413 C1482 1.449 . S
C2418 C664 1.451 . S
C2423 C950 1.451 . S
C2428 C404 1.449 . S
C2433 C708 1.449 . S
C2438 C1258 1.451 . S
C2443 C730 1.449 . S
C2448 C1786 1.451 . S
C2453 C1280 1.449 . S
C2458 C752 1.451 . S
C2463 C360 1.449 1_556 S
C2468 C888 1.451 . S
C2473 C1702 1.451 . S
C2478 C334 1.449 . S
C2483 C734 1.451 . S
C2488 C774 1.449 . S
C2493 C228 1.451 . S
C2498 C756 1.449 . S
C2503 C1632 1.451 . S
C2508 C822 1.449 . S
C2513 C1170 1.451 . S
C2518 C844 1.449 . S
C2523 C866 1.451 . S
C2528 C1324 1.449 1_655 S
C2533 C1214 1.451 . S
C2538 C598 1.449 . S
C2543 C906 1.451 . S
C2548 C1720 1.449 . S
C2553 C932 1.451 . S
C2558 C1192 1.449 . S
C2563 C536 1.451 . S
C2568 C1328 1.449 . S
C2573 C1830 1.449 . S
C2578 C972 1.451 . S
C2583 C998 1.449 . S
C2588 C1698 1.451 . S
C2593 C1940 1.449 . S
C2598 C818 1.451 . S
C2603 C1020 1.451 . S
C2608 C30 1.449 . S
C2613 C796 1.451 . S
C2618 C70 1.449 . S
C2623 C1764 1.451 . S
C2628 C1060 1.449 . S
C2633 C118 1.451 . S
C2638 C840 1.449 . S
C2643 C1262 1.449 . S
C2648 C1086 1.451 . S
C2653 C1504 1.451 1_565 S
C2658 C1126 1.449 1_655 S
C2663 C1064 1.449 . S
C2668 C1148 1.451 . S
C2673 C712 1.451 . S
C2678 C1082 1.449 . S
C2683 C2028 1.451 . S
C2688 C668 1.449 . S
C2693 C250 1.451 . S
C2698 C1196 1.449 . S
C2703 C202 1.449 . S
C2708 C1218 1.451 . S
C2713 C92 1.449 1_655 S
C2718 C1390 1.451 . S
C2723 C1240 1.451 . S
C2728 C1918 1.449 . S
C2733 C1544 1.451 . S
C2738 C1302 1.449 . S
C2743 C1896 1.451 1_556 S
C2748 C884 1.449 1_655 S
C2753 C444 1.451 . S
C2758 C1966 1.449 . S
C2763 C576 1.449 1_565 S
C2768 C422 1.451 . S
C2773 C1346 1.451 . S
C2778 C1434 1.449 . S
C2783 C466 1.449 1_556 S
C2788 C620 1.451 . S
C2793 C1812 1.451 . S
C2798 C1104 1.449 . S
C2803 C1350 1.449 . S
C2808 C1368 1.451 . S
C2813 C2050 1.451 . S
C2818 C184 1.449 1_565 S
C2823 C1394 1.449 . S
C2828 C686 1.451 1_655 S
C2833 C1416 1.451 1_565 S
C2838 C2054 1.449 1_556 S
C2843 C1742 1.449 . S
C2848 C646 1.451 . S
C2853 C1460 1.451 . S
C2858 C382 1.449 . S
C2863 C1236 1.449 . S
C2868 C2076 1.451 . S
C2873 C1790 1.451 . S
C2878 C778 1.449 . S
C2883 C52 1.451 . S
C2888 C1522 1.449 1_556 S
C2893 C140 1.449 . S
C2898 C1592 1.451 . S
C2903 C1614 1.449 . S
C2908 C1962 1.451 . S
C2913 C1570 1.451 . S
C2918 C1654 1.449 . S
C2923 C1680 1.449 . S
C2928 C1588 1.451 1_565 S
C2933 C1724 1.451 . S
C2938 C1988 1.449 . S
C2943 C1878 1.449 . S
C2948 C1746 1.451 . S
C2953 C1478 1.449 . S
C2958 C2032 1.451 . S
C2963 C1984 1.451 . S
C2968 C910 1.449 . S
C2973 C1658 1.451 . S
C2978 C554 1.449 . S
C2983 C1636 1.449 . S
C2988 C1944 1.451 . S
C2993 C1526 1.451 . S
C2998 C1856 1.449 . S
C3003 C1922 1.451 . S
C3008 C2072 1.449 . S
C3013 C2094 1.451 . S
C3018 C1306 1.449 . S
C3023 C1152 1.449 . S
C3028 C1768 1.451 . S
C3033 C1438 1.449 . S
C3038 C1372 1.451 . S
C3043 C976 1.449 . S
C3048 C2010 1.451 . S
C3053 C1834 1.449 . S
C3058 C2006 1.451 . S
C3063 C1548 1.449 . S
C3068 C2098 1.451 . S
C3073 C1813 1.128 . S
C3078 C9 1.124 . S
C3083 C687 1.128 . S
C3088 C27 1.124 . S
C3093 C49 1.127 . S
C3098 C1171 1.125 . S
C3103 C75 1.124 . S
C3108 C1681 1.126 . S
C3113 C97 1.127 . S
C3118 C515 1.125 . S
C3123 C1857 1.124 . S
C3128 C115 1.128 . S
C3133 C493 1.124 . S
C3138 C137 1.128 . S
C3143 C163 1.127 . S
C3148 C1127 1.125 . S
C3153 C181 1.128 . S
C3158 C2033 1.124 . S
C3163 C863 1.127 . S
C3168 C207 1.123 . S
C3173 C1919 1.124 . S
C3178 C225 1.126 . S
C3183 C2011 1.123 . S
C3188 C247 1.128 . S
C3193 C1373 1.127 . S
C3198 C269 1.124 . S
C3203 C291 1.124 . S
C3208 C1985 1.126 . S
C3213 C317 1.125 . S
C3218 C1875 1.125 . S
C3223 C339 1.128 . S
C3228 C1897 1.124 . S
C3233 C999 1.126 . S
C3238 C357 1.124 . S
C3243 C379 1.124 . S
C3248 C1435 1.126 . S
C3253 C401 1.128 . S
C3258 C907 1.123 . S
C3263 C647 1.124 . S
C3268 C427 1.126 . S
C3273 C1945 1.128 . S
C3278 C449 1.123 . S
C3283 C555 1.127 . S
C3288 C471 1.125 . S
C3293 C160 1.123 . S
C3298 C1503 1.127 . S
C3303 C534 1.126 . S
C3308 C204 1.124 . S
C3313 C557 1.128 . S
C3318 C1041 1.123 . S
C3323 C579 1.123 . S
C3328 C1877 1.127 . S
C3333 C601 1.126 . S
C3338 C865 1.126 . S
C3343 C623 1.126 . S
C3348 C1569 1.126 . S
C3353 C644 1.128 . S
C3358 C314 1.124 . S
C3363 C6 1.127 . S
C3368 C1106 1.125 . S
C3373 C2053 1.123 . S
C3378 C666 1.127 . S
C3383 C689 1.128 . S
C3388 C512 1.124 . S
C3393 C1722 1.128 . S
C3398 C403 1.124 . S
C3403 C710 1.128 . S
C3408 C2096 1.123 . S
C3413 C732 1.126 . S
C3418 C1151 1.124 . S
C3423 C2075 1.125 . S
C3428 C754 1.127 . S
C3433 C490 1.125 . S
C3438 C1678 1.124 . S
C3443 C359 1.124 . S
C3448 C1700 1.128 . S
C3453 C886 1.126 . S
C3458 C336 1.126 . S
C3463 C776 1.125 . S
C3468 C1766 1.125 . S
C3473 C1239 1.128 . S
C3478 C227 1.123 . S
C3483 C139 1.125 . S
C3488 C799 1.124 . S
C3493 C821 1.124 . S
C3498 C1964 1.128 . S
C3503 C51 1.125 . S
C3508 C843 1.127 . S
C3513 C1703 1.123 . S
C3518 C889 1.128 . S
C3523 C1325 1.126 . S
C3528 C599 1.127 . S
C3533 C933 1.125 . S
C3538 C1835 1.127 . S
C3543 C1219 1.128 . S
C3548 C537 1.123 . S
C3553 C1725 1.124 . S
C3558 C951 1.128 . S
C3563 C973 1.124 . S
C3568 C1197 1.126 . S
C3573 C1615 1.123 . S
C3578 C819 1.127 . S
C3583 C1391 1.124 . S
C3588 C1021 1.128 . S
C3593 C1039 1.126 . S
C3598 C1567 1.124 . S
C3603 C797 1.123 . S
C3608 C1593 1.127 . S
C3613 C779 1.123 . S
C3618 C1061 1.128 . S
C3623 C841 1.123 . S
C3628 C1523 1.127 . S
C3633 C1545 1.123 . S
C3638 C1087 1.128 . S
C3643 C1501 1.124 . S
C3648 C1109 1.128 . S
C3653 C1149 1.124 . S
C3658 C1787 1.128 . S
C3663 C713 1.127 . S
C3668 C1307 1.124 . S
C3673 C669 1.126 . S
C3678 C1417 1.124 . S
C3683 C757 1.126 . S
C3688 C1237 1.124 . S
C3693 C996 1.128 . S
C3698 C1899 1.123 . S
C3703 C1018 1.124 . S
C3708 C94 1.126 . S
C3713 C1547 1.124 . S
C3718 C1261 1.126 . S
C3723 C29 1.123 . S
C3728 C1393 1.128 . S
C3733 C1283 1.127 . S
C3738 C1921 1.125 . S
C3743 C1084 1.127 . S
C3748 C1304 1.126 . S
C3753 C446 1.127 . S
C3758 C1635 1.124 . S
C3763 C1216 1.127 . S
C3768 C1327 1.123 . S
C3773 C1854 1.128 . S
C3778 C1173 1.124 . S
C3783 C1744 1.124 . S
C3788 C424 1.128 . S
C3793 C381 1.124 . S
C3798 C1348 1.128 . S
C3803 C1657 1.125 . S
C3808 C468 1.125 . S
C3813 C1832 1.128 . S
C3818 C1194 1.123 . S
C3823 C1810 1.127 . S
C3828 C1129 1.123 . S
C3833 C1370 1.126 . S
C3838 C1458 1.124 . S
C3843 C975 1.126 . S
C3848 C249 1.127 . S
C3853 C1480 1.124 . S
C3858 C183 1.126 . S
C3863 C909 1.124 . S
C3868 C293 1.126 . S
C3873 C1281 1.123 . S
C3878 C2073 1.127 . S
C3883 C1461 1.126 . S
C3888 C1351 1.126 . S
C3893 C577 1.123 . S
C3898 C1747 1.127 . S
C3903 C2051 1.126 . S
C3908 C1483 1.127 . S
C3913 C1967 1.126 . S
C3918 C1633 1.127 . S
C3923 C621 1.124 . S
C3928 C1655 1.126 . S
C3933 C1987 1.127 . S
C3938 C953 1.123 . S
C3943 C1063 1.128 . S
C3948 C1789 1.123 . S
C3953 C72 1.128 . S
C3958 C1590 1.124 . S
C3963 C1414 1.125 . S
C3968 C2030 1.127 . S
C3973 C1942 1.126 . S
C3978 C1612 1.127 . S
C3983 C117 1.124 . S
C3988 C1525 1.126 . S
C3993 C735 1.125 . S
C3998 C1769 1.127 . S
C4003 C2099 1.123 . S
C4008 C1259 1.128 . S
C4013 C1437 1.128 . S
C4018 C271 1.123 . S
C4023 C2008 1.125 . S
C4028 C930 1.125 . S
C4033 C7 1.371 . S
C4038 C1329 1.372 . S
C4043 C28 1.372 . S
C4048 C2077 1.371 . S
C4053 C1831 1.370 . S
C4058 C50 1.371 . S
C4063 C73 1.371 . S
C4068 C665 1.372 . S
C4073 C95 1.372 . S
C4078 C361 1.371 . S
C4083 C1347 1.371 . S
C4088 C116 1.370 . S
C4093 C1721 1.370 . S
C4098 C138 1.371 . S
C4103 C1743 1.372 . S
C4108 C161 1.371 . S
C4113 C581 1.372 . S
C4118 C182 1.371 . S
C4123 C995 1.372 . S
C4128 C205 1.371 . S
C4133 C226 1.372 . S
C4138 C1457 1.371 . S
C4143 C248 1.372 . S
C4148 C955 1.371 . S
C4153 C1285 1.371 . S
C4158 C270 1.372 . S
C4163 C929 1.371 . S
C4168 C292 1.370 . S
C4173 C1413 1.371 . S
C4178 C315 1.372 . S
C4183 C603 1.372 . S
C4188 C337 1.371 . S
C4193 C358 1.372 . S
C4198 C1527 1.371 . S
C4203 C380 1.371 . S
C4208 C1083 1.372 . S
C4213 C402 1.372 . S
C4218 C1611 1.371 . S
C4223 C1065 1.371 . S
C4228 C425 1.370 . S
C4233 C295 1.372 . S
C4238 C447 1.371 . S
C4243 C469 1.371 . S
C4248 C185 1.372 . S
C4253 C491 1.372 . S
C4258 C1369 1.371 . S
C4263 C1879 1.370 . S
C4268 C513 1.371 . S
C4273 C1019 1.372 . S
C4278 C159 1.371 . S
C4283 C533 1.371 . S
C4288 C1986 1.370 . S
C4293 C559 1.371 . S
C4298 C1546 1.370 . S
C4303 C1062 1.370 . S
C4308 C625 1.371 . S
C4313 C1920 1.372 . S
C4318 C643 1.371 . S
C4323 C5 1.372 . S
C4328 C1591 1.371 . S
C4333 C887 1.371 . S
C4338 C691 1.372 . S
C4343 C405 1.370 . S
C4348 C1788 1.371 . S
C4353 C1282 1.371 . S
C4358 C709 1.372 . S
C4363 C731 1.372 . S
C4368 C952 1.371 . S
C4373 C753 1.372 . S
C4378 C1260 1.371 . S
C4383 C1481 1.371 . S
C4388 C489 1.372 . S
C4393 C1656 1.371 . S
C4398 C335 1.372 . S
C4403 C1195 1.371 . S
C4408 C775 1.370 . S
C4413 C1634 1.371 . S
C4418 C229 1.372 . S
C4423 C1349 1.371 . S
C4428 C801 1.370 . S
C4433 C755 1.371 . S
C4438 C823 1.372 . S
C4443 C845 1.372 . S
C4448 C667 1.371 . S
C4453 C1150 1.371 . S
C4458 C313 1.370 . S
C4463 C867 1.370 . S
C4468 C1679 1.371 . S
C4473 C600 1.372 . S
C4478 C1659 1.371 . S
C4483 C1677 1.370 . S
C4488 C908 1.371 . S
C4493 C445 1.371 . S
C4498 C931 1.372 . S
C4503 C535 1.372 . S
C4508 C1131 1.371 . S
C4513 C1853 1.371 . S
C4518 C974 1.370 . S
C4523 C2095 1.372 . S
C4528 C997 1.371 . S
C4533 C1263 1.371 . S
C4538 C820 1.372 . S
C4543 C1765 1.371 . S
C4548 C1040 1.370 . S
C4553 C119 1.371 . S
C4558 C798 1.370 . S
C4563 C71 1.371 . S
C4568 C842 1.372 . S
C4573 C1085 1.371 . S
C4578 C1941 1.372 . S
C4583 C1107 1.372 . S
C4588 C31 1.371 . S
C4593 C1128 1.370 . S
C4598 C1989 1.371 . S
C4603 C1172 1.372 . S
C4608 C2029 1.371 . S
C4613 C711 1.372 . S
C4618 C273 1.371 . S
C4623 C1549 1.371 . S
C4628 C1217 1.370 . S
C4633 C93 1.371 . S
C4638 C1524 1.370 . S
C4643 C1241 1.371 . S
C4648 C1876 1.370 . S
C4653 C1568 1.371 . S
C4658 C1303 1.372 . S
C4663 C885 1.371 . S
C4668 C2009 1.370 . S
C4673 C1175 1.371 . S
C4678 C1436 1.372 . S
C4683 C622 1.370 . S
C4688 C423 1.371 . S
C4693 C578 1.371 . S
C4698 C467 1.370 . S
C4703 C1193 1.372 . S
C4708 C1965 1.371 . S
C4713 C2074 1.372 . S
C4718 C1105 1.371 . S
C4723 C1043 1.372 . S
C4728 C2052 1.371 . S
C4733 C733 1.371 . S
C4738 C251 1.372 . S
C4743 C1833 1.371 . S
C4748 C1395 1.370 . S
C4753 C1415 1.371 . S
C4758 C1153 1.370 . S
C4763 C645 1.372 . S
C4768 C1809 1.371 . S
C4773 C1459 1.372 . S
C4778 C1637 1.371 . S
C4783 C1238 1.370 . S
C4788 C511 1.372 . S
C4793 C1502 1.372 . S
C4798 C141 1.371 . S
C4803 C1963 1.372 . S
C4808 C777 1.371 . S
C4813 C53 1.370 . S
C4818 C1392 1.371 . S
C4823 C1613 1.371 . S
C4828 C1791 1.372 . S
C4833 C2007 1.370 . S
C4838 C688 1.371 . S
C4843 C1571 1.371 . S
C4848 C1701 1.372 . S
C4853 C1723 1.371 . S
C4858 C1505 1.370 . S
C4863 C1745 1.372 . S
C4868 C1017 1.371 . S
C4873 C1479 1.372 . S
C4878 C1371 1.371 . S
C4883 C911 1.370 . S
C4888 C864 1.371 . S
C4893 C383 1.371 . S
C4898 C1943 1.372 . S
C4903 C1215 1.371 . S
C4908 C556 1.370 . S
C4913 C203 1.371 . S
C4918 C2097 1.372 . S
C4923 C1855 1.372 . S
C4928 C1901 1.371 . S
C4933 C1923 1.372 . S
C4938 C1811 1.371 . S
C4943 C1589 1.371 . S
C4948 C1326 1.370 . S
C4953 C1699 1.371 . S
C4958 C1305 1.372 . S
C4963 C1767 1.370 . S
C4968 C2055 1.371 . S
C4973 C1898 1.371 . S
C4978 C977 1.370 . S
C4983 C2031 1.372 . S
C4988 C1439 1.371 . S
