# Generated by pormake.
# Topology wjk, (5)-cn, num edge types: 1
# Building blocks:
#     Node 0, Type 0, BuildingBlock: XOMCOT_clean_sbu_1, # of connection points: 5
#     Node 1, Type 0, BuildingBlock: XOMCOT_clean_sbu_1, # of connection points: 5
#     Node 2, Type 0, BuildingBlock: XOMCOT_clean_sbu_1, # of connection points: 5
#     Node 3, Type 0, BuildingBlock: XOMCOT_clean_sbu_1, # of connection points: 5
#     Node 4, Type 0, BuildingBlock: XOMCOT_clean_sbu_1, # of connection points: 5
#     Node 5, Type 0, BuildingBlock: XOMCOT_clean_sbu_1, # of connection points: 5
#     Node 6, Type 0, BuildingBlock: XOMCOT_clean_sbu_1, # of connection points: 5
#     Node 7, Type 0, BuildingBlock: XOMCOT_clean_sbu_1, # of connection points: 5
#     Node 8, Type 0, BuildingBlock: XOMCOT_clean_sbu_1, # of connection points: 5
#     Node 9, Type 0, BuildingBlock: XOMCOT_clean_sbu_1, # of connection points: 5
#     Node 10, Type 0, BuildingBlock: XOMCOT_clean_sbu_1, # of connection points: 5
#     Node 11, Type 0, BuildingBlock: XOMCOT_clean_sbu_1, # of connection points: 5
#     Edge 12, Type (0, 0), BuildingBlock: CIFDUS_clean_linker_0, # of connection points: 2
#     Edge 13, Type (0, 0), BuildingBlock: CIFDUS_clean_linker_0, # of connection points: 2
#     Edge 14, Type (0, 0), BuildingBlock: CIFDUS_clean_linker_0, # of connection points: 2
#     Edge 15, Type (0, 0), BuildingBlock: CIFDUS_clean_linker_0, # of connection points: 2
#     Edge 16, Type (0, 0), BuildingBlock: CIFDUS_clean_linker_0, # of connection points: 2
#     Edge 17, Type (0, 0), BuildingBlock: CIFDUS_clean_linker_0, # of connection points: 2
#     Edge 18, Type (0, 0), BuildingBlock: CIFDUS_clean_linker_0, # of connection points: 2
#     Edge 19, Type (0, 0), BuildingBlock: CIFDUS_clean_linker_0, # of connection points: 2
#     Edge 20, Type (0, 0), BuildingBlock: CIFDUS_clean_linker_0, # of connection points: 2
#     Edge 21, Type (0, 0), BuildingBlock: CIFDUS_clean_linker_0, # of connection points: 2
#     Edge 22, Type (0, 0), BuildingBlock: CIFDUS_clean_linker_0, # of connection points: 2
#     Edge 23, Type (0, 0), BuildingBlock: CIFDUS_clean_linker_0, # of connection points: 2
#     Edge 24, Type (0, 0), BuildingBlock: CIFDUS_clean_linker_0, # of connection points: 2
#     Edge 25, Type (0, 0), BuildingBlock: CIFDUS_clean_linker_0, # of connection points: 2
#     Edge 26, Type (0, 0), BuildingBlock: CIFDUS_clean_linker_0, # of connection points: 2
#     Edge 27, Type (0, 0), BuildingBlock: CIFDUS_clean_linker_0, # of connection points: 2
#     Edge 28, Type (0, 0), BuildingBlock: CIFDUS_clean_linker_0, # of connection points: 2
#     Edge 29, Type (0, 0), BuildingBlock: CIFDUS_clean_linker_0, # of connection points: 2
#     Edge 30, Type (0, 0), BuildingBlock: CIFDUS_clean_linker_0, # of connection points: 2
#     Edge 31, Type (0, 0), BuildingBlock: CIFDUS_clean_linker_0, # of connection points: 2
#     Edge 32, Type (0, 0), BuildingBlock: CIFDUS_clean_linker_0, # of connection points: 2
#     Edge 33, Type (0, 0), BuildingBlock: CIFDUS_clean_linker_0, # of connection points: 2
#     Edge 34, Type (0, 0), BuildingBlock: CIFDUS_clean_linker_0, # of connection points: 2
#     Edge 35, Type (0, 0), BuildingBlock: CIFDUS_clean_linker_0, # of connection points: 2
#     Edge 36, Type (0, 0), BuildingBlock: CIFDUS_clean_linker_0, # of connection points: 2
#     Edge 37, Type (0, 0), BuildingBlock: CIFDUS_clean_linker_0, # of connection points: 2
#     Edge 38, Type (0, 0), BuildingBlock: CIFDUS_clean_linker_0, # of connection points: 2
#     Edge 39, Type (0, 0), BuildingBlock: CIFDUS_clean_linker_0, # of connection points: 2
#     Edge 40, Type (0, 0), BuildingBlock: CIFDUS_clean_linker_0, # of connection points: 2
#     Edge 41, Type (0, 0), BuildingBlock: CIFDUS_clean_linker_0, # of connection points: 2
# Relax obj value: 0.526
# Max RMSD: 0.262
# Mean RMSD: 0.262
data_MOF--net-wjk--node1-XOMCOT_clean_sbu_1--edge1-CIFDUS_clean_linker_0
_symmetry_space_group_name_H-M    P1
_symmetry_Int_Tables_number       1
_symmetry_cell_setting            triclinic
loop_
_symmetry_equiv_pos_as_xyz
'x, y, z'
_cell_length_a     29.889678
_cell_length_b     30.059881
_cell_length_c     64.441588
_cell_angle_alpha  90.033244
_cell_angle_beta   89.820418
_cell_angle_gamma 120.11936
loop_
_atom_site_label
_atom_site_type_symbol
_atom_site_fract_x
_atom_site_fract_y
_atom_site_fract_z
_atom_type_partial_charge
C0 C 0.11784 0.22847 0.26652 0.0
C1 C 0.07658 0.1815 0.27214 0.0
N2 N 0.08226 0.14429 0.263 0.0
N3 N 0.14919 0.22106 0.25367 0.0
C4 C 0.12705 0.16929 0.25218 0.0
H5 H 0.12345 0.26577 0.27073 0.0
Co6 Co 0.20653 0.27363 0.2395 0.0
C7 C 0.1904 0.20652 0.20127 0.0
O8 O 0.16433 0.22399 0.19122 0.0
N9 N 0.26519 0.32605 0.2254 0.0
C10 C 0.31694 0.37385 0.19975 0.0
C11 C 0.26996 0.33232 0.2046 0.0
C12 C 0.31044 0.36493 0.23284 0.0
N13 N 0.3426 0.39478 0.21749 0.0
O14 O 0.25018 0.26424 0.25833 0.0
H15 H 0.24076 0.30929 0.19344 0.0
H16 H 0.31945 0.37172 0.24916 0.0
O17 O 0.20767 0.22287 0.21961 0.0
C18 C 0.25255 0.2908 0.27422 0.0
O19 O 0.23256 0.32094 0.27275 0.0
N20 N 0.1615 0.28709 0.22342 0.0
C21 C 0.09244 0.31309 0.20607 0.0
C22 C 0.07812 0.26155 0.20911 0.0
C23 C 0.11286 0.24937 0.21801 0.0
C24 C 0.17465 0.33765 0.22165 0.0
C25 C 0.14131 0.35159 0.21233 0.0
H26 H 0.10059 0.20928 0.22024 0.0
H27 H 0.21084 0.36775 0.22781 0.0
H28 H 0.14168 0.15024 0.24235 0.0
H29 H 0.04426 0.17528 0.28181 0.0
H30 H 0.33115 0.38706 0.18421 0.0
H31 H 0.04047 0.23075 0.20432 0.0
H32 H 0.15313 0.39181 0.21042 0.0
C33 C 0.88091 0.11407 0.5925 0.0
C34 C 0.88565 0.07187 0.59684 0.0
N35 N 0.93518 0.08445 0.5934 0.0
N36 N 0.9271 0.1529 0.58618 0.0
C37 C 0.95949 0.13403 0.58714 0.0
H38 H 0.84581 0.11603 0.59342 0.0
Co39 Co 0.94077 0.2172 0.57753 0.0
C40 C 0.01551 0.24127 0.54174 0.0
O41 O 0.98986 0.25738 0.53057 0.0
N42 N 0.95416 0.2831 0.56893 0.0
C43 C 0.95555 0.34702 0.55095 0.0
C44 C 0.93683 0.29534 0.55164 0.0
C45 C 0.98247 0.32878 0.57876 0.0
N46 N 0.98425 0.36793 0.56795 0.0
O47 O 0.98368 0.24626 0.60129 0.0
H48 H 0.91266 0.26899 0.53975 0.0
H49 H 0.0014 0.33378 0.59354 0.0
O50 O 0.00037 0.22498 0.56032 0.0
C51 C 0.95343 0.24092 0.61635 0.0
O52 O 0.90381 0.22063 0.61248 0.0
N53 N 0.89294 0.18575 0.55652 0.0
C54 C 0.80811 0.13241 0.53093 0.0
C55 C 0.85399 0.13157 0.5272 0.0
C56 C 0.89571 0.15745 0.54058 0.0
C57 C 0.84814 0.18577 0.56067 0.0
C58 C 0.80518 0.1596 0.54793 0.0
H59 H 0.92894 0.1527 0.53867 0.0
H60 H 0.8458 0.20589 0.57419 0.0
H61 H 0.00013 0.15633 0.58328 0.0
H62 H 0.85451 0.03439 0.60146 0.0
H63 H 0.94738 0.36762 0.53916 0.0
H64 H 0.85637 0.10838 0.51484 0.0
H65 H 0.76967 0.15935 0.55164 0.0
C66 C 0.79098 0.86678 0.91188 0.0
C67 C 0.84234 0.88045 0.91138 0.0
N68 N 0.87117 0.93195 0.91336 0.0
N69 N 0.78736 0.9095 0.91392 0.0
C70 C 0.83681 0.94855 0.91498 0.0
H71 H 0.75826 0.82812 0.9109 0.0
Co72 Co 0.72612 0.91179 0.91578 0.0
C73 C 0.75217 0.99496 0.88375 0.0
O74 O 0.7082 0.96744 0.87388 0.0
N75 N 0.66452 0.91314 0.91885 0.0
C76 C 0.58712 0.88953 0.93231 0.0
C77 C 0.62522 0.87712 0.93033 0.0
C78 C 0.6503 0.94854 0.91486 0.0
N79 N 0.60286 0.93461 0.92257 0.0
O80 O 0.74748 0.94608 0.94174 0.0
H81 H 0.62505 0.84453 0.9375 0.0
H82 H 0.67513 0.98523 0.90762 0.0
O83 O 0.76071 0.97777 0.90059 0.0
C84 C 0.74334 0.9159 0.95646 0.0
O85 O 0.73046 0.86826 0.95206 0.0
N86 N 0.7029 0.87327 0.89109 0.0
C87 C 0.68127 0.79925 0.86081 0.0
C88 C 0.7218 0.84976 0.85802 0.0
C89 C 0.73297 0.88583 0.87363 0.0
C90 C 0.66103 0.82504 0.89323 0.0
C91 C 0.64942 0.78739 0.87824 0.0
H92 H 0.76901 0.92176 0.87258 0.0
H93 H 0.63977 0.81342 0.90758 0.0
H94 H 0.84735 0.9884 0.91685 0.0
H95 H 0.85722 0.85433 0.9101 0.0
H96 H 0.55078 0.86702 0.94043 0.0
H97 H 0.7487 0.85955 0.8452 0.0
H98 H 0.61915 0.74818 0.88123 0.0
C99 C 0.87938 0.75594 0.26771 0.0
C100 C 0.92234 0.80307 0.27149 0.0
N101 N 0.91566 0.83948 0.26226 0.0
N102 N 0.84569 0.76234 0.25603 0.0
C103 C 0.86877 0.81383 0.25306 0.0
H104 H 0.87361 0.71907 0.27268 0.0
Co105 Co 0.78473 0.70726 0.24545 0.0
C106 C 0.75439 0.75304 0.21015 0.0
O107 O 0.73279 0.71002 0.19955 0.0
N108 N 0.72278 0.64995 0.23504 0.0
C109 C 0.66682 0.58238 0.21624 0.0
C110 C 0.71772 0.61935 0.21867 0.0
C111 C 0.67376 0.62949 0.24248 0.0
N112 N 0.63947 0.5887 0.23128 0.0
O113 O 0.74713 0.71607 0.26714 0.0
H114 H 0.74846 0.62397 0.20846 0.0
H115 H 0.66275 0.64438 0.25559 0.0
O116 O 0.77486 0.75515 0.22783 0.0
C117 C 0.74637 0.69114 0.28324 0.0
O118 O 0.76841 0.66278 0.28232 0.0
N119 N 0.82446 0.69747 0.22588 0.0
C120 C 0.89393 0.68155 0.20314 0.0
C121 C 0.88258 0.71967 0.19723 0.0
C122 C 0.84856 0.72793 0.20913 0.0
C123 C 0.83481 0.65993 0.23175 0.0
C124 C 0.86982 0.65138 0.22059 0.0
H125 H 0.84423 0.76047 0.20542 0.0
H126 H 0.81684 0.63767 0.2456 0.0
H127 H 0.85269 0.83217 0.2437 0.0
H128 H 0.95608 0.80998 0.28025 0.0
H129 H 0.65097 0.55303 0.20434 0.0
H130 H 0.90256 0.74515 0.18431 0.0
H131 H 0.87911 0.62275 0.22586 0.0
C132 C 0.10748 0.87399 0.57013 0.0
C133 C 0.11311 0.92172 0.57365 0.0
N134 N 0.06579 0.91542 0.57705 0.0
N135 N 0.05679 0.83819 0.57098 0.0
C136 C 0.03248 0.86451 0.57544 0.0
H137 H 0.13823 0.86597 0.56683 0.0
Co138 Co 0.02701 0.76828 0.56642 0.0
C139 C 0.91954 0.74333 0.5584 0.0
O140 O 0.90484 0.71508 0.57531 0.0
N141 N -0.00178 0.69903 0.56179 0.0
C142 C 0.96654 0.62545 0.54474 0.0
C143 C 0.96791 0.67163 0.54575 0.0
C144 C 0.0145 0.66886 0.5704 0.0
N145 N 0.99601 0.62412 0.56017 0.0
O146 O 0.99581 0.75521 0.59311 0.0
H147 H 0.95215 0.68609 0.53425 0.0
H148 H 0.04367 0.68168 0.58239 0.0
O149 O 0.96724 0.76704 0.55318 0.0
C150 C 0.02743 0.76268 0.60772 0.0
O151 O 0.07592 0.77834 0.60298 0.0
N152 N 0.06183 0.78121 0.54143 0.0
C153 C 0.13567 0.81866 0.5102 0.0
C154 C 0.09139 0.82362 0.50882 0.0
C155 C 0.05494 0.80495 0.52478 0.0
C156 C 0.10213 0.77215 0.54217 0.0
C157 C 0.13954 0.79036 0.5266 0.0
H158 H 0.02397 0.81355 0.52452 0.0
H159 H 0.10754 0.75434 0.55576 0.0
H160 H 0.99093 0.84682 0.57691 0.0
H161 H 0.14903 0.95814 0.57365 0.0
H162 H 0.94882 0.59682 0.53265 0.0
H163 H 0.08751 0.84635 0.49668 0.0
H164 H 0.17327 0.78613 0.52827 0.0
C165 C 0.25781 0.1269 0.90887 0.0
C166 C 0.20671 0.11343 0.91137 0.0
N167 N 0.17681 0.06281 0.90723 0.0
N168 N 0.2602 0.08506 0.90309 0.0
C169 C 0.21044 0.04662 0.90252 0.0
H170 H 0.291 0.16505 0.91052 0.0
Co171 Co 0.31887 0.08183 0.89545 0.0
C172 C 0.27354 0.98242 0.87367 0.0
O173 O 0.30176 0.96935 0.8849 0.0
N174 N 0.37741 0.07835 0.88733 0.0
C175 C 0.43494 0.07348 0.86698 0.0
C176 C 0.39252 0.07958 0.86746 0.0
C177 C 0.41145 0.07142 0.89867 0.0
N178 N 0.44686 0.06817 0.8866 0.0
O179 O 0.30586 0.0358 0.91791 0.0
H180 H 0.37276 0.08276 0.85402 0.0
H181 H 0.40975 0.06778 0.91538 0.0
O182 O 0.2768 0.02589 0.87654 0.0
C183 C 0.32283 0.06272 0.93437 0.0
O184 O 0.34807 0.1131 0.93257 0.0
N185 N 0.33331 0.13082 0.87523 0.0
C186 C 0.35182 0.21591 0.852 0.0
C187 C 0.31331 0.1663 0.84604 0.0
C188 C 0.30413 0.1241 0.85806 0.0
C189 C 0.373 0.17817 0.88051 0.0
C190 C 0.38285 0.22156 0.86912 0.0
H191 H 0.27169 0.08687 0.85423 0.0
H192 H 0.39498 0.18251 0.89442 0.0
H193 H 0.19913 0.00743 0.89854 0.0
H194 H 0.19282 0.13947 0.91518 0.0
H195 H 0.45386 0.07051 0.85313 0.0
H196 H 0.28752 0.16055 0.83324 0.0
H197 H 0.41232 0.2593 0.87431 0.0
C198 C 0.75168 0.85843 0.40459 0.0
C199 C 0.80128 0.89543 0.39937 0.0
N200 N 0.83417 0.88809 0.41112 0.0
N201 N 0.75334 0.82832 0.41972 0.0
C202 C 0.80422 0.84708 0.42325 0.0
H203 H 0.7165 0.85414 0.39801 0.0
Co204 Co 0.69494 0.77575 0.4325 0.0
C205 C 0.73046 0.75195 0.47239 0.0
O206 O 0.68619 0.73995 0.48122 0.0
N207 N 0.63427 0.72224 0.445 0.0
C208 C 0.56154 0.67737 0.46333 0.0
C209 C 0.5985 0.72554 0.4569 0.0
C210 C 0.61726 0.6712 0.44424 0.0
N211 N 0.57345 0.64349 0.45526 0.0
O212 O 0.69987 0.72836 0.41466 0.0
H213 H 0.59914 0.76045 0.46131 0.0
H214 H 0.63696 0.65441 0.43614 0.0
O215 O 0.73867 0.7672 0.45346 0.0
C216 C 0.67336 0.72318 0.39848 0.0
O217 O 0.64338 0.74354 0.39847 0.0
N218 N 0.68943 0.82501 0.44761 0.0
C219 C 0.68224 0.90814 0.46162 0.0
C220 C 0.71435 0.89356 0.47174 0.0
C221 C 0.7184 0.85238 0.46417 0.0
C222 C 0.65798 0.83883 0.43764 0.0
C223 C 0.65381 0.88058 0.44439 0.0
H224 H 0.74681 0.84487 0.47095 0.0
H225 H 0.63711 0.81789 0.42398 0.0
H226 H 0.81924 0.83209 0.43482 0.0
H227 H 0.81235 0.9253 0.3878 0.0
H228 H 0.52819 0.66783 0.47298 0.0
H229 H 0.73849 0.91585 0.4846 0.0
H230 H 0.62992 0.89206 0.43596 0.0
C231 C 0.8943 0.76421 0.75351 0.0
C232 C 0.88712 0.80455 0.74829 0.0
N233 N 0.93218 0.84861 0.75118 0.0
N234 N 0.9435 0.78285 0.75981 0.0
C235 C 0.96574 0.83434 0.75808 0.0
H236 H 0.86532 0.72384 0.75302 0.0
Co237 Co 0.97091 0.74355 0.76956 0.0
C238 C 0.075 0.81992 0.78343 0.0
O239 O 0.09348 0.79782 0.77125 0.0
N240 N -0.00293 0.7035 0.77958 0.0
C241 C 0.02648 0.66752 0.8015 0.0
C242 C 0.01496 0.7058 0.79898 0.0
C243 C -0.00266 0.66305 0.77066 0.0
N244 N 0.0154 0.64054 0.7837 0.0
O245 O 0.01104 0.75876 0.74486 0.0
H246 H 0.01773 0.73253 0.81084 0.0
H247 H 0.98336 0.64966 0.75515 0.0
O248 O 0.0264 0.80329 0.78377 0.0
C249 C 0.98284 0.73088 0.73003 0.0
O250 O 0.93499 0.69511 0.73417 0.0
N251 N 0.9277 0.72546 0.79235 0.0
C252 C 0.84485 0.69537 0.81901 0.0
C253 C 0.8912 0.74156 0.82241 0.0
C254 C 0.93234 0.75644 0.80864 0.0
C255 C 0.88442 0.67862 0.78984 0.0
C256 C 0.84194 0.66296 0.80291 0.0
H257 H 0.96619 0.79399 0.8104 0.0
H258 H 0.88157 0.65517 0.77661 0.0
H259 H 0.00537 0.861 0.76233 0.0
H260 H 0.85156 0.80166 0.74282 0.0
H261 H 0.03941 0.65866 0.81577 0.0
H262 H 0.89393 0.7679 0.83449 0.0
H263 H 0.80624 0.62761 0.7997 0.0
C264 C 0.11926 0.89677 0.06449 0.0
C265 C 0.0752 0.89755 0.05896 0.0
N266 N 0.07906 0.94146 0.06614 0.0
N267 N 0.1506 0.9398 0.07523 0.0
C268 C 0.12538 0.96656 0.07572 0.0
H269 H 0.1271 0.86589 0.06159 0.0
Co270 Co 0.21124 0.95311 0.08867 0.0
C271 C 0.23936 0.04615 0.11458 0.0
O272 O 0.28868 0.06691 0.10996 0.0
N273 N 0.27135 0.96541 0.1024 0.0
C274 C 0.32502 0.97444 0.12789 0.0
C275 C 0.27659 0.96552 0.12321 0.0
C276 C 0.31709 0.97375 0.09475 0.0
N277 N 0.35062 0.9798 0.10999 0.0
O278 O 0.25039 0.00406 0.06835 0.0
H279 H 0.24695 0.95945 0.13437 0.0
H280 H 0.3258 0.97552 0.07838 0.0
O281 O 0.20647 0.00299 0.10668 0.0
C282 C 0.25419 0.97989 0.05278 0.0
O283 O 0.23617 0.93019 0.05466 0.0
N284 N 0.17236 0.89964 0.10674 0.0
C285 C 0.11003 0.80969 0.12823 0.0
C286 C 0.10964 0.85489 0.1332 0.0
C287 C 0.14072 0.89963 0.12202 0.0
C288 C 0.17408 0.85628 0.10206 0.0
C289 C 0.14264 0.81036 0.11256 0.0
H290 H 0.13798 0.93342 0.12526 0.0
H291 H 0.19878 0.85714 0.08958 0.0
H292 H 0.13949 0.00265 0.08378 0.0
H293 H 0.0424 0.86754 0.05074 0.0
H294 H 0.33973 0.97566 0.14333 0.0
H295 H 0.08367 0.85488 0.14498 0.0
H296 H 0.14288 0.77567 0.1082 0.0
C297 C 0.21532 0.11741 0.40531 0.0
C298 C 0.16598 0.07964 0.40034 0.0
N299 N 0.13268 0.09257 0.40864 0.0
N300 N 0.21304 0.15359 0.4169 0.0
C301 C 0.16213 0.13775 0.41845 0.0
H302 H 0.25062 0.11758 0.40141 0.0
Co303 Co 0.27027 0.20801 0.4295 0.0
C304 C 0.22499 0.22531 0.46841 0.0
O305 O 0.26049 0.22341 0.47966 0.0
N306 N 0.32959 0.26361 0.44202 0.0
C307 C 0.397 0.31201 0.4625 0.0
C308 C 0.35671 0.26331 0.45881 0.0
C309 C 0.3551 0.31332 0.43574 0.0
N310 N 0.39596 0.34317 0.44787 0.0
O311 O 0.26761 0.2526 0.40916 0.0
H312 H 0.34787 0.23014 0.4682 0.0
H313 H 0.34384 0.32814 0.42273 0.0
O314 O 0.22477 0.21967 0.44865 0.0
C315 C 0.29229 0.25034 0.39335 0.0
O316 O 0.31804 0.2257 0.39522 0.0
N317 N 0.27391 0.16063 0.4467 0.0
C318 C 0.26852 0.06842 0.45611 0.0
C319 C 0.23018 0.0785 0.46321 0.0
C320 C 0.23315 0.12481 0.45808 0.0
C321 C 0.31298 0.15232 0.4407 0.0
C322 C 0.31128 0.10628 0.44541 0.0
H323 H 0.19995 0.12898 0.46118 0.0
H324 H 0.3432 0.17966 0.43056 0.0
H325 H 0.14665 0.15746 0.4274 0.0
H326 H 0.15531 0.04495 0.39161 0.0
H327 H 0.42515 0.32358 0.47485 0.0
H328 H 0.19609 0.04906 0.47114 0.0
H329 H 0.34083 0.09887 0.43944 0.0
C330 C 0.08002 0.23155 0.74235 0.0
C331 C 0.07748 0.1879 0.73448 0.0
N332 N 0.03677 0.14679 0.74327 0.0
N333 N 0.04117 0.21813 0.75606 0.0
C334 C 0.01492 0.16622 0.75606 0.0
H335 H 0.10961 0.27069 0.73895 0.0
Co336 Co 0.03326 0.26534 0.77213 0.0
C337 C 0.97932 0.19388 0.80904 0.0
O338 O 0.02202 0.21406 0.81994 0.0
N339 N 0.02547 0.31399 0.78789 0.0
C340 C 0.02924 0.36472 0.81384 0.0
C341 C 0.02832 0.3201 0.80875 0.0
C342 C 0.02425 0.35569 0.78074 0.0
N343 N 0.02704 0.38715 0.7962 0.0
O344 O 0.98111 0.25806 0.7531 0.0
H345 H 0.03416 0.29678 0.81972 0.0
H346 H 0.02506 0.36504 0.76452 0.0
O347 O 0.97993 0.20945 0.79038 0.0
C348 C 0.00667 0.28688 0.73782 0.0
O349 O 0.05617 0.31968 0.74056 0.0
N350 N 0.09044 0.27648 0.78813 0.0
C351 C 0.19 0.29913 0.79806 0.0
C352 C 0.14924 0.24826 0.79815 0.0
C353 C 0.09986 0.23764 0.79289 0.0
C354 C 0.12994 0.32649 0.78845 0.0
C355 C 0.18011 0.33882 0.79378 0.0
H356 H 0.06982 0.19789 0.79151 0.0
H357 H 0.12364 0.35694 0.78307 0.0
H358 H 0.98261 0.14319 0.76626 0.0
H359 H 0.10449 0.18666 0.72361 0.0
H360 H 0.03396 0.38083 0.82925 0.0
H361 H 0.15605 0.21675 0.80136 0.0
H362 H 0.21122 0.37846 0.79336 0.0
C363 C 0.85663 0.10534 0.0801 0.0
C364 C 0.89985 0.10633 0.07205 0.0
N365 N 0.89834 0.06227 0.07743 0.0
N366 N 0.82848 0.06123 0.09077 0.0
C367 C 0.8544 0.03542 0.08857 0.0
H368 H 0.84673 0.13522 0.07864 0.0
Co369 Co 0.76696 0.04179 0.10511 0.0
C370 C 0.7908 0.99025 0.14087 0.0
O371 O 0.80465 0.02969 0.15324 0.0
N372 N 0.70354 0.02113 0.11889 0.0
C373 C 0.64272 0.00014 0.14306 0.0
C374 C 0.6901 0.00566 0.1388 0.0
C375 C 0.66276 0.02394 0.11136 0.0
N376 N 0.62574 0.0119 0.12584 0.0
O377 O 0.73219 0.99105 0.08438 0.0
H378 H 0.71337 0.00074 0.15014 0.0
H379 H 0.66141 0.03763 0.09601 0.0
O380 O 0.77621 0.99151 0.12224 0.0
C381 C 0.72479 0.01326 0.06899 0.0
O382 O 0.7351 0.06094 0.07132 0.0
N383 N 0.80273 0.09725 0.12384 0.0
C384 C 0.85852 0.18816 0.14613 0.0
C385 C 0.88108 0.15879 0.14063 0.0
C386 C 0.8528 0.1138 0.12937 0.0
C387 C 0.78117 0.127 0.12835 0.0
C388 C 0.80791 0.17195 0.14006 0.0
H389 H 0.87111 0.09178 0.12538 0.0
H390 H 0.74351 0.117 0.12251 0.0
H391 H 0.84214 -0.00169 0.09554 0.0
H392 H 0.93011 0.13715 0.06301 0.0
H393 H 0.62284 0.98967 0.15787 0.0
H394 H 0.92021 0.1702 0.1453 0.0
H395 H 0.78973 0.19428 0.14394 0.0
H396 H 0.56823 0.57698 0.20393 0.0
H397 H 0.58885 0.53119 0.26464 0.0
H398 H 0.49586 0.4676 0.26674 0.0
H399 H 0.41068 0.4196 0.24933 0.0
H400 H 0.39127 0.4708 0.18914 0.0
H401 H 0.48152 0.53764 0.18876 0.0
C402 C 0.55184 0.55357 0.21772 0.0
C403 C 0.5846 0.5581 0.23406 0.0
C404 C 0.49883 0.51769 0.21874 0.0
C405 C 0.56374 0.52812 0.25197 0.0
C406 C 0.51084 0.4917 0.25306 0.0
C407 C 0.42586 0.4459 0.23631 0.0
C408 C 0.3942 0.43878 0.219 0.0
C409 C 0.47816 0.48527 0.23628 0.0
C410 C 0.41484 0.47378 0.20235 0.0
C411 C 0.46654 0.51249 0.20215 0.0
H412 H 0.98669 0.56551 0.59287 0.0
H413 H 0.04599 0.60422 0.53057 0.0
H414 H 0.06183 0.53196 0.52986 0.0
H415 H 0.04062 0.44858 0.5441 0.0
H416 H 0.97228 0.40353 0.60477 0.0
H417 H 0.97978 0.488 0.60968 0.0
C418 C 0.00436 0.55851 0.57948 0.0
C419 C 0.01436 0.5887 0.56164 0.0
C420 C 0.0114 0.51577 0.57898 0.0
C421 C 0.03735 0.5803 0.54424 0.0
C422 C 0.0464 0.53926 0.54388 0.0
C423 C 0.02925 0.45832 0.55865 0.0
C424 C 0.00525 0.42043 0.5739 0.0
C425 C 0.03098 0.50531 0.56072 0.0
C426 C 0.99084 0.43262 0.59286 0.0
C427 C 0.99442 0.48049 0.59549 0.0
H428 H 0.44413 0.01289 0.92012 0.0
H429 H 0.53614 0.09357 0.86657 0.0
H430 H 0.59487 0.06133 0.87367 0.0
H431 H 0.6156 0.00429 0.89328 0.0
H432 H 0.52518 0.92561 0.94749 0.0
H433 H 0.47055 0.96317 0.94194 0.0
C434 C 0.4776 0.02435 0.91026 0.0
C435 C 0.4852 0.05502 0.89265 0.0
C436 C 0.51122 0.0055 0.91439 0.0
C437 C 0.5287 0.06911 0.87996 0.0
C438 C 0.56244 0.05082 0.88405 0.0
C439 C 0.58465 0.99605 0.90414 0.0
C440 C 0.57424 0.96137 0.92058 0.0
C441 C 0.55337 0.01799 0.90093 0.0
C442 C 0.53351 0.95105 0.93438 0.0
C443 C 0.50232 0.97281 0.93131 0.0
H444 H 0.54425 0.57455 0.42471 0.0
H445 H 0.53597 0.59089 0.49073 0.0
H446 H 0.48133 0.49744 0.49453 0.0
H447 H 0.43341 0.41166 0.47871 0.0
H448 H 0.43585 0.39576 0.41237 0.0
H449 H 0.4951 0.48855 0.4088 0.0
C450 C 0.53078 0.55723 0.43988 0.0
C451 C 0.54402 0.58878 0.45746 0.0
C452 C 0.49816 0.50392 0.44178 0.0
C453 C 0.5259 0.56676 0.47708 0.0
C454 C 0.4948 0.5136 0.47921 0.0
C455 C 0.44738 0.42868 0.46354 0.0
C456 C 0.43079 0.3974 0.44583 0.0
C457 C 0.4803 0.48189 0.46164 0.0
C458 C 0.44812 0.41954 0.42616 0.0
C459 C 0.48203 0.47236 0.42414 0.0
H460 H 0.07794 0.61439 0.80305 0.0
H461 H 0.95678 0.56178 0.75734 0.0
H462 H 0.95283 0.47863 0.75574 0.0
H463 H 0.97816 0.41802 0.77011 0.0
H464 H 0.09429 0.47019 0.81784 0.0
H465 H 0.10514 0.55613 0.81631 0.0
C466 C 0.05047 0.58473 0.7928 0.0
C467 C 0.01717 0.59405 0.78063 0.0
C468 C 0.04706 0.53669 0.79256 0.0
C469 C 0.983 0.55574 0.76687 0.0
C470 C 0.98038 0.50799 0.76609 0.0
C471 C 0.00605 0.44855 0.77996 0.0
C472 C 0.0349 0.43803 0.79425 0.0
C473 C 0.01133 0.49763 0.77926 0.0
C474 C 0.07101 0.47746 0.80704 0.0
C475 C 0.07742 0.52653 0.80608 0.0
H476 H 0.42755 0.02818 0.13732 0.0
H477 H 0.39048 0.95114 0.07811 0.0
H478 H 0.47596 0.95885 0.07671 0.0
H479 H 0.55855 0.9808 0.09409 0.0
H480 H 0.59117 0.05249 0.15431 0.0
H481 H 0.50985 0.05306 0.15376 0.0
C482 C 0.43795 0.01279 0.12414 0.0
C483 C 0.40237 0.9884 0.10803 0.0
C484 C 0.48629 0.01611 0.12374 0.0
C485 C 0.41718 0.97018 0.09073 0.0
C486 C 0.46591 0.97426 0.08999 0.0
C487 C 0.54784 -0.00295 0.10688 0.0
C488 C 0.58016 0.01607 0.12431 0.0
C489 C 0.50039 0.99621 0.10663 0.0
C490 C 0.56625 0.03693 0.14092 0.0
C491 C 0.51996 0.0374 0.14057 0.0
H492 H 0.31945 0.22716 0.35656 0.0
H493 H 0.2527 0.31244 0.38338 0.0
H494 H 0.23867 0.33568 0.34856 0.0
H495 H 0.24074 0.32736 0.31089 0.0
H496 H 0.30202 0.23728 0.28397 0.0
H497 H 0.32333 0.22048 0.31873 0.0
C498 C 0.30232 0.25133 0.35485 0.0
C499 C 0.28716 0.26816 0.37257 0.0
C500 C 0.29329 0.26339 0.33485 0.0
C501 C 0.26463 0.299 0.37002 0.0
C502 C 0.25658 0.3122 0.35013 0.0
C503 C 0.25927 0.30444 0.31251 0.0
C504 C 0.26986 0.28359 0.29481 0.0
C505 C 0.27009 0.29396 0.33248 0.0
C506 C 0.2935 0.25374 0.29731 0.0
C507 C 0.30555 0.24408 0.31717 0.0
H508 H 0.89508 0.2121 0.6513 0.0
H509 H 0.0528 0.30278 0.62978 0.0
H510 H 0.08189 0.32761 0.66559 0.0
H511 H 0.06271 0.32201 0.70262 0.0
H512 H 0.90595 0.22743 0.72466 0.0
H513 H 0.87589 0.20604 0.68869 0.0
C514 C 0.93586 0.23748 0.6544 0.0
C515 C 0.97184 0.25576 0.63789 0.0
C516 C 0.95224 0.25098 0.675 0.0
C517 C 0.02448 0.28812 0.64221 0.0
C518 C 0.04102 0.30241 0.66265 0.0
C519 C 0.02177 0.29711 0.69966 0.0
C520 C 0.98645 0.27665 0.71635 0.0
C521 C 0.00523 0.28395 0.67911 0.0
C522 C 0.93379 0.24389 0.71212 0.0
C523 C 0.91673 0.23154 0.69158 0.0
H524 H 0.75098 0.94498 0.05353 0.0
H525 H 0.68363 0.03754 0.03669 0.0
H526 H 0.68624 0.01816 1.00009 0.0
H527 H 0.71138 0.97826 0.97266 0.0
H528 H 0.7765 0.88372 0.98924 0.0
H529 H 0.77205 0.90123 0.02606 0.0
C530 C 0.73576 0.95982 0.04187 0.0
C531 C 0.71694 0.99242 0.04777 0.0
C532 C 0.73827 0.94931 0.02077 0.0
C533 C 0.69819 0.01221 0.03249 0.0
C534 C 0.70006 0.00153 0.01155 0.0
C535 C 0.72522 0.96215 0.98437 0.0
C536 C 0.74515 0.93065 0.97835 0.0
C537 C 0.72108 0.9711 0.00548 0.0
C538 C 0.76157 0.90865 0.9936 0.0
C539 C 0.75869 0.91832 0.01463 0.0
H540 H 0.64518 0.73566 0.36016 0.0
H541 H 0.72656 0.6719 0.39247 0.0
H542 H 0.75327 0.65298 0.35921 0.0
H543 H 0.75897 0.66102 0.32127 0.0
H544 H 0.68249 0.73047 0.28934 0.0
H545 H 0.64831 0.74094 0.32235 0.0
C546 C 0.66813 0.71691 0.35999 0.0
C547 C 0.68393 0.70519 0.37876 0.0
C548 C 0.68465 0.70782 0.34093 0.0
C549 C 0.71397 0.6813 0.37822 0.0
C550 C 0.72939 0.6707 0.35923 0.0
C551 C 0.73443 0.67804 0.3215 0.0
C552 C 0.72339 0.69517 0.30292 0.0
C553 C 0.71586 0.68484 0.34053 0.0
C554 C 0.69179 0.71735 0.30346 0.0
C555 C 0.67219 0.72323 0.32231 0.0
H556 H 0.08855 0.79389 0.6418 0.0
H557 H 0.92864 0.71079 0.62275 0.0
H558 H 0.90129 0.69279 0.65904 0.0
H559 H 0.9228 0.70007 0.69591 0.0
H560 H 0.08223 0.78602 0.71532 0.0
H561 H 0.11 0.80348 0.67895 0.0
C562 C 0.04769 0.77182 0.64558 0.0
C563 C 0.01062 0.75344 0.62962 0.0
C564 C 0.0323 0.76204 0.66645 0.0
C565 C 0.95786 0.7254 0.63476 0.0
C566 C 0.94224 0.71498 0.65548 0.0
C567 C 0.9637 0.72239 0.69222 0.0
C568 C 0.00052 0.74133 0.70825 0.0
C569 C 0.97914 0.73292 0.67141 0.0
C570 C 0.05324 0.77091 0.70322 0.0
C571 C 0.06906 0.78088 0.68246 0.0
H572 H 0.33686 0.11194 0.97101 0.0
H573 H 0.28144 0.96113 0.94467 0.0
H574 H 0.25803 0.92301 0.97938 0.0
H575 H 0.25032 0.93237 0.0167 0.0
H576 H 0.30184 0.08257 0.04294 0.0
H577 H 0.33016 0.12143 0.0085 0.0
C578 C 0.32003 0.07073 0.97282 0.0
C579 C 0.31094 0.03933 0.95527 0.0
C580 C 0.30591 0.04914 0.99272 0.0
C581 C 0.28875 0.98604 0.95792 0.0
C582 C 0.27537 0.9643 0.97774 0.0
C583 C 0.26809 0.97371 0.01499 0.0
C584 C 0.27404 0.00463 0.03239 0.0
C585 C 0.28333 0.99547 0.99518 0.0
C586 C 0.29682 0.058 0.02981 0.0
C587 C 0.31294 0.08014 0.01014 0.0
H588 H 0.1028 0.06668 0.26095 0.0
H589 H 0.97801 0.09918 0.26451 0.0
H590 H 0.91481 0.00725 0.26391 0.0
H591 H 0.89475 0.91696 0.2627 0.0
H592 H 0.01966 0.88453 0.26029 0.0
H593 H 0.08281 0.97652 0.26 0.0
C594 C 0.06177 0.05355 0.2615 0.0
C595 C 0.04524 0.0898 0.26285 0.0
C596 C 0.02556 0.00047 0.26136 0.0
C597 C 0.99187 0.07216 0.26378 0.0
C598 C 0.95564 0.01954 0.2633 0.0
C599 C 0.93578 0.93017 0.26197 0.0
C600 C 0.95246 0.89395 0.26155 0.0
C601 C 0.97199 0.98327 0.26214 0.0
C602 C 0.00583 0.91159 0.26086 0.0
C603 C 0.04198 0.96422 0.26062 0.0
H604 H 0.02089 0.09679 0.57382 0.0
H605 H 0.89749 0.99552 0.61522 0.0
H606 H 0.92875 0.9347 0.61443 0.0
H607 H 0.98866 0.90843 0.60069 0.0
H608 H 0.11284 0.01033 0.56001 0.0
H609 H 0.08469 0.07382 0.56238 0.0
C610 C 0.00123 0.06202 0.58302 0.0
C611 C 0.9564 0.05072 0.59438 0.0
C612 C 0.01966 0.02738 0.58267 0.0
C613 C 0.93137 0.00488 0.60597 0.0
C614 C 0.94939 0.97014 0.60564 0.0
C615 C 0.00953 0.94462 0.59241 0.0
C616 C 0.05238 0.95463 0.58006 0.0
C617 C 0.99297 0.98063 0.59378 0.0
C618 C 0.07989 0.002 0.5697 0.0
C619 C 0.06359 0.03808 0.57094 0.0
H620 H 0.10881 0.08443 0.92619 0.0
H621 H 0.11766 0.97374 0.88616 0.0
H622 H 0.02387 0.92338 0.8848 0.0
H623 H 0.93888 0.91077 0.89451 0.0
H624 H 0.92922 0.02211 0.93362 0.0
H625 H 0.02357 0.0728 0.93527 0.0
C626 C 0.09041 0.04956 0.91703 0.0
C627 C 0.12088 0.03302 0.90648 0.0
C628 C 0.03606 0.02093 0.91598 0.0
C629 C 0.09579 0.98723 0.89485 0.0
C630 C 0.04188 0.95843 0.89389 0.0
C631 C 0.95738 0.94591 0.90353 0.0
C632 C 0.9269 0.96243 0.91399 0.0
C633 C 0.01163 0.97484 0.90441 0.0
C634 C 0.95164 0.00868 0.92526 0.0
C635 C 0.00564 0.03755 0.92631 0.0
H636 H 0.89108 0.99057 0.4067 0.0
H637 H 0.9016 0.85417 0.41588 0.0
H638 H 0.99618 0.9059 0.41554 0.0
H639 H 0.07573 0.9901 0.41255 0.0
H640 H 0.06542 0.12704 0.4051 0.0
H641 H 0.97075 0.07518 0.40483 0.0
C642 C 0.91423 0.97231 0.40849 0.0
C643 C 0.88967 0.91872 0.41115 0.0
C644 C 0.96841 0.0024 0.40859 0.0
C645 C 0.91985 0.89541 0.41389 0.0
C646 C 0.97379 0.92492 0.41362 0.0
C647 C 0.05262 0.00838 0.41071 0.0
C648 C 0.0772 0.06211 0.40863 0.0
C649 C -0.00154 0.97842 0.41094 0.0
C650 C 0.04708 0.0857 0.40674 0.0
C651 C 0.99311 0.05608 0.40654 0.0
H652 H 0.02246 0.93177 0.7407 0.0
H653 H 0.86359 0.88166 0.75603 0.0
H654 H 0.88133 0.9702 0.75373 0.0
H655 H 0.94322 0.06243 0.74898 0.0
H656 H 0.10268 0.11206 0.73473 0.0
H657 H 0.08343 0.02323 0.73483 0.0
C658 C 0.9918 0.94028 0.74361 0.0
C659 C 0.94194 0.9003 0.74867 0.0
C660 C 0.00237 0.99121 0.74242 0.0
C661 C 0.90224 0.91172 0.75195 0.0
C662 C 0.91243 0.96237 0.75077 0.0
C663 C 0.97371 0.05377 0.74592 0.0
C664 C 0.02429 0.09396 0.7419 0.0
C665 C 0.96252 0.0025 0.74626 0.0
C666 C 0.06325 0.082 0.7376 0.0
C667 C 0.0524 0.03116 0.73783 0.0
H668 H 0.88331 0.96673 0.0725 0.0
H669 H 0.00147 0.12685 0.07383 0.0
H670 H 0.06832 0.10357 0.06941 0.0
H671 H 0.09345 0.03745 0.06667 0.0
H672 H 0.97528 0.87722 0.06586 0.0
H673 H 0.9083 0.90072 0.06841 0.0
C674 C 0.9237 0.99646 0.07187 0.0
C675 C 0.93735 0.04842 0.07361 0.0
C676 C 0.96196 0.98277 0.06939 0.0
C677 C 0.98984 0.08662 0.07235 0.0
C678 C 0.02813 0.07331 0.06995 0.0
C679 C 0.05306 0.0077 0.06707 0.0
C680 C 0.03955 0.95565 0.06615 0.0
C681 C 0.01468 0.02148 0.06868 0.0
C682 C 0.98689 0.91758 0.06631 0.0
C683 C 0.9485 0.93097 0.06793 0.0
H684 H 0.94634 0.27476 0.13612 0.0
H685 H 0.83764 0.20012 0.18593 0.0
H686 H 0.90457 0.25057 0.2114 0.0
H687 H -0.00246 0.29117 0.21846 0.0
H688 H 0.10711 0.35778 0.16834 0.0
H689 H 0.03692 0.33732 0.14398 0.0
C690 C 0.93696 0.27184 0.15253 0.0
C691 C 0.88806 0.23338 0.15937 0.0
C692 C 0.97631 0.29882 0.16698 0.0
C693 C 0.87541 0.22948 0.1805 0.0
C694 C 0.91387 0.2578 0.19503 0.0
C695 C 0.0059 0.30356 0.2024 0.0
C696 C 0.05667 0.3246 0.19492 0.0
C697 C 0.9652 0.28904 0.18841 0.0
C698 C 0.06796 0.34113 0.17425 0.0
C699 C 0.02778 0.32877 0.16031 0.0
H700 H 0.79628 0.12945 0.4894 0.0
H701 H 0.71723 0.0567 0.54626 0.0
H702 H 0.6565 0.97976 0.5272 0.0
H703 H 0.64547 0.92645 0.49665 0.0
H704 H 0.72865 -0.00259 0.44035 0.0
H705 H 0.76726 0.08224 0.45653 0.0
C706 C 0.76425 0.09747 0.49737 0.0
C707 C 0.76164 0.09764 0.51908 0.0
C708 C 0.73091 0.05282 0.48642 0.0
C709 C 0.71995 0.05683 0.52949 0.0
C710 C 0.68561 0.01268 0.51863 0.0
C711 C 0.66997 0.96094 0.48773 0.0
C712 C 0.68524 0.95645 0.46766 0.0
C713 C 0.69343 0.009 0.4974 0.0
C714 C 0.71679 0.00065 0.45593 0.0
C715 C 0.73928 0.04893 0.46525 0.0
H716 H 0.77017 0.70501 0.80104 0.0
H717 H 0.81731 0.67329 0.85963 0.0
H718 H 0.75406 0.68846 0.8778 0.0
H719 H 0.70336 0.73158 0.87729 0.0
H720 H 0.67024 0.77956 0.81918 0.0
H721 H 0.70827 0.7358 0.80023 0.0
C722 C 0.7648 0.69939 0.8177 0.0
C723 C 0.79764 0.68798 0.82914 0.0
C724 C 0.73124 0.71179 0.828 0.0
C725 C 0.79186 0.68179 0.85069 0.0
C726 C 0.7561 0.69086 0.86101 0.0
C727 C 0.70232 0.73022 0.86046 0.0
C728 C 0.6841 0.75829 0.84951 0.0
C729 C 0.72797 0.70884 0.8499 0.0
C730 C 0.68384 0.75768 0.82776 0.0
C731 C 0.70615 0.73329 0.81702 0.0
H732 H 0.11033 0.77949 0.16745 0.0
H733 H 0.02287 0.7349 0.11073 0.0
H734 H 0.94453 0.67556 0.12986 0.0
H735 H 0.89889 0.65773 0.16326 0.0
H736 H 0.98594 0.70611 0.22005 0.0
H737 H 0.06689 0.74108 0.20055 0.0
C738 C 0.07454 0.75476 0.1593 0.0
C739 C 0.07148 0.76149 0.13796 0.0
C740 C 0.02961 0.72213 0.17049 0.0
C741 C 0.02547 0.72989 0.12726 0.0
C742 C 0.98071 0.69647 0.1382 0.0
C743 C 0.93561 0.67365 0.1713 0.0
C744 C 0.93715 0.68042 0.19284 0.0
C745 C 0.98177 0.69523 0.15993 0.0
C746 C 0.98438 0.70081 0.20338 0.0
C747 C 0.03058 0.72137 0.19223 0.0
H748 H 0.14116 0.83721 0.4688 0.0
H749 H 0.23343 0.8803 0.5244 0.0
H750 H 0.29509 0.96237 0.50897 0.0
H751 H 0.30546 0.03021 0.4848 0.0
H752 H 0.20798 0.98984 0.43093 0.0
H753 H 0.16607 0.89883 0.44023 0.0
C754 C 0.17598 0.8638 0.47712 0.0
C755 C 0.18183 0.85367 0.49786 0.0
C756 C 0.20961 0.91222 0.46864 0.0
C757 C 0.22764 0.88749 0.50844 0.0
C758 C 0.26263 0.93493 0.49975 0.0
C759 C 0.27674 0.001 0.4747 0.0
C760 C 0.25891 0.0158 0.4575 0.0
C761 C 0.2515 0.94918 0.48063 0.0
C762 C 0.2217 0.97848 0.44434 0.0
C763 C 0.19758 0.92667 0.44974 0.0
H764 H 0.35293 0.23859 0.81134 0.0
H765 H 0.34636 0.29158 0.8728 0.0
H766 H 0.30568 0.33827 0.85923 0.0
H767 H 0.24803 0.33908 0.83224 0.0
H768 H 0.24685 0.27767 0.77176 0.0
H769 H 0.315 0.26018 0.78222 0.0
C770 C 0.34463 0.26233 0.82153 0.0
C771 C 0.35099 0.26056 0.84299 0.0
C772 C 0.31857 0.28654 0.81379 0.0
C773 C 0.34124 0.29202 0.85617 0.0
C774 C 0.31725 0.31814 0.84847 0.0
C775 C 0.26473 0.32427 0.82116 0.0
C776 C 0.24255 0.30881 0.80149 0.0
C777 C 0.30199 0.31204 0.82764 0.0
C778 C 0.26367 0.28941 0.78706 0.0
C779 C 0.30221 0.27904 0.7931 0.0
H780 H 0.13312 0.13607 0.17247 0.0
H781 H 0.28074 0.20373 0.2032 0.0
H782 H 0.30957 0.16034 0.17879 0.0
H783 H 0.29435 0.10777 0.14704 0.0
H784 H 0.14451 0.03745 0.11782 0.0
H785 H 0.11516 0.07767 0.14314 0.0
C786 C 0.17138 0.14071 0.17402 0.0
C787 C 0.20485 0.17316 0.18955 0.0
C788 C 0.18754 0.11588 0.15995 0.0
C789 C 0.25412 0.17855 0.1915 0.0
C790 C 0.27076 0.15421 0.17739 0.0
C791 C 0.25535 0.10144 0.14621 0.0
C792 C 0.22201 0.07049 0.13026 0.0
C793 C 0.23818 0.1237 0.16124 0.0
C794 C 0.17116 0.06154 0.12972 0.0
C795 C 0.15426 0.08441 0.14426 0.0
H796 H 0.04016 0.2528 0.50071 0.0
H797 H 0.0855 0.21835 0.55936 0.0
H798 H 0.1544 0.21093 0.54182 0.0
H799 H 0.20183 0.21461 0.5098 0.0
H800 H 0.15346 0.24561 0.45113 0.0
H801 H 0.0855 0.25397 0.4688 0.0
C802 C 0.06514 0.24386 0.50978 0.0
C803 C 0.05777 0.23664 0.53145 0.0
C804 C 0.10414 0.23902 0.49955 0.0
C805 C 0.0903 0.22438 0.54274 0.0
C806 C 0.12972 0.22012 0.53269 0.0
C807 C 0.17655 0.22335 0.50084 0.0
C808 C 0.18317 0.22987 0.47909 0.0
C809 C 0.13706 0.22748 0.5111 0.0
C810 C 0.14949 0.24051 0.46781 0.0
C811 C 0.11061 0.24534 0.47793 0.0
H812 H 0.96562 0.17218 0.85007 0.0
H813 H 0.88269 0.13099 0.79205 0.0
H814 H 0.80366 0.06836 0.81036 0.0
H815 H 0.7595 0.02293 0.84282 0.0
H816 H 0.84477 0.06546 0.90035 0.0
H817 H 0.92151 0.13045 0.88217 0.0
C818 C 0.9304 0.14958 0.84128 0.0
C819 C 0.9304 0.15607 0.8196 0.0
C820 C 0.88542 0.11404 0.85188 0.0
C821 C 0.88397 0.12673 0.80869 0.0
C822 C 0.83877 0.09095 0.81919 0.0
C823 C 0.79462 0.04696 0.85146 0.0
C824 C 0.7962 0.0391 0.87301 0.0
C825 C 0.83914 0.08404 0.84079 0.0
C826 C 0.84231 0.07041 0.88382 0.0
C827 C 0.88634 0.10753 0.87341 0.0
H828 H 0.73999 0.76792 0.16943 0.0
H829 H 0.7869 0.84638 0.22836 0.0
H830 H 0.8048 0.92656 0.21177 0.0
H831 H 0.80675 0.97424 0.18088 0.0
H832 H 0.75845 0.8969 0.12179 0.0
H833 H 0.74188 0.81637 0.13814 0.0
C834 C 0.75382 0.80246 0.17869 0.0
C835 C 0.76227 0.801 0.20017 0.0
C836 C 0.76409 0.84866 0.16901 0.0
C837 C 0.78049 0.84632 0.21183 0.0
C838 C 0.79068 0.89225 0.20235 0.0
C839 C 0.79281 0.93995 0.17144 0.0
C840 C 0.78388 0.94181 0.15006 0.0
C841 C 0.78278 0.89388 0.18097 0.0
C842 C 0.76575 0.89672 0.13823 0.0
C843 C 0.75609 0.85061 0.14761 0.0
H844 H 0.72456 0.72562 0.51297 0.0
H845 H 0.83057 0.78081 0.46112 0.0
H846 H 0.8991 0.7851 0.48323 0.0
H847 H 0.92872 0.77247 0.51749 0.0
H848 H 0.82071 0.71548 0.56871 0.0
H849 H 0.75343 0.71287 0.54664 0.0
C850 C 0.76259 0.73859 0.5064 0.0
C851 C 0.77222 0.75309 0.48534 0.0
C852 C 0.80166 0.74079 0.51916 0.0
C853 C 0.8219 0.7696 0.47724 0.0
C854 C 0.86119 0.77208 0.48991 0.0
C855 C 0.89059 0.75989 0.52386 0.0
C856 C 0.87996 0.74435 0.54481 0.0
C857 C 0.85156 0.75786 0.51094 0.0
C858 C 0.83008 0.72756 0.55269 0.0
C859 C 0.79147 0.72602 0.54006 0.0
H860 H 0.19077 0.98108 0.85523 0.0
H861 H 0.28325 0.90772 0.85388 0.0
H862 H 0.232 0.85353 0.82506 0.0
H863 H 0.16061 0.82623 0.80045 0.0
H864 H 0.0635 0.89426 0.80315 0.0
H865 H 0.11692 0.95147 0.83114 0.0
C866 C 0.19967 0.95323 0.8486 0.0
C867 C 0.2409 0.94855 0.85667 0.0
C868 C 0.16936 0.92144 0.83221 0.0
C869 C 0.25162 0.91194 0.84806 0.0
C870 C 0.22246 0.88107 0.8315 0.0
C871 C 0.15148 0.85401 0.80699 0.0
C872 C 0.10864 0.85658 0.79953 0.0
C873 C 0.18132 0.88551 0.82345 0.0
C874 C 0.09653 0.89185 0.80853 0.0
C875 C 0.12698 0.92444 0.82455 0.0
loop_
_geom_bond_atom_site_label_1
_geom_bond_atom_site_label_2
_geom_bond_distance
_geom_bond_site_symmetry_2
_ccdc_geom_bond_type
C0 C1 1.351 . S
C0 N3 1.368 . S
C0 H5 0.931 . S
C1 C0 1.351 . S
C1 N2 1.373 . S
C1 H29 0.930 . S
N2 C1 1.373 . S
N2 C4 1.340 . S
N3 C0 1.368 . S
N3 C4 1.321 . S
N3 Co6 2.135 . S
C4 N2 1.340 . S
C4 N3 1.321 . S
C4 H28 0.930 . S
H5 C0 0.931 . S
Co6 N3 2.135 . S
Co6 N9 2.121 . S
Co6 O14 2.055 . S
Co6 O17 2.039 . S
Co6 N20 2.140 . S
C7 O8 1.227 . S
C7 O17 1.265 . S
O8 C7 1.227 . S
N9 Co6 2.121 . S
N9 C11 1.375 . S
N9 C12 1.313 . S
C10 C11 1.338 . S
C10 N13 1.377 . S
C10 H30 0.930 . S
C11 N9 1.375 . S
C11 C10 1.338 . S
C11 H15 0.931 . S
C12 N9 1.313 . S
C12 N13 1.344 . S
C12 H16 0.930 . S
N13 C10 1.377 . S
N13 C12 1.344 . S
O14 Co6 2.055 . S
O14 C18 1.253 . S
H15 C11 0.931 . S
H16 C12 0.930 . S
O17 Co6 2.039 . S
O17 C7 1.265 . S
C18 O14 1.253 . S
C18 O19 1.227 . S
O19 C18 1.227 . S
N20 Co6 2.140 . S
N20 C23 1.346 . S
N20 C24 1.345 . S
C21 C22 1.387 . S
C21 C25 1.391 . S
C22 C21 1.387 . S
C22 C23 1.369 . S
C22 H31 0.929 . S
C23 N20 1.346 . S
C23 C22 1.369 . S
C23 H26 0.928 . S
C24 N20 1.345 . S
C24 C25 1.371 . S
C24 H27 0.931 . S
C25 C21 1.391 . S
C25 C24 1.371 . S
C25 H32 0.930 . S
H26 C23 0.928 . S
H27 C24 0.931 . S
H28 C4 0.930 . S
H29 C1 0.930 . S
H30 C10 0.930 . S
H31 C22 0.929 . S
H32 C25 0.930 . S
C33 C34 1.351 . S
C33 N36 1.368 . S
C33 H38 0.931 . S
C34 C33 1.351 . S
C34 N35 1.373 . S
C34 H62 0.930 . S
N35 C34 1.373 . S
N35 C37 1.340 . S
N36 C33 1.368 . S
N36 C37 1.321 . S
N36 Co39 2.135 . S
C37 N35 1.340 . S
C37 N36 1.321 . S
C37 H61 0.923 1_655 S
H38 C33 0.931 . S
Co39 N36 2.135 . S
Co39 N42 2.121 . S
Co39 O47 2.055 . S
Co39 O50 2.039 1_655 S
Co39 N53 2.140 . S
C40 O41 1.227 1_455 S
C40 O50 1.265 . S
O41 C40 1.227 1_655 S
N42 Co39 2.121 . S
N42 C44 1.375 . S
N42 C45 1.313 . S
C43 C44 1.338 . S
C43 N46 1.377 . S
C43 H63 0.930 . S
C44 N42 1.375 . S
C44 C43 1.338 . S
C44 H48 0.931 . S
C45 N42 1.313 . S
C45 N46 1.344 . S
C45 H49 0.930 . S
N46 C43 1.377 . S
N46 C45 1.344 . S
O47 Co39 2.055 . S
O47 C51 1.253 . S
H48 C44 0.931 . S
H49 C45 0.930 . S
O50 Co39 2.039 1_455 S
O50 C40 1.265 . S
C51 O47 1.253 . S
C51 O52 1.227 . S
O52 C51 1.227 . S
N53 Co39 2.140 . S
N53 C56 1.346 . S
N53 C57 1.345 . S
C54 C55 1.387 . S
C54 C58 1.391 . S
C55 C54 1.387 . S
C55 C56 1.369 . S
C55 H64 0.929 . S
C56 N53 1.346 . S
C56 C55 1.369 . S
C56 H59 0.928 . S
C57 N53 1.345 . S
C57 C58 1.371 . S
C57 H60 0.931 . S
C58 C54 1.391 . S
C58 C57 1.371 . S
C58 H65 0.930 . S
H59 C56 0.928 . S
H60 C57 0.931 . S
H61 C37 0.923 1_455 S
H62 C34 0.930 . S
H63 C43 0.930 . S
H64 C55 0.929 . S
H65 C58 0.930 . S
C66 C67 1.351 . S
C66 N69 1.368 . S
C66 H71 0.931 . S
C67 C66 1.351 . S
C67 N68 1.373 . S
C67 H95 0.930 . S
N68 C67 1.373 . S
N68 C70 1.340 . S
N69 C66 1.368 . S
N69 C70 1.321 . S
N69 Co72 2.135 . S
C70 N68 1.340 . S
C70 N69 1.321 . S
C70 H94 0.922 1_565 S
H71 C66 0.931 . S
Co72 N69 2.135 . S
Co72 N75 2.121 . S
Co72 O80 2.055 . S
Co72 O83 2.039 1_565 S
Co72 N86 2.140 . S
C73 O74 1.227 1_545 S
C73 O83 1.265 . S
O74 C73 1.227 1_565 S
N75 Co72 2.121 . S
N75 C77 1.375 . S
N75 C78 1.313 . S
C76 C77 1.338 . S
C76 N79 1.377 . S
C76 H96 0.930 . S
C77 N75 1.375 . S
C77 C76 1.338 . S
C77 H81 0.931 . S
C78 N75 1.313 . S
C78 N79 1.344 . S
C78 H82 0.930 . S
N79 C76 1.377 . S
N79 C78 1.344 . S
O80 Co72 2.055 . S
O80 C84 1.253 . S
H81 C77 0.931 . S
H82 C78 0.930 . S
O83 Co72 2.039 1_545 S
O83 C73 1.265 . S
C84 O80 1.253 . S
C84 O85 1.227 . S
O85 C84 1.227 . S
N86 Co72 2.140 . S
N86 C89 1.346 . S
N86 C90 1.345 . S
C87 C88 1.387 . S
C87 C91 1.391 . S
C88 C87 1.387 . S
C88 C89 1.369 . S
C88 H97 0.929 . S
C89 N86 1.346 . S
C89 C88 1.369 . S
C89 H92 0.928 . S
C90 N86 1.345 . S
C90 C91 1.371 . S
C90 H93 0.931 . S
C91 C87 1.391 . S
C91 C90 1.371 . S
C91 H98 0.930 . S
H92 C89 0.928 . S
H93 C90 0.931 . S
H94 C70 0.922 1_545 S
H95 C67 0.930 . S
H96 C76 0.930 . S
H97 C88 0.929 . S
H98 C91 0.930 . S
C99 C100 1.351 . S
C99 N102 1.368 . S
C99 H104 0.931 . S
C100 C99 1.351 . S
C100 N101 1.373 . S
C100 H128 0.930 . S
N101 C100 1.373 . S
N101 C103 1.340 . S
N102 C99 1.368 . S
N102 C103 1.321 . S
N102 Co105 2.135 . S
C103 N101 1.340 . S
C103 N102 1.321 . S
C103 H127 0.930 . S
H104 C99 0.931 . S
Co105 N102 2.135 . S
Co105 N108 2.121 . S
Co105 O113 2.055 . S
Co105 O116 2.039 . S
Co105 N119 2.140 . S
C106 O107 1.227 . S
C106 O116 1.265 . S
O107 C106 1.227 . S
N108 Co105 2.121 . S
N108 C110 1.375 . S
N108 C111 1.313 . S
C109 C110 1.338 . S
C109 N112 1.377 . S
C109 H129 0.930 . S
C110 N108 1.375 . S
C110 C109 1.338 . S
C110 H114 0.931 . S
C111 N108 1.313 . S
C111 N112 1.344 . S
C111 H115 0.930 . S
N112 C109 1.377 . S
N112 C111 1.344 . S
O113 Co105 2.055 . S
O113 C117 1.253 . S
H114 C110 0.931 . S
H115 C111 0.930 . S
O116 Co105 2.039 . S
O116 C106 1.265 . S
C117 O113 1.253 . S
C117 O118 1.227 . S
O118 C117 1.227 . S
N119 Co105 2.140 . S
N119 C122 1.346 . S
N119 C123 1.345 . S
C120 C121 1.387 . S
C120 C124 1.391 . S
C121 C120 1.387 . S
C121 C122 1.369 . S
C121 H130 0.929 . S
C122 N119 1.346 . S
C122 C121 1.369 . S
C122 H125 0.928 . S
C123 N119 1.345 . S
C123 C124 1.371 . S
C123 H126 0.931 . S
C124 C120 1.391 . S
C124 C123 1.371 . S
C124 H131 0.930 . S
H125 C122 0.928 . S
H126 C123 0.931 . S
H127 C103 0.930 . S
H128 C100 0.930 . S
H129 C109 0.930 . S
H130 C121 0.929 . S
H131 C124 0.930 . S
C132 C133 1.351 . S
C132 N135 1.368 . S
C132 H137 0.931 . S
C133 C132 1.351 . S
C133 N134 1.373 . S
C133 H161 0.930 . S
N134 C133 1.373 . S
N134 C136 1.340 . S
N135 C132 1.368 . S
N135 C136 1.321 . S
N135 Co138 2.135 . S
C136 N134 1.340 . S
C136 N135 1.321 . S
C136 H160 0.923 1_455 S
H137 C132 0.931 . S
Co138 N135 2.135 . S
Co138 N141 2.121 . S
Co138 O146 2.055 . S
Co138 O149 2.039 1_455 S
Co138 N152 2.140 . S
C139 O140 1.227 1_655 S
C139 O149 1.265 . S
O140 C139 1.227 1_455 S
N141 Co138 2.121 . S
N141 C143 1.375 . S
N141 C144 1.313 . S
C142 C143 1.338 . S
C142 N145 1.377 . S
C142 H162 0.930 . S
C143 N141 1.375 . S
C143 C142 1.338 . S
C143 H147 0.931 . S
C144 N141 1.313 . S
C144 N145 1.344 . S
C144 H148 0.930 . S
N145 C142 1.377 . S
N145 C144 1.344 . S
O146 Co138 2.055 . S
O146 C150 1.253 . S
H147 C143 0.931 . S
H148 C144 0.930 . S
O149 Co138 2.039 1_655 S
O149 C139 1.265 . S
C150 O146 1.253 . S
C150 O151 1.227 . S
O151 C150 1.227 . S
N152 Co138 2.140 . S
N152 C155 1.346 . S
N152 C156 1.345 . S
C153 C154 1.387 . S
C153 C157 1.391 . S
C154 C153 1.387 . S
C154 C155 1.369 . S
C154 H163 0.929 . S
C155 N152 1.346 . S
C155 C154 1.369 . S
C155 H158 0.928 . S
C156 N152 1.345 . S
C156 C157 1.371 . S
C156 H159 0.931 . S
C157 C153 1.391 . S
C157 C156 1.371 . S
C157 H164 0.930 . S
H158 C155 0.928 . S
H159 C156 0.931 . S
H160 C136 0.923 1_655 S
H161 C133 0.930 . S
H162 C142 0.930 . S
H163 C154 0.929 . S
H164 C157 0.930 . S
C165 C166 1.351 . S
C165 N168 1.368 . S
C165 H170 0.931 . S
C166 C165 1.351 . S
C166 N167 1.373 . S
C166 H194 0.930 . S
N167 C166 1.373 . S
N167 C169 1.340 . S
N168 C165 1.368 . S
N168 C169 1.321 . S
N168 Co171 2.135 . S
C169 N167 1.340 . S
C169 N168 1.321 . S
C169 H193 0.922 1_545 S
H170 C165 0.931 . S
Co171 N168 2.135 . S
Co171 N174 2.121 . S
Co171 O179 2.055 . S
Co171 O182 2.039 1_545 S
Co171 N185 2.140 . S
C172 O173 1.227 1_565 S
C172 O182 1.265 . S
O173 C172 1.227 1_545 S
N174 Co171 2.121 . S
N174 C176 1.375 . S
N174 C177 1.313 . S
C175 C176 1.338 . S
C175 N178 1.377 . S
C175 H195 0.930 . S
C176 N174 1.375 . S
C176 C175 1.338 . S
C176 H180 0.931 . S
C177 N174 1.313 . S
C177 N178 1.344 . S
C177 H181 0.930 . S
N178 C175 1.377 . S
N178 C177 1.344 . S
O179 Co171 2.055 . S
O179 C183 1.253 . S
H180 C176 0.931 . S
H181 C177 0.930 . S
O182 Co171 2.039 1_565 S
O182 C172 1.265 . S
C183 O179 1.253 . S
C183 O184 1.227 . S
O184 C183 1.227 . S
N185 Co171 2.140 . S
N185 C188 1.346 . S
N185 C189 1.345 . S
C186 C187 1.387 . S
C186 C190 1.391 . S
C187 C186 1.387 . S
C187 C188 1.369 . S
C187 H196 0.929 . S
C188 N185 1.346 . S
C188 C187 1.369 . S
C188 H191 0.928 . S
C189 N185 1.345 . S
C189 C190 1.371 . S
C189 H192 0.931 . S
C190 C186 1.391 . S
C190 C189 1.371 . S
C190 H197 0.930 . S
H191 C188 0.928 . S
H192 C189 0.931 . S
H193 C169 0.922 1_565 S
H194 C166 0.930 . S
H195 C175 0.930 . S
H196 C187 0.929 . S
H197 C190 0.930 . S
C198 C199 1.351 . S
C198 N201 1.368 . S
C198 H203 0.931 . S
C199 C198 1.351 . S
C199 N200 1.373 . S
C199 H227 0.930 . S
N200 C199 1.373 . S
N200 C202 1.340 . S
N201 C198 1.368 . S
N201 C202 1.321 . S
N201 Co204 2.135 . S
C202 N200 1.340 . S
C202 N201 1.321 . S
C202 H226 0.930 . S
H203 C198 0.931 . S
Co204 N201 2.135 . S
Co204 N207 2.121 . S
Co204 O212 2.055 . S
Co204 O215 2.039 . S
Co204 N218 2.140 . S
C205 O206 1.227 . S
C205 O215 1.265 . S
O206 C205 1.227 . S
N207 Co204 2.121 . S
N207 C209 1.375 . S
N207 C210 1.313 . S
C208 C209 1.338 . S
C208 N211 1.377 . S
C208 H228 0.930 . S
C209 N207 1.375 . S
C209 C208 1.338 . S
C209 H213 0.931 . S
C210 N207 1.313 . S
C210 N211 1.344 . S
C210 H214 0.930 . S
N211 C208 1.377 . S
N211 C210 1.344 . S
O212 Co204 2.055 . S
O212 C216 1.253 . S
H213 C209 0.931 . S
H214 C210 0.930 . S
O215 Co204 2.039 . S
O215 C205 1.265 . S
C216 O212 1.253 . S
C216 O217 1.227 . S
O217 C216 1.227 . S
N218 Co204 2.140 . S
N218 C221 1.346 . S
N218 C222 1.345 . S
C219 C220 1.387 . S
C219 C223 1.391 . S
C220 C219 1.387 . S
C220 C221 1.369 . S
C220 H229 0.929 . S
C221 N218 1.346 . S
C221 C220 1.369 . S
C221 H224 0.928 . S
C222 N218 1.345 . S
C222 C223 1.371 . S
C222 H225 0.931 . S
C223 C219 1.391 . S
C223 C222 1.371 . S
C223 H230 0.930 . S
H224 C221 0.928 . S
H225 C222 0.931 . S
H226 C202 0.930 . S
H227 C199 0.930 . S
H228 C208 0.930 . S
H229 C220 0.929 . S
H230 C223 0.930 . S
C231 C232 1.351 . S
C231 N234 1.368 . S
C231 H236 0.931 . S
C232 C231 1.351 . S
C232 N233 1.373 . S
C232 H260 0.930 . S
N233 C232 1.373 . S
N233 C235 1.340 . S
N234 C231 1.368 . S
N234 C235 1.321 . S
N234 Co237 2.135 . S
C235 N233 1.340 . S
C235 N234 1.321 . S
C235 H259 0.922 1_655 S
H236 C231 0.931 . S
Co237 N234 2.135 . S
Co237 N240 2.121 . S
Co237 O245 2.055 . S
Co237 O248 2.039 1_655 S
Co237 N251 2.140 . S
C238 O239 1.227 1_455 S
C238 O248 1.265 . S
O239 C238 1.227 1_655 S
N240 Co237 2.121 . S
N240 C242 1.375 . S
N240 C243 1.313 . S
C241 C242 1.338 . S
C241 N244 1.377 . S
C241 H261 0.930 . S
C242 N240 1.375 . S
C242 C241 1.338 . S
C242 H246 0.931 . S
C243 N240 1.313 . S
C243 N244 1.344 . S
C243 H247 0.930 . S
N244 C241 1.377 . S
N244 C243 1.344 . S
O245 Co237 2.055 . S
O245 C249 1.253 . S
H246 C242 0.931 . S
H247 C243 0.930 . S
O248 Co237 2.039 1_455 S
O248 C238 1.265 . S
C249 O245 1.253 . S
C249 O250 1.227 . S
O250 C249 1.227 . S
N251 Co237 2.140 . S
N251 C254 1.346 . S
N251 C255 1.345 . S
C252 C253 1.387 . S
C252 C256 1.391 . S
C253 C252 1.387 . S
C253 C254 1.369 . S
C253 H262 0.929 . S
C254 N251 1.346 . S
C254 C253 1.369 . S
C254 H257 0.928 . S
C255 N251 1.345 . S
C255 C256 1.371 . S
C255 H258 0.931 . S
C256 C252 1.391 . S
C256 C255 1.371 . S
C256 H263 0.930 . S
H257 C254 0.928 . S
H258 C255 0.931 . S
H259 C235 0.922 1_455 S
H260 C232 0.930 . S
H261 C241 0.930 . S
H262 C253 0.929 . S
H263 C256 0.930 . S
C264 C265 1.351 . S
C264 N267 1.368 . S
C264 H269 0.931 . S
C265 C264 1.351 . S
C265 N266 1.373 . S
C265 H293 0.930 . S
N266 C265 1.373 . S
N266 C268 1.340 . S
N267 C264 1.368 . S
N267 C268 1.321 . S
N267 Co270 2.135 . S
C268 N266 1.340 . S
C268 N267 1.321 . S
C268 H292 0.923 1_565 S
H269 C264 0.931 . S
Co270 N267 2.135 . S
Co270 N273 2.121 . S
Co270 O278 2.055 . S
Co270 O281 2.039 1_565 S
Co270 N284 2.140 . S
C271 O272 1.227 1_545 S
C271 O281 1.265 . S
O272 C271 1.227 1_565 S
N273 Co270 2.121 . S
N273 C275 1.375 . S
N273 C276 1.313 . S
C274 C275 1.338 . S
C274 N277 1.377 . S
C274 H294 0.930 . S
C275 N273 1.375 . S
C275 C274 1.338 . S
C275 H279 0.931 . S
C276 N273 1.313 . S
C276 N277 1.344 . S
C276 H280 0.930 . S
N277 C274 1.377 . S
N277 C276 1.344 . S
O278 Co270 2.055 . S
O278 C282 1.253 . S
H279 C275 0.931 . S
H280 C276 0.930 . S
O281 Co270 2.039 1_545 S
O281 C271 1.265 . S
C282 O278 1.253 . S
C282 O283 1.227 . S
O283 C282 1.227 . S
N284 Co270 2.140 . S
N284 C287 1.346 . S
N284 C288 1.345 . S
C285 C286 1.387 . S
C285 C289 1.391 . S
C286 C285 1.387 . S
C286 C287 1.369 . S
C286 H295 0.929 . S
C287 N284 1.346 . S
C287 C286 1.369 . S
C287 H290 0.928 . S
C288 N284 1.345 . S
C288 C289 1.371 . S
C288 H291 0.931 . S
C289 C285 1.391 . S
C289 C288 1.371 . S
C289 H296 0.930 . S
H290 C287 0.928 . S
H291 C288 0.931 . S
H292 C268 0.923 1_545 S
H293 C265 0.930 . S
H294 C274 0.930 . S
H295 C286 0.929 . S
H296 C289 0.930 . S
C297 C298 1.351 . S
C297 N300 1.368 . S
C297 H302 0.931 . S
C298 C297 1.351 . S
C298 N299 1.373 . S
C298 H326 0.930 . S
N299 C298 1.373 . S
N299 C301 1.340 . S
N300 C297 1.368 . S
N300 C301 1.321 . S
N300 Co303 2.135 . S
C301 N299 1.340 . S
C301 N300 1.321 . S
C301 H325 0.930 . S
H302 C297 0.931 . S
Co303 N300 2.135 . S
Co303 N306 2.121 . S
Co303 O311 2.055 . S
Co303 O314 2.039 . S
Co303 N317 2.140 . S
C304 O305 1.227 . S
C304 O314 1.265 . S
O305 C304 1.227 . S
N306 Co303 2.121 . S
N306 C308 1.375 . S
N306 C309 1.313 . S
C307 C308 1.338 . S
C307 N310 1.377 . S
C307 H327 0.930 . S
C308 N306 1.375 . S
C308 C307 1.338 . S
C308 H312 0.931 . S
C309 N306 1.313 . S
C309 N310 1.344 . S
C309 H313 0.930 . S
N310 C307 1.377 . S
N310 C309 1.344 . S
O311 Co303 2.055 . S
O311 C315 1.253 . S
H312 C308 0.931 . S
H313 C309 0.930 . S
O314 Co303 2.039 . S
O314 C304 1.265 . S
C315 O311 1.253 . S
C315 O316 1.227 . S
O316 C315 1.227 . S
N317 Co303 2.140 . S
N317 C320 1.346 . S
N317 C321 1.345 . S
C318 C319 1.387 . S
C318 C322 1.391 . S
C319 C318 1.387 . S
C319 C320 1.369 . S
C319 H328 0.929 . S
C320 N317 1.346 . S
C320 C319 1.369 . S
C320 H323 0.928 . S
C321 N317 1.345 . S
C321 C322 1.371 . S
C321 H324 0.931 . S
C322 C318 1.391 . S
C322 C321 1.371 . S
C322 H329 0.930 . S
H323 C320 0.928 . S
H324 C321 0.931 . S
H325 C301 0.930 . S
H326 C298 0.930 . S
H327 C307 0.930 . S
H328 C319 0.929 . S
H329 C322 0.930 . S
C330 C331 1.351 . S
C330 N333 1.368 . S
C330 H335 0.931 . S
C331 C330 1.351 . S
C331 N332 1.373 . S
C331 H359 0.930 . S
N332 C331 1.373 . S
N332 C334 1.340 . S
N333 C330 1.368 . S
N333 C334 1.321 . S
N333 Co336 2.135 . S
C334 N332 1.340 . S
C334 N333 1.321 . S
C334 H358 0.922 1_455 S
H335 C330 0.931 . S
Co336 N333 2.135 . S
Co336 N339 2.121 . S
Co336 O344 2.055 . S
Co336 O347 2.039 1_455 S
Co336 N350 2.140 . S
C337 O338 1.227 1_655 S
C337 O347 1.265 . S
O338 C337 1.227 1_455 S
N339 Co336 2.121 . S
N339 C341 1.375 . S
N339 C342 1.313 . S
C340 C341 1.338 . S
C340 N343 1.377 . S
C340 H360 0.930 . S
C341 N339 1.375 . S
C341 C340 1.338 . S
C341 H345 0.931 . S
C342 N339 1.313 . S
C342 N343 1.344 . S
C342 H346 0.930 . S
N343 C340 1.377 . S
N343 C342 1.344 . S
O344 Co336 2.055 . S
O344 C348 1.253 . S
H345 C341 0.931 . S
H346 C342 0.930 . S
O347 Co336 2.039 1_655 S
O347 C337 1.265 . S
C348 O344 1.253 . S
C348 O349 1.227 . S
O349 C348 1.227 . S
N350 Co336 2.140 . S
N350 C353 1.346 . S
N350 C354 1.345 . S
C351 C352 1.387 . S
C351 C355 1.391 . S
C352 C351 1.387 . S
C352 C353 1.369 . S
C352 H361 0.929 . S
C353 N350 1.346 . S
C353 C352 1.369 . S
C353 H356 0.928 . S
C354 N350 1.345 . S
C354 C355 1.371 . S
C354 H357 0.931 . S
C355 C351 1.391 . S
C355 C354 1.371 . S
C355 H362 0.930 . S
H356 C353 0.928 . S
H357 C354 0.931 . S
H358 C334 0.922 1_655 S
H359 C331 0.930 . S
H360 C340 0.930 . S
H361 C352 0.929 . S
H362 C355 0.930 . S
C363 C364 1.351 . S
C363 N366 1.368 . S
C363 H368 0.931 . S
C364 C363 1.351 . S
C364 N365 1.373 . S
C364 H392 0.930 . S
N365 C364 1.373 . S
N365 C367 1.340 . S
N366 C363 1.368 . S
N366 C367 1.321 . S
N366 Co369 2.135 . S
C367 N365 1.340 . S
C367 N366 1.321 . S
C367 H391 0.923 1_545 S
H368 C363 0.931 . S
Co369 N366 2.135 . S
Co369 N372 2.121 . S
Co369 O377 2.055 . S
Co369 O380 2.039 1_545 S
Co369 N383 2.140 . S
C370 O371 1.227 1_565 S
C370 O380 1.265 . S
O371 C370 1.227 1_545 S
N372 Co369 2.121 . S
N372 C374 1.375 . S
N372 C375 1.313 . S
C373 C374 1.338 . S
C373 N376 1.377 . S
C373 H393 0.930 . S
C374 N372 1.375 . S
C374 C373 1.338 . S
C374 H378 0.931 . S
C375 N372 1.313 . S
C375 N376 1.344 . S
C375 H379 0.930 . S
N376 C373 1.377 . S
N376 C375 1.344 . S
O377 Co369 2.055 . S
O377 C381 1.253 . S
H378 C374 0.931 . S
H379 C375 0.930 . S
O380 Co369 2.039 1_565 S
O380 C370 1.265 . S
C381 O377 1.253 . S
C381 O382 1.227 . S
O382 C381 1.227 . S
N383 Co369 2.140 . S
N383 C386 1.346 . S
N383 C387 1.345 . S
C384 C385 1.387 . S
C384 C388 1.391 . S
C385 C384 1.387 . S
C385 C386 1.369 . S
C385 H394 0.929 . S
C386 N383 1.346 . S
C386 C385 1.369 . S
C386 H389 0.928 . S
C387 N383 1.345 . S
C387 C388 1.371 . S
C387 H390 0.931 . S
C388 C384 1.391 . S
C388 C387 1.371 . S
C388 H395 0.930 . S
H389 C386 0.928 . S
H390 C387 0.931 . S
H391 C367 0.923 1_565 S
H392 C364 0.930 . S
H393 C373 0.930 . S
H394 C385 0.929 . S
H395 C388 0.930 . S
H396 C402 0.930 . S
H397 C405 0.930 . S
H398 C406 0.930 . S
H399 C407 0.930 . S
H400 C410 0.930 . S
H401 C411 0.930 . S
C402 H396 0.930 . S
C402 C403 1.355 . S
C402 C404 1.415 . S
C403 C402 1.355 . S
C403 C405 1.419 . S
C404 C402 1.415 . S
C404 C409 1.425 . S
C404 C411 1.409 . S
C405 H397 0.930 . S
C405 C403 1.419 . S
C405 C406 1.362 . S
C406 H398 0.930 . S
C406 C405 1.362 . S
C406 C409 1.409 . S
C407 H399 0.930 . S
C407 C408 1.355 . S
C407 C409 1.415 . S
C408 C407 1.355 . S
C408 C410 1.419 . S
C409 C404 1.425 . S
C409 C406 1.409 . S
C409 C407 1.415 . S
C410 H400 0.930 . S
C410 C408 1.419 . S
C410 C411 1.362 . S
C411 H401 0.930 . S
C411 C404 1.409 . S
C411 C410 1.362 . S
H412 C418 0.930 1_655 S
H413 C421 0.930 . S
H414 C422 0.930 . S
H415 C423 0.930 1_455 S
H416 C426 0.930 . S
H417 C427 0.930 . S
C418 H412 0.930 1_455 S
C418 C419 1.355 . S
C418 C420 1.415 1_455 S
C419 C418 1.355 . S
C419 C421 1.419 . S
C420 C418 1.415 1_655 S
C420 C425 1.425 1_655 S
C420 C427 1.409 . S
C421 H413 0.930 . S
C421 C419 1.419 . S
C421 C422 1.362 . S
C422 H414 0.930 . S
C422 C421 1.362 . S
C422 C425 1.409 . S
C423 H415 0.930 1_655 S
C423 C424 1.355 . S
C423 C425 1.415 1_655 S
C424 C423 1.355 . S
C424 C426 1.419 . S
C425 C420 1.425 1_455 S
C425 C422 1.409 . S
C425 C423 1.415 1_455 S
C426 H416 0.930 . S
C426 C424 1.419 . S
C426 C427 1.362 . S
C427 H417 0.930 . S
C427 C420 1.409 . S
C427 C426 1.362 . S
H428 C434 0.930 1_565 S
H429 C437 0.930 . S
H430 C438 0.930 . S
H431 C439 0.930 1_545 S
H432 C442 0.930 . S
H433 C443 0.930 . S
C434 H428 0.930 1_545 S
C434 C435 1.355 . S
C434 C436 1.415 1_545 S
C435 C434 1.355 . S
C435 C437 1.419 . S
C436 C434 1.415 1_565 S
C436 C441 1.425 1_565 S
C436 C443 1.409 . S
C437 H429 0.930 . S
C437 C435 1.419 . S
C437 C438 1.362 . S
C438 H430 0.930 . S
C438 C437 1.362 . S
C438 C441 1.409 . S
C439 H431 0.930 1_565 S
C439 C440 1.355 . S
C439 C441 1.415 1_565 S
C440 C439 1.355 . S
C440 C442 1.419 . S
C441 C436 1.425 1_545 S
C441 C438 1.409 . S
C441 C439 1.415 1_545 S
C442 H432 0.930 . S
C442 C440 1.419 . S
C442 C443 1.362 . S
C443 H433 0.930 . S
C443 C436 1.409 . S
C443 C442 1.362 . S
H444 C450 0.930 . S
H445 C453 0.930 . S
H446 C454 0.930 . S
H447 C455 0.930 . S
H448 C458 0.930 . S
H449 C459 0.930 . S
C450 H444 0.930 . S
C450 C451 1.355 . S
C450 C452 1.415 . S
C451 C450 1.355 . S
C451 C453 1.419 . S
C452 C450 1.415 . S
C452 C457 1.425 . S
C452 C459 1.409 . S
C453 H445 0.930 . S
C453 C451 1.419 . S
C453 C454 1.362 . S
C454 H446 0.930 . S
C454 C453 1.362 . S
C454 C457 1.409 . S
C455 H447 0.930 . S
C455 C456 1.355 . S
C455 C457 1.415 . S
C456 C455 1.355 . S
C456 C458 1.419 . S
C457 C452 1.425 . S
C457 C454 1.409 . S
C457 C455 1.415 . S
C458 H448 0.930 . S
C458 C456 1.419 . S
C458 C459 1.362 . S
C459 H449 0.930 . S
C459 C452 1.409 . S
C459 C458 1.362 . S
H460 C466 0.930 1_455 S
H461 C469 0.930 . S
H462 C470 0.930 . S
H463 C471 0.930 1_655 S
H464 C474 0.930 . S
H465 C475 0.930 . S
C466 H460 0.930 1_655 S
C466 C467 1.355 . S
C466 C468 1.415 1_655 S
C467 C466 1.355 . S
C467 C469 1.419 . S
C468 C466 1.415 1_455 S
C468 C473 1.425 1_455 S
C468 C475 1.409 . S
C469 H461 0.930 . S
C469 C467 1.419 . S
C469 C470 1.362 . S
C470 H462 0.930 . S
C470 C469 1.362 . S
C470 C473 1.409 . S
C471 H463 0.930 1_455 S
C471 C472 1.355 . S
C471 C473 1.415 1_455 S
C472 C471 1.355 . S
C472 C474 1.419 . S
C473 C468 1.425 1_655 S
C473 C470 1.409 . S
C473 C471 1.415 1_655 S
C474 H464 0.930 . S
C474 C472 1.419 . S
C474 C475 1.362 . S
C475 H465 0.930 . S
C475 C468 1.409 . S
C475 C474 1.362 . S
H476 C482 0.930 . S
H477 C485 0.930 . S
H478 C486 0.930 . S
H479 C487 0.930 . S
H480 C490 0.930 . S
H481 C491 0.930 . S
C482 H476 0.930 . S
C482 C483 1.355 . S
C482 C484 1.415 . S
C483 C482 1.355 . S
C483 C485 1.419 . S
C484 C482 1.415 . S
C484 C489 1.425 1_565 S
C484 C491 1.409 1_565 S
C485 H477 0.930 . S
C485 C483 1.419 . S
C485 C486 1.362 . S
C486 H478 0.930 . S
C486 C485 1.362 . S
C486 C489 1.409 1_565 S
C487 H479 0.930 . S
C487 C488 1.355 . S
C487 C489 1.415 . S
C488 C487 1.355 . S
C488 C490 1.419 . S
C489 C484 1.425 1_545 S
C489 C486 1.409 1_545 S
C489 C487 1.415 . S
C490 H480 0.930 . S
C490 C488 1.419 . S
C490 C491 1.362 . S
C491 H481 0.930 . S
C491 C484 1.409 1_545 S
C491 C490 1.362 . S
H492 C498 0.930 . S
H493 C501 0.930 . S
H494 C502 0.930 . S
H495 C503 0.930 . S
H496 C506 0.930 . S
H497 C507 0.930 . S
C498 H492 0.930 . S
C498 C499 1.355 . S
C498 C500 1.415 . S
C499 C498 1.355 . S
C499 C501 1.419 . S
C500 C498 1.415 . S
C500 C505 1.425 . S
C500 C507 1.409 . S
C501 H493 0.930 . S
C501 C499 1.419 . S
C501 C502 1.362 . S
C502 H494 0.930 . S
C502 C501 1.362 . S
C502 C505 1.409 . S
C503 H495 0.930 . S
C503 C504 1.355 . S
C503 C505 1.415 . S
C504 C503 1.355 . S
C504 C506 1.419 . S
C505 C500 1.425 . S
C505 C502 1.409 . S
C505 C503 1.415 . S
C506 H496 0.930 . S
C506 C504 1.419 . S
C506 C507 1.362 . S
C507 H497 0.930 . S
C507 C500 1.409 . S
C507 C506 1.362 . S
H508 C514 0.933 . S
H509 C517 0.930 . S
H510 C518 0.930 . S
H511 C519 0.933 . S
H512 C522 0.930 . S
H513 C523 0.930 . S
C514 H508 0.933 . S
C514 C515 1.348 1_455 S
C514 C516 1.418 . S
C515 C514 1.348 1_655 S
C515 C517 1.419 . S
C516 C514 1.418 . S
C516 C521 1.425 1_455 S
C516 C523 1.409 . S
C517 H509 0.930 . S
C517 C515 1.419 . S
C517 C518 1.362 . S
C518 H510 0.930 . S
C518 C517 1.362 . S
C518 C521 1.409 . S
C519 H511 0.933 . S
C519 C520 1.348 1_655 S
C519 C521 1.418 . S
C520 C519 1.348 1_455 S
C520 C522 1.419 . S
C521 C516 1.425 1_655 S
C521 C518 1.409 . S
C521 C519 1.418 . S
C522 H512 0.930 . S
C522 C520 1.419 . S
C522 C523 1.362 . S
C523 H513 0.930 . S
C523 C516 1.409 . S
C523 C522 1.362 . S
H524 C530 0.930 1_565 S
H525 C533 0.930 . S
H526 C534 0.930 1_556 S
H527 C535 0.930 1_545 S
H528 C538 0.930 . S
H529 C539 0.930 1_554 S
C530 H524 0.930 1_545 S
C530 C531 1.355 . S
C530 C532 1.415 1_545 S
C531 C530 1.355 . S
C531 C533 1.419 . S
C532 C530 1.415 1_565 S
C532 C537 1.425 1_564 S
C532 C539 1.409 1_554 S
C533 H525 0.930 . S
C533 C531 1.419 . S
C533 C534 1.362 . S
C534 H526 0.930 1_554 S
C534 C533 1.362 . S
C534 C537 1.409 1_554 S
C535 H527 0.930 1_565 S
C535 C536 1.355 . S
C535 C537 1.415 1_565 S
C536 C535 1.355 . S
C536 C538 1.419 . S
C537 C532 1.425 1_546 S
C537 C534 1.409 1_556 S
C537 C535 1.415 1_545 S
C538 H528 0.930 . S
C538 C536 1.419 . S
C538 C539 1.362 . S
C539 H529 0.930 1_556 S
C539 C532 1.409 1_556 S
C539 C538 1.362 . S
H540 C546 0.930 . S
H541 C549 0.930 . S
H542 C550 0.930 . S
H543 C551 0.930 . S
H544 C554 0.930 . S
H545 C555 0.930 . S
C546 H540 0.930 . S
C546 C547 1.355 . S
C546 C548 1.415 . S
C547 C546 1.355 . S
C547 C549 1.419 . S
C548 C546 1.415 . S
C548 C553 1.425 . S
C548 C555 1.409 . S
C549 H541 0.930 . S
C549 C547 1.419 . S
C549 C550 1.362 . S
C550 H542 0.930 . S
C550 C549 1.362 . S
C550 C553 1.409 . S
C551 H543 0.930 . S
C551 C552 1.355 . S
C551 C553 1.415 . S
C552 C551 1.355 . S
C552 C554 1.419 . S
C553 C548 1.425 . S
C553 C550 1.409 . S
C553 C551 1.415 . S
C554 H544 0.930 . S
C554 C552 1.419 . S
C554 C555 1.362 . S
C555 H545 0.930 . S
C555 C548 1.409 . S
C555 C554 1.362 . S
H556 C562 0.930 . S
H557 C565 0.930 . S
H558 C566 0.930 . S
H559 C567 0.930 . S
H560 C570 0.930 . S
H561 C571 0.930 . S
C562 H556 0.930 . S
C562 C563 1.355 . S
C562 C564 1.415 . S
C563 C562 1.355 . S
C563 C565 1.419 1_455 S
C564 C562 1.415 . S
C564 C569 1.425 1_455 S
C564 C571 1.409 . S
C565 H557 0.930 . S
C565 C563 1.419 1_655 S
C565 C566 1.362 . S
C566 H558 0.930 . S
C566 C565 1.362 . S
C566 C569 1.409 . S
C567 H559 0.930 . S
C567 C568 1.355 . S
C567 C569 1.415 . S
C568 C567 1.355 . S
C568 C570 1.419 1_655 S
C569 C564 1.425 1_655 S
C569 C566 1.409 . S
C569 C567 1.415 . S
C570 H560 0.930 . S
C570 C568 1.419 1_455 S
C570 C571 1.362 . S
C571 H561 0.930 . S
C571 C564 1.409 . S
C571 C570 1.362 . S
H572 C578 0.930 . S
H573 C581 0.930 . S
H574 C582 0.918 1_554 S
H575 C583 0.930 . S
H576 C586 0.930 . S
H577 C587 0.918 1_556 S
C578 H572 0.930 . S
C578 C579 1.355 . S
C578 C580 1.415 1_545 S
C579 C578 1.355 . S
C579 C581 1.419 . S
C580 C578 1.415 1_565 S
C580 C585 1.425 1_566 S
C580 C587 1.409 1_556 S
C581 H573 0.930 . S
C581 C579 1.419 . S
C581 C582 1.362 . S
C582 H574 0.918 1_556 S
C582 C581 1.362 . S
C582 C585 1.409 1_556 S
C583 H575 0.930 . S
C583 C584 1.355 . S
C583 C585 1.415 1_565 S
C584 C583 1.355 . S
C584 C586 1.419 . S
C585 C580 1.425 1_544 S
C585 C582 1.409 1_554 S
C585 C583 1.415 1_545 S
C586 H576 0.930 . S
C586 C584 1.419 . S
C586 C587 1.362 . S
C587 H577 0.918 1_554 S
C587 C580 1.409 1_554 S
C587 C586 1.362 . S
H588 C594 0.930 . S
H589 C597 0.930 . S
H590 C598 0.930 . S
H591 C599 0.930 . S
H592 C602 0.930 . S
H593 C603 0.930 . S
C594 H588 0.930 . S
C594 C595 1.355 . S
C594 C596 1.415 . S
C595 C594 1.355 . S
C595 C597 1.419 . S
C596 C594 1.415 . S
C596 C601 1.425 1_445 S
C596 C603 1.409 1_545 S
C597 H589 0.930 . S
C597 C595 1.419 . S
C597 C598 1.362 1_455 S
C598 H590 0.930 . S
C598 C597 1.362 1_655 S
C598 C601 1.409 1_545 S
C599 H591 0.930 . S
C599 C600 1.355 . S
C599 C601 1.415 . S
C600 C599 1.355 . S
C600 C602 1.419 . S
C601 C596 1.425 1_665 S
C601 C598 1.409 1_565 S
C601 C599 1.415 . S
C602 H592 0.930 . S
C602 C600 1.419 . S
C602 C603 1.362 1_655 S
C603 H593 0.930 . S
C603 C596 1.409 1_565 S
C603 C602 1.362 1_455 S
H604 C610 0.930 1_455 S
H605 C613 0.930 . S
H606 C614 0.930 . S
H607 C615 0.930 1_655 S
H608 C618 0.930 . S
H609 C619 0.930 . S
C610 H604 0.930 1_655 S
C610 C611 1.355 . S
C610 C612 1.415 1_655 S
C611 C610 1.355 . S
C611 C613 1.419 . S
C612 C610 1.415 1_455 S
C612 C617 1.425 1_445 S
C612 C619 1.409 . S
C613 H605 0.930 . S
C613 C611 1.419 . S
C613 C614 1.362 1_545 S
C614 H606 0.930 . S
C614 C613 1.362 1_565 S
C614 C617 1.409 . S
C615 H607 0.930 1_455 S
C615 C616 1.355 . S
C615 C617 1.415 1_455 S
C616 C615 1.355 . S
C616 C618 1.419 . S
C617 C612 1.425 1_665 S
C617 C614 1.409 . S
C617 C615 1.415 1_655 S
C618 H608 0.930 . S
C618 C616 1.419 . S
C618 C619 1.362 1_565 S
C619 H609 0.930 . S
C619 C612 1.409 . S
C619 C618 1.362 1_545 S
H620 C626 0.930 . S
H621 C629 0.930 . S
H622 C630 0.930 . S
H623 C631 0.930 . S
H624 C634 0.930 . S
H625 C635 0.930 . S
C626 H620 0.930 . S
C626 C627 1.355 . S
C626 C628 1.415 . S
C627 C626 1.355 . S
C627 C629 1.419 1_545 S
C628 C626 1.415 . S
C628 C633 1.425 1_445 S
C628 C635 1.409 1_455 S
C629 H621 0.930 . S
C629 C627 1.419 1_565 S
C629 C630 1.362 . S
C630 H622 0.930 . S
C630 C629 1.362 . S
C630 C633 1.409 1_455 S
C631 H623 0.930 . S
C631 C632 1.355 . S
C631 C633 1.415 . S
C632 C631 1.355 . S
C632 C634 1.419 1_565 S
C633 C628 1.425 1_665 S
C633 C630 1.409 1_655 S
C633 C631 1.415 . S
C634 H624 0.930 . S
C634 C632 1.419 1_545 S
C634 C635 1.362 . S
C635 H625 0.930 . S
C635 C628 1.409 1_655 S
C635 C634 1.362 . S
H636 C642 0.931 . S
H637 C645 0.930 . S
H638 C646 0.930 1_455 S
H639 C647 0.931 . S
H640 C650 0.930 . S
H641 C651 0.930 1_655 S
C642 H636 0.931 . S
C642 C643 1.355 . S
C642 C644 1.415 1_565 S
C643 C642 1.355 . S
C643 C645 1.419 . S
C644 C642 1.415 1_545 S
C644 C649 1.425 1_645 S
C644 C651 1.409 1_655 S
C645 H637 0.930 . S
C645 C643 1.419 . S
C645 C646 1.362 . S
C646 H638 0.930 1_655 S
C646 C645 1.362 . S
C646 C649 1.409 1_655 S
C647 H639 0.931 . S
C647 C648 1.355 . S
C647 C649 1.415 1_545 S
C648 C647 1.355 . S
C648 C650 1.419 . S
C649 C644 1.425 1_465 S
C649 C646 1.409 1_455 S
C649 C647 1.415 1_565 S
C650 H640 0.930 . S
C650 C648 1.419 . S
C650 C651 1.362 . S
C651 H641 0.930 1_455 S
C651 C644 1.409 1_455 S
C651 C650 1.362 . S
H652 C658 0.930 . S
H653 C661 0.930 . S
H654 C662 0.930 . S
H655 C663 0.930 . S
H656 C666 0.930 . S
H657 C667 0.930 . S
C658 H652 0.930 . S
C658 C659 1.355 1_455 S
C658 C660 1.415 . S
C659 C658 1.355 1_655 S
C659 C661 1.419 . S
C660 C658 1.415 . S
C660 C665 1.425 1_465 S
C660 C667 1.409 1_565 S
C661 H653 0.930 . S
C661 C659 1.419 . S
C661 C662 1.362 . S
C662 H654 0.930 . S
C662 C661 1.362 . S
C662 C665 1.409 1_565 S
C663 H655 0.930 . S
C663 C664 1.355 1_655 S
C663 C665 1.415 . S
C664 C663 1.355 1_455 S
C664 C666 1.419 . S
C665 C660 1.425 1_645 S
C665 C662 1.409 1_545 S
C665 C663 1.415 . S
C666 H656 0.930 . S
C666 C664 1.419 . S
C666 C667 1.362 . S
C667 H657 0.930 . S
C667 C660 1.409 1_545 S
C667 C666 1.362 . S
H668 C674 0.930 . S
H669 C677 0.930 . S
H670 C678 0.930 . S
H671 C679 0.930 . S
H672 C682 0.930 . S
H673 C683 0.930 . S
C674 H668 0.930 . S
C674 C675 1.355 1_565 S
C674 C676 1.415 . S
C675 C674 1.355 1_545 S
C675 C677 1.419 . S
C676 C674 1.415 . S
C676 C681 1.425 1_665 S
C676 C683 1.409 . S
C677 H669 0.930 . S
C677 C675 1.419 . S
C677 C678 1.362 1_655 S
C678 H670 0.930 . S
C678 C677 1.362 1_455 S
C678 C681 1.409 . S
C679 H671 0.930 . S
C679 C680 1.355 1_545 S
C679 C681 1.415 . S
C680 C679 1.355 1_565 S
C680 C682 1.419 . S
C681 C676 1.425 1_445 S
C681 C678 1.409 . S
C681 C679 1.415 . S
C682 H672 0.930 . S
C682 C680 1.419 . S
C682 C683 1.362 1_455 S
C683 H673 0.930 . S
C683 C676 1.409 . S
C683 C682 1.362 1_655 S
H684 C690 0.930 . S
H685 C693 0.930 . S
H686 C694 0.930 . S
H687 C695 0.930 . S
H688 C698 0.930 . S
H689 C699 0.930 . S
C690 H684 0.930 . S
C690 C691 1.355 . S
C690 C692 1.415 1_655 S
C691 C690 1.355 . S
C691 C693 1.419 . S
C692 C690 1.415 1_455 S
C692 C697 1.425 1_455 S
C692 C699 1.409 . S
C693 H685 0.930 . S
C693 C691 1.419 . S
C693 C694 1.362 . S
C694 H686 0.930 . S
C694 C693 1.362 . S
C694 C697 1.409 . S
C695 H687 0.930 . S
C695 C696 1.355 . S
C695 C697 1.415 1_455 S
C696 C695 1.355 . S
C696 C698 1.419 . S
C697 C692 1.425 1_655 S
C697 C694 1.409 . S
C697 C695 1.415 1_655 S
C698 H688 0.930 . S
C698 C696 1.419 . S
C698 C699 1.362 . S
C699 H689 0.930 . S
C699 C692 1.409 . S
C699 C698 1.362 . S
H700 C706 0.930 . S
H701 C709 0.930 . S
H702 C710 0.930 1_565 S
H703 C711 0.930 . S
H704 C714 0.930 . S
H705 C715 0.930 1_545 S
C706 H700 0.930 . S
C706 C707 1.355 . S
C706 C708 1.415 . S
C707 C706 1.355 . S
C707 C709 1.419 . S
C708 C706 1.415 . S
C708 C713 1.425 1_545 S
C708 C715 1.409 1_545 S
C709 H701 0.930 . S
C709 C707 1.419 . S
C709 C710 1.362 . S
C710 H702 0.930 1_545 S
C710 C709 1.362 . S
C710 C713 1.409 1_545 S
C711 H703 0.930 . S
C711 C712 1.355 . S
C711 C713 1.415 . S
C712 C711 1.355 . S
C712 C714 1.419 . S
C713 C708 1.425 1_565 S
C713 C710 1.409 1_565 S
C713 C711 1.415 . S
C714 H704 0.930 . S
C714 C712 1.419 . S
C714 C715 1.362 . S
C715 H705 0.930 1_565 S
C715 C708 1.409 1_565 S
C715 C714 1.362 . S
H716 C722 0.930 . S
H717 C725 0.930 . S
H718 C726 0.930 . S
H719 C727 0.930 . S
H720 C730 0.930 . S
H721 C731 0.930 . S
C722 H716 0.930 . S
C722 C723 1.355 . S
C722 C724 1.415 . S
C723 C722 1.355 . S
C723 C725 1.419 . S
C724 C722 1.415 . S
C724 C729 1.425 . S
C724 C731 1.409 . S
C725 H717 0.930 . S
C725 C723 1.419 . S
C725 C726 1.362 . S
C726 H718 0.930 . S
C726 C725 1.362 . S
C726 C729 1.409 . S
C727 H719 0.930 . S
C727 C728 1.355 . S
C727 C729 1.415 . S
C728 C727 1.355 . S
C728 C730 1.419 . S
C729 C724 1.425 . S
C729 C726 1.409 . S
C729 C727 1.415 . S
C730 H720 0.930 . S
C730 C728 1.419 . S
C730 C731 1.362 . S
C731 H721 0.930 . S
C731 C724 1.409 . S
C731 C730 1.362 . S
H732 C738 0.930 . S
H733 C741 0.930 . S
H734 C742 0.930 . S
H735 C743 0.930 . S
H736 C746 0.930 . S
H737 C747 0.930 . S
C738 H732 0.930 . S
C738 C739 1.355 . S
C738 C740 1.415 . S
C739 C738 1.355 . S
C739 C741 1.419 . S
C740 C738 1.415 . S
C740 C745 1.425 1_455 S
C740 C747 1.409 . S
C741 H733 0.930 . S
C741 C739 1.419 . S
C741 C742 1.362 1_455 S
C742 H734 0.930 . S
C742 C741 1.362 1_655 S
C742 C745 1.409 . S
C743 H735 0.930 . S
C743 C744 1.355 . S
C743 C745 1.415 . S
C744 C743 1.355 . S
C744 C746 1.419 . S
C745 C740 1.425 1_655 S
C745 C742 1.409 . S
C745 C743 1.415 . S
C746 H736 0.930 . S
C746 C744 1.419 . S
C746 C747 1.362 1_655 S
C747 H737 0.930 . S
C747 C740 1.409 . S
C747 C746 1.362 1_455 S
H748 C754 0.930 . S
H749 C757 0.930 . S
H750 C758 0.930 . S
H751 C759 0.930 . S
H752 C762 0.930 . S
H753 C763 0.930 . S
C754 H748 0.930 . S
C754 C755 1.355 . S
C754 C756 1.415 . S
C755 C754 1.355 . S
C755 C757 1.419 . S
C756 C754 1.415 . S
C756 C761 1.425 1_565 S
C756 C763 1.409 . S
C757 H749 0.930 . S
C757 C755 1.419 . S
C757 C758 1.362 1_565 S
C758 H750 0.930 . S
C758 C757 1.362 1_545 S
C758 C761 1.409 . S
C759 H751 0.930 . S
C759 C760 1.355 . S
C759 C761 1.415 . S
C760 C759 1.355 . S
C760 C762 1.419 . S
C761 C756 1.425 1_545 S
C761 C758 1.409 . S
C761 C759 1.415 . S
C762 H752 0.930 . S
C762 C760 1.419 . S
C762 C763 1.362 1_545 S
C763 H753 0.930 . S
C763 C756 1.409 . S
C763 C762 1.362 1_565 S
H764 C770 0.930 . S
H765 C773 0.930 . S
H766 C774 0.930 . S
H767 C775 0.930 . S
H768 C778 0.930 . S
H769 C779 0.930 . S
C770 H764 0.930 . S
C770 C771 1.355 . S
C770 C772 1.415 . S
C771 C770 1.355 . S
C771 C773 1.419 . S
C772 C770 1.415 . S
C772 C777 1.425 . S
C772 C779 1.409 . S
C773 H765 0.930 . S
C773 C771 1.419 . S
C773 C774 1.362 . S
C774 H766 0.930 . S
C774 C773 1.362 . S
C774 C777 1.409 . S
C775 H767 0.930 . S
C775 C776 1.355 . S
C775 C777 1.415 . S
C776 C775 1.355 . S
C776 C778 1.419 . S
C777 C772 1.425 . S
C777 C774 1.409 . S
C777 C775 1.415 . S
C778 H768 0.930 . S
C778 C776 1.419 . S
C778 C779 1.362 . S
C779 H769 0.930 . S
C779 C772 1.409 . S
C779 C778 1.362 . S
H780 C786 0.930 . S
H781 C789 0.930 . S
H782 C790 0.930 . S
H783 C791 0.930 . S
H784 C794 0.930 . S
H785 C795 0.930 . S
C786 H780 0.930 . S
C786 C787 1.355 . S
C786 C788 1.415 . S
C787 C786 1.355 . S
C787 C789 1.419 . S
C788 C786 1.415 . S
C788 C793 1.425 . S
C788 C795 1.409 . S
C789 H781 0.930 . S
C789 C787 1.419 . S
C789 C790 1.362 . S
C790 H782 0.930 . S
C790 C789 1.362 . S
C790 C793 1.409 . S
C791 H783 0.930 . S
C791 C792 1.355 . S
C791 C793 1.415 . S
C792 C791 1.355 . S
C792 C794 1.419 . S
C793 C788 1.425 . S
C793 C790 1.409 . S
C793 C791 1.415 . S
C794 H784 0.930 . S
C794 C792 1.419 . S
C794 C795 1.362 . S
C795 H785 0.930 . S
C795 C788 1.409 . S
C795 C794 1.362 . S
H796 C802 0.930 . S
H797 C805 0.930 . S
H798 C806 0.930 . S
H799 C807 0.930 . S
H800 C810 0.930 . S
H801 C811 0.930 . S
C802 H796 0.930 . S
C802 C803 1.355 . S
C802 C804 1.415 . S
C803 C802 1.355 . S
C803 C805 1.419 . S
C804 C802 1.415 . S
C804 C809 1.425 . S
C804 C811 1.409 . S
C805 H797 0.930 . S
C805 C803 1.419 . S
C805 C806 1.362 . S
C806 H798 0.930 . S
C806 C805 1.362 . S
C806 C809 1.409 . S
C807 H799 0.930 . S
C807 C808 1.355 . S
C807 C809 1.415 . S
C808 C807 1.355 . S
C808 C810 1.419 . S
C809 C804 1.425 . S
C809 C806 1.409 . S
C809 C807 1.415 . S
C810 H800 0.930 . S
C810 C808 1.419 . S
C810 C811 1.362 . S
C811 H801 0.930 . S
C811 C804 1.409 . S
C811 C810 1.362 . S
H812 C818 0.930 . S
H813 C821 0.930 . S
H814 C822 0.930 . S
H815 C823 0.930 . S
H816 C826 0.930 . S
H817 C827 0.930 . S
C818 H812 0.930 . S
C818 C819 1.355 . S
C818 C820 1.415 . S
C819 C818 1.355 . S
C819 C821 1.419 . S
C820 C818 1.415 . S
C820 C825 1.425 . S
C820 C827 1.409 . S
C821 H813 0.930 . S
C821 C819 1.419 . S
C821 C822 1.362 . S
C822 H814 0.930 . S
C822 C821 1.362 . S
C822 C825 1.409 . S
C823 H815 0.930 . S
C823 C824 1.355 . S
C823 C825 1.415 . S
C824 C823 1.355 . S
C824 C826 1.419 . S
C825 C820 1.425 . S
C825 C822 1.409 . S
C825 C823 1.415 . S
C826 H816 0.930 . S
C826 C824 1.419 . S
C826 C827 1.362 . S
C827 H817 0.930 . S
C827 C820 1.409 . S
C827 C826 1.362 . S
H828 C834 0.930 . S
H829 C837 0.930 . S
H830 C838 0.930 . S
H831 C839 0.930 . S
H832 C842 0.930 . S
H833 C843 0.930 . S
C834 H828 0.930 . S
C834 C835 1.355 . S
C834 C836 1.415 . S
C835 C834 1.355 . S
C835 C837 1.419 . S
C836 C834 1.415 . S
C836 C841 1.425 . S
C836 C843 1.409 . S
C837 H829 0.930 . S
C837 C835 1.419 . S
C837 C838 1.362 . S
C838 H830 0.930 . S
C838 C837 1.362 . S
C838 C841 1.409 . S
C839 H831 0.930 . S
C839 C840 1.355 . S
C839 C841 1.415 . S
C840 C839 1.355 . S
C840 C842 1.419 . S
C841 C836 1.425 . S
C841 C838 1.409 . S
C841 C839 1.415 . S
C842 H832 0.930 . S
C842 C840 1.419 . S
C842 C843 1.362 . S
C843 H833 0.930 . S
C843 C836 1.409 . S
C843 C842 1.362 . S
H844 C850 0.930 . S
H845 C853 0.930 . S
H846 C854 0.930 . S
H847 C855 0.930 . S
H848 C858 0.930 . S
H849 C859 0.930 . S
C850 H844 0.930 . S
C850 C851 1.355 . S
C850 C852 1.415 . S
C851 C850 1.355 . S
C851 C853 1.419 . S
C852 C850 1.415 . S
C852 C857 1.425 . S
C852 C859 1.409 . S
C853 H845 0.930 . S
C853 C851 1.419 . S
C853 C854 1.362 . S
C854 H846 0.930 . S
C854 C853 1.362 . S
C854 C857 1.409 . S
C855 H847 0.930 . S
C855 C856 1.355 . S
C855 C857 1.415 . S
C856 C855 1.355 . S
C856 C858 1.419 . S
C857 C852 1.425 . S
C857 C854 1.409 . S
C857 C855 1.415 . S
C858 H848 0.930 . S
C858 C856 1.419 . S
C858 C859 1.362 . S
C859 H849 0.930 . S
C859 C852 1.409 . S
C859 C858 1.362 . S
H860 C866 0.930 . S
H861 C869 0.930 . S
H862 C870 0.930 . S
H863 C871 0.930 . S
H864 C874 0.930 1_655 S
H865 C875 0.930 . S
C866 H860 0.930 . S
C866 C867 1.355 . S
C866 C868 1.415 . S
C867 C866 1.355 . S
C867 C869 1.419 . S
C868 C866 1.415 . S
C868 C873 1.425 . S
C868 C875 1.409 . S
C869 H861 0.930 . S
C869 C867 1.419 . S
C869 C870 1.362 . S
C870 H862 0.930 . S
C870 C869 1.362 . S
C870 C873 1.409 . S
C871 H863 0.930 . S
C871 C872 1.355 . S
C871 C873 1.415 . S
C872 C871 1.355 . S
C872 C874 1.419 . S
C873 C868 1.425 . S
C873 C870 1.409 . S
C873 C871 1.415 . S
C874 H864 0.930 1_455 S
C874 C872 1.419 . S
C874 C875 1.362 . S
C875 H865 0.930 . S
C875 C868 1.409 . S
C875 C874 1.362 . S
C403 N112 1.511 . S
C408 N13 1.479 . S
C419 N145 1.499 . S
C424 N46 1.515 . S
C435 N178 1.515 . S
C440 N79 1.503 . S
C451 N211 1.469 . S
C456 N310 1.507 . S
C467 N244 1.515 . S
C472 N343 1.492 . S
C483 N277 1.471 . S
C488 N376 1.428 . S
C499 C315 1.841 . S
C504 C18 1.819 . S
C515 C51 1.836 . S
C520 C348 1.854 . S
C531 C381 1.856 . S
C536 C84 1.844 . S
C547 C216 1.811 . S
C552 C117 1.824 . S
C563 C150 1.814 . S
C568 C249 1.814 . S
C579 C183 1.823 . S
C584 C282 1.846 . S
C595 N2 0.597 . S
C600 N101 0.634 . S
C611 N35 0.579 . S
C616 N134 0.647 . S
C627 N167 0.620 . S
C632 N68 0.559 . S
C643 N200 0.578 . S
C648 N299 0.599 . S
C659 N233 0.627 . S
C664 N332 0.606 . S
C675 N365 0.647 . S
C680 N266 0.579 . S
C691 C384 1.037 . S
C696 C21 1.025 . S
C707 C54 0.969 . S
C712 C219 1.084 . S
C723 C252 0.961 . S
C728 C87 1.094 . S
C739 C285 1.081 . S
C744 C120 0.973 . S
C755 C153 1.058 . S
C760 C318 0.997 . S
C771 C186 1.021 . S
C776 C351 1.034 . S
C787 C7 1.117 . S
C792 C271 1.035 . S
C803 C40 1.034 . S
C808 C304 1.119 . S
C819 C337 1.033 . S
C824 C73 1.121 . S
C835 C106 1.052 . S
C840 C370 1.097 . S
C851 C205 1.068 . S
C856 C139 1.100 . S
C867 C172 1.124 . S
C872 C238 1.033 . S
