# Generated by pormake.
# Topology lcy, (6)-cn, num edge types: 1
# Building blocks:
#     Node 0, Type 0, BuildingBlock: IZENUY_clean_sbu_0, # of connection points: 6
#     Node 1, Type 0, BuildingBlock: IZENUY_clean_sbu_0, # of connection points: 6
#     Node 2, Type 0, BuildingBlock: IZENUY_clean_sbu_0, # of connection points: 6
#     Node 3, Type 0, BuildingBlock: IZENUY_clean_sbu_0, # of connection points: 6
#     Edge 4, Type (0, 0), BuildingBlock: FUNLAD_clean_linker_0, # of connection points: 2
#     Edge 5, Type (0, 0), BuildingBlock: FUNLAD_clean_linker_0, # of connection points: 2
#     Edge 6, Type (0, 0), BuildingBlock: FUNLAD_clean_linker_0, # of connection points: 2
#     Edge 7, Type (0, 0), BuildingBlock: FUNLAD_clean_linker_0, # of connection points: 2
#     Edge 8, Type (0, 0), BuildingBlock: FUNLAD_clean_linker_0, # of connection points: 2
#     Edge 9, Type (0, 0), BuildingBlock: FUNLAD_clean_linker_0, # of connection points: 2
#     Edge 10, Type (0, 0), BuildingBlock: FUNLAD_clean_linker_0, # of connection points: 2
#     Edge 11, Type (0, 0), BuildingBlock: FUNLAD_clean_linker_0, # of connection points: 2
#     Edge 12, Type (0, 0), BuildingBlock: FUNLAD_clean_linker_0, # of connection points: 2
#     Edge 13, Type (0, 0), BuildingBlock: FUNLAD_clean_linker_0, # of connection points: 2
#     Edge 14, Type (0, 0), BuildingBlock: FUNLAD_clean_linker_0, # of connection points: 2
#     Edge 15, Type (0, 0), BuildingBlock: FUNLAD_clean_linker_0, # of connection points: 2
# Relax obj value: 0.232
# Max RMSD: 0.227
# Mean RMSD: 0.227
data_MOF--net-lcy--node1-IZENUY_clean_sbu_0--edge1-FUNLAD_clean_linker_0
_symmetry_space_group_name_H-M    P1
_symmetry_Int_Tables_number       1
_symmetry_cell_setting            triclinic
loop_
_symmetry_equiv_pos_as_xyz
'x, y, z'
_cell_length_a     29.634913
_cell_length_b     29.571521
_cell_length_c     29.617692
_cell_angle_alpha  90.137702
_cell_angle_beta   90.244611
_cell_angle_gamma 90.138186
loop_
_atom_site_label
_atom_site_type_symbol
_atom_site_fract_x
_atom_site_fract_y
_atom_site_fract_z
_atom_type_partial_charge
Fe0 Fe 0.40915 0.36894 0.3271 0.0
Fe1 Fe 0.37039 0.33212 0.41469 0.0
O2 O 0.36847 0.37146 0.37017 0.0
Fe3 Fe 0.32601 0.41305 0.36869 0.0
O4 O 0.30514 0.39257 0.31518 0.0
O5 O 0.37123 0.39061 0.28226 0.0
O6 O 0.39094 0.31295 0.31124 0.0
C7 C 0.39334 0.27974 0.33758 0.0
C8 C 0.40476 0.45957 0.33829 0.0
O9 O 0.39456 0.28583 0.38005 0.0
C10 C 0.34405 0.41399 0.45822 0.0
O11 O 0.45469 0.34689 0.36415 0.0
O12 O 0.4254 0.35198 0.4319 0.0
O13 O 0.36205 0.45636 0.34128 0.0
O14 O 0.42913 0.42484 0.34077 0.0
C15 C 0.28036 0.33403 0.39904 0.0
O16 O 0.34646 0.37109 0.4574 0.0
O17 O 0.34428 0.43612 0.42202 0.0
C18 C 0.45942 0.34927 0.40678 0.0
O19 O 0.3156 0.31039 0.39958 0.0
O20 O 0.28266 0.37685 0.3958 0.0
C21 C 0.32847 0.39228 0.27979 0.0
Fe22 Fe 0.8293 0.08063 0.61933 0.0
Fe23 Fe 0.87145 0.16614 0.58079 0.0
O24 O 0.8696 0.12431 0.62289 0.0
Fe25 Fe 0.90818 0.12593 0.66836 0.0
O26 O 0.93115 0.07191 0.65244 0.0
O27 O 0.86561 0.0375 0.64683 0.0
O28 O 0.85178 0.06143 0.56637 0.0
C29 C 0.85203 0.08535 0.53134 0.0
C30 C 0.82576 0.09616 0.70886 0.0
O31 O 0.85174 0.12827 0.53452 0.0
C32 C 0.89067 0.21517 0.66219 0.0
O33 O 0.78573 0.1158 0.59112 0.0
O34 O 0.8149 0.18405 0.59359 0.0
O35 O 0.86861 0.09985 0.70965 0.0
O36 O 0.8048 0.09765 0.67194 0.0
C37 C 0.96088 0.15311 0.59274 0.0
O38 O 0.89162 0.21155 0.61937 0.0
O39 O 0.88765 0.18036 0.68645 0.0
C40 C 0.7811 0.15852 0.58936 0.0
O41 O 0.92801 0.15027 0.56586 0.0
O42 O 0.9545 0.15202 0.63518 0.0
C43 C 0.90833 0.03607 0.65056 0.0
Fe44 Fe 0.08388 0.62786 0.8281 0.0
Fe45 Fe 0.16779 0.58273 0.86781 0.0
O46 O 0.1267 0.62565 0.8695 0.0
Fe47 Fe 0.12857 0.66662 0.91267 0.0
O48 O 0.07424 0.64915 0.93293 0.0
O49 O 0.0408 0.65204 0.86677 0.0
O50 O 0.06325 0.57277 0.84366 0.0
C51 C 0.08656 0.53732 0.84126 0.0
C52 C 0.10093 0.71723 0.83542 0.0
O53 O 0.12944 0.5395 0.84286 0.0
C54 C 0.21743 0.66123 0.89392 0.0
O55 O 0.11939 0.60423 0.7823 0.0
O56 O 0.18677 0.60106 0.81325 0.0
O57 O 0.10367 0.71248 0.87797 0.0
O58 O 0.10214 0.6831 0.81003 0.0
C59 C 0.15355 0.58538 0.95777 0.0
O60 O 0.21347 0.6184 0.89251 0.0
O61 O 0.18303 0.68603 0.89424 0.0
C62 C 0.16207 0.60171 0.77862 0.0
O63 O 0.15106 0.56202 0.92231 0.0
O64 O 0.15344 0.62831 0.95558 0.0
C65 C 0.03883 0.65292 0.90971 0.0
Fe66 Fe 0.58522 0.8674 0.1722 0.0
Fe67 Fe 0.6671 0.91157 0.12834 0.0
O68 O 0.62368 0.8709 0.12723 0.0
Fe69 Fe 0.61835 0.83357 0.08123 0.0
O70 O 0.56298 0.855 0.06821 0.0
O71 O 0.5375 0.84635 0.13692 0.0
O72 O 0.56542 0.92369 0.16114 0.0
C73 C 0.59042 0.95814 0.16317 0.0
C74 C 0.59942 0.77863 0.15761 0.0
O75 O 0.63305 0.9545 0.159 0.0
C76 C 0.70892 0.83309 0.09019 0.0
O77 O 0.62559 0.8878 0.21581 0.0
O78 O 0.68998 0.88868 0.17983 0.0
O79 O 0.59546 0.78623 0.1155 0.0
O80 O 0.60365 0.81091 0.18508 0.0
C81 C 0.64532 0.91661 0.03995 0.0
O82 O 0.70842 0.87559 0.09743 0.0
O83 O 0.67308 0.81044 0.09217 0.0
C84 C 0.66846 0.88875 0.21632 0.0
O85 O 0.64669 0.93699 0.07718 0.0
O86 O 0.64103 0.87383 0.03881 0.0
C87 C 0.53032 0.84961 0.09467 0.0
C88 C 0.17326 0.51511 0.00022 0.0
C89 C 0.16546 0.56207 0.00042 0.0
C90 C 0.18921 0.49326 0.03875 0.0
C91 C 0.1975 0.51777 0.07858 0.0
C92 C 0.18761 0.5642 0.07964 0.0
C93 C 0.17211 0.5863 0.0408 0.0
C94 C 0.21607 0.49549 0.1194 0.0
C95 C 0.24585 0.46114 0.11714 0.0
C96 C 0.26562 0.44001 0.15799 0.0
C97 C 0.31049 0.42486 0.15725 0.0
C98 C 0.33071 0.40757 0.19635 0.0
C99 C 0.30605 0.40433 0.23666 0.0
H100 H 0.20522 0.44471 0.19881 0.0
C101 C 0.26026 0.41696 0.23642 0.0
C102 C 0.24034 0.43477 0.19761 0.0
H103 H 0.24002 0.41458 0.26668 0.0
H104 H 0.16807 0.49516 0.96991 0.0
H105 H 0.19501 0.45715 0.03723 0.0
H106 H 0.19316 0.58367 0.11021 0.0
H107 H 0.1662 0.6224 0.04219 0.0
H108 H 0.2072 0.50966 0.15206 0.0
H109 H 0.25851 0.45022 0.08451 0.0
H110 H 0.33042 0.42794 0.12682 0.0
H111 H 0.36593 0.39793 0.19529 0.0
C112 C 0.73863 0.91521 0.25563 0.0
C113 C 0.69313 0.90154 0.25813 0.0
C114 C 0.76044 0.93399 0.29308 0.0
C115 C 0.73747 0.93909 0.3341 0.0
C116 C 0.69298 0.92301 0.33754 0.0
C117 C 0.67079 0.90483 0.29977 0.0
C118 C 0.75939 0.96078 0.37371 0.0
C119 C 0.78836 0.99582 0.36984 0.0
C120 C 0.80892 0.01825 0.40978 0.0
C121 C 0.81593 0.06526 0.40977 0.0
C122 C 0.83201 0.08733 0.44859 0.0
C123 C 0.84207 0.06252 0.48778 0.0
H124 H 0.81786 0.95678 0.44852 0.0
C125 C 0.83789 0.01507 0.48646 0.0
C126 C 0.82135 0.99324 0.44803 0.0
H127 H 0.84593 0.99468 0.51573 0.0
H128 H 0.75712 0.91295 0.22425 0.0
H129 H 0.79523 0.94472 0.28977 0.0
H130 H 0.67483 0.92599 0.36908 0.0
H131 H 0.63585 0.89449 0.3029 0.0
H132 H 0.74912 0.94951 0.40703 0.0
H133 H 0.79484 0.01039 0.33683 0.0
H134 H 0.80723 0.08514 0.38033 0.0
H135 H 0.83501 0.12384 0.44838 0.0
C136 C 0.2301 0.58286 0.73285 0.0
C137 C 0.18322 0.59022 0.73482 0.0
C138 C 0.24996 0.5657 0.69386 0.0
C139 C 0.22349 0.55574 0.65572 0.0
C140 C 0.17718 0.56575 0.65646 0.0
C141 C 0.15707 0.5825 0.69582 0.0
C142 C 0.24366 0.53483 0.61501 0.0
C143 C 0.27709 0.50406 0.61768 0.0
C144 C 0.29674 0.48207 0.5773 0.0
C145 C 0.3116 0.43708 0.57992 0.0
C146 C 0.32838 0.41504 0.54163 0.0
C147 C 0.3314 0.438 0.50026 0.0
H148 H 0.29166 0.5407 0.53373 0.0
C149 C 0.31868 0.48382 0.49846 0.0
C150 C 0.30139 0.50554 0.53645 0.0
H151 H 0.32087 0.50279 0.4673 0.0
H152 H 0.25152 0.58903 0.76195 0.0
H153 H 0.28603 0.55992 0.6938 0.0
H154 H 0.15624 0.55901 0.62712 0.0
H155 H 0.12096 0.58805 0.69609 0.0
H156 H 0.22868 0.54277 0.58244 0.0
H157 H 0.2886 0.49252 0.65058 0.0
H158 H 0.30894 0.41852 0.6113 0.0
H159 H 0.33807 0.37984 0.54423 0.0
C160 C 0.6723 0.91982 0.95946 0.0
C161 C 0.66043 0.94211 -0.00035 0.0
C162 C 0.69431 0.94336 0.92488 0.0
C163 C 0.705 0.98954 0.93009 0.0
C164 C 0.6916 0.01204 0.9694 0.0
C165 C 0.6691 0.98883 0.0035 0.0
C166 C 0.73205 0.0147 0.8964 0.0
C167 C 0.72836 0.00719 0.85186 0.0
C168 C 0.75331 0.03415 0.818 0.0
C169 C 0.73173 0.04427 0.77722 0.0
C170 C 0.75469 0.06702 0.7432 0.0
C171 C 0.80045 0.07915 0.74852 0.0
H172 H 0.81605 0.04007 0.85565 0.0
C173 C 0.8219 0.07006 0.78995 0.0
C174 C 0.7984 0.04797 0.82458 0.0
H175 H 0.85709 0.07867 0.79508 0.0
H176 H 0.66649 0.88384 0.95552 0.0
H177 H 0.70476 0.92491 0.8951 0.0
H178 H 0.6992 0.04761 0.9741 0.0
H179 H 0.66032 0.0073 0.03384 0.0
H180 H 0.75329 0.04226 0.90846 0.0
H181 H 0.70368 0.98284 0.83949 0.0
H182 H 0.69701 0.03412 0.77143 0.0
H183 H 0.73679 0.07342 0.71191 0.0
C184 C 0.01179 0.16484 0.52716 0.0
C185 C 0.00434 0.16864 0.57384 0.0
C186 C 0.04793 0.18701 0.50688 0.0
C187 C 0.07806 0.21321 0.53293 0.0
C188 C 0.07186 0.21525 0.57995 0.0
C189 C 0.03547 0.19302 0.60031 0.0
C190 C 0.11419 0.24112 0.51191 0.0
C191 C 0.13002 0.23385 0.46992 0.0
C192 C 0.16588 0.26189 0.44917 0.0
C193 C 0.19544 0.24139 0.41853 0.0
C194 C 0.2314 0.26573 0.40043 0.0
C195 C 0.23792 0.31143 0.41178 0.0
H196 H 0.1479 0.32544 0.48132 0.0
C197 C 0.20672 0.33291 0.44015 0.0
C198 C 0.17104 0.30827 0.45893 0.0
H199 H 0.21113 0.36807 0.44957 0.0
H200 H 0.98837 0.14636 0.50578 0.0
H201 H 0.05048 0.1851 0.47054 0.0
H202 H 0.09448 0.2352 0.60087 0.0
H203 H 0.03043 0.19695 0.63631 0.0
H204 H 0.12889 0.26805 0.53226 0.0
H205 H 0.11885 0.20451 0.45086 0.0
H206 H 0.19175 0.20594 0.40989 0.0
H207 H 0.25493 0.24843 0.37849 0.0
C208 C 0.08343 0.76561 0.76859 0.0
C209 C 0.08418 0.76006 0.81574 0.0
C210 C 0.05996 0.80143 0.74889 0.0
C211 C 0.03687 0.83291 0.77594 0.0
C212 C 0.03928 0.82848 0.82314 0.0
C213 C 0.06288 0.79261 0.84289 0.0
C214 C 0.00769 0.86878 0.75619 0.0
C215 C 0.01206 0.8843 0.71368 0.0
C216 C 0.98311 0.92062 0.6949 0.0
C217 C 0.00212 0.95147 0.66453 0.0
C218 C 0.97693 0.98792 0.64853 0.0
C219 C 0.93178 0.99356 0.66161 0.0
H220 H 0.92133 0.90103 0.72894 0.0
C221 C 0.91174 0.96117 0.68977 0.0
C222 C 0.9373 0.92508 0.70657 0.0
H223 H 0.87705 0.96492 0.70054 0.0
H224 H 0.09934 0.74103 0.74667 0.0
H225 H 0.05836 0.80281 0.71245 0.0
H226 H 0.0218 0.85217 0.84483 0.0
H227 H 0.0624 0.78912 0.87929 0.0
H228 H 0.98251 0.88393 0.77807 0.0
H229 H 0.03981 0.87277 0.69287 0.0
H230 H 0.03712 0.94841 0.65453 0.0
H231 H 0.99312 0.01242 0.62675 0.0
C232 C 0.29015 0.66267 0.93726 0.0
C233 C 0.26067 0.68293 0.90609 0.0
C234 C 0.32576 0.68767 0.95621 0.0
C235 C 0.33258 0.73316 0.94386 0.0
C236 C 0.30497 0.7521 0.91035 0.0
C237 C 0.26907 0.72747 0.89205 0.0
C238 C 0.36785 0.76204 0.96511 0.0
C239 C 0.38128 0.75743 0.00844 0.0
C240 C 0.41605 0.7866 0.03077 0.0
C241 C 0.42224 0.78324 0.07778 0.0
C242 C 0.45739 0.8065 0.09954 0.0
C243 C 0.48729 0.83354 0.07461 0.0
H244 H 0.44201 0.81927 0.97018 0.0
C245 C 0.47957 0.83894 0.02808 0.0
C246 C 0.44467 0.81565 0.00636 0.0
H247 H 0.50202 0.85949 0.00785 0.0
H248 H 0.28419 0.62847 0.94887 0.0
H249 H 0.34739 0.67157 0.9809 0.0
H250 H 0.30993 0.78679 0.8997 0.0
H251 H 0.24681 0.74384 0.86804 0.0
H252 H 0.38031 0.78988 0.94495 0.0
H253 H 0.36547 0.73154 0.02904 0.0
H254 H 0.40075 0.7613 0.09759 0.0
H255 H 0.4626 0.80124 0.13536 0.0
C256 C 0.43706 0.20754 0.33952 0.0
C257 C 0.40591 0.23585 0.31769 0.0
C258 C 0.45565 0.17062 0.3166 0.0
C259 C 0.44298 0.1613 0.27165 0.0
C260 C 0.40963 0.18788 0.2511 0.0
C261 C 0.39164 0.2251 0.27367 0.0
C262 C 0.46365 0.12424 0.24513 0.0
C263 C 0.50683 0.11101 0.25068 0.0
C264 C 0.52788 0.07408 0.22388 0.0
C265 C 0.57519 0.07102 0.222 0.0
C266 C 0.59604 0.03469 0.20002 0.0
C267 C 0.56981 0.0005 0.17984 0.0
H268 H 0.46538 0.0406 0.20371 0.0
C269 C 0.52255 0.00447 0.18035 0.0
C270 C 0.50182 0.04052 0.2023 0.0
H271 H 0.50128 0.97868 0.16518 0.0
H272 H 0.4488 0.21525 0.37337 0.0
H273 H 0.48023 0.14983 0.3339 0.0
H274 H 0.39877 0.18095 0.21678 0.0
H275 H 0.36756 0.24637 0.25616 0.0
H276 H 0.44336 0.10993 0.21806 0.0
H277 H 0.52813 0.12875 0.2749 0.0
H278 H 0.59612 0.09631 0.23844 0.0
H279 H 0.63251 0.03243 0.20053 0.0
C280 C 0.73388 0.22613 0.57179 0.0
C281 C 0.73872 0.17883 0.5722 0.0
C282 C 0.69778 0.24637 0.5493 0.0
C283 C 0.66517 0.21975 0.52695 0.0
C284 C 0.66908 0.17241 0.52877 0.0
C285 C 0.70535 0.15209 0.55133 0.0
C286 C 0.62842 0.24012 0.49929 0.0
C287 C 0.61407 0.28307 0.50431 0.0
C288 C 0.57708 0.30269 0.47675 0.0
C289 C 0.54884 0.33511 0.49648 0.0
C290 C 0.51178 0.35202 0.47275 0.0
C291 C 0.50282 0.33762 0.42837 0.0
H292 H 0.59148 0.26597 0.41487 0.0
C293 C 0.53271 0.30736 0.40748 0.0
C294 C 0.56945 0.28985 0.43155 0.0
H295 H 0.52647 0.29551 0.37337 0.0
H296 H 0.75904 0.24779 0.58744 0.0
H297 H 0.69692 0.28289 0.54804 0.0
H298 H 0.64454 0.15104 0.5118 0.0
H299 H 0.7082 0.11559 0.55072 0.0
H300 H 0.61169 0.21836 0.47476 0.0
H301 H 0.62735 0.30383 0.53156 0.0
H302 H 0.55441 0.34608 0.531 0.0
H303 H 0.48931 0.37542 0.4896 0.0
C304 C 0.01692 0.49514 0.81776 0.0
C305 C 0.06338 0.49468 0.82804 0.0
C306 C 0.99537 0.45666 0.80077 0.0
C307 C 0.01962 0.41653 0.79385 0.0
C308 C 0.0655 0.41525 0.80603 0.0
C309 C 0.08733 0.45406 0.82256 0.0
C310 C 0.99753 0.37552 0.77477 0.0
C311 C 0.96405 0.37758 0.74379 0.0
C312 C 0.94248 0.33662 0.72406 0.0
C313 C 0.92754 0.33718 0.67898 0.0
C314 C 0.90907 0.29826 0.65905 0.0
C315 C 0.90429 0.25828 0.6842 0.0
H316 H 0.94588 0.29614 0.78495 0.0
C317 C 0.91702 0.25867 0.73009 0.0
C318 C 0.93609 0.29726 0.74971 0.0
H319 H 0.91369 0.22863 0.75068 0.0
H320 H 0.99715 0.52563 0.82186 0.0
H321 H 0.95964 0.45843 0.7932 0.0
H322 H 0.08479 0.38449 0.8016 0.0
H323 H 0.12304 0.45243 0.8303 0.0
H324 H 0.01097 0.34282 0.78461 0.0
H325 H 0.95391 0.41019 0.73035 0.0
H326 H 0.9315 0.36737 0.65871 0.0
H327 H 0.89951 0.2992 0.62373 0.0
C328 C 0.96197 0.6889 0.90867 0.0
C329 C 0.99842 0.67068 0.93303 0.0
C330 C 0.92799 0.71283 0.93108 0.0
C331 C 0.93006 0.71907 0.97822 0.0
C332 C 0.96561 0.69968 0.00255 0.0
C333 C -0.00092 0.67532 0.98038 0.0
C334 C 0.89644 0.74648 0.00299 0.0
C335 C 0.85266 0.74692 0.99146 0.0
C336 C 0.81808 0.76925 0.01953 0.0
C337 C 0.77682 0.74716 0.02528 0.0
C338 C 0.74265 0.76719 0.05028 0.0
C339 C 0.74832 0.81066 0.06917 0.0
H340 H 0.85643 0.82995 0.03512 0.0
C341 C 0.78999 0.8328 0.06387 0.0
C342 C 0.82485 0.81202 0.03952 0.0
H343 H 0.79532 0.86632 0.07771 0.0
H344 H 0.96067 0.68638 0.8722 0.0
H345 H 0.9012 0.72793 0.91129 0.0
H346 H 0.96777 0.70375 0.03888 0.0
H347 H 0.02653 0.66168 0.00038 0.0
H348 H 0.90722 0.76333 0.03389 0.0
H349 H 0.841 0.72617 0.96337 0.0
H350 H 0.77093 0.71416 0.01033 0.0
H351 H 0.71111 0.7489 0.0534 0.0
C352 C 0.55435 0.70706 0.15641 0.0
C353 C 0.58781 0.73415 0.17661 0.0
C354 C 0.53677 0.66978 0.17952 0.0
C355 C 0.55277 0.65891 0.223 0.0
C356 C 0.5884 0.68416 0.24159 0.0
C357 C 0.60542 0.72172 0.21887 0.0
C358 C 0.53295 0.62185 0.25016 0.0
C359 C 0.48893 0.61041 0.24799 0.0
C360 C 0.46823 0.57404 0.27581 0.0
C361 C 0.42099 0.57217 0.27979 0.0
C362 C 0.40007 0.5364 0.30252 0.0
C363 C 0.42608 0.50158 0.3215 0.0
H364 H 0.53053 0.53918 0.29352 0.0
C365 C 0.47337 0.50448 0.31915 0.0
C366 C 0.4942 0.53998 0.29636 0.0
H367 H 0.49449 0.4782 0.33334 0.0
H368 H 0.54003 0.71608 0.12394 0.0
H369 H 0.51029 0.65003 0.16364 0.0
H370 H 0.60178 0.67604 0.27469 0.0
H371 H 0.63131 0.74205 0.2351 0.0
H372 H 0.55483 0.6063 0.27508 0.0
H373 H 0.46663 0.62937 0.22586 0.0
H374 H 0.40009 0.59789 0.26429 0.0
H375 H 0.36356 0.53506 0.30346 0.0
loop_
_geom_bond_atom_site_label_1
_geom_bond_atom_site_label_2
_geom_bond_distance
_geom_bond_site_symmetry_2
_ccdc_geom_bond_type
Fe0 O2 1.918 . S
Fe0 O5 1.997 . S
Fe0 O6 2.002 . S
Fe0 O11 1.976 . S
Fe0 O14 1.996 . S
Fe1 O2 1.918 . S
Fe1 O9 1.997 . S
Fe1 O12 1.996 . S
Fe1 O16 1.976 . S
Fe1 O19 2.002 . S
O2 Fe0 1.918 . S
O2 Fe1 1.918 . S
O2 Fe3 1.918 . S
Fe3 O2 1.918 . S
Fe3 O4 2.002 . S
Fe3 O13 1.976 . S
Fe3 O17 1.996 . S
Fe3 O20 1.997 . S
O4 Fe3 2.002 . S
O4 C21 1.295 . S
O5 Fe0 1.997 . S
O5 C21 1.235 . S
O6 Fe0 2.002 . S
O6 C7 1.295 . S
C7 O6 1.295 . S
C7 O9 1.235 . S
C8 O13 1.287 . S
C8 O14 1.255 . S
O9 Fe1 1.997 . S
O9 C7 1.235 . S
C10 O16 1.287 . S
C10 O17 1.255 . S
O11 Fe0 1.976 . S
O11 C18 1.287 . S
O12 Fe1 1.996 . S
O12 C18 1.255 . S
O13 Fe3 1.976 . S
O13 C8 1.287 . S
O14 Fe0 1.996 . S
O14 C8 1.255 . S
C15 O19 1.295 . S
C15 O20 1.235 . S
O16 Fe1 1.976 . S
O16 C10 1.287 . S
O17 Fe3 1.996 . S
O17 C10 1.255 . S
C18 O11 1.287 . S
C18 O12 1.255 . S
O19 Fe1 2.002 . S
O19 C15 1.295 . S
O20 Fe3 1.997 . S
O20 C15 1.235 . S
C21 O4 1.295 . S
C21 O5 1.235 . S
Fe22 O24 1.918 . S
Fe22 O27 1.997 . S
Fe22 O28 2.002 . S
Fe22 O33 1.976 . S
Fe22 O36 1.996 . S
Fe23 O24 1.918 . S
Fe23 O31 1.997 . S
Fe23 O34 1.996 . S
Fe23 O38 1.976 . S
Fe23 O41 2.002 . S
O24 Fe22 1.918 . S
O24 Fe23 1.918 . S
O24 Fe25 1.918 . S
Fe25 O24 1.918 . S
Fe25 O26 2.002 . S
Fe25 O35 1.976 . S
Fe25 O39 1.996 . S
Fe25 O42 1.997 . S
O26 Fe25 2.002 . S
O26 C43 1.295 . S
O27 Fe22 1.997 . S
O27 C43 1.235 . S
O28 Fe22 2.002 . S
O28 C29 1.295 . S
C29 O28 1.295 . S
C29 O31 1.235 . S
C30 O35 1.287 . S
C30 O36 1.255 . S
O31 Fe23 1.997 . S
O31 C29 1.235 . S
C32 O38 1.287 . S
C32 O39 1.255 . S
O33 Fe22 1.976 . S
O33 C40 1.287 . S
O34 Fe23 1.996 . S
O34 C40 1.255 . S
O35 Fe25 1.976 . S
O35 C30 1.287 . S
O36 Fe22 1.996 . S
O36 C30 1.255 . S
C37 O41 1.295 . S
C37 O42 1.235 . S
O38 Fe23 1.976 . S
O38 C32 1.287 . S
O39 Fe25 1.996 . S
O39 C32 1.255 . S
C40 O33 1.287 . S
C40 O34 1.255 . S
O41 Fe23 2.002 . S
O41 C37 1.295 . S
O42 Fe25 1.997 . S
O42 C37 1.235 . S
C43 O26 1.295 . S
C43 O27 1.235 . S
Fe44 O46 1.918 . S
Fe44 O49 1.997 . S
Fe44 O50 2.002 . S
Fe44 O55 1.976 . S
Fe44 O58 1.996 . S
Fe45 O46 1.918 . S
Fe45 O53 1.997 . S
Fe45 O56 1.996 . S
Fe45 O60 1.976 . S
Fe45 O63 2.002 . S
O46 Fe44 1.918 . S
O46 Fe45 1.918 . S
O46 Fe47 1.918 . S
Fe47 O46 1.918 . S
Fe47 O48 2.002 . S
Fe47 O57 1.976 . S
Fe47 O61 1.996 . S
Fe47 O64 1.997 . S
O48 Fe47 2.002 . S
O48 C65 1.295 . S
O49 Fe44 1.997 . S
O49 C65 1.235 . S
O50 Fe44 2.002 . S
O50 C51 1.295 . S
C51 O50 1.295 . S
C51 O53 1.235 . S
C52 O57 1.287 . S
C52 O58 1.255 . S
O53 Fe45 1.997 . S
O53 C51 1.235 . S
C54 O60 1.287 . S
C54 O61 1.255 . S
O55 Fe44 1.976 . S
O55 C62 1.287 . S
O56 Fe45 1.996 . S
O56 C62 1.255 . S
O57 Fe47 1.976 . S
O57 C52 1.287 . S
O58 Fe44 1.996 . S
O58 C52 1.255 . S
C59 O63 1.295 . S
C59 O64 1.235 . S
O60 Fe45 1.976 . S
O60 C54 1.287 . S
O61 Fe47 1.996 . S
O61 C54 1.255 . S
C62 O55 1.287 . S
C62 O56 1.255 . S
O63 Fe45 2.002 . S
O63 C59 1.295 . S
O64 Fe47 1.997 . S
O64 C59 1.235 . S
C65 O48 1.295 . S
C65 O49 1.235 . S
Fe66 O68 1.918 . S
Fe66 O71 1.997 . S
Fe66 O72 2.002 . S
Fe66 O77 1.976 . S
Fe66 O80 1.996 . S
Fe67 O68 1.918 . S
Fe67 O75 1.997 . S
Fe67 O78 1.996 . S
Fe67 O82 1.976 . S
Fe67 O85 2.002 . S
O68 Fe66 1.918 . S
O68 Fe67 1.918 . S
O68 Fe69 1.918 . S
Fe69 O68 1.918 . S
Fe69 O70 2.002 . S
Fe69 O79 1.976 . S
Fe69 O83 1.996 . S
Fe69 O86 1.997 . S
O70 Fe69 2.002 . S
O70 C87 1.295 . S
O71 Fe66 1.997 . S
O71 C87 1.235 . S
O72 Fe66 2.002 . S
O72 C73 1.295 . S
C73 O72 1.295 . S
C73 O75 1.235 . S
C74 O79 1.287 . S
C74 O80 1.255 . S
O75 Fe67 1.997 . S
O75 C73 1.235 . S
C76 O82 1.287 . S
C76 O83 1.255 . S
O77 Fe66 1.976 . S
O77 C84 1.287 . S
O78 Fe67 1.996 . S
O78 C84 1.255 . S
O79 Fe69 1.976 . S
O79 C74 1.287 . S
O80 Fe66 1.996 . S
O80 C74 1.255 . S
C81 O85 1.295 . S
C81 O86 1.235 . S
O82 Fe67 1.976 . S
O82 C76 1.287 . S
O83 Fe69 1.996 . S
O83 C76 1.255 . S
C84 O77 1.287 . S
C84 O78 1.255 . S
O85 Fe67 2.002 . S
O85 C81 1.295 . S
O86 Fe69 1.997 . S
O86 C81 1.235 . S
C87 O70 1.295 . S
C87 O71 1.235 . S
C88 C89 1.386 . S
C88 C90 1.383 . S
C88 H104 0.951 1_554 S
C89 C88 1.386 . S
C89 C93 1.383 . S
C90 C88 1.383 . S
C90 C91 1.402 . S
C90 H105 0.951 . S
C91 C90 1.402 . S
C91 C92 1.375 . S
C91 C94 1.481 . S
C92 C91 1.375 . S
C92 C93 1.367 . S
C92 H106 0.951 . S
C93 C89 1.383 . S
C93 C92 1.367 . S
C93 H107 0.950 . S
C94 C91 1.481 . S
C94 C95 1.297 . S
C94 H108 0.950 . S
C95 C94 1.297 . S
C95 C96 1.479 . S
C95 H109 0.950 . S
C96 C95 1.479 . S
C96 C97 1.375 . S
C96 C102 1.404 . S
C97 C96 1.375 . S
C97 C98 1.369 . S
C97 H110 0.950 . S
C98 C97 1.369 . S
C98 C99 1.392 . S
C98 H111 0.951 . S
C99 C98 1.392 . S
C99 C101 1.384 . S
H100 C102 0.949 . S
C101 C99 1.384 . S
C101 C102 1.385 . S
C101 H103 0.950 . S
C102 C96 1.404 . S
C102 H100 0.949 . S
C102 C101 1.385 . S
H103 C101 0.950 . S
H104 C88 0.951 1_556 S
H105 C90 0.951 . S
H106 C92 0.951 . S
H107 C93 0.950 . S
H108 C94 0.950 . S
H109 C95 0.950 . S
H110 C97 0.950 . S
H111 C98 0.951 . S
C112 C113 1.386 . S
C112 C114 1.383 . S
C112 H128 0.951 . S
C113 C112 1.386 . S
C113 C117 1.383 . S
C114 C112 1.383 . S
C114 C115 1.402 . S
C114 H129 0.951 1_565 S
C115 C114 1.402 . S
C115 C116 1.375 . S
C115 C118 1.481 . S
C116 C115 1.375 . S
C116 C117 1.367 . S
C116 H130 0.951 . S
C117 C113 1.383 . S
C117 C116 1.367 . S
C117 H131 0.950 . S
C118 C115 1.481 . S
C118 C119 1.297 1_565 S
C118 H132 0.950 . S
C119 C118 1.297 1_545 S
C119 C120 1.479 . S
C119 H133 0.950 . S
C120 C119 1.479 . S
C120 C121 1.375 . S
C120 C126 1.404 1_545 S
C121 C120 1.375 . S
C121 C122 1.369 . S
C121 H134 0.950 . S
C122 C121 1.369 . S
C122 C123 1.392 . S
C122 H135 0.951 . S
C123 C122 1.392 . S
C123 C125 1.384 . S
H124 C126 0.949 . S
C125 C123 1.384 . S
C125 C126 1.385 1_545 S
C125 H127 0.950 . S
C126 C120 1.404 1_565 S
C126 H124 0.949 . S
C126 C125 1.385 1_565 S
H127 C125 0.950 . S
H128 C112 0.951 . S
H129 C114 0.951 1_545 S
H130 C116 0.951 . S
H131 C117 0.950 . S
H132 C118 0.950 . S
H133 C119 0.950 . S
H134 C121 0.950 . S
H135 C122 0.951 . S
C136 C137 1.386 . S
C136 C138 1.383 . S
C136 H152 0.951 . S
C137 C136 1.386 . S
C137 C141 1.383 . S
C138 C136 1.383 . S
C138 C139 1.402 . S
C138 H153 0.951 . S
C139 C138 1.402 . S
C139 C140 1.375 . S
C139 C142 1.481 . S
C140 C139 1.375 . S
C140 C141 1.367 . S
C140 H154 0.951 . S
C141 C137 1.383 . S
C141 C140 1.367 . S
C141 H155 0.950 . S
C142 C139 1.481 . S
C142 C143 1.297 . S
C142 H156 0.950 . S
C143 C142 1.297 . S
C143 C144 1.479 . S
C143 H157 0.950 . S
C144 C143 1.479 . S
C144 C145 1.375 . S
C144 C150 1.404 . S
C145 C144 1.375 . S
C145 C146 1.369 . S
C145 H158 0.950 . S
C146 C145 1.369 . S
C146 C147 1.392 . S
C146 H159 0.951 . S
C147 C146 1.392 . S
C147 C149 1.384 . S
H148 C150 0.949 . S
C149 C147 1.384 . S
C149 C150 1.385 . S
C149 H151 0.950 . S
C150 C144 1.404 . S
C150 H148 0.949 . S
C150 C149 1.385 . S
H151 C149 0.950 . S
H152 C136 0.951 . S
H153 C138 0.951 . S
H154 C140 0.951 . S
H155 C141 0.950 . S
H156 C142 0.950 . S
H157 C143 0.950 . S
H158 C145 0.950 . S
H159 C146 0.951 . S
C160 C161 1.386 . S
C160 C162 1.383 . S
C160 H176 0.951 . S
C161 C160 1.386 . S
C161 C165 1.383 1_556 S
C162 C160 1.383 . S
C162 C163 1.402 . S
C162 H177 0.951 . S
C163 C162 1.402 . S
C163 C164 1.375 1_565 S
C163 C166 1.481 1_565 S
C164 C163 1.375 1_545 S
C164 C165 1.367 1_546 S
C164 H178 0.951 . S
C165 C161 1.383 1_554 S
C165 C164 1.367 1_564 S
C165 H179 0.950 . S
C166 C163 1.481 1_545 S
C166 C167 1.297 . S
C166 H180 0.950 . S
C167 C166 1.297 . S
C167 C168 1.479 . S
C167 H181 0.950 1_545 S
C168 C167 1.479 . S
C168 C169 1.375 . S
C168 C174 1.404 . S
C169 C168 1.375 . S
C169 C170 1.369 . S
C169 H182 0.950 1_545 S
C170 C169 1.369 . S
C170 C171 1.392 . S
C170 H183 0.951 . S
C171 C170 1.392 . S
C171 C173 1.384 . S
H172 C174 0.949 . S
C173 C171 1.384 . S
C173 C174 1.385 . S
C173 H175 0.950 . S
C174 C168 1.404 . S
C174 H172 0.949 . S
C174 C173 1.385 . S
H175 C173 0.950 . S
H176 C160 0.951 . S
H177 C162 0.951 . S
H178 C164 0.951 . S
H179 C165 0.950 . S
H180 C166 0.950 . S
H181 C167 0.950 1_565 S
H182 C169 0.950 1_565 S
H183 C170 0.951 . S
C184 C185 1.386 . S
C184 C186 1.383 . S
C184 H200 0.951 . S
C185 C184 1.386 . S
C185 C189 1.383 . S
C186 C184 1.383 . S
C186 C187 1.402 . S
C186 H201 0.951 . S
C187 C186 1.402 . S
C187 C188 1.375 . S
C187 C190 1.481 . S
C188 C187 1.375 . S
C188 C189 1.366 . S
C188 H202 0.951 . S
C189 C185 1.383 . S
C189 C188 1.366 . S
C189 H203 0.951 1_455 S
C190 C187 1.481 . S
C190 C191 1.297 . S
C190 H204 0.950 . S
C191 C190 1.297 . S
C191 C192 1.479 . S
C191 H205 0.950 . S
C192 C191 1.479 . S
C192 C193 1.375 . S
C192 C198 1.404 . S
C193 C192 1.375 . S
C193 C194 1.369 . S
C193 H206 0.950 . S
C194 C193 1.369 . S
C194 C195 1.392 . S
C194 H207 0.951 . S
C195 C194 1.392 . S
C195 C197 1.384 . S
H196 C198 0.949 . S
C197 C195 1.384 . S
C197 C198 1.385 . S
C197 H199 0.950 . S
C198 C192 1.404 . S
C198 H196 0.949 . S
C198 C197 1.385 . S
H199 C197 0.950 . S
H200 C184 0.951 . S
H201 C186 0.951 . S
H202 C188 0.951 . S
H203 C189 0.951 1_655 S
H204 C190 0.950 . S
H205 C191 0.950 . S
H206 C193 0.950 . S
H207 C194 0.951 . S
C208 C209 1.386 . S
C208 C210 1.383 . S
C208 H224 0.951 . S
C209 C208 1.386 . S
C209 C213 1.383 . S
C210 C208 1.383 . S
C210 C211 1.402 . S
C210 H225 0.951 . S
C211 C210 1.402 . S
C211 C212 1.375 . S
C211 C214 1.481 1_455 S
C212 C211 1.375 . S
C212 C213 1.367 . S
C212 H226 0.951 1_455 S
C213 C209 1.383 . S
C213 C212 1.367 . S
C213 H227 0.950 . S
C214 C211 1.481 1_655 S
C214 C215 1.297 . S
C214 H228 0.950 . S
C215 C214 1.297 . S
C215 C216 1.479 . S
C215 H229 0.950 1_655 S
C216 C215 1.479 . S
C216 C217 1.375 . S
C216 C222 1.404 . S
C217 C216 1.375 . S
C217 C218 1.369 . S
C217 H230 0.950 1_655 S
C218 C217 1.369 . S
C218 C219 1.392 . S
C218 H231 0.951 . S
C219 C218 1.392 . S
C219 C221 1.384 . S
H220 C222 0.949 . S
C221 C219 1.384 . S
C221 C222 1.385 . S
C221 H223 0.950 . S
C222 C216 1.404 . S
C222 H220 0.949 . S
C222 C221 1.385 . S
H223 C221 0.950 . S
H224 C208 0.951 . S
H225 C210 0.951 . S
H226 C212 0.951 1_655 S
H227 C213 0.950 . S
H228 C214 0.950 . S
H229 C215 0.950 1_455 S
H230 C217 0.950 1_455 S
H231 C218 0.951 . S
C232 C233 1.386 . S
C232 C234 1.383 . S
C232 H248 0.951 . S
C233 C232 1.386 . S
C233 C237 1.383 . S
C234 C232 1.383 . S
C234 C235 1.402 . S
C234 H249 0.951 . S
C235 C234 1.402 . S
C235 C236 1.375 . S
C235 C238 1.481 . S
C236 C235 1.375 . S
C236 C237 1.367 . S
C236 H250 0.951 . S
C237 C233 1.383 . S
C237 C236 1.367 . S
C237 H251 0.950 . S
C238 C235 1.481 . S
C238 C239 1.297 . S
C238 H252 0.950 . S
C239 C238 1.297 . S
C239 C240 1.479 1_556 S
C239 H253 0.950 1_556 S
C240 C239 1.479 1_554 S
C240 C241 1.375 . S
C240 C246 1.397 1_554 S
C241 C240 1.375 . S
C241 C242 1.369 . S
C241 H254 0.950 . S
C242 C241 1.369 . S
C242 C243 1.392 . S
C242 H255 0.951 . S
C243 C242 1.392 . S
C243 C245 1.384 . S
H244 C246 0.967 . S
C245 C243 1.384 . S
C245 C246 1.373 1_554 S
C245 H247 0.950 . S
C246 C240 1.397 1_556 S
C246 H244 0.967 . S
C246 C245 1.373 1_556 S
H247 C245 0.950 . S
H248 C232 0.951 . S
H249 C234 0.951 . S
H250 C236 0.951 . S
H251 C237 0.950 . S
H252 C238 0.950 . S
H253 C239 0.950 1_554 S
H254 C241 0.950 . S
H255 C242 0.951 . S
C256 C257 1.386 . S
C256 C258 1.383 . S
C256 H272 0.951 . S
C257 C256 1.386 . S
C257 C261 1.383 . S
C258 C256 1.383 . S
C258 C259 1.402 . S
C258 H273 0.951 . S
C259 C258 1.402 . S
C259 C260 1.375 . S
C259 C262 1.481 . S
C260 C259 1.375 . S
C260 C261 1.367 . S
C260 H274 0.951 . S
C261 C257 1.383 . S
C261 C260 1.367 . S
C261 H275 0.950 . S
C262 C259 1.481 . S
C262 C263 1.297 . S
C262 H276 0.950 . S
C263 C262 1.297 . S
C263 C264 1.479 . S
C263 H277 0.950 . S
C264 C263 1.479 . S
C264 C265 1.375 . S
C264 C270 1.404 . S
C265 C264 1.375 . S
C265 C266 1.369 . S
C265 H278 0.950 . S
C266 C265 1.369 . S
C266 C267 1.392 . S
C266 H279 0.951 1_545 S
C267 C266 1.392 . S
C267 C269 1.384 . S
H268 C270 0.949 . S
C269 C267 1.384 . S
C269 C270 1.385 . S
C269 H271 0.950 . S
C270 C264 1.404 . S
C270 H268 0.949 . S
C270 C269 1.385 . S
H271 C269 0.950 . S
H272 C256 0.951 . S
H273 C258 0.951 . S
H274 C260 0.951 . S
H275 C261 0.950 . S
H276 C262 0.950 . S
H277 C263 0.950 . S
H278 C265 0.950 . S
H279 C266 0.951 1_565 S
C280 C281 1.386 . S
C280 C282 1.383 . S
C280 H296 0.951 . S
C281 C280 1.386 . S
C281 C285 1.383 . S
C282 C280 1.383 . S
C282 C283 1.402 . S
C282 H297 0.951 . S
C283 C282 1.402 . S
C283 C284 1.375 . S
C283 C286 1.481 . S
C284 C283 1.375 . S
C284 C285 1.367 . S
C284 H298 0.951 . S
C285 C281 1.383 . S
C285 C284 1.367 . S
C285 H299 0.950 . S
C286 C283 1.481 . S
C286 C287 1.297 . S
C286 H300 0.950 . S
C287 C286 1.297 . S
C287 C288 1.479 . S
C287 H301 0.950 . S
C288 C287 1.479 . S
C288 C289 1.375 . S
C288 C294 1.404 . S
C289 C288 1.375 . S
C289 C290 1.369 . S
C289 H302 0.950 . S
C290 C289 1.369 . S
C290 C291 1.392 . S
C290 H303 0.951 . S
C291 C290 1.392 . S
C291 C293 1.384 . S
H292 C294 0.949 . S
C293 C291 1.384 . S
C293 C294 1.385 . S
C293 H295 0.950 . S
C294 C288 1.404 . S
C294 H292 0.949 . S
C294 C293 1.385 . S
H295 C293 0.950 . S
H296 C280 0.951 . S
H297 C282 0.951 . S
H298 C284 0.951 . S
H299 C285 0.950 . S
H300 C286 0.950 . S
H301 C287 0.950 . S
H302 C289 0.950 . S
H303 C290 0.951 . S
C304 C305 1.386 . S
C304 C306 1.383 . S
C304 H320 0.951 . S
C305 C304 1.386 . S
C305 C309 1.383 . S
C306 C304 1.383 . S
C306 C307 1.402 . S
C306 H321 0.951 1_455 S
C307 C306 1.402 . S
C307 C308 1.375 . S
C307 C310 1.481 . S
C308 C307 1.375 . S
C308 C309 1.367 . S
C308 H322 0.951 . S
C309 C305 1.383 . S
C309 C308 1.367 . S
C309 H323 0.950 . S
C310 C307 1.481 . S
C310 C311 1.297 1_455 S
C310 H324 0.950 . S
C311 C310 1.297 1_655 S
C311 C312 1.479 . S
C311 H325 0.950 . S
C312 C311 1.479 . S
C312 C313 1.375 . S
C312 C318 1.404 . S
C313 C312 1.375 . S
C313 C314 1.369 . S
C313 H326 0.950 . S
C314 C313 1.369 . S
C314 C315 1.392 . S
C314 H327 0.951 . S
C315 C314 1.392 . S
C315 C317 1.384 . S
H316 C318 0.949 1_455 S
C317 C315 1.384 . S
C317 C318 1.385 . S
C317 H319 0.950 . S
C318 C312 1.404 . S
C318 H316 0.949 1_655 S
C318 C317 1.385 . S
H319 C317 0.950 . S
H320 C304 0.951 . S
H321 C306 0.951 1_655 S
H322 C308 0.951 . S
H323 C309 0.950 . S
H324 C310 0.950 . S
H325 C311 0.950 . S
H326 C313 0.950 . S
H327 C314 0.951 . S
C328 C329 1.386 . S
C328 C330 1.383 . S
C328 H344 0.951 . S
C329 C328 1.386 . S
C329 C333 1.383 1_655 S
C330 C328 1.383 . S
C330 C331 1.402 . S
C330 H345 0.951 . S
C331 C330 1.402 . S
C331 C332 1.376 . S
C331 C334 1.481 1_556 S
C332 C331 1.376 . S
C332 C333 1.371 1_655 S
C332 H346 0.945 1_556 S
C333 C329 1.383 1_455 S
C333 C332 1.371 1_455 S
C333 H347 0.950 . S
C334 C331 1.481 1_554 S
C334 C335 1.297 . S
C334 H348 0.950 . S
C335 C334 1.297 . S
C335 C336 1.479 . S
C335 H349 0.950 . S
C336 C335 1.479 . S
C336 C337 1.375 . S
C336 C342 1.404 . S
C337 C336 1.375 . S
C337 C338 1.369 . S
C337 H350 0.950 . S
C338 C337 1.369 . S
C338 C339 1.392 . S
C338 H351 0.951 . S
C339 C338 1.392 . S
C339 C341 1.384 . S
H340 C342 0.949 . S
C341 C339 1.384 . S
C341 C342 1.385 . S
C341 H343 0.950 . S
C342 C336 1.404 . S
C342 H340 0.949 . S
C342 C341 1.385 . S
H343 C341 0.950 . S
H344 C328 0.951 . S
H345 C330 0.951 . S
H346 C332 0.945 1_554 S
H347 C333 0.950 . S
H348 C334 0.950 . S
H349 C335 0.950 . S
H350 C337 0.950 . S
H351 C338 0.951 . S
C352 C353 1.386 . S
C352 C354 1.383 . S
C352 H368 0.951 . S
C353 C352 1.386 . S
C353 C357 1.383 . S
C354 C352 1.383 . S
C354 C355 1.402 . S
C354 H369 0.951 . S
C355 C354 1.402 . S
C355 C356 1.375 . S
C355 C358 1.481 . S
C356 C355 1.375 . S
C356 C357 1.367 . S
C356 H370 0.951 . S
C357 C353 1.383 . S
C357 C356 1.367 . S
C357 H371 0.950 . S
C358 C355 1.481 . S
C358 C359 1.297 . S
C358 H372 0.950 . S
C359 C358 1.297 . S
C359 C360 1.479 . S
C359 H373 0.950 . S
C360 C359 1.479 . S
C360 C361 1.375 . S
C360 C366 1.404 . S
C361 C360 1.375 . S
C361 C362 1.369 . S
C361 H374 0.950 . S
C362 C361 1.369 . S
C362 C363 1.392 . S
C362 H375 0.951 . S
C363 C362 1.392 . S
C363 C365 1.384 . S
H364 C366 0.949 . S
C365 C363 1.384 . S
C365 C366 1.385 . S
C365 H367 0.950 . S
C366 C360 1.404 . S
C366 H364 0.949 . S
C366 C365 1.385 . S
H367 C365 0.950 . S
H368 C352 0.951 . S
H369 C354 0.951 . S
H370 C356 0.951 . S
H371 C357 0.950 . S
H372 C358 0.950 . S
H373 C359 0.950 . S
H374 C361 0.950 . S
H375 C362 0.951 . S
C89 C59 1.335 1_554 S
C99 C21 1.354 . S
C113 C84 1.344 . S
C123 C29 1.236 . S
C137 C62 1.286 . S
C147 C10 1.232 . S
C161 C81 1.308 1_556 S
C171 C30 1.304 . S
C185 C37 1.323 1_455 S
C195 C15 1.396 . S
C209 C52 1.294 . S
C219 C43 1.336 1_565 S
C233 C54 1.339 . S
C243 C87 1.250 . S
C257 C7 1.372 . S
C267 C73 1.319 1_545 S
C281 C40 1.257 . S
C291 C18 1.283 . S
C305 C51 1.275 . S
C315 C32 1.340 . S
C329 C65 1.297 1_655 S
C339 C76 1.319 . S
C353 C74 1.292 . S
C363 C8 1.216 . S
