# Generated by pormake.
# Topology acs-a, (4)-cn, num edge types: 1
# Building blocks:
#     Node 0, Type 0, BuildingBlock: AZAVOO_clean_sbu_0, # of connection points: 4
#     Node 1, Type 0, BuildingBlock: AZAVOO_clean_sbu_0, # of connection points: 4
#     Node 2, Type 0, BuildingBlock: AZAVOO_clean_sbu_0, # of connection points: 4
#     Node 3, Type 0, BuildingBlock: AZAVOO_clean_sbu_0, # of connection points: 4
#     Node 4, Type 0, BuildingBlock: AZAVOO_clean_sbu_0, # of connection points: 4
#     Node 5, Type 0, BuildingBlock: AZAVOO_clean_sbu_0, # of connection points: 4
#     Node 6, Type 0, BuildingBlock: AZAVOO_clean_sbu_0, # of connection points: 4
#     Node 7, Type 0, BuildingBlock: AZAVOO_clean_sbu_0, # of connection points: 4
#     Node 8, Type 0, BuildingBlock: AZAVOO_clean_sbu_0, # of connection points: 4
#     Node 9, Type 0, BuildingBlock: AZAVOO_clean_sbu_0, # of connection points: 4
#     Node 10, Type 0, BuildingBlock: AZAVOO_clean_sbu_0, # of connection points: 4
#     Node 11, Type 0, BuildingBlock: AZAVOO_clean_sbu_0, # of connection points: 4
#     Edge 12, Type (0, 0), BuildingBlock: AJUNOK_clean_linker_0, # of connection points: 2
#     Edge 13, Type (0, 0), BuildingBlock: AJUNOK_clean_linker_0, # of connection points: 2
#     Edge 14, Type (0, 0), BuildingBlock: AJUNOK_clean_linker_0, # of connection points: 2
#     Edge 15, Type (0, 0), BuildingBlock: AJUNOK_clean_linker_0, # of connection points: 2
#     Edge 16, Type (0, 0), BuildingBlock: AJUNOK_clean_linker_0, # of connection points: 2
#     Edge 17, Type (0, 0), BuildingBlock: AJUNOK_clean_linker_0, # of connection points: 2
#     Edge 18, Type (0, 0), BuildingBlock: AJUNOK_clean_linker_0, # of connection points: 2
#     Edge 19, Type (0, 0), BuildingBlock: AJUNOK_clean_linker_0, # of connection points: 2
#     Edge 20, Type (0, 0), BuildingBlock: AJUNOK_clean_linker_0, # of connection points: 2
#     Edge 21, Type (0, 0), BuildingBlock: AJUNOK_clean_linker_0, # of connection points: 2
#     Edge 22, Type (0, 0), BuildingBlock: AJUNOK_clean_linker_0, # of connection points: 2
#     Edge 23, Type (0, 0), BuildingBlock: AJUNOK_clean_linker_0, # of connection points: 2
#     Edge 24, Type (0, 0), BuildingBlock: AJUNOK_clean_linker_0, # of connection points: 2
#     Edge 25, Type (0, 0), BuildingBlock: AJUNOK_clean_linker_0, # of connection points: 2
#     Edge 26, Type (0, 0), BuildingBlock: AJUNOK_clean_linker_0, # of connection points: 2
#     Edge 27, Type (0, 0), BuildingBlock: AJUNOK_clean_linker_0, # of connection points: 2
#     Edge 28, Type (0, 0), BuildingBlock: AJUNOK_clean_linker_0, # of connection points: 2
#     Edge 29, Type (0, 0), BuildingBlock: AJUNOK_clean_linker_0, # of connection points: 2
#     Edge 30, Type (0, 0), BuildingBlock: AJUNOK_clean_linker_0, # of connection points: 2
#     Edge 31, Type (0, 0), BuildingBlock: AJUNOK_clean_linker_0, # of connection points: 2
#     Edge 32, Type (0, 0), BuildingBlock: AJUNOK_clean_linker_0, # of connection points: 2
#     Edge 33, Type (0, 0), BuildingBlock: AJUNOK_clean_linker_0, # of connection points: 2
#     Edge 34, Type (0, 0), BuildingBlock: AJUNOK_clean_linker_0, # of connection points: 2
#     Edge 35, Type (0, 0), BuildingBlock: AJUNOK_clean_linker_0, # of connection points: 2
# Relax obj value: 0.377
# Max RMSD: 0.195
# Mean RMSD: 0.191
data_MOF--net-acs-a--node1-AZAVOO_clean_sbu_0--edge1-AJUNOK_clean_linker_0
_symmetry_space_group_name_H-M    P1
_symmetry_Int_Tables_number       1
_symmetry_cell_setting            triclinic
loop_
_symmetry_equiv_pos_as_xyz
'x, y, z'
_cell_length_a     31.818143
_cell_length_b     31.712747
_cell_length_c     40.034685
_cell_angle_alpha  89.69751
_cell_angle_beta   89.735438
_cell_angle_gamma 114.58609
loop_
_atom_site_label
_atom_site_type_symbol
_atom_site_fract_x
_atom_site_fract_y
_atom_site_fract_z
_atom_type_partial_charge
Mg0 Mg 0.52548 0.10712 0.09371 0.0
O1 O 0.60347 0.14996 0.08437 0.0
O2 O 0.63047 0.21166 0.11817 0.0
Mg3 Mg 0.57384 0.20289 0.15628 0.0
C4 C 0.63567 0.18771 0.09427 0.0
C5 C 0.49467 0.02343 0.04573 0.0
O6 O 0.46092 0.00531 0.0676 0.0
O7 O 0.54026 0.06272 0.13498 0.0
O8 O 0.56309 0.13007 0.15866 0.0
O9 O 0.51119 0.16069 0.06463 0.0
O10 O 0.5212 0.1652 0.1189 0.0
C11 C 0.557 0.08831 0.16015 0.0
C12 C 0.51555 0.1838 0.09179 0.0
O13 O 0.52838 0.06138 0.05217 0.0
Mg14 Mg 0.39412 0.51432 0.58085 0.0
O15 O 0.42144 0.59294 0.56845 0.0
O16 O 0.38013 0.62032 0.59977 0.0
Mg17 Mg 0.33449 0.56357 0.63631 0.0
C18 C 0.4102 0.62564 0.57702 0.0
C19 C 0.45294 0.47371 0.53998 0.0
O20 O 0.42458 0.43517 0.5547 0.0
O21 O 0.43775 0.52855 0.62863 0.0
O22 O 0.39574 0.55561 0.65978 0.0
O23 O 0.33471 0.50301 0.54567 0.0
O24 O 0.33245 0.51208 0.60003 0.0
C25 C 0.4291 0.54363 0.6562 0.0
C26 C 0.31308 0.50848 0.5716 0.0
O27 O 0.45106 0.51164 0.54797 0.0
Mg28 Mg 0.88593 0.36964 0.08309 0.0
O29 O 0.83202 0.39957 0.07774 0.0
O30 O 0.76845 0.35385 0.1061 0.0
Mg31 Mg 0.78461 0.29967 0.13511 0.0
C32 C 0.79028 0.3883 0.08678 0.0
C33 C 0.93934 0.42369 0.02322 0.0
O34 O 0.918 0.38047 0.01371 0.0
O35 O 0.90639 0.40347 0.1352 0.0
O36 O 0.84312 0.35547 0.16323 0.0
O37 O 0.84634 0.31708 0.04339 0.0
O38 O 0.83569 0.30432 0.09738 0.0
C39 C 0.88306 0.38917 0.16233 0.0
C40 C 0.82334 0.29044 0.06763 0.0
O41 O 0.9366 0.43331 0.05372 0.0
Mg42 Mg 0.4649 0.88343 0.57773 0.0
O43 O 0.3873 0.83995 0.56962 0.0
O44 O 0.36977 0.76848 0.58953 0.0
Mg45 Mg 0.4328 0.76894 0.61694 0.0
C46 C 0.35889 0.79786 0.57424 0.0
C47 C 0.4533 0.97711 0.5424 0.0
O48 O 0.43881 0.00867 0.55128 0.0
O49 O 0.45107 0.89554 0.63286 0.0
O50 O 0.42885 0.82312 0.6521 0.0
O51 O 0.47669 0.84658 0.53167 0.0
O52 O 0.47773 0.82388 0.58336 0.0
C53 C 0.43581 0.86535 0.65632 0.0
C54 C 0.47911 0.8161 0.55225 0.0
O55 O 0.45142 0.94711 0.56428 0.0
Mg56 Mg 0.60336 0.48919 0.07598 0.0
O57 O 0.57592 0.4099 0.08025 0.0
O58 O 0.62185 0.39643 0.11705 0.0
Mg59 Mg 0.67753 0.46482 0.13574 0.0
C60 C 0.58761 0.38225 0.09705 0.0
C61 C 0.53664 0.51696 0.03495 0.0
O62 O 0.5667 0.55785 0.04472 0.0
O63 O 0.56886 0.48901 0.12681 0.0
O64 O 0.61929 0.47718 0.16019 0.0
O65 O 0.65222 0.48539 0.03655 0.0
O66 O 0.66917 0.49728 0.09003 0.0
C67 C 0.58336 0.48472 0.15585 0.0
C68 C 0.67967 0.48776 0.06092 0.0
O69 O 0.53978 0.48096 0.04646 0.0
Mg70 Mg 0.10207 0.62457 0.57199 0.0
O71 O 0.15501 0.59294 0.57043 0.0
O72 O 0.21229 0.63376 0.60502 0.0
Mg73 Mg 0.19673 0.69233 0.62754 0.0
C74 C 0.19363 0.60108 0.5841 0.0
C75 C 0.01712 0.55905 0.53122 0.0
O76 O 0.00447 0.59293 0.53662 0.0
O77 O 0.07523 0.59178 0.62373 0.0
O78 O 0.13356 0.63966 0.65508 0.0
O79 O 0.14403 0.67337 0.53141 0.0
O80 O 0.15233 0.68917 0.58525 0.0
C81 C 0.09362 0.60634 0.65214 0.0
C82 C 0.16697 0.70058 0.55521 0.0
O83 O 0.05391 0.56089 0.54459 0.0
Mg84 Mg 0.87414 0.45798 0.37429 0.0
O85 O 0.82748 0.38127 0.37963 0.0
O86 O 0.76111 0.36625 0.35333 0.0
Mg87 Mg 0.7697 0.4326 0.32452 0.0
C88 C 0.78658 0.35378 0.37182 0.0
C89 C 0.96055 0.43959 0.41575 0.0
O90 O 0.98538 0.41606 0.40984 0.0
O91 O 0.89565 0.44758 0.32102 0.0
O92 O 0.83027 0.43363 0.29321 0.0
O93 O 0.82881 0.46885 0.41564 0.0
O94 O 0.81894 0.47467 0.36203 0.0
C95 C 0.87241 0.43943 0.29401 0.0
C96 C 0.80473 0.47504 0.39176 0.0
O97 O 0.93106 0.43801 0.39389 0.0
Mg98 Mg 0.3868 0.88248 0.86604 0.0
O99 O 0.42325 0.8331 0.87394 0.0
O100 O 0.38338 0.76429 0.8496 0.0
Mg101 Mg 0.33041 0.77272 0.81394 0.0
C102 C 0.41601 0.79099 0.86837 0.0
C103 C 0.43644 0.96603 0.91159 0.0
O104 O 0.40323 0.97681 0.90074 0.0
O105 O 0.42783 0.91615 0.81636 0.0
O106 O 0.38061 0.84548 0.8109 0.0
O107 O 0.3316 0.8383 0.90291 0.0
O108 O 0.32487 0.82526 0.84872 0.0
C109 C 0.40752 0.88253 0.79686 0.0
C110 C 0.30807 0.81393 0.87822 0.0
O111 O 0.44148 0.93194 0.89896 0.0
Mg112 Mg 0.50446 0.38848 0.36082 0.0
O113 O 0.58199 0.41908 0.37229 0.0
O114 O 0.61256 0.38056 0.34107 0.0
Mg115 Mg 0.5559 0.32735 0.30873 0.0
C116 C 0.61616 0.41085 0.36306 0.0
C117 C 0.50394 0.48497 0.4029 0.0
O118 O 0.50615 0.52417 0.39023 0.0
O119 O 0.51562 0.42527 0.30965 0.0
O120 O 0.54285 0.38253 0.27972 0.0
O121 O 0.49629 0.33144 0.39956 0.0
O122 O 0.50424 0.32572 0.34566 0.0
C123 C 0.52895 0.41476 0.28205 0.0
C124 C 0.50151 0.30808 0.37471 0.0
O125 O 0.50434 0.45422 0.38293 0.0
Mg126 Mg 0.11204 0.5223 0.85406 0.0
O127 O 0.1482 0.60077 0.86282 0.0
O128 O 0.20498 0.6278 0.82458 0.0
Mg129 Mg 0.20504 0.57 0.79128 0.0
C130 C 0.1823 0.63389 0.84903 0.0
C131 C 0.06292 0.53237 0.91983 0.0
O132 O 0.10601 0.55811 0.92793 0.0
O133 O 0.074 0.53325 0.80765 0.0
O134 O 0.13437 0.55795 0.7723 0.0
O135 O 0.16605 0.51408 0.88697 0.0
O136 O 0.17192 0.5224 0.83237 0.0
C137 C 0.09162 0.54583 0.77849 0.0
C138 C 0.19064 0.51968 0.86012 0.0
O139 O 0.05432 0.51618 0.89039 0.0
Mg140 Mg 0.62052 0.09751 0.37393 0.0
O141 O 0.58616 0.14863 0.37676 0.0
O142 O 0.63155 0.21291 0.34895 0.0
Mg143 Mg 0.69358 0.20289 0.32722 0.0
C144 C 0.5958 0.18982 0.36668 0.0
C145 C 0.55811 0.01545 0.41906 0.0
O146 O 0.59714 0.01068 0.42062 0.0
O147 O 0.59585 0.07805 0.31922 0.0
O148 O 0.646 0.14383 0.29533 0.0
O149 O 0.66386 0.13599 0.41776 0.0
O150 O 0.68558 0.15053 0.36504 0.0
C151 C 0.61401 0.10295 0.29323 0.0
C152 C 0.69332 0.16185 0.39573 0.0
O153 O 0.55512 0.04451 0.39828 0.0
Mg154 Mg 0.49317 0.59622 0.86733 0.0
O155 O 0.41557 0.57819 0.86676 0.0
O156 O 0.40572 0.63401 0.83801 0.0
Mg157 Mg 0.47684 0.6882 0.82057 0.0
C158 C 0.38976 0.59633 0.85498 0.0
C159 C 0.46728 0.48859 0.90143 0.0
O160 O 0.45519 0.44594 0.89099 0.0
O161 O 0.49069 0.57557 0.81224 0.0
O162 O 0.48393 0.63484 0.78587 0.0
O163 O 0.49713 0.64159 0.91269 0.0
O164 O 0.51025 0.66682 0.86095 0.0
C165 C 0.48819 0.59659 0.78553 0.0
C166 C 0.50512 0.67504 0.89147 0.0
O167 O 0.47356 0.51981 0.87952 0.0
C168 C 0.63199 0.10599 0.23279 0.0
C169 C 0.59978 0.08581 0.25888 0.0
C170 C 0.61861 0.10004 0.19944 0.0
C171 C 0.57246 0.07372 0.19069 0.0
H172 H 0.66746 0.12925 0.23815 0.0
H173 H 0.64363 0.12011 0.18058 0.0
S174 S 0.47604 0.00745 0.24847 0.0
N175 N 0.52083 0.03317 0.27326 0.0
N176 N 0.49546 0.0228 0.20993 0.0
C177 C 0.54075 0.04956 0.21599 0.0
C178 C 0.55447 0.05539 0.25031 0.0
C179 C 0.49487 0.58781 0.69251 0.0
C180 C 0.45612 0.54638 0.68631 0.0
C181 C 0.50868 0.60175 0.72534 0.0
C182 C 0.4844 0.57443 0.7528 0.0
H183 H 0.51132 0.61191 0.67223 0.0
H184 H 0.53593 0.63595 0.72934 0.0
S185 S 0.38382 0.46047 0.74927 0.0
N186 N 0.39642 0.47615 0.70976 0.0
N187 N 0.42279 0.50204 0.7715 0.0
C188 C 0.44869 0.53071 0.74674 0.0
C189 C 0.43442 0.51675 0.71336 0.0
C190 C 0.89834 0.45322 0.20217 0.0
C191 C 0.90061 0.41105 0.19466 0.0
C192 C 0.89435 0.46501 0.23543 0.0
C193 C 0.89326 0.43533 0.26203 0.0
H194 H 0.89445 0.47461 0.18229 0.0
H195 H 0.88809 0.49552 0.24019 0.0
S196 S 0.90363 0.32378 0.25543 0.0
N197 N 0.9059 0.3418 0.21639 0.0
N198 N 0.89925 0.36452 0.27887 0.0
C199 C 0.90021 0.39551 0.25498 0.0
C200 C 0.90374 0.38326 0.22119 0.0
C201 C 0.38178 0.84707 0.74152 0.0
C202 C 0.41275 0.88471 0.75997 0.0
C203 C 0.38778 0.84352 0.70735 0.0
C204 C 0.425 0.87742 0.68991 0.0
H205 H 0.35331 0.81892 0.7537 0.0
H206 H 0.36414 0.81264 0.69474 0.0
S207 S 0.51093 0.98732 0.72491 0.0
N208 N 0.47833 0.96013 0.75732 0.0
N209 N 0.48978 0.95314 0.69243 0.0
C210 C 0.45391 0.91746 0.70716 0.0
C211 C 0.4478 0.92113 0.7424 0.0
C212 C 0.5593 0.48567 0.24625 0.0
C213 C 0.52816 0.43919 0.25089 0.0
C214 C 0.5722 0.50406 0.21389 0.0
C215 C 0.55369 0.47667 0.18551 0.0
H216 H 0.57766 0.50613 0.26739 0.0
H217 H 0.6006 0.53797 0.21109 0.0
S218 S 0.46541 0.35533 0.18498 0.0
N219 N 0.47483 0.36813 0.22498 0.0
N220 N 0.4984 0.40299 0.16433 0.0
C221 C 0.51823 0.43219 0.19009 0.0
C222 C 0.50574 0.41325 0.22286 0.0
C223 C 0.06235 0.53729 0.68975 0.0
C224 C 0.07045 0.58363 0.68343 0.0
C225 C 0.05958 0.52092 0.72275 0.0
C226 C 0.06472 0.55041 0.75012 0.0
H227 H 0.06398 0.51548 0.66949 0.0
H228 H 0.05992 0.48724 0.72676 0.0
S229 S 0.07583 0.67112 0.74617 0.0
N230 N 0.07513 0.65595 0.70669 0.0
N231 N 0.06966 0.62495 0.76854 0.0
C232 C 0.06571 0.5943 0.74385 0.0
C233 C 0.06898 0.61113 0.71043 0.0
C234 C 0.47524 0.96522 0.00035 0.0
C235 C 0.4857 0.0106 0.01057 0.0
C236 C 0.46224 0.95198 0.96735 0.0
C237 C 0.45786 0.98337 0.94402 0.0
H238 H 0.47634 0.93974 0.01805 0.0
H239 H 0.45317 0.91622 0.96059 0.0
S240 S 0.4827 0.1066 0.95871 0.0
N241 N 0.493 0.08759 -0.00511 0.0
N242 N 0.46651 0.06195 0.93315 0.0
C243 C 0.46919 0.02908 0.95386 0.0
C244 C 0.48365 0.04289 -0.01286 0.0
C245 C 0.50704 0.51483 0.49375 0.0
C246 C 0.47699 0.47253 0.50843 0.0
C247 C 0.5185 0.51769 0.45986 0.0
C248 C 0.50093 0.4783 0.43947 0.0
H249 H 0.51894 0.54673 0.50785 0.0
H250 H 0.53907 0.55159 0.44917 0.0
S251 S 0.43047 0.3575 0.46731 0.0
N252 N 0.437 0.38885 0.50131 0.0
N253 N 0.45888 0.39451 0.43733 0.0
C254 C 0.4758 0.43489 0.45458 0.0
C255 C 0.46385 0.43191 0.48925 0.0
C256 C 0.03957 0.52096 -0.01959 0.0
C257 C 0.02705 0.51316 0.94644 0.0
C258 C 0.00958 0.49434 0.00592 0.0
C259 C 0.96631 0.45902 -0.00183 0.0
H260 H 0.07385 0.54564 -0.01269 0.0
H261 H 0.02166 0.4992 0.03147 0.0
S262 S 0.91258 0.43207 0.91445 0.0
N263 N 0.96478 0.4731 0.90741 0.0
N264 N 0.90911 0.42301 0.95519 0.0
C265 C 0.95159 0.45419 0.96482 0.0
C266 C 0.98175 0.48136 0.93897 0.0
C267 C 0.52971 0.96878 0.4718 0.0
C268 C 0.52388 -0.00255 0.44685 0.0
C269 C 0.50485 0.95991 0.50207 0.0
C270 C 0.47331 0.97945 0.50851 0.0
H271 H 0.55548 0.95505 0.46874 0.0
H272 H 0.51247 0.93998 0.52124 0.0
S273 S 0.43989 0.051 0.44958 0.0
N274 N 0.47982 0.04067 0.4293 0.0
N275 N 0.43351 0.0242 0.48591 0.0
C276 C 0.46457 0.0052 0.48279 0.0
C277 C 0.48961 0.01401 0.45199 0.0
C278 C 0.50797 0.54278 0.94789 0.0
C279 C 0.47639 0.49885 0.93736 0.0
C280 C 0.52414 0.54976 -0.01912 0.0
C281 C 0.50947 0.51291 0.00425 0.0
H282 H 0.52281 0.57102 0.93007 0.0
H283 H 0.55097 0.58328 -0.01276 0.0
S284 S 0.41881 0.39429 -0.00903 0.0
N285 N 0.42481 0.42036 0.95434 0.0
N286 N 0.45547 0.43336 0.01605 0.0
C287 C 0.47428 0.47026 -0.00514 0.0
C288 C 0.45776 0.46323 0.96143 0.0
C289 C -0.00316 0.46064 0.47166 0.0
C290 C 0.96868 0.467 0.44688 0.0
C291 C 0.00984 0.48868 0.49991 0.0
C292 C 0.99515 0.52435 0.50478 0.0
H293 H 0.01028 0.43457 0.46886 0.0
H294 H 0.03307 0.48337 0.51743 0.0
S295 S 0.91743 0.55279 0.4492 0.0
N296 N 0.92442 0.51008 0.43013 0.0
N297 N 0.94739 0.56182 0.48401 0.0
C298 C 0.96455 0.52924 0.4814 0.0
C299 C 0.95177 0.50092 0.45223 0.0
C300 C 0.53054 0.25668 0.12231 0.0
C301 C 0.52413 0.2334 0.09162 0.0
C302 C 0.54955 0.30497 0.12365 0.0
C303 C 0.56046 0.33184 0.09434 0.0
H304 H 0.52266 0.23769 0.14571 0.0
H305 H 0.55674 0.32148 0.14788 0.0
S306 S 0.53803 0.28775 0.00766 0.0
N307 N 0.52302 0.24065 0.03112 0.0
N308 N 0.55508 0.33188 0.03376 0.0
C309 C 0.54866 0.3091 0.06346 0.0
C310 C 0.53113 0.25968 0.06205 0.0
C311 C 0.24733 0.51721 0.59886 0.0
C312 C 0.27363 0.52154 0.56959 0.0
C313 C 0.21995 0.54172 0.60272 0.0
C314 C 0.2166 0.57027 0.57706 0.0
H315 H 0.25055 0.49732 0.62002 0.0
H316 H 0.20271 0.53977 0.62647 0.0
S317 S 0.27176 0.58756 0.49336 0.0
N318 N 0.29037 0.5527 0.51302 0.0
N319 N 0.23691 0.59741 0.51987 0.0
C320 C 0.2389 0.5715 0.54643 0.0
C321 C 0.26771 0.54715 0.54268 0.0
C322 C 0.74325 0.26345 0.04683 0.0
C323 C 0.77688 0.25334 0.06336 0.0
C324 C 0.69619 0.23909 0.05491 0.0
C325 C 0.68178 0.2035 0.07907 0.0
H326 H 0.75362 0.29345 0.03048 0.0
H327 H 0.67139 0.25037 0.04411 0.0
S328 S 0.75572 0.15851 0.1245 0.0
N329 N 0.79217 0.20152 0.1013 0.0
N330 N 0.7037 0.15521 0.11592 0.0
C331 C 0.71454 0.18976 0.09282 0.0
C332 C 0.76224 0.21471 0.08489 0.0
C333 C 0.42207 0.73825 0.53668 0.0
C334 C 0.46847 0.76772 0.54297 0.0
C335 C 0.40378 0.69114 0.54596 0.0
C336 C 0.43193 0.67146 0.56017 0.0
H337 H 0.39863 0.7528 0.52826 0.0
H338 H 0.36687 0.67064 0.54382 0.0
S339 S 0.55805 0.73145 0.57395 0.0
N340 N 0.54351 0.77248 0.55961 0.0
N341 N 0.51003 0.68316 0.5745 0.0
C342 C 0.47958 0.69907 0.56219 0.0
C343 C 0.49774 0.7474 0.55398 0.0
C344 C 0.75446 0.48728 0.0775 0.0
C345 C 0.71356 0.46732 0.05883 0.0
C346 C 0.78083 0.46235 0.08485 0.0
C347 C 0.7663 0.41621 0.0746 0.0
H348 H 0.7647 0.52149 0.08808 0.0
H349 H 0.81114 0.47825 0.10036 0.0
S350 S 0.66496 0.34962 0.02222 0.0
N351 N 0.66251 0.40023 0.02744 0.0
N352 N 0.71122 0.35285 0.04252 0.0
C353 C 0.72705 0.39673 0.05442 0.0
C354 C 0.70091 0.4225 0.0461 0.0
C355 C 0.24633 0.72159 0.53382 0.0
C356 C 0.21492 0.7349 0.55052 0.0
C357 C 0.29386 0.74442 0.53989 0.0
C358 C 0.31134 0.78202 0.56198 0.0
H359 H 0.23391 0.69052 0.51877 0.0
H360 H 0.31668 0.73077 0.52881 0.0
S361 S 0.24393 0.83477 0.60742 0.0
N362 N 0.20477 0.79093 0.58706 0.0
N363 N 0.29447 0.83512 0.59726 0.0
C364 C 0.28081 0.79871 0.57594 0.0
C365 C 0.23238 0.77483 0.57042 0.0
C366 C 0.74099 0.49288 0.37123 0.0
C367 C 0.75677 0.47054 0.39551 0.0
C368 C 0.69421 0.47567 0.36267 0.0
C369 C 0.66155 0.43617 0.37861 0.0
H370 H 0.76562 0.52088 0.35622 0.0
H371 H 0.68416 0.49114 0.34173 0.0
S372 S 0.68267 0.37223 0.44952 0.0
N373 N 0.73459 0.41184 0.43936 0.0
N374 N 0.64613 0.38025 0.42379 0.0
C375 C 0.67574 0.41714 0.40577 0.0
C376 C 0.72359 0.43442 0.41433 0.0
C377 C 0.22723 0.76134 0.86568 0.0
C378 C 0.26839 0.76903 0.88273 0.0
C379 C 0.19552 0.71626 0.85766 0.0
C380 C 0.20443 0.67798 0.86656 0.0
H381 H 0.2216 0.79048 0.85589 0.0
H382 H 0.16625 0.71169 0.84204 0.0
S383 S 0.30411 0.67885 0.91368 0.0
N384 N 0.31398 0.7342 0.91045 0.0
N385 N 0.25422 0.64963 0.89535 0.0
C386 C 0.24311 0.68496 0.88605 0.0
C387 C 0.27527 0.73059 0.89423 0.0
C388 C 0.53694 0.21507 0.34619 0.0
C389 C 0.56285 0.21057 0.37298 0.0
C390 C 0.51231 0.24251 0.34884 0.0
C391 C 0.51421 0.26818 0.37793 0.0
H392 H 0.53747 0.19903 0.32244 0.0
H393 H 0.49445 0.24638 0.32685 0.0
S394 S 0.56969 0.26017 0.45745 0.0
N395 N 0.58272 0.22697 0.43146 0.0
N396 N 0.53809 0.28091 0.43599 0.0
C397 C 0.53636 0.26036 0.40605 0.0
C398 C 0.56067 0.23124 0.40356 0.0
C399 C 0.26731 0.55024 0.88957 0.0
C400 C 0.24083 0.53102 0.86091 0.0
C401 C 0.31599 0.56973 0.88816 0.0
C402 C 0.3393 0.57068 0.85804 0.0
H403 H 0.25055 0.55256 0.91266 0.0
H404 H 0.33541 0.58604 0.91023 0.0
S405 S 0.28655 0.51723 0.77808 0.0
N406 N 0.24214 0.50765 0.80319 0.0
N407 N 0.33308 0.54602 0.80046 0.0
C408 C 0.31339 0.54874 0.8301 0.0
C409 C 0.26422 0.52833 0.83159 0.0
C410 C 0.70582 0.24077 0.41237 0.0
C411 C 0.72498 0.2102 0.4021 0.0
C412 C 0.72674 0.28783 0.40325 0.0
C413 C 0.7682 0.3059 0.38475 0.0
H414 H 0.672 0.22741 0.42413 0.0
H415 H 0.70927 0.3097 0.40928 0.0
S416 S 0.8352 0.24139 0.3559 0.0
N417 N 0.7895 0.20192 0.37499 0.0
N418 N 0.8302 0.29096 0.35966 0.0
C419 C 0.79006 0.27671 0.37739 0.0
C420 C 0.76819 0.22867 0.38584 0.0
C421 C 0.45268 0.708 0.91454 0.0
C422 C 0.49413 0.71519 0.89799 0.0
C423 C 0.4297 0.7364 0.90745 0.0
C424 C 0.44699 0.77213 0.88343 0.0
H425 H 0.43542 0.67757 0.93016 0.0
H426 H 0.39698 0.72866 0.91941 0.0
S427 S 0.56057 0.81298 0.84074 0.0
N428 N 0.55675 0.76714 0.86257 0.0
N429 N 0.51255 0.81939 0.8487 0.0
C430 C 0.4914 0.7837 0.8705 0.0
C431 C 0.51525 0.75541 0.87805 0.0
loop_
_geom_bond_atom_site_label_1
_geom_bond_atom_site_label_2
_geom_bond_distance
_geom_bond_site_symmetry_2
_ccdc_geom_bond_type
Mg0 O1 2.028 . S
Mg0 O7 1.986 . S
Mg0 O9 2.114 . S
Mg0 O10 2.251 . S
Mg0 O13 2.010 . S
O1 Mg0 2.028 . S
O1 C4 1.250 . S
O2 Mg3 2.028 . S
O2 C4 1.248 . S
Mg3 O2 2.028 . S
Mg3 O8 2.032 . S
Mg3 O10 2.079 . S
C4 O1 1.250 . S
C4 O2 1.248 . S
C5 O6 1.264 . S
C5 O13 1.249 . S
O6 C5 1.264 . S
O7 Mg0 1.986 . S
O7 C11 1.246 . S
O8 Mg3 2.032 . S
O8 C11 1.259 . S
O9 Mg0 2.114 . S
O9 C12 1.252 . S
O10 Mg0 2.251 . S
O10 Mg3 2.079 . S
O10 C12 1.273 . S
C11 O7 1.246 . S
C11 O8 1.259 . S
C12 O9 1.252 . S
C12 O10 1.273 . S
O13 Mg0 2.010 . S
O13 C5 1.249 . S
Mg14 O15 2.028 . S
Mg14 O21 1.986 . S
Mg14 O23 2.114 . S
Mg14 O24 2.251 . S
Mg14 O27 2.010 . S
O15 Mg14 2.028 . S
O15 C18 1.250 . S
O16 Mg17 2.028 . S
O16 C18 1.248 . S
Mg17 O16 2.028 . S
Mg17 O22 2.032 . S
Mg17 O24 2.079 . S
C18 O15 1.250 . S
C18 O16 1.248 . S
C19 O20 1.264 . S
C19 O27 1.249 . S
O20 C19 1.264 . S
O21 Mg14 1.986 . S
O21 C25 1.246 . S
O22 Mg17 2.032 . S
O22 C25 1.259 . S
O23 Mg14 2.114 . S
O23 C26 1.252 . S
O24 Mg14 2.251 . S
O24 Mg17 2.079 . S
O24 C26 1.273 . S
C25 O21 1.246 . S
C25 O22 1.259 . S
C26 O23 1.252 . S
C26 O24 1.273 . S
O27 Mg14 2.010 . S
O27 C19 1.249 . S
Mg28 O29 2.028 . S
Mg28 O35 1.986 . S
Mg28 O37 2.114 . S
Mg28 O38 2.251 . S
Mg28 O41 2.010 . S
O29 Mg28 2.028 . S
O29 C32 1.250 . S
O30 Mg31 2.028 . S
O30 C32 1.248 . S
Mg31 O30 2.028 . S
Mg31 O36 2.032 . S
Mg31 O38 2.079 . S
C32 O29 1.250 . S
C32 O30 1.248 . S
C33 O34 1.264 . S
C33 O41 1.249 . S
O34 C33 1.264 . S
O35 Mg28 1.986 . S
O35 C39 1.246 . S
O36 Mg31 2.032 . S
O36 C39 1.259 . S
O37 Mg28 2.114 . S
O37 C40 1.252 . S
O38 Mg28 2.251 . S
O38 Mg31 2.079 . S
O38 C40 1.273 . S
C39 O35 1.246 . S
C39 O36 1.259 . S
C40 O37 1.252 . S
C40 O38 1.273 . S
O41 Mg28 2.010 . S
O41 C33 1.249 . S
Mg42 O43 2.028 . S
Mg42 O49 1.986 . S
Mg42 O51 2.114 . S
Mg42 O52 2.251 . S
Mg42 O55 2.010 . S
O43 Mg42 2.028 . S
O43 C46 1.250 . S
O44 Mg45 2.028 . S
O44 C46 1.248 . S
Mg45 O44 2.028 . S
Mg45 O50 2.032 . S
Mg45 O52 2.079 . S
C46 O43 1.250 . S
C46 O44 1.248 . S
C47 O48 1.264 . S
C47 O55 1.249 . S
O48 C47 1.264 . S
O49 Mg42 1.986 . S
O49 C53 1.246 . S
O50 Mg45 2.032 . S
O50 C53 1.259 . S
O51 Mg42 2.114 . S
O51 C54 1.252 . S
O52 Mg42 2.251 . S
O52 Mg45 2.079 . S
O52 C54 1.273 . S
C53 O49 1.246 . S
C53 O50 1.259 . S
C54 O51 1.252 . S
C54 O52 1.273 . S
O55 Mg42 2.010 . S
O55 C47 1.249 . S
Mg56 O57 2.028 . S
Mg56 O63 1.986 . S
Mg56 O65 2.114 . S
Mg56 O66 2.251 . S
Mg56 O69 2.010 . S
O57 Mg56 2.028 . S
O57 C60 1.250 . S
O58 Mg59 2.028 . S
O58 C60 1.248 . S
Mg59 O58 2.028 . S
Mg59 O64 2.032 . S
Mg59 O66 2.079 . S
C60 O57 1.250 . S
C60 O58 1.248 . S
C61 O62 1.264 . S
C61 O69 1.249 . S
O62 C61 1.264 . S
O63 Mg56 1.986 . S
O63 C67 1.246 . S
O64 Mg59 2.032 . S
O64 C67 1.259 . S
O65 Mg56 2.114 . S
O65 C68 1.252 . S
O66 Mg56 2.251 . S
O66 Mg59 2.079 . S
O66 C68 1.273 . S
C67 O63 1.246 . S
C67 O64 1.259 . S
C68 O65 1.252 . S
C68 O66 1.273 . S
O69 Mg56 2.010 . S
O69 C61 1.249 . S
Mg70 O71 2.028 . S
Mg70 O77 1.986 . S
Mg70 O79 2.114 . S
Mg70 O80 2.251 . S
Mg70 O83 2.010 . S
O71 Mg70 2.028 . S
O71 C74 1.250 . S
O72 Mg73 2.028 . S
O72 C74 1.248 . S
Mg73 O72 2.028 . S
Mg73 O78 2.032 . S
Mg73 O80 2.079 . S
C74 O71 1.250 . S
C74 O72 1.248 . S
C75 O76 1.264 . S
C75 O83 1.249 . S
O76 C75 1.264 . S
O77 Mg70 1.986 . S
O77 C81 1.246 . S
O78 Mg73 2.032 . S
O78 C81 1.259 . S
O79 Mg70 2.114 . S
O79 C82 1.252 . S
O80 Mg70 2.251 . S
O80 Mg73 2.079 . S
O80 C82 1.273 . S
C81 O77 1.246 . S
C81 O78 1.259 . S
C82 O79 1.252 . S
C82 O80 1.273 . S
O83 Mg70 2.010 . S
O83 C75 1.249 . S
Mg84 O85 2.028 . S
Mg84 O91 1.986 . S
Mg84 O93 2.114 . S
Mg84 O94 2.251 . S
Mg84 O97 2.010 . S
O85 Mg84 2.028 . S
O85 C88 1.250 . S
O86 Mg87 2.028 . S
O86 C88 1.248 . S
Mg87 O86 2.028 . S
Mg87 O92 2.032 . S
Mg87 O94 2.079 . S
C88 O85 1.250 . S
C88 O86 1.248 . S
C89 O90 1.264 . S
C89 O97 1.249 . S
O90 C89 1.264 . S
O91 Mg84 1.986 . S
O91 C95 1.246 . S
O92 Mg87 2.032 . S
O92 C95 1.259 . S
O93 Mg84 2.114 . S
O93 C96 1.252 . S
O94 Mg84 2.251 . S
O94 Mg87 2.079 . S
O94 C96 1.273 . S
C95 O91 1.246 . S
C95 O92 1.259 . S
C96 O93 1.252 . S
C96 O94 1.273 . S
O97 Mg84 2.010 . S
O97 C89 1.249 . S
Mg98 O99 2.028 . S
Mg98 O105 1.986 . S
Mg98 O107 2.114 . S
Mg98 O108 2.251 . S
Mg98 O111 2.010 . S
O99 Mg98 2.028 . S
O99 C102 1.250 . S
O100 Mg101 2.028 . S
O100 C102 1.248 . S
Mg101 O100 2.028 . S
Mg101 O106 2.032 . S
Mg101 O108 2.079 . S
C102 O99 1.250 . S
C102 O100 1.248 . S
C103 O104 1.264 . S
C103 O111 1.249 . S
O104 C103 1.264 . S
O105 Mg98 1.986 . S
O105 C109 1.246 . S
O106 Mg101 2.032 . S
O106 C109 1.259 . S
O107 Mg98 2.114 . S
O107 C110 1.252 . S
O108 Mg98 2.251 . S
O108 Mg101 2.079 . S
O108 C110 1.273 . S
C109 O105 1.246 . S
C109 O106 1.259 . S
C110 O107 1.252 . S
C110 O108 1.273 . S
O111 Mg98 2.010 . S
O111 C103 1.249 . S
Mg112 O113 2.028 . S
Mg112 O119 1.986 . S
Mg112 O121 2.114 . S
Mg112 O122 2.251 . S
Mg112 O125 2.010 . S
O113 Mg112 2.028 . S
O113 C116 1.250 . S
O114 Mg115 2.028 . S
O114 C116 1.248 . S
Mg115 O114 2.028 . S
Mg115 O120 2.032 . S
Mg115 O122 2.079 . S
C116 O113 1.250 . S
C116 O114 1.248 . S
C117 O118 1.264 . S
C117 O125 1.249 . S
O118 C117 1.264 . S
O119 Mg112 1.986 . S
O119 C123 1.246 . S
O120 Mg115 2.032 . S
O120 C123 1.259 . S
O121 Mg112 2.114 . S
O121 C124 1.252 . S
O122 Mg112 2.251 . S
O122 Mg115 2.079 . S
O122 C124 1.273 . S
C123 O119 1.246 . S
C123 O120 1.259 . S
C124 O121 1.252 . S
C124 O122 1.273 . S
O125 Mg112 2.010 . S
O125 C117 1.249 . S
Mg126 O127 2.028 . S
Mg126 O133 1.986 . S
Mg126 O135 2.114 . S
Mg126 O136 2.251 . S
Mg126 O139 2.010 . S
O127 Mg126 2.028 . S
O127 C130 1.250 . S
O128 Mg129 2.028 . S
O128 C130 1.248 . S
Mg129 O128 2.028 . S
Mg129 O134 2.032 . S
Mg129 O136 2.079 . S
C130 O127 1.250 . S
C130 O128 1.248 . S
C131 O132 1.264 . S
C131 O139 1.249 . S
O132 C131 1.264 . S
O133 Mg126 1.986 . S
O133 C137 1.246 . S
O134 Mg129 2.032 . S
O134 C137 1.259 . S
O135 Mg126 2.114 . S
O135 C138 1.252 . S
O136 Mg126 2.251 . S
O136 Mg129 2.079 . S
O136 C138 1.273 . S
C137 O133 1.246 . S
C137 O134 1.259 . S
C138 O135 1.252 . S
C138 O136 1.273 . S
O139 Mg126 2.010 . S
O139 C131 1.249 . S
Mg140 O141 2.028 . S
Mg140 O147 1.986 . S
Mg140 O149 2.114 . S
Mg140 O150 2.251 . S
Mg140 O153 2.010 . S
O141 Mg140 2.028 . S
O141 C144 1.250 . S
O142 Mg143 2.028 . S
O142 C144 1.248 . S
Mg143 O142 2.028 . S
Mg143 O148 2.032 . S
Mg143 O150 2.079 . S
C144 O141 1.250 . S
C144 O142 1.248 . S
C145 O146 1.264 . S
C145 O153 1.249 . S
O146 C145 1.264 . S
O147 Mg140 1.986 . S
O147 C151 1.246 . S
O148 Mg143 2.032 . S
O148 C151 1.259 . S
O149 Mg140 2.114 . S
O149 C152 1.252 . S
O150 Mg140 2.251 . S
O150 Mg143 2.079 . S
O150 C152 1.273 . S
C151 O147 1.246 . S
C151 O148 1.259 . S
C152 O149 1.252 . S
C152 O150 1.273 . S
O153 Mg140 2.010 . S
O153 C145 1.249 . S
Mg154 O155 2.028 . S
Mg154 O161 1.986 . S
Mg154 O163 2.114 . S
Mg154 O164 2.251 . S
Mg154 O167 2.010 . S
O155 Mg154 2.028 . S
O155 C158 1.250 . S
O156 Mg157 2.028 . S
O156 C158 1.248 . S
Mg157 O156 2.028 . S
Mg157 O162 2.032 . S
Mg157 O164 2.079 . S
C158 O155 1.250 . S
C158 O156 1.248 . S
C159 O160 1.264 . S
C159 O167 1.249 . S
O160 C159 1.264 . S
O161 Mg154 1.986 . S
O161 C165 1.246 . S
O162 Mg157 2.032 . S
O162 C165 1.259 . S
O163 Mg154 2.114 . S
O163 C166 1.252 . S
O164 Mg154 2.251 . S
O164 Mg157 2.079 . S
O164 C166 1.273 . S
C165 O161 1.246 . S
C165 O162 1.259 . S
C166 O163 1.252 . S
C166 O164 1.273 . S
O167 Mg154 2.010 . S
O167 C159 1.249 . S
C168 C169 1.369 . S
C168 C170 1.419 . S
C168 H172 0.930 . S
C169 C168 1.369 . S
C169 C178 1.429 . S
C170 C168 1.419 . S
C170 C171 1.363 . S
C170 H173 0.929 . S
C171 C170 1.363 . S
C171 C177 1.428 . S
H172 C168 0.930 . S
H173 C170 0.929 . S
S174 N175 1.613 1_565 S
S174 N176 1.610 1_565 S
N175 S174 1.613 1_545 S
N175 C178 1.350 . S
N176 S174 1.610 1_545 S
N176 C177 1.351 . S
C177 C171 1.428 . S
C177 N176 1.351 . S
C177 C178 1.434 . S
C178 C169 1.429 . S
C178 N175 1.350 . S
C178 C177 1.434 . S
C179 C180 1.369 . S
C179 C181 1.419 . S
C179 H183 0.930 . S
C180 C179 1.369 . S
C180 C189 1.429 . S
C181 C179 1.419 . S
C181 C182 1.363 . S
C181 H184 0.929 . S
C182 C181 1.363 . S
C182 C188 1.428 . S
H183 C179 0.930 . S
H184 C181 0.929 . S
S185 N186 1.613 . S
S185 N187 1.610 . S
N186 S185 1.613 . S
N186 C189 1.350 . S
N187 S185 1.610 . S
N187 C188 1.351 . S
C188 C182 1.428 . S
C188 N187 1.351 . S
C188 C189 1.434 . S
C189 C180 1.429 . S
C189 N186 1.350 . S
C189 C188 1.434 . S
C190 C191 1.369 . S
C190 C192 1.419 . S
C190 H194 0.930 . S
C191 C190 1.369 . S
C191 C200 1.429 . S
C192 C190 1.419 . S
C192 C193 1.363 . S
C192 H195 0.929 . S
C193 C192 1.363 . S
C193 C199 1.428 . S
H194 C190 0.930 . S
H195 C192 0.929 . S
S196 N197 1.613 . S
S196 N198 1.610 . S
N197 S196 1.613 . S
N197 C200 1.350 . S
N198 S196 1.610 . S
N198 C199 1.351 . S
C199 C193 1.428 . S
C199 N198 1.351 . S
C199 C200 1.434 . S
C200 C191 1.429 . S
C200 N197 1.350 . S
C200 C199 1.434 . S
C201 C202 1.369 . S
C201 C203 1.419 . S
C201 H205 0.930 . S
C202 C201 1.369 . S
C202 C211 1.429 . S
C203 C201 1.419 . S
C203 C204 1.363 . S
C203 H206 0.929 . S
C204 C203 1.363 . S
C204 C210 1.428 . S
H205 C201 0.930 . S
H206 C203 0.929 . S
S207 N208 1.613 1_545 S
S207 N209 1.610 1_545 S
N208 S207 1.613 1_565 S
N208 C211 1.350 . S
N209 S207 1.610 1_565 S
N209 C210 1.351 . S
C210 C204 1.428 . S
C210 N209 1.351 . S
C210 C211 1.434 . S
C211 C202 1.429 . S
C211 N208 1.350 . S
C211 C210 1.434 . S
C212 C213 1.369 . S
C212 C214 1.419 . S
C212 H216 0.930 . S
C213 C212 1.369 . S
C213 C222 1.429 . S
C214 C212 1.419 . S
C214 C215 1.363 . S
C214 H217 0.929 . S
C215 C214 1.363 . S
C215 C221 1.428 . S
H216 C212 0.930 . S
H217 C214 0.929 . S
S218 N219 1.613 . S
S218 N220 1.610 . S
N219 S218 1.613 . S
N219 C222 1.350 . S
N220 S218 1.610 . S
N220 C221 1.351 . S
C221 C215 1.428 . S
C221 N220 1.351 . S
C221 C222 1.434 . S
C222 C213 1.429 . S
C222 N219 1.350 . S
C222 C221 1.434 . S
C223 C224 1.369 . S
C223 C225 1.419 . S
C223 H227 0.930 . S
C224 C223 1.369 . S
C224 C233 1.429 . S
C225 C223 1.419 . S
C225 C226 1.363 . S
C225 H228 0.929 . S
C226 C225 1.363 . S
C226 C232 1.428 . S
H227 C223 0.930 . S
H228 C225 0.929 . S
S229 N230 1.613 . S
S229 N231 1.610 . S
N230 S229 1.613 . S
N230 C233 1.350 . S
N231 S229 1.610 . S
N231 C232 1.351 . S
C232 C226 1.428 . S
C232 N231 1.351 . S
C232 C233 1.434 . S
C233 C224 1.429 . S
C233 N230 1.350 . S
C233 C232 1.434 . S
C234 C235 1.369 1_565 S
C234 C236 1.419 1_554 S
C234 H238 0.930 . S
C235 C234 1.369 1_545 S
C235 C244 1.429 . S
C236 C234 1.419 1_556 S
C236 C237 1.363 . S
C236 H239 0.929 . S
C237 C236 1.363 . S
C237 C243 1.428 1_565 S
H238 C234 0.930 . S
H239 C236 0.929 . S
S240 N241 1.613 1_556 S
S240 N242 1.610 . S
N241 S240 1.613 1_554 S
N241 C244 1.350 . S
N242 S240 1.610 . S
N242 C243 1.351 . S
C243 C237 1.428 1_545 S
C243 N242 1.351 . S
C243 C244 1.434 1_556 S
C244 C235 1.429 . S
C244 N241 1.350 . S
C244 C243 1.434 1_554 S
C245 C246 1.369 . S
C245 C247 1.419 . S
C245 H249 0.930 . S
C246 C245 1.369 . S
C246 C255 1.429 . S
C247 C245 1.419 . S
C247 C248 1.363 . S
C247 H250 0.929 . S
C248 C247 1.363 . S
C248 C254 1.428 . S
H249 C245 0.930 . S
H250 C247 0.929 . S
S251 N252 1.613 . S
S251 N253 1.610 . S
N252 S251 1.613 . S
N252 C255 1.350 . S
N253 S251 1.610 . S
N253 C254 1.351 . S
C254 C248 1.428 . S
C254 N253 1.351 . S
C254 C255 1.434 . S
C255 C246 1.429 . S
C255 N252 1.350 . S
C255 C254 1.434 . S
C256 C257 1.369 1_554 S
C256 C258 1.419 . S
C256 H260 0.930 . S
C257 C256 1.369 1_556 S
C257 C266 1.429 1_455 S
C258 C256 1.419 . S
C258 C259 1.363 1_455 S
C258 H261 0.929 . S
C259 C258 1.363 1_655 S
C259 C265 1.428 1_554 S
H260 C256 0.930 . S
H261 C258 0.929 . S
S262 N263 1.613 . S
S262 N264 1.610 . S
N263 S262 1.613 . S
N263 C266 1.350 . S
N264 S262 1.610 . S
N264 C265 1.351 . S
C265 C259 1.428 1_556 S
C265 N264 1.351 . S
C265 C266 1.434 . S
C266 C257 1.429 1_655 S
C266 N263 1.350 . S
C266 C265 1.434 . S
C267 C268 1.369 1_565 S
C267 C269 1.419 . S
C267 H271 0.930 . S
C268 C267 1.369 1_545 S
C268 C277 1.429 . S
C269 C267 1.419 . S
C269 C270 1.363 . S
C269 H272 0.929 . S
C270 C269 1.363 . S
C270 C276 1.428 1_565 S
H271 C267 0.930 . S
H272 C269 0.929 . S
S273 N274 1.613 . S
S273 N275 1.610 . S
N274 S273 1.613 . S
N274 C277 1.350 . S
N275 S273 1.610 . S
N275 C276 1.351 . S
C276 C270 1.428 1_545 S
C276 N275 1.351 . S
C276 C277 1.434 . S
C277 C268 1.429 . S
C277 N274 1.350 . S
C277 C276 1.434 . S
C278 C279 1.369 . S
C278 C280 1.419 1_556 S
C278 H282 0.930 . S
C279 C278 1.369 . S
C279 C288 1.429 . S
C280 C278 1.419 1_554 S
C280 C281 1.363 . S
C280 H283 0.929 . S
C281 C280 1.363 . S
C281 C287 1.428 . S
H282 C278 0.930 . S
H283 C280 0.929 . S
S284 N285 1.613 . S
S284 N286 1.610 1_556 S
N285 S284 1.613 . S
N285 C288 1.350 . S
N286 S284 1.610 1_554 S
N286 C287 1.351 . S
C287 C281 1.428 . S
C287 N286 1.351 . S
C287 C288 1.434 1_554 S
C288 C279 1.429 . S
C288 N285 1.350 . S
C288 C287 1.434 1_556 S
C289 C290 1.369 1_455 S
C289 C291 1.419 . S
C289 H293 0.930 . S
C290 C289 1.369 1_655 S
C290 C299 1.429 . S
C291 C289 1.419 . S
C291 C292 1.363 . S
C291 H294 0.929 . S
C292 C291 1.363 . S
C292 C298 1.428 1_455 S
H293 C289 0.930 . S
H294 C291 0.929 . S
S295 N296 1.613 . S
S295 N297 1.610 . S
N296 S295 1.613 . S
N296 C299 1.350 . S
N297 S295 1.610 . S
N297 C298 1.351 . S
C298 C292 1.428 1_655 S
C298 N297 1.351 . S
C298 C299 1.434 . S
C299 C290 1.429 . S
C299 N296 1.350 . S
C299 C298 1.434 . S
C300 C301 1.369 . S
C300 C302 1.419 . S
C300 H304 0.930 . S
C301 C300 1.369 . S
C301 C310 1.429 . S
C302 C300 1.419 . S
C302 C303 1.363 . S
C302 H305 0.929 . S
C303 C302 1.363 . S
C303 C309 1.428 . S
H304 C300 0.930 . S
H305 C302 0.929 . S
S306 N307 1.613 . S
S306 N308 1.610 . S
N307 S306 1.613 . S
N307 C310 1.350 . S
N308 S306 1.610 . S
N308 C309 1.351 . S
C309 C303 1.428 . S
C309 N308 1.351 . S
C309 C310 1.434 . S
C310 C301 1.429 . S
C310 N307 1.350 . S
C310 C309 1.434 . S
C311 C312 1.369 . S
C311 C313 1.419 . S
C311 H315 0.930 . S
C312 C311 1.369 . S
C312 C321 1.429 . S
C313 C311 1.419 . S
C313 C314 1.363 . S
C313 H316 0.929 . S
C314 C313 1.363 . S
C314 C320 1.428 . S
H315 C311 0.930 . S
H316 C313 0.929 . S
S317 N318 1.613 . S
S317 N319 1.610 . S
N318 S317 1.613 . S
N318 C321 1.350 . S
N319 S317 1.610 . S
N319 C320 1.351 . S
C320 C314 1.428 . S
C320 N319 1.351 . S
C320 C321 1.434 . S
C321 C312 1.429 . S
C321 N318 1.350 . S
C321 C320 1.434 . S
C322 C323 1.369 . S
C322 C324 1.419 . S
C322 H326 0.930 . S
C323 C322 1.369 . S
C323 C332 1.429 . S
C324 C322 1.419 . S
C324 C325 1.363 . S
C324 H327 0.929 . S
C325 C324 1.363 . S
C325 C331 1.428 . S
H326 C322 0.930 . S
H327 C324 0.929 . S
S328 N329 1.613 . S
S328 N330 1.610 . S
N329 S328 1.613 . S
N329 C332 1.350 . S
N330 S328 1.610 . S
N330 C331 1.351 . S
C331 C325 1.428 . S
C331 N330 1.351 . S
C331 C332 1.434 . S
C332 C323 1.429 . S
C332 N329 1.350 . S
C332 C331 1.434 . S
C333 C334 1.369 . S
C333 C335 1.419 . S
C333 H337 0.930 . S
C334 C333 1.369 . S
C334 C343 1.429 . S
C335 C333 1.419 . S
C335 C336 1.363 . S
C335 H338 0.929 . S
C336 C335 1.363 . S
C336 C342 1.428 . S
H337 C333 0.930 . S
H338 C335 0.929 . S
S339 N340 1.613 . S
S339 N341 1.610 . S
N340 S339 1.613 . S
N340 C343 1.350 . S
N341 S339 1.610 . S
N341 C342 1.351 . S
C342 C336 1.428 . S
C342 N341 1.351 . S
C342 C343 1.434 . S
C343 C334 1.429 . S
C343 N340 1.350 . S
C343 C342 1.434 . S
C344 C345 1.369 . S
C344 C346 1.419 . S
C344 H348 0.930 . S
C345 C344 1.369 . S
C345 C354 1.429 . S
C346 C344 1.419 . S
C346 C347 1.363 . S
C346 H349 0.929 . S
C347 C346 1.363 . S
C347 C353 1.428 . S
H348 C344 0.930 . S
H349 C346 0.929 . S
S350 N351 1.613 . S
S350 N352 1.610 . S
N351 S350 1.613 . S
N351 C354 1.350 . S
N352 S350 1.610 . S
N352 C353 1.351 . S
C353 C347 1.428 . S
C353 N352 1.351 . S
C353 C354 1.434 . S
C354 C345 1.429 . S
C354 N351 1.350 . S
C354 C353 1.434 . S
C355 C356 1.369 . S
C355 C357 1.419 . S
C355 H359 0.930 . S
C356 C355 1.369 . S
C356 C365 1.429 . S
C357 C355 1.419 . S
C357 C358 1.363 . S
C357 H360 0.929 . S
C358 C357 1.363 . S
C358 C364 1.428 . S
H359 C355 0.930 . S
H360 C357 0.929 . S
S361 N362 1.613 . S
S361 N363 1.610 . S
N362 S361 1.613 . S
N362 C365 1.350 . S
N363 S361 1.610 . S
N363 C364 1.351 . S
C364 C358 1.428 . S
C364 N363 1.351 . S
C364 C365 1.434 . S
C365 C356 1.429 . S
C365 N362 1.350 . S
C365 C364 1.434 . S
C366 C367 1.369 . S
C366 C368 1.419 . S
C366 H370 0.930 . S
C367 C366 1.369 . S
C367 C376 1.429 . S
C368 C366 1.419 . S
C368 C369 1.363 . S
C368 H371 0.929 . S
C369 C368 1.363 . S
C369 C375 1.428 . S
H370 C366 0.930 . S
H371 C368 0.929 . S
S372 N373 1.613 . S
S372 N374 1.610 . S
N373 S372 1.613 . S
N373 C376 1.350 . S
N374 S372 1.610 . S
N374 C375 1.351 . S
C375 C369 1.428 . S
C375 N374 1.351 . S
C375 C376 1.434 . S
C376 C367 1.429 . S
C376 N373 1.350 . S
C376 C375 1.434 . S
C377 C378 1.369 . S
C377 C379 1.419 . S
C377 H381 0.930 . S
C378 C377 1.369 . S
C378 C387 1.429 . S
C379 C377 1.419 . S
C379 C380 1.363 . S
C379 H382 0.929 . S
C380 C379 1.363 . S
C380 C386 1.428 . S
H381 C377 0.930 . S
H382 C379 0.929 . S
S383 N384 1.613 . S
S383 N385 1.610 . S
N384 S383 1.613 . S
N384 C387 1.350 . S
N385 S383 1.610 . S
N385 C386 1.351 . S
C386 C380 1.428 . S
C386 N385 1.351 . S
C386 C387 1.434 . S
C387 C378 1.429 . S
C387 N384 1.350 . S
C387 C386 1.434 . S
C388 C389 1.369 . S
C388 C390 1.419 . S
C388 H392 0.930 . S
C389 C388 1.369 . S
C389 C398 1.429 . S
C390 C388 1.419 . S
C390 C391 1.363 . S
C390 H393 0.929 . S
C391 C390 1.363 . S
C391 C397 1.428 . S
H392 C388 0.930 . S
H393 C390 0.929 . S
S394 N395 1.613 . S
S394 N396 1.610 . S
N395 S394 1.613 . S
N395 C398 1.350 . S
N396 S394 1.610 . S
N396 C397 1.351 . S
C397 C391 1.428 . S
C397 N396 1.351 . S
C397 C398 1.434 . S
C398 C389 1.429 . S
C398 N395 1.350 . S
C398 C397 1.434 . S
C399 C400 1.369 . S
C399 C401 1.419 . S
C399 H403 0.930 . S
C400 C399 1.369 . S
C400 C409 1.429 . S
C401 C399 1.419 . S
C401 C402 1.363 . S
C401 H404 0.929 . S
C402 C401 1.363 . S
C402 C408 1.428 . S
H403 C399 0.930 . S
H404 C401 0.929 . S
S405 N406 1.613 . S
S405 N407 1.610 . S
N406 S405 1.613 . S
N406 C409 1.350 . S
N407 S405 1.610 . S
N407 C408 1.351 . S
C408 C402 1.428 . S
C408 N407 1.351 . S
C408 C409 1.434 . S
C409 C400 1.429 . S
C409 N406 1.350 . S
C409 C408 1.434 . S
C410 C411 1.369 . S
C410 C412 1.419 . S
C410 H414 0.930 . S
C411 C410 1.369 . S
C411 C420 1.429 . S
C412 C410 1.419 . S
C412 C413 1.363 . S
C412 H415 0.929 . S
C413 C412 1.363 . S
C413 C419 1.428 . S
H414 C410 0.930 . S
H415 C412 0.929 . S
S416 N417 1.613 . S
S416 N418 1.610 . S
N417 S416 1.613 . S
N417 C420 1.350 . S
N418 S416 1.610 . S
N418 C419 1.351 . S
C419 C413 1.428 . S
C419 N418 1.351 . S
C419 C420 1.434 . S
C420 C411 1.429 . S
C420 N417 1.350 . S
C420 C419 1.434 . S
C421 C422 1.369 . S
C421 C423 1.419 . S
C421 H425 0.930 . S
C422 C421 1.369 . S
C422 C431 1.429 . S
C423 C421 1.419 . S
C423 C424 1.363 . S
C423 H426 0.929 . S
C424 C423 1.363 . S
C424 C430 1.428 . S
H425 C421 0.930 . S
H426 C423 0.929 . S
S427 N428 1.613 . S
S427 N429 1.610 . S
N428 S427 1.613 . S
N428 C431 1.350 . S
N429 S427 1.610 . S
N429 C430 1.351 . S
C430 C424 1.428 . S
C430 N429 1.351 . S
C430 C431 1.434 . S
C431 C422 1.429 . S
C431 N428 1.350 . S
C431 C430 1.434 . S
C169 C151 1.384 . S
C171 C11 1.385 . S
C180 C25 1.313 . S
C182 C165 1.313 . S
C191 C39 1.376 . S
C193 C95 1.379 . S
C202 C109 1.384 . S
C204 C53 1.385 . S
C213 C123 1.310 . S
C215 C67 1.311 . S
C224 C81 1.376 . S
C226 C137 1.379 . S
C235 C5 0.905 . S
C237 C103 1.021 . S
C246 C19 0.936 . S
C248 C117 0.943 . S
C257 C131 0.911 . S
C259 C33 1.032 . S
C268 C145 1.036 . S
C270 C47 0.916 . S
C279 C159 0.960 . S
C281 C61 0.956 . S
C290 C89 0.902 . S
C292 C75 1.020 . S
C301 C12 1.141 . S
C303 C60 1.055 . S
C312 C26 1.132 . S
C314 C74 1.092 . S
C323 C40 1.151 . S
C325 C4 1.073 . S
C334 C54 1.142 . S
C336 C18 1.056 . S
C345 C68 1.127 . S
C347 C32 1.084 . S
C356 C82 1.152 . S
C358 C46 1.076 . S
C367 C96 1.136 . S
C369 C116 1.046 . S
C378 C110 1.143 . S
C380 C130 1.064 . S
C389 C144 1.097 . S
C391 C124 1.137 . S
C400 C138 1.138 . S
C402 C158 1.043 . S
C411 C152 1.152 . S
C413 C88 1.076 . S
C422 C166 1.138 . S
C424 C102 1.095 . S
