# Generated by pormake.
# Topology uof, (4)-cn, num edge types: 1
# Building blocks:
#     Node 0, Type 0, BuildingBlock: KUFVIS_clean_sbu_0, # of connection points: 4
#     Node 1, Type 0, BuildingBlock: KUFVIS_clean_sbu_0, # of connection points: 4
#     Node 2, Type 0, BuildingBlock: KUFVIS_clean_sbu_0, # of connection points: 4
#     Node 3, Type 0, BuildingBlock: KUFVIS_clean_sbu_0, # of connection points: 4
#     Node 4, Type 0, BuildingBlock: KUFVIS_clean_sbu_0, # of connection points: 4
#     Node 5, Type 0, BuildingBlock: KUFVIS_clean_sbu_0, # of connection points: 4
#     Node 6, Type 0, BuildingBlock: KUFVIS_clean_sbu_0, # of connection points: 4
#     Node 7, Type 0, BuildingBlock: KUFVIS_clean_sbu_0, # of connection points: 4
#     Node 8, Type 0, BuildingBlock: KUFVIS_clean_sbu_0, # of connection points: 4
#     Node 9, Type 0, BuildingBlock: KUFVIS_clean_sbu_0, # of connection points: 4
#     Node 10, Type 0, BuildingBlock: KUFVIS_clean_sbu_0, # of connection points: 4
#     Node 11, Type 0, BuildingBlock: KUFVIS_clean_sbu_0, # of connection points: 4
#     Edge 12, Type (0, 0), BuildingBlock: CIFDUS_clean_linker_0, # of connection points: 2
#     Edge 13, Type (0, 0), BuildingBlock: CIFDUS_clean_linker_0, # of connection points: 2
#     Edge 14, Type (0, 0), BuildingBlock: CIFDUS_clean_linker_0, # of connection points: 2
#     Edge 15, Type (0, 0), BuildingBlock: CIFDUS_clean_linker_0, # of connection points: 2
#     Edge 16, Type (0, 0), BuildingBlock: CIFDUS_clean_linker_0, # of connection points: 2
#     Edge 17, Type (0, 0), BuildingBlock: CIFDUS_clean_linker_0, # of connection points: 2
#     Edge 18, Type (0, 0), BuildingBlock: CIFDUS_clean_linker_0, # of connection points: 2
#     Edge 19, Type (0, 0), BuildingBlock: CIFDUS_clean_linker_0, # of connection points: 2
#     Edge 20, Type (0, 0), BuildingBlock: CIFDUS_clean_linker_0, # of connection points: 2
#     Edge 21, Type (0, 0), BuildingBlock: CIFDUS_clean_linker_0, # of connection points: 2
#     Edge 22, Type (0, 0), BuildingBlock: CIFDUS_clean_linker_0, # of connection points: 2
#     Edge 23, Type (0, 0), BuildingBlock: CIFDUS_clean_linker_0, # of connection points: 2
#     Edge 24, Type (0, 0), BuildingBlock: CIFDUS_clean_linker_0, # of connection points: 2
#     Edge 25, Type (0, 0), BuildingBlock: CIFDUS_clean_linker_0, # of connection points: 2
#     Edge 26, Type (0, 0), BuildingBlock: CIFDUS_clean_linker_0, # of connection points: 2
#     Edge 27, Type (0, 0), BuildingBlock: CIFDUS_clean_linker_0, # of connection points: 2
#     Edge 28, Type (0, 0), BuildingBlock: CIFDUS_clean_linker_0, # of connection points: 2
#     Edge 29, Type (0, 0), BuildingBlock: CIFDUS_clean_linker_0, # of connection points: 2
#     Edge 30, Type (0, 0), BuildingBlock: CIFDUS_clean_linker_0, # of connection points: 2
#     Edge 31, Type (0, 0), BuildingBlock: CIFDUS_clean_linker_0, # of connection points: 2
#     Edge 32, Type (0, 0), BuildingBlock: CIFDUS_clean_linker_0, # of connection points: 2
#     Edge 33, Type (0, 0), BuildingBlock: CIFDUS_clean_linker_0, # of connection points: 2
#     Edge 34, Type (0, 0), BuildingBlock: CIFDUS_clean_linker_0, # of connection points: 2
#     Edge 35, Type (0, 0), BuildingBlock: CIFDUS_clean_linker_0, # of connection points: 2
# Relax obj value: 0.176
# Max RMSD: 0.139
# Mean RMSD: 0.139
data_MOF--net-uof--node1-KUFVIS_clean_sbu_0--edge1-CIFDUS_clean_linker_0
_symmetry_space_group_name_H-M    P1
_symmetry_Int_Tables_number       1
_symmetry_cell_setting            triclinic
loop_
_symmetry_equiv_pos_as_xyz
'x, y, z'
_cell_length_a     28.022999
_cell_length_b     28.104439
_cell_length_c     55.942191
_cell_angle_alpha  89.885493
_cell_angle_beta   89.64852
_cell_angle_gamma 120.05668
loop_
_atom_site_label
_atom_site_type_symbol
_atom_site_fract_x
_atom_site_fract_y
_atom_site_fract_z
_atom_type_partial_charge
Mn0 Mn 0.34495 0.33478 0.19936 0.0
Mn1 Mn 0.433 0.29505 0.22049 0.0
C2 C 0.39349 0.30974 0.17391 0.0
C3 C 0.25254 0.30147 0.18461 0.0
C4 C 0.46723 0.41486 0.21331 0.0
O5 O 0.32189 0.31908 0.23486 0.0
O6 O 0.38898 0.3022 0.24594 0.0
C7 C 0.34115 0.18402 0.23345 0.0
N8 N 0.39025 0.21639 0.22207 0.0
C9 C 0.39373 0.13701 0.20845 0.0
C10 C 0.34346 0.10295 0.22014 0.0
C11 C 0.31687 0.12659 0.23255 0.0
C12 C 0.41512 0.19396 0.20938 0.0
H13 H 0.32043 0.20171 0.24309 0.0
C14 C 0.34793 0.30827 0.25074 0.0
O15 O 0.28442 0.35312 0.18978 0.0
O16 O 0.2729 0.27068 0.18956 0.0
N17 N 0.47965 0.28394 0.1987 0.0
C18 C 0.53039 0.32219 0.19036 0.0
C19 C 0.56391 0.3055 0.17857 0.0
C20 C 0.54601 0.24933 0.17634 0.0
C21 C 0.49501 0.21049 0.18618 0.0
C22 C 0.46326 0.22974 0.1976 0.0
H23 H 0.54558 0.36501 0.19308 0.0
O24 O 0.37312 0.33902 0.16604 0.0
O25 O 0.38432 0.29555 0.19615 0.0
O26 O 0.41888 0.40736 0.20807 0.0
O27 O 0.4771 0.37574 0.21771 0.0
C28 C 0.47484 0.15345 0.18539 0.0
C29 C 0.42371 0.11666 0.19614 0.0
H30 H 0.32497 0.05865 0.21974 0.0
H31 H 0.27793 0.10062 0.24155 0.0
H32 H 0.60383 0.3359 0.17156 0.0
H33 H 0.57197 0.23653 0.16729 0.0
H34 H 0.49812 0.13742 0.17639 0.0
H35 H 0.40826 0.07285 0.19515 0.0
Mn36 Mn 0.93468 0.29332 0.51905 0.0
Mn37 Mn 0.06437 0.38692 0.53548 0.0
C38 C 0.99727 0.35213 0.49013 0.0
C39 C 0.88228 0.19932 0.50477 0.0
C40 C 0.96611 0.40357 0.54337 0.0
O41 O 0.94101 0.26785 0.55264 0.0
O42 O 0.03089 0.32642 0.55876 0.0
C43 C 0.11437 0.31663 0.52899 0.0
N44 N 0.11519 0.36482 0.52498 0.0
C45 C 0.20511 0.40543 0.50675 0.0
C46 C 0.20557 0.35637 0.51081 0.0
C47 C 0.15968 0.31154 0.52171 0.0
C48 C 0.15819 0.40746 0.51381 0.0
H49 H 0.07957 0.28261 0.53783 0.0
C50 C 0.98493 0.28515 0.56491 0.0
O51 O 0.85752 0.22436 0.51337 0.0
O52 O 0.93499 0.2279 0.50517 0.0
N53 N 0.10506 0.44984 0.51537 0.0
C54 C 0.0964 0.49274 0.51128 0.0
C55 C 0.1375 0.54028 0.49977 0.0
C56 C 0.18754 0.54375 0.49303 0.0
C57 C 0.19592 0.49947 0.49776 0.0
C58 C 0.15332 0.45302 0.50915 0.0
H59 H 0.05837 0.4906 0.51662 0.0
O60 O 0.94475 0.32595 0.48627 0.0
O61 O 1.01106 0.34289 0.511 0.0
O62 O 0.92806 0.35937 0.5333 0.0
O63 O 1.01538 0.41332 0.54627 0.0
C64 C 0.2444 0.4991 0.4912 0.0
C65 C 0.24891 0.45204 0.49562 0.0
H66 H 0.24063 0.35248 0.5054 0.0
H67 H 0.15955 0.27344 0.52474 0.0
H68 H 0.13077 0.57434 0.49624 0.0
H69 H 0.21912 0.58048 0.48415 0.0
H70 H 0.27801 0.53436 0.48232 0.0
H71 H 0.28586 0.45178 0.49003 0.0
Mn72 Mn 0.65827 0.89792 0.87619 0.0
Mn73 Mn 0.67509 0.02423 0.88901 0.0
C74 C 0.68259 0.96375 0.84647 0.0
C75 C 0.69407 0.83773 0.86722 0.0
C76 C 0.56322 0.92209 0.88622 0.0
O77 O 0.67803 0.90706 0.91206 0.0
O78 O 0.68341 0.98932 0.91789 0.0
C79 C 0.79117 0.0868 0.90535 0.0
N80 N 0.75051 0.08153 0.89046 0.0
C81 C 0.8068 0.17444 0.87615 0.0
C82 C 0.84883 0.1811 0.89166 0.0
C83 C 0.8412 0.13684 0.90609 0.0
C84 C 0.75794 0.12352 0.87609 0.0
H85 H 0.78553 0.05323 0.9166 0.0
C86 C 0.68864 0.94895 0.9251 0.0
O87 O 0.64305 0.81902 0.87363 0.0
O88 O 0.7249 0.89066 0.86804 0.0
N89 N 0.66993 0.06316 0.86204 0.0
C90 C 0.62642 0.04898 0.84727 0.0
C91 C 0.62882 0.08755 0.83059 0.0
C92 C 0.67547 0.14047 0.82959 0.0
C93 C 0.71994 0.15391 0.84484 0.0
C94 C 0.71554 0.1135 0.8608 0.0
H95 H 0.58998 1.00878 0.84843 0.0
O96 O 0.6539 0.91172 0.84152 0.0
O97 O 0.69097 0.9758 0.86902 0.0
O98 O 0.57904 0.88712 0.88211 0.0
O99 O 0.59636 0.97297 0.88872 0.0
C100 C 0.76825 0.20592 0.845 0.0
C101 C 0.81176 0.21608 0.86054 0.0
H102 H 0.88745 0.21968 0.89232 0.0
H103 H 0.87365 0.14141 0.91791 0.0
H104 H 0.59448 0.07682 0.81879 0.0
H105 H 0.67682 0.17036 0.81694 0.0
H106 H 0.77245 0.23848 0.83325 0.0
H107 H 0.84895 0.25599 0.86026 0.0
Mn108 Mn 0.8967 0.75415 0.21744 0.0
Mn109 Mn 0.80688 0.7959 0.23519 0.0
C110 C 0.8672 0.7967 0.19071 0.0
C111 C 0.98899 0.77758 0.20616 0.0
C112 C 0.77024 0.67767 0.22312 0.0
O113 O 0.90464 0.75495 0.25428 0.0
O114 O 0.84185 0.7809 0.26177 0.0
C115 C 0.88848 0.90213 0.25668 0.0
N116 N 0.84398 0.87234 0.24256 0.0
C117 C 0.82752 0.94812 0.23866 0.0
C118 C 0.87222 0.97923 0.25379 0.0
C119 C 0.90335 0.95639 0.26254 0.0
C120 C 0.81532 0.89466 0.23319 0.0
H121 H 0.9124 0.88457 0.26322 0.0
C122 C 0.87696 0.76782 0.26861 0.0
O123 O 0.95061 0.72676 0.20975 0.0
O124 O 0.97558 0.81363 0.21221 0.0
N125 N 0.76854 0.81312 0.21176 0.0
C126 C 0.72883 0.77855 0.19639 0.0
C127 C 0.6947 0.79543 0.18549 0.0
C128 C 0.70169 0.84752 0.19055 0.0
C129 C 0.74313 0.88257 0.20623 0.0
C130 C 0.77521 0.86319 0.21686 0.0
H131 H 0.72201 0.73773 0.19316 0.0
O132 O 0.88329 0.7632 0.18366 0.0
O133 O 0.86622 0.80335 0.21368 0.0
O134 O 0.81827 0.6833 0.21943 0.0
O135 O 0.76305 0.71757 0.22848 0.0
C136 C 0.75307 0.9355 0.21217 0.0
C137 C 0.79545 0.9684 0.22829 0.0
H138 H 0.88364 0.021 0.25842 0.0
H139 H 0.93849 0.98042 0.27388 0.0
H140 H 0.66219 0.76786 0.17366 0.0
H141 H 0.67451 0.85997 0.18258 0.0
H142 H 0.72877 0.95153 0.20425 0.0
H143 H 0.80353 1.00945 0.23231 0.0
Mn144 Mn 0.05197 0.82814 0.56085 0.0
Mn145 Mn 0.92029 0.74061 0.57929 0.0
C146 C 0.9791 0.79891 0.53502 0.0
C147 C 0.12202 0.91933 0.54982 0.0
C148 C 0.99914 0.70122 0.56557 0.0
O149 O 0.06032 0.8355 0.59749 0.0
O150 O 0.97181 0.77277 0.60588 0.0
C151 C 0.90129 0.82455 0.60253 0.0
N152 N 0.88467 0.78131 0.58738 0.0
C153 C 0.7968 0.77538 0.58173 0.0
C154 C 0.81257 0.81924 0.5976 0.0
C155 C 0.86527 0.84429 0.60785 0.0
C156 C 0.83468 0.75793 0.57692 0.0
H157 H 0.94165 0.84371 0.61049 0.0
C158 C 1.02079 0.80732 0.6123 0.0
O159 O 0.13352 0.88023 0.55288 0.0
O160 O 0.07279 0.90704 0.55617 0.0
N161 N 0.86408 0.70591 0.55581 0.0
C162 C 0.85752 0.6678 0.53921 0.0
C163 C 0.80811 0.64056 0.52642 0.0
C164 C 0.76585 0.65254 0.53089 0.0
C165 C 0.77349 0.69185 0.54809 0.0
C166 C 0.82355 0.71755 0.56034 0.0
H167 H 0.88975 0.65828 0.53581 0.0
O168 O 0.02843 0.81553 0.52712 0.0
O169 O 0.97265 0.79902 0.55798 0.0
O170 O 0.04234 0.74904 0.56264 0.0
O171 O 0.95192 0.69434 0.57115 0.0
C172 C 0.73369 0.70705 0.55338 0.0
C173 C 0.7454 0.74892 0.57014 0.0
H174 H 0.78485 0.83447 0.60181 0.0
H175 H 0.87796 0.87851 0.61993 0.0
H176 H 0.80238 0.60976 0.51347 0.0
H177 H 0.7277 0.63138 0.52106 0.0
H178 H 0.69449 0.68773 0.54425 0.0
H179 H 0.71505 0.76121 0.57363 0.0
Mn180 Mn 0.26029 0.03555 0.87169 0.0
Mn181 Mn 0.20076 0.94896 0.91747 0.0
C182 C 0.18794 0.94521 0.86379 0.0
C183 C 0.25224 0.10545 0.85066 0.0
C184 C 0.31441 0.97972 0.89585 0.0
O185 O 0.29669 0.08127 0.9028 0.0
O186 O 0.21923 0.02562 0.91902 0.0
C187 C 0.09919 0.95706 0.91979 0.0
N188 N 0.12389 0.92583 0.91941 0.0
C189 C 0.03593 0.84235 0.92135 0.0
C190 C 1.00968 0.87365 0.92186 0.0
C191 C 0.04146 0.93125 0.921 0.0
C192 C 0.09361 0.87033 0.91987 0.0
H193 H 0.12322 1.00137 0.91907 0.0
C194 C 0.26846 0.06184 0.92197 0.0
O195 O 0.29728 0.10286 0.84966 0.0
O196 O 0.21468 0.07093 0.86502 0.0
N197 N 0.17731 0.87226 0.91555 0.0
C198 C 0.2087 0.84763 0.91521 0.0
C199 C 0.1831 0.79015 0.91674 0.0
C200 C 0.12557 0.75844 0.91909 0.0
C201 C 0.09411 0.78453 0.91982 0.0
C202 C 0.12194 0.84206 0.91846 0.0
H203 H 0.253 0.87141 0.91405 0.0
O204 O 0.21488 0.9783 0.84635 0.0
O205 O 0.20353 0.96563 0.88442 0.0
O206 O 0.31164 1.00333 0.87649 0.0
O207 O 0.28069 0.96814 0.91381 0.0
C208 C 0.03615 0.75558 0.92159 0.0
C209 C 1.00705 0.78446 0.92212 0.0
H210 H 0.96515 0.8539 0.92285 0.0
H211 H 1.02148 0.9557 0.92129 0.0
H212 H 0.20772 0.77035 0.91627 0.0
H213 H 0.10595 0.71407 0.92012 0.0
H214 H 1.01352 0.71108 0.92234 0.0
H215 H 0.96244 0.76174 0.92322 0.0
Mn216 Mn 0.70712 0.81115 0.42746 0.0
Mn217 Mn 0.72801 0.70591 0.4169 0.0
C218 C 0.73302 0.77366 0.45812 0.0
C219 C 0.73669 0.90578 0.4361 0.0
C220 C 0.61697 0.68697 0.42569 0.0
O221 O 0.73027 0.82282 0.39165 0.0
O222 O 0.70613 0.73537 0.38953 0.0
C223 C 0.83955 0.78584 0.39652 0.0
N224 N 0.80389 0.73672 0.40702 0.0
C225 C 0.87661 0.71512 0.411 0.0
C226 C 0.91088 0.76087 0.39673 0.0
C227 C 0.89291 0.79752 0.39018 0.0
C228 C 0.8234 0.70522 0.4162 0.0
H229 H 0.82859 0.81704 0.39406 0.0
C230 C 0.7291 0.78288 0.38015 0.0
O231 O 0.68661 0.8715 0.42939 0.0
O232 O 0.76997 0.88654 0.43548 0.0
N233 N 0.74569 0.6688 0.44081 0.0
C234 C 0.71285 0.63528 0.45873 0.0
C235 C 0.72798 0.6009 0.47067 0.0
C236 C 0.77675 0.60147 0.46413 0.0
C237 C 0.81021 0.63677 0.44585 0.0
C238 C 0.79212 0.66875 0.43406 0.0
H239 H 0.67475 0.63387 0.46346 0.0
O240 O 0.70116 0.79398 0.46228 0.0
O241 O 0.74488 0.77109 0.43589 0.0
O242 O 0.63067 0.73752 0.42135 0.0
O243 O 0.65232 0.67159 0.42788 0.0
C244 C 0.86125 0.64217 0.43915 0.0
C245 C 0.89473 0.68175 0.42188 0.0
H246 H 0.95251 0.77057 0.39232 0.0
H247 H 0.92071 0.83555 0.38101 0.0
H248 H 0.70178 0.57349 0.48467 0.0
H249 H 0.78832 0.5749 0.47336 0.0
H250 H 0.87618 0.61775 0.44788 0.0
H251 H 0.93531 0.68786 0.4179 0.0
Mn252 Mn 0.91107 0.65697 0.79265 0.0
Mn253 Mn 0.04405 0.69369 0.78152 0.0
C254 C 0.96898 0.66496 0.82436 0.0
C255 C 0.85463 0.69742 0.8033 0.0
C256 C 0.94872 0.57741 0.77373 0.0
O257 O 0.92357 0.68712 0.75833 0.0
O258 O 1.01402 0.71629 0.75498 0.0
C259 C 0.09137 0.81436 0.7833 0.0
N260 N 0.09165 0.76825 0.79058 0.0
C261 C 0.17726 0.82168 0.81125 0.0
C262 C 0.17829 0.86986 0.80377 0.0
C263 C 0.13476 0.86615 0.79003 0.0
C264 C 0.13225 0.77128 0.80449 0.0
H265 H 0.05857 0.81156 0.77226 0.0
C266 C 0.96955 0.71197 0.74698 0.0
O267 O 0.83234 0.64723 0.79551 0.0
O268 O 0.90734 0.72277 0.80384 0.0
N269 N 0.08113 0.67568 0.80534 0.0
C270 C 0.07229 0.62529 0.81214 0.0
C271 C 0.11092 0.62164 0.82676 0.0
C272 C 0.15873 0.66974 0.83386 0.0
C273 C 0.16732 0.72113 0.8264 0.0
C274 C 0.12713 0.7222 0.81202 0.0
H275 H 0.03596 0.58822 0.80655 0.0
O276 O 0.91592 0.63723 0.82671 0.0
O277 O 0.98597 0.68617 0.80325 0.0
O278 O 0.90829 0.58398 0.78091 0.0
O279 O 0.99852 0.6168 0.77239 0.0
C280 C 0.21374 0.77138 0.83295 0.0
C281 C 0.21871 0.82162 0.82537 0.0
H282 H 0.21204 0.90986 0.80867 0.0
H283 H 0.13507 0.90314 0.78435 0.0
H284 H 0.10405 0.58183 0.83241 0.0
H285 H 0.18846 0.66674 0.8451 0.0
H286 H 0.24547 0.77188 0.84409 0.0
H287 H 0.2541 0.85998 0.83085 0.0
Mn288 Mn 0.34648 0.97332 0.09857 0.0
Mn289 Mn 0.43501 0.08996 0.06815 0.0
C290 C 0.39604 0.0574 0.1186 0.0
C291 C 0.25582 0.92018 0.11681 0.0
C292 C 0.46466 1.0042 0.08276 0.0
O293 O 0.31998 0.95211 0.06363 0.0
O294 O 0.38245 0.03296 0.04746 0.0
C295 C 0.35163 0.11944 0.0535 0.0
N296 N 0.40132 0.13373 0.06336 0.0
C297 C 0.42515 0.22844 0.06609 0.0
C298 C 0.37427 0.21488 0.05593 0.0
C299 C 0.33716 0.16004 0.04979 0.0
C300 C 0.43659 0.18597 0.06994 0.0
H301 H 0.32347 0.07749 0.04841 0.0
C302 C 0.34204 0.98443 0.04562 0.0
O303 O 0.28758 0.89924 0.11367 0.0
O304 O 0.27476 0.9684 0.10762 0.0
N305 N 0.49067 0.15156 0.085 0.0
C306 C 0.53743 0.1575 0.09518 0.0
C307 C 0.57936 0.21001 0.10195 0.0
C308 C 0.57351 0.25606 0.09758 0.0
C309 C 0.5254 0.2491 0.08678 0.0
C310 C 0.48478 0.19574 0.08066 0.0
H311 H 0.54248 0.12245 0.09833 0.0
O312 O 0.37781 1.0108 0.12955 0.0
O313 O 0.38719 0.05363 0.09583 0.0
O314 O 0.41836 0.96876 0.09251 0.0
O315 O 0.47248 0.04844 0.07291 0.0
C316 C 0.51558 0.29288 0.08238 0.0
C317 C 0.46514 0.28244 0.07237 0.0
H318 H 0.3633 0.24622 0.05273 0.0
H319 H 0.29783 0.14922 0.04194 0.0
H320 H 0.61631 0.21503 0.11032 0.0
H321 H 0.60594 0.29648 0.10283 0.0
H322 H 0.54604 0.33455 0.08711 0.0
H323 H 0.45766 0.31626 0.06948 0.0
Mn324 Mn 0.27677 0.26335 0.4363 0.0
Mn325 Mn 0.24902 0.33157 0.39305 0.0
C326 C 0.22142 0.30186 0.44384 0.0
C327 C 0.2459 0.17845 0.45774 0.0
C328 C 0.35705 0.3837 0.42035 0.0
O329 O 0.30019 0.23963 0.40542 0.0
O330 O 0.27292 0.28312 0.37974 0.0
C331 C 0.15029 0.23089 0.37599 0.0
N332 N 0.17461 0.28412 0.38328 0.0
C333 C 0.08952 0.28481 0.37938 0.0
C334 C 0.06397 0.23052 0.37114 0.0
C335 C 0.09438 0.20326 0.36966 0.0
C336 C 0.14511 0.30984 0.38578 0.0
H337 H 0.17317 0.20948 0.37541 0.0
C338 C 0.29149 0.25103 0.38423 0.0
O339 O 0.29688 0.2181 0.45882 0.0
O340 O 0.21566 0.1866 0.44286 0.0
N341 N 0.22455 0.38128 0.40252 0.0
C342 C 0.25606 0.43448 0.4097 0.0
C343 C 0.23279 0.46853 0.41099 0.0
C344 C 0.17765 0.44801 0.40439 0.0
C345 C 0.14628 0.39358 0.39659 0.0
C346 C 0.17207 0.36195 0.39522 0.0
H347 H 0.29868 0.45095 0.4144 0.0
O348 O 0.24335 0.28949 0.46132 0.0
O349 O 0.23187 0.29093 0.42285 0.0
O350 O 0.34589 0.34199 0.43384 0.0
O351 O 0.32495 0.38261 0.40385 0.0
C352 C 0.09058 0.36964 0.3899 0.0
C353 C 0.06198 0.31499 0.38162 0.0
H354 H 1.02092 0.2092 0.36613 0.0
H355 H 0.07475 0.16103 0.36373 0.0
H356 H 0.25735 0.51056 0.41698 0.0
H357 H 0.15973 0.4743 0.40556 0.0
H358 H 0.06932 0.39283 0.39113 0.0
H359 H 1.01901 0.29679 0.37676 0.0
Mn360 Mn 0.02679 0.23191 0.75321 0.0
Mn361 Mn 0.89988 0.19641 0.73137 0.0
C362 C 0.94848 0.18398 0.77662 0.0
C363 C 0.09451 0.20682 0.76296 0.0
C364 C 0.97876 0.31045 0.74987 0.0
O365 O 0.04232 0.24105 0.71697 0.0
O366 O 0.95593 0.2174 0.70622 0.0
C367 C 0.88029 0.09574 0.70593 0.0
N368 N 0.86253 0.12181 0.72094 0.0
C369 C 0.77076 0.04355 0.72202 0.0
C370 C 0.78771 0.01621 0.70615 0.0
C371 C 0.8429 0.04219 0.6983 0.0
C372 C 0.81005 0.09656 0.7292 0.0
H373 H 0.9226 0.11575 0.69981 0.0
C374 C 1.00584 0.23189 0.70115 0.0
O375 O 0.10658 0.25795 0.76277 0.0
O376 O 0.04578 0.17211 0.75542 0.0
N377 N 0.83939 0.17384 0.75308 0.0
C378 C 0.83143 0.20373 0.77013 0.0
C379 C 0.77921 0.18253 0.78082 0.0
C380 C 0.73567 0.13106 0.77383 0.0
C381 C 0.74479 0.10112 0.7562 0.0
C382 C 0.79763 0.12439 0.7461 0.0
H383 H 0.86454 0.24364 0.7753 0.0
O384 O 0.99666 0.21307 0.78603 0.0
O385 O 0.94629 0.18311 0.75344 0.0
O386 O 1.01973 0.30294 0.75406 0.0
O387 O 0.93296 0.27302 0.74166 0.0
C388 C 0.70371 0.04887 0.74839 0.0
C389 C 0.71674 0.01999 0.73137 0.0
H390 H 0.75894 0.975 0.70016 0.0
H391 H 0.85646 0.02112 0.68628 0.0
H392 H 0.77226 0.20639 0.79402 0.0
H393 H 0.69538 0.11491 0.78203 0.0
H394 H 0.66236 0.02993 0.7558 0.0
H395 H 0.68524 0.97925 0.72598 0.0
Mn396 Mn 0.89761 0.10553 0.08811 0.0
Mn397 Mn 0.81038 0.97133 0.07447 0.0
C398 C 0.87447 0.03674 0.11598 0.0
C399 C 0.98898 0.17797 0.09673 0.0
C400 C 0.7701 0.04928 0.08705 0.0
O401 O 0.89927 0.10943 0.05118 0.0
O402 O 0.83609 0.01982 0.04667 0.0
C403 C 0.89199 0.95306 0.04818 0.0
N404 N 0.85151 0.93701 0.06504 0.0
C405 C 0.84624 0.84945 0.06995 0.0
C406 C 0.88744 0.86472 0.05242 0.0
C407 C 0.91087 0.91702 0.0417 0.0
C408 C 0.83004 0.88759 0.07603 0.0
H409 H 0.90945 0.9929 0.0397 0.0
C410 C 0.86807 0.06764 0.03821 0.0
O411 O 0.94872 0.18793 0.09387 0.0
O412 O 0.9777 0.12896 0.0911 0.0
N413 N 0.78081 0.91723 0.09928 0.0
C414 C 0.74269 0.90971 0.11628 0.0
C415 C 0.71554 0.85973 0.12887 0.0
C416 C 0.72805 0.81813 0.12402 0.0
C417 C 0.76706 0.82658 0.10629 0.0
C418 C 0.79219 0.87691 0.09406 0.0
H419 H 0.7319 0.94097 0.11966 0.0
O420 O 0.8896 0.08633 0.12248 0.0
O421 O 0.87147 0.02731 0.09319 0.0
O422 O 0.81763 0.09343 0.08759 0.0
O423 O 0.76361 1.00156 0.08379 0.0
C424 C 0.78127 0.78669 0.09995 0.0
C425 C 0.82102 0.7982 0.08186 0.0
H426 H 0.90172 0.83683 0.04721 0.0
H427 H 0.94292 0.92925 0.02826 0.0
H428 H 0.68363 0.85265 0.14164 0.0
H429 H 0.70669 0.77944 0.13363 0.0
H430 H 0.76237 0.7473 0.10907 0.0
H431 H 0.83235 0.76764 0.07744 0.0
H432 H 0.03297 0.14247 0.12989 0.0
H433 H 0.0566 0.29258 0.09831 0.0
H434 H 0.13854 0.34593 0.12351 0.0
H435 H 0.20686 0.34873 0.15403 0.0
H436 H 0.17379 0.19524 0.18628 0.0
H437 H 0.09269 0.14539 0.16185 0.0
C438 C 0.0561 0.18695 0.12831 0.0
C439 C 0.0391 0.21314 0.11165 0.0
C440 C 0.10178 0.21712 0.14336 0.0
C441 C 0.0689 0.27101 0.11063 0.0
C442 C 0.11581 0.30154 0.12517 0.0
C443 C 0.18124 0.30458 0.15606 0.0
C444 C 0.1975 0.27617 0.17216 0.0
C445 C 0.13311 0.27506 0.14163 0.0
C446 C 0.16335 0.21869 0.17415 0.0
C447 C 0.11666 0.18974 0.16002 0.0
H448 H 0.78028 0.13486 0.48132 0.0
H449 H 0.9257 0.13337 0.50531 0.0
H450 H 0.89534 0.04606 0.48581 0.0
H451 H 0.83014 0.97044 0.46102 0.0
H452 H 0.68222 0.96584 0.43695 0.0
H453 H 0.71079 0.05403 0.45693 0.0
C454 C 0.80475 0.11494 0.48261 0.0
C455 C 0.85559 0.14155 0.49502 0.0
C456 C 0.78703 0.06352 0.4709 0.0
C457 C 0.8867 0.11475 0.496 0.0
C458 C 0.86944 0.06449 0.48471 0.0
C459 C 0.80405 0.98866 0.45989 0.0
C460 C 0.75425 0.96126 0.44704 0.0
C461 C 0.82023 0.03878 0.47183 0.0
C462 C 0.721 0.98579 0.4464 0.0
C463 C 0.73732 0.03635 0.45799 0.0
H464 H 0.79013 0.86991 0.84257 0.0
H465 H 0.64475 0.72403 0.86761 0.0
H466 H 0.67791 0.66658 0.84906 0.0
H467 H 0.7507 0.65764 0.82583 0.0
H468 H 0.89396 0.80623 0.80083 0.0
H469 H 0.85902 0.86147 0.81869 0.0
C470 C 0.76563 0.82553 0.84418 0.0
C471 C 0.71508 0.80181 0.8569 0.0
C472 C 0.78455 0.79263 0.83306 0.0
C473 C 0.68397 0.74393 0.85822 0.0
C474 C 0.70293 0.71087 0.84745 0.0
C475 C 0.77368 0.70198 0.82391 0.0
C476 C 0.82521 0.72723 0.81168 0.0
C477 C 0.75333 0.73462 0.8347 0.0
C478 C 0.8544 0.7851 0.80995 0.0
C479 C 0.83452 0.81712 0.82033 0.0
H480 H 0.05003 0.87343 0.18203 0.0
H481 H 0.04365 0.71961 0.19594 0.0
H482 H 0.12475 0.74822 0.16974 0.0
H483 H 0.19867 0.81868 0.14206 0.0
H484 H 0.19574 0.96824 0.12734 0.0
H485 H 0.11804 0.93937 0.15414 0.0
C486 C 0.06649 0.84607 0.17966 0.0
C487 C 0.04079 0.79463 0.19154 0.0
C488 C 0.11187 0.86205 0.16395 0.0
C489 C 0.06255 0.75968 0.18745 0.0
C490 C 0.109 0.77608 0.17228 0.0
C491 C 0.18074 0.84469 0.14455 0.0
C492 C 0.20417 0.89606 0.1323 0.0
C493 C 0.13417 0.82732 0.16023 0.0
C494 C 0.17959 0.92869 0.13612 0.0
C495 C 0.13478 0.9123 0.15169 0.0
H496 H 0.29095 0.12454 0.48425 0.0
H497 H 0.13906 0.12398 0.47068 0.0
H498 H 0.09035 0.0489 0.49874 0.0
H499 H 0.08815 0.98153 0.52664 0.0
H500 H 0.23459 0.9718 0.53891 0.0
H501 H 0.28743 0.05187 0.51236 0.0
C502 C 0.24723 0.10786 0.48743 0.0
C503 C 0.2191 0.13054 0.47499 0.0
C504 C 0.21813 0.0626 0.5036 0.0
C505 C 0.16221 0.10771 0.47951 0.0
C506 C 0.13401 0.0646 0.49578 0.0
C507 C 0.13185 0.99708 0.52386 0.0
C508 C 0.15724 0.97074 0.5353 0.0
C509 C 0.16127 0.04159 0.5079 0.0
C510 C 0.21376 0.99127 0.53072 0.0
C511 C 0.24399 0.03709 0.51537 0.0
H512 H 0.18546 0.06558 0.8126 0.0
H513 H 0.28533 0.21609 0.8506 0.0
H514 H 0.24952 0.26325 0.82552 0.0
H515 H 0.18257 0.25895 0.79466 0.0
H516 H 0.08411 0.10643 0.75723 0.0
H517 H 0.12677 0.06362 0.7797 0.0
C518 C 0.20029 0.10907 0.81505 0.0
C519 C 0.23853 0.13738 0.8333 0.0
C520 C 0.17928 0.13565 0.80061 0.0
C521 C 0.25662 0.19349 0.83648 0.0
C522 C 0.23574 0.22033 0.82219 0.0
C523 C 0.17141 0.21677 0.79103 0.0
C524 C 0.12969 0.18621 0.77409 0.0
C525 C 0.19614 0.19161 0.8044 0.0
C526 C 0.11568 0.13127 0.77003 0.0
C527 C 0.14002 0.10645 0.783 0.0
H528 H 0.66698 0.64888 0.23902 0.0
H529 H 0.75563 0.58575 0.1991 0.0
H530 H 0.6682 0.50232 0.19025 0.0
H531 H 0.56735 0.44908 0.1932 0.0
H532 H 0.47876 0.50774 0.23544 0.0
H533 H 0.56563 0.59382 0.2427 0.0
C534 C 0.66754 0.61686 0.22846 0.0
C535 C 0.71842 0.62382 0.21981 0.0
C536 C 0.61709 0.56918 0.22338 0.0
C537 C 0.71768 0.58153 0.20623 0.0
C538 C 0.66754 0.53407 0.20097 0.0
C539 C 0.56693 0.47989 0.20444 0.0
C540 C 0.51653 0.47111 0.21421 0.0
C541 C 0.61716 0.52767 0.20938 0.0
C542 C 0.51667 0.51337 0.22756 0.0
C543 C 0.56651 0.56219 0.23198 0.0
H544 H 0.91474 0.59874 0.55427 0.0
H545 H 0.08864 0.68685 0.57028 0.0
H546 H 0.0905 0.60084 0.56763 0.0
H547 H 0.04381 0.50269 0.56072 0.0
H548 H 0.87285 0.41473 0.53945 0.0
H549 H 0.86837 0.49925 0.54509 0.0
C550 C 0.95331 0.59947 0.55703 0.0
C551 C 1.00175 0.64977 0.56248 0.0
C552 C 0.95425 0.54994 0.55492 0.0
C553 C 0.05104 0.64931 0.56594 0.0
C554 C 0.05191 0.59998 0.56458 0.0
C555 C 1.00503 0.50109 0.55723 0.0
C556 C 0.95847 0.45139 0.54955 0.0
C557 C 1.0038 0.55023 0.55912 0.0
C558 C 0.90918 0.45162 0.54545 0.0
C559 C 0.90687 0.50022 0.54847 0.0
H560 H 0.35908 0.94477 0.8607 0.0
H561 H 0.36553 0.9755 0.93638 0.0
H562 H 0.43712 0.95113 0.94095 0.0
H563 H 0.50387 0.92858 0.92294 0.0
H564 H 0.49504 0.89233 0.8479 0.0
H565 H 0.41744 0.90889 0.84369 0.0
C566 C 0.37643 0.94642 0.87816 0.0
C567 C 0.35833 0.96438 0.89805 0.0
C568 C 0.41634 0.92985 0.88086 0.0
C569 C 0.3798 0.96393 0.92065 0.0
C570 C 0.42042 0.94926 0.92333 0.0
C571 C 0.48321 0.92172 0.9059 0.0
C572 C 0.50444 0.90767 0.8859 0.0
C573 C 0.43951 0.93275 0.90355 0.0
C574 C 0.4784 0.90102 0.86375 0.0
C575 C 0.43479 0.91187 0.86125 0.0
H576 H 0.57506 0.59666 0.45356 0.0
H577 H 0.52993 0.67111 0.39724 0.0
H578 H 0.44526 0.58277 0.39048 0.0
H579 H 0.38992 0.48261 0.39784 0.0
H580 H 0.43774 0.40881 0.45375 0.0
H581 H 0.51712 0.49864 0.46267 0.0
C582 C 0.54615 0.59397 0.44009 0.0
C583 C 0.55891 0.64069 0.42594 0.0
C584 C 0.49913 0.54274 0.4357 0.0
C585 C 0.52088 0.63634 0.40864 0.0
C586 C 0.47299 0.58548 0.4045 0.0
C587 C 0.41738 0.48585 0.41209 0.0
C588 C 0.40749 0.43817 0.425 0.0
C589 C 0.46268 0.53803 0.41742 0.0
C590 C 0.44412 0.44408 0.44333 0.0
C591 C 0.48939 0.49567 0.44859 0.0
H592 H 0.03077 0.55412 0.76589 0.0
H593 H 0.85302 0.47471 0.76984 0.0
H594 H 0.84734 0.3856 0.76259 0.0
H595 H 0.89349 0.33109 0.7555 0.0
H596 H 0.07142 0.41204 0.75512 0.0
H597 H 0.07612 0.50052 0.76114 0.0
C598 C 0.99025 0.51771 0.7653 0.0
C599 C 0.9421 0.52192 0.76842 0.0
C600 C 0.98754 0.46692 0.76196 0.0
C601 C 0.89069 0.47335 0.76746 0.0
C602 C 0.88757 0.42234 0.76339 0.0
C603 C 0.9335 0.36795 0.75683 0.0
C604 C 0.9823 0.36453 0.75475 0.0
C605 C 0.93582 0.41871 0.76071 0.0
C606 C 0.03338 0.41304 0.75668 0.0
C607 C 0.03599 0.4637 0.76003 0.0
H608 H 0.5674 0.0796 0.06757 0.0
H609 H 0.47898 0.9211 0.10272 0.0
H610 H 0.56688 0.92271 0.10831 0.0
H611 H 0.66877 0.97029 0.10321 0.0
H612 H 0.75465 0.1327 0.07167 0.0
H613 H 0.66674 0.12959 0.06593 0.0
C614 C 0.56645 0.04513 0.07674 0.0
C615 C 0.51574 1.00007 0.08476 0.0
C616 C 0.61687 0.04784 0.08103 0.0
C617 C 0.5168 0.95607 0.09621 0.0
C618 C 0.56719 0.95734 0.0996 0.0
C619 C 0.66835 1.0054 0.0954 0.0
C620 C 0.71848 0.05186 0.08784 0.0
C621 C 0.6175 1.00329 0.09222 0.0
C622 C 0.71708 0.09692 0.07787 0.0
C623 C 0.66672 0.09477 0.07432 0.0
H624 H 0.47332 0.16449 0.12736 0.0
H625 H 0.30455 0.04167 0.14097 0.0
H626 H 0.28608 0.11161 0.15664 0.0
H627 H 0.31867 0.20743 0.16609 0.0
H628 H 0.4832 0.33287 0.14655 0.0
H629 H 0.50215 0.26271 0.13119 0.0
C630 C 0.43179 0.15371 0.1318 0.0
C631 C 0.38979 0.09898 0.13142 0.0
C632 C 0.42033 0.19453 0.13877 0.0
C633 C 0.33747 0.0841 0.14072 0.0
C634 C 0.32657 0.12396 0.1493 0.0
C635 C 0.35785 0.21925 0.15739 0.0
C636 C 0.40024 0.27398 0.15768 0.0
C637 C 0.36754 0.17925 0.14803 0.0
C638 C 0.45052 0.29028 0.14634 0.0
C639 C 0.46107 0.25026 0.13745 0.0
H640 H 0.98977 0.26887 0.46538 0.0
H641 H 0.08133 0.44513 0.46814 0.0
H642 H 0.16448 0.44504 0.45418 0.0
H643 H 0.21383 0.39209 0.45249 0.0
H644 H 0.11907 0.21667 0.44364 0.0
H645 H 0.03354 0.21803 0.45092 0.0
C646 C 0.02765 0.30741 0.46221 0.0
C647 C 0.03232 0.35683 0.46998 0.0
C648 C 0.07458 0.30655 0.45476 0.0
C649 C 0.07934 0.40658 0.46427 0.0
C650 C 0.12652 0.40637 0.45643 0.0
C651 C 0.17427 0.35471 0.45151 0.0
C652 C 0.17183 0.30453 0.44782 0.0
C653 C 0.12553 0.35631 0.45389 0.0
C654 C 0.121 0.25564 0.44682 0.0
C655 C 0.07241 0.25647 0.45059 0.0
H656 H 0.86198 0.08365 0.76581 0.0
H657 H 0.93657 0.19944 0.82312 0.0
H658 H 0.86421 0.13647 0.85017 0.0
H659 H 0.77985 0.05089 0.85658 0.0
H660 H 0.68645 0.95045 0.79779 0.0
H661 H 0.76683 1.00372 0.77156 0.0
C662 C 0.85978 0.09704 0.78366 0.0
C663 C 0.90203 0.14775 0.79198 0.0
C664 C 0.81456 0.06408 0.79843 0.0
C665 C 0.90302 0.16163 0.81606 0.0
C666 C 0.86142 0.12616 0.83146 0.0
C667 C 0.77335 0.04456 0.83775 0.0
C668 C 0.72464 1.00043 0.82905 0.0
C669 C 0.81622 0.07859 0.82258 0.0
C670 C 0.72232 0.98633 0.80482 0.0
C671 C 0.76807 0.01674 0.78983 0.0
H672 H 0.90044 0.95889 0.10715 0.0
H673 H 0.86298 0.0378 0.16416 0.0
H674 H 0.87077 0.97676 0.19302 0.0
H675 H 0.88014 0.89572 0.20076 0.0
H676 H 0.87768 0.79601 0.14231 0.0
H677 H 0.89722 0.87122 0.1148 0.0
C678 C 0.88943 0.95983 0.12561 0.0
C679 C 0.87614 0.99904 0.13328 0.0
C680 C 0.88641 0.92053 0.14156 0.0
C681 C 0.87014 1.00553 0.15776 0.0
C682 C 0.87405 0.97055 0.17419 0.0
C683 C 0.87675 0.88725 0.18202 0.0
C684 C 0.87112 0.83798 0.17369 0.0
C685 C 0.87922 0.92627 0.16609 0.0
C686 C 0.87835 0.83235 0.14918 0.0
C687 C 0.88911 0.87495 0.13341 0.0
H688 H 0.82363 0.76737 0.45105 0.0
H689 H 0.73636 0.80107 0.50558 0.0
H690 H 0.81223 0.82296 0.5332 0.0
H691 H 0.90045 0.82592 0.54178 0.0
H692 H 0.96796 0.7621 0.48989 0.0
H693 H 0.90005 0.75443 0.46083 0.0
C694 C 0.81733 0.77309 0.46947 0.0
C695 C 0.77176 0.77739 0.47655 0.0
C696 C 0.85708 0.77933 0.48564 0.0
C697 C 0.76974 0.7947 0.49989 0.0
C698 C 0.81297 0.80721 0.51565 0.0
C699 C 0.89811 0.80736 0.52458 0.0
C700 C 0.93656 0.79144 0.5183 0.0
C701 C 0.85603 0.79814 0.50882 0.0
C702 C 0.93722 0.7727 0.49522 0.0
C703 C 0.89842 0.76801 0.47873 0.0
H704 H 0.17652 0.84496 0.86757 0.0
H705 H 0.08904 0.93157 0.8537 0.0
H706 H 1.00319 0.84435 0.84834 0.0
H707 H 0.95874 0.7463 0.84175 0.0
H708 H 0.0456 0.65871 0.85345 0.0
H709 H 0.125 0.7429 0.86874 0.0
C710 C 0.13833 0.84416 0.86361 0.0
C711 C 0.13815 0.89332 0.86042 0.0
C712 C 0.0895 0.79419 0.86096 0.0
C713 C 0.08928 0.89329 0.85557 0.0
C714 C 0.04046 0.84381 0.85291 0.0
C715 C 0.9948 0.7455 0.84803 0.0
C716 C 0.99945 0.69875 0.84457 0.0
C717 C 0.04074 0.79429 0.85481 0.0
C718 C 0.04365 0.69607 0.85444 0.0
C719 C 0.08886 0.74409 0.86291 0.0
H720 H 0.22671 0.19773 0.34721 0.0
H721 H 0.39436 0.27248 0.37144 0.0
H722 H 0.42754 0.30116 0.33042 0.0
H723 H 0.40866 0.32037 0.2898 0.0
H724 H 0.24078 0.25672 0.26687 0.0
H725 H 0.20743 0.21309 0.30616 0.0
C726 C 0.27052 0.21847 0.34333 0.0
C727 C 0.30807 0.23386 0.36242 0.0
C728 C 0.28896 0.24081 0.32043 0.0
C729 C 0.36461 0.25979 0.35714 0.0
C730 C 0.38351 0.27802 0.33382 0.0
C731 C 0.36466 0.29742 0.29345 0.0
C732 C 0.32715 0.29264 0.27555 0.0
C733 C 0.34605 0.27184 0.31578 0.0
C734 C 0.27043 0.26244 0.28051 0.0
C735 C 0.25145 0.23642 0.30275 0.0
H736 H 0.06949 0.31799 0.5963 0.0
H737 H 0.89827 0.19494 0.58629 0.0
H738 H 0.89447 0.16116 0.62692 0.0
H739 H 0.93549 0.17479 0.66616 0.0
H740 H 0.10352 0.30284 0.67789 0.0
H741 H 0.11348 0.32569 0.63503 0.0
C742 C 0.03129 0.28336 0.6028 0.0
C743 C 0.98372 0.25965 0.5883 0.0
C744 C 0.02903 0.26522 0.62636 0.0
C745 C 0.93513 0.2144 0.59707 0.0
C746 C 0.933 0.19509 0.6203 0.0
C747 C 0.97481 0.20716 0.65938 0.0
C748 C 1.01858 0.23775 0.67526 0.0
C749 C 0.97912 0.22142 0.63524 0.0
C750 C 0.06933 0.27881 0.66606 0.0
C751 C 0.07467 0.29217 0.64165 0.0
H752 H 0.86989 1.00375 0.00301 0.0
H753 H 0.83601 0.13448 0.01753 0.0
H754 H 0.7691 0.1025 0.98503 0.0
H755 H 0.71126 0.02999 0.9571 0.0
H756 H 0.74393 0.898 0.94235 0.0
H757 H 0.81687 0.93484 0.97241 0.0
C758 C 0.84969 0.02676 -0.00168 0.0
C759 C 0.85802 0.0716 0.01269 0.0
C760 C 0.80812 1.00531 0.981 0.0
C761 C 0.83131 0.10073 0.00653 0.0
C762 C 0.79157 0.08113 -0.01149 0.0
C763 C 0.7338 1.00861 0.96048 0.0
C764 C 0.72144 0.96069 0.9474 0.0
C765 C 0.77772 0.03186 0.97659 0.0
C766 C 0.75146 0.93409 0.95231 0.0
C767 C 0.79414 0.956 0.96907 0.0
H768 H 0.91191 0.85119 0.3001 0.0
H769 H 0.83788 0.67544 0.29574 0.0
H770 H 0.7781 0.66454 0.3298 0.0
H771 H 0.73502 0.70377 0.35491 0.0
H772 H 0.80261 0.8797 0.35707 0.0
H773 H 0.87265 0.89154 0.32738 0.0
C774 C 0.88391 0.81055 0.30712 0.0
C775 C 0.87813 0.76408 0.29481 0.0
C776 C 0.84525 0.80461 0.32474 0.0
C777 C 0.84334 0.71191 0.30475 0.0
C778 C 0.80751 0.70565 0.32362 0.0
C779 C 0.76448 0.74494 0.34877 0.0
C780 C 0.76283 0.79088 0.35815 0.0
C781 C 0.8057 0.75148 0.33254 0.0
C782 C 0.80193 0.84361 0.34989 0.0
C783 C 0.84282 0.8504 0.33337 0.0
H784 H 0.94539 0.79341 0.64549 0.0
H785 H 0.11226 0.8254 0.63796 0.0
H786 H 0.11199 0.80277 0.68045 0.0
H787 H 0.05938 0.76113 0.71743 0.0
H788 H 0.88926 0.72123 0.72305 0.0
H789 H 0.8955 0.759 0.68303 0.0
C790 C 0.98229 0.79658 0.65318 0.0
C791 C 0.02871 0.81054 0.63851 0.0
C792 C 0.98055 0.78061 0.67699 0.0
C793 C 0.07624 0.81508 0.64885 0.0
C794 C 0.07565 0.80128 0.67303 0.0
C795 C 1.02354 0.76084 0.71006 0.0
C796 C 0.97342 0.73738 0.72321 0.0
C797 C 0.02718 0.78177 0.68691 0.0
C798 C 0.92794 0.73817 0.71331 0.0
C799 C 0.93161 0.76 0.69047 0.0
H800 H 0.3961 0.01862 0.00372 0.0
H801 H 0.23227 0.9321 0.03424 0.0
H802 H 0.19624 0.9538 -0.00145 0.0
H803 H 0.21358 1.0074 0.96183 0.0
H804 H 0.37836 0.09898 0.93219 0.0
H805 H 0.41313 0.0702 0.96618 0.0
C806 C 0.35211 1.00305 0.00224 0.0
C807 C 0.31679 0.97369 0.02167 0.0
C808 C 0.33282 0.01997 0.98281 0.0
C809 C 0.26011 0.95376 0.0195 0.0
C810 C 0.23991 0.9677 -0.00059 0.0
C811 C 0.25733 0.02144 0.96269 0.0
C812 C 0.29339 0.05547 0.9443 0.0
C813 C 0.27635 1.0028 0.98158 0.0
C814 C 0.34984 0.07353 0.94609 0.0
C815 C 0.36944 0.05619 0.9653 0.0
loop_
_geom_bond_atom_site_label_1
_geom_bond_atom_site_label_2
_geom_bond_distance
_geom_bond_site_symmetry_2
_ccdc_geom_bond_type
Mn0 O5 2.095 . S
Mn0 O15 2.162 . S
Mn0 O16 2.297 . S
Mn0 O24 2.385 . S
Mn0 O25 2.209 . S
Mn0 O26 2.094 . S
Mn1 O6 2.121 . S
Mn1 N8 2.257 . S
Mn1 N17 2.282 . S
Mn1 O25 2.215 . S
Mn1 O27 2.117 . S
C2 O24 1.234 . S
C2 O25 1.283 . S
C3 O15 1.281 . S
C3 O16 1.236 . S
C4 O26 1.240 . S
C4 O27 1.264 . S
O5 Mn0 2.095 . S
O5 C14 1.250 . S
O6 Mn1 2.121 . S
O6 C14 1.258 . S
C7 N8 1.326 . S
C7 C11 1.460 . S
C7 H13 0.929 . S
N8 Mn1 2.257 . S
N8 C7 1.326 . S
N8 C12 1.362 . S
C9 C10 1.258 . S
C9 C12 1.431 . S
C9 C29 1.449 . S
C10 C9 1.258 . S
C10 C11 1.477 . S
C10 H30 0.931 . S
C11 C7 1.460 . S
C11 C10 1.477 . S
C11 H31 0.930 . S
C12 N8 1.362 . S
C12 C9 1.431 . S
C12 C22 1.476 . S
H13 C7 0.929 . S
C14 O5 1.250 . S
C14 O6 1.258 . S
O15 Mn0 2.162 . S
O15 C3 1.281 . S
O16 Mn0 2.297 . S
O16 C3 1.236 . S
N17 Mn1 2.282 . S
N17 C18 1.328 . S
N17 C22 1.318 . S
C18 N17 1.328 . S
C18 C19 1.457 . S
C18 H23 0.929 . S
C19 C18 1.457 . S
C19 C20 1.291 . S
C19 H32 0.931 . S
C20 C19 1.291 . S
C20 C21 1.373 . S
C20 H33 0.929 . S
C21 C20 1.373 . S
C21 C22 1.396 . S
C21 C28 1.403 . S
C22 C12 1.476 . S
C22 N17 1.318 . S
C22 C21 1.396 . S
H23 C18 0.929 . S
O24 Mn0 2.385 . S
O24 C2 1.234 . S
O25 Mn0 2.209 . S
O25 Mn1 2.215 . S
O25 C2 1.283 . S
O26 Mn0 2.094 . S
O26 C4 1.240 . S
O27 Mn1 2.117 . S
O27 C4 1.264 . S
C28 C21 1.403 . S
C28 C29 1.399 . S
C28 H34 0.929 . S
C29 C9 1.449 . S
C29 C28 1.399 . S
C29 H35 0.930 . S
H30 C10 0.931 . S
H31 C11 0.930 . S
H32 C19 0.931 . S
H33 C20 0.929 . S
H34 C28 0.929 . S
H35 C29 0.930 . S
Mn36 O41 2.095 . S
Mn36 O51 2.162 . S
Mn36 O52 2.297 . S
Mn36 O60 2.385 . S
Mn36 O61 2.209 1_655 S
Mn36 O62 2.094 . S
Mn37 O42 2.121 . S
Mn37 N44 2.257 . S
Mn37 N53 2.282 . S
Mn37 O61 2.215 . S
Mn37 O63 2.117 . S
C38 O60 1.234 1_455 S
C38 O61 1.283 . S
C39 O51 1.281 . S
C39 O52 1.236 . S
C40 O62 1.240 . S
C40 O63 1.264 1_655 S
O41 Mn36 2.095 . S
O41 C50 1.250 . S
O42 Mn37 2.121 . S
O42 C50 1.258 1_455 S
C43 N44 1.326 . S
C43 C47 1.460 . S
C43 H49 0.929 . S
N44 Mn37 2.257 . S
N44 C43 1.326 . S
N44 C48 1.362 . S
C45 C46 1.258 . S
C45 C48 1.431 . S
C45 C65 1.449 . S
C46 C45 1.258 . S
C46 C47 1.477 . S
C46 H66 0.931 . S
C47 C43 1.460 . S
C47 C46 1.477 . S
C47 H67 0.930 . S
C48 N44 1.362 . S
C48 C45 1.431 . S
C48 C58 1.476 . S
H49 C43 0.929 . S
C50 O41 1.250 . S
C50 O42 1.258 1_655 S
O51 Mn36 2.162 . S
O51 C39 1.281 . S
O52 Mn36 2.297 . S
O52 C39 1.236 . S
N53 Mn37 2.282 . S
N53 C54 1.328 . S
N53 C58 1.318 . S
C54 N53 1.328 . S
C54 C55 1.457 . S
C54 H59 0.929 . S
C55 C54 1.457 . S
C55 C56 1.291 . S
C55 H68 0.931 . S
C56 C55 1.291 . S
C56 C57 1.373 . S
C56 H69 0.929 . S
C57 C56 1.373 . S
C57 C58 1.396 . S
C57 C64 1.403 . S
C58 C48 1.476 . S
C58 N53 1.318 . S
C58 C57 1.396 . S
H59 C54 0.929 . S
O60 Mn36 2.385 . S
O60 C38 1.234 1_655 S
O61 Mn36 2.209 1_455 S
O61 Mn37 2.215 . S
O61 C38 1.283 . S
O62 Mn36 2.094 . S
O62 C40 1.240 . S
O63 Mn37 2.117 . S
O63 C40 1.264 1_455 S
C64 C57 1.403 . S
C64 C65 1.399 . S
C64 H70 0.929 . S
C65 C45 1.449 . S
C65 C64 1.399 . S
C65 H71 0.930 . S
H66 C46 0.931 . S
H67 C47 0.930 . S
H68 C55 0.931 . S
H69 C56 0.929 . S
H70 C64 0.929 . S
H71 C65 0.930 . S
Mn72 O77 2.095 . S
Mn72 O87 2.162 . S
Mn72 O88 2.297 . S
Mn72 O96 2.385 . S
Mn72 O97 2.209 1_565 S
Mn72 O98 2.094 . S
Mn73 O78 2.121 . S
Mn73 N80 2.257 . S
Mn73 N89 2.282 . S
Mn73 O97 2.215 . S
Mn73 O99 2.117 . S
C74 O96 1.234 1_545 S
C74 O97 1.283 . S
C75 O87 1.281 . S
C75 O88 1.236 . S
C76 O98 1.240 . S
C76 O99 1.264 1_565 S
O77 Mn72 2.095 . S
O77 C86 1.250 . S
O78 Mn73 2.121 . S
O78 C86 1.258 1_545 S
C79 N80 1.326 . S
C79 C83 1.460 . S
C79 H85 0.929 . S
N80 Mn73 2.257 . S
N80 C79 1.326 . S
N80 C84 1.362 . S
C81 C82 1.258 . S
C81 C84 1.431 . S
C81 C101 1.449 . S
C82 C81 1.258 . S
C82 C83 1.477 . S
C82 H102 0.931 . S
C83 C79 1.460 . S
C83 C82 1.477 . S
C83 H103 0.930 . S
C84 N80 1.362 . S
C84 C81 1.431 . S
C84 C94 1.476 . S
H85 C79 0.929 . S
C86 O77 1.250 . S
C86 O78 1.258 1_565 S
O87 Mn72 2.162 . S
O87 C75 1.281 . S
O88 Mn72 2.297 . S
O88 C75 1.236 . S
N89 Mn73 2.282 . S
N89 C90 1.328 . S
N89 C94 1.318 . S
C90 N89 1.328 . S
C90 C91 1.457 . S
C90 H95 0.929 . S
C91 C90 1.457 . S
C91 C92 1.291 . S
C91 H104 0.931 . S
C92 C91 1.291 . S
C92 C93 1.373 . S
C92 H105 0.929 . S
C93 C92 1.373 . S
C93 C94 1.396 . S
C93 C100 1.403 . S
C94 C84 1.476 . S
C94 N89 1.318 . S
C94 C93 1.396 . S
H95 C90 0.929 . S
O96 Mn72 2.385 . S
O96 C74 1.234 1_565 S
O97 Mn72 2.209 1_545 S
O97 Mn73 2.215 . S
O97 C74 1.283 . S
O98 Mn72 2.094 . S
O98 C76 1.240 . S
O99 Mn73 2.117 . S
O99 C76 1.264 1_545 S
C100 C93 1.403 . S
C100 C101 1.399 . S
C100 H106 0.929 . S
C101 C81 1.449 . S
C101 C100 1.399 . S
C101 H107 0.930 . S
H102 C82 0.931 . S
H103 C83 0.930 . S
H104 C91 0.931 . S
H105 C92 0.929 . S
H106 C100 0.929 . S
H107 C101 0.930 . S
Mn108 O113 2.095 . S
Mn108 O123 2.162 . S
Mn108 O124 2.297 . S
Mn108 O132 2.385 . S
Mn108 O133 2.209 . S
Mn108 O134 2.094 . S
Mn109 O114 2.121 . S
Mn109 N116 2.257 . S
Mn109 N125 2.282 . S
Mn109 O133 2.215 . S
Mn109 O135 2.117 . S
C110 O132 1.234 . S
C110 O133 1.283 . S
C111 O123 1.281 . S
C111 O124 1.236 . S
C112 O134 1.240 . S
C112 O135 1.264 . S
O113 Mn108 2.095 . S
O113 C122 1.250 . S
O114 Mn109 2.121 . S
O114 C122 1.258 . S
C115 N116 1.326 . S
C115 C119 1.460 . S
C115 H121 0.929 . S
N116 Mn109 2.257 . S
N116 C115 1.326 . S
N116 C120 1.362 . S
C117 C118 1.258 . S
C117 C120 1.431 . S
C117 C137 1.449 . S
C118 C117 1.258 . S
C118 C119 1.477 . S
C118 H138 0.931 . S
C119 C115 1.460 . S
C119 C118 1.477 . S
C119 H139 0.930 . S
C120 N116 1.362 . S
C120 C117 1.431 . S
C120 C130 1.476 . S
H121 C115 0.929 . S
C122 O113 1.250 . S
C122 O114 1.258 . S
O123 Mn108 2.162 . S
O123 C111 1.281 . S
O124 Mn108 2.297 . S
O124 C111 1.236 . S
N125 Mn109 2.282 . S
N125 C126 1.328 . S
N125 C130 1.318 . S
C126 N125 1.328 . S
C126 C127 1.457 . S
C126 H131 0.929 . S
C127 C126 1.457 . S
C127 C128 1.291 . S
C127 H140 0.931 . S
C128 C127 1.291 . S
C128 C129 1.373 . S
C128 H141 0.929 . S
C129 C128 1.373 . S
C129 C130 1.396 . S
C129 C136 1.403 . S
C130 C120 1.476 . S
C130 N125 1.318 . S
C130 C129 1.396 . S
H131 C126 0.929 . S
O132 Mn108 2.385 . S
O132 C110 1.234 . S
O133 Mn108 2.209 . S
O133 Mn109 2.215 . S
O133 C110 1.283 . S
O134 Mn108 2.094 . S
O134 C112 1.240 . S
O135 Mn109 2.117 . S
O135 C112 1.264 . S
C136 C129 1.403 . S
C136 C137 1.399 . S
C136 H142 0.929 . S
C137 C117 1.449 . S
C137 C136 1.399 . S
C137 H143 0.930 . S
H138 C118 0.931 . S
H139 C119 0.930 . S
H140 C127 0.931 . S
H141 C128 0.929 . S
H142 C136 0.929 . S
H143 C137 0.930 . S
Mn144 O149 2.095 . S
Mn144 O159 2.162 . S
Mn144 O160 2.297 . S
Mn144 O168 2.385 . S
Mn144 O169 2.209 1_455 S
Mn144 O170 2.094 . S
Mn145 O150 2.121 . S
Mn145 N152 2.257 . S
Mn145 N161 2.282 . S
Mn145 O169 2.215 . S
Mn145 O171 2.117 . S
C146 O168 1.234 1_655 S
C146 O169 1.283 . S
C147 O159 1.281 . S
C147 O160 1.236 . S
C148 O170 1.240 . S
C148 O171 1.264 1_455 S
O149 Mn144 2.095 . S
O149 C158 1.250 . S
O150 Mn145 2.121 . S
O150 C158 1.258 1_655 S
C151 N152 1.326 . S
C151 C155 1.460 . S
C151 H157 0.929 . S
N152 Mn145 2.257 . S
N152 C151 1.326 . S
N152 C156 1.362 . S
C153 C154 1.258 . S
C153 C156 1.431 . S
C153 C173 1.449 . S
C154 C153 1.258 . S
C154 C155 1.477 . S
C154 H174 0.931 . S
C155 C151 1.460 . S
C155 C154 1.477 . S
C155 H175 0.930 . S
C156 N152 1.362 . S
C156 C153 1.431 . S
C156 C166 1.476 . S
H157 C151 0.929 . S
C158 O149 1.250 . S
C158 O150 1.258 1_455 S
O159 Mn144 2.162 . S
O159 C147 1.281 . S
O160 Mn144 2.297 . S
O160 C147 1.236 . S
N161 Mn145 2.282 . S
N161 C162 1.328 . S
N161 C166 1.318 . S
C162 N161 1.328 . S
C162 C163 1.457 . S
C162 H167 0.929 . S
C163 C162 1.457 . S
C163 C164 1.291 . S
C163 H176 0.931 . S
C164 C163 1.291 . S
C164 C165 1.373 . S
C164 H177 0.929 . S
C165 C164 1.373 . S
C165 C166 1.396 . S
C165 C172 1.403 . S
C166 C156 1.476 . S
C166 N161 1.318 . S
C166 C165 1.396 . S
H167 C162 0.929 . S
O168 Mn144 2.385 . S
O168 C146 1.234 1_455 S
O169 Mn144 2.209 1_655 S
O169 Mn145 2.215 . S
O169 C146 1.283 . S
O170 Mn144 2.094 . S
O170 C148 1.240 . S
O171 Mn145 2.117 . S
O171 C148 1.264 1_655 S
C172 C165 1.403 . S
C172 C173 1.399 . S
C172 H178 0.929 . S
C173 C153 1.449 . S
C173 C172 1.399 . S
C173 H179 0.930 . S
H174 C154 0.931 . S
H175 C155 0.930 . S
H176 C163 0.931 . S
H177 C164 0.929 . S
H178 C172 0.929 . S
H179 C173 0.930 . S
Mn180 O185 2.095 . S
Mn180 O195 2.162 . S
Mn180 O196 2.297 . S
Mn180 O204 2.385 . S
Mn180 O205 2.209 1_545 S
Mn180 O206 2.094 . S
Mn181 O186 2.121 . S
Mn181 N188 2.257 . S
Mn181 N197 2.282 . S
Mn181 O205 2.215 . S
Mn181 O207 2.117 . S
C182 O204 1.234 1_565 S
C182 O205 1.283 . S
C183 O195 1.281 . S
C183 O196 1.236 . S
C184 O206 1.240 . S
C184 O207 1.264 1_545 S
O185 Mn180 2.095 . S
O185 C194 1.250 . S
O186 Mn181 2.121 . S
O186 C194 1.258 1_565 S
C187 N188 1.326 . S
C187 C191 1.460 . S
C187 H193 0.929 . S
N188 Mn181 2.257 . S
N188 C187 1.326 . S
N188 C192 1.362 . S
C189 C190 1.258 . S
C189 C192 1.431 . S
C189 C209 1.449 . S
C190 C189 1.258 . S
C190 C191 1.477 . S
C190 H210 0.931 . S
C191 C187 1.460 . S
C191 C190 1.477 . S
C191 H211 0.930 . S
C192 N188 1.362 . S
C192 C189 1.431 . S
C192 C202 1.476 . S
H193 C187 0.929 . S
C194 O185 1.250 . S
C194 O186 1.258 1_545 S
O195 Mn180 2.162 . S
O195 C183 1.281 . S
O196 Mn180 2.297 . S
O196 C183 1.236 . S
N197 Mn181 2.282 . S
N197 C198 1.328 . S
N197 C202 1.318 . S
C198 N197 1.328 . S
C198 C199 1.457 . S
C198 H203 0.929 . S
C199 C198 1.457 . S
C199 C200 1.291 . S
C199 H212 0.931 . S
C200 C199 1.291 . S
C200 C201 1.373 . S
C200 H213 0.929 . S
C201 C200 1.373 . S
C201 C202 1.396 . S
C201 C208 1.403 . S
C202 C192 1.476 . S
C202 N197 1.318 . S
C202 C201 1.396 . S
H203 C198 0.929 . S
O204 Mn180 2.385 . S
O204 C182 1.234 1_545 S
O205 Mn180 2.209 1_565 S
O205 Mn181 2.215 . S
O205 C182 1.283 . S
O206 Mn180 2.094 . S
O206 C184 1.240 . S
O207 Mn181 2.117 . S
O207 C184 1.264 1_565 S
C208 C201 1.403 . S
C208 C209 1.399 . S
C208 H214 0.929 . S
C209 C189 1.449 . S
C209 C208 1.399 . S
C209 H215 0.930 . S
H210 C190 0.931 . S
H211 C191 0.930 . S
H212 C199 0.931 . S
H213 C200 0.929 . S
H214 C208 0.929 . S
H215 C209 0.930 . S
Mn216 O221 2.095 . S
Mn216 O231 2.162 . S
Mn216 O232 2.297 . S
Mn216 O240 2.385 . S
Mn216 O241 2.209 . S
Mn216 O242 2.094 . S
Mn217 O222 2.121 . S
Mn217 N224 2.257 . S
Mn217 N233 2.282 . S
Mn217 O241 2.215 . S
Mn217 O243 2.117 . S
C218 O240 1.234 . S
C218 O241 1.283 . S
C219 O231 1.281 . S
C219 O232 1.236 . S
C220 O242 1.240 . S
C220 O243 1.264 . S
O221 Mn216 2.095 . S
O221 C230 1.250 . S
O222 Mn217 2.121 . S
O222 C230 1.258 . S
C223 N224 1.326 . S
C223 C227 1.460 . S
C223 H229 0.929 . S
N224 Mn217 2.257 . S
N224 C223 1.326 . S
N224 C228 1.362 . S
C225 C226 1.258 . S
C225 C228 1.431 . S
C225 C245 1.449 . S
C226 C225 1.258 . S
C226 C227 1.477 . S
C226 H246 0.931 . S
C227 C223 1.460 . S
C227 C226 1.477 . S
C227 H247 0.930 . S
C228 N224 1.362 . S
C228 C225 1.431 . S
C228 C238 1.476 . S
H229 C223 0.929 . S
C230 O221 1.250 . S
C230 O222 1.258 . S
O231 Mn216 2.162 . S
O231 C219 1.281 . S
O232 Mn216 2.297 . S
O232 C219 1.236 . S
N233 Mn217 2.282 . S
N233 C234 1.328 . S
N233 C238 1.318 . S
C234 N233 1.328 . S
C234 C235 1.457 . S
C234 H239 0.929 . S
C235 C234 1.457 . S
C235 C236 1.291 . S
C235 H248 0.931 . S
C236 C235 1.291 . S
C236 C237 1.373 . S
C236 H249 0.929 . S
C237 C236 1.373 . S
C237 C238 1.396 . S
C237 C244 1.403 . S
C238 C228 1.476 . S
C238 N233 1.318 . S
C238 C237 1.396 . S
H239 C234 0.929 . S
O240 Mn216 2.385 . S
O240 C218 1.234 . S
O241 Mn216 2.209 . S
O241 Mn217 2.215 . S
O241 C218 1.283 . S
O242 Mn216 2.094 . S
O242 C220 1.240 . S
O243 Mn217 2.117 . S
O243 C220 1.264 . S
C244 C237 1.403 . S
C244 C245 1.399 . S
C244 H250 0.929 . S
C245 C225 1.449 . S
C245 C244 1.399 . S
C245 H251 0.930 . S
H246 C226 0.931 . S
H247 C227 0.930 . S
H248 C235 0.931 . S
H249 C236 0.929 . S
H250 C244 0.929 . S
H251 C245 0.930 . S
Mn252 O257 2.095 . S
Mn252 O267 2.162 . S
Mn252 O268 2.297 . S
Mn252 O276 2.385 . S
Mn252 O277 2.209 1_655 S
Mn252 O278 2.094 . S
Mn253 O258 2.121 . S
Mn253 N260 2.257 . S
Mn253 N269 2.282 . S
Mn253 O277 2.215 . S
Mn253 O279 2.117 . S
C254 O276 1.234 1_455 S
C254 O277 1.283 . S
C255 O267 1.281 . S
C255 O268 1.236 . S
C256 O278 1.240 . S
C256 O279 1.264 1_655 S
O257 Mn252 2.095 . S
O257 C266 1.250 . S
O258 Mn253 2.121 . S
O258 C266 1.258 1_455 S
C259 N260 1.326 . S
C259 C263 1.460 . S
C259 H265 0.929 . S
N260 Mn253 2.257 . S
N260 C259 1.326 . S
N260 C264 1.362 . S
C261 C262 1.258 . S
C261 C264 1.431 . S
C261 C281 1.449 . S
C262 C261 1.258 . S
C262 C263 1.477 . S
C262 H282 0.931 . S
C263 C259 1.460 . S
C263 C262 1.477 . S
C263 H283 0.930 . S
C264 N260 1.362 . S
C264 C261 1.431 . S
C264 C274 1.476 . S
H265 C259 0.929 . S
C266 O257 1.250 . S
C266 O258 1.258 1_655 S
O267 Mn252 2.162 . S
O267 C255 1.281 . S
O268 Mn252 2.297 . S
O268 C255 1.236 . S
N269 Mn253 2.282 . S
N269 C270 1.328 . S
N269 C274 1.318 . S
C270 N269 1.328 . S
C270 C271 1.457 . S
C270 H275 0.929 . S
C271 C270 1.457 . S
C271 C272 1.291 . S
C271 H284 0.931 . S
C272 C271 1.291 . S
C272 C273 1.373 . S
C272 H285 0.929 . S
C273 C272 1.373 . S
C273 C274 1.396 . S
C273 C280 1.403 . S
C274 C264 1.476 . S
C274 N269 1.318 . S
C274 C273 1.396 . S
H275 C270 0.929 . S
O276 Mn252 2.385 . S
O276 C254 1.234 1_655 S
O277 Mn252 2.209 1_455 S
O277 Mn253 2.215 . S
O277 C254 1.283 . S
O278 Mn252 2.094 . S
O278 C256 1.240 . S
O279 Mn253 2.117 . S
O279 C256 1.264 1_455 S
C280 C273 1.403 . S
C280 C281 1.399 . S
C280 H286 0.929 . S
C281 C261 1.449 . S
C281 C280 1.399 . S
C281 H287 0.930 . S
H282 C262 0.931 . S
H283 C263 0.930 . S
H284 C271 0.931 . S
H285 C272 0.929 . S
H286 C280 0.929 . S
H287 C281 0.930 . S
Mn288 O293 2.095 . S
Mn288 O303 2.162 . S
Mn288 O304 2.297 . S
Mn288 O312 2.385 . S
Mn288 O313 2.209 1_565 S
Mn288 O314 2.094 . S
Mn289 O294 2.121 . S
Mn289 N296 2.257 . S
Mn289 N305 2.282 . S
Mn289 O313 2.215 . S
Mn289 O315 2.117 . S
C290 O312 1.234 1_545 S
C290 O313 1.283 . S
C291 O303 1.281 . S
C291 O304 1.236 . S
C292 O314 1.240 . S
C292 O315 1.264 1_565 S
O293 Mn288 2.095 . S
O293 C302 1.250 . S
O294 Mn289 2.121 . S
O294 C302 1.258 1_545 S
C295 N296 1.326 . S
C295 C299 1.460 . S
C295 H301 0.929 . S
N296 Mn289 2.257 . S
N296 C295 1.326 . S
N296 C300 1.362 . S
C297 C298 1.258 . S
C297 C300 1.431 . S
C297 C317 1.449 . S
C298 C297 1.258 . S
C298 C299 1.477 . S
C298 H318 0.931 . S
C299 C295 1.460 . S
C299 C298 1.477 . S
C299 H319 0.930 . S
C300 N296 1.362 . S
C300 C297 1.431 . S
C300 C310 1.476 . S
H301 C295 0.929 . S
C302 O293 1.250 . S
C302 O294 1.258 1_565 S
O303 Mn288 2.162 . S
O303 C291 1.281 . S
O304 Mn288 2.297 . S
O304 C291 1.236 . S
N305 Mn289 2.282 . S
N305 C306 1.328 . S
N305 C310 1.318 . S
C306 N305 1.328 . S
C306 C307 1.457 . S
C306 H311 0.929 . S
C307 C306 1.457 . S
C307 C308 1.291 . S
C307 H320 0.931 . S
C308 C307 1.291 . S
C308 C309 1.373 . S
C308 H321 0.929 . S
C309 C308 1.373 . S
C309 C310 1.396 . S
C309 C316 1.403 . S
C310 C300 1.476 . S
C310 N305 1.318 . S
C310 C309 1.396 . S
H311 C306 0.929 . S
O312 Mn288 2.385 . S
O312 C290 1.234 1_565 S
O313 Mn288 2.209 1_545 S
O313 Mn289 2.215 . S
O313 C290 1.283 . S
O314 Mn288 2.094 . S
O314 C292 1.240 . S
O315 Mn289 2.117 . S
O315 C292 1.264 1_545 S
C316 C309 1.403 . S
C316 C317 1.399 . S
C316 H322 0.929 . S
C317 C297 1.449 . S
C317 C316 1.399 . S
C317 H323 0.930 . S
H318 C298 0.931 . S
H319 C299 0.930 . S
H320 C307 0.931 . S
H321 C308 0.929 . S
H322 C316 0.929 . S
H323 C317 0.930 . S
Mn324 O329 2.095 . S
Mn324 O339 2.162 . S
Mn324 O340 2.297 . S
Mn324 O348 2.385 . S
Mn324 O349 2.209 . S
Mn324 O350 2.094 . S
Mn325 O330 2.121 . S
Mn325 N332 2.257 . S
Mn325 N341 2.282 . S
Mn325 O349 2.215 . S
Mn325 O351 2.117 . S
C326 O348 1.234 . S
C326 O349 1.283 . S
C327 O339 1.281 . S
C327 O340 1.236 . S
C328 O350 1.240 . S
C328 O351 1.264 . S
O329 Mn324 2.095 . S
O329 C338 1.250 . S
O330 Mn325 2.121 . S
O330 C338 1.258 . S
C331 N332 1.326 . S
C331 C335 1.460 . S
C331 H337 0.929 . S
N332 Mn325 2.257 . S
N332 C331 1.326 . S
N332 C336 1.362 . S
C333 C334 1.258 . S
C333 C336 1.431 . S
C333 C353 1.449 . S
C334 C333 1.258 . S
C334 C335 1.477 . S
C334 H354 0.931 . S
C335 C331 1.460 . S
C335 C334 1.477 . S
C335 H355 0.930 . S
C336 N332 1.362 . S
C336 C333 1.431 . S
C336 C346 1.476 . S
H337 C331 0.929 . S
C338 O329 1.250 . S
C338 O330 1.258 . S
O339 Mn324 2.162 . S
O339 C327 1.281 . S
O340 Mn324 2.297 . S
O340 C327 1.236 . S
N341 Mn325 2.282 . S
N341 C342 1.328 . S
N341 C346 1.318 . S
C342 N341 1.328 . S
C342 C343 1.457 . S
C342 H347 0.929 . S
C343 C342 1.457 . S
C343 C344 1.291 . S
C343 H356 0.931 . S
C344 C343 1.291 . S
C344 C345 1.373 . S
C344 H357 0.929 . S
C345 C344 1.373 . S
C345 C346 1.396 . S
C345 C352 1.403 . S
C346 C336 1.476 . S
C346 N341 1.318 . S
C346 C345 1.396 . S
H347 C342 0.929 . S
O348 Mn324 2.385 . S
O348 C326 1.234 . S
O349 Mn324 2.209 . S
O349 Mn325 2.215 . S
O349 C326 1.283 . S
O350 Mn324 2.094 . S
O350 C328 1.240 . S
O351 Mn325 2.117 . S
O351 C328 1.264 . S
C352 C345 1.403 . S
C352 C353 1.399 . S
C352 H358 0.929 . S
C353 C333 1.449 . S
C353 C352 1.399 . S
C353 H359 0.930 . S
H354 C334 0.931 . S
H355 C335 0.930 . S
H356 C343 0.931 . S
H357 C344 0.929 . S
H358 C352 0.929 . S
H359 C353 0.930 . S
Mn360 O365 2.095 . S
Mn360 O375 2.162 . S
Mn360 O376 2.297 . S
Mn360 O384 2.385 . S
Mn360 O385 2.209 1_455 S
Mn360 O386 2.094 . S
Mn361 O366 2.121 . S
Mn361 N368 2.257 . S
Mn361 N377 2.282 . S
Mn361 O385 2.215 . S
Mn361 O387 2.117 . S
C362 O384 1.234 1_655 S
C362 O385 1.283 . S
C363 O375 1.281 . S
C363 O376 1.236 . S
C364 O386 1.240 . S
C364 O387 1.264 1_455 S
O365 Mn360 2.095 . S
O365 C374 1.250 . S
O366 Mn361 2.121 . S
O366 C374 1.258 1_655 S
C367 N368 1.326 . S
C367 C371 1.460 . S
C367 H373 0.929 . S
N368 Mn361 2.257 . S
N368 C367 1.326 . S
N368 C372 1.362 . S
C369 C370 1.258 . S
C369 C372 1.431 . S
C369 C389 1.449 . S
C370 C369 1.258 . S
C370 C371 1.477 . S
C370 H390 0.931 . S
C371 C367 1.460 . S
C371 C370 1.477 . S
C371 H391 0.930 . S
C372 N368 1.362 . S
C372 C369 1.431 . S
C372 C382 1.476 . S
H373 C367 0.929 . S
C374 O365 1.250 . S
C374 O366 1.258 1_455 S
O375 Mn360 2.162 . S
O375 C363 1.281 . S
O376 Mn360 2.297 . S
O376 C363 1.236 . S
N377 Mn361 2.282 . S
N377 C378 1.328 . S
N377 C382 1.318 . S
C378 N377 1.328 . S
C378 C379 1.457 . S
C378 H383 0.929 . S
C379 C378 1.457 . S
C379 C380 1.291 . S
C379 H392 0.931 . S
C380 C379 1.291 . S
C380 C381 1.373 . S
C380 H393 0.929 . S
C381 C380 1.373 . S
C381 C382 1.396 . S
C381 C388 1.403 . S
C382 C372 1.476 . S
C382 N377 1.318 . S
C382 C381 1.396 . S
H383 C378 0.929 . S
O384 Mn360 2.385 . S
O384 C362 1.234 1_455 S
O385 Mn360 2.209 1_655 S
O385 Mn361 2.215 . S
O385 C362 1.283 . S
O386 Mn360 2.094 . S
O386 C364 1.240 . S
O387 Mn361 2.117 . S
O387 C364 1.264 1_655 S
C388 C381 1.403 . S
C388 C389 1.399 . S
C388 H394 0.929 . S
C389 C369 1.449 . S
C389 C388 1.399 . S
C389 H395 0.930 . S
H390 C370 0.931 . S
H391 C371 0.930 . S
H392 C379 0.931 . S
H393 C380 0.929 . S
H394 C388 0.929 . S
H395 C389 0.930 . S
Mn396 O401 2.095 . S
Mn396 O411 2.162 . S
Mn396 O412 2.297 . S
Mn396 O420 2.385 . S
Mn396 O421 2.209 1_545 S
Mn396 O422 2.094 . S
Mn397 O402 2.121 . S
Mn397 N404 2.257 . S
Mn397 N413 2.282 . S
Mn397 O421 2.215 . S
Mn397 O423 2.117 . S
C398 O420 1.234 1_565 S
C398 O421 1.283 . S
C399 O411 1.281 . S
C399 O412 1.236 . S
C400 O422 1.240 . S
C400 O423 1.264 1_545 S
O401 Mn396 2.095 . S
O401 C410 1.250 . S
O402 Mn397 2.121 . S
O402 C410 1.258 1_565 S
C403 N404 1.326 . S
C403 C407 1.460 . S
C403 H409 0.929 . S
N404 Mn397 2.257 . S
N404 C403 1.326 . S
N404 C408 1.362 . S
C405 C406 1.258 . S
C405 C408 1.431 . S
C405 C425 1.449 . S
C406 C405 1.258 . S
C406 C407 1.477 . S
C406 H426 0.931 . S
C407 C403 1.460 . S
C407 C406 1.477 . S
C407 H427 0.930 . S
C408 N404 1.362 . S
C408 C405 1.431 . S
C408 C418 1.476 . S
H409 C403 0.929 . S
C410 O401 1.250 . S
C410 O402 1.258 1_545 S
O411 Mn396 2.162 . S
O411 C399 1.281 . S
O412 Mn396 2.297 . S
O412 C399 1.236 . S
N413 Mn397 2.282 . S
N413 C414 1.328 . S
N413 C418 1.318 . S
C414 N413 1.328 . S
C414 C415 1.457 . S
C414 H419 0.929 . S
C415 C414 1.457 . S
C415 C416 1.291 . S
C415 H428 0.931 . S
C416 C415 1.291 . S
C416 C417 1.373 . S
C416 H429 0.929 . S
C417 C416 1.373 . S
C417 C418 1.396 . S
C417 C424 1.403 . S
C418 C408 1.476 . S
C418 N413 1.318 . S
C418 C417 1.396 . S
H419 C414 0.929 . S
O420 Mn396 2.385 . S
O420 C398 1.234 1_545 S
O421 Mn396 2.209 1_565 S
O421 Mn397 2.215 . S
O421 C398 1.283 . S
O422 Mn396 2.094 . S
O422 C400 1.240 . S
O423 Mn397 2.117 . S
O423 C400 1.264 1_565 S
C424 C417 1.403 . S
C424 C425 1.399 . S
C424 H430 0.929 . S
C425 C405 1.449 . S
C425 C424 1.399 . S
C425 H431 0.930 . S
H426 C406 0.931 . S
H427 C407 0.930 . S
H428 C415 0.931 . S
H429 C416 0.929 . S
H430 C424 0.929 . S
H431 C425 0.930 . S
H432 C438 0.930 . S
H433 C441 0.930 . S
H434 C442 0.930 . S
H435 C443 0.930 . S
H436 C446 0.930 . S
H437 C447 0.930 . S
C438 H432 0.930 . S
C438 C439 1.355 . S
C438 C440 1.399 1_655 S
C439 C438 1.355 . S
C439 C441 1.419 . S
C440 C438 1.399 1_455 S
C440 C445 1.411 1_455 S
C440 C447 1.432 . S
C441 H433 0.930 . S
C441 C439 1.419 . S
C441 C442 1.362 . S
C442 H434 0.930 . S
C442 C441 1.362 . S
C442 C445 1.431 . S
C443 H435 0.930 . S
C443 C444 1.355 . S
C443 C445 1.400 1_455 S
C444 C443 1.355 . S
C444 C446 1.419 . S
C445 C440 1.411 1_655 S
C445 C442 1.431 . S
C445 C443 1.400 1_655 S
C446 H436 0.930 . S
C446 C444 1.419 . S
C446 C447 1.362 . S
C447 H437 0.930 . S
C447 C440 1.432 . S
C447 C446 1.362 . S
H448 C454 0.930 . S
H449 C457 0.930 . S
H450 C458 0.930 1_565 S
H451 C459 0.930 . S
H452 C462 0.930 . S
H453 C463 0.930 1_545 S
C454 H448 0.930 . S
C454 C455 1.355 . S
C454 C456 1.415 . S
C455 C454 1.355 . S
C455 C457 1.419 . S
C456 C454 1.415 . S
C456 C461 1.425 1_545 S
C456 C463 1.409 1_545 S
C457 H449 0.930 . S
C457 C455 1.419 . S
C457 C458 1.362 . S
C458 H450 0.930 1_545 S
C458 C457 1.362 . S
C458 C461 1.409 1_545 S
C459 H451 0.930 . S
C459 C460 1.355 . S
C459 C461 1.415 . S
C460 C459 1.355 . S
C460 C462 1.419 . S
C461 C456 1.425 1_565 S
C461 C458 1.409 1_565 S
C461 C459 1.415 . S
C462 H452 0.930 . S
C462 C460 1.419 . S
C462 C463 1.362 . S
C463 H453 0.930 1_565 S
C463 C456 1.409 1_565 S
C463 C462 1.362 . S
H464 C470 0.930 . S
H465 C473 0.930 . S
H466 C474 0.930 . S
H467 C475 0.930 . S
H468 C478 0.930 . S
H469 C479 0.930 . S
C470 H464 0.930 . S
C470 C471 1.355 . S
C470 C472 1.415 . S
C471 C470 1.355 . S
C471 C473 1.419 . S
C472 C470 1.415 . S
C472 C477 1.425 . S
C472 C479 1.409 . S
C473 H465 0.930 . S
C473 C471 1.419 . S
C473 C474 1.362 . S
C474 H466 0.930 . S
C474 C473 1.362 . S
C474 C477 1.409 . S
C475 H467 0.930 . S
C475 C476 1.355 . S
C475 C477 1.415 . S
C476 C475 1.355 . S
C476 C478 1.419 . S
C477 C472 1.425 . S
C477 C474 1.409 . S
C477 C475 1.415 . S
C478 H468 0.930 . S
C478 C476 1.419 . S
C478 C479 1.362 . S
C479 H469 0.930 . S
C479 C472 1.409 . S
C479 C478 1.362 . S
H480 C486 0.930 . S
H481 C489 0.930 . S
H482 C490 0.930 . S
H483 C491 0.930 . S
H484 C494 0.930 . S
H485 C495 0.930 . S
C486 H480 0.930 . S
C486 C487 1.355 . S
C486 C488 1.415 . S
C487 C486 1.355 . S
C487 C489 1.419 . S
C488 C486 1.415 . S
C488 C493 1.425 1_655 S
C488 C495 1.409 . S
C489 H481 0.930 . S
C489 C487 1.419 . S
C489 C490 1.362 1_655 S
C490 H482 0.930 . S
C490 C489 1.362 1_455 S
C490 C493 1.409 . S
C491 H483 0.930 . S
C491 C492 1.355 . S
C491 C493 1.415 . S
C492 C491 1.355 . S
C492 C494 1.419 . S
C493 C488 1.425 1_455 S
C493 C490 1.409 . S
C493 C491 1.415 . S
C494 H484 0.930 . S
C494 C492 1.419 . S
C494 C495 1.362 1_455 S
C495 H485 0.930 . S
C495 C488 1.409 . S
C495 C494 1.362 1_655 S
H496 C502 0.930 . S
H497 C505 0.930 . S
H498 C506 0.930 . S
H499 C507 0.930 . S
H500 C510 0.930 . S
H501 C511 0.930 . S
C502 H496 0.930 . S
C502 C503 1.355 . S
C502 C504 1.415 . S
C503 C502 1.355 . S
C503 C505 1.419 . S
C504 C502 1.415 . S
C504 C509 1.425 1_545 S
C504 C511 1.409 1_545 S
C505 H497 0.930 . S
C505 C503 1.419 . S
C505 C506 1.362 . S
C506 H498 0.930 . S
C506 C505 1.362 . S
C506 C509 1.409 1_545 S
C507 H499 0.930 . S
C507 C508 1.355 . S
C507 C509 1.415 . S
C508 C507 1.355 . S
C508 C510 1.419 . S
C509 C504 1.425 1_565 S
C509 C506 1.409 1_565 S
C509 C507 1.415 . S
C510 H500 0.930 . S
C510 C508 1.419 . S
C510 C511 1.362 . S
C511 H501 0.930 . S
C511 C504 1.409 1_565 S
C511 C510 1.362 . S
H512 C518 0.930 . S
H513 C521 0.930 . S
H514 C522 0.930 . S
H515 C523 0.930 . S
H516 C526 0.930 . S
H517 C527 0.930 . S
C518 H512 0.930 . S
C518 C519 1.355 . S
C518 C520 1.415 . S
C519 C518 1.355 . S
C519 C521 1.419 . S
C520 C518 1.415 . S
C520 C525 1.425 . S
C520 C527 1.409 . S
C521 H513 0.930 . S
C521 C519 1.419 . S
C521 C522 1.362 . S
C522 H514 0.930 . S
C522 C521 1.362 . S
C522 C525 1.409 . S
C523 H515 0.930 . S
C523 C524 1.355 . S
C523 C525 1.415 . S
C524 C523 1.355 . S
C524 C526 1.419 . S
C525 C520 1.425 . S
C525 C522 1.409 . S
C525 C523 1.415 . S
C526 H516 0.930 . S
C526 C524 1.419 . S
C526 C527 1.362 . S
C527 H517 0.930 . S
C527 C520 1.409 . S
C527 C526 1.362 . S
H528 C534 0.930 . S
H529 C537 0.930 . S
H530 C538 0.930 . S
H531 C539 0.930 . S
H532 C542 0.930 . S
H533 C543 0.930 . S
C534 H528 0.930 . S
C534 C535 1.355 . S
C534 C536 1.415 . S
C535 C534 1.355 . S
C535 C537 1.419 . S
C536 C534 1.415 . S
C536 C541 1.425 . S
C536 C543 1.409 . S
C537 H529 0.930 . S
C537 C535 1.419 . S
C537 C538 1.362 . S
C538 H530 0.930 . S
C538 C537 1.362 . S
C538 C541 1.409 . S
C539 H531 0.930 . S
C539 C540 1.355 . S
C539 C541 1.415 . S
C540 C539 1.355 . S
C540 C542 1.419 . S
C541 C536 1.425 . S
C541 C538 1.409 . S
C541 C539 1.415 . S
C542 H532 0.930 . S
C542 C540 1.419 . S
C542 C543 1.362 . S
C543 H533 0.930 . S
C543 C536 1.409 . S
C543 C542 1.362 . S
H544 C550 0.930 . S
H545 C553 0.930 . S
H546 C554 0.930 . S
H547 C555 0.930 . S
H548 C558 0.930 . S
H549 C559 0.930 . S
C550 H544 0.930 . S
C550 C551 1.355 . S
C550 C552 1.415 . S
C551 C550 1.355 . S
C551 C553 1.419 1_455 S
C552 C550 1.415 . S
C552 C557 1.425 1_455 S
C552 C559 1.409 . S
C553 H545 0.930 . S
C553 C551 1.419 1_655 S
C553 C554 1.362 . S
C554 H546 0.930 . S
C554 C553 1.362 . S
C554 C557 1.409 . S
C555 H547 0.930 . S
C555 C556 1.355 . S
C555 C557 1.415 . S
C556 C555 1.355 . S
C556 C558 1.419 1_655 S
C557 C552 1.425 1_655 S
C557 C554 1.409 . S
C557 C555 1.415 . S
C558 H548 0.930 . S
C558 C556 1.419 1_455 S
C558 C559 1.362 . S
C559 H549 0.930 . S
C559 C552 1.409 . S
C559 C558 1.362 . S
H560 C566 0.930 . S
H561 C569 0.930 . S
H562 C570 0.930 . S
H563 C571 0.930 . S
H564 C574 0.930 . S
H565 C575 0.930 . S
C566 H560 0.930 . S
C566 C567 1.355 . S
C566 C568 1.415 . S
C567 C566 1.355 . S
C567 C569 1.419 1_545 S
C568 C566 1.415 . S
C568 C573 1.425 1_545 S
C568 C575 1.409 . S
C569 H561 0.930 . S
C569 C567 1.419 1_565 S
C569 C570 1.362 . S
C570 H562 0.930 . S
C570 C569 1.362 . S
C570 C573 1.409 . S
C571 H563 0.930 . S
C571 C572 1.355 . S
C571 C573 1.415 . S
C572 C571 1.355 . S
C572 C574 1.419 1_565 S
C573 C568 1.425 1_565 S
C573 C570 1.409 . S
C573 C571 1.415 . S
C574 H564 0.930 . S
C574 C572 1.419 1_545 S
C574 C575 1.362 . S
C575 H565 0.930 . S
C575 C568 1.409 . S
C575 C574 1.362 . S
H576 C582 0.930 . S
H577 C585 0.930 . S
H578 C586 0.930 . S
H579 C587 0.930 . S
H580 C590 0.930 . S
H581 C591 0.930 . S
C582 H576 0.930 . S
C582 C583 1.355 . S
C582 C584 1.415 . S
C583 C582 1.355 . S
C583 C585 1.419 . S
C584 C582 1.415 . S
C584 C589 1.425 . S
C584 C591 1.409 . S
C585 H577 0.930 . S
C585 C583 1.419 . S
C585 C586 1.362 . S
C586 H578 0.930 . S
C586 C585 1.362 . S
C586 C589 1.409 . S
C587 H579 0.930 . S
C587 C588 1.355 . S
C587 C589 1.415 . S
C588 C587 1.355 . S
C588 C590 1.419 . S
C589 C584 1.425 . S
C589 C586 1.409 . S
C589 C587 1.415 . S
C590 H580 0.930 . S
C590 C588 1.419 . S
C590 C591 1.362 . S
C591 H581 0.930 . S
C591 C584 1.409 . S
C591 C590 1.362 . S
H592 C598 0.930 . S
H593 C601 0.930 . S
H594 C602 0.930 . S
H595 C603 0.930 . S
H596 C606 0.930 . S
H597 C607 0.930 . S
C598 H592 0.930 . S
C598 C599 1.355 . S
C598 C600 1.415 . S
C599 C598 1.355 . S
C599 C601 1.419 1_655 S
C600 C598 1.415 . S
C600 C605 1.425 1_655 S
C600 C607 1.409 . S
C601 H593 0.930 . S
C601 C599 1.419 1_455 S
C601 C602 1.362 . S
C602 H594 0.930 . S
C602 C601 1.362 . S
C602 C605 1.409 . S
C603 H595 0.930 . S
C603 C604 1.355 . S
C603 C605 1.415 . S
C604 C603 1.355 . S
C604 C606 1.419 1_455 S
C605 C600 1.425 1_455 S
C605 C602 1.409 . S
C605 C603 1.415 . S
C606 H596 0.930 . S
C606 C604 1.419 1_655 S
C606 C607 1.362 . S
C607 H597 0.930 . S
C607 C600 1.409 . S
C607 C606 1.362 . S
H608 C614 0.930 . S
H609 C617 0.930 . S
H610 C618 0.930 . S
H611 C619 0.930 . S
H612 C622 0.930 . S
H613 C623 0.930 . S
C614 H608 0.930 . S
C614 C615 1.355 1_545 S
C614 C616 1.415 . S
C615 C614 1.355 1_565 S
C615 C617 1.419 . S
C616 C614 1.415 . S
C616 C621 1.425 1_545 S
C616 C623 1.409 . S
C617 H609 0.930 . S
C617 C615 1.419 . S
C617 C618 1.362 . S
C618 H610 0.930 . S
C618 C617 1.362 . S
C618 C621 1.409 . S
C619 H611 0.930 . S
C619 C620 1.355 1_565 S
C619 C621 1.415 . S
C620 C619 1.355 1_545 S
C620 C622 1.419 . S
C621 C616 1.425 1_565 S
C621 C618 1.409 . S
C621 C619 1.415 . S
C622 H612 0.930 . S
C622 C620 1.419 . S
C622 C623 1.362 . S
C623 H613 0.930 . S
C623 C616 1.409 . S
C623 C622 1.362 . S
H624 C630 0.930 . S
H625 C633 0.930 . S
H626 C634 0.930 . S
H627 C635 0.930 . S
H628 C638 0.930 . S
H629 C639 0.930 . S
C630 H624 0.930 . S
C630 C631 1.355 . S
C630 C632 1.415 . S
C631 C630 1.355 . S
C631 C633 1.419 . S
C632 C630 1.415 . S
C632 C637 1.425 . S
C632 C639 1.409 . S
C633 H625 0.930 . S
C633 C631 1.419 . S
C633 C634 1.362 . S
C634 H626 0.930 . S
C634 C633 1.362 . S
C634 C637 1.409 . S
C635 H627 0.930 . S
C635 C636 1.355 . S
C635 C637 1.415 . S
C636 C635 1.355 . S
C636 C638 1.419 . S
C637 C632 1.425 . S
C637 C634 1.409 . S
C637 C635 1.415 . S
C638 H628 0.930 . S
C638 C636 1.419 . S
C638 C639 1.362 . S
C639 H629 0.930 . S
C639 C632 1.409 . S
C639 C638 1.362 . S
H640 C646 0.930 . S
H641 C649 0.930 . S
H642 C650 0.930 . S
H643 C651 0.930 . S
H644 C654 0.930 . S
H645 C655 0.930 . S
C646 H640 0.930 . S
C646 C647 1.355 . S
C646 C648 1.415 . S
C647 C646 1.355 . S
C647 C649 1.419 . S
C648 C646 1.415 . S
C648 C653 1.425 . S
C648 C655 1.409 . S
C649 H641 0.930 . S
C649 C647 1.419 . S
C649 C650 1.362 . S
C650 H642 0.930 . S
C650 C649 1.362 . S
C650 C653 1.409 . S
C651 H643 0.930 . S
C651 C652 1.355 . S
C651 C653 1.415 . S
C652 C651 1.355 . S
C652 C654 1.419 . S
C653 C648 1.425 . S
C653 C650 1.409 . S
C653 C651 1.415 . S
C654 H644 0.930 . S
C654 C652 1.419 . S
C654 C655 1.362 . S
C655 H645 0.930 . S
C655 C648 1.409 . S
C655 C654 1.362 . S
H656 C662 0.930 . S
H657 C665 0.930 . S
H658 C666 0.930 . S
H659 C667 0.930 . S
H660 C670 0.927 1_565 S
H661 C671 0.930 . S
C662 H656 0.930 . S
C662 C663 1.355 . S
C662 C664 1.415 . S
C663 C662 1.355 . S
C663 C665 1.419 . S
C664 C662 1.415 . S
C664 C669 1.425 . S
C664 C671 1.409 . S
C665 H657 0.930 . S
C665 C663 1.419 . S
C665 C666 1.362 . S
C666 H658 0.930 . S
C666 C665 1.362 . S
C666 C669 1.409 . S
C667 H659 0.930 . S
C667 C668 1.355 . S
C667 C669 1.415 . S
C668 C667 1.355 . S
C668 C670 1.419 . S
C669 C664 1.425 . S
C669 C666 1.409 . S
C669 C667 1.415 . S
C670 H660 0.927 1_545 S
C670 C668 1.419 . S
C670 C671 1.362 . S
C671 H661 0.930 . S
C671 C664 1.409 . S
C671 C670 1.362 . S
H672 C678 0.930 . S
H673 C681 0.930 . S
H674 C682 0.930 . S
H675 C683 0.930 . S
H676 C686 0.930 . S
H677 C687 0.930 . S
C678 H672 0.930 . S
C678 C679 1.355 . S
C678 C680 1.415 . S
C679 C678 1.355 . S
C679 C681 1.419 . S
C680 C678 1.415 . S
C680 C685 1.425 . S
C680 C687 1.409 . S
C681 H673 0.930 . S
C681 C679 1.419 . S
C681 C682 1.362 . S
C682 H674 0.930 . S
C682 C681 1.362 . S
C682 C685 1.409 . S
C683 H675 0.930 . S
C683 C684 1.355 . S
C683 C685 1.415 . S
C684 C683 1.355 . S
C684 C686 1.419 . S
C685 C680 1.425 . S
C685 C682 1.409 . S
C685 C683 1.415 . S
C686 H676 0.930 . S
C686 C684 1.419 . S
C686 C687 1.362 . S
C687 H677 0.930 . S
C687 C680 1.409 . S
C687 C686 1.362 . S
H688 C694 0.930 . S
H689 C697 0.930 . S
H690 C698 0.930 . S
H691 C699 0.930 . S
H692 C702 0.930 . S
H693 C703 0.930 . S
C694 H688 0.930 . S
C694 C695 1.355 . S
C694 C696 1.415 . S
C695 C694 1.355 . S
C695 C697 1.419 . S
C696 C694 1.415 . S
C696 C701 1.425 . S
C696 C703 1.409 . S
C697 H689 0.930 . S
C697 C695 1.419 . S
C697 C698 1.362 . S
C698 H690 0.930 . S
C698 C697 1.362 . S
C698 C701 1.409 . S
C699 H691 0.930 . S
C699 C700 1.355 . S
C699 C701 1.415 . S
C700 C699 1.355 . S
C700 C702 1.419 . S
C701 C696 1.425 . S
C701 C698 1.409 . S
C701 C699 1.415 . S
C702 H692 0.930 . S
C702 C700 1.419 . S
C702 C703 1.362 . S
C703 H693 0.930 . S
C703 C696 1.409 . S
C703 C702 1.362 . S
H704 C710 0.930 . S
H705 C713 0.930 . S
H706 C714 0.930 . S
H707 C715 0.930 . S
H708 C718 0.930 . S
H709 C719 0.930 . S
C710 H704 0.930 . S
C710 C711 1.355 . S
C710 C712 1.415 . S
C711 C710 1.355 . S
C711 C713 1.419 . S
C712 C710 1.415 . S
C712 C717 1.425 . S
C712 C719 1.409 . S
C713 H705 0.930 . S
C713 C711 1.419 . S
C713 C714 1.362 . S
C714 H706 0.930 . S
C714 C713 1.362 . S
C714 C717 1.409 . S
C715 H707 0.930 . S
C715 C716 1.355 . S
C715 C717 1.415 . S
C716 C715 1.355 . S
C716 C718 1.419 . S
C717 C712 1.425 . S
C717 C714 1.409 . S
C717 C715 1.415 . S
C718 H708 0.930 . S
C718 C716 1.419 . S
C718 C719 1.362 . S
C719 H709 0.930 . S
C719 C712 1.409 . S
C719 C718 1.362 . S
H720 C726 0.930 . S
H721 C729 0.930 . S
H722 C730 0.930 . S
H723 C731 0.930 . S
H724 C734 0.930 . S
H725 C735 0.930 . S
C726 H720 0.930 . S
C726 C727 1.355 . S
C726 C728 1.415 . S
C727 C726 1.355 . S
C727 C729 1.419 . S
C728 C726 1.415 . S
C728 C733 1.425 . S
C728 C735 1.409 . S
C729 H721 0.930 . S
C729 C727 1.419 . S
C729 C730 1.362 . S
C730 H722 0.930 . S
C730 C729 1.362 . S
C730 C733 1.409 . S
C731 H723 0.930 . S
C731 C732 1.355 . S
C731 C733 1.415 . S
C732 C731 1.355 . S
C732 C734 1.419 . S
C733 C728 1.425 . S
C733 C730 1.409 . S
C733 C731 1.415 . S
C734 H724 0.930 . S
C734 C732 1.419 . S
C734 C735 1.362 . S
C735 H725 0.930 . S
C735 C728 1.409 . S
C735 C734 1.362 . S
H736 C742 0.930 . S
H737 C745 0.930 . S
H738 C746 0.930 . S
H739 C747 0.930 . S
H740 C750 0.930 . S
H741 C751 0.930 . S
C742 H736 0.930 . S
C742 C743 1.355 . S
C742 C744 1.415 . S
C743 C742 1.355 . S
C743 C745 1.419 1_655 S
C744 C742 1.415 . S
C744 C749 1.425 1_655 S
C744 C751 1.409 . S
C745 H737 0.930 . S
C745 C743 1.419 1_455 S
C745 C746 1.362 . S
C746 H738 0.930 . S
C746 C745 1.362 . S
C746 C749 1.409 . S
C747 H739 0.930 . S
C747 C748 1.355 . S
C747 C749 1.415 . S
C748 C747 1.355 . S
C748 C750 1.419 1_455 S
C749 C744 1.425 1_455 S
C749 C746 1.409 . S
C749 C747 1.415 . S
C750 H740 0.930 . S
C750 C748 1.419 1_655 S
C750 C751 1.362 . S
C751 H741 0.930 . S
C751 C744 1.409 . S
C751 C750 1.362 . S
H752 C758 0.930 . S
H753 C761 0.930 . S
H754 C762 0.930 . S
H755 C763 0.930 . S
H756 C766 0.930 . S
H757 C767 0.930 . S
C758 H752 0.930 . S
C758 C759 1.355 . S
C758 C760 1.415 . S
C759 C758 1.355 . S
C759 C761 1.419 1_545 S
C760 C758 1.415 . S
C760 C765 1.425 1_544 S
C760 C767 1.409 1_554 S
C761 H753 0.930 . S
C761 C759 1.419 1_565 S
C761 C762 1.362 . S
C762 H754 0.930 . S
C762 C761 1.362 . S
C762 C765 1.409 1_554 S
C763 H755 0.930 . S
C763 C764 1.355 . S
C763 C765 1.415 . S
C764 C763 1.355 . S
C764 C766 1.419 1_565 S
C765 C760 1.425 1_566 S
C765 C762 1.409 1_556 S
C765 C763 1.415 . S
C766 H756 0.930 . S
C766 C764 1.419 1_545 S
C766 C767 1.362 . S
C767 H757 0.930 . S
C767 C760 1.409 1_556 S
C767 C766 1.362 . S
H768 C774 0.930 . S
H769 C777 0.930 . S
H770 C778 0.930 . S
H771 C779 0.930 . S
H772 C782 0.930 . S
H773 C783 0.930 . S
C774 H768 0.930 . S
C774 C775 1.355 . S
C774 C776 1.415 . S
C775 C774 1.355 . S
C775 C777 1.419 . S
C776 C774 1.415 . S
C776 C781 1.425 . S
C776 C783 1.409 . S
C777 H769 0.930 . S
C777 C775 1.419 . S
C777 C778 1.362 . S
C778 H770 0.930 . S
C778 C777 1.362 . S
C778 C781 1.409 . S
C779 H771 0.930 . S
C779 C780 1.355 . S
C779 C781 1.415 . S
C780 C779 1.355 . S
C780 C782 1.419 . S
C781 C776 1.425 . S
C781 C778 1.409 . S
C781 C779 1.415 . S
C782 H772 0.930 . S
C782 C780 1.419 . S
C782 C783 1.362 . S
C783 H773 0.930 . S
C783 C776 1.409 . S
C783 C782 1.362 . S
H784 C790 0.930 . S
H785 C793 0.930 . S
H786 C794 0.930 . S
H787 C795 0.930 . S
H788 C798 0.930 . S
H789 C799 0.930 . S
C790 H784 0.930 . S
C790 C791 1.355 1_655 S
C790 C792 1.415 . S
C791 C790 1.355 1_455 S
C791 C793 1.419 . S
C792 C790 1.415 . S
C792 C797 1.425 1_655 S
C792 C799 1.409 . S
C793 H785 0.930 . S
C793 C791 1.419 . S
C793 C794 1.362 . S
C794 H786 0.930 . S
C794 C793 1.362 . S
C794 C797 1.409 . S
C795 H787 0.930 . S
C795 C796 1.355 1_455 S
C795 C797 1.415 . S
C796 C795 1.355 1_655 S
C796 C798 1.419 . S
C797 C792 1.425 1_455 S
C797 C794 1.409 . S
C797 C795 1.415 . S
C798 H788 0.930 . S
C798 C796 1.419 . S
C798 C799 1.362 . S
C799 H789 0.930 . S
C799 C792 1.409 . S
C799 C798 1.362 . S
H800 C806 0.930 . S
H801 C809 0.930 . S
H802 C810 0.930 . S
H803 C811 0.930 . S
H804 C814 0.930 . S
H805 C815 0.930 . S
C806 H800 0.930 . S
C806 C807 1.355 . S
C806 C808 1.418 . S
C807 C806 1.355 . S
C807 C809 1.419 1_565 S
C808 C806 1.418 . S
C808 C813 1.425 1_564 S
C808 C815 1.406 1_554 S
C809 H801 0.930 . S
C809 C807 1.419 1_545 S
C809 C810 1.362 . S
C810 H802 0.930 . S
C810 C809 1.362 . S
C810 C813 1.406 1_554 S
C811 H803 0.930 . S
C811 C812 1.355 . S
C811 C813 1.418 . S
C812 C811 1.355 . S
C812 C814 1.419 1_545 S
C813 C808 1.425 1_546 S
C813 C810 1.406 1_556 S
C813 C811 1.418 . S
C814 H804 0.930 . S
C814 C812 1.419 1_565 S
C814 C815 1.362 . S
C815 H805 0.930 . S
C815 C808 1.406 1_556 S
C815 C814 1.362 . S
C439 C399 1.591 . S
C444 C3 1.583 . S
C455 C39 1.596 . S
C460 C219 1.610 . S
C471 C75 1.611 . S
C476 C255 1.589 . S
C487 C111 1.610 . S
C492 C291 1.596 . S
C503 C327 1.583 . S
C508 C147 1.607 . S
C519 C183 1.592 . S
C524 C363 1.583 . S
C535 C112 1.221 . S
C540 C4 1.214 . S
C551 C148 1.217 . S
C556 C40 1.236 . S
C567 C184 1.216 . S
C572 C76 1.216 . S
C583 C220 1.215 . S
C588 C328 1.231 . S
C599 C256 1.231 . S
C604 C364 1.215 . S
C615 C292 1.294 . S
C620 C400 1.288 . S
C631 C290 0.632 . S
C636 C2 0.663 . S
C647 C38 0.664 . S
C652 C326 0.631 . S
C663 C362 0.665 . S
C668 C74 0.635 . S
C679 C398 0.662 . S
C684 C110 0.641 . S
C695 C218 0.661 . S
C700 C146 0.643 . S
C711 C182 0.633 . S
C716 C254 0.665 . S
C727 C338 1.438 . S
C732 C14 1.462 . S
C743 C50 1.443 . S
C748 C374 1.447 . S
C759 C410 1.449 . S
C764 C86 1.495 . S
C775 C122 1.536 . S
C780 C230 1.524 . S
C791 C158 1.522 . S
C796 C266 1.537 . S
C807 C302 1.438 . S
C812 C194 1.456 . S
