# Generated by pormake.
# Topology uov, (4)-cn, num edge types: 1
# Building blocks:
#     Node 0, Type 0, BuildingBlock: GALJAG_clean_sbu_0, # of connection points: 4
#     Node 1, Type 0, BuildingBlock: GALJAG_clean_sbu_0, # of connection points: 4
#     Node 2, Type 0, BuildingBlock: GALJAG_clean_sbu_0, # of connection points: 4
#     Node 3, Type 0, BuildingBlock: GALJAG_clean_sbu_0, # of connection points: 4
#     Node 4, Type 0, BuildingBlock: GALJAG_clean_sbu_0, # of connection points: 4
#     Node 5, Type 0, BuildingBlock: GALJAG_clean_sbu_0, # of connection points: 4
#     Node 6, Type 0, BuildingBlock: GALJAG_clean_sbu_0, # of connection points: 4
#     Node 7, Type 0, BuildingBlock: GALJAG_clean_sbu_0, # of connection points: 4
#     Edge 8, Type (0, 0), BuildingBlock: CIFDUS_clean_linker_0, # of connection points: 2
#     Edge 9, Type (0, 0), BuildingBlock: CIFDUS_clean_linker_0, # of connection points: 2
#     Edge 10, Type (0, 0), BuildingBlock: CIFDUS_clean_linker_0, # of connection points: 2
#     Edge 11, Type (0, 0), BuildingBlock: CIFDUS_clean_linker_0, # of connection points: 2
#     Edge 12, Type (0, 0), BuildingBlock: CIFDUS_clean_linker_0, # of connection points: 2
#     Edge 13, Type (0, 0), BuildingBlock: CIFDUS_clean_linker_0, # of connection points: 2
#     Edge 14, Type (0, 0), BuildingBlock: CIFDUS_clean_linker_0, # of connection points: 2
#     Edge 15, Type (0, 0), BuildingBlock: CIFDUS_clean_linker_0, # of connection points: 2
#     Edge 16, Type (0, 0), BuildingBlock: CIFDUS_clean_linker_0, # of connection points: 2
#     Edge 17, Type (0, 0), BuildingBlock: CIFDUS_clean_linker_0, # of connection points: 2
#     Edge 18, Type (0, 0), BuildingBlock: CIFDUS_clean_linker_0, # of connection points: 2
#     Edge 19, Type (0, 0), BuildingBlock: CIFDUS_clean_linker_0, # of connection points: 2
#     Edge 20, Type (0, 0), BuildingBlock: CIFDUS_clean_linker_0, # of connection points: 2
#     Edge 21, Type (0, 0), BuildingBlock: CIFDUS_clean_linker_0, # of connection points: 2
#     Edge 22, Type (0, 0), BuildingBlock: CIFDUS_clean_linker_0, # of connection points: 2
#     Edge 23, Type (0, 0), BuildingBlock: CIFDUS_clean_linker_0, # of connection points: 2
# Relax obj value: 0.177
# Max RMSD: 0.147
# Mean RMSD: 0.147
data_MOF--net-uov--node1-GALJAG_clean_sbu_0--edge1-CIFDUS_clean_linker_0
_symmetry_space_group_name_H-M    P1
_symmetry_Int_Tables_number       1
_symmetry_cell_setting            triclinic
loop_
_symmetry_equiv_pos_as_xyz
'x, y, z'
_cell_length_a     25.248015
_cell_length_b     25.472877
_cell_length_c     40.694158
_cell_angle_alpha  89.91353
_cell_angle_beta   90.109925
_cell_angle_gamma 89.920857
loop_
_atom_site_label
_atom_site_type_symbol
_atom_site_fract_x
_atom_site_fract_y
_atom_site_fract_z
_atom_type_partial_charge
In0 In 0.03812 0.24325 0.61834 0.0
O1 O 0.07174 0.32562 0.61757 0.0
O2 O -0.00178 0.31391 0.64221 0.0
C3 C 0.09101 0.19734 0.56886 0.0
C4 C 0.08162 0.20032 0.67292 0.0
C5 C 0.94525 0.23268 0.58674 0.0
O6 O 0.09977 0.24429 0.57717 0.0
O7 O 0.05801 0.17329 0.58652 0.0
O8 O 0.95426 0.20899 0.61364 0.0
O9 O 0.98169 0.26308 0.57742 0.0
C10 C 0.03389 0.34571 0.63344 0.0
O11 O 0.03459 0.18991 0.66436 0.0
O12 O 0.10542 0.23177 0.6542 0.0
In13 In 0.23795 0.9486 0.38825 0.0
O14 O 0.32644 0.93215 0.38491 0.0
O15 O 0.29885 0.00758 0.37019 0.0
C16 C 0.23011 0.88397 0.44078 0.0
C17 C 0.19934 0.91505 0.32992 0.0
C18 C 0.17944 0.02337 0.41742 0.0
O19 O 0.2576 0.92518 0.44108 0.0
O20 O 0.20953 0.8735 0.41329 0.0
O21 O 0.15981 0.98077 0.40734 0.0
O22 O 0.22775 0.02969 0.41064 0.0
C23 C 0.33793 0.97743 0.3745 0.0
O24 O 0.18546 0.95805 0.34265 0.0
O25 O 0.23306 0.88954 0.34636 0.0
In26 In 0.96215 0.75071 0.61481 0.0
O27 O 0.92372 0.6703 0.61978 0.0
O28 O 0.00385 0.6791 0.63554 0.0
C29 C 0.89355 0.8013 0.57509 0.0
C30 C 0.93998 0.79331 0.67363 0.0
C31 C 0.04715 0.75942 0.57531 0.0
O32 O 0.90224 0.75273 0.57232 0.0
O33 O 0.91801 0.82352 0.59816 0.0
O34 O 0.04461 0.784 0.60231 0.0
O35 O 0.00789 0.73059 0.56924 0.0
C36 C 0.96474 0.64886 0.63162 0.0
O37 O 0.98176 0.80515 0.65809 0.0
O38 O 0.91099 0.75954 0.65978 0.0
In39 In 0.74801 0.05799 0.3933 0.0
O40 O 0.65919 0.07391 0.39095 0.0
O41 O 0.68711 -0.00099 0.37551 0.0
C42 C 0.78225 0.13296 0.43485 0.0
C43 C 0.77898 0.09383 0.33412 0.0
C44 C 0.78367 0.97691 0.42949 0.0
O45 O 0.73675 0.11286 0.43731 0.0
O46 O 0.80934 0.11671 0.41093 0.0
O47 O 0.79902 0.9836 0.40016 0.0
O48 O 0.75084 0.01039 0.43964 0.0
C49 C 0.64791 0.02884 0.38008 0.0
O50 O 0.80131 0.05479 0.34763 0.0
O51 O 0.74145 0.11372 0.35038 0.0
In52 In 0.91992 0.23572 0.10452 0.0
O53 O 0.93644 0.17407 0.14473 0.0
O54 O 0.87457 0.22959 0.15209 0.0
C55 C 0.99021 0.20221 0.05923 0.0
C56 C 0.94457 0.33563 0.11956 0.0
C57 C 0.83518 0.20972 0.06799 0.0
O58 O -0.00238 0.1935 0.08954 0.0
O59 O 0.94918 0.22816 0.0526 0.0
O60 O 0.85814 0.25347 0.06515 0.0
O61 O 0.85351 0.18021 0.09023 0.0
C62 C 0.89976 0.19061 0.16319 0.0
O63 O 0.8978 0.32086 0.11401 0.0
O64 O 0.97906 0.29992 0.11769 0.0
In65 In 0.24697 0.02364 0.88679 0.0
O66 O 0.32913 0.05972 0.88152 0.0
O67 O 0.31749 0.98105 0.86507 0.0
C68 C 0.19698 0.0842 0.93139 0.0
C69 C 0.20013 0.05203 0.82986 0.0
C70 C 0.24285 0.93599 0.92334 0.0
O71 O 0.24684 0.08407 0.92877 0.0
O72 O 0.17308 0.05561 0.91095 0.0
O73 O 0.21646 0.94022 0.89693 0.0
O74 O 0.27085 0.97528 0.93047 0.0
C75 C 0.34936 0.01855 0.86949 0.0
O76 O 0.19113 0.00805 0.84325 0.0
O77 O 0.23332 0.08037 0.8448 0.0
In78 In 0.07055 0.72867 0.10898 0.0
O79 O 0.09642 0.6433 0.1074 0.0
O80 O 0.02229 0.66099 0.12964 0.0
C81 C 0.13004 0.74273 0.05475 0.0
C82 C 0.10892 0.76796 0.16607 0.0
C83 C 0.98556 0.77847 0.08355 0.0
O84 O 0.08953 0.71391 0.05502 0.0
O85 O 0.14209 0.76217 0.08227 0.0
O86 O 0.02981 0.80053 0.08763 0.0
O87 O 0.9829 0.73223 0.09466 0.0
C88 C 0.0554 0.62624 0.12145 0.0
O89 O 0.06507 0.78245 0.15419 0.0
O90 O 0.13278 0.73379 0.14936 0.0
In91 In 0.75789 0.9459 0.88953 0.0
O92 O 0.80677 0.95013 0.84201 0.0
O93 O 0.77053 0.87758 0.85531 0.0
C94 C 0.75635 0.03993 0.91867 0.0
C95 C 0.65423 0.94393 0.87554 0.0
C96 C 0.82035 0.90493 0.93669 0.0
O97 O 0.78066 0.03294 0.89173 0.0
O98 O 0.73233 0.00018 0.92962 0.0
O99 O 0.7726 0.89057 0.93339 0.0
O100 O 0.83617 0.93752 0.91553 0.0
C101 C 0.79897 0.90229 0.83506 0.0
O102 O 0.6758 0.9094 0.89362 0.0
O103 O 0.6853 0.97806 0.86393 0.0
H104 H 0.05393 0.59118 0.63779 0.0
H105 H 0.88356 0.57902 0.63818 0.0
H106 H 0.89013 0.48337 0.64269 0.0
H107 H 0.94452 0.40303 0.64173 0.0
H108 H 0.11457 0.4158 0.63608 0.0
H109 H 0.10811 0.51145 0.63874 0.0
C110 C 0.01825 0.56761 0.63934 0.0
C111 C 0.96836 0.59191 0.63765 0.0
C112 C 0.02237 0.51279 0.64081 0.0
C113 C 0.92242 0.56101 0.63933 0.0
C114 C 0.92617 0.50641 0.64188 0.0
C115 C 0.9801 0.42686 0.64163 0.0
C116 C 0.02993 0.4027 0.63877 0.0
C117 C 0.97594 0.48182 0.64195 0.0
C118 C 0.0758 0.43376 0.63819 0.0
C119 C 0.07212 0.48835 0.63966 0.0
H120 H 0.55989 0.08934 0.37433 0.0
H121 H 0.61316 0.92835 0.37453 0.0
H122 H 0.52163 0.89793 0.37101 0.0
H123 H 0.42626 0.91711 0.37149 0.0
H124 H 0.37294 0.07806 0.36933 0.0
H125 H 0.46466 0.10853 0.36963 0.0
C126 C 0.55137 0.04764 0.37336 0.0
C127 C 0.59298 0.01111 0.37503 0.0
C128 C 0.49871 0.03045 0.37103 0.0
C129 C 0.58165 0.9572 0.37334 0.0
C130 C 0.52936 0.93977 0.37142 0.0
C131 C 0.43481 0.95882 0.37075 0.0
C132 C 0.39307 -0.0047 0.37069 0.0
C133 C 0.48756 0.97603 0.37078 0.0
C134 C 0.40452 0.04923 0.3694 0.0
C135 C 0.45691 0.06669 0.36972 0.0
H136 H 0.04187 0.38001 0.11768 0.0
H137 H 0.87703 0.4151 0.13496 0.0
H138 H 0.89794 0.5083 0.14045 0.0
H139 H 0.96186 0.58025 0.13595 0.0
H140 H 0.12572 0.54579 0.11504 0.0
H141 H 0.10657 0.45176 0.11566 0.0
C142 C 0.01067 0.40803 0.12303 0.0
C143 C 0.95802 0.39094 0.12577 0.0
C144 C 0.02279 0.46159 0.12535 0.0
C145 C 0.91786 0.42753 0.13256 0.0
C146 C 0.92976 0.48075 0.13569 0.0
C147 C 0.99348 0.55209 0.13198 0.0
C148 C 0.04502 0.56973 0.12536 0.0
C149 C 0.98191 0.49831 0.13149 0.0
C150 C 0.08563 0.53299 0.12005 0.0
C151 C 0.07471 0.4793 0.12035 0.0
H152 H 0.40539 0.92844 0.87232 0.0
H153 H 0.42186 0.09517 0.85705 0.0
H154 H 0.5183 0.08552 0.85426 0.0
H155 H 0.59773 0.03058 0.86019 0.0
H156 H 0.58143 0.86544 0.88134 0.0
H157 H 0.48489 0.8733 0.87769 0.0
C158 C 0.43014 0.9625 0.86787 0.0
C159 C 0.40683 0.0124 0.86464 0.0
C160 C 0.48542 0.95688 0.86762 0.0
C161 C 0.43914 0.05641 0.85954 0.0
C162 C 0.49415 0.05089 0.85801 0.0
C163 C 0.573 -0.00381 0.86356 0.0
C164 C 0.59643 0.94742 0.87085 0.0
C165 C 0.51772 0.00146 0.86259 0.0
C166 C 0.56411 0.90334 0.8757 0.0
C167 C 0.50902 0.90785 0.87364 0.0
H168 H 0.21655 0.11203 0.4464 0.0
H169 H 0.07989 0.01061 0.44158 0.0
H170 H 0.04039 0.05632 0.48813 0.0
H171 H 0.04809 0.11982 0.53295 0.0
H172 H 0.18316 0.22295 0.53762 0.0
H173 H 0.22034 0.18147 0.48841 0.0
C174 C 0.17768 0.10061 0.45515 0.0
C175 C 0.15133 0.05778 0.44073 0.0
C176 C 0.15552 0.1266 0.48224 0.0
C177 C 0.10097 0.04345 0.45227 0.0
C178 C 0.07855 0.06926 0.47906 0.0
C179 C 0.08576 0.13309 0.52321 0.0
C180 C 0.11355 0.17347 0.5391 0.0
C181 C 0.10616 0.10983 0.49476 0.0
C182 C 0.16151 0.19141 0.52587 0.0
C183 C 0.18261 0.16785 0.49776 0.0
H184 H 0.17603 0.79271 0.44599 0.0
H185 H 0.24616 0.91606 0.50396 0.0
H186 H 0.20013 0.88416 0.55281 0.0
H187 H 0.12915 0.8295 0.57677 0.0
H188 H 0.05871 0.70728 0.51781 0.0
H189 H 0.11589 0.73006 0.47195 0.0
C190 C 0.18225 0.8118 0.46949 0.0
C191 C 0.21379 0.85702 0.47127 0.0
C192 C 0.15491 0.7939 0.49729 0.0
C193 C 0.2219 0.88117 0.50192 0.0
C194 C 0.19523 0.86323 0.52985 0.0
C195 C 0.12719 0.80722 0.55412 0.0
C196 C 0.08908 0.76746 0.55052 0.0
C197 C 0.15993 0.82091 0.52751 0.0
C198 C 0.08721 0.7386 0.5211 0.0
C199 C 0.11987 0.75159 0.49477 0.0
H200 H 0.76906 0.97048 0.49469 0.0
H201 H 0.84339 0.89023 0.41366 0.0
H202 H 0.87878 0.82392 0.4517 0.0
H203 H 0.89326 0.79269 0.50878 0.0
H204 H 0.82518 0.87935 0.58924 0.0
H205 H 0.78161 0.939 0.55058 0.0
C206 C 0.79262 0.93824 0.48522 0.0
C207 C 0.80367 0.93517 0.45145 0.0
C208 C 0.81363 0.9014 0.50719 0.0
C209 C 0.83456 0.89343 0.43961 0.0
C210 C 0.85466 0.85557 0.46134 0.0
C211 C 0.8679 0.82402 0.51762 0.0
C212 C 0.86162 0.83158 0.5516 0.0
C213 C 0.84499 0.85957 0.49525 0.0
C214 C 0.83001 0.87289 0.5631 0.0
C215 C 0.80542 0.90703 0.54106 0.0
H216 H 0.7688 0.12567 0.50069 0.0
H217 H 0.84995 0.21381 0.42564 0.0
H218 H 0.90178 0.25937 0.46759 0.0
H219 H 0.93207 0.26517 0.52427 0.0
H220 H 0.85938 0.16957 0.59922 0.0
H221 H 0.7955 0.13634 0.55884 0.0
C222 C 0.79687 0.15591 0.49373 0.0
C223 C 0.80554 0.16684 0.46028 0.0
C224 C 0.82837 0.17999 0.51793 0.0
C225 C 0.84271 0.20508 0.45131 0.0
C226 C 0.87242 0.23088 0.47525 0.0
C227 C 0.90161 0.23784 0.53202 0.0
C228 C 0.90057 0.21965 0.56467 0.0
C229 C 0.86682 0.21734 0.50848 0.0
C230 C 0.86101 0.18409 0.57421 0.0
C231 C 0.82469 0.16492 0.55109 0.0
H232 H 0.71207 0.05724 0.97777 0.0
H233 H 0.81412 0.12871 0.90554 0.0
H234 H 0.83873 0.19685 0.94512 0.0
H235 H 0.84372 0.2252 0.00286 0.0
H236 H 0.7511 0.14494 0.07621 0.0
H237 H 0.70925 0.09159 0.03352 0.0
C238 C 0.73884 0.08837 0.97039 0.0
C239 C 0.76195 0.08755 0.93898 0.0
C240 C 0.75462 0.12559 0.99366 0.0
C241 C 0.79614 0.12834 0.92969 0.0
C242 C 0.8104 0.16709 0.95236 0.0
C243 C 0.81294 0.19731 0.00924 0.0
C244 C 0.80005 0.18889 0.04242 0.0
C245 C 0.79169 0.16465 0.98482 0.0
C246 C 0.76121 0.15197 0.05071 0.0
C247 C 0.7377 0.1213 0.02637 0.0
H248 H 0.09418 0.11154 0.93113 0.0
H249 H 0.23509 0.11746 0.99093 0.0
H250 H 0.18357 0.15345 0.0368 0.0
H251 H 0.09671 0.18024 0.06042 0.0
H252 H 0.95808 0.17759 0.99822 0.0
H253 H 0.01021 0.14294 0.95295 0.0
C254 C 0.11372 0.12113 0.95413 0.0
C255 C 0.16816 0.11177 0.95776 0.0
C256 C 0.08406 0.14191 0.98009 0.0
C257 C 0.19314 0.12469 0.98755 0.0
C258 C 0.16364 0.14487 0.01383 0.0
C259 C 0.07819 0.17191 0.03694 0.0
C260 C 0.02368 0.18108 0.03269 0.0
C261 C 0.10882 0.15303 0.01052 0.0
C262 C 6e-05 0.1709 0.00206 0.0
C263 C 0.02978 0.15109 0.97613 0.0
H264 H 0.22213 0.79548 0.04823 0.0
H265 H 0.0917 0.73227 0.9924 0.0
H266 H 0.11979 0.78195 0.94408 0.0
H267 H 0.17275 0.85453 0.92093 0.0
H268 H 0.30178 0.9184 0.97792 0.0
H269 H 0.28338 0.85694 0.02224 0.0
C270 C 0.20067 0.7916 0.02524 0.0
C271 C 0.15456 0.76106 0.02397 0.0
C272 C 0.21636 0.82103 0.99784 0.0
C273 C 0.12733 0.7558 0.99399 0.0
C274 C 0.1431 0.78453 0.96641 0.0
C275 C 0.19749 0.8541 0.94275 0.0
C276 C 0.23777 0.89163 0.94645 0.0
C277 C 0.18621 0.81904 0.9685 0.0
C278 C 0.26991 0.89043 0.9747 0.0
C279 C 0.25943 0.85533 1.00012 0.0
H280 H 0.80115 0.82989 0.98354 0.0
H281 H 0.9172 0.94341 0.95174 0.0
H282 H 0.97543 0.9184 0.99676 0.0
H283 H 0.9958 0.8619 0.04336 0.0
H284 H 0.88379 0.74413 0.07417 0.0
H285 H 0.82123 0.77381 0.03187 0.0
C286 C 0.83917 0.84906 0.98655 0.0
C287 C 0.85492 0.88814 0.96414 0.0
C288 C 0.87303 0.83408 0.01248 0.0
C289 C 0.90424 0.91283 0.9684 0.0
C290 C 0.93757 0.89877 0.99426 0.0
C291 C 0.95731 0.84328 0.04126 0.0
C292 C 0.94429 0.80113 0.06197 0.0
C293 C 0.92259 0.85924 0.01626 0.0
C294 C 0.89458 0.77692 0.0586 0.0
C295 C 0.85899 0.79363 0.03427 0.0
H296 H 0.05474 0.11254 0.70832 0.0
H297 H 0.16827 0.23883 0.70334 0.0
H298 H 0.21499 0.2036 0.75085 0.0
H299 H 0.22413 0.13756 0.79381 0.0
H300 H 0.11382 0.00876 0.79898 0.0
H301 H 0.0657 0.04386 0.75132 0.0
C302 C 0.08954 0.13232 0.71782 0.0
C303 C 0.10786 0.17836 0.70242 0.0
C304 C 0.11704 0.11123 0.74502 0.0
C305 C 0.15336 0.20333 0.71471 0.0
C306 C 0.18019 0.18322 0.74189 0.0
C307 C 0.18964 0.117 0.78448 0.0
C308 C 0.17251 0.07072 0.79992 0.0
C309 C 0.1625 0.13722 0.75717 0.0
C310 C 0.12792 0.04442 0.78742 0.0
C311 C 0.10027 0.0646 0.76027 0.0
H312 H 0.07553 0.85355 0.20043 0.0
H313 H 0.19306 0.73038 0.20052 0.0
H314 H 0.23145 0.76517 0.25103 0.0
H315 H 0.2317 0.83024 0.29528 0.0
H316 H 0.11628 0.95525 0.29482 0.0
H317 H 0.07718 0.92031 0.24432 0.0
C318 C 0.10944 0.83432 0.2116 0.0
C319 C 0.13127 0.78935 0.19685 0.0
C320 C 0.13181 0.85495 0.2405 0.0
C321 C 0.1755 0.76505 0.2114 0.0
C322 C 0.19751 0.78491 0.24029 0.0
C323 C 0.19804 0.84989 0.2841 0.0
C324 C 0.17684 0.89516 0.29878 0.0
C325 C 0.17603 0.8298 0.25504 0.0
C326 C 0.13338 0.92036 0.28393 0.0
C327 C 0.11093 0.90033 0.25512 0.0
H328 H 0.86286 0.76144 0.71461 0.0
H329 H 0.97973 0.88296 0.70172 0.0
H330 H 0.94596 0.92861 0.75045 0.0
H331 H 0.88082 0.93482 0.79596 0.0
H332 H 0.76645 0.81063 0.80853 0.0
H333 H 0.80137 0.76543 0.76057 0.0
C334 C 0.88119 0.79779 0.72253 0.0
C335 C 0.92355 0.81892 0.70456 0.0
C336 C 0.86167 0.82356 0.75039 0.0
C337 C 0.94714 0.86583 0.71526 0.0
C338 C 0.92764 0.89206 0.74299 0.0
C339 C 0.86358 0.89796 0.78806 0.0
C340 C 0.82088 0.87629 0.80563 0.0
C341 C 0.88449 0.87154 0.76058 0.0
C342 C 0.79929 0.82818 0.79542 0.0
C343 C 0.81923 0.80223 0.768 0.0
H344 H 0.86136 0.06287 0.29477 0.0
H345 H 0.73367 0.17528 0.30178 0.0
H346 H 0.76036 0.2149 0.25003 0.0
H347 H 0.81949 0.21847 0.20302 0.0
H348 H 0.94745 0.10705 0.1943 0.0
H349 H 0.92129 0.06632 0.24649 0.0
C350 C 0.83939 0.09594 0.28486 0.0
C351 C 0.79558 0.11606 0.30216 0.0
C352 C 0.85507 0.11884 0.25488 0.0
C353 C 0.76753 0.15898 0.28905 0.0
C354 C 0.78277 0.18176 0.25942 0.0
C355 C 0.84184 0.18531 0.2125 0.0
C356 C 0.88543 0.16589 0.19487 0.0
C357 C 0.82646 0.16216 0.24222 0.0
C358 C 0.91378 0.12279 0.20748 0.0
C359 C 0.89877 0.09949 0.23728 0.0
loop_
_geom_bond_atom_site_label_1
_geom_bond_atom_site_label_2
_geom_bond_distance
_geom_bond_site_symmetry_2
_ccdc_geom_bond_type
In0 O1 2.294 . S
In0 O2 2.326 . S
In0 O6 2.266 . S
In0 O7 2.326 . S
In0 O8 2.266 . S
In0 O9 2.326 . S
In0 O11 2.294 . S
In0 O12 2.326 . S
O1 In0 2.294 . S
O1 C10 1.240 . S
O2 In0 2.326 . S
O2 C10 1.252 . S
C3 O6 1.252 . S
C3 O7 1.260 . S
C4 O11 1.240 . S
C4 O12 1.252 . S
C5 O8 1.252 . S
C5 O9 1.260 . S
O6 In0 2.266 . S
O6 C3 1.252 . S
O7 In0 2.326 . S
O7 C3 1.260 . S
O8 In0 2.266 . S
O8 C5 1.252 . S
O9 In0 2.326 . S
O9 C5 1.260 . S
C10 O1 1.240 . S
C10 O2 1.252 . S
O11 In0 2.294 . S
O11 C4 1.240 . S
O12 In0 2.326 . S
O12 C4 1.252 . S
In13 O14 2.294 . S
In13 O15 2.326 . S
In13 O19 2.266 . S
In13 O20 2.326 . S
In13 O21 2.266 . S
In13 O22 2.326 . S
In13 O24 2.294 . S
In13 O25 2.326 . S
O14 In13 2.294 . S
O14 C23 1.240 . S
O15 In13 2.326 . S
O15 C23 1.252 . S
C16 O19 1.252 . S
C16 O20 1.260 . S
C17 O24 1.240 . S
C17 O25 1.252 . S
C18 O21 1.252 . S
C18 O22 1.260 . S
O19 In13 2.266 . S
O19 C16 1.252 . S
O20 In13 2.326 . S
O20 C16 1.260 . S
O21 In13 2.266 . S
O21 C18 1.252 . S
O22 In13 2.326 . S
O22 C18 1.260 . S
C23 O14 1.240 . S
C23 O15 1.252 . S
O24 In13 2.294 . S
O24 C17 1.240 . S
O25 In13 2.326 . S
O25 C17 1.252 . S
In26 O27 2.294 . S
In26 O28 2.326 . S
In26 O32 2.266 . S
In26 O33 2.326 . S
In26 O34 2.266 . S
In26 O35 2.326 . S
In26 O37 2.294 . S
In26 O38 2.326 . S
O27 In26 2.294 . S
O27 C36 1.240 . S
O28 In26 2.326 . S
O28 C36 1.252 . S
C29 O32 1.252 . S
C29 O33 1.260 . S
C30 O37 1.240 . S
C30 O38 1.252 . S
C31 O34 1.252 . S
C31 O35 1.260 . S
O32 In26 2.266 . S
O32 C29 1.252 . S
O33 In26 2.326 . S
O33 C29 1.260 . S
O34 In26 2.266 . S
O34 C31 1.252 . S
O35 In26 2.326 . S
O35 C31 1.260 . S
C36 O27 1.240 . S
C36 O28 1.252 . S
O37 In26 2.294 . S
O37 C30 1.240 . S
O38 In26 2.326 . S
O38 C30 1.252 . S
In39 O40 2.294 . S
In39 O41 2.326 . S
In39 O45 2.266 . S
In39 O46 2.326 . S
In39 O47 2.266 . S
In39 O48 2.326 . S
In39 O50 2.294 . S
In39 O51 2.326 . S
O40 In39 2.294 . S
O40 C49 1.240 . S
O41 In39 2.326 . S
O41 C49 1.252 . S
C42 O45 1.252 . S
C42 O46 1.260 . S
C43 O50 1.240 . S
C43 O51 1.252 . S
C44 O47 1.252 . S
C44 O48 1.260 . S
O45 In39 2.266 . S
O45 C42 1.252 . S
O46 In39 2.326 . S
O46 C42 1.260 . S
O47 In39 2.266 . S
O47 C44 1.252 . S
O48 In39 2.326 . S
O48 C44 1.260 . S
C49 O40 1.240 . S
C49 O41 1.252 . S
O50 In39 2.294 . S
O50 C43 1.240 . S
O51 In39 2.326 . S
O51 C43 1.252 . S
In52 O53 2.294 . S
In52 O54 2.326 . S
In52 O58 2.266 . S
In52 O59 2.326 . S
In52 O60 2.266 . S
In52 O61 2.326 . S
In52 O63 2.294 . S
In52 O64 2.326 . S
O53 In52 2.294 . S
O53 C62 1.240 . S
O54 In52 2.326 . S
O54 C62 1.252 . S
C55 O58 1.252 . S
C55 O59 1.260 . S
C56 O63 1.240 . S
C56 O64 1.252 . S
C57 O60 1.252 . S
C57 O61 1.260 . S
O58 In52 2.266 . S
O58 C55 1.252 . S
O59 In52 2.326 . S
O59 C55 1.260 . S
O60 In52 2.266 . S
O60 C57 1.252 . S
O61 In52 2.326 . S
O61 C57 1.260 . S
C62 O53 1.240 . S
C62 O54 1.252 . S
O63 In52 2.294 . S
O63 C56 1.240 . S
O64 In52 2.326 . S
O64 C56 1.252 . S
In65 O66 2.294 . S
In65 O67 2.326 . S
In65 O71 2.266 . S
In65 O72 2.326 . S
In65 O73 2.266 . S
In65 O74 2.326 . S
In65 O76 2.294 . S
In65 O77 2.326 . S
O66 In65 2.294 . S
O66 C75 1.240 . S
O67 In65 2.326 . S
O67 C75 1.252 . S
C68 O71 1.252 . S
C68 O72 1.260 . S
C69 O76 1.240 . S
C69 O77 1.252 . S
C70 O73 1.252 . S
C70 O74 1.260 . S
O71 In65 2.266 . S
O71 C68 1.252 . S
O72 In65 2.326 . S
O72 C68 1.260 . S
O73 In65 2.266 . S
O73 C70 1.252 . S
O74 In65 2.326 . S
O74 C70 1.260 . S
C75 O66 1.240 . S
C75 O67 1.252 . S
O76 In65 2.294 . S
O76 C69 1.240 . S
O77 In65 2.326 . S
O77 C69 1.252 . S
In78 O79 2.294 . S
In78 O80 2.326 . S
In78 O84 2.266 . S
In78 O85 2.326 . S
In78 O86 2.266 . S
In78 O87 2.326 . S
In78 O89 2.294 . S
In78 O90 2.326 . S
O79 In78 2.294 . S
O79 C88 1.240 . S
O80 In78 2.326 . S
O80 C88 1.252 . S
C81 O84 1.252 . S
C81 O85 1.260 . S
C82 O89 1.240 . S
C82 O90 1.252 . S
C83 O86 1.252 . S
C83 O87 1.260 . S
O84 In78 2.266 . S
O84 C81 1.252 . S
O85 In78 2.326 . S
O85 C81 1.260 . S
O86 In78 2.266 . S
O86 C83 1.252 . S
O87 In78 2.326 . S
O87 C83 1.260 . S
C88 O79 1.240 . S
C88 O80 1.252 . S
O89 In78 2.294 . S
O89 C82 1.240 . S
O90 In78 2.326 . S
O90 C82 1.252 . S
In91 O92 2.294 . S
In91 O93 2.326 . S
In91 O97 2.266 . S
In91 O98 2.326 . S
In91 O99 2.266 . S
In91 O100 2.326 . S
In91 O102 2.294 . S
In91 O103 2.326 . S
O92 In91 2.294 . S
O92 C101 1.240 . S
O93 In91 2.326 . S
O93 C101 1.252 . S
C94 O97 1.252 . S
C94 O98 1.260 . S
C95 O102 1.240 . S
C95 O103 1.252 . S
C96 O99 1.252 . S
C96 O100 1.260 . S
O97 In91 2.266 . S
O97 C94 1.252 . S
O98 In91 2.326 . S
O98 C94 1.260 . S
O99 In91 2.266 . S
O99 C96 1.252 . S
O100 In91 2.326 . S
O100 C96 1.260 . S
C101 O92 1.240 . S
C101 O93 1.252 . S
O102 In91 2.294 . S
O102 C95 1.240 . S
O103 In91 2.326 . S
O103 C95 1.252 . S
H104 C110 0.930 1_455 S
H105 C113 0.930 . S
H106 C114 0.930 . S
H107 C115 0.930 1_655 S
H108 C118 0.930 . S
H109 C119 0.930 . S
C110 H104 0.930 1_655 S
C110 C111 1.355 . S
C110 C112 1.415 1_655 S
C111 C110 1.355 . S
C111 C113 1.419 . S
C112 C110 1.415 1_455 S
C112 C117 1.425 1_455 S
C112 C119 1.409 . S
C113 H105 0.930 . S
C113 C111 1.419 . S
C113 C114 1.362 . S
C114 H106 0.930 . S
C114 C113 1.362 . S
C114 C117 1.409 . S
C115 H107 0.930 1_455 S
C115 C116 1.355 . S
C115 C117 1.415 1_455 S
C116 C115 1.355 . S
C116 C118 1.419 . S
C117 C112 1.425 1_655 S
C117 C114 1.409 . S
C117 C115 1.415 1_655 S
C118 H108 0.930 . S
C118 C116 1.419 . S
C118 C119 1.362 . S
C119 H109 0.930 . S
C119 C112 1.409 . S
C119 C118 1.362 . S
H120 C126 0.930 . S
H121 C129 0.930 . S
H122 C130 0.930 . S
H123 C131 0.930 . S
H124 C134 0.930 . S
H125 C135 0.930 . S
C126 H120 0.930 . S
C126 C127 1.355 . S
C126 C128 1.415 . S
C127 C126 1.355 . S
C127 C129 1.419 1_545 S
C128 C126 1.415 . S
C128 C133 1.425 1_545 S
C128 C135 1.409 . S
C129 H121 0.930 . S
C129 C127 1.419 1_565 S
C129 C130 1.362 . S
C130 H122 0.930 . S
C130 C129 1.362 . S
C130 C133 1.409 . S
C131 H123 0.930 . S
C131 C132 1.355 . S
C131 C133 1.415 . S
C132 C131 1.355 . S
C132 C134 1.419 1_565 S
C133 C128 1.425 1_565 S
C133 C130 1.409 . S
C133 C131 1.415 . S
C134 H124 0.930 . S
C134 C132 1.419 1_545 S
C134 C135 1.362 . S
C135 H125 0.930 . S
C135 C128 1.409 . S
C135 C134 1.362 . S
H136 C142 0.930 1_455 S
H137 C145 0.930 . S
H138 C146 0.930 . S
H139 C147 0.930 1_655 S
H140 C150 0.930 . S
H141 C151 0.930 . S
C142 H136 0.930 1_655 S
C142 C143 1.355 . S
C142 C144 1.415 1_655 S
C143 C142 1.355 . S
C143 C145 1.419 . S
C144 C142 1.415 1_455 S
C144 C149 1.425 1_455 S
C144 C151 1.409 . S
C145 H137 0.930 . S
C145 C143 1.419 . S
C145 C146 1.362 . S
C146 H138 0.930 . S
C146 C145 1.362 . S
C146 C149 1.409 . S
C147 H139 0.930 1_455 S
C147 C148 1.355 . S
C147 C149 1.415 1_455 S
C148 C147 1.355 . S
C148 C150 1.419 . S
C149 C144 1.425 1_655 S
C149 C146 1.409 . S
C149 C147 1.415 1_655 S
C150 H140 0.930 . S
C150 C148 1.419 . S
C150 C151 1.362 . S
C151 H141 0.930 . S
C151 C144 1.409 . S
C151 C150 1.362 . S
H152 C158 0.930 . S
H153 C161 0.930 1_565 S
H154 C162 0.930 . S
H155 C163 0.930 . S
H156 C166 0.930 1_545 S
H157 C167 0.930 . S
C158 H152 0.930 . S
C158 C159 1.355 . S
C158 C160 1.415 . S
C159 C158 1.355 . S
C159 C161 1.419 . S
C160 C158 1.415 . S
C160 C165 1.425 1_545 S
C160 C167 1.409 . S
C161 H153 0.930 1_545 S
C161 C159 1.419 . S
C161 C162 1.362 1_545 S
C162 H154 0.930 . S
C162 C161 1.362 1_565 S
C162 C165 1.409 . S
C163 H155 0.930 . S
C163 C164 1.355 . S
C163 C165 1.415 . S
C164 C163 1.355 . S
C164 C166 1.419 . S
C165 C160 1.425 1_565 S
C165 C162 1.409 . S
C165 C163 1.415 . S
C166 H156 0.930 1_565 S
C166 C164 1.419 . S
C166 C167 1.362 1_565 S
C167 H157 0.930 . S
C167 C160 1.409 . S
C167 C166 1.362 1_545 S
H168 C174 0.930 . S
H169 C177 0.930 1_565 S
H170 C178 0.930 . S
H171 C179 0.930 . S
H172 C182 0.930 . S
H173 C183 0.930 . S
C174 H168 0.930 . S
C174 C175 1.355 . S
C174 C176 1.415 . S
C175 C174 1.355 . S
C175 C177 1.419 . S
C176 C174 1.415 . S
C176 C181 1.425 . S
C176 C183 1.409 . S
C177 H169 0.930 1_545 S
C177 C175 1.419 . S
C177 C178 1.362 . S
C178 H170 0.930 . S
C178 C177 1.362 . S
C178 C181 1.409 . S
C179 H171 0.930 . S
C179 C180 1.355 . S
C179 C181 1.415 . S
C180 C179 1.355 . S
C180 C182 1.419 . S
C181 C176 1.425 . S
C181 C178 1.409 . S
C181 C179 1.415 . S
C182 H172 0.930 . S
C182 C180 1.419 . S
C182 C183 1.362 . S
C183 H173 0.930 . S
C183 C176 1.409 . S
C183 C182 1.362 . S
H184 C190 0.930 . S
H185 C193 0.930 . S
H186 C194 0.930 . S
H187 C195 0.930 . S
H188 C198 0.930 1_655 S
H189 C199 0.930 . S
C190 H184 0.930 . S
C190 C191 1.355 . S
C190 C192 1.415 . S
C191 C190 1.355 . S
C191 C193 1.419 . S
C192 C190 1.415 . S
C192 C197 1.425 . S
C192 C199 1.409 . S
C193 H185 0.930 . S
C193 C191 1.419 . S
C193 C194 1.362 . S
C194 H186 0.930 . S
C194 C193 1.362 . S
C194 C197 1.409 . S
C195 H187 0.930 . S
C195 C196 1.355 . S
C195 C197 1.415 . S
C196 C195 1.355 . S
C196 C198 1.419 . S
C197 C192 1.425 . S
C197 C194 1.409 . S
C197 C195 1.415 . S
C198 H188 0.930 1_455 S
C198 C196 1.419 . S
C198 C199 1.362 . S
C199 H189 0.930 . S
C199 C192 1.409 . S
C199 C198 1.362 . S
H200 C206 0.926 1_545 S
H201 C209 0.930 . S
H202 C210 0.930 . S
H203 C211 0.930 . S
H204 C214 0.930 . S
H205 C215 0.930 . S
C206 H200 0.926 1_565 S
C206 C207 1.355 . S
C206 C208 1.415 . S
C207 C206 1.355 . S
C207 C209 1.419 . S
C208 C206 1.415 . S
C208 C213 1.425 . S
C208 C215 1.409 . S
C209 H201 0.930 . S
C209 C207 1.419 . S
C209 C210 1.362 . S
C210 H202 0.930 . S
C210 C209 1.362 . S
C210 C213 1.409 . S
C211 H203 0.930 . S
C211 C212 1.355 . S
C211 C213 1.415 . S
C212 C211 1.355 . S
C212 C214 1.419 . S
C213 C208 1.425 . S
C213 C210 1.409 . S
C213 C211 1.415 . S
C214 H204 0.930 . S
C214 C212 1.419 . S
C214 C215 1.362 . S
C215 H205 0.930 . S
C215 C208 1.409 . S
C215 C214 1.362 . S
H216 C222 0.930 . S
H217 C225 0.930 . S
H218 C226 0.930 . S
H219 C227 0.930 1_455 S
H220 C230 0.930 . S
H221 C231 0.930 . S
C222 H216 0.930 . S
C222 C223 1.355 . S
C222 C224 1.415 . S
C223 C222 1.355 . S
C223 C225 1.419 . S
C224 C222 1.415 . S
C224 C229 1.425 . S
C224 C231 1.409 . S
C225 H217 0.930 . S
C225 C223 1.419 . S
C225 C226 1.362 . S
C226 H218 0.930 . S
C226 C225 1.362 . S
C226 C229 1.409 . S
C227 H219 0.930 1_655 S
C227 C228 1.355 . S
C227 C229 1.415 . S
C228 C227 1.355 . S
C228 C230 1.419 . S
C229 C224 1.425 . S
C229 C226 1.409 . S
C229 C227 1.415 . S
C230 H220 0.930 . S
C230 C228 1.419 . S
C230 C231 1.362 . S
C231 H221 0.930 . S
C231 C224 1.409 . S
C231 C230 1.362 . S
H232 C238 0.930 . S
H233 C241 0.930 1_565 S
H234 C242 0.924 1_554 S
H235 C243 0.930 . S
H236 C246 0.930 . S
H237 C247 0.930 . S
C238 H232 0.930 . S
C238 C239 1.355 . S
C238 C240 1.415 . S
C239 C238 1.355 . S
C239 C241 1.419 . S
C240 C238 1.415 . S
C240 C245 1.425 1_556 S
C240 C247 1.409 . S
C241 H233 0.930 1_545 S
C241 C239 1.419 . S
C241 C242 1.372 . S
C242 H234 0.924 1_556 S
C242 C241 1.372 . S
C242 C245 1.406 1_556 S
C243 H235 0.930 . S
C243 C244 1.355 . S
C243 C245 1.415 . S
C244 C243 1.355 . S
C244 C246 1.419 . S
C245 C240 1.425 1_554 S
C245 C242 1.406 1_554 S
C245 C243 1.415 . S
C246 H236 0.930 . S
C246 C244 1.419 . S
C246 C247 1.362 1_554 S
C247 H237 0.930 . S
C247 C240 1.409 . S
C247 C246 1.362 1_556 S
H248 C254 0.930 . S
H249 C257 0.930 . S
H250 C258 0.930 . S
H251 C259 0.930 . S
H252 C262 0.930 1_655 S
H253 C263 0.930 . S
C254 H248 0.930 . S
C254 C255 1.355 . S
C254 C256 1.415 . S
C255 C254 1.355 . S
C255 C257 1.419 . S
C256 C254 1.415 . S
C256 C261 1.425 1_556 S
C256 C263 1.409 . S
C257 H249 0.930 . S
C257 C255 1.419 . S
C257 C258 1.362 1_556 S
C258 H250 0.930 . S
C258 C257 1.362 1_554 S
C258 C261 1.409 . S
C259 H251 0.930 . S
C259 C260 1.355 . S
C259 C261 1.415 . S
C260 C259 1.355 . S
C260 C262 1.419 . S
C261 C256 1.425 1_554 S
C261 C258 1.409 . S
C261 C259 1.415 . S
C262 H252 0.930 1_455 S
C262 C260 1.419 . S
C262 C263 1.362 1_554 S
C263 H253 0.930 . S
C263 C256 1.409 . S
C263 C262 1.362 1_556 S
H264 C270 0.930 . S
H265 C273 0.930 . S
H266 C274 0.930 . S
H267 C275 0.930 . S
H268 C278 0.930 1_545 S
H269 C279 0.930 . S
C270 H264 0.930 . S
C270 C271 1.355 . S
C270 C272 1.415 . S
C271 C270 1.355 . S
C271 C273 1.419 . S
C272 C270 1.415 . S
C272 C277 1.425 1_554 S
C272 C279 1.409 . S
C273 H265 0.930 . S
C273 C271 1.419 . S
C273 C274 1.362 1_554 S
C274 H266 0.930 . S
C274 C273 1.362 1_556 S
C274 C277 1.409 . S
C275 H267 0.930 . S
C275 C276 1.355 . S
C275 C277 1.415 . S
C276 C275 1.355 . S
C276 C278 1.419 . S
C277 C272 1.425 1_556 S
C277 C274 1.409 . S
C277 C275 1.415 . S
C278 H268 0.930 1_565 S
C278 C276 1.419 . S
C278 C279 1.362 1_556 S
C279 H269 0.930 . S
C279 C272 1.409 . S
C279 C278 1.362 1_554 S
H280 C286 0.930 . S
H281 C289 0.930 . S
H282 C290 0.930 . S
H283 C291 0.930 . S
H284 C294 0.930 . S
H285 C295 0.930 . S
C286 H280 0.930 . S
C286 C287 1.355 . S
C286 C288 1.425 . S
C287 C286 1.355 . S
C287 C289 1.419 . S
C288 C286 1.425 . S
C288 C293 1.424 1_556 S
C288 C295 1.400 1_556 S
C289 H281 0.930 . S
C289 C287 1.419 . S
C289 C290 1.362 . S
C290 H282 0.930 . S
C290 C289 1.362 . S
C290 C293 1.409 1_556 S
C291 H283 0.930 . S
C291 C292 1.355 . S
C291 C293 1.415 . S
C292 C291 1.355 . S
C292 C294 1.419 . S
C293 C288 1.424 1_554 S
C293 C290 1.409 1_554 S
C293 C291 1.415 . S
C294 H284 0.930 . S
C294 C292 1.419 . S
C294 C295 1.362 . S
C295 H285 0.930 . S
C295 C288 1.400 1_554 S
C295 C294 1.362 . S
H296 C302 0.930 . S
H297 C305 0.930 . S
H298 C306 0.930 . S
H299 C307 0.930 . S
H300 C310 0.930 . S
H301 C311 0.930 . S
C302 H296 0.930 . S
C302 C303 1.355 . S
C302 C304 1.415 . S
C303 C302 1.355 . S
C303 C305 1.419 . S
C304 C302 1.415 . S
C304 C309 1.425 . S
C304 C311 1.409 . S
C305 H297 0.930 . S
C305 C303 1.419 . S
C305 C306 1.362 . S
C306 H298 0.930 . S
C306 C305 1.362 . S
C306 C309 1.409 . S
C307 H299 0.930 . S
C307 C308 1.355 . S
C307 C309 1.415 . S
C308 C307 1.355 . S
C308 C310 1.419 . S
C309 C304 1.425 . S
C309 C306 1.409 . S
C309 C307 1.415 . S
C310 H300 0.930 . S
C310 C308 1.419 . S
C310 C311 1.362 . S
C311 H301 0.930 . S
C311 C304 1.409 . S
C311 C310 1.362 . S
H312 C318 0.930 . S
H313 C321 0.930 . S
H314 C322 0.930 . S
H315 C323 0.930 . S
H316 C326 0.930 . S
H317 C327 0.930 . S
C318 H312 0.930 . S
C318 C319 1.355 . S
C318 C320 1.415 . S
C319 C318 1.355 . S
C319 C321 1.419 . S
C320 C318 1.415 . S
C320 C325 1.425 . S
C320 C327 1.409 . S
C321 H313 0.930 . S
C321 C319 1.419 . S
C321 C322 1.362 . S
C322 H314 0.930 . S
C322 C321 1.362 . S
C322 C325 1.409 . S
C323 H315 0.930 . S
C323 C324 1.355 . S
C323 C325 1.415 . S
C324 C323 1.355 . S
C324 C326 1.419 . S
C325 C320 1.425 . S
C325 C322 1.409 . S
C325 C323 1.415 . S
C326 H316 0.930 . S
C326 C324 1.419 . S
C326 C327 1.362 . S
C327 H317 0.930 . S
C327 C320 1.409 . S
C327 C326 1.362 . S
H328 C334 0.930 . S
H329 C337 0.930 . S
H330 C338 0.930 . S
H331 C339 0.930 . S
H332 C342 0.930 . S
H333 C343 0.930 . S
C334 H328 0.930 . S
C334 C335 1.355 . S
C334 C336 1.415 . S
C335 C334 1.355 . S
C335 C337 1.419 . S
C336 C334 1.415 . S
C336 C341 1.425 . S
C336 C343 1.409 . S
C337 H329 0.930 . S
C337 C335 1.419 . S
C337 C338 1.362 . S
C338 H330 0.930 . S
C338 C337 1.362 . S
C338 C341 1.409 . S
C339 H331 0.930 . S
C339 C340 1.355 . S
C339 C341 1.415 . S
C340 C339 1.355 . S
C340 C342 1.419 . S
C341 C336 1.425 . S
C341 C338 1.409 . S
C341 C339 1.415 . S
C342 H332 0.930 . S
C342 C340 1.419 . S
C342 C343 1.362 . S
C343 H333 0.930 . S
C343 C336 1.409 . S
C343 C342 1.362 . S
H344 C350 0.930 . S
H345 C353 0.930 . S
H346 C354 0.930 . S
H347 C355 0.930 . S
H348 C358 0.930 . S
H349 C359 0.930 . S
C350 H344 0.930 . S
C350 C351 1.355 . S
C350 C352 1.415 . S
C351 C350 1.355 . S
C351 C353 1.419 . S
C352 C350 1.415 . S
C352 C357 1.425 . S
C352 C359 1.409 . S
C353 H345 0.930 . S
C353 C351 1.419 . S
C353 C354 1.362 . S
C354 H346 0.930 . S
C354 C353 1.362 . S
C354 C357 1.409 . S
C355 H347 0.930 . S
C355 C356 1.355 . S
C355 C357 1.415 . S
C356 C355 1.355 . S
C356 C358 1.419 . S
C357 C352 1.425 . S
C357 C354 1.409 . S
C357 C355 1.415 . S
C358 H348 0.930 . S
C358 C356 1.419 . S
C358 C359 1.362 . S
C359 H349 0.930 . S
C359 C352 1.409 . S
C359 C358 1.362 . S
C111 C36 1.626 . S
C116 C10 1.635 . S
C127 C49 1.583 . S
C132 C23 1.595 . S
C143 C56 1.635 . S
C148 C88 1.626 . S
C159 C75 1.601 . S
C164 C95 1.587 . S
C175 C18 1.178 1_545 S
C180 C3 1.192 . S
C191 C16 1.179 . S
C196 C31 1.171 1_455 S
C207 C44 1.200 1_565 S
C212 C29 1.150 . S
C223 C42 1.183 . S
C228 C5 1.207 1_655 S
C239 C94 1.189 1_545 S
C244 C57 1.202 . S
C255 C68 1.195 . S
C260 C55 1.180 1_455 S
C271 C81 1.137 . S
C276 C70 1.163 1_565 S
C287 C96 1.125 . S
C292 C83 1.176 1_655 S
C303 C4 1.689 . S
C308 C69 1.683 . S
C319 C82 1.687 . S
C324 C17 1.683 . S
C335 C30 1.691 . S
C340 C101 1.702 . S
C351 C43 1.694 . S
C356 C62 1.685 . S
