# Generated by pormake.
# Topology wjw, (5)-cn, num edge types: 1
# Building blocks:
#     Node 0, Type 0, BuildingBlock: XOMCOT_clean_sbu_1, # of connection points: 5
#     Node 1, Type 0, BuildingBlock: XOMCOT_clean_sbu_1, # of connection points: 5
#     Node 2, Type 0, BuildingBlock: XOMCOT_clean_sbu_1, # of connection points: 5
#     Node 3, Type 0, BuildingBlock: XOMCOT_clean_sbu_1, # of connection points: 5
#     Node 4, Type 0, BuildingBlock: XOMCOT_clean_sbu_1, # of connection points: 5
#     Node 5, Type 0, BuildingBlock: XOMCOT_clean_sbu_1, # of connection points: 5
#     Node 6, Type 0, BuildingBlock: XOMCOT_clean_sbu_1, # of connection points: 5
#     Node 7, Type 0, BuildingBlock: XOMCOT_clean_sbu_1, # of connection points: 5
#     Node 8, Type 0, BuildingBlock: XOMCOT_clean_sbu_1, # of connection points: 5
#     Node 9, Type 0, BuildingBlock: XOMCOT_clean_sbu_1, # of connection points: 5
#     Node 10, Type 0, BuildingBlock: XOMCOT_clean_sbu_1, # of connection points: 5
#     Node 11, Type 0, BuildingBlock: XOMCOT_clean_sbu_1, # of connection points: 5
#     Edge 12, Type (0, 0), BuildingBlock: MIFKUJ_clean_linker_0, # of connection points: 2
#     Edge 13, Type (0, 0), BuildingBlock: MIFKUJ_clean_linker_0, # of connection points: 2
#     Edge 14, Type (0, 0), BuildingBlock: MIFKUJ_clean_linker_0, # of connection points: 2
#     Edge 15, Type (0, 0), BuildingBlock: MIFKUJ_clean_linker_0, # of connection points: 2
#     Edge 16, Type (0, 0), BuildingBlock: MIFKUJ_clean_linker_0, # of connection points: 2
#     Edge 17, Type (0, 0), BuildingBlock: MIFKUJ_clean_linker_0, # of connection points: 2
#     Edge 18, Type (0, 0), BuildingBlock: MIFKUJ_clean_linker_0, # of connection points: 2
#     Edge 19, Type (0, 0), BuildingBlock: MIFKUJ_clean_linker_0, # of connection points: 2
#     Edge 20, Type (0, 0), BuildingBlock: MIFKUJ_clean_linker_0, # of connection points: 2
#     Edge 21, Type (0, 0), BuildingBlock: MIFKUJ_clean_linker_0, # of connection points: 2
#     Edge 22, Type (0, 0), BuildingBlock: MIFKUJ_clean_linker_0, # of connection points: 2
#     Edge 23, Type (0, 0), BuildingBlock: MIFKUJ_clean_linker_0, # of connection points: 2
#     Edge 24, Type (0, 0), BuildingBlock: MIFKUJ_clean_linker_0, # of connection points: 2
#     Edge 25, Type (0, 0), BuildingBlock: MIFKUJ_clean_linker_0, # of connection points: 2
#     Edge 26, Type (0, 0), BuildingBlock: MIFKUJ_clean_linker_0, # of connection points: 2
#     Edge 27, Type (0, 0), BuildingBlock: MIFKUJ_clean_linker_0, # of connection points: 2
#     Edge 28, Type (0, 0), BuildingBlock: MIFKUJ_clean_linker_0, # of connection points: 2
#     Edge 29, Type (0, 0), BuildingBlock: MIFKUJ_clean_linker_0, # of connection points: 2
#     Edge 30, Type (0, 0), BuildingBlock: MIFKUJ_clean_linker_0, # of connection points: 2
#     Edge 31, Type (0, 0), BuildingBlock: MIFKUJ_clean_linker_0, # of connection points: 2
#     Edge 32, Type (0, 0), BuildingBlock: MIFKUJ_clean_linker_0, # of connection points: 2
#     Edge 33, Type (0, 0), BuildingBlock: MIFKUJ_clean_linker_0, # of connection points: 2
#     Edge 34, Type (0, 0), BuildingBlock: MIFKUJ_clean_linker_0, # of connection points: 2
#     Edge 35, Type (0, 0), BuildingBlock: MIFKUJ_clean_linker_0, # of connection points: 2
#     Edge 36, Type (0, 0), BuildingBlock: MIFKUJ_clean_linker_0, # of connection points: 2
#     Edge 37, Type (0, 0), BuildingBlock: MIFKUJ_clean_linker_0, # of connection points: 2
#     Edge 38, Type (0, 0), BuildingBlock: MIFKUJ_clean_linker_0, # of connection points: 2
#     Edge 39, Type (0, 0), BuildingBlock: MIFKUJ_clean_linker_0, # of connection points: 2
#     Edge 40, Type (0, 0), BuildingBlock: MIFKUJ_clean_linker_0, # of connection points: 2
#     Edge 41, Type (0, 0), BuildingBlock: MIFKUJ_clean_linker_0, # of connection points: 2
# Relax obj value: 0.184
# Max RMSD: 0.164
# Mean RMSD: 0.161
data_MOF--net-wjw--node1-XOMCOT_clean_sbu_1--edge1-MIFKUJ_clean_linker_0
_symmetry_space_group_name_H-M    P1
_symmetry_Int_Tables_number       1
_symmetry_cell_setting            triclinic
loop_
_symmetry_equiv_pos_as_xyz
'x, y, z'
_cell_length_a     50.41314
_cell_length_b     50.418746
_cell_length_c     48.561599
_cell_angle_alpha  90.031299
_cell_angle_beta   90.031844
_cell_angle_gamma 120.01207
loop_
_atom_site_label
_atom_site_type_symbol
_atom_site_fract_x
_atom_site_fract_y
_atom_site_fract_z
_atom_type_partial_charge
C0 C 0.19709 0.39897 0.28805 0.0
C1 C 0.2144 0.38508 0.28436 0.0
N2 N 0.20265 0.35986 0.30032 0.0
N3 N 0.17471 0.38271 0.30641 0.0
C4 C 0.17842 0.35878 0.31318 0.0
H5 H 0.20137 0.42033 0.27894 0.0
Co6 Co 0.14836 0.39449 0.322 0.0
C7 C 0.12478 0.35136 0.37003 0.0
O8 O 0.09589 0.34116 0.36387 0.0
N9 N 0.12223 0.40666 0.33778 0.0
C10 C 0.10049 0.42276 0.36821 0.0
C11 C 0.12093 0.41259 0.36471 0.0
C12 C 0.10293 0.41418 0.3252 0.0
N13 N 0.08922 0.42383 0.34336 0.0
O14 O 0.11414 0.36011 0.30473 0.0
H15 H 0.13475 0.41069 0.38076 0.0
H16 H 0.09938 0.41309 0.30316 0.0
O17 O 0.14581 0.37152 0.3549 0.0
C18 C 0.11438 0.36754 0.27955 0.0
O19 O 0.13537 0.39514 0.27172 0.0
N20 N 0.18204 0.42926 0.33621 0.0
C21 C 0.23616 0.48378 0.34637 0.0
C22 C 0.23045 0.45651 0.35929 0.0
C23 C 0.20319 0.42932 0.35383 0.0
C24 C 0.18681 0.45561 0.32409 0.0
C25 C 0.21363 0.48317 0.329 0.0
H26 H 0.19991 0.40824 0.36264 0.0
H27 H 0.17026 0.4549 0.3095 0.0
H28 H 0.16474 0.3418 0.32846 0.0
H29 H 0.2346 0.3934 0.27159 0.0
H30 H 0.0953 0.43009 0.38742 0.0
H31 H 0.24726 0.45601 0.37285 0.0
H32 H 0.21731 0.50347 0.31809 0.0
C33 C 0.79939 0.18696 0.61963 0.0
C34 C 0.83079 0.20384 0.61757 0.0
N35 N 0.84288 0.19249 0.63562 0.0
N36 N 0.79168 0.16518 0.639 0.0
C37 C 0.81869 0.16885 0.64809 0.0
H38 H 0.7832 0.19121 0.60866 0.0
Co39 Co 0.75213 0.14025 0.65272 0.0
C40 C 0.76613 0.11537 0.70323 0.0
O41 O 0.74614 0.08678 0.69718 0.0
N42 N 0.71243 0.11568 0.66658 0.0
C43 C 0.67229 0.09601 0.69468 0.0
C44 C 0.70331 0.11555 0.69273 0.0
C45 C 0.68636 0.09655 0.65283 0.0
N46 N 0.66159 0.0841 0.66957 0.0
O47 O 0.75147 0.10491 0.63714 0.0
H48 H 0.71814 0.12948 0.70927 0.0
H49 H 0.68551 0.09209 0.63096 0.0
O50 O 0.76959 0.13683 0.68717 0.0
C51 C 0.74666 0.10523 0.61136 0.0
O52 O 0.74255 0.12722 0.60159 0.0
N53 N 0.75203 0.17503 0.6652 0.0
C54 C 0.75501 0.23124 0.67145 0.0
C55 C 0.77392 0.22408 0.68723 0.0
C56 C 0.77225 0.19576 0.68363 0.0
C57 C 0.73265 0.18112 0.65062 0.0
C58 C 0.73362 0.20903 0.65354 0.0
H59 H 0.78838 0.19136 0.69444 0.0
H60 H 0.71733 0.1647 0.63564 0.0
H61 H 0.82074 0.15566 0.66466 0.0
H62 H 0.84372 0.22351 0.60441 0.0
H63 H 0.65848 0.09174 0.71298 0.0
H64 H 0.791 0.2408 0.70102 0.0
H65 H 0.71841 0.21356 0.64121 0.0
C66 C 0.62413 0.80039 0.94441 0.0
C67 C 0.64285 0.83164 0.94306 0.0
N68 N 0.65157 0.84252 0.96883 0.0
N69 N 0.6212 0.79132 0.97089 0.0
C70 C 0.6381 0.81754 0.98523 0.0
H71 H 0.61286 0.78551 0.9271 0.0
Co72 Co 0.59643 0.75154 0.98445 0.0
C73 C 0.62678 0.7508 0.03697 0.0
O74 O 0.62144 0.72282 0.03276 0.0
N75 N 0.57089 0.71143 0.99825 0.0
C76 C 0.53831 0.67325 0.02524 0.0
C77 C 0.55509 0.70448 0.02216 0.0
C78 C 0.56321 0.68378 0.98722 0.0
N79 N 0.54342 0.66021 1.00322 0.0
O80 O 0.62425 0.73989 0.969 0.0
H81 H 0.55594 0.7211 0.03673 0.0
H82 H 0.57149 0.6807 0.96767 0.0
O83 O 0.61845 0.76378 0.01923 0.0
C84 C 0.6149 0.73137 0.94438 0.0
O85 O 0.58885 0.72933 0.93697 0.0
N86 N 0.5684 0.76275 0.99636 0.0
C87 C 0.52333 0.77832 1.00484 0.0
C88 C 0.5481 0.78843 0.02318 0.0
C89 C 0.57064 0.7805 0.01849 0.0
C90 C 0.54445 0.75257 0.97857 0.0
C91 C 0.52159 0.75994 0.98245 0.0
H92 H 0.58989 0.78896 0.03242 0.0
H93 H 0.54329 0.73874 0.96107 0.0
H94 H 0.6395 0.81842 0.00743 0.0
H95 H 0.64917 0.84515 0.92441 0.0
H96 H 0.52391 0.66111 0.04263 0.0
H97 H 0.55035 0.80282 0.04061 0.0
H98 H 0.50261 0.75116 0.96808 0.0
C99 C 0.82376 0.61883 0.28189 0.0
C100 C 0.8079 0.63416 0.27786 0.0
N101 N 0.81088 0.65077 0.30062 0.0
N102 N 0.8368 0.62574 0.30704 0.0
C103 C 0.8287 0.64539 0.31787 0.0
H104 H 0.82487 0.60284 0.26775 0.0
Co105 Co 0.85772 0.6078 0.32303 0.0
C106 C 0.87925 0.64859 0.37304 0.0
O107 O 0.90749 0.66547 0.36419 0.0
N108 N 0.87853 0.58941 0.33933 0.0
C109 C 0.89235 0.56609 0.37024 0.0
C110 C 0.87595 0.5807 0.36594 0.0
C111 C 0.89646 0.57944 0.32782 0.0
N112 N 0.90518 0.5651 0.34622 0.0
O113 O 0.89566 0.64145 0.31027 0.0
H114 H 0.8622 0.58386 0.38124 0.0
H115 H 0.90207 0.58153 0.30618 0.0
O116 O 0.85935 0.62705 0.35805 0.0
C117 C 0.89947 0.63348 0.28631 0.0
O118 O 0.87899 0.60638 0.27696 0.0
N119 N 0.82043 0.57395 0.33249 0.0
C120 C 0.76354 0.5212 0.33819 0.0
C121 C 0.76997 0.54832 0.35188 0.0
C122 C 0.79859 0.57463 0.34858 0.0
C123 C 0.81457 0.54792 0.31898 0.0
C124 C 0.78637 0.52124 0.32166 0.0
H125 H 0.8027 0.59569 0.35812 0.0
H126 H 0.83171 0.54815 0.30544 0.0
H127 H 0.83437 0.65438 0.33857 0.0
H128 H 0.79475 0.63268 0.25972 0.0
H129 H 0.89442 0.55675 0.38965 0.0
H130 H 0.75296 0.54933 0.36475 0.0
H131 H 0.78218 0.50112 0.31011 0.0
C132 C 0.20088 0.80904 0.61485 0.0
C133 C 0.16956 0.7942 0.61137 0.0
N134 N 0.15775 0.80423 0.63092 0.0
N135 N 0.20873 0.82845 0.63639 0.0
C136 C 0.18196 0.82514 0.64558 0.0
H137 H 0.21682 0.80514 0.60308 0.0
Co138 Co 0.24799 0.85158 0.65133 0.0
C139 C 0.23339 0.87656 0.70152 0.0
O140 O 0.25385 0.90515 0.69601 0.0
N141 N 0.28743 0.87441 0.6663 0.0
C142 C 0.32652 0.89104 0.6954 0.0
C143 C 0.29529 0.8739 0.69276 0.0
C144 C 0.31441 0.89173 0.65314 0.0
N145 N 0.33872 0.90212 0.67042 0.0
O146 O 0.25078 0.88802 0.63636 0.0
H147 H 0.27945 0.86093 0.70904 0.0
H148 H 0.31622 0.8954 0.63111 0.0
O149 O 0.23014 0.8552 0.68541 0.0
C150 C 0.25688 0.88866 0.6108 0.0
O151 O 0.26114 0.86684 0.60081 0.0
N152 N 0.24595 0.81567 0.66346 0.0
C153 C 0.24255 0.75944 0.67171 0.0
C154 C 0.22324 0.76706 0.68632 0.0
C155 C 0.22522 0.79538 0.68182 0.0
C156 C 0.2651 0.80884 0.64942 0.0
C157 C 0.26393 0.78095 0.65332 0.0
H158 H 0.20929 0.80035 0.69222 0.0
H159 H 0.28066 0.8248 0.63432 0.0
H160 H 0.18002 0.8374 0.66302 0.0
H161 H 0.15639 0.77637 0.59649 0.0
H162 H 0.33919 0.89456 0.71432 0.0
H163 H 0.20635 0.75105 0.70061 0.0
H164 H 0.27873 0.77579 0.64108 0.0
C165 C 0.39013 0.19828 0.95307 0.0
C166 C 0.37134 0.16696 0.95168 0.0
N167 N 0.34969 0.15844 0.97131 0.0
N168 N 0.38032 0.20941 0.97344 0.0
C169 C 0.35545 0.18465 0.98391 0.0
H170 H 0.41047 0.21191 0.94088 0.0
Co171 Co 0.39998 0.2496 0.98661 0.0
C172 C 0.36531 0.24142 0.0388 0.0
O173 O 0.35963 0.26352 0.03287 0.0
N174 N 0.41979 0.28983 1.00018 0.0
C175 C 0.44675 0.32972 0.02764 0.0
C176 C 0.43326 0.29853 0.02512 0.0
C177 C 0.42545 0.31622 0.98785 0.0
N178 N 0.44193 0.34092 1.00417 0.0
O179 O 0.36708 0.25454 0.97253 0.0
H180 H 0.43353 0.28314 0.04048 0.0
H181 H 0.41824 0.31741 0.96712 0.0
O182 O 0.38049 0.23473 0.02202 0.0
C183 C 0.3718 0.2589 0.94666 0.0
O184 O 0.39655 0.26027 0.93634 0.0
N185 N 0.43306 0.24527 0.9975 0.0
C186 C 0.48417 0.23877 0.00528 0.0
C187 C 0.4566 0.21933 0.01888 0.0
C188 C 0.43117 0.22299 0.01473 0.0
C189 C 0.4596 0.2642 0.98404 0.0
C190 C 0.48557 0.26162 0.9879 0.0
H191 H 0.40974 0.2072 0.02448 0.0
H192 H 0.46036 0.28097 0.9697 0.0
H193 H 0.34219 0.18563 1.00096 0.0
H194 H 0.37441 0.15154 0.93828 0.0
H195 H 0.45892 0.34308 0.04554 0.0
H196 H 0.45462 0.20126 0.03228 0.0
H197 H 0.50623 0.27661 0.97654 0.0
C198 C 0.60932 0.8127 0.38727 0.0
C199 C 0.62323 0.79527 0.38964 0.0
N200 N 0.64457 0.80381 0.3697 0.0
N201 N 0.62183 0.83223 0.36599 0.0
C202 C 0.64342 0.82645 0.35587 0.0
H203 H 0.59038 0.81038 0.39954 0.0
Co204 Co 0.60724 0.85707 0.35197 0.0
C205 C 0.64488 0.88341 0.30134 0.0
O206 O 0.64944 0.91097 0.30641 0.0
N207 N 0.59191 0.88147 0.33776 0.0
C208 C 0.56905 0.89836 0.3094 0.0
C209 C 0.58044 0.87887 0.31215 0.0
C210 C 0.58676 0.90244 0.35037 0.0
N211 N 0.57298 0.91327 0.33343 0.0
O212 O 0.64136 0.8923 0.36843 0.0
H213 H 0.57963 0.86312 0.2966 0.0
H214 H 0.59257 0.9093 0.37162 0.0
O215 O 0.6291 0.86146 0.31784 0.0
C216 C 0.63405 0.89162 0.3937 0.0
O217 O 0.60659 0.87035 0.40153 0.0
N218 N 0.5729 0.82228 0.33881 0.0
C219 C 0.51874 0.76774 0.32903 0.0
C220 C 0.54564 0.77448 0.31477 0.0
C221 C 0.57268 0.80203 0.32001 0.0
C222 C 0.547 0.81621 0.35262 0.0
C223 C 0.51962 0.78922 0.3479 0.0
H224 H 0.59354 0.80647 0.30978 0.0
H225 H 0.54792 0.83213 0.36806 0.0
H226 H 0.65694 0.83743 0.33777 0.0
H227 H 0.61749 0.77722 0.40451 0.0
H228 H 0.55764 0.90045 0.29134 0.0
H229 H 0.5459 0.7584 0.30013 0.0
H230 H 0.49965 0.78464 0.35987 0.0
C231 C 0.80324 0.61091 0.7311 0.0
C232 C 0.83467 0.62735 0.73305 0.0
N233 N 0.84534 0.64958 0.71382 0.0
N234 N 0.79412 0.62263 0.71066 0.0
C235 C 0.82026 0.64645 0.70083 0.0
H236 H 0.78809 0.59065 0.74279 0.0
Co237 Co 0.75446 0.60454 0.69635 0.0
C238 C 0.76543 0.64129 0.64502 0.0
O239 O 0.74311 0.64688 0.65021 0.0
N240 N 0.7147 0.58588 0.68192 0.0
C241 C 0.67514 0.55858 0.65422 0.0
C242 C 0.70645 0.57354 0.65651 0.0
C243 C 0.68795 0.57817 0.69473 0.0
N244 N 0.66348 0.56138 0.67828 0.0
O245 O 0.75009 0.63761 0.71045 0.0
H246 H 0.72218 0.57443 0.64091 0.0
H247 H 0.68634 0.58353 0.71603 0.0
O248 O 0.77099 0.62518 0.66169 0.0
C249 C 0.74561 0.63357 0.73634 0.0
O250 O 0.74417 0.60915 0.7475 0.0
N251 N 0.75806 0.57124 0.68514 0.0
C252 C 0.76399 0.51969 0.67858 0.0
C253 C 0.78174 0.54603 0.66272 0.0
C254 C 0.7786 0.57183 0.66647 0.0
C255 C 0.74023 0.54567 0.70024 0.0
C256 C 0.74267 0.51956 0.69717 0.0
H257 H 0.7935 0.59248 0.65522 0.0
H258 H 0.7246 0.54594 0.71534 0.0
H259 H 0.82116 0.66004 0.68327 0.0
H260 H 0.84862 0.62252 0.74681 0.0
H261 H 0.66189 0.54623 0.63632 0.0
H262 H 0.79874 0.54711 0.64844 0.0
H263 H 0.72829 0.49958 0.70956 0.0
C264 C 0.17014 0.80096 0.06479 0.0
C265 C 0.18265 0.83203 0.06838 0.0
N266 N 0.17697 0.84368 0.04561 0.0
N267 N 0.15654 0.79296 0.03992 0.0
C268 C 0.16085 0.81941 0.02882 0.0
H269 H 0.17205 0.78538 0.07887 0.0
Co270 Co 0.1403 0.75415 0.02429 0.0
C271 C 0.1162 0.76088 0.97064 0.0
O272 O 0.08954 0.73635 0.97537 0.0
N273 N 0.12436 0.71483 0.0085 0.0
C274 C 0.1183 0.67796 0.97961 0.0
C275 C 0.1333 0.70898 0.98414 0.0
C276 C 0.10403 0.68679 0.0185 0.0
N277 N 0.0998 0.6639 1.00124 0.0
O278 O 0.10018 0.74527 0.03531 0.0
H279 H 0.15016 0.72623 0.97065 0.0
H280 H 0.0926 0.6831 0.03809 0.0
O281 O 0.13728 0.77014 0.98877 0.0
C282 C 0.09654 0.7347 0.05974 0.0
O283 O 0.11831 0.73094 0.07062 0.0
N284 N 0.1798 0.76251 0.01653 0.0
C285 C 0.24021 0.77532 0.01502 0.0
C286 C 0.23061 0.79164 0.99827 0.0
C287 C 0.20018 0.78503 0.99949 0.0
C288 C 0.18861 0.74615 0.03255 0.0
C289 C 0.21865 0.75201 0.03198 0.0
H290 H 0.19341 0.79873 0.98755 0.0
H291 H 0.17225 0.72887 0.04634 0.0
H292 H 0.15307 0.82104 0.0085 0.0
H293 H 0.19628 0.84517 0.08581 0.0
H294 H 0.12155 0.66669 0.96205 0.0
H295 H 0.24667 0.81005 0.98515 0.0
H296 H 0.22499 0.73858 0.04495 0.0
C297 C 0.39468 0.19321 0.39365 0.0
C298 C 0.3805 0.21022 0.3973 0.0
N299 N 0.35613 0.19913 0.38032 0.0
N300 N 0.37948 0.17167 0.37427 0.0
C301 C 0.35582 0.17557 0.36682 0.0
H302 H 0.41576 0.19737 0.40333 0.0
Co303 Co 0.39366 0.14731 0.35845 0.0
C304 C 0.35322 0.12134 0.30903 0.0
O305 O 0.34759 0.09337 0.31396 0.0
N306 N 0.40855 0.12336 0.3425 0.0
C307 C 0.43084 0.10736 0.31262 0.0
C308 C 0.41808 0.12557 0.31622 0.0
C309 C 0.41612 0.10385 0.35458 0.0
N310 N 0.4297 0.09361 0.33676 0.0
O311 O 0.36077 0.1118 0.37562 0.0
H312 H 0.41706 0.14056 0.30087 0.0
H313 H 0.4125 0.09799 0.37619 0.0
O314 O 0.37006 0.14299 0.32548 0.0
C315 C 0.36908 0.11262 0.40061 0.0
O316 O 0.39648 0.13455 0.40793 0.0
N317 N 0.42695 0.18239 0.34433 0.0
C318 C 0.47967 0.23754 0.33262 0.0
C319 C 0.45155 0.23045 0.32059 0.0
C320 C 0.4253 0.20263 0.32673 0.0
C321 C 0.45404 0.1888 0.35604 0.0
C322 C 0.48073 0.21611 0.3503 0.0
H323 H 0.40358 0.19803 0.31828 0.0
H324 H 0.45466 0.17293 0.37066 0.0
H325 H 0.33987 0.16286 0.35048 0.0
H326 H 0.38824 0.23002 0.41056 0.0
H327 H 0.44153 0.10571 0.29389 0.0
H328 H 0.44972 0.2465 0.30709 0.0
H329 H 0.50172 0.22094 0.36065 0.0
C330 C 0.20266 0.39103 0.72385 0.0
C331 C 0.17136 0.3757 0.72695 0.0
N332 N 0.15923 0.35159 0.70963 0.0
N333 N 0.21026 0.3768 0.70452 0.0
C334 C 0.1833 0.35258 0.69646 0.0
H335 H 0.21878 0.41217 0.73396 0.0
Co336 Co 0.24956 0.39281 0.68987 0.0
C337 C 0.23881 0.35289 0.64071 0.0
O338 O 0.26185 0.34866 0.6467 0.0
N339 N 0.28922 0.40961 0.67521 0.0
C340 C 0.32867 0.43461 0.64685 0.0
C341 C 0.29736 0.41973 0.64914 0.0
C342 C 0.3161 0.41869 0.68842 0.0
N343 N 0.34047 0.43409 0.67158 0.0
O344 O 0.2536 0.36099 0.70768 0.0
H345 H 0.28157 0.41761 0.63304 0.0
H346 H 0.31791 0.41561 0.71025 0.0
O347 O 0.23231 0.36895 0.65659 0.0
C348 C 0.26035 0.36946 0.73272 0.0
O349 O 0.26414 0.39629 0.73985 0.0
N350 N 0.24627 0.42509 0.67508 0.0
C351 C 0.24149 0.47622 0.66189 0.0
C352 C 0.22147 0.4476 0.65009 0.0
C353 C 0.22426 0.42218 0.65694 0.0
C354 C 0.26585 0.45265 0.68672 0.0
C355 C 0.26409 0.47857 0.68021 0.0
H356 H 0.20797 0.40006 0.64855 0.0
H357 H 0.28241 0.45427 0.70179 0.0
H358 H 0.18109 0.3371 0.68004 0.0
H359 H 0.15843 0.38239 0.74019 0.0
H360 H 0.34181 0.44558 0.62852 0.0
H361 H 0.20347 0.44477 0.63616 0.0
H362 H 0.27947 0.5 0.69038 0.0
C363 C 0.82397 0.20298 0.06199 0.0
C364 C 0.8089 0.17173 0.06583 0.0
N365 N 0.81604 0.15913 0.04472 0.0
N366 N 0.84069 0.21001 0.03869 0.0
C367 C 0.83553 0.1828 0.02877 0.0
H368 H 0.82179 0.2194 0.0747 0.0
Co369 Co 0.86215 0.24886 0.02275 0.0
C370 C 0.88607 0.23643 0.97083 0.0
O371 O 0.91398 0.25926 0.97506 0.0
N372 N 0.88328 0.28796 0.00678 0.0
C373 C 0.89673 0.32604 0.97704 0.0
C374 C 0.87846 0.29514 0.9812 0.0
C375 C 0.90432 0.31505 0.01794 0.0
N376 N 0.91305 0.33865 1.00015 0.0
O377 O 0.89977 0.25315 0.03677 0.0
H378 H 0.86215 0.27897 0.96662 0.0
H379 H 0.91293 0.31747 0.03873 0.0
O380 O 0.86509 0.23072 0.98838 0.0
C381 C 0.90106 0.2605 0.06209 0.0
O382 O 0.87986 0.26586 0.07179 0.0
N383 N 0.82505 0.24508 0.0118 0.0
C384 C 0.76711 0.23829 0.00548 0.0
C385 C 0.77512 0.21907 0.99125 0.0
C386 C 0.80427 0.22272 0.99483 0.0
C387 C 0.81791 0.26433 0.02531 0.0
C388 C 0.78916 0.26153 0.02227 0.0
H389 H 0.8095 0.20669 0.98496 0.0
H390 H 0.83443 0.28142 0.03918 0.0
H391 H 0.84512 0.18011 0.00979 0.0
H392 H 0.7926 0.15915 0.08197 0.0
H393 H 0.89719 0.33838 0.95865 0.0
H394 H 0.75861 0.20054 0.97845 0.0
H395 H 0.78409 0.2771 0.03337 0.0
H396 H 0.88882 0.23517 0.11235 0.0
H397 H 0.92508 0.24379 0.14926 0.0
H398 H 1.00032 0.29662 0.09393 0.0
H399 H 0.96362 0.28715 0.05637 0.0
H400 H 0.01385 0.2635 0.13185 0.0
H401 H 0.97451 0.33262 0.13367 0.0
H402 H 0.93427 0.34683 0.13352 0.0
H403 H 0.89743 0.29692 0.20867 0.0
H404 H 0.9372 0.28201 0.20903 0.0
H405 H 0.12398 0.36875 0.22484 0.0
H406 H 0.08699 0.34028 0.18886 0.0
H407 H 0.01783 0.29101 0.25038 0.0
H408 H 0.05528 0.31986 0.28696 0.0
H409 H 0.99936 0.31736 0.21096 0.0
H410 H 0.04414 0.25353 0.2111 0.0
H411 H 0.08611 0.24182 0.21059 0.0
H412 H 0.11509 0.28468 0.13144 0.0
H413 H 0.07357 0.29708 0.13163 0.0
C414 C 0.91312 0.24799 0.10787 0.0
C415 C 0.92353 0.26071 0.08165 0.0
C416 C 0.93381 0.25298 0.129 0.0
C417 C 0.96539 0.27147 0.12457 0.0
C418 C 0.97601 0.2824 0.09782 0.0
C419 C 0.95513 0.27696 0.07639 0.0
C420 C 0.98668 0.28168 0.14851 0.0
C421 C 0.01089 0.2755 0.14905 0.0
C422 C 0.98242 0.2968 0.17126 0.0
C423 C 0.95863 0.30594 0.17122 0.0
C424 C 0.95769 0.32449 0.15005 0.0
C425 C 0.93499 0.33269 0.14994 0.0
C426 C 0.91326 0.32271 0.17103 0.0
C427 C 0.91425 0.30459 0.19232 0.0
C428 C 0.93687 0.29626 0.1925 0.0
C429 C 0.10103 0.35151 0.23083 0.0
C430 C 0.09245 0.34664 0.25873 0.0
C431 C 0.07994 0.33506 0.21017 0.0
C432 C 0.04967 0.31332 0.21685 0.0
C433 C 0.04116 0.30759 0.24478 0.0
C434 C 0.06252 0.32393 0.26564 0.0
C435 C 0.02662 0.2992 0.19443 0.0
C436 C 0.00211 0.3049 0.19403 0.0
C437 C 0.0309 0.28399 0.17176 0.0
C438 C 0.05582 0.27641 0.17147 0.0
C439 C 0.05959 0.26067 0.19366 0.0
C440 C 0.08329 0.25387 0.19342 0.0
C441 C 0.10329 0.26255 0.17102 0.0
C442 C 0.09958 0.27798 0.14878 0.0
C443 C 0.07594 0.28486 0.14893 0.0
H444 H 0.12162 0.25727 0.17087 0.0
H445 H 0.8957 0.32909 0.17091 0.0
H446 H 0.63589 0.8787 0.4471 0.0
H447 H 0.66313 0.91417 0.48448 0.0
H448 H 0.7062 0.98841 0.42626 0.0
H449 H 0.679 0.95238 0.38821 0.0
H450 H 0.74523 0.99329 0.47044 0.0
H451 H 0.64457 0.97827 0.45775 0.0
H452 H 0.58852 0.94845 0.45182 0.0
H453 H 0.57924 0.90741 0.5313 0.0
H454 H 0.63534 0.93659 0.5375 0.0
H455 H 0.76582 0.11467 0.5587 0.0
H456 H 0.75493 0.07632 0.52326 0.0
H457 H 0.71171 0.00466 0.58389 0.0
H458 H 0.72286 0.04344 0.61981 0.0
H459 H 0.67459 0.99721 0.53937 0.0
H460 H 0.77661 0.01675 0.55293 0.0
H461 H 0.83264 0.04845 0.55801 0.0
H462 H 0.83947 0.08385 0.47633 0.0
H463 H 0.7834 0.05271 0.47089 0.0
C464 C 0.65153 0.9025 0.44212 0.0
C465 C 0.65503 0.91291 0.4148 0.0
C466 C 0.66709 0.92275 0.46354 0.0
C467 C 0.68616 0.95403 0.45826 0.0
C468 C 0.69143 0.96433 0.43078 0.0
C469 C 0.67596 0.94381 0.40909 0.0
C470 C 0.69812 0.97584 0.48176 0.0
C471 C 0.72985 0.99446 0.48536 0.0
C472 C 0.67799 0.97687 0.50154 0.0
C473 C 0.6442 0.95938 0.49796 0.0
C474 C 0.63061 0.96268 0.47386 0.0
C475 C 0.59883 0.94592 0.47046 0.0
C476 C 0.58034 0.92598 0.49114 0.0
C477 C 0.5936 0.92282 0.51528 0.0
C478 C 0.62539 0.93947 0.51875 0.0
C479 C 0.75464 0.09076 0.56464 0.0
C480 C 0.74511 0.08195 0.59196 0.0
C481 C 0.74857 0.06887 0.54436 0.0
C482 C 0.73262 0.03761 0.55088 0.0
C483 C 0.7242 0.02871 0.57845 0.0
C484 C 0.73071 0.0508 0.59896 0.0
C485 C 0.72178 0.01463 0.52829 0.0
C486 C 0.69009 0.99586 0.52469 0.0
C487 C 0.74198 0.01383 0.50843 0.0
C488 C 0.77574 0.03254 0.51159 0.0
C489 C 0.79002 0.03148 0.53613 0.0
C490 C 0.8218 0.04931 0.53906 0.0
C491 C 0.8396 0.0682 0.51753 0.0
C492 C 0.82565 0.06923 0.493 0.0
C493 C 0.79387 0.05145 0.48996 0.0
H494 H 0.8642 0.08199 0.51984 0.0
H495 H 0.55573 0.91304 0.48848 0.0
H496 H 0.66679 0.7263 0.95125 0.0
H497 H 0.69406 0.71497 0.91519 0.0
H498 H 0.6299 0.7117 0.85454 0.0
H499 H 0.60255 0.72207 0.88995 0.0
H500 H 0.63761 0.66517 0.8475 0.0
H501 H 0.70422 0.77359 0.86088 0.0
H502 H 0.73716 0.82037 0.88761 0.0
H503 H 0.79637 0.78511 0.90884 0.0
H504 H 0.76351 0.73791 0.88252 0.0
H505 H 0.7119 0.66146 0.72585 0.0
H506 H 0.69472 0.68538 0.76041 0.0
H507 H 0.75076 0.6751 0.82185 0.0
H508 H 0.76753 0.65105 0.78768 0.0
H509 H 0.74874 0.72959 0.82828 0.0
H510 H 0.68084 0.62076 0.81644 0.0
H511 H 0.64807 0.57402 0.7896 0.0
H512 H 0.59105 0.61082 0.7653 0.0
H513 H 0.62384 0.65807 0.79166 0.0
C514 C 0.65861 0.72313 0.93021 0.0
C515 C 0.6324 0.7249 0.92356 0.0
C516 C 0.67425 0.71682 0.9096 0.0
C517 C 0.6641 0.71261 0.88205 0.0
C518 C 0.63811 0.71464 0.87557 0.0
C519 C 0.62247 0.72063 0.89598 0.0
C520 C 0.67968 0.70535 0.85973 0.0
C521 C 0.66184 0.67957 0.84314 0.0
C522 C 0.71141 0.72371 0.85423 0.0
C523 C 0.73123 0.75209 0.86999 0.0
C524 C 0.72413 0.77571 0.87143 0.0
C525 C 0.74281 0.80232 0.88647 0.0
C526 C 0.76879 0.80567 0.89998 0.0
C527 C 0.7762 0.78246 0.8984 0.0
C528 C 0.75757 0.75578 0.88342 0.0
C529 C 0.72125 0.66531 0.7465 0.0
C530 C 0.74087 0.65439 0.75424 0.0
C531 C 0.71135 0.67876 0.76623 0.0
C532 C 0.72127 0.68169 0.79375 0.0
C533 C 0.74286 0.67309 0.80079 0.0
C534 C 0.75233 0.65929 0.78128 0.0
C535 C 0.70647 0.68989 0.81595 0.0
C536 C 0.72446 0.71552 0.8326 0.0
C537 C 0.67482 0.67151 0.82151 0.0
C538 C 0.65498 0.64308 0.80577 0.0
C539 C 0.66147 0.61901 0.80518 0.0
C540 C 0.64288 0.59241 0.79009 0.0
C541 C 0.61753 0.58948 0.77573 0.0
C542 C 0.61072 0.61315 0.77642 0.0
C543 C 0.6293 0.63984 0.79143 0.0
H544 H 0.60308 0.5688 0.7642 0.0
H545 H 0.78323 0.82629 0.91161 0.0
H546 H 0.06524 0.68325 0.08922 0.0
H547 H 0.02761 0.67302 0.12512 0.0
H548 H 0.02966 0.75754 0.1058 0.0
H549 H 0.06768 0.76781 0.06927 0.0
H550 H 0.03856 0.75113 0.16217 0.0
H551 H 0.9651 0.69296 0.09365 0.0
H552 H 0.94266 0.65654 0.05507 0.0
H553 H 0.93594 0.58402 0.10626 0.0
H554 H 0.95875 0.62007 0.14505 0.0
H555 H 0.91972 0.69289 0.27057 0.0
H556 H 0.95164 0.71805 0.22978 0.0
H557 H 0.96723 0.64191 0.21955 0.0
H558 H 0.93536 0.6169 0.25965 0.0
H559 H 0.94238 0.65195 0.17384 0.0
H560 H 0.02436 0.71203 0.23874 0.0
H561 H 0.04832 0.74827 0.27725 0.0
H562 H 0.03913 0.81685 0.2328 0.0
H563 H 0.01472 0.78084 0.19414 0.0
C564 C 0.05699 0.69922 0.09207 0.0
C565 C 0.069 0.72611 0.07636 0.0
C566 C 0.03552 0.69339 0.11262 0.0
C567 C 0.0257 0.71445 0.11812 0.0
C568 C 0.03685 0.74095 0.1018 0.0
C569 C 0.05821 0.74661 0.08079 0.0
C570 C 0.00561 0.70917 0.14231 0.0
C571 C 0.01706 0.72982 0.16451 0.0
C572 C 0.97779 0.68123 0.14548 0.0
C573 C 0.96373 0.65929 0.12227 0.0
C574 C 0.959 0.66928 0.09666 0.0
C575 C 0.94618 0.64869 0.07474 0.0
C576 C 0.93789 0.61799 0.07821 0.0
C577 C 0.94234 0.6078 0.10361 0.0
C578 C 0.95515 0.6283 0.12559 0.0
C579 C 0.93104 0.68227 0.26017 0.0
C580 C 0.92533 0.65311 0.2682 0.0
C581 C 0.949 0.69647 0.23677 0.0
C582 C 0.96146 0.68162 0.22139 0.0
C583 C 0.95758 0.65362 0.23087 0.0
C584 C 0.93962 0.63948 0.25393 0.0
C585 C 0.97609 0.69318 0.19411 0.0
C586 C 0.96344 0.67364 0.1713 0.0
C587 C 0.00275 0.72206 0.19048 0.0
C588 C 0.01733 0.74362 0.21373 0.0
C589 C 0.02716 0.73473 0.2373 0.0
C590 C 0.04089 0.75525 0.25912 0.0
C591 C 0.04514 0.7848 0.25752 0.0
C592 C 0.03575 0.79392 0.23404 0.0
C593 C 0.02198 0.77348 0.21217 0.0
H594 H 0.05579 0.80066 0.27443 0.0
H595 H 0.928 0.60209 0.06121 0.0
H596 H 0.32415 0.05203 0.39451 0.0
H597 H 0.29784 0.01506 0.4319 0.0
H598 H 0.34341 0.0874 0.49177 0.0
H599 H 0.37003 0.12376 0.45491 0.0
H600 H 0.35039 0.0418 0.50559 0.0
H601 H 0.26502 0.05273 0.47812 0.0
H602 H 0.2272 0.0527 0.44587 0.0
H603 H 0.19325 0.95765 0.42796 0.0
H604 H 0.23116 0.95722 0.45983 0.0
H605 H 0.27608 0.94917 0.62201 0.0
H606 H 0.28767 0.98962 0.58782 0.0
H607 H 0.25469 0.92207 0.52294 0.0
H608 H 0.24334 0.88202 0.55666 0.0
H609 H 0.23935 0.96705 0.51383 0.0
H610 H 0.32795 0.95813 0.53789 0.0
H611 H 0.36488 0.95756 0.5709 0.0
H612 H 0.39241 0.04964 0.59539 0.0
H613 H 0.35525 0.05054 0.56286 0.0
C614 C 0.32801 0.05998 0.41565 0.0
C615 C 0.34929 0.09064 0.42184 0.0
C616 C 0.313 0.03892 0.43701 0.0
C617 C 0.3187 0.04842 0.46475 0.0
C618 C 0.33883 0.07939 0.47065 0.0
C619 C 0.354 0.10018 0.4495 0.0
C620 C 0.30569 0.02612 0.48786 0.0
C621 C 0.32601 0.02588 0.50759 0.0
C622 C 0.27398 0.00487 0.49033 0.0
C623 C 0.25113 0.00503 0.47117 0.0
C624 C 0.24965 0.03189 0.46714 0.0
C625 C 0.22817 0.03194 0.44896 0.0
C626 C 0.20789 0.00521 0.43483 0.0
C627 C 0.209 0.97835 0.4389 0.0
C628 C 0.23046 0.97818 0.45704 0.0
C629 C 0.27069 0.943 0.60053 0.0
C630 C 0.25919 0.91261 0.59189 0.0
C631 C 0.27736 0.96605 0.58104 0.0
C632 C 0.27229 0.95883 0.5528 0.0
C633 C 0.25877 0.92816 0.54455 0.0
C634 C 0.25251 0.90534 0.56386 0.0
C635 C 0.28404 0.98308 0.53142 0.0
C636 C 0.26362 0.98344 0.51194 0.0
C637 C 0.31567 0.00453 0.52913 0.0
C638 C 0.33857 0.00428 0.54819 0.0
C639 C 0.34175 0.97819 0.55045 0.0
C640 C 0.36272 0.9778 0.56906 0.0
C641 C 0.3809 0.0035 0.58531 0.0
C642 C 0.37827 0.0297 0.58285 0.0
C643 C 0.35725 0.03017 0.56433 0.0
H644 H 0.39704 0.00309 0.59976 0.0
H645 H 0.19126 0.0053 0.42076 0.0
H646 H 0.25337 0.37249 0.78742 0.0
H647 H 0.26559 0.34761 0.82411 0.0
H648 H 0.28878 0.29954 0.76396 0.0
H649 H 0.27595 0.32438 0.7266 0.0
H650 H 0.25829 0.26341 0.81006 0.0
H651 H 0.34514 0.36215 0.79241 0.0
H652 H 0.37196 0.41797 0.7847 0.0
H653 H 0.34618 0.43148 0.8655 0.0
H654 H 0.3189 0.37569 0.87358 0.0
H655 H 0.36008 0.23991 0.89399 0.0
H656 H 0.33321 0.25252 0.85935 0.0
H657 H 0.31042 0.29962 0.92086 0.0
H658 H 0.33752 0.28677 0.95602 0.0
H659 H 0.33877 0.33501 0.87463 0.0
H660 H 0.25455 0.23478 0.89271 0.0
H661 H 0.22893 0.17886 0.89923 0.0
H662 H 0.25191 0.1679 0.81648 0.0
H663 H 0.27807 0.22382 0.80958 0.0
C664 C 0.26079 0.35641 0.78187 0.0
C665 C 0.26413 0.35071 0.7541 0.0
C666 C 0.26779 0.3422 0.80293 0.0
C667 C 0.27875 0.32225 0.79682 0.0
C668 C 0.28052 0.31505 0.76911 0.0
C669 C 0.2732 0.32919 0.74782 0.0
C670 C 0.28993 0.31066 0.81958 0.0
C671 C 0.27615 0.279 0.82399 0.0
C672 C 0.31284 0.33107 0.83808 0.0
C673 C 0.32971 0.3647 0.83349 0.0
C674 C 0.34504 0.37701 0.80847 0.0
C675 C 0.36035 0.40864 0.80404 0.0
C676 C 0.36064 0.42823 0.82455 0.0
C677 C 0.34586 0.41626 0.84961 0.0
C678 C 0.33051 0.38464 0.85414 0.0
C679 C 0.34882 0.25244 0.90031 0.0
C680 C 0.35087 0.26241 0.92767 0.0
C681 C 0.33334 0.25951 0.88047 0.0
C682 C 0.31966 0.27689 0.88748 0.0
C683 C 0.32072 0.28604 0.91506 0.0
C684 C 0.33597 0.27856 0.93514 0.0
C685 C 0.30699 0.2877 0.86534 0.0
C686 C 0.32071 0.31935 0.8609 0.0
C687 C 0.28434 0.26723 0.84667 0.0
C688 C 0.26849 0.23355 0.85071 0.0
C689 C 0.25436 0.22048 0.87597 0.0
C690 C 0.2397 0.18877 0.87972 0.0
C691 C 0.23885 0.16984 0.8583 0.0
C692 C 0.2526 0.18259 0.83306 0.0
C693 C 0.26731 0.2143 0.82921 0.0
H694 H 0.22748 0.1453 0.86125 0.0
H695 H 0.37232 0.4527 0.82104 0.0
H696 H 0.17921 0.35522 0.38341 0.0
H697 H 0.19634 0.34909 0.42892 0.0
H698 H 0.10803 0.32488 0.46279 0.0
H699 H 0.09063 0.33079 0.41721 0.0
H700 H 0.15935 0.37341 0.49071 0.0
H701 H 0.12693 0.27112 0.45634 0.0
H702 H 0.12743 0.23516 0.42218 0.0
H703 H 0.22418 0.27341 0.43423 0.0
H704 H 0.22433 0.30988 0.46824 0.0
H705 H 0.18264 0.34397 0.62619 0.0
H706 H 0.16132 0.33745 0.57991 0.0
H707 H 0.24094 0.33826 0.54635 0.0
H708 H 0.26181 0.34352 0.59287 0.0
H709 H 0.19491 0.30127 0.51708 0.0
H710 H 0.23189 0.40237 0.54827 0.0
H711 H 0.23885 0.44499 0.57804 0.0
H712 H 0.14427 0.4185 0.56718 0.0
H713 H 0.13646 0.37512 0.53796 0.0
C714 C 0.16328 0.34819 0.40047 0.0
C715 C 0.13357 0.34359 0.39672 0.0
C716 C 0.17309 0.34458 0.42645 0.0
C717 C 0.15347 0.3365 0.44926 0.0
C718 C 0.12353 0.33108 0.44544 0.0
C719 C 0.11355 0.3343 0.41936 0.0
C720 C 0.16486 0.3358 0.47738 0.0
C721 C 0.16654 0.35724 0.49673 0.0
C722 C 0.17591 0.31587 0.4846 0.0
C723 C 0.17567 0.29341 0.46468 0.0
C724 C 0.14834 0.27198 0.4516 0.0
C725 C 0.1485 0.25148 0.43229 0.0
C726 C 0.17583 0.25206 0.42598 0.0
C727 C 0.20303 0.273 0.43912 0.0
C728 C 0.20299 0.29356 0.45845 0.0
C729 C 0.19539 0.34225 0.609 0.0
C730 C 0.22402 0.34446 0.6132 0.0
C731 C 0.18325 0.33871 0.58248 0.0
C732 C 0.19981 0.33816 0.55941 0.0
C733 C 0.2277 0.33876 0.5637 0.0
C734 C 0.23963 0.34175 0.59035 0.0
C735 C 0.18868 0.33846 0.53092 0.0
C736 C 0.18739 0.31725 0.51134 0.0
C737 C 0.17903 0.35945 0.52308 0.0
C738 C 0.18348 0.38518 0.54117 0.0
C739 C 0.21244 0.40534 0.55251 0.0
C740 C 0.21656 0.42967 0.56927 0.0
C741 C 0.192 0.43442 0.57451 0.0
C742 C 0.16324 0.41474 0.56314 0.0
C743 C 0.15894 0.39023 0.54653 0.0
H744 H 0.19528 0.45345 0.58725 0.0
H745 H 0.17589 0.23626 0.41094 0.0
H746 H 0.74897 0.08183 0.75095 0.0
H747 H 0.77166 0.09874 0.79686 0.0
H748 H 0.84104 0.18457 0.76271 0.0
H749 H 0.81851 0.16798 0.71693 0.0
H750 H 0.86383 0.15957 0.80225 0.0
H751 H 0.78262 0.1829 0.79149 0.0
H752 H 0.72962 0.17032 0.78154 0.0
H753 H 0.6969 0.10654 0.84881 0.0
H754 H 0.74971 0.11836 0.85885 0.0
H755 H 0.916 0.25538 0.92139 0.0
H756 H 0.89803 0.23133 0.87631 0.0
H757 H 0.8187 0.15627 0.91451 0.0
H758 H 0.83591 0.1809 0.95933 0.0
H759 H 0.80046 0.17284 0.87288 0.0
H760 H 0.88239 0.15192 0.88591 0.0
H761 H 0.9351 0.16289 0.89474 0.0
H762 H 0.96669 0.22025 0.82302 0.0
H763 H 0.9143 0.21011 0.81404 0.0
C764 C 0.76936 0.10409 0.75316 0.0
C765 C 0.78182 0.12363 0.73033 0.0
C766 C 0.7822 0.11377 0.77941 0.0
C767 C 0.80791 0.14302 0.78322 0.0
C768 C 0.82125 0.16193 0.76024 0.0
C769 C 0.80822 0.15245 0.73411 0.0
C770 C 0.81994 0.15471 0.81128 0.0
C771 C 0.85018 0.16278 0.81768 0.0
C772 C 0.80179 0.15817 0.83157 0.0
C773 C 0.77007 0.15124 0.82571 0.0
C774 C 0.7641 0.16599 0.804 0.0
C775 C 0.7341 0.15903 0.79837 0.0
C776 C 0.7099 0.13758 0.81448 0.0
C777 C 0.71567 0.12311 0.83631 0.0
C778 C 0.74563 0.12993 0.84198 0.0
C779 C 0.89498 0.23351 0.92023 0.0
C780 C 0.87742 0.22008 0.94399 0.0
C781 C 0.88473 0.21967 0.89438 0.0
C782 C 0.85705 0.1917 0.89182 0.0
C783 C 0.84004 0.17784 0.91575 0.0
C784 C 0.85 0.19192 0.94146 0.0
C785 C 0.84473 0.17785 0.86419 0.0
C786 C 0.81431 0.16948 0.85771 0.0
C787 C 0.86279 0.17403 0.84388 0.0
C788 C 0.89443 0.18053 0.8495 0.0
C789 C 0.90062 0.16715 0.87219 0.0
C790 C 0.93045 0.17318 0.8772 0.0
C791 C 0.95425 0.19234 0.85952 0.0
C792 C 0.94826 0.20548 0.83676 0.0
C793 C 0.9185 0.19961 0.8317 0.0
H794 H 0.97731 0.19694 0.86341 0.0
H795 H 0.68668 0.13222 0.8101 0.0
H796 H 0.67706 0.85475 0.28929 0.0
H797 H 0.68334 0.83703 0.24411 0.0
H798 H 0.62987 0.87314 0.20727 0.0
H799 H 0.62618 0.89316 0.25203 0.0
H800 H 0.64867 0.79752 0.21356 0.0
H801 H 0.63812 0.88366 0.13997 0.0
H802 H 0.65553 0.93886 0.13785 0.0
H803 H 0.72919 0.9579 0.19351 0.0
H804 H 0.7125 0.90288 0.19567 0.0
H805 H 0.5986 0.72617 0.0853 0.0
H806 H 0.60849 0.75146 0.13003 0.0
H807 H 0.68609 0.83194 0.09565 0.0
H808 H 0.67397 0.80742 0.05023 0.0
H809 H 0.66322 0.85222 0.12526 0.0
H810 H 0.6891 0.77696 0.1459 0.0
H811 H 0.68588 0.72668 0.14971 0.0
H812 H 0.60677 0.69435 0.20163 0.0
H813 H 0.60918 0.74426 0.19778 0.0
C814 C 0.6675 0.85962 0.2713 0.0
C815 C 0.65171 0.87581 0.27391 0.0
C816 C 0.6708 0.84925 0.24547 0.0
C817 C 0.65742 0.85391 0.22183 0.0
C818 C 0.64147 0.87008 0.22468 0.0
C819 C 0.63918 0.88142 0.25035 0.0
C820 C 0.65827 0.84007 0.19475 0.0
C821 C 0.65238 0.80972 0.1943 0.0
C822 C 0.66367 0.85591 0.1694 0.0
C823 C 0.67386 0.88908 0.16817 0.0
C824 C 0.6581 0.89963 0.15168 0.0
C825 C 0.66783 0.93089 0.15049 0.0
C826 C 0.69339 0.95186 0.1656 0.0
C827 C 0.70933 0.94162 0.18189 0.0
C828 C 0.69971 0.9104 0.18314 0.0
C829 C 0.61805 0.74909 0.08752 0.0
C830 C 0.63586 0.76473 0.06455 0.0
C831 C 0.62391 0.76356 0.11321 0.0
C832 C 0.64859 0.7936 0.11682 0.0
C833 C 0.66687 0.80887 0.09375 0.0
C834 C 0.6602 0.79479 0.0678 0.0
C835 C 0.65395 0.80964 0.14405 0.0
C836 C 0.66047 0.84025 0.14452 0.0
C837 C 0.65133 0.79475 0.16954 0.0
C838 C 0.64913 0.7643 0.17127 0.0
C839 C 0.6708 0.75903 0.15787 0.0
C840 C 0.66916 0.7306 0.1601 0.0
C841 C 0.64609 0.70731 0.17583 0.0
C842 C 0.6246 0.71239 0.18939 0.0
C843 C 0.62609 0.74075 0.18719 0.0
H844 H 0.6449 0.68534 0.17757 0.0
H845 H 0.70089 0.97605 0.16465 0.0
H846 H 0.74787 0.65634 0.59674 0.0
H847 H 0.77221 0.66397 0.55151 0.0
H848 H 0.84549 0.65538 0.58824 0.0
H849 H 0.82083 0.64673 0.63313 0.0
H850 H 0.82614 0.70238 0.5268 0.0
H851 H 0.86444 0.61438 0.54706 0.0
H852 H 0.85149 0.57046 0.57763 0.0
H853 H 0.75864 0.5516 0.58299 0.0
H854 H 0.77088 0.59503 0.55203 0.0
H855 H 0.91163 0.69569 0.40981 0.0
H856 H 0.897 0.70002 0.45717 0.0
H857 H 0.81311 0.61379 0.44786 0.0
H858 H 0.82763 0.60907 0.40123 0.0
H859 H 0.84046 0.61643 0.49622 0.0
H860 H 0.8158 0.68129 0.44216 0.0
H861 H 0.8279 0.72445 0.411 0.0
H862 H 0.88877 0.78774 0.47156 0.0
H863 H 0.87784 0.74486 0.50274 0.0
C864 C 0.76939 0.65652 0.59522 0.0
C865 C 0.78214 0.65044 0.61845 0.0
C866 C 0.78334 0.66097 0.56936 0.0
C867 C 0.81039 0.65966 0.56633 0.0
C868 C 0.82429 0.65583 0.5899 0.0
C869 C 0.81015 0.65091 0.61561 0.0
C870 C 0.82249 0.65945 0.53839 0.0
C871 C 0.82945 0.6837 0.52014 0.0
C872 C 0.8266 0.63494 0.52956 0.0
C873 C 0.81865 0.60807 0.54738 0.0
C874 C 0.84121 0.6007 0.55459 0.0
C875 C 0.83401 0.57594 0.57202 0.0
C876 C 0.80428 0.5583 0.58229 0.0
C877 C 0.78165 0.5653 0.57505 0.0
C878 C 0.7887 0.58996 0.55753 0.0
C879 C 0.89006 0.67772 0.41787 0.0
C880 C 0.87066 0.65222 0.4015 0.0
C881 C 0.88171 0.68023 0.44492 0.0
C882 C 0.85386 0.65727 0.45605 0.0
C883 C 0.83469 0.63178 0.43978 0.0
C884 C 0.84293 0.62931 0.4129 0.0
C885 C 0.8442 0.6594 0.48455 0.0
C886 C 0.83758 0.63538 0.50293 0.0
C887 C 0.84014 0.68396 0.49329 0.0
C888 C 0.84623 0.70978 0.4747 0.0
C889 C 0.83198 0.70437 0.44876 0.0
C890 C 0.83865 0.72879 0.43107 0.0
C891 C 0.85907 0.75881 0.4393 0.0
C892 C 0.87295 0.76447 0.46521 0.0
C893 C 0.86659 0.7401 0.48287 0.0
H894 H 0.86413 0.7777 0.42561 0.0
H895 H 0.79877 0.53915 0.59579 0.0
H896 H 0.16311 0.81751 0.95633 0.0
H897 H 0.1788 0.83857 0.90996 0.0
H898 H 0.10319 0.75682 0.8755 0.0
H899 H 0.08707 0.73571 0.9219 0.0
H900 H 0.16032 0.77406 0.85057 0.0
H901 H 0.09852 0.81822 0.87295 0.0
H902 H 0.08058 0.84653 0.90155 0.0
H903 H 0.16977 0.92684 0.89742 0.0
H904 H 0.18835 0.89886 0.86906 0.0
H905 H 0.18045 0.82405 0.71372 0.0
H906 H 0.1566 0.80664 0.75873 0.0
H907 H 0.22538 0.89157 0.79509 0.0
H908 H 0.24896 0.90956 0.7497 0.0
H909 H 0.17025 0.87224 0.81895 0.0
H910 H 0.23212 0.82732 0.7966 0.0
H911 H 0.24913 0.79892 0.76698 0.0
H912 H 0.15946 0.71933 0.77117 0.0
H913 H 0.14174 0.74745 0.80041 0.0
C914 C 0.14957 0.80415 0.93893 0.0
C915 C 0.12379 0.77493 0.94283 0.0
C916 C 0.15857 0.81624 0.91243 0.0
C917 C 0.14218 0.79926 0.88926 0.0
C918 C 0.11617 0.77029 0.89309 0.0
C919 C 0.10688 0.75836 0.91964 0.0
C920 C 0.15292 0.81135 0.86105 0.0
C921 C 0.16205 0.79528 0.84349 0.0
C922 C 0.15588 0.8394 0.85206 0.0
C923 C 0.14489 0.85637 0.8691 0.0
C924 C 0.11438 0.84184 0.87834 0.0
C925 C 0.10407 0.85784 0.89446 0.0
C926 C 0.12401 0.88844 0.90134 0.0
C927 C 0.15433 0.90313 0.8921 0.0
C928 C 0.16476 0.88722 0.87597 0.0
C929 C 0.19033 0.83923 0.7312 0.0
C930 C 0.21685 0.86806 0.72818 0.0
C931 C 0.17669 0.82919 0.75698 0.0
C932 C 0.18962 0.84745 0.78048 0.0
C933 C 0.2151 0.87698 0.77731 0.0
C934 C 0.22856 0.88724 0.75135 0.0
C935 C 0.17766 0.83494 0.8084 0.0
C936 C 0.16844 0.85098 0.82597 0.0
C937 C 0.17468 0.80683 0.81745 0.0
C938 C 0.18553 0.78958 0.80053 0.0
C939 C 0.21599 0.80381 0.79111 0.0
C940 C 0.22575 0.78776 0.77437 0.0
C941 C 0.20537 0.75735 0.76717 0.0
C942 C 0.17521 0.7429 0.77676 0.0
C943 C 0.16529 0.75887 0.79342 0.0
H944 H 0.21298 0.74497 0.75422 0.0
H945 H 0.11587 0.90073 0.91371 0.0
H946 H 0.36488 0.18909 0.05412 0.0
H947 H 0.35676 0.16671 0.1 0.0
H948 H 0.33909 0.2364 0.13148 0.0
H949 H 0.34777 0.25936 0.0855 0.0
H950 H 0.38017 0.22983 0.16313 0.0
H951 H 0.28116 0.16217 0.1232 0.0
H952 H 0.24694 0.12721 0.08725 0.0
H953 H 0.28197 0.06641 0.10156 0.0
H954 H 0.31688 0.10127 0.13719 0.0
H955 H 0.34473 0.16939 0.29689 0.0
H956 H 0.33987 0.18712 0.25135 0.0
H957 H 0.34292 0.11097 0.214 0.0
H958 H 0.34607 0.09229 0.25969 0.0
H959 H 0.30693 0.12107 0.18515 0.0
H960 H 0.40769 0.18687 0.22053 0.0
H961 H 0.4479 0.22262 0.25235 0.0
H962 H 0.41566 0.28651 0.24364 0.0
H963 H 0.37492 0.25092 0.21213 0.0
C964 C 0.35913 0.19964 0.07073 0.0
C965 C 0.35719 0.22619 0.06613 0.0
C966 C 0.35425 0.18664 0.09697 0.0
C967 C 0.3471 0.19972 0.11923 0.0
C968 C 0.34453 0.22587 0.11462 0.0
C969 C 0.34934 0.23888 0.08829 0.0
C970 C 0.34392 0.18703 0.14751 0.0
C971 C 0.36372 0.20621 0.16813 0.0
C972 C 0.32334 0.15587 0.15371 0.0
C973 C 0.30177 0.13446 0.13278 0.0
C974 C 0.28169 0.14142 0.11858 0.0
C975 C 0.2622 0.12163 0.09823 0.0
C976 C 0.26238 0.09466 0.09204 0.0
C977 C 0.28195 0.08735 0.10629 0.0
C978 C 0.30156 0.1071 0.1266 0.0
C979 C 0.34379 0.15613 0.27898 0.0
C980 C 0.34586 0.12948 0.28187 0.0
C981 C 0.34132 0.16645 0.25288 0.0
C982 C 0.34193 0.15096 0.229 0.0
C983 C 0.34254 0.12351 0.23198 0.0
C984 C 0.34429 0.11277 0.25815 0.0
C985 C 0.34318 0.16394 0.20103 0.0
C986 C 0.32315 0.1448 0.18037 0.0
C987 C 0.36411 0.19504 0.19456 0.0
C988 C 0.38805 0.21608 0.21416 0.0
C989 C 0.40896 0.20839 0.22563 0.0
C990 C 0.4319 0.22866 0.24357 0.0
C991 C 0.43435 0.25683 0.24998 0.0
C992 C 0.41374 0.26469 0.23864 0.0
C993 C 0.39071 0.24448 0.22076 0.0
H994 H 0.4523 0.27265 0.26363 0.0
H995 H 0.24731 0.07938 0.07625 0.0
H996 H 0.94682 0.57737 0.30529 0.0
H997 H 0.97893 0.55393 0.29895 0.0
H998 H 0.937 0.4968 0.36996 0.0
H999 H 0.90462 0.51937 0.37608 0.0
H1000 H 0.99987 0.52682 0.37198 0.0
H1001 H 0.91899 0.46739 0.30616 0.0
H1002 H 0.88714 0.46097 0.26538 0.0
H1003 H 0.9676 0.50346 0.21463 0.0
H1004 H 0.99998 0.51051 0.25522 0.0
H1005 H 0.04187 0.41571 0.37485 0.0
H1006 H 0.01115 0.44047 0.3695 0.0
H1007 H 0.05982 0.48372 0.29476 0.0
H1008 H 0.09035 0.45824 0.29987 0.0
H1009 H 0.99952 0.46712 0.29056 0.0
H1010 H 0.08028 0.52359 0.35428 0.0
H1011 H 0.11347 0.5314 0.39436 0.0
H1012 H 0.03573 0.49784 0.44819 0.0
H1013 H 0.00198 0.48938 0.40838 0.0
C1014 C 0.94415 0.55954 0.31933 0.0
C1015 C 0.92329 0.55057 0.34141 0.0
C1016 C 0.96257 0.54621 0.3157 0.0
C1017 C 0.96041 0.52367 0.33405 0.0
C1018 C 0.93925 0.51433 0.3557 0.0
C1019 C 0.92084 0.52747 0.35926 0.0
C1020 C 0.98081 0.51038 0.33172 0.0
C1021 C 0.99961 0.51358 0.35425 0.0
C1022 C 0.98141 0.49415 0.30814 0.0
C1023 C 0.96193 0.4898 0.28377 0.0
C1024 C 0.92991 0.47561 0.28635 0.0
C1025 C 0.91176 0.4718 0.26326 0.0
C1026 C 0.92534 0.48189 0.23744 0.0
C1027 C 0.95711 0.49571 0.23465 0.0
C1028 C 0.97537 0.4996 0.25768 0.0
C1029 C 0.04582 0.43027 0.35714 0.0
C1030 C 0.06873 0.43538 0.33797 0.0
C1031 C 0.0283 0.44446 0.3541 0.0
C1032 C 0.03369 0.46459 0.3321 0.0
C1033 C 0.05539 0.46844 0.312 0.0
C1034 C 0.07277 0.45387 0.31489 0.0
C1035 C 0.01771 0.48267 0.33128 0.0
C1036 C 0.99998 0.4806 0.30817 0.0
C1037 C 0.0183 0.50032 0.35423 0.0
C1038 C 0.03857 0.50566 0.3783 0.0
C1039 C 0.07023 0.5177 0.37465 0.0
C1040 C 0.08914 0.52226 0.39732 0.0
C1041 C 0.07671 0.51507 0.4238 0.0
C1042 C 0.04533 0.50338 0.42767 0.0
C1043 C 0.0263 0.49873 0.40505 0.0
H1044 H 0.09139 0.51862 0.44133 0.0
H1045 H 0.91125 0.47892 0.21959 0.0
H1046 H 0.619 0.03928 0.70137 0.0
H1047 H 0.56442 0.00709 0.69157 0.0
H1048 H 0.57729 0.05022 0.61223 0.0
H1049 H 0.63234 0.08276 0.62209 0.0
H1050 H 0.52757 0.04658 0.64245 0.0
H1051 H 0.56236 0.9793 0.61271 0.0
H1052 H 0.59126 0.95183 0.61562 0.0
H1053 H 0.54098 0.90483 0.68809 0.0
H1054 H 0.51206 0.93233 0.68586 0.0
H1055 H 0.36584 0.9396 0.62622 0.0
H1056 H 0.42087 0.96909 0.61607 0.0
H1057 H 0.43981 0.93384 0.68985 0.0
H1058 H 0.38547 0.9035 0.69929 0.0
H1059 H 0.47418 0.93338 0.65025 0.0
H1060 H 0.4466 0.00701 0.68469 0.0
H1061 H 0.41889 0.03578 0.68375 0.0
H1062 H 0.45634 0.07162 0.60398 0.0
H1063 H 0.48387 0.04262 0.60426 0.0
C1064 C 0.61026 0.04183 0.68178 0.0
C1065 C 0.62993 0.06358 0.66253 0.0
C1066 C 0.57909 0.0233 0.67612 0.0
C1067 C 0.56677 0.02611 0.6511 0.0
C1068 C 0.58634 0.04761 0.63163 0.0
C1069 C 0.61777 0.066 0.63719 0.0
C1070 C 0.53322 0.00714 0.64617 0.0
C1071 C 0.51587 0.02177 0.64348 0.0
C1072 C 0.51795 0.97482 0.64783 0.0
C1073 C 0.53513 0.95801 0.64917 0.0
C1074 C 0.5576 0.96325 0.62937 0.0
C1075 C 0.57396 0.94765 0.63088 0.0
C1076 C 0.56799 0.92663 0.65204 0.0
C1077 C 0.54558 0.92112 0.6717 0.0
C1078 C 0.52915 0.93667 0.67029 0.0
C1079 C 0.38172 0.93789 0.64009 0.0
C1080 C 0.37103 0.91933 0.66378 0.0
C1081 C 0.41323 0.95499 0.63439 0.0
C1082 C 0.43464 0.95402 0.65236 0.0
C1083 C 0.42389 0.93508 0.67564 0.0
C1084 C 0.39261 0.91796 0.68123 0.0
C1085 C 0.46835 0.97283 0.64774 0.0
C1086 C 0.4858 0.95814 0.64858 0.0
C1087 C 0.48365 0.0051 0.64456 0.0
C1088 C 0.46696 0.02234 0.64434 0.0
C1089 C 0.44869 0.0208 0.66684 0.0
C1090 C 0.43306 0.03718 0.66645 0.0
C1091 C 0.43581 0.05547 0.6438 0.0
C1092 C 0.45423 0.05744 0.62151 0.0
C1093 C 0.4698 0.041 0.62175 0.0
H1094 H 0.42371 0.06815 0.64354 0.0
H1095 H 0.58069 0.91458 0.65319 0.0
H1096 H 0.49279 0.39013 0.02419 0.0
H1097 H 0.50769 0.44388 0.01878 0.0
H1098 H 0.4301 0.41826 0.96551 0.0
H1099 H 0.41486 0.36402 0.97099 0.0
H1100 H 0.48267 0.47146 0.94779 0.0
H1101 H 0.42375 0.43269 0.03029 0.0
H1102 H 0.40962 0.4057 0.07486 0.0
H1103 H 0.49779 0.47027 0.10789 0.0
H1104 H 0.51261 0.49739 0.06336 0.0
H1105 H 0.4884 0.61432 0.02028 0.0
H1106 H 0.46817 0.55937 0.01482 0.0
H1107 H 0.54937 0.57743 0.96996 0.0
H1108 H 0.5696 0.63256 0.9752 0.0
H1109 H 0.4894 0.52617 0.0348 0.0
H1110 H 0.53286 0.51748 0.92632 0.0
H1111 H 0.54308 0.54319 0.88119 0.0
H1112 H 0.47822 0.5724 0.89909 0.0
H1113 H 0.4673 0.54653 0.94416 0.0
C1114 C 0.47885 0.39584 0.0113 0.0
C1115 C 0.45231 0.37272 0.99842 0.0
C1116 C 0.4875 0.42662 0.00811 0.0
C1117 C 0.46973 0.43505 0.99211 0.0
C1118 C 0.4441 0.41223 0.978 0.0
C1119 C 0.43543 0.38127 0.98114 0.0
C1120 C 0.47703 0.46749 0.9918 0.0
C1121 C 0.48412 0.48349 0.96676 0.0
C1122 C 0.4783 0.48299 0.0165 0.0
C1123 C 0.46937 0.46692 0.04342 0.0
C1124 C 0.4402 0.44101 0.047 0.0
C1125 C 0.43206 0.4257 0.07226 0.0
C1126 C 0.45282 0.43623 0.09418 0.0
C1127 C 0.48174 0.46213 0.09089 0.0
C1128 C 0.49001 0.4775 0.06565 0.0
C1129 C 0.50193 0.60661 0.00919 0.0
C1130 C 0.53071 0.62784 0.99833 0.0
C1131 C 0.49028 0.57516 0.00599 0.0
C1132 C 0.50713 0.56414 0.99188 0.0
C1133 C 0.53565 0.58529 0.98052 0.0
C1134 C 0.54724 0.61684 0.98356 0.0
C1135 C 0.49571 0.53061 0.9908 0.0
C1136 C 0.48788 0.5143 0.01571 0.0
C1137 C 0.49327 0.51484 0.9659 0.0
C1138 C 0.4995 0.5303 0.93874 0.0
C1139 C 0.5207 0.52929 0.92059 0.0
C1140 C 0.52663 0.54391 0.89502 0.0
C1141 C 0.51138 0.5595 0.88731 0.0
C1142 C 0.49011 0.56042 0.90513 0.0
C1143 C 0.48407 0.54583 0.93071 0.0
H1144 H 0.51601 0.5708 0.86751 0.0
H1145 H 0.44647 0.42434 0.11373 0.0
H1146 H 0.55756 0.92624 0.38351 0.0
H1147 H 0.53637 0.95987 0.39249 0.0
H1148 H 0.54283 0.98159 0.30594 0.0
H1149 H 0.56509 0.9494 0.29714 0.0
H1150 H 0.55906 0.03101 0.33428 0.0
H1151 H 0.47454 0.9263 0.33799 0.0
H1152 H 0.44666 0.87353 0.35604 0.0
H1153 H 0.4447 0.90787 0.43651 0.0
H1154 H 0.47291 0.96089 0.41897 0.0
H1155 H 0.4429 0.06176 0.29947 0.0
H1156 H 0.4701 0.03404 0.30761 0.0
H1157 H 0.47283 0.05207 0.39459 0.0
H1158 H 0.44652 0.0812 0.3866 0.0
H1159 H 0.4558 0.98726 0.37616 0.0
H1160 H 0.53417 0.09275 0.36819 0.0
H1161 H 0.55936 0.14409 0.3471 0.0
H1162 H 0.57081 0.10659 0.2716 0.0
H1163 H 0.54522 0.05492 0.29211 0.0
C1164 C 0.55492 0.93857 0.3665 0.0
C1165 C 0.56268 0.93473 0.33951 0.0
C1166 C 0.54252 0.95758 0.37161 0.0
C1167 C 0.5375 0.97294 0.34982 0.0
C1168 C 0.54631 0.96995 0.32312 0.0
C1169 C 0.55878 0.9512 0.31805 0.0
C1170 C 0.5223 0.99148 0.35414 0.0
C1171 C 0.5365 0.02138 0.34349 0.0
C1172 C 0.49314 0.97935 0.36675 0.0
C1173 C 0.47615 0.94753 0.37727 0.0
C1174 C 0.46836 0.92259 0.35958 0.0
C1175 C 0.45247 0.89264 0.36971 0.0
C1176 C 0.44401 0.88735 0.39743 0.0
C1177 C 0.45134 0.912 0.41506 0.0
C1178 C 0.46726 0.942 0.40504 0.0
C1179 C 0.44938 0.06019 0.32037 0.0
C1180 C 0.44291 0.0744 0.34227 0.0
C1181 C 0.46475 0.04405 0.32499 0.0
C1182 C 0.47373 0.04129 0.35164 0.0
C1183 C 0.4661 0.05401 0.37384 0.0
C1184 C 0.45096 0.0706 0.3692 0.0
C1185 C 0.49227 0.02619 0.35556 0.0
C1186 C 0.47868 0.99705 0.36764 0.0
C1187 C 0.52186 0.03882 0.34398 0.0
C1188 C 0.53759 0.06992 0.33165 0.0
C1189 C 0.54184 0.09541 0.34703 0.0
C1190 C 0.55623 0.12458 0.33518 0.0
C1191 C 0.56663 0.12859 0.30801 0.0
C1192 C 0.56273 0.10345 0.29265 0.0
C1193 C 0.54832 0.07421 0.30438 0.0
H1194 H 0.57776 0.1512 0.29888 0.0
H1195 H 0.4317 0.86416 0.40523 0.0
H1196 H 0.61824 0.50605 0.66191 0.0
H1197 H 0.56323 0.48514 0.66769 0.0
H1198 H 0.58056 0.56488 0.71466 0.0
H1199 H 0.6361 0.58564 0.70941 0.0
H1200 H 0.53016 0.51182 0.73465 0.0
H1201 H 0.56553 0.56288 0.64779 0.0
H1202 H 0.59288 0.57427 0.60344 0.0
H1203 H 0.53513 0.48104 0.57764 0.0
H1204 H 0.50772 0.46899 0.62202 0.0
H1205 H 0.38505 0.48804 0.65186 0.0
H1206 H 0.43998 0.51172 0.65999 0.0
H1207 H 0.42403 0.43768 0.71463 0.0
H1208 H 0.36857 0.4143 0.70698 0.0
H1209 H 0.47484 0.49121 0.64566 0.0
H1210 H 0.48601 0.4616 0.75875 0.0
H1211 H 0.45994 0.4543 0.80341 0.0
H1212 H 0.42475 0.51202 0.77696 0.0
H1213 H 0.45093 0.52001 0.73228 0.0
C1214 C 0.61034 0.519 0.67369 0.0
C1215 C 0.63139 0.54772 0.68478 0.0
C1216 C 0.57891 0.50699 0.67707 0.0
C1217 C 0.56773 0.52369 0.69116 0.0
C1218 C 0.58868 0.55161 0.70367 0.0
C1219 C 0.62034 0.56349 0.70062 0.0
C1220 C 0.53437 0.51309 0.6905 0.0
C1221 C 0.51797 0.50731 0.71525 0.0
C1222 C 0.51856 0.50771 0.66517 0.0
C1223 C 0.53474 0.51498 0.63831 0.0
C1224 C 0.55878 0.54477 0.63272 0.0
C1225 C 0.57429 0.55135 0.60757 0.0
C1226 C 0.56579 0.52838 0.58775 0.0
C1227 C 0.5417 0.4988 0.59302 0.0
C1228 C 0.52616 0.49209 0.61815 0.0
C1229 C 0.39323 0.47691 0.66575 0.0
C1230 C 0.37258 0.44913 0.67852 0.0
C1231 C 0.42466 0.4905 0.67046 0.0
C1232 C 0.43635 0.47654 0.68787 0.0
C1233 C 0.41568 0.44919 0.70139 0.0
C1234 C 0.38401 0.43576 0.69696 0.0
C1235 C 0.47016 0.48956 0.68985 0.0
C1236 C 0.48679 0.49572 0.6652 0.0
C1237 C 0.48606 0.49576 0.71527 0.0
C1238 C 0.47022 0.49116 0.74207 0.0
C1239 C 0.47278 0.4728 0.76249 0.0
C1240 C 0.45797 0.46853 0.7878 0.0
C1241 C 0.44068 0.48265 0.793 0.0
C1242 C 0.4381 0.50103 0.77287 0.0
C1243 C 0.45287 0.5054 0.74753 0.0
H1244 H 0.4294 0.47945 0.81266 0.0
H1245 H 0.57783 0.53351 0.5683 0.0
H1246 H 0.92787 0.36974 0.04885 0.0
H1247 H 0.9619 0.425 0.05539 0.0
H1248 H 0.97978 0.43569 0.96806 0.0
H1249 H 0.94683 0.38077 0.96158 0.0
H1250 H 0.0312 0.46905 0.99595 0.0
H1251 H 0.92758 0.45181 0.99941 0.0
H1252 H 0.87513 0.42901 0.01792 0.0
H1253 H 0.91113 0.46871 0.09711 0.0
H1254 H 0.96384 0.49142 0.07914 0.0
H1255 H 0.0767 0.6202 0.96153 0.0
H1256 H 0.04719 0.56497 0.96784 0.0
H1257 H 0.04843 0.57723 0.05577 0.0
H1258 H 0.07869 0.6329 0.04972 0.0
H1259 H 0.99095 0.5326 0.03577 0.0
H1260 H 0.09462 0.55535 0.03008 0.0
H1261 H 0.14673 0.57891 0.01072 0.0
H1262 H 0.11056 0.5291 0.93533 0.0
H1263 H 0.05816 0.50557 0.95408 0.0
C1264 C 0.93938 0.38383 0.03112 0.0
C1265 C 0.93435 0.37081 1.00463 0.0
C1266 C 0.95862 0.41546 0.03485 0.0
C1267 C 0.97312 0.43462 0.01216 0.0
C1268 C 0.9688 0.42147 0.98589 0.0
C1269 C 0.94968 0.39002 0.98217 0.0
C1270 C 0.99244 0.46845 0.01523 0.0
C1271 C 0.02231 0.48292 1.00457 0.0
C1272 C 0.98128 0.48659 0.02725 0.0
C1273 C 0.94963 0.47297 0.03803 0.0
C1274 C 0.92431 0.45546 0.02083 0.0
C1275 C 0.89454 0.44259 0.03121 0.0
C1276 C 0.88981 0.44732 0.0587 0.0
C1277 C 0.91484 0.465 0.07584 0.0
C1278 C 0.94466 0.47788 0.06557 0.0
C1279 C 0.07104 0.61133 0.98228 0.0
C1280 C 0.08059 0.6312 0.00512 0.0
C1281 C 0.054 0.57965 0.98583 0.0
C1282 C 0.04603 0.56694 0.0123 0.0
C1283 C 0.05447 0.58657 0.03516 0.0
C1284 C 0.0717 0.61843 0.03163 0.0
C1285 C 0.02925 0.5331 0.01568 0.0
C1286 C 0.99997 0.51868 0.02759 0.0
C1287 C 0.0409 0.51493 1.00475 0.0
C1288 C 0.07242 0.52884 0.99344 0.0
C1289 C 0.09774 0.54957 0.0093 0.0
C1290 C 0.12734 0.5629 0.99845 0.0
C1291 C 0.13195 0.55555 0.9718 0.0
C1292 C 0.10696 0.53478 0.95597 0.0
C1293 C 0.0773 0.52141 0.96672 0.0
H1294 H 0.15488 0.56589 0.96343 0.0
H1295 H 0.86674 0.43736 0.06669 0.0
H1296 H 0.26272 0.37676 0.29981 0.0
H1297 H 0.2852 0.34544 0.31237 0.0
H1298 H 0.1949 0.26816 0.32633 0.0
H1299 H 0.17231 0.29981 0.31426 0.0
H1300 H 0.23037 0.27152 0.36635 0.0
H1301 H 0.23919 0.27275 0.26894 0.0
H1302 H 0.25222 0.29475 0.22226 0.0
H1303 H 0.34737 0.34565 0.24446 0.0
H1304 H 0.33488 0.32431 0.29142 0.0
H1305 H 0.29576 0.17006 0.36772 0.0
H1306 H 0.26554 0.19412 0.35429 0.0
H1307 H 0.3455 0.28339 0.36421 0.0
H1308 H 0.37547 0.25958 0.37807 0.0
H1309 H 0.31109 0.2685 0.31031 0.0
H1310 H 0.29888 0.26838 0.40966 0.0
H1311 H 0.28363 0.24446 0.45551 0.0
H1312 H 0.19144 0.18716 0.42687 0.0
H1313 H 0.20628 0.21048 0.38071 0.0
C1314 C 0.24761 0.35297 0.30508 0.0
C1315 C 0.21572 0.34069 0.30585 0.0
C1316 C 0.2605 0.33503 0.31228 0.0
C1317 C 0.24176 0.30423 0.31989 0.0
C1318 C 0.20985 0.29183 0.32049 0.0
C1319 C 0.19696 0.3099 0.31358 0.0
C1320 C 0.25569 0.28548 0.32822 0.0
C1321 C 0.24759 0.27042 0.35379 0.0
C1322 C 0.27838 0.28415 0.31204 0.0
C1323 C 0.28604 0.2971 0.2838 0.0
C1324 C 0.26287 0.28882 0.26395 0.0
C1325 C 0.27016 0.30114 0.23741 0.0
C1326 C 0.3006 0.32164 0.23041 0.0
C1327 C 0.32381 0.3298 0.24992 0.0
C1328 C 0.31663 0.31756 0.27649 0.0
C1329 C 0.30669 0.1948 0.36726 0.0
C1330 C 0.33785 0.21298 0.37407 0.0
C1331 C 0.28947 0.20847 0.35969 0.0
C1332 C 0.30336 0.24048 0.35836 0.0
C1333 C 0.3344 0.25864 0.36526 0.0
C1334 C 0.35141 0.24503 0.37333 0.0
C1335 C 0.28611 0.25523 0.34845 0.0
C1336 C 0.29358 0.26942 0.32258 0.0
C1337 C 0.26253 0.2553 0.36409 0.0
C1338 C 0.2538 0.24084 0.39164 0.0
C1339 C 0.27546 0.25038 0.41303 0.0
C1340 C 0.26686 0.23702 0.43911 0.0
C1341 C 0.23661 0.21421 0.44407 0.0
C1342 C 0.21489 0.20473 0.42297 0.0
C1343 C 0.22338 0.21802 0.39685 0.0
H1344 H 0.22998 0.20395 0.46429 0.0
H1345 H 0.3062 0.33115 0.20986 0.0
H1346 H 0.87161 0.16223 0.65301 0.0
H1347 H 0.92574 0.18478 0.66577 0.0
H1348 H 0.93983 0.2749 0.64843 0.0
H1349 H 0.88624 0.25239 0.63503 0.0
H1350 H 0.98459 0.27143 0.62814 0.0
H1351 H 0.93368 0.24455 0.7163 0.0
H1352 H 0.8979 0.21052 0.75184 0.0
H1353 H 0.94135 0.15588 0.7505 0.0
H1354 H 0.97725 0.18943 0.71479 0.0
H1355 H 0.11576 0.36785 0.7081 0.0
H1356 H 0.06192 0.33554 0.69523 0.0
H1357 H 0.07617 0.25878 0.6838 0.0
H1358 H 0.13054 0.29137 0.69628 0.0
H1359 H 0.01882 0.25063 0.71727 0.0
H1360 H 0.07191 0.28166 0.62998 0.0
H1361 H 0.10875 0.31931 0.59713 0.0
H1362 H 0.06082 0.36965 0.59981 0.0
H1363 H 0.02388 0.33249 0.63299 0.0
C1364 C 0.88634 0.18684 0.65198 0.0
C1365 C 0.87474 0.20552 0.64285 0.0
C1366 C 0.91723 0.19974 0.65939 0.0
C1367 C 0.93694 0.23164 0.65836 0.0
C1368 C 0.92525 0.25024 0.64928 0.0
C1369 C 0.89458 0.23734 0.64152 0.0
C1370 C 0.96987 0.24594 0.66613 0.0
C1371 C 0.99189 0.2669 0.64774 0.0
C1372 C 0.97975 0.23968 0.69143 0.0
C1373 C 0.95789 0.21927 0.71261 0.0
C1374 C 0.9354 0.2251 0.72339 0.0
C1375 C 0.91514 0.20593 0.74361 0.0
C1376 C 0.91725 0.18096 0.7533 0.0
C1377 C 0.93969 0.17517 0.7429 0.0
C1378 C 0.96001 0.19427 0.72269 0.0
C1379 C 0.10737 0.34401 0.70319 0.0
C1380 C 0.12726 0.33204 0.70329 0.0
C1381 C 0.07667 0.32564 0.69574 0.0
C1382 C 0.06517 0.29484 0.68864 0.0
C1383 C 0.0847 0.28251 0.68932 0.0
C1384 C 0.11566 0.30111 0.69628 0.0
C1385 C 0.03295 0.2762 0.67948 0.0
C1386 C 0.01125 0.25462 0.69758 0.0
C1387 C 0.02321 0.28214 0.65414 0.0
C1388 C 0.04532 0.30445 0.63414 0.0
C1389 C 0.0694 0.30092 0.62377 0.0
C1390 C 0.09027 0.32214 0.60505 0.0
C1391 C 0.08716 0.34689 0.59645 0.0
C1392 C 0.06319 0.35047 0.60652 0.0
C1393 C 0.04226 0.32932 0.62525 0.0
H1394 H 0.10324 0.36322 0.58192 0.0
H1395 H 0.90159 0.16613 0.76892 0.0
H1396 H 0.80128 0.13324 0.9942 0.0
H1397 H 0.77452 0.07854 0.98341 0.0
H1398 H 0.7719 0.05739 0.06973 0.0
H1399 H 0.79868 0.11238 0.08071 0.0
H1400 H 0.78924 0.02276 0.03196 0.0
H1401 H 0.71065 0.04903 0.04628 0.0
H1402 H 0.6858 0.07999 0.0392 0.0
H1403 H 0.67615 0.05844 0.95292 0.0
H1404 H 0.70138 0.0277 0.95942 0.0
H1405 H 0.67957 0.86449 0.01847 0.0
H1406 H 0.70812 0.91774 0.0331 0.0
H1407 H 0.69519 0.94648 0.953 0.0
H1408 H 0.66509 0.89333 0.93865 0.0
H1409 H 0.68562 0.97734 0.99035 0.0
H1410 H 0.76493 0.95296 0.97424 0.0
H1411 H 0.79162 0.92348 0.97934 0.0
H1412 H 0.80191 0.94252 0.0661 0.0
H1413 H 0.77492 0.9718 0.06157 0.0
C1414 C 0.79545 0.11699 0.01085 0.0
C1415 C 0.80209 0.12703 0.03832 0.0
C1416 C 0.78 0.08577 1.00467 0.0
C1417 C 0.77116 0.06402 0.0258 0.0
C1418 C 0.77857 0.0739 0.05318 0.0
C1419 C 0.79367 0.1052 0.05942 0.0
C1420 C 0.7531 0.03097 0.01919 0.0
C1421 C 0.76639 0.01261 0.02325 0.0
C1422 C 0.72364 0.0181 0.00724 0.0
C1423 C 0.70817 0.0363 1.0033 0.0
C1424 C 0.70346 0.05109 0.02576 0.0
C1425 C 0.68926 0.06856 0.02186 0.0
C1426 C 0.67947 0.07124 0.99561 0.0
C1427 C 0.68378 0.05637 0.97323 0.0
C1428 C 0.698 0.0389 0.97702 0.0
C1429 C 0.68244 0.88196 1.00393 0.0
C1430 C 0.66975 0.87422 0.97727 0.0
C1431 C 0.69919 0.91257 0.01229 0.0
C1432 C 0.70418 0.93623 0.99406 0.0
C1433 C 0.69172 0.92866 0.96745 0.0
C1434 C 0.67469 0.89808 0.95917 0.0
C1435 C 0.7218 0.96887 1.00276 0.0
C1436 C 0.70841 0.98726 0.99914 0.0
C1437 C 0.75131 0.98181 0.01484 0.0
C1438 C 0.76762 0.9643 0.01761 0.0
C1439 C 0.77268 0.95066 0.99444 0.0
C1440 C 0.7879 0.93403 0.99722 0.0
C1441 C 0.79838 0.93106 0.02304 0.0
C1442 C 0.79374 0.9448 0.04612 0.0
C1443 C 0.77851 0.96144 0.04346 0.0
H1444 H 0.81016 0.91817 0.02515 0.0
H1445 H 0.66849 0.08479 0.99264 0.0
H1446 H 0.82858 0.69746 0.3373 0.0
H1447 H 0.80139 0.72478 0.34879 0.0
H1448 H 0.73173 0.67093 0.28891 0.0
H1449 H 0.75851 0.64338 0.27751 0.0
H1450 H 0.74619 0.72895 0.28557 0.0
H1451 H 0.72182 0.65535 0.35698 0.0
H1452 H 0.73068 0.6286 0.39522 0.0
H1453 H 0.77199 0.71147 0.44287 0.0
H1454 H 0.7645 0.73907 0.4045 0.0
H1455 H 0.63048 0.74539 0.38055 0.0
H1456 H 0.65971 0.72078 0.36766 0.0
H1457 H 0.72813 0.80456 0.32955 0.0
H1458 H 0.69893 0.82945 0.34247 0.0
H1459 H 0.71415 0.73146 0.38161 0.0
H1460 H 0.75998 0.78644 0.27469 0.0
H1461 H 0.74493 0.80627 0.23481 0.0
H1462 H 0.65022 0.75072 0.25691 0.0
H1463 H 0.66466 0.73028 0.2968 0.0
C1464 C 0.80742 0.69131 0.32664 0.0
C1465 C 0.79575 0.66807 0.30651 0.0
C1466 C 0.79192 0.70703 0.3332 0.0
C1467 C 0.76436 0.69974 0.31988 0.0
C1468 C 0.75301 0.67704 0.2994 0.0
C1469 C 0.76846 0.66135 0.29282 0.0
C1470 C 0.74699 0.71534 0.32745 0.0
C1471 C 0.73933 0.72965 0.30661 0.0
C1472 C 0.73753 0.71577 0.35484 0.0
C1473 C 0.74297 0.69942 0.37764 0.0
C1474 C 0.73328 0.66803 0.3754 0.0
C1475 C 0.73804 0.6527 0.39713 0.0
C1476 C 0.75201 0.66836 0.42141 0.0
C1477 C 0.76129 0.6994 0.424 0.0
C1478 C 0.75693 0.71494 0.40221 0.0
C1479 C 0.65188 0.75877 0.3697 0.0
C1480 C 0.66234 0.7895 0.36264 0.0
C1481 C 0.66853 0.74457 0.3622 0.0
C1482 C 0.696 0.76069 0.34742 0.0
C1483 C 0.70672 0.79146 0.34053 0.0
C1484 C 0.69 0.80569 0.34797 0.0
C1485 C 0.71356 0.74529 0.33977 0.0
C1486 C 0.7213 0.73106 0.36062 0.0
C1487 C 0.72247 0.74431 0.31231 0.0
C1488 C 0.71347 0.75711 0.28892 0.0
C1489 C 0.73595 0.7785 0.27108 0.0
C1490 C 0.72752 0.78981 0.24847 0.0
C1491 C 0.69666 0.77979 0.24338 0.0
C1492 C 0.67413 0.75854 0.26097 0.0
C1493 C 0.68244 0.74714 0.28363 0.0
H1494 H 0.69026 0.78842 0.22573 0.0
H1495 H 0.75553 0.65641 0.43826 0.0
H1496 H 0.11093 0.78406 0.5945 0.0
H1497 H 0.05643 0.76262 0.6052 0.0
H1498 H 0.07801 0.77483 0.69196 0.0
H1499 H 0.13225 0.79696 0.68126 0.0
H1500 H 0.01756 0.71404 0.63039 0.0
H1501 H 0.02904 0.78621 0.72821 0.0
H1502 H 0.06259 0.8386 0.74568 0.0
H1503 H 0.08688 0.8718 0.66287 0.0
H1504 H 0.05318 0.8197 0.64488 0.0
H1505 H 0.89137 0.6368 0.71755 0.0
H1506 H 0.94347 0.66764 0.7001 0.0
H1507 H 0.92269 0.73656 0.67264 0.0
H1508 H 0.87034 0.7058 0.69042 0.0
H1509 H 0.9797 0.76147 0.6978 0.0
H1510 H 0.92454 0.69202 0.62609 0.0
H1511 H 0.88929 0.64196 0.60504 0.0
H1512 H 0.94956 0.60855 0.62807 0.0
H1513 H 0.98496 0.65827 0.64966 0.0
C1514 C 0.10394 0.78232 0.61581 0.0
C1515 C 0.12583 0.79246 0.63702 0.0
C1516 C 0.07285 0.77008 0.62192 0.0
C1517 C 0.06305 0.76753 0.64938 0.0
C1518 C 0.08495 0.77735 0.67057 0.0
C1519 C 0.11601 0.78998 0.66445 0.0
C1520 C 0.02991 0.75345 0.6561 0.0
C1521 C 0.00933 0.72457 0.645 0.0
C1522 C 0.01881 0.76743 0.67459 0.0
C1523 C 0.03872 0.79898 0.68522 0.0
C1524 C 0.04139 0.80471 0.71372 0.0
C1525 C 0.06048 0.83435 0.72371 0.0
C1526 C 0.07691 0.85849 0.7054 0.0
C1527 C 0.07421 0.85306 0.67704 0.0
C1528 C 0.05515 0.82347 0.66694 0.0
C1529 C 0.89796 0.65873 0.70824 0.0
C1530 C 0.87671 0.66887 0.7054 0.0
C1531 C 0.92768 0.6762 0.69803 0.0
C1532 C 0.9368 0.7042 0.68481 0.0
C1533 C 0.91602 0.71494 0.68268 0.0
C1534 C 0.88614 0.69731 0.69272 0.0
C1535 C 0.96795 0.72179 0.67288 0.0
C1536 C 0.98803 0.75124 0.68298 0.0
C1537 C 0.97839 0.70876 0.65285 0.0
C1538 C 0.95732 0.67884 0.63969 0.0
C1539 C 0.93018 0.67393 0.62686 0.0
C1540 C 0.91018 0.64563 0.61479 0.0
C1541 C 0.91716 0.62208 0.61527 0.0
C1542 C 0.94418 0.62682 0.62774 0.0
C1543 C 0.96425 0.65507 0.63986 0.0
H1544 H 0.90167 0.60019 0.60593 0.0
H1545 H 0.0917 0.88141 0.71318 0.0
H1546 H 0.3272 0.13873 0.02269 0.0
H1547 H 0.29276 0.08597 0.0371 0.0
H1548 H 0.28857 0.05517 0.9535 0.0
H1549 H 0.32265 0.10809 0.9388 0.0
H1550 H 0.23171 0.02661 0.9799 0.0
H1551 H 0.33615 0.05145 0.99851 0.0
H1552 H 0.38712 0.08233 0.0197 0.0
H1553 H 0.34641 0.06149 0.10017 0.0
H1554 H 0.29517 0.03061 0.0794 0.0
H1555 H 0.1879 0.86996 0.99486 0.0
H1556 H 0.2117 0.92438 0.98441 0.0
H1557 H 0.21817 0.94505 0.07118 0.0
H1558 H 0.19393 0.89047 0.08186 0.0
H1559 H 0.27136 0.98031 0.04659 0.0
H1560 H 0.16818 0.95167 0.03013 0.0
H1561 H 0.11591 0.92386 0.01109 0.0
H1562 H 0.1514 0.95434 0.92976 0.0
H1563 H 0.20401 0.98103 0.94804 0.0
C1564 C 0.31854 0.12086 0.00724 0.0
C1565 C 0.32775 0.12762 0.97954 0.0
C1566 C 0.29902 0.09066 0.01558 0.0
C1567 C 0.28837 0.06664 0.99641 0.0
C1568 C 0.29662 0.07339 0.96862 0.0
C1569 C 0.31626 0.10357 0.96028 0.0
C1570 C 0.26975 0.03432 0.00543 0.0
C1571 C 0.2404 0.01626 0.99422 0.0
C1572 C 0.28081 0.02134 0.02495 0.0
C1573 C 0.31176 0.03917 0.03739 0.0
C1574 C 0.33804 0.05364 0.02071 0.0
C1575 C 0.367 0.07108 0.03265 0.0
C1576 C 0.37 0.074 0.06126 0.0
C1577 C 0.34406 0.0593 0.078 0.0
C1578 C 0.31506 0.04181 0.06616 0.0
C1579 C 0.19373 0.8859 0.01178 0.0
C1580 C 0.18897 0.87568 0.03927 0.0
C1581 C 0.20745 0.91713 0.00573 0.0
C1582 C 0.21661 0.93884 0.027 0.0
C1583 C 0.21138 0.92872 0.05443 0.0
C1584 C 0.19761 0.89749 0.0605 0.0
C1585 C 0.23331 0.97212 0.02061 0.0
C1586 C 0.2624 0.99047 0.03234 0.0
C1587 C 0.22181 0.9854 1.00178 0.0
C1588 C 0.1902 0.96809 0.99048 0.0
C1589 C 0.16495 0.95192 0.0081 0.0
C1590 C 0.13521 0.93631 0.99742 0.0
C1591 C 0.13034 0.93708 0.96919 0.0
C1592 C 0.15521 0.95341 0.95157 0.0
C1593 C 0.18501 0.9687 0.96208 0.0
H1594 H 0.10728 0.92517 0.96098 0.0
H1595 H 0.39243 0.08755 0.07046 0.0
H1596 H 0.51335 0.71103 0.3269 0.0
H1597 H 0.4661 0.66138 0.32918 0.0
H1598 H 0.4129 0.70687 0.32808 0.0
H1599 H 0.45997 0.75652 0.32547 0.0
H1600 H 0.39757 0.66662 0.37093 0.0
H1601 H 0.4134 0.66707 0.27308 0.0
H1602 H 0.44263 0.67103 0.23109 0.0
H1603 H 0.4505 0.59386 0.25709 0.0
H1604 H 0.42165 0.5897 0.29945 0.0
H1605 H 0.24761 0.54262 0.35151 0.0
H1606 H 0.29718 0.58963 0.34919 0.0
H1607 H 0.34261 0.53644 0.3449 0.0
H1608 H 0.29294 0.48924 0.34601 0.0
H1609 H 0.36384 0.5793 0.30635 0.0
H1610 H 0.34662 0.57711 0.40312 0.0
H1611 H 0.31797 0.57293 0.44557 0.0
H1612 H 0.31371 0.65297 0.42269 0.0
H1613 H 0.34198 0.6574 0.3799 0.0
C1614 C 0.49157 0.71041 0.32642 0.0
C1615 C 0.49035 0.73767 0.32617 0.0
C1616 C 0.46461 0.68204 0.32785 0.0
C1617 C 0.43606 0.68052 0.32892 0.0
C1618 C 0.43475 0.70761 0.32751 0.0
C1619 C 0.46163 0.73592 0.32602 0.0
C1620 C 0.40761 0.65091 0.33322 0.0
C1621 C 0.38995 0.64762 0.35665 0.0
C1622 C 0.39838 0.62586 0.31507 0.0
C1623 C 0.41565 0.62828 0.28958 0.0
C1624 C 0.42159 0.65111 0.26996 0.0
C1625 C 0.43804 0.65336 0.24607 0.0
C1626 C 0.44849 0.63277 0.24146 0.0
C1627 C 0.44243 0.60983 0.26071 0.0
C1628 C 0.42601 0.6075 0.28465 0.0
C1629 C 0.26816 0.54092 0.35022 0.0
C1630 C 0.26633 0.51219 0.34888 0.0
C1631 C 0.2965 0.56781 0.34913 0.0
C1632 C 0.32362 0.56654 0.34706 0.0
C1633 C 0.32195 0.53793 0.34654 0.0
C1634 C 0.29357 0.51098 0.34749 0.0
C1635 C 0.35349 0.5951 0.34392 0.0
C1636 C 0.37149 0.5982 0.32075 0.0
C1637 C 0.36315 0.61996 0.3624 0.0
C1638 C 0.34621 0.61743 0.38818 0.0
C1639 C 0.33938 0.59369 0.40703 0.0
C1640 C 0.32324 0.5913 0.43118 0.0
C1641 C 0.31397 0.61263 0.4368 0.0
C1642 C 0.32089 0.63645 0.41831 0.0
C1643 C 0.337 0.63893 0.39412 0.0
H1644 H 0.30148 0.61074 0.4555 0.0
H1645 H 0.46123 0.63455 0.22295 0.0
H1646 H 0.76944 0.49197 0.6321 0.0
H1647 H 0.77269 0.44507 0.62956 0.0
H1648 H 0.77082 0.43968 0.71827 0.0
H1649 H 0.76825 0.4867 0.72094 0.0
H1650 H 0.81174 0.42521 0.69632 0.0
H1651 H 0.70634 0.39814 0.68231 0.0
H1652 H 0.66422 0.40122 0.65955 0.0
H1653 H 0.68606 0.37445 0.58271 0.0
H1654 H 0.72861 0.37163 0.60496 0.0
H1655 H 0.76174 0.26703 0.71639 0.0
H1656 H 0.76748 0.31828 0.71655 0.0
H1657 H 0.76363 0.31697 0.62775 0.0
H1658 H 0.75765 0.26587 0.6275 0.0
H1659 H 0.72756 0.33594 0.64812 0.0
H1660 H 0.83137 0.36009 0.66272 0.0
H1661 H 0.87327 0.3568 0.68567 0.0
H1662 H 0.85473 0.38881 0.76119 0.0
H1663 H 0.81241 0.39189 0.7388 0.0
C1664 C 0.77017 0.48098 0.65102 0.0
C1665 C 0.76816 0.49269 0.6767 0.0
C1666 C 0.77186 0.45416 0.64955 0.0
C1667 C 0.7716 0.43875 0.67374 0.0
C1668 C 0.77094 0.45117 0.69938 0.0
C1669 C 0.76917 0.47785 0.70085 0.0
C1670 C 0.77039 0.40884 0.67251 0.0
C1671 C 0.79325 0.4056 0.68595 0.0
C1672 C 0.74652 0.38347 0.65859 0.0
C1673 C 0.72086 0.38501 0.64522 0.0
C1674 C 0.70231 0.39315 0.66051 0.0
C1675 C 0.67834 0.39481 0.64771 0.0
C1676 C 0.67253 0.38813 0.61968 0.0
C1677 C 0.69063 0.37968 0.60441 0.0
C1678 C 0.71466 0.37803 0.6171 0.0
C1679 C 0.76232 0.27782 0.69695 0.0
C1680 C 0.75898 0.26239 0.67196 0.0
C1681 C 0.76567 0.30708 0.69704 0.0
C1682 C 0.7662 0.32152 0.67213 0.0
C1683 C 0.76315 0.30621 0.64719 0.0
C1684 C 0.75961 0.27697 0.6471 0.0
C1685 C 0.76895 0.35218 0.67193 0.0
C1686 C 0.74626 0.35556 0.65829 0.0
C1687 C 0.793 0.37764 0.68565 0.0
C1688 C 0.81854 0.37596 0.69914 0.0
C1689 C 0.83608 0.36621 0.68428 0.0
C1690 C 0.85993 0.36442 0.69718 0.0
C1691 C 0.86661 0.37252 0.72489 0.0
C1692 C 0.8495 0.38251 0.73974 0.0
C1693 C 0.8256 0.38431 0.72695 0.0
H1694 H 0.88508 0.37111 0.73484 0.0
H1695 H 0.65395 0.38942 0.60981 0.0
H1696 H 0.49652 0.79588 0.96558 0.0
H1697 H 0.4524 0.80296 0.97087 0.0
H1698 H 0.45162 0.78722 0.05828 0.0
H1699 H 0.49523 0.77889 0.05292 0.0
H1700 H 0.39661 0.75258 0.03679 0.0
H1701 H 0.47164 0.85864 0.03228 0.0
H1702 H 0.516 0.90513 0.01362 0.0
H1703 H 0.46708 0.89477 0.9383 0.0
H1704 H 0.42256 0.84795 0.95633 0.0
H1705 H 0.27477 0.78034 0.06003 0.0
H1706 H 0.32664 0.78819 0.06094 0.0
H1707 H 0.33111 0.79557 0.97237 0.0
H1708 H 0.27895 0.78751 0.97127 0.0
H1709 H 0.38573 0.8377 0.99801 0.0
H1710 H 0.31334 0.72933 1.00092 0.0
H1711 H 0.26896 0.68253 0.01916 0.0
H1712 H 0.31376 0.69753 0.09754 0.0
H1713 H 0.35824 0.74472 0.07987 0.0
C1714 C 0.48705 0.79405 0.98597 0.0
C1715 C 0.49912 0.78648 0.0088 0.0
C1716 C 0.46206 0.7985 0.98901 0.0
C1717 C 0.44885 0.79587 0.01501 0.0
C1718 C 0.46155 0.78944 0.03804 0.0
C1719 C 0.48656 0.78489 0.03499 0.0
C1720 C 0.42016 0.79703 0.01756 0.0
C1721 C 0.39446 0.77154 0.02888 0.0
C1722 C 0.41712 0.82138 0.00651 0.0
C1723 C 0.44382 0.84963 0.99561 0.0
C1724 C 0.47041 0.86614 0.01166 0.0
C1725 C 0.49558 0.89258 1.0012 0.0
C1726 C 0.49438 0.90287 0.97477 0.0
C1727 C 0.46798 0.88677 0.95876 0.0
C1728 C 0.44275 0.8603 0.96911 0.0
C1729 C 0.28678 0.78363 0.04073 0.0
C1730 C 0.27263 0.7828 0.01553 0.0
C1731 C 0.31645 0.78827 0.04131 0.0
C1732 C 0.33248 0.79202 0.0167 0.0
C1733 C 0.31904 0.79269 0.99158 0.0
C1734 C 0.2893 0.78808 0.99098 0.0
C1735 C 0.36242 0.79327 0.01713 0.0
C1736 C 0.38817 0.81905 0.00627 0.0
C1737 C 0.36559 0.7692 0.02857 0.0
C1738 C 0.33896 0.74073 0.03917 0.0
C1739 C 0.31362 0.72278 0.02212 0.0
C1740 C 0.28846 0.69617 0.03234 0.0
C1741 C 0.2885 0.68711 0.05952 0.0
C1742 C 0.31374 0.70461 0.07651 0.0
C1743 C 0.33893 0.73128 0.0664 0.0
H1744 H 0.26901 0.66649 0.06739 0.0
H1745 H 0.51389 0.92335 0.96672 0.0
H1746 H 0.48374 0.29378 0.33161 0.0
H1747 H 0.53047 0.34396 0.33133 0.0
H1748 H 0.58501 0.30012 0.32543 0.0
H1749 H 0.53847 0.24995 0.32514 0.0
H1750 H 0.60197 0.34158 0.3687 0.0
H1751 H 0.57906 0.33692 0.27155 0.0
H1752 H 0.54611 0.33098 0.23176 0.0
H1753 H 0.54023 0.40913 0.25831 0.0
H1754 H 0.57278 0.41525 0.29852 0.0
H1755 H 0.75038 0.46181 0.34222 0.0
H1756 H 0.70015 0.41568 0.3411 0.0
H1757 H 0.65692 0.47097 0.33791 0.0
H1758 H 0.70735 0.51741 0.33768 0.0
H1759 H 0.63141 0.42585 0.30152 0.0
H1760 H 0.65538 0.43287 0.39694 0.0
H1761 H 0.68668 0.43908 0.43806 0.0
H1762 H 0.68853 0.3573 0.41698 0.0
H1763 H 0.6576 0.35082 0.37549 0.0
C1764 C 0.50564 0.29484 0.32954 0.0
C1765 C 0.50745 0.26789 0.32862 0.0
C1766 C 0.5323 0.32351 0.32953 0.0
C1767 C 0.56111 0.32564 0.32852 0.0
C1768 C 0.56293 0.29887 0.32646 0.0
C1769 C 0.53636 0.27026 0.32635 0.0
C1770 C 0.58949 0.35559 0.33132 0.0
C1771 C 0.60864 0.35992 0.35387 0.0
C1772 C 0.59737 0.37981 0.31255 0.0
C1773 C 0.57809 0.37634 0.28821 0.0
C1774 C 0.57054 0.35269 0.26903 0.0
C1775 C 0.55197 0.34931 0.24638 0.0
C1776 C 0.54101 0.36961 0.24256 0.0
C1777 C 0.5487 0.39339 0.26133 0.0
C1778 C 0.56722 0.39684 0.28404 0.0
C1779 C 0.73021 0.46421 0.34121 0.0
C1780 C 0.73288 0.4933 0.33999 0.0
C1781 C 0.70148 0.4378 0.34086 0.0
C1782 C 0.67476 0.43988 0.33974 0.0
C1783 C 0.67726 0.46887 0.33887 0.0
C1784 C 0.70608 0.49537 0.33905 0.0
C1785 C 0.64437 0.41165 0.33861 0.0
C1786 C 0.62473 0.40763 0.31649 0.0
C1787 C 0.6358 0.38776 0.35797 0.0
C1788 C 0.65435 0.3915 0.38297 0.0
C1789 C 0.66265 0.41633 0.40095 0.0
C1790 C 0.6803 0.41987 0.42435 0.0
C1791 C 0.68964 0.39863 0.4301 0.0
C1792 C 0.68129 0.37375 0.41249 0.0
C1793 C 0.66367 0.37011 0.38905 0.0
H1794 H 0.7033 0.40142 0.44823 0.0
H1795 H 0.52663 0.36695 0.22501 0.0
H1796 H 0.28805 0.74506 0.67368 0.0
H1797 H 0.2826 0.69426 0.67002 0.0
H1798 H 0.18425 0.65307 0.67083 0.0
H1799 H 0.18947 0.70396 0.67398 0.0
H1800 H 0.2063 0.6212 0.70271 0.0
H1801 H 0.21646 0.66114 0.61151 0.0
H1802 H 0.24008 0.69995 0.57492 0.0
H1803 H 0.32358 0.69728 0.58256 0.0
H1804 H 0.30061 0.6588 0.61953 0.0
H1805 H 0.1883 0.47834 0.66054 0.0
H1806 H 0.18322 0.52415 0.65905 0.0
H1807 H 0.28136 0.58078 0.65197 0.0
H1808 H 0.28648 0.53514 0.65255 0.0
H1809 H 0.25293 0.60237 0.62038 0.0
H1810 H 0.24554 0.56744 0.71429 0.0
H1811 H 0.22354 0.52988 0.75204 0.0
H1812 H 0.13634 0.52401 0.74015 0.0
H1813 H 0.15775 0.56125 0.70204 0.0
C1814 C 0.26525 0.7252 0.67321 0.0
C1815 C 0.23919 0.72856 0.67377 0.0
C1816 C 0.26218 0.69622 0.67116 0.0
C1817 C 0.23303 0.67004 0.66965 0.0
C1818 C 0.20694 0.67307 0.67185 0.0
C1819 C 0.20998 0.70214 0.6738 0.0
C1820 C 0.23007 0.63976 0.66452 0.0
C1821 C 0.21597 0.61682 0.68449 0.0
C1822 C 0.24307 0.63433 0.64088 0.0
C1823 C 0.25687 0.65725 0.61845 0.0
C1824 C 0.23993 0.66899 0.60553 0.0
C1825 C 0.2532 0.69091 0.58471 0.0
C1826 C 0.28333 0.70112 0.57646 0.0
C1827 C 0.30024 0.68937 0.58898 0.0
C1828 C 0.2871 0.66748 0.60986 0.0
C1829 C 0.2087 0.50051 0.65797 0.0
C1830 C 0.23784 0.50322 0.65697 0.0
C1831 C 0.20579 0.52666 0.65739 0.0
C1832 C 0.23197 0.55588 0.65594 0.0
C1833 C 0.26087 0.55847 0.65328 0.0
C1834 C 0.26379 0.5324 0.6538 0.0
C1835 C 0.22973 0.58394 0.65885 0.0
C1836 C 0.24285 0.60653 0.63842 0.0
C1837 C 0.21598 0.58909 0.68214 0.0
C1838 C 0.20314 0.56683 0.70511 0.0
C1839 C 0.22161 0.55795 0.71959 0.0
C1840 C 0.20926 0.53675 0.74106 0.0
C1841 C 0.17853 0.52449 0.74843 0.0
C1842 C 0.16012 0.53348 0.73438 0.0
C1843 C 0.17235 0.55463 0.71284 0.0
H1844 H 0.16901 0.50809 0.76507 0.0
H1845 H 0.29356 0.71809 0.56033 0.0
H1846 H 0.54353 0.28251 0.01447 0.0
H1847 H 0.58863 0.27636 0.01322 0.0
H1848 H 0.53062 0.17932 0.99935 0.0
H1849 H 0.4853 0.18532 1.0011 0.0
H1850 H 0.57599 0.18928 0.03301 0.0
H1851 H 0.5677 0.2271 0.94573 0.0
H1852 H 0.56158 0.26129 0.91332 0.0
H1853 H 0.64571 0.33764 0.94228 0.0
H1854 H 0.65211 0.30399 0.97518 0.0
H1855 H 0.73015 0.22464 0.96003 0.0
H1856 H 0.67826 0.2172 0.95807 0.0
H1857 H 0.6815 0.23413 0.04545 0.0
H1858 H 0.73264 0.24048 0.04773 0.0
H1859 H 0.65932 0.25635 0.96873 0.0
H1860 H 0.61154 0.19361 0.07353 0.0
H1861 H 0.61569 0.15567 0.10249 0.0
H1862 H 0.64 0.1215 0.03159 0.0
H1863 H 0.63553 0.15888 1.00213 0.0
C1864 C 0.54042 0.25984 0.01137 0.0
C1865 C 0.51101 0.23443 0.00767 0.0
C1866 C 0.56616 0.25636 0.01057 0.0
C1867 C 0.56301 0.22749 0.00556 0.0
C1868 C 0.53356 0.20182 1.0031 0.0
C1869 C 0.50773 0.20525 1.00418 0.0
C1870 C 0.59059 0.22445 1.0021 0.0
C1871 C 0.59419 0.20385 0.01892 0.0
C1872 C 0.61386 0.24273 0.983 0.0
C1873 C 0.61027 0.26304 0.96306 0.0
C1874 C 0.5848 0.25122 0.94531 0.0
C1875 C 0.58129 0.2705 0.92684 0.0
C1876 C 0.60322 0.30163 0.92577 0.0
C1877 C 0.62874 0.31352 0.94313 0.0
C1878 C 0.63234 0.29435 0.96168 0.0
C1879 C 0.71959 0.22636 0.97886 0.0
C1880 C 0.73555 0.23333 1.00401 0.0
C1881 C 0.69006 0.22227 0.97768 0.0
C1882 C 0.67592 0.22482 1.00165 0.0
C1883 C 0.69176 0.23158 0.02677 0.0
C1884 C 0.72118 0.23563 0.02797 0.0
C1885 C 0.64526 0.22204 1.00041 0.0
C1886 C 0.64104 0.24154 0.98265 0.0
C1887 C 0.62113 0.20215 0.0181 0.0
C1888 C 0.62342 0.17925 0.03565 0.0
C1889 C 0.61759 0.17789 0.06408 0.0
C1890 C 0.62004 0.1565 0.08059 0.0
C1891 C 0.62818 0.13624 0.0689 0.0
C1892 C 0.6338 0.13727 0.04064 0.0
C1893 C 0.63135 0.15858 0.02403 0.0
H1894 H 0.63009 0.11973 0.08172 0.0
H1895 H 0.60046 0.31652 0.91145 0.0
loop_
_geom_bond_atom_site_label_1
_geom_bond_atom_site_label_2
_geom_bond_distance
_geom_bond_site_symmetry_2
_ccdc_geom_bond_type
C0 C1 1.351 . S
C0 N3 1.368 . S
C0 H5 0.931 . S
C1 C0 1.351 . S
C1 N2 1.373 . S
C1 H29 0.930 . S
N2 C1 1.373 . S
N2 C4 1.340 . S
N3 C0 1.368 . S
N3 C4 1.321 . S
N3 Co6 2.135 . S
C4 N2 1.340 . S
C4 N3 1.321 . S
C4 H28 0.930 . S
H5 C0 0.931 . S
Co6 N3 2.135 . S
Co6 N9 2.121 . S
Co6 O14 2.055 . S
Co6 O17 2.039 . S
Co6 N20 2.140 . S
C7 O8 1.227 . S
C7 O17 1.265 . S
O8 C7 1.227 . S
N9 Co6 2.121 . S
N9 C11 1.375 . S
N9 C12 1.313 . S
C10 C11 1.338 . S
C10 N13 1.377 . S
C10 H30 0.930 . S
C11 N9 1.375 . S
C11 C10 1.338 . S
C11 H15 0.931 . S
C12 N9 1.313 . S
C12 N13 1.344 . S
C12 H16 0.930 . S
N13 C10 1.377 . S
N13 C12 1.344 . S
O14 Co6 2.055 . S
O14 C18 1.253 . S
H15 C11 0.931 . S
H16 C12 0.930 . S
O17 Co6 2.039 . S
O17 C7 1.265 . S
C18 O14 1.253 . S
C18 O19 1.227 . S
O19 C18 1.227 . S
N20 Co6 2.140 . S
N20 C23 1.346 . S
N20 C24 1.345 . S
C21 C22 1.387 . S
C21 C25 1.391 . S
C22 C21 1.387 . S
C22 C23 1.369 . S
C22 H31 0.929 . S
C23 N20 1.346 . S
C23 C22 1.369 . S
C23 H26 0.928 . S
C24 N20 1.345 . S
C24 C25 1.371 . S
C24 H27 0.931 . S
C25 C21 1.391 . S
C25 C24 1.371 . S
C25 H32 0.930 . S
H26 C23 0.928 . S
H27 C24 0.931 . S
H28 C4 0.930 . S
H29 C1 0.930 . S
H30 C10 0.930 . S
H31 C22 0.929 . S
H32 C25 0.930 . S
C33 C34 1.351 . S
C33 N36 1.368 . S
C33 H38 0.931 . S
C34 C33 1.351 . S
C34 N35 1.373 . S
C34 H62 0.930 . S
N35 C34 1.373 . S
N35 C37 1.340 . S
N36 C33 1.368 . S
N36 C37 1.321 . S
N36 Co39 2.135 . S
C37 N35 1.340 . S
C37 N36 1.321 . S
C37 H61 0.930 . S
H38 C33 0.931 . S
Co39 N36 2.135 . S
Co39 N42 2.121 . S
Co39 O47 2.055 . S
Co39 O50 2.039 . S
Co39 N53 2.140 . S
C40 O41 1.227 . S
C40 O50 1.265 . S
O41 C40 1.227 . S
N42 Co39 2.121 . S
N42 C44 1.375 . S
N42 C45 1.313 . S
C43 C44 1.338 . S
C43 N46 1.377 . S
C43 H63 0.930 . S
C44 N42 1.375 . S
C44 C43 1.338 . S
C44 H48 0.931 . S
C45 N42 1.313 . S
C45 N46 1.344 . S
C45 H49 0.930 . S
N46 C43 1.377 . S
N46 C45 1.344 . S
O47 Co39 2.055 . S
O47 C51 1.253 . S
H48 C44 0.931 . S
H49 C45 0.930 . S
O50 Co39 2.039 . S
O50 C40 1.265 . S
C51 O47 1.253 . S
C51 O52 1.227 . S
O52 C51 1.227 . S
N53 Co39 2.140 . S
N53 C56 1.346 . S
N53 C57 1.345 . S
C54 C55 1.387 . S
C54 C58 1.391 . S
C55 C54 1.387 . S
C55 C56 1.369 . S
C55 H64 0.929 . S
C56 N53 1.346 . S
C56 C55 1.369 . S
C56 H59 0.928 . S
C57 N53 1.345 . S
C57 C58 1.371 . S
C57 H60 0.931 . S
C58 C54 1.391 . S
C58 C57 1.371 . S
C58 H65 0.930 . S
H59 C56 0.928 . S
H60 C57 0.931 . S
H61 C37 0.930 . S
H62 C34 0.930 . S
H63 C43 0.930 . S
H64 C55 0.929 . S
H65 C58 0.930 . S
C66 C67 1.351 . S
C66 N69 1.368 . S
C66 H71 0.931 . S
C67 C66 1.351 . S
C67 N68 1.373 . S
C67 H95 0.930 . S
N68 C67 1.373 . S
N68 C70 1.340 1_556 S
N69 C66 1.368 . S
N69 C70 1.321 1_556 S
N69 Co72 2.135 1_556 S
C70 N68 1.340 1_554 S
C70 N69 1.321 1_554 S
C70 H94 0.930 . S
H71 C66 0.931 . S
Co72 N69 2.135 1_554 S
Co72 N75 2.121 . S
Co72 O80 2.055 1_554 S
Co72 O83 2.039 . S
Co72 N86 2.140 1_554 S
C73 O74 1.227 . S
C73 O83 1.265 . S
O74 C73 1.227 . S
N75 Co72 2.121 . S
N75 C77 1.375 . S
N75 C78 1.309 1_554 S
C76 C77 1.338 . S
C76 N79 1.377 . S
C76 H96 0.930 . S
C77 N75 1.375 . S
C77 C76 1.338 . S
C77 H81 0.931 . S
C78 N75 1.309 1_556 S
C78 N79 1.340 1_556 S
C78 H82 0.938 . S
N79 C76 1.377 . S
N79 C78 1.340 1_554 S
O80 Co72 2.055 1_556 S
O80 C84 1.253 . S
H81 C77 0.931 . S
H82 C78 0.938 . S
O83 Co72 2.039 . S
O83 C73 1.265 . S
C84 O80 1.253 . S
C84 O85 1.227 . S
O85 C84 1.227 . S
N86 Co72 2.140 1_556 S
N86 C89 1.346 1_556 S
N86 C90 1.345 . S
C87 C88 1.387 . S
C87 C91 1.391 . S
C88 C87 1.387 . S
C88 C89 1.369 1_556 S
C88 H97 0.929 1_556 S
C89 N86 1.346 1_554 S
C89 C88 1.369 1_554 S
C89 H92 0.928 . S
C90 N86 1.345 . S
C90 C91 1.371 . S
C90 H93 0.931 . S
C91 C87 1.391 . S
C91 C90 1.371 . S
C91 H98 0.930 . S
H92 C89 0.928 . S
H93 C90 0.931 . S
H94 C70 0.930 . S
H95 C67 0.930 . S
H96 C76 0.930 . S
H97 C88 0.929 1_554 S
H98 C91 0.930 . S
C99 C100 1.351 . S
C99 N102 1.368 . S
C99 H104 0.931 . S
C100 C99 1.351 . S
C100 N101 1.373 . S
C100 H128 0.930 . S
N101 C100 1.373 . S
N101 C103 1.340 . S
N102 C99 1.368 . S
N102 C103 1.321 . S
N102 Co105 2.135 . S
C103 N101 1.340 . S
C103 N102 1.321 . S
C103 H127 0.930 . S
H104 C99 0.931 . S
Co105 N102 2.135 . S
Co105 N108 2.121 . S
Co105 O113 2.055 . S
Co105 O116 2.039 . S
Co105 N119 2.140 . S
C106 O107 1.227 . S
C106 O116 1.265 . S
O107 C106 1.227 . S
N108 Co105 2.121 . S
N108 C110 1.375 . S
N108 C111 1.313 . S
C109 C110 1.338 . S
C109 N112 1.377 . S
C109 H129 0.930 . S
C110 N108 1.375 . S
C110 C109 1.338 . S
C110 H114 0.931 . S
C111 N108 1.313 . S
C111 N112 1.344 . S
C111 H115 0.930 . S
N112 C109 1.377 . S
N112 C111 1.344 . S
O113 Co105 2.055 . S
O113 C117 1.253 . S
H114 C110 0.931 . S
H115 C111 0.930 . S
O116 Co105 2.039 . S
O116 C106 1.265 . S
C117 O113 1.253 . S
C117 O118 1.227 . S
O118 C117 1.227 . S
N119 Co105 2.140 . S
N119 C122 1.346 . S
N119 C123 1.345 . S
C120 C121 1.387 . S
C120 C124 1.391 . S
C121 C120 1.387 . S
C121 C122 1.369 . S
C121 H130 0.929 . S
C122 N119 1.346 . S
C122 C121 1.369 . S
C122 H125 0.928 . S
C123 N119 1.345 . S
C123 C124 1.371 . S
C123 H126 0.931 . S
C124 C120 1.391 . S
C124 C123 1.371 . S
C124 H131 0.930 . S
H125 C122 0.928 . S
H126 C123 0.931 . S
H127 C103 0.930 . S
H128 C100 0.930 . S
H129 C109 0.930 . S
H130 C121 0.929 . S
H131 C124 0.930 . S
C132 C133 1.351 . S
C132 N135 1.368 . S
C132 H137 0.931 . S
C133 C132 1.351 . S
C133 N134 1.373 . S
C133 H161 0.930 . S
N134 C133 1.373 . S
N134 C136 1.340 . S
N135 C132 1.368 . S
N135 C136 1.321 . S
N135 Co138 2.135 . S
C136 N134 1.340 . S
C136 N135 1.321 . S
C136 H160 0.930 . S
H137 C132 0.931 . S
Co138 N135 2.135 . S
Co138 N141 2.121 . S
Co138 O146 2.055 . S
Co138 O149 2.039 . S
Co138 N152 2.140 . S
C139 O140 1.227 . S
C139 O149 1.265 . S
O140 C139 1.227 . S
N141 Co138 2.121 . S
N141 C143 1.375 . S
N141 C144 1.313 . S
C142 C143 1.338 . S
C142 N145 1.377 . S
C142 H162 0.930 . S
C143 N141 1.375 . S
C143 C142 1.338 . S
C143 H147 0.931 . S
C144 N141 1.313 . S
C144 N145 1.344 . S
C144 H148 0.930 . S
N145 C142 1.377 . S
N145 C144 1.344 . S
O146 Co138 2.055 . S
O146 C150 1.253 . S
H147 C143 0.931 . S
H148 C144 0.930 . S
O149 Co138 2.039 . S
O149 C139 1.265 . S
C150 O146 1.253 . S
C150 O151 1.227 . S
O151 C150 1.227 . S
N152 Co138 2.140 . S
N152 C155 1.346 . S
N152 C156 1.345 . S
C153 C154 1.387 . S
C153 C157 1.391 . S
C154 C153 1.387 . S
C154 C155 1.369 . S
C154 H163 0.929 . S
C155 N152 1.346 . S
C155 C154 1.369 . S
C155 H158 0.928 . S
C156 N152 1.345 . S
C156 C157 1.371 . S
C156 H159 0.931 . S
C157 C153 1.391 . S
C157 C156 1.371 . S
C157 H164 0.930 . S
H158 C155 0.928 . S
H159 C156 0.931 . S
H160 C136 0.930 . S
H161 C133 0.930 . S
H162 C142 0.930 . S
H163 C154 0.929 . S
H164 C157 0.930 . S
C165 C166 1.351 . S
C165 N168 1.368 . S
C165 H170 0.931 . S
C166 C165 1.351 . S
C166 N167 1.373 . S
C166 H194 0.930 . S
N167 C166 1.373 . S
N167 C169 1.340 1_556 S
N168 C165 1.368 . S
N168 C169 1.321 1_556 S
N168 Co171 2.135 1_556 S
C169 N167 1.340 1_554 S
C169 N168 1.321 1_554 S
C169 H193 0.930 . S
H170 C165 0.931 . S
Co171 N168 2.135 1_554 S
Co171 N174 2.121 . S
Co171 O179 2.055 1_554 S
Co171 O182 2.039 . S
Co171 N185 2.140 1_554 S
C172 O173 1.227 . S
C172 O182 1.265 . S
O173 C172 1.227 . S
N174 Co171 2.121 . S
N174 C176 1.375 . S
N174 C177 1.309 1_554 S
C175 C176 1.338 . S
C175 N178 1.377 . S
C175 H195 0.930 . S
C176 N174 1.375 . S
C176 C175 1.338 . S
C176 H180 0.931 . S
C177 N174 1.309 1_556 S
C177 N178 1.340 1_556 S
C177 H181 0.938 . S
N178 C175 1.377 . S
N178 C177 1.340 1_554 S
O179 Co171 2.055 1_556 S
O179 C183 1.253 . S
H180 C176 0.931 . S
H181 C177 0.938 . S
O182 Co171 2.039 . S
O182 C172 1.265 . S
C183 O179 1.253 . S
C183 O184 1.227 . S
O184 C183 1.227 . S
N185 Co171 2.140 1_556 S
N185 C188 1.346 1_556 S
N185 C189 1.345 . S
C186 C187 1.387 . S
C186 C190 1.391 . S
C187 C186 1.387 . S
C187 C188 1.369 1_556 S
C187 H196 0.929 1_556 S
C188 N185 1.346 1_554 S
C188 C187 1.369 1_554 S
C188 H191 0.928 . S
C189 N185 1.345 . S
C189 C190 1.371 . S
C189 H192 0.931 . S
C190 C186 1.391 . S
C190 C189 1.371 . S
C190 H197 0.930 . S
H191 C188 0.928 . S
H192 C189 0.931 . S
H193 C169 0.930 . S
H194 C166 0.930 . S
H195 C175 0.930 . S
H196 C187 0.929 1_554 S
H197 C190 0.930 . S
C198 C199 1.351 . S
C198 N201 1.368 . S
C198 H203 0.931 . S
C199 C198 1.351 . S
C199 N200 1.373 . S
C199 H227 0.930 . S
N200 C199 1.373 . S
N200 C202 1.340 . S
N201 C198 1.368 . S
N201 C202 1.321 . S
N201 Co204 2.135 . S
C202 N200 1.340 . S
C202 N201 1.321 . S
C202 H226 0.930 . S
H203 C198 0.931 . S
Co204 N201 2.135 . S
Co204 N207 2.121 . S
Co204 O212 2.055 . S
Co204 O215 2.039 . S
Co204 N218 2.140 . S
C205 O206 1.227 . S
C205 O215 1.265 . S
O206 C205 1.227 . S
N207 Co204 2.121 . S
N207 C209 1.375 . S
N207 C210 1.313 . S
C208 C209 1.338 . S
C208 N211 1.377 . S
C208 H228 0.930 . S
C209 N207 1.375 . S
C209 C208 1.338 . S
C209 H213 0.931 . S
C210 N207 1.313 . S
C210 N211 1.344 . S
C210 H214 0.930 . S
N211 C208 1.377 . S
N211 C210 1.344 . S
O212 Co204 2.055 . S
O212 C216 1.253 . S
H213 C209 0.931 . S
H214 C210 0.930 . S
O215 Co204 2.039 . S
O215 C205 1.265 . S
C216 O212 1.253 . S
C216 O217 1.227 . S
O217 C216 1.227 . S
N218 Co204 2.140 . S
N218 C221 1.346 . S
N218 C222 1.345 . S
C219 C220 1.387 . S
C219 C223 1.391 . S
C220 C219 1.387 . S
C220 C221 1.369 . S
C220 H229 0.929 . S
C221 N218 1.346 . S
C221 C220 1.369 . S
C221 H224 0.928 . S
C222 N218 1.345 . S
C222 C223 1.371 . S
C222 H225 0.931 . S
C223 C219 1.391 . S
C223 C222 1.371 . S
C223 H230 0.930 . S
H224 C221 0.928 . S
H225 C222 0.931 . S
H226 C202 0.930 . S
H227 C199 0.930 . S
H228 C208 0.930 . S
H229 C220 0.929 . S
H230 C223 0.930 . S
C231 C232 1.351 . S
C231 N234 1.368 . S
C231 H236 0.931 . S
C232 C231 1.351 . S
C232 N233 1.373 . S
C232 H260 0.930 . S
N233 C232 1.373 . S
N233 C235 1.340 . S
N234 C231 1.368 . S
N234 C235 1.321 . S
N234 Co237 2.135 . S
C235 N233 1.340 . S
C235 N234 1.321 . S
C235 H259 0.930 . S
H236 C231 0.931 . S
Co237 N234 2.135 . S
Co237 N240 2.121 . S
Co237 O245 2.055 . S
Co237 O248 2.039 . S
Co237 N251 2.140 . S
C238 O239 1.227 . S
C238 O248 1.265 . S
O239 C238 1.227 . S
N240 Co237 2.121 . S
N240 C242 1.375 . S
N240 C243 1.313 . S
C241 C242 1.338 . S
C241 N244 1.377 . S
C241 H261 0.930 . S
C242 N240 1.375 . S
C242 C241 1.338 . S
C242 H246 0.931 . S
C243 N240 1.313 . S
C243 N244 1.344 . S
C243 H247 0.930 . S
N244 C241 1.377 . S
N244 C243 1.344 . S
O245 Co237 2.055 . S
O245 C249 1.253 . S
H246 C242 0.931 . S
H247 C243 0.930 . S
O248 Co237 2.039 . S
O248 C238 1.265 . S
C249 O245 1.253 . S
C249 O250 1.227 . S
O250 C249 1.227 . S
N251 Co237 2.140 . S
N251 C254 1.346 . S
N251 C255 1.345 . S
C252 C253 1.387 . S
C252 C256 1.391 . S
C253 C252 1.387 . S
C253 C254 1.369 . S
C253 H262 0.929 . S
C254 N251 1.346 . S
C254 C253 1.369 . S
C254 H257 0.928 . S
C255 N251 1.345 . S
C255 C256 1.371 . S
C255 H258 0.931 . S
C256 C252 1.391 . S
C256 C255 1.371 . S
C256 H263 0.930 . S
H257 C254 0.928 . S
H258 C255 0.931 . S
H259 C235 0.930 . S
H260 C232 0.930 . S
H261 C241 0.930 . S
H262 C253 0.929 . S
H263 C256 0.930 . S
C264 C265 1.351 . S
C264 N267 1.368 . S
C264 H269 0.931 . S
C265 C264 1.351 . S
C265 N266 1.373 . S
C265 H293 0.930 . S
N266 C265 1.373 . S
N266 C268 1.340 1_554 S
N267 C264 1.368 . S
N267 C268 1.321 1_554 S
N267 Co270 2.135 1_554 S
C268 N266 1.340 1_556 S
C268 N267 1.321 1_556 S
C268 H292 0.930 . S
H269 C264 0.931 . S
Co270 N267 2.135 1_556 S
Co270 N273 2.121 . S
Co270 O278 2.055 1_556 S
Co270 O281 2.039 . S
Co270 N284 2.140 1_556 S
C271 O272 1.227 . S
C271 O281 1.265 . S
O272 C271 1.227 . S
N273 Co270 2.121 . S
N273 C275 1.375 . S
N273 C276 1.309 1_556 S
C274 C275 1.338 . S
C274 N277 1.377 . S
C274 H294 0.930 . S
C275 N273 1.375 . S
C275 C274 1.338 . S
C275 H279 0.931 . S
C276 N273 1.309 1_554 S
C276 N277 1.340 1_554 S
C276 H280 0.938 . S
N277 C274 1.377 . S
N277 C276 1.340 1_556 S
O278 Co270 2.055 1_554 S
O278 C282 1.253 . S
H279 C275 0.931 . S
H280 C276 0.938 . S
O281 Co270 2.039 . S
O281 C271 1.265 . S
C282 O278 1.253 . S
C282 O283 1.227 . S
O283 C282 1.227 . S
N284 Co270 2.140 1_554 S
N284 C287 1.346 1_554 S
N284 C288 1.345 . S
C285 C286 1.387 . S
C285 C289 1.391 . S
C286 C285 1.387 . S
C286 C287 1.369 1_554 S
C286 H295 0.929 1_554 S
C287 N284 1.346 1_556 S
C287 C286 1.369 1_556 S
C287 H290 0.928 . S
C288 N284 1.345 . S
C288 C289 1.371 . S
C288 H291 0.931 . S
C289 C285 1.391 . S
C289 C288 1.371 . S
C289 H296 0.930 . S
H290 C287 0.928 . S
H291 C288 0.931 . S
H292 C268 0.930 . S
H293 C265 0.930 . S
H294 C274 0.930 . S
H295 C286 0.929 1_556 S
H296 C289 0.930 . S
C297 C298 1.351 . S
C297 N300 1.368 . S
C297 H302 0.931 . S
C298 C297 1.351 . S
C298 N299 1.373 . S
C298 H326 0.930 . S
N299 C298 1.373 . S
N299 C301 1.340 . S
N300 C297 1.368 . S
N300 C301 1.321 . S
N300 Co303 2.135 . S
C301 N299 1.340 . S
C301 N300 1.321 . S
C301 H325 0.930 . S
H302 C297 0.931 . S
Co303 N300 2.135 . S
Co303 N306 2.121 . S
Co303 O311 2.055 . S
Co303 O314 2.039 . S
Co303 N317 2.140 . S
C304 O305 1.227 . S
C304 O314 1.265 . S
O305 C304 1.227 . S
N306 Co303 2.121 . S
N306 C308 1.375 . S
N306 C309 1.313 . S
C307 C308 1.338 . S
C307 N310 1.377 . S
C307 H327 0.930 . S
C308 N306 1.375 . S
C308 C307 1.338 . S
C308 H312 0.931 . S
C309 N306 1.313 . S
C309 N310 1.344 . S
C309 H313 0.930 . S
N310 C307 1.377 . S
N310 C309 1.344 . S
O311 Co303 2.055 . S
O311 C315 1.253 . S
H312 C308 0.931 . S
H313 C309 0.930 . S
O314 Co303 2.039 . S
O314 C304 1.265 . S
C315 O311 1.253 . S
C315 O316 1.227 . S
O316 C315 1.227 . S
N317 Co303 2.140 . S
N317 C320 1.346 . S
N317 C321 1.345 . S
C318 C319 1.387 . S
C318 C322 1.391 . S
C319 C318 1.387 . S
C319 C320 1.369 . S
C319 H328 0.929 . S
C320 N317 1.346 . S
C320 C319 1.369 . S
C320 H323 0.928 . S
C321 N317 1.345 . S
C321 C322 1.371 . S
C321 H324 0.931 . S
C322 C318 1.391 . S
C322 C321 1.371 . S
C322 H329 0.930 . S
H323 C320 0.928 . S
H324 C321 0.931 . S
H325 C301 0.930 . S
H326 C298 0.930 . S
H327 C307 0.930 . S
H328 C319 0.929 . S
H329 C322 0.930 . S
C330 C331 1.351 . S
C330 N333 1.368 . S
C330 H335 0.931 . S
C331 C330 1.351 . S
C331 N332 1.373 . S
C331 H359 0.930 . S
N332 C331 1.373 . S
N332 C334 1.340 . S
N333 C330 1.368 . S
N333 C334 1.321 . S
N333 Co336 2.135 . S
C334 N332 1.340 . S
C334 N333 1.321 . S
C334 H358 0.930 . S
H335 C330 0.931 . S
Co336 N333 2.135 . S
Co336 N339 2.121 . S
Co336 O344 2.055 . S
Co336 O347 2.039 . S
Co336 N350 2.140 . S
C337 O338 1.227 . S
C337 O347 1.265 . S
O338 C337 1.227 . S
N339 Co336 2.121 . S
N339 C341 1.375 . S
N339 C342 1.313 . S
C340 C341 1.338 . S
C340 N343 1.377 . S
C340 H360 0.930 . S
C341 N339 1.375 . S
C341 C340 1.338 . S
C341 H345 0.931 . S
C342 N339 1.313 . S
C342 N343 1.344 . S
C342 H346 0.930 . S
N343 C340 1.377 . S
N343 C342 1.344 . S
O344 Co336 2.055 . S
O344 C348 1.253 . S
H345 C341 0.931 . S
H346 C342 0.930 . S
O347 Co336 2.039 . S
O347 C337 1.265 . S
C348 O344 1.253 . S
C348 O349 1.227 . S
O349 C348 1.227 . S
N350 Co336 2.140 . S
N350 C353 1.346 . S
N350 C354 1.345 . S
C351 C352 1.387 . S
C351 C355 1.391 . S
C352 C351 1.387 . S
C352 C353 1.369 . S
C352 H361 0.929 . S
C353 N350 1.346 . S
C353 C352 1.369 . S
C353 H356 0.928 . S
C354 N350 1.345 . S
C354 C355 1.371 . S
C354 H357 0.931 . S
C355 C351 1.391 . S
C355 C354 1.371 . S
C355 H362 0.930 . S
H356 C353 0.928 . S
H357 C354 0.931 . S
H358 C334 0.930 . S
H359 C331 0.930 . S
H360 C340 0.930 . S
H361 C352 0.929 . S
H362 C355 0.930 . S
C363 C364 1.351 . S
C363 N366 1.368 . S
C363 H368 0.931 . S
C364 C363 1.351 . S
C364 N365 1.373 . S
C364 H392 0.930 . S
N365 C364 1.373 . S
N365 C367 1.340 1_554 S
N366 C363 1.368 . S
N366 C367 1.321 1_554 S
N366 Co369 2.135 1_554 S
C367 N365 1.340 1_556 S
C367 N366 1.321 1_556 S
C367 H391 0.930 . S
H368 C363 0.931 . S
Co369 N366 2.135 1_556 S
Co369 N372 2.121 . S
Co369 O377 2.055 1_556 S
Co369 O380 2.039 . S
Co369 N383 2.140 1_556 S
C370 O371 1.227 . S
C370 O380 1.265 . S
O371 C370 1.227 . S
N372 Co369 2.121 . S
N372 C374 1.375 . S
N372 C375 1.309 1_556 S
C373 C374 1.338 . S
C373 N376 1.377 . S
C373 H393 0.930 . S
C374 N372 1.375 . S
C374 C373 1.338 . S
C374 H378 0.931 . S
C375 N372 1.309 1_554 S
C375 N376 1.340 1_554 S
C375 H379 0.938 . S
N376 C373 1.377 . S
N376 C375 1.340 1_556 S
O377 Co369 2.055 1_554 S
O377 C381 1.253 . S
H378 C374 0.931 . S
H379 C375 0.938 . S
O380 Co369 2.039 . S
O380 C370 1.265 . S
C381 O377 1.253 . S
C381 O382 1.227 . S
O382 C381 1.227 . S
N383 Co369 2.140 1_554 S
N383 C386 1.346 1_554 S
N383 C387 1.345 . S
C384 C385 1.387 . S
C384 C388 1.391 . S
C385 C384 1.387 . S
C385 C386 1.369 1_554 S
C385 H394 0.929 1_554 S
C386 N383 1.346 1_556 S
C386 C385 1.369 1_556 S
C386 H389 0.928 . S
C387 N383 1.345 . S
C387 C388 1.371 . S
C387 H390 0.931 . S
C388 C384 1.391 . S
C388 C387 1.371 . S
C388 H395 0.930 . S
H389 C386 0.928 . S
H390 C387 0.931 . S
H391 C367 0.930 . S
H392 C364 0.930 . S
H393 C373 0.930 . S
H394 C385 0.929 1_556 S
H395 C388 0.930 . S
H396 C414 0.951 . S
H397 C416 0.951 . S
H398 C418 0.950 . S
H399 C419 0.950 . S
H400 C421 0.950 . S
H401 C424 0.950 . S
H402 C425 0.950 . S
H403 C427 0.950 . S
H404 C428 0.950 . S
H405 C429 0.951 . S
H406 C431 0.951 . S
H407 C433 0.950 . S
H408 C434 0.950 . S
H409 C436 0.950 . S
H410 C439 0.950 . S
H411 C440 0.950 . S
H412 C442 0.950 . S
H413 C443 0.950 . S
C414 H396 0.951 . S
C414 C415 1.366 . S
C414 C416 1.388 . S
C415 C414 1.366 . S
C415 C419 1.385 . S
C416 H397 0.951 . S
C416 C414 1.388 . S
C416 C417 1.366 . S
C417 C416 1.366 . S
C417 C418 1.414 . S
C417 C420 1.499 . S
C418 H398 0.950 . S
C418 C417 1.414 . S
C418 C419 1.374 . S
C419 H399 0.950 . S
C419 C415 1.385 . S
C419 C418 1.374 . S
C420 C417 1.499 . S
C420 C421 1.373 1_655 S
C420 C422 1.389 . S
C421 H400 0.950 . S
C421 C420 1.373 1_455 S
C421 C437 1.377 . S
C422 C420 1.389 . S
C422 C423 1.524 . S
C422 C436 1.377 . S
C423 C422 1.524 . S
C423 C424 1.397 . S
C423 C428 1.363 . S
C424 H401 0.950 . S
C424 C423 1.397 . S
C424 C425 1.334 . S
C425 H402 0.950 . S
C425 C424 1.334 . S
C425 C426 1.287 . S
C426 C425 1.287 . S
C426 C427 1.524 . S
C426 H445 0.913 . S
C427 H403 0.950 . S
C427 C426 1.524 . S
C427 C428 1.415 . S
C428 H404 0.950 . S
C428 C423 1.363 . S
C428 C427 1.415 . S
C429 H405 0.951 . S
C429 C430 1.366 . S
C429 C431 1.388 . S
C430 C429 1.366 . S
C430 C434 1.385 . S
C431 H406 0.951 . S
C431 C429 1.388 . S
C431 C432 1.366 . S
C432 C431 1.366 . S
C432 C433 1.414 . S
C432 C435 1.499 . S
C433 H407 0.950 . S
C433 C432 1.414 . S
C433 C434 1.374 . S
C434 H408 0.950 . S
C434 C430 1.385 . S
C434 C433 1.374 . S
C435 C432 1.499 . S
C435 C436 1.373 1_455 S
C435 C437 1.389 . S
C436 H409 0.950 . S
C436 C422 1.377 . S
C436 C435 1.373 1_655 S
C437 C421 1.377 . S
C437 C435 1.389 . S
C437 C438 1.524 . S
C438 C437 1.524 . S
C438 C439 1.397 . S
C438 C443 1.363 . S
C439 H410 0.950 . S
C439 C438 1.397 . S
C439 C440 1.334 . S
C440 H411 0.950 . S
C440 C439 1.334 . S
C440 C441 1.287 . S
C441 C440 1.287 . S
C441 C442 1.524 . S
C441 H444 0.999 . S
C442 H412 0.950 . S
C442 C441 1.524 . S
C442 C443 1.415 . S
C443 H413 0.950 . S
C443 C438 1.363 . S
C443 C442 1.415 . S
H444 C441 0.999 . S
H445 C426 0.913 . S
H446 C464 0.951 . S
H447 C466 0.951 . S
H448 C468 0.950 . S
H449 C469 0.950 . S
H450 C471 0.951 . S
H451 C474 0.950 . S
H452 C475 0.950 . S
H453 C477 0.950 . S
H454 C478 0.950 . S
H455 C479 0.951 . S
H456 C481 0.951 . S
H457 C483 0.950 . S
H458 C484 0.950 . S
H459 C486 0.951 . S
H460 C489 0.950 . S
H461 C490 0.950 . S
H462 C492 0.950 . S
H463 C493 0.950 . S
C464 H446 0.951 . S
C464 C465 1.366 . S
C464 C466 1.388 . S
C465 C464 1.366 . S
C465 C469 1.385 . S
C466 H447 0.951 . S
C466 C464 1.388 . S
C466 C467 1.366 . S
C467 C466 1.366 . S
C467 C468 1.414 . S
C467 C470 1.499 . S
C468 H448 0.950 . S
C468 C467 1.414 . S
C468 C469 1.374 . S
C469 H449 0.950 . S
C469 C465 1.385 . S
C469 C468 1.374 . S
C470 C467 1.499 . S
C470 C471 1.374 . S
C470 C472 1.389 . S
C471 H450 0.951 . S
C471 C470 1.374 . S
C471 C487 1.371 1_565 S
C472 C470 1.389 . S
C472 C473 1.524 . S
C472 C486 1.371 1_565 S
C473 C472 1.524 . S
C473 C474 1.397 . S
C473 C478 1.363 . S
C474 H451 0.950 . S
C474 C473 1.397 . S
C474 C475 1.334 . S
C475 H452 0.950 . S
C475 C474 1.334 . S
C475 C476 1.287 . S
C476 C475 1.287 . S
C476 C477 1.524 . S
C476 H495 0.913 . S
C477 H453 0.950 . S
C477 C476 1.524 . S
C477 C478 1.415 . S
C478 H454 0.950 . S
C478 C473 1.363 . S
C478 C477 1.415 . S
C479 H455 0.951 . S
C479 C480 1.366 . S
C479 C481 1.388 . S
C480 C479 1.366 . S
C480 C484 1.385 . S
C481 H456 0.951 . S
C481 C479 1.388 . S
C481 C482 1.366 . S
C482 C481 1.366 . S
C482 C483 1.414 . S
C482 C485 1.499 . S
C483 H457 0.950 . S
C483 C482 1.414 . S
C483 C484 1.374 . S
C484 H458 0.950 . S
C484 C480 1.385 . S
C484 C483 1.374 . S
C485 C482 1.499 . S
C485 C486 1.374 . S
C485 C487 1.389 . S
C486 H459 0.951 . S
C486 C472 1.371 1_545 S
C486 C485 1.374 . S
C487 C471 1.371 1_545 S
C487 C485 1.389 . S
C487 C488 1.524 . S
C488 C487 1.524 . S
C488 C489 1.397 . S
C488 C493 1.363 . S
C489 H460 0.950 . S
C489 C488 1.397 . S
C489 C490 1.334 . S
C490 H461 0.950 . S
C490 C489 1.334 . S
C490 C491 1.287 . S
C491 C490 1.287 . S
C491 C492 1.524 . S
C491 H494 0.999 . S
C492 H462 0.950 . S
C492 C491 1.524 . S
C492 C493 1.415 . S
C493 H463 0.950 . S
C493 C488 1.363 . S
C493 C492 1.415 . S
H494 C491 0.999 . S
H495 C476 0.913 . S
H496 C514 0.951 . S
H497 C516 0.951 . S
H498 C518 0.950 . S
H499 C519 0.950 . S
H500 C521 0.950 . S
H501 C524 0.950 . S
H502 C525 0.950 . S
H503 C527 0.950 . S
H504 C528 0.950 . S
H505 C529 0.951 . S
H506 C531 0.951 . S
H507 C533 0.950 . S
H508 C534 0.950 . S
H509 C536 0.950 . S
H510 C539 0.950 . S
H511 C540 0.950 . S
H512 C542 0.950 . S
H513 C543 0.950 . S
C514 H496 0.951 . S
C514 C515 1.366 . S
C514 C516 1.388 . S
C515 C514 1.366 . S
C515 C519 1.385 . S
C516 H497 0.951 . S
C516 C514 1.388 . S
C516 C517 1.366 . S
C517 C516 1.366 . S
C517 C518 1.414 . S
C517 C520 1.499 . S
C518 H498 0.950 . S
C518 C517 1.414 . S
C518 C519 1.374 . S
C519 H499 0.950 . S
C519 C515 1.385 . S
C519 C518 1.374 . S
C520 C517 1.499 . S
C520 C521 1.373 . S
C520 C522 1.389 . S
C521 H500 0.950 . S
C521 C520 1.373 . S
C521 C537 1.377 . S
C522 C520 1.389 . S
C522 C523 1.524 . S
C522 C536 1.377 . S
C523 C522 1.524 . S
C523 C524 1.397 . S
C523 C528 1.363 . S
C524 H501 0.950 . S
C524 C523 1.397 . S
C524 C525 1.334 . S
C525 H502 0.950 . S
C525 C524 1.334 . S
C525 C526 1.287 . S
C526 C525 1.287 . S
C526 C527 1.524 . S
C526 H545 0.913 . S
C527 H503 0.950 . S
C527 C526 1.524 . S
C527 C528 1.415 . S
C528 H504 0.950 . S
C528 C523 1.363 . S
C528 C527 1.415 . S
C529 H505 0.951 . S
C529 C530 1.366 . S
C529 C531 1.388 . S
C530 C529 1.366 . S
C530 C534 1.385 . S
C531 H506 0.951 . S
C531 C529 1.388 . S
C531 C532 1.366 . S
C532 C531 1.366 . S
C532 C533 1.414 . S
C532 C535 1.499 . S
C533 H507 0.950 . S
C533 C532 1.414 . S
C533 C534 1.374 . S
C534 H508 0.950 . S
C534 C530 1.385 . S
C534 C533 1.374 . S
C535 C532 1.499 . S
C535 C536 1.373 . S
C535 C537 1.389 . S
C536 H509 0.950 . S
C536 C522 1.377 . S
C536 C535 1.373 . S
C537 C521 1.377 . S
C537 C535 1.389 . S
C537 C538 1.524 . S
C538 C537 1.524 . S
C538 C539 1.397 . S
C538 C543 1.363 . S
C539 H510 0.950 . S
C539 C538 1.397 . S
C539 C540 1.334 . S
C540 H511 0.950 . S
C540 C539 1.334 . S
C540 C541 1.287 . S
C541 C540 1.287 . S
C541 C542 1.524 . S
C541 H544 0.999 . S
C542 H512 0.950 . S
C542 C541 1.524 . S
C542 C543 1.415 . S
C543 H513 0.950 . S
C543 C538 1.363 . S
C543 C542 1.415 . S
H544 C541 0.999 . S
H545 C526 0.913 . S
H546 C564 0.951 . S
H547 C566 0.951 . S
H548 C568 0.950 . S
H549 C569 0.950 . S
H550 C571 0.950 . S
H551 C574 0.950 . S
H552 C575 0.950 . S
H553 C577 0.950 . S
H554 C578 0.950 . S
H555 C579 0.951 . S
H556 C581 0.951 . S
H557 C583 0.950 . S
H558 C584 0.950 . S
H559 C586 0.950 . S
H560 C589 0.950 . S
H561 C590 0.950 . S
H562 C592 0.950 . S
H563 C593 0.950 . S
C564 H546 0.951 . S
C564 C565 1.366 . S
C564 C566 1.388 . S
C565 C564 1.366 . S
C565 C569 1.385 . S
C566 H547 0.951 . S
C566 C564 1.388 . S
C566 C567 1.366 . S
C567 C566 1.366 . S
C567 C568 1.414 . S
C567 C570 1.499 . S
C568 H548 0.950 . S
C568 C567 1.414 . S
C568 C569 1.374 . S
C569 H549 0.950 . S
C569 C565 1.385 . S
C569 C568 1.374 . S
C570 C567 1.499 . S
C570 C571 1.373 . S
C570 C572 1.389 1_455 S
C571 H550 0.950 . S
C571 C570 1.373 . S
C571 C587 1.377 . S
C572 C570 1.389 1_655 S
C572 C573 1.524 . S
C572 C586 1.377 . S
C573 C572 1.524 . S
C573 C574 1.397 . S
C573 C578 1.363 . S
C574 H551 0.950 . S
C574 C573 1.397 . S
C574 C575 1.334 . S
C575 H552 0.950 . S
C575 C574 1.334 . S
C575 C576 1.287 . S
C576 C575 1.287 . S
C576 C577 1.524 . S
C576 H595 0.913 . S
C577 H553 0.950 . S
C577 C576 1.524 . S
C577 C578 1.415 . S
C578 H554 0.950 . S
C578 C573 1.363 . S
C578 C577 1.415 . S
C579 H555 0.951 . S
C579 C580 1.366 . S
C579 C581 1.388 . S
C580 C579 1.366 . S
C580 C584 1.385 . S
C581 H556 0.951 . S
C581 C579 1.388 . S
C581 C582 1.366 . S
C582 C581 1.366 . S
C582 C583 1.414 . S
C582 C585 1.499 . S
C583 H557 0.950 . S
C583 C582 1.414 . S
C583 C584 1.374 . S
C584 H558 0.950 . S
C584 C580 1.385 . S
C584 C583 1.374 . S
C585 C582 1.499 . S
C585 C586 1.373 . S
C585 C587 1.389 1_655 S
C586 H559 0.950 . S
C586 C572 1.377 . S
C586 C585 1.373 . S
C587 C571 1.377 . S
C587 C585 1.389 1_455 S
C587 C588 1.524 . S
C588 C587 1.524 . S
C588 C589 1.397 . S
C588 C593 1.363 . S
C589 H560 0.950 . S
C589 C588 1.397 . S
C589 C590 1.334 . S
C590 H561 0.950 . S
C590 C589 1.334 . S
C590 C591 1.287 . S
C591 C590 1.287 . S
C591 C592 1.524 . S
C591 H594 0.999 . S
C592 H562 0.950 . S
C592 C591 1.524 . S
C592 C593 1.415 . S
C593 H563 0.950 . S
C593 C588 1.363 . S
C593 C592 1.415 . S
H594 C591 0.999 . S
H595 C576 0.913 . S
H596 C614 0.951 . S
H597 C616 0.951 . S
H598 C618 0.950 . S
H599 C619 0.950 . S
H600 C621 0.950 . S
H601 C624 0.950 . S
H602 C625 0.950 . S
H603 C627 0.950 . S
H604 C628 0.950 . S
H605 C629 0.951 . S
H606 C631 0.951 . S
H607 C633 0.950 . S
H608 C634 0.950 . S
H609 C636 0.950 . S
H610 C639 0.950 . S
H611 C640 0.950 . S
H612 C642 0.950 . S
H613 C643 0.950 . S
C614 H596 0.951 . S
C614 C615 1.366 . S
C614 C616 1.388 . S
C615 C614 1.366 . S
C615 C619 1.385 . S
C616 H597 0.951 . S
C616 C614 1.388 . S
C616 C617 1.366 . S
C617 C616 1.366 . S
C617 C618 1.414 . S
C617 C620 1.499 . S
C618 H598 0.950 . S
C618 C617 1.414 . S
C618 C619 1.374 . S
C619 H599 0.950 . S
C619 C615 1.385 . S
C619 C618 1.374 . S
C620 C617 1.499 . S
C620 C621 1.373 . S
C620 C622 1.388 1_545 S
C621 H600 0.950 . S
C621 C620 1.373 . S
C621 C637 1.380 . S
C622 C620 1.388 1_565 S
C622 C623 1.527 . S
C622 C636 1.380 . S
C623 C622 1.527 . S
C623 C624 1.384 1_565 S
C623 C628 1.369 . S
C624 H601 0.950 . S
C624 C623 1.384 1_545 S
C624 C625 1.334 . S
C625 H602 0.950 . S
C625 C624 1.334 . S
C625 C626 1.287 . S
C626 C625 1.287 . S
C626 C627 1.524 1_545 S
C626 H645 0.913 . S
C627 H603 0.950 . S
C627 C626 1.524 1_565 S
C627 C628 1.415 . S
C628 H604 0.950 . S
C628 C623 1.369 . S
C628 C627 1.415 . S
C629 H605 0.951 . S
C629 C630 1.366 . S
C629 C631 1.388 . S
C630 C629 1.366 . S
C630 C634 1.385 . S
C631 H606 0.951 . S
C631 C629 1.388 . S
C631 C632 1.366 . S
C632 C631 1.366 . S
C632 C633 1.414 . S
C632 C635 1.499 . S
C633 H607 0.950 . S
C633 C632 1.414 . S
C633 C634 1.374 . S
C634 H608 0.950 . S
C634 C630 1.385 . S
C634 C633 1.374 . S
C635 C632 1.499 . S
C635 C636 1.373 . S
C635 C637 1.388 1_565 S
C636 H609 0.950 . S
C636 C622 1.380 . S
C636 C635 1.373 . S
C637 C621 1.380 . S
C637 C635 1.388 1_545 S
C637 C638 1.527 . S
C638 C637 1.527 . S
C638 C639 1.384 1_545 S
C638 C643 1.369 . S
C639 H610 0.950 . S
C639 C638 1.384 1_565 S
C639 C640 1.334 . S
C640 H611 0.950 . S
C640 C639 1.334 . S
C640 C641 1.287 . S
C641 C640 1.287 . S
C641 C642 1.524 1_565 S
C641 H644 0.999 . S
C642 H612 0.950 . S
C642 C641 1.524 1_545 S
C642 C643 1.415 . S
C643 H613 0.950 . S
C643 C638 1.369 . S
C643 C642 1.415 . S
H644 C641 0.999 . S
H645 C626 0.913 . S
H646 C664 0.951 . S
H647 C666 0.951 . S
H648 C668 0.950 . S
H649 C669 0.950 . S
H650 C671 0.950 . S
H651 C674 0.950 . S
H652 C675 0.950 . S
H653 C677 0.950 . S
H654 C678 0.950 . S
H655 C679 0.951 . S
H656 C681 0.951 . S
H657 C683 0.950 . S
H658 C684 0.950 . S
H659 C686 0.950 . S
H660 C689 0.950 . S
H661 C690 0.950 . S
H662 C692 0.950 . S
H663 C693 0.950 . S
C664 H646 0.951 . S
C664 C665 1.366 . S
C664 C666 1.388 . S
C665 C664 1.366 . S
C665 C669 1.385 . S
C666 H647 0.951 . S
C666 C664 1.388 . S
C666 C667 1.366 . S
C667 C666 1.366 . S
C667 C668 1.414 . S
C667 C670 1.499 . S
C668 H648 0.950 . S
C668 C667 1.414 . S
C668 C669 1.374 . S
C669 H649 0.950 . S
C669 C665 1.385 . S
C669 C668 1.374 . S
C670 C667 1.499 . S
C670 C671 1.373 . S
C670 C672 1.389 . S
C671 H650 0.950 . S
C671 C670 1.373 . S
C671 C687 1.377 . S
C672 C670 1.389 . S
C672 C673 1.524 . S
C672 C686 1.377 . S
C673 C672 1.524 . S
C673 C674 1.397 . S
C673 C678 1.363 . S
C674 H651 0.950 . S
C674 C673 1.397 . S
C674 C675 1.334 . S
C675 H652 0.950 . S
C675 C674 1.334 . S
C675 C676 1.287 . S
C676 C675 1.287 . S
C676 C677 1.524 . S
C676 H695 0.913 . S
C677 H653 0.950 . S
C677 C676 1.524 . S
C677 C678 1.415 . S
C678 H654 0.950 . S
C678 C673 1.363 . S
C678 C677 1.415 . S
C679 H655 0.951 . S
C679 C680 1.366 . S
C679 C681 1.388 . S
C680 C679 1.366 . S
C680 C684 1.385 . S
C681 H656 0.951 . S
C681 C679 1.388 . S
C681 C682 1.366 . S
C682 C681 1.366 . S
C682 C683 1.414 . S
C682 C685 1.499 . S
C683 H657 0.950 . S
C683 C682 1.414 . S
C683 C684 1.374 . S
C684 H658 0.950 . S
C684 C680 1.385 . S
C684 C683 1.374 . S
C685 C682 1.499 . S
C685 C686 1.373 . S
C685 C687 1.389 . S
C686 H659 0.950 . S
C686 C672 1.377 . S
C686 C685 1.373 . S
C687 C671 1.377 . S
C687 C685 1.389 . S
C687 C688 1.524 . S
C688 C687 1.524 . S
C688 C689 1.397 . S
C688 C693 1.363 . S
C689 H660 0.950 . S
C689 C688 1.397 . S
C689 C690 1.334 . S
C690 H661 0.950 . S
C690 C689 1.334 . S
C690 C691 1.287 . S
C691 C690 1.287 . S
C691 C692 1.524 . S
C691 H694 0.999 . S
C692 H662 0.950 . S
C692 C691 1.524 . S
C692 C693 1.415 . S
C693 H663 0.950 . S
C693 C688 1.363 . S
C693 C692 1.415 . S
H694 C691 0.999 . S
H695 C676 0.913 . S
H696 C714 0.951 . S
H697 C716 0.951 . S
H698 C718 0.950 . S
H699 C719 0.950 . S
H700 C721 0.950 . S
H701 C724 0.950 . S
H702 C725 0.950 . S
H703 C727 0.950 . S
H704 C728 0.950 . S
H705 C729 0.951 . S
H706 C731 0.951 . S
H707 C733 0.950 . S
H708 C734 0.950 . S
H709 C736 0.950 . S
H710 C739 0.950 . S
H711 C740 0.950 . S
H712 C742 0.950 . S
H713 C743 0.950 . S
C714 H696 0.951 . S
C714 C715 1.366 . S
C714 C716 1.388 . S
C715 C714 1.366 . S
C715 C719 1.385 . S
C716 H697 0.951 . S
C716 C714 1.388 . S
C716 C717 1.366 . S
C717 C716 1.366 . S
C717 C718 1.414 . S
C717 C720 1.499 . S
C718 H698 0.950 . S
C718 C717 1.414 . S
C718 C719 1.374 . S
C719 H699 0.950 . S
C719 C715 1.385 . S
C719 C718 1.374 . S
C720 C717 1.499 . S
C720 C721 1.373 . S
C720 C722 1.389 . S
C721 H700 0.950 . S
C721 C720 1.373 . S
C721 C737 1.377 . S
C722 C720 1.389 . S
C722 C723 1.524 . S
C722 C736 1.377 . S
C723 C722 1.524 . S
C723 C724 1.397 . S
C723 C728 1.363 . S
C724 H701 0.950 . S
C724 C723 1.397 . S
C724 C725 1.334 . S
C725 H702 0.950 . S
C725 C724 1.334 . S
C725 C726 1.287 . S
C726 C725 1.287 . S
C726 C727 1.524 . S
C726 H745 0.913 . S
C727 H703 0.950 . S
C727 C726 1.524 . S
C727 C728 1.415 . S
C728 H704 0.950 . S
C728 C723 1.363 . S
C728 C727 1.415 . S
C729 H705 0.951 . S
C729 C730 1.366 . S
C729 C731 1.388 . S
C730 C729 1.366 . S
C730 C734 1.385 . S
C731 H706 0.951 . S
C731 C729 1.388 . S
C731 C732 1.366 . S
C732 C731 1.366 . S
C732 C733 1.414 . S
C732 C735 1.499 . S
C733 H707 0.950 . S
C733 C732 1.414 . S
C733 C734 1.374 . S
C734 H708 0.950 . S
C734 C730 1.385 . S
C734 C733 1.374 . S
C735 C732 1.499 . S
C735 C736 1.373 . S
C735 C737 1.389 . S
C736 H709 0.950 . S
C736 C722 1.377 . S
C736 C735 1.373 . S
C737 C721 1.377 . S
C737 C735 1.389 . S
C737 C738 1.524 . S
C738 C737 1.524 . S
C738 C739 1.397 . S
C738 C743 1.363 . S
C739 H710 0.950 . S
C739 C738 1.397 . S
C739 C740 1.334 . S
C740 H711 0.950 . S
C740 C739 1.334 . S
C740 C741 1.287 . S
C741 C740 1.287 . S
C741 C742 1.524 . S
C741 H744 0.999 . S
C742 H712 0.950 . S
C742 C741 1.524 . S
C742 C743 1.415 . S
C743 H713 0.950 . S
C743 C738 1.363 . S
C743 C742 1.415 . S
H744 C741 0.999 . S
H745 C726 0.913 . S
H746 C764 0.951 . S
H747 C766 0.951 . S
H748 C768 0.950 . S
H749 C769 0.950 . S
H750 C771 0.950 . S
H751 C774 0.950 . S
H752 C775 0.950 . S
H753 C777 0.950 . S
H754 C778 0.950 . S
H755 C779 0.951 . S
H756 C781 0.951 . S
H757 C783 0.950 . S
H758 C784 0.950 . S
H759 C786 0.950 . S
H760 C789 0.950 . S
H761 C790 0.950 . S
H762 C792 0.950 . S
H763 C793 0.950 . S
C764 H746 0.951 . S
C764 C765 1.366 . S
C764 C766 1.388 . S
C765 C764 1.366 . S
C765 C769 1.385 . S
C766 H747 0.951 . S
C766 C764 1.388 . S
C766 C767 1.366 . S
C767 C766 1.366 . S
C767 C768 1.414 . S
C767 C770 1.499 . S
C768 H748 0.950 . S
C768 C767 1.414 . S
C768 C769 1.374 . S
C769 H749 0.950 . S
C769 C765 1.385 . S
C769 C768 1.374 . S
C770 C767 1.499 . S
C770 C771 1.373 . S
C770 C772 1.389 . S
C771 H750 0.950 . S
C771 C770 1.373 . S
C771 C787 1.377 . S
C772 C770 1.389 . S
C772 C773 1.524 . S
C772 C786 1.377 . S
C773 C772 1.524 . S
C773 C774 1.397 . S
C773 C778 1.363 . S
C774 H751 0.950 . S
C774 C773 1.397 . S
C774 C775 1.334 . S
C775 H752 0.950 . S
C775 C774 1.334 . S
C775 C776 1.287 . S
C776 C775 1.287 . S
C776 C777 1.524 . S
C776 H795 0.913 . S
C777 H753 0.950 . S
C777 C776 1.524 . S
C777 C778 1.415 . S
C778 H754 0.950 . S
C778 C773 1.363 . S
C778 C777 1.415 . S
C779 H755 0.951 . S
C779 C780 1.366 . S
C779 C781 1.388 . S
C780 C779 1.366 . S
C780 C784 1.385 . S
C781 H756 0.951 . S
C781 C779 1.388 . S
C781 C782 1.366 . S
C782 C781 1.366 . S
C782 C783 1.414 . S
C782 C785 1.499 . S
C783 H757 0.950 . S
C783 C782 1.414 . S
C783 C784 1.374 . S
C784 H758 0.950 . S
C784 C780 1.385 . S
C784 C783 1.374 . S
C785 C782 1.499 . S
C785 C786 1.373 . S
C785 C787 1.389 . S
C786 H759 0.950 . S
C786 C772 1.377 . S
C786 C785 1.373 . S
C787 C771 1.377 . S
C787 C785 1.389 . S
C787 C788 1.524 . S
C788 C787 1.524 . S
C788 C789 1.397 . S
C788 C793 1.363 . S
C789 H760 0.950 . S
C789 C788 1.397 . S
C789 C790 1.334 . S
C790 H761 0.950 . S
C790 C789 1.334 . S
C790 C791 1.287 . S
C791 C790 1.287 . S
C791 C792 1.524 . S
C791 H794 0.999 . S
C792 H762 0.950 . S
C792 C791 1.524 . S
C792 C793 1.415 . S
C793 H763 0.950 . S
C793 C788 1.363 . S
C793 C792 1.415 . S
H794 C791 0.999 . S
H795 C776 0.913 . S
H796 C814 0.951 . S
H797 C816 0.951 . S
H798 C818 0.950 . S
H799 C819 0.950 . S
H800 C821 0.950 . S
H801 C824 0.950 . S
H802 C825 0.950 . S
H803 C827 0.950 . S
H804 C828 0.950 . S
H805 C829 0.951 . S
H806 C831 0.951 . S
H807 C833 0.950 . S
H808 C834 0.950 . S
H809 C836 0.950 . S
H810 C839 0.950 . S
H811 C840 0.950 . S
H812 C842 0.950 . S
H813 C843 0.950 . S
C814 H796 0.951 . S
C814 C815 1.366 . S
C814 C816 1.388 . S
C815 C814 1.366 . S
C815 C819 1.385 . S
C816 H797 0.951 . S
C816 C814 1.388 . S
C816 C817 1.366 . S
C817 C816 1.366 . S
C817 C818 1.414 . S
C817 C820 1.499 . S
C818 H798 0.950 . S
C818 C817 1.414 . S
C818 C819 1.374 . S
C819 H799 0.950 . S
C819 C815 1.385 . S
C819 C818 1.374 . S
C820 C817 1.499 . S
C820 C821 1.373 . S
C820 C822 1.389 . S
C821 H800 0.950 . S
C821 C820 1.373 . S
C821 C837 1.377 . S
C822 C820 1.389 . S
C822 C823 1.524 . S
C822 C836 1.377 . S
C823 C822 1.524 . S
C823 C824 1.397 . S
C823 C828 1.363 . S
C824 H801 0.950 . S
C824 C823 1.397 . S
C824 C825 1.334 . S
C825 H802 0.950 . S
C825 C824 1.334 . S
C825 C826 1.287 . S
C826 C825 1.287 . S
C826 C827 1.524 . S
C826 H845 0.913 . S
C827 H803 0.950 . S
C827 C826 1.524 . S
C827 C828 1.415 . S
C828 H804 0.950 . S
C828 C823 1.363 . S
C828 C827 1.415 . S
C829 H805 0.951 . S
C829 C830 1.366 . S
C829 C831 1.388 . S
C830 C829 1.366 . S
C830 C834 1.385 . S
C831 H806 0.951 . S
C831 C829 1.388 . S
C831 C832 1.366 . S
C832 C831 1.366 . S
C832 C833 1.414 . S
C832 C835 1.499 . S
C833 H807 0.950 . S
C833 C832 1.414 . S
C833 C834 1.374 . S
C834 H808 0.950 . S
C834 C830 1.385 . S
C834 C833 1.374 . S
C835 C832 1.499 . S
C835 C836 1.373 . S
C835 C837 1.389 . S
C836 H809 0.950 . S
C836 C822 1.377 . S
C836 C835 1.373 . S
C837 C821 1.377 . S
C837 C835 1.389 . S
C837 C838 1.524 . S
C838 C837 1.524 . S
C838 C839 1.397 . S
C838 C843 1.363 . S
C839 H810 0.950 . S
C839 C838 1.397 . S
C839 C840 1.334 . S
C840 H811 0.950 . S
C840 C839 1.334 . S
C840 C841 1.287 . S
C841 C840 1.287 . S
C841 C842 1.524 . S
C841 H844 0.999 . S
C842 H812 0.950 . S
C842 C841 1.524 . S
C842 C843 1.415 . S
C843 H813 0.950 . S
C843 C838 1.363 . S
C843 C842 1.415 . S
H844 C841 0.999 . S
H845 C826 0.913 . S
H846 C864 0.951 . S
H847 C866 0.951 . S
H848 C868 0.950 . S
H849 C869 0.950 . S
H850 C871 0.950 . S
H851 C874 0.950 . S
H852 C875 0.950 . S
H853 C877 0.950 . S
H854 C878 0.950 . S
H855 C879 0.951 . S
H856 C881 0.951 . S
H857 C883 0.950 . S
H858 C884 0.950 . S
H859 C886 0.950 . S
H860 C889 0.950 . S
H861 C890 0.950 . S
H862 C892 0.950 . S
H863 C893 0.950 . S
C864 H846 0.951 . S
C864 C865 1.366 . S
C864 C866 1.388 . S
C865 C864 1.366 . S
C865 C869 1.385 . S
C866 H847 0.951 . S
C866 C864 1.388 . S
C866 C867 1.366 . S
C867 C866 1.366 . S
C867 C868 1.414 . S
C867 C870 1.499 . S
C868 H848 0.950 . S
C868 C867 1.414 . S
C868 C869 1.374 . S
C869 H849 0.950 . S
C869 C865 1.385 . S
C869 C868 1.374 . S
C870 C867 1.499 . S
C870 C871 1.373 . S
C870 C872 1.389 . S
C871 H850 0.950 . S
C871 C870 1.373 . S
C871 C887 1.377 . S
C872 C870 1.389 . S
C872 C873 1.524 . S
C872 C886 1.377 . S
C873 C872 1.524 . S
C873 C874 1.397 . S
C873 C878 1.363 . S
C874 H851 0.950 . S
C874 C873 1.397 . S
C874 C875 1.334 . S
C875 H852 0.950 . S
C875 C874 1.334 . S
C875 C876 1.287 . S
C876 C875 1.287 . S
C876 C877 1.524 . S
C876 H895 0.913 . S
C877 H853 0.950 . S
C877 C876 1.524 . S
C877 C878 1.415 . S
C878 H854 0.950 . S
C878 C873 1.363 . S
C878 C877 1.415 . S
C879 H855 0.951 . S
C879 C880 1.366 . S
C879 C881 1.388 . S
C880 C879 1.366 . S
C880 C884 1.385 . S
C881 H856 0.951 . S
C881 C879 1.388 . S
C881 C882 1.366 . S
C882 C881 1.366 . S
C882 C883 1.414 . S
C882 C885 1.499 . S
C883 H857 0.950 . S
C883 C882 1.414 . S
C883 C884 1.374 . S
C884 H858 0.950 . S
C884 C880 1.385 . S
C884 C883 1.374 . S
C885 C882 1.499 . S
C885 C886 1.373 . S
C885 C887 1.389 . S
C886 H859 0.950 . S
C886 C872 1.377 . S
C886 C885 1.373 . S
C887 C871 1.377 . S
C887 C885 1.389 . S
C887 C888 1.524 . S
C888 C887 1.524 . S
C888 C889 1.397 . S
C888 C893 1.363 . S
C889 H860 0.950 . S
C889 C888 1.397 . S
C889 C890 1.334 . S
C890 H861 0.950 . S
C890 C889 1.334 . S
C890 C891 1.287 . S
C891 C890 1.287 . S
C891 C892 1.524 . S
C891 H894 0.999 . S
C892 H862 0.950 . S
C892 C891 1.524 . S
C892 C893 1.415 . S
C893 H863 0.950 . S
C893 C888 1.363 . S
C893 C892 1.415 . S
H894 C891 0.999 . S
H895 C876 0.913 . S
H896 C914 0.951 . S
H897 C916 0.951 . S
H898 C918 0.950 . S
H899 C919 0.950 . S
H900 C921 0.950 . S
H901 C924 0.950 . S
H902 C925 0.950 . S
H903 C927 0.950 . S
H904 C928 0.950 . S
H905 C929 0.951 . S
H906 C931 0.951 . S
H907 C933 0.950 . S
H908 C934 0.950 . S
H909 C936 0.950 . S
H910 C939 0.950 . S
H911 C940 0.950 . S
H912 C942 0.950 . S
H913 C943 0.950 . S
C914 H896 0.951 . S
C914 C915 1.366 . S
C914 C916 1.388 . S
C915 C914 1.366 . S
C915 C919 1.385 . S
C916 H897 0.951 . S
C916 C914 1.388 . S
C916 C917 1.366 . S
C917 C916 1.366 . S
C917 C918 1.414 . S
C917 C920 1.499 . S
C918 H898 0.950 . S
C918 C917 1.414 . S
C918 C919 1.374 . S
C919 H899 0.950 . S
C919 C915 1.385 . S
C919 C918 1.374 . S
C920 C917 1.499 . S
C920 C921 1.373 . S
C920 C922 1.389 . S
C921 H900 0.950 . S
C921 C920 1.373 . S
C921 C937 1.377 . S
C922 C920 1.389 . S
C922 C923 1.524 . S
C922 C936 1.377 . S
C923 C922 1.524 . S
C923 C924 1.397 . S
C923 C928 1.363 . S
C924 H901 0.950 . S
C924 C923 1.397 . S
C924 C925 1.334 . S
C925 H902 0.950 . S
C925 C924 1.334 . S
C925 C926 1.287 . S
C926 C925 1.287 . S
C926 C927 1.524 . S
C926 H945 0.913 . S
C927 H903 0.950 . S
C927 C926 1.524 . S
C927 C928 1.415 . S
C928 H904 0.950 . S
C928 C923 1.363 . S
C928 C927 1.415 . S
C929 H905 0.951 . S
C929 C930 1.366 . S
C929 C931 1.388 . S
C930 C929 1.366 . S
C930 C934 1.385 . S
C931 H906 0.951 . S
C931 C929 1.388 . S
C931 C932 1.366 . S
C932 C931 1.366 . S
C932 C933 1.414 . S
C932 C935 1.499 . S
C933 H907 0.950 . S
C933 C932 1.414 . S
C933 C934 1.374 . S
C934 H908 0.950 . S
C934 C930 1.385 . S
C934 C933 1.374 . S
C935 C932 1.499 . S
C935 C936 1.373 . S
C935 C937 1.389 . S
C936 H909 0.950 . S
C936 C922 1.377 . S
C936 C935 1.373 . S
C937 C921 1.377 . S
C937 C935 1.389 . S
C937 C938 1.524 . S
C938 C937 1.524 . S
C938 C939 1.397 . S
C938 C943 1.363 . S
C939 H910 0.950 . S
C939 C938 1.397 . S
C939 C940 1.334 . S
C940 H911 0.950 . S
C940 C939 1.334 . S
C940 C941 1.287 . S
C941 C940 1.287 . S
C941 C942 1.524 . S
C941 H944 0.999 . S
C942 H912 0.950 . S
C942 C941 1.524 . S
C942 C943 1.415 . S
C943 H913 0.950 . S
C943 C938 1.363 . S
C943 C942 1.415 . S
H944 C941 0.999 . S
H945 C926 0.913 . S
H946 C964 0.951 . S
H947 C966 0.951 . S
H948 C968 0.950 . S
H949 C969 0.950 . S
H950 C971 0.950 . S
H951 C974 0.950 . S
H952 C975 0.950 . S
H953 C977 0.950 . S
H954 C978 0.950 . S
H955 C979 0.951 . S
H956 C981 0.951 . S
H957 C983 0.950 . S
H958 C984 0.950 . S
H959 C986 0.950 . S
H960 C989 0.950 . S
H961 C990 0.950 . S
H962 C992 0.950 . S
H963 C993 0.950 . S
C964 H946 0.951 . S
C964 C965 1.366 . S
C964 C966 1.388 . S
C965 C964 1.366 . S
C965 C969 1.385 . S
C966 H947 0.951 . S
C966 C964 1.388 . S
C966 C967 1.366 . S
C967 C966 1.366 . S
C967 C968 1.414 . S
C967 C970 1.499 . S
C968 H948 0.950 . S
C968 C967 1.414 . S
C968 C969 1.374 . S
C969 H949 0.950 . S
C969 C965 1.385 . S
C969 C968 1.374 . S
C970 C967 1.499 . S
C970 C971 1.373 . S
C970 C972 1.389 . S
C971 H950 0.950 . S
C971 C970 1.373 . S
C971 C987 1.377 . S
C972 C970 1.389 . S
C972 C973 1.524 . S
C972 C986 1.377 . S
C973 C972 1.524 . S
C973 C974 1.397 . S
C973 C978 1.363 . S
C974 H951 0.950 . S
C974 C973 1.397 . S
C974 C975 1.334 . S
C975 H952 0.950 . S
C975 C974 1.334 . S
C975 C976 1.287 . S
C976 C975 1.287 . S
C976 C977 1.524 . S
C976 H995 0.913 . S
C977 H953 0.950 . S
C977 C976 1.524 . S
C977 C978 1.415 . S
C978 H954 0.950 . S
C978 C973 1.363 . S
C978 C977 1.415 . S
C979 H955 0.951 . S
C979 C980 1.366 . S
C979 C981 1.388 . S
C980 C979 1.366 . S
C980 C984 1.385 . S
C981 H956 0.951 . S
C981 C979 1.388 . S
C981 C982 1.366 . S
C982 C981 1.366 . S
C982 C983 1.414 . S
C982 C985 1.499 . S
C983 H957 0.950 . S
C983 C982 1.414 . S
C983 C984 1.374 . S
C984 H958 0.950 . S
C984 C980 1.385 . S
C984 C983 1.374 . S
C985 C982 1.499 . S
C985 C986 1.373 . S
C985 C987 1.389 . S
C986 H959 0.950 . S
C986 C972 1.377 . S
C986 C985 1.373 . S
C987 C971 1.377 . S
C987 C985 1.389 . S
C987 C988 1.524 . S
C988 C987 1.524 . S
C988 C989 1.397 . S
C988 C993 1.363 . S
C989 H960 0.950 . S
C989 C988 1.397 . S
C989 C990 1.334 . S
C990 H961 0.950 . S
C990 C989 1.334 . S
C990 C991 1.287 . S
C991 C990 1.287 . S
C991 C992 1.524 . S
C991 H994 0.999 . S
C992 H962 0.950 . S
C992 C991 1.524 . S
C992 C993 1.415 . S
C993 H963 0.950 . S
C993 C988 1.363 . S
C993 C992 1.415 . S
H994 C991 0.999 . S
H995 C976 0.913 . S
H996 C1014 0.951 . S
H997 C1016 0.951 . S
H998 C1018 0.950 . S
H999 C1019 0.950 . S
H1000 C1021 0.950 . S
H1001 C1024 0.950 . S
H1002 C1025 0.950 . S
H1003 C1027 0.950 . S
H1004 C1028 0.950 . S
H1005 C1029 0.951 . S
H1006 C1031 0.951 . S
H1007 C1033 0.950 . S
H1008 C1034 0.950 . S
H1009 C1036 0.950 . S
H1010 C1039 0.950 . S
H1011 C1040 0.950 . S
H1012 C1042 0.950 . S
H1013 C1043 0.950 . S
C1014 H996 0.951 . S
C1014 C1015 1.366 . S
C1014 C1016 1.388 . S
C1015 C1014 1.366 . S
C1015 C1019 1.385 . S
C1016 H997 0.951 . S
C1016 C1014 1.388 . S
C1016 C1017 1.366 . S
C1017 C1016 1.366 . S
C1017 C1018 1.414 . S
C1017 C1020 1.499 . S
C1018 H998 0.950 . S
C1018 C1017 1.414 . S
C1018 C1019 1.374 . S
C1019 H999 0.950 . S
C1019 C1015 1.385 . S
C1019 C1018 1.374 . S
C1020 C1017 1.499 . S
C1020 C1021 1.373 . S
C1020 C1022 1.389 . S
C1021 H1000 0.950 . S
C1021 C1020 1.373 . S
C1021 C1037 1.377 1_655 S
C1022 C1020 1.389 . S
C1022 C1023 1.524 . S
C1022 C1036 1.377 1_655 S
C1023 C1022 1.524 . S
C1023 C1024 1.397 . S
C1023 C1028 1.363 1_655 S
C1024 H1001 0.950 . S
C1024 C1023 1.397 . S
C1024 C1025 1.334 . S
C1025 H1002 0.950 . S
C1025 C1024 1.334 . S
C1025 C1026 1.287 . S
C1026 C1025 1.287 . S
C1026 C1027 1.524 1_655 S
C1026 H1045 0.913 . S
C1027 H1003 0.950 . S
C1027 C1026 1.524 1_455 S
C1027 C1028 1.415 . S
C1028 H1004 0.950 . S
C1028 C1023 1.363 1_455 S
C1028 C1027 1.415 . S
C1029 H1005 0.951 . S
C1029 C1030 1.366 . S
C1029 C1031 1.388 . S
C1030 C1029 1.366 . S
C1030 C1034 1.385 . S
C1031 H1006 0.951 . S
C1031 C1029 1.388 . S
C1031 C1032 1.366 . S
C1032 C1031 1.366 . S
C1032 C1033 1.414 . S
C1032 C1035 1.499 . S
C1033 H1007 0.950 . S
C1033 C1032 1.414 . S
C1033 C1034 1.374 . S
C1034 H1008 0.950 . S
C1034 C1030 1.385 . S
C1034 C1033 1.374 . S
C1035 C1032 1.499 . S
C1035 C1036 1.373 . S
C1035 C1037 1.389 . S
C1036 H1009 0.950 . S
C1036 C1022 1.377 1_455 S
C1036 C1035 1.373 . S
C1037 C1021 1.377 1_455 S
C1037 C1035 1.389 . S
C1037 C1038 1.524 . S
C1038 C1037 1.524 . S
C1038 C1039 1.397 . S
C1038 C1043 1.363 1_455 S
C1039 H1010 0.950 . S
C1039 C1038 1.397 . S
C1039 C1040 1.334 . S
C1040 H1011 0.950 . S
C1040 C1039 1.334 . S
C1040 C1041 1.287 . S
C1041 C1040 1.287 . S
C1041 C1042 1.524 1_455 S
C1041 H1044 0.999 . S
C1042 H1012 0.950 . S
C1042 C1041 1.524 1_655 S
C1042 C1043 1.415 . S
C1043 H1013 0.950 . S
C1043 C1038 1.363 1_655 S
C1043 C1042 1.415 . S
H1044 C1041 0.999 . S
H1045 C1026 0.913 . S
H1046 C1064 0.951 . S
H1047 C1066 0.951 . S
H1048 C1068 0.950 . S
H1049 C1069 0.950 . S
H1050 C1071 0.950 . S
H1051 C1074 0.950 . S
H1052 C1075 0.950 . S
H1053 C1077 0.950 . S
H1054 C1078 0.950 . S
H1055 C1079 0.951 . S
H1056 C1081 0.951 . S
H1057 C1083 0.950 . S
H1058 C1084 0.950 . S
H1059 C1086 0.950 . S
H1060 C1089 0.950 . S
H1061 C1090 0.950 . S
H1062 C1092 0.950 . S
H1063 C1093 0.950 . S
C1064 H1046 0.951 . S
C1064 C1065 1.366 . S
C1064 C1066 1.388 . S
C1065 C1064 1.366 . S
C1065 C1069 1.385 . S
C1066 H1047 0.951 . S
C1066 C1064 1.388 . S
C1066 C1067 1.366 . S
C1067 C1066 1.366 . S
C1067 C1068 1.414 . S
C1067 C1070 1.499 . S
C1068 H1048 0.950 . S
C1068 C1067 1.414 . S
C1068 C1069 1.374 . S
C1069 H1049 0.950 . S
C1069 C1065 1.385 . S
C1069 C1068 1.374 . S
C1070 C1067 1.499 . S
C1070 C1071 1.373 . S
C1070 C1072 1.389 1_545 S
C1071 H1050 0.950 . S
C1071 C1070 1.373 . S
C1071 C1087 1.377 . S
C1072 C1070 1.389 1_565 S
C1072 C1073 1.524 . S
C1072 C1086 1.377 . S
C1073 C1072 1.524 . S
C1073 C1074 1.397 . S
C1073 C1078 1.363 . S
C1074 H1051 0.950 . S
C1074 C1073 1.397 . S
C1074 C1075 1.334 . S
C1075 H1052 0.950 . S
C1075 C1074 1.334 . S
C1075 C1076 1.287 . S
C1076 C1075 1.287 . S
C1076 C1077 1.524 . S
C1076 H1095 0.913 . S
C1077 H1053 0.950 . S
C1077 C1076 1.524 . S
C1077 C1078 1.415 . S
C1078 H1054 0.950 . S
C1078 C1073 1.363 . S
C1078 C1077 1.415 . S
C1079 H1055 0.951 . S
C1079 C1080 1.366 . S
C1079 C1081 1.388 . S
C1080 C1079 1.366 . S
C1080 C1084 1.385 . S
C1081 H1056 0.951 . S
C1081 C1079 1.388 . S
C1081 C1082 1.366 . S
C1082 C1081 1.366 . S
C1082 C1083 1.414 . S
C1082 C1085 1.499 . S
C1083 H1057 0.950 . S
C1083 C1082 1.414 . S
C1083 C1084 1.374 . S
C1084 H1058 0.950 . S
C1084 C1080 1.385 . S
C1084 C1083 1.374 . S
C1085 C1082 1.499 . S
C1085 C1086 1.373 . S
C1085 C1087 1.389 1_565 S
C1086 H1059 0.950 . S
C1086 C1072 1.377 . S
C1086 C1085 1.373 . S
C1087 C1071 1.377 . S
C1087 C1085 1.389 1_545 S
C1087 C1088 1.524 . S
C1088 C1087 1.524 . S
C1088 C1089 1.397 . S
C1088 C1093 1.363 . S
C1089 H1060 0.950 . S
C1089 C1088 1.397 . S
C1089 C1090 1.334 . S
C1090 H1061 0.950 . S
C1090 C1089 1.334 . S
C1090 C1091 1.287 . S
C1091 C1090 1.287 . S
C1091 C1092 1.524 . S
C1091 H1094 0.999 . S
C1092 H1062 0.950 . S
C1092 C1091 1.524 . S
C1092 C1093 1.415 . S
C1093 H1063 0.950 . S
C1093 C1088 1.363 . S
C1093 C1092 1.415 . S
H1094 C1091 0.999 . S
H1095 C1076 0.913 . S
H1096 C1114 0.951 . S
H1097 C1116 0.951 . S
H1098 C1118 0.950 . S
H1099 C1119 0.950 . S
H1100 C1121 0.950 . S
H1101 C1124 0.950 . S
H1102 C1125 0.950 . S
H1103 C1127 0.950 . S
H1104 C1128 0.950 . S
H1105 C1129 0.951 . S
H1106 C1131 0.951 . S
H1107 C1133 0.950 . S
H1108 C1134 0.950 . S
H1109 C1136 0.950 . S
H1110 C1139 0.950 . S
H1111 C1140 0.950 . S
H1112 C1142 0.950 . S
H1113 C1143 0.950 . S
C1114 H1096 0.951 . S
C1114 C1115 1.366 . S
C1114 C1116 1.388 . S
C1115 C1114 1.366 . S
C1115 C1119 1.385 1_554 S
C1116 H1097 0.951 . S
C1116 C1114 1.388 . S
C1116 C1117 1.366 . S
C1117 C1116 1.366 . S
C1117 C1118 1.414 1_554 S
C1117 C1120 1.499 . S
C1118 H1098 0.950 . S
C1118 C1117 1.414 1_556 S
C1118 C1119 1.374 . S
C1119 H1099 0.950 . S
C1119 C1115 1.385 1_556 S
C1119 C1118 1.374 . S
C1120 C1117 1.499 . S
C1120 C1121 1.373 1_554 S
C1120 C1122 1.389 . S
C1121 H1100 0.950 . S
C1121 C1120 1.373 1_556 S
C1121 C1137 1.377 . S
C1122 C1120 1.389 . S
C1122 C1123 1.524 . S
C1122 C1136 1.377 . S
C1123 C1122 1.524 . S
C1123 C1124 1.397 . S
C1123 C1128 1.363 . S
C1124 H1101 0.950 . S
C1124 C1123 1.397 . S
C1124 C1125 1.334 . S
C1125 H1102 0.950 . S
C1125 C1124 1.334 . S
C1125 C1126 1.287 . S
C1126 C1125 1.287 . S
C1126 C1127 1.524 . S
C1126 H1145 0.913 . S
C1127 H1103 0.950 . S
C1127 C1126 1.524 . S
C1127 C1128 1.415 . S
C1128 H1104 0.950 . S
C1128 C1123 1.363 . S
C1128 C1127 1.415 . S
C1129 H1105 0.951 . S
C1129 C1130 1.366 1_556 S
C1129 C1131 1.388 . S
C1130 C1129 1.366 1_554 S
C1130 C1134 1.385 . S
C1131 H1106 0.951 . S
C1131 C1129 1.388 . S
C1131 C1132 1.366 1_556 S
C1132 C1131 1.366 1_554 S
C1132 C1133 1.414 . S
C1132 C1135 1.499 . S
C1133 H1107 0.950 . S
C1133 C1132 1.414 . S
C1133 C1134 1.374 . S
C1134 H1108 0.950 . S
C1134 C1130 1.385 . S
C1134 C1133 1.374 . S
C1135 C1132 1.499 . S
C1135 C1136 1.373 . S
C1135 C1137 1.389 1_554 S
C1136 H1109 0.950 . S
C1136 C1122 1.377 . S
C1136 C1135 1.373 . S
C1137 C1121 1.377 . S
C1137 C1135 1.389 1_556 S
C1137 C1138 1.524 . S
C1138 C1137 1.524 . S
C1138 C1139 1.397 . S
C1138 C1143 1.363 . S
C1139 H1110 0.950 . S
C1139 C1138 1.397 . S
C1139 C1140 1.334 . S
C1140 H1111 0.950 . S
C1140 C1139 1.334 . S
C1140 C1141 1.287 . S
C1141 C1140 1.287 . S
C1141 C1142 1.524 . S
C1141 H1144 0.999 . S
C1142 H1112 0.950 . S
C1142 C1141 1.524 . S
C1142 C1143 1.415 . S
C1143 H1113 0.950 . S
C1143 C1138 1.363 . S
C1143 C1142 1.415 . S
H1144 C1141 0.999 . S
H1145 C1126 0.913 . S
H1146 C1164 0.951 . S
H1147 C1166 0.951 . S
H1148 C1168 0.950 . S
H1149 C1169 0.950 . S
H1150 C1171 0.950 . S
H1151 C1174 0.950 . S
H1152 C1175 0.950 . S
H1153 C1177 0.950 . S
H1154 C1178 0.950 . S
H1155 C1179 0.951 . S
H1156 C1181 0.951 . S
H1157 C1183 0.950 . S
H1158 C1184 0.950 . S
H1159 C1186 0.950 . S
H1160 C1189 0.950 . S
H1161 C1190 0.950 . S
H1162 C1192 0.950 . S
H1163 C1193 0.950 . S
C1164 H1146 0.951 . S
C1164 C1165 1.366 . S
C1164 C1166 1.388 . S
C1165 C1164 1.366 . S
C1165 C1169 1.385 . S
C1166 H1147 0.951 . S
C1166 C1164 1.388 . S
C1166 C1167 1.366 . S
C1167 C1166 1.366 . S
C1167 C1168 1.414 . S
C1167 C1170 1.499 . S
C1168 H1148 0.950 . S
C1168 C1167 1.414 . S
C1168 C1169 1.374 . S
C1169 H1149 0.950 . S
C1169 C1165 1.385 . S
C1169 C1168 1.374 . S
C1170 C1167 1.499 . S
C1170 C1171 1.373 1_565 S
C1170 C1172 1.389 . S
C1171 H1150 0.950 . S
C1171 C1170 1.373 1_545 S
C1171 C1187 1.377 . S
C1172 C1170 1.389 . S
C1172 C1173 1.524 . S
C1172 C1186 1.377 . S
C1173 C1172 1.524 . S
C1173 C1174 1.397 . S
C1173 C1178 1.363 . S
C1174 H1151 0.950 . S
C1174 C1173 1.397 . S
C1174 C1175 1.334 . S
C1175 H1152 0.950 . S
C1175 C1174 1.334 . S
C1175 C1176 1.287 . S
C1176 C1175 1.287 . S
C1176 C1177 1.524 . S
C1176 H1195 0.913 . S
C1177 H1153 0.950 . S
C1177 C1176 1.524 . S
C1177 C1178 1.415 . S
C1178 H1154 0.950 . S
C1178 C1173 1.363 . S
C1178 C1177 1.415 . S
C1179 H1155 0.951 . S
C1179 C1180 1.366 . S
C1179 C1181 1.388 . S
C1180 C1179 1.366 . S
C1180 C1184 1.385 . S
C1181 H1156 0.951 . S
C1181 C1179 1.388 . S
C1181 C1182 1.366 . S
C1182 C1181 1.366 . S
C1182 C1183 1.414 . S
C1182 C1185 1.499 . S
C1183 H1157 0.950 . S
C1183 C1182 1.414 . S
C1183 C1184 1.374 . S
C1184 H1158 0.950 . S
C1184 C1180 1.385 . S
C1184 C1183 1.374 . S
C1185 C1182 1.499 . S
C1185 C1186 1.373 1_545 S
C1185 C1187 1.389 . S
C1186 H1159 0.950 . S
C1186 C1172 1.377 . S
C1186 C1185 1.373 1_565 S
C1187 C1171 1.377 . S
C1187 C1185 1.389 . S
C1187 C1188 1.524 . S
C1188 C1187 1.524 . S
C1188 C1189 1.397 . S
C1188 C1193 1.363 . S
C1189 H1160 0.950 . S
C1189 C1188 1.397 . S
C1189 C1190 1.334 . S
C1190 H1161 0.950 . S
C1190 C1189 1.334 . S
C1190 C1191 1.287 . S
C1191 C1190 1.287 . S
C1191 C1192 1.524 . S
C1191 H1194 0.999 . S
C1192 H1162 0.950 . S
C1192 C1191 1.524 . S
C1192 C1193 1.415 . S
C1193 H1163 0.950 . S
C1193 C1188 1.363 . S
C1193 C1192 1.415 . S
H1194 C1191 0.999 . S
H1195 C1176 0.913 . S
H1196 C1214 0.951 . S
H1197 C1216 0.951 . S
H1198 C1218 0.950 . S
H1199 C1219 0.950 . S
H1200 C1221 0.950 . S
H1201 C1224 0.950 . S
H1202 C1225 0.950 . S
H1203 C1227 0.950 . S
H1204 C1228 0.950 . S
H1205 C1229 0.951 . S
H1206 C1231 0.951 . S
H1207 C1233 0.950 . S
H1208 C1234 0.950 . S
H1209 C1236 0.950 . S
H1210 C1239 0.950 . S
H1211 C1240 0.950 . S
H1212 C1242 0.950 . S
H1213 C1243 0.950 . S
C1214 H1196 0.951 . S
C1214 C1215 1.366 . S
C1214 C1216 1.388 . S
C1215 C1214 1.366 . S
C1215 C1219 1.385 . S
C1216 H1197 0.951 . S
C1216 C1214 1.388 . S
C1216 C1217 1.366 . S
C1217 C1216 1.366 . S
C1217 C1218 1.414 . S
C1217 C1220 1.499 . S
C1218 H1198 0.950 . S
C1218 C1217 1.414 . S
C1218 C1219 1.374 . S
C1219 H1199 0.950 . S
C1219 C1215 1.385 . S
C1219 C1218 1.374 . S
C1220 C1217 1.499 . S
C1220 C1221 1.373 . S
C1220 C1222 1.389 . S
C1221 H1200 0.950 . S
C1221 C1220 1.373 . S
C1221 C1237 1.377 . S
C1222 C1220 1.389 . S
C1222 C1223 1.524 . S
C1222 C1236 1.377 . S
C1223 C1222 1.524 . S
C1223 C1224 1.397 . S
C1223 C1228 1.363 . S
C1224 H1201 0.950 . S
C1224 C1223 1.397 . S
C1224 C1225 1.334 . S
C1225 H1202 0.950 . S
C1225 C1224 1.334 . S
C1225 C1226 1.287 . S
C1226 C1225 1.287 . S
C1226 C1227 1.524 . S
C1226 H1245 0.913 . S
C1227 H1203 0.950 . S
C1227 C1226 1.524 . S
C1227 C1228 1.415 . S
C1228 H1204 0.950 . S
C1228 C1223 1.363 . S
C1228 C1227 1.415 . S
C1229 H1205 0.951 . S
C1229 C1230 1.366 . S
C1229 C1231 1.388 . S
C1230 C1229 1.366 . S
C1230 C1234 1.385 . S
C1231 H1206 0.951 . S
C1231 C1229 1.388 . S
C1231 C1232 1.366 . S
C1232 C1231 1.366 . S
C1232 C1233 1.414 . S
C1232 C1235 1.499 . S
C1233 H1207 0.950 . S
C1233 C1232 1.414 . S
C1233 C1234 1.374 . S
C1234 H1208 0.950 . S
C1234 C1230 1.385 . S
C1234 C1233 1.374 . S
C1235 C1232 1.499 . S
C1235 C1236 1.373 . S
C1235 C1237 1.389 . S
C1236 H1209 0.950 . S
C1236 C1222 1.377 . S
C1236 C1235 1.373 . S
C1237 C1221 1.377 . S
C1237 C1235 1.389 . S
C1237 C1238 1.524 . S
C1238 C1237 1.524 . S
C1238 C1239 1.397 . S
C1238 C1243 1.363 . S
C1239 H1210 0.950 . S
C1239 C1238 1.397 . S
C1239 C1240 1.334 . S
C1240 H1211 0.950 . S
C1240 C1239 1.334 . S
C1240 C1241 1.287 . S
C1241 C1240 1.287 . S
C1241 C1242 1.524 . S
C1241 H1244 0.999 . S
C1242 H1212 0.950 . S
C1242 C1241 1.524 . S
C1242 C1243 1.415 . S
C1243 H1213 0.950 . S
C1243 C1238 1.363 . S
C1243 C1242 1.415 . S
H1244 C1241 0.999 . S
H1245 C1226 0.913 . S
H1246 C1264 0.951 . S
H1247 C1266 0.951 . S
H1248 C1268 0.950 . S
H1249 C1269 0.950 . S
H1250 C1271 0.950 . S
H1251 C1274 0.950 . S
H1252 C1275 0.950 . S
H1253 C1277 0.950 . S
H1254 C1278 0.950 . S
H1255 C1279 0.951 . S
H1256 C1281 0.951 . S
H1257 C1283 0.950 . S
H1258 C1284 0.950 . S
H1259 C1286 0.950 . S
H1260 C1289 0.950 1_554 S
H1261 C1290 0.950 1_554 S
H1262 C1292 0.950 . S
H1263 C1293 0.950 . S
C1264 H1246 0.951 . S
C1264 C1265 1.366 1_554 S
C1264 C1266 1.388 . S
C1265 C1264 1.366 1_556 S
C1265 C1269 1.385 . S
C1266 H1247 0.951 . S
C1266 C1264 1.388 . S
C1266 C1267 1.366 1_554 S
C1267 C1266 1.366 1_556 S
C1267 C1268 1.414 . S
C1267 C1270 1.499 . S
C1268 H1248 0.950 . S
C1268 C1267 1.414 . S
C1268 C1269 1.374 . S
C1269 H1249 0.950 . S
C1269 C1265 1.385 . S
C1269 C1268 1.374 . S
C1270 C1267 1.499 . S
C1270 C1271 1.373 1_655 S
C1270 C1272 1.382 1_556 S
C1271 H1250 0.950 . S
C1271 C1270 1.373 1_455 S
C1271 C1287 1.377 . S
C1272 C1270 1.382 1_554 S
C1272 C1273 1.530 . S
C1272 C1286 1.378 . S
C1273 C1272 1.530 . S
C1273 C1274 1.397 1_554 S
C1273 C1278 1.363 . S
C1274 H1251 0.950 . S
C1274 C1273 1.397 1_556 S
C1274 C1275 1.334 . S
C1275 H1252 0.950 . S
C1275 C1274 1.334 . S
C1275 C1276 1.287 1_556 S
C1276 C1275 1.287 1_554 S
C1276 C1277 1.524 . S
C1276 H1295 0.913 . S
C1277 H1253 0.950 . S
C1277 C1276 1.524 . S
C1277 C1278 1.415 . S
C1278 H1254 0.950 . S
C1278 C1273 1.363 . S
C1278 C1277 1.415 . S
C1279 H1255 0.951 . S
C1279 C1280 1.366 . S
C1279 C1281 1.388 . S
C1280 C1279 1.366 . S
C1280 C1284 1.385 1_556 S
C1281 H1256 0.951 . S
C1281 C1279 1.388 . S
C1281 C1282 1.366 . S
C1282 C1281 1.366 . S
C1282 C1283 1.414 1_556 S
C1282 C1285 1.499 . S
C1283 H1257 0.950 . S
C1283 C1282 1.414 1_554 S
C1283 C1284 1.374 . S
C1284 H1258 0.950 . S
C1284 C1280 1.385 1_554 S
C1284 C1283 1.374 . S
C1285 C1282 1.499 . S
C1285 C1286 1.373 1_456 S
C1285 C1287 1.389 . S
C1286 H1259 0.950 . S
C1286 C1272 1.378 . S
C1286 C1285 1.373 1_654 S
C1287 C1271 1.377 . S
C1287 C1285 1.389 . S
C1287 C1288 1.524 . S
C1288 C1287 1.524 . S
C1288 C1289 1.397 . S
C1288 C1293 1.363 . S
C1289 H1260 0.950 1_556 S
C1289 C1288 1.397 . S
C1289 C1290 1.334 . S
C1290 H1261 0.950 1_556 S
C1290 C1289 1.334 . S
C1290 C1291 1.287 . S
C1291 C1290 1.287 . S
C1291 C1292 1.524 . S
C1291 H1294 0.999 . S
C1292 H1262 0.950 . S
C1292 C1291 1.524 . S
C1292 C1293 1.415 . S
C1293 H1263 0.950 . S
C1293 C1288 1.363 . S
C1293 C1292 1.415 . S
H1294 C1291 0.999 . S
H1295 C1276 0.913 . S
H1296 C1314 0.951 . S
H1297 C1316 0.951 . S
H1298 C1318 0.950 . S
H1299 C1319 0.950 . S
H1300 C1321 0.950 . S
H1301 C1324 0.950 . S
H1302 C1325 0.950 . S
H1303 C1327 0.950 . S
H1304 C1328 0.950 . S
H1305 C1329 0.951 . S
H1306 C1331 0.951 . S
H1307 C1333 0.950 . S
H1308 C1334 0.950 . S
H1309 C1336 0.950 . S
H1310 C1339 0.950 . S
H1311 C1340 0.950 . S
H1312 C1342 0.950 . S
H1313 C1343 0.950 . S
C1314 H1296 0.951 . S
C1314 C1315 1.366 . S
C1314 C1316 1.388 . S
C1315 C1314 1.366 . S
C1315 C1319 1.385 . S
C1316 H1297 0.951 . S
C1316 C1314 1.388 . S
C1316 C1317 1.366 . S
C1317 C1316 1.366 . S
C1317 C1318 1.414 . S
C1317 C1320 1.499 . S
C1318 H1298 0.950 . S
C1318 C1317 1.414 . S
C1318 C1319 1.374 . S
C1319 H1299 0.950 . S
C1319 C1315 1.385 . S
C1319 C1318 1.374 . S
C1320 C1317 1.499 . S
C1320 C1321 1.373 . S
C1320 C1322 1.389 . S
C1321 H1300 0.950 . S
C1321 C1320 1.373 . S
C1321 C1337 1.377 . S
C1322 C1320 1.389 . S
C1322 C1323 1.524 . S
C1322 C1336 1.377 . S
C1323 C1322 1.524 . S
C1323 C1324 1.397 . S
C1323 C1328 1.363 . S
C1324 H1301 0.950 . S
C1324 C1323 1.397 . S
C1324 C1325 1.334 . S
C1325 H1302 0.950 . S
C1325 C1324 1.334 . S
C1325 C1326 1.287 . S
C1326 C1325 1.287 . S
C1326 C1327 1.524 . S
C1326 H1345 0.913 . S
C1327 H1303 0.950 . S
C1327 C1326 1.524 . S
C1327 C1328 1.415 . S
C1328 H1304 0.950 . S
C1328 C1323 1.363 . S
C1328 C1327 1.415 . S
C1329 H1305 0.951 . S
C1329 C1330 1.366 . S
C1329 C1331 1.388 . S
C1330 C1329 1.366 . S
C1330 C1334 1.385 . S
C1331 H1306 0.951 . S
C1331 C1329 1.388 . S
C1331 C1332 1.366 . S
C1332 C1331 1.366 . S
C1332 C1333 1.414 . S
C1332 C1335 1.499 . S
C1333 H1307 0.950 . S
C1333 C1332 1.414 . S
C1333 C1334 1.374 . S
C1334 H1308 0.950 . S
C1334 C1330 1.385 . S
C1334 C1333 1.374 . S
C1335 C1332 1.499 . S
C1335 C1336 1.373 . S
C1335 C1337 1.389 . S
C1336 H1309 0.950 . S
C1336 C1322 1.377 . S
C1336 C1335 1.373 . S
C1337 C1321 1.377 . S
C1337 C1335 1.389 . S
C1337 C1338 1.524 . S
C1338 C1337 1.524 . S
C1338 C1339 1.397 . S
C1338 C1343 1.363 . S
C1339 H1310 0.950 . S
C1339 C1338 1.397 . S
C1339 C1340 1.334 . S
C1340 H1311 0.950 . S
C1340 C1339 1.334 . S
C1340 C1341 1.287 . S
C1341 C1340 1.287 . S
C1341 C1342 1.524 . S
C1341 H1344 0.999 . S
C1342 H1312 0.950 . S
C1342 C1341 1.524 . S
C1342 C1343 1.415 . S
C1343 H1313 0.950 . S
C1343 C1338 1.363 . S
C1343 C1342 1.415 . S
H1344 C1341 0.999 . S
H1345 C1326 0.913 . S
H1346 C1364 0.951 . S
H1347 C1366 0.951 . S
H1348 C1368 0.950 . S
H1349 C1369 0.950 . S
H1350 C1371 0.950 . S
H1351 C1374 0.950 . S
H1352 C1375 0.950 . S
H1353 C1377 0.950 . S
H1354 C1378 0.950 . S
H1355 C1379 0.951 . S
H1356 C1381 0.951 . S
H1357 C1383 0.950 . S
H1358 C1384 0.950 . S
H1359 C1386 0.950 . S
H1360 C1389 0.950 . S
H1361 C1390 0.950 . S
H1362 C1392 0.950 . S
H1363 C1393 0.950 . S
C1364 H1346 0.951 . S
C1364 C1365 1.366 . S
C1364 C1366 1.388 . S
C1365 C1364 1.366 . S
C1365 C1369 1.385 . S
C1366 H1347 0.951 . S
C1366 C1364 1.388 . S
C1366 C1367 1.366 . S
C1367 C1366 1.366 . S
C1367 C1368 1.414 . S
C1367 C1370 1.499 . S
C1368 H1348 0.950 . S
C1368 C1367 1.414 . S
C1368 C1369 1.374 . S
C1369 H1349 0.950 . S
C1369 C1365 1.385 . S
C1369 C1368 1.374 . S
C1370 C1367 1.499 . S
C1370 C1371 1.373 . S
C1370 C1372 1.389 . S
C1371 H1350 0.950 . S
C1371 C1370 1.373 . S
C1371 C1387 1.377 1_655 S
C1372 C1370 1.389 . S
C1372 C1373 1.524 . S
C1372 C1386 1.377 1_655 S
C1373 C1372 1.524 . S
C1373 C1374 1.397 . S
C1373 C1378 1.363 . S
C1374 H1351 0.950 . S
C1374 C1373 1.397 . S
C1374 C1375 1.334 . S
C1375 H1352 0.950 . S
C1375 C1374 1.334 . S
C1375 C1376 1.287 . S
C1376 C1375 1.287 . S
C1376 C1377 1.524 . S
C1376 H1395 0.913 . S
C1377 H1353 0.950 . S
C1377 C1376 1.524 . S
C1377 C1378 1.415 . S
C1378 H1354 0.950 . S
C1378 C1373 1.363 . S
C1378 C1377 1.415 . S
C1379 H1355 0.951 . S
C1379 C1380 1.366 . S
C1379 C1381 1.388 . S
C1380 C1379 1.366 . S
C1380 C1384 1.385 . S
C1381 H1356 0.951 . S
C1381 C1379 1.388 . S
C1381 C1382 1.366 . S
C1382 C1381 1.366 . S
C1382 C1383 1.414 . S
C1382 C1385 1.499 . S
C1383 H1357 0.950 . S
C1383 C1382 1.414 . S
C1383 C1384 1.374 . S
C1384 H1358 0.950 . S
C1384 C1380 1.385 . S
C1384 C1383 1.374 . S
C1385 C1382 1.499 . S
C1385 C1386 1.373 . S
C1385 C1387 1.389 . S
C1386 H1359 0.950 . S
C1386 C1372 1.377 1_455 S
C1386 C1385 1.373 . S
C1387 C1371 1.377 1_455 S
C1387 C1385 1.389 . S
C1387 C1388 1.524 . S
C1388 C1387 1.524 . S
C1388 C1389 1.397 . S
C1388 C1393 1.363 . S
C1389 H1360 0.950 . S
C1389 C1388 1.397 . S
C1389 C1390 1.334 . S
C1390 H1361 0.950 . S
C1390 C1389 1.334 . S
C1390 C1391 1.287 . S
C1391 C1390 1.287 . S
C1391 C1392 1.524 . S
C1391 H1394 0.999 . S
C1392 H1362 0.950 . S
C1392 C1391 1.524 . S
C1392 C1393 1.415 . S
C1393 H1363 0.950 . S
C1393 C1388 1.363 . S
C1393 C1392 1.415 . S
H1394 C1391 0.999 . S
H1395 C1376 0.913 . S
H1396 C1414 0.951 . S
H1397 C1416 0.951 . S
H1398 C1418 0.950 . S
H1399 C1419 0.950 . S
H1400 C1421 0.950 . S
H1401 C1424 0.950 . S
H1402 C1425 0.950 . S
H1403 C1427 0.950 . S
H1404 C1428 0.946 1_556 S
H1405 C1429 0.951 . S
H1406 C1431 0.951 . S
H1407 C1433 0.950 . S
H1408 C1434 0.950 . S
H1409 C1436 0.950 . S
H1410 C1439 0.950 . S
H1411 C1440 0.950 . S
H1412 C1442 0.950 . S
H1413 C1443 0.938 1_554 S
C1414 H1396 0.951 . S
C1414 C1415 1.366 1_556 S
C1414 C1416 1.388 . S
C1415 C1414 1.366 1_554 S
C1415 C1419 1.385 . S
C1416 H1397 0.951 . S
C1416 C1414 1.388 . S
C1416 C1417 1.366 1_556 S
C1417 C1416 1.366 1_554 S
C1417 C1418 1.414 . S
C1417 C1420 1.499 . S
C1418 H1398 0.950 . S
C1418 C1417 1.414 . S
C1418 C1419 1.374 . S
C1419 H1399 0.950 . S
C1419 C1415 1.385 . S
C1419 C1418 1.374 . S
C1420 C1417 1.499 . S
C1420 C1421 1.373 1_554 S
C1420 C1422 1.389 . S
C1421 H1400 0.950 . S
C1421 C1420 1.373 1_556 S
C1421 C1437 1.377 1_545 S
C1422 C1420 1.389 . S
C1422 C1423 1.524 . S
C1422 C1436 1.377 1_545 S
C1423 C1422 1.524 . S
C1423 C1424 1.397 . S
C1423 C1428 1.363 . S
C1424 H1401 0.950 . S
C1424 C1423 1.397 . S
C1424 C1425 1.334 . S
C1425 H1402 0.950 . S
C1425 C1424 1.334 . S
C1425 C1426 1.287 . S
C1426 C1425 1.287 . S
C1426 C1427 1.524 . S
C1426 H1445 0.913 . S
C1427 H1403 0.950 . S
C1427 C1426 1.524 . S
C1427 C1428 1.415 . S
C1428 H1404 0.946 1_554 S
C1428 C1423 1.363 . S
C1428 C1427 1.415 . S
C1429 H1405 0.951 . S
C1429 C1430 1.366 1_554 S
C1429 C1431 1.388 . S
C1430 C1429 1.366 1_556 S
C1430 C1434 1.385 . S
C1431 H1406 0.951 . S
C1431 C1429 1.388 . S
C1431 C1432 1.366 1_554 S
C1432 C1431 1.366 1_556 S
C1432 C1433 1.414 . S
C1432 C1435 1.499 . S
C1433 H1407 0.950 . S
C1433 C1432 1.414 . S
C1433 C1434 1.374 . S
C1434 H1408 0.950 . S
C1434 C1430 1.385 . S
C1434 C1433 1.374 . S
C1435 C1432 1.499 . S
C1435 C1436 1.373 1_556 S
C1435 C1437 1.389 . S
C1436 H1409 0.950 . S
C1436 C1422 1.377 1_565 S
C1436 C1435 1.373 1_554 S
C1437 C1421 1.377 1_565 S
C1437 C1435 1.389 . S
C1437 C1438 1.524 . S
C1438 C1437 1.524 . S
C1438 C1439 1.397 . S
C1438 C1443 1.363 . S
C1439 H1410 0.950 . S
C1439 C1438 1.397 . S
C1439 C1440 1.334 . S
C1440 H1411 0.950 . S
C1440 C1439 1.334 . S
C1440 C1441 1.287 . S
C1441 C1440 1.287 . S
C1441 C1442 1.524 . S
C1441 H1444 0.999 . S
C1442 H1412 0.950 . S
C1442 C1441 1.524 . S
C1442 C1443 1.415 . S
C1443 H1413 0.938 1_556 S
C1443 C1438 1.363 . S
C1443 C1442 1.415 . S
H1444 C1441 0.999 . S
H1445 C1426 0.913 . S
H1446 C1464 0.951 . S
H1447 C1466 0.951 . S
H1448 C1468 0.950 . S
H1449 C1469 0.950 . S
H1450 C1471 0.950 . S
H1451 C1474 0.950 . S
H1452 C1475 0.950 . S
H1453 C1477 0.950 . S
H1454 C1478 0.950 . S
H1455 C1479 0.951 . S
H1456 C1481 0.951 . S
H1457 C1483 0.950 . S
H1458 C1484 0.950 . S
H1459 C1486 0.950 . S
H1460 C1489 0.950 . S
H1461 C1490 0.950 . S
H1462 C1492 0.950 . S
H1463 C1493 0.950 . S
C1464 H1446 0.951 . S
C1464 C1465 1.366 . S
C1464 C1466 1.388 . S
C1465 C1464 1.366 . S
C1465 C1469 1.385 . S
C1466 H1447 0.951 . S
C1466 C1464 1.388 . S
C1466 C1467 1.366 . S
C1467 C1466 1.366 . S
C1467 C1468 1.414 . S
C1467 C1470 1.499 . S
C1468 H1448 0.950 . S
C1468 C1467 1.414 . S
C1468 C1469 1.374 . S
C1469 H1449 0.950 . S
C1469 C1465 1.385 . S
C1469 C1468 1.374 . S
C1470 C1467 1.499 . S
C1470 C1471 1.373 . S
C1470 C1472 1.389 . S
C1471 H1450 0.950 . S
C1471 C1470 1.373 . S
C1471 C1487 1.377 . S
C1472 C1470 1.389 . S
C1472 C1473 1.524 . S
C1472 C1486 1.377 . S
C1473 C1472 1.524 . S
C1473 C1474 1.397 . S
C1473 C1478 1.363 . S
C1474 H1451 0.950 . S
C1474 C1473 1.397 . S
C1474 C1475 1.334 . S
C1475 H1452 0.950 . S
C1475 C1474 1.334 . S
C1475 C1476 1.287 . S
C1476 C1475 1.287 . S
C1476 C1477 1.524 . S
C1476 H1495 0.913 . S
C1477 H1453 0.950 . S
C1477 C1476 1.524 . S
C1477 C1478 1.415 . S
C1478 H1454 0.950 . S
C1478 C1473 1.363 . S
C1478 C1477 1.415 . S
C1479 H1455 0.951 . S
C1479 C1480 1.366 . S
C1479 C1481 1.388 . S
C1480 C1479 1.366 . S
C1480 C1484 1.385 . S
C1481 H1456 0.951 . S
C1481 C1479 1.388 . S
C1481 C1482 1.366 . S
C1482 C1481 1.366 . S
C1482 C1483 1.414 . S
C1482 C1485 1.499 . S
C1483 H1457 0.950 . S
C1483 C1482 1.414 . S
C1483 C1484 1.374 . S
C1484 H1458 0.950 . S
C1484 C1480 1.385 . S
C1484 C1483 1.374 . S
C1485 C1482 1.499 . S
C1485 C1486 1.373 . S
C1485 C1487 1.389 . S
C1486 H1459 0.950 . S
C1486 C1472 1.377 . S
C1486 C1485 1.373 . S
C1487 C1471 1.377 . S
C1487 C1485 1.389 . S
C1487 C1488 1.524 . S
C1488 C1487 1.524 . S
C1488 C1489 1.397 . S
C1488 C1493 1.363 . S
C1489 H1460 0.950 . S
C1489 C1488 1.397 . S
C1489 C1490 1.334 . S
C1490 H1461 0.950 . S
C1490 C1489 1.334 . S
C1490 C1491 1.287 . S
C1491 C1490 1.287 . S
C1491 C1492 1.524 . S
C1491 H1494 0.999 . S
C1492 H1462 0.950 . S
C1492 C1491 1.524 . S
C1492 C1493 1.415 . S
C1493 H1463 0.950 . S
C1493 C1488 1.363 . S
C1493 C1492 1.415 . S
H1494 C1491 0.999 . S
H1495 C1476 0.913 . S
H1496 C1514 0.951 . S
H1497 C1516 0.951 . S
H1498 C1518 0.950 . S
H1499 C1519 0.950 . S
H1500 C1521 0.950 . S
H1501 C1524 0.950 . S
H1502 C1525 0.950 . S
H1503 C1527 0.950 . S
H1504 C1528 0.950 . S
H1505 C1529 0.951 . S
H1506 C1531 0.951 . S
H1507 C1533 0.950 . S
H1508 C1534 0.950 . S
H1509 C1536 0.950 . S
H1510 C1539 0.950 . S
H1511 C1540 0.950 . S
H1512 C1542 0.950 . S
H1513 C1543 0.950 . S
C1514 H1496 0.951 . S
C1514 C1515 1.366 . S
C1514 C1516 1.388 . S
C1515 C1514 1.366 . S
C1515 C1519 1.385 . S
C1516 H1497 0.951 . S
C1516 C1514 1.388 . S
C1516 C1517 1.366 . S
C1517 C1516 1.366 . S
C1517 C1518 1.414 . S
C1517 C1520 1.499 . S
C1518 H1498 0.950 . S
C1518 C1517 1.414 . S
C1518 C1519 1.374 . S
C1519 H1499 0.950 . S
C1519 C1515 1.385 . S
C1519 C1518 1.374 . S
C1520 C1517 1.499 . S
C1520 C1521 1.373 . S
C1520 C1522 1.389 . S
C1521 H1500 0.950 . S
C1521 C1520 1.373 . S
C1521 C1537 1.377 1_455 S
C1522 C1520 1.389 . S
C1522 C1523 1.524 . S
C1522 C1536 1.377 1_455 S
C1523 C1522 1.524 . S
C1523 C1524 1.397 . S
C1523 C1528 1.363 . S
C1524 H1501 0.950 . S
C1524 C1523 1.397 . S
C1524 C1525 1.334 . S
C1525 H1502 0.950 . S
C1525 C1524 1.334 . S
C1525 C1526 1.287 . S
C1526 C1525 1.287 . S
C1526 C1527 1.524 . S
C1526 H1545 0.913 . S
C1527 H1503 0.950 . S
C1527 C1526 1.524 . S
C1527 C1528 1.415 . S
C1528 H1504 0.950 . S
C1528 C1523 1.363 . S
C1528 C1527 1.415 . S
C1529 H1505 0.951 . S
C1529 C1530 1.366 . S
C1529 C1531 1.388 . S
C1530 C1529 1.366 . S
C1530 C1534 1.385 . S
C1531 H1506 0.951 . S
C1531 C1529 1.388 . S
C1531 C1532 1.366 . S
C1532 C1531 1.366 . S
C1532 C1533 1.414 . S
C1532 C1535 1.499 . S
C1533 H1507 0.950 . S
C1533 C1532 1.414 . S
C1533 C1534 1.374 . S
C1534 H1508 0.950 . S
C1534 C1530 1.385 . S
C1534 C1533 1.374 . S
C1535 C1532 1.499 . S
C1535 C1536 1.373 . S
C1535 C1537 1.389 . S
C1536 H1509 0.950 . S
C1536 C1522 1.377 1_655 S
C1536 C1535 1.373 . S
C1537 C1521 1.377 1_655 S
C1537 C1535 1.389 . S
C1537 C1538 1.524 . S
C1538 C1537 1.524 . S
C1538 C1539 1.397 . S
C1538 C1543 1.363 . S
C1539 H1510 0.950 . S
C1539 C1538 1.397 . S
C1539 C1540 1.334 . S
C1540 H1511 0.950 . S
C1540 C1539 1.334 . S
C1540 C1541 1.287 . S
C1541 C1540 1.287 . S
C1541 C1542 1.524 . S
C1541 H1544 0.999 . S
C1542 H1512 0.950 . S
C1542 C1541 1.524 . S
C1542 C1543 1.415 . S
C1543 H1513 0.950 . S
C1543 C1538 1.363 . S
C1543 C1542 1.415 . S
H1544 C1541 0.999 . S
H1545 C1526 0.913 . S
H1546 C1564 0.951 . S
H1547 C1566 0.951 . S
H1548 C1568 0.950 . S
H1549 C1569 0.950 . S
H1550 C1571 0.950 . S
H1551 C1574 0.950 . S
H1552 C1575 0.950 . S
H1553 C1577 0.950 . S
H1554 C1578 0.950 . S
H1555 C1579 0.951 . S
H1556 C1581 0.951 . S
H1557 C1583 0.950 . S
H1558 C1584 0.950 . S
H1559 C1586 0.950 . S
H1560 C1589 0.950 . S
H1561 C1590 0.950 . S
H1562 C1592 0.950 . S
H1563 C1593 0.950 . S
C1564 H1546 0.951 . S
C1564 C1565 1.366 1_554 S
C1564 C1566 1.388 . S
C1565 C1564 1.366 1_556 S
C1565 C1569 1.385 . S
C1566 H1547 0.951 . S
C1566 C1564 1.388 . S
C1566 C1567 1.366 1_554 S
C1567 C1566 1.366 1_556 S
C1567 C1568 1.414 . S
C1567 C1570 1.499 . S
C1568 H1548 0.950 . S
C1568 C1567 1.414 . S
C1568 C1569 1.374 . S
C1569 H1549 0.950 . S
C1569 C1565 1.385 . S
C1569 C1568 1.374 . S
C1570 C1567 1.499 . S
C1570 C1571 1.373 . S
C1570 C1572 1.389 1_556 S
C1571 H1550 0.950 . S
C1571 C1570 1.373 . S
C1571 C1587 1.377 1_545 S
C1572 C1570 1.389 1_554 S
C1572 C1573 1.524 . S
C1572 C1586 1.377 1_545 S
C1573 C1572 1.524 . S
C1573 C1574 1.397 1_554 S
C1573 C1578 1.363 . S
C1574 H1551 0.950 . S
C1574 C1573 1.397 1_556 S
C1574 C1575 1.334 . S
C1575 H1552 0.950 . S
C1575 C1574 1.334 . S
C1575 C1576 1.287 1_556 S
C1576 C1575 1.287 1_554 S
C1576 C1577 1.524 . S
C1576 H1595 0.913 . S
C1577 H1553 0.950 . S
C1577 C1576 1.524 . S
C1577 C1578 1.415 . S
C1578 H1554 0.950 . S
C1578 C1573 1.363 . S
C1578 C1577 1.415 . S
C1579 H1555 0.951 . S
C1579 C1580 1.366 1_556 S
C1579 C1581 1.388 . S
C1580 C1579 1.366 1_554 S
C1580 C1584 1.385 . S
C1581 H1556 0.951 . S
C1581 C1579 1.388 . S
C1581 C1582 1.366 1_556 S
C1582 C1581 1.366 1_554 S
C1582 C1583 1.414 . S
C1582 C1585 1.499 . S
C1583 H1557 0.950 . S
C1583 C1582 1.414 . S
C1583 C1584 1.374 . S
C1584 H1558 0.950 . S
C1584 C1580 1.385 . S
C1584 C1583 1.374 . S
C1585 C1582 1.499 . S
C1585 C1586 1.373 . S
C1585 C1587 1.389 1_554 S
C1586 H1559 0.950 . S
C1586 C1572 1.377 1_565 S
C1586 C1585 1.373 . S
C1587 C1571 1.377 1_565 S
C1587 C1585 1.389 1_556 S
C1587 C1588 1.524 . S
C1588 C1587 1.524 . S
C1588 C1589 1.397 1_556 S
C1588 C1593 1.363 . S
C1589 H1560 0.950 . S
C1589 C1588 1.397 1_554 S
C1589 C1590 1.334 . S
C1590 H1561 0.950 . S
C1590 C1589 1.334 . S
C1590 C1591 1.287 1_554 S
C1591 C1590 1.287 1_556 S
C1591 C1592 1.524 . S
C1591 H1594 0.999 . S
C1592 H1562 0.950 . S
C1592 C1591 1.524 . S
C1592 C1593 1.415 . S
C1593 H1563 0.950 . S
C1593 C1588 1.363 . S
C1593 C1592 1.415 . S
H1594 C1591 0.999 . S
H1595 C1576 0.913 . S
H1596 C1614 0.951 . S
H1597 C1616 0.951 . S
H1598 C1618 0.950 . S
H1599 C1619 0.950 . S
H1600 C1621 0.950 . S
H1601 C1624 0.950 . S
H1602 C1625 0.950 . S
H1603 C1627 0.950 . S
H1604 C1628 0.950 . S
H1605 C1629 0.951 . S
H1606 C1631 0.951 . S
H1607 C1633 0.950 . S
H1608 C1634 0.950 . S
H1609 C1636 0.950 . S
H1610 C1639 0.950 . S
H1611 C1640 0.950 . S
H1612 C1642 0.950 . S
H1613 C1643 0.950 . S
C1614 H1596 0.951 . S
C1614 C1615 1.366 . S
C1614 C1616 1.388 . S
C1615 C1614 1.366 . S
C1615 C1619 1.385 . S
C1616 H1597 0.951 . S
C1616 C1614 1.388 . S
C1616 C1617 1.366 . S
C1617 C1616 1.366 . S
C1617 C1618 1.414 . S
C1617 C1620 1.499 . S
C1618 H1598 0.950 . S
C1618 C1617 1.414 . S
C1618 C1619 1.374 . S
C1619 H1599 0.950 . S
C1619 C1615 1.385 . S
C1619 C1618 1.374 . S
C1620 C1617 1.499 . S
C1620 C1621 1.373 . S
C1620 C1622 1.389 . S
C1621 H1600 0.950 . S
C1621 C1620 1.373 . S
C1621 C1637 1.377 . S
C1622 C1620 1.389 . S
C1622 C1623 1.524 . S
C1622 C1636 1.377 . S
C1623 C1622 1.524 . S
C1623 C1624 1.397 . S
C1623 C1628 1.363 . S
C1624 H1601 0.950 . S
C1624 C1623 1.397 . S
C1624 C1625 1.334 . S
C1625 H1602 0.950 . S
C1625 C1624 1.334 . S
C1625 C1626 1.287 . S
C1626 C1625 1.287 . S
C1626 C1627 1.524 . S
C1626 H1645 0.913 . S
C1627 H1603 0.950 . S
C1627 C1626 1.524 . S
C1627 C1628 1.415 . S
C1628 H1604 0.950 . S
C1628 C1623 1.363 . S
C1628 C1627 1.415 . S
C1629 H1605 0.951 . S
C1629 C1630 1.366 . S
C1629 C1631 1.388 . S
C1630 C1629 1.366 . S
C1630 C1634 1.385 . S
C1631 H1606 0.951 . S
C1631 C1629 1.388 . S
C1631 C1632 1.366 . S
C1632 C1631 1.366 . S
C1632 C1633 1.414 . S
C1632 C1635 1.499 . S
C1633 H1607 0.950 . S
C1633 C1632 1.414 . S
C1633 C1634 1.374 . S
C1634 H1608 0.950 . S
C1634 C1630 1.385 . S
C1634 C1633 1.374 . S
C1635 C1632 1.499 . S
C1635 C1636 1.373 . S
C1635 C1637 1.389 . S
C1636 H1609 0.950 . S
C1636 C1622 1.377 . S
C1636 C1635 1.373 . S
C1637 C1621 1.377 . S
C1637 C1635 1.389 . S
C1637 C1638 1.524 . S
C1638 C1637 1.524 . S
C1638 C1639 1.397 . S
C1638 C1643 1.363 . S
C1639 H1610 0.950 . S
C1639 C1638 1.397 . S
C1639 C1640 1.334 . S
C1640 H1611 0.950 . S
C1640 C1639 1.334 . S
C1640 C1641 1.287 . S
C1641 C1640 1.287 . S
C1641 C1642 1.524 . S
C1641 H1644 0.999 . S
C1642 H1612 0.950 . S
C1642 C1641 1.524 . S
C1642 C1643 1.415 . S
C1643 H1613 0.950 . S
C1643 C1638 1.363 . S
C1643 C1642 1.415 . S
H1644 C1641 0.999 . S
H1645 C1626 0.913 . S
H1646 C1664 0.951 . S
H1647 C1666 0.951 . S
H1648 C1668 0.950 . S
H1649 C1669 0.950 . S
H1650 C1671 0.950 . S
H1651 C1674 0.950 . S
H1652 C1675 0.950 . S
H1653 C1677 0.950 . S
H1654 C1678 0.950 . S
H1655 C1679 0.951 . S
H1656 C1681 0.951 . S
H1657 C1683 0.950 . S
H1658 C1684 0.950 . S
H1659 C1686 0.950 . S
H1660 C1689 0.950 . S
H1661 C1690 0.950 . S
H1662 C1692 0.950 . S
H1663 C1693 0.950 . S
C1664 H1646 0.951 . S
C1664 C1665 1.366 . S
C1664 C1666 1.388 . S
C1665 C1664 1.366 . S
C1665 C1669 1.385 . S
C1666 H1647 0.951 . S
C1666 C1664 1.388 . S
C1666 C1667 1.366 . S
C1667 C1666 1.366 . S
C1667 C1668 1.414 . S
C1667 C1670 1.499 . S
C1668 H1648 0.950 . S
C1668 C1667 1.414 . S
C1668 C1669 1.374 . S
C1669 H1649 0.950 . S
C1669 C1665 1.385 . S
C1669 C1668 1.374 . S
C1670 C1667 1.499 . S
C1670 C1671 1.373 . S
C1670 C1672 1.389 . S
C1671 H1650 0.950 . S
C1671 C1670 1.373 . S
C1671 C1687 1.377 . S
C1672 C1670 1.389 . S
C1672 C1673 1.524 . S
C1672 C1686 1.377 . S
C1673 C1672 1.524 . S
C1673 C1674 1.397 . S
C1673 C1678 1.363 . S
C1674 H1651 0.950 . S
C1674 C1673 1.397 . S
C1674 C1675 1.334 . S
C1675 H1652 0.950 . S
C1675 C1674 1.334 . S
C1675 C1676 1.287 . S
C1676 C1675 1.287 . S
C1676 C1677 1.524 . S
C1676 H1695 0.913 . S
C1677 H1653 0.950 . S
C1677 C1676 1.524 . S
C1677 C1678 1.415 . S
C1678 H1654 0.950 . S
C1678 C1673 1.363 . S
C1678 C1677 1.415 . S
C1679 H1655 0.951 . S
C1679 C1680 1.366 . S
C1679 C1681 1.388 . S
C1680 C1679 1.366 . S
C1680 C1684 1.385 . S
C1681 H1656 0.951 . S
C1681 C1679 1.388 . S
C1681 C1682 1.366 . S
C1682 C1681 1.366 . S
C1682 C1683 1.414 . S
C1682 C1685 1.499 . S
C1683 H1657 0.950 . S
C1683 C1682 1.414 . S
C1683 C1684 1.374 . S
C1684 H1658 0.950 . S
C1684 C1680 1.385 . S
C1684 C1683 1.374 . S
C1685 C1682 1.499 . S
C1685 C1686 1.373 . S
C1685 C1687 1.389 . S
C1686 H1659 0.950 . S
C1686 C1672 1.377 . S
C1686 C1685 1.373 . S
C1687 C1671 1.377 . S
C1687 C1685 1.389 . S
C1687 C1688 1.524 . S
C1688 C1687 1.524 . S
C1688 C1689 1.397 . S
C1688 C1693 1.363 . S
C1689 H1660 0.950 . S
C1689 C1688 1.397 . S
C1689 C1690 1.334 . S
C1690 H1661 0.950 . S
C1690 C1689 1.334 . S
C1690 C1691 1.287 . S
C1691 C1690 1.287 . S
C1691 C1692 1.524 . S
C1691 H1694 0.999 . S
C1692 H1662 0.950 . S
C1692 C1691 1.524 . S
C1692 C1693 1.415 . S
C1693 H1663 0.950 . S
C1693 C1688 1.363 . S
C1693 C1692 1.415 . S
H1694 C1691 0.999 . S
H1695 C1676 0.913 . S
H1696 C1714 0.951 . S
H1697 C1716 0.951 . S
H1698 C1718 0.950 . S
H1699 C1719 0.950 . S
H1700 C1721 0.950 . S
H1701 C1724 0.950 1_554 S
H1702 C1725 0.950 . S
H1703 C1727 0.950 . S
H1704 C1728 0.950 . S
H1705 C1729 0.951 . S
H1706 C1731 0.951 . S
H1707 C1733 0.950 . S
H1708 C1734 0.950 . S
H1709 C1736 0.950 . S
H1710 C1739 0.950 1_556 S
H1711 C1740 0.950 . S
H1712 C1742 0.950 . S
H1713 C1743 0.950 . S
C1714 H1696 0.951 . S
C1714 C1715 1.366 . S
C1714 C1716 1.388 . S
C1715 C1714 1.366 . S
C1715 C1719 1.385 1_556 S
C1716 H1697 0.951 . S
C1716 C1714 1.388 . S
C1716 C1717 1.366 . S
C1717 C1716 1.366 . S
C1717 C1718 1.414 1_556 S
C1717 C1720 1.499 . S
C1718 H1698 0.950 . S
C1718 C1717 1.414 1_554 S
C1718 C1719 1.374 . S
C1719 H1699 0.950 . S
C1719 C1715 1.385 1_554 S
C1719 C1718 1.374 . S
C1720 C1717 1.499 . S
C1720 C1721 1.373 1_556 S
C1720 C1722 1.389 . S
C1721 H1700 0.950 . S
C1721 C1720 1.373 1_554 S
C1721 C1737 1.377 . S
C1722 C1720 1.389 . S
C1722 C1723 1.524 . S
C1722 C1736 1.377 . S
C1723 C1722 1.524 . S
C1723 C1724 1.397 . S
C1723 C1728 1.363 . S
C1724 H1701 0.950 1_556 S
C1724 C1723 1.397 . S
C1724 C1725 1.334 . S
C1725 H1702 0.950 . S
C1725 C1724 1.334 . S
C1725 C1726 1.287 . S
C1726 C1725 1.287 . S
C1726 C1727 1.524 . S
C1726 H1745 0.913 . S
C1727 H1703 0.950 . S
C1727 C1726 1.524 . S
C1727 C1728 1.415 . S
C1728 H1704 0.950 . S
C1728 C1723 1.363 . S
C1728 C1727 1.415 . S
C1729 H1705 0.951 . S
C1729 C1730 1.366 . S
C1729 C1731 1.388 . S
C1730 C1729 1.366 . S
C1730 C1734 1.385 1_554 S
C1731 H1706 0.951 . S
C1731 C1729 1.388 . S
C1731 C1732 1.366 . S
C1732 C1731 1.366 . S
C1732 C1733 1.414 1_554 S
C1732 C1735 1.499 . S
C1733 H1707 0.950 . S
C1733 C1732 1.414 1_556 S
C1733 C1734 1.374 . S
C1734 H1708 0.950 . S
C1734 C1730 1.385 1_556 S
C1734 C1733 1.374 . S
C1735 C1732 1.499 . S
C1735 C1736 1.373 1_554 S
C1735 C1737 1.389 . S
C1736 H1709 0.950 . S
C1736 C1722 1.377 . S
C1736 C1735 1.373 1_556 S
C1737 C1721 1.377 . S
C1737 C1735 1.389 . S
C1737 C1738 1.524 . S
C1738 C1737 1.524 . S
C1738 C1739 1.397 . S
C1738 C1743 1.363 . S
C1739 H1710 0.950 1_554 S
C1739 C1738 1.397 . S
C1739 C1740 1.334 . S
C1740 H1711 0.950 . S
C1740 C1739 1.334 . S
C1740 C1741 1.287 . S
C1741 C1740 1.287 . S
C1741 C1742 1.524 . S
C1741 H1744 0.999 . S
C1742 H1712 0.950 . S
C1742 C1741 1.524 . S
C1742 C1743 1.415 . S
C1743 H1713 0.950 . S
C1743 C1738 1.363 . S
C1743 C1742 1.415 . S
H1744 C1741 0.999 . S
H1745 C1726 0.913 . S
H1746 C1764 0.951 . S
H1747 C1766 0.951 . S
H1748 C1768 0.950 . S
H1749 C1769 0.950 . S
H1750 C1771 0.950 . S
H1751 C1774 0.950 . S
H1752 C1775 0.950 . S
H1753 C1777 0.950 . S
H1754 C1778 0.950 . S
H1755 C1779 0.951 . S
H1756 C1781 0.951 . S
H1757 C1783 0.950 . S
H1758 C1784 0.950 . S
H1759 C1786 0.950 . S
H1760 C1789 0.950 . S
H1761 C1790 0.950 . S
H1762 C1792 0.950 . S
H1763 C1793 0.950 . S
C1764 H1746 0.951 . S
C1764 C1765 1.366 . S
C1764 C1766 1.388 . S
C1765 C1764 1.366 . S
C1765 C1769 1.385 . S
C1766 H1747 0.951 . S
C1766 C1764 1.388 . S
C1766 C1767 1.366 . S
C1767 C1766 1.366 . S
C1767 C1768 1.414 . S
C1767 C1770 1.499 . S
C1768 H1748 0.950 . S
C1768 C1767 1.414 . S
C1768 C1769 1.374 . S
C1769 H1749 0.950 . S
C1769 C1765 1.385 . S
C1769 C1768 1.374 . S
C1770 C1767 1.499 . S
C1770 C1771 1.373 . S
C1770 C1772 1.389 . S
C1771 H1750 0.950 . S
C1771 C1770 1.373 . S
C1771 C1787 1.377 . S
C1772 C1770 1.389 . S
C1772 C1773 1.524 . S
C1772 C1786 1.377 . S
C1773 C1772 1.524 . S
C1773 C1774 1.397 . S
C1773 C1778 1.363 . S
C1774 H1751 0.950 . S
C1774 C1773 1.397 . S
C1774 C1775 1.334 . S
C1775 H1752 0.950 . S
C1775 C1774 1.334 . S
C1775 C1776 1.287 . S
C1776 C1775 1.287 . S
C1776 C1777 1.524 . S
C1776 H1795 0.913 . S
C1777 H1753 0.950 . S
C1777 C1776 1.524 . S
C1777 C1778 1.415 . S
C1778 H1754 0.950 . S
C1778 C1773 1.363 . S
C1778 C1777 1.415 . S
C1779 H1755 0.951 . S
C1779 C1780 1.366 . S
C1779 C1781 1.388 . S
C1780 C1779 1.366 . S
C1780 C1784 1.385 . S
C1781 H1756 0.951 . S
C1781 C1779 1.388 . S
C1781 C1782 1.366 . S
C1782 C1781 1.366 . S
C1782 C1783 1.414 . S
C1782 C1785 1.499 . S
C1783 H1757 0.950 . S
C1783 C1782 1.414 . S
C1783 C1784 1.374 . S
C1784 H1758 0.950 . S
C1784 C1780 1.385 . S
C1784 C1783 1.374 . S
C1785 C1782 1.499 . S
C1785 C1786 1.373 . S
C1785 C1787 1.389 . S
C1786 H1759 0.950 . S
C1786 C1772 1.377 . S
C1786 C1785 1.373 . S
C1787 C1771 1.377 . S
C1787 C1785 1.389 . S
C1787 C1788 1.524 . S
C1788 C1787 1.524 . S
C1788 C1789 1.397 . S
C1788 C1793 1.363 . S
C1789 H1760 0.950 . S
C1789 C1788 1.397 . S
C1789 C1790 1.334 . S
C1790 H1761 0.950 . S
C1790 C1789 1.334 . S
C1790 C1791 1.287 . S
C1791 C1790 1.287 . S
C1791 C1792 1.524 . S
C1791 H1794 0.999 . S
C1792 H1762 0.950 . S
C1792 C1791 1.524 . S
C1792 C1793 1.415 . S
C1793 H1763 0.950 . S
C1793 C1788 1.363 . S
C1793 C1792 1.415 . S
H1794 C1791 0.999 . S
H1795 C1776 0.913 . S
H1796 C1814 0.951 . S
H1797 C1816 0.951 . S
H1798 C1818 0.950 . S
H1799 C1819 0.950 . S
H1800 C1821 0.950 . S
H1801 C1824 0.950 . S
H1802 C1825 0.950 . S
H1803 C1827 0.950 . S
H1804 C1828 0.950 . S
H1805 C1829 0.951 . S
H1806 C1831 0.951 . S
H1807 C1833 0.950 . S
H1808 C1834 0.950 . S
H1809 C1836 0.950 . S
H1810 C1839 0.950 . S
H1811 C1840 0.950 . S
H1812 C1842 0.950 . S
H1813 C1843 0.950 . S
C1814 H1796 0.951 . S
C1814 C1815 1.366 . S
C1814 C1816 1.388 . S
C1815 C1814 1.366 . S
C1815 C1819 1.385 . S
C1816 H1797 0.951 . S
C1816 C1814 1.388 . S
C1816 C1817 1.366 . S
C1817 C1816 1.366 . S
C1817 C1818 1.414 . S
C1817 C1820 1.499 . S
C1818 H1798 0.950 . S
C1818 C1817 1.414 . S
C1818 C1819 1.374 . S
C1819 H1799 0.950 . S
C1819 C1815 1.385 . S
C1819 C1818 1.374 . S
C1820 C1817 1.499 . S
C1820 C1821 1.373 . S
C1820 C1822 1.389 . S
C1821 H1800 0.950 . S
C1821 C1820 1.373 . S
C1821 C1837 1.377 . S
C1822 C1820 1.389 . S
C1822 C1823 1.524 . S
C1822 C1836 1.377 . S
C1823 C1822 1.524 . S
C1823 C1824 1.397 . S
C1823 C1828 1.363 . S
C1824 H1801 0.950 . S
C1824 C1823 1.397 . S
C1824 C1825 1.334 . S
C1825 H1802 0.950 . S
C1825 C1824 1.334 . S
C1825 C1826 1.287 . S
C1826 C1825 1.287 . S
C1826 C1827 1.524 . S
C1826 H1845 0.913 . S
C1827 H1803 0.950 . S
C1827 C1826 1.524 . S
C1827 C1828 1.415 . S
C1828 H1804 0.950 . S
C1828 C1823 1.363 . S
C1828 C1827 1.415 . S
C1829 H1805 0.951 . S
C1829 C1830 1.366 . S
C1829 C1831 1.388 . S
C1830 C1829 1.366 . S
C1830 C1834 1.385 . S
C1831 H1806 0.951 . S
C1831 C1829 1.388 . S
C1831 C1832 1.366 . S
C1832 C1831 1.366 . S
C1832 C1833 1.414 . S
C1832 C1835 1.499 . S
C1833 H1807 0.950 . S
C1833 C1832 1.414 . S
C1833 C1834 1.374 . S
C1834 H1808 0.950 . S
C1834 C1830 1.385 . S
C1834 C1833 1.374 . S
C1835 C1832 1.499 . S
C1835 C1836 1.373 . S
C1835 C1837 1.389 . S
C1836 H1809 0.950 . S
C1836 C1822 1.377 . S
C1836 C1835 1.373 . S
C1837 C1821 1.377 . S
C1837 C1835 1.389 . S
C1837 C1838 1.524 . S
C1838 C1837 1.524 . S
C1838 C1839 1.397 . S
C1838 C1843 1.363 . S
C1839 H1810 0.950 . S
C1839 C1838 1.397 . S
C1839 C1840 1.334 . S
C1840 H1811 0.950 . S
C1840 C1839 1.334 . S
C1840 C1841 1.287 . S
C1841 C1840 1.287 . S
C1841 C1842 1.524 . S
C1841 H1844 0.999 . S
C1842 H1812 0.950 . S
C1842 C1841 1.524 . S
C1842 C1843 1.415 . S
C1843 H1813 0.950 . S
C1843 C1838 1.363 . S
C1843 C1842 1.415 . S
H1844 C1841 0.999 . S
H1845 C1826 0.913 . S
H1846 C1864 0.951 1_554 S
H1847 C1866 0.951 . S
H1848 C1868 0.950 . S
H1849 C1869 0.950 . S
H1850 C1871 0.950 . S
H1851 C1874 0.950 . S
H1852 C1875 0.950 . S
H1853 C1877 0.950 . S
H1854 C1878 0.950 1_554 S
H1855 C1879 0.936 1_556 S
H1856 C1881 0.951 . S
H1857 C1883 0.950 . S
H1858 C1884 0.950 . S
H1859 C1886 0.950 . S
H1860 C1889 0.950 . S
H1861 C1890 0.950 . S
H1862 C1892 0.950 . S
H1863 C1893 0.950 1_556 S
C1864 H1846 0.951 1_556 S
C1864 C1865 1.366 . S
C1864 C1866 1.388 1_556 S
C1865 C1864 1.366 . S
C1865 C1869 1.385 . S
C1866 H1847 0.951 . S
C1866 C1864 1.388 1_554 S
C1866 C1867 1.366 1_554 S
C1867 C1866 1.366 1_556 S
C1867 C1868 1.414 . S
C1867 C1870 1.499 . S
C1868 H1848 0.950 . S
C1868 C1867 1.414 . S
C1868 C1869 1.374 . S
C1869 H1849 0.950 . S
C1869 C1865 1.385 . S
C1869 C1868 1.374 . S
C1870 C1867 1.499 . S
C1870 C1871 1.373 1_556 S
C1870 C1872 1.389 . S
C1871 H1850 0.950 . S
C1871 C1870 1.373 1_554 S
C1871 C1887 1.377 . S
C1872 C1870 1.389 . S
C1872 C1873 1.524 . S
C1872 C1886 1.377 . S
C1873 C1872 1.524 . S
C1873 C1874 1.397 . S
C1873 C1878 1.363 . S
C1874 H1851 0.950 . S
C1874 C1873 1.397 . S
C1874 C1875 1.334 . S
C1875 H1852 0.950 . S
C1875 C1874 1.334 . S
C1875 C1876 1.287 . S
C1876 C1875 1.287 . S
C1876 C1877 1.524 . S
C1876 H1895 0.913 . S
C1877 H1853 0.950 . S
C1877 C1876 1.524 . S
C1877 C1878 1.415 . S
C1878 H1854 0.950 1_556 S
C1878 C1873 1.363 . S
C1878 C1877 1.415 . S
C1879 H1855 0.936 1_554 S
C1879 C1880 1.385 . S
C1879 C1881 1.384 1_554 S
C1880 C1879 1.385 . S
C1880 C1884 1.385 . S
C1881 H1856 0.951 . S
C1881 C1879 1.384 1_556 S
C1881 C1882 1.366 1_556 S
C1882 C1881 1.366 1_554 S
C1882 C1883 1.414 . S
C1882 C1885 1.499 . S
C1883 H1857 0.950 . S
C1883 C1882 1.414 . S
C1883 C1884 1.374 . S
C1884 H1858 0.950 . S
C1884 C1880 1.385 . S
C1884 C1883 1.374 . S
C1885 C1882 1.499 . S
C1885 C1886 1.373 1_554 S
C1885 C1887 1.389 . S
C1886 H1859 0.950 . S
C1886 C1872 1.377 . S
C1886 C1885 1.373 1_556 S
C1887 C1871 1.377 . S
C1887 C1885 1.389 . S
C1887 C1888 1.524 . S
C1888 C1887 1.524 . S
C1888 C1889 1.397 . S
C1888 C1893 1.363 . S
C1889 H1860 0.950 . S
C1889 C1888 1.397 . S
C1889 C1890 1.334 . S
C1890 H1861 0.950 . S
C1890 C1889 1.334 . S
C1890 C1891 1.287 . S
C1891 C1890 1.287 . S
C1891 C1892 1.524 . S
C1891 H1894 0.999 . S
C1892 H1862 0.950 . S
C1892 C1891 1.524 . S
C1892 C1893 1.415 . S
C1893 H1863 0.950 1_554 S
C1893 C1888 1.363 . S
C1893 C1892 1.415 . S
H1894 C1891 0.999 . S
H1895 C1876 0.913 . S
C415 C381 1.946 . S
C430 C18 1.941 . S
C465 C216 2.039 . S
C480 C51 2.039 . S
C515 C84 1.945 . S
C530 C249 1.942 . S
C565 C282 1.946 . S
C580 C117 1.941 . S
C615 C315 2.039 . S
C630 C150 2.039 . S
C665 C348 1.945 . S
C680 C183 1.942 . S
C715 C7 0.489 . S
C730 C337 0.491 . S
C765 C40 0.457 . S
C780 C370 0.459 . S
C815 C205 0.455 . S
C830 C73 0.460 . S
C865 C238 0.491 . S
C880 C106 0.490 . S
C915 C271 0.459 . S
C930 C139 0.460 . S
C965 C172 0.461 . S
C980 C304 0.461 . S
C1015 N112 1.253 . S
C1030 N13 1.254 . S
C1065 N46 1.262 . S
C1080 N145 1.261 . S
C1115 N178 1.264 . S
C1130 N79 1.263 . S
C1165 N211 1.262 . S
C1180 N310 1.262 . S
C1215 N244 1.254 . S
C1230 N343 1.253 . S
C1265 N376 1.263 . S
C1280 N277 1.263 . S
C1315 N2 0.822 . S
C1330 N299 0.823 . S
C1365 N35 0.821 . S
C1380 N332 0.821 . S
C1415 N365 0.801 . S
C1430 N68 0.805 . S
C1465 N101 0.821 . S
C1480 N200 0.821 . S
C1515 N134 0.821 . S
C1530 N233 0.821 . S
C1565 N167 0.800 . S
C1580 N266 0.804 . S
C1615 C219 1.669 . S
C1630 C21 1.668 . S
C1665 C252 1.668 . S
C1680 C54 1.669 . S
C1715 C87 1.651 . S
C1730 C285 1.651 . S
C1765 C318 1.669 . S
C1780 C120 1.668 . S
C1815 C153 1.668 . S
C1830 C351 1.668 . S
C1865 C186 1.651 . S
C1880 C384 1.651 . S
