# Generated by pormake.
# Topology zfw, (5)-cn, num edge types: 1
# Building blocks:
#     Node 0, Type 0, BuildingBlock: XOMCOT_clean_sbu_0, # of connection points: 5
#     Node 1, Type 0, BuildingBlock: XOMCOT_clean_sbu_0, # of connection points: 5
#     Node 2, Type 0, BuildingBlock: XOMCOT_clean_sbu_0, # of connection points: 5
#     Node 3, Type 0, BuildingBlock: XOMCOT_clean_sbu_0, # of connection points: 5
#     Node 4, Type 0, BuildingBlock: XOMCOT_clean_sbu_0, # of connection points: 5
#     Node 5, Type 0, BuildingBlock: XOMCOT_clean_sbu_0, # of connection points: 5
#     Node 6, Type 0, BuildingBlock: XOMCOT_clean_sbu_0, # of connection points: 5
#     Node 7, Type 0, BuildingBlock: XOMCOT_clean_sbu_0, # of connection points: 5
#     Node 8, Type 0, BuildingBlock: XOMCOT_clean_sbu_0, # of connection points: 5
#     Node 9, Type 0, BuildingBlock: XOMCOT_clean_sbu_0, # of connection points: 5
#     Node 10, Type 0, BuildingBlock: XOMCOT_clean_sbu_0, # of connection points: 5
#     Node 11, Type 0, BuildingBlock: XOMCOT_clean_sbu_0, # of connection points: 5
#     Node 12, Type 0, BuildingBlock: XOMCOT_clean_sbu_0, # of connection points: 5
#     Node 13, Type 0, BuildingBlock: XOMCOT_clean_sbu_0, # of connection points: 5
#     Node 14, Type 0, BuildingBlock: XOMCOT_clean_sbu_0, # of connection points: 5
#     Node 15, Type 0, BuildingBlock: XOMCOT_clean_sbu_0, # of connection points: 5
#     Edge 16, Type (0, 0), BuildingBlock: MIFKUJ_clean_linker_0, # of connection points: 2
#     Edge 17, Type (0, 0), BuildingBlock: MIFKUJ_clean_linker_0, # of connection points: 2
#     Edge 18, Type (0, 0), BuildingBlock: MIFKUJ_clean_linker_0, # of connection points: 2
#     Edge 19, Type (0, 0), BuildingBlock: MIFKUJ_clean_linker_0, # of connection points: 2
#     Edge 20, Type (0, 0), BuildingBlock: MIFKUJ_clean_linker_0, # of connection points: 2
#     Edge 21, Type (0, 0), BuildingBlock: MIFKUJ_clean_linker_0, # of connection points: 2
#     Edge 22, Type (0, 0), BuildingBlock: MIFKUJ_clean_linker_0, # of connection points: 2
#     Edge 23, Type (0, 0), BuildingBlock: MIFKUJ_clean_linker_0, # of connection points: 2
#     Edge 24, Type (0, 0), BuildingBlock: MIFKUJ_clean_linker_0, # of connection points: 2
#     Edge 25, Type (0, 0), BuildingBlock: MIFKUJ_clean_linker_0, # of connection points: 2
#     Edge 26, Type (0, 0), BuildingBlock: MIFKUJ_clean_linker_0, # of connection points: 2
#     Edge 27, Type (0, 0), BuildingBlock: MIFKUJ_clean_linker_0, # of connection points: 2
#     Edge 28, Type (0, 0), BuildingBlock: MIFKUJ_clean_linker_0, # of connection points: 2
#     Edge 29, Type (0, 0), BuildingBlock: MIFKUJ_clean_linker_0, # of connection points: 2
#     Edge 30, Type (0, 0), BuildingBlock: MIFKUJ_clean_linker_0, # of connection points: 2
#     Edge 31, Type (0, 0), BuildingBlock: MIFKUJ_clean_linker_0, # of connection points: 2
#     Edge 32, Type (0, 0), BuildingBlock: MIFKUJ_clean_linker_0, # of connection points: 2
#     Edge 33, Type (0, 0), BuildingBlock: MIFKUJ_clean_linker_0, # of connection points: 2
#     Edge 34, Type (0, 0), BuildingBlock: MIFKUJ_clean_linker_0, # of connection points: 2
#     Edge 35, Type (0, 0), BuildingBlock: MIFKUJ_clean_linker_0, # of connection points: 2
#     Edge 36, Type (0, 0), BuildingBlock: MIFKUJ_clean_linker_0, # of connection points: 2
#     Edge 37, Type (0, 0), BuildingBlock: MIFKUJ_clean_linker_0, # of connection points: 2
#     Edge 38, Type (0, 0), BuildingBlock: MIFKUJ_clean_linker_0, # of connection points: 2
#     Edge 39, Type (0, 0), BuildingBlock: MIFKUJ_clean_linker_0, # of connection points: 2
#     Edge 40, Type (0, 0), BuildingBlock: MIFKUJ_clean_linker_0, # of connection points: 2
#     Edge 41, Type (0, 0), BuildingBlock: MIFKUJ_clean_linker_0, # of connection points: 2
#     Edge 42, Type (0, 0), BuildingBlock: MIFKUJ_clean_linker_0, # of connection points: 2
#     Edge 43, Type (0, 0), BuildingBlock: MIFKUJ_clean_linker_0, # of connection points: 2
#     Edge 44, Type (0, 0), BuildingBlock: MIFKUJ_clean_linker_0, # of connection points: 2
#     Edge 45, Type (0, 0), BuildingBlock: MIFKUJ_clean_linker_0, # of connection points: 2
#     Edge 46, Type (0, 0), BuildingBlock: MIFKUJ_clean_linker_0, # of connection points: 2
#     Edge 47, Type (0, 0), BuildingBlock: MIFKUJ_clean_linker_0, # of connection points: 2
#     Edge 48, Type (0, 0), BuildingBlock: MIFKUJ_clean_linker_0, # of connection points: 2
#     Edge 49, Type (0, 0), BuildingBlock: MIFKUJ_clean_linker_0, # of connection points: 2
#     Edge 50, Type (0, 0), BuildingBlock: MIFKUJ_clean_linker_0, # of connection points: 2
#     Edge 51, Type (0, 0), BuildingBlock: MIFKUJ_clean_linker_0, # of connection points: 2
#     Edge 52, Type (0, 0), BuildingBlock: MIFKUJ_clean_linker_0, # of connection points: 2
#     Edge 53, Type (0, 0), BuildingBlock: MIFKUJ_clean_linker_0, # of connection points: 2
#     Edge 54, Type (0, 0), BuildingBlock: MIFKUJ_clean_linker_0, # of connection points: 2
#     Edge 55, Type (0, 0), BuildingBlock: MIFKUJ_clean_linker_0, # of connection points: 2
# Relax obj value: 0.248
# Max RMSD: 0.215
# Mean RMSD: 0.199
data_MOF--net-zfw--node1-XOMCOT_clean_sbu_0--edge1-MIFKUJ_clean_linker_0
_symmetry_space_group_name_H-M    P1
_symmetry_Int_Tables_number       1
_symmetry_cell_setting            triclinic
loop_
_symmetry_equiv_pos_as_xyz
'x, y, z'
_cell_length_a     88.817869
_cell_length_b     87.859982
_cell_length_c     21.288066
_cell_angle_alpha  89.994559
_cell_angle_beta   89.968619
_cell_angle_gamma 89.99553
loop_
_atom_site_label
_atom_site_type_symbol
_atom_site_fract_x
_atom_site_fract_y
_atom_site_fract_z
_atom_type_partial_charge
Co0 Co 0.08503 0.08939 0.28898 0.0
C1 C 0.08236 0.07952 0.42226 0.0
C2 C 0.09508 0.06385 0.36647 0.0
C3 C 0.0956 0.0591 0.42806 0.0
N4 N 0.08662 0.07659 0.36273 0.0
N5 N 0.08755 0.06899 0.46284 0.0
H6 H 0.07662 0.08968 0.43709 0.0
H7 H 0.101 0.05875 0.32738 0.0
C8 C 0.07356 0.05878 0.24644 0.0
O9 O 0.06634 0.05716 0.29992 0.0
N10 N 0.08399 0.10174 0.21459 0.0
C11 C 0.0765 0.11487 0.20504 0.0
C12 C 0.07659 0.11797 0.14142 0.0
C13 C 0.08882 0.09725 0.15772 0.0
N14 N 0.08434 0.10683 0.11205 0.0
C15 C 0.06006 0.10356 0.34989 0.0
C16 C 0.03794 0.09467 0.2665 0.0
C17 C 0.0344 0.10513 0.31385 0.0
C18 C 0.04558 0.10937 0.35628 0.0
C19 C 0.05271 0.08903 0.26171 0.0
N20 N 0.0636 0.09336 0.30366 0.0
H21 H 0.06863 0.10826 0.37983 0.0
H22 H 0.0555 0.08214 0.22148 0.0
H23 H 0.07068 0.12126 0.24104 0.0
H24 H 0.09458 0.08659 0.14942 0.0
O25 O 0.09318 0.10626 0.33563 0.0
O26 O 0.10692 0.08954 0.28311 0.0
O27 O 0.08099 0.07093 0.23515 0.0
C28 C 0.10642 0.10159 0.31873 0.0
H29 H 0.10183 0.04946 0.4461 0.0
H30 H 0.07091 0.12733 0.11837 0.0
H31 H 0.02965 0.0916 0.23142 0.0
H32 H 0.04334 0.11784 0.39214 0.0
Co33 Co 0.22877 0.76745 0.52494 0.0
C34 C 0.23841 0.76676 0.65968 0.0
C35 C 0.25261 0.78061 0.60186 0.0
C36 C 0.2573 0.78205 0.66317 0.0
N37 N 0.24079 0.77098 0.59955 0.0
N38 N 0.24836 0.77328 0.69923 0.0
H39 H 0.2292 0.75984 0.67561 0.0
H40 H 0.25721 0.78657 0.56174 0.0
C41 C 0.25956 0.7552 0.49199 0.0
O42 O 0.26146 0.75038 0.54985 0.0
N43 N 0.21731 0.76461 0.4495 0.0
C44 C 0.20454 0.75669 0.43965 0.0
C45 C 0.20159 0.75669 0.37591 0.0
C46 C 0.22176 0.76955 0.39282 0.0
N47 N 0.21245 0.76486 0.34701 0.0
C48 C 0.21397 0.74414 0.5942 0.0
C49 C 0.22321 0.71955 0.52325 0.0
C50 C 0.21218 0.71738 0.56961 0.0
C51 C 0.20797 0.72985 0.60638 0.0
C52 C 0.22913 0.73419 0.51281 0.0
N53 N 0.22451 0.74633 0.54835 0.0
H54 H 0.2094 0.75361 0.62004 0.0
H55 H 0.23655 0.73581 0.47327 0.0
H56 H 0.19813 0.75091 0.47568 0.0
H57 H 0.23208 0.77584 0.38497 0.0
O58 O 0.21158 0.77686 0.56407 0.0
O59 O 0.22882 0.78936 0.50959 0.0
O60 O 0.24738 0.76181 0.4757 0.0
C61 C 0.21632 0.7897 0.54162 0.0
H62 H 0.26632 0.78924 0.6801 0.0
H63 H 0.1924 0.75093 0.35255 0.0
H64 H 0.22656 0.71024 0.49294 0.0
H65 H 0.19952 0.72874 0.64287 0.0
Co66 Co 0.55398 0.9085 0.76353 0.0
C67 C 0.5574 0.91722 0.89727 0.0
C68 C 0.54741 0.93502 0.84287 0.0
C69 C 0.5478 0.93959 0.90474 0.0
N70 N 0.55374 0.9211 0.83807 0.0
N71 N 0.55415 0.92835 0.93867 0.0
H72 H 0.56119 0.90612 0.91119 0.0
H73 H 0.54236 0.94121 0.80435 0.0
C74 C 0.56723 0.93829 0.71932 0.0
O75 O 0.57582 0.93872 0.76953 0.0
N76 N 0.55376 0.89632 0.68881 0.0
C77 C 0.55872 0.88198 0.68044 0.0
C78 C 0.55784 0.87858 0.61722 0.0
C79 C 0.54973 0.90133 0.63175 0.0
N80 N 0.55223 0.89083 0.58682 0.0
C81 C 0.57872 0.89327 0.821 0.0
C82 C 0.6008 0.9012 0.73575 0.0
C83 C 0.60429 0.89094 0.78408 0.0
C84 C 0.59307 0.88722 0.82738 0.0
C85 C 0.5861 0.90707 0.73097 0.0
N86 N 0.5753 0.90339 0.77441 0.0
H87 H 0.57017 0.88889 0.85175 0.0
H88 H 0.58331 0.91383 0.69034 0.0
H89 H 0.56317 0.87476 0.71717 0.0
H90 H 0.54579 0.91276 0.62301 0.0
O91 O 0.54552 0.89178 0.81007 0.0
O92 O 0.53203 0.90937 0.76171 0.0
O93 O 0.5584 0.92703 0.71022 0.0
C94 C 0.53233 0.89699 0.79547 0.0
H95 H 0.54336 0.95013 0.92341 0.0
H96 H 0.56146 0.86808 0.59534 0.0
H97 H 0.60909 0.904 0.70026 0.0
H98 H 0.59521 0.87916 0.86489 0.0
Co99 Co 0.41127 0.23498 0.99249 0.0
C100 C 0.40164 0.23891 0.12508 0.0
C101 C 0.38634 0.22504 0.07268 0.0
C102 C 0.38153 0.2255 0.13423 0.0
N103 N 0.39893 0.23353 0.06706 0.0
N104 N 0.39117 0.23433 0.16665 0.0
H105 H 0.41149 0.24521 0.1385 0.0
H106 H 0.38127 0.21859 0.03494 0.0
C107 C 0.38137 0.24834 0.95541 0.0
O108 O 0.38098 0.25602 0.00835 0.0
N109 N 0.42316 0.23604 0.91733 0.0
C110 C 0.43705 0.2419 0.90938 0.0
C111 C 0.43982 0.24306 0.84569 0.0
C112 C 0.41782 0.23346 0.85938 0.0
N113 N 0.42758 0.23792 0.81465 0.0
C114 C 0.42696 0.25903 0.05404 0.0
C115 C 0.41779 0.28276 0.97821 0.0
C116 C 0.42849 0.28556 0.02527 0.0
C117 C 0.43284 0.27347 0.06387 0.0
C118 C 0.41207 0.26797 0.97001 0.0
N119 N 0.41635 0.25633 0.00897 0.0
H120 H 0.4315 0.24989 0.08189 0.0
H121 H 0.40488 0.26583 0.93016 0.0
H122 H 0.44423 0.24591 0.94689 0.0
H123 H 0.4067 0.22897 0.85016 0.0
O124 O 0.42779 0.2256 0.03674 0.0
O125 O 0.41036 0.21293 0.98397 0.0
O126 O 0.39279 0.24015 0.94178 0.0
C127 C 0.42243 0.21259 0.01866 0.0
H128 H 0.37197 0.21952 0.15389 0.0
H129 H 0.44961 0.24821 0.82411 0.0
H130 H 0.41445 0.29172 0.94615 0.0
H131 H 0.44113 0.27504 0.10064 0.0
Co132 Co 0.08413 0.91127 0.72978 0.0
C133 C 0.08292 0.92155 0.59644 0.0
C134 C 0.09683 0.9357 0.65419 0.0
C135 C 0.09832 0.94044 0.59294 0.0
N136 N 0.08711 0.9239 0.65645 0.0
N137 N 0.0895 0.93153 0.55708 0.0
H138 H 0.07621 0.91215 0.58033 0.0
H139 H 0.10298 0.94009 0.69414 0.0
C140 C 0.07348 0.94251 0.7686 0.0
O141 O 0.06789 0.94477 0.71225 0.0
N142 N 0.08194 0.89923 0.80433 0.0
C143 C 0.07277 0.88744 0.81745 0.0
C144 C 0.07312 0.88498 0.88163 0.0
C145 C 0.08794 0.90347 0.85929 0.0
N146 N 0.08256 0.89527 0.90772 0.0
C147 C 0.05953 0.89808 0.663 0.0
C148 C 0.03638 0.90907 0.73663 0.0
C149 C 0.03294 0.89938 0.68622 0.0
C150 C 0.04479 0.89392 0.64935 0.0
C151 C 0.05142 0.91321 0.74813 0.0
N152 N 0.06281 0.90802 0.7104 0.0
H153 H 0.06836 0.89275 0.6362 0.0
H154 H 0.05384 0.91994 0.78926 0.0
H155 H 0.06563 0.88172 0.78378 0.0
H156 H 0.09555 0.91302 0.86356 0.0
O157 O 0.09231 0.894 0.68576 0.0
O158 O 0.10595 0.91047 0.73973 0.0
O159 O 0.07987 0.92992 0.78244 0.0
C160 C 0.10551 0.89831 0.70479 0.0
H161 H 0.10575 0.94928 0.57572 0.0
H162 H 0.06619 0.87699 0.90727 0.0
H163 H 0.02758 0.9132 0.76748 0.0
H164 H 0.04279 0.88586 0.61175 0.0
Co165 Co 0.40846 0.76591 0.99041 0.0
C166 C 0.40217 0.77135 0.85628 0.0
C167 C 0.3819 0.77239 0.91013 0.0
C168 C 0.37854 0.77609 0.84888 0.0
N169 N 0.39669 0.76887 0.91445 0.0
N170 N 0.39137 0.77551 0.81546 0.0
H171 H 0.41395 0.77062 0.84404 0.0
H172 H 0.37412 0.77318 0.94891 0.0
C173 C 0.37912 0.75218 0.03434 0.0
O174 O 0.37963 0.74234 0.98791 0.0
N175 N 0.4199 0.76375 0.06637 0.0
C176 C 0.43403 0.75846 0.07419 0.0
C177 C 0.43712 0.7581 0.1378 0.0
C178 C 0.41469 0.76672 0.12418 0.0
N179 N 0.42482 0.76315 0.16863 0.0
C180 C 0.4172 0.73991 0.91702 0.0
C181 C 0.41518 0.71866 0.01233 0.0
C182 C 0.42125 0.71427 0.95433 0.0
C183 C 0.42191 0.72502 0.90602 0.0
C184 C 0.41018 0.73366 0.02091 0.0
N185 N 0.41133 0.74418 0.97362 0.0
H186 H 0.41928 0.74812 0.88092 0.0
H187 H 0.40605 0.737 0.06664 0.0
H188 H 0.44135 0.75473 0.03659 0.0
H189 H 0.40361 0.77129 0.13374 0.0
O190 O 0.42628 0.77334 0.94896 0.0
O191 O 0.4097 0.7879 -0.00138 0.0
O192 O 0.38941 0.76225 0.04026 0.0
C193 C 0.42219 0.78689 0.96659 0.0
H194 H 0.36767 0.77956 0.83092 0.0
H195 H 0.44732 0.75397 0.1597 0.0
H196 H 0.41468 0.71071 0.05115 0.0
H197 H 0.427 0.72222 0.8612 0.0
Co198 Co 0.55196 0.09044 0.22228 0.0
C199 C 0.55426 0.08103 0.08851 0.0
C200 C 0.54243 0.06466 0.14425 0.0
C201 C 0.54178 0.06015 0.08226 0.0
N202 N 0.55042 0.07769 0.14821 0.0
N203 N 0.54929 0.07048 0.04755 0.0
H204 H 0.55952 0.09146 0.07388 0.0
H205 H 0.53691 0.05916 0.18346 0.0
C206 C 0.5649 0.06022 0.26357 0.0
O207 O 0.57181 0.05881 0.20931 0.0
N208 N 0.55301 0.10282 0.29665 0.0
C209 C 0.5598 0.11637 0.30505 0.0
C210 C 0.55921 0.11996 0.36819 0.0
C211 C 0.54815 0.0985 0.35376 0.0
N212 N 0.55186 0.10869 0.39844 0.0
C213 C 0.57568 0.10581 0.1576 0.0
C214 C 0.59955 0.09574 0.22923 0.0
C215 C 0.60238 0.10577 0.17917 0.0
C216 C 0.59013 0.11085 0.14371 0.0
C217 C 0.58476 0.09084 0.24137 0.0
N218 N 0.57304 0.09542 0.2041 0.0
H219 H 0.56653 0.11079 0.13158 0.0
H220 H 0.58279 0.08387 0.28224 0.0
H221 H 0.56528 0.12289 0.26851 0.0
H222 H 0.54272 0.0877 0.3629 0.0
O223 O 0.54253 0.10691 0.17692 0.0
O224 O 0.53019 0.08945 0.23162 0.0
O225 O 0.55722 0.07217 0.2756 0.0
C226 C 0.52976 0.10149 0.19606 0.0
H227 H 0.53583 0.05036 0.06398 0.0
H228 H 0.56415 0.12987 0.39031 0.0
H229 H 0.60862 0.09188 0.25925 0.0
H230 H 0.59156 0.11922 0.10682 0.0
Co231 Co 0.23114 0.23463 0.46729 0.0
C232 C 0.2375 0.22927 0.33297 0.0
C233 C 0.25783 0.22858 0.38642 0.0
C234 C 0.2612 0.22493 0.32497 0.0
N235 N 0.243 0.23189 0.39107 0.0
N236 N 0.24831 0.22526 0.29192 0.0
H237 H 0.22571 0.22946 0.32098 0.0
H238 H 0.26561 0.22788 0.42524 0.0
C239 C 0.26009 0.25012 0.50632 0.0
O240 O 0.26021 0.25808 0.45408 0.0
N241 N 0.2196 0.2366 0.54319 0.0
C242 C 0.2051 0.24074 0.55085 0.0
C243 C 0.20175 0.24025 0.61431 0.0
C244 C 0.22481 0.23355 0.60096 0.0
N245 N 0.21427 0.23587 0.64524 0.0
C246 C 0.21887 0.25874 0.39314 0.0
C247 C 0.22178 0.28157 0.48154 0.0
C248 C 0.21336 0.28438 0.42702 0.0
C249 C 0.21243 0.27289 0.38173 0.0
C250 C 0.22821 0.26714 0.49101 0.0
N251 N 0.22661 0.25584 0.44716 0.0
H252 H 0.21652 0.24984 0.36023 0.0
H253 H 0.23358 0.26478 0.53549 0.0
H254 H 0.19756 0.24394 0.51318 0.0
H255 H 0.23607 0.22946 0.61049 0.0
O256 O 0.21407 0.22541 0.4269 0.0
O257 O 0.23156 0.2127 0.47968 0.0
O258 O 0.24971 0.24037 0.51671 0.0
C259 C 0.21917 0.21242 0.44682 0.0
H260 H 0.27207 0.22152 0.30675 0.0
H261 H 0.19111 0.24316 0.63606 0.0
H262 H 0.22257 0.29007 0.51821 0.0
H263 H 0.20606 0.27455 0.33888 0.0
Co264 Co 0.90785 0.26969 0.46285 0.0
C265 C 0.90064 0.27394 0.32848 0.0
C266 C 0.88035 0.27093 0.38093 0.0
C267 C 0.87664 0.27305 0.31856 0.0
N268 N 0.89551 0.27095 0.38695 0.0
N269 N 0.88948 0.275 0.28606 0.0
H270 H 0.91239 0.27522 0.31644 0.0
H271 H 0.87233 0.27003 0.41873 0.0
C272 C 0.88013 0.25398 0.51581 0.0
O273 O 0.88121 0.24337 0.47254 0.0
N274 N 0.92005 0.26906 0.53767 0.0
C275 C 0.93503 0.26669 0.54207 0.0
C276 C 0.93901 0.26679 0.60478 0.0
C277 C 0.91515 0.27061 0.59704 0.0
N278 N 0.92642 0.26913 0.63867 0.0
C279 C 0.91819 0.24428 0.39115 0.0
C280 C 0.91918 0.22333 0.48782 0.0
C281 C 0.92563 0.21952 0.42967 0.0
C282 C 0.92456 0.23005 0.38061 0.0
C283 C 0.9127 0.23779 0.49632 0.0
N284 N 0.91237 0.24817 0.44826 0.0
H285 H 0.91899 0.25245 0.35399 0.0
H286 H 0.90861 0.24088 0.5424 0.0
H287 H 0.94246 0.2647 0.50266 0.0
H288 H 0.90355 0.27263 0.61007 0.0
O289 O 0.92474 0.27802 0.41804 0.0
O290 O 0.90759 0.29183 0.46767 0.0
O291 O 0.88939 0.26514 0.5161 0.0
C292 C 0.91986 0.29141 0.43394 0.0
H293 H 0.86541 0.27347 0.2989 0.0
H294 H 0.9501 0.26474 0.62406 0.0
H295 H 0.91989 0.21559 0.52728 0.0
H296 H 0.92928 0.22761 0.33476 0.0
Co297 Co 0.72646 0.73351 0.01041 0.0
C298 C 0.73216 0.7271 0.87641 0.0
C299 C 0.75233 0.72459 0.93004 0.0
C300 C 0.75546 0.72091 0.86847 0.0
N301 N 0.73781 0.7291 0.93455 0.0
N302 N 0.74267 0.72242 0.8353 0.0
H303 H 0.72046 0.72847 0.86416 0.0
H304 H 0.76005 0.72336 0.96884 0.0
C305 C 0.75676 0.74682 0.04601 0.0
O306 O 0.75709 0.75471 0.99356 0.0
N307 N 0.71533 0.7373 0.08605 0.0
C308 C 0.70134 0.74304 0.09265 0.0
C309 C 0.69822 0.74423 0.15606 0.0
C310 C 0.72047 0.73499 0.14446 0.0
N311 N 0.71038 0.7393 0.188 0.0
C312 C 0.71518 0.75764 0.93394 0.0
C313 C 0.72167 0.78135 0.01475 0.0
C314 C 0.71292 0.78416 0.96128 0.0
C315 C 0.70998 0.77218 0.92009 0.0
C316 C 0.72669 0.76648 0.02706 0.0
N317 N 0.72348 0.75479 0.98658 0.0
H318 H 0.71135 0.74854 0.90459 0.0
H319 H 0.73228 0.76424 0.07114 0.0
H320 H 0.69407 0.74633 0.05423 0.0
H321 H 0.73135 0.73012 0.15509 0.0
O322 O 0.7085 0.72525 0.97305 0.0
O323 O 0.72536 0.71176 0.02602 0.0
O324 O 0.74566 0.73803 0.05791 0.0
C325 C 0.71276 0.71212 0.99467 0.0
H326 H 0.76613 0.717 0.84991 0.0
H327 H 0.68802 0.74869 0.17702 0.0
H328 H 0.72377 0.7903 0.0486 0.0
H329 H 0.70292 0.77388 0.87916 0.0
Co330 Co 0.72383 0.26842 0.98475 0.0
C331 C 0.73246 0.26698 0.11953 0.0
C332 C 0.7495 0.27743 0.06309 0.0
C333 C 0.75382 0.27836 0.12516 0.0
N334 N 0.73619 0.27005 0.05949 0.0
N335 N 0.74307 0.2717 0.16031 0.0
H336 H 0.72176 0.26255 0.1344 0.0
H337 H 0.75536 0.28237 0.02349 0.0
C338 C 0.75359 0.25522 0.9445 0.0
O339 O 0.75407 0.24749 0.99733 0.0
N340 N 0.71185 0.26737 0.90995 0.0
C341 C 0.69822 0.26095 0.90159 0.0
C342 C 0.69458 0.26192 0.83868 0.0
C343 C 0.71618 0.27236 0.85316 0.0
N344 N 0.70591 0.26914 0.80862 0.0
C345 C 0.70975 0.24373 0.04921 0.0
C346 C 0.71901 0.22033 0.97189 0.0
C347 C 0.71004 0.21693 0.02438 0.0
C348 C 0.70533 0.22892 0.0627 0.0
C349 C 0.72347 0.23546 0.96067 0.0
N350 N 0.71937 0.24691 0.0009 0.0
H351 H 0.70477 0.25268 0.07661 0.0
H352 H 0.72972 0.23795 0.91844 0.0
H353 H 0.69164 0.25558 0.93815 0.0
H354 H 0.72697 0.27765 0.84422 0.0
O355 O 0.70704 0.27717 0.02912 0.0
O356 O 0.72419 0.29056 0.97791 0.0
O357 O 0.74228 0.26371 0.93238 0.0
C358 C 0.71198 0.29042 0.01191 0.0
H359 H 0.76382 0.28389 0.14311 0.0
H360 H 0.68454 0.25743 0.81662 0.0
H361 H 0.72242 0.21145 0.93963 0.0
H362 H 0.69768 0.22697 0.10156 0.0
Co363 Co 0.90807 0.73836 0.54297 0.0
C364 C 0.89868 0.74043 0.67664 0.0
C365 C 0.88337 0.7271 0.62197 0.0
C366 C 0.87909 0.72622 0.68411 0.0
N367 N 0.89555 0.73621 0.61717 0.0
N368 N 0.88877 0.73464 0.71829 0.0
H369 H 0.90864 0.74649 0.69053 0.0
H370 H 0.87836 0.72096 0.58323 0.0
C371 C 0.87725 0.74871 0.50141 0.0
O372 O 0.87494 0.75492 0.55667 0.0
N373 N 0.92034 0.73993 0.46892 0.0
C374 C 0.9336 0.74714 0.46122 0.0
C375 C 0.93739 0.74659 0.39833 0.0
C376 C 0.91639 0.73489 0.41169 0.0
N377 N 0.92653 0.73885 0.36756 0.0
C378 C 0.92144 0.76384 0.60477 0.0
C379 C 0.91065 0.78644 0.5269 0.0
C380 C 0.92057 0.7904 0.57557 0.0
C381 C 0.9259 0.77881 0.6147 0.0
C382 C 0.9063 0.77118 0.51893 0.0
N383 N 0.9114 0.76007 0.55872 0.0
H384 H 0.92681 0.7552 0.63271 0.0
H385 H 0.8995 0.76834 0.47869 0.0
H386 H 0.93979 0.75282 0.49813 0.0
H387 H 0.90588 0.7291 0.40206 0.0
O388 O 0.92494 0.73039 0.58939 0.0
O389 O 0.90877 0.71625 0.5361 0.0
O390 O 0.88974 0.7422 0.48873 0.0
C391 C 0.92063 0.71694 0.572 0.0
H392 H 0.86994 0.71947 0.70282 0.0
H393 H 0.94717 0.75177 0.37676 0.0
H394 H 0.90657 0.79497 0.49437 0.0
H395 H 0.93416 0.78112 0.65087 0.0
Co396 Co 0.58275 0.59022 0.77779 0.0
C397 C 0.58631 0.58286 0.91217 0.0
C398 C 0.58811 0.56267 0.85677 0.0
C399 C 0.59046 0.55884 0.91885 0.0
N400 N 0.58489 0.5777 0.8528 0.0
N401 N 0.58941 0.57165 0.9531 0.0
H402 H 0.58567 0.59469 0.92558 0.0
H403 H 0.5895 0.55503 0.81752 0.0
C404 C 0.56972 0.56062 0.7288 0.0
O405 O 0.56052 0.55991 0.7771 0.0
N406 N 0.58127 0.60252 0.70338 0.0
C407 C 0.57551 0.61664 0.69672 0.0
C408 C 0.57512 0.62012 0.63335 0.0
C409 C 0.58454 0.59776 0.64512 0.0
N410 N 0.58066 0.60809 0.60161 0.0
C411 C 0.55684 0.59978 0.84772 0.0
C412 C 0.53607 0.59671 0.75207 0.0
C413 C 0.53155 0.60347 0.80876 0.0
C414 C 0.5421 0.60466 0.85724 0.0
C415 C 0.55096 0.59165 0.7449 0.0
N416 N 0.56121 0.59326 0.79248 0.0
H417 H 0.56489 0.60233 0.88362 0.0
H418 H 0.55444 0.58723 0.69981 0.0
H419 H 0.57122 0.62355 0.73479 0.0
H420 H 0.58925 0.58673 0.63432 0.0
O421 O 0.5901 0.60767 0.82298 0.0
O422 O 0.60456 0.5912 0.77222 0.0
O423 O 0.57917 0.57154 0.72407 0.0
C424 C 0.60356 0.60346 0.80657 0.0
H425 H 0.59335 0.54772 0.93704 0.0
H426 H 0.57034 0.63022 0.61214 0.0
H427 H 0.52832 0.59577 0.71302 0.0
H428 H 0.53928 0.6103 0.90095 0.0
Co429 Co 0.05185 0.41271 0.26133 0.0
C430 C 0.04973 0.41946 0.39793 0.0
C431 C 0.03781 0.43554 0.34098 0.0
C432 C 0.03472 0.43866 0.40294 0.0
N433 N 0.04727 0.42353 0.33788 0.0
N434 N 0.04229 0.42854 0.43829 0.0
H435 H 0.05584 0.40951 0.41253 0.0
H436 H 0.03292 0.44118 0.30067 0.0
C437 C 0.06492 0.44397 0.24415 0.0
O438 O 0.06855 0.4444 0.30389 0.0
N439 N 0.05565 0.40236 0.18364 0.0
C440 C 0.06405 0.38988 0.17184 0.0
C441 C 0.06338 0.38686 0.10823 0.0
C442 C 0.04981 0.40658 0.12816 0.0
N443 N 0.05432 0.39733 0.08174 0.0
C444 C 0.07376 0.39611 0.33146 0.0
C445 C 0.09914 0.40699 0.27139 0.0
C446 C 0.10059 0.39491 0.31394 0.0
C447 C 0.08772 0.38975 0.34513 0.0
C448 C 0.08484 0.41307 0.25879 0.0
N449 N 0.07229 0.40769 0.28902 0.0
H450 H 0.06401 0.39094 0.35268 0.0
H451 H 0.08389 0.42126 0.22137 0.0
H452 H 0.07022 0.38345 0.20665 0.0
H453 H 0.04251 0.41634 0.12177 0.0
O454 O 0.0417 0.39488 0.29277 0.0
O455 O 0.03043 0.41347 0.24083 0.0
O456 O 0.05855 0.43227 0.22028 0.0
C457 C 0.02938 0.40042 0.26954 0.0
H458 H 0.02711 0.44729 0.42056 0.0
H459 H 0.06892 0.37767 0.08348 0.0
H460 H 0.10879 0.411 0.24506 0.0
H461 H 0.08833 0.38034 0.37795 0.0
Co462 Co 0.58373 0.4152 0.20432 0.0
C463 C 0.58147 0.42498 0.07069 0.0
C464 C 0.59524 0.43988 0.12565 0.0
C465 C 0.5957 0.44469 0.06413 0.0
N466 N 0.58617 0.42761 0.12986 0.0
N467 N 0.58701 0.43527 0.02978 0.0
H468 H 0.57497 0.41526 0.05643 0.0
H469 H 0.60143 0.44475 0.16452 0.0
C470 C 0.57233 0.44635 0.24215 0.0
O471 O 0.567 0.44876 0.18549 0.0
N472 N 0.58184 0.4032 0.27922 0.0
C473 C 0.5748 0.38978 0.28794 0.0
C474 C 0.57482 0.38655 0.35145 0.0
C475 C 0.58627 0.40778 0.33641 0.0
N476 N 0.58207 0.39793 0.3815 0.0
C477 C 0.55986 0.40008 0.14048 0.0
C478 C 0.53633 0.41004 0.21469 0.0
C479 C 0.53366 0.39873 0.16966 0.0
C480 C 0.54556 0.39406 0.13145 0.0
C481 C 0.55097 0.41584 0.2224 0.0
N482 N 0.56258 0.4109 0.18517 0.0
H483 H 0.5689 0.39526 0.11326 0.0
H484 H 0.553 0.42346 0.26112 0.0
H485 H 0.56955 0.38312 0.25128 0.0
H486 H 0.59176 0.41857 0.34517 0.0
O487 O 0.59266 0.39811 0.1617 0.0
O488 O 0.60555 0.41532 0.21499 0.0
O489 O 0.57873 0.43379 0.25609 0.0
C490 C 0.60561 0.4029 0.18154 0.0
H491 H 0.60224 0.45411 0.04594 0.0
H492 H 0.5696 0.37683 0.37387 0.0
H493 H 0.52744 0.41366 0.24617 0.0
H494 H 0.54399 0.38523 0.0965 0.0
Co495 Co 0.05193 0.59055 0.73234 0.0
C496 C 0.05399 0.57971 0.59934 0.0
C497 C 0.03902 0.56629 0.65551 0.0
C498 C 0.03785 0.56152 0.59405 0.0
N499 N 0.04909 0.57777 0.65887 0.0
N500 N 0.04736 0.56994 0.55922 0.0
H501 H 0.06138 0.58865 0.58385 0.0
H502 H 0.03239 0.56221 0.69466 0.0
C503 C 0.06358 0.55979 0.77221 0.0
O504 O 0.06958 0.55781 0.71639 0.0
N505 N 0.0542 0.60286 0.80659 0.0
C506 C 0.06284 0.61529 0.81561 0.0
C507 C 0.0633 0.61838 0.87919 0.0
C508 C 0.04919 0.59885 0.86391 0.0
N509 N 0.05463 0.60806 0.90896 0.0
C510 C 0.07591 0.60474 0.66533 0.0
C511 C 0.09933 0.59548 0.74152 0.0
C512 C 0.10208 0.60637 0.69476 0.0
C513 C 0.09023 0.61065 0.65549 0.0
C514 C 0.08468 0.58977 0.74991 0.0
N515 N 0.07312 0.59436 0.71176 0.0
H516 H 0.06688 0.60933 0.63736 0.0
H517 H 0.08258 0.58263 0.79014 0.0
H518 H 0.06909 0.62114 0.77931 0.0
H519 H 0.04262 0.5887 0.87304 0.0
O520 O 0.04319 0.60751 0.68814 0.0
O521 O 0.03018 0.59094 0.74454 0.0
O522 O 0.05663 0.57212 0.78518 0.0
C523 C 0.03022 0.60303 0.70913 0.0
H524 H 0.0302 0.553 0.57592 0.0
H525 H 0.06999 0.62706 0.90207 0.0
H526 H 0.10816 0.59221 0.77391 0.0
H527 H 0.09185 0.61914 0.61916 0.0
H528 H 0.20153 0.20704 0.3459 0.0
H529 H 0.18505 0.18528 0.32771 0.0
H530 H 0.20114 0.16429 0.49819 0.0
H531 H 0.21817 0.18598 0.51545 0.0
H532 H 0.19512 0.14284 0.40927 0.0
H533 H 0.16924 0.18491 0.50137 0.0
H534 H 0.16146 0.21173 0.51165 0.0
H535 H 0.14002 0.20969 0.3311 0.0
H536 H 0.14789 0.18291 0.3193 0.0
H537 H 0.10894 0.12049 0.41869 0.0
H538 H 0.13043 0.13615 0.44839 0.0
H539 H 0.15601 0.11764 0.29378 0.0
H540 H 0.13455 0.10146 0.26513 0.0
H541 H 0.14162 0.15813 0.38602 0.0
H542 H 0.19383 0.12105 0.32361 0.0
H543 H 0.20139 0.09403 0.32584 0.0
H544 H 0.16899 0.08521 0.47113 0.0
H545 H 0.16138 0.11219 0.47039 0.0
C546 C 0.20172 0.19768 0.37906 0.0
C547 C 0.21093 0.19827 0.4326 0.0
C548 C 0.1923 0.18525 0.36862 0.0
C549 C 0.19158 0.17332 0.41238 0.0
C550 C 0.20146 0.17341 0.46398 0.0
C551 C 0.21114 0.18579 0.47389 0.0
C552 C 0.17956 0.16163 0.4067 0.0
C553 C 0.18341 0.14614 0.4042 0.0
C554 C 0.16422 0.16589 0.40194 0.0
C555 C 0.15925 0.18194 0.40927 0.0
C556 C 0.16293 0.1902 0.46371 0.0
C557 C 0.15851 0.2054 0.46981 0.0
C558 C 0.15027 0.21242 0.42201 0.0
C559 C 0.14641 0.20424 0.36807 0.0
C560 C 0.15084 0.18905 0.36167 0.0
C561 C 0.11921 0.11961 0.39142 0.0
C562 C 0.12004 0.10986 0.33923 0.0
C563 C 0.13149 0.12858 0.40846 0.0
C564 C 0.14487 0.12816 0.37333 0.0
C565 C 0.14591 0.11804 0.32222 0.0
C566 C 0.13363 0.10885 0.30566 0.0
C567 C 0.15711 0.13923 0.38725 0.0
C568 C 0.15329 0.15471 0.39124 0.0
C569 C 0.17235 0.13485 0.39526 0.0
C570 C 0.17694 0.11862 0.39642 0.0
C571 C 0.18836 0.11335 0.35618 0.0
C572 C 0.19265 0.09804 0.35717 0.0
C573 C 0.18564 0.0879 0.39845 0.0
C574 C 0.17437 0.09306 0.43899 0.0
C575 C 0.17005 0.10836 0.43822 0.0
H576 H 0.18897 0.07605 0.39911 0.0
H577 H 0.14685 0.22419 0.4268 0.0
H578 H 0.22613 0.81939 0.54756 0.0
H579 H 0.2106 0.84213 0.56874 0.0
H580 H 0.17084 0.81401 0.57469 0.0
H581 H 0.18619 0.79142 0.55586 0.0
H582 H 0.16989 0.84322 0.49702 0.0
H583 H 0.1827 0.82153 0.70391 0.0
H584 H 0.20117 0.81363 0.78406 0.0
H585 H 0.21979 0.85874 0.78636 0.0
H586 H 0.20155 0.86682 0.70543 0.0
H587 H 0.10655 0.87107 0.64515 0.0
H588 H 0.12859 0.85698 0.61062 0.0
H589 H 0.15752 0.89205 0.68504 0.0
H590 H 0.13526 0.9062 0.72146 0.0
H591 H 0.16866 0.86488 0.7123 0.0
H592 H 0.15222 0.88844 0.52596 0.0
H593 H 0.13461 0.89717 0.44402 0.0
H594 H 0.12442 0.85081 0.39655 0.0
H595 H 0.14172 0.84178 0.47906 0.0
C596 C 0.21406 0.81815 0.55306 0.0
C597 C 0.20734 0.80368 0.55041 0.0
C598 C 0.20524 0.83109 0.56516 0.0
C599 C 0.18959 0.82969 0.57311 0.0
C600 C 0.18289 0.81531 0.56849 0.0
C601 C 0.19168 0.80242 0.55806 0.0
C602 C 0.18 0.84295 0.58872 0.0
C603 C 0.1696 0.84805 0.54391 0.0
C604 C 0.18007 0.84957 0.6492 0.0
C605 C 0.19092 0.84472 0.69805 0.0
C606 C 0.19084 0.82971 0.72103 0.0
C607 C 0.20123 0.82521 0.7667 0.0
C608 C 0.21168 0.83566 0.79012 0.0
C609 C 0.21171 0.85064 0.76806 0.0
C610 C 0.20135 0.85519 0.72231 0.0
C611 C 0.11758 0.87585 0.65424 0.0
C612 C 0.11915 0.8898 0.6858 0.0
C613 C 0.13021 0.86781 0.63399 0.0
C614 C 0.14474 0.8736 0.64379 0.0
C615 C 0.14641 0.88742 0.67642 0.0
C616 C 0.1337 0.89548 0.69723 0.0
C617 C 0.15801 0.8648 0.62124 0.0
C618 C 0.16912 0.86048 0.66472 0.0
C619 C 0.15873 0.85908 0.55899 0.0
C620 C 0.14826 0.86443 0.50907 0.0
C621 C 0.14614 0.88009 0.49841 0.0
C622 C 0.13622 0.8851 0.4518 0.0
C623 C 0.1284 0.87455 0.41512 0.0
C624 C 0.13049 0.85897 0.42499 0.0
C625 C 0.14037 0.8539 0.47166 0.0
H626 H 0.12073 0.87845 0.37899 0.0
H627 H 0.21972 0.83216 0.82549 0.0
H628 H 0.5311 0.86967 0.85441 0.0
H629 H 0.50894 0.85462 0.8803 0.0
H630 H 0.4802 0.88995 0.8073 0.0
H631 H 0.50257 0.9052 0.77976 0.0
H632 H 0.47363 0.87265 0.94207 0.0
H633 H 0.47942 0.86679 0.71627 0.0
H634 H 0.49468 0.86279 0.62085 0.0
H635 H 0.51019 0.81997 0.69346 0.0
H636 H 0.49521 0.82386 0.7898 0.0
H637 H 0.41392 0.81706 0.96613 0.0
H638 H 0.42937 0.83888 0.93361 0.0
H639 H 0.46682 0.80866 0.89948 0.0
H640 H 0.45134 0.78698 0.92917 0.0
H641 H 0.4653 0.82721 0.80814 0.0
H642 H 0.46321 0.83299 0.03413 0.0
H643 H 0.45064 0.83626 0.13661 0.0
H644 H 0.43054 0.87788 0.07224 0.0
H645 H 0.44286 0.87475 0.96907 0.0
C646 C 0.5201 0.87437 0.8441 0.0
C647 C 0.5186 0.88861 0.81457 0.0
C648 C 0.50744 0.86573 0.85914 0.0
C649 C 0.49299 0.87117 0.84562 0.0
C650 C 0.49132 0.88561 0.81819 0.0
C651 C 0.50407 0.89425 0.8023 0.0
C652 C 0.47992 0.86107 0.85701 0.0
C653 C 0.47146 0.8629 0.91211 0.0
C654 C 0.47749 0.84818 0.81877 0.0
C655 C 0.48628 0.84568 0.7604 0.0
C656 C 0.48618 0.85658 0.71208 0.0
C657 C 0.49476 0.85432 0.6578 0.0
C658 C 0.50342 0.84115 0.65115 0.0
C659 C 0.50348 0.83018 0.69869 0.0
C660 C 0.49493 0.83239 0.75309 0.0
C661 C 0.42547 0.81515 0.95184 0.0
C662 C 0.43143 0.80032 0.95011 0.0
C663 C 0.43431 0.82762 0.93345 0.0
C664 C 0.44935 0.82549 0.91434 0.0
C665 C 0.45526 0.81066 0.91345 0.0
C666 C 0.4464 0.79824 0.93072 0.0
C667 C 0.45906 0.83847 0.89439 0.0
C668 C 0.46704 0.83713 0.8376 0.0
C669 C 0.46119 0.85166 0.93178 0.0
C670 C 0.45379 0.85354 0.99369 0.0
C671 C 0.45601 0.84277 0.04169 0.0
C672 C 0.44895 0.84461 0.09992 0.0
C673 C 0.43975 0.85724 0.11085 0.0
C674 C 0.43763 0.86809 0.06365 0.0
C675 C 0.44465 0.86629 0.00531 0.0
H676 H 0.4343 0.85865 0.15596 0.0
H677 H 0.51007 0.83942 0.60912 0.0
H678 H 0.51743 0.10248 0.07996 0.0
H679 H 0.49567 0.11757 0.04624 0.0
H680 H 0.48973 0.13353 0.23665 0.0
H681 H 0.51083 0.11754 0.27067 0.0
H682 H 0.46392 0.13133 0.19 0.0
H683 H 0.50975 0.15336 0.11366 0.0
H684 H 0.53372 0.15495 0.05557 0.0
H685 H 0.51038 0.14709 0.882 0.0
H686 H 0.48632 0.14504 0.93924 0.0
H687 H 0.438 0.20728 0.12579 0.0
H688 H 0.45248 0.18454 0.1535 0.0
H689 H 0.43893 0.1632 0.98011 0.0
H690 H 0.42394 0.18585 0.95299 0.0
H691 H 0.47223 0.16605 0.00958 0.0
H692 H 0.42537 0.14826 0.09479 0.0
H693 H 0.40246 0.15008 0.15968 0.0
H694 H 0.42948 0.15393 0.32605 0.0
H695 H 0.45258 0.15255 0.26204 0.0
C696 C 0.51119 0.10896 0.11459 0.0
C697 C 0.51562 0.10887 0.17779 0.0
C698 C 0.49887 0.11772 0.0953 0.0
C699 C 0.49122 0.12707 0.13848 0.0
C700 C 0.49539 0.12647 0.20225 0.0
C701 C 0.50743 0.11736 0.2218 0.0
C702 C 0.47945 0.13804 0.11714 0.0
C703 C 0.46583 0.13896 0.15075 0.0
C704 C 0.48172 0.14794 0.06523 0.0
C705 C 0.49625 0.14884 0.03088 0.0
C706 C 0.50975 0.15179 0.06319 0.0
C707 C 0.52336 0.15278 0.0304 0.0
C708 C 0.52358 0.15109 0.96515 0.0
C709 C 0.51019 0.1484 0.93254 0.0
C710 C 0.49658 0.14725 0.96516 0.0
C711 C 0.43793 0.19765 0.09399 0.0
C712 C 0.42992 0.19829 0.03715 0.0
C713 C 0.44615 0.18467 0.10999 0.0
C714 C 0.44673 0.17222 0.06889 0.0
C715 C 0.43853 0.1727 0.01252 0.0
C716 C 0.42997 0.18558 0.99718 0.0
C717 C 0.45697 0.15935 0.08289 0.0
C718 C 0.4703 0.15818 0.04808 0.0
C719 C 0.45464 0.1496 0.13477 0.0
C720 C 0.44074 0.15044 0.17343 0.0
C721 C 0.42645 0.14968 0.14512 0.0
C722 C 0.41342 0.15062 0.18178 0.0
C723 C 0.41451 0.15218 0.24693 0.0
C724 C 0.42865 0.15275 0.27557 0.0
C725 C 0.44172 0.15191 0.2391 0.0
H726 H 0.40441 0.1529 0.27524 0.0
H727 H 0.53412 0.15187 0.93983 0.0
H728 H 0.92996 0.81004 0.48311 0.0
H729 H 0.94476 0.83329 0.49686 0.0
H730 H 0.94083 0.82894 0.69804 0.0
H731 H 0.9255 0.80612 0.68456 0.0
H732 H 0.94148 0.85828 0.66687 0.0
H733 H 0.97078 0.81364 0.61816 0.0
H734 H 0.97811 0.7913 0.55502 0.0
H735 H 0.98817 0.82037 0.39831 0.0
H736 H 0.98068 0.84287 0.46033 0.0
H737 H 0.01243 0.8884 0.77127 0.0
H738 H 0.9892 0.87445 0.74794 0.0
H739 H 0.99548 0.88315 0.55022 0.0
H740 H 0.01864 0.89707 0.57329 0.0
H741 H 0.99236 0.85346 0.5728 0.0
H742 H 0.96591 0.89879 0.63099 0.0
H743 H 0.95919 0.92047 0.69895 0.0
H744 H 0.94472 0.88966 0.84343 0.0
H745 H 0.95154 0.86778 0.77668 0.0
C746 C 0.93181 0.81431 0.53019 0.0
C747 C 0.92676 0.80607 0.58277 0.0
C748 C 0.94041 0.82754 0.53804 0.0
C749 C 0.94425 0.83266 0.59856 0.0
C750 C 0.93814 0.82517 0.6509 0.0
C751 C 0.92948 0.81203 0.6431 0.0
C752 C 0.95586 0.84468 0.60778 0.0
C753 C 0.95262 0.85723 0.64647 0.0
C754 C 0.97038 0.84341 0.58078 0.0
C755 C 0.975 0.82991 0.5436 0.0
C756 C 0.97446 0.81525 0.57009 0.0
C757 C 0.97865 0.80257 0.53453 0.0
C758 C 0.98356 0.80441 0.47263 0.0
C759 C 0.98433 0.81895 0.44622 0.0
C760 C 0.98011 0.83168 0.48155 0.0
C761 C 0.0086 0.88774 0.72306 0.0
C762 C 0.01743 0.89372 0.67408 0.0
C763 C 0.99533 0.87974 0.70971 0.0
C764 C 0.9906 0.8777 0.64723 0.0
C765 C 0.99893 0.88449 0.59871 0.0
C766 C 0.01217 0.89244 0.61198 0.0
C767 C 0.97802 0.86714 0.6318 0.0
C768 C 0.98114 0.85474 0.59232 0.0
C769 C 0.96351 0.8685 0.65875 0.0
C770 C 0.95936 0.88164 0.69898 0.0
C771 C 0.96141 0.89663 0.67744 0.0
C772 C 0.95756 0.90896 0.71572 0.0
C773 C 0.95156 0.90645 0.77552 0.0
C774 C 0.94937 0.89159 0.79712 0.0
C775 C 0.95321 0.87922 0.75904 0.0
H776 H 0.94859 0.91601 0.80508 0.0
H777 H 0.98681 0.79457 0.44517 0.0
H778 H 0.91906 0.19013 0.46698 0.0
H779 H 0.93382 0.167 0.44502 0.0
H780 H 0.9673 0.1942 0.35033 0.0
H781 H 0.95282 0.21707 0.37218 0.0
H782 H 0.95976 0.16985 0.28087 0.0
H783 H 0.97274 0.18021 0.49884 0.0
H784 H 0.96697 0.18378 0.61123 0.0
H785 H 0.9478 0.13896 0.61942 0.0
H786 H 0.9533 0.13521 0.50679 0.0
H787 H 0.02981 0.13391 0.27541 0.0
H788 H 0.00739 0.14958 0.29106 0.0
H789 H 0.98432 0.11119 0.37319 0.0
H790 H 0.00703 0.09545 0.3578 0.0
H791 H 0.98151 0.13651 0.44546 0.0
H792 H 0.9732 0.12471 0.23058 0.0
H793 H 0.97972 0.12136 0.11885 0.0
H794 H 0.99027 0.16891 0.10406 0.0
H795 H 0.98403 0.17252 0.21594 0.0
C796 C 0.92963 0.19113 0.44194 0.0
C797 C 0.93465 0.20541 0.42048 0.0
C798 C 0.93803 0.17793 0.42928 0.0
C799 C 0.95163 0.17885 0.39553 0.0
C800 C 0.95676 0.19314 0.37557 0.0
C801 C 0.94843 0.20623 0.38805 0.0
C802 C 0.96073 0.16513 0.38004 0.0
C803 C 0.96452 0.16256 0.31687 0.0
C804 C 0.96652 0.15525 0.42669 0.0
C805 C 0.96325 0.15751 0.49429 0.0
C806 C 0.96718 0.17117 0.5245 0.0
C807 C 0.96398 0.17322 0.58825 0.0
C808 C 0.95697 0.16163 0.62239 0.0
C809 C 0.95319 0.14794 0.59289 0.0
C810 C 0.95635 0.14585 0.52911 0.0
C811 C 0.01981 0.12875 0.29543 0.0
C812 C 0.01998 0.11349 0.31465 0.0
C813 C 0.00701 0.13768 0.30436 0.0
C814 C 0.99407 0.13154 0.33266 0.0
C815 C 0.99413 0.11615 0.35092 0.0
C816 C 0.007 0.10715 0.34172 0.0
C817 C 0.98103 0.14164 0.34648 0.0
C818 C 0.97647 0.14353 0.40922 0.0
C819 C 0.97454 0.15094 0.29941 0.0
C820 C 0.97819 0.14886 0.23183 0.0
C821 C 0.97699 0.13444 0.20363 0.0
C822 C 0.98063 0.13249 0.14023 0.0
C823 C 0.98541 0.14491 0.10439 0.0
C824 C 0.98655 0.1593 0.13186 0.0
C825 C 0.98293 0.16131 0.19526 0.0
H826 H 0.98823 0.14338 0.05533 0.0
H827 H 0.95451 0.16323 0.67175 0.0
H828 H 0.62383 0.11543 0.26339 0.0
H829 H 0.64666 0.12999 0.24003 0.0
H830 H 0.63777 0.12573 0.04161 0.0
H831 H 0.61542 0.11059 0.06453 0.0
H832 H 0.66711 0.12576 0.05979 0.0
H833 H 0.62543 0.15679 0.1277 0.0
H834 H 0.60532 0.165 0.20014 0.0
H835 H 0.63822 0.17416 0.34299 0.0
H836 H 0.65851 0.1658 0.2716 0.0
H837 H 0.69675 0.19669 0.94342 0.0
H838 H 0.68278 0.17361 0.97194 0.0
H839 H 0.69626 0.17925 0.1652 0.0
H840 H 0.71013 0.20227 0.13695 0.0
H841 H 0.66645 0.17726 0.15515 0.0
H842 H 0.70865 0.14898 0.0773 0.0
H843 H 0.72797 0.14155 -3e-05 0.0
H844 H 0.69345 0.12826 0.86995 0.0
H845 H 0.6739 0.13581 0.94619 0.0
C846 C 0.62699 0.11719 0.21479 0.0
C847 C 0.61764 0.11207 0.16586 0.0
C848 C 0.63998 0.12565 0.20145 0.0
C849 C 0.64374 0.12933 0.13902 0.0
C850 C 0.63507 0.1232 0.09013 0.0
C851 C 0.6222 0.11464 0.10338 0.0
C852 C 0.65571 0.14069 0.1245 0.0
C853 C 0.66696 0.13704 0.08048 0.0
C854 C 0.65562 0.15539 0.15177 0.0
C855 C 0.64346 0.16051 0.19461 0.0
C856 C 0.62836 0.16046 0.17472 0.0
C857 C 0.61693 0.16515 0.21556 0.0
C858 C 0.62049 0.17005 0.2762 0.0
C859 C 0.63548 0.17032 0.29606 0.0
C860 C 0.64695 0.16562 0.25543 0.0
C861 C 0.69711 0.19272 0.99156 0.0
C862 C 0.70443 0.20134 0.03804 0.0
C863 C 0.6891 0.17954 0.0079 0.0
C864 C 0.68841 0.1747 0.07086 0.0
C865 C 0.69654 0.18278 0.11645 0.0
C866 C 0.70448 0.19593 0.10023 0.0
C867 C 0.67793 0.16236 0.09054 0.0
C868 C 0.66683 0.1659 0.13522 0.0
C869 C 0.67808 0.14768 0.06319 0.0
C870 C 0.68981 0.14308 0.01731 0.0
C871 C 0.70517 0.14459 0.03204 0.0
C872 C 0.71617 0.14033 0.98843 0.0
C873 C 0.71194 0.13447 0.93003 0.0
C874 C 0.69671 0.13281 0.91519 0.0
C875 C 0.68567 0.13706 0.95862 0.0
H876 H 0.72047 0.13118 0.89633 0.0
H877 H 0.61163 0.17368 0.30775 0.0
H878 H 0.60879 0.86056 0.79123 0.0
H879 H 0.63195 0.84732 0.81959 0.0
H880 H 0.65624 0.88978 0.81556 0.0
H881 H 0.63279 0.90328 0.7876 0.0
H882 H 0.67097 0.85812 0.76204 0.0
H883 H 0.65044 0.88376 0.94476 0.0
H884 H 0.62931 0.89205 0.01175 0.0
H885 H 0.61664 0.84546 0.04218 0.0
H886 H 0.63754 0.83691 0.97443 0.0
H887 H 0.72477 0.8123 0.934 0.0
H888 H 0.71053 0.83539 0.90492 0.0
H889 H 0.66888 0.8113 0.93703 0.0
H890 H 0.68298 0.7885 0.96574 0.0
H891 H 0.66739 0.8399 0.98233 0.0
H892 H 0.68369 0.81434 0.79158 0.0
H893 H 0.70286 0.80415 0.71901 0.0
H894 H 0.72217 0.84871 0.69965 0.0
H895 H 0.70323 0.85912 0.77298 0.0
C896 C 0.61912 0.86707 0.79522 0.0
C897 C 0.61898 0.88297 0.78815 0.0
C898 C 0.63233 0.85948 0.81115 0.0
C899 C 0.64573 0.8676 0.82016 0.0
C900 C 0.64598 0.88334 0.80861 0.0
C901 C 0.63263 0.89102 0.79266 0.0
C902 C 0.65868 0.85959 0.84899 0.0
C903 C 0.67052 0.85451 0.81074 0.0
C904 C 0.65784 0.85463 0.91209 0.0
C905 C 0.64551 0.85971 0.95426 0.0
C906 C 0.64309 0.87529 0.96543 0.0
C907 C 0.63116 0.88003 0.00356 0.0
C908 C 0.62162 0.86929 0.03113 0.0
C909 C 0.62404 0.85377 0.02079 0.0
C910 C 0.63594 0.84897 0.9826 0.0
C911 C 0.71258 0.81214 0.93585 0.0
C912 C 0.70491 0.79872 0.95198 0.0
C913 C 0.70448 0.82524 0.91896 0.0
C914 C 0.68863 0.82503 0.91843 0.0
C915 C 0.68107 0.81177 0.93726 0.0
C916 C 0.68912 0.79875 0.95353 0.0
C917 C 0.67962 0.83814 0.89522 0.0
C918 C 0.66834 0.84403 0.93444 0.0
C919 C 0.68092 0.84367 0.8329 0.0
C920 C 0.69219 0.83746 0.78837 0.0
C921 C 0.6921 0.82194 0.77223 0.0
C922 C 0.70291 0.81612 0.73092 0.0
C923 C 0.71376 0.82577 0.70491 0.0
C924 C 0.71378 0.84125 0.71998 0.0
C925 C 0.70302 0.84711 0.76142 0.0
H926 H 0.72212 0.82125 0.67295 0.0
H927 H 0.61238 0.87298 0.06058 0.0
H928 H 0.72234 0.68267 0.97982 0.0
H929 H 0.70676 0.66052 0.95083 0.0
H930 H 0.66707 0.68874 0.9554 0.0
H931 H 0.68252 0.71087 0.98189 0.0
H932 H 0.66825 0.65623 0.0246 0.0
H933 H 0.67485 0.68522 0.82696 0.0
H934 H 0.69136 0.69707 0.74757 0.0
H935 H 0.71339 0.6542 0.71694 0.0
H936 H 0.69714 0.64216 0.79699 0.0
H937 H 0.6038 0.62862 0.88053 0.0
H938 H 0.6254 0.64321 0.91655 0.0
H939 H 0.65528 0.61272 0.81801 0.0
H940 H 0.63347 0.59804 0.78066 0.0
H941 H 0.66362 0.64176 0.80003 0.0
H942 H 0.65275 0.61129 0.97684 0.0
H943 H 0.63814 0.59885 0.0609 0.0
H944 H 0.62621 0.64251 0.13655 0.0
H945 H 0.64046 0.65525 0.05221 0.0
C946 C 0.71027 0.68405 0.97514 0.0
C947 C 0.70359 0.69843 0.98294 0.0
C948 C 0.70143 0.67146 0.95846 0.0
C949 C 0.68581 0.67308 0.95097 0.0
C950 C 0.67911 0.68731 0.96099 0.0
C951 C 0.68794 0.69992 0.97596 0.0
C952 C 0.67628 0.66018 0.93084 0.0
C953 C 0.66718 0.653 0.97561 0.0
C954 C 0.67539 0.65569 0.86726 0.0
C955 C 0.68494 0.66285 0.81846 0.0
C956 C 0.68332 0.67837 0.80372 0.0
C957 C 0.6926 0.68511 0.75853 0.0
C958 C 0.70346 0.67641 0.7274 0.0
C959 C 0.705 0.66094 0.74121 0.0
C960 C 0.69576 0.65415 0.78646 0.0
C961 C 0.61495 0.62495 0.86644 0.0
C962 C 0.61691 0.61214 0.82777 0.0
C963 C 0.62732 0.63327 0.8875 0.0
C964 C 0.64201 0.62892 0.87097 0.0
C965 C 0.64405 0.61622 0.83171 0.0
C966 C 0.6316 0.60785 0.81048 0.0
C967 C 0.655 0.63808 0.89363 0.0
C968 C 0.66481 0.64462 0.84934 0.0
C969 C 0.65666 0.64185 0.95804 0.0
C970 C 0.64766 0.63424 0.00792 0.0
C971 C 0.64688 0.61826 0.01094 0.0
C972 C 0.63868 0.61115 0.05873 0.0
C973 C 0.6313 0.61989 0.10412 0.0
C974 C 0.63197 0.63575 0.10143 0.0
C975 C 0.64011 0.64293 0.05364 0.0
H976 H 0.62515 0.61438 0.14162 0.0
H977 H 0.71064 0.68165 0.69246 0.0
H978 H 0.60728 0.37361 0.14303 0.0
H979 H 0.62973 0.35862 0.12038 0.0
H980 H 0.65779 0.3972 0.16418 0.0
H981 H 0.63515 0.41237 0.1887 0.0
H982 H 0.66174 0.3764 0.03509 0.0
H983 H 0.66311 0.37721 0.26222 0.0
H984 H 0.65148 0.3756 0.36724 0.0
H985 H 0.63642 0.33017 0.32752 0.0
H986 H 0.64775 0.33161 0.22183 0.0
H987 H 0.72096 0.32033 -0.00032 0.0
H988 H 0.70711 0.34311 0.03404 0.0
H989 H 0.67073 0.31462 0.09927 0.0
H990 H 0.68454 0.29209 0.06702 0.0
H991 H 0.67602 0.33524 0.18303 0.0
H992 H 0.66998 0.33501 0.95632 0.0
H993 H 0.67893 0.33563 0.84663 0.0
H994 H 0.7005 0.3786 0.88031 0.0
H995 H 0.69181 0.37814 0.99048 0.0
C996 C 0.6182 0.37897 0.14783 0.0
C997 C 0.61946 0.39417 0.16772 0.0
C998 C 0.63101 0.37038 0.13483 0.0
C999 C 0.64536 0.37682 0.14056 0.0
C1000 C 0.64676 0.39207 0.15946 0.0
C1001 C 0.63387 0.40067 0.17366 0.0
C1002 C 0.65866 0.36716 0.12779 0.0
C1003 C 0.66526 0.36765 0.06794 0.0
C1004 C 0.66286 0.35555 0.17017 0.0
C1005 C 0.65618 0.35457 0.23395 0.0
C1006 C 0.6572 0.36693 0.27568 0.0
C1007 C 0.65069 0.36604 0.33537 0.0
C1008 C 0.64319 0.3528 0.35401 0.0
C1009 C 0.64223 0.34042 0.31303 0.0
C1010 C 0.64871 0.34126 0.25325 0.0
C1011 C 0.71 0.31899 0.02136 0.0
C1012 C 0.70385 0.30442 0.03065 0.0
C1013 C 0.70209 0.332 0.04087 0.0
C1014 C 0.68783 0.33062 0.06917 0.0
C1015 C 0.68174 0.31604 0.07813 0.0
C1016 C 0.68965 0.30312 0.05932 0.0
C1017 C 0.67892 0.34413 0.08938 0.0
C1018 C 0.67301 0.34427 0.15064 0.0
C1019 C 0.6752 0.35617 0.04785 0.0
C1020 C 0.68043 0.35644 0.98177 0.0
C1021 C 0.67674 0.34452 0.94044 0.0
C1022 C 0.68174 0.34486 0.87818 0.0
C1023 C 0.69033 0.35712 0.85658 0.0
C1024 C 0.69389 0.36909 0.89715 0.0
C1025 C 0.68892 0.3688 0.95949 0.0
H1026 H 0.69419 0.35736 0.80835 0.0
H1027 H 0.63816 0.35213 0.40024 0.0
H1028 H 0.0259 0.36999 0.2799 0.0
H1029 H 0.00272 0.35579 0.29935 0.0
H1030 H 0.97736 0.39763 0.29826 0.0
H1031 H 1.00067 0.412 0.27665 0.0
H1032 H 0.97486 0.37376 0.41206 0.0
H1033 H 0.96815 0.38084 0.19045 0.0
H1034 H 0.97642 0.38129 0.0799 0.0
H1035 H 0.98712 0.33369 0.0894 0.0
H1036 H 0.97916 0.33301 0.2004 0.0
H1037 H 0.91286 0.32154 0.45631 0.0
H1038 H 0.92706 0.34404 0.42129 0.0
H1039 H 0.9595 0.31476 0.33084 0.0
H1040 H 0.94537 0.29252 0.36423 0.0
H1041 H 0.95337 0.33772 0.25677 0.0
H1042 H 0.96561 0.33132 0.47735 0.0
H1043 H 0.95983 0.32971 0.59051 0.0
H1044 H 0.94088 0.37467 0.58556 0.0
H1045 H 0.94638 0.37645 0.47208 0.0
C1046 C 0.01537 0.37617 0.28315 0.0
C1047 C 0.01505 0.39208 0.27667 0.0
C1048 C 0.00216 0.36805 0.29425 0.0
C1049 C 0.98837 0.37567 0.30027 0.0
C1050 C 0.98792 0.39157 0.29362 0.0
C1051 C 1.00118 0.39973 0.28098 0.0
C1052 C 0.97472 0.36671 0.31528 0.0
C1053 C 0.96979 0.36618 0.37785 0.0
C1054 C 0.96845 0.3566 0.27085 0.0
C1055 C 0.97315 0.35691 0.20393 0.0
C1056 C 0.9724 0.37049 0.16916 0.0
C1057 C 0.977 0.37079 0.10637 0.0
C1058 C 0.98232 0.35753 0.07767 0.0
C1059 C 0.98301 0.34395 0.1117 0.0
C1060 C 0.97843 0.3436 0.17454 0.0
C1061 C 0.923 0.31996 0.42879 0.0
C1062 C 0.92802 0.30525 0.41331 0.0
C1063 C 0.93111 0.33281 0.40889 0.0
C1064 C 0.94441 0.33111 0.37358 0.0
C1065 C 0.94925 0.31641 0.35763 0.0
C1066 C 0.94118 0.30367 0.37718 0.0
C1067 C 0.95374 0.3444 0.3542 0.0
C1068 C 0.95798 0.34564 0.29077 0.0
C1069 C 0.95954 0.35501 0.39811 0.0
C1070 C 0.9562 0.35393 0.46615 0.0
C1071 C 0.96008 0.3408 0.5003 0.0
C1072 C 0.95689 0.33987 0.56449 0.0
C1073 C 0.94994 0.35206 0.59515 0.0
C1074 C 0.94622 0.36522 0.5617 0.0
C1075 C 0.94937 0.3662 0.49747 0.0
H1076 H 0.94748 0.35132 0.64486 0.0
H1077 H 0.98588 0.35778 0.02905 0.0
H1078 H 0.92124 0.68854 0.51809 0.0
H1079 H 0.93736 0.66704 0.5482 0.0
H1080 H 0.95451 0.6931 0.70445 0.0
H1081 H 0.93893 0.71464 0.67326 0.0
H1082 H 0.97671 0.68195 0.6453 0.0
H1083 H 0.93096 0.66152 0.72417 0.0
H1084 H 0.90434 0.65361 0.72211 0.0
H1085 H 0.91421 0.62104 0.57742 0.0
H1086 H 0.94087 0.62891 0.578 0.0
H1087 H 0.0036 0.60404 0.77476 0.0
H1088 H 0.98237 0.62144 0.75621 0.0
H1089 H 0.00452 0.63854 0.59014 0.0
H1090 H 0.02583 0.62169 0.60965 0.0
H1091 H 0.96191 0.62772 0.66583 0.0
H1092 H 0.00182 0.67606 0.58238 0.0
H1093 H 0.02808 0.68434 0.59846 0.0
H1094 H 0.02881 0.66224 0.77836 0.0
H1095 H 0.00249 0.65404 0.76378 0.0
C1096 C 0.92834 0.68957 0.55922 0.0
C1097 C 0.92898 0.7033 0.59287 0.0
C1098 C 0.93749 0.67726 0.57663 0.0
C1099 C 0.94719 0.67841 0.6287 0.0
C1100 C 0.94727 0.69194 0.66379 0.0
C1101 C 0.93835 0.70426 0.64589 0.0
C1102 C 0.95816 0.66613 0.6439 0.0
C1103 C 0.9734 0.67012 0.6499 0.0
C1104 C 0.95391 0.65068 0.65127 0.0
C1105 C 0.93789 0.64591 0.65071 0.0
C1106 C 0.92744 0.65276 0.69154 0.0
C1107 C 0.91234 0.64827 0.69071 0.0
C1108 C 0.90758 0.63686 0.64955 0.0
C1109 C 0.91791 0.62989 0.60923 0.0
C1110 C 0.93302 0.63435 0.60983 0.0
C1111 C 0.0038 0.61139 0.73392 0.0
C1112 C 0.01644 0.61173 0.69422 0.0
C1113 C 0.99167 0.62129 0.72327 0.0
C1114 C 0.992 0.63153 0.67252 0.0
C1115 C 0.00416 0.63101 0.63044 0.0
C1116 C 0.01633 0.62136 0.6416 0.0
C1117 C 0.98037 0.64361 0.66579 0.0
C1118 C 0.9651 0.63959 0.66135 0.0
C1119 C 0.98448 0.65916 0.6619 0.0
C1120 C 1.00022 0.66433 0.67168 0.0
C1121 C 0.00756 0.67305 0.62551 0.0
C1122 C 0.02246 0.67771 0.63434 0.0
C1123 C 0.03012 0.67378 0.68932 0.0
C1124 C 0.02288 0.66524 0.73572 0.0
C1125 C 0.00797 0.66057 0.72717 0.0
H1126 H 0.04166 0.67738 0.69601 0.0
H1127 H 0.89588 0.63339 0.64898 0.0
H1128 H 0.45844 0.29073 0.0383 0.0
H1129 H 0.4709 0.31442 0.067 0.0
H1130 H 0.42852 0.33821 0.0571 0.0
H1131 H 0.41575 0.31419 0.02921 0.0
H1132 H 0.45744 0.35365 0.00248 0.0
H1133 H 0.43641 0.33253 0.19077 0.0
H1134 H 0.43015 0.31159 0.26338 0.0
H1135 H 0.47717 0.30192 0.28802 0.0
H1136 H 0.4837 0.32263 0.2147 0.0
H1137 H 0.50513 0.41015 0.15054 0.0
H1138 H 0.48197 0.39529 0.13193 0.0
H1139 H 0.50691 0.35372 0.16095 0.0
H1140 H 0.52973 0.36839 0.1798 0.0
H1141 H 0.47986 0.35207 0.21591 0.0
H1142 H 0.50039 0.36816 0.01348 0.0
H1143 H 0.50795 0.3874 0.93515 0.0
H1144 H 0.46305 0.40553 0.93419 0.0
H1145 H 0.45528 0.3865 0.01317 0.0
C1146 C 0.45173 0.30099 0.04187 0.0
C1147 C 0.43606 0.30054 0.03277 0.0
C1148 C 0.45889 0.31453 0.05796 0.0
C1149 C 0.45059 0.32799 0.06499 0.0
C1150 C 0.43508 0.3279 0.05202 0.0
C1151 C 0.42783 0.31422 0.03604 0.0
C1152 C 0.45831 0.34161 0.09042 0.0
C1153 C 0.46199 0.35361 0.04978 0.0
C1154 C 0.46438 0.34139 0.15182 0.0
C1155 C 0.46053 0.32911 0.19702 0.0
C1156 C 0.44541 0.32588 0.21138 0.0
C1157 C 0.44181 0.31406 0.2527 0.0
C1158 C 0.45325 0.30542 0.28026 0.0
C1159 C 0.46832 0.30863 0.26667 0.0
C1160 C 0.47197 0.32042 0.22531 0.0
C1161 C 0.5055 0.39785 0.15393 0.0
C1162 C 0.51918 0.39037 0.16603 0.0
C1163 C 0.49234 0.38939 0.14297 0.0
C1164 C 0.49273 0.37337 0.14449 0.0
C1165 C 0.50628 0.36604 0.15956 0.0
C1166 C 0.51934 0.37442 0.17002 0.0
C1167 C 0.47948 0.3639 0.1273 0.0
C1168 C 0.47484 0.35255 0.1695 0.0
C1169 C 0.47265 0.36468 0.06722 0.0
C1170 C 0.47731 0.37607 0.01978 0.0
C1171 C 0.49217 0.37634 0.99692 0.0
C1172 C 0.49648 0.38718 0.95235 0.0
C1173 C 0.486 0.39772 0.92988 0.0
C1174 C 0.47116 0.39739 0.95177 0.0
C1175 C 0.4668 0.38658 0.99643 0.0
H1176 H 0.48936 0.4061 0.89536 0.0
H1177 H 0.45044 0.29627 0.31219 0.0
H1178 H 0.44298 0.70135 0.02699 0.0
H1179 H 0.45875 0.67935 0.00033 0.0
H1180 H 0.43223 0.67163 0.83382 0.0
H1181 H 0.4166 0.69382 0.85963 0.0
H1182 H 0.44268 0.64365 0.9064 0.0
H1183 H 0.4598 0.69019 0.80589 0.0
H1184 H 0.46716 0.71725 0.80669 0.0
H1185 H 0.5027 0.70738 0.9372 0.0
H1186 H 0.49535 0.68028 0.93803 0.0
H1187 H 0.51745 0.62257 0.72636 0.0
H1188 H 0.4953 0.63844 0.74659 0.0
H1189 H 0.49019 0.61768 0.92894 0.0
H1190 H 0.51226 0.60171 0.90877 0.0
H1191 H 0.49404 0.65944 0.84121 0.0
H1192 H 0.4524 0.61955 0.97003 0.0
H1193 H 0.44472 0.59257 0.96903 0.0
H1194 H 0.45806 0.58885 0.77574 0.0
H1195 H 0.46562 0.61585 0.7753 0.0
C1196 C 0.44024 0.69468 0.98574 0.0
C1197 C 0.42859 0.69926 0.94534 0.0
C1198 C 0.44928 0.68217 0.97046 0.0
C1199 C 0.44666 0.67392 0.91504 0.0
C1200 C 0.43437 0.67781 0.87692 0.0
C1201 C 0.4255 0.69049 0.89159 0.0
C1202 C 0.4578 0.66252 0.89313 0.0
C1203 C 0.45392 0.64704 0.8922 0.0
C1204 C 0.47235 0.66702 0.87371 0.0
C1205 C 0.47693 0.68325 0.87252 0.0
C1206 C 0.4691 0.69381 0.83517 0.0
C1207 C 0.47328 0.70915 0.83527 0.0
C1208 C 0.48536 0.71404 0.8721 0.0
C1209 C 0.49332 0.70358 0.90877 0.0
C1210 C 0.48916 0.68824 0.90896 0.0
C1211 C 0.51134 0.62106 0.76997 0.0
C1212 C 0.5166 0.6109 0.81601 0.0
C1213 C 0.49877 0.63024 0.78171 0.0
C1214 C 0.49109 0.62927 0.8393 0.0
C1215 C 0.49584 0.61855 0.88399 0.0
C1216 C 0.50849 0.60947 0.8725 0.0
C1217 C 0.47907 0.64041 0.85501 0.0
C1218 C 0.4828 0.65594 0.85509 0.0
C1219 C 0.4644 0.6359 0.87342 0.0
C1220 C 0.4597 0.6197 0.87286 0.0
C1221 C 0.45363 0.61299 0.92723 0.0
C1222 C 0.44931 0.59769 0.92693 0.0
C1223 C 0.45094 0.58899 0.87242 0.0
C1224 C 0.45685 0.59559 0.81801 0.0
C1225 C 0.46119 0.61089 0.81805 0.0
H1226 H 0.44759 0.57715 0.8723 0.0
H1227 H 0.48859 0.72592 0.8721 0.0
H1228 H 0.18197 0.71363 0.57922 0.0
H1229 H 0.16815 0.69055 0.6051 0.0
H1230 H 0.20942 0.66474 0.6016 0.0
H1231 H 0.22357 0.68815 0.57637 0.0
H1232 H 0.18136 0.65048 0.54182 0.0
H1233 H 0.19933 0.67134 0.73562 0.0
H1234 H 0.20475 0.69209 0.81024 0.0
H1235 H 0.15765 0.70284 0.82064 0.0
H1236 H 0.15197 0.68232 0.74526 0.0
H1237 H 0.13082 0.5949 0.68267 0.0
H1238 H 0.15419 0.60962 0.66697 0.0
H1239 H 0.12886 0.65137 0.68202 0.0
H1240 H 0.10579 0.63685 0.69765 0.0
H1241 H 0.15504 0.65288 0.74734 0.0
H1242 H 0.13786 0.63681 0.54031 0.0
H1243 H 0.13128 0.61763 0.46031 0.0
H1244 H 0.17581 0.59878 0.47207 0.0
H1245 H 0.18258 0.61777 0.55278 0.0
C1246 C 0.18817 0.70306 0.58383 0.0
C1247 C 0.20392 0.70277 0.57714 0.0
C1248 C 0.18023 0.68986 0.59828 0.0
C1249 C 0.18779 0.676 0.60618 0.0
C1250 C 0.20341 0.67537 0.5959 0.0
C1251 C 0.21145 0.68871 0.58148 0.0
C1252 C 0.17914 0.66266 0.62904 0.0
C1253 C 0.17594 0.6507 0.58749 0.0
C1254 C 0.17192 0.66312 0.68827 0.0
C1255 C 0.17524 0.67531 0.73459 0.0
C1256 C 0.19014 0.67819 0.75354 0.0
C1257 C 0.19325 0.6899 0.796 0.0
C1258 C 0.18156 0.69879 0.82013 0.0
C1259 C 0.16671 0.69595 0.80195 0.0
C1260 C 0.16353 0.68425 0.75943 0.0
C1261 C 0.13037 0.60722 0.6833 0.0
C1262 C 0.11653 0.61477 0.69076 0.0
C1263 C 0.14366 0.6156 0.67406 0.0
C1264 C 0.14325 0.63161 0.67293 0.0
C1265 C 0.12948 0.63906 0.68276 0.0
C1266 C 0.11629 0.63075 0.69133 0.0
C1267 C 0.15683 0.64093 0.65936 0.0
C1268 C 0.16089 0.65225 0.70266 0.0
C1269 C 0.16472 0.63991 0.60163 0.0
C1270 C 0.16066 0.62855 0.55312 0.0
C1271 C 0.1462 0.62849 0.52621 0.0
C1272 C 0.14245 0.61767 0.48067 0.0
C1273 C 0.15311 0.60696 0.46129 0.0
C1274 C 0.16756 0.60707 0.48725 0.0
C1275 C 0.17136 0.61785 0.53288 0.0
H1276 H 0.15018 0.59859 0.42601 0.0
H1277 H 0.18399 0.70786 0.85296 0.0
H1278 H 0.18412 0.28606 0.39147 0.0
H1279 H 0.16916 0.30866 0.37017 0.0
H1280 H 0.20644 0.3372 0.4245 0.0
H1281 H 0.22169 0.31432 0.44615 0.0
H1282 H 0.17831 0.34768 0.46955 0.0
H1283 H 0.19982 0.33373 0.27336 0.0
H1284 H 0.20746 0.31628 0.18848 0.0
H1285 H 0.1612 0.30465 0.15527 0.0
H1286 H 0.15327 0.32185 0.24062 0.0
H1287 H 0.12889 0.4061 0.33983 0.0
H1288 H 0.1521 0.39121 0.35662 0.0
H1289 H 0.1275 0.34981 0.32009 0.0
H1290 H 0.10455 0.36449 0.30354 0.0
H1291 H 0.15483 0.35079 0.25841 0.0
H1292 H 0.13442 0.36058 0.46751 0.0
H1293 H 0.12647 0.37733 0.55439 0.0
H1294 H 0.17078 0.39677 0.5624 0.0
H1295 H 0.17894 0.38025 0.47493 0.0
C1296 C 0.18922 0.29713 0.39863 0.0
C1297 C 0.2042 0.29841 0.41915 0.0
C1298 C 0.18062 0.31005 0.38656 0.0
C1299 C 0.18679 0.32462 0.3943 0.0
C1300 C 0.20153 0.32604 0.41765 0.0
C1301 C 0.2102 0.313 0.43003 0.0
C1302 C 0.17764 0.3381 0.37646 0.0
C1303 C 0.17348 0.34863 0.42292 0.0
C1304 C 0.17128 0.3393 0.31567 0.0
C1305 C 0.17596 0.32907 0.2636 0.0
C1306 C 0.19127 0.3274 0.24819 0.0
C1307 C 0.19566 0.31755 0.19997 0.0
C1308 C 0.18482 0.30935 0.16653 0.0
C1309 C 0.16958 0.31101 0.18118 0.0
C1310 C 0.16513 0.32084 0.22941 0.0
C1311 C 0.12855 0.39383 0.33504 0.0
C1312 C 0.11493 0.38641 0.32105 0.0
C1313 C 0.14174 0.38536 0.34484 0.0
C1314 C 0.14149 0.36939 0.33989 0.0
C1315 C 0.12797 0.3621 0.32415 0.0
C1316 C 0.11484 0.37049 0.31511 0.0
C1317 C 0.15503 0.35995 0.35215 0.0
C1318 C 0.16002 0.35016 0.30447 0.0
C1319 C 0.16213 0.35947 0.41166 0.0
C1320 C 0.15723 0.36935 0.46419 0.0
C1321 C 0.14243 0.36853 0.48743 0.0
C1322 C 0.13789 0.37795 0.53684 0.0
C1323 C 0.1481 0.38815 0.56375 0.0
C1324 C 0.16288 0.3889 0.54141 0.0
C1325 C 0.16747 0.37951 0.49194 0.0
H1326 H 0.14457 0.39543 0.60202 0.0
H1327 H 0.18824 0.30172 0.12923 0.0
H1328 H 0.06435 0.02917 0.26039 0.0
H1329 H 0.06401 0.00913 0.18006 0.0
H1330 H 0.08126 0.04087 0.04341 0.0
H1331 H 0.08163 0.06091 0.12291 0.0
H1332 H 0.05528 0.02334 0.00397 0.0
H1333 H 0.10396 0.01763 0.09762 0.0
H1334 H 0.12229 0.01355 0.18274 0.0
H1335 H 0.10309 0.96968 0.22045 0.0
H1336 H 0.08413 0.97376 0.13751 0.0
H1337 H 0.07308 0.97332 0.75192 0.0
H1338 H 0.07251 0.99301 0.83314 0.0
H1339 H 0.06964 0.95823 0.97611 0.0
H1340 H 0.07118 0.9386 0.8951 0.0
H1341 H 0.08778 0.97755 0.01487 0.0
H1342 H 0.03884 0.98298 0.92173 0.0
H1343 H 0.02005 0.98726 0.83834 0.0
H1344 H 0.03902 0.03129 0.80077 0.0
H1345 H 0.0581 0.02717 0.88305 0.0
C1346 C 0.068 0.0319 0.21317 0.0
C1347 C 0.073 0.04665 0.1981 0.0
C1348 C 0.06786 0.02042 0.16746 0.0
C1349 C 0.07257 0.02356 0.10584 0.0
C1350 C 0.07748 0.03827 0.09062 0.0
C1351 C 0.07775 0.04968 0.13627 0.0
C1352 C 0.07228 0.01157 0.05679 0.0
C1353 C 0.06247 0.01337 0.00581 0.0
C1354 C 0.08139 0.99842 0.06043 0.0
C1355 C 0.09244 0.99613 0.11192 0.0
C1356 C 0.10341 0.00725 0.12493 0.0
C1357 C 0.11391 0.00493 0.17284 0.0
C1358 C 0.11374 0.99142 0.20746 0.0
C1359 C 0.10305 0.98021 0.19421 0.0
C1360 C 0.0924 0.98254 0.14686 0.0
C1361 C 0.07223 0.96993 0.80071 0.0
C1362 C 0.07217 0.95445 0.81725 0.0
C1363 C 0.07179 0.98119 0.84723 0.0
C1364 C 0.07074 0.97722 0.91117 0.0
C1365 C 0.07047 0.9617 0.92739 0.0
C1366 C 0.07132 0.95045 0.88104 0.0
C1367 C 0.07061 0.98912 0.96139 0.0
C1368 C 0.08042 0.98739 0.01281 0.0
C1369 C 0.06136 0.00229 0.95839 0.0
C1370 C 0.05004 0.00466 0.90807 0.0
C1371 C 0.03911 0.9935 0.89521 0.0
C1372 C 0.02839 0.99591 0.84818 0.0
C1373 C 0.02838 0.00951 0.8141 0.0
C1374 C 0.03908 0.02074 0.82702 0.0
C1375 C 0.04985 0.01837 0.87383 0.0
H1376 H 0.02005 0.01136 0.7778 0.0
H1377 H 0.12195 0.9896 0.24424 0.0
H1378 H 0.3701 0.77504 0.11282 0.0
H1379 H 0.34914 0.77478 0.18754 0.0
H1380 H 0.33836 0.72882 0.13296 0.0
H1381 H 0.35914 0.72907 0.05696 0.0
H1382 H 0.31691 0.76827 0.16457 0.0
H1383 H 0.33112 0.7111 0.27863 0.0
H1384 H 0.35325 0.69445 0.29286 0.0
H1385 H 0.3823 0.73351 0.29379 0.0
H1386 H 0.36034 0.7504 0.28073 0.0
H1387 H 0.25611 0.75053 0.36638 0.0
H1388 H 0.27581 0.7482 0.28678 0.0
H1389 H 0.30972 0.75369 0.43027 0.0
H1390 H 0.28999 0.75493 0.51052 0.0
H1391 H 0.31972 0.73454 0.35123 0.0
H1392 H 0.29583 0.78415 0.32507 0.0
H1393 H 0.27402 0.80102 0.30727 0.0
H1394 H 0.26512 0.77878 0.13154 0.0
H1395 H 0.28679 0.76169 0.14859 0.0
C1396 C 0.36323 0.7649 0.11641 0.0
C1397 C 0.36628 0.75207 0.0789 0.0
C1398 C 0.35122 0.76481 0.1589 0.0
C1399 C 0.34221 0.7518 0.16568 0.0
C1400 C 0.34518 0.73898 0.12831 0.0
C1401 C 0.35705 0.73915 0.08494 0.0
C1402 C 0.33006 0.75148 0.21349 0.0
C1403 C 0.31746 0.7609 0.20539 0.0
C1404 C 0.33088 0.74193 0.26679 0.0
C1405 C 0.3441 0.73197 0.27792 0.0
C1406 C 0.34222 0.71613 0.28231 0.0
C1407 C 0.35473 0.70666 0.29008 0.0
C1408 C 0.36917 0.71292 0.29371 0.0
C1409 C 0.37112 0.72868 0.29048 0.0
C1410 C 0.35864 0.7382 0.28292 0.0
C1411 C 0.26779 0.75111 0.3809 0.0
C1412 C 0.27154 0.75302 0.44454 0.0
C1413 C 0.27906 0.7499 0.33528 0.0
C1414 C 0.29433 0.75122 0.35193 0.0
C1415 C 0.29807 0.7527 0.41589 0.0
C1416 C 0.28679 0.75345 0.4618 0.0
C1417 C 0.3064 0.75144 0.30296 0.0
C1418 C 0.31903 0.74195 0.31058 0.0
C1419 C 0.30565 0.76105 0.24935 0.0
C1420 C 0.29287 0.77159 0.23834 0.0
C1421 C 0.2892 0.78285 0.28271 0.0
C1422 C 0.27686 0.79243 0.27277 0.0
C1423 C 0.26818 0.79095 0.21838 0.0
C1424 C 0.27185 0.77991 0.17367 0.0
C1425 C 0.28417 0.77029 0.18339 0.0
H1426 H 0.25863 0.79838 0.21082 0.0
H1427 H 0.37884 0.70555 0.29927 0.0
H1428 H 0.55302 0.06016 0.38228 0.0
H1429 H 0.5541 0.0399 0.46047 0.0
H1430 H 0.57987 0.01214 0.33248 0.0
H1431 H 0.579 0.03248 0.25397 0.0
H1432 H 0.54341 0.01207 0.46085 0.0
H1433 H 0.60342 0.98909 0.41514 0.0
H1434 H 0.62812 0.99843 0.37852 0.0
H1435 H 0.61714 0.04347 0.44217 0.0
H1436 H 0.59248 0.03434 0.4799 0.0
H1437 H 0.55143 0.94059 0.60934 0.0
H1438 H 0.55144 0.96152 0.53441 0.0
H1439 H 0.5836 0.98574 0.6487 0.0
H1440 H 0.58379 0.96466 0.7239 0.0
H1441 H 0.59127 0.98846 0.53105 0.0
H1442 H 0.54509 0.99547 0.64459 0.0
H1443 H 0.52059 0.98773 0.68883 0.0
H1444 H 0.5042 0.97775 0.50361 0.0
H1445 H 0.52869 0.98525 0.45833 0.0
C1446 C 0.55898 0.04978 0.37062 0.0
C1447 C 0.56595 0.04799 0.31166 0.0
C1448 C 0.55953 0.03816 0.41546 0.0
C1449 C 0.56715 0.0245 0.40275 0.0
C1450 C 0.57412 0.02265 0.34391 0.0
C1451 C 0.57357 0.03429 0.29893 0.0
C1452 C 0.56755 0.01215 0.45078 0.0
C1453 C 0.55389 0.00691 0.47609 0.0
C1454 C 0.5812 0.00551 0.47161 0.0
C1455 C 0.59605 0.01107 0.44967 0.0
C1456 C 0.60631 1.00098 0.42147 0.0
C1457 C 0.6203 0.00623 0.40051 0.0
C1458 C 0.62418 0.02154 0.40782 0.0
C1459 C 0.6141 0.03163 0.43631 0.0
C1460 C 0.60011 0.02642 0.4574 0.0
C1461 C 0.55853 0.95034 0.61873 0.0
C1462 C 0.56757 0.95094 0.67297 0.0
C1463 C 0.55846 0.96238 0.57583 0.0
C1464 C 0.56737 0.97536 0.58608 0.0
C1465 C 0.57661 0.97588 0.63965 0.0
C1466 C 0.57668 0.96382 0.68272 0.0
C1467 C 0.56712 0.98831 0.54077 0.0
C1468 C 0.58079 0.99362 0.5158 0.0
C1469 C 0.5535 0.99523 0.52114 0.0
C1470 C 0.53874 0.99082 0.54815 0.0
C1471 C 0.53628 0.99154 0.61335 0.0
C1472 C 0.5224 0.98721 0.6386 0.0
C1473 C 0.51085 0.98223 0.59907 0.0
C1474 C 0.51316 0.9816 0.53417 0.0
C1475 C 0.52703 0.98592 0.50868 0.0
H1476 H 0.50011 0.97887 0.61871 0.0
H1477 H 0.63501 0.02559 0.39152 0.0
H1478 H 0.37596 0.22973 0.85531 0.0
H1479 H 0.35498 0.23081 0.78132 0.0
H1480 H 0.33691 0.26971 0.87915 0.0
H1481 H 0.35783 0.2686 0.95428 0.0
H1482 H 0.32339 0.22927 0.8041 0.0
H1483 H 0.32343 0.29389 0.75156 0.0
H1484 H 0.34106 0.31551 0.75926 0.0
H1485 H 0.37852 0.28503 0.73858 0.0
H1486 H 0.36116 0.26343 0.72654 0.0
H1487 H 0.25795 0.24664 0.6325 0.0
H1488 H 0.27803 0.24794 0.71048 0.0
H1489 H 0.31003 0.25823 0.56376 0.0
H1490 H 0.28963 0.25773 0.48598 0.0
H1491 H 0.31711 0.27381 0.66306 0.0
H1492 H 0.30456 0.22068 0.6291 0.0
H1493 H 0.28721 0.19877 0.62473 0.0
H1494 H 0.27593 0.20526 0.81907 0.0
H1495 H 0.29312 0.22728 0.82447 0.0
C1496 C 0.36753 0.23852 0.8613 0.0
C1497 C 0.3686 0.24912 0.91067 0.0
C1498 C 0.35549 0.23905 0.81915 0.0
C1499 C 0.34441 0.25033 0.82474 0.0
C1500 C 0.34538 0.26092 0.87401 0.0
C1501 C 0.35733 0.26027 0.91682 0.0
C1502 C 0.33209 0.25121 0.77775 0.0
C1503 C 0.32197 0.23903 0.77338 0.0
C1504 C 0.33039 0.26388 0.73727 0.0
C1505 C 0.34095 0.27697 0.73934 0.0
C1506 C 0.33542 0.29183 0.7477 0.0
C1507 C 0.34538 0.30411 0.75248 0.0
C1508 C 0.36091 0.30166 0.74934 0.0
C1509 C 0.3665 0.28695 0.74065 0.0
C1510 C 0.3566 0.27469 0.73449 0.0
C1511 C 0.26925 0.24925 0.61703 0.0
C1512 C 0.27226 0.25189 0.5532 0.0
C1513 C 0.28076 0.24994 0.66158 0.0
C1514 C 0.29569 0.25275 0.64301 0.0
C1515 C 0.29864 0.25593 0.57938 0.0
C1516 C 0.287 0.25562 0.53491 0.0
C1517 C 0.30823 0.25188 0.6895 0.0
C1518 C 0.31845 0.26407 0.69383 0.0
C1519 C 0.3101 0.23915 0.72983 0.0
C1520 C 0.30005 0.22569 0.72701 0.0
C1521 C 0.29835 0.21745 0.67084 0.0
C1522 C 0.28855 0.20502 0.6682 0.0
C1523 C 0.28046 0.20065 0.72156 0.0
C1524 C 0.2822 0.20866 0.77779 0.0
C1525 C 0.29199 0.2211 0.78069 0.0
H1526 H 0.27285 0.19104 0.71937 0.0
H1527 H 0.3686 0.31115 0.75363 0.0
H1528 H 0.7566 0.27005 0.8317 0.0
H1529 H 0.77782 0.26902 0.75866 0.0
H1530 H 0.80026 0.23681 0.87958 0.0
H1531 H 0.77922 0.238 0.9534 0.0
H1532 H 0.81924 0.25773 0.84524 0.0
H1533 H 0.78418 0.22579 0.73623 0.0
H1534 H 0.76007 0.21881 0.68651 0.0
H1535 H 0.76432 0.25637 0.55866 0.0
H1536 H 0.78846 0.26355 0.60756 0.0
H1537 H 0.85889 0.23167 0.53155 0.0
H1538 H 0.83803 0.23109 0.60626 0.0
H1539 H 0.85178 0.2747 0.67953 0.0
H1540 H 0.87291 0.27517 0.60592 0.0
H1541 H 0.81452 0.24751 0.61711 0.0
H1542 H 0.84028 0.27976 0.82746 0.0
H1543 H 0.86351 0.28191 0.89051 0.0
H1544 H 0.87775 0.23788 0.82609 0.0
H1545 H 0.85469 0.23556 0.7622 0.0
C1546 C 0.76602 0.26268 0.8427 0.0
C1547 C 0.7662 0.25413 0.89867 0.0
C1548 C 0.77813 0.26204 0.80058 0.0
C1549 C 0.79064 0.25274 0.81318 0.0
C1550 C 0.79076 0.24409 0.86872 0.0
C1551 C 0.77869 0.24476 0.91092 0.0
C1552 C 0.80391 0.2525 0.77012 0.0
C1553 C 0.81819 0.25553 0.79527 0.0
C1554 C 0.80264 0.24946 0.70503 0.0
C1555 C 0.78806 0.24527 0.67586 0.0
C1556 C 0.77992 0.23261 0.69774 0.0
C1557 C 0.76628 0.22858 0.66955 0.0
C1558 C 0.76069 0.2371 0.61932 0.0
C1559 C 0.76869 0.24971 0.59729 0.0
C1560 C 0.78237 0.25375 0.62515 0.0
C1561 C 0.85756 0.24111 0.56377 0.0
C1562 C 0.8676 0.25349 0.5624 0.0
C1563 C 0.84557 0.24078 0.60656 0.0
C1564 C 0.84329 0.25279 0.64918 0.0
C1565 C 0.85338 0.26513 0.64819 0.0
C1566 C 0.86543 0.26544 0.60557 0.0
C1567 C 0.82997 0.25268 0.6923 0.0
C1568 C 0.81561 0.24976 0.66701 0.0
C1569 C 0.8312 0.25552 0.75764 0.0
C1570 C 0.84586 0.25757 0.78962 0.0
C1571 C 0.84849 0.27064 0.82611 0.0
C1572 C 0.86159 0.27188 0.86208 0.0
C1573 C 0.87206 0.26003 0.86239 0.0
C1574 C 0.86964 0.24707 0.82562 0.0
C1575 C 0.85661 0.24584 0.78914 0.0
H1576 H 0.882 0.26089 0.89143 0.0
H1577 H 0.75017 0.23389 0.59745 0.0
H1578 H 0.75827 0.73427 0.16343 0.0
H1579 H 0.779 0.73547 0.23822 0.0
H1580 H 0.80479 0.7624 0.10743 0.0
H1581 H 0.78399 0.76128 0.03181 0.0
H1582 H 0.82111 0.73824 0.16242 0.0
H1583 H 0.78824 0.77926 0.23072 0.0
H1584 H 0.76358 0.78945 0.26342 0.0
H1585 H 0.76255 0.75837 0.41903 0.0
H1586 H 0.7871 0.74785 0.38678 0.0
H1587 H 0.88016 0.75471 0.37631 0.0
H1588 H 0.86017 0.75552 0.29717 0.0
H1589 H 0.82764 0.74283 0.43872 0.0
H1590 H 0.8474 0.74348 0.51848 0.0
H1591 H 0.81458 0.76081 0.37409 0.0
H1592 H 0.84475 0.71831 0.31244 0.0
H1593 H 0.86685 0.70346 0.27828 0.0
H1594 H 0.8709 0.7313 0.11339 0.0
H1595 H 0.84912 0.74664 0.14749 0.0
C1596 C 0.7683 0.7405 0.15037 0.0
C1597 C 0.76941 0.74773 0.0915 0.0
C1598 C 0.78015 0.7412 0.19341 0.0
C1599 C 0.7934 0.74914 0.17869 0.0
C1600 C 0.79464 0.75625 0.1198 0.0
C1601 C 0.78272 0.75563 0.07673 0.0
C1602 C 0.80597 0.74988 0.22471 0.0
C1603 C 0.81984 0.74338 0.20848 0.0
C1604 C 0.80403 0.756 0.28559 0.0
C1605 C 0.78948 0.76271 0.30609 0.0
C1606 C 0.78273 0.77456 0.27178 0.0
C1607 C 0.76877 0.7804 0.29024 0.0
C1608 C 0.76148 0.77454 0.34321 0.0
C1609 C 0.7682 0.76291 0.37805 0.0
C1610 C 0.78215 0.75701 0.35973 0.0
C1611 C 0.86869 0.7522 0.39028 0.0
C1612 C 0.86526 0.74909 0.45338 0.0
C1613 C 0.85727 0.75248 0.34488 0.0
C1614 C 0.84229 0.74892 0.36102 0.0
C1615 C 0.83899 0.74571 0.42441 0.0
C1616 C 0.85029 0.74603 0.47016 0.0
C1617 C 0.82999 0.7489 0.31276 0.0
C1618 C 0.81608 0.75563 0.32828 0.0
C1619 C 0.83176 0.74246 0.25188 0.0
C1620 C 0.84537 0.73373 0.23294 0.0
C1621 C 0.85048 0.72142 0.2694 0.0
C1622 C 0.86295 0.71291 0.24999 0.0
C1623 C 0.87026 0.71644 0.19373 0.0
C1624 C 0.86521 0.72857 0.15695 0.0
C1625 C 0.85285 0.73723 0.17646 0.0
H1626 H 0.87978 0.70972 0.17838 0.0
H1627 H 0.75065 0.77903 0.35731 0.0
H1628 H 0.55812 0.53171 0.73707 0.0
H1629 H 0.55815 0.51193 0.65549 0.0
H1630 H 0.58043 0.54273 0.52811 0.0
H1631 H 0.58078 0.56229 0.60935 0.0
H1632 H 0.55519 0.52749 0.47578 0.0
H1633 H 0.59988 0.51707 0.59432 0.0
H1634 H 0.61518 0.5108 0.68723 0.0
H1635 H 0.59161 0.46845 0.70758 0.0
H1636 H 0.57565 0.47476 0.6165 0.0
H1637 H 0.57496 0.4771 0.22862 0.0
H1638 H 0.57433 0.49639 0.31147 0.0
H1639 H 0.56488 0.46141 0.44863 0.0
H1640 H 0.56678 0.44207 0.36647 0.0
H1641 H 0.5831 0.47893 0.49817 0.0
H1642 H 0.53736 0.4894 0.38417 0.0
H1643 H 0.52203 0.49528 0.29064 0.0
H1644 H 0.54708 0.53651 0.26193 0.0
H1645 H 0.56261 0.5308 0.35504 0.0
C1646 C 0.56302 0.53425 0.69168 0.0
C1647 C 0.56945 0.5486 0.67979 0.0
C1648 C 0.56307 0.52293 0.64523 0.0
C1649 C 0.56934 0.52585 0.58582 0.0
C1650 C 0.57555 0.54023 0.57361 0.0
C1651 C 0.57576 0.5514 0.62026 0.0
C1652 C 0.56938 0.51404 0.53591 0.0
C1653 C 0.56135 0.51688 0.48042 0.0
C1654 C 0.57717 0.50008 0.54265 0.0
C1655 C 0.58635 0.49654 0.5991 0.0
C1656 C 0.5977 0.50658 0.61939 0.0
C1657 C 0.6065 0.503 0.67177 0.0
C1658 C 0.60425 0.4893 0.70372 0.0
C1659 C 0.59318 0.47915 0.68335 0.0
C1660 C 0.58422 0.48274 0.63145 0.0
C1661 C 0.57265 0.4736 0.27647 0.0
C1662 C 0.57082 0.45815 0.29119 0.0
C1663 C 0.57217 0.48465 0.32389 0.0
C1664 C 0.56919 0.48051 0.38663 0.0
C1665 C 0.5672 0.465 0.40091 0.0
C1666 C 0.5682 0.45394 0.35388 0.0
C1667 C 0.56866 0.49218 0.43779 0.0
C1668 C 0.5767 0.48939 0.49357 0.0
C1669 C 0.5607 0.5061 0.43171 0.0
C1670 C 0.55124 0.5096 0.37618 0.0
C1671 C 0.53964 0.49968 0.35771 0.0
C1672 C 0.5309 0.50299 0.30482 0.0
C1673 C 0.5336 0.51624 0.27027 0.0
C1674 C 0.545 0.52624 0.28868 0.0
C1675 C 0.55376 0.52299 0.34154 0.0
H1676 H 0.52683 0.51877 0.22931 0.0
H1677 H 0.61115 0.4865 0.74398 0.0
H1678 H 0.05422 0.56139 0.89439 0.0
H1679 H 0.05722 0.54237 0.97658 0.0
H1680 H 0.08021 0.51275 0.84684 0.0
H1681 H 0.07716 0.53175 0.76346 0.0
H1682 H 0.06048 0.49692 0.91296 0.0
H1683 H 0.09867 0.53418 0.96797 0.0
H1684 H 0.10761 0.56014 0.99139 0.0
H1685 H 0.07694 0.56301 0.14695 0.0
H1686 H 0.06768 0.53713 0.124 0.0
H1687 H 0.08041 0.4431 0.13476 0.0
H1688 H 0.08443 0.46403 0.06076 0.0
H1689 H 0.06063 0.49452 0.18501 0.0
H1690 H 0.05775 0.47378 0.26157 0.0
H1691 H 0.08168 0.50991 0.12207 0.0
H1692 H 0.04132 0.47623 0.06545 0.0
H1693 H 0.03237 0.44973 0.05739 0.0
H1694 H 0.06512 0.44076 0.91369 0.0
H1695 H 0.07439 0.46721 0.92141 0.0
C1696 C 0.05992 0.55084 0.88301 0.0
C1697 C 0.06546 0.54812 0.82208 0.0
C1698 C 0.06166 0.53998 0.93034 0.0
C1699 C 0.06904 0.52617 0.91834 0.0
C1700 C 0.07449 0.52334 0.85743 0.0
C1701 C 0.07277 0.53423 0.80981 0.0
C1702 C 0.07071 0.51459 0.96907 0.0
C1703 C 0.06538 0.49975 0.95814 0.0
C1704 C 0.07658 0.51831 0.02922 0.0
C1705 C 0.08245 0.53372 0.04408 0.0
C1706 C 0.09381 0.54035 0.00708 0.0
C1707 C 0.09893 0.55506 0.02026 0.0
C1708 C 0.09285 0.56321 0.07061 0.0
C1709 C 0.08168 0.55666 0.10807 0.0
C1710 C 0.0765 0.54196 0.09505 0.0
C1711 C 0.07635 0.45437 0.14668 0.0
C1712 C 0.06863 0.45689 0.20315 0.0
C1713 C 0.07859 0.4663 0.10444 0.0
C1714 C 0.07241 0.48076 0.11634 0.0
C1715 C 0.06543 0.48348 0.17456 0.0
C1716 C 0.0637 0.47163 0.21802 0.0
C1717 C 0.07168 0.49235 0.06537 0.0
C1718 C 0.07698 0.50713 0.07646 0.0
C1719 C 0.06549 0.48874 0.00587 0.0
C1720 C 0.05855 0.47366 0.99406 0.0
C1721 C 0.04649 0.46864 0.03162 0.0
C1722 C 0.04149 0.4536 0.02766 0.0
C1723 C 0.04829 0.44354 0.9856 0.0
C1724 C 0.05996 0.44855 0.94664 0.0
C1725 C 0.06503 0.4636 0.95047 0.0
H1726 H 0.04432 0.43195 0.98259 0.0
H1727 H 0.09681 0.5746 0.08063 0.0
H1728 H 0.06351 0.11328 0.02308 0.0
H1729 H 0.06416 0.10532 0.91275 0.0
H1730 H 0.10794 0.08524 0.9416 0.0
H1731 H 0.1074 0.09331 0.0516 0.0
H1732 H 0.10627 0.10138 0.83166 0.0
H1733 H 0.07755 0.06337 0.94113 0.0
H1734 H 0.05708 0.05301 0.00683 0.0
H1735 H 0.02425 0.0697 0.87625 0.0
H1736 H 0.04442 0.08056 0.8105 0.0
H1737 H 0.10847 0.05989 0.54755 0.0
H1738 H 0.10791 0.06447 0.66096 0.0
H1739 H 0.06398 0.08498 0.64336 0.0
H1740 H 0.06434 0.08012 0.53031 0.0
H1741 H 0.06635 0.06734 0.74894 0.0
H1742 H 0.09433 0.10698 0.64465 0.0
H1743 H 0.1143 0.11676 0.5749 0.0
H1744 H 0.14801 0.09683 0.69372 0.0
H1745 H 0.12822 0.08671 0.76364 0.0
C1746 C 0.07338 0.10743 0.00551 0.0
C1747 C 0.08541 0.10388 0.04579 0.0
C1748 C 0.07366 0.10274 0.9428 0.0
C1749 C 0.08599 0.09449 0.91945 0.0
C1750 C 0.09828 0.0915 0.95889 0.0
C1751 C 0.09795 0.09608 0.0216 0.0
C1752 C 0.08609 0.08888 0.85396 0.0
C1753 C 0.09765 0.09378 0.81381 0.0
C1754 C 0.07468 0.07915 0.83057 0.0
C1755 C 0.06253 0.07296 0.87118 0.0
C1756 C 0.06597 0.06503 0.92679 0.0
C1757 C 0.05442 0.05902 0.96396 0.0
C1758 C 0.03941 0.06068 0.94573 0.0
C1759 C 0.03589 0.06842 0.89037 0.0
C1760 C 0.04737 0.07454 0.85318 0.0
C1761 C 0.09856 0.06504 0.5681 0.0
C1762 C 0.08651 0.0698 0.53012 0.0
C1763 C 0.0983 0.06776 0.63272 0.0
C1764 C 0.086 0.07528 0.66018 0.0
C1765 C 0.0736 0.07923 0.62294 0.0
C1766 C 0.07387 0.07656 0.55842 0.0
C1767 C 0.08641 0.07996 0.72683 0.0
C1768 C 0.07498 0.07489 0.76709 0.0
C1769 C 0.09786 0.0896 0.75029 0.0
C1770 C 0.10979 0.09595 0.70902 0.0
C1771 C 0.106 0.1046 0.65569 0.0
C1772 C 0.11728 0.11021 0.61614 0.0
C1773 C 0.13241 0.10738 0.62978 0.0
C1774 C 0.13629 0.09899 0.68315 0.0
C1775 C 0.12504 0.09332 0.72278 0.0
H1776 H 0.14113 0.11172 0.59906 0.0
H1777 H 0.03051 0.05595 0.97449 0.0
H1778 H 0.22406 0.78954 0.28991 0.0
H1779 H 0.23141 0.79172 0.17944 0.0
H1780 H 0.21455 0.74645 0.1447 0.0
H1781 H 0.20716 0.74425 0.25545 0.0
H1782 H 0.24439 0.75174 0.10114 0.0
H1783 H 0.19521 0.77511 0.09176 0.0
H1784 H 0.17559 0.79343 0.12341 0.0
H1785 H 0.20467 0.83062 0.07433 0.0
H1786 H 0.22456 0.81251 0.04323 0.0
H1787 H 0.24075 0.74894 0.76938 0.0
H1788 H 0.23704 0.74837 0.88315 0.0
H1789 H 0.25129 0.79523 0.8954 0.0
H1790 H 0.25483 0.79588 0.78126 0.0
H1791 H 0.22459 0.79054 0.9533 0.0
H1792 H 0.27321 0.76834 0.95831 0.0
H1793 H 0.29384 0.75091 0.92948 0.0
H1794 H 0.26733 0.71267 0.98907 0.0
H1795 H 0.24646 0.72987 0.01754 0.0
C1796 C 0.2218 0.78013 0.25847 0.0
C1797 C 0.21504 0.76673 0.28093 0.0
C1798 C 0.22597 0.78139 0.19557 0.0
C1799 C 0.22353 0.76923 0.15425 0.0
C1800 C 0.21652 0.75594 0.17615 0.0
C1801 C 0.21217 0.75475 0.23903 0.0
C1802 C 0.22877 0.77023 0.0886 0.0
C1803 C 0.23992 0.76006 0.06838 0.0
C1804 C 0.22339 0.78156 0.04718 0.0
C1805 C 0.21143 0.79245 0.06582 0.0
C1806 C 0.19747 0.7872 0.08827 0.0
C1807 C 0.18629 0.79754 0.106 0.0
C1808 C 0.1889 0.81318 0.10106 0.0
C1809 C 0.20268 0.8185 0.07823 0.0
C1810 C 0.2139 0.8082 0.06051 0.0
C1811 C 0.24323 0.75905 0.7965 0.0
C1812 C 0.248 0.77247 0.76662 0.0
C1813 C 0.24124 0.75869 0.86146 0.0
C1814 C 0.24396 0.77174 0.89765 0.0
C1815 C 0.24919 0.78503 0.86821 0.0
C1816 C 0.25129 0.78536 0.80319 0.0
C1817 C 0.24003 0.77182 0.96514 0.0
C1818 C 0.22913 0.78224 0.98593 0.0
C1819 C 0.24577 0.76082 0.00729 0.0
C1820 C 0.2582 0.75039 0.98945 0.0
C1821 C 0.27171 0.75621 0.96466 0.0
C1822 C 0.28347 0.74637 0.94855 0.0
C1823 C 0.28188 0.73069 0.95727 0.0
C1824 C 0.26854 0.72482 0.98225 0.0
C1825 C 0.25675 0.73461 -0.00154 0.0
H1826 H 0.291 0.72309 0.94481 0.0
H1827 H 0.18022 0.82117 0.11479 0.0
H1828 H 0.57435 0.91147 0.00291 0.0
H1829 H 0.57406 0.90607 0.11526 0.0
H1830 H 0.53725 0.93749 0.14007 0.0
H1831 H 0.53706 0.94258 0.02691 0.0
H1832 H 0.56254 0.93766 0.23624 0.0
H1833 H 0.52661 0.9048 0.13142 0.0
H1834 H 0.51914 0.88687 0.04794 0.0
H1835 H 0.55329 0.8555 0.10814 0.0
H1836 H 0.56113 0.87339 0.19132 0.0
H1837 H 0.53456 0.91145 0.52737 0.0
H1838 H 0.53587 0.91875 0.41719 0.0
H1839 H 0.56849 0.88335 0.38321 0.0
H1840 H 0.56779 0.87634 0.49435 0.0
H1841 H 0.54555 0.88546 0.29123 0.0
H1842 H 0.58146 0.91629 0.39482 0.0
H1843 H 0.59256 0.93426 0.47052 0.0
H1844 H 0.56189 0.96906 0.41004 0.0
H1845 H 0.55033 0.95116 0.33477 0.0
C1846 C 0.5662 0.91727 0.03215 0.0
C1847 C 0.5555 0.92719 0.0058 0.0
C1848 C 0.56614 0.91426 0.0963 0.0
C1849 C 0.55551 0.92126 0.13527 0.0
C1850 C 0.5455 0.93199 0.11025 0.0
C1851 C 0.54545 0.93491 0.04572 0.0
C1852 C 0.55414 0.91636 0.20107 0.0
C1853 C 0.55855 0.92638 0.24868 0.0
C1854 C 0.54947 0.90142 0.21625 0.0
C1855 C 0.54455 0.8905 0.16721 0.0
C1856 C 0.5326 0.89413 0.12655 0.0
C1857 C 0.52829 0.88397 0.07933 0.0
C1858 C 0.53576 0.87007 0.07264 0.0
C1859 C 0.54752 0.86628 0.11333 0.0
C1860 C 0.5519 0.87642 0.16056 0.0
C1861 C 0.5421 0.90523 0.49678 0.0
C1862 C 0.5513 0.89348 0.52017 0.0
C1863 C 0.54277 0.9094 0.43377 0.0
C1864 C 0.55246 0.90175 0.39268 0.0
C1865 C 0.56101 0.88943 0.41464 0.0
C1866 C 0.56051 0.88537 0.47806 0.0
C1867 C 0.55378 0.90684 0.32697 0.0
C1868 C 0.54939 0.89682 0.27919 0.0
C1869 C 0.55866 0.92174 0.31168 0.0
C1870 C 0.56489 0.9323 0.35961 0.0
C1871 C 0.57687 0.92768 0.3984 0.0
C1872 C 0.5833 0.93788 0.44102 0.0
C1873 C 0.57797 0.95279 0.44486 0.0
C1874 C 0.56603 0.9575 0.40679 0.0
C1875 C 0.55951 0.94732 0.36424 0.0
H1876 H 0.58313 0.9607 0.47726 0.0
H1877 H 0.53241 0.86223 0.03601 0.0
H1878 H 0.4012 0.25948 0.22517 0.0
H1879 H 0.40735 0.26182 0.33649 0.0
H1880 H 0.38886 0.21713 0.37031 0.0
H1881 H 0.38313 0.21456 0.25823 0.0
H1882 H 0.39315 0.26141 0.4444 0.0
H1883 H 0.41233 0.1983 0.46926 0.0
H1884 H 0.42238 0.17794 0.40115 0.0
H1885 H 0.44008 0.21144 0.27414 0.0
H1886 H 0.43036 0.23196 0.34192 0.0
H1887 H 0.40029 0.24216 0.76111 0.0
H1888 H 0.3946 0.24348 0.64976 0.0
H1889 H 0.44183 0.2387 0.60606 0.0
H1890 H 0.44758 0.23676 0.71857 0.0
H1891 H 0.42583 0.22092 0.53291 0.0
H1892 H 0.42419 0.27262 0.59021 0.0
H1893 H 0.41767 0.2962 0.64663 0.0
H1894 H 0.37116 0.29032 0.59748 0.0
H1895 H 0.37731 0.26646 0.54232 0.0
C1896 C 0.39831 0.25023 0.25657 0.0
C1897 C 0.39193 0.23675 0.23318 0.0
C1898 C 0.40174 0.25161 0.32007 0.0
C1899 C 0.39882 0.23952 0.3612 0.0
C1900 C 0.39142 0.22647 0.33888 0.0
C1901 C 0.38801 0.22508 0.27514 0.0
C1902 C 0.40445 0.24021 0.42635 0.0
C1903 C 0.40021 0.25254 0.4641 0.0
C1904 C 0.41427 0.22898 0.45056 0.0
C1905 C 0.42047 0.21666 0.41041 0.0
C1906 C 0.41843 0.20131 0.42699 0.0
C1907 C 0.42407 0.18975 0.3884 0.0
C1908 C 0.43183 0.1934 0.33329 0.0
C1909 C 0.43403 0.20862 0.31675 0.0
C1910 C 0.42846 0.22022 0.35521 0.0
C1911 C 0.40949 0.24119 0.72802 0.0
C1912 C 0.4244 0.23914 0.74862 0.0
C1913 C 0.40622 0.24218 0.66427 0.0
C1914 C 0.4178 0.24134 0.61968 0.0
C1915 C 0.43273 0.2394 0.63987 0.0
C1916 C 0.43602 0.23838 0.70397 0.0
C1917 C 0.41408 0.2419 0.55205 0.0
C1918 C 0.41872 0.2298 0.51359 0.0
C1919 C 0.40511 0.2537 0.52643 0.0
C1920 C 0.40121 0.26764 0.56247 0.0
C1921 C 0.41253 0.27621 0.59224 0.0
C1922 C 0.40891 0.28966 0.62386 0.0
C1923 C 0.39402 0.29477 0.62552 0.0
C1924 C 0.3827 0.28636 0.59604 0.0
C1925 C 0.38624 0.27284 0.56476 0.0
H1926 H 0.39125 0.30523 0.64981 0.0
H1927 H 0.43619 0.18446 0.30345 0.0
H1928 H 0.11305 0.93461 0.47811 0.0
H1929 H 0.11287 0.92991 0.36453 0.0
H1930 H 0.06503 0.92151 0.37179 0.0
H1931 H 0.06523 0.92609 0.48542 0.0
H1932 H 0.10409 0.90249 0.30888 0.0
H1933 H 0.05084 0.93614 0.22558 0.0
H1934 H 0.03754 0.96011 0.2491 0.0
H1935 H 0.07782 0.97858 0.33037 0.0
H1936 H 0.09139 0.95481 0.30693 0.0
H1937 H 0.07826 0.87649 0.00785 0.0
H1938 H 0.08036 0.88337 0.1192 0.0
H1939 H 0.09359 0.92889 0.06685 0.0
H1940 H 0.09082 0.92249 0.95738 0.0
H1941 H 0.07318 0.93024 0.15234 0.0
H1942 H 0.11884 0.90226 0.12088 0.0
H1943 H 0.13483 0.88034 0.093 0.0
H1944 H 0.11383 0.85358 0.23729 0.0
H1945 H 0.09749 0.87524 0.26524 0.0
C1946 C 0.10248 0.93208 0.45506 0.0
C1947 C 0.08913 0.93073 0.48995 0.0
C1948 C 0.10241 0.92928 0.39058 0.0
C1949 C 0.08894 0.92539 0.3602 0.0
C1950 C 0.07551 0.92459 0.39459 0.0
C1951 C 0.07562 0.92717 0.45915 0.0
C1952 C 0.08902 0.92131 0.29315 0.0
C1953 C 0.09735 0.90853 0.27444 0.0
C1954 C 0.08034 0.92938 0.24868 0.0
C1955 C 0.07211 0.94358 0.26497 0.0
C1956 C 0.05687 0.9453 0.24854 0.0
C1957 C 0.04928 0.95887 0.26185 0.0
C1958 C 0.05682 0.97085 0.29138 0.0
C1959 C 0.07196 0.96926 0.30783 0.0
C1960 C 0.07959 0.95571 0.29474 0.0
C1961 C 0.08158 0.88795 0.0202 0.0
C1962 C 0.08447 0.89884 0.97331 0.0
C1963 C 0.08291 0.89183 0.08374 0.0
C1964 C 0.08724 0.90662 0.10115 0.0
C1965 C 0.09025 0.91741 0.05449 0.0
C1966 C 0.08883 0.91361 0.99148 0.0
C1967 C 0.08812 0.91126 0.16778 0.0
C1968 C 0.07989 0.92413 0.18665 0.0
C1969 C 0.09714 0.90345 0.21205 0.0
C1970 C 0.10678 0.89032 0.19452 0.0
C1971 C 0.11748 0.89164 0.14613 0.0
C1972 C 0.12664 0.87927 0.13041 0.0
C1973 C 0.1253 0.86555 0.16316 0.0
C1974 C 0.11482 0.86419 0.21178 0.0
C1975 C 0.1056 0.87651 0.22755 0.0
H1976 H 0.13243 0.856 0.151 0.0
H1977 H 0.05094 0.98136 0.3014 0.0
H1978 H 0.41617 0.78678 0.75843 0.0
H1979 H 0.42136 0.78657 0.6461 0.0
H1980 H 0.37625 0.77051 0.6102 0.0
H1981 H 0.37122 0.77008 0.72324 0.0
H1982 H 0.39683 0.75252 0.55802 0.0
H1983 H 0.38776 0.80626 0.56442 0.0
H1984 H 0.39074 0.83247 0.60383 0.0
H1985 H 0.4378 0.83134 0.55792 0.0
H1986 H 0.43515 0.80504 0.51895 0.0
H1987 H 0.39875 0.75717 0.22793 0.0
H1988 H 0.39345 0.76035 0.33944 0.0
H1989 H 0.43964 0.77346 0.37162 0.0
H1990 H 0.44496 0.77051 0.25883 0.0
H1991 H 0.4191 0.79319 0.4257 0.0
H1992 H 0.42799 0.73972 0.41694 0.0
H1993 H 0.42525 0.71325 0.38056 0.0
H1994 H 0.37865 0.71355 0.43424 0.0
H1995 H 0.38096 0.7402 0.46905 0.0
C1996 C 0.40732 0.78331 0.72659 0.0
C1997 C 0.39339 0.77814 0.74949 0.0
C1998 C 0.41024 0.7834 0.66236 0.0
C1999 C 0.39918 0.77853 0.61994 0.0
C2000 C 0.38492 0.77429 0.64239 0.0
C2001 C 0.38202 0.77415 0.70679 0.0
C2002 C 0.4031 0.77618 0.5533 0.0
C2003 C 0.40141 0.76149 0.52859 0.0
C2004 C 0.40967 0.78776 0.51617 0.0
C2005 C 0.41127 0.80362 0.53922 0.0
C2006 C 0.39877 0.81156 0.56314 0.0
C2007 C 0.40039 0.82644 0.58532 0.0
C2008 C 0.41445 0.83356 0.58351 0.0
C2009 C 0.42692 0.82581 0.55933 0.0
C2010 C 0.42535 0.81092 0.5371 0.0
C2011 C 0.40778 0.76073 0.25877 0.0
C2012 C 0.42224 0.76375 0.235 0.0
C2013 C 0.40477 0.76242 0.32243 0.0
C2014 C 0.41617 0.76708 0.36353 0.0
C2015 C 0.43072 0.76984 0.34032 0.0
C2016 C 0.43377 0.76806 0.27634 0.0
C2017 C 0.41261 0.76959 0.43031 0.0
C2018 C 0.41444 0.78426 0.45509 0.0
C2019 C 0.40614 0.75799 0.46763 0.0
C2020 C 0.40462 0.74205 0.44509 0.0
C2021 C 0.41709 0.73424 0.42016 0.0
C2022 C 0.41563 0.71918 0.39987 0.0
C2023 C 0.40178 0.71173 0.40496 0.0
C2024 C 0.38937 0.71934 0.43027 0.0
C2025 C 0.39074 0.73444 0.45009 0.0
H2026 H 0.40068 0.70006 0.3894 0.0
H2027 H 0.41569 0.84508 0.60073 0.0
H2028 H 0.57139 0.11722 0.48932 0.0
H2029 H 0.57016 0.11032 0.60072 0.0
H2030 H 0.52759 0.08798 0.56944 0.0
H2031 H 0.52876 0.09491 0.45802 0.0
H2032 H 0.52892 0.10493 0.68341 0.0
H2033 H 0.55695 0.06718 0.56933 0.0
H2034 H 0.57686 0.05828 0.49755 0.0
H2035 H 0.6107 0.07572 0.62209 0.0
H2036 H 0.59097 0.08514 0.6939 0.0
H2037 H 0.52829 0.06141 0.96311 0.0
H2038 H 0.52841 0.06662 0.85 0.0
H2039 H 0.57209 0.08767 0.86707 0.0
H2040 H 0.57212 0.08226 0.97976 0.0
H2041 H 0.56948 0.07061 0.75896 0.0
H2042 H 0.54161 0.10836 0.87322 0.0
H2043 H 0.52188 0.11663 0.94705 0.0
H2044 H 0.48779 0.09963 0.82261 0.0
H2045 H 0.50736 0.09058 0.74929 0.0
C2046 C 0.56162 0.11115 0.5065 0.0
C2047 C 0.55021 0.10651 0.46506 0.0
C2048 C 0.56098 0.10712 0.56996 0.0
C2049 C 0.54886 0.0985 0.59298 0.0
C2050 C 0.53704 0.0946 0.55247 0.0
C2051 C 0.53776 0.09848 0.48892 0.0
C2052 C 0.54903 0.09267 0.65819 0.0
C2053 C 0.53767 0.09728 0.69984 0.0
C2054 C 0.56057 0.08284 0.67951 0.0
C2055 C 0.57247 0.07702 0.63671 0.0
C2056 C 0.56863 0.06925 0.58118 0.0
C2057 C 0.57988 0.06409 0.54051 0.0
C2058 C 0.59503 0.06642 0.55524 0.0
C2059 C 0.59896 0.07393 0.61071 0.0
C2060 C 0.58774 0.07921 0.65139 0.0
C2061 C 0.53805 0.06681 0.94243 0.0
C2062 C 0.55013 0.07159 0.98022 0.0
C2063 C 0.53807 0.06987 0.87798 0.0
C2064 C 0.55017 0.07772 0.85047 0.0
C2065 C 0.56263 0.08165 0.88746 0.0
C2066 C 0.56258 0.07867 0.9518 0.0
C2067 C 0.54942 0.08292 0.78439 0.0
C2068 C 0.56068 0.0782 0.74253 0.0
C2069 C 0.5378 0.09269 0.76301 0.0
C2070 C 0.52599 0.0986 0.80605 0.0
C2071 C 0.52992 0.10624 0.8618 0.0
C2072 C 0.51876 0.11106 0.90363 0.0
C2073 C 0.50359 0.10869 0.88949 0.0
C2074 C 0.49955 0.10145 0.83353 0.0
C2075 C 0.51068 0.0964 0.79194 0.0
H2076 H 0.49496 0.11248 0.92183 0.0
H2077 H 0.60372 0.0624 0.5237 0.0
H2078 H 0.19472 0.22439 0.73057 0.0
H2079 H 0.19995 0.2196 0.84232 0.0
H2080 H 0.24422 0.2392 0.82005 0.0
H2081 H 0.23902 0.2438 0.70936 0.0
H2082 H 0.24607 0.21329 0.88138 0.0
H2083 H 0.2154 0.25845 0.89297 0.0
H2084 H 0.19275 0.27407 0.87449 0.0
H2085 H 0.16587 0.24176 0.97612 0.0
H2086 H 0.18834 0.22584 0.99451 0.0
H2087 H 0.26693 0.23226 0.19592 0.0
H2088 H 0.26101 0.23039 0.08369 0.0
H2089 H 0.21869 0.20884 0.12876 0.0
H2090 H 0.22455 0.21078 0.24055 0.0
H2091 H 0.21459 0.23295 0.05579 0.0
H2092 H 0.24712 0.18948 0.05479 0.0
H2093 H 0.27042 0.17487 0.07279 0.0
H2094 H 0.29472 0.20511 0.95095 0.0
H2095 H 0.27166 0.22009 0.93319 0.0
C2096 C 0.20545 0.2278 0.7501 0.0
C2097 C 0.21655 0.23431 0.71159 0.0
C2098 C 0.20846 0.22505 0.81362 0.0
C2099 C 0.2225 0.22901 0.83936 0.0
C2100 C 0.23339 0.23588 0.80105 0.0
C2101 C 0.23042 0.2385 0.73788 0.0
C2102 C 0.22612 0.22592 0.90595 0.0
C2103 C 0.23926 0.21767 0.91965 0.0
C2104 C 0.21702 0.23134 0.95561 0.0
C2105 C 0.2035 0.24087 0.94443 0.0
C2106 C 0.20463 0.25461 0.91089 0.0
C2107 C 0.19183 0.26353 0.90053 0.0
C2108 C 0.17787 0.25888 0.92393 0.0
C2109 C 0.17668 0.24533 0.9579 0.0
C2110 C 0.18944 0.23636 0.96833 0.0
C2111 C 0.25656 0.22679 0.18157 0.0
C2112 C 0.24609 0.22188 0.22662 0.0
C2113 C 0.25319 0.2257 0.11761 0.0
C2114 C 0.23938 0.2195 0.09798 0.0
C2115 C 0.22934 0.21376 0.14295 0.0
C2116 C 0.23267 0.21493 0.20669 0.0
C2117 C 0.23469 0.22049 0.03144 0.0
C2118 C 0.22133 0.22837 0.01768 0.0
C2119 C 0.2437 0.2149 0.98179 0.0
C2120 C 0.25766 0.20601 0.99316 0.0
C2121 C 0.25746 0.19313 0.0324 0.0
C2122 C 0.27063 0.18476 0.04247 0.0
C2123 C 0.28405 0.18908 0.0132 0.0
C2124 C 0.28433 0.20179 0.97374 0.0
C2125 C 0.27121 0.21022 0.96366 0.0
H2126 H 0.29422 0.18257 0.02097 0.0
H2127 H 0.16798 0.26581 0.91589 0.0
H2128 H 0.91058 0.29193 0.22773 0.0
H2129 H 0.91671 0.29157 0.11591 0.0
H2130 H 0.87908 0.26165 0.08153 0.0
H2131 H 0.87307 0.26178 0.19414 0.0
H2132 H 0.9053 0.25071 0.03242 0.0
H2133 H 0.87802 0.29761 0.02782 0.0
H2134 H 0.87118 0.32352 0.06199 0.0
H2135 H 0.91591 0.33908 0.0203 0.0
H2136 H 0.92308 0.3132 0.98661 0.0
H2137 H 0.90576 0.25312 0.70149 0.0
H2138 H 0.90094 0.2538 0.81395 0.0
H2139 H 0.93794 0.285 0.83916 0.0
H2140 H 0.94307 0.28395 0.72538 0.0
H2141 H 0.91257 0.29551 0.89386 0.0
H2142 H 0.93947 0.24807 0.89556 0.0
H2143 H 0.94548 0.22211 0.85937 0.0
H2144 H 0.90065 0.20751 0.90489 0.0
H2145 H 0.89431 0.23343 0.9407 0.0
C2146 C 0.90352 0.28542 0.19617 0.0
C2147 C 0.89143 0.27677 0.21947 0.0
C2148 C 0.90696 0.28531 0.1323 0.0
C2149 C 0.89835 0.27658 0.09051 0.0
C2150 C 0.88586 0.26845 0.11318 0.0
C2151 C 0.88236 0.26863 0.17722 0.0
C2152 C 0.90315 0.27505 0.02426 0.0
C2153 C 0.9067 0.26048 0.00179 0.0
C2154 C 0.90539 0.28785 0.98513 0.0
C2155 C 0.90112 0.30343 0.00528 0.0
C2156 C 0.88643 0.30653 0.02645 0.0
C2157 C 0.88249 0.32121 0.04561 0.0
C2158 C 0.89312 0.33293 0.04348 0.0
C2159 C 0.9077 0.32999 0.022 0.0
C2160 C 0.9117 0.31532 0.00279 0.0
C2161 C 0.91294 0.25998 0.7313 0.0
C2162 C 0.9247 0.26856 0.70541 0.0
C2163 C 0.91018 0.26038 0.7955 0.0
C2164 C 0.91897 0.26954 0.83503 0.0
C2165 C 0.93101 0.27786 0.80941 0.0
C2166 C 0.93398 0.27722 0.74488 0.0
C2167 C 0.91476 0.27117 0.90199 0.0
C2168 C 0.91129 0.28575 0.92463 0.0
C2169 C 0.91256 0.25837 0.94128 0.0
C2170 C 0.9164 0.24271 0.92057 0.0
C2171 C 0.93087 0.23934 0.89758 0.0
C2172 C 0.93434 0.22463 0.87718 0.0
C2173 C 0.92345 0.21317 0.87978 0.0
C2174 C 0.90908 0.21639 0.90295 0.0
C2175 C 0.90555 0.23108 0.92344 0.0
H2176 H 0.92615 0.20179 0.8639 0.0
H2177 H 0.89004 0.34429 0.05834 0.0
H2178 H 0.76237 0.72969 0.74374 0.0
H2179 H 0.75676 0.73133 0.63124 0.0
H2180 H 0.7123 0.71328 0.66531 0.0
H2181 H 0.718 0.71135 0.77739 0.0
H2182 H 0.72414 0.7027 0.55568 0.0
H2183 H 0.71653 0.75051 0.65814 0.0
H2184 H 0.72309 0.77265 0.72387 0.0
H2185 H 0.75921 0.78393 0.59804 0.0
H2186 H 0.75298 0.76172 0.53201 0.0
H2187 H 0.69001 0.73169 0.27683 0.0
H2188 H 0.69508 0.72824 0.38954 0.0
H2189 H 0.74108 0.7424 0.36068 0.0
H2190 H 0.73605 0.7459 0.24879 0.0
H2191 H 0.72755 0.75501 0.46836 0.0
H2192 H 0.73429 0.70633 0.366 0.0
H2193 H 0.72622 0.68468 0.30048 0.0
H2194 H 0.68984 0.67556 0.42799 0.0
H2195 H 0.69756 0.69733 0.4938 0.0
C2196 C 0.75158 0.72568 0.72681 0.0
C2197 C 0.74052 0.72064 0.769 0.0
C2198 C 0.74834 0.72675 0.66286 0.0
C2199 C 0.73401 0.72275 0.6405 0.0
C2200 C 0.72337 0.71656 0.68187 0.0
C2201 C 0.7266 0.71555 0.74575 0.0
C2202 C 0.7297 0.72611 0.57506 0.0
C2203 C 0.72473 0.71415 0.53672 0.0
C2204 C 0.73052 0.74106 0.5506 0.0
C2205 C 0.73439 0.75436 0.59049 0.0
C2206 C 0.72596 0.75763 0.64481 0.0
C2207 C 0.7296 0.7702 0.68206 0.0
C2208 C 0.74158 0.77967 0.66522 0.0
C2209 C 0.74994 0.77658 0.61107 0.0
C2210 C 0.74636 0.764 0.57369 0.0
C2211 C 0.70109 0.73429 0.29506 0.0
C2212 C 0.71269 0.73889 0.25453 0.0
C2213 C 0.704 0.73225 0.35899 0.0
C2214 C 0.71849 0.73494 0.38287 0.0
C2215 C 0.72986 0.74025 0.34292 0.0
C2216 C 0.727 0.74214 0.27916 0.0
C2217 C 0.72212 0.7316 0.44894 0.0
C2218 C 0.72694 0.74357 0.48742 0.0
C2219 C 0.72098 0.7167 0.47369 0.0
C2220 C 0.7164 0.70356 0.4344 0.0
C2221 C 0.72449 0.69979 0.37976 0.0
C2222 C 0.71999 0.68749 0.34263 0.0
C2223 C 0.7075 0.67878 0.35995 0.0
C2224 C 0.6995 0.68234 0.41456 0.0
C2225 C 0.70393 0.69465 0.45181 0.0
H2226 H 0.70403 0.66925 0.33115 0.0
H2227 H 0.74436 0.78942 0.69405 0.0
H2228 H 0.72096 0.29194 0.75134 0.0
H2229 H 0.7276 0.29346 0.64005 0.0
H2230 H 0.70219 0.25253 0.60414 0.0
H2231 H 0.69575 0.25081 0.71574 0.0
H2232 H 0.73104 0.25119 0.55929 0.0
H2233 H 0.68951 0.28621 0.55218 0.0
H2234 H 0.67485 0.30872 0.58455 0.0
H2235 H 0.71199 0.33778 0.53666 0.0
H2236 H 0.72696 0.31541 0.50481 0.0
H2237 H 0.7296 0.24989 0.22913 0.0
H2238 H 0.72468 0.25041 0.34181 0.0
H2239 H 0.74896 0.29279 0.35726 0.0
H2240 H 0.75359 0.29249 0.24366 0.0
H2241 H 0.72212 0.29446 0.41452 0.0
H2242 H 0.76354 0.26046 0.41792 0.0
H2243 H 0.77933 0.23841 0.38996 0.0
H2244 H 0.74421 0.20801 0.44888 0.0
H2245 H 0.72811 0.22988 0.47634 0.0
C2246 C 0.71667 0.28336 0.71955 0.0
C2247 C 0.70792 0.2712 0.74218 0.0
C2248 C 0.72038 0.2843 0.65601 0.0
C2249 C 0.71536 0.27312 0.614 0.0
C2250 C 0.70615 0.26128 0.63597 0.0
C2251 C 0.70238 0.26037 0.69954 0.0
C2252 C 0.72066 0.27312 0.54819 0.0
C2253 C 0.72896 0.26054 0.52725 0.0
C2254 C 0.7184 0.28565 0.50759 0.0
C2255 C 0.70941 0.29911 0.52673 0.0
C2256 C 0.6946 0.29738 0.54909 0.0
C2257 C 0.68623 0.31012 0.56723 0.0
C2258 C 0.6925 0.32466 0.56283 0.0
C2259 C 0.70715 0.3265 0.54013 0.0
C2260 C 0.71558 0.3138 0.52197 0.0
C2261 C 0.73397 0.25927 0.25662 0.0
C2262 C 0.74188 0.2712 0.22763 0.0
C2263 C 0.73127 0.25949 0.32106 0.0
C2264 C 0.73653 0.2716 0.35795 0.0
C2265 C 0.74483 0.28333 0.32954 0.0
C2266 C 0.74757 0.28309 0.26485 0.0
C2267 C 0.73241 0.27239 0.42523 0.0
C2268 C 0.72435 0.28513 0.44658 0.0
C2269 C 0.73505 0.26007 0.46656 0.0
C2270 C 0.74454 0.24684 0.44853 0.0
C2271 C 0.75909 0.24908 0.42412 0.0
C2272 C 0.76813 0.23661 0.4086 0.0
C2273 C 0.76276 0.22182 0.41747 0.0
C2274 C 0.74835 0.21947 0.44193 0.0
C2275 C 0.73926 0.23191 0.45753 0.0
H2276 H 0.76978 0.21218 0.40551 0.0
H2277 H 0.686 0.33451 0.57688 0.0
H2278 H 0.93571 0.75814 0.2759 0.0
H2279 H 0.92919 0.75664 0.16432 0.0
H2280 H 0.9064 0.71402 0.19712 0.0
H2281 H 0.91302 0.71539 0.30838 0.0
H2282 H 0.9215 0.71398 0.08612 0.0
H2283 H 0.88863 0.74763 0.20056 0.0
H2284 H 0.88231 0.76984 0.26587 0.0
H2285 H 0.89934 0.7998 0.12348 0.0
H2286 H 0.90619 0.77778 0.05776 0.0
H2287 H 0.87972 0.71361 0.80405 0.0
H2288 H 0.8848 0.71399 0.91696 0.0
H2289 H 0.90629 0.75778 0.89772 0.0
H2290 H 0.90071 0.75774 0.78555 0.0
H2291 H 0.8906 0.7566 0.00375 0.0
H2292 H 0.92679 0.72492 0.89788 0.0
H2293 H 0.93469 0.70381 0.82897 0.0
H2294 H 0.91327 0.67172 0.95221 0.0
H2295 H 0.90503 0.69269 0.02135 0.0
C2296 C 0.92959 0.7483 0.25903 0.0
C2297 C 0.92469 0.73698 0.3009 0.0
C2298 C 0.92577 0.74752 0.19545 0.0
C2299 C 0.91696 0.73542 0.1729 0.0
C2300 C 0.91296 0.72358 0.21379 0.0
C2301 C 0.91671 0.7244 0.27731 0.0
C2302 C 0.91111 0.73551 0.10781 0.0
C2303 C 0.9146 0.72322 0.06831 0.0
C2304 C 0.9023 0.74771 0.08445 0.0
C2305 C 0.89799 0.76097 0.12409 0.0
C2306 C 0.89108 0.75892 0.18303 0.0
C2307 C 0.8874 0.77149 0.22024 0.0
C2308 C 0.89036 0.78621 0.19877 0.0
C2309 C 0.89704 0.78839 0.14005 0.0
C2310 C 0.90084 0.77586 0.10282 0.0
C2311 C 0.88521 0.72347 0.82407 0.0
C2312 C 0.89001 0.73555 0.78566 0.0
C2313 C 0.88823 0.72361 0.88852 0.0
C2314 C 0.8962 0.73577 0.91548 0.0
C2315 C 0.90023 0.74823 0.87786 0.0
C2316 C 0.89715 0.74812 0.81364 0.0
C2317 C 0.90119 0.73522 0.98188 0.0
C2318 C 0.89746 0.74736 0.02172 0.0
C2319 C 0.90999 0.72304 0.00532 0.0
C2320 C 0.91516 0.71039 0.96443 0.0
C2321 C 0.92368 0.71337 0.91008 0.0
C2322 C 0.92823 0.70143 0.87099 0.0
C2323 C 0.92445 0.68644 0.88612 0.0
C2324 C 0.91617 0.68335 0.9405 0.0
C2325 C 0.91156 0.69525 0.97966 0.0
H2326 H 0.92796 0.67721 0.85576 0.0
H2327 H 0.88749 0.79592 0.22767 0.0
H2328 H 0.59135 0.62623 0.50968 0.0
H2329 H 0.59315 0.6197 0.39756 0.0
H2330 H 0.57031 0.57718 0.43394 0.0
H2331 H 0.56902 0.58356 0.54549 0.0
H2332 H 0.59359 0.57187 0.36601 0.0
H2333 H 0.55313 0.60771 0.35651 0.0
H2334 H 0.54014 0.63215 0.37415 0.0
H2335 H 0.57377 0.65532 0.26515 0.0
H2336 H 0.58708 0.63103 0.24755 0.0
H2337 H 0.57889 0.55292 0.04339 0.0
H2338 H 0.57796 0.55842 0.15634 0.0
H2339 H 0.60255 0.60009 0.12487 0.0
H2340 H 0.60336 0.59468 0.01246 0.0
H2341 H 0.57822 0.60548 0.19036 0.0
H2342 H 0.61825 0.56792 0.20004 0.0
H2343 H 0.62958 0.54265 0.18217 0.0
H2344 H 0.59438 0.52174 0.29039 0.0
H2345 H 0.58277 0.54688 0.30829 0.0
C2346 C 0.58657 0.61564 0.49304 0.0
C2347 C 0.58018 0.60531 0.53547 0.0
C2348 C 0.58756 0.61189 0.42931 0.0
C2349 C 0.58182 0.59794 0.40734 0.0
C2350 C 0.57493 0.58792 0.44981 0.0
C2351 C 0.57417 0.59156 0.5133 0.0
C2352 C 0.58355 0.59338 0.34079 0.0
C2353 C 0.59006 0.57916 0.32758 0.0
C2354 C 0.57915 0.60295 0.2907 0.0
C2355 C 0.57118 0.61758 0.30128 0.0
C2356 C 0.55783 0.61804 0.33675 0.0
C2357 C 0.55039 0.63186 0.34665 0.0
C2358 C 0.55615 0.64528 0.32094 0.0
C2359 C 0.56933 0.64491 0.28513 0.0
C2360 C 0.57682 0.63112 0.27513 0.0
C2361 C 0.58442 0.56302 0.06114 0.0
C2362 C 0.59109 0.57344 0.01963 0.0
C2363 C 0.58388 0.56618 0.12546 0.0
C2364 C 0.59026 0.57967 0.14899 0.0
C2365 C 0.59757 0.58966 0.10768 0.0
C2366 C 0.598 0.58657 0.04361 0.0
C2367 C 0.58838 0.58405 0.21563 0.0
C2368 C 0.58179 0.59823 0.22883 0.0
C2369 C 0.5925 0.57434 0.26567 0.0
C2370 C 0.59957 0.55926 0.25504 0.0
C2371 C 0.61288 0.55792 0.21966 0.0
C2372 C 0.61936 0.54362 0.2096 0.0
C2373 C 0.61269 0.53059 0.235 0.0
C2374 C 0.59954 0.53183 0.27068 0.0
C2375 C 0.59301 0.5461 0.28086 0.0
H2376 H 0.61773 0.51954 0.22714 0.0
H2377 H 0.55038 0.65597 0.32864 0.0
H2378 H 0.07281 0.40462 0.98714 0.0
H2379 H 0.06541 0.40976 0.87779 0.0
H2380 H 0.01953 0.39778 0.92257 0.0
H2381 H 0.02682 0.3937 0.03278 0.0
H2382 H 0.04702 0.38558 0.80029 0.0
H2383 H 0.00817 0.41973 0.88902 0.0
H2384 H 0.99835 0.44044 0.95524 0.0
H2385 H 0.03097 0.47116 0.87724 0.0
H2386 H 0.0415 0.45037 0.81295 0.0
H2387 H 0.0172 0.43136 0.50902 0.0
H2388 H 0.01457 0.42437 0.62003 0.0
H2389 H 0.06192 0.41337 0.62724 0.0
H2390 H 0.06443 0.41999 0.51623 0.0
H2391 H 0.0267 0.43481 0.72386 0.0
H2392 H 0.06846 0.38374 0.71852 0.0
H2393 H 0.07685 0.36411 0.64348 0.0
H2394 H 0.0349 0.36765 0.5444 0.0
H2395 H 0.02616 0.38714 0.61936 0.0
C2396 C 0.06118 0.40315 0.97313 0.0
C2397 C 0.05032 0.39881 0.01722 0.0
C2398 C 0.05693 0.40621 0.91135 0.0
C2399 C 0.04181 0.40478 0.89306 0.0
C2400 C 0.03107 0.39975 0.93662 0.0
C2401 C 0.03526 0.39712 -0.00114 0.0
C2402 C 0.0378 0.4073 0.82685 0.0
C2403 C 0.04243 0.39627 0.78341 0.0
C2404 C 0.03149 0.42115 0.80534 0.0
C2405 C 0.02605 0.43327 0.84817 0.0
C2406 C 0.01367 0.4307 0.88791 0.0
C2407 C 0.00786 0.44252 0.92458 0.0
C2408 C 0.01408 0.4571 0.9207 0.0
C2409 C 0.02616 0.45986 0.88027 0.0
C2410 C 0.03214 0.44802 0.84415 0.0
C2411 C 0.02703 0.42761 0.53475 0.0
C2412 C 0.041 0.4261 0.50452 0.0
C2413 C 0.02551 0.42355 0.59778 0.0
C2414 C 0.03797 0.418 0.6312 0.0
C2415 C 0.05207 0.41718 0.60168 0.0
C2416 C 0.05353 0.42105 0.53864 0.0
C2417 C 0.03643 0.41332 0.69742 0.0
C2418 C 0.03091 0.42395 0.74064 0.0
C2419 C 0.04168 0.39903 0.71874 0.0
C2420 C 0.04668 0.38696 0.6745 0.0
C2421 C 0.06097 0.38024 0.68107 0.0
C2422 C 0.0658 0.36916 0.63844 0.0
C2423 C 0.05642 0.36465 0.58915 0.0
C2424 C 0.04217 0.37118 0.58252 0.0
C2425 C 0.03727 0.38225 0.62504 0.0
H2426 H 0.0602 0.3561 0.55612 0.0
H2427 H 0.00952 0.46625 0.94892 0.0
H2428 H 0.60459 0.41251 0.44116 0.0
H2429 H 0.60523 0.41998 0.55161 0.0
H2430 H 0.56307 0.39679 0.58292 0.0
H2431 H 0.56221 0.38958 0.47172 0.0
H2432 H 0.56326 0.42595 0.63065 0.0
H2433 H 0.59504 0.38167 0.63722 0.0
H2434 H 0.61625 0.3654 0.60435 0.0
H2435 H 0.64747 0.40085 0.65238 0.0
H2436 H 0.62642 0.41742 0.68471 0.0
H2437 H 0.56347 0.42409 0.9639 0.0
H2438 H 0.56252 0.41958 0.85097 0.0
H2439 H 0.60594 0.441 0.82957 0.0
H2440 H 0.60723 0.44501 0.94305 0.0
H2441 H 0.60545 0.41387 0.77486 0.0
H2442 H 0.57364 0.45742 0.77745 0.0
H2443 H 0.55246 0.47389 0.80809 0.0
H2444 H 0.52109 0.44015 0.74377 0.0
H2445 H 0.54211 0.4234 0.713 0.0
C2446 C 0.59551 0.40893 0.4717 0.0
C2447 C 0.58333 0.4005 0.44792 0.0
C2448 C 0.59592 0.41313 0.53477 0.0
C2449 C 0.58421 0.40891 0.57531 0.0
C2450 C 0.5722 0.40016 0.55219 0.0
C2451 C 0.57181 0.39591 0.48897 0.0
C2452 C 0.5843 0.41407 0.64137 0.0
C2453 C 0.57235 0.42315 0.66267 0.0
C2454 C 0.59645 0.41082 0.68201 0.0
C2455 C 0.60914 0.40084 0.66281 0.0
C2456 C 0.60642 0.38604 0.64029 0.0
C2457 C 0.61841 0.37676 0.62185 0.0
C2458 C 0.63319 0.3821 0.62612 0.0
C2459 C 0.63601 0.39673 0.64902 0.0
C2460 C 0.62405 0.40607 0.66746 0.0
C2461 C 0.57279 0.42792 0.93513 0.0
C2462 C 0.58551 0.43473 0.96252 0.0
C2463 C 0.57215 0.42548 0.87049 0.0
C2464 C 0.58415 0.42999 0.8319 0.0
C2465 C 0.59657 0.43743 0.85865 0.0
C2466 C 0.59723 0.43983 0.92343 0.0
C2467 C 0.58431 0.42568 0.76473 0.0
C2468 C 0.59634 0.41676 0.74304 0.0
C2469 C 0.5722 0.4291 0.72384 0.0
C2470 C 0.55951 0.43911 0.74302 0.0
C2471 C 0.56225 0.45346 0.76998 0.0
C2472 C 0.55025 0.46287 0.78737 0.0
C2473 C 0.53543 0.45807 0.77794 0.0
C2474 C 0.53258 0.44386 0.75102 0.0
C2475 C 0.54454 0.43442 0.73348 0.0
H2476 H 0.52616 0.46536 0.79146 0.0
H2477 H 0.64247 0.37489 0.61182 0.0
H2478 H 0.0726 0.57129 0.48981 0.0
H2479 H 0.07422 0.57568 0.37627 0.0
H2480 H 0.02567 0.57593 0.365 0.0
H2481 H 0.02418 0.5706 0.4778 0.0
H2482 H 0.03578 0.56388 0.26471 0.0
H2483 H 0.04799 0.60956 0.37719 0.0
H2484 H 0.06189 0.62499 0.45464 0.0
H2485 H 0.10321 0.61648 0.35591 0.0
H2486 H 0.08958 0.60082 0.2783 0.0
H2487 H 0.02952 0.60495 0.97801 0.0
H2488 H 0.02806 0.59777 0.08931 0.0
H2489 H 0.07662 0.59595 0.09752 0.0
H2490 H 0.07794 0.60409 0.98748 0.0
H2491 H 0.06669 0.60808 0.19875 0.0
H2492 H 0.05041 0.56426 0.0749 0.0
H2493 H 0.03345 0.55099 0.00107 0.0
H2494 H 0.99615 0.55836 0.12505 0.0
H2495 H 0.01261 0.57217 0.19859 0.0
C2496 C 0.06234 0.572 0.4625 0.0
C2497 C 0.04829 0.57066 0.49201 0.0
C2498 C 0.06324 0.57463 0.39791 0.0
C2499 C 0.05006 0.57657 0.3622 0.0
C2500 C 0.036 0.57453 0.39139 0.0
C2501 C 0.03513 0.57148 0.45573 0.0
C2502 C 0.05086 0.58153 0.29546 0.0
C2503 C 0.04244 0.57362 0.25026 0.0
C2504 C 0.05961 0.59421 0.2765 0.0
C2505 C 0.06778 0.6039 0.3223 0.0
C2506 C 0.06005 0.61093 0.37215 0.0
C2507 C 0.06788 0.61972 0.41608 0.0
C2508 C 0.08343 0.62169 0.41028 0.0
C2509 C 0.09117 0.61493 0.36037 0.0
C2510 C 0.0834 0.60611 0.31637 0.0
C2511 C 0.03981 0.60322 0.00431 0.0
C2512 C 0.05382 0.60515 0.97506 0.0
C2513 C 0.03901 0.59894 0.06746 0.0
C2514 C 0.05223 0.59588 0.10151 0.0
C2515 C 0.06626 0.59815 0.07229 0.0
C2516 C 0.06704 0.60285 0.0097 0.0
C2517 C 0.05159 0.59043 0.1676 0.0
C2518 C 0.06009 0.59827 0.21285 0.0
C2519 C 0.04253 0.57794 0.1867 0.0
C2520 C 0.03279 0.56933 0.14236 0.0
C2521 C 0.0386 0.5631 0.08648 0.0
C2522 C 0.02908 0.55549 0.04461 0.0
C2523 C 0.01382 0.55376 0.05855 0.0
C2524 C 0.00799 0.55969 0.11432 0.0
C2525 C 0.01739 0.56745 0.15603 0.0
H2526 H 0.0065 0.54785 0.02606 0.0
H2527 H 0.08948 0.62847 0.4444 0.0
loop_
_geom_bond_atom_site_label_1
_geom_bond_atom_site_label_2
_geom_bond_distance
_geom_bond_site_symmetry_2
_ccdc_geom_bond_type
Co0 N4 2.148 . S
Co0 N10 2.128 . S
Co0 N20 2.194 . S
Co0 O25 2.351 . S
Co0 O26 2.155 . S
Co0 O27 2.096 . S
C1 N4 1.301 . S
C1 N5 1.328 . S
C1 H6 0.930 . S
C2 C3 1.333 . S
C2 N4 1.317 . S
C2 H7 0.930 . S
C3 C2 1.333 . S
C3 N5 1.350 . S
C3 H29 0.931 . S
N4 Co0 2.148 . S
N4 C1 1.301 . S
N4 C2 1.317 . S
N5 C1 1.328 . S
N5 C3 1.350 . S
H6 C1 0.930 . S
H7 C2 0.930 . S
C8 O9 1.224 . S
C8 O27 1.247 . S
O9 C8 1.224 . S
N10 Co0 2.128 . S
N10 C11 1.355 . S
N10 C13 1.311 . S
C11 N10 1.355 . S
C11 C12 1.363 . S
C11 H23 0.929 . S
C12 C11 1.363 . S
C12 N14 1.375 . S
C12 H30 0.931 . S
C13 N10 1.311 . S
C13 N14 1.347 . S
C13 H24 0.929 . S
N14 C12 1.375 . S
N14 C13 1.347 . S
C15 C18 1.365 . S
C15 N20 1.328 . S
C15 H21 0.929 . S
C16 C17 1.362 . S
C16 C19 1.378 . S
C16 H31 0.929 . S
C17 C16 1.362 . S
C17 C18 1.366 . S
C18 C15 1.365 . S
C18 C17 1.366 . S
C18 H32 0.930 . S
C19 C16 1.378 . S
C19 N20 1.315 . S
C19 H22 0.930 . S
N20 Co0 2.194 . S
N20 C15 1.328 . S
N20 C19 1.315 . S
H21 C15 0.929 . S
H22 C19 0.930 . S
H23 C11 0.929 . S
H24 C13 0.929 . S
O25 Co0 2.351 . S
O25 C28 1.244 . S
O26 Co0 2.155 . S
O26 C28 1.240 . S
O27 Co0 2.096 . S
O27 C8 1.247 . S
C28 O25 1.244 . S
C28 O26 1.240 . S
H29 C3 0.931 . S
H30 C12 0.931 . S
H31 C16 0.929 . S
H32 C18 0.930 . S
Co33 N37 2.148 . S
Co33 N43 2.128 . S
Co33 N53 2.194 . S
Co33 O58 2.351 . S
Co33 O59 2.155 . S
Co33 O60 2.096 . S
C34 N37 1.301 . S
C34 N38 1.328 . S
C34 H39 0.930 . S
C35 C36 1.333 . S
C35 N37 1.317 . S
C35 H40 0.930 . S
C36 C35 1.333 . S
C36 N38 1.350 . S
C36 H62 0.931 . S
N37 Co33 2.148 . S
N37 C34 1.301 . S
N37 C35 1.317 . S
N38 C34 1.328 . S
N38 C36 1.350 . S
H39 C34 0.930 . S
H40 C35 0.930 . S
C41 O42 1.224 . S
C41 O60 1.247 . S
O42 C41 1.224 . S
N43 Co33 2.128 . S
N43 C44 1.355 . S
N43 C46 1.311 . S
C44 N43 1.355 . S
C44 C45 1.363 . S
C44 H56 0.929 . S
C45 C44 1.363 . S
C45 N47 1.375 . S
C45 H63 0.931 . S
C46 N43 1.311 . S
C46 N47 1.347 . S
C46 H57 0.929 . S
N47 C45 1.375 . S
N47 C46 1.347 . S
C48 C51 1.365 . S
C48 N53 1.328 . S
C48 H54 0.929 . S
C49 C50 1.362 . S
C49 C52 1.378 . S
C49 H64 0.929 . S
C50 C49 1.362 . S
C50 C51 1.366 . S
C51 C48 1.365 . S
C51 C50 1.366 . S
C51 H65 0.930 . S
C52 C49 1.378 . S
C52 N53 1.315 . S
C52 H55 0.930 . S
N53 Co33 2.194 . S
N53 C48 1.328 . S
N53 C52 1.315 . S
H54 C48 0.929 . S
H55 C52 0.930 . S
H56 C44 0.929 . S
H57 C46 0.929 . S
O58 Co33 2.351 . S
O58 C61 1.244 . S
O59 Co33 2.155 . S
O59 C61 1.240 . S
O60 Co33 2.096 . S
O60 C41 1.247 . S
C61 O58 1.244 . S
C61 O59 1.240 . S
H62 C36 0.931 . S
H63 C45 0.931 . S
H64 C49 0.929 . S
H65 C51 0.930 . S
Co66 N70 2.148 . S
Co66 N76 2.128 . S
Co66 N86 2.194 . S
Co66 O91 2.351 . S
Co66 O92 2.155 . S
Co66 O93 2.096 . S
C67 N70 1.301 . S
C67 N71 1.328 1_556 S
C67 H72 0.930 . S
C68 C69 1.333 . S
C68 N70 1.317 . S
C68 H73 0.930 . S
C69 C68 1.333 . S
C69 N71 1.350 1_556 S
C69 H95 0.931 1_556 S
N70 Co66 2.148 . S
N70 C67 1.301 . S
N70 C68 1.317 . S
N71 C67 1.328 1_554 S
N71 C69 1.350 1_554 S
H72 C67 0.930 . S
H73 C68 0.930 . S
C74 O75 1.224 . S
C74 O93 1.247 . S
O75 C74 1.224 . S
N76 Co66 2.128 . S
N76 C77 1.355 . S
N76 C79 1.311 . S
C77 N76 1.355 . S
C77 C78 1.363 . S
C77 H89 0.929 . S
C78 C77 1.363 . S
C78 N80 1.375 . S
C78 H96 0.931 . S
C79 N76 1.311 . S
C79 N80 1.347 . S
C79 H90 0.929 . S
N80 C78 1.375 . S
N80 C79 1.347 . S
C81 C84 1.365 . S
C81 N86 1.328 . S
C81 H87 0.929 . S
C82 C83 1.362 . S
C82 C85 1.378 . S
C82 H97 0.929 . S
C83 C82 1.362 . S
C83 C84 1.366 . S
C84 C81 1.365 . S
C84 C83 1.366 . S
C84 H98 0.930 . S
C85 C82 1.378 . S
C85 N86 1.315 . S
C85 H88 0.930 . S
N86 Co66 2.194 . S
N86 C81 1.328 . S
N86 C85 1.315 . S
H87 C81 0.929 . S
H88 C85 0.930 . S
H89 C77 0.929 . S
H90 C79 0.929 . S
O91 Co66 2.351 . S
O91 C94 1.244 . S
O92 Co66 2.155 . S
O92 C94 1.240 . S
O93 Co66 2.096 . S
O93 C74 1.247 . S
C94 O91 1.244 . S
C94 O92 1.240 . S
H95 C69 0.931 1_554 S
H96 C78 0.931 . S
H97 C82 0.929 . S
H98 C84 0.930 . S
Co99 N103 2.148 1_556 S
Co99 N109 2.128 . S
Co99 N119 2.194 1_556 S
Co99 O124 2.351 1_556 S
Co99 O125 2.155 1_556 S
Co99 O126 2.096 . S
C100 N103 1.301 . S
C100 N104 1.328 . S
C100 H105 0.930 . S
C101 C102 1.333 . S
C101 N103 1.317 . S
C101 H106 0.930 . S
C102 C101 1.333 . S
C102 N104 1.350 . S
C102 H128 0.931 . S
N103 Co99 2.148 1_554 S
N103 C100 1.301 . S
N103 C101 1.317 . S
N104 C100 1.328 . S
N104 C102 1.350 . S
H105 C100 0.930 . S
H106 C101 0.930 . S
C107 O108 1.224 . S
C107 O126 1.247 . S
O108 C107 1.224 . S
N109 Co99 2.128 . S
N109 C110 1.355 . S
N109 C112 1.311 . S
C110 N109 1.355 . S
C110 C111 1.363 . S
C110 H122 0.929 . S
C111 C110 1.363 . S
C111 N113 1.375 . S
C111 H129 0.931 . S
C112 N109 1.311 . S
C112 N113 1.347 . S
C112 H123 0.929 . S
N113 C111 1.375 . S
N113 C112 1.347 . S
C114 C117 1.365 . S
C114 N119 1.328 . S
C114 H120 0.929 . S
C115 C116 1.362 . S
C115 C118 1.377 . S
C115 H130 0.929 1_554 S
C116 C115 1.362 . S
C116 C117 1.366 . S
C117 C114 1.365 . S
C117 C116 1.366 . S
C117 H131 0.930 . S
C118 C115 1.377 . S
C118 N119 1.315 . S
C118 H121 0.931 1_554 S
N119 Co99 2.194 1_554 S
N119 C114 1.328 . S
N119 C118 1.315 . S
H120 C114 0.929 . S
H121 C118 0.931 1_556 S
H122 C110 0.929 . S
H123 C112 0.929 . S
O124 Co99 2.351 1_554 S
O124 C127 1.244 . S
O125 Co99 2.155 1_554 S
O125 C127 1.240 . S
O126 Co99 2.096 . S
O126 C107 1.247 . S
C127 O124 1.244 . S
C127 O125 1.240 . S
H128 C102 0.931 . S
H129 C111 0.931 . S
H130 C115 0.929 1_556 S
H131 C117 0.930 . S
Co132 N136 2.148 . S
Co132 N142 2.128 . S
Co132 N152 2.194 . S
Co132 O157 2.351 . S
Co132 O158 2.155 . S
Co132 O159 2.096 . S
C133 N136 1.301 . S
C133 N137 1.328 . S
C133 H138 0.930 . S
C134 C135 1.333 . S
C134 N136 1.317 . S
C134 H139 0.930 . S
C135 C134 1.333 . S
C135 N137 1.350 . S
C135 H161 0.931 . S
N136 Co132 2.148 . S
N136 C133 1.301 . S
N136 C134 1.317 . S
N137 C133 1.328 . S
N137 C135 1.350 . S
H138 C133 0.930 . S
H139 C134 0.930 . S
C140 O141 1.224 . S
C140 O159 1.247 . S
O141 C140 1.224 . S
N142 Co132 2.128 . S
N142 C143 1.355 . S
N142 C145 1.311 . S
C143 N142 1.355 . S
C143 C144 1.363 . S
C143 H155 0.929 . S
C144 C143 1.363 . S
C144 N146 1.375 . S
C144 H162 0.931 . S
C145 N142 1.311 . S
C145 N146 1.347 . S
C145 H156 0.929 . S
N146 C144 1.375 . S
N146 C145 1.347 . S
C147 C150 1.365 . S
C147 N152 1.328 . S
C147 H153 0.929 . S
C148 C149 1.362 . S
C148 C151 1.378 . S
C148 H163 0.929 . S
C149 C148 1.362 . S
C149 C150 1.366 . S
C150 C147 1.365 . S
C150 C149 1.366 . S
C150 H164 0.930 . S
C151 C148 1.378 . S
C151 N152 1.315 . S
C151 H154 0.930 . S
N152 Co132 2.194 . S
N152 C147 1.328 . S
N152 C151 1.315 . S
H153 C147 0.929 . S
H154 C151 0.930 . S
H155 C143 0.929 . S
H156 C145 0.929 . S
O157 Co132 2.351 . S
O157 C160 1.244 . S
O158 Co132 2.155 . S
O158 C160 1.240 . S
O159 Co132 2.096 . S
O159 C140 1.247 . S
C160 O157 1.244 . S
C160 O158 1.240 . S
H161 C135 0.931 . S
H162 C144 0.931 . S
H163 C148 0.929 . S
H164 C150 0.930 . S
Co165 N169 2.148 1_554 S
Co165 N175 2.128 . S
Co165 N185 2.194 1_554 S
Co165 O190 2.351 1_554 S
Co165 O191 2.155 1_554 S
Co165 O192 2.096 . S
C166 N169 1.301 . S
C166 N170 1.328 . S
C166 H171 0.930 . S
C167 C168 1.333 . S
C167 N169 1.317 . S
C167 H172 0.930 . S
C168 C167 1.333 . S
C168 N170 1.350 . S
C168 H194 0.931 . S
N169 Co165 2.148 1_556 S
N169 C166 1.301 . S
N169 C167 1.317 . S
N170 C166 1.328 . S
N170 C168 1.350 . S
H171 C166 0.930 . S
H172 C167 0.930 . S
C173 O174 1.224 . S
C173 O192 1.247 . S
O174 C173 1.224 . S
N175 Co165 2.128 . S
N175 C176 1.355 . S
N175 C178 1.311 . S
C176 N175 1.355 . S
C176 C177 1.363 . S
C176 H188 0.929 . S
C177 C176 1.363 . S
C177 N179 1.375 . S
C177 H195 0.931 . S
C178 N175 1.311 . S
C178 N179 1.347 . S
C178 H189 0.929 . S
N179 C177 1.375 . S
N179 C178 1.347 . S
C180 C183 1.365 . S
C180 N185 1.328 . S
C180 H186 0.929 . S
C181 C182 1.362 . S
C181 C184 1.377 . S
C181 H196 0.929 1_556 S
C182 C181 1.362 . S
C182 C183 1.366 . S
C183 C180 1.365 . S
C183 C182 1.366 . S
C183 H197 0.930 . S
C184 C181 1.377 . S
C184 N185 1.315 . S
C184 H187 0.931 1_556 S
N185 Co165 2.194 1_556 S
N185 C180 1.328 . S
N185 C184 1.315 . S
H186 C180 0.929 . S
H187 C184 0.931 1_554 S
H188 C176 0.929 . S
H189 C178 0.929 . S
O190 Co165 2.351 1_556 S
O190 C193 1.244 . S
O191 Co165 2.155 1_556 S
O191 C193 1.240 . S
O192 Co165 2.096 . S
O192 C173 1.247 . S
C193 O190 1.244 . S
C193 O191 1.240 . S
H194 C168 0.931 . S
H195 C177 0.931 . S
H196 C181 0.929 1_554 S
H197 C183 0.930 . S
Co198 N202 2.148 . S
Co198 N208 2.128 . S
Co198 N218 2.194 . S
Co198 O223 2.351 . S
Co198 O224 2.155 . S
Co198 O225 2.096 . S
C199 N202 1.301 . S
C199 N203 1.328 1_554 S
C199 H204 0.930 . S
C200 C201 1.333 . S
C200 N202 1.317 . S
C200 H205 0.930 . S
C201 C200 1.333 . S
C201 N203 1.350 1_554 S
C201 H227 0.931 1_554 S
N202 Co198 2.148 . S
N202 C199 1.301 . S
N202 C200 1.317 . S
N203 C199 1.328 1_556 S
N203 C201 1.350 1_556 S
H204 C199 0.930 . S
H205 C200 0.930 . S
C206 O207 1.224 . S
C206 O225 1.247 . S
O207 C206 1.224 . S
N208 Co198 2.128 . S
N208 C209 1.355 . S
N208 C211 1.311 . S
C209 N208 1.355 . S
C209 C210 1.363 . S
C209 H221 0.929 . S
C210 C209 1.363 . S
C210 N212 1.375 . S
C210 H228 0.931 . S
C211 N208 1.311 . S
C211 N212 1.347 . S
C211 H222 0.929 . S
N212 C210 1.375 . S
N212 C211 1.347 . S
C213 C216 1.365 . S
C213 N218 1.328 . S
C213 H219 0.929 . S
C214 C215 1.362 . S
C214 C217 1.378 . S
C214 H229 0.929 . S
C215 C214 1.362 . S
C215 C216 1.366 . S
C216 C213 1.365 . S
C216 C215 1.366 . S
C216 H230 0.930 . S
C217 C214 1.378 . S
C217 N218 1.315 . S
C217 H220 0.930 . S
N218 Co198 2.194 . S
N218 C213 1.328 . S
N218 C217 1.315 . S
H219 C213 0.929 . S
H220 C217 0.930 . S
H221 C209 0.929 . S
H222 C211 0.929 . S
O223 Co198 2.351 . S
O223 C226 1.244 . S
O224 Co198 2.155 . S
O224 C226 1.240 . S
O225 Co198 2.096 . S
O225 C206 1.247 . S
C226 O223 1.244 . S
C226 O224 1.240 . S
H227 C201 0.931 1_556 S
H228 C210 0.931 . S
H229 C214 0.929 . S
H230 C216 0.930 . S
Co231 N235 2.148 . S
Co231 N241 2.128 . S
Co231 N251 2.194 . S
Co231 O256 2.351 . S
Co231 O257 2.155 . S
Co231 O258 2.096 . S
C232 N235 1.301 . S
C232 N236 1.328 . S
C232 H237 0.930 . S
C233 C234 1.333 . S
C233 N235 1.317 . S
C233 H238 0.930 . S
C234 C233 1.333 . S
C234 N236 1.350 . S
C234 H260 0.931 . S
N235 Co231 2.148 . S
N235 C232 1.301 . S
N235 C233 1.317 . S
N236 C232 1.328 . S
N236 C234 1.350 . S
H237 C232 0.930 . S
H238 C233 0.930 . S
C239 O240 1.224 . S
C239 O258 1.247 . S
O240 C239 1.224 . S
N241 Co231 2.128 . S
N241 C242 1.355 . S
N241 C244 1.311 . S
C242 N241 1.355 . S
C242 C243 1.363 . S
C242 H254 0.929 . S
C243 C242 1.363 . S
C243 N245 1.375 . S
C243 H261 0.931 . S
C244 N241 1.311 . S
C244 N245 1.347 . S
C244 H255 0.929 . S
N245 C243 1.375 . S
N245 C244 1.347 . S
C246 C249 1.365 . S
C246 N251 1.328 . S
C246 H252 0.929 . S
C247 C248 1.362 . S
C247 C250 1.378 . S
C247 H262 0.929 . S
C248 C247 1.362 . S
C248 C249 1.366 . S
C249 C246 1.365 . S
C249 C248 1.366 . S
C249 H263 0.930 . S
C250 C247 1.378 . S
C250 N251 1.315 . S
C250 H253 0.930 . S
N251 Co231 2.194 . S
N251 C246 1.328 . S
N251 C250 1.315 . S
H252 C246 0.929 . S
H253 C250 0.930 . S
H254 C242 0.929 . S
H255 C244 0.929 . S
O256 Co231 2.351 . S
O256 C259 1.244 . S
O257 Co231 2.155 . S
O257 C259 1.240 . S
O258 Co231 2.096 . S
O258 C239 1.247 . S
C259 O256 1.244 . S
C259 O257 1.240 . S
H260 C234 0.931 . S
H261 C243 0.931 . S
H262 C247 0.929 . S
H263 C249 0.930 . S
Co264 N268 2.148 . S
Co264 N274 2.128 . S
Co264 N284 2.194 . S
Co264 O289 2.351 . S
Co264 O290 2.155 . S
Co264 O291 2.096 . S
C265 N268 1.301 . S
C265 N269 1.328 . S
C265 H270 0.930 . S
C266 C267 1.333 . S
C266 N268 1.317 . S
C266 H271 0.930 . S
C267 C266 1.333 . S
C267 N269 1.350 . S
C267 H293 0.931 . S
N268 Co264 2.148 . S
N268 C265 1.301 . S
N268 C266 1.317 . S
N269 C265 1.328 . S
N269 C267 1.350 . S
H270 C265 0.930 . S
H271 C266 0.930 . S
C272 O273 1.224 . S
C272 O291 1.247 . S
O273 C272 1.224 . S
N274 Co264 2.128 . S
N274 C275 1.355 . S
N274 C277 1.311 . S
C275 N274 1.355 . S
C275 C276 1.363 . S
C275 H287 0.929 . S
C276 C275 1.363 . S
C276 N278 1.375 . S
C276 H294 0.931 . S
C277 N274 1.311 . S
C277 N278 1.347 . S
C277 H288 0.929 . S
N278 C276 1.375 . S
N278 C277 1.347 . S
C279 C282 1.365 . S
C279 N284 1.328 . S
C279 H285 0.929 . S
C280 C281 1.362 . S
C280 C283 1.378 . S
C280 H295 0.929 . S
C281 C280 1.362 . S
C281 C282 1.366 . S
C282 C279 1.365 . S
C282 C281 1.366 . S
C282 H296 0.930 . S
C283 C280 1.378 . S
C283 N284 1.315 . S
C283 H286 0.930 . S
N284 Co264 2.194 . S
N284 C279 1.328 . S
N284 C283 1.315 . S
H285 C279 0.929 . S
H286 C283 0.930 . S
H287 C275 0.929 . S
H288 C277 0.929 . S
O289 Co264 2.351 . S
O289 C292 1.244 . S
O290 Co264 2.155 . S
O290 C292 1.240 . S
O291 Co264 2.096 . S
O291 C272 1.247 . S
C292 O289 1.244 . S
C292 O290 1.240 . S
H293 C267 0.931 . S
H294 C276 0.931 . S
H295 C280 0.929 . S
H296 C282 0.930 . S
Co297 N301 2.148 1_554 S
Co297 N307 2.128 . S
Co297 N317 2.194 1_554 S
Co297 O322 2.351 1_554 S
Co297 O323 2.155 1_554 S
Co297 O324 2.096 . S
C298 N301 1.301 . S
C298 N302 1.328 . S
C298 H303 0.930 . S
C299 C300 1.333 . S
C299 N301 1.317 . S
C299 H304 0.930 . S
C300 C299 1.333 . S
C300 N302 1.350 . S
C300 H326 0.931 . S
N301 Co297 2.148 1_556 S
N301 C298 1.301 . S
N301 C299 1.317 . S
N302 C298 1.328 . S
N302 C300 1.350 . S
H303 C298 0.930 . S
H304 C299 0.930 . S
C305 O306 1.224 . S
C305 O324 1.247 . S
O306 C305 1.224 . S
N307 Co297 2.128 . S
N307 C308 1.355 . S
N307 C310 1.311 . S
C308 N307 1.355 . S
C308 C309 1.363 . S
C308 H320 0.929 . S
C309 C308 1.363 . S
C309 N311 1.375 . S
C309 H327 0.931 . S
C310 N307 1.311 . S
C310 N311 1.347 . S
C310 H321 0.929 . S
N311 C309 1.375 . S
N311 C310 1.347 . S
C312 C315 1.365 . S
C312 N317 1.328 . S
C312 H318 0.929 . S
C313 C314 1.362 . S
C313 C316 1.377 . S
C313 H328 0.929 1_556 S
C314 C313 1.362 . S
C314 C315 1.366 . S
C315 C312 1.365 . S
C315 C314 1.366 . S
C315 H329 0.930 . S
C316 C313 1.377 . S
C316 N317 1.315 . S
C316 H319 0.931 1_556 S
N317 Co297 2.194 1_556 S
N317 C312 1.328 . S
N317 C316 1.315 . S
H318 C312 0.929 . S
H319 C316 0.931 1_554 S
H320 C308 0.929 . S
H321 C310 0.929 . S
O322 Co297 2.351 1_556 S
O322 C325 1.244 . S
O323 Co297 2.155 1_556 S
O323 C325 1.240 . S
O324 Co297 2.096 . S
O324 C305 1.247 . S
C325 O322 1.244 . S
C325 O323 1.240 . S
H326 C300 0.931 . S
H327 C309 0.931 . S
H328 C313 0.929 1_554 S
H329 C315 0.930 . S
Co330 N334 2.148 1_556 S
Co330 N340 2.128 . S
Co330 N350 2.194 1_556 S
Co330 O355 2.351 1_556 S
Co330 O356 2.155 1_556 S
Co330 O357 2.096 . S
C331 N334 1.301 . S
C331 N335 1.328 . S
C331 H336 0.930 . S
C332 C333 1.333 . S
C332 N334 1.317 . S
C332 H337 0.930 . S
C333 C332 1.333 . S
C333 N335 1.350 . S
C333 H359 0.931 . S
N334 Co330 2.148 1_554 S
N334 C331 1.301 . S
N334 C332 1.317 . S
N335 C331 1.328 . S
N335 C333 1.350 . S
H336 C331 0.930 . S
H337 C332 0.930 . S
C338 O339 1.224 . S
C338 O357 1.247 . S
O339 C338 1.224 . S
N340 Co330 2.128 . S
N340 C341 1.355 . S
N340 C343 1.311 . S
C341 N340 1.355 . S
C341 C342 1.363 . S
C341 H353 0.929 . S
C342 C341 1.363 . S
C342 N344 1.375 . S
C342 H360 0.931 . S
C343 N340 1.311 . S
C343 N344 1.347 . S
C343 H354 0.929 . S
N344 C342 1.375 . S
N344 C343 1.347 . S
C345 C348 1.365 . S
C345 N350 1.328 . S
C345 H351 0.929 . S
C346 C347 1.362 . S
C346 C349 1.377 . S
C346 H361 0.929 1_554 S
C347 C346 1.362 . S
C347 C348 1.366 . S
C348 C345 1.365 . S
C348 C347 1.366 . S
C348 H362 0.930 . S
C349 C346 1.377 . S
C349 N350 1.315 . S
C349 H352 0.931 1_554 S
N350 Co330 2.194 1_554 S
N350 C345 1.328 . S
N350 C349 1.315 . S
H351 C345 0.929 . S
H352 C349 0.931 1_556 S
H353 C341 0.929 . S
H354 C343 0.929 . S
O355 Co330 2.351 1_554 S
O355 C358 1.244 . S
O356 Co330 2.155 1_554 S
O356 C358 1.240 . S
O357 Co330 2.096 . S
O357 C338 1.247 . S
C358 O355 1.244 . S
C358 O356 1.240 . S
H359 C333 0.931 . S
H360 C342 0.931 . S
H361 C346 0.929 1_556 S
H362 C348 0.930 . S
Co363 N367 2.148 . S
Co363 N373 2.128 . S
Co363 N383 2.194 . S
Co363 O388 2.351 . S
Co363 O389 2.155 . S
Co363 O390 2.096 . S
C364 N367 1.301 . S
C364 N368 1.328 . S
C364 H369 0.930 . S
C365 C366 1.333 . S
C365 N367 1.317 . S
C365 H370 0.930 . S
C366 C365 1.333 . S
C366 N368 1.350 . S
C366 H392 0.931 . S
N367 Co363 2.148 . S
N367 C364 1.301 . S
N367 C365 1.317 . S
N368 C364 1.328 . S
N368 C366 1.350 . S
H369 C364 0.930 . S
H370 C365 0.930 . S
C371 O372 1.224 . S
C371 O390 1.247 . S
O372 C371 1.224 . S
N373 Co363 2.128 . S
N373 C374 1.355 . S
N373 C376 1.311 . S
C374 N373 1.355 . S
C374 C375 1.363 . S
C374 H386 0.929 . S
C375 C374 1.363 . S
C375 N377 1.375 . S
C375 H393 0.931 . S
C376 N373 1.311 . S
C376 N377 1.347 . S
C376 H387 0.929 . S
N377 C375 1.375 . S
N377 C376 1.347 . S
C378 C381 1.365 . S
C378 N383 1.328 . S
C378 H384 0.929 . S
C379 C380 1.362 . S
C379 C382 1.378 . S
C379 H394 0.929 . S
C380 C379 1.362 . S
C380 C381 1.366 . S
C381 C378 1.365 . S
C381 C380 1.366 . S
C381 H395 0.930 . S
C382 C379 1.378 . S
C382 N383 1.315 . S
C382 H385 0.930 . S
N383 Co363 2.194 . S
N383 C378 1.328 . S
N383 C382 1.315 . S
H384 C378 0.929 . S
H385 C382 0.930 . S
H386 C374 0.929 . S
H387 C376 0.929 . S
O388 Co363 2.351 . S
O388 C391 1.244 . S
O389 Co363 2.155 . S
O389 C391 1.240 . S
O390 Co363 2.096 . S
O390 C371 1.247 . S
C391 O388 1.244 . S
C391 O389 1.240 . S
H392 C366 0.931 . S
H393 C375 0.931 . S
H394 C379 0.929 . S
H395 C381 0.930 . S
Co396 N400 2.148 . S
Co396 N406 2.128 . S
Co396 N416 2.194 . S
Co396 O421 2.351 . S
Co396 O422 2.155 . S
Co396 O423 2.096 . S
C397 N400 1.301 . S
C397 N401 1.328 1_556 S
C397 H402 0.930 . S
C398 C399 1.333 . S
C398 N400 1.317 . S
C398 H403 0.930 . S
C399 C398 1.333 . S
C399 N401 1.350 1_556 S
C399 H425 0.931 1_556 S
N400 Co396 2.148 . S
N400 C397 1.301 . S
N400 C398 1.317 . S
N401 C397 1.328 1_554 S
N401 C399 1.350 1_554 S
H402 C397 0.930 . S
H403 C398 0.930 . S
C404 O405 1.224 . S
C404 O423 1.247 . S
O405 C404 1.224 . S
N406 Co396 2.128 . S
N406 C407 1.355 . S
N406 C409 1.311 . S
C407 N406 1.355 . S
C407 C408 1.363 . S
C407 H419 0.929 . S
C408 C407 1.363 . S
C408 N410 1.375 . S
C408 H426 0.931 . S
C409 N406 1.311 . S
C409 N410 1.347 . S
C409 H420 0.929 . S
N410 C408 1.375 . S
N410 C409 1.347 . S
C411 C414 1.365 . S
C411 N416 1.328 . S
C411 H417 0.929 . S
C412 C413 1.362 . S
C412 C415 1.378 . S
C412 H427 0.929 . S
C413 C412 1.362 . S
C413 C414 1.366 . S
C414 C411 1.365 . S
C414 C413 1.366 . S
C414 H428 0.930 . S
C415 C412 1.378 . S
C415 N416 1.315 . S
C415 H418 0.930 . S
N416 Co396 2.194 . S
N416 C411 1.328 . S
N416 C415 1.315 . S
H417 C411 0.929 . S
H418 C415 0.930 . S
H419 C407 0.929 . S
H420 C409 0.929 . S
O421 Co396 2.351 . S
O421 C424 1.244 . S
O422 Co396 2.155 . S
O422 C424 1.240 . S
O423 Co396 2.096 . S
O423 C404 1.247 . S
C424 O421 1.244 . S
C424 O422 1.240 . S
H425 C399 0.931 1_554 S
H426 C408 0.931 . S
H427 C412 0.929 . S
H428 C414 0.930 . S
Co429 N433 2.148 . S
Co429 N439 2.128 . S
Co429 N449 2.194 . S
Co429 O454 2.351 . S
Co429 O455 2.155 . S
Co429 O456 2.096 . S
C430 N433 1.301 . S
C430 N434 1.328 . S
C430 H435 0.930 . S
C431 C432 1.333 . S
C431 N433 1.317 . S
C431 H436 0.930 . S
C432 C431 1.333 . S
C432 N434 1.350 . S
C432 H458 0.931 . S
N433 Co429 2.148 . S
N433 C430 1.301 . S
N433 C431 1.317 . S
N434 C430 1.328 . S
N434 C432 1.350 . S
H435 C430 0.930 . S
H436 C431 0.930 . S
C437 O438 1.224 . S
C437 O456 1.247 . S
O438 C437 1.224 . S
N439 Co429 2.128 . S
N439 C440 1.355 . S
N439 C442 1.311 . S
C440 N439 1.355 . S
C440 C441 1.363 . S
C440 H452 0.929 . S
C441 C440 1.363 . S
C441 N443 1.375 . S
C441 H459 0.931 . S
C442 N439 1.311 . S
C442 N443 1.347 . S
C442 H453 0.929 . S
N443 C441 1.375 . S
N443 C442 1.347 . S
C444 C447 1.365 . S
C444 N449 1.328 . S
C444 H450 0.929 . S
C445 C446 1.362 . S
C445 C448 1.378 . S
C445 H460 0.929 . S
C446 C445 1.362 . S
C446 C447 1.366 . S
C447 C444 1.365 . S
C447 C446 1.366 . S
C447 H461 0.930 . S
C448 C445 1.378 . S
C448 N449 1.315 . S
C448 H451 0.930 . S
N449 Co429 2.194 . S
N449 C444 1.328 . S
N449 C448 1.315 . S
H450 C444 0.929 . S
H451 C448 0.930 . S
H452 C440 0.929 . S
H453 C442 0.929 . S
O454 Co429 2.351 . S
O454 C457 1.244 . S
O455 Co429 2.155 . S
O455 C457 1.240 . S
O456 Co429 2.096 . S
O456 C437 1.247 . S
C457 O454 1.244 . S
C457 O455 1.240 . S
H458 C432 0.931 . S
H459 C441 0.931 . S
H460 C445 0.929 . S
H461 C447 0.930 . S
Co462 N466 2.148 . S
Co462 N472 2.128 . S
Co462 N482 2.194 . S
Co462 O487 2.351 . S
Co462 O488 2.155 . S
Co462 O489 2.096 . S
C463 N466 1.301 . S
C463 N467 1.328 1_554 S
C463 H468 0.930 . S
C464 C465 1.333 . S
C464 N466 1.317 . S
C464 H469 0.930 . S
C465 C464 1.333 . S
C465 N467 1.350 1_554 S
C465 H491 0.931 1_554 S
N466 Co462 2.148 . S
N466 C463 1.301 . S
N466 C464 1.317 . S
N467 C463 1.328 1_556 S
N467 C465 1.350 1_556 S
H468 C463 0.930 . S
H469 C464 0.930 . S
C470 O471 1.224 . S
C470 O489 1.247 . S
O471 C470 1.224 . S
N472 Co462 2.128 . S
N472 C473 1.355 . S
N472 C475 1.311 . S
C473 N472 1.355 . S
C473 C474 1.363 . S
C473 H485 0.929 . S
C474 C473 1.363 . S
C474 N476 1.375 . S
C474 H492 0.931 . S
C475 N472 1.311 . S
C475 N476 1.347 . S
C475 H486 0.929 . S
N476 C474 1.375 . S
N476 C475 1.347 . S
C477 C480 1.365 . S
C477 N482 1.328 . S
C477 H483 0.929 . S
C478 C479 1.362 . S
C478 C481 1.378 . S
C478 H493 0.929 . S
C479 C478 1.362 . S
C479 C480 1.366 . S
C480 C477 1.365 . S
C480 C479 1.366 . S
C480 H494 0.930 . S
C481 C478 1.378 . S
C481 N482 1.315 . S
C481 H484 0.930 . S
N482 Co462 2.194 . S
N482 C477 1.328 . S
N482 C481 1.315 . S
H483 C477 0.929 . S
H484 C481 0.930 . S
H485 C473 0.929 . S
H486 C475 0.929 . S
O487 Co462 2.351 . S
O487 C490 1.244 . S
O488 Co462 2.155 . S
O488 C490 1.240 . S
O489 Co462 2.096 . S
O489 C470 1.247 . S
C490 O487 1.244 . S
C490 O488 1.240 . S
H491 C465 0.931 1_556 S
H492 C474 0.931 . S
H493 C478 0.929 . S
H494 C480 0.930 . S
Co495 N499 2.148 . S
Co495 N505 2.128 . S
Co495 N515 2.194 . S
Co495 O520 2.351 . S
Co495 O521 2.155 . S
Co495 O522 2.096 . S
C496 N499 1.301 . S
C496 N500 1.328 . S
C496 H501 0.930 . S
C497 C498 1.333 . S
C497 N499 1.317 . S
C497 H502 0.930 . S
C498 C497 1.333 . S
C498 N500 1.350 . S
C498 H524 0.931 . S
N499 Co495 2.148 . S
N499 C496 1.301 . S
N499 C497 1.317 . S
N500 C496 1.328 . S
N500 C498 1.350 . S
H501 C496 0.930 . S
H502 C497 0.930 . S
C503 O504 1.224 . S
C503 O522 1.247 . S
O504 C503 1.224 . S
N505 Co495 2.128 . S
N505 C506 1.355 . S
N505 C508 1.311 . S
C506 N505 1.355 . S
C506 C507 1.363 . S
C506 H518 0.929 . S
C507 C506 1.363 . S
C507 N509 1.375 . S
C507 H525 0.931 . S
C508 N505 1.311 . S
C508 N509 1.347 . S
C508 H519 0.929 . S
N509 C507 1.375 . S
N509 C508 1.347 . S
C510 C513 1.365 . S
C510 N515 1.328 . S
C510 H516 0.929 . S
C511 C512 1.362 . S
C511 C514 1.378 . S
C511 H526 0.929 . S
C512 C511 1.362 . S
C512 C513 1.366 . S
C513 C510 1.365 . S
C513 C512 1.366 . S
C513 H527 0.930 . S
C514 C511 1.378 . S
C514 N515 1.315 . S
C514 H517 0.930 . S
N515 Co495 2.194 . S
N515 C510 1.328 . S
N515 C514 1.315 . S
H516 C510 0.929 . S
H517 C514 0.930 . S
H518 C506 0.929 . S
H519 C508 0.929 . S
O520 Co495 2.351 . S
O520 C523 1.244 . S
O521 Co495 2.155 . S
O521 C523 1.240 . S
O522 Co495 2.096 . S
O522 C503 1.247 . S
C523 O520 1.244 . S
C523 O521 1.240 . S
H524 C498 0.931 . S
H525 C507 0.931 . S
H526 C511 0.929 . S
H527 C513 0.930 . S
H528 C546 0.951 . S
H529 C548 0.951 . S
H530 C550 0.950 . S
H531 C551 0.950 . S
H532 C553 0.950 . S
H533 C556 0.950 . S
H534 C557 0.950 . S
H535 C559 0.950 . S
H536 C560 0.950 . S
H537 C561 0.951 . S
H538 C563 0.951 . S
H539 C565 0.950 . S
H540 C566 0.950 . S
H541 C568 0.950 . S
H542 C571 0.950 . S
H543 C572 0.950 . S
H544 C574 0.950 . S
H545 C575 0.950 . S
C546 H528 0.951 . S
C546 C547 1.366 . S
C546 C548 1.388 . S
C547 C546 1.366 . S
C547 C551 1.385 . S
C548 H529 0.951 . S
C548 C546 1.388 . S
C548 C549 1.366 . S
C549 C548 1.366 . S
C549 C550 1.414 . S
C549 C552 1.499 . S
C550 H530 0.950 . S
C550 C549 1.414 . S
C550 C551 1.374 . S
C551 H531 0.950 . S
C551 C547 1.385 . S
C551 C550 1.374 . S
C552 C549 1.499 . S
C552 C553 1.373 . S
C552 C554 1.389 . S
C553 H532 0.950 . S
C553 C552 1.373 . S
C553 C569 1.377 . S
C554 C552 1.389 . S
C554 C555 1.524 . S
C554 C568 1.377 . S
C555 C554 1.524 . S
C555 C556 1.397 . S
C555 C560 1.363 . S
C556 H533 0.950 . S
C556 C555 1.397 . S
C556 C557 1.334 . S
C557 H534 0.950 . S
C557 C556 1.334 . S
C557 C558 1.287 . S
C558 C557 1.287 . S
C558 C559 1.524 . S
C558 H577 0.913 . S
C559 H535 0.950 . S
C559 C558 1.524 . S
C559 C560 1.415 . S
C560 H536 0.950 . S
C560 C555 1.363 . S
C560 C559 1.415 . S
C561 H537 0.951 . S
C561 C562 1.366 . S
C561 C563 1.388 . S
C562 C561 1.366 . S
C562 C566 1.385 . S
C563 H538 0.951 . S
C563 C561 1.388 . S
C563 C564 1.366 . S
C564 C563 1.366 . S
C564 C565 1.414 . S
C564 C567 1.499 . S
C565 H539 0.950 . S
C565 C564 1.414 . S
C565 C566 1.374 . S
C566 H540 0.950 . S
C566 C562 1.385 . S
C566 C565 1.374 . S
C567 C564 1.499 . S
C567 C568 1.373 . S
C567 C569 1.389 . S
C568 H541 0.950 . S
C568 C554 1.377 . S
C568 C567 1.373 . S
C569 C553 1.377 . S
C569 C567 1.389 . S
C569 C570 1.524 . S
C570 C569 1.524 . S
C570 C571 1.397 . S
C570 C575 1.363 . S
C571 H542 0.950 . S
C571 C570 1.397 . S
C571 C572 1.334 . S
C572 H543 0.950 . S
C572 C571 1.334 . S
C572 C573 1.287 . S
C573 C572 1.287 . S
C573 C574 1.524 . S
C573 H576 0.999 . S
C574 H544 0.950 . S
C574 C573 1.524 . S
C574 C575 1.415 . S
C575 H545 0.950 . S
C575 C570 1.363 . S
C575 C574 1.415 . S
H576 C573 0.999 . S
H577 C558 0.913 . S
H578 C596 0.951 . S
H579 C598 0.951 . S
H580 C600 0.950 . S
H581 C601 0.950 . S
H582 C603 0.950 . S
H583 C606 0.950 . S
H584 C607 0.950 . S
H585 C609 0.950 . S
H586 C610 0.950 . S
H587 C611 0.951 . S
H588 C613 0.951 . S
H589 C615 0.950 . S
H590 C616 0.950 . S
H591 C618 0.950 . S
H592 C621 0.950 . S
H593 C622 0.950 . S
H594 C624 0.950 . S
H595 C625 0.950 . S
C596 H578 0.951 . S
C596 C597 1.366 . S
C596 C598 1.388 . S
C597 C596 1.366 . S
C597 C601 1.385 . S
C598 H579 0.951 . S
C598 C596 1.388 . S
C598 C599 1.366 . S
C599 C598 1.366 . S
C599 C600 1.414 . S
C599 C602 1.499 . S
C600 H580 0.950 . S
C600 C599 1.414 . S
C600 C601 1.374 . S
C601 H581 0.950 . S
C601 C597 1.385 . S
C601 C600 1.374 . S
C602 C599 1.499 . S
C602 C603 1.373 . S
C602 C604 1.389 . S
C603 H582 0.950 . S
C603 C602 1.373 . S
C603 C619 1.377 . S
C604 C602 1.389 . S
C604 C605 1.524 . S
C604 C618 1.377 . S
C605 C604 1.524 . S
C605 C606 1.397 . S
C605 C610 1.363 . S
C606 H583 0.950 . S
C606 C605 1.397 . S
C606 C607 1.334 . S
C607 H584 0.950 . S
C607 C606 1.334 . S
C607 C608 1.287 . S
C608 C607 1.287 . S
C608 C609 1.524 . S
C608 H627 0.913 . S
C609 H585 0.950 . S
C609 C608 1.524 . S
C609 C610 1.415 . S
C610 H586 0.950 . S
C610 C605 1.363 . S
C610 C609 1.415 . S
C611 H587 0.951 . S
C611 C612 1.366 . S
C611 C613 1.388 . S
C612 C611 1.366 . S
C612 C616 1.385 . S
C613 H588 0.951 . S
C613 C611 1.388 . S
C613 C614 1.366 . S
C614 C613 1.366 . S
C614 C615 1.414 . S
C614 C617 1.499 . S
C615 H589 0.950 . S
C615 C614 1.414 . S
C615 C616 1.374 . S
C616 H590 0.950 . S
C616 C612 1.385 . S
C616 C615 1.374 . S
C617 C614 1.499 . S
C617 C618 1.373 . S
C617 C619 1.389 . S
C618 H591 0.950 . S
C618 C604 1.377 . S
C618 C617 1.373 . S
C619 C603 1.377 . S
C619 C617 1.389 . S
C619 C620 1.524 . S
C620 C619 1.524 . S
C620 C621 1.397 . S
C620 C625 1.363 . S
C621 H592 0.950 . S
C621 C620 1.397 . S
C621 C622 1.334 . S
C622 H593 0.950 . S
C622 C621 1.334 . S
C622 C623 1.287 . S
C623 C622 1.287 . S
C623 C624 1.524 . S
C623 H626 0.999 . S
C624 H594 0.950 . S
C624 C623 1.524 . S
C624 C625 1.415 . S
C625 H595 0.950 . S
C625 C620 1.363 . S
C625 C624 1.415 . S
H626 C623 0.999 . S
H627 C608 0.913 . S
H628 C646 0.951 . S
H629 C648 0.951 . S
H630 C650 0.950 . S
H631 C651 0.950 . S
H632 C653 0.950 . S
H633 C656 0.950 . S
H634 C657 0.950 . S
H635 C659 0.950 . S
H636 C660 0.950 . S
H637 C661 0.951 . S
H638 C663 0.951 . S
H639 C665 0.950 . S
H640 C666 0.950 1_554 S
H641 C668 0.950 . S
H642 C671 0.950 . S
H643 C672 0.950 . S
H644 C674 0.950 . S
H645 C675 0.950 . S
C646 H628 0.951 . S
C646 C647 1.366 . S
C646 C648 1.388 . S
C647 C646 1.366 . S
C647 C651 1.385 . S
C648 H629 0.951 . S
C648 C646 1.388 . S
C648 C649 1.366 . S
C649 C648 1.366 . S
C649 C650 1.414 . S
C649 C652 1.499 . S
C650 H630 0.950 . S
C650 C649 1.414 . S
C650 C651 1.374 . S
C651 H631 0.950 . S
C651 C647 1.385 . S
C651 C650 1.374 . S
C652 C649 1.499 . S
C652 C653 1.373 . S
C652 C654 1.389 . S
C653 H632 0.950 . S
C653 C652 1.373 . S
C653 C669 1.377 . S
C654 C652 1.389 . S
C654 C655 1.524 . S
C654 C668 1.377 . S
C655 C654 1.524 . S
C655 C656 1.397 . S
C655 C660 1.363 . S
C656 H633 0.950 . S
C656 C655 1.397 . S
C656 C657 1.334 . S
C657 H634 0.950 . S
C657 C656 1.334 . S
C657 C658 1.287 . S
C658 C657 1.287 . S
C658 C659 1.524 . S
C658 H677 0.913 . S
C659 H635 0.950 . S
C659 C658 1.524 . S
C659 C660 1.415 . S
C660 H636 0.950 . S
C660 C655 1.363 . S
C660 C659 1.415 . S
C661 H637 0.951 . S
C661 C662 1.366 . S
C661 C663 1.388 . S
C662 C661 1.366 . S
C662 C666 1.385 . S
C663 H638 0.951 . S
C663 C661 1.388 . S
C663 C664 1.366 . S
C664 C663 1.366 . S
C664 C665 1.414 . S
C664 C667 1.499 . S
C665 H639 0.950 . S
C665 C664 1.414 . S
C665 C666 1.374 . S
C666 H640 0.950 1_556 S
C666 C662 1.385 . S
C666 C665 1.374 . S
C667 C664 1.499 . S
C667 C668 1.373 . S
C667 C669 1.389 . S
C668 H641 0.950 . S
C668 C654 1.377 . S
C668 C667 1.373 . S
C669 C653 1.377 . S
C669 C667 1.389 . S
C669 C670 1.524 . S
C670 C669 1.524 . S
C670 C671 1.397 1_556 S
C670 C675 1.363 . S
C671 H642 0.950 . S
C671 C670 1.397 1_554 S
C671 C672 1.334 . S
C672 H643 0.950 . S
C672 C671 1.334 . S
C672 C673 1.287 . S
C673 C672 1.287 . S
C673 C674 1.524 1_554 S
C673 H676 0.999 . S
C674 H644 0.950 . S
C674 C673 1.524 1_556 S
C674 C675 1.415 . S
C675 H645 0.950 . S
C675 C670 1.363 . S
C675 C674 1.415 . S
H676 C673 0.999 . S
H677 C658 0.913 . S
H678 C696 0.951 . S
H679 C698 0.951 . S
H680 C700 0.950 . S
H681 C701 0.950 . S
H682 C703 0.950 . S
H683 C706 0.950 . S
H684 C707 0.950 . S
H685 C709 0.950 . S
H686 C710 0.950 . S
H687 C711 0.951 . S
H688 C713 0.951 . S
H689 C715 0.950 1_556 S
H690 C716 0.950 . S
H691 C718 0.950 . S
H692 C721 0.950 . S
H693 C722 0.950 . S
H694 C724 0.950 . S
H695 C725 0.950 . S
C696 H678 0.951 . S
C696 C697 1.366 . S
C696 C698 1.388 . S
C697 C696 1.366 . S
C697 C701 1.385 . S
C698 H679 0.951 . S
C698 C696 1.388 . S
C698 C699 1.366 . S
C699 C698 1.366 . S
C699 C700 1.414 . S
C699 C702 1.499 . S
C700 H680 0.950 . S
C700 C699 1.414 . S
C700 C701 1.374 . S
C701 H681 0.950 . S
C701 C697 1.385 . S
C701 C700 1.374 . S
C702 C699 1.499 . S
C702 C703 1.373 . S
C702 C704 1.389 . S
C703 H682 0.950 . S
C703 C702 1.373 . S
C703 C719 1.377 . S
C704 C702 1.389 . S
C704 C705 1.524 . S
C704 C718 1.377 . S
C705 C704 1.524 . S
C705 C706 1.397 . S
C705 C710 1.363 1_554 S
C706 H683 0.950 . S
C706 C705 1.397 . S
C706 C707 1.334 . S
C707 H684 0.950 . S
C707 C706 1.334 . S
C707 C708 1.287 . S
C708 C707 1.287 . S
C708 C709 1.524 1_554 S
C708 H727 0.913 1_554 S
C709 H685 0.950 . S
C709 C708 1.524 1_556 S
C709 C710 1.415 . S
C710 H686 0.950 . S
C710 C705 1.363 1_556 S
C710 C709 1.415 . S
C711 H687 0.951 . S
C711 C712 1.366 . S
C711 C713 1.388 . S
C712 C711 1.366 . S
C712 C716 1.385 1_554 S
C713 H688 0.951 . S
C713 C711 1.388 . S
C713 C714 1.366 . S
C714 C713 1.366 . S
C714 C715 1.414 . S
C714 C717 1.499 . S
C715 H689 0.950 1_554 S
C715 C714 1.414 . S
C715 C716 1.374 1_554 S
C716 H690 0.950 . S
C716 C712 1.385 1_556 S
C716 C715 1.374 1_556 S
C717 C714 1.499 . S
C717 C718 1.373 . S
C717 C719 1.389 . S
C718 H691 0.950 . S
C718 C704 1.377 . S
C718 C717 1.373 . S
C719 C703 1.377 . S
C719 C717 1.389 . S
C719 C720 1.524 . S
C720 C719 1.524 . S
C720 C721 1.397 . S
C720 C725 1.363 . S
C721 H692 0.950 . S
C721 C720 1.397 . S
C721 C722 1.334 . S
C722 H693 0.950 . S
C722 C721 1.334 . S
C722 C723 1.287 . S
C723 C722 1.287 . S
C723 C724 1.524 . S
C723 H726 0.999 . S
C724 H694 0.950 . S
C724 C723 1.524 . S
C724 C725 1.415 . S
C725 H695 0.950 . S
C725 C720 1.363 . S
C725 C724 1.415 . S
H726 C723 0.999 . S
H727 C708 0.913 1_556 S
H728 C746 0.951 . S
H729 C748 0.951 . S
H730 C750 0.950 . S
H731 C751 0.950 . S
H732 C753 0.950 . S
H733 C756 0.950 . S
H734 C757 0.950 . S
H735 C759 0.950 1_455 S
H736 C760 0.950 . S
H737 C761 0.951 . S
H738 C763 0.927 1_655 S
H739 C765 0.950 . S
H740 C766 0.950 . S
H741 C768 0.907 1_455 S
H742 C771 0.950 . S
H743 C772 0.950 . S
H744 C774 0.950 . S
H745 C775 0.950 . S
C746 H728 0.951 . S
C746 C747 1.366 . S
C746 C748 1.388 . S
C747 C746 1.366 . S
C747 C751 1.385 . S
C748 H729 0.951 . S
C748 C746 1.388 . S
C748 C749 1.366 . S
C749 C748 1.366 . S
C749 C750 1.414 . S
C749 C752 1.499 . S
C750 H730 0.950 . S
C750 C749 1.414 . S
C750 C751 1.374 . S
C751 H731 0.950 . S
C751 C747 1.385 . S
C751 C750 1.374 . S
C752 C749 1.499 . S
C752 C753 1.373 . S
C752 C754 1.389 . S
C753 H732 0.950 . S
C753 C752 1.373 . S
C753 C769 1.377 . S
C754 C752 1.389 . S
C754 C755 1.524 . S
C754 C768 1.377 . S
C755 C754 1.524 . S
C755 C756 1.397 . S
C755 C760 1.363 . S
C756 H733 0.950 . S
C756 C755 1.397 . S
C756 C757 1.334 . S
C757 H734 0.950 . S
C757 C756 1.334 . S
C757 C758 1.287 . S
C758 C757 1.287 . S
C758 C759 1.524 . S
C758 H777 0.920 . S
C759 H735 0.950 1_655 S
C759 C758 1.524 . S
C759 C760 1.415 . S
C760 H736 0.950 . S
C760 C755 1.363 . S
C760 C759 1.415 . S
C761 H737 0.951 . S
C761 C762 1.366 . S
C761 C763 1.388 . S
C762 C761 1.366 . S
C762 C766 1.385 . S
C763 H738 0.927 1_455 S
C763 C761 1.388 . S
C763 C764 1.367 1_455 S
C764 C763 1.367 1_655 S
C764 C765 1.417 1_655 S
C764 C767 1.495 . S
C765 H739 0.950 . S
C765 C764 1.417 1_455 S
C765 C766 1.374 . S
C766 H740 0.950 . S
C766 C762 1.385 . S
C766 C765 1.374 . S
C767 C764 1.495 . S
C767 C768 1.373 . S
C767 C769 1.389 . S
C768 H741 0.907 1_655 S
C768 C754 1.377 . S
C768 C767 1.373 . S
C769 C753 1.377 . S
C769 C767 1.389 . S
C769 C770 1.524 . S
C770 C769 1.524 . S
C770 C771 1.397 . S
C770 C775 1.363 . S
C771 H742 0.950 . S
C771 C770 1.397 . S
C771 C772 1.334 . S
C772 H743 0.950 . S
C772 C771 1.334 . S
C772 C773 1.287 . S
C773 C772 1.287 . S
C773 C774 1.524 . S
C773 H776 0.999 . S
C774 H744 0.950 . S
C774 C773 1.524 . S
C774 C775 1.415 . S
C775 H745 0.950 . S
C775 C770 1.363 . S
C775 C774 1.415 . S
H776 C773 0.999 . S
H777 C758 0.920 . S
H778 C796 0.951 . S
H779 C798 0.951 . S
H780 C800 0.950 . S
H781 C801 0.950 . S
H782 C803 0.950 . S
H783 C806 0.950 . S
H784 C807 0.950 . S
H785 C809 0.950 . S
H786 C810 0.950 . S
H787 C811 0.951 . S
H788 C813 0.951 . S
H789 C815 0.950 . S
H790 C816 0.950 . S
H791 C818 0.950 . S
H792 C821 0.950 . S
H793 C822 0.950 . S
H794 C824 0.944 1_455 S
H795 C825 0.950 . S
C796 H778 0.951 . S
C796 C797 1.366 . S
C796 C798 1.388 . S
C797 C796 1.366 . S
C797 C801 1.385 . S
C798 H779 0.951 . S
C798 C796 1.388 . S
C798 C799 1.366 . S
C799 C798 1.366 . S
C799 C800 1.414 . S
C799 C802 1.499 . S
C800 H780 0.950 . S
C800 C799 1.414 . S
C800 C801 1.374 . S
C801 H781 0.950 . S
C801 C797 1.385 . S
C801 C800 1.374 . S
C802 C799 1.499 . S
C802 C803 1.373 . S
C802 C804 1.389 . S
C803 H782 0.950 . S
C803 C802 1.373 . S
C803 C819 1.377 . S
C804 C802 1.389 . S
C804 C805 1.524 . S
C804 C818 1.377 . S
C805 C804 1.524 . S
C805 C806 1.397 . S
C805 C810 1.363 . S
C806 H783 0.950 . S
C806 C805 1.397 . S
C806 C807 1.334 . S
C807 H784 0.950 . S
C807 C806 1.334 . S
C807 C808 1.287 . S
C808 C807 1.287 . S
C808 C809 1.524 . S
C808 H827 0.913 . S
C809 H785 0.950 . S
C809 C808 1.524 . S
C809 C810 1.415 . S
C810 H786 0.950 . S
C810 C805 1.363 . S
C810 C809 1.415 . S
C811 H787 0.951 . S
C811 C812 1.366 . S
C811 C813 1.388 . S
C812 C811 1.366 . S
C812 C816 1.385 . S
C813 H788 0.951 . S
C813 C811 1.388 . S
C813 C814 1.374 . S
C814 C813 1.374 . S
C814 C815 1.412 1_455 S
C814 C817 1.492 1_455 S
C815 H789 0.950 . S
C815 C814 1.412 1_655 S
C815 C816 1.374 1_655 S
C816 H790 0.950 . S
C816 C812 1.385 . S
C816 C815 1.374 1_455 S
C817 C814 1.492 1_655 S
C817 C818 1.373 . S
C817 C819 1.389 . S
C818 H791 0.950 . S
C818 C804 1.377 . S
C818 C817 1.373 . S
C819 C803 1.377 . S
C819 C817 1.389 . S
C819 C820 1.524 . S
C820 C819 1.524 . S
C820 C821 1.397 . S
C820 C825 1.363 . S
C821 H792 0.950 . S
C821 C820 1.397 . S
C821 C822 1.334 . S
C822 H793 0.950 . S
C822 C821 1.334 . S
C822 C823 1.287 . S
C823 C822 1.287 . S
C823 C824 1.527 . S
C823 H826 1.001 1_655 S
C824 H794 0.944 1_655 S
C824 C823 1.527 . S
C824 C825 1.419 . S
C825 H795 0.950 . S
C825 C820 1.363 . S
C825 C824 1.419 . S
H826 C823 1.001 1_455 S
H827 C808 0.913 . S
H828 C846 0.951 . S
H829 C848 0.951 . S
H830 C850 0.950 . S
H831 C851 0.950 . S
H832 C853 0.950 . S
H833 C856 0.950 . S
H834 C857 0.950 . S
H835 C859 0.950 . S
H836 C860 0.950 . S
H837 C861 0.951 . S
H838 C863 0.951 1_556 S
H839 C865 0.950 . S
H840 C866 0.950 . S
H841 C868 0.950 . S
H842 C871 0.950 1_554 S
H843 C872 0.950 . S
H844 C874 0.950 . S
H845 C875 0.950 . S
C846 H828 0.951 . S
C846 C847 1.366 . S
C846 C848 1.388 . S
C847 C846 1.366 . S
C847 C851 1.385 . S
C848 H829 0.951 . S
C848 C846 1.388 . S
C848 C849 1.366 . S
C849 C848 1.366 . S
C849 C850 1.414 . S
C849 C852 1.499 . S
C850 H830 0.950 . S
C850 C849 1.414 . S
C850 C851 1.374 . S
C851 H831 0.950 . S
C851 C847 1.385 . S
C851 C850 1.374 . S
C852 C849 1.499 . S
C852 C853 1.373 . S
C852 C854 1.389 . S
C853 H832 0.950 . S
C853 C852 1.373 . S
C853 C869 1.377 . S
C854 C852 1.389 . S
C854 C855 1.524 . S
C854 C868 1.377 . S
C855 C854 1.524 . S
C855 C856 1.397 . S
C855 C860 1.363 . S
C856 H833 0.950 . S
C856 C855 1.397 . S
C856 C857 1.334 . S
C857 H834 0.950 . S
C857 C856 1.334 . S
C857 C858 1.287 . S
C858 C857 1.287 . S
C858 C859 1.524 . S
C858 H877 0.913 . S
C859 H835 0.950 . S
C859 C858 1.524 . S
C859 C860 1.415 . S
C860 H836 0.950 . S
C860 C855 1.363 . S
C860 C859 1.415 . S
C861 H837 0.951 . S
C861 C862 1.366 1_556 S
C861 C863 1.388 1_556 S
C862 C861 1.366 1_554 S
C862 C866 1.385 . S
C863 H838 0.951 1_554 S
C863 C861 1.388 1_554 S
C863 C864 1.366 . S
C864 C863 1.366 . S
C864 C865 1.414 . S
C864 C867 1.499 . S
C865 H839 0.950 . S
C865 C864 1.414 . S
C865 C866 1.374 . S
C866 H840 0.950 . S
C866 C862 1.385 . S
C866 C865 1.374 . S
C867 C864 1.499 . S
C867 C868 1.373 . S
C867 C869 1.389 . S
C868 H841 0.950 . S
C868 C854 1.377 . S
C868 C867 1.373 . S
C869 C853 1.377 . S
C869 C867 1.389 . S
C869 C870 1.524 1_554 S
C870 C869 1.524 1_556 S
C870 C871 1.397 . S
C870 C875 1.363 . S
C871 H842 0.950 1_556 S
C871 C870 1.397 . S
C871 C872 1.334 . S
C872 H843 0.950 . S
C872 C871 1.334 . S
C872 C873 1.287 . S
C873 C872 1.287 . S
C873 C874 1.524 . S
C873 H876 0.999 . S
C874 H844 0.950 . S
C874 C873 1.524 . S
C874 C875 1.415 . S
C875 H845 0.950 . S
C875 C870 1.363 . S
C875 C874 1.415 . S
H876 C873 0.999 . S
H877 C858 0.913 . S
H878 C896 0.951 . S
H879 C898 0.951 . S
H880 C900 0.950 . S
H881 C901 0.950 . S
H882 C903 0.950 . S
H883 C906 0.940 1_556 S
H884 C907 0.950 . S
H885 C909 0.950 . S
H886 C910 0.950 . S
H887 C911 0.951 . S
H888 C913 0.951 . S
H889 C915 0.950 . S
H890 C916 0.950 . S
H891 C918 0.950 1_554 S
H892 C921 0.950 . S
H893 C922 0.950 . S
H894 C924 0.950 . S
H895 C925 0.950 . S
C896 H878 0.951 . S
C896 C897 1.366 . S
C896 C898 1.388 . S
C897 C896 1.366 . S
C897 C901 1.385 . S
C898 H879 0.951 . S
C898 C896 1.388 . S
C898 C899 1.366 . S
C899 C898 1.366 . S
C899 C900 1.414 . S
C899 C902 1.499 . S
C900 H880 0.950 . S
C900 C899 1.414 . S
C900 C901 1.374 . S
C901 H881 0.950 . S
C901 C897 1.385 . S
C901 C900 1.374 . S
C902 C899 1.499 . S
C902 C903 1.373 . S
C902 C904 1.389 . S
C903 H882 0.950 . S
C903 C902 1.373 . S
C903 C919 1.377 . S
C904 C902 1.389 . S
C904 C905 1.524 1_556 S
C904 C918 1.377 . S
C905 C904 1.524 1_554 S
C905 C906 1.397 . S
C905 C910 1.363 . S
C906 H883 0.940 1_554 S
C906 C905 1.397 . S
C906 C907 1.334 . S
C907 H884 0.950 . S
C907 C906 1.334 . S
C907 C908 1.287 . S
C908 C907 1.287 . S
C908 C909 1.524 . S
C908 H927 0.913 . S
C909 H885 0.950 . S
C909 C908 1.524 . S
C909 C910 1.415 . S
C910 H886 0.950 . S
C910 C905 1.363 . S
C910 C909 1.415 . S
C911 H887 0.951 . S
C911 C912 1.366 . S
C911 C913 1.388 . S
C912 C911 1.366 . S
C912 C916 1.385 . S
C913 H888 0.951 . S
C913 C911 1.388 . S
C913 C914 1.366 . S
C914 C913 1.366 . S
C914 C915 1.414 . S
C914 C917 1.499 . S
C915 H889 0.950 . S
C915 C914 1.414 . S
C915 C916 1.374 . S
C916 H890 0.950 . S
C916 C912 1.385 . S
C916 C915 1.374 . S
C917 C914 1.499 . S
C917 C918 1.373 . S
C917 C919 1.389 . S
C918 H891 0.950 1_556 S
C918 C904 1.377 . S
C918 C917 1.373 . S
C919 C903 1.377 . S
C919 C917 1.389 . S
C919 C920 1.524 . S
C920 C919 1.524 . S
C920 C921 1.397 . S
C920 C925 1.363 . S
C921 H892 0.950 . S
C921 C920 1.397 . S
C921 C922 1.334 . S
C922 H893 0.950 . S
C922 C921 1.334 . S
C922 C923 1.287 . S
C923 C922 1.287 . S
C923 C924 1.524 . S
C923 H926 0.999 . S
C924 H894 0.950 . S
C924 C923 1.524 . S
C924 C925 1.415 . S
C925 H895 0.950 . S
C925 C920 1.363 . S
C925 C924 1.415 . S
H926 C923 0.999 . S
H927 C908 0.913 . S
H928 C946 0.951 . S
H929 C948 0.951 . S
H930 C950 0.950 1_554 S
H931 C951 0.950 . S
H932 C953 0.964 . S
H933 C956 0.950 . S
H934 C957 0.950 . S
H935 C959 0.950 . S
H936 C960 0.950 . S
H937 C961 0.951 . S
H938 C963 0.951 . S
H939 C965 0.950 . S
H940 C966 0.950 . S
H941 C968 0.950 . S
H942 C971 0.950 . S
H943 C972 0.950 1_556 S
H944 C974 0.950 . S
H945 C975 0.950 . S
C946 H928 0.951 . S
C946 C947 1.366 . S
C946 C948 1.388 . S
C947 C946 1.366 . S
C947 C951 1.385 1_556 S
C948 H929 0.951 . S
C948 C946 1.388 . S
C948 C949 1.366 . S
C949 C948 1.366 . S
C949 C950 1.414 . S
C949 C952 1.499 . S
C950 H930 0.950 1_556 S
C950 C949 1.414 . S
C950 C951 1.374 1_556 S
C951 H931 0.950 . S
C951 C947 1.385 1_554 S
C951 C950 1.374 1_554 S
C952 C949 1.499 . S
C952 C953 1.373 . S
C952 C954 1.389 . S
C953 H932 0.964 . S
C953 C952 1.373 . S
C953 C969 1.377 . S
C954 C952 1.389 . S
C954 C955 1.524 . S
C954 C968 1.377 . S
C955 C954 1.524 . S
C955 C956 1.397 . S
C955 C960 1.363 . S
C956 H933 0.950 . S
C956 C955 1.397 . S
C956 C957 1.334 . S
C957 H934 0.950 . S
C957 C956 1.334 . S
C957 C958 1.287 . S
C958 C957 1.287 . S
C958 C959 1.524 . S
C958 H977 0.913 . S
C959 H935 0.950 . S
C959 C958 1.524 . S
C959 C960 1.415 . S
C960 H936 0.950 . S
C960 C955 1.363 . S
C960 C959 1.415 . S
C961 H937 0.951 . S
C961 C962 1.366 . S
C961 C963 1.388 . S
C962 C961 1.366 . S
C962 C966 1.385 . S
C963 H938 0.951 . S
C963 C961 1.388 . S
C963 C964 1.366 . S
C964 C963 1.366 . S
C964 C965 1.414 . S
C964 C967 1.499 . S
C965 H939 0.950 . S
C965 C964 1.414 . S
C965 C966 1.374 . S
C966 H940 0.950 . S
C966 C962 1.385 . S
C966 C965 1.374 . S
C967 C964 1.499 . S
C967 C968 1.373 . S
C967 C969 1.389 . S
C968 H941 0.950 . S
C968 C954 1.377 . S
C968 C967 1.373 . S
C969 C953 1.377 . S
C969 C967 1.389 . S
C969 C970 1.524 . S
C970 C969 1.524 . S
C970 C971 1.397 . S
C970 C975 1.363 1_556 S
C971 H942 0.950 . S
C971 C970 1.397 . S
C971 C972 1.334 1_556 S
C972 H943 0.950 1_554 S
C972 C971 1.334 1_554 S
C972 C973 1.287 . S
C973 C972 1.287 . S
C973 C974 1.524 . S
C973 H976 0.999 . S
C974 H944 0.950 . S
C974 C973 1.524 . S
C974 C975 1.415 . S
C975 H945 0.950 . S
C975 C970 1.363 1_554 S
C975 C974 1.415 . S
H976 C973 0.999 . S
H977 C958 0.913 . S
H978 C996 0.951 . S
H979 C998 0.951 . S
H980 C1000 0.950 . S
H981 C1001 0.950 . S
H982 C1003 0.950 . S
H983 C1006 0.950 . S
H984 C1007 0.950 . S
H985 C1009 0.950 . S
H986 C1010 0.950 . S
H987 C1011 0.951 . S
H988 C1013 0.951 . S
H989 C1015 0.950 . S
H990 C1016 0.950 . S
H991 C1018 0.950 . S
H992 C1021 0.950 . S
H993 C1022 0.950 . S
H994 C1024 0.950 . S
H995 C1025 0.937 1_554 S
C996 H978 0.951 . S
C996 C997 1.366 . S
C996 C998 1.388 . S
C997 C996 1.366 . S
C997 C1001 1.385 . S
C998 H979 0.951 . S
C998 C996 1.388 . S
C998 C999 1.366 . S
C999 C998 1.366 . S
C999 C1000 1.414 . S
C999 C1002 1.499 . S
C1000 H980 0.950 . S
C1000 C999 1.414 . S
C1000 C1001 1.374 . S
C1001 H981 0.950 . S
C1001 C997 1.385 . S
C1001 C1000 1.374 . S
C1002 C999 1.499 . S
C1002 C1003 1.373 . S
C1002 C1004 1.389 . S
C1003 H982 0.950 . S
C1003 C1002 1.373 . S
C1003 C1019 1.377 . S
C1004 C1002 1.389 . S
C1004 C1005 1.524 . S
C1004 C1018 1.377 . S
C1005 C1004 1.524 . S
C1005 C1006 1.397 . S
C1005 C1010 1.363 . S
C1006 H983 0.950 . S
C1006 C1005 1.397 . S
C1006 C1007 1.334 . S
C1007 H984 0.950 . S
C1007 C1006 1.334 . S
C1007 C1008 1.287 . S
C1008 C1007 1.287 . S
C1008 C1009 1.524 . S
C1008 H1027 0.913 . S
C1009 H985 0.950 . S
C1009 C1008 1.524 . S
C1009 C1010 1.415 . S
C1010 H986 0.950 . S
C1010 C1005 1.363 . S
C1010 C1009 1.415 . S
C1011 H987 0.951 . S
C1011 C1012 1.366 . S
C1011 C1013 1.388 . S
C1012 C1011 1.366 . S
C1012 C1016 1.385 . S
C1013 H988 0.951 . S
C1013 C1011 1.388 . S
C1013 C1014 1.366 . S
C1014 C1013 1.366 . S
C1014 C1015 1.414 . S
C1014 C1017 1.499 . S
C1015 H989 0.950 . S
C1015 C1014 1.414 . S
C1015 C1016 1.374 . S
C1016 H990 0.950 . S
C1016 C1012 1.385 . S
C1016 C1015 1.374 . S
C1017 C1014 1.499 . S
C1017 C1018 1.373 . S
C1017 C1019 1.389 . S
C1018 H991 0.950 . S
C1018 C1004 1.377 . S
C1018 C1017 1.373 . S
C1019 C1003 1.377 . S
C1019 C1017 1.389 . S
C1019 C1020 1.524 1_554 S
C1020 C1019 1.524 1_556 S
C1020 C1021 1.397 . S
C1020 C1025 1.363 . S
C1021 H992 0.950 . S
C1021 C1020 1.397 . S
C1021 C1022 1.334 . S
C1022 H993 0.950 . S
C1022 C1021 1.334 . S
C1022 C1023 1.287 . S
C1023 C1022 1.287 . S
C1023 C1024 1.524 . S
C1023 H1026 0.999 . S
C1024 H994 0.950 . S
C1024 C1023 1.524 . S
C1024 C1025 1.428 . S
C1025 H995 0.937 1_556 S
C1025 C1020 1.363 . S
C1025 C1024 1.428 . S
H1026 C1023 0.999 . S
H1027 C1008 0.913 . S
H1028 C1046 0.951 . S
H1029 C1048 0.951 . S
H1030 C1050 0.950 . S
H1031 C1051 0.950 . S
H1032 C1053 0.950 . S
H1033 C1056 0.950 . S
H1034 C1057 0.950 . S
H1035 C1059 0.950 . S
H1036 C1060 0.950 . S
H1037 C1061 0.951 . S
H1038 C1063 0.951 . S
H1039 C1065 0.950 . S
H1040 C1066 0.950 . S
H1041 C1068 0.950 . S
H1042 C1071 0.950 . S
H1043 C1072 0.950 . S
H1044 C1074 0.950 . S
H1045 C1075 0.950 . S
C1046 H1028 0.951 . S
C1046 C1047 1.366 . S
C1046 C1048 1.435 . S
C1047 C1046 1.366 . S
C1047 C1051 1.385 . S
C1048 H1029 0.951 . S
C1048 C1046 1.435 . S
C1048 C1049 1.320 1_455 S
C1049 C1048 1.320 1_655 S
C1049 C1050 1.414 . S
C1049 C1052 1.499 . S
C1050 H1030 0.950 . S
C1050 C1049 1.414 . S
C1050 C1051 1.374 1_655 S
C1051 H1031 0.950 . S
C1051 C1047 1.385 . S
C1051 C1050 1.374 1_455 S
C1052 C1049 1.499 . S
C1052 C1053 1.373 . S
C1052 C1054 1.389 . S
C1053 H1032 0.950 . S
C1053 C1052 1.373 . S
C1053 C1069 1.377 . S
C1054 C1052 1.389 . S
C1054 C1055 1.524 . S
C1054 C1068 1.377 . S
C1055 C1054 1.524 . S
C1055 C1056 1.397 . S
C1055 C1060 1.363 . S
C1056 H1033 0.950 . S
C1056 C1055 1.397 . S
C1056 C1057 1.334 . S
C1057 H1034 0.950 . S
C1057 C1056 1.334 . S
C1057 C1058 1.287 . S
C1058 C1057 1.287 . S
C1058 C1059 1.524 . S
C1058 H1077 0.913 . S
C1059 H1035 0.950 . S
C1059 C1058 1.524 . S
C1059 C1060 1.415 . S
C1060 H1036 0.950 . S
C1060 C1055 1.363 . S
C1060 C1059 1.415 . S
C1061 H1037 0.951 . S
C1061 C1062 1.366 . S
C1061 C1063 1.388 . S
C1062 C1061 1.366 . S
C1062 C1066 1.385 . S
C1063 H1038 0.951 . S
C1063 C1061 1.388 . S
C1063 C1064 1.366 . S
C1064 C1063 1.366 . S
C1064 C1065 1.414 . S
C1064 C1067 1.499 . S
C1065 H1039 0.950 . S
C1065 C1064 1.414 . S
C1065 C1066 1.374 . S
C1066 H1040 0.950 . S
C1066 C1062 1.385 . S
C1066 C1065 1.374 . S
C1067 C1064 1.499 . S
C1067 C1068 1.373 . S
C1067 C1069 1.389 . S
C1068 H1041 0.950 . S
C1068 C1054 1.377 . S
C1068 C1067 1.373 . S
C1069 C1053 1.377 . S
C1069 C1067 1.389 . S
C1069 C1070 1.524 . S
C1070 C1069 1.524 . S
C1070 C1071 1.397 . S
C1070 C1075 1.363 . S
C1071 H1042 0.950 . S
C1071 C1070 1.397 . S
C1071 C1072 1.334 . S
C1072 H1043 0.950 . S
C1072 C1071 1.334 . S
C1072 C1073 1.287 . S
C1073 C1072 1.287 . S
C1073 C1074 1.524 . S
C1073 H1076 0.999 . S
C1074 H1044 0.950 . S
C1074 C1073 1.524 . S
C1074 C1075 1.415 . S
C1075 H1045 0.950 . S
C1075 C1070 1.363 . S
C1075 C1074 1.415 . S
H1076 C1073 0.999 . S
H1077 C1058 0.913 . S
H1078 C1096 0.951 . S
H1079 C1098 0.951 . S
H1080 C1100 0.950 . S
H1081 C1101 0.950 . S
H1082 C1103 0.950 . S
H1083 C1106 0.950 . S
H1084 C1107 0.950 . S
H1085 C1109 0.950 . S
H1086 C1110 0.950 . S
H1087 C1111 0.951 . S
H1088 C1113 0.953 . S
H1089 C1115 0.950 . S
H1090 C1116 0.950 . S
H1091 C1118 0.950 . S
H1092 C1121 0.950 . S
H1093 C1122 0.950 . S
H1094 C1124 0.950 . S
H1095 C1125 0.923 1_655 S
C1096 H1078 0.951 . S
C1096 C1097 1.366 . S
C1096 C1098 1.388 . S
C1097 C1096 1.366 . S
C1097 C1101 1.385 . S
C1098 H1079 0.951 . S
C1098 C1096 1.388 . S
C1098 C1099 1.366 . S
C1099 C1098 1.366 . S
C1099 C1100 1.414 . S
C1099 C1102 1.499 . S
C1100 H1080 0.950 . S
C1100 C1099 1.414 . S
C1100 C1101 1.374 . S
C1101 H1081 0.950 . S
C1101 C1097 1.385 . S
C1101 C1100 1.374 . S
C1102 C1099 1.499 . S
C1102 C1103 1.373 . S
C1102 C1104 1.389 . S
C1103 H1082 0.950 . S
C1103 C1102 1.373 . S
C1103 C1119 1.377 . S
C1104 C1102 1.389 . S
C1104 C1105 1.524 . S
C1104 C1118 1.377 . S
C1105 C1104 1.524 . S
C1105 C1106 1.397 . S
C1105 C1110 1.363 . S
C1106 H1083 0.950 . S
C1106 C1105 1.397 . S
C1106 C1107 1.334 . S
C1107 H1084 0.950 . S
C1107 C1106 1.334 . S
C1107 C1108 1.287 . S
C1108 C1107 1.287 . S
C1108 C1109 1.524 . S
C1108 H1127 0.913 . S
C1109 H1085 0.950 . S
C1109 C1108 1.524 . S
C1109 C1110 1.415 . S
C1110 H1086 0.950 . S
C1110 C1105 1.363 . S
C1110 C1109 1.415 . S
C1111 H1087 0.951 . S
C1111 C1112 1.366 . S
C1111 C1113 1.377 1_455 S
C1112 C1111 1.366 . S
C1112 C1116 1.385 . S
C1113 H1088 0.953 . S
C1113 C1111 1.377 1_655 S
C1113 C1114 1.375 . S
C1114 C1113 1.375 . S
C1114 C1115 1.414 . S
C1114 C1117 1.499 . S
C1115 H1089 0.950 . S
C1115 C1114 1.414 . S
C1115 C1116 1.374 1_655 S
C1116 H1090 0.950 . S
C1116 C1112 1.385 . S
C1116 C1115 1.374 1_455 S
C1117 C1114 1.499 . S
C1117 C1118 1.373 . S
C1117 C1119 1.389 . S
C1118 H1091 0.950 . S
C1118 C1104 1.377 . S
C1118 C1117 1.373 . S
C1119 C1103 1.377 . S
C1119 C1117 1.389 . S
C1119 C1120 1.524 . S
C1120 C1119 1.524 . S
C1120 C1121 1.397 1_655 S
C1120 C1125 1.356 1_655 S
C1121 H1092 0.950 . S
C1121 C1120 1.397 1_455 S
C1121 C1122 1.334 . S
C1122 H1093 0.950 . S
C1122 C1121 1.334 . S
C1122 C1123 1.287 . S
C1123 C1122 1.287 . S
C1123 C1124 1.524 . S
C1123 H1126 0.999 . S
C1124 H1094 0.950 . S
C1124 C1123 1.524 . S
C1124 C1125 1.450 . S
C1125 H1095 0.923 1_455 S
C1125 C1120 1.356 1_455 S
C1125 C1124 1.450 . S
H1126 C1123 0.999 . S
H1127 C1108 0.913 . S
H1128 C1146 0.951 . S
H1129 C1148 0.951 . S
H1130 C1150 0.950 . S
H1131 C1151 0.950 . S
H1132 C1153 0.950 . S
H1133 C1156 0.950 . S
H1134 C1157 0.950 . S
H1135 C1159 0.950 . S
H1136 C1160 0.950 . S
H1137 C1161 0.951 . S
H1138 C1163 0.951 . S
H1139 C1165 0.950 . S
H1140 C1166 0.950 . S
H1141 C1168 0.950 . S
H1142 C1171 0.950 . S
H1143 C1172 0.950 . S
H1144 C1174 0.950 . S
H1145 C1175 0.950 . S
C1146 H1128 0.951 . S
C1146 C1147 1.366 . S
C1146 C1148 1.388 . S
C1147 C1146 1.366 . S
C1147 C1151 1.385 . S
C1148 H1129 0.951 . S
C1148 C1146 1.388 . S
C1148 C1149 1.366 . S
C1149 C1148 1.366 . S
C1149 C1150 1.414 . S
C1149 C1152 1.499 . S
C1150 H1130 0.950 . S
C1150 C1149 1.414 . S
C1150 C1151 1.374 . S
C1151 H1131 0.950 . S
C1151 C1147 1.385 . S
C1151 C1150 1.374 . S
C1152 C1149 1.499 . S
C1152 C1153 1.373 . S
C1152 C1154 1.389 . S
C1153 H1132 0.950 . S
C1153 C1152 1.373 . S
C1153 C1169 1.377 . S
C1154 C1152 1.389 . S
C1154 C1155 1.524 . S
C1154 C1168 1.377 . S
C1155 C1154 1.524 . S
C1155 C1156 1.397 . S
C1155 C1160 1.363 . S
C1156 H1133 0.950 . S
C1156 C1155 1.397 . S
C1156 C1157 1.334 . S
C1157 H1134 0.950 . S
C1157 C1156 1.334 . S
C1157 C1158 1.287 . S
C1158 C1157 1.287 . S
C1158 C1159 1.524 . S
C1158 H1177 0.913 . S
C1159 H1135 0.950 . S
C1159 C1158 1.524 . S
C1159 C1160 1.415 . S
C1160 H1136 0.950 . S
C1160 C1155 1.363 . S
C1160 C1159 1.415 . S
C1161 H1137 0.951 . S
C1161 C1162 1.366 . S
C1161 C1163 1.388 . S
C1162 C1161 1.366 . S
C1162 C1166 1.385 . S
C1163 H1138 0.951 . S
C1163 C1161 1.388 . S
C1163 C1164 1.366 . S
C1164 C1163 1.366 . S
C1164 C1165 1.414 . S
C1164 C1167 1.499 . S
C1165 H1139 0.950 . S
C1165 C1164 1.414 . S
C1165 C1166 1.374 . S
C1166 H1140 0.950 . S
C1166 C1162 1.385 . S
C1166 C1165 1.374 . S
C1167 C1164 1.499 . S
C1167 C1168 1.373 . S
C1167 C1169 1.389 . S
C1168 H1141 0.950 . S
C1168 C1154 1.377 . S
C1168 C1167 1.373 . S
C1169 C1153 1.377 . S
C1169 C1167 1.389 . S
C1169 C1170 1.524 . S
C1170 C1169 1.524 . S
C1170 C1171 1.397 1_554 S
C1170 C1175 1.363 . S
C1171 H1142 0.950 . S
C1171 C1170 1.397 1_556 S
C1171 C1172 1.334 . S
C1172 H1143 0.950 . S
C1172 C1171 1.334 . S
C1172 C1173 1.287 . S
C1173 C1172 1.287 . S
C1173 C1174 1.524 . S
C1173 H1176 0.999 . S
C1174 H1144 0.950 . S
C1174 C1173 1.524 . S
C1174 C1175 1.415 1_556 S
C1175 H1145 0.950 . S
C1175 C1170 1.363 . S
C1175 C1174 1.415 1_554 S
H1176 C1173 0.999 . S
H1177 C1158 0.913 . S
H1178 C1196 0.951 1_554 S
H1179 C1198 0.951 . S
H1180 C1200 0.950 . S
H1181 C1201 0.950 . S
H1182 C1203 0.950 . S
H1183 C1206 0.950 . S
H1184 C1207 0.950 . S
H1185 C1209 0.950 . S
H1186 C1210 0.950 . S
H1187 C1211 0.951 . S
H1188 C1213 0.951 . S
H1189 C1215 0.950 . S
H1190 C1216 0.950 . S
H1191 C1218 0.950 . S
H1192 C1221 0.950 . S
H1193 C1222 0.947 1_554 S
H1194 C1224 0.950 . S
H1195 C1225 0.950 . S
C1196 H1178 0.951 1_556 S
C1196 C1197 1.366 . S
C1196 C1198 1.388 . S
C1197 C1196 1.366 . S
C1197 C1201 1.385 . S
C1198 H1179 0.951 . S
C1198 C1196 1.388 . S
C1198 C1199 1.366 . S
C1199 C1198 1.366 . S
C1199 C1200 1.414 . S
C1199 C1202 1.499 . S
C1200 H1180 0.950 . S
C1200 C1199 1.414 . S
C1200 C1201 1.374 . S
C1201 H1181 0.950 . S
C1201 C1197 1.385 . S
C1201 C1200 1.374 . S
C1202 C1199 1.499 . S
C1202 C1203 1.373 . S
C1202 C1204 1.389 . S
C1203 H1182 0.950 . S
C1203 C1202 1.373 . S
C1203 C1219 1.377 . S
C1204 C1202 1.389 . S
C1204 C1205 1.524 . S
C1204 C1218 1.377 . S
C1205 C1204 1.524 . S
C1205 C1206 1.397 . S
C1205 C1210 1.363 . S
C1206 H1183 0.950 . S
C1206 C1205 1.397 . S
C1206 C1207 1.334 . S
C1207 H1184 0.950 . S
C1207 C1206 1.334 . S
C1207 C1208 1.287 . S
C1208 C1207 1.287 . S
C1208 C1209 1.524 . S
C1208 H1227 0.913 . S
C1209 H1185 0.950 . S
C1209 C1208 1.524 . S
C1209 C1210 1.415 . S
C1210 H1186 0.950 . S
C1210 C1205 1.363 . S
C1210 C1209 1.415 . S
C1211 H1187 0.951 . S
C1211 C1212 1.366 . S
C1211 C1213 1.388 . S
C1212 C1211 1.366 . S
C1212 C1216 1.385 . S
C1213 H1188 0.951 . S
C1213 C1211 1.388 . S
C1213 C1214 1.366 . S
C1214 C1213 1.366 . S
C1214 C1215 1.414 . S
C1214 C1217 1.499 . S
C1215 H1189 0.950 . S
C1215 C1214 1.414 . S
C1215 C1216 1.374 . S
C1216 H1190 0.950 . S
C1216 C1212 1.385 . S
C1216 C1215 1.374 . S
C1217 C1214 1.499 . S
C1217 C1218 1.373 . S
C1217 C1219 1.389 . S
C1218 H1191 0.950 . S
C1218 C1204 1.377 . S
C1218 C1217 1.373 . S
C1219 C1203 1.377 . S
C1219 C1217 1.389 . S
C1219 C1220 1.524 . S
C1220 C1219 1.524 . S
C1220 C1221 1.397 . S
C1220 C1225 1.363 . S
C1221 H1192 0.950 . S
C1221 C1220 1.397 . S
C1221 C1222 1.336 . S
C1222 H1193 0.947 1_556 S
C1222 C1221 1.336 . S
C1222 C1223 1.288 . S
C1223 C1222 1.288 . S
C1223 C1224 1.524 . S
C1223 H1226 0.999 . S
C1224 H1194 0.950 . S
C1224 C1223 1.524 . S
C1224 C1225 1.415 . S
C1225 H1195 0.950 . S
C1225 C1220 1.363 . S
C1225 C1224 1.415 . S
H1226 C1223 0.999 . S
H1227 C1208 0.913 . S
H1228 C1246 0.951 . S
H1229 C1248 0.951 . S
H1230 C1250 0.950 . S
H1231 C1251 0.950 . S
H1232 C1253 0.950 . S
H1233 C1256 0.950 . S
H1234 C1257 0.950 . S
H1235 C1259 0.950 . S
H1236 C1260 0.950 . S
H1237 C1261 0.951 . S
H1238 C1263 0.951 . S
H1239 C1265 0.950 . S
H1240 C1266 0.950 . S
H1241 C1268 0.950 . S
H1242 C1271 0.950 . S
H1243 C1272 0.950 . S
H1244 C1274 0.950 . S
H1245 C1275 0.950 . S
C1246 H1228 0.951 . S
C1246 C1247 1.366 . S
C1246 C1248 1.388 . S
C1247 C1246 1.366 . S
C1247 C1251 1.385 . S
C1248 H1229 0.951 . S
C1248 C1246 1.388 . S
C1248 C1249 1.366 . S
C1249 C1248 1.366 . S
C1249 C1250 1.414 . S
C1249 C1252 1.499 . S
C1250 H1230 0.950 . S
C1250 C1249 1.414 . S
C1250 C1251 1.374 . S
C1251 H1231 0.950 . S
C1251 C1247 1.385 . S
C1251 C1250 1.374 . S
C1252 C1249 1.499 . S
C1252 C1253 1.373 . S
C1252 C1254 1.389 . S
C1253 H1232 0.950 . S
C1253 C1252 1.373 . S
C1253 C1269 1.377 . S
C1254 C1252 1.389 . S
C1254 C1255 1.524 . S
C1254 C1268 1.377 . S
C1255 C1254 1.524 . S
C1255 C1256 1.397 . S
C1255 C1260 1.363 . S
C1256 H1233 0.950 . S
C1256 C1255 1.397 . S
C1256 C1257 1.334 . S
C1257 H1234 0.950 . S
C1257 C1256 1.334 . S
C1257 C1258 1.287 . S
C1258 C1257 1.287 . S
C1258 C1259 1.524 . S
C1258 H1277 0.913 . S
C1259 H1235 0.950 . S
C1259 C1258 1.524 . S
C1259 C1260 1.415 . S
C1260 H1236 0.950 . S
C1260 C1255 1.363 . S
C1260 C1259 1.415 . S
C1261 H1237 0.951 . S
C1261 C1262 1.366 . S
C1261 C1263 1.388 . S
C1262 C1261 1.366 . S
C1262 C1266 1.385 . S
C1263 H1238 0.951 . S
C1263 C1261 1.388 . S
C1263 C1264 1.366 . S
C1264 C1263 1.366 . S
C1264 C1265 1.414 . S
C1264 C1267 1.499 . S
C1265 H1239 0.950 . S
C1265 C1264 1.414 . S
C1265 C1266 1.374 . S
C1266 H1240 0.950 . S
C1266 C1262 1.385 . S
C1266 C1265 1.374 . S
C1267 C1264 1.499 . S
C1267 C1268 1.373 . S
C1267 C1269 1.389 . S
C1268 H1241 0.950 . S
C1268 C1254 1.377 . S
C1268 C1267 1.373 . S
C1269 C1253 1.377 . S
C1269 C1267 1.389 . S
C1269 C1270 1.524 . S
C1270 C1269 1.524 . S
C1270 C1271 1.397 . S
C1270 C1275 1.363 . S
C1271 H1242 0.950 . S
C1271 C1270 1.397 . S
C1271 C1272 1.334 . S
C1272 H1243 0.950 . S
C1272 C1271 1.334 . S
C1272 C1273 1.287 . S
C1273 C1272 1.287 . S
C1273 C1274 1.524 . S
C1273 H1276 0.999 . S
C1274 H1244 0.950 . S
C1274 C1273 1.524 . S
C1274 C1275 1.415 . S
C1275 H1245 0.950 . S
C1275 C1270 1.363 . S
C1275 C1274 1.415 . S
H1276 C1273 0.999 . S
H1277 C1258 0.913 . S
H1278 C1296 0.951 . S
H1279 C1298 0.951 . S
H1280 C1300 0.950 . S
H1281 C1301 0.950 . S
H1282 C1303 0.950 . S
H1283 C1306 0.950 . S
H1284 C1307 0.950 . S
H1285 C1309 0.950 . S
H1286 C1310 0.950 . S
H1287 C1311 0.951 . S
H1288 C1313 0.951 . S
H1289 C1315 0.950 . S
H1290 C1316 0.950 . S
H1291 C1318 0.950 . S
H1292 C1321 0.950 . S
H1293 C1322 0.950 . S
H1294 C1324 0.950 . S
H1295 C1325 0.950 . S
C1296 H1278 0.951 . S
C1296 C1297 1.366 . S
C1296 C1298 1.388 . S
C1297 C1296 1.366 . S
C1297 C1301 1.385 . S
C1298 H1279 0.951 . S
C1298 C1296 1.388 . S
C1298 C1299 1.366 . S
C1299 C1298 1.366 . S
C1299 C1300 1.414 . S
C1299 C1302 1.499 . S
C1300 H1280 0.950 . S
C1300 C1299 1.414 . S
C1300 C1301 1.374 . S
C1301 H1281 0.950 . S
C1301 C1297 1.385 . S
C1301 C1300 1.374 . S
C1302 C1299 1.499 . S
C1302 C1303 1.373 . S
C1302 C1304 1.389 . S
C1303 H1282 0.950 . S
C1303 C1302 1.373 . S
C1303 C1319 1.377 . S
C1304 C1302 1.389 . S
C1304 C1305 1.524 . S
C1304 C1318 1.377 . S
C1305 C1304 1.524 . S
C1305 C1306 1.397 . S
C1305 C1310 1.363 . S
C1306 H1283 0.950 . S
C1306 C1305 1.397 . S
C1306 C1307 1.334 . S
C1307 H1284 0.950 . S
C1307 C1306 1.334 . S
C1307 C1308 1.287 . S
C1308 C1307 1.287 . S
C1308 C1309 1.524 . S
C1308 H1327 0.913 . S
C1309 H1285 0.950 . S
C1309 C1308 1.524 . S
C1309 C1310 1.415 . S
C1310 H1286 0.950 . S
C1310 C1305 1.363 . S
C1310 C1309 1.415 . S
C1311 H1287 0.951 . S
C1311 C1312 1.366 . S
C1311 C1313 1.388 . S
C1312 C1311 1.366 . S
C1312 C1316 1.385 . S
C1313 H1288 0.951 . S
C1313 C1311 1.388 . S
C1313 C1314 1.366 . S
C1314 C1313 1.366 . S
C1314 C1315 1.414 . S
C1314 C1317 1.499 . S
C1315 H1289 0.950 . S
C1315 C1314 1.414 . S
C1315 C1316 1.374 . S
C1316 H1290 0.950 . S
C1316 C1312 1.385 . S
C1316 C1315 1.374 . S
C1317 C1314 1.499 . S
C1317 C1318 1.373 . S
C1317 C1319 1.389 . S
C1318 H1291 0.950 . S
C1318 C1304 1.377 . S
C1318 C1317 1.373 . S
C1319 C1303 1.377 . S
C1319 C1317 1.389 . S
C1319 C1320 1.524 . S
C1320 C1319 1.524 . S
C1320 C1321 1.397 . S
C1320 C1325 1.363 . S
C1321 H1292 0.950 . S
C1321 C1320 1.397 . S
C1321 C1322 1.334 . S
C1322 H1293 0.950 . S
C1322 C1321 1.334 . S
C1322 C1323 1.287 . S
C1323 C1322 1.287 . S
C1323 C1324 1.524 . S
C1323 H1326 0.999 . S
C1324 H1294 0.950 . S
C1324 C1323 1.524 . S
C1324 C1325 1.415 . S
C1325 H1295 0.950 . S
C1325 C1320 1.363 . S
C1325 C1324 1.415 . S
H1326 C1323 0.999 . S
H1327 C1308 0.913 . S
H1328 C1346 0.951 . S
H1329 C1348 0.951 . S
H1330 C1350 0.950 . S
H1331 C1351 0.950 . S
H1332 C1353 0.950 . S
H1333 C1356 0.950 . S
H1334 C1357 0.950 . S
H1335 C1359 0.950 . S
H1336 C1360 0.950 . S
H1337 C1361 0.951 . S
H1338 C1363 0.951 . S
H1339 C1365 0.950 . S
H1340 C1366 0.950 . S
H1341 C1368 0.950 . S
H1342 C1371 0.950 . S
H1343 C1372 0.950 . S
H1344 C1374 0.950 . S
H1345 C1375 0.950 . S
C1346 H1328 0.951 . S
C1346 C1347 1.366 . S
C1346 C1348 1.388 . S
C1347 C1346 1.366 . S
C1347 C1351 1.385 . S
C1348 H1329 0.951 . S
C1348 C1346 1.388 . S
C1348 C1349 1.366 . S
C1349 C1348 1.366 . S
C1349 C1350 1.414 . S
C1349 C1352 1.499 . S
C1350 H1330 0.950 . S
C1350 C1349 1.414 . S
C1350 C1351 1.374 . S
C1351 H1331 0.950 . S
C1351 C1347 1.385 . S
C1351 C1350 1.374 . S
C1352 C1349 1.499 . S
C1352 C1353 1.373 . S
C1352 C1354 1.389 1_545 S
C1353 H1332 0.950 . S
C1353 C1352 1.373 . S
C1353 C1369 1.377 1_554 S
C1354 C1352 1.389 1_565 S
C1354 C1355 1.524 . S
C1354 C1368 1.377 1_554 S
C1355 C1354 1.524 . S
C1355 C1356 1.397 1_565 S
C1355 C1360 1.363 . S
C1356 H1333 0.950 . S
C1356 C1355 1.397 1_545 S
C1356 C1357 1.334 . S
C1357 H1334 0.950 . S
C1357 C1356 1.334 . S
C1357 C1358 1.287 1_545 S
C1358 C1357 1.287 1_565 S
C1358 C1359 1.524 . S
C1358 H1377 0.913 . S
C1359 H1335 0.950 . S
C1359 C1358 1.524 . S
C1359 C1360 1.415 . S
C1360 H1336 0.950 . S
C1360 C1355 1.363 . S
C1360 C1359 1.415 . S
C1361 H1337 0.951 . S
C1361 C1362 1.366 . S
C1361 C1363 1.388 . S
C1362 C1361 1.366 . S
C1362 C1366 1.385 . S
C1363 H1338 0.951 . S
C1363 C1361 1.388 . S
C1363 C1364 1.366 . S
C1364 C1363 1.366 . S
C1364 C1365 1.414 . S
C1364 C1367 1.499 . S
C1365 H1339 0.950 . S
C1365 C1364 1.414 . S
C1365 C1366 1.374 . S
C1366 H1340 0.950 . S
C1366 C1362 1.385 . S
C1366 C1365 1.374 . S
C1367 C1364 1.499 . S
C1367 C1368 1.373 . S
C1367 C1369 1.389 1_565 S
C1368 H1341 0.950 . S
C1368 C1354 1.377 1_556 S
C1368 C1367 1.373 . S
C1369 C1353 1.377 1_556 S
C1369 C1367 1.389 1_545 S
C1369 C1370 1.524 . S
C1370 C1369 1.524 . S
C1370 C1371 1.397 1_545 S
C1370 C1375 1.363 . S
C1371 H1342 0.950 . S
C1371 C1370 1.397 1_565 S
C1371 C1372 1.334 . S
C1372 H1343 0.950 . S
C1372 C1371 1.334 . S
C1372 C1373 1.287 1_565 S
C1373 C1372 1.287 1_545 S
C1373 C1374 1.524 . S
C1373 H1376 0.999 . S
C1374 H1344 0.950 . S
C1374 C1373 1.524 . S
C1374 C1375 1.415 . S
C1375 H1345 0.950 . S
C1375 C1370 1.363 . S
C1375 C1374 1.415 . S
H1376 C1373 0.999 . S
H1377 C1358 0.913 . S
H1378 C1396 0.951 . S
H1379 C1398 0.951 . S
H1380 C1400 0.950 . S
H1381 C1401 0.950 . S
H1382 C1403 0.950 . S
H1383 C1406 0.950 . S
H1384 C1407 0.950 . S
H1385 C1409 0.950 . S
H1386 C1410 0.950 . S
H1387 C1411 0.951 . S
H1388 C1413 0.951 . S
H1389 C1415 0.950 . S
H1390 C1416 0.950 . S
H1391 C1418 0.950 . S
H1392 C1421 0.950 . S
H1393 C1422 0.950 . S
H1394 C1424 0.950 . S
H1395 C1425 0.950 . S
C1396 H1378 0.951 . S
C1396 C1397 1.366 . S
C1396 C1398 1.388 . S
C1397 C1396 1.366 . S
C1397 C1401 1.385 . S
C1398 H1379 0.951 . S
C1398 C1396 1.388 . S
C1398 C1399 1.366 . S
C1399 C1398 1.366 . S
C1399 C1400 1.414 . S
C1399 C1402 1.499 . S
C1400 H1380 0.950 . S
C1400 C1399 1.414 . S
C1400 C1401 1.374 . S
C1401 H1381 0.950 . S
C1401 C1397 1.385 . S
C1401 C1400 1.374 . S
C1402 C1399 1.499 . S
C1402 C1403 1.373 . S
C1402 C1404 1.389 . S
C1403 H1382 0.950 . S
C1403 C1402 1.373 . S
C1403 C1419 1.377 . S
C1404 C1402 1.389 . S
C1404 C1405 1.524 . S
C1404 C1418 1.377 . S
C1405 C1404 1.524 . S
C1405 C1406 1.397 . S
C1405 C1410 1.363 . S
C1406 H1383 0.950 . S
C1406 C1405 1.397 . S
C1406 C1407 1.334 . S
C1407 H1384 0.950 . S
C1407 C1406 1.334 . S
C1407 C1408 1.287 . S
C1408 C1407 1.287 . S
C1408 C1409 1.524 . S
C1408 H1427 0.913 . S
C1409 H1385 0.950 . S
C1409 C1408 1.524 . S
C1409 C1410 1.415 . S
C1410 H1386 0.950 . S
C1410 C1405 1.363 . S
C1410 C1409 1.415 . S
C1411 H1387 0.951 . S
C1411 C1412 1.366 . S
C1411 C1413 1.388 . S
C1412 C1411 1.366 . S
C1412 C1416 1.385 . S
C1413 H1388 0.951 . S
C1413 C1411 1.388 . S
C1413 C1414 1.366 . S
C1414 C1413 1.366 . S
C1414 C1415 1.414 . S
C1414 C1417 1.499 . S
C1415 H1389 0.950 . S
C1415 C1414 1.414 . S
C1415 C1416 1.374 . S
C1416 H1390 0.950 . S
C1416 C1412 1.385 . S
C1416 C1415 1.374 . S
C1417 C1414 1.499 . S
C1417 C1418 1.373 . S
C1417 C1419 1.389 . S
C1418 H1391 0.950 . S
C1418 C1404 1.377 . S
C1418 C1417 1.373 . S
C1419 C1403 1.377 . S
C1419 C1417 1.389 . S
C1419 C1420 1.524 . S
C1420 C1419 1.524 . S
C1420 C1421 1.397 . S
C1420 C1425 1.363 . S
C1421 H1392 0.950 . S
C1421 C1420 1.397 . S
C1421 C1422 1.334 . S
C1422 H1393 0.950 . S
C1422 C1421 1.334 . S
C1422 C1423 1.287 . S
C1423 C1422 1.287 . S
C1423 C1424 1.524 . S
C1423 H1426 0.999 . S
C1424 H1394 0.950 . S
C1424 C1423 1.524 . S
C1424 C1425 1.415 . S
C1425 H1395 0.950 . S
C1425 C1420 1.363 . S
C1425 C1424 1.415 . S
H1426 C1423 0.999 . S
H1427 C1408 0.913 . S
H1428 C1446 0.951 . S
H1429 C1448 0.951 . S
H1430 C1450 0.950 . S
H1431 C1451 0.950 . S
H1432 C1453 0.950 . S
H1433 C1456 0.950 . S
H1434 C1457 0.950 . S
H1435 C1459 0.950 . S
H1436 C1460 0.950 . S
H1437 C1461 0.951 . S
H1438 C1463 0.951 . S
H1439 C1465 0.950 . S
H1440 C1466 0.950 . S
H1441 C1468 0.950 . S
H1442 C1471 0.950 . S
H1443 C1472 0.950 . S
H1444 C1474 0.950 . S
H1445 C1475 0.950 . S
C1446 H1428 0.951 . S
C1446 C1447 1.366 . S
C1446 C1448 1.388 . S
C1447 C1446 1.366 . S
C1447 C1451 1.385 . S
C1448 H1429 0.951 . S
C1448 C1446 1.388 . S
C1448 C1449 1.366 . S
C1449 C1448 1.366 . S
C1449 C1450 1.414 . S
C1449 C1452 1.499 . S
C1450 H1430 0.950 . S
C1450 C1449 1.414 . S
C1450 C1451 1.374 . S
C1451 H1431 0.950 . S
C1451 C1447 1.385 . S
C1451 C1450 1.374 . S
C1452 C1449 1.499 . S
C1452 C1453 1.373 1_545 S
C1452 C1454 1.389 . S
C1453 H1432 0.950 . S
C1453 C1452 1.373 1_565 S
C1453 C1469 1.377 . S
C1454 C1452 1.389 . S
C1454 C1455 1.524 . S
C1454 C1468 1.377 . S
C1455 C1454 1.524 . S
C1455 C1456 1.397 . S
C1455 C1460 1.363 . S
C1456 H1433 0.950 . S
C1456 C1455 1.397 . S
C1456 C1457 1.334 . S
C1457 H1434 0.950 . S
C1457 C1456 1.334 . S
C1457 C1458 1.287 . S
C1458 C1457 1.287 . S
C1458 C1459 1.524 . S
C1458 H1477 0.913 . S
C1459 H1435 0.950 . S
C1459 C1458 1.524 . S
C1459 C1460 1.415 . S
C1460 H1436 0.950 . S
C1460 C1455 1.363 . S
C1460 C1459 1.415 . S
C1461 H1437 0.951 . S
C1461 C1462 1.366 . S
C1461 C1463 1.388 . S
C1462 C1461 1.366 . S
C1462 C1466 1.385 . S
C1463 H1438 0.951 . S
C1463 C1461 1.388 . S
C1463 C1464 1.366 . S
C1464 C1463 1.366 . S
C1464 C1465 1.414 . S
C1464 C1467 1.499 . S
C1465 H1439 0.950 . S
C1465 C1464 1.414 . S
C1465 C1466 1.374 . S
C1466 H1440 0.950 . S
C1466 C1462 1.385 . S
C1466 C1465 1.374 . S
C1467 C1464 1.499 . S
C1467 C1468 1.373 1_565 S
C1467 C1469 1.389 . S
C1468 H1441 0.950 . S
C1468 C1454 1.377 . S
C1468 C1467 1.373 1_545 S
C1469 C1453 1.377 . S
C1469 C1467 1.389 . S
C1469 C1470 1.524 . S
C1470 C1469 1.524 . S
C1470 C1471 1.397 . S
C1470 C1475 1.363 . S
C1471 H1442 0.950 . S
C1471 C1470 1.397 . S
C1471 C1472 1.334 . S
C1472 H1443 0.950 . S
C1472 C1471 1.334 . S
C1472 C1473 1.287 . S
C1473 C1472 1.287 . S
C1473 C1474 1.524 . S
C1473 H1476 0.999 . S
C1474 H1444 0.950 . S
C1474 C1473 1.524 . S
C1474 C1475 1.415 . S
C1475 H1445 0.950 . S
C1475 C1470 1.363 . S
C1475 C1474 1.415 . S
H1476 C1473 0.999 . S
H1477 C1458 0.913 . S
H1478 C1496 0.951 . S
H1479 C1498 0.951 . S
H1480 C1500 0.950 . S
H1481 C1501 0.950 . S
H1482 C1503 0.950 . S
H1483 C1506 0.950 . S
H1484 C1507 0.950 . S
H1485 C1509 0.950 . S
H1486 C1510 0.950 . S
H1487 C1511 0.951 . S
H1488 C1513 0.951 . S
H1489 C1515 0.950 . S
H1490 C1516 0.950 . S
H1491 C1518 0.950 . S
H1492 C1521 0.950 . S
H1493 C1522 0.950 . S
H1494 C1524 0.950 . S
H1495 C1525 0.950 . S
C1496 H1478 0.951 . S
C1496 C1497 1.366 . S
C1496 C1498 1.388 . S
C1497 C1496 1.366 . S
C1497 C1501 1.385 . S
C1498 H1479 0.951 . S
C1498 C1496 1.388 . S
C1498 C1499 1.366 . S
C1499 C1498 1.366 . S
C1499 C1500 1.414 . S
C1499 C1502 1.499 . S
C1500 H1480 0.950 . S
C1500 C1499 1.414 . S
C1500 C1501 1.374 . S
C1501 H1481 0.950 . S
C1501 C1497 1.385 . S
C1501 C1500 1.374 . S
C1502 C1499 1.499 . S
C1502 C1503 1.373 . S
C1502 C1504 1.389 . S
C1503 H1482 0.950 . S
C1503 C1502 1.373 . S
C1503 C1519 1.377 . S
C1504 C1502 1.389 . S
C1504 C1505 1.524 . S
C1504 C1518 1.377 . S
C1505 C1504 1.524 . S
C1505 C1506 1.397 . S
C1505 C1510 1.363 . S
C1506 H1483 0.950 . S
C1506 C1505 1.397 . S
C1506 C1507 1.334 . S
C1507 H1484 0.950 . S
C1507 C1506 1.334 . S
C1507 C1508 1.287 . S
C1508 C1507 1.287 . S
C1508 C1509 1.524 . S
C1508 H1527 0.913 . S
C1509 H1485 0.950 . S
C1509 C1508 1.524 . S
C1509 C1510 1.415 . S
C1510 H1486 0.950 . S
C1510 C1505 1.363 . S
C1510 C1509 1.415 . S
C1511 H1487 0.951 . S
C1511 C1512 1.366 . S
C1511 C1513 1.388 . S
C1512 C1511 1.366 . S
C1512 C1516 1.385 . S
C1513 H1488 0.951 . S
C1513 C1511 1.388 . S
C1513 C1514 1.366 . S
C1514 C1513 1.366 . S
C1514 C1515 1.414 . S
C1514 C1517 1.499 . S
C1515 H1489 0.950 . S
C1515 C1514 1.414 . S
C1515 C1516 1.374 . S
C1516 H1490 0.950 . S
C1516 C1512 1.385 . S
C1516 C1515 1.374 . S
C1517 C1514 1.499 . S
C1517 C1518 1.373 . S
C1517 C1519 1.389 . S
C1518 H1491 0.950 . S
C1518 C1504 1.377 . S
C1518 C1517 1.373 . S
C1519 C1503 1.377 . S
C1519 C1517 1.389 . S
C1519 C1520 1.524 . S
C1520 C1519 1.524 . S
C1520 C1521 1.397 . S
C1520 C1525 1.363 . S
C1521 H1492 0.950 . S
C1521 C1520 1.397 . S
C1521 C1522 1.334 . S
C1522 H1493 0.950 . S
C1522 C1521 1.334 . S
C1522 C1523 1.287 . S
C1523 C1522 1.287 . S
C1523 C1524 1.524 . S
C1523 H1526 0.999 . S
C1524 H1494 0.950 . S
C1524 C1523 1.524 . S
C1524 C1525 1.415 . S
C1525 H1495 0.950 . S
C1525 C1520 1.363 . S
C1525 C1524 1.415 . S
H1526 C1523 0.999 . S
H1527 C1508 0.913 . S
H1528 C1546 0.951 . S
H1529 C1548 0.951 . S
H1530 C1550 0.950 . S
H1531 C1551 0.950 . S
H1532 C1553 0.950 . S
H1533 C1556 0.950 . S
H1534 C1557 0.950 . S
H1535 C1559 0.950 . S
H1536 C1560 0.950 . S
H1537 C1561 0.951 . S
H1538 C1563 0.951 . S
H1539 C1565 0.950 . S
H1540 C1566 0.950 . S
H1541 C1568 0.950 . S
H1542 C1571 0.950 . S
H1543 C1572 0.950 . S
H1544 C1574 0.950 . S
H1545 C1575 0.950 . S
C1546 H1528 0.951 . S
C1546 C1547 1.366 . S
C1546 C1548 1.388 . S
C1547 C1546 1.366 . S
C1547 C1551 1.385 . S
C1548 H1529 0.951 . S
C1548 C1546 1.388 . S
C1548 C1549 1.366 . S
C1549 C1548 1.366 . S
C1549 C1550 1.414 . S
C1549 C1552 1.499 . S
C1550 H1530 0.950 . S
C1550 C1549 1.414 . S
C1550 C1551 1.374 . S
C1551 H1531 0.950 . S
C1551 C1547 1.385 . S
C1551 C1550 1.374 . S
C1552 C1549 1.499 . S
C1552 C1553 1.373 . S
C1552 C1554 1.389 . S
C1553 H1532 0.950 . S
C1553 C1552 1.373 . S
C1553 C1569 1.377 . S
C1554 C1552 1.389 . S
C1554 C1555 1.524 . S
C1554 C1568 1.377 . S
C1555 C1554 1.524 . S
C1555 C1556 1.397 . S
C1555 C1560 1.363 . S
C1556 H1533 0.950 . S
C1556 C1555 1.397 . S
C1556 C1557 1.334 . S
C1557 H1534 0.950 . S
C1557 C1556 1.334 . S
C1557 C1558 1.287 . S
C1558 C1557 1.287 . S
C1558 C1559 1.524 . S
C1558 H1577 0.913 . S
C1559 H1535 0.950 . S
C1559 C1558 1.524 . S
C1559 C1560 1.415 . S
C1560 H1536 0.950 . S
C1560 C1555 1.363 . S
C1560 C1559 1.415 . S
C1561 H1537 0.951 . S
C1561 C1562 1.366 . S
C1561 C1563 1.388 . S
C1562 C1561 1.366 . S
C1562 C1566 1.385 . S
C1563 H1538 0.951 . S
C1563 C1561 1.388 . S
C1563 C1564 1.366 . S
C1564 C1563 1.366 . S
C1564 C1565 1.414 . S
C1564 C1567 1.499 . S
C1565 H1539 0.950 . S
C1565 C1564 1.414 . S
C1565 C1566 1.374 . S
C1566 H1540 0.950 . S
C1566 C1562 1.385 . S
C1566 C1565 1.374 . S
C1567 C1564 1.499 . S
C1567 C1568 1.373 . S
C1567 C1569 1.389 . S
C1568 H1541 0.950 . S
C1568 C1554 1.377 . S
C1568 C1567 1.373 . S
C1569 C1553 1.377 . S
C1569 C1567 1.389 . S
C1569 C1570 1.524 . S
C1570 C1569 1.524 . S
C1570 C1571 1.397 . S
C1570 C1575 1.363 . S
C1571 H1542 0.950 . S
C1571 C1570 1.397 . S
C1571 C1572 1.334 . S
C1572 H1543 0.950 . S
C1572 C1571 1.334 . S
C1572 C1573 1.287 . S
C1573 C1572 1.287 . S
C1573 C1574 1.524 . S
C1573 H1576 0.999 . S
C1574 H1544 0.950 . S
C1574 C1573 1.524 . S
C1574 C1575 1.415 . S
C1575 H1545 0.950 . S
C1575 C1570 1.363 . S
C1575 C1574 1.415 . S
H1576 C1573 0.999 . S
H1577 C1558 0.913 . S
H1578 C1596 0.951 . S
H1579 C1598 0.951 . S
H1580 C1600 0.950 . S
H1581 C1601 0.950 . S
H1582 C1603 0.950 . S
H1583 C1606 0.950 . S
H1584 C1607 0.950 . S
H1585 C1609 0.950 . S
H1586 C1610 0.950 . S
H1587 C1611 0.951 . S
H1588 C1613 0.951 . S
H1589 C1615 0.950 . S
H1590 C1616 0.950 . S
H1591 C1618 0.950 . S
H1592 C1621 0.950 . S
H1593 C1622 0.950 . S
H1594 C1624 0.950 . S
H1595 C1625 0.950 . S
C1596 H1578 0.951 . S
C1596 C1597 1.366 . S
C1596 C1598 1.388 . S
C1597 C1596 1.366 . S
C1597 C1601 1.385 . S
C1598 H1579 0.951 . S
C1598 C1596 1.388 . S
C1598 C1599 1.366 . S
C1599 C1598 1.366 . S
C1599 C1600 1.414 . S
C1599 C1602 1.499 . S
C1600 H1580 0.950 . S
C1600 C1599 1.414 . S
C1600 C1601 1.374 . S
C1601 H1581 0.950 . S
C1601 C1597 1.385 . S
C1601 C1600 1.374 . S
C1602 C1599 1.499 . S
C1602 C1603 1.373 . S
C1602 C1604 1.389 . S
C1603 H1582 0.950 . S
C1603 C1602 1.373 . S
C1603 C1619 1.377 . S
C1604 C1602 1.389 . S
C1604 C1605 1.524 . S
C1604 C1618 1.377 . S
C1605 C1604 1.524 . S
C1605 C1606 1.397 . S
C1605 C1610 1.363 . S
C1606 H1583 0.950 . S
C1606 C1605 1.397 . S
C1606 C1607 1.334 . S
C1607 H1584 0.950 . S
C1607 C1606 1.334 . S
C1607 C1608 1.287 . S
C1608 C1607 1.287 . S
C1608 C1609 1.524 . S
C1608 H1627 0.913 . S
C1609 H1585 0.950 . S
C1609 C1608 1.524 . S
C1609 C1610 1.415 . S
C1610 H1586 0.950 . S
C1610 C1605 1.363 . S
C1610 C1609 1.415 . S
C1611 H1587 0.951 . S
C1611 C1612 1.366 . S
C1611 C1613 1.388 . S
C1612 C1611 1.366 . S
C1612 C1616 1.385 . S
C1613 H1588 0.951 . S
C1613 C1611 1.388 . S
C1613 C1614 1.366 . S
C1614 C1613 1.366 . S
C1614 C1615 1.414 . S
C1614 C1617 1.499 . S
C1615 H1589 0.950 . S
C1615 C1614 1.414 . S
C1615 C1616 1.374 . S
C1616 H1590 0.950 . S
C1616 C1612 1.385 . S
C1616 C1615 1.374 . S
C1617 C1614 1.499 . S
C1617 C1618 1.373 . S
C1617 C1619 1.389 . S
C1618 H1591 0.950 . S
C1618 C1604 1.377 . S
C1618 C1617 1.373 . S
C1619 C1603 1.377 . S
C1619 C1617 1.389 . S
C1619 C1620 1.524 . S
C1620 C1619 1.524 . S
C1620 C1621 1.397 . S
C1620 C1625 1.363 . S
C1621 H1592 0.950 . S
C1621 C1620 1.397 . S
C1621 C1622 1.334 . S
C1622 H1593 0.950 . S
C1622 C1621 1.334 . S
C1622 C1623 1.287 . S
C1623 C1622 1.287 . S
C1623 C1624 1.524 . S
C1623 H1626 0.999 . S
C1624 H1594 0.950 . S
C1624 C1623 1.524 . S
C1624 C1625 1.415 . S
C1625 H1595 0.950 . S
C1625 C1620 1.363 . S
C1625 C1624 1.415 . S
H1626 C1623 0.999 . S
H1627 C1608 0.913 . S
H1628 C1646 0.951 . S
H1629 C1648 0.951 . S
H1630 C1650 0.950 . S
H1631 C1651 0.950 . S
H1632 C1653 0.950 . S
H1633 C1656 0.950 . S
H1634 C1657 0.950 . S
H1635 C1659 0.950 . S
H1636 C1660 0.950 . S
H1637 C1661 0.951 . S
H1638 C1663 0.951 . S
H1639 C1665 0.950 . S
H1640 C1666 0.950 . S
H1641 C1668 0.950 . S
H1642 C1671 0.950 . S
H1643 C1672 0.950 . S
H1644 C1674 0.950 . S
H1645 C1675 0.950 . S
C1646 H1628 0.951 . S
C1646 C1647 1.366 . S
C1646 C1648 1.388 . S
C1647 C1646 1.366 . S
C1647 C1651 1.385 . S
C1648 H1629 0.951 . S
C1648 C1646 1.388 . S
C1648 C1649 1.366 . S
C1649 C1648 1.366 . S
C1649 C1650 1.414 . S
C1649 C1652 1.499 . S
C1650 H1630 0.950 . S
C1650 C1649 1.414 . S
C1650 C1651 1.374 . S
C1651 H1631 0.950 . S
C1651 C1647 1.385 . S
C1651 C1650 1.374 . S
C1652 C1649 1.499 . S
C1652 C1653 1.373 . S
C1652 C1654 1.389 . S
C1653 H1632 0.950 . S
C1653 C1652 1.373 . S
C1653 C1669 1.377 . S
C1654 C1652 1.389 . S
C1654 C1655 1.524 . S
C1654 C1668 1.377 . S
C1655 C1654 1.524 . S
C1655 C1656 1.397 . S
C1655 C1660 1.363 . S
C1656 H1633 0.950 . S
C1656 C1655 1.397 . S
C1656 C1657 1.334 . S
C1657 H1634 0.950 . S
C1657 C1656 1.334 . S
C1657 C1658 1.287 . S
C1658 C1657 1.287 . S
C1658 C1659 1.524 . S
C1658 H1677 0.913 . S
C1659 H1635 0.950 . S
C1659 C1658 1.524 . S
C1659 C1660 1.415 . S
C1660 H1636 0.950 . S
C1660 C1655 1.363 . S
C1660 C1659 1.415 . S
C1661 H1637 0.951 . S
C1661 C1662 1.366 . S
C1661 C1663 1.388 . S
C1662 C1661 1.366 . S
C1662 C1666 1.385 . S
C1663 H1638 0.951 . S
C1663 C1661 1.388 . S
C1663 C1664 1.366 . S
C1664 C1663 1.366 . S
C1664 C1665 1.414 . S
C1664 C1667 1.499 . S
C1665 H1639 0.950 . S
C1665 C1664 1.414 . S
C1665 C1666 1.374 . S
C1666 H1640 0.950 . S
C1666 C1662 1.385 . S
C1666 C1665 1.374 . S
C1667 C1664 1.499 . S
C1667 C1668 1.373 . S
C1667 C1669 1.389 . S
C1668 H1641 0.950 . S
C1668 C1654 1.377 . S
C1668 C1667 1.373 . S
C1669 C1653 1.377 . S
C1669 C1667 1.389 . S
C1669 C1670 1.524 . S
C1670 C1669 1.524 . S
C1670 C1671 1.397 . S
C1670 C1675 1.363 . S
C1671 H1642 0.950 . S
C1671 C1670 1.397 . S
C1671 C1672 1.334 . S
C1672 H1643 0.950 . S
C1672 C1671 1.334 . S
C1672 C1673 1.287 . S
C1673 C1672 1.287 . S
C1673 C1674 1.524 . S
C1673 H1676 0.999 . S
C1674 H1644 0.950 . S
C1674 C1673 1.524 . S
C1674 C1675 1.415 . S
C1675 H1645 0.950 . S
C1675 C1670 1.363 . S
C1675 C1674 1.415 . S
H1676 C1673 0.999 . S
H1677 C1658 0.913 . S
H1678 C1696 0.951 . S
H1679 C1698 0.951 . S
H1680 C1700 0.950 . S
H1681 C1701 0.950 . S
H1682 C1703 0.950 . S
H1683 C1706 0.950 . S
H1684 C1707 0.958 . S
H1685 C1709 0.950 . S
H1686 C1710 0.950 . S
H1687 C1711 0.951 . S
H1688 C1713 0.951 . S
H1689 C1715 0.950 . S
H1690 C1716 0.950 . S
H1691 C1718 0.950 . S
H1692 C1721 0.950 . S
H1693 C1722 0.958 . S
H1694 C1724 0.950 . S
H1695 C1725 0.950 . S
C1696 H1678 0.951 . S
C1696 C1697 1.366 . S
C1696 C1698 1.388 . S
C1697 C1696 1.366 . S
C1697 C1701 1.385 . S
C1698 H1679 0.951 . S
C1698 C1696 1.388 . S
C1698 C1699 1.366 . S
C1699 C1698 1.366 . S
C1699 C1700 1.414 . S
C1699 C1702 1.499 . S
C1700 H1680 0.950 . S
C1700 C1699 1.414 . S
C1700 C1701 1.374 . S
C1701 H1681 0.950 . S
C1701 C1697 1.385 . S
C1701 C1700 1.374 . S
C1702 C1699 1.499 . S
C1702 C1703 1.373 . S
C1702 C1704 1.389 1_556 S
C1703 H1682 0.950 . S
C1703 C1702 1.373 . S
C1703 C1719 1.377 . S
C1704 C1702 1.389 1_554 S
C1704 C1705 1.524 . S
C1704 C1718 1.377 . S
C1705 C1704 1.524 . S
C1705 C1706 1.397 1_554 S
C1705 C1710 1.363 . S
C1706 H1683 0.950 . S
C1706 C1705 1.397 1_556 S
C1706 C1707 1.336 . S
C1707 H1684 0.958 . S
C1707 C1706 1.336 . S
C1707 C1708 1.277 1_556 S
C1708 C1707 1.277 1_554 S
C1708 C1709 1.524 . S
C1708 H1727 0.913 . S
C1709 H1685 0.950 . S
C1709 C1708 1.524 . S
C1709 C1710 1.415 . S
C1710 H1686 0.950 . S
C1710 C1705 1.363 . S
C1710 C1709 1.415 . S
C1711 H1687 0.951 . S
C1711 C1712 1.366 . S
C1711 C1713 1.388 . S
C1712 C1711 1.366 . S
C1712 C1716 1.385 . S
C1713 H1688 0.951 . S
C1713 C1711 1.388 . S
C1713 C1714 1.366 . S
C1714 C1713 1.366 . S
C1714 C1715 1.414 . S
C1714 C1717 1.499 . S
C1715 H1689 0.950 . S
C1715 C1714 1.414 . S
C1715 C1716 1.374 . S
C1716 H1690 0.950 . S
C1716 C1712 1.385 . S
C1716 C1715 1.374 . S
C1717 C1714 1.499 . S
C1717 C1718 1.373 . S
C1717 C1719 1.389 1_554 S
C1718 H1691 0.950 . S
C1718 C1704 1.377 . S
C1718 C1717 1.373 . S
C1719 C1703 1.377 . S
C1719 C1717 1.389 1_556 S
C1719 C1720 1.524 . S
C1720 C1719 1.524 . S
C1720 C1721 1.397 1_556 S
C1720 C1725 1.363 . S
C1721 H1692 0.950 . S
C1721 C1720 1.397 1_554 S
C1721 C1722 1.336 . S
C1722 H1693 0.958 . S
C1722 C1721 1.336 . S
C1722 C1723 1.277 1_554 S
C1723 C1722 1.277 1_556 S
C1723 C1724 1.524 . S
C1723 H1726 0.999 . S
C1724 H1694 0.950 . S
C1724 C1723 1.524 . S
C1724 C1725 1.415 . S
C1725 H1695 0.950 . S
C1725 C1720 1.363 . S
C1725 C1724 1.415 . S
H1726 C1723 0.999 . S
H1727 C1708 0.913 . S
H1728 C1746 0.951 . S
H1729 C1748 0.951 . S
H1730 C1750 0.950 . S
H1731 C1751 0.950 . S
H1732 C1753 0.950 . S
H1733 C1756 0.950 . S
H1734 C1757 0.950 . S
H1735 C1759 0.950 . S
H1736 C1760 0.950 . S
H1737 C1761 0.951 . S
H1738 C1763 0.951 . S
H1739 C1765 0.950 . S
H1740 C1766 0.950 . S
H1741 C1768 0.950 . S
H1742 C1771 0.950 . S
H1743 C1772 0.950 . S
H1744 C1774 0.950 . S
H1745 C1775 0.950 . S
C1746 H1728 0.951 . S
C1746 C1747 1.366 . S
C1746 C1748 1.388 1_554 S
C1747 C1746 1.366 . S
C1747 C1751 1.385 . S
C1748 H1729 0.951 . S
C1748 C1746 1.388 1_556 S
C1748 C1749 1.366 . S
C1749 C1748 1.366 . S
C1749 C1750 1.414 . S
C1749 C1752 1.499 . S
C1750 H1730 0.950 . S
C1750 C1749 1.414 . S
C1750 C1751 1.374 1_556 S
C1751 H1731 0.950 . S
C1751 C1747 1.385 . S
C1751 C1750 1.374 1_554 S
C1752 C1749 1.499 . S
C1752 C1753 1.373 . S
C1752 C1754 1.389 . S
C1753 H1732 0.950 . S
C1753 C1752 1.373 . S
C1753 C1769 1.377 . S
C1754 C1752 1.389 . S
C1754 C1755 1.524 . S
C1754 C1768 1.377 . S
C1755 C1754 1.524 . S
C1755 C1756 1.397 . S
C1755 C1760 1.363 . S
C1756 H1733 0.950 . S
C1756 C1755 1.397 . S
C1756 C1757 1.334 . S
C1757 H1734 0.950 . S
C1757 C1756 1.334 . S
C1757 C1758 1.287 . S
C1758 C1757 1.287 . S
C1758 C1759 1.524 . S
C1758 H1777 0.913 . S
C1759 H1735 0.950 . S
C1759 C1758 1.524 . S
C1759 C1760 1.415 . S
C1760 H1736 0.950 . S
C1760 C1755 1.363 . S
C1760 C1759 1.415 . S
C1761 H1737 0.951 . S
C1761 C1762 1.366 . S
C1761 C1763 1.388 . S
C1762 C1761 1.366 . S
C1762 C1766 1.385 . S
C1763 H1738 0.951 . S
C1763 C1761 1.388 . S
C1763 C1764 1.366 . S
C1764 C1763 1.366 . S
C1764 C1765 1.414 . S
C1764 C1767 1.499 . S
C1765 H1739 0.950 . S
C1765 C1764 1.414 . S
C1765 C1766 1.374 . S
C1766 H1740 0.950 . S
C1766 C1762 1.385 . S
C1766 C1765 1.374 . S
C1767 C1764 1.499 . S
C1767 C1768 1.373 . S
C1767 C1769 1.389 . S
C1768 H1741 0.950 . S
C1768 C1754 1.377 . S
C1768 C1767 1.373 . S
C1769 C1753 1.377 . S
C1769 C1767 1.389 . S
C1769 C1770 1.524 . S
C1770 C1769 1.524 . S
C1770 C1771 1.397 . S
C1770 C1775 1.363 . S
C1771 H1742 0.950 . S
C1771 C1770 1.397 . S
C1771 C1772 1.334 . S
C1772 H1743 0.950 . S
C1772 C1771 1.334 . S
C1772 C1773 1.287 . S
C1773 C1772 1.287 . S
C1773 C1774 1.524 . S
C1773 H1776 0.999 . S
C1774 H1744 0.950 . S
C1774 C1773 1.524 . S
C1774 C1775 1.415 . S
C1775 H1745 0.950 . S
C1775 C1770 1.363 . S
C1775 C1774 1.415 . S
H1776 C1773 0.999 . S
H1777 C1758 0.913 . S
H1778 C1796 0.951 . S
H1779 C1798 0.951 . S
H1780 C1800 0.950 . S
H1781 C1801 0.950 . S
H1782 C1803 0.950 . S
H1783 C1806 0.950 . S
H1784 C1807 0.950 . S
H1785 C1809 0.950 . S
H1786 C1810 0.950 . S
H1787 C1811 0.951 . S
H1788 C1813 0.951 . S
H1789 C1815 0.950 . S
H1790 C1816 0.950 . S
H1791 C1818 0.950 1_556 S
H1792 C1821 0.950 . S
H1793 C1822 0.950 . S
H1794 C1824 0.950 1_554 S
H1795 C1825 0.950 . S
C1796 H1778 0.951 . S
C1796 C1797 1.366 . S
C1796 C1798 1.388 . S
C1797 C1796 1.366 . S
C1797 C1801 1.385 . S
C1798 H1779 0.951 . S
C1798 C1796 1.388 . S
C1798 C1799 1.366 . S
C1799 C1798 1.366 . S
C1799 C1800 1.414 . S
C1799 C1802 1.499 . S
C1800 H1780 0.950 . S
C1800 C1799 1.414 . S
C1800 C1801 1.374 . S
C1801 H1781 0.950 . S
C1801 C1797 1.385 . S
C1801 C1800 1.374 . S
C1802 C1799 1.499 . S
C1802 C1803 1.373 . S
C1802 C1804 1.389 . S
C1803 H1782 0.950 . S
C1803 C1802 1.373 . S
C1803 C1819 1.377 . S
C1804 C1802 1.389 . S
C1804 C1805 1.524 . S
C1804 C1818 1.377 . S
C1805 C1804 1.524 . S
C1805 C1806 1.397 . S
C1805 C1810 1.363 . S
C1806 H1783 0.950 . S
C1806 C1805 1.397 . S
C1806 C1807 1.334 . S
C1807 H1784 0.950 . S
C1807 C1806 1.334 . S
C1807 C1808 1.287 . S
C1808 C1807 1.287 . S
C1808 C1809 1.524 . S
C1808 H1827 0.913 . S
C1809 H1785 0.950 . S
C1809 C1808 1.524 . S
C1809 C1810 1.415 . S
C1810 H1786 0.950 . S
C1810 C1805 1.363 . S
C1810 C1809 1.415 . S
C1811 H1787 0.951 . S
C1811 C1812 1.366 . S
C1811 C1813 1.388 . S
C1812 C1811 1.366 . S
C1812 C1816 1.385 . S
C1813 H1788 0.951 . S
C1813 C1811 1.388 . S
C1813 C1814 1.366 . S
C1814 C1813 1.366 . S
C1814 C1815 1.414 . S
C1814 C1817 1.499 . S
C1815 H1789 0.950 . S
C1815 C1814 1.414 . S
C1815 C1816 1.374 . S
C1816 H1790 0.950 . S
C1816 C1812 1.385 . S
C1816 C1815 1.374 . S
C1817 C1814 1.499 . S
C1817 C1818 1.373 1_556 S
C1817 C1819 1.389 1_556 S
C1818 H1791 0.950 1_554 S
C1818 C1804 1.377 . S
C1818 C1817 1.373 1_554 S
C1819 C1803 1.377 . S
C1819 C1817 1.389 1_554 S
C1819 C1820 1.524 1_554 S
C1820 C1819 1.524 1_556 S
C1820 C1821 1.397 . S
C1820 C1825 1.363 1_556 S
C1821 H1792 0.950 . S
C1821 C1820 1.397 . S
C1821 C1822 1.334 . S
C1822 H1793 0.950 . S
C1822 C1821 1.334 . S
C1822 C1823 1.287 . S
C1823 C1822 1.287 . S
C1823 C1824 1.524 . S
C1823 H1826 0.999 . S
C1824 H1794 0.950 1_556 S
C1824 C1823 1.524 . S
C1824 C1825 1.415 1_556 S
C1825 H1795 0.950 . S
C1825 C1820 1.363 1_554 S
C1825 C1824 1.415 1_554 S
H1826 C1823 0.999 . S
H1827 C1808 0.913 . S
H1828 C1846 0.951 . S
H1829 C1848 0.951 . S
H1830 C1850 0.950 . S
H1831 C1851 0.950 . S
H1832 C1853 0.950 . S
H1833 C1856 0.950 . S
H1834 C1857 0.950 . S
H1835 C1859 0.950 . S
H1836 C1860 0.950 . S
H1837 C1861 0.951 . S
H1838 C1863 0.951 . S
H1839 C1865 0.950 . S
H1840 C1866 0.950 . S
H1841 C1868 0.950 . S
H1842 C1871 0.950 . S
H1843 C1872 0.950 . S
H1844 C1874 0.950 . S
H1845 C1875 0.950 . S
C1846 H1828 0.951 . S
C1846 C1847 1.366 . S
C1846 C1848 1.388 . S
C1847 C1846 1.366 . S
C1847 C1851 1.385 . S
C1848 H1829 0.951 . S
C1848 C1846 1.388 . S
C1848 C1849 1.366 . S
C1849 C1848 1.366 . S
C1849 C1850 1.414 . S
C1849 C1852 1.499 . S
C1850 H1830 0.950 . S
C1850 C1849 1.414 . S
C1850 C1851 1.374 . S
C1851 H1831 0.950 . S
C1851 C1847 1.385 . S
C1851 C1850 1.374 . S
C1852 C1849 1.499 . S
C1852 C1853 1.373 . S
C1852 C1854 1.389 . S
C1853 H1832 0.950 . S
C1853 C1852 1.373 . S
C1853 C1869 1.377 . S
C1854 C1852 1.389 . S
C1854 C1855 1.524 . S
C1854 C1868 1.377 . S
C1855 C1854 1.524 . S
C1855 C1856 1.397 . S
C1855 C1860 1.363 . S
C1856 H1833 0.950 . S
C1856 C1855 1.397 . S
C1856 C1857 1.334 . S
C1857 H1834 0.950 . S
C1857 C1856 1.334 . S
C1857 C1858 1.287 . S
C1858 C1857 1.287 . S
C1858 C1859 1.524 . S
C1858 H1877 0.913 . S
C1859 H1835 0.950 . S
C1859 C1858 1.524 . S
C1859 C1860 1.415 . S
C1860 H1836 0.950 . S
C1860 C1855 1.363 . S
C1860 C1859 1.415 . S
C1861 H1837 0.951 . S
C1861 C1862 1.366 . S
C1861 C1863 1.388 . S
C1862 C1861 1.366 . S
C1862 C1866 1.385 . S
C1863 H1838 0.951 . S
C1863 C1861 1.388 . S
C1863 C1864 1.366 . S
C1864 C1863 1.366 . S
C1864 C1865 1.414 . S
C1864 C1867 1.499 . S
C1865 H1839 0.950 . S
C1865 C1864 1.414 . S
C1865 C1866 1.374 . S
C1866 H1840 0.950 . S
C1866 C1862 1.385 . S
C1866 C1865 1.374 . S
C1867 C1864 1.499 . S
C1867 C1868 1.373 . S
C1867 C1869 1.389 . S
C1868 H1841 0.950 . S
C1868 C1854 1.377 . S
C1868 C1867 1.373 . S
C1869 C1853 1.377 . S
C1869 C1867 1.389 . S
C1869 C1870 1.524 . S
C1870 C1869 1.524 . S
C1870 C1871 1.397 . S
C1870 C1875 1.363 . S
C1871 H1842 0.950 . S
C1871 C1870 1.397 . S
C1871 C1872 1.334 . S
C1872 H1843 0.950 . S
C1872 C1871 1.334 . S
C1872 C1873 1.287 . S
C1873 C1872 1.287 . S
C1873 C1874 1.524 . S
C1873 H1876 0.999 . S
C1874 H1844 0.950 . S
C1874 C1873 1.524 . S
C1874 C1875 1.415 . S
C1875 H1845 0.950 . S
C1875 C1870 1.363 . S
C1875 C1874 1.415 . S
H1876 C1873 0.999 . S
H1877 C1858 0.913 . S
H1878 C1896 0.951 . S
H1879 C1898 0.951 . S
H1880 C1900 0.950 . S
H1881 C1901 0.950 . S
H1882 C1903 0.950 . S
H1883 C1906 0.950 . S
H1884 C1907 0.950 . S
H1885 C1909 0.950 . S
H1886 C1910 0.950 . S
H1887 C1911 0.951 . S
H1888 C1913 0.951 . S
H1889 C1915 0.950 . S
H1890 C1916 0.950 . S
H1891 C1918 0.950 . S
H1892 C1921 0.950 . S
H1893 C1922 0.950 . S
H1894 C1924 0.950 . S
H1895 C1925 0.950 . S
C1896 H1878 0.951 . S
C1896 C1897 1.366 . S
C1896 C1898 1.388 . S
C1897 C1896 1.366 . S
C1897 C1901 1.385 . S
C1898 H1879 0.951 . S
C1898 C1896 1.388 . S
C1898 C1899 1.366 . S
C1899 C1898 1.366 . S
C1899 C1900 1.414 . S
C1899 C1902 1.499 . S
C1900 H1880 0.950 . S
C1900 C1899 1.414 . S
C1900 C1901 1.374 . S
C1901 H1881 0.950 . S
C1901 C1897 1.385 . S
C1901 C1900 1.374 . S
C1902 C1899 1.499 . S
C1902 C1903 1.373 . S
C1902 C1904 1.389 . S
C1903 H1882 0.950 . S
C1903 C1902 1.373 . S
C1903 C1919 1.377 . S
C1904 C1902 1.389 . S
C1904 C1905 1.524 . S
C1904 C1918 1.377 . S
C1905 C1904 1.524 . S
C1905 C1906 1.397 . S
C1905 C1910 1.363 . S
C1906 H1883 0.950 . S
C1906 C1905 1.397 . S
C1906 C1907 1.334 . S
C1907 H1884 0.950 . S
C1907 C1906 1.334 . S
C1907 C1908 1.287 . S
C1908 C1907 1.287 . S
C1908 C1909 1.524 . S
C1908 H1927 0.913 . S
C1909 H1885 0.950 . S
C1909 C1908 1.524 . S
C1909 C1910 1.415 . S
C1910 H1886 0.950 . S
C1910 C1905 1.363 . S
C1910 C1909 1.415 . S
C1911 H1887 0.951 . S
C1911 C1912 1.366 . S
C1911 C1913 1.388 . S
C1912 C1911 1.366 . S
C1912 C1916 1.385 . S
C1913 H1888 0.951 . S
C1913 C1911 1.388 . S
C1913 C1914 1.366 . S
C1914 C1913 1.366 . S
C1914 C1915 1.414 . S
C1914 C1917 1.499 . S
C1915 H1889 0.950 . S
C1915 C1914 1.414 . S
C1915 C1916 1.374 . S
C1916 H1890 0.950 . S
C1916 C1912 1.385 . S
C1916 C1915 1.374 . S
C1917 C1914 1.499 . S
C1917 C1918 1.373 . S
C1917 C1919 1.389 . S
C1918 H1891 0.950 . S
C1918 C1904 1.377 . S
C1918 C1917 1.373 . S
C1919 C1903 1.377 . S
C1919 C1917 1.389 . S
C1919 C1920 1.524 . S
C1920 C1919 1.524 . S
C1920 C1921 1.397 . S
C1920 C1925 1.363 . S
C1921 H1892 0.950 . S
C1921 C1920 1.397 . S
C1921 C1922 1.334 . S
C1922 H1893 0.950 . S
C1922 C1921 1.334 . S
C1922 C1923 1.287 . S
C1923 C1922 1.287 . S
C1923 C1924 1.524 . S
C1923 H1926 0.999 . S
C1924 H1894 0.950 . S
C1924 C1923 1.524 . S
C1924 C1925 1.415 . S
C1925 H1895 0.950 . S
C1925 C1920 1.363 . S
C1925 C1924 1.415 . S
H1926 C1923 0.999 . S
H1927 C1908 0.913 . S
H1928 C1946 0.951 . S
H1929 C1948 0.951 . S
H1930 C1950 0.950 . S
H1931 C1951 0.950 . S
H1932 C1953 0.950 . S
H1933 C1956 0.950 . S
H1934 C1957 0.950 . S
H1935 C1959 0.950 . S
H1936 C1960 0.950 . S
H1937 C1961 0.951 . S
H1938 C1963 0.951 . S
H1939 C1965 0.950 . S
H1940 C1966 0.950 . S
H1941 C1968 0.950 . S
H1942 C1971 0.950 . S
H1943 C1972 0.950 . S
H1944 C1974 0.950 . S
H1945 C1975 0.950 . S
C1946 H1928 0.951 . S
C1946 C1947 1.366 . S
C1946 C1948 1.388 . S
C1947 C1946 1.366 . S
C1947 C1951 1.385 . S
C1948 H1929 0.951 . S
C1948 C1946 1.388 . S
C1948 C1949 1.366 . S
C1949 C1948 1.366 . S
C1949 C1950 1.414 . S
C1949 C1952 1.499 . S
C1950 H1930 0.950 . S
C1950 C1949 1.414 . S
C1950 C1951 1.374 . S
C1951 H1931 0.950 . S
C1951 C1947 1.385 . S
C1951 C1950 1.374 . S
C1952 C1949 1.499 . S
C1952 C1953 1.373 . S
C1952 C1954 1.389 . S
C1953 H1932 0.950 . S
C1953 C1952 1.373 . S
C1953 C1969 1.377 . S
C1954 C1952 1.389 . S
C1954 C1955 1.524 . S
C1954 C1968 1.377 . S
C1955 C1954 1.524 . S
C1955 C1956 1.397 . S
C1955 C1960 1.363 . S
C1956 H1933 0.950 . S
C1956 C1955 1.397 . S
C1956 C1957 1.334 . S
C1957 H1934 0.950 . S
C1957 C1956 1.334 . S
C1957 C1958 1.287 . S
C1958 C1957 1.287 . S
C1958 C1959 1.524 . S
C1958 H1977 0.913 . S
C1959 H1935 0.950 . S
C1959 C1958 1.524 . S
C1959 C1960 1.415 . S
C1960 H1936 0.950 . S
C1960 C1955 1.363 . S
C1960 C1959 1.415 . S
C1961 H1937 0.951 . S
C1961 C1962 1.366 . S
C1961 C1963 1.388 1_556 S
C1962 C1961 1.366 . S
C1962 C1966 1.385 . S
C1963 H1938 0.951 . S
C1963 C1961 1.388 1_554 S
C1963 C1964 1.366 . S
C1964 C1963 1.366 . S
C1964 C1965 1.414 . S
C1964 C1967 1.499 . S
C1965 H1939 0.950 . S
C1965 C1964 1.414 . S
C1965 C1966 1.374 1_554 S
C1966 H1940 0.950 . S
C1966 C1962 1.385 . S
C1966 C1965 1.374 1_556 S
C1967 C1964 1.499 . S
C1967 C1968 1.373 . S
C1967 C1969 1.389 . S
C1968 H1941 0.950 . S
C1968 C1954 1.377 . S
C1968 C1967 1.373 . S
C1969 C1953 1.377 . S
C1969 C1967 1.389 . S
C1969 C1970 1.524 . S
C1970 C1969 1.524 . S
C1970 C1971 1.397 . S
C1970 C1975 1.363 . S
C1971 H1942 0.950 . S
C1971 C1970 1.397 . S
C1971 C1972 1.334 . S
C1972 H1943 0.950 . S
C1972 C1971 1.334 . S
C1972 C1973 1.287 . S
C1973 C1972 1.287 . S
C1973 C1974 1.524 . S
C1973 H1976 0.999 . S
C1974 H1944 0.950 . S
C1974 C1973 1.524 . S
C1974 C1975 1.415 . S
C1975 H1945 0.950 . S
C1975 C1970 1.363 . S
C1975 C1974 1.415 . S
H1976 C1973 0.999 . S
H1977 C1958 0.913 . S
H1978 C1996 0.951 . S
H1979 C1998 0.951 . S
H1980 C2000 0.950 . S
H1981 C2001 0.950 . S
H1982 C2003 0.950 . S
H1983 C2006 0.950 . S
H1984 C2007 0.950 . S
H1985 C2009 0.950 . S
H1986 C2010 0.950 . S
H1987 C2011 0.951 . S
H1988 C2013 0.951 . S
H1989 C2015 0.950 . S
H1990 C2016 0.950 . S
H1991 C2018 0.950 . S
H1992 C2021 0.950 . S
H1993 C2022 0.950 . S
H1994 C2024 0.950 . S
H1995 C2025 0.950 . S
C1996 H1978 0.951 . S
C1996 C1997 1.366 . S
C1996 C1998 1.388 . S
C1997 C1996 1.366 . S
C1997 C2001 1.385 . S
C1998 H1979 0.951 . S
C1998 C1996 1.388 . S
C1998 C1999 1.366 . S
C1999 C1998 1.366 . S
C1999 C2000 1.414 . S
C1999 C2002 1.499 . S
C2000 H1980 0.950 . S
C2000 C1999 1.414 . S
C2000 C2001 1.374 . S
C2001 H1981 0.950 . S
C2001 C1997 1.385 . S
C2001 C2000 1.374 . S
C2002 C1999 1.499 . S
C2002 C2003 1.373 . S
C2002 C2004 1.389 . S
C2003 H1982 0.950 . S
C2003 C2002 1.373 . S
C2003 C2019 1.377 . S
C2004 C2002 1.389 . S
C2004 C2005 1.524 . S
C2004 C2018 1.377 . S
C2005 C2004 1.524 . S
C2005 C2006 1.397 . S
C2005 C2010 1.363 . S
C2006 H1983 0.950 . S
C2006 C2005 1.397 . S
C2006 C2007 1.334 . S
C2007 H1984 0.950 . S
C2007 C2006 1.334 . S
C2007 C2008 1.287 . S
C2008 C2007 1.287 . S
C2008 C2009 1.524 . S
C2008 H2027 0.913 . S
C2009 H1985 0.950 . S
C2009 C2008 1.524 . S
C2009 C2010 1.415 . S
C2010 H1986 0.950 . S
C2010 C2005 1.363 . S
C2010 C2009 1.415 . S
C2011 H1987 0.951 . S
C2011 C2012 1.366 . S
C2011 C2013 1.388 . S
C2012 C2011 1.366 . S
C2012 C2016 1.385 . S
C2013 H1988 0.951 . S
C2013 C2011 1.388 . S
C2013 C2014 1.366 . S
C2014 C2013 1.366 . S
C2014 C2015 1.414 . S
C2014 C2017 1.499 . S
C2015 H1989 0.950 . S
C2015 C2014 1.414 . S
C2015 C2016 1.374 . S
C2016 H1990 0.950 . S
C2016 C2012 1.385 . S
C2016 C2015 1.374 . S
C2017 C2014 1.499 . S
C2017 C2018 1.373 . S
C2017 C2019 1.389 . S
C2018 H1991 0.950 . S
C2018 C2004 1.377 . S
C2018 C2017 1.373 . S
C2019 C2003 1.377 . S
C2019 C2017 1.389 . S
C2019 C2020 1.524 . S
C2020 C2019 1.524 . S
C2020 C2021 1.397 . S
C2020 C2025 1.363 . S
C2021 H1992 0.950 . S
C2021 C2020 1.397 . S
C2021 C2022 1.334 . S
C2022 H1993 0.950 . S
C2022 C2021 1.334 . S
C2022 C2023 1.287 . S
C2023 C2022 1.287 . S
C2023 C2024 1.524 . S
C2023 H2026 0.999 . S
C2024 H1994 0.950 . S
C2024 C2023 1.524 . S
C2024 C2025 1.415 . S
C2025 H1995 0.950 . S
C2025 C2020 1.363 . S
C2025 C2024 1.415 . S
H2026 C2023 0.999 . S
H2027 C2008 0.913 . S
H2028 C2046 0.951 . S
H2029 C2048 0.951 . S
H2030 C2050 0.950 . S
H2031 C2051 0.950 . S
H2032 C2053 0.950 . S
H2033 C2056 0.950 . S
H2034 C2057 0.950 . S
H2035 C2059 0.950 . S
H2036 C2060 0.950 . S
H2037 C2061 0.951 . S
H2038 C2063 0.951 . S
H2039 C2065 0.950 . S
H2040 C2066 0.950 . S
H2041 C2068 0.950 . S
H2042 C2071 0.950 . S
H2043 C2072 0.950 . S
H2044 C2074 0.950 . S
H2045 C2075 0.950 . S
C2046 H2028 0.951 . S
C2046 C2047 1.366 . S
C2046 C2048 1.388 . S
C2047 C2046 1.366 . S
C2047 C2051 1.385 . S
C2048 H2029 0.951 . S
C2048 C2046 1.388 . S
C2048 C2049 1.366 . S
C2049 C2048 1.366 . S
C2049 C2050 1.414 . S
C2049 C2052 1.499 . S
C2050 H2030 0.950 . S
C2050 C2049 1.414 . S
C2050 C2051 1.374 . S
C2051 H2031 0.950 . S
C2051 C2047 1.385 . S
C2051 C2050 1.374 . S
C2052 C2049 1.499 . S
C2052 C2053 1.373 . S
C2052 C2054 1.389 . S
C2053 H2032 0.950 . S
C2053 C2052 1.373 . S
C2053 C2069 1.377 . S
C2054 C2052 1.389 . S
C2054 C2055 1.524 . S
C2054 C2068 1.377 . S
C2055 C2054 1.524 . S
C2055 C2056 1.397 . S
C2055 C2060 1.363 . S
C2056 H2033 0.950 . S
C2056 C2055 1.397 . S
C2056 C2057 1.334 . S
C2057 H2034 0.950 . S
C2057 C2056 1.334 . S
C2057 C2058 1.287 . S
C2058 C2057 1.287 . S
C2058 C2059 1.524 . S
C2058 H2077 0.913 . S
C2059 H2035 0.950 . S
C2059 C2058 1.524 . S
C2059 C2060 1.415 . S
C2060 H2036 0.950 . S
C2060 C2055 1.363 . S
C2060 C2059 1.415 . S
C2061 H2037 0.951 . S
C2061 C2062 1.366 . S
C2061 C2063 1.388 . S
C2062 C2061 1.366 . S
C2062 C2066 1.385 . S
C2063 H2038 0.951 . S
C2063 C2061 1.388 . S
C2063 C2064 1.366 . S
C2064 C2063 1.366 . S
C2064 C2065 1.414 . S
C2064 C2067 1.499 . S
C2065 H2039 0.950 . S
C2065 C2064 1.414 . S
C2065 C2066 1.374 . S
C2066 H2040 0.950 . S
C2066 C2062 1.385 . S
C2066 C2065 1.374 . S
C2067 C2064 1.499 . S
C2067 C2068 1.373 . S
C2067 C2069 1.389 . S
C2068 H2041 0.950 . S
C2068 C2054 1.377 . S
C2068 C2067 1.373 . S
C2069 C2053 1.377 . S
C2069 C2067 1.389 . S
C2069 C2070 1.524 . S
C2070 C2069 1.524 . S
C2070 C2071 1.397 . S
C2070 C2075 1.363 . S
C2071 H2042 0.950 . S
C2071 C2070 1.397 . S
C2071 C2072 1.334 . S
C2072 H2043 0.950 . S
C2072 C2071 1.334 . S
C2072 C2073 1.287 . S
C2073 C2072 1.287 . S
C2073 C2074 1.524 . S
C2073 H2076 0.999 . S
C2074 H2044 0.950 . S
C2074 C2073 1.524 . S
C2074 C2075 1.415 . S
C2075 H2045 0.950 . S
C2075 C2070 1.363 . S
C2075 C2074 1.415 . S
H2076 C2073 0.999 . S
H2077 C2058 0.913 . S
H2078 C2096 0.951 . S
H2079 C2098 0.951 . S
H2080 C2100 0.950 . S
H2081 C2101 0.950 . S
H2082 C2103 0.950 . S
H2083 C2106 0.950 . S
H2084 C2107 0.950 . S
H2085 C2109 0.950 . S
H2086 C2110 0.950 . S
H2087 C2111 0.951 . S
H2088 C2113 0.951 . S
H2089 C2115 0.950 . S
H2090 C2116 0.950 . S
H2091 C2118 0.950 1_554 S
H2092 C2121 0.950 . S
H2093 C2122 0.950 . S
H2094 C2124 0.950 . S
H2095 C2125 0.950 . S
C2096 H2078 0.951 . S
C2096 C2097 1.366 . S
C2096 C2098 1.388 . S
C2097 C2096 1.366 . S
C2097 C2101 1.385 . S
C2098 H2079 0.951 . S
C2098 C2096 1.388 . S
C2098 C2099 1.366 . S
C2099 C2098 1.366 . S
C2099 C2100 1.414 . S
C2099 C2102 1.499 . S
C2100 H2080 0.950 . S
C2100 C2099 1.414 . S
C2100 C2101 1.374 . S
C2101 H2081 0.950 . S
C2101 C2097 1.385 . S
C2101 C2100 1.374 . S
C2102 C2099 1.499 . S
C2102 C2103 1.373 . S
C2102 C2104 1.389 . S
C2103 H2082 0.950 . S
C2103 C2102 1.373 . S
C2103 C2119 1.377 . S
C2104 C2102 1.389 . S
C2104 C2105 1.524 . S
C2104 C2118 1.377 . S
C2105 C2104 1.524 . S
C2105 C2106 1.397 . S
C2105 C2110 1.363 . S
C2106 H2083 0.950 . S
C2106 C2105 1.397 . S
C2106 C2107 1.334 . S
C2107 H2084 0.950 . S
C2107 C2106 1.334 . S
C2107 C2108 1.287 . S
C2108 C2107 1.287 . S
C2108 C2109 1.524 . S
C2108 H2127 0.913 . S
C2109 H2085 0.950 . S
C2109 C2108 1.524 . S
C2109 C2110 1.415 . S
C2110 H2086 0.950 . S
C2110 C2105 1.363 . S
C2110 C2109 1.415 . S
C2111 H2087 0.951 . S
C2111 C2112 1.366 . S
C2111 C2113 1.388 . S
C2112 C2111 1.366 . S
C2112 C2116 1.385 . S
C2113 H2088 0.951 . S
C2113 C2111 1.388 . S
C2113 C2114 1.366 . S
C2114 C2113 1.366 . S
C2114 C2115 1.414 . S
C2114 C2117 1.499 . S
C2115 H2089 0.950 . S
C2115 C2114 1.414 . S
C2115 C2116 1.374 . S
C2116 H2090 0.950 . S
C2116 C2112 1.385 . S
C2116 C2115 1.374 . S
C2117 C2114 1.499 . S
C2117 C2118 1.373 1_554 S
C2117 C2119 1.389 1_554 S
C2118 H2091 0.950 1_556 S
C2118 C2104 1.377 . S
C2118 C2117 1.373 1_556 S
C2119 C2103 1.377 . S
C2119 C2117 1.389 1_556 S
C2119 C2120 1.525 . S
C2120 C2119 1.525 . S
C2120 C2121 1.396 1_556 S
C2120 C2125 1.363 . S
C2121 H2092 0.950 . S
C2121 C2120 1.396 1_554 S
C2121 C2122 1.334 . S
C2122 H2093 0.950 . S
C2122 C2121 1.334 . S
C2122 C2123 1.287 . S
C2123 C2122 1.287 . S
C2123 C2124 1.524 1_554 S
C2123 H2126 0.999 . S
C2124 H2094 0.950 . S
C2124 C2123 1.524 1_556 S
C2124 C2125 1.415 . S
C2125 H2095 0.950 . S
C2125 C2120 1.363 . S
C2125 C2124 1.415 . S
H2126 C2123 0.999 . S
H2127 C2108 0.913 . S
H2128 C2146 0.951 . S
H2129 C2148 0.951 . S
H2130 C2150 0.950 . S
H2131 C2151 0.950 . S
H2132 C2153 0.950 1_554 S
H2133 C2156 0.950 . S
H2134 C2157 0.950 . S
H2135 C2159 0.950 . S
H2136 C2160 0.950 . S
H2137 C2161 0.951 . S
H2138 C2163 0.951 . S
H2139 C2165 0.950 . S
H2140 C2166 0.950 . S
H2141 C2168 0.950 . S
H2142 C2171 0.950 . S
H2143 C2172 0.950 . S
H2144 C2174 0.950 . S
H2145 C2175 0.950 . S
C2146 H2128 0.951 . S
C2146 C2147 1.366 . S
C2146 C2148 1.388 . S
C2147 C2146 1.366 . S
C2147 C2151 1.385 . S
C2148 H2129 0.951 . S
C2148 C2146 1.388 . S
C2148 C2149 1.366 . S
C2149 C2148 1.366 . S
C2149 C2150 1.414 . S
C2149 C2152 1.499 . S
C2150 H2130 0.950 . S
C2150 C2149 1.414 . S
C2150 C2151 1.374 . S
C2151 H2131 0.950 . S
C2151 C2147 1.385 . S
C2151 C2150 1.374 . S
C2152 C2149 1.499 . S
C2152 C2153 1.373 1_554 S
C2152 C2154 1.389 1_554 S
C2153 H2132 0.950 1_556 S
C2153 C2152 1.373 1_556 S
C2153 C2169 1.377 . S
C2154 C2152 1.389 1_556 S
C2154 C2155 1.524 1_556 S
C2154 C2168 1.377 . S
C2155 C2154 1.524 1_554 S
C2155 C2156 1.397 . S
C2155 C2160 1.363 1_554 S
C2156 H2133 0.950 . S
C2156 C2155 1.397 . S
C2156 C2157 1.334 . S
C2157 H2134 0.950 . S
C2157 C2156 1.334 . S
C2157 C2158 1.287 . S
C2158 C2157 1.287 . S
C2158 C2159 1.524 . S
C2158 H2177 0.913 . S
C2159 H2135 0.950 . S
C2159 C2158 1.524 . S
C2159 C2160 1.415 1_554 S
C2160 H2136 0.950 . S
C2160 C2155 1.363 1_556 S
C2160 C2159 1.415 1_556 S
C2161 H2137 0.951 . S
C2161 C2162 1.366 . S
C2161 C2163 1.388 . S
C2162 C2161 1.366 . S
C2162 C2166 1.385 . S
C2163 H2138 0.951 . S
C2163 C2161 1.388 . S
C2163 C2164 1.366 . S
C2164 C2163 1.366 . S
C2164 C2165 1.414 . S
C2164 C2167 1.499 . S
C2165 H2139 0.950 . S
C2165 C2164 1.414 . S
C2165 C2166 1.374 . S
C2166 H2140 0.950 . S
C2166 C2162 1.385 . S
C2166 C2165 1.374 . S
C2167 C2164 1.499 . S
C2167 C2168 1.373 . S
C2167 C2169 1.389 . S
C2168 H2141 0.950 . S
C2168 C2154 1.377 . S
C2168 C2167 1.373 . S
C2169 C2153 1.377 . S
C2169 C2167 1.389 . S
C2169 C2170 1.524 . S
C2170 C2169 1.524 . S
C2170 C2171 1.397 . S
C2170 C2175 1.363 . S
C2171 H2142 0.950 . S
C2171 C2170 1.397 . S
C2171 C2172 1.334 . S
C2172 H2143 0.950 . S
C2172 C2171 1.334 . S
C2172 C2173 1.287 . S
C2173 C2172 1.287 . S
C2173 C2174 1.524 . S
C2173 H2176 0.999 . S
C2174 H2144 0.950 . S
C2174 C2173 1.524 . S
C2174 C2175 1.415 . S
C2175 H2145 0.950 . S
C2175 C2170 1.363 . S
C2175 C2174 1.415 . S
H2176 C2173 0.999 . S
H2177 C2158 0.913 . S
H2178 C2196 0.951 . S
H2179 C2198 0.951 . S
H2180 C2200 0.950 . S
H2181 C2201 0.950 . S
H2182 C2203 0.950 . S
H2183 C2206 0.950 . S
H2184 C2207 0.950 . S
H2185 C2209 0.950 . S
H2186 C2210 0.950 . S
H2187 C2211 0.951 . S
H2188 C2213 0.951 . S
H2189 C2215 0.950 . S
H2190 C2216 0.950 . S
H2191 C2218 0.950 . S
H2192 C2221 0.950 . S
H2193 C2222 0.950 . S
H2194 C2224 0.950 . S
H2195 C2225 0.950 . S
C2196 H2178 0.951 . S
C2196 C2197 1.366 . S
C2196 C2198 1.388 . S
C2197 C2196 1.366 . S
C2197 C2201 1.385 . S
C2198 H2179 0.951 . S
C2198 C2196 1.388 . S
C2198 C2199 1.366 . S
C2199 C2198 1.366 . S
C2199 C2200 1.414 . S
C2199 C2202 1.499 . S
C2200 H2180 0.950 . S
C2200 C2199 1.414 . S
C2200 C2201 1.374 . S
C2201 H2181 0.950 . S
C2201 C2197 1.385 . S
C2201 C2200 1.374 . S
C2202 C2199 1.499 . S
C2202 C2203 1.373 . S
C2202 C2204 1.389 . S
C2203 H2182 0.950 . S
C2203 C2202 1.373 . S
C2203 C2219 1.377 . S
C2204 C2202 1.389 . S
C2204 C2205 1.524 . S
C2204 C2218 1.377 . S
C2205 C2204 1.524 . S
C2205 C2206 1.397 . S
C2205 C2210 1.363 . S
C2206 H2183 0.950 . S
C2206 C2205 1.397 . S
C2206 C2207 1.334 . S
C2207 H2184 0.950 . S
C2207 C2206 1.334 . S
C2207 C2208 1.287 . S
C2208 C2207 1.287 . S
C2208 C2209 1.524 . S
C2208 H2227 0.913 . S
C2209 H2185 0.950 . S
C2209 C2208 1.524 . S
C2209 C2210 1.415 . S
C2210 H2186 0.950 . S
C2210 C2205 1.363 . S
C2210 C2209 1.415 . S
C2211 H2187 0.951 . S
C2211 C2212 1.366 . S
C2211 C2213 1.388 . S
C2212 C2211 1.366 . S
C2212 C2216 1.385 . S
C2213 H2188 0.951 . S
C2213 C2211 1.388 . S
C2213 C2214 1.366 . S
C2214 C2213 1.366 . S
C2214 C2215 1.414 . S
C2214 C2217 1.499 . S
C2215 H2189 0.950 . S
C2215 C2214 1.414 . S
C2215 C2216 1.374 . S
C2216 H2190 0.950 . S
C2216 C2212 1.385 . S
C2216 C2215 1.374 . S
C2217 C2214 1.499 . S
C2217 C2218 1.373 . S
C2217 C2219 1.389 . S
C2218 H2191 0.950 . S
C2218 C2204 1.377 . S
C2218 C2217 1.373 . S
C2219 C2203 1.377 . S
C2219 C2217 1.389 . S
C2219 C2220 1.524 . S
C2220 C2219 1.524 . S
C2220 C2221 1.397 . S
C2220 C2225 1.363 . S
C2221 H2192 0.950 . S
C2221 C2220 1.397 . S
C2221 C2222 1.334 . S
C2222 H2193 0.950 . S
C2222 C2221 1.334 . S
C2222 C2223 1.287 . S
C2223 C2222 1.287 . S
C2223 C2224 1.524 . S
C2223 H2226 0.999 . S
C2224 H2194 0.950 . S
C2224 C2223 1.524 . S
C2224 C2225 1.415 . S
C2225 H2195 0.950 . S
C2225 C2220 1.363 . S
C2225 C2224 1.415 . S
H2226 C2223 0.999 . S
H2227 C2208 0.913 . S
H2228 C2246 0.951 . S
H2229 C2248 0.951 . S
H2230 C2250 0.950 . S
H2231 C2251 0.950 . S
H2232 C2253 0.950 . S
H2233 C2256 0.950 . S
H2234 C2257 0.950 . S
H2235 C2259 0.950 . S
H2236 C2260 0.950 . S
H2237 C2261 0.951 . S
H2238 C2263 0.951 . S
H2239 C2265 0.950 . S
H2240 C2266 0.950 . S
H2241 C2268 0.950 . S
H2242 C2271 0.950 . S
H2243 C2272 0.950 . S
H2244 C2274 0.950 . S
H2245 C2275 0.950 . S
C2246 H2228 0.951 . S
C2246 C2247 1.366 . S
C2246 C2248 1.388 . S
C2247 C2246 1.366 . S
C2247 C2251 1.385 . S
C2248 H2229 0.951 . S
C2248 C2246 1.388 . S
C2248 C2249 1.366 . S
C2249 C2248 1.366 . S
C2249 C2250 1.414 . S
C2249 C2252 1.499 . S
C2250 H2230 0.950 . S
C2250 C2249 1.414 . S
C2250 C2251 1.374 . S
C2251 H2231 0.950 . S
C2251 C2247 1.385 . S
C2251 C2250 1.374 . S
C2252 C2249 1.499 . S
C2252 C2253 1.373 . S
C2252 C2254 1.389 . S
C2253 H2232 0.950 . S
C2253 C2252 1.373 . S
C2253 C2269 1.377 . S
C2254 C2252 1.389 . S
C2254 C2255 1.524 . S
C2254 C2268 1.377 . S
C2255 C2254 1.524 . S
C2255 C2256 1.397 . S
C2255 C2260 1.363 . S
C2256 H2233 0.950 . S
C2256 C2255 1.397 . S
C2256 C2257 1.334 . S
C2257 H2234 0.950 . S
C2257 C2256 1.334 . S
C2257 C2258 1.287 . S
C2258 C2257 1.287 . S
C2258 C2259 1.524 . S
C2258 H2277 0.913 . S
C2259 H2235 0.950 . S
C2259 C2258 1.524 . S
C2259 C2260 1.415 . S
C2260 H2236 0.950 . S
C2260 C2255 1.363 . S
C2260 C2259 1.415 . S
C2261 H2237 0.951 . S
C2261 C2262 1.366 . S
C2261 C2263 1.388 . S
C2262 C2261 1.366 . S
C2262 C2266 1.385 . S
C2263 H2238 0.951 . S
C2263 C2261 1.388 . S
C2263 C2264 1.366 . S
C2264 C2263 1.366 . S
C2264 C2265 1.414 . S
C2264 C2267 1.499 . S
C2265 H2239 0.950 . S
C2265 C2264 1.414 . S
C2265 C2266 1.374 . S
C2266 H2240 0.950 . S
C2266 C2262 1.385 . S
C2266 C2265 1.374 . S
C2267 C2264 1.499 . S
C2267 C2268 1.373 . S
C2267 C2269 1.389 . S
C2268 H2241 0.950 . S
C2268 C2254 1.377 . S
C2268 C2267 1.373 . S
C2269 C2253 1.377 . S
C2269 C2267 1.389 . S
C2269 C2270 1.524 . S
C2270 C2269 1.524 . S
C2270 C2271 1.397 . S
C2270 C2275 1.363 . S
C2271 H2242 0.950 . S
C2271 C2270 1.397 . S
C2271 C2272 1.334 . S
C2272 H2243 0.950 . S
C2272 C2271 1.334 . S
C2272 C2273 1.287 . S
C2273 C2272 1.287 . S
C2273 C2274 1.524 . S
C2273 H2276 0.999 . S
C2274 H2244 0.950 . S
C2274 C2273 1.524 . S
C2274 C2275 1.415 . S
C2275 H2245 0.950 . S
C2275 C2270 1.363 . S
C2275 C2274 1.415 . S
H2276 C2273 0.999 . S
H2277 C2258 0.913 . S
H2278 C2296 0.951 . S
H2279 C2298 0.951 . S
H2280 C2300 0.950 . S
H2281 C2301 0.950 . S
H2282 C2303 0.950 . S
H2283 C2306 0.950 . S
H2284 C2307 0.950 . S
H2285 C2309 0.950 . S
H2286 C2310 0.950 . S
H2287 C2311 0.951 . S
H2288 C2313 0.951 . S
H2289 C2315 0.950 . S
H2290 C2316 0.950 . S
H2291 C2318 0.950 1_556 S
H2292 C2321 0.950 . S
H2293 C2322 0.950 . S
H2294 C2324 0.950 . S
H2295 C2325 0.950 . S
C2296 H2278 0.951 . S
C2296 C2297 1.366 . S
C2296 C2298 1.388 . S
C2297 C2296 1.366 . S
C2297 C2301 1.385 . S
C2298 H2279 0.951 . S
C2298 C2296 1.388 . S
C2298 C2299 1.366 . S
C2299 C2298 1.366 . S
C2299 C2300 1.414 . S
C2299 C2302 1.499 . S
C2300 H2280 0.950 . S
C2300 C2299 1.414 . S
C2300 C2301 1.374 . S
C2301 H2281 0.950 . S
C2301 C2297 1.385 . S
C2301 C2300 1.374 . S
C2302 C2299 1.499 . S
C2302 C2303 1.373 . S
C2302 C2304 1.389 . S
C2303 H2282 0.950 . S
C2303 C2302 1.373 . S
C2303 C2319 1.377 . S
C2304 C2302 1.389 . S
C2304 C2305 1.524 . S
C2304 C2318 1.377 . S
C2305 C2304 1.524 . S
C2305 C2306 1.397 . S
C2305 C2310 1.363 . S
C2306 H2283 0.950 . S
C2306 C2305 1.397 . S
C2306 C2307 1.334 . S
C2307 H2284 0.950 . S
C2307 C2306 1.334 . S
C2307 C2308 1.287 . S
C2308 C2307 1.287 . S
C2308 C2309 1.524 . S
C2308 H2327 0.913 . S
C2309 H2285 0.950 . S
C2309 C2308 1.524 . S
C2309 C2310 1.415 . S
C2310 H2286 0.950 . S
C2310 C2305 1.363 . S
C2310 C2309 1.415 . S
C2311 H2287 0.951 . S
C2311 C2312 1.366 . S
C2311 C2313 1.388 . S
C2312 C2311 1.366 . S
C2312 C2316 1.385 . S
C2313 H2288 0.951 . S
C2313 C2311 1.388 . S
C2313 C2314 1.366 . S
C2314 C2313 1.366 . S
C2314 C2315 1.414 . S
C2314 C2317 1.499 . S
C2315 H2289 0.950 . S
C2315 C2314 1.414 . S
C2315 C2316 1.374 . S
C2316 H2290 0.950 . S
C2316 C2312 1.385 . S
C2316 C2315 1.374 . S
C2317 C2314 1.499 . S
C2317 C2318 1.373 1_556 S
C2317 C2319 1.389 1_556 S
C2318 H2291 0.950 1_554 S
C2318 C2304 1.377 . S
C2318 C2317 1.373 1_554 S
C2319 C2303 1.377 . S
C2319 C2317 1.389 1_554 S
C2319 C2320 1.524 1_554 S
C2320 C2319 1.524 1_556 S
C2320 C2321 1.397 . S
C2320 C2325 1.363 1_556 S
C2321 H2292 0.950 . S
C2321 C2320 1.397 . S
C2321 C2322 1.334 . S
C2322 H2293 0.950 . S
C2322 C2321 1.334 . S
C2322 C2323 1.287 . S
C2323 C2322 1.287 . S
C2323 C2324 1.524 . S
C2323 H2326 0.999 . S
C2324 H2294 0.950 . S
C2324 C2323 1.524 . S
C2324 C2325 1.415 1_556 S
C2325 H2295 0.950 . S
C2325 C2320 1.363 1_554 S
C2325 C2324 1.415 1_554 S
H2326 C2323 0.999 . S
H2327 C2308 0.913 . S
H2328 C2346 0.951 . S
H2329 C2348 0.951 . S
H2330 C2350 0.950 . S
H2331 C2351 0.950 . S
H2332 C2353 0.950 . S
H2333 C2356 0.950 . S
H2334 C2357 0.950 . S
H2335 C2359 0.950 . S
H2336 C2360 0.950 . S
H2337 C2361 0.951 . S
H2338 C2363 0.951 . S
H2339 C2365 0.950 . S
H2340 C2366 0.950 . S
H2341 C2368 0.950 . S
H2342 C2371 0.950 . S
H2343 C2372 0.950 . S
H2344 C2374 0.950 . S
H2345 C2375 0.950 . S
C2346 H2328 0.951 . S
C2346 C2347 1.366 . S
C2346 C2348 1.388 . S
C2347 C2346 1.366 . S
C2347 C2351 1.385 . S
C2348 H2329 0.951 . S
C2348 C2346 1.388 . S
C2348 C2349 1.366 . S
C2349 C2348 1.366 . S
C2349 C2350 1.414 . S
C2349 C2352 1.499 . S
C2350 H2330 0.950 . S
C2350 C2349 1.414 . S
C2350 C2351 1.374 . S
C2351 H2331 0.950 . S
C2351 C2347 1.385 . S
C2351 C2350 1.374 . S
C2352 C2349 1.499 . S
C2352 C2353 1.373 . S
C2352 C2354 1.389 . S
C2353 H2332 0.950 . S
C2353 C2352 1.373 . S
C2353 C2369 1.377 . S
C2354 C2352 1.389 . S
C2354 C2355 1.524 . S
C2354 C2368 1.377 . S
C2355 C2354 1.524 . S
C2355 C2356 1.397 . S
C2355 C2360 1.363 . S
C2356 H2333 0.950 . S
C2356 C2355 1.397 . S
C2356 C2357 1.334 . S
C2357 H2334 0.950 . S
C2357 C2356 1.334 . S
C2357 C2358 1.287 . S
C2358 C2357 1.287 . S
C2358 C2359 1.524 . S
C2358 H2377 0.913 . S
C2359 H2335 0.950 . S
C2359 C2358 1.524 . S
C2359 C2360 1.415 . S
C2360 H2336 0.950 . S
C2360 C2355 1.363 . S
C2360 C2359 1.415 . S
C2361 H2337 0.951 . S
C2361 C2362 1.366 . S
C2361 C2363 1.388 . S
C2362 C2361 1.366 . S
C2362 C2366 1.385 . S
C2363 H2338 0.951 . S
C2363 C2361 1.388 . S
C2363 C2364 1.366 . S
C2364 C2363 1.366 . S
C2364 C2365 1.414 . S
C2364 C2367 1.499 . S
C2365 H2339 0.950 . S
C2365 C2364 1.414 . S
C2365 C2366 1.374 . S
C2366 H2340 0.950 . S
C2366 C2362 1.385 . S
C2366 C2365 1.374 . S
C2367 C2364 1.499 . S
C2367 C2368 1.373 . S
C2367 C2369 1.389 . S
C2368 H2341 0.950 . S
C2368 C2354 1.377 . S
C2368 C2367 1.373 . S
C2369 C2353 1.377 . S
C2369 C2367 1.389 . S
C2369 C2370 1.524 . S
C2370 C2369 1.524 . S
C2370 C2371 1.397 . S
C2370 C2375 1.363 . S
C2371 H2342 0.950 . S
C2371 C2370 1.397 . S
C2371 C2372 1.334 . S
C2372 H2343 0.950 . S
C2372 C2371 1.334 . S
C2372 C2373 1.287 . S
C2373 C2372 1.287 . S
C2373 C2374 1.524 . S
C2373 H2376 0.999 . S
C2374 H2344 0.950 . S
C2374 C2373 1.524 . S
C2374 C2375 1.415 . S
C2375 H2345 0.950 . S
C2375 C2370 1.363 . S
C2375 C2374 1.415 . S
H2376 C2373 0.999 . S
H2377 C2358 0.913 . S
H2378 C2396 0.951 . S
H2379 C2398 0.951 . S
H2380 C2400 0.950 . S
H2381 C2401 0.950 . S
H2382 C2403 0.950 . S
H2383 C2406 0.950 . S
H2384 C2407 0.950 . S
H2385 C2409 0.950 . S
H2386 C2410 0.950 . S
H2387 C2411 0.951 . S
H2388 C2413 0.951 . S
H2389 C2415 0.950 . S
H2390 C2416 0.950 . S
H2391 C2418 0.950 . S
H2392 C2421 0.950 . S
H2393 C2422 0.950 . S
H2394 C2424 0.950 . S
H2395 C2425 0.950 . S
C2396 H2378 0.951 . S
C2396 C2397 1.366 . S
C2396 C2398 1.388 1_554 S
C2397 C2396 1.366 . S
C2397 C2401 1.385 . S
C2398 H2379 0.951 . S
C2398 C2396 1.388 1_556 S
C2398 C2399 1.366 . S
C2399 C2398 1.366 . S
C2399 C2400 1.414 . S
C2399 C2402 1.499 . S
C2400 H2380 0.950 . S
C2400 C2399 1.414 . S
C2400 C2401 1.374 1_556 S
C2401 H2381 0.950 . S
C2401 C2397 1.385 . S
C2401 C2400 1.374 1_554 S
C2402 C2399 1.499 . S
C2402 C2403 1.373 . S
C2402 C2404 1.389 . S
C2403 H2382 0.950 . S
C2403 C2402 1.373 . S
C2403 C2419 1.377 . S
C2404 C2402 1.389 . S
C2404 C2405 1.524 . S
C2404 C2418 1.377 . S
C2405 C2404 1.524 . S
C2405 C2406 1.397 . S
C2405 C2410 1.363 . S
C2406 H2383 0.950 . S
C2406 C2405 1.397 . S
C2406 C2407 1.334 . S
C2407 H2384 0.950 . S
C2407 C2406 1.334 . S
C2407 C2408 1.287 . S
C2408 C2407 1.287 . S
C2408 C2409 1.524 . S
C2408 H2427 0.913 . S
C2409 H2385 0.950 . S
C2409 C2408 1.524 . S
C2409 C2410 1.415 . S
C2410 H2386 0.950 . S
C2410 C2405 1.363 . S
C2410 C2409 1.415 . S
C2411 H2387 0.951 . S
C2411 C2412 1.366 . S
C2411 C2413 1.388 . S
C2412 C2411 1.366 . S
C2412 C2416 1.385 . S
C2413 H2388 0.951 . S
C2413 C2411 1.388 . S
C2413 C2414 1.366 . S
C2414 C2413 1.366 . S
C2414 C2415 1.414 . S
C2414 C2417 1.499 . S
C2415 H2389 0.950 . S
C2415 C2414 1.414 . S
C2415 C2416 1.374 . S
C2416 H2390 0.950 . S
C2416 C2412 1.385 . S
C2416 C2415 1.374 . S
C2417 C2414 1.499 . S
C2417 C2418 1.373 . S
C2417 C2419 1.389 . S
C2418 H2391 0.950 . S
C2418 C2404 1.377 . S
C2418 C2417 1.373 . S
C2419 C2403 1.377 . S
C2419 C2417 1.389 . S
C2419 C2420 1.524 . S
C2420 C2419 1.524 . S
C2420 C2421 1.397 . S
C2420 C2425 1.363 . S
C2421 H2392 0.950 . S
C2421 C2420 1.397 . S
C2421 C2422 1.334 . S
C2422 H2393 0.950 . S
C2422 C2421 1.334 . S
C2422 C2423 1.287 . S
C2423 C2422 1.287 . S
C2423 C2424 1.524 . S
C2423 H2426 0.999 . S
C2424 H2394 0.950 . S
C2424 C2423 1.524 . S
C2424 C2425 1.415 . S
C2425 H2395 0.950 . S
C2425 C2420 1.363 . S
C2425 C2424 1.415 . S
H2426 C2423 0.999 . S
H2427 C2408 0.913 . S
H2428 C2446 0.951 . S
H2429 C2448 0.951 . S
H2430 C2450 0.950 . S
H2431 C2451 0.950 . S
H2432 C2453 0.950 . S
H2433 C2456 0.950 . S
H2434 C2457 0.950 . S
H2435 C2459 0.950 . S
H2436 C2460 0.950 . S
H2437 C2461 0.951 . S
H2438 C2463 0.951 . S
H2439 C2465 0.950 . S
H2440 C2466 0.950 . S
H2441 C2468 0.950 . S
H2442 C2471 0.950 . S
H2443 C2472 0.950 . S
H2444 C2474 0.950 . S
H2445 C2475 0.950 . S
C2446 H2428 0.951 . S
C2446 C2447 1.366 . S
C2446 C2448 1.388 . S
C2447 C2446 1.366 . S
C2447 C2451 1.385 . S
C2448 H2429 0.951 . S
C2448 C2446 1.388 . S
C2448 C2449 1.366 . S
C2449 C2448 1.366 . S
C2449 C2450 1.414 . S
C2449 C2452 1.499 . S
C2450 H2430 0.950 . S
C2450 C2449 1.414 . S
C2450 C2451 1.374 . S
C2451 H2431 0.950 . S
C2451 C2447 1.385 . S
C2451 C2450 1.374 . S
C2452 C2449 1.499 . S
C2452 C2453 1.373 . S
C2452 C2454 1.389 . S
C2453 H2432 0.950 . S
C2453 C2452 1.373 . S
C2453 C2469 1.377 . S
C2454 C2452 1.389 . S
C2454 C2455 1.524 . S
C2454 C2468 1.377 . S
C2455 C2454 1.524 . S
C2455 C2456 1.397 . S
C2455 C2460 1.363 . S
C2456 H2433 0.950 . S
C2456 C2455 1.397 . S
C2456 C2457 1.334 . S
C2457 H2434 0.950 . S
C2457 C2456 1.334 . S
C2457 C2458 1.287 . S
C2458 C2457 1.287 . S
C2458 C2459 1.524 . S
C2458 H2477 0.913 . S
C2459 H2435 0.950 . S
C2459 C2458 1.524 . S
C2459 C2460 1.415 . S
C2460 H2436 0.950 . S
C2460 C2455 1.363 . S
C2460 C2459 1.415 . S
C2461 H2437 0.951 . S
C2461 C2462 1.366 . S
C2461 C2463 1.388 . S
C2462 C2461 1.366 . S
C2462 C2466 1.385 . S
C2463 H2438 0.951 . S
C2463 C2461 1.388 . S
C2463 C2464 1.366 . S
C2464 C2463 1.366 . S
C2464 C2465 1.414 . S
C2464 C2467 1.499 . S
C2465 H2439 0.950 . S
C2465 C2464 1.414 . S
C2465 C2466 1.374 . S
C2466 H2440 0.950 . S
C2466 C2462 1.385 . S
C2466 C2465 1.374 . S
C2467 C2464 1.499 . S
C2467 C2468 1.373 . S
C2467 C2469 1.389 . S
C2468 H2441 0.950 . S
C2468 C2454 1.377 . S
C2468 C2467 1.373 . S
C2469 C2453 1.377 . S
C2469 C2467 1.389 . S
C2469 C2470 1.524 . S
C2470 C2469 1.524 . S
C2470 C2471 1.397 . S
C2470 C2475 1.363 . S
C2471 H2442 0.950 . S
C2471 C2470 1.397 . S
C2471 C2472 1.334 . S
C2472 H2443 0.950 . S
C2472 C2471 1.334 . S
C2472 C2473 1.287 . S
C2473 C2472 1.287 . S
C2473 C2474 1.524 . S
C2473 H2476 0.999 . S
C2474 H2444 0.950 . S
C2474 C2473 1.524 . S
C2474 C2475 1.415 . S
C2475 H2445 0.950 . S
C2475 C2470 1.363 . S
C2475 C2474 1.415 . S
H2476 C2473 0.999 . S
H2477 C2458 0.913 . S
H2478 C2496 0.951 . S
H2479 C2498 0.951 . S
H2480 C2500 0.950 . S
H2481 C2501 0.950 . S
H2482 C2503 0.950 . S
H2483 C2506 0.950 . S
H2484 C2507 0.950 . S
H2485 C2509 0.950 . S
H2486 C2510 0.950 . S
H2487 C2511 0.951 . S
H2488 C2513 0.951 . S
H2489 C2515 0.950 . S
H2490 C2516 0.950 . S
H2491 C2518 0.950 . S
H2492 C2521 0.950 . S
H2493 C2522 0.950 . S
H2494 C2524 0.950 . S
H2495 C2525 0.950 . S
C2496 H2478 0.951 . S
C2496 C2497 1.366 . S
C2496 C2498 1.388 . S
C2497 C2496 1.366 . S
C2497 C2501 1.385 . S
C2498 H2479 0.951 . S
C2498 C2496 1.388 . S
C2498 C2499 1.366 . S
C2499 C2498 1.366 . S
C2499 C2500 1.414 . S
C2499 C2502 1.499 . S
C2500 H2480 0.950 . S
C2500 C2499 1.414 . S
C2500 C2501 1.374 . S
C2501 H2481 0.950 . S
C2501 C2497 1.385 . S
C2501 C2500 1.374 . S
C2502 C2499 1.499 . S
C2502 C2503 1.373 . S
C2502 C2504 1.389 . S
C2503 H2482 0.950 . S
C2503 C2502 1.373 . S
C2503 C2519 1.377 . S
C2504 C2502 1.389 . S
C2504 C2505 1.524 . S
C2504 C2518 1.377 . S
C2505 C2504 1.524 . S
C2505 C2506 1.397 . S
C2505 C2510 1.363 . S
C2506 H2483 0.950 . S
C2506 C2505 1.397 . S
C2506 C2507 1.334 . S
C2507 H2484 0.950 . S
C2507 C2506 1.334 . S
C2507 C2508 1.287 . S
C2508 C2507 1.287 . S
C2508 C2509 1.524 . S
C2508 H2527 0.913 . S
C2509 H2485 0.950 . S
C2509 C2508 1.524 . S
C2509 C2510 1.415 . S
C2510 H2486 0.950 . S
C2510 C2505 1.363 . S
C2510 C2509 1.415 . S
C2511 H2487 0.951 . S
C2511 C2512 1.366 . S
C2511 C2513 1.388 1_556 S
C2512 C2511 1.366 . S
C2512 C2516 1.385 . S
C2513 H2488 0.951 . S
C2513 C2511 1.388 1_554 S
C2513 C2514 1.366 . S
C2514 C2513 1.366 . S
C2514 C2515 1.414 . S
C2514 C2517 1.499 . S
C2515 H2489 0.950 . S
C2515 C2514 1.414 . S
C2515 C2516 1.374 1_554 S
C2516 H2490 0.950 . S
C2516 C2512 1.385 . S
C2516 C2515 1.374 1_556 S
C2517 C2514 1.499 . S
C2517 C2518 1.373 . S
C2517 C2519 1.389 . S
C2518 H2491 0.950 . S
C2518 C2504 1.377 . S
C2518 C2517 1.373 . S
C2519 C2503 1.377 . S
C2519 C2517 1.389 . S
C2519 C2520 1.524 . S
C2520 C2519 1.524 . S
C2520 C2521 1.397 . S
C2520 C2525 1.363 . S
C2521 H2492 0.950 . S
C2521 C2520 1.397 . S
C2521 C2522 1.334 . S
C2522 H2493 0.950 . S
C2522 C2521 1.334 . S
C2522 C2523 1.287 . S
C2523 C2522 1.287 . S
C2523 C2524 1.524 . S
C2523 H2526 0.999 . S
C2524 H2494 0.950 . S
C2524 C2523 1.524 . S
C2524 C2525 1.415 . S
C2525 H2495 0.950 . S
C2525 C2520 1.363 . S
C2525 C2524 1.415 . S
H2526 C2523 0.999 . S
H2527 C2508 0.913 . S
C547 C259 1.452 . S
C562 C28 1.452 . S
C597 C61 1.451 . S
C612 C160 1.453 . S
C647 C94 1.521 . S
C662 C193 1.524 . S
C697 C226 1.521 . S
C712 C127 1.524 . S
C747 C380 1.546 . S
C762 C149 1.548 . S
C797 C281 1.546 . S
C812 C17 1.548 . S
C847 C215 1.602 . S
C862 C347 1.604 . S
C897 C83 1.602 . S
C912 C314 1.605 . S
C947 C325 1.524 . S
C962 C424 1.521 . S
C997 C490 1.521 . S
C1012 C358 1.524 . S
C1047 C457 1.453 . S
C1062 C292 1.452 . S
C1097 C391 1.451 . S
C1112 C523 1.453 . S
C1147 C116 1.605 . S
C1162 C479 1.602 . S
C1197 C182 1.605 . S
C1212 C413 1.602 . S
C1247 C50 1.547 . S
C1262 C512 1.548 . S
C1297 C248 1.547 . S
C1312 C446 1.548 . S
C1347 C8 1.071 . S
C1362 C140 1.071 . S
C1397 C173 1.101 . S
C1412 C41 1.099 . S
C1447 C206 1.325 . S
C1462 C74 1.325 . S
C1497 C107 1.101 . S
C1512 C239 1.099 . S
C1547 C338 1.101 . S
C1562 C272 1.099 . S
C1597 C305 1.101 . S
C1612 C371 1.099 . S
C1647 C404 1.324 . S
C1662 C470 1.324 . S
C1697 C503 1.072 . S
C1712 C437 1.072 . S
C1747 N14 0.772 . S
C1762 N5 0.772 . S
C1797 N47 0.766 . S
C1812 N38 0.766 . S
C1847 N71 0.796 . S
C1862 N80 0.795 . S
C1897 N104 0.774 . S
C1912 N113 0.773 . S
C1947 N137 0.772 . S
C1962 N146 0.772 . S
C1997 N170 0.774 . S
C2012 N179 0.774 . S
C2047 N212 0.795 . S
C2062 N203 0.796 . S
C2097 N245 0.766 . S
C2112 N236 0.766 . S
C2147 N269 0.766 . S
C2162 N278 0.766 . S
C2197 N302 0.774 . S
C2212 N311 0.774 . S
C2247 N344 0.774 . S
C2262 N335 0.774 . S
C2297 N377 0.765 . S
C2312 N368 0.765 . S
C2347 N410 0.796 . S
C2362 N401 0.796 . S
C2397 N443 0.772 . S
C2412 N434 0.772 . S
C2447 N476 0.796 . S
C2462 N467 0.796 . S
C2497 N500 0.772 . S
C2512 N509 0.772 . S
