# Generated by pormake.
# Topology wjy, (5)-cn, num edge types: 1
# Building blocks:
#     Node 0, Type 0, BuildingBlock: XOMCOT_clean_sbu_1, # of connection points: 5
#     Node 1, Type 0, BuildingBlock: XOMCOT_clean_sbu_1, # of connection points: 5
#     Node 2, Type 0, BuildingBlock: XOMCOT_clean_sbu_1, # of connection points: 5
#     Node 3, Type 0, BuildingBlock: XOMCOT_clean_sbu_1, # of connection points: 5
#     Node 4, Type 0, BuildingBlock: XOMCOT_clean_sbu_1, # of connection points: 5
#     Node 5, Type 0, BuildingBlock: XOMCOT_clean_sbu_1, # of connection points: 5
#     Node 6, Type 0, BuildingBlock: XOMCOT_clean_sbu_1, # of connection points: 5
#     Node 7, Type 0, BuildingBlock: XOMCOT_clean_sbu_1, # of connection points: 5
#     Node 8, Type 0, BuildingBlock: XOMCOT_clean_sbu_1, # of connection points: 5
#     Node 9, Type 0, BuildingBlock: XOMCOT_clean_sbu_1, # of connection points: 5
#     Node 10, Type 0, BuildingBlock: XOMCOT_clean_sbu_1, # of connection points: 5
#     Node 11, Type 0, BuildingBlock: XOMCOT_clean_sbu_1, # of connection points: 5
#     Edge 12, Type (0, 0), BuildingBlock: CIFDUS_clean_linker_0, # of connection points: 2
#     Edge 13, Type (0, 0), BuildingBlock: CIFDUS_clean_linker_0, # of connection points: 2
#     Edge 14, Type (0, 0), BuildingBlock: CIFDUS_clean_linker_0, # of connection points: 2
#     Edge 15, Type (0, 0), BuildingBlock: CIFDUS_clean_linker_0, # of connection points: 2
#     Edge 16, Type (0, 0), BuildingBlock: CIFDUS_clean_linker_0, # of connection points: 2
#     Edge 17, Type (0, 0), BuildingBlock: CIFDUS_clean_linker_0, # of connection points: 2
#     Edge 18, Type (0, 0), BuildingBlock: CIFDUS_clean_linker_0, # of connection points: 2
#     Edge 19, Type (0, 0), BuildingBlock: CIFDUS_clean_linker_0, # of connection points: 2
#     Edge 20, Type (0, 0), BuildingBlock: CIFDUS_clean_linker_0, # of connection points: 2
#     Edge 21, Type (0, 0), BuildingBlock: CIFDUS_clean_linker_0, # of connection points: 2
#     Edge 22, Type (0, 0), BuildingBlock: CIFDUS_clean_linker_0, # of connection points: 2
#     Edge 23, Type (0, 0), BuildingBlock: CIFDUS_clean_linker_0, # of connection points: 2
#     Edge 24, Type (0, 0), BuildingBlock: CIFDUS_clean_linker_0, # of connection points: 2
#     Edge 25, Type (0, 0), BuildingBlock: CIFDUS_clean_linker_0, # of connection points: 2
#     Edge 26, Type (0, 0), BuildingBlock: CIFDUS_clean_linker_0, # of connection points: 2
#     Edge 27, Type (0, 0), BuildingBlock: CIFDUS_clean_linker_0, # of connection points: 2
#     Edge 28, Type (0, 0), BuildingBlock: CIFDUS_clean_linker_0, # of connection points: 2
#     Edge 29, Type (0, 0), BuildingBlock: CIFDUS_clean_linker_0, # of connection points: 2
#     Edge 30, Type (0, 0), BuildingBlock: CIFDUS_clean_linker_0, # of connection points: 2
#     Edge 31, Type (0, 0), BuildingBlock: CIFDUS_clean_linker_0, # of connection points: 2
#     Edge 32, Type (0, 0), BuildingBlock: CIFDUS_clean_linker_0, # of connection points: 2
#     Edge 33, Type (0, 0), BuildingBlock: CIFDUS_clean_linker_0, # of connection points: 2
#     Edge 34, Type (0, 0), BuildingBlock: CIFDUS_clean_linker_0, # of connection points: 2
#     Edge 35, Type (0, 0), BuildingBlock: CIFDUS_clean_linker_0, # of connection points: 2
#     Edge 36, Type (0, 0), BuildingBlock: CIFDUS_clean_linker_0, # of connection points: 2
#     Edge 37, Type (0, 0), BuildingBlock: CIFDUS_clean_linker_0, # of connection points: 2
#     Edge 38, Type (0, 0), BuildingBlock: CIFDUS_clean_linker_0, # of connection points: 2
#     Edge 39, Type (0, 0), BuildingBlock: CIFDUS_clean_linker_0, # of connection points: 2
#     Edge 40, Type (0, 0), BuildingBlock: CIFDUS_clean_linker_0, # of connection points: 2
#     Edge 41, Type (0, 0), BuildingBlock: CIFDUS_clean_linker_0, # of connection points: 2
# Relax obj value: 0.189
# Max RMSD: 0.171
# Mean RMSD: 0.171
data_MOF--net-wjy--node1-XOMCOT_clean_sbu_1--edge1-CIFDUS_clean_linker_0
_symmetry_space_group_name_H-M    P1
_symmetry_Int_Tables_number       1
_symmetry_cell_setting            triclinic
loop_
_symmetry_equiv_pos_as_xyz
'x, y, z'
_cell_length_a     63.237977
_cell_length_b     63.181755
_cell_length_c     15.836297
_cell_angle_alpha  89.958316
_cell_angle_beta   89.98378
_cell_angle_gamma 119.97901
loop_
_atom_site_label
_atom_site_type_symbol
_atom_site_fract_x
_atom_site_fract_y
_atom_site_fract_z
_atom_type_partial_charge
C0 C 0.46205 0.10091 0.19389 0.0
C1 C 0.46077 0.09961 0.28061 0.0
N2 N 0.45243 0.11429 0.30829 0.0
N3 N 0.45458 0.11632 0.167 0.0
C4 C 0.4486 0.12398 0.23788 0.0
H5 H 0.46888 0.09195 0.15306 0.0
Co6 Co 0.45568 0.12593 0.05576 0.0
C7 C 0.43496 0.15868 0.06439 0.0
O8 O 0.41881 0.1455 0.00657 0.0
N9 N 0.45718 0.13559 0.94301 0.0
C10 C 0.46801 0.1587 0.82758 0.0
C11 C 0.46895 0.15881 0.91421 0.0
C12 C 0.44941 0.1217 0.87261 0.0
N13 N 0.45575 0.1353 0.80133 0.0
O14 O 0.42125 0.10306 0.04771 0.0
H15 H 0.47838 0.17485 0.95366 0.0
H16 H 0.43969 0.102 0.87319 0.0
O17 O 0.45015 0.15239 0.09039 0.0
C18 C 0.41792 0.08204 0.02792 0.0
O19 O 0.43708 0.08008 0.00881 0.0
N20 N 0.48951 0.14604 0.06555 0.0
C21 C 0.53858 0.16379 0.10399 0.0
C22 C 0.52526 0.17313 0.14491 0.0
C23 C 0.50064 0.16397 0.12482 0.0
C24 C 0.5025 0.13786 0.02154 0.0
C25 C 0.52712 0.14663 0.03922 0.0
H26 H 0.49018 0.16994 0.16154 0.0
H27 H 0.49324 0.12313 0.97669 0.0
H28 H 0.44208 0.13686 0.23805 0.0
H29 H 0.4667 0.08958 0.32013 0.0
H30 H 0.47669 0.17463 0.78716 0.0
H31 H 0.53341 0.18643 0.19515 0.0
H32 H 0.53648 0.13857 0.00697 0.0
C33 C 0.367 0.44858 0.37603 0.0
C34 C 0.3665 0.44681 0.46246 0.0
N35 N 0.34373 0.43998 0.4892 0.0
N36 N 0.34464 0.44276 0.34785 0.0
C37 C 0.3308 0.4375 0.4182 0.0
H38 H 0.38303 0.45515 0.3366 0.0
Co39 Co 0.33824 0.44682 0.23608 0.0
C40 C 0.28525 0.4291 0.23546 0.0
O41 O 0.28225 0.41425 0.17275 0.0
N42 N 0.33238 0.45136 0.12367 0.0
C43 C 0.32227 0.46434 0.0084 0.0
C44 C 0.32304 0.46513 0.09514 0.0
C45 C 0.33739 0.44265 0.05324 0.0
N46 N 0.33131 0.45016 0.98202 0.0
O47 O 0.32511 0.41229 0.2168 0.0
H48 H 0.31743 0.47535 0.13497 0.0
H49 H 0.34541 0.43105 0.05409 0.0
O50 O 0.30647 0.44237 0.26711 0.0
C51 C 0.3431 0.40881 0.20476 0.0
O52 O 0.36524 0.42784 0.20265 0.0
N53 N 0.35341 0.48045 0.25508 0.0
C54 C 0.38691 0.52735 0.30982 0.0
C55 C 0.36314 0.51509 0.34297 0.0
C56 C 0.34658 0.49142 0.31497 0.0
C57 C 0.37574 0.49285 0.21769 0.0
C58 C 0.39274 0.51637 0.24381 0.0
H59 H 0.32917 0.4813 0.34649 0.0
H60 H 0.38105 0.48366 0.17191 0.0
H61 H 0.31189 0.43294 0.41772 0.0
H62 H 0.38214 0.45179 0.50262 0.0
H63 H 0.31618 0.47407 0.96804 0.0
H64 H 0.35805 0.52286 0.39465 0.0
H65 H 0.41085 0.5253 0.21627 0.0
C66 C 0.93023 0.36311 0.51342 0.0
C67 C 0.9311 0.36307 0.60014 0.0
N68 N 0.91278 0.3415 0.62836 0.0
N69 N 0.91151 0.34168 0.48683 0.0
C70 C 0.90135 0.32881 0.55808 0.0
H71 H 0.94167 0.3783 0.47251 0.0
Co72 Co 0.90076 0.33525 0.37596 0.0
C73 C 0.86577 0.28217 0.37695 0.0
O74 O 0.87752 0.27916 0.3139 0.0
N75 N 0.88994 0.32927 0.26364 0.0
C76 C 0.86636 0.32007 0.14983 0.0
C77 C 0.86679 0.32049 0.23668 0.0
C78 C 0.90319 0.33411 0.19205 0.0
N79 N 0.88935 0.32874 0.12179 0.0
O80 O 0.92192 0.32192 0.35765 0.0
H81 H 0.85123 0.31516 0.27766 0.0
H82 H 0.92267 0.34154 0.19089 0.0
O83 O 0.87354 0.30347 0.40774 0.0
C84 C 0.94307 0.33882 0.33509 0.0
O85 O 0.94641 0.3608 0.3213 0.0
N86 N 0.88257 0.35067 0.39597 0.0
C87 C 0.87011 0.38424 0.45798 0.0
C88 C 0.85725 0.35976 0.48431 0.0
C89 C 0.86391 0.34317 0.45285 0.0
C90 C 0.89379 0.37381 0.36455 0.0
C91 C 0.88783 0.39092 0.39463 0.0
H92 H 0.85547 0.32505 0.47966 0.0
H93 H 0.90889 0.37957 0.32107 0.0
H94 H 0.88531 0.31085 0.55861 0.0
H95 H 0.94341 0.37836 0.63916 0.0
H96 H 0.85043 0.31456 0.11068 0.0
H97 H 0.84362 0.35397 0.5337 0.0
H98 H 0.89806 0.40961 0.37232 0.0
C99 C 0.58793 0.92749 0.70159 0.0
C100 C 0.59074 0.9278 0.78779 0.0
N101 N 0.58767 0.90598 0.81184 0.0
N102 N 0.58338 0.90571 0.67131 0.0
C103 C 0.5833 0.89295 0.73992 0.0
H104 H 0.58841 0.94194 0.66352 0.0
Co105 Co 0.57623 0.89643 0.55933 0.0
C106 C 0.57293 0.84775 0.5467 0.0
O107 O 0.55373 0.83999 0.49781 0.0
N108 N 0.56876 0.88736 0.44256 0.0
C109 C 0.54862 0.87242 0.32147 0.0
C110 C 0.54641 0.87371 0.40699 0.0
C111 C 0.58422 0.89402 0.37554 0.0
N112 N 0.57238 0.88534 0.30151 0.0
O113 O 0.61019 0.91843 0.53354 0.0
H114 H 0.5292 0.86474 0.44001 0.0
H115 H 0.60383 0.90523 0.38004 0.0
O116 O 0.58298 0.86939 0.5773 0.0
C117 C 0.61413 0.93861 0.50138 0.0
O118 O 0.59533 0.94053 0.47662 0.0
N119 N 0.54319 0.87805 0.58954 0.0
C120 C 0.49549 0.86181 0.64374 0.0
C121 C 0.50752 0.849 0.66608 0.0
C122 C 0.53153 0.85746 0.63819 0.0
C123 C 0.53197 0.89108 0.57029 0.0
C124 C 0.508 0.88299 0.59478 0.0
H125 H 0.54094 0.84809 0.65896 0.0
H126 H 0.54193 0.90806 0.53573 0.0
H127 H 0.57938 0.87422 0.73768 0.0
H128 H 0.59348 0.94244 0.82993 0.0
H129 H 0.53373 0.86347 0.27691 0.0
H130 H 0.49861 0.83293 0.7059 0.0
H131 H 0.49965 0.89382 0.57853 0.0
C132 C 0.665 0.57383 0.85228 0.0
C133 C 0.6657 0.57677 0.93837 0.0
N134 N 0.68896 0.58588 0.96448 0.0
N135 N 0.68766 0.58093 0.82381 0.0
C136 C 0.70194 0.58855 0.89332 0.0
H137 H 0.64879 0.56579 0.81332 0.0
Co138 Co 0.69501 0.57744 0.71209 0.0
C139 C 0.73658 0.56831 0.75506 0.0
O140 O 0.72275 0.54462 0.74557 0.0
N141 N 0.70241 0.57465 0.59808 0.0
C142 C 0.71454 0.56519 0.47906 0.0
C143 C 0.71346 0.56292 0.56526 0.0
C144 C 0.6967 0.58367 0.52958 0.0
N145 N 0.70403 0.57831 0.4564 0.0
O146 O 0.70884 0.61224 0.69659 0.0
H147 H 0.71957 0.55239 0.60002 0.0
H148 H 0.68704 0.59369 0.53308 0.0
O149 O 0.72755 0.58238 0.74581 0.0
C150 C 0.69113 0.6162 0.68469 0.0
O151 O 0.66883 0.59745 0.68207 0.0
N152 N 0.67804 0.54267 0.72654 0.0
C153 C 0.63963 0.49504 0.75871 0.0
C154 C 0.65783 0.50779 0.8194 0.0
C155 C 0.67684 0.53152 0.80212 0.0
C156 C 0.66119 0.52988 0.66542 0.0
C157 C 0.64243 0.50598 0.67924 0.0
H158 H 0.6896 0.54149 0.85206 0.0
H159 H 0.66081 0.53867 0.60747 0.0
H160 H 0.72132 0.59505 0.89211 0.0
H161 H 0.65 0.57116 0.9789 0.0
H162 H 0.72163 0.55688 0.43628 0.0
H163 H 0.65649 0.50036 0.88207 0.0
H164 H 0.62922 0.49682 0.62946 0.0
C165 C 0.09566 0.6607 0.04619 0.0
C166 C 0.09172 0.65857 0.13192 0.0
N167 N 0.11063 0.67762 0.17094 0.0
N168 N 0.11697 0.68104 0.02912 0.0
C169 C 0.12579 0.69101 0.10661 0.0
H170 H 0.084 0.64773 0.99912 0.0
Co171 Co 0.12951 0.68845 0.91689 0.0
C172 C 0.16452 0.74134 0.92214 0.0
O173 O 0.15372 0.74448 0.85638 0.0
N174 N 0.14228 0.69549 0.80258 0.0
C175 C 0.16992 0.70636 0.69962 0.0
C176 C 0.16604 0.70374 0.78527 0.0
C177 C 0.1321 0.69325 0.72452 0.0
N178 N 0.14861 0.69985 0.66032 0.0
O179 O 0.10838 0.7016 0.89476 0.0
H180 H 0.17986 0.70748 0.83233 0.0
H181 H 0.11301 0.68703 0.71443 0.0
O182 O 0.15608 0.72 0.95372 0.0
C183 C 0.08847 0.68541 0.86114 0.0
O184 O 0.08655 0.66447 0.83924 0.0
N185 N 0.1476 0.67305 0.94015 0.0
C186 C 0.16053 0.63957 1.00049 0.0
C187 C 0.17207 0.6636 0.03156 0.0
C188 C 0.16523 0.68012 1.00076 0.0
C189 C 0.13761 0.65045 0.90479 0.0
C190 C 0.14389 0.63346 0.93368 0.0
H191 H 0.17273 0.69779 0.03042 0.0
H192 H 0.12333 0.64501 0.8581 0.0
H193 H 0.14316 0.7075 0.11572 0.0
H194 H 0.07634 0.64347 0.16297 0.0
H195 H 0.18725 0.71216 0.66902 0.0
H196 H 0.18485 0.66901 0.08358 0.0
H197 H 0.13476 0.61522 0.90717 0.0
C198 C 0.939 0.57898 0.65208 0.0
C199 C 0.94008 0.58037 0.56546 0.0
N200 N 0.92268 0.58512 0.53803 0.0
N201 N 0.92106 0.58285 0.67936 0.0
C202 C 0.91159 0.58679 0.60865 0.0
H203 H 0.94976 0.57417 0.69243 0.0
Co204 Co 0.91058 0.5789 0.79062 0.0
C205 C 0.87426 0.59553 0.78601 0.0
O206 O 0.88705 0.61266 0.84152 0.0
N207 N 0.90006 0.57461 0.90328 0.0
C208 C 0.87668 0.56071 0.01779 0.0
C209 C 0.87697 0.56026 0.931 0.0
C210 C 0.91343 0.58348 0.97438 0.0
N211 N 0.8997 0.57532 0.04506 0.0
O212 O 0.93119 0.61363 0.80633 0.0
H213 H 0.86138 0.54968 0.89062 0.0
H214 H 0.93291 0.59559 0.97482 0.0
O215 O 0.88227 0.58176 0.75912 0.0
C216 C 0.95233 0.61745 0.82699 0.0
O217 O 0.95521 0.5985 0.84 0.0
N218 N 0.89321 0.54505 0.77351 0.0
C219 C 0.88389 0.49955 0.71553 0.0
C220 C 0.87164 0.51083 0.68033 0.0
C221 C 0.87665 0.53376 0.71014 0.0
C222 C 0.90349 0.53334 0.81348 0.0
C223 C 0.89895 0.51048 0.78591 0.0
H224 H 0.86918 0.54338 0.67642 0.0
H225 H 0.91705 0.54275 0.86199 0.0
H226 H 0.89625 0.58987 0.6087 0.0
H227 H 0.9518 0.57669 0.52581 0.0
H228 H 0.86084 0.55037 0.05751 0.0
H229 H 0.86009 0.50314 0.62538 0.0
H230 H 0.90858 0.50228 0.81546 0.0
C231 C 0.35981 0.93386 0.83258 0.0
C232 C 0.35706 0.93358 0.74636 0.0
N233 N 0.34106 0.91053 0.72254 0.0
N234 N 0.34542 0.91117 0.86321 0.0
C235 C 0.33422 0.89732 0.79471 0.0
H236 H 0.37221 0.94943 0.87028 0.0
Co237 Co 0.34487 0.90229 0.9752 0.0
C238 C 0.29897 0.85445 0.99845 0.0
O239 O 0.30997 0.8478 0.05385 0.0
N240 N 0.34493 0.8937 0.09136 0.0
C241 C 0.35312 0.88092 0.21195 0.0
C242 C 0.35654 0.88269 0.12627 0.0
C243 C 0.33448 0.89828 0.15861 0.0
N244 N 0.3394 0.89088 0.23247 0.0
O245 O 0.33344 0.92454 1.00496 0.0
H246 H 0.36701 0.87616 0.09292 0.0
H247 H 0.32367 0.90715 0.15412 0.0
O248 O 0.31092 0.87522 0.96151 0.0
C249 C 0.34967 0.94423 0.03989 0.0
O250 O 0.37021 0.94563 0.06392 0.0
N251 N 0.35895 0.88361 0.94165 0.0
C252 C 0.38935 0.86615 0.88716 0.0
C253 C 0.36396 0.85208 0.87604 0.0
C254 C 0.34893 0.86117 0.90405 0.0
C255 C 0.38363 0.89781 0.94905 0.0
C256 C 0.3991 0.88925 0.9241 0.0
H257 H 0.32955 0.85052 0.89277 0.0
H258 H 0.39129 0.91595 0.9756 0.0
H259 H 0.32185 0.87781 0.79734 0.0
H260 H 0.36714 0.94887 0.70404 0.0
H261 H 0.36108 0.87381 0.25622 0.0
H262 H 0.35591 0.83438 0.84564 0.0
H263 H 0.41864 0.90091 0.9316 0.0
C264 C 0.41901 0.33844 0.93725 0.0
C265 C 0.41772 0.3357 0.85104 0.0
N266 N 0.43265 0.32731 0.82752 0.0
N267 N 0.43449 0.33157 0.96876 0.0
C268 C 0.44243 0.32477 0.9001 0.0
H269 H 0.4103 0.3464 0.97346 0.0
Co270 Co 0.4456 0.33558 0.08077 0.0
C271 C 0.44972 0.29135 0.12138 0.0
O272 O 0.46658 0.30357 0.17828 0.0
N273 N 0.45672 0.34016 0.19424 0.0
C274 C 0.47835 0.35529 0.31204 0.0
C275 C 0.47853 0.35726 0.22551 0.0
C276 C 0.44359 0.32819 0.26362 0.0
N277 N 0.4563 0.33704 0.3361 0.0
O278 O 0.4126 0.32355 0.12084 0.0
H279 H 0.49357 0.37086 0.18868 0.0
H280 H 0.42493 0.31329 0.26106 0.0
O281 O 0.44071 0.30218 0.07847 0.0
C282 C 0.41072 0.34203 0.14226 0.0
O283 O 0.42993 0.36394 0.1346 0.0
N284 N 0.47781 0.35028 0.04005 0.0
C285 C 0.52355 0.38127 0.96873 0.0
C286 C 0.51633 0.35682 0.98758 0.0
C287 C 0.49315 0.34144 0.0228 0.0
C288 C 0.48473 0.37398 0.02275 0.0
C289 C 0.50743 0.38974 0.98772 0.0
H290 H 0.48756 0.32253 0.03337 0.0
H291 H 0.47231 0.38063 0.03626 0.0
H292 H 0.45594 0.31907 0.90281 0.0
H293 H 0.40792 0.34117 0.80844 0.0
H294 H 0.49299 0.36717 0.35416 0.0
H295 H 0.52817 0.34951 0.97309 0.0
H296 H 0.5123 0.40853 0.97577 0.0
C297 C 0.09327 0.444 0.16611 0.0
C298 C 0.09321 0.44473 0.07923 0.0
N299 N 0.11334 0.44474 0.05093 0.0
N300 N 0.11331 0.44356 0.19213 0.0
C301 C 0.12515 0.444 0.12082 0.0
H302 H 0.07958 0.44369 0.20784 0.0
Co303 Co 0.12143 0.44274 0.30325 0.0
C304 C 0.17079 0.44893 0.30313 0.0
O305 O 0.17631 0.46553 0.36207 0.0
N306 N 0.12902 0.44108 0.41733 0.0
C307 C 0.13483 0.42457 0.53269 0.0
C308 C 0.13314 0.42336 0.44654 0.0
C309 C 0.1281 0.45273 0.4877 0.0
N310 N 0.13153 0.44298 0.55883 0.0
O311 O 0.09931 0.40786 0.30241 0.0
H312 H 0.13374 0.40961 0.40765 0.0
H313 H 0.12403 0.46738 0.48772 0.0
O314 O 0.1494 0.43853 0.27007 0.0
C315 C 0.08017 0.40074 0.3475 0.0
O316 O 0.07918 0.41638 0.39967 0.0
N317 N 0.13996 0.47713 0.30053 0.0
C318 C 0.14801 0.52262 0.24491 0.0
C319 C 0.16306 0.51358 0.2172 0.0
C320 C 0.15856 0.49059 0.24504 0.0
C321 C 0.12636 0.48655 0.33211 0.0
C322 C 0.13041 0.5094 0.30674 0.0
H323 H 0.16807 0.48265 0.21364 0.0
H324 H 0.11016 0.47502 0.36858 0.0
H325 H 0.14235 0.44425 0.12011 0.0
H326 H 0.07919 0.44476 0.0402 0.0
H327 H 0.13676 0.41181 0.57304 0.0
H328 H 0.17646 0.52293 0.16798 0.0
H329 H 0.11825 0.51559 0.32943 0.0
C330 C 0.67199 0.08701 0.28705 0.0
C331 C 0.67481 0.08722 0.2009 0.0
N332 N 0.69173 0.11 0.17734 0.0
N333 N 0.68728 0.10943 0.31792 0.0
C334 C 0.69902 0.1231 0.24958 0.0
H335 H 0.65894 0.07172 0.3246 0.0
Co336 Co 0.68783 0.11809 0.43 0.0
C337 C 0.73305 0.16629 0.45305 0.0
O338 O 0.72148 0.17262 0.50713 0.0
N339 N 0.6877 0.12643 0.54646 0.0
C340 C 0.67951 0.13904 0.66742 0.0
C341 C 0.67597 0.13726 0.58183 0.0
C342 C 0.69832 0.12194 0.61343 0.0
N343 N 0.69342 0.12926 0.68747 0.0
O344 O 0.69958 0.09603 0.45889 0.0
H345 H 0.6654 0.14374 0.54882 0.0
H346 H 0.70924 0.1132 0.60863 0.0
O347 O 0.72165 0.14543 0.4165 0.0
C348 C 0.68358 0.07623 0.49395 0.0
O349 O 0.66298 0.07454 0.51894 0.0
N350 N 0.67353 0.13659 0.39693 0.0
C351 C 0.64299 0.15381 0.34196 0.0
C352 C 0.66832 0.1678 0.32952 0.0
C353 C 0.68342 0.1588 0.35755 0.0
C354 C 0.64888 0.12239 0.40528 0.0
C355 C 0.63334 0.13084 0.3801 0.0
H356 H 0.70273 0.16933 0.34482 0.0
H357 H 0.64131 0.10436 0.43278 0.0
H358 H 0.71205 0.14247 0.25231 0.0
H359 H 0.66418 0.07217 0.15839 0.0
H360 H 0.67155 0.14607 0.71198 0.0
H361 H 0.67629 0.18537 0.29821 0.0
H362 H 0.61383 0.11921 0.3886 0.0
C363 C 0.58437 0.65691 0.47857 0.0
C364 C 0.58588 0.65729 0.39204 0.0
N365 N 0.59146 0.67972 0.36478 0.0
N366 N 0.5891 0.679 0.50627 0.0
C367 C 0.59351 0.69258 0.43557 0.0
H368 H 0.57865 0.64105 0.51841 0.0
Co369 Co 0.58455 0.68526 0.61774 0.0
C370 C 0.6 0.73785 0.61452 0.0
O371 O 0.61561 0.74202 0.67579 0.0
N372 N 0.57956 0.69102 0.72992 0.0
C373 C 0.56586 0.70052 0.84476 0.0
C374 C 0.5654 0.69995 0.75793 0.0
C375 C 0.58814 0.68603 0.80072 0.0
N376 N 0.58021 0.69173 0.8717 0.0
O377 O 0.61925 0.69994 0.63731 0.0
H378 H 0.55507 0.70533 0.71773 0.0
H379 H 0.59988 0.67819 0.80037 0.0
O380 O 0.58719 0.71624 0.58524 0.0
C381 C 0.62341 0.68248 0.65215 0.0
O382 O 0.60486 0.66006 0.65512 0.0
N383 N 0.55088 0.66849 0.59884 0.0
C384 C 0.50532 0.63219 0.54286 0.0
C385 C 0.5163 0.6557 0.50746 0.0
C386 C 0.53931 0.67372 0.5363 0.0
C387 C 0.5395 0.64646 0.63871 0.0
C388 C 0.51663 0.62809 0.61211 0.0
H389 H 0.54866 0.69094 0.50307 0.0
H390 H 0.54916 0.6424 0.68658 0.0
H391 H 0.59707 0.71119 0.43568 0.0
H392 H 0.58152 0.64172 0.35226 0.0
H393 H 0.55578 0.70627 0.88475 0.0
H394 H 0.50823 0.65948 0.45333 0.0
H395 H 0.50868 0.61023 0.64143 0.0
H396 H 0.46501 0.26361 0.20347 0.0
H397 H 0.41881 0.26098 0.99837 0.0
H398 H 0.40899 0.21917 0.96587 0.0
H399 H 0.41497 0.18396 0.992 0.0
H400 H 0.4619 0.18739 0.19584 0.0
H401 H 0.46984 0.22821 0.23258 0.0
C402 C 0.45272 0.25394 0.15172 0.0
C403 C 0.44277 0.26557 0.10324 0.0
C404 C 0.44728 0.22998 0.13307 0.0
C405 C 0.42678 0.25257 0.03675 0.0
C406 C 0.42117 0.22863 0.01806 0.0
C407 C 0.42673 0.19352 0.04504 0.0
C408 C 0.43788 0.18257 0.09084 0.0
C409 C 0.43148 0.21722 0.06534 0.0
C410 C 0.45318 0.19535 0.15909 0.0
C411 C 0.45775 0.21874 0.18018 0.0
H412 H 0.21335 0.46175 0.3829 0.0
H413 H 0.16967 0.42024 0.17031 0.0
H414 H 0.20072 0.40942 0.13263 0.0
H415 H 0.24093 0.41278 0.15855 0.0
H416 H 0.28386 0.45441 0.37255 0.0
H417 H 0.25231 0.464 0.4113 0.0
C418 C 0.21054 0.45036 0.32809 0.0
C419 C 0.18923 0.44197 0.27916 0.0
C420 C 0.22834 0.44417 0.3072 0.0
C421 C 0.1859 0.427 0.209 0.0
C422 C 0.20366 0.42081 0.18748 0.0
C423 C 0.24329 0.42376 0.21412 0.0
C424 C 0.26489 0.43295 0.26226 0.0
C425 C 0.22503 0.42937 0.23599 0.0
C426 C 0.2676 0.44722 0.3339 0.0
C427 C 0.24953 0.45274 0.35617 0.0
H428 H 0.76275 0.20897 0.53274 0.0
H429 H 0.76115 0.16447 0.32351 0.0
H430 H 0.80265 0.19585 0.28394 0.0
H431 H 0.83867 0.23691 0.30527 0.0
H432 H 0.83933 0.28095 0.51486 0.0
H433 H 0.79896 0.2487 0.55766 0.0
C434 C 0.77143 0.20601 0.4785 0.0
C435 C 0.75871 0.1844 0.43086 0.0
C436 C 0.79516 0.22413 0.45601 0.0
C437 C 0.77045 0.1809 0.36133 0.0
C438 C 0.79418 0.19888 0.33857 0.0
C439 C 0.83009 0.23938 0.36077 0.0
C440 C 0.84206 0.26151 0.4063 0.0
C441 C 0.80663 0.22071 0.38496 0.0
C442 C 0.83057 0.2643 0.47803 0.0
C443 C 0.80742 0.24582 0.50269 0.0
H444 H 0.61665 0.78322 0.68386 0.0
H445 H 0.57147 0.73625 0.48278 0.0
H446 H 0.55968 0.76623 0.44401 0.0
H447 H 0.56072 0.80483 0.47003 0.0
H448 H 0.60576 0.85245 0.66968 0.0
H449 H 0.61915 0.82322 0.70579 0.0
C450 C 0.60441 0.77963 0.63104 0.0
C451 C 0.59483 0.75732 0.58682 0.0
C452 C 0.59755 0.79701 0.60906 0.0
C453 C 0.57898 0.75307 0.51855 0.0
C454 C 0.5722 0.77024 0.49623 0.0
C455 C 0.57349 0.80891 0.52152 0.0
C456 C 0.58206 0.83077 0.56749 0.0
C457 C 0.58109 0.79209 0.54171 0.0
C458 C 0.59883 0.83578 0.63328 0.0
C459 C 0.60646 0.81904 0.65401 0.0
H460 H 0.76286 0.54904 0.69301 0.0
H461 H 0.77026 0.61041 0.83593 0.0
H462 H 0.81404 0.62511 0.85536 0.0
H463 H 0.84975 0.61909 0.83672 0.0
H464 H 0.84134 0.55811 0.68773 0.0
H465 H 0.79852 0.54486 0.66523 0.0
C466 C 0.77402 0.56565 0.72857 0.0
C467 C 0.76328 0.57843 0.76415 0.0
C468 C 0.79904 0.57407 0.73823 0.0
C469 C 0.7781 0.60021 0.80826 0.0
C470 C 0.8031 0.60855 0.81943 0.0
C471 C 0.83861 0.60304 0.79865 0.0
C472 C 0.84889 0.58949 0.76487 0.0
C473 C 0.81374 0.59547 0.78537 0.0
C474 C 0.83411 0.56884 0.71519 0.0
C475 C 0.80949 0.56117 0.70232 0.0
H476 H 0.26783 0.81249 0.08009 0.0
H477 H 0.27197 0.85677 0.8662 0.0
H478 H 0.23016 0.82636 0.82639 0.0
H479 H 0.19312 0.78613 0.84883 0.0
H480 H 0.18974 0.74226 0.06322 0.0
H481 H 0.2305 0.77365 0.10629 0.0
C482 C 0.25963 0.8156 0.02478 0.0
C483 C 0.27317 0.83687 0.97591 0.0
C484 C 0.23568 0.79805 1.00224 0.0
C485 C 0.26205 0.8406 0.90498 0.0
C486 C 0.23813 0.82317 0.88211 0.0
C487 C 0.20117 0.78353 0.9055 0.0
C488 C 0.18833 0.76168 0.9523 0.0
C489 C 0.22484 0.80168 0.92981 0.0
C490 C 0.19917 0.7587 0.02547 0.0
C491 C 0.22254 0.77668 0.05024 0.0
H492 H 0.45464 0.15951 0.66271 0.0
H493 H 0.44908 0.09175 0.74485 0.0
H494 H 0.44578 0.0785 0.59865 0.0
H495 H 0.4467 0.08705 0.44703 0.0
H496 H 0.45486 0.15598 0.36548 0.0
H497 H 0.4548 0.16773 0.5116 0.0
C498 C 0.45284 0.14189 0.64881 0.0
C499 C 0.45229 0.12679 0.71513 0.0
C500 C 0.45142 0.13455 0.56442 0.0
C501 C 0.44935 0.10374 0.69559 0.0
C502 C 0.44764 0.09619 0.61174 0.0
C503 C 0.44856 0.10467 0.46109 0.0
C504 C 0.45085 0.12055 0.39481 0.0
C505 C 0.44901 0.11159 0.54562 0.0
C506 C 0.45275 0.14316 0.41459 0.0
C507 C 0.45292 0.15003 0.49843 0.0
H508 H 0.36322 0.43155 0.62754 0.0
H509 H 0.30742 0.4474 0.54663 0.0
H510 H 0.29759 0.45041 0.69334 0.0
H511 H 0.30658 0.45114 0.84442 0.0
H512 H 0.36411 0.43773 0.9245 0.0
H513 H 0.37146 0.43118 0.7785 0.0
C514 C 0.34895 0.43572 0.64185 0.0
C515 C 0.33626 0.43941 0.57572 0.0
C516 C 0.34375 0.43799 0.72641 0.0
C517 C 0.3174 0.44423 0.59578 0.0
C518 C 0.31189 0.44619 0.67988 0.0
C519 C 0.32083 0.44693 0.83008 0.0
C520 C 0.33485 0.44514 0.89582 0.0
C521 C 0.32526 0.44355 0.74563 0.0
C522 C 0.35285 0.43906 0.87577 0.0
C523 C 0.35719 0.43544 0.79202 0.0
H524 H 0.9405 0.36012 0.76791 0.0
H525 H 0.86759 0.3079 0.68542 0.0
H526 H 0.85427 0.29848 0.83148 0.0
H527 H 0.86277 0.3062 0.98288 0.0
H528 H 0.93499 0.36055 0.06446 0.0
H529 H 0.94895 0.36792 0.91882 0.0
C530 C 0.92165 0.34678 0.78156 0.0
C531 C 0.90518 0.33487 0.71502 0.0
C532 C 0.91389 0.34181 0.86592 0.0
C533 C 0.8809 0.31723 0.73464 0.0
C534 C 0.87315 0.31194 0.81849 0.0
C535 C 0.88151 0.31979 0.969 0.0
C536 C 0.8977 0.33273 0.03524 0.0
C537 C 0.88941 0.32433 0.88462 0.0
C538 C 0.92209 0.34998 0.01552 0.0
C539 C 0.93012 0.35437 0.93189 0.0
H540 H 0.6122 0.93243 0.94784 0.0
H541 H 0.55813 0.85998 0.86834 0.0
H542 H 0.55072 0.84631 0.01496 0.0
H543 H 0.55646 0.85605 0.16617 0.0
H544 H 0.60969 0.92856 0.24704 0.0
H545 H 0.62092 0.94107 0.09987 0.0
C546 C 0.59894 0.91362 0.9628 0.0
C547 C 0.58559 0.89732 0.89733 0.0
C548 C 0.5946 0.90593 0.04749 0.0
C549 C 0.56877 0.87286 0.91734 0.0
C550 C 0.56439 0.86507 1.00128 0.0
C551 C 0.57071 0.8745 0.15139 0.0
C552 C 0.58204 0.89143 0.21708 0.0
C553 C 0.57675 0.8816 0.06685 0.0
C554 C 0.6008 0.91517 0.19753 0.0
C555 C 0.60704 0.92238 0.11338 0.0
H556 H 0.66752 0.59189 0.10316 0.0
H557 H 0.72893 0.58483 0.0221 0.0
H558 H 0.74021 0.58418 0.16837 0.0
H559 H 0.73089 0.58225 0.31906 0.0
H560 H 0.66807 0.58654 0.40102 0.0
H561 H 0.65922 0.59176 0.2549 0.0
C562 C 0.68335 0.59018 0.11728 0.0
C563 C 0.69714 0.58818 0.05096 0.0
C564 C 0.68945 0.58919 0.20196 0.0
C565 C 0.71799 0.5866 0.07105 0.0
C566 C 0.72438 0.586 0.15503 0.0
C567 C 0.7152 0.58422 0.30512 0.0
C568 C 0.7 0.58363 0.37116 0.0
C569 C 0.70993 0.58673 0.22087 0.0
C570 C 0.68015 0.58698 0.35183 0.0
C571 C 0.67498 0.58981 0.26807 0.0
H572 H 0.15287 0.70521 0.26004 0.0
H573 H 0.07509 0.65863 0.29127 0.0
H574 H 0.07971 0.66139 0.44375 0.0
H575 H 0.10584 0.67568 0.57095 0.0
H576 H 0.18333 0.72422 0.53974 0.0
H577 H 0.17861 0.72199 0.38747 0.0
C578 C 0.13686 0.69585 0.29985 0.0
C579 C 0.11369 0.68133 0.26231 0.0
C580 C 0.13953 0.69768 0.38909 0.0
C581 C 0.0933 0.66944 0.31664 0.0
C582 C 0.09587 0.67112 0.40476 0.0
C583 C 0.12172 0.68599 0.5313 0.0
C584 C 0.14501 0.69971 0.56892 0.0
C585 C 0.11892 0.68495 0.4421 0.0
C586 C 0.16519 0.71289 0.51455 0.0
C587 C 0.16253 0.71181 0.42645 0.0
H588 H 0.87332 0.57207 0.18366 0.0
H589 H 0.94529 0.58905 0.10211 0.0
H590 H 0.9592 0.59551 0.24784 0.0
H591 H 0.95059 0.59452 0.39893 0.0
H592 H 0.87794 0.57487 0.48125 0.0
H593 H 0.86482 0.57152 0.33503 0.0
C594 C 0.892 0.57703 0.1976 0.0
C595 C 0.90812 0.57997 0.13142 0.0
C596 C 0.89984 0.58031 0.28196 0.0
C597 C 0.93245 0.58691 0.15108 0.0
C598 C 0.94044 0.59046 0.23473 0.0
C599 C 0.93186 0.5894 0.38508 0.0
C600 C 0.91535 0.58488 0.45154 0.0
C601 C 0.92422 0.58694 0.3007 0.0
C602 C 0.89124 0.57877 0.43194 0.0
C603 C 0.8836 0.57662 0.34806 0.0
H604 H 0.33834 0.93447 0.58585 0.0
H605 H 0.33208 0.86636 0.66657 0.0
H606 H 0.32817 0.853 0.52005 0.0
H607 H 0.33071 0.86238 0.36858 0.0
H608 H 0.33796 0.93076 0.28676 0.0
H609 H 0.33693 0.94221 0.43371 0.0
C610 C 0.33595 0.91665 0.57122 0.0
C611 C 0.33573 0.90154 0.63704 0.0
C612 C 0.33395 0.90917 0.48659 0.0
C613 C 0.33216 0.87829 0.61734 0.0
C614 C 0.3301 0.8707 0.53344 0.0
C615 C 0.33181 0.87967 0.38308 0.0
C616 C 0.33466 0.8958 0.31709 0.0
C617 C 0.33158 0.88623 0.46757 0.0
C618 C 0.33562 0.91797 0.3364 0.0
C619 C 0.33527 0.92461 0.42045 0.0
H620 H 0.4829 0.34109 0.47478 0.0
H621 H 0.40965 0.31803 0.39095 0.0
H622 H 0.3954 0.31108 0.5368 0.0
H623 H 0.40434 0.31464 0.68907 0.0
H624 H 0.47756 0.33801 0.77339 0.0
H625 H 0.49118 0.34149 0.62697 0.0
C626 C 0.46382 0.33451 0.48843 0.0
C627 C 0.44749 0.33049 0.42173 0.0
C628 C 0.45574 0.3306 0.57276 0.0
C629 C 0.42268 0.32135 0.4406 0.0
C630 C 0.41451 0.31746 0.52423 0.0
C631 C 0.42322 0.32031 0.67523 0.0
C632 C 0.43991 0.32618 0.74203 0.0
C633 C 0.43096 0.32249 0.59086 0.0
C634 C 0.46428 0.33316 0.72332 0.0
C635 C 0.47212 0.33536 0.6395 0.0
H636 H 0.1507 0.43404 0.69635 0.0
H637 H 0.10551 0.46371 0.61656 0.0
H638 H 0.09704 0.4683 0.76355 0.0
H639 H 0.10023 0.46124 0.91448 0.0
H640 H 0.14285 0.42839 0.99182 0.0
H641 H 0.15438 0.42758 0.8461 0.0
C642 C 0.13891 0.44142 0.7109 0.0
C643 C 0.12859 0.44825 0.64518 0.0
C644 C 0.13349 0.4433 0.79531 0.0
C645 C 0.1139 0.45844 0.66552 0.0
C646 C 0.10883 0.46086 0.74972 0.0
C647 C 0.1119 0.45376 0.89954 0.0
C648 C 0.12055 0.44485 0.96449 0.0
C649 C 0.11812 0.45287 0.81505 0.0
C650 C 0.1361 0.43568 0.94375 0.0
C651 C 0.14262 0.43505 0.86014 0.0
H652 H 0.70292 0.15813 0.82277 0.0
H653 H 0.69435 0.08916 0.74216 0.0
H654 H 0.6953 0.07775 0.88932 0.0
H655 H 0.69401 0.08569 0.04135 0.0
H656 H 0.70187 0.1545 0.12098 0.0
H657 H 0.70597 0.16781 0.97414 0.0
C658 C 0.70156 0.14073 0.83761 0.0
C659 C 0.69831 0.1244 0.77195 0.0
C660 C 0.7018 0.13422 0.92221 0.0
C661 C 0.69699 0.10208 0.79159 0.0
C662 C 0.6973 0.09547 0.87575 0.0
C663 C 0.69684 0.10367 0.02636 0.0
C664 C 0.6974 0.11899 0.09189 0.0
C665 C 0.69898 0.11111 0.94162 0.0
C666 C 0.70151 0.14242 0.07188 0.0
C667 C 0.70368 0.14997 0.98783 0.0
H668 H 0.60019 0.66063 0.22584 0.0
H669 H 0.58207 0.71481 0.30763 0.0
H670 H 0.57831 0.72426 0.16116 0.0
H671 H 0.57793 0.71559 0.00991 0.0
H672 H 0.59361 0.6596 0.92907 0.0
H673 H 0.6005 0.65246 0.07485 0.0
C674 C 0.59533 0.67445 0.21182 0.0
C675 C 0.5913 0.68683 0.27819 0.0
C676 C 0.59264 0.67943 0.12736 0.0
C677 C 0.58556 0.7051 0.25837 0.0
C678 C 0.58317 0.71039 0.17437 0.0
C679 C 0.58269 0.70171 0.02402 0.0
C680 C 0.58509 0.68811 0.95803 0.0
C681 C 0.58628 0.69739 0.10841 0.0
C682 C 0.59183 0.67057 0.9779 0.0
C683 C 0.59564 0.66633 0.06157 0.0
H684 H 0.55223 0.16564 0.26738 0.0
H685 H 0.57911 0.1726 0.01265 0.0
H686 H 0.61588 0.17341 0.06535 0.0
H687 H 0.63786 0.16695 0.18287 0.0
H688 H 0.60949 0.15804 0.43586 0.0
H689 H 0.57617 0.16375 0.38529 0.0
C690 C 0.56644 0.16807 0.22344 0.0
C691 C 0.56284 0.16897 0.13612 0.0
C692 C 0.58724 0.16799 0.25404 0.0
C693 C 0.5813 0.17163 0.08012 0.0
C694 C 0.60233 0.17208 0.11023 0.0
C695 C 0.62471 0.16693 0.22692 0.0
C696 C 0.62602 0.16206 0.31283 0.0
C697 C 0.60515 0.16951 0.19689 0.0
C698 C 0.60873 0.1617 0.3694 0.0
C699 C 0.58966 0.16487 0.34047 0.0
H700 H 0.43049 0.53449 0.3609 0.0
H701 H 0.38702 0.56955 0.35468 0.0
H702 H 0.41993 0.60559 0.42566 0.0
H703 H 0.4615 0.62703 0.48994 0.0
H704 H 0.50334 0.5901 0.49769 0.0
H705 H 0.47075 0.555 0.42538 0.0
C706 C 0.42832 0.55015 0.37413 0.0
C707 C 0.40657 0.54957 0.35139 0.0
C708 C 0.44702 0.57043 0.4157 0.0
C709 C 0.40369 0.56967 0.37122 0.0
C710 C 0.4225 0.59024 0.41169 0.0
C711 C 0.46336 0.61125 0.47569 0.0
C712 C 0.4847 0.61106 0.49999 0.0
C713 C 0.4443 0.59084 0.43433 0.0
C714 C 0.48693 0.59052 0.48113 0.0
C715 C 0.46837 0.57049 0.43929 0.0
H716 H 0.90655 0.42564 0.52407 0.0
H717 H 0.82829 0.38537 0.49781 0.0
H718 H 0.82527 0.41739 0.57589 0.0
H719 H 0.8454 0.45736 0.6511 0.0
H720 H 0.92381 0.4961 0.67827 0.0
H721 H 0.92623 0.46419 0.6007 0.0
C722 C 0.88883 0.42398 0.53466 0.0
C723 C 0.86771 0.40342 0.50405 0.0
C724 C 0.88727 0.44214 0.58041 0.0
C725 C 0.84482 0.40115 0.52036 0.0
C726 C 0.84312 0.41944 0.56494 0.0
C727 C 0.86295 0.4587 0.64013 0.0
C728 C 0.88435 0.47898 0.67142 0.0
C729 C 0.86427 0.44009 0.59527 0.0
C730 C 0.907 0.48048 0.65663 0.0
C731 C 0.90845 0.46233 0.61158 0.0
H732 H 0.39522 0.85514 0.72649 0.0
H733 H 0.4222 0.86036 0.97974 0.0
H734 H 0.45587 0.85543 0.92708 0.0
H735 H 0.48081 0.85564 0.80723 0.0
H736 H 0.45565 0.8539 0.55321 0.0
H737 H 0.41806 0.8511 0.60719 0.0
C738 C 0.40811 0.85447 0.77004 0.0
C739 C 0.40629 0.85801 0.85672 0.0
C740 C 0.42794 0.85254 0.73888 0.0
C741 C 0.42331 0.8576 0.91273 0.0
C742 C 0.4426 0.85491 0.88259 0.0
C743 C 0.46674 0.85392 0.76397 0.0
C744 C 0.4709 0.85493 0.67651 0.0
C745 C 0.44559 0.85322 0.79555 0.0
C746 C 0.45277 0.85315 0.62085 0.0
C747 C 0.43135 0.85167 0.65169 0.0
H748 H 0.53178 0.41244 0.83958 0.0
H749 H 0.56902 0.38825 0.00785 0.0
H750 H 0.60855 0.42016 0.95301 0.0
H751 H 0.63244 0.45722 0.86493 0.0
H752 H 0.59368 0.48215 0.70577 0.0
H753 H 0.5551 0.44768 0.74889 0.0
C754 C 0.54855 0.4141 0.8643 0.0
C755 C 0.54746 0.39823 0.9286 0.0
C756 C 0.57105 0.43273 0.83405 0.0
C757 C 0.56934 0.40023 0.95829 0.0
C758 C 0.59194 0.4186 0.92738 0.0
C759 C 0.61558 0.4551 0.8395 0.0
C760 C 0.6163 0.4724 0.78127 0.0
C761 C 0.59304 0.43536 0.86655 0.0
C762 C 0.59408 0.46903 0.74873 0.0
C763 C 0.57181 0.44937 0.77415 0.0
H764 H 0.18629 0.56758 0.19758 0.0
H765 H 0.10781 0.52261 0.1865 0.0
H766 H 0.10506 0.55438 0.10934 0.0
H767 H 0.12441 0.59485 0.04611 0.0
H768 H 0.2026 0.64107 0.05583 0.0
H769 H 0.20602 0.60906 0.13233 0.0
C770 C 0.16864 0.56484 0.17824 0.0
C771 C 0.14727 0.54287 0.19924 0.0
C772 C 0.16711 0.58337 0.1334 0.0
C773 C 0.12452 0.53953 0.1733 0.0
C774 C 0.1229 0.55762 0.12843 0.0
C775 C 0.14227 0.59783 0.06376 0.0
C776 C 0.16324 0.62017 0.04417 0.0
C777 C 0.14402 0.57958 0.10826 0.0
C778 C 0.18617 0.62399 0.06992 0.0
C779 C 0.18811 0.60568 0.11359 0.0
H780 H 0.38419 0.04898 0.92079 0.0
H781 H 0.40336 0.06354 0.18359 0.0
H782 H 0.37872 0.02 0.216 0.0
H783 H 0.36043 0.97777 0.16254 0.0
H784 H 0.33948 0.96293 0.90111 0.0
H785 H 0.35546 1.00648 0.87508 0.0
C786 C 0.38182 0.04268 0.98569 0.0
C787 C 0.39541 0.05933 0.04988 0.0
C788 C 0.36774 0.01752 1.00363 0.0
C789 C 0.39271 0.05104 0.13355 0.0
C790 C 0.37891 0.02608 0.15185 0.0
C791 C 0.35834 0.984 0.10087 0.0
C792 C 0.34921 0.96731 0.03352 0.0
C793 C 0.36755 1.00909 0.08655 0.0
C794 C 0.34653 0.97547 0.95386 0.0
C795 C 0.35591 1.00044 0.93878 0.0
H796 H 0.3738 0.34001 0.04992 0.0
H797 H 0.39914 0.34364 0.30449 0.0
H798 H 0.37336 0.35981 0.35316 0.0
H799 H 0.35301 0.38298 0.31556 0.0
H800 H 0.33068 0.38289 0.05897 0.0
H801 H 0.34523 0.35495 0.01849 0.0
C802 C 0.37261 0.34313 0.11664 0.0
C803 C 0.38806 0.34035 0.17393 0.0
C804 C 0.35864 0.35365 0.14321 0.0
C805 C 0.38696 0.34509 0.25984 0.0
C806 C 0.37252 0.35475 0.28733 0.0
C807 C 0.35012 0.37569 0.2519 0.0
C808 C 0.34059 0.38467 0.19043 0.0
C809 C 0.35954 0.36053 0.22868 0.0
C810 C 0.33752 0.37579 0.10756 0.0
C811 C 0.34624 0.36013 0.08422 0.0
H812 H 0.04603 0.3681 0.45384 0.0
H813 H 0.06128 0.38636 0.19033 0.0
H814 H 0.01767 0.36298 0.15823 0.0
H815 H 0.97562 0.34663 0.21191 0.0
H816 H 0.96035 0.32811 0.47508 0.0
H817 H 1.00343 0.34167 0.50071 0.0
C818 C 0.03982 0.36592 0.38889 0.0
C819 C 0.05674 0.37904 0.32461 0.0
C820 C 1.01466 0.35273 0.37126 0.0
C821 C 0.0486 0.37626 0.24071 0.0
C822 C 0.02361 0.36317 0.22256 0.0
C823 C 0.98159 0.34442 0.27385 0.0
C824 C 0.96498 0.33641 0.34159 0.0
C825 C 1.00646 0.35262 0.28813 0.0
C826 C 0.97281 0.33388 0.42191 0.0
C827 C 0.99751 0.342 0.43674 0.0
H828 H 0.64302 0.97053 0.38103 0.0
H829 H 0.63632 0.95857 0.64978 0.0
H830 H 0.66222 1.00238 0.67438 0.0
H831 H 0.67792 0.04417 0.61752 0.0
H832 H 0.6887 0.05616 0.34945 0.0
H833 H 0.67072 0.01227 0.32603 0.0
C834 C 0.6483 0.97743 0.44482 0.0
C835 C 0.63746 0.9615 0.51355 0.0
C836 C 0.66357 1.00267 0.45843 0.0
C837 C 0.64432 0.97054 0.59594 0.0
C838 C 0.65898 0.99565 0.61004 0.0
C839 C 0.67746 0.03724 0.55446 0.0
C840 C 0.68405 0.05322 0.48511 0.0
C841 C 0.66745 0.01197 0.54165 0.0
C842 C 0.68347 0.04416 0.4037 0.0
C843 C 0.67298 0.019 0.39022 0.0
H844 H 0.65516 0.68144 0.54137 0.0
H845 H 0.64384 0.68776 0.80591 0.0
H846 H 0.67112 0.67222 0.84235 0.0
H847 H 0.68816 0.6464 0.79757 0.0
H848 H 0.69759 0.63812 0.53291 0.0
H849 H 0.68188 0.66536 0.49737 0.0
C850 C 0.6599 0.6808 0.60681 0.0
C851 C 0.64771 0.6859 0.67092 0.0
C852 C 0.6749 0.67091 0.62708 0.0
C853 C 0.65334 0.68432 0.75558 0.0
C854 C 0.66865 0.67504 0.77639 0.0
C855 C 0.68813 0.65179 0.73251 0.0
C856 C 0.69417 0.64048 0.66793 0.0
C857 C 0.67819 0.66677 0.71264 0.0
C858 C 0.69341 0.64695 0.58365 0.0
C859 C 0.68404 0.66223 0.56331 0.0
H860 H 0.05901 0.6823 0.73259 0.0
H861 H 0.0661 0.6879 1.00313 0.0
H862 H 0.02206 0.67127 0.01749 0.0
H863 H 0.98131 0.64571 0.95335 0.0
H864 H 0.97433 0.64056 0.6828 0.0
H865 H 0.01845 0.66708 0.6674 0.0
C866 C 0.05102 0.68108 0.7943 0.0
C867 C 0.06567 0.68631 0.86671 0.0
C868 C 0.02562 0.67122 0.8019 0.0
C869 C 0.05519 0.68432 0.94655 0.0
C870 C 0.02993 0.67445 0.95476 0.0
C871 C 0.98936 0.65162 0.89116 0.0
C872 C 0.97467 0.64141 0.81925 0.0
C873 C 1.01485 0.66652 0.88305 0.0
C874 C 0.98525 0.64862 0.73889 0.0
C875 C 1.01056 0.66344 0.73017 0.0
loop_
_geom_bond_atom_site_label_1
_geom_bond_atom_site_label_2
_geom_bond_distance
_geom_bond_site_symmetry_2
_ccdc_geom_bond_type
C0 C1 1.351 . S
C0 N3 1.368 . S
C0 H5 0.931 . S
C1 C0 1.351 . S
C1 N2 1.373 . S
C1 H29 0.930 . S
N2 C1 1.373 . S
N2 C4 1.340 . S
N3 C0 1.368 . S
N3 C4 1.321 . S
N3 Co6 2.135 . S
C4 N2 1.340 . S
C4 N3 1.321 . S
C4 H28 0.930 . S
H5 C0 0.931 . S
Co6 N3 2.135 . S
Co6 N9 2.121 1_554 S
Co6 O14 2.055 . S
Co6 O17 2.039 . S
Co6 N20 2.140 . S
C7 O8 1.227 . S
C7 O17 1.265 . S
O8 C7 1.227 . S
N9 Co6 2.121 1_556 S
N9 C11 1.375 . S
N9 C12 1.313 . S
C10 C11 1.338 . S
C10 N13 1.377 . S
C10 H30 0.930 . S
C11 N9 1.375 . S
C11 C10 1.338 . S
C11 H15 0.931 . S
C12 N9 1.313 . S
C12 N13 1.344 . S
C12 H16 0.930 . S
N13 C10 1.377 . S
N13 C12 1.344 . S
O14 Co6 2.055 . S
O14 C18 1.253 . S
H15 C11 0.931 . S
H16 C12 0.930 . S
O17 Co6 2.039 . S
O17 C7 1.265 . S
C18 O14 1.253 . S
C18 O19 1.227 . S
O19 C18 1.227 . S
N20 Co6 2.140 . S
N20 C23 1.346 . S
N20 C24 1.345 . S
C21 C22 1.387 . S
C21 C25 1.391 . S
C22 C21 1.387 . S
C22 C23 1.369 . S
C22 H31 0.929 . S
C23 N20 1.346 . S
C23 C22 1.369 . S
C23 H26 0.928 . S
C24 N20 1.345 . S
C24 C25 1.371 . S
C24 H27 0.931 . S
C25 C21 1.391 . S
C25 C24 1.371 . S
C25 H32 0.930 . S
H26 C23 0.928 . S
H27 C24 0.931 . S
H28 C4 0.930 . S
H29 C1 0.930 . S
H30 C10 0.930 . S
H31 C22 0.929 . S
H32 C25 0.930 . S
C33 C34 1.351 . S
C33 N36 1.368 . S
C33 H38 0.931 . S
C34 C33 1.351 . S
C34 N35 1.373 . S
C34 H62 0.930 . S
N35 C34 1.373 . S
N35 C37 1.340 . S
N36 C33 1.368 . S
N36 C37 1.321 . S
N36 Co39 2.135 . S
C37 N35 1.340 . S
C37 N36 1.321 . S
C37 H61 0.930 . S
H38 C33 0.931 . S
Co39 N36 2.135 . S
Co39 N42 2.121 . S
Co39 O47 2.055 . S
Co39 O50 2.039 . S
Co39 N53 2.140 . S
C40 O41 1.227 . S
C40 O50 1.265 . S
O41 C40 1.227 . S
N42 Co39 2.121 . S
N42 C44 1.375 . S
N42 C45 1.313 . S
C43 C44 1.338 . S
C43 N46 1.377 . S
C43 H63 0.930 . S
C44 N42 1.375 . S
C44 C43 1.338 . S
C44 H48 0.931 . S
C45 N42 1.313 . S
C45 N46 1.344 . S
C45 H49 0.930 . S
N46 C43 1.377 . S
N46 C45 1.344 . S
O47 Co39 2.055 . S
O47 C51 1.253 . S
H48 C44 0.931 . S
H49 C45 0.930 . S
O50 Co39 2.039 . S
O50 C40 1.265 . S
C51 O47 1.253 . S
C51 O52 1.227 . S
O52 C51 1.227 . S
N53 Co39 2.140 . S
N53 C56 1.346 . S
N53 C57 1.345 . S
C54 C55 1.387 . S
C54 C58 1.391 . S
C55 C54 1.387 . S
C55 C56 1.369 . S
C55 H64 0.929 . S
C56 N53 1.346 . S
C56 C55 1.369 . S
C56 H59 0.928 . S
C57 N53 1.345 . S
C57 C58 1.371 . S
C57 H60 0.931 . S
C58 C54 1.391 . S
C58 C57 1.371 . S
C58 H65 0.930 . S
H59 C56 0.928 . S
H60 C57 0.931 . S
H61 C37 0.930 . S
H62 C34 0.930 . S
H63 C43 0.930 . S
H64 C55 0.929 . S
H65 C58 0.930 . S
C66 C67 1.351 . S
C66 N69 1.368 . S
C66 H71 0.931 . S
C67 C66 1.351 . S
C67 N68 1.373 . S
C67 H95 0.930 . S
N68 C67 1.373 . S
N68 C70 1.340 . S
N69 C66 1.368 . S
N69 C70 1.321 . S
N69 Co72 2.135 . S
C70 N68 1.340 . S
C70 N69 1.321 . S
C70 H94 0.930 . S
H71 C66 0.931 . S
Co72 N69 2.135 . S
Co72 N75 2.121 . S
Co72 O80 2.055 . S
Co72 O83 2.039 . S
Co72 N86 2.140 . S
C73 O74 1.227 . S
C73 O83 1.265 . S
O74 C73 1.227 . S
N75 Co72 2.121 . S
N75 C77 1.375 . S
N75 C78 1.313 . S
C76 C77 1.338 . S
C76 N79 1.377 . S
C76 H96 0.930 . S
C77 N75 1.375 . S
C77 C76 1.338 . S
C77 H81 0.931 . S
C78 N75 1.313 . S
C78 N79 1.344 . S
C78 H82 0.930 . S
N79 C76 1.377 . S
N79 C78 1.344 . S
O80 Co72 2.055 . S
O80 C84 1.253 . S
H81 C77 0.931 . S
H82 C78 0.930 . S
O83 Co72 2.039 . S
O83 C73 1.265 . S
C84 O80 1.253 . S
C84 O85 1.227 . S
O85 C84 1.227 . S
N86 Co72 2.140 . S
N86 C89 1.346 . S
N86 C90 1.345 . S
C87 C88 1.387 . S
C87 C91 1.391 . S
C88 C87 1.387 . S
C88 C89 1.369 . S
C88 H97 0.929 . S
C89 N86 1.346 . S
C89 C88 1.369 . S
C89 H92 0.928 . S
C90 N86 1.345 . S
C90 C91 1.371 . S
C90 H93 0.931 . S
C91 C87 1.391 . S
C91 C90 1.371 . S
C91 H98 0.930 . S
H92 C89 0.928 . S
H93 C90 0.931 . S
H94 C70 0.930 . S
H95 C67 0.930 . S
H96 C76 0.930 . S
H97 C88 0.929 . S
H98 C91 0.930 . S
C99 C100 1.351 . S
C99 N102 1.368 . S
C99 H104 0.931 . S
C100 C99 1.351 . S
C100 N101 1.373 . S
C100 H128 0.930 . S
N101 C100 1.373 . S
N101 C103 1.340 . S
N102 C99 1.368 . S
N102 C103 1.321 . S
N102 Co105 2.135 . S
C103 N101 1.340 . S
C103 N102 1.321 . S
C103 H127 0.930 . S
H104 C99 0.931 . S
Co105 N102 2.135 . S
Co105 N108 2.121 . S
Co105 O113 2.055 . S
Co105 O116 2.039 . S
Co105 N119 2.140 . S
C106 O107 1.227 . S
C106 O116 1.265 . S
O107 C106 1.227 . S
N108 Co105 2.121 . S
N108 C110 1.375 . S
N108 C111 1.313 . S
C109 C110 1.338 . S
C109 N112 1.377 . S
C109 H129 0.930 . S
C110 N108 1.375 . S
C110 C109 1.338 . S
C110 H114 0.931 . S
C111 N108 1.313 . S
C111 N112 1.344 . S
C111 H115 0.930 . S
N112 C109 1.377 . S
N112 C111 1.344 . S
O113 Co105 2.055 . S
O113 C117 1.253 . S
H114 C110 0.931 . S
H115 C111 0.930 . S
O116 Co105 2.039 . S
O116 C106 1.265 . S
C117 O113 1.253 . S
C117 O118 1.227 . S
O118 C117 1.227 . S
N119 Co105 2.140 . S
N119 C122 1.346 . S
N119 C123 1.345 . S
C120 C121 1.387 . S
C120 C124 1.391 . S
C121 C120 1.387 . S
C121 C122 1.369 . S
C121 H130 0.929 . S
C122 N119 1.346 . S
C122 C121 1.369 . S
C122 H125 0.928 . S
C123 N119 1.345 . S
C123 C124 1.371 . S
C123 H126 0.931 . S
C124 C120 1.391 . S
C124 C123 1.371 . S
C124 H131 0.930 . S
H125 C122 0.928 . S
H126 C123 0.931 . S
H127 C103 0.930 . S
H128 C100 0.930 . S
H129 C109 0.930 . S
H130 C121 0.929 . S
H131 C124 0.930 . S
C132 C133 1.351 1_556 S
C132 N135 1.368 . S
C132 H137 0.931 . S
C133 C132 1.351 1_554 S
C133 N134 1.373 . S
C133 H161 0.930 . S
N134 C133 1.373 . S
N134 C136 1.340 1_554 S
N135 C132 1.368 . S
N135 C136 1.321 . S
N135 Co138 2.135 . S
C136 N134 1.340 1_556 S
C136 N135 1.321 . S
C136 H160 0.930 . S
H137 C132 0.931 . S
Co138 N135 2.135 . S
Co138 N141 2.121 . S
Co138 O146 2.055 . S
Co138 O149 2.039 . S
Co138 N152 2.140 . S
C139 O140 1.227 . S
C139 O149 1.265 . S
O140 C139 1.227 . S
N141 Co138 2.121 . S
N141 C143 1.375 . S
N141 C144 1.313 . S
C142 C143 1.338 . S
C142 N145 1.377 . S
C142 H162 0.930 . S
C143 N141 1.375 . S
C143 C142 1.338 . S
C143 H147 0.931 . S
C144 N141 1.313 . S
C144 N145 1.344 . S
C144 H148 0.930 . S
N145 C142 1.377 . S
N145 C144 1.344 . S
O146 Co138 2.055 . S
O146 C150 1.253 . S
H147 C143 0.931 . S
H148 C144 0.930 . S
O149 Co138 2.039 . S
O149 C139 1.265 . S
C150 O146 1.253 . S
C150 O151 1.227 . S
O151 C150 1.227 . S
N152 Co138 2.140 . S
N152 C155 1.346 . S
N152 C156 1.345 . S
C153 C154 1.387 . S
C153 C157 1.391 . S
C154 C153 1.387 . S
C154 C155 1.369 . S
C154 H163 0.929 . S
C155 N152 1.346 . S
C155 C154 1.369 . S
C155 H158 0.928 . S
C156 N152 1.345 . S
C156 C157 1.371 . S
C156 H159 0.931 . S
C157 C153 1.391 . S
C157 C156 1.371 . S
C157 H164 0.930 . S
H158 C155 0.928 . S
H159 C156 0.931 . S
H160 C136 0.930 . S
H161 C133 0.930 . S
H162 C142 0.930 . S
H163 C154 0.929 . S
H164 C157 0.930 . S
C165 C166 1.351 . S
C165 N168 1.368 . S
C165 H170 0.931 . S
C166 C165 1.351 . S
C166 N167 1.373 . S
C166 H194 0.930 . S
N167 C166 1.373 . S
N167 C169 1.340 . S
N168 C165 1.368 . S
N168 C169 1.321 . S
N168 Co171 2.135 1_554 S
C169 N167 1.340 . S
C169 N168 1.321 . S
C169 H193 0.930 . S
H170 C165 0.931 . S
Co171 N168 2.135 1_556 S
Co171 N174 2.121 . S
Co171 O179 2.055 . S
Co171 O182 2.039 . S
Co171 N185 2.140 . S
C172 O173 1.227 . S
C172 O182 1.265 . S
O173 C172 1.227 . S
N174 Co171 2.121 . S
N174 C176 1.375 . S
N174 C177 1.313 . S
C175 C176 1.338 . S
C175 N178 1.377 . S
C175 H195 0.930 . S
C176 N174 1.375 . S
C176 C175 1.338 . S
C176 H180 0.931 . S
C177 N174 1.313 . S
C177 N178 1.344 . S
C177 H181 0.930 . S
N178 C175 1.377 . S
N178 C177 1.344 . S
O179 Co171 2.055 . S
O179 C183 1.253 . S
H180 C176 0.931 . S
H181 C177 0.930 . S
O182 Co171 2.039 . S
O182 C172 1.265 . S
C183 O179 1.253 . S
C183 O184 1.227 . S
O184 C183 1.227 . S
N185 Co171 2.140 . S
N185 C188 1.346 1_556 S
N185 C189 1.345 . S
C186 C187 1.387 1_556 S
C186 C190 1.391 . S
C187 C186 1.387 1_554 S
C187 C188 1.369 . S
C187 H196 0.929 . S
C188 N185 1.346 1_554 S
C188 C187 1.369 . S
C188 H191 0.928 . S
C189 N185 1.345 . S
C189 C190 1.371 . S
C189 H192 0.931 . S
C190 C186 1.391 . S
C190 C189 1.371 . S
C190 H197 0.930 . S
H191 C188 0.928 . S
H192 C189 0.931 . S
H193 C169 0.930 . S
H194 C166 0.930 . S
H195 C175 0.930 . S
H196 C187 0.929 . S
H197 C190 0.930 . S
C198 C199 1.351 . S
C198 N201 1.368 . S
C198 H203 0.931 . S
C199 C198 1.351 . S
C199 N200 1.373 . S
C199 H227 0.930 . S
N200 C199 1.373 . S
N200 C202 1.340 . S
N201 C198 1.368 . S
N201 C202 1.321 . S
N201 Co204 2.135 . S
C202 N200 1.340 . S
C202 N201 1.321 . S
C202 H226 0.930 . S
H203 C198 0.931 . S
Co204 N201 2.135 . S
Co204 N207 2.121 . S
Co204 O212 2.055 . S
Co204 O215 2.039 . S
Co204 N218 2.140 . S
C205 O206 1.227 . S
C205 O215 1.265 . S
O206 C205 1.227 . S
N207 Co204 2.121 . S
N207 C209 1.375 . S
N207 C210 1.313 . S
C208 C209 1.338 . S
C208 N211 1.377 . S
C208 H228 0.930 . S
C209 N207 1.375 . S
C209 C208 1.338 . S
C209 H213 0.931 . S
C210 N207 1.313 . S
C210 N211 1.344 . S
C210 H214 0.930 . S
N211 C208 1.377 . S
N211 C210 1.344 . S
O212 Co204 2.055 . S
O212 C216 1.253 . S
H213 C209 0.931 . S
H214 C210 0.930 . S
O215 Co204 2.039 . S
O215 C205 1.265 . S
C216 O212 1.253 . S
C216 O217 1.227 . S
O217 C216 1.227 . S
N218 Co204 2.140 . S
N218 C221 1.346 . S
N218 C222 1.345 . S
C219 C220 1.387 . S
C219 C223 1.391 . S
C220 C219 1.387 . S
C220 C221 1.369 . S
C220 H229 0.929 . S
C221 N218 1.346 . S
C221 C220 1.369 . S
C221 H224 0.928 . S
C222 N218 1.345 . S
C222 C223 1.371 . S
C222 H225 0.931 . S
C223 C219 1.391 . S
C223 C222 1.371 . S
C223 H230 0.930 . S
H224 C221 0.928 . S
H225 C222 0.931 . S
H226 C202 0.930 . S
H227 C199 0.930 . S
H228 C208 0.930 . S
H229 C220 0.929 . S
H230 C223 0.930 . S
C231 C232 1.351 . S
C231 N234 1.368 . S
C231 H236 0.931 . S
C232 C231 1.351 . S
C232 N233 1.373 . S
C232 H260 0.930 . S
N233 C232 1.373 . S
N233 C235 1.340 . S
N234 C231 1.368 . S
N234 C235 1.321 . S
N234 Co237 2.135 . S
C235 N233 1.340 . S
C235 N234 1.321 . S
C235 H259 0.930 . S
H236 C231 0.931 . S
Co237 N234 2.135 . S
Co237 N240 2.121 1_556 S
Co237 O245 2.055 . S
Co237 O248 2.039 . S
Co237 N251 2.140 . S
C238 O239 1.227 . S
C238 O248 1.265 . S
O239 C238 1.227 . S
N240 Co237 2.121 1_554 S
N240 C242 1.375 . S
N240 C243 1.313 . S
C241 C242 1.338 . S
C241 N244 1.377 . S
C241 H261 0.930 . S
C242 N240 1.375 . S
C242 C241 1.338 . S
C242 H246 0.931 . S
C243 N240 1.313 . S
C243 N244 1.344 . S
C243 H247 0.930 . S
N244 C241 1.377 . S
N244 C243 1.344 . S
O245 Co237 2.055 . S
O245 C249 1.253 . S
H246 C242 0.931 . S
H247 C243 0.930 . S
O248 Co237 2.039 . S
O248 C238 1.265 . S
C249 O245 1.253 . S
C249 O250 1.227 . S
O250 C249 1.227 . S
N251 Co237 2.140 . S
N251 C254 1.346 . S
N251 C255 1.345 . S
C252 C253 1.387 . S
C252 C256 1.391 . S
C253 C252 1.387 . S
C253 C254 1.369 . S
C253 H262 0.929 . S
C254 N251 1.346 . S
C254 C253 1.369 . S
C254 H257 0.928 . S
C255 N251 1.345 . S
C255 C256 1.371 . S
C255 H258 0.931 . S
C256 C252 1.391 . S
C256 C255 1.371 . S
C256 H263 0.930 . S
H257 C254 0.928 . S
H258 C255 0.931 . S
H259 C235 0.930 . S
H260 C232 0.930 . S
H261 C241 0.930 . S
H262 C253 0.929 . S
H263 C256 0.930 . S
C264 C265 1.351 . S
C264 N267 1.368 . S
C264 H269 0.931 . S
C265 C264 1.351 . S
C265 N266 1.373 . S
C265 H293 0.930 . S
N266 C265 1.373 . S
N266 C268 1.340 . S
N267 C264 1.368 . S
N267 C268 1.321 . S
N267 Co270 2.135 1_556 S
C268 N266 1.340 . S
C268 N267 1.321 . S
C268 H292 0.930 . S
H269 C264 0.931 . S
Co270 N267 2.135 1_554 S
Co270 N273 2.121 . S
Co270 O278 2.055 . S
Co270 O281 2.039 . S
Co270 N284 2.140 . S
C271 O272 1.227 . S
C271 O281 1.265 . S
O272 C271 1.227 . S
N273 Co270 2.121 . S
N273 C275 1.375 . S
N273 C276 1.313 . S
C274 C275 1.338 . S
C274 N277 1.377 . S
C274 H294 0.930 . S
C275 N273 1.375 . S
C275 C274 1.338 . S
C275 H279 0.931 . S
C276 N273 1.313 . S
C276 N277 1.344 . S
C276 H280 0.930 . S
N277 C274 1.377 . S
N277 C276 1.344 . S
O278 Co270 2.055 . S
O278 C282 1.253 . S
H279 C275 0.931 . S
H280 C276 0.930 . S
O281 Co270 2.039 . S
O281 C271 1.265 . S
C282 O278 1.253 . S
C282 O283 1.227 . S
O283 C282 1.227 . S
N284 Co270 2.140 . S
N284 C287 1.346 1_554 S
N284 C288 1.345 . S
C285 C286 1.387 1_554 S
C285 C289 1.391 . S
C286 C285 1.387 1_556 S
C286 C287 1.369 . S
C286 H295 0.929 . S
C287 N284 1.346 1_556 S
C287 C286 1.369 . S
C287 H290 0.928 . S
C288 N284 1.345 . S
C288 C289 1.371 . S
C288 H291 0.931 . S
C289 C285 1.391 . S
C289 C288 1.371 . S
C289 H296 0.930 . S
H290 C287 0.928 . S
H291 C288 0.931 . S
H292 C268 0.930 . S
H293 C265 0.930 . S
H294 C274 0.930 . S
H295 C286 0.929 . S
H296 C289 0.930 . S
C297 C298 1.351 1_554 S
C297 N300 1.368 . S
C297 H302 0.931 . S
C298 C297 1.351 1_556 S
C298 N299 1.373 . S
C298 H326 0.930 . S
N299 C298 1.373 . S
N299 C301 1.340 1_556 S
N300 C297 1.368 . S
N300 C301 1.321 . S
N300 Co303 2.135 . S
C301 N299 1.340 1_554 S
C301 N300 1.321 . S
C301 H325 0.930 . S
H302 C297 0.931 . S
Co303 N300 2.135 . S
Co303 N306 2.121 . S
Co303 O311 2.055 . S
Co303 O314 2.039 . S
Co303 N317 2.140 . S
C304 O305 1.227 . S
C304 O314 1.265 . S
O305 C304 1.227 . S
N306 Co303 2.121 . S
N306 C308 1.375 . S
N306 C309 1.313 . S
C307 C308 1.338 . S
C307 N310 1.377 . S
C307 H327 0.930 . S
C308 N306 1.375 . S
C308 C307 1.338 . S
C308 H312 0.931 . S
C309 N306 1.313 . S
C309 N310 1.344 . S
C309 H313 0.930 . S
N310 C307 1.377 . S
N310 C309 1.344 . S
O311 Co303 2.055 . S
O311 C315 1.253 . S
H312 C308 0.931 . S
H313 C309 0.930 . S
O314 Co303 2.039 . S
O314 C304 1.265 . S
C315 O311 1.253 . S
C315 O316 1.227 . S
O316 C315 1.227 . S
N317 Co303 2.140 . S
N317 C320 1.346 . S
N317 C321 1.345 . S
C318 C319 1.387 . S
C318 C322 1.391 . S
C319 C318 1.387 . S
C319 C320 1.369 . S
C319 H328 0.929 . S
C320 N317 1.346 . S
C320 C319 1.369 . S
C320 H323 0.928 . S
C321 N317 1.345 . S
C321 C322 1.371 . S
C321 H324 0.931 . S
C322 C318 1.391 . S
C322 C321 1.371 . S
C322 H329 0.930 . S
H323 C320 0.928 . S
H324 C321 0.931 . S
H325 C301 0.930 . S
H326 C298 0.930 . S
H327 C307 0.930 . S
H328 C319 0.929 . S
H329 C322 0.930 . S
C330 C331 1.351 . S
C330 N333 1.368 . S
C330 H335 0.931 . S
C331 C330 1.351 . S
C331 N332 1.373 . S
C331 H359 0.930 . S
N332 C331 1.373 . S
N332 C334 1.340 . S
N333 C330 1.368 . S
N333 C334 1.321 . S
N333 Co336 2.135 . S
C334 N332 1.340 . S
C334 N333 1.321 . S
C334 H358 0.930 . S
H335 C330 0.931 . S
Co336 N333 2.135 . S
Co336 N339 2.121 . S
Co336 O344 2.055 . S
Co336 O347 2.039 . S
Co336 N350 2.140 . S
C337 O338 1.227 . S
C337 O347 1.265 . S
O338 C337 1.227 . S
N339 Co336 2.121 . S
N339 C341 1.375 . S
N339 C342 1.313 . S
C340 C341 1.338 . S
C340 N343 1.377 . S
C340 H360 0.930 . S
C341 N339 1.375 . S
C341 C340 1.338 . S
C341 H345 0.931 . S
C342 N339 1.313 . S
C342 N343 1.344 . S
C342 H346 0.930 . S
N343 C340 1.377 . S
N343 C342 1.344 . S
O344 Co336 2.055 . S
O344 C348 1.253 . S
H345 C341 0.931 . S
H346 C342 0.930 . S
O347 Co336 2.039 . S
O347 C337 1.265 . S
C348 O344 1.253 . S
C348 O349 1.227 . S
O349 C348 1.227 . S
N350 Co336 2.140 . S
N350 C353 1.346 . S
N350 C354 1.345 . S
C351 C352 1.387 . S
C351 C355 1.391 . S
C352 C351 1.387 . S
C352 C353 1.369 . S
C352 H361 0.929 . S
C353 N350 1.346 . S
C353 C352 1.369 . S
C353 H356 0.928 . S
C354 N350 1.345 . S
C354 C355 1.371 . S
C354 H357 0.931 . S
C355 C351 1.391 . S
C355 C354 1.371 . S
C355 H362 0.930 . S
H356 C353 0.928 . S
H357 C354 0.931 . S
H358 C334 0.930 . S
H359 C331 0.930 . S
H360 C340 0.930 . S
H361 C352 0.929 . S
H362 C355 0.930 . S
C363 C364 1.351 . S
C363 N366 1.368 . S
C363 H368 0.931 . S
C364 C363 1.351 . S
C364 N365 1.373 . S
C364 H392 0.930 . S
N365 C364 1.373 . S
N365 C367 1.340 . S
N366 C363 1.368 . S
N366 C367 1.321 . S
N366 Co369 2.135 . S
C367 N365 1.340 . S
C367 N366 1.321 . S
C367 H391 0.930 . S
H368 C363 0.931 . S
Co369 N366 2.135 . S
Co369 N372 2.121 . S
Co369 O377 2.055 . S
Co369 O380 2.039 . S
Co369 N383 2.140 . S
C370 O371 1.227 . S
C370 O380 1.265 . S
O371 C370 1.227 . S
N372 Co369 2.121 . S
N372 C374 1.375 . S
N372 C375 1.313 . S
C373 C374 1.338 . S
C373 N376 1.377 . S
C373 H393 0.930 . S
C374 N372 1.375 . S
C374 C373 1.338 . S
C374 H378 0.931 . S
C375 N372 1.313 . S
C375 N376 1.344 . S
C375 H379 0.930 . S
N376 C373 1.377 . S
N376 C375 1.344 . S
O377 Co369 2.055 . S
O377 C381 1.253 . S
H378 C374 0.931 . S
H379 C375 0.930 . S
O380 Co369 2.039 . S
O380 C370 1.265 . S
C381 O377 1.253 . S
C381 O382 1.227 . S
O382 C381 1.227 . S
N383 Co369 2.140 . S
N383 C386 1.346 . S
N383 C387 1.345 . S
C384 C385 1.387 . S
C384 C388 1.391 . S
C385 C384 1.387 . S
C385 C386 1.369 . S
C385 H394 0.929 . S
C386 N383 1.346 . S
C386 C385 1.369 . S
C386 H389 0.928 . S
C387 N383 1.345 . S
C387 C388 1.371 . S
C387 H390 0.931 . S
C388 C384 1.391 . S
C388 C387 1.371 . S
C388 H395 0.930 . S
H389 C386 0.928 . S
H390 C387 0.931 . S
H391 C367 0.930 . S
H392 C364 0.930 . S
H393 C373 0.930 . S
H394 C385 0.929 . S
H395 C388 0.930 . S
H396 C402 0.930 1_556 S
H397 C405 0.930 . S
H398 C406 0.930 . S
H399 C407 0.930 . S
H400 C410 0.930 . S
H401 C411 0.930 . S
C402 H396 0.930 1_554 S
C402 C403 1.355 . S
C402 C404 1.415 . S
C403 C402 1.355 . S
C403 C405 1.419 . S
C404 C402 1.415 . S
C404 C409 1.425 . S
C404 C411 1.409 . S
C405 H397 0.930 . S
C405 C403 1.419 . S
C405 C406 1.362 . S
C406 H398 0.930 . S
C406 C405 1.362 . S
C406 C409 1.409 . S
C407 H399 0.930 . S
C407 C408 1.355 . S
C407 C409 1.415 . S
C408 C407 1.355 . S
C408 C410 1.419 . S
C409 C404 1.425 . S
C409 C406 1.409 . S
C409 C407 1.415 . S
C410 H400 0.930 . S
C410 C408 1.419 . S
C410 C411 1.362 . S
C411 H401 0.930 . S
C411 C404 1.409 . S
C411 C410 1.362 . S
H412 C418 0.930 . S
H413 C421 0.930 . S
H414 C422 0.930 . S
H415 C423 0.930 . S
H416 C426 0.930 . S
H417 C427 0.930 . S
C418 H412 0.930 . S
C418 C419 1.355 . S
C418 C420 1.415 . S
C419 C418 1.355 . S
C419 C421 1.419 . S
C420 C418 1.415 . S
C420 C425 1.425 . S
C420 C427 1.409 . S
C421 H413 0.930 . S
C421 C419 1.419 . S
C421 C422 1.362 . S
C422 H414 0.930 . S
C422 C421 1.362 . S
C422 C425 1.409 . S
C423 H415 0.930 . S
C423 C424 1.355 . S
C423 C425 1.415 . S
C424 C423 1.355 . S
C424 C426 1.419 . S
C425 C420 1.425 . S
C425 C422 1.409 . S
C425 C423 1.415 . S
C426 H416 0.930 . S
C426 C424 1.419 . S
C426 C427 1.362 . S
C427 H417 0.930 . S
C427 C420 1.409 . S
C427 C426 1.362 . S
H428 C434 0.930 . S
H429 C437 0.930 . S
H430 C438 0.930 . S
H431 C439 0.930 . S
H432 C442 0.930 . S
H433 C443 0.930 . S
C434 H428 0.930 . S
C434 C435 1.355 . S
C434 C436 1.415 . S
C435 C434 1.355 . S
C435 C437 1.419 . S
C436 C434 1.415 . S
C436 C441 1.425 . S
C436 C443 1.409 . S
C437 H429 0.930 . S
C437 C435 1.419 . S
C437 C438 1.362 . S
C438 H430 0.930 . S
C438 C437 1.362 . S
C438 C441 1.409 . S
C439 H431 0.930 . S
C439 C440 1.355 . S
C439 C441 1.415 . S
C440 C439 1.355 . S
C440 C442 1.419 . S
C441 C436 1.425 . S
C441 C438 1.409 . S
C441 C439 1.415 . S
C442 H432 0.930 . S
C442 C440 1.419 . S
C442 C443 1.362 . S
C443 H433 0.930 . S
C443 C436 1.409 . S
C443 C442 1.362 . S
H444 C450 0.930 . S
H445 C453 0.930 . S
H446 C454 0.930 . S
H447 C455 0.930 . S
H448 C458 0.930 . S
H449 C459 0.930 . S
C450 H444 0.930 . S
C450 C451 1.355 . S
C450 C452 1.415 . S
C451 C450 1.355 . S
C451 C453 1.419 . S
C452 C450 1.415 . S
C452 C457 1.425 . S
C452 C459 1.409 . S
C453 H445 0.930 . S
C453 C451 1.419 . S
C453 C454 1.362 . S
C454 H446 0.930 . S
C454 C453 1.362 . S
C454 C457 1.409 . S
C455 H447 0.930 . S
C455 C456 1.355 . S
C455 C457 1.415 . S
C456 C455 1.355 . S
C456 C458 1.419 . S
C457 C452 1.425 . S
C457 C454 1.409 . S
C457 C455 1.415 . S
C458 H448 0.930 . S
C458 C456 1.419 . S
C458 C459 1.362 . S
C459 H449 0.930 . S
C459 C452 1.409 . S
C459 C458 1.362 . S
H460 C466 0.930 . S
H461 C469 0.930 . S
H462 C470 0.930 . S
H463 C471 0.930 . S
H464 C474 0.930 . S
H465 C475 0.930 . S
C466 H460 0.930 . S
C466 C467 1.355 . S
C466 C468 1.415 . S
C467 C466 1.355 . S
C467 C469 1.419 . S
C468 C466 1.415 . S
C468 C473 1.425 . S
C468 C475 1.409 . S
C469 H461 0.930 . S
C469 C467 1.419 . S
C469 C470 1.362 . S
C470 H462 0.930 . S
C470 C469 1.362 . S
C470 C473 1.409 . S
C471 H463 0.930 . S
C471 C472 1.355 . S
C471 C473 1.415 . S
C472 C471 1.355 . S
C472 C474 1.419 . S
C473 C468 1.425 . S
C473 C470 1.409 . S
C473 C471 1.415 . S
C474 H464 0.930 . S
C474 C472 1.419 . S
C474 C475 1.362 . S
C475 H465 0.930 . S
C475 C468 1.409 . S
C475 C474 1.362 . S
H476 C482 0.930 . S
H477 C485 0.930 . S
H478 C486 0.930 . S
H479 C487 0.930 . S
H480 C490 0.930 . S
H481 C491 0.930 . S
C482 H476 0.930 . S
C482 C483 1.355 . S
C482 C484 1.415 . S
C483 C482 1.355 . S
C483 C485 1.419 . S
C484 C482 1.415 . S
C484 C489 1.425 . S
C484 C491 1.409 . S
C485 H477 0.930 . S
C485 C483 1.419 . S
C485 C486 1.362 . S
C486 H478 0.930 . S
C486 C485 1.362 . S
C486 C489 1.409 . S
C487 H479 0.930 . S
C487 C488 1.355 . S
C487 C489 1.415 . S
C488 C487 1.355 . S
C488 C490 1.419 . S
C489 C484 1.425 . S
C489 C486 1.409 . S
C489 C487 1.415 . S
C490 H480 0.930 . S
C490 C488 1.419 . S
C490 C491 1.362 . S
C491 H481 0.930 . S
C491 C484 1.409 . S
C491 C490 1.362 . S
H492 C498 0.930 . S
H493 C501 0.930 . S
H494 C502 0.930 . S
H495 C503 0.930 . S
H496 C506 0.930 . S
H497 C507 0.930 . S
C498 H492 0.930 . S
C498 C499 1.355 . S
C498 C500 1.415 . S
C499 C498 1.355 . S
C499 C501 1.419 . S
C500 C498 1.415 . S
C500 C505 1.425 . S
C500 C507 1.409 . S
C501 H493 0.930 . S
C501 C499 1.419 . S
C501 C502 1.362 . S
C502 H494 0.930 . S
C502 C501 1.362 . S
C502 C505 1.409 . S
C503 H495 0.930 . S
C503 C504 1.355 . S
C503 C505 1.415 . S
C504 C503 1.355 . S
C504 C506 1.419 . S
C505 C500 1.425 . S
C505 C502 1.409 . S
C505 C503 1.415 . S
C506 H496 0.930 . S
C506 C504 1.419 . S
C506 C507 1.362 . S
C507 H497 0.930 . S
C507 C500 1.409 . S
C507 C506 1.362 . S
H508 C514 0.930 . S
H509 C517 0.930 . S
H510 C518 0.930 . S
H511 C519 0.930 . S
H512 C522 0.930 . S
H513 C523 0.930 . S
C514 H508 0.930 . S
C514 C515 1.355 . S
C514 C516 1.415 . S
C515 C514 1.355 . S
C515 C517 1.419 . S
C516 C514 1.415 . S
C516 C521 1.425 . S
C516 C523 1.409 . S
C517 H509 0.930 . S
C517 C515 1.419 . S
C517 C518 1.362 . S
C518 H510 0.930 . S
C518 C517 1.362 . S
C518 C521 1.409 . S
C519 H511 0.930 . S
C519 C520 1.355 . S
C519 C521 1.415 . S
C520 C519 1.355 . S
C520 C522 1.419 . S
C521 C516 1.425 . S
C521 C518 1.409 . S
C521 C519 1.415 . S
C522 H512 0.930 . S
C522 C520 1.419 . S
C522 C523 1.362 . S
C523 H513 0.930 . S
C523 C516 1.409 . S
C523 C522 1.362 . S
H524 C530 0.930 . S
H525 C533 0.930 . S
H526 C534 0.930 . S
H527 C535 0.930 . S
H528 C538 0.930 . S
H529 C539 0.930 1_556 S
C530 H524 0.930 . S
C530 C531 1.355 . S
C530 C532 1.415 . S
C531 C530 1.355 . S
C531 C533 1.419 . S
C532 C530 1.415 . S
C532 C537 1.425 . S
C532 C539 1.409 1_556 S
C533 H525 0.930 . S
C533 C531 1.419 . S
C533 C534 1.362 . S
C534 H526 0.930 . S
C534 C533 1.362 . S
C534 C537 1.409 . S
C535 H527 0.930 . S
C535 C536 1.355 . S
C535 C537 1.415 1_554 S
C536 C535 1.355 . S
C536 C538 1.419 . S
C537 C532 1.425 . S
C537 C534 1.409 . S
C537 C535 1.415 1_556 S
C538 H528 0.930 . S
C538 C536 1.419 . S
C538 C539 1.362 . S
C539 H529 0.930 1_554 S
C539 C532 1.409 1_554 S
C539 C538 1.362 . S
H540 C546 0.930 1_556 S
H541 C549 0.930 1_556 S
H542 C550 0.930 . S
H543 C551 0.930 . S
H544 C554 0.930 . S
H545 C555 0.930 . S
C546 H540 0.930 1_554 S
C546 C547 1.355 1_554 S
C546 C548 1.415 . S
C547 C546 1.355 1_556 S
C547 C549 1.419 1_556 S
C548 C546 1.415 . S
C548 C553 1.425 . S
C548 C555 1.409 . S
C549 H541 0.930 1_554 S
C549 C547 1.419 1_554 S
C549 C550 1.362 . S
C550 H542 0.930 . S
C550 C549 1.362 . S
C550 C553 1.409 . S
C551 H543 0.930 . S
C551 C552 1.355 . S
C551 C553 1.415 . S
C552 C551 1.355 . S
C552 C554 1.419 . S
C553 C548 1.425 . S
C553 C550 1.409 . S
C553 C551 1.415 . S
C554 H544 0.930 . S
C554 C552 1.419 . S
C554 C555 1.362 . S
C555 H545 0.930 . S
C555 C548 1.409 . S
C555 C554 1.362 . S
H556 C562 0.930 . S
H557 C565 0.930 . S
H558 C566 0.930 . S
H559 C567 0.930 . S
H560 C570 0.930 . S
H561 C571 0.930 . S
C562 H556 0.930 . S
C562 C563 1.355 . S
C562 C564 1.415 . S
C563 C562 1.355 . S
C563 C565 1.419 . S
C564 C562 1.415 . S
C564 C569 1.425 . S
C564 C571 1.409 . S
C565 H557 0.930 . S
C565 C563 1.419 . S
C565 C566 1.362 . S
C566 H558 0.930 . S
C566 C565 1.362 . S
C566 C569 1.409 . S
C567 H559 0.930 . S
C567 C568 1.355 . S
C567 C569 1.415 . S
C568 C567 1.355 . S
C568 C570 1.419 . S
C569 C564 1.425 . S
C569 C566 1.409 . S
C569 C567 1.415 . S
C570 H560 0.930 . S
C570 C568 1.419 . S
C570 C571 1.362 . S
C571 H561 0.930 . S
C571 C564 1.409 . S
C571 C570 1.362 . S
H572 C578 0.930 . S
H573 C581 0.930 . S
H574 C582 0.930 . S
H575 C583 0.930 . S
H576 C586 0.930 . S
H577 C587 0.930 . S
C578 H572 0.930 . S
C578 C579 1.355 . S
C578 C580 1.415 . S
C579 C578 1.355 . S
C579 C581 1.419 . S
C580 C578 1.415 . S
C580 C585 1.425 . S
C580 C587 1.409 . S
C581 H573 0.930 . S
C581 C579 1.419 . S
C581 C582 1.362 . S
C582 H574 0.930 . S
C582 C581 1.362 . S
C582 C585 1.409 . S
C583 H575 0.930 . S
C583 C584 1.355 . S
C583 C585 1.415 . S
C584 C583 1.355 . S
C584 C586 1.419 . S
C585 C580 1.425 . S
C585 C582 1.409 . S
C585 C583 1.415 . S
C586 H576 0.930 . S
C586 C584 1.419 . S
C586 C587 1.362 . S
C587 H577 0.930 . S
C587 C580 1.409 . S
C587 C586 1.362 . S
H588 C594 0.930 . S
H589 C597 0.930 . S
H590 C598 0.930 . S
H591 C599 0.930 . S
H592 C602 0.930 . S
H593 C603 0.930 . S
C594 H588 0.930 . S
C594 C595 1.355 . S
C594 C596 1.415 . S
C595 C594 1.355 . S
C595 C597 1.419 . S
C596 C594 1.415 . S
C596 C601 1.425 . S
C596 C603 1.409 . S
C597 H589 0.930 . S
C597 C595 1.419 . S
C597 C598 1.362 . S
C598 H590 0.930 . S
C598 C597 1.362 . S
C598 C601 1.409 . S
C599 H591 0.930 . S
C599 C600 1.355 . S
C599 C601 1.415 . S
C600 C599 1.355 . S
C600 C602 1.419 . S
C601 C596 1.425 . S
C601 C598 1.409 . S
C601 C599 1.415 . S
C602 H592 0.930 . S
C602 C600 1.419 . S
C602 C603 1.362 . S
C603 H593 0.930 . S
C603 C596 1.409 . S
C603 C602 1.362 . S
H604 C610 0.930 . S
H605 C613 0.930 . S
H606 C614 0.930 . S
H607 C615 0.930 . S
H608 C618 0.930 . S
H609 C619 0.930 . S
C610 H604 0.930 . S
C610 C611 1.355 . S
C610 C612 1.415 . S
C611 C610 1.355 . S
C611 C613 1.419 . S
C612 C610 1.415 . S
C612 C617 1.425 . S
C612 C619 1.409 . S
C613 H605 0.930 . S
C613 C611 1.419 . S
C613 C614 1.362 . S
C614 H606 0.930 . S
C614 C613 1.362 . S
C614 C617 1.409 . S
C615 H607 0.930 . S
C615 C616 1.355 . S
C615 C617 1.415 . S
C616 C615 1.355 . S
C616 C618 1.419 . S
C617 C612 1.425 . S
C617 C614 1.409 . S
C617 C615 1.415 . S
C618 H608 0.930 . S
C618 C616 1.419 . S
C618 C619 1.362 . S
C619 H609 0.930 . S
C619 C612 1.409 . S
C619 C618 1.362 . S
H620 C626 0.930 . S
H621 C629 0.930 . S
H622 C630 0.930 . S
H623 C631 0.930 . S
H624 C634 0.930 . S
H625 C635 0.930 . S
C626 H620 0.930 . S
C626 C627 1.355 . S
C626 C628 1.415 . S
C627 C626 1.355 . S
C627 C629 1.419 . S
C628 C626 1.415 . S
C628 C633 1.425 . S
C628 C635 1.409 . S
C629 H621 0.930 . S
C629 C627 1.419 . S
C629 C630 1.362 . S
C630 H622 0.930 . S
C630 C629 1.362 . S
C630 C633 1.409 . S
C631 H623 0.930 . S
C631 C632 1.355 . S
C631 C633 1.415 . S
C632 C631 1.355 . S
C632 C634 1.419 . S
C633 C628 1.425 . S
C633 C630 1.409 . S
C633 C631 1.415 . S
C634 H624 0.930 . S
C634 C632 1.419 . S
C634 C635 1.362 . S
C635 H625 0.930 . S
C635 C628 1.409 . S
C635 C634 1.362 . S
H636 C642 0.930 . S
H637 C645 0.930 . S
H638 C646 0.930 . S
H639 C647 0.930 . S
H640 C650 0.930 . S
H641 C651 0.930 . S
C642 H636 0.930 . S
C642 C643 1.355 . S
C642 C644 1.415 . S
C643 C642 1.355 . S
C643 C645 1.419 . S
C644 C642 1.415 . S
C644 C649 1.425 . S
C644 C651 1.409 . S
C645 H637 0.930 . S
C645 C643 1.419 . S
C645 C646 1.362 . S
C646 H638 0.930 . S
C646 C645 1.362 . S
C646 C649 1.409 . S
C647 H639 0.930 . S
C647 C648 1.355 . S
C647 C649 1.415 . S
C648 C647 1.355 . S
C648 C650 1.419 . S
C649 C644 1.425 . S
C649 C646 1.409 . S
C649 C647 1.415 . S
C650 H640 0.930 . S
C650 C648 1.419 . S
C650 C651 1.362 . S
C651 H641 0.930 . S
C651 C644 1.409 . S
C651 C650 1.362 . S
H652 C658 0.930 . S
H653 C661 0.930 . S
H654 C662 0.930 . S
H655 C663 0.930 1_554 S
H656 C666 0.930 . S
H657 C667 0.930 . S
C658 H652 0.930 . S
C658 C659 1.355 . S
C658 C660 1.415 . S
C659 C658 1.355 . S
C659 C661 1.419 . S
C660 C658 1.415 . S
C660 C665 1.425 . S
C660 C667 1.409 . S
C661 H653 0.930 . S
C661 C659 1.419 . S
C661 C662 1.362 . S
C662 H654 0.930 . S
C662 C661 1.362 . S
C662 C665 1.409 . S
C663 H655 0.930 1_556 S
C663 C664 1.355 1_556 S
C663 C665 1.415 . S
C664 C663 1.355 1_554 S
C664 C666 1.419 . S
C665 C660 1.425 . S
C665 C662 1.409 . S
C665 C663 1.415 . S
C666 H656 0.930 . S
C666 C664 1.419 . S
C666 C667 1.362 1_554 S
C667 H657 0.930 . S
C667 C660 1.409 . S
C667 C666 1.362 1_556 S
H668 C674 0.930 . S
H669 C677 0.930 . S
H670 C678 0.930 . S
H671 C679 0.930 . S
H672 C682 0.930 . S
H673 C683 0.928 1_554 S
C674 H668 0.930 . S
C674 C675 1.355 . S
C674 C676 1.415 . S
C675 C674 1.355 . S
C675 C677 1.419 . S
C676 C674 1.415 . S
C676 C681 1.425 . S
C676 C683 1.409 1_554 S
C677 H669 0.930 . S
C677 C675 1.419 . S
C677 C678 1.362 . S
C678 H670 0.930 . S
C678 C677 1.362 . S
C678 C681 1.409 . S
C679 H671 0.930 . S
C679 C680 1.355 . S
C679 C681 1.415 1_556 S
C680 C679 1.355 . S
C680 C682 1.419 . S
C681 C676 1.425 . S
C681 C678 1.409 . S
C681 C679 1.415 1_554 S
C682 H672 0.930 . S
C682 C680 1.419 . S
C682 C683 1.362 . S
C683 H673 0.928 1_556 S
C683 C676 1.409 1_556 S
C683 C682 1.362 . S
H684 C690 0.930 . S
H685 C693 0.930 . S
H686 C694 0.930 . S
H687 C695 0.930 . S
H688 C698 0.930 . S
H689 C699 0.930 . S
C690 H684 0.930 . S
C690 C691 1.355 . S
C690 C692 1.415 . S
C691 C690 1.355 . S
C691 C693 1.419 . S
C692 C690 1.415 . S
C692 C697 1.425 . S
C692 C699 1.409 . S
C693 H685 0.930 . S
C693 C691 1.419 . S
C693 C694 1.362 . S
C694 H686 0.930 . S
C694 C693 1.362 . S
C694 C697 1.409 . S
C695 H687 0.930 . S
C695 C696 1.355 . S
C695 C697 1.415 . S
C696 C695 1.355 . S
C696 C698 1.419 . S
C697 C692 1.425 . S
C697 C694 1.409 . S
C697 C695 1.415 . S
C698 H688 0.930 . S
C698 C696 1.419 . S
C698 C699 1.362 . S
C699 H689 0.930 . S
C699 C692 1.409 . S
C699 C698 1.362 . S
H700 C706 0.930 . S
H701 C709 0.930 . S
H702 C710 0.930 . S
H703 C711 0.930 . S
H704 C714 0.930 . S
H705 C715 0.930 . S
C706 H700 0.930 . S
C706 C707 1.355 . S
C706 C708 1.415 . S
C707 C706 1.355 . S
C707 C709 1.419 . S
C708 C706 1.415 . S
C708 C713 1.425 . S
C708 C715 1.409 . S
C709 H701 0.930 . S
C709 C707 1.419 . S
C709 C710 1.362 . S
C710 H702 0.930 . S
C710 C709 1.362 . S
C710 C713 1.409 . S
C711 H703 0.930 . S
C711 C712 1.355 . S
C711 C713 1.415 . S
C712 C711 1.355 . S
C712 C714 1.419 . S
C713 C708 1.425 . S
C713 C710 1.409 . S
C713 C711 1.415 . S
C714 H704 0.930 . S
C714 C712 1.419 . S
C714 C715 1.362 . S
C715 H705 0.930 . S
C715 C708 1.409 . S
C715 C714 1.362 . S
H716 C722 0.930 . S
H717 C725 0.930 . S
H718 C726 0.930 . S
H719 C727 0.930 . S
H720 C730 0.930 . S
H721 C731 0.930 . S
C722 H716 0.930 . S
C722 C723 1.355 . S
C722 C724 1.415 . S
C723 C722 1.355 . S
C723 C725 1.419 . S
C724 C722 1.415 . S
C724 C729 1.425 . S
C724 C731 1.409 . S
C725 H717 0.930 . S
C725 C723 1.419 . S
C725 C726 1.362 . S
C726 H718 0.930 . S
C726 C725 1.362 . S
C726 C729 1.409 . S
C727 H719 0.930 . S
C727 C728 1.355 . S
C727 C729 1.415 . S
C728 C727 1.355 . S
C728 C730 1.419 . S
C729 C724 1.425 . S
C729 C726 1.409 . S
C729 C727 1.415 . S
C730 H720 0.930 . S
C730 C728 1.419 . S
C730 C731 1.362 . S
C731 H721 0.930 . S
C731 C724 1.409 . S
C731 C730 1.362 . S
H732 C738 0.930 . S
H733 C741 0.930 . S
H734 C742 0.930 . S
H735 C743 0.930 . S
H736 C746 0.930 . S
H737 C747 0.930 . S
C738 H732 0.930 . S
C738 C739 1.355 . S
C738 C740 1.415 . S
C739 C738 1.355 . S
C739 C741 1.419 . S
C740 C738 1.415 . S
C740 C745 1.425 . S
C740 C747 1.409 . S
C741 H733 0.930 . S
C741 C739 1.419 . S
C741 C742 1.362 . S
C742 H734 0.930 . S
C742 C741 1.362 . S
C742 C745 1.409 . S
C743 H735 0.930 . S
C743 C744 1.355 . S
C743 C745 1.415 . S
C744 C743 1.355 . S
C744 C746 1.419 . S
C745 C740 1.425 . S
C745 C742 1.409 . S
C745 C743 1.415 . S
C746 H736 0.930 . S
C746 C744 1.419 . S
C746 C747 1.362 . S
C747 H737 0.930 . S
C747 C740 1.409 . S
C747 C746 1.362 . S
H748 C754 0.930 . S
H749 C757 0.930 . S
H750 C758 0.930 . S
H751 C759 0.930 . S
H752 C762 0.930 . S
H753 C763 0.930 . S
C754 H748 0.930 . S
C754 C755 1.355 . S
C754 C756 1.415 . S
C755 C754 1.355 . S
C755 C757 1.419 . S
C756 C754 1.415 . S
C756 C761 1.425 . S
C756 C763 1.409 . S
C757 H749 0.930 . S
C757 C755 1.419 . S
C757 C758 1.362 . S
C758 H750 0.930 . S
C758 C757 1.362 . S
C758 C761 1.409 . S
C759 H751 0.930 . S
C759 C760 1.355 . S
C759 C761 1.415 . S
C760 C759 1.355 . S
C760 C762 1.419 . S
C761 C756 1.425 . S
C761 C758 1.409 . S
C761 C759 1.415 . S
C762 H752 0.930 . S
C762 C760 1.419 . S
C762 C763 1.362 . S
C763 H753 0.930 . S
C763 C756 1.409 . S
C763 C762 1.362 . S
H764 C770 0.930 . S
H765 C773 0.930 . S
H766 C774 0.930 . S
H767 C775 0.930 . S
H768 C778 0.930 . S
H769 C779 0.930 1_556 S
C770 H764 0.930 . S
C770 C771 1.355 . S
C770 C772 1.415 . S
C771 C770 1.355 . S
C771 C773 1.419 . S
C772 C770 1.415 . S
C772 C777 1.425 . S
C772 C779 1.409 . S
C773 H765 0.930 . S
C773 C771 1.419 . S
C773 C774 1.362 . S
C774 H766 0.930 . S
C774 C773 1.362 . S
C774 C777 1.409 . S
C775 H767 0.930 . S
C775 C776 1.355 . S
C775 C777 1.415 . S
C776 C775 1.355 . S
C776 C778 1.419 1_554 S
C777 C772 1.425 . S
C777 C774 1.409 . S
C777 C775 1.415 . S
C778 H768 0.930 . S
C778 C776 1.419 1_556 S
C778 C779 1.362 1_556 S
C779 H769 0.930 1_554 S
C779 C772 1.409 . S
C779 C778 1.362 1_554 S
H780 C786 0.930 . S
H781 C789 0.930 . S
H782 C790 0.930 . S
H783 C791 0.930 . S
H784 C794 0.930 . S
H785 C795 0.930 . S
C786 H780 0.930 . S
C786 C787 1.355 . S
C786 C788 1.415 . S
C787 C786 1.355 . S
C787 C789 1.419 . S
C788 C786 1.415 . S
C788 C793 1.425 1_544 S
C788 C795 1.409 1_544 S
C789 H781 0.930 . S
C789 C787 1.419 . S
C789 C790 1.362 . S
C790 H782 0.930 . S
C790 C789 1.362 . S
C790 C793 1.409 1_544 S
C791 H783 0.930 . S
C791 C792 1.355 . S
C791 C793 1.415 . S
C792 C791 1.355 . S
C792 C794 1.419 . S
C793 C788 1.425 1_566 S
C793 C790 1.409 1_566 S
C793 C791 1.415 . S
C794 H784 0.930 . S
C794 C792 1.419 . S
C794 C795 1.362 . S
C795 H785 0.930 . S
C795 C788 1.409 1_566 S
C795 C794 1.362 . S
H796 C802 0.930 . S
H797 C805 0.930 . S
H798 C806 0.930 . S
H799 C807 0.930 . S
H800 C810 0.930 . S
H801 C811 0.930 . S
C802 H796 0.930 . S
C802 C803 1.355 . S
C802 C804 1.415 . S
C803 C802 1.355 . S
C803 C805 1.419 . S
C804 C802 1.415 . S
C804 C809 1.425 . S
C804 C811 1.409 . S
C805 H797 0.930 . S
C805 C803 1.419 . S
C805 C806 1.362 . S
C806 H798 0.930 . S
C806 C805 1.362 . S
C806 C809 1.409 . S
C807 H799 0.930 . S
C807 C808 1.355 . S
C807 C809 1.415 . S
C808 C807 1.355 . S
C808 C810 1.419 . S
C809 C804 1.425 . S
C809 C806 1.409 . S
C809 C807 1.415 . S
C810 H800 0.930 . S
C810 C808 1.419 . S
C810 C811 1.362 . S
C811 H801 0.930 . S
C811 C804 1.409 . S
C811 C810 1.362 . S
H812 C818 0.930 . S
H813 C821 0.930 . S
H814 C822 0.930 . S
H815 C823 0.930 . S
H816 C826 0.930 . S
H817 C827 0.930 . S
C818 H812 0.930 . S
C818 C819 1.355 . S
C818 C820 1.415 . S
C819 C818 1.355 . S
C819 C821 1.419 . S
C820 C818 1.415 . S
C820 C825 1.425 1_455 S
C820 C827 1.409 1_455 S
C821 H813 0.930 . S
C821 C819 1.419 . S
C821 C822 1.362 . S
C822 H814 0.930 . S
C822 C821 1.362 . S
C822 C825 1.409 1_455 S
C823 H815 0.930 . S
C823 C824 1.355 . S
C823 C825 1.415 . S
C824 C823 1.355 . S
C824 C826 1.419 . S
C825 C820 1.425 1_655 S
C825 C822 1.409 1_655 S
C825 C823 1.415 . S
C826 H816 0.930 . S
C826 C824 1.419 . S
C826 C827 1.362 . S
C827 H817 0.930 . S
C827 C820 1.409 1_655 S
C827 C826 1.362 . S
H828 C834 0.930 . S
H829 C837 0.930 . S
H830 C838 0.930 1_545 S
H831 C839 0.930 . S
H832 C842 0.930 . S
H833 C843 0.930 1_565 S
C834 H828 0.930 . S
C834 C835 1.355 . S
C834 C836 1.415 . S
C835 C834 1.355 . S
C835 C837 1.419 . S
C836 C834 1.415 . S
C836 C841 1.425 1_565 S
C836 C843 1.409 1_565 S
C837 H829 0.930 . S
C837 C835 1.419 . S
C837 C838 1.362 . S
C838 H830 0.930 1_565 S
C838 C837 1.362 . S
C838 C841 1.409 1_565 S
C839 H831 0.930 . S
C839 C840 1.355 . S
C839 C841 1.415 . S
C840 C839 1.355 . S
C840 C842 1.419 . S
C841 C836 1.425 1_545 S
C841 C838 1.409 1_545 S
C841 C839 1.415 . S
C842 H832 0.930 . S
C842 C840 1.419 . S
C842 C843 1.362 . S
C843 H833 0.930 1_545 S
C843 C836 1.409 1_545 S
C843 C842 1.362 . S
H844 C850 0.930 . S
H845 C853 0.930 . S
H846 C854 0.930 . S
H847 C855 0.930 . S
H848 C858 0.930 . S
H849 C859 0.930 . S
C850 H844 0.930 . S
C850 C851 1.355 . S
C850 C852 1.415 . S
C851 C850 1.355 . S
C851 C853 1.419 . S
C852 C850 1.415 . S
C852 C857 1.425 . S
C852 C859 1.409 . S
C853 H845 0.930 . S
C853 C851 1.419 . S
C853 C854 1.362 . S
C854 H846 0.930 . S
C854 C853 1.362 . S
C854 C857 1.409 . S
C855 H847 0.930 . S
C855 C856 1.355 . S
C855 C857 1.415 . S
C856 C855 1.355 . S
C856 C858 1.419 . S
C857 C852 1.425 . S
C857 C854 1.409 . S
C857 C855 1.415 . S
C858 H848 0.930 . S
C858 C856 1.419 . S
C858 C859 1.362 . S
C859 H849 0.930 . S
C859 C852 1.409 . S
C859 C858 1.362 . S
H860 C866 0.930 . S
H861 C869 0.930 . S
H862 C870 0.930 . S
H863 C871 0.930 . S
H864 C874 0.930 . S
H865 C875 0.930 . S
C866 H860 0.930 . S
C866 C867 1.355 . S
C866 C868 1.415 . S
C867 C866 1.355 . S
C867 C869 1.419 . S
C868 C866 1.415 . S
C868 C873 1.425 1_455 S
C868 C875 1.409 1_455 S
C869 H861 0.930 . S
C869 C867 1.419 . S
C869 C870 1.362 . S
C870 H862 0.930 . S
C870 C869 1.362 . S
C870 C873 1.409 1_455 S
C871 H863 0.930 . S
C871 C872 1.355 . S
C871 C873 1.415 . S
C872 C871 1.355 . S
C872 C874 1.419 . S
C873 C868 1.425 1_655 S
C873 C870 1.409 1_655 S
C873 C871 1.415 . S
C874 H864 0.930 . S
C874 C872 1.419 . S
C874 C875 1.362 . S
C875 H865 0.930 . S
C875 C868 1.409 1_655 S
C875 C874 1.362 . S
C403 C271 1.256 . S
C408 C7 1.228 . S
C419 C304 1.244 . S
C424 C40 1.262 . S
C435 C337 1.256 . S
C440 C73 1.255 . S
C451 C370 1.227 . S
C456 C106 1.256 . S
C467 C139 1.234 . S
C472 C205 1.261 . S
C483 C238 1.258 . S
C488 C172 1.229 . S
C499 N13 1.367 . S
C504 N2 1.364 . S
C515 N35 1.373 . S
C520 N46 1.374 1_556 S
C531 N68 1.370 . S
C536 N79 1.370 . S
C547 N101 1.341 . S
C552 N112 1.343 . S
C563 N134 1.362 . S
C568 N145 1.364 . S
C579 N167 1.311 . S
C584 N178 1.313 . S
C595 N211 1.380 1_554 S
C600 N200 1.380 . S
C611 N233 1.341 . S
C616 N244 1.344 . S
C627 N277 1.328 . S
C632 N266 1.326 . S
C643 N310 1.360 . S
C648 N299 1.358 . S
C659 N343 1.366 . S
C664 N332 1.366 . S
C675 N365 1.320 . S
C680 N376 1.322 . S
C691 C21 1.597 . S
C696 C351 1.590 . S
C707 C54 1.589 . S
C712 C384 1.566 . S
C723 C87 1.580 . S
C728 C219 1.562 . S
C739 C252 1.598 . S
C744 C120 1.589 . S
C755 C285 1.584 1_556 S
C760 C153 1.563 . S
C771 C318 1.587 . S
C776 C186 1.598 1_554 S
C787 C18 1.375 . S
C792 C249 1.422 . S
C803 C282 1.374 . S
C808 C51 1.398 . S
C819 C315 1.382 . S
C824 C84 1.421 . S
C835 C117 1.420 . S
C840 C348 1.386 . S
C851 C381 1.369 . S
C856 C150 1.406 . S
C867 C183 1.381 . S
C872 C216 1.421 . S
