# Generated by pormake.
# Topology wiv, (6)-cn, num edge types: 1
# Building blocks:
#     Node 0, Type 0, BuildingBlock: MIFKUJ_clean_sbu_0, # of connection points: 6
#     Node 1, Type 0, BuildingBlock: MIFKUJ_clean_sbu_0, # of connection points: 6
#     Node 2, Type 0, BuildingBlock: MIFKUJ_clean_sbu_0, # of connection points: 6
#     Node 3, Type 0, BuildingBlock: MIFKUJ_clean_sbu_0, # of connection points: 6
#     Node 4, Type 0, BuildingBlock: MIFKUJ_clean_sbu_0, # of connection points: 6
#     Node 5, Type 0, BuildingBlock: MIFKUJ_clean_sbu_0, # of connection points: 6
#     Node 6, Type 0, BuildingBlock: MIFKUJ_clean_sbu_0, # of connection points: 6
#     Node 7, Type 0, BuildingBlock: MIFKUJ_clean_sbu_0, # of connection points: 6
#     Node 8, Type 0, BuildingBlock: MIFKUJ_clean_sbu_0, # of connection points: 6
#     Node 9, Type 0, BuildingBlock: MIFKUJ_clean_sbu_0, # of connection points: 6
#     Node 10, Type 0, BuildingBlock: MIFKUJ_clean_sbu_0, # of connection points: 6
#     Node 11, Type 0, BuildingBlock: MIFKUJ_clean_sbu_0, # of connection points: 6
#     Node 12, Type 0, BuildingBlock: MIFKUJ_clean_sbu_0, # of connection points: 6
#     Node 13, Type 0, BuildingBlock: MIFKUJ_clean_sbu_0, # of connection points: 6
#     Node 14, Type 0, BuildingBlock: MIFKUJ_clean_sbu_0, # of connection points: 6
#     Node 15, Type 0, BuildingBlock: MIFKUJ_clean_sbu_0, # of connection points: 6
#     Edge 16, Type (0, 0), BuildingBlock: XUDNAN_clean_linker_2, # of connection points: 2
#     Edge 17, Type (0, 0), BuildingBlock: XUDNAN_clean_linker_2, # of connection points: 2
#     Edge 18, Type (0, 0), BuildingBlock: XUDNAN_clean_linker_2, # of connection points: 2
#     Edge 19, Type (0, 0), BuildingBlock: XUDNAN_clean_linker_2, # of connection points: 2
#     Edge 20, Type (0, 0), BuildingBlock: XUDNAN_clean_linker_2, # of connection points: 2
#     Edge 21, Type (0, 0), BuildingBlock: XUDNAN_clean_linker_2, # of connection points: 2
#     Edge 22, Type (0, 0), BuildingBlock: XUDNAN_clean_linker_2, # of connection points: 2
#     Edge 23, Type (0, 0), BuildingBlock: XUDNAN_clean_linker_2, # of connection points: 2
#     Edge 24, Type (0, 0), BuildingBlock: XUDNAN_clean_linker_2, # of connection points: 2
#     Edge 25, Type (0, 0), BuildingBlock: XUDNAN_clean_linker_2, # of connection points: 2
#     Edge 26, Type (0, 0), BuildingBlock: XUDNAN_clean_linker_2, # of connection points: 2
#     Edge 27, Type (0, 0), BuildingBlock: XUDNAN_clean_linker_2, # of connection points: 2
#     Edge 28, Type (0, 0), BuildingBlock: XUDNAN_clean_linker_2, # of connection points: 2
#     Edge 29, Type (0, 0), BuildingBlock: XUDNAN_clean_linker_2, # of connection points: 2
#     Edge 30, Type (0, 0), BuildingBlock: XUDNAN_clean_linker_2, # of connection points: 2
#     Edge 31, Type (0, 0), BuildingBlock: XUDNAN_clean_linker_2, # of connection points: 2
#     Edge 32, Type (0, 0), BuildingBlock: XUDNAN_clean_linker_2, # of connection points: 2
#     Edge 33, Type (0, 0), BuildingBlock: XUDNAN_clean_linker_2, # of connection points: 2
#     Edge 34, Type (0, 0), BuildingBlock: XUDNAN_clean_linker_2, # of connection points: 2
#     Edge 35, Type (0, 0), BuildingBlock: XUDNAN_clean_linker_2, # of connection points: 2
#     Edge 36, Type (0, 0), BuildingBlock: XUDNAN_clean_linker_2, # of connection points: 2
#     Edge 37, Type (0, 0), BuildingBlock: XUDNAN_clean_linker_2, # of connection points: 2
#     Edge 38, Type (0, 0), BuildingBlock: XUDNAN_clean_linker_2, # of connection points: 2
#     Edge 39, Type (0, 0), BuildingBlock: XUDNAN_clean_linker_2, # of connection points: 2
#     Edge 40, Type (0, 0), BuildingBlock: XUDNAN_clean_linker_2, # of connection points: 2
#     Edge 41, Type (0, 0), BuildingBlock: XUDNAN_clean_linker_2, # of connection points: 2
#     Edge 42, Type (0, 0), BuildingBlock: XUDNAN_clean_linker_2, # of connection points: 2
#     Edge 43, Type (0, 0), BuildingBlock: XUDNAN_clean_linker_2, # of connection points: 2
#     Edge 44, Type (0, 0), BuildingBlock: XUDNAN_clean_linker_2, # of connection points: 2
#     Edge 45, Type (0, 0), BuildingBlock: XUDNAN_clean_linker_2, # of connection points: 2
#     Edge 46, Type (0, 0), BuildingBlock: XUDNAN_clean_linker_2, # of connection points: 2
#     Edge 47, Type (0, 0), BuildingBlock: XUDNAN_clean_linker_2, # of connection points: 2
#     Edge 48, Type (0, 0), BuildingBlock: XUDNAN_clean_linker_2, # of connection points: 2
#     Edge 49, Type (0, 0), BuildingBlock: XUDNAN_clean_linker_2, # of connection points: 2
#     Edge 50, Type (0, 0), BuildingBlock: XUDNAN_clean_linker_2, # of connection points: 2
#     Edge 51, Type (0, 0), BuildingBlock: XUDNAN_clean_linker_2, # of connection points: 2
#     Edge 52, Type (0, 0), BuildingBlock: XUDNAN_clean_linker_2, # of connection points: 2
#     Edge 53, Type (0, 0), BuildingBlock: XUDNAN_clean_linker_2, # of connection points: 2
#     Edge 54, Type (0, 0), BuildingBlock: XUDNAN_clean_linker_2, # of connection points: 2
#     Edge 55, Type (0, 0), BuildingBlock: XUDNAN_clean_linker_2, # of connection points: 2
#     Edge 56, Type (0, 0), BuildingBlock: XUDNAN_clean_linker_2, # of connection points: 2
#     Edge 57, Type (0, 0), BuildingBlock: XUDNAN_clean_linker_2, # of connection points: 2
#     Edge 58, Type (0, 0), BuildingBlock: XUDNAN_clean_linker_2, # of connection points: 2
#     Edge 59, Type (0, 0), BuildingBlock: XUDNAN_clean_linker_2, # of connection points: 2
#     Edge 60, Type (0, 0), BuildingBlock: XUDNAN_clean_linker_2, # of connection points: 2
#     Edge 61, Type (0, 0), BuildingBlock: XUDNAN_clean_linker_2, # of connection points: 2
#     Edge 62, Type (0, 0), BuildingBlock: XUDNAN_clean_linker_2, # of connection points: 2
#     Edge 63, Type (0, 0), BuildingBlock: XUDNAN_clean_linker_2, # of connection points: 2
# Relax obj value: 0.041
# Max RMSD: 0.118
# Mean RMSD: 0.118
data_MOF--net-wiv--node1-MIFKUJ_clean_sbu_0--edge1-XUDNAN_clean_linker_2
_symmetry_space_group_name_H-M    P1
_symmetry_Int_Tables_number       1
_symmetry_cell_setting            triclinic
loop_
_symmetry_equiv_pos_as_xyz
'x, y, z'
_cell_length_a     59.224295
_cell_length_b     59.119179
_cell_length_c     18.339293
_cell_angle_alpha  90.062524
_cell_angle_beta   90.071799
_cell_angle_gamma 90.019619
loop_
_atom_site_label
_atom_site_type_symbol
_atom_site_fract_x
_atom_site_fract_y
_atom_site_fract_z
_atom_type_partial_charge
Zn0 Zn 0.36576 0.13148 0.02575 0.0
Zn1 Zn 0.37531 0.14031 0.2088 0.0
C2 C 0.3274 0.10415 0.9877 0.0
O3 O 0.34301 0.08838 0.98973 0.0
C4 C 0.42382 0.14819 0.1931 0.0
O5 O 0.41798 0.16962 0.19285 0.0
O6 O 0.38037 0.12819 0.92896 0.0
O7 O 0.36855 0.16464 0.05189 0.0
O8 O 0.36806 0.17122 0.17075 0.0
C9 C 0.37266 0.1406 0.87833 0.0
O10 O 0.3568 0.15539 0.89365 0.0
O11 O 0.33276 0.12432 0.00477 0.0
C12 C 0.38272 0.12458 0.34917 0.0
O13 O 0.3916 0.10831 0.3097 0.0
O14 O 0.37325 0.14114 0.31727 0.0
O15 O 0.3558 0.11409 0.17769 0.0
O16 O 0.37932 0.10703 0.08919 0.0
O17 O 0.40849 0.1331 0.19284 0.0
C18 C 0.36807 0.17832 0.10543 0.0
C19 C 0.36804 0.10013 0.14345 0.0
Zn20 Zn 0.12116 0.6199 0.69837 0.0
Zn21 Zn 0.11684 0.65825 0.88743 0.0
C22 C 0.13148 0.57221 0.71643 0.0
O23 O 0.15239 0.57872 0.70502 0.0
C24 C 0.09827 0.6935 0.97104 0.0
O25 O 0.08174 0.67868 0.96885 0.0
O26 O 0.12389 0.62156 0.5881 0.0
O27 O 0.09365 0.63684 0.72355 0.0
O28 O 0.08857 0.65781 0.82252 0.0
C29 C 0.10911 0.61098 0.55087 0.0
O30 O 0.09315 0.59989 0.58545 0.0
O31 O 0.11599 0.58701 0.72076 0.0
C32 C 0.12637 0.641 0.027 0.0
O33 O 0.14245 0.65611 0.01879 0.0
O34 O 0.11307 0.63719 0.97374 0.0
O35 O 0.14833 0.65346 0.8435 0.0
O36 O 0.14927 0.63205 0.74326 0.0
O37 O 0.11636 0.68917 0.93632 0.0
C38 C 0.08146 0.64962 0.76245 0.0
C39 C 0.15913 0.64369 0.79216 0.0
Zn40 Zn 0.61662 0.87691 0.06202 0.0
Zn41 Zn 0.61915 0.86929 0.22964 0.0
C42 C 0.66103 0.89342 0.02578 0.0
O43 O 0.64942 0.91043 0.99891 0.0
C44 C 0.57719 0.84862 0.24742 0.0
O45 O 0.59132 0.83363 0.27419 0.0
O46 O 0.60784 0.88093 0.95639 0.0
O47 O 0.60809 0.84522 0.08977 0.0
O48 O 0.63261 0.84156 0.17957 0.0
C49 C 0.61774 0.86953 0.90692 0.0
O50 O 0.63291 0.85442 0.9259 0.0
O51 O 0.65067 0.87804 0.06074 0.0
C52 C 0.61189 0.88309 0.37199 0.0
O53 O 0.60012 0.89735 0.33227 0.0
O54 O 0.62346 0.86797 0.33951 0.0
O55 O 0.6293 0.90099 0.20143 0.0
O56 O 0.60311 0.90322 0.11735 0.0
O57 O 0.58517 0.86659 0.21944 0.0
C58 C 0.62157 0.83295 0.12664 0.0
C59 C 0.61488 0.91265 0.16663 0.0
Zn60 Zn 0.88878 0.39238 0.84061 0.0
Zn61 Zn 0.8904 0.36246 0.03102 0.0
C62 C 0.87633 0.43178 0.75912 0.0
O63 O 0.86495 0.41631 0.72313 0.0
C64 C 0.89539 0.31544 0.04178 0.0
O65 O 0.91603 0.32255 0.05473 0.0
O66 O 0.88709 0.37559 0.74665 0.0
O67 O 0.92001 0.38423 0.87845 0.0
O68 O 0.92064 0.36691 0.98549 0.0
C69 C 0.9018 0.37885 0.69756 0.0
O70 O 0.91848 0.39301 0.7101 0.0
O71 O 0.88786 0.42598 0.81469 0.0
C72 C 0.87918 0.35615 0.17672 0.0
O73 O 0.86138 0.34774 0.14357 0.0
O74 O 0.89487 0.36489 0.13882 0.0
O75 O 0.86531 0.38435 0.00996 0.0
O76 O 0.85935 0.38427 0.89108 0.0
O77 O 0.88068 0.32972 0.02069 0.0
C78 C 0.93077 0.37483 0.93022 0.0
C79 C 0.85194 0.38353 0.95598 0.0
Zn80 Zn 0.36003 0.38271 0.21318 0.0
Zn81 Zn 0.39582 0.38689 0.02172 0.0
C82 C 0.3114 0.38864 0.25217 0.0
O83 O 0.30958 0.40183 0.19491 0.0
C84 C 0.44301 0.37648 0.04569 0.0
O85 O 0.43577 0.35548 0.04324 0.0
O86 O 0.38124 0.38665 0.29902 0.0
O87 O 0.3652 0.35263 0.16317 0.0
O88 O 0.38488 0.35728 0.06146 0.0
C89 C 0.38515 0.36892 0.33627 0.0
O90 O 0.37825 0.34931 0.31091 0.0
O91 O 0.33022 0.37924 0.26608 0.0
C92 C 0.39476 0.39643 0.8618 0.0
O93 O 0.39307 0.41799 0.87835 0.0
O94 O 0.39542 0.3818 0.91257 0.0
O95 O 0.37732 0.41451 0.0459 0.0
O96 O 0.35838 0.41115 0.15045 0.0
O97 O 0.42874 0.39254 0.04331 0.0
C98 C 0.37479 0.34463 0.10684 0.0
C99 C 0.36397 0.42242 0.09398 0.0
Zn100 Zn 0.35791 0.62726 0.97686 0.0
Zn101 Zn 0.36321 0.62368 0.81257 0.0
C102 C 0.33922 0.58461 0.01033 0.0
O103 O 0.32446 0.59838 0.04016 0.0
C104 C 0.38074 0.66814 0.78836 0.0
O105 O 0.39819 0.65629 0.76619 0.0
O106 O 0.35588 0.63458 0.0835 0.0
O107 O 0.38924 0.63666 0.94449 0.0
O108 O 0.39114 0.6107 0.85864 0.0
C109 C 0.37108 0.62665 0.12531 0.0
O110 O 0.38816 0.61562 0.09656 0.0
O111 O 0.35569 0.59304 0.97508 0.0
C112 C 0.3778 0.6147 0.65911 0.0
O113 O 0.39878 0.61293 0.68174 0.0
O114 O 0.36207 0.61776 0.70502 0.0
O115 O 0.33323 0.61293 0.84765 0.0
O116 O 0.33027 0.64039 0.9272 0.0
O117 O 0.36398 0.65785 0.81621 0.0
C118 C 0.40078 0.62284 0.90669 0.0
C119 C 0.32128 0.62782 0.87905 0.0
Zn120 Zn 0.6498 0.6262 0.16427 0.0
Zn121 Zn 0.61155 0.62906 0.97655 0.0
C122 C 0.68496 0.6054 0.24086 0.0
O123 O 0.66911 0.58984 0.24148 0.0
C124 C 0.56338 0.63845 0.99298 0.0
O125 O 0.56902 0.6597 0.98264 0.0
O126 O 0.6303 0.62455 0.25513 0.0
O127 O 0.6462 0.65814 0.12197 0.0
O128 O 0.62376 0.6566 0.02526 0.0
C129 C 0.63174 0.64227 0.2944 0.0
O130 O 0.64358 0.65948 0.27016 0.0
O131 O 0.68117 0.62389 0.2076 0.0
C132 C 0.61002 0.62131 0.81843 0.0
O133 O 0.60616 0.6001 0.83573 0.0
O134 O 0.61313 0.63579 0.86881 0.0
O135 O 0.62765 0.60015 0.99551 0.0
O136 O 0.64696 0.59781 0.09938 0.0
O137 O 0.57874 0.62351 0.99684 0.0
C138 C 0.63519 0.66785 0.07124 0.0
C139 C 0.6397 0.58904 0.0402 0.0
Zn140 Zn 0.64513 0.37611 0.02993 0.0
Zn141 Zn 0.64627 0.37277 0.85232 0.0
C142 C 0.65674 0.42368 0.0374 0.0
O143 O 0.66846 0.41675 0.09398 0.0
C144 C 0.62812 0.32913 0.80235 0.0
O145 O 0.60882 0.34003 0.79979 0.0
O146 O 0.64457 0.37608 0.1397 0.0
O147 O 0.6165 0.36141 0.99676 0.0
O148 O 0.61675 0.38312 0.8997 0.0
C149 C 0.63034 0.38839 0.17315 0.0
O150 O 0.61564 0.40013 0.13511 0.0
O151 O 0.64579 0.40924 0.99972 0.0
C152 C 0.65634 0.37875 0.70065 0.0
O153 O 0.67022 0.3619 0.71375 0.0
O154 O 0.64518 0.38723 0.75315 0.0
O155 O 0.6772 0.38013 0.89709 0.0
O156 O 0.67376 0.36128 0.00023 0.0
O157 O 0.64548 0.33913 0.8279 0.0
C158 C 0.60593 0.37312 0.95013 0.0
C159 C 0.6861 0.37061 0.95241 0.0
Zn160 Zn 0.87184 0.62952 0.5257 0.0
Zn161 Zn 0.87257 0.63698 0.69888 0.0
C162 C 0.83186 0.60589 0.4899 0.0
O163 O 0.84696 0.58983 0.48177 0.0
C164 C 0.91748 0.65392 0.71264 0.0
O165 O 0.90765 0.66621 0.76315 0.0
O166 O 0.88354 0.62674 0.42346 0.0
O167 O 0.87843 0.66146 0.55636 0.0
O168 O 0.85748 0.6647 0.65526 0.0
C169 C 0.87394 0.63798 0.37317 0.0
O170 O 0.85753 0.65195 0.39033 0.0
O171 O 0.83818 0.62516 0.51308 0.0
C172 C 0.88325 0.62366 0.84054 0.0
O173 O 0.89495 0.60941 0.80058 0.0
O174 O 0.87092 0.63825 0.80866 0.0
O175 O 0.86229 0.60513 0.67389 0.0
O176 O 0.88518 0.60311 0.57995 0.0
O177 O 0.90573 0.63998 0.67573 0.0
C178 C 0.86706 0.67362 0.60018 0.0
C179 C 0.87454 0.59346 0.63127 0.0
Zn180 Zn 0.61773 0.12212 0.25028 0.0
Zn181 Zn 0.62257 0.14529 0.44281 0.0
C182 C 0.62156 0.07464 0.27722 0.0
O183 O 0.64296 0.07985 0.26883 0.0
C184 C 0.61214 0.18711 0.52455 0.0
O185 O 0.59395 0.1762 0.54554 0.0
O186 O 0.61848 0.12194 0.14154 0.0
O187 O 0.59696 0.14739 0.27871 0.0
O188 O 0.59176 0.13964 0.39468 0.0
C189 C 0.60426 0.11056 0.10484 0.0
O190 O 0.5882 0.09949 0.13893 0.0
O191 O 0.60698 0.0905 0.27762 0.0
C192 C 0.6343 0.13132 0.58627 0.0
O193 O 0.65002 0.14679 0.57769 0.0
O194 O 0.62109 0.12691 0.53365 0.0
O195 O 0.65283 0.13804 0.39418 0.0
O196 O 0.64958 0.12628 0.27986 0.0
O197 O 0.62541 0.17782 0.47884 0.0
C198 C 0.58383 0.14371 0.33162 0.0
C199 C 0.66164 0.13162 0.33434 0.0
Zn200 Zn 0.1264 0.36769 0.5652 0.0
Zn201 Zn 0.13064 0.36812 0.73735 0.0
C202 C 0.16817 0.38621 0.52218 0.0
O203 O 0.15391 0.39991 0.4896 0.0
C204 C 0.08944 0.35053 0.78881 0.0
O205 O 0.10412 0.3361 0.81572 0.0
O206 O 0.1199 0.36691 0.45647 0.0
O207 O 0.11864 0.33664 0.60439 0.0
O208 O 0.14332 0.33967 0.69344 0.0
C209 C 0.13158 0.35221 0.4225 0.0
O210 O 0.14393 0.33804 0.46069 0.0
O211 O 0.16043 0.37131 0.56555 0.0
C212 C 0.13114 0.37841 0.89253 0.0
O213 O 0.11435 0.39189 0.87519 0.0
O214 O 0.14142 0.36776 0.84215 0.0
O215 O 0.13892 0.39809 0.69332 0.0
O216 O 0.11223 0.39574 0.60995 0.0
O217 O 0.09653 0.3659 0.74609 0.0
C218 C 0.13221 0.32745 0.64917 0.0
C219 C 0.12424 0.40758 0.65313 0.0
Zn220 Zn 0.3781 0.89615 0.29431 0.0
Zn221 Zn 0.38105 0.86014 0.48569 0.0
C222 C 0.36732 0.94325 0.30665 0.0
O223 O 0.34706 0.93567 0.29058 0.0
C224 C 0.39151 0.81696 0.55597 0.0
O225 O 0.41264 0.82285 0.54526 0.0
O226 O 0.37697 0.89524 0.184 0.0
O227 O 0.40592 0.87771 0.32102 0.0
O228 O 0.40867 0.85756 0.42336 0.0
C229 C 0.39239 0.90528 0.14818 0.0
O230 O 0.40866 0.91555 0.18404 0.0
O231 O 0.38319 0.92912 0.31707 0.0
C232 C 0.37209 0.8789 0.62377 0.0
O233 O 0.3547 0.86533 0.61514 0.0
O234 O 0.38592 0.88122 0.57119 0.0
O235 O 0.35266 0.86681 0.43147 0.0
O236 O 0.3472 0.8856 0.32853 0.0
O237 O 0.37578 0.82973 0.53295 0.0
C238 C 0.4168 0.86454 0.36331 0.0
C239 C 0.3396 0.87443 0.38242 0.0
Zn240 Zn 0.84898 0.87836 0.70314 0.0
Zn241 Zn 0.88644 0.883 0.51424 0.0
C242 C 0.80736 0.89118 0.77571 0.0
O243 O 0.81577 0.91165 0.76973 0.0
C244 C 0.93391 0.87283 0.52107 0.0
O245 O 0.92672 0.85211 0.50937 0.0
O246 O 0.86926 0.88301 0.79056 0.0
O247 O 0.85594 0.84834 0.65393 0.0
O248 O 0.87626 0.85298 0.55329 0.0
C249 C 0.86602 0.87006 0.84498 0.0
O250 O 0.85171 0.85319 0.83831 0.0
O251 O 0.8181 0.87454 0.74871 0.0
C252 C 0.8938 0.89597 0.36625 0.0
O253 O 0.90484 0.91226 0.39962 0.0
O254 O 0.88376 0.88108 0.40441 0.0
O255 O 0.86888 0.91038 0.54379 0.0
O256 O 0.84794 0.90751 0.64405 0.0
O257 O 0.91958 0.88851 0.53112 0.0
C258 C 0.86619 0.84029 0.59874 0.0
C259 C 0.85508 0.91872 0.58943 0.0
Zn260 Zn 0.86314 0.12396 0.47048 0.0
Zn261 Zn 0.87047 0.12157 0.3005 0.0
C262 C 0.84273 0.08237 0.50581 0.0
O263 O 0.8278 0.09698 0.53016 0.0
C264 C 0.88589 0.16591 0.27121 0.0
O265 O 0.90307 0.15397 0.24726 0.0
O266 O 0.85929 0.13351 0.57526 0.0
O267 O 0.89517 0.13269 0.44186 0.0
O268 O 0.89829 0.109 0.34952 0.0
C269 C 0.87112 0.1241 0.62461 0.0
O270 O 0.88657 0.10929 0.60557 0.0
O271 O 0.86032 0.08981 0.47399 0.0
C272 C 0.85559 0.12682 0.15873 0.0
O273 O 0.84063 0.13767 0.19839 0.0
O274 O 0.87151 0.11638 0.19118 0.0
O275 O 0.84045 0.10946 0.33219 0.0
O276 O 0.83578 0.1357 0.41549 0.0
O277 O 0.87012 0.1558 0.30512 0.0
C278 C 0.9072 0.11976 0.40227 0.0
C279 C 0.82748 0.12257 0.3675 0.0
Zn280 Zn 0.14132 0.11557 0.67813 0.0
Zn281 Zn 0.11605 0.12588 0.4887 0.0
C282 C 0.17877 0.09359 0.74764 0.0
O283 O 0.16386 0.07714 0.74996 0.0
C284 C 0.06863 0.13148 0.5149 0.0
O285 O 0.07391 0.15276 0.50325 0.0
O286 O 0.12219 0.1138 0.76835 0.0
O287 O 0.13884 0.14726 0.63866 0.0
O288 O 0.12502 0.15609 0.53013 0.0
C289 C 0.12755 0.12725 0.81967 0.0
O290 O 0.14375 0.14204 0.80853 0.0
O291 O 0.17339 0.11203 0.71648 0.0
C292 C 0.10307 0.11447 0.34484 0.0
O293 O 0.09439 0.09739 0.38104 0.0
O294 O 0.11368 0.12975 0.37976 0.0
O295 O 0.13803 0.0999 0.49955 0.0
O296 O 0.1345 0.0884 0.61397 0.0
O297 O 0.08438 0.11688 0.51835 0.0
C298 C 0.13371 0.16189 0.59067 0.0
C299 C 0.13655 0.08412 0.54629 0.0
Zn300 Zn 0.13692 0.87218 0.46434 0.0
Zn301 Zn 0.13293 0.87353 0.29375 0.0
C302 C 0.12974 0.91927 0.48007 0.0
O303 O 0.11633 0.91109 0.53052 0.0
C304 C 0.10814 0.83481 0.25245 0.0
O305 O 0.0927 0.85067 0.24713 0.0
O306 O 0.14234 0.87082 0.57314 0.0
O307 O 0.10562 0.86265 0.44038 0.0
O308 O 0.10528 0.88647 0.34778 0.0
C309 C 0.12791 0.8693 0.62424 0.0
O310 O 0.10641 0.86698 0.60813 0.0
O311 O 0.14064 0.90556 0.43975 0.0
C312 C 0.15076 0.88247 0.1528 0.0
O313 O 0.16897 0.87492 0.18561 0.0
O314 O 0.1327 0.88491 0.18952 0.0
O315 O 0.16507 0.87836 0.33271 0.0
O316 O 0.16124 0.85352 0.42013 0.0
O317 O 0.12763 0.84003 0.27643 0.0
C318 C 0.09491 0.87587 0.39829 0.0
C319 C 0.17383 0.86406 0.37597 0.0
H320 H 0.3374 0.97861 0.30028 0.0
H321 H 0.40891 0.96279 0.29101 0.0
H322 H 0.41715 0.00225 0.2566 0.0
H323 H 0.33535 0.01335 0.14926 0.0
H324 H 0.31576 0.03366 0.18615 0.0
H325 H 0.3155 0.00496 0.21861 0.0
H326 H 0.32119 0.01899 0.3513 0.0
H327 H 0.32116 0.04782 0.31935 0.0
H328 H 0.34459 0.03739 0.37236 0.0
H329 H 0.41702 0.04145 0.20485 0.0
H330 H 0.4089 0.07925 0.15338 0.0
H331 H 0.33793 0.07072 0.20408 0.0
C332 C 0.35484 0.98359 0.2928 0.0
C333 C 0.37251 0.96761 0.29842 0.0
C334 C 0.3951 0.97475 0.28764 0.0
C335 C 0.39995 0.99713 0.26781 0.0
C336 C 0.38208 0.01227 0.26038 0.0
C337 C 0.36002 0.00596 0.27405 0.0
C338 C 0.34384 0.0253 0.25927 0.0
C339 C 0.32661 0.01893 0.19979 0.0
C340 C 0.332 0.03282 0.32978 0.0
C341 C 0.36017 0.04318 0.2326 0.0
C342 C 0.38215 0.0353 0.23353 0.0
C343 C 0.39996 0.04799 0.20538 0.0
C344 C 0.39518 0.06932 0.17578 0.0
C345 C 0.37285 0.07783 0.17556 0.0
C346 C 0.3552 0.06469 0.20503 0.0
H347 H 0.94905 0.66835 0.81118 0.0
H348 H 0.94149 0.64182 0.59178 0.0
H349 H 0.98295 0.64215 0.57689 0.0
H350 H 0.99911 0.70419 0.77738 0.0
H351 H 0.01172 0.69732 0.86407 0.0
H352 H 0.98142 0.69773 0.85456 0.0
H353 H 0.97934 0.65654 0.90225 0.0
H354 H 0.00956 0.65602 0.91199 0.0
H355 H 0.9956 0.63481 0.85751 0.0
H356 H 0.02465 0.64288 0.58833 0.0
H357 H 0.0643 0.64136 0.62721 0.0
H358 H 0.04535 0.66619 0.84169 0.0
C359 C 0.95613 0.66307 0.75947 0.0
C360 C 0.94213 0.65528 0.70223 0.0
C361 C 0.95196 0.64792 0.6361 0.0
C362 C 0.97545 0.64817 0.62706 0.0
C363 C 0.98881 0.65572 0.68482 0.0
C364 C 0.97956 0.66292 0.74992 0.0
C365 C 0.99778 0.66818 0.80566 0.0
C366 C 0.99749 0.69335 0.82663 0.0
C367 C 0.99543 0.65298 0.87332 0.0
C368 C 0.01872 0.66233 0.76217 0.0
C369 C 0.01309 0.65555 0.69226 0.0
C370 C 0.02929 0.6483 0.6427 0.0
C371 C 0.0518 0.64745 0.66556 0.0
C372 C 0.05798 0.65361 0.7377 0.0
C373 C 0.04122 0.66161 0.78606 0.0
H374 H 0.64458 0.94269 0.22906 0.0
H375 H 0.57606 0.93683 0.14735 0.0
H376 H 0.56904 0.97685 0.17915 0.0
H377 H 0.63306 0.98192 0.37895 0.0
H378 H 0.65864 0.99782 0.36459 0.0
H379 H 0.65767 0.96817 0.34182 0.0
H380 H 0.67025 0.97728 0.20974 0.0
H381 H 0.67142 0.00689 0.23229 0.0
H382 H 0.65432 0.99742 0.15683 0.0
H383 H 0.56979 0.01795 0.2169 0.0
H384 H 0.57956 0.05771 0.24469 0.0
H385 H 0.64811 0.0372 0.29592 0.0
C386 C 0.62802 0.94978 0.21871 0.0
C387 C 0.61081 0.93663 0.18618 0.0
C388 C 0.5895 0.94662 0.17214 0.0
C389 C 0.5853 0.96929 0.19049 0.0
C390 C 0.60264 0.98185 0.22226 0.0
C391 C 0.62367 0.97252 0.23549 0.0
C392 C 0.63995 0.99014 0.26452 0.0
C393 C 0.64779 0.98415 0.34209 0.0
C394 C 0.66017 0.99311 0.21275 0.0
C395 C 0.62491 0.01088 0.26468 0.0
C396 C 0.60333 0.00568 0.24143 0.0
C397 C 0.58662 0.02221 0.23545 0.0
C398 C 0.59229 0.04475 0.25172 0.0
C399 C 0.61458 0.05059 0.2726 0.0
C400 C 0.63089 0.03328 0.28042 0.0
H401 H 0.95988 0.38947 0.8217 0.0
H402 H 0.95751 0.35008 0.02161 0.0
H403 H 0.99724 0.33944 0.00486 0.0
H404 H 0.99512 0.35203 0.72095 0.0
H405 H 0.01123 0.37396 0.67685 0.0
H406 H 0.98256 0.37933 0.70462 0.0
H407 H 0.9958 0.41385 0.78058 0.0
H408 H 0.02449 0.40872 0.75243 0.0
H409 H 0.01766 0.41023 0.84807 0.0
H410 H 0.0361 0.33087 0.96393 0.0
H411 H 0.07368 0.32818 0.90784 0.0
H412 H 0.0525 0.3743 0.73663 0.0
C413 C 0.96778 0.37883 0.8624 0.0
C414 C 0.95541 0.37061 0.92296 0.0
C415 C 0.96648 0.35667 0.9748 0.0
C416 C 0.98909 0.35042 0.96569 0.0
C417 C 1.0006 0.35839 0.90486 0.0
C418 C 0.99053 0.37257 0.85461 0.0
C419 C 0.00701 0.37881 0.79444 0.0
C420 C 0.99847 0.37053 0.7198 0.0
C421 C 0.01151 0.40442 0.79388 0.0
C422 C 0.02778 0.36572 0.8186 0.0
C423 C 0.02353 0.35394 0.88213 0.0
C424 C 0.03972 0.34015 0.91447 0.0
C425 C 0.06101 0.33864 0.88183 0.0
C426 C 0.0661 0.35102 0.81778 0.0
C427 C 0.04915 0.36466 0.78562 0.0
H428 H 0.38052 0.45589 0.00479 0.0
H429 H 0.32838 0.4422 0.16508 0.0
H430 H 0.31483 0.48147 0.15377 0.0
H431 H 0.3938 0.51072 0.07001 0.0
H432 H 0.39909 0.52259 0.98116 0.0
H433 H 0.40346 0.49285 0.99668 0.0
H434 H 0.37625 0.48333 0.89024 0.0
H435 H 0.37179 0.51308 0.87436 0.0
H436 H 0.34802 0.49473 0.89064 0.0
H437 H 0.30766 0.52235 0.12838 0.0
H438 H 0.30869 0.56279 0.09656 0.0
H439 H 0.36653 0.55068 0.95645 0.0
C440 C 0.36603 0.46103 0.03675 0.0
C441 C 0.35534 0.44581 0.08525 0.0
C442 C 0.33675 0.45342 0.1272 0.0
C443 C 0.3289 0.47571 0.12103 0.0
C444 C 0.33991 0.49028 0.07312 0.0
C445 C 0.35816 0.48332 0.03203 0.0
C446 C 0.36789 0.50278 0.98829 0.0
C447 C 0.39252 0.50751 0.01039 0.0
C448 C 0.36586 0.4982 0.906 0.0
C449 C 0.35238 0.52182 0.01185 0.0
C450 C 0.33619 0.51413 0.06008 0.0
C451 C 0.3202 0.52857 0.09049 0.0
C452 C 0.32094 0.55154 0.07196 0.0
C453 C 0.33769 0.55996 0.02398 0.0
C454 C 0.35347 0.54478 0.99305 0.0
H455 H 0.5253 0.6649 0.00459 0.0
H456 H 0.54751 0.59582 0.96794 0.0
H457 H 0.50821 0.58425 0.94483 0.0
H458 H 0.47212 0.64944 0.09706 0.0
H459 H 0.45676 0.67265 0.0571 0.0
H460 H 0.48659 0.67534 0.07453 0.0
H461 H 0.49311 0.68563 0.93884 0.0
H462 H 0.46336 0.68274 0.92083 0.0
H463 H 0.48345 0.66656 0.86864 0.0
H464 H 0.46738 0.58091 0.9126 0.0
H465 H 0.42653 0.58511 0.88821 0.0
H466 H 0.43008 0.65555 0.95387 0.0
C467 C 0.52183 0.64729 0.99278 0.0
C468 C 0.53949 0.63129 0.98798 0.0
C469 C 0.53428 0.60838 0.97234 0.0
C470 C 0.512 0.60163 0.95882 0.0
C471 C 0.49506 0.61789 0.96235 0.0
C472 C 0.49959 0.64015 0.98033 0.0
C473 C 0.47819 0.65421 0.98012 0.0
C474 C 0.47312 0.66345 0.05677 0.0
C475 C 0.47963 0.67342 0.92374 0.0
C476 C 0.46108 0.63648 0.95751 0.0
C477 C 0.47121 0.61569 0.94704 0.0
C478 C 0.45916 0.597 0.92179 0.0
C479 C 0.43604 0.59957 0.90764 0.0
C480 C 0.42522 0.62057 0.91979 0.0
C481 C 0.43792 0.63922 0.94522 0.0
H482 H 0.65787 0.55596 0.12995 0.0
H483 H 0.63089 0.56695 0.91243 0.0
H484 H 0.63428 0.52635 0.88631 0.0
H485 H 0.69815 0.5111 0.0779 0.0
H486 H 0.69351 0.49525 0.16046 0.0
H487 H 0.69056 0.5256 0.16086 0.0
H488 H 0.64998 0.52158 0.21162 0.0
H489 H 0.65274 0.49125 0.21105 0.0
H490 H 0.62971 0.5045 0.16297 0.0
H491 H 0.63726 0.48427 0.88643 0.0
H492 H 0.64155 0.44344 0.91164 0.0
H493 H 0.66764 0.45928 0.12708 0.0
C494 C 0.65305 0.5499 0.07642 0.0
C495 C 0.64406 0.5648 0.02343 0.0
C496 C 0.63774 0.55602 0.95426 0.0
C497 C 0.63964 0.53291 0.93866 0.0
C498 C 0.64806 0.51865 0.99245 0.0
C499 C 0.65488 0.52677 0.05972 0.0
C500 C 0.66255 0.50756 0.10863 0.0
C501 C 0.68769 0.51003 0.12809 0.0
C502 C 0.64786 0.50615 0.17763 0.0
C503 C 0.65856 0.48744 0.05873 0.0
C504 C 0.65021 0.49425 0.99194 0.0
C505 C 0.64408 0.47871 0.93816 0.0
C506 C 0.64651 0.45556 0.95302 0.0
C507 C 0.65512 0.44816 0.02097 0.0
C508 C 0.66135 0.4644 0.07414 0.0
H509 H 0.47874 0.34781 0.0704 0.0
H510 H 0.46236 0.41603 0.00068 0.0
H511 H 0.5024 0.42272 0.97088 0.0
H512 H 0.53396 0.36256 0.15221 0.0
H513 H 0.54674 0.33633 0.12378 0.0
H514 H 0.51697 0.33739 0.14362 0.0
H515 H 0.50829 0.32128 0.01513 0.0
H516 H 0.53799 0.32046 0.99454 0.0
H517 H 0.51894 0.33574 0.93578 0.0
H518 H 0.54319 0.42057 0.93562 0.0
H519 H 0.58328 0.41152 0.91264 0.0
H520 H 0.574 0.34571 0.01275 0.0
C521 C 0.48365 0.36428 0.05004 0.0
C522 C 0.46741 0.38139 0.03782 0.0
C523 C 0.4745 0.40271 0.01099 0.0
C524 C 0.4972 0.40664 0.99352 0.0
C525 C 0.51268 0.38924 0.0044 0.0
C526 C 0.50634 0.36864 0.03349 0.0
C527 C 0.52637 0.35278 0.0394 0.0
C528 C 0.5313 0.34693 0.11952 0.0
C529 C 0.52266 0.3313 0.99346 0.0
C530 C 0.54483 0.36749 0.00741 0.0
C531 C 0.53651 0.38839 0.98707 0.0
C532 C 0.55 0.40441 0.95238 0.0
C533 C 0.57268 0.39905 0.93906 0.0
C534 C 0.58172 0.37798 0.96127 0.0
C535 C 0.56757 0.36204 0.99598 0.0
H536 H 0.87297 0.47255 0.83194 0.0
H537 H 0.88241 0.44281 0.61787 0.0
H538 H 0.88395 0.48093 0.56328 0.0
H539 H 0.83555 0.51661 0.77021 0.0
H540 H 0.84601 0.53769 0.83281 0.0
H541 H 0.84732 0.50817 0.85672 0.0
H542 H 0.89042 0.51165 0.87809 0.0
H543 H 0.88923 0.54119 0.85434 0.0
H544 H 0.90812 0.52252 0.8063 0.0
H545 H 0.88546 0.52172 0.53201 0.0
H546 H 0.8834 0.56323 0.52328 0.0
H547 H 0.86911 0.56739 0.75505 0.0
C548 C 0.8756 0.4742 0.77377 0.0
C549 C 0.87781 0.45485 0.72895 0.0
C550 C 0.88073 0.45749 0.6529 0.0
C551 C 0.88169 0.47904 0.6215 0.0
C552 C 0.87927 0.4978 0.66675 0.0
C553 C 0.876 0.49569 0.74108 0.0
C554 C 0.87248 0.51873 0.77613 0.0
C555 C 0.84894 0.52039 0.81102 0.0
C556 C 0.89118 0.52382 0.83202 0.0
C557 C 0.87439 0.53402 0.7099 0.0
C558 C 0.87865 0.52153 0.64771 0.0
C559 C 0.88191 0.53171 0.58015 0.0
C560 C 0.88071 0.55531 0.57578 0.0
C561 C 0.87579 0.56854 0.63823 0.0
C562 C 0.87255 0.55769 0.70619 0.0
H563 H 0.5558 0.17064 0.25103 0.0
H564 H 0.55746 0.10889 0.37808 0.0
H565 H 0.51736 0.10168 0.34717 0.0
H566 H 0.50015 0.18711 0.30969 0.0
H567 H 0.49254 0.19949 0.22332 0.0
H568 H 0.52167 0.1988 0.25136 0.0
H569 H 0.53208 0.17803 0.13153 0.0
H570 H 0.50291 0.17841 0.10351 0.0
H571 H 0.51796 0.15196 0.10852 0.0
H572 H 0.47744 0.10077 0.29946 0.0
H573 H 0.43891 0.10905 0.25559 0.0
H574 H 0.46218 0.17324 0.16888 0.0
C575 C 0.54765 0.15561 0.27212 0.0
C576 C 0.5596 0.14023 0.31663 0.0
C577 C 0.54845 0.12089 0.34423 0.0
C578 C 0.52579 0.11658 0.32644 0.0
C579 C 0.51445 0.13202 0.28211 0.0
C580 C 0.52485 0.15139 0.25658 0.0
C581 C 0.50838 0.1661 0.21468 0.0
C582 C 0.50551 0.18924 0.25201 0.0
C583 C 0.51578 0.16877 0.13482 0.0
C584 C 0.48709 0.15198 0.22053 0.0
C585 C 0.49109 0.13216 0.25832 0.0
C586 C 0.47408 0.11629 0.27015 0.0
C587 C 0.45226 0.12109 0.24458 0.0
C588 C 0.44752 0.14182 0.20891 0.0
C589 C 0.46529 0.15726 0.19595 0.0
H590 H 0.15947 0.53553 0.73266 0.0
H591 H 0.08986 0.55416 0.68908 0.0
H592 H 0.08034 0.51403 0.66863 0.0
H593 H 0.164 0.49229 0.60063 0.0
H594 H 0.18081 0.47365 0.65632 0.0
H595 H 0.18212 0.50376 0.67057 0.0
H596 H 0.17138 0.49838 0.80643 0.0
H597 H 0.17028 0.46822 0.79278 0.0
H598 H 0.14615 0.4829 0.82938 0.0
H599 H 0.07913 0.47228 0.64208 0.0
H600 H 0.08542 0.43118 0.62603 0.0
H601 H 0.1551 0.43949 0.69421 0.0
C602 C 0.14217 0.53112 0.71971 0.0
C603 C 0.12542 0.54797 0.71243 0.0
C604 C 0.10296 0.54154 0.69546 0.0
C605 C 0.09739 0.51879 0.68334 0.0
C606 C 0.11439 0.50264 0.6895 0.0
C607 C 0.13623 0.50845 0.70861 0.0
C608 C 0.15129 0.48777 0.71201 0.0
C609 C 0.17069 0.48948 0.65657 0.0
C610 C 0.1603 0.4841 0.78978 0.0
C611 C 0.1346 0.46953 0.69063 0.0
C612 C 0.11345 0.47846 0.67723 0.0
C613 C 0.09554 0.46503 0.65336 0.0
C614 C 0.09929 0.44176 0.64395 0.0
C615 C 0.12067 0.43221 0.65939 0.0
C616 C 0.1385 0.44633 0.6829 0.0
H617 H 0.54271 0.87839 0.21466 0.0
H618 H 0.5561 0.81188 0.30535 0.0
H619 H 0.51592 0.8078 0.33627 0.0
H620 H 0.50413 0.89578 0.34701 0.0
H621 H 0.48545 0.91056 0.28576 0.0
H622 H 0.51488 0.90759 0.26335 0.0
H623 H 0.50419 0.8889 0.14025 0.0
H624 H 0.47468 0.89193 0.16208 0.0
H625 H 0.48594 0.86449 0.13953 0.0
H626 H 0.47579 0.81251 0.37084 0.0
H627 H 0.437 0.82478 0.39943 0.0
H628 H 0.44839 0.88747 0.28209 0.0
C629 C 0.53709 0.86278 0.23957 0.0
C630 C 0.5526 0.84546 0.25756 0.0
C631 C 0.5446 0.8254 0.29098 0.0
C632 C 0.52177 0.82288 0.30873 0.0
C633 C 0.50703 0.84045 0.29201 0.0
C634 C 0.51423 0.85991 0.25734 0.0
C635 C 0.49496 0.87662 0.24881 0.0
C636 C 0.50018 0.89895 0.28862 0.0
C637 C 0.48963 0.88072 0.16784 0.0
C638 C 0.47605 0.86374 0.28595 0.0
C639 C 0.48344 0.8429 0.31032 0.0
C640 C 0.46965 0.82859 0.35091 0.0
C641 C 0.4477 0.83576 0.36721 0.0
C642 C 0.43966 0.85696 0.34244 0.0
C643 C 0.45397 0.87099 0.30052 0.0
H644 H 0.87617 0.95149 0.50878 0.0
H645 H 0.81862 0.94021 0.65061 0.0
H646 H 0.80817 0.98052 0.63916 0.0
H647 H 0.89109 0.00502 0.5812 0.0
H648 H 0.89962 0.01682 0.49492 0.0
H649 H 0.90163 0.98681 0.51006 0.0
H650 H 0.877 0.97941 0.39563 0.0
H651 H 0.87492 0.00943 0.38004 0.0
H652 H 0.84966 0.99262 0.38834 0.0
H653 H 0.80463 0.02217 0.61488 0.0
H654 H 0.80897 0.06249 0.58417 0.0
H655 H 0.86956 0.0469 0.4608 0.0
C656 C 0.86118 0.9574 0.53674 0.0
C657 C 0.84813 0.94264 0.58044 0.0
C658 C 0.82889 0.95118 0.61704 0.0
C659 C 0.82278 0.97403 0.61059 0.0
C660 C 0.83614 0.98813 0.56761 0.0
C661 C 0.85499 0.98017 0.53151 0.0
C662 C 0.86715 0.99906 0.49181 0.0
C663 C 0.89129 0.0021 0.52129 0.0
C664 C 0.86717 0.99488 0.40904 0.0
C665 C 0.85229 0.01898 0.51173 0.0
C666 C 0.83439 0.01224 0.55487 0.0
C667 C 0.81855 0.02762 0.58098 0.0
C668 C 0.82118 0.05052 0.56314 0.0
C669 C 0.83962 0.05791 0.52007 0.0
C670 C 0.85526 0.04181 0.49368 0.0
H671 H 0.03053 0.15745 0.53042 0.0
H672 H 0.05287 0.08917 0.4818 0.0
H673 H 0.0137 0.0784 0.45135 0.0
H674 H 0.97563 0.14065 0.6116 0.0
H675 H 0.9613 0.16494 0.57443 0.0
H676 H 0.99083 0.16672 0.59765 0.0
H677 H 0.99976 0.17988 0.46608 0.0
H678 H 0.97034 0.17784 0.44215 0.0
H679 H 0.99113 0.16252 0.39008 0.0
H680 H 0.97308 0.07647 0.41097 0.0
H681 H 0.93282 0.08205 0.37973 0.0
H682 H 0.93623 0.15071 0.46263 0.0
C683 C 0.0271 0.1401 0.51487 0.0
C684 C 0.04477 0.12415 0.50858 0.0
C685 C 0.03961 0.10165 0.48768 0.0
C686 C 0.01741 0.09539 0.46985 0.0
C687 C 1.00049 0.11171 0.47452 0.0
C688 C 0.00497 0.13347 0.49811 0.0
C689 C 0.98377 0.14786 0.49731 0.0
C690 C 0.97751 0.15549 0.57487 0.0
C691 C 0.98642 0.16822 0.44583 0.0
C692 C 0.96682 0.13097 0.46773 0.0
C693 C 0.97684 0.11026 0.45445 0.0
C694 C 0.96495 0.09247 0.42243 0.0
C695 C 0.94216 0.09584 0.40439 0.0
C696 C 0.93142 0.11673 0.41933 0.0
C697 C 0.94395 0.13445 0.45164 0.0
H698 H 0.11912 0.95103 0.58199 0.0
H699 H 0.14767 0.94344 0.36559 0.0
H700 H 0.15264 0.98504 0.358 0.0
H701 H 0.08888 0.00251 0.55043 0.0
H702 H 0.09494 0.01387 0.63958 0.0
H703 H 0.09333 0.98373 0.62648 0.0
H704 H 0.13357 0.97929 0.68042 0.0
H705 H 0.13533 0.00943 0.69355 0.0
H706 H 0.15663 0.99499 0.64109 0.0
H707 H 0.15325 0.02796 0.37403 0.0
H708 H 0.1515 0.06788 0.41432 0.0
H709 H 0.12438 0.04631 0.62275 0.0
C710 C 0.12631 0.95808 0.53272 0.0
C711 C 0.13285 0.94404 0.47406 0.0
C712 C 0.14251 0.95392 0.41108 0.0
C713 C 0.14536 0.9775 0.40632 0.0
C714 C 0.13871 0.99086 0.46535 0.0
C715 C 0.12956 0.98142 0.52755 0.0
C716 C 0.12428 0.99925 0.58428 0.0
C717 C 0.09885 0.99987 0.60115 0.0
C718 C 0.13829 0.99551 0.65394 0.0
C719 C 0.13175 0.0203 0.54429 0.0
C720 C 0.13987 0.0152 0.47557 0.0
C721 C 0.1471 0.03209 0.42796 0.0
C722 C 0.14602 0.05472 0.45132 0.0
C723 C 0.13801 0.06023 0.52199 0.0
C724 C 0.13087 0.04268 0.5688 0.0
H725 H 0.06418 0.84614 0.45328 0.0
H726 H 0.07132 0.91498 0.37509 0.0
H727 H 0.03128 0.92245 0.40584 0.0
H728 H 0.00839 0.83762 0.38083 0.0
H729 H 0.9993 0.82032 0.45618 0.0
H730 H 0.02865 0.82096 0.4308 0.0
H731 H 0.0393 0.8326 0.56276 0.0
H732 H 0.00994 0.83225 0.58836 0.0
H733 H 0.02658 0.85741 0.60256 0.0
H734 H 0.99081 0.92254 0.44893 0.0
H735 H 0.95157 0.91404 0.48504 0.0
H736 H 0.97038 0.84433 0.52748 0.0
C737 C 0.05729 0.8628 0.44275 0.0
C738 C 0.07077 0.88006 0.41224 0.0
C739 C 0.06117 0.90153 0.39817 0.0
C740 C 0.03855 0.90595 0.41597 0.0
C741 C 0.02575 0.8886 0.44674 0.0
C742 C 0.03468 0.86734 0.45879 0.0
C743 C 0.01705 0.85127 0.48861 0.0
C744 C 0.01312 0.83137 0.43595 0.0
C745 C 0.02362 0.8429 0.56512 0.0
C746 C 0.99677 0.8668 0.49155 0.0
C747 C 0.00223 0.88837 0.46835 0.0
C748 C 0.98632 0.9057 0.46691 0.0
C749 C 0.96411 0.90073 0.48799 0.0
C750 C 0.95794 0.87852 0.50906 0.0
C751 C 0.9746 0.86146 0.51161 0.0
H752 H 0.36205 0.21325 0.20331 0.0
H753 H 0.37501 0.19929 0.9745 0.0
H754 H 0.37753 0.24018 0.95032 0.0
H755 H 0.3274 0.26327 0.17302 0.0
H756 H 0.33831 0.27795 0.25173 0.0
H757 H 0.33706 0.2475 0.25116 0.0
H758 H 0.37988 0.24569 0.27968 0.0
H759 H 0.38129 0.27612 0.28005 0.0
H760 H 0.39952 0.26009 0.22073 0.0
H761 H 0.38076 0.28228 0.95167 0.0
H762 H 0.38215 0.32321 0.97702 0.0
H763 H 0.36562 0.31029 0.20388 0.0
C764 C 0.36528 0.21878 0.14803 0.0
C765 C 0.36835 0.20298 0.09085 0.0
C766 C 0.37252 0.21099 0.01925 0.0
C767 C 0.37403 0.23421 0.00492 0.0
C768 C 0.37114 0.24927 0.06254 0.0
C769 C 0.36664 0.24194 0.13254 0.0
C770 C 0.36424 0.26176 0.18455 0.0
C771 C 0.34033 0.26267 0.21701 0.0
C772 C 0.38231 0.26085 0.2448 0.0
C773 C 0.36835 0.28133 0.13292 0.0
C774 C 0.3724 0.27371 0.0629 0.0
C775 C 0.37742 0.28849 0.00613 0.0
C776 C 0.37824 0.31171 0.02118 0.0
C777 C 0.37387 0.31999 0.09235 0.0
C778 C 0.3688 0.30452 0.14878 0.0
H779 H 0.28455 0.64398 0.95555 0.0
H780 H 0.30597 0.6208 0.74187 0.0
H781 H 0.26748 0.62643 0.69471 0.0
H782 H 0.23183 0.61581 0.95245 0.0
H783 H 0.21642 0.63772 0.99931 0.0
H784 H 0.24623 0.63438 0.01519 0.0
H785 H 0.25278 0.67625 0.97937 0.0
H786 H 0.22295 0.67968 0.96311 0.0
H787 H 0.24292 0.6863 0.89218 0.0
H788 H 0.22712 0.63209 0.67158 0.0
H789 H 0.1858 0.63522 0.67487 0.0
H790 H 0.18892 0.65384 0.90395 0.0
C791 C 0.28111 0.64046 0.89864 0.0
C792 C 0.29819 0.63204 0.8522 0.0
C793 C 0.29309 0.62717 0.7784 0.0
C794 C 0.27133 0.63048 0.75094 0.0
C795 C 0.25479 0.63854 0.79804 0.0
C796 C 0.25926 0.64335 0.87041 0.0
C797 C 0.23779 0.65 0.91026 0.0
C798 C 0.23277 0.63349 0.973 0.0
C799 C 0.2392 0.67452 0.93785 0.0
C800 C 0.2206 0.64772 0.84919 0.0
C801 C 0.23095 0.64141 0.78483 0.0
C802 C 0.21878 0.63719 0.72142 0.0
C803 C 0.19528 0.63896 0.72399 0.0
C804 C 0.18408 0.64479 0.78965 0.0
C805 C 0.197 0.64967 0.85274 0.0
H806 H 0.63785 0.79708 0.2092 0.0
H807 H 0.61165 0.81445 0.99512 0.0
H808 H 0.61503 0.77478 0.95686 0.0
H809 H 0.67781 0.75342 0.14765 0.0
H810 H 0.67238 0.73499 0.22387 0.0
H811 H 0.6695 0.76517 0.23432 0.0
H812 H 0.62842 0.75984 0.27937 0.0
H813 H 0.63119 0.72966 0.26917 0.0
H814 H 0.60862 0.74443 0.22348 0.0
H815 H 0.61929 0.7337 0.94199 0.0
H816 H 0.62314 0.69248 0.95229 0.0
H817 H 0.64633 0.70001 0.17592 0.0
C818 C 0.6331 0.79252 0.15407 0.0
C819 C 0.62453 0.80894 0.10511 0.0
C820 C 0.61818 0.80224 0.03375 0.0
C821 C 0.62014 0.77972 0.01127 0.0
C822 C 0.6284 0.76394 0.06071 0.0
C823 C 0.63474 0.76989 0.1307 0.0
C824 C 0.64195 0.7491 0.17366 0.0
C825 C 0.6669 0.75078 0.19619 0.0
C826 C 0.62663 0.74555 0.24036 0.0
C827 C 0.63839 0.73064 0.11696 0.0
C828 C 0.63073 0.73976 0.05216 0.0
C829 C 0.62541 0.72633 0.99226 0.0
C830 C 0.62762 0.70287 0.9988 0.0
C831 C 0.63509 0.6929 0.06485 0.0
C832 C 0.64085 0.70709 0.12444 0.0
H833 H 0.81722 0.38626 0.85542 0.0
H834 H 0.83065 0.37818 0.08694 0.0
H835 H 0.78994 0.37411 0.10986 0.0
H836 H 0.76567 0.41917 0.87732 0.0
H837 H 0.75176 0.40623 0.80038 0.0
H838 H 0.78208 0.40878 0.80163 0.0
H839 H 0.78575 0.36557 0.78132 0.0
H840 H 0.75546 0.36287 0.78038 0.0
H841 H 0.77201 0.3464 0.84349 0.0
H842 H 0.74835 0.36907 0.10792 0.0
H843 H 0.70767 0.3659 0.08256 0.0
H844 H 0.7202 0.37881 0.85301 0.0
C845 C 0.8116 0.38377 0.911 0.0
C846 C 0.82725 0.38245 0.96935 0.0
C847 C 0.81911 0.37921 0.04125 0.0
C848 C 0.79598 0.37686 0.0549 0.0
C849 C 0.78109 0.37799 0.99624 0.0
C850 C 0.78847 0.38161 0.92581 0.0
C851 C 0.76875 0.38223 0.87285 0.0
C852 C 0.76696 0.40549 0.83588 0.0
C853 C 0.77061 0.36313 0.81617 0.0
C854 C 0.74919 0.37822 0.92461 0.0
C855 C 0.75679 0.37569 0.99541 0.0
C856 C 0.74215 0.37116 0.05281 0.0
C857 C 0.71906 0.36928 0.03769 0.0
C858 C 0.71072 0.37211 0.96578 0.0
C859 C 0.72605 0.37671 0.90856 0.0
H860 H 0.85381 0.70808 0.69417 0.0
H861 H 0.87827 0.69516 0.47471 0.0
H862 H 0.87937 0.73596 0.4508 0.0
H863 H 0.81854 0.75713 0.64664 0.0
H864 H 0.82531 0.77233 0.72907 0.0
H865 H 0.8252 0.74184 0.72891 0.0
H866 H 0.86634 0.74169 0.777 0.0
H867 H 0.8666 0.77215 0.77702 0.0
H868 H 0.88786 0.75673 0.72728 0.0
H869 H 0.88006 0.77757 0.4511 0.0
H870 H 0.8791 0.81848 0.47455 0.0
H871 H 0.85374 0.80588 0.69311 0.0
C872 C 0.8591 0.71386 0.64086 0.0
C873 C 0.86599 0.69833 0.58642 0.0
C874 C 0.87302 0.70663 0.51755 0.0
C875 C 0.87367 0.72982 0.50322 0.0
C876 C 0.86717 0.74467 0.55811 0.0
C877 C 0.8599 0.73715 0.62545 0.0
C878 C 0.85451 0.75702 0.67512 0.0
C879 C 0.82939 0.75708 0.69616 0.0
C880 C 0.86974 0.75688 0.74312 0.0
C881 C 0.86016 0.77674 0.62522 0.0
C882 C 0.8674 0.76909 0.55804 0.0
C883 C 0.87426 0.78383 0.50328 0.0
C884 C 0.87371 0.80708 0.51732 0.0
C885 C 0.86628 0.8155 0.58561 0.0
C886 C 0.85933 0.80003 0.64015 0.0
H887 H 0.79246 0.13987 0.45022 0.0
H888 H 0.8072 0.10522 0.24672 0.0
H889 H 0.76675 0.10478 0.21657 0.0
H890 H 0.74135 0.10894 0.4888 0.0
H891 H 0.72666 0.13285 0.52712 0.0
H892 H 0.75699 0.13134 0.53256 0.0
H893 H 0.7601 0.17036 0.46926 0.0
H894 H 0.72977 0.17199 0.4636 0.0
H895 H 0.74659 0.17466 0.38222 0.0
H896 H 0.72543 0.10789 0.20713 0.0
H897 H 0.68458 0.113 0.22051 0.0
H898 H 0.69513 0.14466 0.43201 0.0
C899 C 0.78714 0.13233 0.39916 0.0
C900 C 0.80304 0.12269 0.35063 0.0
C901 C 0.79539 0.11272 0.28479 0.0
C902 C 0.77244 0.11241 0.26702 0.0
C903 C 0.75723 0.12197 0.31589 0.0
C904 C 0.76413 0.13163 0.38081 0.0
C905 C 0.74397 0.14005 0.42428 0.0
C906 C 0.74214 0.12754 0.49753 0.0
C907 C 0.74519 0.16579 0.43548 0.0
C908 C 0.72476 0.13362 0.37335 0.0
C909 C 0.73295 0.12334 0.31109 0.0
C910 C 0.71877 0.1159 0.25561 0.0
C911 C 0.69552 0.11896 0.26384 0.0
C912 C 0.6865 0.12927 0.32736 0.0
C913 C 0.70143 0.13671 0.38285 0.0
H914 H 0.1152 0.29566 0.55315 0.0
H915 H 0.15637 0.3029 0.74806 0.0
H916 H 0.16199 0.26167 0.75148 0.0
H917 H 0.08764 0.24412 0.60616 0.0
H918 H 0.08771 0.23214 0.51574 0.0
H919 H 0.0871 0.26238 0.52749 0.0
H920 H 0.12294 0.26616 0.44751 0.0
H921 H 0.12368 0.23591 0.43563 0.0
H922 H 0.14799 0.25052 0.47155 0.0
H923 H 0.16257 0.21988 0.73642 0.0
H924 H 0.15807 0.17974 0.70348 0.0
H925 H 0.11701 0.19902 0.51715 0.0
C926 C 0.1254 0.28857 0.59652 0.0
C927 C 0.13535 0.30258 0.65032 0.0
C928 C 0.14861 0.2926 0.70607 0.0
C929 C 0.15192 0.26916 0.70855 0.0
C930 C 0.14195 0.25587 0.65477 0.0
C931 C 0.12897 0.26514 0.59972 0.0
C932 C 0.12005 0.24689 0.54907 0.0
C933 C 0.09409 0.24635 0.54969 0.0
C934 C 0.12922 0.25006 0.47134 0.0
C935 C 0.12991 0.22595 0.58472 0.0
C936 C 0.14249 0.23158 0.64556 0.0
C937 C 0.15285 0.21523 0.6887 0.0
C938 C 0.15016 0.19245 0.66952 0.0
C939 C 0.13725 0.18617 0.60757 0.0
C940 C 0.12716 0.20325 0.5644 0.0
H941 H 0.3042 0.89322 0.30458 0.0
H942 H 0.31965 0.84393 0.47313 0.0
H943 H 0.27931 0.83493 0.48435 0.0
H944 H 0.25361 0.91401 0.38756 0.0
H945 H 0.23861 0.91777 0.30286 0.0
H946 H 0.26895 0.91976 0.30476 0.0
H947 H 0.27157 0.88877 0.20514 0.0
H948 H 0.24122 0.88663 0.20311 0.0
H949 H 0.2581 0.86181 0.21989 0.0
H950 H 0.23781 0.83148 0.48006 0.0
H951 H 0.19674 0.83494 0.46427 0.0
H952 H 0.2071 0.88687 0.30008 0.0
C953 C 0.29909 0.88043 0.34344 0.0
C954 C 0.31517 0.86926 0.3878 0.0
C955 C 0.30774 0.85279 0.43857 0.0
C956 C 0.28483 0.84746 0.44524 0.0
C957 C 0.26947 0.85876 0.40099 0.0
C958 C 0.27616 0.87497 0.35129 0.0
C959 C 0.25589 0.88516 0.31263 0.0
C960 C 0.25417 0.91069 0.32789 0.0
C961 C 0.25675 0.8803 0.2303 0.0
C962 C 0.23684 0.87223 0.34894 0.0
C963 C 0.24516 0.85698 0.39925 0.0
C964 C 0.23104 0.84331 0.44073 0.0
C965 C 0.2077 0.84543 0.4313 0.0
C966 C 0.19863 0.8612 0.38099 0.0
C967 C 0.21348 0.8746 0.33877 0.0
H968 H 0.21005 0.12664 0.78177 0.0
H969 H 0.19752 0.05445 0.79805 0.0
H970 H 0.23353 0.04965 0.86381 0.0
H971 H 0.27042 0.123 0.7547 0.0
H972 H 0.27658 0.14766 0.80906 0.0
H973 H 0.24994 0.14543 0.76213 0.0
H974 H 0.22886 0.15147 0.88431 0.0
H975 H 0.25544 0.15355 0.93172 0.0
H976 H 0.23475 0.13302 0.9602 0.0
H977 H 0.27103 0.05238 0.92608 0.0
H978 H 0.30773 0.06253 0.98099 0.0
H979 H 0.29575 0.13313 0.92897 0.0
C980 C 0.21496 0.1098 0.79873 0.0
C981 C 0.20095 0.09089 0.78443 0.0
C982 C 0.20792 0.06919 0.80827 0.0
C983 C 0.22836 0.06628 0.84576 0.0
C984 C 0.24165 0.08525 0.85957 0.0
C985 C 0.23528 0.1066 0.83689 0.0
C986 C 0.25266 0.12416 0.85953 0.0
C987 C 0.26301 0.13574 0.79235 0.0
C988 C 0.24231 0.14158 0.91207 0.0
C989 C 0.26981 0.1093 0.89809 0.0
C990 C 0.26312 0.08691 0.89725 0.0
C991 C 0.27641 0.06987 0.92741 0.0
C992 C 0.29723 0.07581 0.9585 0.0
C993 C 0.30455 0.09862 0.9598 0.0
C994 C 0.29047 0.11559 0.92981 0.0
H995 H 0.13139 0.7239 0.01335 0.0
H996 H 0.05967 0.70969 0.03217 0.0
H997 H 0.0551 0.74296 0.11153 0.0
H998 H 0.13929 0.74277 0.19963 0.0
H999 H 0.15905 0.76479 0.17624 0.0
H1000 H 0.15702 0.73978 0.12036 0.0
H1001 H 0.14926 0.76454 0.00652 0.0
H1002 H 0.15151 0.78961 0.06192 0.0
H1003 H 0.12643 0.7847 0.00843 0.0
H1004 H 0.05769 0.77821 0.18499 0.0
H1005 H 0.0674 0.81389 0.24763 0.0
H1006 H 0.13762 0.8051 0.18685 0.0
C1007 C 0.11472 0.72786 0.03395 0.0
C1008 C 0.09587 0.71416 0.01633 0.0
C1009 C 0.07438 0.71986 0.04486 0.0
C1010 C 0.07159 0.73873 0.09016 0.0
C1011 C 0.09048 0.75173 0.10705 0.0
C1012 C 0.11164 0.74663 0.07994 0.0
C1013 C 0.12905 0.76363 0.10649 0.0
C1014 C 0.14717 0.75204 0.15348 0.0
C1015 C 0.13968 0.77637 0.042 0.0
C1016 C 0.11429 0.77914 0.15212 0.0
C1017 C 0.09209 0.7719 0.15152 0.0
C1018 C 0.07504 0.78394 0.18651 0.0
C1019 C 0.08071 0.80416 0.22197 0.0
C1020 C 0.10327 0.81206 0.22288 0.0
C1021 C 0.12033 0.79917 0.18846 0.0
H1022 H 0.68908 0.92352 0.95655 0.0
H1023 H 0.68651 0.85513 0.04225 0.0
H1024 H 0.72404 0.8474 0.98971 0.0
H1025 H 0.71453 0.91037 0.78956 0.0
H1026 H 0.7323 0.9351 0.78607 0.0
H1027 H 0.70599 0.93602 0.83503 0.0
H1028 H 0.72695 0.94866 0.95231 0.0
H1029 H 0.75332 0.94809 0.90345 0.0
H1030 H 0.75016 0.93193 0.9861 0.0
H1031 H 0.75998 0.84585 0.91717 0.0
H1032 H 0.79387 0.85194 0.8412 0.0
H1033 H 0.77395 0.92177 0.80713 0.0
C1034 C 0.69658 0.90705 0.96547 0.0
C1035 C 0.68482 0.88994 0.0036 0.0
C1036 C 0.69521 0.86857 0.01368 0.0
C1037 C 0.7165 0.86397 0.98374 0.0
C1038 C 0.72734 0.881 0.94469 0.0
C1039 C 0.71793 0.90224 0.9366 0.0
C1040 C 0.73294 0.91742 0.89098 0.0
C1041 C 0.7207 0.92517 0.82129 0.0
C1042 C 0.74134 0.93772 0.93591 0.0
C1043 C 0.75203 0.90126 0.87351 0.0
C1044 C 0.74841 0.8803 0.9047 0.0
C1045 C 0.76315 0.86227 0.89329 0.0
C1046 C 0.78226 0.86585 0.84966 0.0
C1047 C 0.78657 0.88734 0.81854 0.0
C1048 C 0.7712 0.90522 0.8308 0.0
H1049 H 0.92292 0.27946 0.07031 0.0
H1050 H 0.85273 0.30041 0.07504 0.0
H1051 H 0.84265 0.26478 0.13771 0.0
H1052 H 0.91186 0.21921 0.03868 0.0
H1053 H 0.93529 0.21053 0.09487 0.0
H1054 H 0.93639 0.2371 0.04704 0.0
H1055 H 0.94422 0.25768 0.16938 0.0
H1056 H 0.94266 0.23125 0.2178 0.0
H1057 H 0.92464 0.25445 0.24384 0.0
H1058 H 0.84091 0.22795 0.20895 0.0
H1059 H 0.84679 0.19081 0.26795 0.0
H1060 H 0.91801 0.19391 0.21344 0.0
C1061 C 0.90535 0.27639 0.08331 0.0
C1062 C 0.8886 0.2927 0.06758 0.0
C1063 C 0.86582 0.28807 0.0858 0.0
C1064 C 0.85996 0.26796 0.12199 0.0
C1065 C 0.87705 0.25257 0.13878 0.0
C1066 C 0.89921 0.25637 0.11872 0.0
C1067 C 0.91441 0.23722 0.14305 0.0
C1068 C 0.92511 0.22531 0.07698 0.0
C1069 C 0.93255 0.24567 0.1967 0.0
C1070 C 0.89742 0.22213 0.18076 0.0
C1071 C 0.87598 0.23132 0.17829 0.0
C1072 C 0.85761 0.22054 0.2107 0.0
C1073 C 0.86115 0.19954 0.24468 0.0
C1074 C 0.88287 0.18946 0.24545 0.0
C1075 C 0.90121 0.20115 0.21382 0.0
H1076 H 0.26925 0.40809 0.24451 0.0
H1077 H 0.30992 0.36226 0.37484 0.0
H1078 H 0.27833 0.35783 0.46121 0.0
H1079 H 0.24172 0.43601 0.39426 0.0
H1080 H 0.21493 0.43832 0.34816 0.0
H1081 H 0.24071 0.43789 0.2962 0.0
H1082 H 0.22588 0.40376 0.22111 0.0
H1083 H 0.19999 0.40425 0.27245 0.0
H1084 H 0.2165 0.37868 0.26803 0.0
H1085 H 0.24186 0.35782 0.53266 0.0
H1086 H 0.20314 0.3618 0.5816 0.0
H1087 H 0.18689 0.40828 0.40611 0.0
C1088 C 0.27152 0.39708 0.29109 0.0
C1089 C 0.2921 0.38552 0.30271 0.0
C1090 C 0.29434 0.3713 0.36457 0.0
C1091 C 0.27649 0.36869 0.41412 0.0
C1092 C 0.25651 0.38045 0.40131 0.0
C1093 C 0.25391 0.39431 0.34121 0.0
C1094 C 0.23062 0.40489 0.33964 0.0
C1095 C 0.2321 0.43082 0.3449 0.0
C1096 C 0.21748 0.39745 0.27126 0.0
C1097 C 0.22055 0.39481 0.40816 0.0
C1098 C 0.23571 0.38073 0.443 0.0
C1099 C 0.2299 0.36892 0.50609 0.0
C1100 C 0.20789 0.37132 0.5336 0.0
C1101 C 0.19203 0.3855 0.4982 0.0
C1102 C 0.19867 0.39757 0.43521 0.0
H1103 H 0.41344 0.69498 0.7277 0.0
H1104 H 0.34414 0.69611 0.80458 0.0
H1105 H 0.33986 0.73501 0.75769 0.0
H1106 H 0.42604 0.75499 0.76647 0.0
H1107 H 0.4432 0.75788 0.68589 0.0
H1108 H 0.44132 0.73095 0.73147 0.0
H1109 H 0.42841 0.71227 0.61052 0.0
H1110 H 0.42995 0.73914 0.56479 0.0
H1111 H 0.40399 0.72323 0.56362 0.0
H1112 H 0.34192 0.77213 0.69118 0.0
H1113 H 0.35112 0.80613 0.61904 0.0
H1114 H 0.41938 0.7812 0.58809 0.0
C1115 C 0.39749 0.70355 0.73603 0.0
C1116 C 0.37912 0.69247 0.7699 0.0
C1117 C 0.35849 0.70426 0.77917 0.0
C1118 C 0.35587 0.72635 0.75252 0.0
C1119 C 0.37411 0.73649 0.71743 0.0
C1120 C 0.39463 0.72561 0.7101 0.0
C1121 C 0.41131 0.73995 0.66789 0.0
C1122 C 0.43167 0.74632 0.7158 0.0
C1123 C 0.41885 0.72793 0.59755 0.0
C1124 C 0.39682 0.76041 0.65124 0.0
C1125 C 0.37542 0.75807 0.68026 0.0
C1126 C 0.35871 0.77428 0.66903 0.0
C1127 C 0.36406 0.79347 0.62757 0.0
C1128 C 0.38599 0.79636 0.59813 0.0
C1129 C 0.40254 0.77958 0.61045 0.0
H1130 H 0.7177 0.6365 0.27916 0.0
H1131 H 0.70044 0.56524 0.29342 0.0
H1132 H 0.7352 0.55815 0.36359 0.0
H1133 H 0.77777 0.62887 0.25867 0.0
H1134 H 0.78506 0.65308 0.31366 0.0
H1135 H 0.75877 0.65263 0.26422 0.0
H1136 H 0.73706 0.66012 0.38446 0.0
H1137 H 0.76328 0.66039 0.43436 0.0
H1138 H 0.741 0.64132 0.46078 0.0
H1139 H 0.77219 0.5583 0.42829 0.0
H1140 H 0.80943 0.56584 0.48402 0.0
H1141 H 0.80234 0.63717 0.43355 0.0
C1142 C 0.72131 0.6194 0.2968 0.0
C1143 C 0.70635 0.60141 0.28068 0.0
C1144 C 0.71159 0.5793 0.30521 0.0
C1145 C 0.7313 0.57509 0.34519 0.0
C1146 C 0.74556 0.59317 0.36078 0.0
C1147 C 0.74087 0.6149 0.33749 0.0
C1148 C 0.75915 0.63125 0.36178 0.0
C1149 C 0.77088 0.64209 0.29564 0.0
C1150 C 0.74954 0.64934 0.41342 0.0
C1151 C 0.77488 0.61526 0.40183 0.0
C1152 C 0.7667 0.59337 0.40035 0.0
C1153 C 0.77869 0.57539 0.43049 0.0
C1154 C 0.79979 0.57983 0.46203 0.0
C1155 C 0.80857 0.60209 0.46391 0.0
C1156 C 0.79578 0.62007 0.43433 0.0
H1157 H 0.58525 0.21593 0.60467 0.0
H1158 H 0.65388 0.20695 0.52707 0.0
H1159 H 0.66561 0.24121 0.59417 0.0
H1160 H 0.58494 0.27704 0.59041 0.0
H1161 H 0.56802 0.28097 0.67106 0.0
H1162 H 0.56514 0.25551 0.61787 0.0
H1163 H 0.57347 0.23156 0.73302 0.0
H1164 H 0.57662 0.25696 0.78642 0.0
H1165 H 0.59912 0.23646 0.78365 0.0
H1166 H 0.67031 0.27556 0.67399 0.0
H1167 H 0.66676 0.31015 0.74858 0.0
H1168 H 0.59472 0.29834 0.76913 0.0
C1169 C 0.60272 0.22123 0.60153 0.0
C1170 C 0.61864 0.20869 0.56057 0.0
C1171 C 0.64133 0.21629 0.55766 0.0
C1172 C 0.6482 0.23567 0.59603 0.0
C1173 C 0.63216 0.24747 0.63656 0.0
C1174 C 0.60982 0.24076 0.63869 0.0
C1175 C 0.59585 0.25693 0.68451 0.0
C1176 C 0.5774 0.26829 0.63818 0.0
C1177 C 0.58566 0.24475 0.75083 0.0
C1178 C 0.61382 0.27378 0.70769 0.0
C1179 C 0.63471 0.26779 0.68033 0.0
C1180 C 0.65401 0.28047 0.69539 0.0
C1181 C 0.65185 0.30004 0.73826 0.0
C1182 C 0.63047 0.30699 0.76477 0.0
C1183 C 0.61128 0.2935 0.74959 0.0
H1184 H 0.36244 0.15267 0.44821 0.0
H1185 H 0.40802 0.09539 0.43045 0.0
H1186 H 0.41239 0.09491 0.56418 0.0
H1187 H 0.39088 0.18061 0.59832 0.0
H1188 H 0.36496 0.18943 0.64117 0.0
H1189 H 0.36613 0.18595 0.54364 0.0
H1190 H 0.33244 0.15797 0.54896 0.0
H1191 H 0.33107 0.16149 0.64634 0.0
H1192 H 0.33412 0.1336 0.60776 0.0
H1193 H 0.41121 0.10009 0.69928 0.0
H1194 H 0.40274 0.10916 0.82771 0.0
H1195 H 0.35764 0.16278 0.75691 0.0
C1196 C 0.37342 0.1401 0.47242 0.0
C1197 C 0.38493 0.12411 0.42908 0.0
C1198 C 0.399 0.10778 0.46273 0.0
C1199 C 0.40169 0.10744 0.53855 0.0
C1200 C 0.39016 0.12349 0.5797 0.0
C1201 C 0.3762 0.13942 0.54796 0.0
C1202 C 0.36497 0.15415 0.60477 0.0
C1203 C 0.37218 0.17901 0.59646 0.0
C1204 C 0.33912 0.15164 0.60177 0.0
C1205 C 0.37464 0.14384 0.67344 0.0
C1206 C 0.38929 0.12633 0.65777 0.0
C1207 C 0.39984 0.11383 0.71235 0.0
C1208 C 0.39494 0.11913 0.78506 0.0
C1209 C 0.37954 0.13667 0.80222 0.0
C1210 C 0.36957 0.14936 0.74554 0.0
H1211 H 0.13784 0.63446 0.46 0.0
H1212 H 0.08107 0.58797 0.45838 0.0
H1213 H 0.08075 0.58868 0.32398 0.0
H1214 H 0.119 0.66848 0.31225 0.0
H1215 H 0.14681 0.67305 0.27526 0.0
H1216 H 0.14336 0.66793 0.37132 0.0
H1217 H 0.17129 0.63428 0.36331 0.0
H1218 H 0.17477 0.63927 0.26706 0.0
H1219 H 0.16601 0.61181 0.29895 0.0
H1220 H 0.08542 0.59578 0.18933 0.0
H1221 H 0.09448 0.60935 0.06521 0.0
H1222 H 0.14831 0.65086 0.15468 0.0
C1223 C 0.12546 0.62428 0.43141 0.0
C1224 C 0.10951 0.61113 0.46995 0.0
C1225 C 0.09348 0.59819 0.43028 0.0
C1226 C 0.09319 0.59842 0.3538 0.0
C1227 C 0.10905 0.61164 0.3175 0.0
C1228 C 0.1249 0.62433 0.35495 0.0
C1229 C 0.13955 0.63773 0.30287 0.0
C1230 C 0.13702 0.66331 0.31623 0.0
C1231 C 0.16438 0.63032 0.30839 0.0
C1232 C 0.12929 0.63079 0.23048 0.0
C1233 C 0.11179 0.61565 0.23999 0.0
C1234 C 0.09922 0.6075 0.18115 0.0
C1235 C 0.1045 0.61528 0.11082 0.0
C1236 C 0.12217 0.63106 0.09998 0.0
C1237 C 0.13485 0.63861 0.1608 0.0
H1238 H 0.63392 0.8568 0.47486 0.0
H1239 H 0.58634 0.91227 0.45175 0.0
H1240 H 0.58239 0.91431 0.58495 0.0
H1241 H 0.60639 0.82976 0.62627 0.0
H1242 H 0.63226 0.82205 0.67175 0.0
H1243 H 0.63167 0.82481 0.57395 0.0
H1244 H 0.66441 0.85385 0.58012 0.0
H1245 H 0.66516 0.85109 0.6779 0.0
H1246 H 0.66157 0.87857 0.63704 0.0
H1247 H 0.58292 0.9103 0.71999 0.0
H1248 H 0.58912 0.90125 0.8497 0.0
H1249 H 0.63661 0.8487 0.78736 0.0
C1250 C 0.62274 0.8694 0.49788 0.0
C1251 C 0.61044 0.88435 0.45259 0.0
C1252 C 0.59598 0.90061 0.485 0.0
C1253 C 0.59356 0.90191 0.56078 0.0
C1254 C 0.60576 0.8869 0.6038 0.0
C1255 C 0.62016 0.87102 0.57382 0.0
C1256 C 0.6314 0.85706 0.63297 0.0
C1257 C 0.62504 0.83193 0.62579 0.0
C1258 C 0.65716 0.86034 0.63193 0.0
C1259 C 0.62096 0.86754 0.70054 0.0
C1260 C 0.60619 0.88469 0.68232 0.0
C1261 C 0.59447 0.89692 0.73508 0.0
C1262 C 0.59808 0.89162 0.80864 0.0
C1263 C 0.61333 0.87425 0.82887 0.0
C1264 C 0.62481 0.86204 0.7738 0.0
H1265 H 0.9093 0.37812 0.26566 0.0
H1266 H 0.85333 0.33063 0.26782 0.0
H1267 H 0.85586 0.32832 0.40173 0.0
H1268 H 0.94102 0.35316 0.41811 0.0
H1269 H 0.94953 0.38034 0.45336 0.0
H1270 H 0.94481 0.37671 0.35694 0.0
H1271 H 0.91594 0.40968 0.35829 0.0
H1272 H 0.92065 0.41346 0.45445 0.0
H1273 H 0.89246 0.40866 0.42068 0.0
H1274 H 0.86249 0.33309 0.53442 0.0
H1275 H 0.87177 0.34596 0.65876 0.0
H1276 H 0.92338 0.39044 0.57103 0.0
C1277 C 0.89778 0.36701 0.29429 0.0
C1278 C 0.88115 0.35453 0.25653 0.0
C1279 C 0.86617 0.34041 0.2958 0.0
C1280 C 0.86756 0.33885 0.37177 0.0
C1281 C 0.88404 0.3515 0.40745 0.0
C1282 C 0.89885 0.36536 0.37019 0.0
C1283 C 0.9139 0.37839 0.42212 0.0
C1284 C 0.93879 0.37174 0.41202 0.0
C1285 C 0.91052 0.40406 0.41336 0.0
C1286 C 0.90484 0.37006 0.49438 0.0
C1287 C 0.88782 0.35435 0.48458 0.0
C1288 C 0.87596 0.34519 0.54296 0.0
C1289 C 0.88133 0.35263 0.6133 0.0
C1290 C 0.89833 0.36914 0.62445 0.0
C1291 C 0.91052 0.37758 0.56425 0.0
H1292 H 0.38427 0.40593 0.42764 0.0
H1293 H 0.40267 0.33493 0.4187 0.0
H1294 H 0.40956 0.33514 0.5513 0.0
H1295 H 0.42456 0.42243 0.57558 0.0
H1296 H 0.40451 0.44155 0.61637 0.0
H1297 H 0.40405 0.43669 0.51933 0.0
H1298 H 0.36192 0.42525 0.52764 0.0
H1299 H 0.3623 0.42974 0.6247 0.0
H1300 H 0.35367 0.40275 0.58833 0.0
H1301 H 0.41006 0.34158 0.68533 0.0
H1302 H 0.40646 0.35445 0.81252 0.0
H1303 H 0.38779 0.42147 0.73671 0.0
C1304 C 0.39048 0.39064 0.45323 0.0
C1305 C 0.39314 0.37044 0.41268 0.0
C1306 C 0.40064 0.35061 0.44856 0.0
C1307 C 0.40459 0.35057 0.5239 0.0
C1308 C 0.40101 0.3705 0.56275 0.0
C1309 C 0.39438 0.39026 0.52872 0.0
C1310 C 0.39019 0.40889 0.58415 0.0
C1311 C 0.40682 0.42855 0.5732 0.0
C1312 C 0.36556 0.41713 0.58099 0.0
C1313 C 0.39498 0.39633 0.65459 0.0
C1314 C 0.4013 0.37424 0.64078 0.0
C1315 C 0.40545 0.35893 0.69685 0.0
C1316 C 0.40322 0.3664 0.76902 0.0
C1317 C 0.39691 0.38901 0.7848 0.0
C1318 C 0.39284 0.40415 0.72654 0.0
H1319 H 0.40211 0.61504 0.23006 0.0
H1320 H 0.33371 0.64002 0.20136 0.0
H1321 H 0.32799 0.63875 0.33448 0.0
H1322 H 0.39032 0.57669 0.37522 0.0
H1323 H 0.41615 0.5823 0.42407 0.0
H1324 H 0.41522 0.5855 0.32645 0.0
H1325 H 0.42916 0.62689 0.33845 0.0
H1326 H 0.43035 0.62375 0.43606 0.0
H1327 H 0.41398 0.6463 0.39632 0.0
H1328 H 0.32897 0.63312 0.46886 0.0
H1329 H 0.33756 0.62698 0.59848 0.0
H1330 H 0.40588 0.60679 0.54177 0.0
C1331 C 0.38598 0.62039 0.2518 0.0
C1332 C 0.36833 0.62761 0.20531 0.0
C1333 C 0.3475 0.63452 0.2359 0.0
C1334 C 0.34405 0.63375 0.31141 0.0
C1335 C 0.36165 0.62621 0.35553 0.0
C1336 C 0.3823 0.61992 0.32714 0.0
C1337 C 0.39847 0.61271 0.38693 0.0
C1338 C 0.40544 0.58782 0.37758 0.0
C1339 C 0.41921 0.62835 0.38959 0.0
C1340 C 0.38362 0.61587 0.45337 0.0
C1341 C 0.3624 0.62348 0.43374 0.0
C1342 C 0.34556 0.6273 0.48502 0.0
C1343 C 0.35062 0.62365 0.55859 0.0
C1344 C 0.37245 0.61643 0.58047 0.0
C1345 C 0.38908 0.61234 0.52686 0.0
H1346 H 0.61193 0.59449 0.6956 0.0
H1347 H 0.609 0.66455 0.76645 0.0
H1348 H 0.61006 0.677 0.63835 0.0
H1349 H 0.65125 0.60333 0.55357 0.0
H1350 H 0.63882 0.58306 0.49195 0.0
H1351 H 0.63577 0.57947 0.58887 0.0
H1352 H 0.59227 0.5782 0.57393 0.0
H1353 H 0.5952 0.58194 0.47685 0.0
H1354 H 0.578 0.60122 0.52888 0.0
H1355 H 0.61379 0.68216 0.50477 0.0
H1356 H 0.62216 0.67984 0.37346 0.0
H1357 H 0.62294 0.60655 0.38676 0.0
C1358 C 0.61123 0.61244 0.68408 0.0
C1359 C 0.61028 0.62855 0.74114 0.0
C1360 C 0.60973 0.65189 0.7238 0.0
C1361 C 0.61019 0.65914 0.65113 0.0
C1362 C 0.61121 0.64287 0.59627 0.0
C1363 C 0.61183 0.62001 0.61166 0.0
C1364 C 0.61446 0.60616 0.54243 0.0
C1365 C 0.63638 0.59219 0.54434 0.0
C1366 C 0.59375 0.59098 0.52979 0.0
C1367 C 0.61569 0.62486 0.48598 0.0
C1368 C 0.61349 0.64587 0.51838 0.0
C1369 C 0.6153 0.66582 0.47861 0.0
C1370 C 0.62007 0.66432 0.40404 0.0
C1371 C 0.62302 0.64303 0.36985 0.0
C1372 C 0.62029 0.62303 0.41113 0.0
H1373 H 0.67375 0.36067 0.57505 0.0
H1374 H 0.62731 0.4119 0.65437 0.0
H1375 H 0.61616 0.42051 0.52765 0.0
H1376 H 0.69129 0.39078 0.4102 0.0
H1377 H 0.69269 0.36521 0.35675 0.0
H1378 H 0.69806 0.36425 0.45341 0.0
H1379 H 0.66692 0.33376 0.46779 0.0
H1380 H 0.66129 0.33479 0.37138 0.0
H1381 H 0.63876 0.33961 0.43552 0.0
H1382 H 0.60828 0.4218 0.39285 0.0
H1383 H 0.60571 0.41706 0.25931 0.0
H1384 H 0.65742 0.36507 0.26854 0.0
C1385 C 0.66151 0.37397 0.56585 0.0
C1386 C 0.65145 0.38565 0.62471 0.0
C1387 C 0.63531 0.40277 0.61019 0.0
C1388 C 0.62884 0.40776 0.53839 0.0
C1389 C 0.63871 0.39556 0.48177 0.0
C1390 C 0.65485 0.37916 0.49463 0.0
C1391 C 0.66237 0.36801 0.42437 0.0
C1392 C 0.6876 0.37233 0.41037 0.0
C1393 C 0.65701 0.34254 0.42483 0.0
C1394 C 0.64774 0.38051 0.37004 0.0
C1395 C 0.63422 0.39634 0.40419 0.0
C1396 C 0.6189 0.40957 0.36543 0.0
C1397 C 0.61751 0.40669 0.28962 0.0
C1398 C 0.63138 0.39072 0.25341 0.0
C1399 C 0.64663 0.37747 0.29449 0.0
H1400 H 0.85977 0.64885 0.94155 0.0
H1401 H 0.91153 0.5972 0.9212 0.0
H1402 H 0.91573 0.59633 0.05481 0.0
H1403 H 0.88497 0.67887 0.09284 0.0
H1404 H 0.85836 0.68465 0.13665 0.0
H1405 H 0.85964 0.68165 0.03897 0.0
H1406 H 0.82922 0.65015 0.04417 0.0
H1407 H 0.82779 0.65312 0.14179 0.0
H1408 H 0.83373 0.62589 0.10187 0.0
H1409 H 0.91422 0.6007 0.19026 0.0
H1410 H 0.906 0.60909 0.31934 0.0
H1411 H 0.855 0.65762 0.25217 0.0
C1412 C 0.87202 0.6374 0.96519 0.0
C1413 C 0.88535 0.62313 0.92085 0.0
C1414 C 0.90111 0.6083 0.95396 0.0
C1415 C 0.90368 0.6077 0.02985 0.0
C1416 C 0.89033 0.622 0.07196 0.0
C1417 C 0.87474 0.6365 0.04099 0.0
C1418 C 0.86214 0.6497 0.09891 0.0
C1419 C 0.86655 0.67523 0.09138 0.0
C1420 C 0.83672 0.64439 0.09653 0.0
C1421 C 0.87305 0.64028 0.16716 0.0
C1422 C 0.88935 0.62441 0.15034 0.0
C1423 C 0.90153 0.61314 0.2042 0.0
C1424 C 0.89675 0.61804 0.27735 0.0
C1425 C 0.87989 0.63403 0.29593 0.0
C1426 C 0.86806 0.64538 0.23984 0.0
H1427 H 0.65284 0.14429 0.71631 0.0
H1428 H 0.60437 0.09773 0.62083 0.0
H1429 H 0.59265 0.0858 0.74401 0.0
H1430 H 0.66824 0.10905 0.87483 0.0
H1431 H 0.6703 0.13326 0.93427 0.0
H1432 H 0.67658 0.13612 0.83861 0.0
H1433 H 0.64701 0.16831 0.82882 0.0
H1434 H 0.64041 0.16536 0.92407 0.0
H1435 H 0.61832 0.16305 0.8568 0.0
H1436 H 0.58369 0.08169 0.87705 0.0
H1437 H 0.57958 0.08425 0.01086 0.0
H1438 H 0.63382 0.13368 0.01816 0.0
C1439 C 0.64016 0.13118 0.72118 0.0
C1440 C 0.62958 0.12188 0.65905 0.0
C1441 C 0.61276 0.10504 0.66778 0.0
C1442 C 0.60598 0.09816 0.73747 0.0
C1443 C 0.61626 0.10821 0.79764 0.0
C1444 C 0.63315 0.12419 0.79021 0.0
C1445 C 0.64052 0.13339 0.86341 0.0
C1446 C 0.66539 0.1276 0.87867 0.0
C1447 C 0.6363 0.15904 0.86853 0.0
C1448 C 0.62486 0.12038 0.91307 0.0
C1449 C 0.61106 0.10588 0.87422 0.0
C1450 C 0.59459 0.09278 0.90821 0.0
C1451 C 0.5923 0.09444 0.98411 0.0
C1452 C 0.60641 0.10911 0.02488 0.0
C1453 C 0.62287 0.12219 0.9886 0.0
H1454 H 0.10922 0.37949 0.32346 0.0
H1455 H 0.15966 0.32639 0.33938 0.0
H1456 H 0.16607 0.32863 0.20711 0.0
H1457 H 0.0857 0.36105 0.15083 0.0
H1458 H 0.08102 0.38937 0.11788 0.0
H1459 H 0.08041 0.38373 0.21434 0.0
H1460 H 0.11109 0.41437 0.23495 0.0
H1461 H 0.11196 0.41994 0.13842 0.0
H1462 H 0.13746 0.41243 0.18638 0.0
H1463 H 0.16766 0.33678 0.07388 0.0
H1464 H 0.16225 0.34848 0.94609 0.0
H1465 H 0.11037 0.39588 0.0145 0.0
C1466 C 0.12149 0.36824 0.29903 0.0
C1467 C 0.13391 0.35275 0.34203 0.0
C1468 C 0.14986 0.33836 0.30783 0.0
C1469 C 0.15373 0.33955 0.23263 0.0
C1470 C 0.14145 0.35515 0.192 0.0
C1471 C 0.12549 0.3691 0.22366 0.0
C1472 C 0.11435 0.38406 0.1669 0.0
C1473 C 0.08886 0.37926 0.16222 0.0
C1474 C 0.119 0.40919 0.18262 0.0
C1475 C 0.12651 0.37626 0.09859 0.0
C1476 C 0.14219 0.35969 0.11453 0.0
C1477 C 0.15542 0.34973 0.06062 0.0
C1478 C 0.15226 0.35655 0.98814 0.0
C1479 C 0.13591 0.37312 0.97005 0.0
C1480 C 0.12309 0.38325 0.02642 0.0
H1481 H 0.36165 0.8851 0.05619 0.0
H1482 H 0.42267 0.92583 0.05702 0.0
H1483 H 0.42276 0.92578 0.92245 0.0
H1484 H 0.37681 0.85016 0.90668 0.0
H1485 H 0.34861 0.84854 0.86994 0.0
H1486 H 0.35275 0.85284 0.96619 0.0
H1487 H 0.32825 0.88913 0.96043 0.0
H1488 H 0.32412 0.88498 0.86398 0.0
H1489 H 0.33561 0.91128 0.89727 0.0
H1490 H 0.41719 0.91976 0.78721 0.0
H1491 H 0.40675 0.90746 0.66267 0.0
H1492 H 0.34922 0.87115 0.75086 0.0
C1493 C 0.37495 0.89415 0.02816 0.0
C1494 C 0.39214 0.9055 0.06732 0.0
C1495 C 0.4093 0.91703 0.02836 0.0
C1496 C 0.40947 0.91715 0.95183 0.0
C1497 C 0.39233 0.90575 0.91492 0.0
C1498 C 0.37538 0.89447 0.95181 0.0
C1499 C 0.35938 0.88284 0.89931 0.0
C1500 C 0.35941 0.85707 0.91125 0.0
C1501 C 0.33542 0.89265 0.90564 0.0
C1502 C 0.37015 0.88908 0.82722 0.0
C1503 C 0.38906 0.9024 0.83725 0.0
C1504 C 0.40229 0.90948 0.77866 0.0
C1505 C 0.39622 0.90244 0.7081 0.0
C1506 C 0.3771 0.88845 0.6968 0.0
C1507 C 0.36379 0.88204 0.75733 0.0
H1508 H 0.87185 0.86511 0.27882 0.0
H1509 H 0.91515 0.92435 0.27083 0.0
H1510 H 0.91478 0.92276 0.13641 0.0
H1511 H 0.89648 0.83593 0.12354 0.0
H1512 H 0.86973 0.82516 0.09188 0.0
H1513 H 0.87411 0.83038 0.18768 0.0
H1514 H 0.83901 0.85655 0.19008 0.0
H1515 H 0.83447 0.85132 0.09449 0.0
H1516 H 0.83735 0.87993 0.12725 0.0
H1517 H 0.90854 0.9156 0.00241 0.0
H1518 H 0.89594 0.90397 0.87938 0.0
H1519 H 0.85705 0.8493 0.97519 0.0
C1520 C 0.88136 0.87769 0.24887 0.0
C1521 C 0.89355 0.89484 0.28551 0.0
C1522 C 0.90567 0.91104 0.24412 0.0
C1523 C 0.90563 0.91025 0.16767 0.0
C1524 C 0.89344 0.89313 0.13328 0.0
C1525 C 0.8815 0.87716 0.17252 0.0
C1526 C 0.86916 0.86097 0.1223 0.0
C1527 C 0.8779 0.83667 0.13194 0.0
C1528 C 0.84348 0.86229 0.13425 0.0
C1529 C 0.8758 0.87051 0.04875 0.0
C1530 C 0.88992 0.88897 0.05619 0.0
C1531 C 0.89762 0.90106 0.99588 0.0
C1532 C 0.8904 0.89431 0.9262 0.0
C1533 C 0.8756 0.87567 0.91747 0.0
C1534 C 0.86855 0.86348 0.97976 0.0
H1535 H 0.88366 0.10713 0.0561 0.0
H1536 H 0.82503 0.15071 0.07908 0.0
H1537 H 0.82343 0.15544 0.94608 0.0
H1538 H 0.90941 0.13754 0.90776 0.0
H1539 H 0.91911 0.1125 0.86123 0.0
H1540 H 0.9159 0.11234 0.9589 0.0
H1541 H 0.88931 0.07762 0.94958 0.0
H1542 H 0.89256 0.0776 0.85195 0.0
H1543 H 0.86476 0.07904 0.89155 0.0
H1544 H 0.82812 0.15605 0.81138 0.0
H1545 H 0.83785 0.15085 0.68177 0.0
H1546 H 0.8931 0.10655 0.74407 0.0
C1547 C 0.87045 0.11758 0.03308 0.0
C1548 C 0.85449 0.12853 0.07824 0.0
C1549 C 0.83746 0.14209 0.04588 0.0
C1550 C 0.83641 0.14497 0.97024 0.0
C1551 C 0.85245 0.13413 0.92737 0.0
C1552 C 0.86907 0.12059 0.9573 0.0
C1553 C 0.88403 0.11067 0.89831 0.0
C1554 C 0.90856 0.11875 0.90709 0.0
C1555 C 0.88257 0.08469 0.89783 0.0
C1556 C 0.87315 0.12075 0.83082 0.0
C1557 C 0.85504 0.13432 0.84901 0.0
C1558 C 0.84226 0.14545 0.79632 0.0
C1559 C 0.84796 0.14243 0.72282 0.0
C1560 C 0.86623 0.1283 0.70262 0.0
C1561 C 0.87905 0.11748 0.75764 0.0
H1562 H 0.13904 0.15039 0.94354 0.0
H1563 H 0.09439 0.09773 0.86276 0.0
H1564 H 0.08102 0.0908 0.98831 0.0
H1565 H 0.15626 0.12212 0.10033 0.0
H1566 H 0.1574 0.14689 0.15763 0.0
H1567 H 0.16154 0.14953 0.06086 0.0
H1568 H 0.12899 0.17875 0.05383 0.0
H1569 H 0.12483 0.17631 0.15084 0.0
H1570 H 0.10157 0.17145 0.0893 0.0
H1571 H 0.07527 0.08718 0.12334 0.0
H1572 H 0.0769 0.08759 0.25776 0.0
H1573 H 0.12527 0.14274 0.25019 0.0
C1574 C 0.12611 0.1377 0.9519 0.0
C1575 C 0.11769 0.12465 0.89325 0.0
C1576 C 0.10102 0.108 0.90679 0.0
C1577 C 0.0933 0.10396 0.97791 0.0
C1578 C 0.10235 0.11679 0.03468 0.0
C1579 C 0.11827 0.13344 0.02241 0.0
C1580 C 0.12633 0.14389 0.09323 0.0
C1581 C 0.15189 0.14039 0.10359 0.0
C1582 C 0.12005 0.1691 0.097 0.0
C1583 C 0.11286 0.13015 0.14747 0.0
C1584 C 0.099 0.11473 0.11257 0.0
C1585 C 0.08583 0.09937 0.15125 0.0
C1586 C 0.08695 0.09969 0.22761 0.0
C1587 C 0.10116 0.11525 0.26449 0.0
C1588 C 0.11406 0.13082 0.22364 0.0
H1589 H 0.10202 0.8679 0.74924 0.0
H1590 H 0.17067 0.87808 0.67265 0.0
H1591 H 0.18317 0.88506 0.79868 0.0
H1592 H 0.10298 0.9106 0.89032 0.0
H1593 H 0.08672 0.89412 0.95411 0.0
H1594 H 0.08276 0.89016 0.85749 0.0
H1595 H 0.09131 0.84737 0.87108 0.0
H1596 H 0.09503 0.85117 0.96779 0.0
H1597 H 0.11722 0.83858 0.91426 0.0
H1598 H 0.18868 0.88999 0.93219 0.0
H1599 H 0.18706 0.89094 0.06659 0.0
H1600 H 0.11491 0.87833 0.05825 0.0
C1601 C 0.11968 0.87158 0.75897 0.0
C1602 C 0.13534 0.87244 0.70082 0.0
C1603 C 0.15832 0.87727 0.71607 0.0
C1604 C 0.1656 0.88136 0.78754 0.0
C1605 C 0.14974 0.88059 0.84339 0.0
C1606 C 0.12729 0.87569 0.83022 0.0
C1607 C 0.1139 0.8753 0.90069 0.0
C1608 C 0.0955 0.89364 0.90062 0.0
C1609 C 0.10378 0.8517 0.91424 0.0
C1610 C 0.13237 0.8807 0.95537 0.0
C1611 C 0.15289 0.88372 0.92094 0.0
C1612 C 0.17269 0.88783 0.9598 0.0
C1613 C 0.1716 0.88837 0.03606 0.0
C1614 C 0.15085 0.88496 0.07268 0.0
C1615 C 0.13092 0.88149 0.03163 0.0
loop_
_geom_bond_atom_site_label_1
_geom_bond_atom_site_label_2
_geom_bond_distance
_geom_bond_site_symmetry_2
_ccdc_geom_bond_type
Zn0 O6 1.969 1_554 S
Zn0 O7 1.965 . S
Zn0 O11 2.024 . S
Zn0 O16 1.969 . S
Zn1 O8 1.969 . S
Zn1 O14 1.969 . S
Zn1 O15 1.965 . S
Zn1 O17 2.024 . S
C2 O3 1.229 1_554 S
C2 O11 1.058 . S
O3 C2 1.229 1_556 S
C4 O5 1.229 . S
C4 O17 1.058 . S
O5 C4 1.229 . S
O6 Zn0 1.969 1_556 S
O6 C9 1.267 . S
O7 Zn0 1.965 . S
O7 C18 1.260 . S
O8 Zn1 1.969 . S
O8 C18 1.258 . S
C9 O6 1.267 . S
C9 O10 1.228 . S
O10 C9 1.228 . S
O11 Zn0 2.024 . S
O11 C2 1.058 . S
C12 O13 1.228 . S
C12 O14 1.267 . S
O13 C12 1.228 . S
O14 Zn1 1.969 . S
O14 C12 1.267 . S
O15 Zn1 1.965 . S
O15 C19 1.260 . S
O16 Zn0 1.969 . S
O16 C19 1.258 . S
O17 Zn1 2.024 . S
O17 C4 1.058 . S
C18 O7 1.260 . S
C18 O8 1.258 . S
C19 O15 1.260 . S
C19 O16 1.258 . S
Zn20 O26 1.969 . S
Zn20 O27 1.965 . S
Zn20 O31 2.024 . S
Zn20 O36 1.969 . S
Zn21 O28 1.969 . S
Zn21 O34 1.969 1_556 S
Zn21 O35 1.965 . S
Zn21 O37 2.024 . S
C22 O23 1.229 . S
C22 O31 1.058 . S
O23 C22 1.229 . S
C24 O25 1.229 1_556 S
C24 O37 1.058 . S
O25 C24 1.229 1_554 S
O26 Zn20 1.969 . S
O26 C29 1.267 . S
O27 Zn20 1.965 . S
O27 C38 1.260 . S
O28 Zn21 1.969 . S
O28 C38 1.258 . S
C29 O26 1.267 . S
C29 O30 1.228 . S
O30 C29 1.228 . S
O31 Zn20 2.024 . S
O31 C22 1.058 . S
C32 O33 1.228 . S
C32 O34 1.267 . S
O33 C32 1.228 . S
O34 Zn21 1.969 1_554 S
O34 C32 1.267 . S
O35 Zn21 1.965 . S
O35 C39 1.260 . S
O36 Zn20 1.969 . S
O36 C39 1.258 . S
O37 Zn21 2.024 . S
O37 C24 1.058 . S
C38 O27 1.260 . S
C38 O28 1.258 . S
C39 O35 1.260 . S
C39 O36 1.258 . S
Zn40 O46 1.969 1_554 S
Zn40 O47 1.965 . S
Zn40 O51 2.024 . S
Zn40 O56 1.969 . S
Zn41 O48 1.969 . S
Zn41 O54 1.969 . S
Zn41 O55 1.965 . S
Zn41 O57 2.024 . S
C42 O43 1.229 1_554 S
C42 O51 1.058 . S
O43 C42 1.229 1_556 S
C44 O45 1.229 . S
C44 O57 1.058 . S
O45 C44 1.229 . S
O46 Zn40 1.969 1_556 S
O46 C49 1.267 . S
O47 Zn40 1.965 . S
O47 C58 1.260 . S
O48 Zn41 1.969 . S
O48 C58 1.258 . S
C49 O46 1.267 . S
C49 O50 1.228 . S
O50 C49 1.228 . S
O51 Zn40 2.024 . S
O51 C42 1.058 . S
C52 O53 1.228 . S
C52 O54 1.267 . S
O53 C52 1.228 . S
O54 Zn41 1.969 . S
O54 C52 1.267 . S
O55 Zn41 1.965 . S
O55 C59 1.260 . S
O56 Zn40 1.969 . S
O56 C59 1.258 . S
O57 Zn41 2.024 . S
O57 C44 1.058 . S
C58 O47 1.260 . S
C58 O48 1.258 . S
C59 O55 1.260 . S
C59 O56 1.258 . S
Zn60 O66 1.969 . S
Zn60 O67 1.965 . S
Zn60 O71 2.024 . S
Zn60 O76 1.969 . S
Zn61 O68 1.969 . S
Zn61 O74 1.969 1_556 S
Zn61 O75 1.965 . S
Zn61 O77 2.024 . S
C62 O63 1.229 . S
C62 O71 1.058 . S
O63 C62 1.229 . S
C64 O65 1.229 1_556 S
C64 O77 1.058 . S
O65 C64 1.229 1_554 S
O66 Zn60 1.969 . S
O66 C69 1.267 . S
O67 Zn60 1.965 . S
O67 C78 1.260 . S
O68 Zn61 1.969 . S
O68 C78 1.258 . S
C69 O66 1.267 . S
C69 O70 1.228 . S
O70 C69 1.228 . S
O71 Zn60 2.024 . S
O71 C62 1.058 . S
C72 O73 1.228 . S
C72 O74 1.267 . S
O73 C72 1.228 . S
O74 Zn61 1.969 1_554 S
O74 C72 1.267 . S
O75 Zn61 1.965 . S
O75 C79 1.260 . S
O76 Zn60 1.969 . S
O76 C79 1.258 . S
O77 Zn61 2.024 . S
O77 C64 1.058 . S
C78 O67 1.260 . S
C78 O68 1.258 . S
C79 O75 1.260 . S
C79 O76 1.258 . S
Zn80 O86 1.969 . S
Zn80 O87 1.965 . S
Zn80 O91 2.024 . S
Zn80 O96 1.969 . S
Zn81 O88 1.969 . S
Zn81 O94 1.969 1_554 S
Zn81 O95 1.965 . S
Zn81 O97 2.024 . S
C82 O83 1.229 . S
C82 O91 1.058 . S
O83 C82 1.229 . S
C84 O85 1.229 1_554 S
C84 O97 1.058 . S
O85 C84 1.229 1_556 S
O86 Zn80 1.969 . S
O86 C89 1.267 . S
O87 Zn80 1.965 . S
O87 C98 1.260 . S
O88 Zn81 1.969 . S
O88 C98 1.258 . S
C89 O86 1.267 . S
C89 O90 1.228 . S
O90 C89 1.228 . S
O91 Zn80 2.024 . S
O91 C82 1.058 . S
C92 O93 1.228 . S
C92 O94 1.267 . S
O93 C92 1.228 . S
O94 Zn81 1.969 1_556 S
O94 C92 1.267 . S
O95 Zn81 1.965 . S
O95 C99 1.260 . S
O96 Zn80 1.969 . S
O96 C99 1.258 . S
O97 Zn81 2.024 . S
O97 C84 1.058 . S
C98 O87 1.260 . S
C98 O88 1.258 . S
C99 O95 1.260 . S
C99 O96 1.258 . S
Zn100 O106 1.969 1_556 S
Zn100 O107 1.965 . S
Zn100 O111 2.024 . S
Zn100 O116 1.969 . S
Zn101 O108 1.969 . S
Zn101 O114 1.969 . S
Zn101 O115 1.965 . S
Zn101 O117 2.024 . S
C102 O103 1.229 1_556 S
C102 O111 1.058 . S
O103 C102 1.229 1_554 S
C104 O105 1.229 . S
C104 O117 1.058 . S
O105 C104 1.229 . S
O106 Zn100 1.969 1_554 S
O106 C109 1.267 . S
O107 Zn100 1.965 . S
O107 C118 1.260 . S
O108 Zn101 1.969 . S
O108 C118 1.258 . S
C109 O106 1.267 . S
C109 O110 1.228 . S
O110 C109 1.228 . S
O111 Zn100 2.024 . S
O111 C102 1.058 . S
C112 O113 1.228 . S
C112 O114 1.267 . S
O113 C112 1.228 . S
O114 Zn101 1.969 . S
O114 C112 1.267 . S
O115 Zn101 1.965 . S
O115 C119 1.260 . S
O116 Zn100 1.969 . S
O116 C119 1.258 . S
O117 Zn101 2.024 . S
O117 C104 1.058 . S
C118 O107 1.260 . S
C118 O108 1.258 . S
C119 O115 1.260 . S
C119 O116 1.258 . S
Zn120 O126 1.969 . S
Zn120 O127 1.965 . S
Zn120 O131 2.024 . S
Zn120 O136 1.969 . S
Zn121 O128 1.969 . S
Zn121 O134 1.969 1_554 S
Zn121 O135 1.965 . S
Zn121 O137 2.024 . S
C122 O123 1.229 . S
C122 O131 1.058 . S
O123 C122 1.229 . S
C124 O125 1.229 1_554 S
C124 O137 1.058 . S
O125 C124 1.229 1_556 S
O126 Zn120 1.969 . S
O126 C129 1.267 . S
O127 Zn120 1.965 . S
O127 C138 1.260 . S
O128 Zn121 1.969 . S
O128 C138 1.258 . S
C129 O126 1.267 . S
C129 O130 1.228 . S
O130 C129 1.228 . S
O131 Zn120 2.024 . S
O131 C122 1.058 . S
C132 O133 1.228 . S
C132 O134 1.267 . S
O133 C132 1.228 . S
O134 Zn121 1.969 1_556 S
O134 C132 1.267 . S
O135 Zn121 1.965 . S
O135 C139 1.260 . S
O136 Zn120 1.969 . S
O136 C139 1.258 . S
O137 Zn121 2.024 . S
O137 C124 1.058 . S
C138 O127 1.260 . S
C138 O128 1.258 . S
C139 O135 1.260 . S
C139 O136 1.258 . S
Zn140 O146 1.969 1_556 S
Zn140 O147 1.965 . S
Zn140 O151 2.024 . S
Zn140 O156 1.969 . S
Zn141 O148 1.969 . S
Zn141 O154 1.969 . S
Zn141 O155 1.965 . S
Zn141 O157 2.024 . S
C142 O143 1.229 1_556 S
C142 O151 1.058 . S
O143 C142 1.229 1_554 S
C144 O145 1.229 . S
C144 O157 1.058 . S
O145 C144 1.229 . S
O146 Zn140 1.969 1_554 S
O146 C149 1.267 . S
O147 Zn140 1.965 . S
O147 C158 1.260 . S
O148 Zn141 1.969 . S
O148 C158 1.258 . S
C149 O146 1.267 . S
C149 O150 1.228 . S
O150 C149 1.228 . S
O151 Zn140 2.024 . S
O151 C142 1.058 . S
C152 O153 1.228 . S
C152 O154 1.267 . S
O153 C152 1.228 . S
O154 Zn141 1.969 . S
O154 C152 1.267 . S
O155 Zn141 1.965 . S
O155 C159 1.260 . S
O156 Zn140 1.969 . S
O156 C159 1.258 . S
O157 Zn141 2.024 . S
O157 C144 1.058 . S
C158 O147 1.260 . S
C158 O148 1.258 . S
C159 O155 1.260 . S
C159 O156 1.258 . S
Zn160 O166 1.969 . S
Zn160 O167 1.965 . S
Zn160 O171 2.024 . S
Zn160 O176 1.969 . S
Zn161 O168 1.969 . S
Zn161 O174 1.969 . S
Zn161 O175 1.965 . S
Zn161 O177 2.024 . S
C162 O163 1.229 . S
C162 O171 1.058 . S
O163 C162 1.229 . S
C164 O165 1.229 . S
C164 O177 1.058 . S
O165 C164 1.229 . S
O166 Zn160 1.969 . S
O166 C169 1.267 . S
O167 Zn160 1.965 . S
O167 C178 1.260 . S
O168 Zn161 1.969 . S
O168 C178 1.258 . S
C169 O166 1.267 . S
C169 O170 1.228 . S
O170 C169 1.228 . S
O171 Zn160 2.024 . S
O171 C162 1.058 . S
C172 O173 1.228 . S
C172 O174 1.267 . S
O173 C172 1.228 . S
O174 Zn161 1.969 . S
O174 C172 1.267 . S
O175 Zn161 1.965 . S
O175 C179 1.260 . S
O176 Zn160 1.969 . S
O176 C179 1.258 . S
O177 Zn161 2.024 . S
O177 C164 1.058 . S
C178 O167 1.260 . S
C178 O168 1.258 . S
C179 O175 1.260 . S
C179 O176 1.258 . S
Zn180 O186 1.969 . S
Zn180 O187 1.965 . S
Zn180 O191 2.024 . S
Zn180 O196 1.969 . S
Zn181 O188 1.969 . S
Zn181 O194 1.969 . S
Zn181 O195 1.965 . S
Zn181 O197 2.024 . S
C182 O183 1.229 . S
C182 O191 1.058 . S
O183 C182 1.229 . S
C184 O185 1.229 . S
C184 O197 1.058 . S
O185 C184 1.229 . S
O186 Zn180 1.969 . S
O186 C189 1.267 . S
O187 Zn180 1.965 . S
O187 C198 1.260 . S
O188 Zn181 1.969 . S
O188 C198 1.258 . S
C189 O186 1.267 . S
C189 O190 1.228 . S
O190 C189 1.228 . S
O191 Zn180 2.024 . S
O191 C182 1.058 . S
C192 O193 1.228 . S
C192 O194 1.267 . S
O193 C192 1.228 . S
O194 Zn181 1.969 . S
O194 C192 1.267 . S
O195 Zn181 1.965 . S
O195 C199 1.260 . S
O196 Zn180 1.969 . S
O196 C199 1.258 . S
O197 Zn181 2.024 . S
O197 C184 1.058 . S
C198 O187 1.260 . S
C198 O188 1.258 . S
C199 O195 1.260 . S
C199 O196 1.258 . S
Zn200 O206 1.969 . S
Zn200 O207 1.965 . S
Zn200 O211 2.024 . S
Zn200 O216 1.969 . S
Zn201 O208 1.969 . S
Zn201 O214 1.969 . S
Zn201 O215 1.965 . S
Zn201 O217 2.024 . S
C202 O203 1.229 . S
C202 O211 1.058 . S
O203 C202 1.229 . S
C204 O205 1.229 . S
C204 O217 1.058 . S
O205 C204 1.229 . S
O206 Zn200 1.969 . S
O206 C209 1.267 . S
O207 Zn200 1.965 . S
O207 C218 1.260 . S
O208 Zn201 1.969 . S
O208 C218 1.258 . S
C209 O206 1.267 . S
C209 O210 1.228 . S
O210 C209 1.228 . S
O211 Zn200 2.024 . S
O211 C202 1.058 . S
C212 O213 1.228 . S
C212 O214 1.267 . S
O213 C212 1.228 . S
O214 Zn201 1.969 . S
O214 C212 1.267 . S
O215 Zn201 1.965 . S
O215 C219 1.260 . S
O216 Zn200 1.969 . S
O216 C219 1.258 . S
O217 Zn201 2.024 . S
O217 C204 1.058 . S
C218 O207 1.260 . S
C218 O208 1.258 . S
C219 O215 1.260 . S
C219 O216 1.258 . S
Zn220 O226 1.969 . S
Zn220 O227 1.965 . S
Zn220 O231 2.024 . S
Zn220 O236 1.969 . S
Zn221 O228 1.969 . S
Zn221 O234 1.969 . S
Zn221 O235 1.965 . S
Zn221 O237 2.024 . S
C222 O223 1.229 . S
C222 O231 1.058 . S
O223 C222 1.229 . S
C224 O225 1.229 . S
C224 O237 1.058 . S
O225 C224 1.229 . S
O226 Zn220 1.969 . S
O226 C229 1.267 . S
O227 Zn220 1.965 . S
O227 C238 1.260 . S
O228 Zn221 1.969 . S
O228 C238 1.258 . S
C229 O226 1.267 . S
C229 O230 1.228 . S
O230 C229 1.228 . S
O231 Zn220 2.024 . S
O231 C222 1.058 . S
C232 O233 1.228 . S
C232 O234 1.267 . S
O233 C232 1.228 . S
O234 Zn221 1.969 . S
O234 C232 1.267 . S
O235 Zn221 1.965 . S
O235 C239 1.260 . S
O236 Zn220 1.969 . S
O236 C239 1.258 . S
O237 Zn221 2.024 . S
O237 C224 1.058 . S
C238 O227 1.260 . S
C238 O228 1.258 . S
C239 O235 1.260 . S
C239 O236 1.258 . S
Zn240 O246 1.969 . S
Zn240 O247 1.965 . S
Zn240 O251 2.024 . S
Zn240 O256 1.969 . S
Zn241 O248 1.969 . S
Zn241 O254 1.969 . S
Zn241 O255 1.965 . S
Zn241 O257 2.024 . S
C242 O243 1.229 . S
C242 O251 1.058 . S
O243 C242 1.229 . S
C244 O245 1.229 . S
C244 O257 1.058 . S
O245 C244 1.229 . S
O246 Zn240 1.969 . S
O246 C249 1.267 . S
O247 Zn240 1.965 . S
O247 C258 1.260 . S
O248 Zn241 1.969 . S
O248 C258 1.258 . S
C249 O246 1.267 . S
C249 O250 1.228 . S
O250 C249 1.228 . S
O251 Zn240 2.024 . S
O251 C242 1.058 . S
C252 O253 1.228 . S
C252 O254 1.267 . S
O253 C252 1.228 . S
O254 Zn241 1.969 . S
O254 C252 1.267 . S
O255 Zn241 1.965 . S
O255 C259 1.260 . S
O256 Zn240 1.969 . S
O256 C259 1.258 . S
O257 Zn241 2.024 . S
O257 C244 1.058 . S
C258 O247 1.260 . S
C258 O248 1.258 . S
C259 O255 1.260 . S
C259 O256 1.258 . S
Zn260 O266 1.969 . S
Zn260 O267 1.965 . S
Zn260 O271 2.024 . S
Zn260 O276 1.969 . S
Zn261 O268 1.969 . S
Zn261 O274 1.969 . S
Zn261 O275 1.965 . S
Zn261 O277 2.024 . S
C262 O263 1.229 . S
C262 O271 1.058 . S
O263 C262 1.229 . S
C264 O265 1.229 . S
C264 O277 1.058 . S
O265 C264 1.229 . S
O266 Zn260 1.969 . S
O266 C269 1.267 . S
O267 Zn260 1.965 . S
O267 C278 1.260 . S
O268 Zn261 1.969 . S
O268 C278 1.258 . S
C269 O266 1.267 . S
C269 O270 1.228 . S
O270 C269 1.228 . S
O271 Zn260 2.024 . S
O271 C262 1.058 . S
C272 O273 1.228 . S
C272 O274 1.267 . S
O273 C272 1.228 . S
O274 Zn261 1.969 . S
O274 C272 1.267 . S
O275 Zn261 1.965 . S
O275 C279 1.260 . S
O276 Zn260 1.969 . S
O276 C279 1.258 . S
O277 Zn261 2.024 . S
O277 C264 1.058 . S
C278 O267 1.260 . S
C278 O268 1.258 . S
C279 O275 1.260 . S
C279 O276 1.258 . S
Zn280 O286 1.969 . S
Zn280 O287 1.965 . S
Zn280 O291 2.024 . S
Zn280 O296 1.969 . S
Zn281 O288 1.969 . S
Zn281 O294 1.969 . S
Zn281 O295 1.965 . S
Zn281 O297 2.024 . S
C282 O283 1.229 . S
C282 O291 1.058 . S
O283 C282 1.229 . S
C284 O285 1.229 . S
C284 O297 1.058 . S
O285 C284 1.229 . S
O286 Zn280 1.969 . S
O286 C289 1.267 . S
O287 Zn280 1.965 . S
O287 C298 1.260 . S
O288 Zn281 1.969 . S
O288 C298 1.258 . S
C289 O286 1.267 . S
C289 O290 1.228 . S
O290 C289 1.228 . S
O291 Zn280 2.024 . S
O291 C282 1.058 . S
C292 O293 1.228 . S
C292 O294 1.267 . S
O293 C292 1.228 . S
O294 Zn281 1.969 . S
O294 C292 1.267 . S
O295 Zn281 1.965 . S
O295 C299 1.260 . S
O296 Zn280 1.969 . S
O296 C299 1.258 . S
O297 Zn281 2.024 . S
O297 C284 1.058 . S
C298 O287 1.260 . S
C298 O288 1.258 . S
C299 O295 1.260 . S
C299 O296 1.258 . S
Zn300 O306 1.969 . S
Zn300 O307 1.965 . S
Zn300 O311 2.024 . S
Zn300 O316 1.969 . S
Zn301 O308 1.969 . S
Zn301 O314 1.969 . S
Zn301 O315 1.965 . S
Zn301 O317 2.024 . S
C302 O303 1.229 . S
C302 O311 1.058 . S
O303 C302 1.229 . S
C304 O305 1.229 . S
C304 O317 1.058 . S
O305 C304 1.229 . S
O306 Zn300 1.969 . S
O306 C309 1.267 . S
O307 Zn300 1.965 . S
O307 C318 1.260 . S
O308 Zn301 1.969 . S
O308 C318 1.258 . S
C309 O306 1.267 . S
C309 O310 1.228 . S
O310 C309 1.228 . S
O311 Zn300 2.024 . S
O311 C302 1.058 . S
C312 O313 1.228 . S
C312 O314 1.267 . S
O313 C312 1.228 . S
O314 Zn301 1.969 . S
O314 C312 1.267 . S
O315 Zn301 1.965 . S
O315 C319 1.260 . S
O316 Zn300 1.969 . S
O316 C319 1.258 . S
O317 Zn301 2.024 . S
O317 C304 1.058 . S
C318 O307 1.260 . S
C318 O308 1.258 . S
C319 O315 1.260 . S
C319 O316 1.258 . S
H320 C332 0.930 . S
H321 C334 0.930 . S
H322 C335 0.930 . S
H323 C339 0.959 . S
H324 C339 0.959 . S
H325 C339 0.961 . S
H326 C340 0.960 . S
H327 C340 0.961 . S
H328 C340 0.959 . S
H329 C343 0.929 . S
H330 C344 0.931 . S
H331 C346 0.930 . S
C332 H320 0.930 . S
C332 C333 1.399 . S
C332 C337 1.399 1_565 S
C333 C332 1.399 . S
C333 C334 1.376 . S
C334 H321 0.930 . S
C334 C333 1.376 . S
C334 C335 1.388 . S
C335 H322 0.930 . S
C335 C334 1.388 . S
C335 C336 1.390 1_565 S
C336 C335 1.390 1_545 S
C336 C337 1.394 . S
C336 C342 1.465 . S
C337 C332 1.399 1_545 S
C337 C336 1.394 . S
C337 C338 1.516 . S
C338 C337 1.516 . S
C338 C339 1.502 . S
C338 C340 1.561 . S
C338 C341 1.526 . S
C339 H323 0.959 . S
C339 H324 0.959 . S
C339 H325 0.961 . S
C339 C338 1.502 . S
C340 H326 0.960 . S
C340 H327 0.961 . S
C340 H328 0.959 . S
C340 C338 1.561 . S
C341 C338 1.526 . S
C341 C342 1.396 . S
C341 C346 1.390 . S
C342 C336 1.465 . S
C342 C341 1.396 . S
C342 C343 1.399 . S
C343 H329 0.929 . S
C343 C342 1.399 . S
C343 C344 1.385 . S
C344 H330 0.931 . S
C344 C343 1.385 . S
C344 C345 1.389 . S
C345 C344 1.389 . S
C345 C346 1.387 . S
C346 H331 0.930 . S
C346 C341 1.390 . S
C346 C345 1.387 . S
H347 C359 0.930 . S
H348 C361 0.930 . S
H349 C362 0.930 . S
H350 C366 0.959 . S
H351 C366 0.959 . S
H352 C366 0.961 . S
H353 C367 0.960 1_655 S
H354 C367 0.961 . S
H355 C367 0.959 . S
H356 C370 0.929 . S
H357 C371 0.931 . S
H358 C373 0.930 . S
C359 H347 0.930 . S
C359 C360 1.399 . S
C359 C364 1.399 . S
C360 C359 1.399 . S
C360 C361 1.376 . S
C361 H348 0.930 . S
C361 C360 1.376 . S
C361 C362 1.388 . S
C362 H349 0.930 . S
C362 C361 1.388 . S
C362 C363 1.390 1_655 S
C363 C362 1.390 1_455 S
C363 C364 1.394 1_455 S
C363 C369 1.465 . S
C364 C359 1.399 . S
C364 C363 1.394 1_655 S
C364 C365 1.516 1_655 S
C365 C364 1.516 1_455 S
C365 C366 1.502 . S
C365 C367 1.561 . S
C365 C368 1.526 . S
C366 H350 0.959 . S
C366 H351 0.959 . S
C366 H352 0.961 . S
C366 C365 1.502 . S
C367 H353 0.960 1_455 S
C367 H354 0.961 . S
C367 H355 0.959 . S
C367 C365 1.561 . S
C368 C365 1.526 . S
C368 C369 1.396 . S
C368 C373 1.390 . S
C369 C363 1.465 . S
C369 C368 1.396 . S
C369 C370 1.399 . S
C370 H356 0.929 . S
C370 C369 1.399 . S
C370 C371 1.385 . S
C371 H357 0.931 . S
C371 C370 1.385 . S
C371 C372 1.389 . S
C372 C371 1.389 . S
C372 C373 1.387 . S
C373 H358 0.930 . S
C373 C368 1.390 . S
C373 C372 1.387 . S
H374 C386 0.930 . S
H375 C388 0.930 . S
H376 C389 0.930 . S
H377 C393 0.959 . S
H378 C393 0.959 . S
H379 C393 0.961 . S
H380 C394 0.960 . S
H381 C394 0.961 1_545 S
H382 C394 0.959 . S
H383 C397 0.917 1_565 S
H384 C398 0.931 . S
H385 C400 0.930 . S
C386 H374 0.930 . S
C386 C387 1.399 . S
C386 C391 1.399 . S
C387 C386 1.399 . S
C387 C388 1.376 . S
C388 H375 0.930 . S
C388 C387 1.376 . S
C388 C389 1.388 . S
C389 H376 0.930 . S
C389 C388 1.388 . S
C389 C390 1.390 . S
C390 C389 1.390 . S
C390 C391 1.394 . S
C390 C396 1.465 . S
C391 C386 1.399 . S
C391 C390 1.394 . S
C391 C392 1.516 . S
C392 C391 1.516 . S
C392 C393 1.502 . S
C392 C394 1.561 . S
C392 C395 1.526 1_565 S
C393 H377 0.959 . S
C393 H378 0.959 . S
C393 H379 0.961 . S
C393 C392 1.502 . S
C394 H380 0.960 . S
C394 H381 0.961 1_565 S
C394 H382 0.959 . S
C394 C392 1.561 . S
C395 C392 1.526 1_545 S
C395 C396 1.396 1_545 S
C395 C400 1.390 . S
C396 C390 1.465 . S
C396 C395 1.396 1_565 S
C396 C397 1.399 1_565 S
C397 H383 0.917 1_545 S
C397 C396 1.399 1_545 S
C397 C398 1.385 . S
C398 H384 0.931 . S
C398 C397 1.385 . S
C398 C399 1.389 . S
C399 C398 1.389 . S
C399 C400 1.387 . S
C400 H385 0.930 . S
C400 C395 1.390 . S
C400 C399 1.387 . S
H401 C413 0.930 . S
H402 C415 0.930 . S
H403 C416 0.930 . S
H404 C420 0.959 . S
H405 C420 0.959 . S
H406 C420 0.961 . S
H407 C421 0.960 . S
H408 C421 0.961 . S
H409 C421 0.959 . S
H410 C424 0.929 . S
H411 C425 0.931 . S
H412 C427 0.930 . S
C413 H401 0.930 . S
C413 C414 1.399 . S
C413 C418 1.399 . S
C414 C413 1.399 . S
C414 C415 1.376 . S
C415 H402 0.930 . S
C415 C414 1.376 . S
C415 C416 1.388 . S
C416 H403 0.930 . S
C416 C415 1.388 . S
C416 C417 1.390 . S
C417 C416 1.390 . S
C417 C418 1.394 . S
C417 C423 1.465 . S
C418 C413 1.399 . S
C418 C417 1.394 . S
C418 C419 1.516 . S
C419 C418 1.516 . S
C419 C420 1.502 . S
C419 C421 1.561 . S
C419 C422 1.523 1_655 S
C420 H404 0.959 . S
C420 H405 0.959 . S
C420 H406 0.961 . S
C420 C419 1.502 . S
C421 H407 0.960 . S
C421 H408 0.961 . S
C421 H409 0.959 . S
C421 C419 1.561 . S
C422 C419 1.523 1_455 S
C422 C423 1.396 1_455 S
C422 C427 1.392 . S
C423 C417 1.465 . S
C423 C422 1.396 1_655 S
C423 C424 1.399 1_655 S
C424 H410 0.929 . S
C424 C423 1.399 1_455 S
C424 C425 1.385 . S
C425 H411 0.931 . S
C425 C424 1.385 . S
C425 C426 1.389 . S
C426 C425 1.389 . S
C426 C427 1.387 . S
C427 H412 0.930 . S
C427 C422 1.392 . S
C427 C426 1.387 . S
H428 C440 0.930 1_556 S
H429 C442 0.930 . S
H430 C443 0.930 . S
H431 C447 0.959 . S
H432 C447 0.959 . S
H433 C447 0.961 . S
H434 C448 0.960 . S
H435 C448 0.961 . S
H436 C448 0.959 . S
H437 C451 0.929 . S
H438 C452 0.931 . S
H439 C454 0.930 . S
C440 H428 0.930 1_554 S
C440 C441 1.399 . S
C440 C445 1.399 . S
C441 C440 1.399 . S
C441 C442 1.376 . S
C442 H429 0.930 . S
C442 C441 1.376 . S
C442 C443 1.388 . S
C443 H430 0.930 . S
C443 C442 1.388 . S
C443 C444 1.390 . S
C444 C443 1.390 . S
C444 C445 1.394 . S
C444 C450 1.465 . S
C445 C440 1.399 . S
C445 C444 1.394 . S
C445 C446 1.516 1_554 S
C446 C445 1.516 1_556 S
C446 C447 1.502 . S
C446 C448 1.561 . S
C446 C449 1.526 . S
C447 H431 0.959 . S
C447 H432 0.959 . S
C447 H433 0.961 . S
C447 C446 1.502 . S
C448 H434 0.960 . S
C448 H435 0.961 . S
C448 H436 0.959 . S
C448 C446 1.561 . S
C449 C446 1.526 . S
C449 C450 1.396 1_556 S
C449 C454 1.390 . S
C450 C444 1.465 . S
C450 C449 1.396 1_554 S
C450 C451 1.399 . S
C451 H437 0.929 . S
C451 C450 1.399 . S
C451 C452 1.385 . S
C452 H438 0.931 . S
C452 C451 1.385 . S
C452 C453 1.393 . S
C453 C452 1.393 . S
C453 C454 1.385 1_554 S
C454 H439 0.930 . S
C454 C449 1.390 . S
C454 C453 1.385 1_556 S
H455 C467 0.930 . S
H456 C469 0.930 . S
H457 C470 0.930 . S
H458 C474 0.959 . S
H459 C474 0.959 . S
H460 C474 0.961 . S
H461 C475 0.960 . S
H462 C475 0.961 . S
H463 C475 0.959 . S
H464 C478 0.929 . S
H465 C479 0.931 . S
H466 C481 0.930 1_554 S
C467 H455 0.930 . S
C467 C468 1.399 1_554 S
C467 C472 1.399 . S
C468 C467 1.399 1_556 S
C468 C469 1.376 . S
C469 H456 0.930 . S
C469 C468 1.376 . S
C469 C470 1.388 . S
C470 H457 0.930 . S
C470 C469 1.388 . S
C470 C471 1.390 . S
C471 C470 1.390 . S
C471 C472 1.394 1_556 S
C471 C477 1.465 . S
C472 C467 1.399 . S
C472 C471 1.394 1_554 S
C472 C473 1.516 . S
C473 C472 1.516 . S
C473 C474 1.502 . S
C473 C475 1.561 . S
C473 C476 1.526 1_554 S
C474 H458 0.959 . S
C474 H459 0.959 . S
C474 H460 0.961 . S
C474 C473 1.502 . S
C475 H461 0.960 . S
C475 H462 0.961 . S
C475 H463 0.959 . S
C475 C473 1.561 . S
C476 C473 1.526 1_556 S
C476 C477 1.396 . S
C476 C481 1.390 . S
C477 C471 1.465 . S
C477 C476 1.396 . S
C477 C478 1.399 . S
C478 H464 0.929 . S
C478 C477 1.399 . S
C478 C479 1.385 . S
C479 H465 0.931 . S
C479 C478 1.385 . S
C479 C480 1.389 . S
C480 C479 1.389 . S
C480 C481 1.387 . S
C481 H466 0.930 1_556 S
C481 C476 1.390 . S
C481 C480 1.387 . S
H482 C494 0.930 . S
H483 C496 0.930 1_556 S
H484 C497 0.930 . S
H485 C501 0.959 . S
H486 C501 0.959 . S
H487 C501 0.961 . S
H488 C502 0.960 . S
H489 C502 0.961 . S
H490 C502 0.959 . S
H491 C505 0.929 . S
H492 C506 0.931 . S
H493 C508 0.930 . S
C494 H482 0.930 . S
C494 C495 1.399 . S
C494 C499 1.399 . S
C495 C494 1.399 . S
C495 C496 1.376 . S
C496 H483 0.930 1_554 S
C496 C495 1.376 . S
C496 C497 1.388 1_554 S
C497 H484 0.930 . S
C497 C496 1.388 1_556 S
C497 C498 1.390 1_556 S
C498 C497 1.390 1_554 S
C498 C499 1.394 . S
C498 C504 1.465 1_554 S
C499 C494 1.399 . S
C499 C498 1.394 . S
C499 C500 1.516 . S
C500 C499 1.516 . S
C500 C501 1.502 . S
C500 C502 1.561 . S
C500 C503 1.526 . S
C501 H485 0.959 . S
C501 H486 0.959 . S
C501 H487 0.961 . S
C501 C500 1.502 . S
C502 H488 0.960 . S
C502 H489 0.961 . S
C502 H490 0.959 . S
C502 C500 1.561 . S
C503 C500 1.526 . S
C503 C504 1.396 1_554 S
C503 C508 1.390 . S
C504 C498 1.465 1_556 S
C504 C503 1.396 1_556 S
C504 C505 1.399 . S
C505 H491 0.929 . S
C505 C504 1.399 . S
C505 C506 1.385 . S
C506 H492 0.931 . S
C506 C505 1.385 . S
C506 C507 1.389 . S
C507 C506 1.389 . S
C507 C508 1.387 1_556 S
C508 H493 0.930 . S
C508 C503 1.390 . S
C508 C507 1.387 1_554 S
H509 C521 0.930 1_554 S
H510 C523 0.930 . S
H511 C524 0.930 . S
H512 C528 0.959 . S
H513 C528 0.959 . S
H514 C528 0.961 . S
H515 C529 0.960 . S
H516 C529 0.961 . S
H517 C529 0.959 . S
H518 C532 0.929 . S
H519 C533 0.931 . S
H520 C535 0.930 . S
C521 H509 0.930 1_556 S
C521 C522 1.399 1_556 S
C521 C526 1.399 . S
C522 C521 1.399 1_554 S
C522 C523 1.376 1_554 S
C523 H510 0.930 . S
C523 C522 1.376 1_556 S
C523 C524 1.388 . S
C524 H511 0.930 . S
C524 C523 1.388 . S
C524 C525 1.390 . S
C525 C524 1.390 . S
C525 C526 1.394 . S
C525 C531 1.465 . S
C526 C521 1.399 . S
C526 C525 1.394 . S
C526 C527 1.516 . S
C527 C526 1.516 . S
C527 C528 1.502 1_556 S
C527 C529 1.561 . S
C527 C530 1.526 . S
C528 H512 0.959 . S
C528 H513 0.959 . S
C528 H514 0.961 . S
C528 C527 1.502 1_554 S
C529 H515 0.960 . S
C529 H516 0.961 . S
C529 H517 0.959 . S
C529 C527 1.561 . S
C530 C527 1.526 . S
C530 C531 1.396 . S
C530 C535 1.390 . S
C531 C525 1.465 . S
C531 C530 1.396 . S
C531 C532 1.399 . S
C532 H518 0.929 . S
C532 C531 1.399 . S
C532 C533 1.385 . S
C533 H519 0.931 . S
C533 C532 1.385 . S
C533 C534 1.389 . S
C534 C533 1.389 . S
C534 C535 1.387 . S
C535 H520 0.930 . S
C535 C530 1.390 . S
C535 C534 1.387 . S
H536 C548 0.930 . S
H537 C550 0.930 . S
H538 C551 0.930 . S
H539 C555 0.959 . S
H540 C555 0.959 . S
H541 C555 0.961 . S
H542 C556 0.960 . S
H543 C556 0.961 . S
H544 C556 0.959 . S
H545 C559 0.929 . S
H546 C560 0.931 . S
H547 C562 0.930 . S
C548 H536 0.930 . S
C548 C549 1.399 . S
C548 C553 1.399 . S
C549 C548 1.399 . S
C549 C550 1.376 . S
C550 H537 0.930 . S
C550 C549 1.376 . S
C550 C551 1.388 . S
C551 H538 0.930 . S
C551 C550 1.388 . S
C551 C552 1.390 . S
C552 C551 1.390 . S
C552 C553 1.394 . S
C552 C558 1.465 . S
C553 C548 1.399 . S
C553 C552 1.394 . S
C553 C554 1.516 . S
C554 C553 1.516 . S
C554 C555 1.502 . S
C554 C556 1.561 . S
C554 C557 1.526 . S
C555 H539 0.959 . S
C555 H540 0.959 . S
C555 H541 0.961 . S
C555 C554 1.502 . S
C556 H542 0.960 . S
C556 H543 0.961 . S
C556 H544 0.959 . S
C556 C554 1.561 . S
C557 C554 1.526 . S
C557 C558 1.396 . S
C557 C562 1.390 . S
C558 C552 1.465 . S
C558 C557 1.396 . S
C558 C559 1.399 . S
C559 H545 0.929 . S
C559 C558 1.399 . S
C559 C560 1.385 . S
C560 H546 0.931 . S
C560 C559 1.385 . S
C560 C561 1.389 . S
C561 C560 1.389 . S
C561 C562 1.387 . S
C562 H547 0.930 . S
C562 C557 1.390 . S
C562 C561 1.387 . S
H563 C575 0.930 . S
H564 C577 0.930 . S
H565 C578 0.930 . S
H566 C582 0.959 . S
H567 C582 0.959 . S
H568 C582 0.961 . S
H569 C583 0.960 . S
H570 C583 0.961 . S
H571 C583 0.959 . S
H572 C586 0.929 . S
H573 C587 0.931 . S
H574 C589 0.930 . S
C575 H563 0.930 . S
C575 C576 1.399 . S
C575 C580 1.399 . S
C576 C575 1.399 . S
C576 C577 1.376 . S
C577 H564 0.930 . S
C577 C576 1.376 . S
C577 C578 1.388 . S
C578 H565 0.930 . S
C578 C577 1.388 . S
C578 C579 1.390 . S
C579 C578 1.390 . S
C579 C580 1.394 . S
C579 C585 1.465 . S
C580 C575 1.399 . S
C580 C579 1.394 . S
C580 C581 1.516 . S
C581 C580 1.516 . S
C581 C582 1.502 . S
C581 C583 1.561 . S
C581 C584 1.526 . S
C582 H566 0.959 . S
C582 H567 0.959 . S
C582 H568 0.961 . S
C582 C581 1.502 . S
C583 H569 0.960 . S
C583 H570 0.961 . S
C583 H571 0.959 . S
C583 C581 1.561 . S
C584 C581 1.526 . S
C584 C585 1.396 . S
C584 C589 1.390 . S
C585 C579 1.465 . S
C585 C584 1.396 . S
C585 C586 1.399 . S
C586 H572 0.929 . S
C586 C585 1.399 . S
C586 C587 1.385 . S
C587 H573 0.931 . S
C587 C586 1.385 . S
C587 C588 1.389 . S
C588 C587 1.389 . S
C588 C589 1.387 . S
C589 H574 0.930 . S
C589 C584 1.390 . S
C589 C588 1.387 . S
H590 C602 0.930 . S
H591 C604 0.930 . S
H592 C605 0.930 . S
H593 C609 0.959 . S
H594 C609 0.959 . S
H595 C609 0.961 . S
H596 C610 0.960 . S
H597 C610 0.961 . S
H598 C610 0.959 . S
H599 C613 0.929 . S
H600 C614 0.931 . S
H601 C616 0.930 . S
C602 H590 0.930 . S
C602 C603 1.399 . S
C602 C607 1.399 . S
C603 C602 1.399 . S
C603 C604 1.376 . S
C604 H591 0.930 . S
C604 C603 1.376 . S
C604 C605 1.388 . S
C605 H592 0.930 . S
C605 C604 1.388 . S
C605 C606 1.390 . S
C606 C605 1.390 . S
C606 C607 1.394 . S
C606 C612 1.465 . S
C607 C602 1.399 . S
C607 C606 1.394 . S
C607 C608 1.516 . S
C608 C607 1.516 . S
C608 C609 1.502 . S
C608 C610 1.561 . S
C608 C611 1.526 . S
C609 H593 0.959 . S
C609 H594 0.959 . S
C609 H595 0.961 . S
C609 C608 1.502 . S
C610 H596 0.960 . S
C610 H597 0.961 . S
C610 H598 0.959 . S
C610 C608 1.561 . S
C611 C608 1.526 . S
C611 C612 1.396 . S
C611 C616 1.390 . S
C612 C606 1.465 . S
C612 C611 1.396 . S
C612 C613 1.399 . S
C613 H599 0.929 . S
C613 C612 1.399 . S
C613 C614 1.385 . S
C614 H600 0.931 . S
C614 C613 1.385 . S
C614 C615 1.389 . S
C615 C614 1.389 . S
C615 C616 1.387 . S
C616 H601 0.930 . S
C616 C611 1.390 . S
C616 C615 1.387 . S
H617 C629 0.930 . S
H618 C631 0.930 . S
H619 C632 0.930 . S
H620 C636 0.959 . S
H621 C636 0.959 . S
H622 C636 0.961 . S
H623 C637 0.960 . S
H624 C637 0.961 . S
H625 C637 0.959 . S
H626 C640 0.929 . S
H627 C641 0.931 . S
H628 C643 0.930 . S
C629 H617 0.930 . S
C629 C630 1.399 . S
C629 C634 1.399 . S
C630 C629 1.399 . S
C630 C631 1.376 . S
C631 H618 0.930 . S
C631 C630 1.376 . S
C631 C632 1.388 . S
C632 H619 0.930 . S
C632 C631 1.388 . S
C632 C633 1.390 . S
C633 C632 1.390 . S
C633 C634 1.394 . S
C633 C639 1.465 . S
C634 C629 1.399 . S
C634 C633 1.394 . S
C634 C635 1.516 . S
C635 C634 1.516 . S
C635 C636 1.502 . S
C635 C637 1.561 . S
C635 C638 1.526 . S
C636 H620 0.959 . S
C636 H621 0.959 . S
C636 H622 0.961 . S
C636 C635 1.502 . S
C637 H623 0.960 . S
C637 H624 0.961 . S
C637 H625 0.959 . S
C637 C635 1.561 . S
C638 C635 1.526 . S
C638 C639 1.396 . S
C638 C643 1.390 . S
C639 C633 1.465 . S
C639 C638 1.396 . S
C639 C640 1.399 . S
C640 H626 0.929 . S
C640 C639 1.399 . S
C640 C641 1.385 . S
C641 H627 0.931 . S
C641 C640 1.385 . S
C641 C642 1.389 . S
C642 C641 1.389 . S
C642 C643 1.387 . S
C643 H628 0.930 . S
C643 C638 1.390 . S
C643 C642 1.387 . S
H644 C656 0.930 . S
H645 C658 0.930 . S
H646 C659 0.930 . S
H647 C663 0.959 . S
H648 C663 0.959 . S
H649 C663 0.961 . S
H650 C664 0.960 . S
H651 C664 0.961 . S
H652 C664 0.959 . S
H653 C667 0.929 . S
H654 C668 0.931 . S
H655 C670 0.930 . S
C656 H644 0.930 . S
C656 C657 1.399 . S
C656 C661 1.399 . S
C657 C656 1.399 . S
C657 C658 1.376 . S
C658 H645 0.930 . S
C658 C657 1.376 . S
C658 C659 1.388 . S
C659 H646 0.930 . S
C659 C658 1.388 . S
C659 C660 1.390 . S
C660 C659 1.390 . S
C660 C661 1.394 . S
C660 C666 1.465 . S
C661 C656 1.399 . S
C661 C660 1.394 . S
C661 C662 1.516 . S
C662 C661 1.516 . S
C662 C663 1.502 . S
C662 C664 1.561 . S
C662 C665 1.526 . S
C663 H647 0.959 . S
C663 H648 0.959 . S
C663 H649 0.961 . S
C663 C662 1.502 . S
C664 H650 0.960 . S
C664 H651 0.961 . S
C664 H652 0.959 . S
C664 C662 1.561 . S
C665 C662 1.526 . S
C665 C666 1.396 . S
C665 C670 1.390 1_565 S
C666 C660 1.465 . S
C666 C665 1.396 . S
C666 C667 1.399 1_565 S
C667 H653 0.929 . S
C667 C666 1.399 1_545 S
C667 C668 1.385 . S
C668 H654 0.931 . S
C668 C667 1.385 . S
C668 C669 1.389 . S
C669 C668 1.389 . S
C669 C670 1.387 . S
C670 H655 0.930 . S
C670 C665 1.390 1_545 S
C670 C669 1.387 . S
H671 C683 0.930 . S
H672 C685 0.930 . S
H673 C686 0.930 . S
H674 C690 0.959 . S
H675 C690 0.959 . S
H676 C690 0.961 . S
H677 C691 0.960 . S
H678 C691 0.961 . S
H679 C691 0.959 . S
H680 C694 0.929 . S
H681 C695 0.931 . S
H682 C697 0.930 . S
C683 H671 0.930 . S
C683 C684 1.399 . S
C683 C688 1.356 1_455 S
C684 C683 1.399 . S
C684 C685 1.376 . S
C685 H672 0.930 . S
C685 C684 1.376 . S
C685 C686 1.388 . S
C686 H673 0.930 . S
C686 C685 1.388 . S
C686 C687 1.390 1_455 S
C687 C686 1.390 1_655 S
C687 C688 1.399 . S
C687 C693 1.465 . S
C688 C683 1.356 1_655 S
C688 C687 1.399 . S
C688 C689 1.558 . S
C689 C688 1.558 . S
C689 C690 1.502 . S
C689 C691 1.561 . S
C689 C692 1.526 . S
C690 H674 0.959 . S
C690 H675 0.959 . S
C690 H676 0.961 . S
C690 C689 1.502 . S
C691 H677 0.960 . S
C691 H678 0.961 . S
C691 H679 0.959 . S
C691 C689 1.561 . S
C692 C689 1.526 . S
C692 C693 1.396 . S
C692 C697 1.390 . S
C693 C687 1.465 . S
C693 C692 1.396 . S
C693 C694 1.399 . S
C694 H680 0.929 . S
C694 C693 1.399 . S
C694 C695 1.385 . S
C695 H681 0.931 . S
C695 C694 1.385 . S
C695 C696 1.389 . S
C696 C695 1.389 . S
C696 C697 1.387 . S
C697 H682 0.930 . S
C697 C692 1.390 . S
C697 C696 1.387 . S
H698 C710 0.930 . S
H699 C712 0.930 . S
H700 C713 0.930 1_545 S
H701 C717 0.959 . S
H702 C717 0.959 . S
H703 C717 0.961 1_565 S
H704 C718 0.960 1_565 S
H705 C718 0.961 . S
H706 C718 0.959 . S
H707 C721 0.929 . S
H708 C722 0.931 . S
H709 C724 0.930 . S
C710 H698 0.930 . S
C710 C711 1.399 . S
C710 C715 1.399 . S
C711 C710 1.399 . S
C711 C712 1.376 . S
C712 H699 0.930 . S
C712 C711 1.376 . S
C712 C713 1.388 . S
C713 H700 0.930 1_565 S
C713 C712 1.388 . S
C713 C714 1.390 1_565 S
C714 C713 1.390 1_545 S
C714 C715 1.394 1_545 S
C714 C720 1.465 . S
C715 C710 1.399 . S
C715 C714 1.394 1_565 S
C715 C716 1.516 1_565 S
C716 C715 1.516 1_545 S
C716 C717 1.502 . S
C716 C718 1.561 . S
C716 C719 1.526 . S
C717 H701 0.959 . S
C717 H702 0.959 . S
C717 H703 0.961 1_545 S
C717 C716 1.502 . S
C718 H704 0.960 1_545 S
C718 H705 0.961 . S
C718 H706 0.959 . S
C718 C716 1.561 . S
C719 C716 1.526 . S
C719 C720 1.396 . S
C719 C724 1.390 . S
C720 C714 1.465 . S
C720 C719 1.396 . S
C720 C721 1.399 . S
C721 H707 0.929 . S
C721 C720 1.399 . S
C721 C722 1.385 . S
C722 H708 0.931 . S
C722 C721 1.385 . S
C722 C723 1.389 . S
C723 C722 1.389 . S
C723 C724 1.387 . S
C724 H709 0.930 . S
C724 C719 1.390 . S
C724 C723 1.387 . S
H725 C737 0.930 . S
H726 C739 0.930 . S
H727 C740 0.930 . S
H728 C744 0.959 . S
H729 C744 0.959 1_655 S
H730 C744 0.961 . S
H731 C745 0.960 . S
H732 C745 0.961 . S
H733 C745 0.959 . S
H734 C748 0.933 . S
H735 C749 0.931 . S
H736 C751 0.930 . S
C737 H725 0.930 . S
C737 C738 1.399 . S
C737 C742 1.399 . S
C738 C737 1.399 . S
C738 C739 1.376 . S
C739 H726 0.930 . S
C739 C738 1.376 . S
C739 C740 1.388 . S
C740 H727 0.930 . S
C740 C739 1.388 . S
C740 C741 1.390 . S
C741 C740 1.390 . S
C741 C742 1.394 . S
C741 C747 1.465 . S
C742 C737 1.399 . S
C742 C741 1.394 . S
C742 C743 1.516 . S
C743 C742 1.516 . S
C743 C744 1.502 . S
C743 C745 1.561 . S
C743 C746 1.526 1_455 S
C744 H728 0.959 . S
C744 H729 0.959 1_455 S
C744 H730 0.961 . S
C744 C743 1.502 . S
C745 H731 0.960 . S
C745 H732 0.961 . S
C745 H733 0.959 . S
C745 C743 1.561 . S
C746 C743 1.526 1_655 S
C746 C747 1.396 1_655 S
C746 C751 1.390 . S
C747 C741 1.465 . S
C747 C746 1.396 1_455 S
C747 C748 1.399 1_455 S
C748 H734 0.933 . S
C748 C747 1.399 1_655 S
C748 C749 1.385 . S
C749 H735 0.931 . S
C749 C748 1.385 . S
C749 C750 1.389 . S
C750 C749 1.389 . S
C750 C751 1.387 . S
C751 H736 0.930 . S
C751 C746 1.390 . S
C751 C750 1.387 . S
H752 C764 0.930 . S
H753 C766 0.924 1_556 S
H754 C767 0.930 1_556 S
H755 C771 0.959 . S
H756 C771 0.959 . S
H757 C771 0.961 . S
H758 C772 0.960 . S
H759 C772 0.961 . S
H760 C772 0.959 . S
H761 C775 0.929 1_556 S
H762 C776 0.931 . S
H763 C778 0.930 . S
C764 H752 0.930 . S
C764 C765 1.399 . S
C764 C769 1.399 . S
C765 C764 1.399 . S
C765 C766 1.376 . S
C766 H753 0.924 1_554 S
C766 C765 1.376 . S
C766 C767 1.388 . S
C767 H754 0.930 1_554 S
C767 C766 1.388 . S
C767 C768 1.390 . S
C768 C767 1.390 . S
C768 C769 1.394 . S
C768 C774 1.465 . S
C769 C764 1.399 . S
C769 C768 1.394 . S
C769 C770 1.516 . S
C770 C769 1.516 . S
C770 C771 1.502 . S
C770 C772 1.561 . S
C770 C773 1.526 . S
C771 H755 0.959 . S
C771 H756 0.959 . S
C771 H757 0.961 . S
C771 C770 1.502 . S
C772 H758 0.960 . S
C772 H759 0.961 . S
C772 H760 0.959 . S
C772 C770 1.561 . S
C773 C770 1.526 . S
C773 C774 1.396 . S
C773 C778 1.390 . S
C774 C768 1.465 . S
C774 C773 1.396 . S
C774 C775 1.399 . S
C775 H761 0.929 1_554 S
C775 C774 1.399 . S
C775 C776 1.385 . S
C776 H762 0.931 . S
C776 C775 1.385 . S
C776 C777 1.389 . S
C777 C776 1.389 . S
C777 C778 1.387 . S
C778 H763 0.930 . S
C778 C773 1.390 . S
C778 C777 1.387 . S
H779 C791 0.930 . S
H780 C793 0.930 . S
H781 C794 0.930 . S
H782 C798 0.959 1_554 S
H783 C798 0.959 . S
H784 C798 0.961 . S
H785 C799 0.960 . S
H786 C799 0.961 . S
H787 C799 0.959 . S
H788 C802 0.929 . S
H789 C803 0.931 . S
H790 C805 0.930 . S
C791 H779 0.930 . S
C791 C792 1.399 . S
C791 C796 1.399 . S
C792 C791 1.399 . S
C792 C793 1.376 . S
C793 H780 0.930 . S
C793 C792 1.376 . S
C793 C794 1.388 . S
C794 H781 0.930 . S
C794 C793 1.388 . S
C794 C795 1.390 . S
C795 C794 1.390 . S
C795 C796 1.394 . S
C795 C801 1.465 . S
C796 C791 1.399 . S
C796 C795 1.394 . S
C796 C797 1.516 . S
C797 C796 1.516 . S
C797 C798 1.502 . S
C797 C799 1.561 . S
C797 C800 1.526 . S
C798 H782 0.959 1_556 S
C798 H783 0.959 . S
C798 H784 0.961 . S
C798 C797 1.502 . S
C799 H785 0.960 . S
C799 H786 0.961 . S
C799 H787 0.959 . S
C799 C797 1.561 . S
C800 C797 1.526 . S
C800 C801 1.396 . S
C800 C805 1.390 . S
C801 C795 1.465 . S
C801 C800 1.396 . S
C801 C802 1.399 . S
C802 H788 0.929 . S
C802 C801 1.399 . S
C802 C803 1.385 . S
C803 H789 0.931 . S
C803 C802 1.385 . S
C803 C804 1.389 . S
C804 C803 1.389 . S
C804 C805 1.387 . S
C805 H790 0.930 . S
C805 C800 1.390 . S
C805 C804 1.387 . S
H806 C818 0.930 . S
H807 C820 0.930 1_556 S
H808 C821 0.930 1_556 S
H809 C825 0.959 . S
H810 C825 0.959 . S
H811 C825 0.961 . S
H812 C826 0.960 . S
H813 C826 0.961 . S
H814 C826 0.959 . S
H815 C829 0.929 1_556 S
H816 C830 0.931 . S
H817 C832 0.930 . S
C818 H806 0.930 . S
C818 C819 1.399 . S
C818 C823 1.399 . S
C819 C818 1.399 . S
C819 C820 1.376 . S
C820 H807 0.930 1_554 S
C820 C819 1.376 . S
C820 C821 1.388 . S
C821 H808 0.930 1_554 S
C821 C820 1.388 . S
C821 C822 1.390 . S
C822 C821 1.390 . S
C822 C823 1.394 . S
C822 C828 1.465 . S
C823 C818 1.399 . S
C823 C822 1.394 . S
C823 C824 1.516 . S
C824 C823 1.516 . S
C824 C825 1.502 . S
C824 C826 1.561 . S
C824 C827 1.526 . S
C825 H809 0.959 . S
C825 H810 0.959 . S
C825 H811 0.961 . S
C825 C824 1.502 . S
C826 H812 0.960 . S
C826 H813 0.961 . S
C826 H814 0.959 . S
C826 C824 1.561 . S
C827 C824 1.526 . S
C827 C828 1.396 . S
C827 C832 1.390 . S
C828 C822 1.465 . S
C828 C827 1.396 . S
C828 C829 1.399 . S
C829 H815 0.929 1_554 S
C829 C828 1.399 . S
C829 C830 1.385 . S
C830 H816 0.931 . S
C830 C829 1.385 . S
C830 C831 1.389 . S
C831 C830 1.389 . S
C831 C832 1.387 . S
C832 H817 0.930 . S
C832 C827 1.390 . S
C832 C831 1.387 . S
H833 C845 0.930 . S
H834 C847 0.930 . S
H835 C848 0.930 . S
H836 C852 0.959 . S
H837 C852 0.959 . S
H838 C852 0.961 . S
H839 C853 0.960 . S
H840 C853 0.961 . S
H841 C853 0.959 . S
H842 C856 0.929 . S
H843 C857 0.931 . S
H844 C859 0.930 . S
C845 H833 0.930 . S
C845 C846 1.399 . S
C845 C850 1.399 . S
C846 C845 1.399 . S
C846 C847 1.376 . S
C847 H834 0.930 . S
C847 C846 1.376 . S
C847 C848 1.388 . S
C848 H835 0.930 . S
C848 C847 1.388 . S
C848 C849 1.390 . S
C849 C848 1.390 . S
C849 C850 1.394 . S
C849 C855 1.465 . S
C850 C845 1.399 . S
C850 C849 1.394 . S
C850 C851 1.516 . S
C851 C850 1.516 . S
C851 C852 1.502 . S
C851 C853 1.561 . S
C851 C854 1.526 . S
C852 H836 0.959 . S
C852 H837 0.959 . S
C852 H838 0.961 . S
C852 C851 1.502 . S
C853 H839 0.960 . S
C853 H840 0.961 . S
C853 H841 0.959 . S
C853 C851 1.561 . S
C854 C851 1.526 . S
C854 C855 1.396 . S
C854 C859 1.390 . S
C855 C849 1.465 . S
C855 C854 1.396 . S
C855 C856 1.399 . S
C856 H842 0.929 . S
C856 C855 1.399 . S
C856 C857 1.385 . S
C857 H843 0.931 . S
C857 C856 1.385 . S
C857 C858 1.389 . S
C858 C857 1.389 . S
C858 C859 1.387 . S
C859 H844 0.930 . S
C859 C854 1.390 . S
C859 C858 1.387 . S
H860 C872 0.930 . S
H861 C874 0.930 . S
H862 C875 0.930 . S
H863 C879 0.959 . S
H864 C879 0.959 . S
H865 C879 0.961 . S
H866 C880 0.960 . S
H867 C880 0.961 . S
H868 C880 0.959 . S
H869 C883 0.929 . S
H870 C884 0.931 . S
H871 C886 0.930 . S
C872 H860 0.930 . S
C872 C873 1.399 . S
C872 C877 1.399 . S
C873 C872 1.399 . S
C873 C874 1.376 . S
C874 H861 0.930 . S
C874 C873 1.376 . S
C874 C875 1.388 . S
C875 H862 0.930 . S
C875 C874 1.388 . S
C875 C876 1.390 . S
C876 C875 1.390 . S
C876 C877 1.394 . S
C876 C882 1.465 . S
C877 C872 1.399 . S
C877 C876 1.394 . S
C877 C878 1.516 . S
C878 C877 1.516 . S
C878 C879 1.502 . S
C878 C880 1.561 . S
C878 C881 1.526 . S
C879 H863 0.959 . S
C879 H864 0.959 . S
C879 H865 0.961 . S
C879 C878 1.502 . S
C880 H866 0.960 . S
C880 H867 0.961 . S
C880 H868 0.959 . S
C880 C878 1.561 . S
C881 C878 1.526 . S
C881 C882 1.396 . S
C881 C886 1.390 . S
C882 C876 1.465 . S
C882 C881 1.396 . S
C882 C883 1.399 . S
C883 H869 0.929 . S
C883 C882 1.399 . S
C883 C884 1.385 . S
C884 H870 0.931 . S
C884 C883 1.385 . S
C884 C885 1.389 . S
C885 C884 1.389 . S
C885 C886 1.387 . S
C886 H871 0.930 . S
C886 C881 1.390 . S
C886 C885 1.387 . S
H887 C899 0.930 . S
H888 C901 0.930 . S
H889 C902 0.930 . S
H890 C906 0.959 . S
H891 C906 0.959 . S
H892 C906 0.961 . S
H893 C907 0.960 . S
H894 C907 0.961 . S
H895 C907 0.959 . S
H896 C910 0.929 . S
H897 C911 0.931 . S
H898 C913 0.930 . S
C899 H887 0.930 . S
C899 C900 1.399 . S
C899 C904 1.399 . S
C900 C899 1.399 . S
C900 C901 1.376 . S
C901 H888 0.930 . S
C901 C900 1.376 . S
C901 C902 1.388 . S
C902 H889 0.930 . S
C902 C901 1.388 . S
C902 C903 1.390 . S
C903 C902 1.390 . S
C903 C904 1.394 . S
C903 C909 1.465 . S
C904 C899 1.399 . S
C904 C903 1.394 . S
C904 C905 1.516 . S
C905 C904 1.516 . S
C905 C906 1.502 . S
C905 C907 1.561 . S
C905 C908 1.526 . S
C906 H890 0.959 . S
C906 H891 0.959 . S
C906 H892 0.961 . S
C906 C905 1.502 . S
C907 H893 0.960 . S
C907 H894 0.961 . S
C907 H895 0.959 . S
C907 C905 1.561 . S
C908 C905 1.526 . S
C908 C909 1.396 . S
C908 C913 1.390 . S
C909 C903 1.465 . S
C909 C908 1.396 . S
C909 C910 1.399 . S
C910 H896 0.929 . S
C910 C909 1.399 . S
C910 C911 1.385 . S
C911 H897 0.931 . S
C911 C910 1.385 . S
C911 C912 1.389 . S
C912 C911 1.389 . S
C912 C913 1.387 . S
C913 H898 0.930 . S
C913 C908 1.390 . S
C913 C912 1.387 . S
H914 C926 0.930 . S
H915 C928 0.930 . S
H916 C929 0.930 . S
H917 C933 0.959 . S
H918 C933 0.959 . S
H919 C933 0.961 . S
H920 C934 0.960 . S
H921 C934 0.961 . S
H922 C934 0.959 . S
H923 C937 0.929 . S
H924 C938 0.931 . S
H925 C940 0.930 . S
C926 H914 0.930 . S
C926 C927 1.399 . S
C926 C931 1.399 . S
C927 C926 1.399 . S
C927 C928 1.376 . S
C928 H915 0.930 . S
C928 C927 1.376 . S
C928 C929 1.388 . S
C929 H916 0.930 . S
C929 C928 1.388 . S
C929 C930 1.390 . S
C930 C929 1.390 . S
C930 C931 1.394 . S
C930 C936 1.465 . S
C931 C926 1.399 . S
C931 C930 1.394 . S
C931 C932 1.516 . S
C932 C931 1.516 . S
C932 C933 1.502 . S
C932 C934 1.561 . S
C932 C935 1.526 . S
C933 H917 0.959 . S
C933 H918 0.959 . S
C933 H919 0.961 . S
C933 C932 1.502 . S
C934 H920 0.960 . S
C934 H921 0.961 . S
C934 H922 0.959 . S
C934 C932 1.561 . S
C935 C932 1.526 . S
C935 C936 1.396 . S
C935 C940 1.390 . S
C936 C930 1.465 . S
C936 C935 1.396 . S
C936 C937 1.399 . S
C937 H923 0.929 . S
C937 C936 1.399 . S
C937 C938 1.385 . S
C938 H924 0.931 . S
C938 C937 1.385 . S
C938 C939 1.389 . S
C939 C938 1.389 . S
C939 C940 1.387 . S
C940 H925 0.930 . S
C940 C935 1.390 . S
C940 C939 1.387 . S
H941 C953 0.930 . S
H942 C955 0.930 . S
H943 C956 0.930 . S
H944 C960 0.959 . S
H945 C960 0.959 . S
H946 C960 0.961 . S
H947 C961 0.960 . S
H948 C961 0.961 . S
H949 C961 0.959 . S
H950 C964 0.929 . S
H951 C965 0.931 . S
H952 C967 0.930 . S
C953 H941 0.930 . S
C953 C954 1.399 . S
C953 C958 1.399 . S
C954 C953 1.399 . S
C954 C955 1.376 . S
C955 H942 0.930 . S
C955 C954 1.376 . S
C955 C956 1.388 . S
C956 H943 0.930 . S
C956 C955 1.388 . S
C956 C957 1.390 . S
C957 C956 1.390 . S
C957 C958 1.394 . S
C957 C963 1.465 . S
C958 C953 1.399 . S
C958 C957 1.394 . S
C958 C959 1.516 . S
C959 C958 1.516 . S
C959 C960 1.502 . S
C959 C961 1.561 . S
C959 C962 1.526 . S
C960 H944 0.959 . S
C960 H945 0.959 . S
C960 H946 0.961 . S
C960 C959 1.502 . S
C961 H947 0.960 . S
C961 H948 0.961 . S
C961 H949 0.959 . S
C961 C959 1.561 . S
C962 C959 1.526 . S
C962 C963 1.396 . S
C962 C967 1.390 . S
C963 C957 1.465 . S
C963 C962 1.396 . S
C963 C964 1.399 . S
C964 H950 0.929 . S
C964 C963 1.399 . S
C964 C965 1.385 . S
C965 H951 0.931 . S
C965 C964 1.385 . S
C965 C966 1.389 . S
C966 C965 1.389 . S
C966 C967 1.387 . S
C967 H952 0.930 . S
C967 C962 1.390 . S
C967 C966 1.387 . S
H968 C980 0.930 . S
H969 C982 0.930 . S
H970 C983 0.930 . S
H971 C987 0.959 . S
H972 C987 0.959 . S
H973 C987 0.961 . S
H974 C988 0.960 . S
H975 C988 0.961 . S
H976 C988 0.959 . S
H977 C991 0.929 . S
H978 C992 0.931 . S
H979 C994 0.930 . S
C980 H968 0.930 . S
C980 C981 1.399 . S
C980 C985 1.399 . S
C981 C980 1.399 . S
C981 C982 1.376 . S
C982 H969 0.930 . S
C982 C981 1.376 . S
C982 C983 1.388 . S
C983 H970 0.930 . S
C983 C982 1.388 . S
C983 C984 1.390 . S
C984 C983 1.390 . S
C984 C985 1.394 . S
C984 C990 1.465 . S
C985 C980 1.399 . S
C985 C984 1.394 . S
C985 C986 1.516 . S
C986 C985 1.516 . S
C986 C987 1.502 . S
C986 C988 1.561 . S
C986 C989 1.526 . S
C987 H971 0.959 . S
C987 H972 0.959 . S
C987 H973 0.961 . S
C987 C986 1.502 . S
C988 H974 0.960 . S
C988 H975 0.961 . S
C988 H976 0.959 . S
C988 C986 1.561 . S
C989 C986 1.526 . S
C989 C990 1.396 . S
C989 C994 1.390 . S
C990 C984 1.465 . S
C990 C989 1.396 . S
C990 C991 1.399 . S
C991 H977 0.929 . S
C991 C990 1.399 . S
C991 C992 1.385 1_556 S
C992 H978 0.931 . S
C992 C991 1.385 1_554 S
C992 C993 1.389 1_554 S
C993 C992 1.389 1_556 S
C993 C994 1.387 . S
C994 H979 0.930 . S
C994 C989 1.390 . S
C994 C993 1.387 . S
H995 C1007 0.930 1_556 S
H996 C1009 0.930 . S
H997 C1010 0.930 . S
H998 C1014 0.959 . S
H999 C1014 0.959 . S
H1000 C1014 0.961 . S
H1001 C1015 0.960 1_556 S
H1002 C1015 0.961 . S
H1003 C1015 0.959 . S
H1004 C1018 0.929 . S
H1005 C1019 0.931 . S
H1006 C1021 0.930 . S
C1007 H995 0.930 1_554 S
C1007 C1008 1.399 . S
C1007 C1012 1.399 . S
C1008 C1007 1.399 . S
C1008 C1009 1.376 . S
C1009 H996 0.930 . S
C1009 C1008 1.376 . S
C1009 C1010 1.388 . S
C1010 H997 0.930 . S
C1010 C1009 1.388 . S
C1010 C1011 1.390 . S
C1011 C1010 1.390 . S
C1011 C1012 1.394 . S
C1011 C1017 1.465 . S
C1012 C1007 1.399 . S
C1012 C1011 1.394 . S
C1012 C1013 1.516 . S
C1013 C1012 1.516 . S
C1013 C1014 1.502 . S
C1013 C1015 1.561 . S
C1013 C1016 1.526 . S
C1014 H998 0.959 . S
C1014 H999 0.959 . S
C1014 H1000 0.961 . S
C1014 C1013 1.502 . S
C1015 H1001 0.960 1_554 S
C1015 H1002 0.961 . S
C1015 H1003 0.959 . S
C1015 C1013 1.561 . S
C1016 C1013 1.526 . S
C1016 C1017 1.396 . S
C1016 C1021 1.390 . S
C1017 C1011 1.465 . S
C1017 C1016 1.396 . S
C1017 C1018 1.399 . S
C1018 H1004 0.929 . S
C1018 C1017 1.399 . S
C1018 C1019 1.385 . S
C1019 H1005 0.931 . S
C1019 C1018 1.385 . S
C1019 C1020 1.389 . S
C1020 C1019 1.389 . S
C1020 C1021 1.387 . S
C1021 H1006 0.930 . S
C1021 C1016 1.390 . S
C1021 C1020 1.387 . S
H1022 C1034 0.930 . S
H1023 C1036 0.930 1_554 S
H1024 C1037 0.930 . S
H1025 C1041 0.959 . S
H1026 C1041 0.959 . S
H1027 C1041 0.961 . S
H1028 C1042 0.960 . S
H1029 C1042 0.961 . S
H1030 C1042 0.959 . S
H1031 C1045 0.929 . S
H1032 C1046 0.931 . S
H1033 C1048 0.930 . S
C1034 H1022 0.930 . S
C1034 C1035 1.399 . S
C1034 C1039 1.399 . S
C1035 C1034 1.399 . S
C1035 C1036 1.376 . S
C1036 H1023 0.930 1_556 S
C1036 C1035 1.376 . S
C1036 C1037 1.388 . S
C1037 H1024 0.930 . S
C1037 C1036 1.388 . S
C1037 C1038 1.390 . S
C1038 C1037 1.390 . S
C1038 C1039 1.394 . S
C1038 C1044 1.465 . S
C1039 C1034 1.399 . S
C1039 C1038 1.394 . S
C1039 C1040 1.516 . S
C1040 C1039 1.516 . S
C1040 C1041 1.502 . S
C1040 C1042 1.561 . S
C1040 C1043 1.526 . S
C1041 H1025 0.959 . S
C1041 H1026 0.959 . S
C1041 H1027 0.961 . S
C1041 C1040 1.502 . S
C1042 H1028 0.960 . S
C1042 H1029 0.961 . S
C1042 H1030 0.959 . S
C1042 C1040 1.561 . S
C1043 C1040 1.526 . S
C1043 C1044 1.396 . S
C1043 C1048 1.390 . S
C1044 C1038 1.465 . S
C1044 C1043 1.396 . S
C1044 C1045 1.399 . S
C1045 H1031 0.929 . S
C1045 C1044 1.399 . S
C1045 C1046 1.385 . S
C1046 H1032 0.931 . S
C1046 C1045 1.385 . S
C1046 C1047 1.389 . S
C1047 C1046 1.389 . S
C1047 C1048 1.387 . S
C1048 H1033 0.930 . S
C1048 C1043 1.390 . S
C1048 C1047 1.387 . S
H1049 C1061 0.930 . S
H1050 C1063 0.930 . S
H1051 C1064 0.930 . S
H1052 C1068 0.959 . S
H1053 C1068 0.959 . S
H1054 C1068 0.961 . S
H1055 C1069 0.960 . S
H1056 C1069 0.961 . S
H1057 C1069 0.959 . S
H1058 C1072 0.929 . S
H1059 C1073 0.931 . S
H1060 C1075 0.930 . S
C1061 H1049 0.930 . S
C1061 C1062 1.410 . S
C1061 C1066 1.399 . S
C1062 C1061 1.410 . S
C1062 C1063 1.371 1_554 S
C1063 H1050 0.930 . S
C1063 C1062 1.371 1_556 S
C1063 C1064 1.388 . S
C1064 H1051 0.930 . S
C1064 C1063 1.388 . S
C1064 C1065 1.390 1_556 S
C1065 C1064 1.390 1_554 S
C1065 C1066 1.394 . S
C1065 C1071 1.465 . S
C1066 C1061 1.399 . S
C1066 C1065 1.394 . S
C1066 C1067 1.516 . S
C1067 C1066 1.516 . S
C1067 C1068 1.502 . S
C1067 C1069 1.561 . S
C1067 C1070 1.526 . S
C1068 H1052 0.959 . S
C1068 H1053 0.959 . S
C1068 H1054 0.961 . S
C1068 C1067 1.502 . S
C1069 H1055 0.960 . S
C1069 H1056 0.961 . S
C1069 H1057 0.959 . S
C1069 C1067 1.561 . S
C1070 C1067 1.526 . S
C1070 C1071 1.396 . S
C1070 C1075 1.390 . S
C1071 C1065 1.465 . S
C1071 C1070 1.396 . S
C1071 C1072 1.399 . S
C1072 H1058 0.929 . S
C1072 C1071 1.399 . S
C1072 C1073 1.385 . S
C1073 H1059 0.931 . S
C1073 C1072 1.385 . S
C1073 C1074 1.389 . S
C1074 C1073 1.389 . S
C1074 C1075 1.387 . S
C1075 H1060 0.930 . S
C1075 C1070 1.390 . S
C1075 C1074 1.387 . S
H1076 C1088 0.930 . S
H1077 C1090 0.930 . S
H1078 C1091 0.930 . S
H1079 C1095 0.959 . S
H1080 C1095 0.959 . S
H1081 C1095 0.961 . S
H1082 C1096 0.960 . S
H1083 C1096 0.961 . S
H1084 C1096 0.959 . S
H1085 C1099 0.929 . S
H1086 C1100 0.931 . S
H1087 C1102 0.930 . S
C1088 H1076 0.930 . S
C1088 C1089 1.399 . S
C1088 C1093 1.399 . S
C1089 C1088 1.399 . S
C1089 C1090 1.376 . S
C1090 H1077 0.930 . S
C1090 C1089 1.376 . S
C1090 C1091 1.388 . S
C1091 H1078 0.930 . S
C1091 C1090 1.388 . S
C1091 C1092 1.390 . S
C1092 C1091 1.390 . S
C1092 C1093 1.394 . S
C1092 C1098 1.465 . S
C1093 C1088 1.399 . S
C1093 C1092 1.394 . S
C1093 C1094 1.516 . S
C1094 C1093 1.516 . S
C1094 C1095 1.502 . S
C1094 C1096 1.561 . S
C1094 C1097 1.526 . S
C1095 H1079 0.959 . S
C1095 H1080 0.959 . S
C1095 H1081 0.961 . S
C1095 C1094 1.502 . S
C1096 H1082 0.960 . S
C1096 H1083 0.961 . S
C1096 H1084 0.959 . S
C1096 C1094 1.561 . S
C1097 C1094 1.526 . S
C1097 C1098 1.396 . S
C1097 C1102 1.390 . S
C1098 C1092 1.465 . S
C1098 C1097 1.396 . S
C1098 C1099 1.399 . S
C1099 H1085 0.929 . S
C1099 C1098 1.399 . S
C1099 C1100 1.385 . S
C1100 H1086 0.931 . S
C1100 C1099 1.385 . S
C1100 C1101 1.389 . S
C1101 C1100 1.389 . S
C1101 C1102 1.387 . S
C1102 H1087 0.930 . S
C1102 C1097 1.390 . S
C1102 C1101 1.387 . S
H1103 C1115 0.930 . S
H1104 C1117 0.930 . S
H1105 C1118 0.930 . S
H1106 C1122 0.959 . S
H1107 C1122 0.959 . S
H1108 C1122 0.961 . S
H1109 C1123 0.960 . S
H1110 C1123 0.961 . S
H1111 C1123 0.959 . S
H1112 C1126 0.929 . S
H1113 C1127 0.931 . S
H1114 C1129 0.930 . S
C1115 H1103 0.930 . S
C1115 C1116 1.399 . S
C1115 C1120 1.399 . S
C1116 C1115 1.399 . S
C1116 C1117 1.376 . S
C1117 H1104 0.930 . S
C1117 C1116 1.376 . S
C1117 C1118 1.388 . S
C1118 H1105 0.930 . S
C1118 C1117 1.388 . S
C1118 C1119 1.390 . S
C1119 C1118 1.390 . S
C1119 C1120 1.394 . S
C1119 C1125 1.465 . S
C1120 C1115 1.399 . S
C1120 C1119 1.394 . S
C1120 C1121 1.516 . S
C1121 C1120 1.516 . S
C1121 C1122 1.502 . S
C1121 C1123 1.561 . S
C1121 C1124 1.526 . S
C1122 H1106 0.959 . S
C1122 H1107 0.959 . S
C1122 H1108 0.961 . S
C1122 C1121 1.502 . S
C1123 H1109 0.960 . S
C1123 H1110 0.961 . S
C1123 H1111 0.959 . S
C1123 C1121 1.561 . S
C1124 C1121 1.526 . S
C1124 C1125 1.396 . S
C1124 C1129 1.390 . S
C1125 C1119 1.465 . S
C1125 C1124 1.396 . S
C1125 C1126 1.399 . S
C1126 H1112 0.929 . S
C1126 C1125 1.399 . S
C1126 C1127 1.385 . S
C1127 H1113 0.931 . S
C1127 C1126 1.385 . S
C1127 C1128 1.389 . S
C1128 C1127 1.389 . S
C1128 C1129 1.387 . S
C1129 H1114 0.930 . S
C1129 C1124 1.390 . S
C1129 C1128 1.387 . S
H1130 C1142 0.930 . S
H1131 C1144 0.930 . S
H1132 C1145 0.930 . S
H1133 C1149 0.959 . S
H1134 C1149 0.959 . S
H1135 C1149 0.961 . S
H1136 C1150 0.960 . S
H1137 C1150 0.961 . S
H1138 C1150 0.959 . S
H1139 C1153 0.929 . S
H1140 C1154 0.931 . S
H1141 C1156 0.930 . S
C1142 H1130 0.930 . S
C1142 C1143 1.399 . S
C1142 C1147 1.399 . S
C1143 C1142 1.399 . S
C1143 C1144 1.376 . S
C1144 H1131 0.930 . S
C1144 C1143 1.376 . S
C1144 C1145 1.388 . S
C1145 H1132 0.930 . S
C1145 C1144 1.388 . S
C1145 C1146 1.390 . S
C1146 C1145 1.390 . S
C1146 C1147 1.394 . S
C1146 C1152 1.465 . S
C1147 C1142 1.399 . S
C1147 C1146 1.394 . S
C1147 C1148 1.516 . S
C1148 C1147 1.516 . S
C1148 C1149 1.502 . S
C1148 C1150 1.561 . S
C1148 C1151 1.526 . S
C1149 H1133 0.959 . S
C1149 H1134 0.959 . S
C1149 H1135 0.961 . S
C1149 C1148 1.502 . S
C1150 H1136 0.960 . S
C1150 H1137 0.961 . S
C1150 H1138 0.959 . S
C1150 C1148 1.561 . S
C1151 C1148 1.526 . S
C1151 C1152 1.396 . S
C1151 C1156 1.390 . S
C1152 C1146 1.465 . S
C1152 C1151 1.396 . S
C1152 C1153 1.399 . S
C1153 H1139 0.929 . S
C1153 C1152 1.399 . S
C1153 C1154 1.385 . S
C1154 H1140 0.931 . S
C1154 C1153 1.385 . S
C1154 C1155 1.389 . S
C1155 C1154 1.389 . S
C1155 C1156 1.387 . S
C1156 H1141 0.930 . S
C1156 C1151 1.390 . S
C1156 C1155 1.387 . S
H1157 C1169 0.930 . S
H1158 C1171 0.930 . S
H1159 C1172 0.930 . S
H1160 C1176 0.959 . S
H1161 C1176 0.959 . S
H1162 C1176 0.961 . S
H1163 C1177 0.960 . S
H1164 C1177 0.961 . S
H1165 C1177 0.959 . S
H1166 C1180 0.929 . S
H1167 C1181 0.931 . S
H1168 C1183 0.930 . S
C1169 H1157 0.930 . S
C1169 C1170 1.399 . S
C1169 C1174 1.399 . S
C1170 C1169 1.399 . S
C1170 C1171 1.376 . S
C1171 H1158 0.930 . S
C1171 C1170 1.376 . S
C1171 C1172 1.388 . S
C1172 H1159 0.930 . S
C1172 C1171 1.388 . S
C1172 C1173 1.390 . S
C1173 C1172 1.390 . S
C1173 C1174 1.394 . S
C1173 C1179 1.465 . S
C1174 C1169 1.399 . S
C1174 C1173 1.394 . S
C1174 C1175 1.516 . S
C1175 C1174 1.516 . S
C1175 C1176 1.502 . S
C1175 C1177 1.561 . S
C1175 C1178 1.526 . S
C1176 H1160 0.959 . S
C1176 H1161 0.959 . S
C1176 H1162 0.961 . S
C1176 C1175 1.502 . S
C1177 H1163 0.960 . S
C1177 H1164 0.961 . S
C1177 H1165 0.959 . S
C1177 C1175 1.561 . S
C1178 C1175 1.526 . S
C1178 C1179 1.396 . S
C1178 C1183 1.390 . S
C1179 C1173 1.465 . S
C1179 C1178 1.396 . S
C1179 C1180 1.399 . S
C1180 H1166 0.929 . S
C1180 C1179 1.399 . S
C1180 C1181 1.385 . S
C1181 H1167 0.931 . S
C1181 C1180 1.385 . S
C1181 C1182 1.389 . S
C1182 C1181 1.389 . S
C1182 C1183 1.387 . S
C1183 H1168 0.930 . S
C1183 C1178 1.390 . S
C1183 C1182 1.387 . S
H1184 C1196 0.930 . S
H1185 C1198 0.930 . S
H1186 C1199 0.930 . S
H1187 C1203 0.959 . S
H1188 C1203 0.959 . S
H1189 C1203 0.961 . S
H1190 C1204 0.960 . S
H1191 C1204 0.961 . S
H1192 C1204 0.959 . S
H1193 C1207 0.929 . S
H1194 C1208 0.931 . S
H1195 C1210 0.930 . S
C1196 H1184 0.930 . S
C1196 C1197 1.399 . S
C1196 C1201 1.399 . S
C1197 C1196 1.399 . S
C1197 C1198 1.376 . S
C1198 H1185 0.930 . S
C1198 C1197 1.376 . S
C1198 C1199 1.388 . S
C1199 H1186 0.930 . S
C1199 C1198 1.388 . S
C1199 C1200 1.390 . S
C1200 C1199 1.390 . S
C1200 C1201 1.394 . S
C1200 C1206 1.465 . S
C1201 C1196 1.399 . S
C1201 C1200 1.394 . S
C1201 C1202 1.516 . S
C1202 C1201 1.516 . S
C1202 C1203 1.502 . S
C1202 C1204 1.561 . S
C1202 C1205 1.526 . S
C1203 H1187 0.959 . S
C1203 H1188 0.959 . S
C1203 H1189 0.961 . S
C1203 C1202 1.502 . S
C1204 H1190 0.960 . S
C1204 H1191 0.961 . S
C1204 H1192 0.959 . S
C1204 C1202 1.561 . S
C1205 C1202 1.526 . S
C1205 C1206 1.396 . S
C1205 C1210 1.390 . S
C1206 C1200 1.465 . S
C1206 C1205 1.396 . S
C1206 C1207 1.399 . S
C1207 H1193 0.929 . S
C1207 C1206 1.399 . S
C1207 C1208 1.385 . S
C1208 H1194 0.931 . S
C1208 C1207 1.385 . S
C1208 C1209 1.389 . S
C1209 C1208 1.389 . S
C1209 C1210 1.387 . S
C1210 H1195 0.930 . S
C1210 C1205 1.390 . S
C1210 C1209 1.387 . S
H1211 C1223 0.930 . S
H1212 C1225 0.930 . S
H1213 C1226 0.930 . S
H1214 C1230 0.959 . S
H1215 C1230 0.959 . S
H1216 C1230 0.961 . S
H1217 C1231 0.960 . S
H1218 C1231 0.961 . S
H1219 C1231 0.959 . S
H1220 C1234 0.929 . S
H1221 C1235 0.931 . S
H1222 C1237 0.930 . S
C1223 H1211 0.930 . S
C1223 C1224 1.399 . S
C1223 C1228 1.399 . S
C1224 C1223 1.399 . S
C1224 C1225 1.376 . S
C1225 H1212 0.930 . S
C1225 C1224 1.376 . S
C1225 C1226 1.388 . S
C1226 H1213 0.930 . S
C1226 C1225 1.388 . S
C1226 C1227 1.390 . S
C1227 C1226 1.390 . S
C1227 C1228 1.394 . S
C1227 C1233 1.465 . S
C1228 C1223 1.399 . S
C1228 C1227 1.394 . S
C1228 C1229 1.516 . S
C1229 C1228 1.516 . S
C1229 C1230 1.502 . S
C1229 C1231 1.561 . S
C1229 C1232 1.526 . S
C1230 H1214 0.959 . S
C1230 H1215 0.959 . S
C1230 H1216 0.961 . S
C1230 C1229 1.502 . S
C1231 H1217 0.960 . S
C1231 H1218 0.961 . S
C1231 H1219 0.959 . S
C1231 C1229 1.561 . S
C1232 C1229 1.526 . S
C1232 C1233 1.396 . S
C1232 C1237 1.390 . S
C1233 C1227 1.465 . S
C1233 C1232 1.396 . S
C1233 C1234 1.399 . S
C1234 H1220 0.929 . S
C1234 C1233 1.399 . S
C1234 C1235 1.385 . S
C1235 H1221 0.931 . S
C1235 C1234 1.385 . S
C1235 C1236 1.389 . S
C1236 C1235 1.389 . S
C1236 C1237 1.387 . S
C1237 H1222 0.930 . S
C1237 C1232 1.390 . S
C1237 C1236 1.387 . S
H1238 C1250 0.930 . S
H1239 C1252 0.930 . S
H1240 C1253 0.930 . S
H1241 C1257 0.959 . S
H1242 C1257 0.959 . S
H1243 C1257 0.961 . S
H1244 C1258 0.960 . S
H1245 C1258 0.961 . S
H1246 C1258 0.959 . S
H1247 C1261 0.929 . S
H1248 C1262 0.931 . S
H1249 C1264 0.930 . S
C1250 H1238 0.930 . S
C1250 C1251 1.399 . S
C1250 C1255 1.399 . S
C1251 C1250 1.399 . S
C1251 C1252 1.376 . S
C1252 H1239 0.930 . S
C1252 C1251 1.376 . S
C1252 C1253 1.388 . S
C1253 H1240 0.930 . S
C1253 C1252 1.388 . S
C1253 C1254 1.390 . S
C1254 C1253 1.390 . S
C1254 C1255 1.394 . S
C1254 C1260 1.465 . S
C1255 C1250 1.399 . S
C1255 C1254 1.394 . S
C1255 C1256 1.516 . S
C1256 C1255 1.516 . S
C1256 C1257 1.502 . S
C1256 C1258 1.561 . S
C1256 C1259 1.526 . S
C1257 H1241 0.959 . S
C1257 H1242 0.959 . S
C1257 H1243 0.961 . S
C1257 C1256 1.502 . S
C1258 H1244 0.960 . S
C1258 H1245 0.961 . S
C1258 H1246 0.959 . S
C1258 C1256 1.561 . S
C1259 C1256 1.526 . S
C1259 C1260 1.396 . S
C1259 C1264 1.390 . S
C1260 C1254 1.465 . S
C1260 C1259 1.396 . S
C1260 C1261 1.399 . S
C1261 H1247 0.929 . S
C1261 C1260 1.399 . S
C1261 C1262 1.385 . S
C1262 H1248 0.931 . S
C1262 C1261 1.385 . S
C1262 C1263 1.389 . S
C1263 C1262 1.389 . S
C1263 C1264 1.387 . S
C1264 H1249 0.930 . S
C1264 C1259 1.390 . S
C1264 C1263 1.387 . S
H1265 C1277 0.930 . S
H1266 C1279 0.930 . S
H1267 C1280 0.930 . S
H1268 C1284 0.959 . S
H1269 C1284 0.959 . S
H1270 C1284 0.961 . S
H1271 C1285 0.960 . S
H1272 C1285 0.961 . S
H1273 C1285 0.959 . S
H1274 C1288 0.929 . S
H1275 C1289 0.931 . S
H1276 C1291 0.930 . S
C1277 H1265 0.930 . S
C1277 C1278 1.399 . S
C1277 C1282 1.399 . S
C1278 C1277 1.399 . S
C1278 C1279 1.376 . S
C1279 H1266 0.930 . S
C1279 C1278 1.376 . S
C1279 C1280 1.388 . S
C1280 H1267 0.930 . S
C1280 C1279 1.388 . S
C1280 C1281 1.390 . S
C1281 C1280 1.390 . S
C1281 C1282 1.394 . S
C1281 C1287 1.465 . S
C1282 C1277 1.399 . S
C1282 C1281 1.394 . S
C1282 C1283 1.516 . S
C1283 C1282 1.516 . S
C1283 C1284 1.502 . S
C1283 C1285 1.561 . S
C1283 C1286 1.526 . S
C1284 H1268 0.959 . S
C1284 H1269 0.959 . S
C1284 H1270 0.961 . S
C1284 C1283 1.502 . S
C1285 H1271 0.960 . S
C1285 H1272 0.961 . S
C1285 H1273 0.959 . S
C1285 C1283 1.561 . S
C1286 C1283 1.526 . S
C1286 C1287 1.396 . S
C1286 C1291 1.390 . S
C1287 C1281 1.465 . S
C1287 C1286 1.396 . S
C1287 C1288 1.399 . S
C1288 H1274 0.929 . S
C1288 C1287 1.399 . S
C1288 C1289 1.385 . S
C1289 H1275 0.931 . S
C1289 C1288 1.385 . S
C1289 C1290 1.389 . S
C1290 C1289 1.389 . S
C1290 C1291 1.387 . S
C1291 H1276 0.930 . S
C1291 C1286 1.390 . S
C1291 C1290 1.387 . S
H1292 C1304 0.930 . S
H1293 C1306 0.930 . S
H1294 C1307 0.930 . S
H1295 C1311 0.959 . S
H1296 C1311 0.959 . S
H1297 C1311 0.961 . S
H1298 C1312 0.960 . S
H1299 C1312 0.961 . S
H1300 C1312 0.959 . S
H1301 C1315 0.929 . S
H1302 C1316 0.931 . S
H1303 C1318 0.930 . S
C1304 H1292 0.930 . S
C1304 C1305 1.399 . S
C1304 C1309 1.399 . S
C1305 C1304 1.399 . S
C1305 C1306 1.376 . S
C1306 H1293 0.930 . S
C1306 C1305 1.376 . S
C1306 C1307 1.388 . S
C1307 H1294 0.930 . S
C1307 C1306 1.388 . S
C1307 C1308 1.390 . S
C1308 C1307 1.390 . S
C1308 C1309 1.394 . S
C1308 C1314 1.465 . S
C1309 C1304 1.399 . S
C1309 C1308 1.394 . S
C1309 C1310 1.516 . S
C1310 C1309 1.516 . S
C1310 C1311 1.502 . S
C1310 C1312 1.561 . S
C1310 C1313 1.526 . S
C1311 H1295 0.959 . S
C1311 H1296 0.959 . S
C1311 H1297 0.961 . S
C1311 C1310 1.502 . S
C1312 H1298 0.960 . S
C1312 H1299 0.961 . S
C1312 H1300 0.959 . S
C1312 C1310 1.561 . S
C1313 C1310 1.526 . S
C1313 C1314 1.396 . S
C1313 C1318 1.390 . S
C1314 C1308 1.465 . S
C1314 C1313 1.396 . S
C1314 C1315 1.399 . S
C1315 H1301 0.929 . S
C1315 C1314 1.399 . S
C1315 C1316 1.385 . S
C1316 H1302 0.931 . S
C1316 C1315 1.385 . S
C1316 C1317 1.389 . S
C1317 C1316 1.389 . S
C1317 C1318 1.387 . S
C1318 H1303 0.930 . S
C1318 C1313 1.390 . S
C1318 C1317 1.387 . S
H1319 C1331 0.930 . S
H1320 C1333 0.930 . S
H1321 C1334 0.930 . S
H1322 C1338 0.959 . S
H1323 C1338 0.959 . S
H1324 C1338 0.961 . S
H1325 C1339 0.960 . S
H1326 C1339 0.961 . S
H1327 C1339 0.959 . S
H1328 C1342 0.929 . S
H1329 C1343 0.931 . S
H1330 C1345 0.930 . S
C1331 H1319 0.930 . S
C1331 C1332 1.399 . S
C1331 C1336 1.399 . S
C1332 C1331 1.399 . S
C1332 C1333 1.376 . S
C1333 H1320 0.930 . S
C1333 C1332 1.376 . S
C1333 C1334 1.388 . S
C1334 H1321 0.930 . S
C1334 C1333 1.388 . S
C1334 C1335 1.390 . S
C1335 C1334 1.390 . S
C1335 C1336 1.394 . S
C1335 C1341 1.465 . S
C1336 C1331 1.399 . S
C1336 C1335 1.394 . S
C1336 C1337 1.516 . S
C1337 C1336 1.516 . S
C1337 C1338 1.502 . S
C1337 C1339 1.561 . S
C1337 C1340 1.526 . S
C1338 H1322 0.959 . S
C1338 H1323 0.959 . S
C1338 H1324 0.961 . S
C1338 C1337 1.502 . S
C1339 H1325 0.960 . S
C1339 H1326 0.961 . S
C1339 H1327 0.959 . S
C1339 C1337 1.561 . S
C1340 C1337 1.526 . S
C1340 C1341 1.396 . S
C1340 C1345 1.390 . S
C1341 C1335 1.465 . S
C1341 C1340 1.396 . S
C1341 C1342 1.399 . S
C1342 H1328 0.929 . S
C1342 C1341 1.399 . S
C1342 C1343 1.385 . S
C1343 H1329 0.931 . S
C1343 C1342 1.385 . S
C1343 C1344 1.389 . S
C1344 C1343 1.389 . S
C1344 C1345 1.387 . S
C1345 H1330 0.930 . S
C1345 C1340 1.390 . S
C1345 C1344 1.387 . S
H1346 C1358 0.930 . S
H1347 C1360 0.930 . S
H1348 C1361 0.930 . S
H1349 C1365 0.959 . S
H1350 C1365 0.959 . S
H1351 C1365 0.961 . S
H1352 C1366 0.960 . S
H1353 C1366 0.961 . S
H1354 C1366 0.959 . S
H1355 C1369 0.929 . S
H1356 C1370 0.931 . S
H1357 C1372 0.930 . S
C1358 H1346 0.930 . S
C1358 C1359 1.399 . S
C1358 C1363 1.399 . S
C1359 C1358 1.399 . S
C1359 C1360 1.376 . S
C1360 H1347 0.930 . S
C1360 C1359 1.376 . S
C1360 C1361 1.388 . S
C1361 H1348 0.930 . S
C1361 C1360 1.388 . S
C1361 C1362 1.390 . S
C1362 C1361 1.390 . S
C1362 C1363 1.394 . S
C1362 C1368 1.465 . S
C1363 C1358 1.399 . S
C1363 C1362 1.394 . S
C1363 C1364 1.516 . S
C1364 C1363 1.516 . S
C1364 C1365 1.502 . S
C1364 C1366 1.561 . S
C1364 C1367 1.526 . S
C1365 H1349 0.959 . S
C1365 H1350 0.959 . S
C1365 H1351 0.961 . S
C1365 C1364 1.502 . S
C1366 H1352 0.960 . S
C1366 H1353 0.961 . S
C1366 H1354 0.959 . S
C1366 C1364 1.561 . S
C1367 C1364 1.526 . S
C1367 C1368 1.396 . S
C1367 C1372 1.390 . S
C1368 C1362 1.465 . S
C1368 C1367 1.396 . S
C1368 C1369 1.399 . S
C1369 H1355 0.929 . S
C1369 C1368 1.399 . S
C1369 C1370 1.385 . S
C1370 H1356 0.931 . S
C1370 C1369 1.385 . S
C1370 C1371 1.389 . S
C1371 C1370 1.389 . S
C1371 C1372 1.387 . S
C1372 H1357 0.930 . S
C1372 C1367 1.390 . S
C1372 C1371 1.387 . S
H1373 C1385 0.930 . S
H1374 C1387 0.930 . S
H1375 C1388 0.930 . S
H1376 C1392 0.959 . S
H1377 C1392 0.959 . S
H1378 C1392 0.961 . S
H1379 C1393 0.960 . S
H1380 C1393 0.961 . S
H1381 C1393 0.959 . S
H1382 C1396 0.929 . S
H1383 C1397 0.931 . S
H1384 C1399 0.930 . S
C1385 H1373 0.930 . S
C1385 C1386 1.399 . S
C1385 C1390 1.399 . S
C1386 C1385 1.399 . S
C1386 C1387 1.376 . S
C1387 H1374 0.930 . S
C1387 C1386 1.376 . S
C1387 C1388 1.388 . S
C1388 H1375 0.930 . S
C1388 C1387 1.388 . S
C1388 C1389 1.390 . S
C1389 C1388 1.390 . S
C1389 C1390 1.394 . S
C1389 C1395 1.465 . S
C1390 C1385 1.399 . S
C1390 C1389 1.394 . S
C1390 C1391 1.516 . S
C1391 C1390 1.516 . S
C1391 C1392 1.502 . S
C1391 C1393 1.561 . S
C1391 C1394 1.526 . S
C1392 H1376 0.959 . S
C1392 H1377 0.959 . S
C1392 H1378 0.961 . S
C1392 C1391 1.502 . S
C1393 H1379 0.960 . S
C1393 H1380 0.961 . S
C1393 H1381 0.959 . S
C1393 C1391 1.561 . S
C1394 C1391 1.526 . S
C1394 C1395 1.396 . S
C1394 C1399 1.390 . S
C1395 C1389 1.465 . S
C1395 C1394 1.396 . S
C1395 C1396 1.399 . S
C1396 H1382 0.929 . S
C1396 C1395 1.399 . S
C1396 C1397 1.385 . S
C1397 H1383 0.931 . S
C1397 C1396 1.385 . S
C1397 C1398 1.389 . S
C1398 C1397 1.389 . S
C1398 C1399 1.387 . S
C1399 H1384 0.930 . S
C1399 C1394 1.390 . S
C1399 C1398 1.387 . S
H1400 C1412 0.930 . S
H1401 C1414 0.930 . S
H1402 C1415 0.930 . S
H1403 C1419 0.959 . S
H1404 C1419 0.959 . S
H1405 C1419 0.961 . S
H1406 C1420 0.960 . S
H1407 C1420 0.961 . S
H1408 C1420 0.959 . S
H1409 C1423 0.929 . S
H1410 C1424 0.931 . S
H1411 C1426 0.930 . S
C1412 H1400 0.930 . S
C1412 C1413 1.399 . S
C1412 C1417 1.399 1_556 S
C1413 C1412 1.399 . S
C1413 C1414 1.376 . S
C1414 H1401 0.930 . S
C1414 C1413 1.376 . S
C1414 C1415 1.388 1_556 S
C1415 H1402 0.930 . S
C1415 C1414 1.388 1_554 S
C1415 C1416 1.390 . S
C1416 C1415 1.390 . S
C1416 C1417 1.394 . S
C1416 C1422 1.465 . S
C1417 C1412 1.399 1_554 S
C1417 C1416 1.394 . S
C1417 C1418 1.516 . S
C1418 C1417 1.516 . S
C1418 C1419 1.502 . S
C1418 C1420 1.561 . S
C1418 C1421 1.526 . S
C1419 H1403 0.959 . S
C1419 H1404 0.959 . S
C1419 H1405 0.961 . S
C1419 C1418 1.502 . S
C1420 H1406 0.960 . S
C1420 H1407 0.961 . S
C1420 H1408 0.959 . S
C1420 C1418 1.561 . S
C1421 C1418 1.526 . S
C1421 C1422 1.396 . S
C1421 C1426 1.390 . S
C1422 C1416 1.465 . S
C1422 C1421 1.396 . S
C1422 C1423 1.399 . S
C1423 H1409 0.929 . S
C1423 C1422 1.399 . S
C1423 C1424 1.385 . S
C1424 H1410 0.931 . S
C1424 C1423 1.385 . S
C1424 C1425 1.389 . S
C1425 C1424 1.389 . S
C1425 C1426 1.387 . S
C1426 H1411 0.930 . S
C1426 C1421 1.390 . S
C1426 C1425 1.387 . S
H1427 C1439 0.930 . S
H1428 C1441 0.930 . S
H1429 C1442 0.930 . S
H1430 C1446 0.959 . S
H1431 C1446 0.959 . S
H1432 C1446 0.961 . S
H1433 C1447 0.960 . S
H1434 C1447 0.961 . S
H1435 C1447 0.959 . S
H1436 C1450 0.929 . S
H1437 C1451 0.931 . S
H1438 C1453 0.930 . S
C1439 H1427 0.930 . S
C1439 C1440 1.399 . S
C1439 C1444 1.399 . S
C1440 C1439 1.399 . S
C1440 C1441 1.376 . S
C1441 H1428 0.930 . S
C1441 C1440 1.376 . S
C1441 C1442 1.388 . S
C1442 H1429 0.930 . S
C1442 C1441 1.388 . S
C1442 C1443 1.390 . S
C1443 C1442 1.390 . S
C1443 C1444 1.394 . S
C1443 C1449 1.465 . S
C1444 C1439 1.399 . S
C1444 C1443 1.394 . S
C1444 C1445 1.516 . S
C1445 C1444 1.516 . S
C1445 C1446 1.502 . S
C1445 C1447 1.561 . S
C1445 C1448 1.526 . S
C1446 H1430 0.959 . S
C1446 H1431 0.959 . S
C1446 H1432 0.961 . S
C1446 C1445 1.502 . S
C1447 H1433 0.960 . S
C1447 H1434 0.961 . S
C1447 H1435 0.959 . S
C1447 C1445 1.561 . S
C1448 C1445 1.526 . S
C1448 C1449 1.396 . S
C1448 C1453 1.390 1_556 S
C1449 C1443 1.465 . S
C1449 C1448 1.396 . S
C1449 C1450 1.399 . S
C1450 H1436 0.929 . S
C1450 C1449 1.399 . S
C1450 C1451 1.385 1_556 S
C1451 H1437 0.931 . S
C1451 C1450 1.385 1_554 S
C1451 C1452 1.389 . S
C1452 C1451 1.389 . S
C1452 C1453 1.387 . S
C1453 H1438 0.930 . S
C1453 C1448 1.390 1_554 S
C1453 C1452 1.387 . S
H1454 C1466 0.930 . S
H1455 C1468 0.930 . S
H1456 C1469 0.930 . S
H1457 C1473 0.959 . S
H1458 C1473 0.959 . S
H1459 C1473 0.961 . S
H1460 C1474 0.960 . S
H1461 C1474 0.961 . S
H1462 C1474 0.959 . S
H1463 C1477 0.929 . S
H1464 C1478 0.931 . S
H1465 C1480 0.930 . S
C1466 H1454 0.930 . S
C1466 C1467 1.399 . S
C1466 C1471 1.399 . S
C1467 C1466 1.399 . S
C1467 C1468 1.376 . S
C1468 H1455 0.930 . S
C1468 C1467 1.376 . S
C1468 C1469 1.388 . S
C1469 H1456 0.930 . S
C1469 C1468 1.388 . S
C1469 C1470 1.390 . S
C1470 C1469 1.390 . S
C1470 C1471 1.394 . S
C1470 C1476 1.465 . S
C1471 C1466 1.399 . S
C1471 C1470 1.394 . S
C1471 C1472 1.516 . S
C1472 C1471 1.516 . S
C1472 C1473 1.502 . S
C1472 C1474 1.561 . S
C1472 C1475 1.526 . S
C1473 H1457 0.959 . S
C1473 H1458 0.959 . S
C1473 H1459 0.961 . S
C1473 C1472 1.502 . S
C1474 H1460 0.960 . S
C1474 H1461 0.961 . S
C1474 H1462 0.959 . S
C1474 C1472 1.561 . S
C1475 C1472 1.526 . S
C1475 C1476 1.396 . S
C1475 C1480 1.390 1_554 S
C1476 C1470 1.465 . S
C1476 C1475 1.396 . S
C1476 C1477 1.399 . S
C1477 H1463 0.929 . S
C1477 C1476 1.399 . S
C1477 C1478 1.385 1_554 S
C1478 H1464 0.931 . S
C1478 C1477 1.385 1_556 S
C1478 C1479 1.389 . S
C1479 C1478 1.389 . S
C1479 C1480 1.387 . S
C1480 H1465 0.930 . S
C1480 C1475 1.390 1_556 S
C1480 C1479 1.387 . S
H1481 C1493 0.930 . S
H1482 C1495 0.930 . S
H1483 C1496 0.930 . S
H1484 C1500 0.959 . S
H1485 C1500 0.959 . S
H1486 C1500 0.961 . S
H1487 C1501 0.960 . S
H1488 C1501 0.961 . S
H1489 C1501 0.959 . S
H1490 C1504 0.929 . S
H1491 C1505 0.931 . S
H1492 C1507 0.930 . S
C1493 H1481 0.930 . S
C1493 C1494 1.399 . S
C1493 C1498 1.399 1_554 S
C1494 C1493 1.399 . S
C1494 C1495 1.376 . S
C1495 H1482 0.930 . S
C1495 C1494 1.376 . S
C1495 C1496 1.388 1_554 S
C1496 H1483 0.930 . S
C1496 C1495 1.388 1_556 S
C1496 C1497 1.390 . S
C1497 C1496 1.390 . S
C1497 C1498 1.394 . S
C1497 C1503 1.465 . S
C1498 C1493 1.399 1_556 S
C1498 C1497 1.394 . S
C1498 C1499 1.516 . S
C1499 C1498 1.516 . S
C1499 C1500 1.502 . S
C1499 C1501 1.561 . S
C1499 C1502 1.526 . S
C1500 H1484 0.959 . S
C1500 H1485 0.959 . S
C1500 H1486 0.961 . S
C1500 C1499 1.502 . S
C1501 H1487 0.960 . S
C1501 H1488 0.961 . S
C1501 H1489 0.959 . S
C1501 C1499 1.561 . S
C1502 C1499 1.526 . S
C1502 C1503 1.396 . S
C1502 C1507 1.390 . S
C1503 C1497 1.465 . S
C1503 C1502 1.396 . S
C1503 C1504 1.399 . S
C1504 H1490 0.929 . S
C1504 C1503 1.399 . S
C1504 C1505 1.385 . S
C1505 H1491 0.931 . S
C1505 C1504 1.385 . S
C1505 C1506 1.389 . S
C1506 C1505 1.389 . S
C1506 C1507 1.387 . S
C1507 H1492 0.930 . S
C1507 C1502 1.390 . S
C1507 C1506 1.387 . S
H1508 C1520 0.930 . S
H1509 C1522 0.930 . S
H1510 C1523 0.930 . S
H1511 C1527 0.959 . S
H1512 C1527 0.959 . S
H1513 C1527 0.961 . S
H1514 C1528 0.960 . S
H1515 C1528 0.961 . S
H1516 C1528 0.959 . S
H1517 C1531 0.929 . S
H1518 C1532 0.931 . S
H1519 C1534 0.930 . S
C1520 H1508 0.930 . S
C1520 C1521 1.399 . S
C1520 C1525 1.399 . S
C1521 C1520 1.399 . S
C1521 C1522 1.376 . S
C1522 H1509 0.930 . S
C1522 C1521 1.376 . S
C1522 C1523 1.388 . S
C1523 H1510 0.930 . S
C1523 C1522 1.388 . S
C1523 C1524 1.390 . S
C1524 C1523 1.390 . S
C1524 C1525 1.394 . S
C1524 C1530 1.465 . S
C1525 C1520 1.399 . S
C1525 C1524 1.394 . S
C1525 C1526 1.516 . S
C1526 C1525 1.516 . S
C1526 C1527 1.502 . S
C1526 C1528 1.561 . S
C1526 C1529 1.526 . S
C1527 H1511 0.959 . S
C1527 H1512 0.959 . S
C1527 H1513 0.961 . S
C1527 C1526 1.502 . S
C1528 H1514 0.960 . S
C1528 H1515 0.961 . S
C1528 H1516 0.959 . S
C1528 C1526 1.561 . S
C1529 C1526 1.526 . S
C1529 C1530 1.396 . S
C1529 C1534 1.390 1_554 S
C1530 C1524 1.465 . S
C1530 C1529 1.396 . S
C1530 C1531 1.399 . S
C1531 H1517 0.929 . S
C1531 C1530 1.399 . S
C1531 C1532 1.385 1_554 S
C1532 H1518 0.931 . S
C1532 C1531 1.385 1_556 S
C1532 C1533 1.389 . S
C1533 C1532 1.389 . S
C1533 C1534 1.387 . S
C1534 H1519 0.930 . S
C1534 C1529 1.390 1_556 S
C1534 C1533 1.387 . S
H1535 C1547 0.930 . S
H1536 C1549 0.930 . S
H1537 C1550 0.930 . S
H1538 C1554 0.959 . S
H1539 C1554 0.959 . S
H1540 C1554 0.961 . S
H1541 C1555 0.960 . S
H1542 C1555 0.961 . S
H1543 C1555 0.959 . S
H1544 C1558 0.929 . S
H1545 C1559 0.931 . S
H1546 C1561 0.930 . S
C1547 H1535 0.930 . S
C1547 C1548 1.399 . S
C1547 C1552 1.399 1_554 S
C1548 C1547 1.399 . S
C1548 C1549 1.376 . S
C1549 H1536 0.930 . S
C1549 C1548 1.376 . S
C1549 C1550 1.388 1_554 S
C1550 H1537 0.930 . S
C1550 C1549 1.388 1_556 S
C1550 C1551 1.390 . S
C1551 C1550 1.390 . S
C1551 C1552 1.394 . S
C1551 C1557 1.465 . S
C1552 C1547 1.399 1_556 S
C1552 C1551 1.394 . S
C1552 C1553 1.516 . S
C1553 C1552 1.516 . S
C1553 C1554 1.502 . S
C1553 C1555 1.561 . S
C1553 C1556 1.526 . S
C1554 H1538 0.959 . S
C1554 H1539 0.959 . S
C1554 H1540 0.961 . S
C1554 C1553 1.502 . S
C1555 H1541 0.960 . S
C1555 H1542 0.961 . S
C1555 H1543 0.959 . S
C1555 C1553 1.561 . S
C1556 C1553 1.526 . S
C1556 C1557 1.396 . S
C1556 C1561 1.390 . S
C1557 C1551 1.465 . S
C1557 C1556 1.396 . S
C1557 C1558 1.399 . S
C1558 H1544 0.929 . S
C1558 C1557 1.399 . S
C1558 C1559 1.385 . S
C1559 H1545 0.931 . S
C1559 C1558 1.385 . S
C1559 C1560 1.389 . S
C1560 C1559 1.389 . S
C1560 C1561 1.387 . S
C1561 H1546 0.930 . S
C1561 C1556 1.390 . S
C1561 C1560 1.387 . S
H1562 C1574 0.930 . S
H1563 C1576 0.930 . S
H1564 C1577 0.930 . S
H1565 C1581 0.959 . S
H1566 C1581 0.959 . S
H1567 C1581 0.961 . S
H1568 C1582 0.960 . S
H1569 C1582 0.961 . S
H1570 C1582 0.959 . S
H1571 C1585 0.929 . S
H1572 C1586 0.931 . S
H1573 C1588 0.930 . S
C1574 H1562 0.930 . S
C1574 C1575 1.399 . S
C1574 C1579 1.399 1_556 S
C1575 C1574 1.399 . S
C1575 C1576 1.376 . S
C1576 H1563 0.930 . S
C1576 C1575 1.376 . S
C1576 C1577 1.388 1_556 S
C1577 H1564 0.930 . S
C1577 C1576 1.388 1_554 S
C1577 C1578 1.390 . S
C1578 C1577 1.390 . S
C1578 C1579 1.394 . S
C1578 C1584 1.465 . S
C1579 C1574 1.399 1_554 S
C1579 C1578 1.394 . S
C1579 C1580 1.516 . S
C1580 C1579 1.516 . S
C1580 C1581 1.502 . S
C1580 C1582 1.561 . S
C1580 C1583 1.526 . S
C1581 H1565 0.959 . S
C1581 H1566 0.959 . S
C1581 H1567 0.961 . S
C1581 C1580 1.502 . S
C1582 H1568 0.960 . S
C1582 H1569 0.961 . S
C1582 H1570 0.959 . S
C1582 C1580 1.561 . S
C1583 C1580 1.526 . S
C1583 C1584 1.396 . S
C1583 C1588 1.390 . S
C1584 C1578 1.465 . S
C1584 C1583 1.396 . S
C1584 C1585 1.399 . S
C1585 H1571 0.929 . S
C1585 C1584 1.399 . S
C1585 C1586 1.385 . S
C1586 H1572 0.931 . S
C1586 C1585 1.385 . S
C1586 C1587 1.389 . S
C1587 C1586 1.389 . S
C1587 C1588 1.387 . S
C1588 H1573 0.930 . S
C1588 C1583 1.390 . S
C1588 C1587 1.387 . S
H1589 C1601 0.930 . S
H1590 C1603 0.930 . S
H1591 C1604 0.930 . S
H1592 C1608 0.959 . S
H1593 C1608 0.959 . S
H1594 C1608 0.961 . S
H1595 C1609 0.960 . S
H1596 C1609 0.961 . S
H1597 C1609 0.959 . S
H1598 C1612 0.929 . S
H1599 C1613 0.931 . S
H1600 C1615 0.930 . S
C1601 H1589 0.930 . S
C1601 C1602 1.399 . S
C1601 C1606 1.399 . S
C1602 C1601 1.399 . S
C1602 C1603 1.376 . S
C1603 H1590 0.930 . S
C1603 C1602 1.376 . S
C1603 C1604 1.388 . S
C1604 H1591 0.930 . S
C1604 C1603 1.388 . S
C1604 C1605 1.390 . S
C1605 C1604 1.390 . S
C1605 C1606 1.394 . S
C1605 C1611 1.465 . S
C1606 C1601 1.399 . S
C1606 C1605 1.394 . S
C1606 C1607 1.516 . S
C1607 C1606 1.516 . S
C1607 C1608 1.502 . S
C1607 C1609 1.561 . S
C1607 C1610 1.526 . S
C1608 H1592 0.959 . S
C1608 H1593 0.959 . S
C1608 H1594 0.961 . S
C1608 C1607 1.502 . S
C1609 H1595 0.960 . S
C1609 H1596 0.961 . S
C1609 H1597 0.959 . S
C1609 C1607 1.561 . S
C1610 C1607 1.526 . S
C1610 C1611 1.396 . S
C1610 C1615 1.390 1_556 S
C1611 C1605 1.465 . S
C1611 C1610 1.396 . S
C1611 C1612 1.399 . S
C1612 H1598 0.929 . S
C1612 C1611 1.399 . S
C1612 C1613 1.385 1_556 S
C1613 H1599 0.931 . S
C1613 C1612 1.385 1_554 S
C1613 C1614 1.389 . S
C1614 C1613 1.389 . S
C1614 C1615 1.387 . S
C1615 H1600 0.930 . S
C1615 C1610 1.390 1_554 S
C1615 C1614 1.387 . S
C333 C222 1.520 . S
C345 C19 1.572 . S
C360 C164 1.546 . S
C372 C38 1.583 . S
C387 C59 1.584 . S
C399 C182 1.561 . S
C414 C78 1.555 . S
C426 C204 1.506 . S
C441 C99 1.543 . S
C453 C102 1.507 1_554 S
C468 C124 1.503 1_556 S
C480 C118 1.564 . S
C495 C139 1.578 . S
C507 C142 1.569 . S
C522 C84 1.526 . S
C534 C158 1.583 . S
C549 C62 1.519 . S
C561 C179 1.571 . S
C576 C198 1.573 . S
C588 C4 1.565 . S
C603 C22 1.531 . S
C615 C219 1.578 . S
C630 C44 1.544 . S
C642 C238 1.541 . S
C657 C259 1.545 . S
C669 C262 1.505 . S
C684 C284 1.509 . S
C696 C278 1.575 . S
C711 C302 1.539 . S
C723 C299 1.546 . S
C738 C318 1.576 . S
C750 C244 1.562 . S
C765 C18 1.482 . S
C777 C98 1.445 . S
C792 C119 1.478 . S
C804 C39 1.448 . S
C819 C58 1.492 . S
C831 C138 1.449 . S
C846 C79 1.481 . S
C858 C159 1.446 . S
C873 C178 1.481 . S
C885 C258 1.445 . S
C900 C279 1.489 . S
C912 C199 1.444 . S
C927 C218 1.473 . S
C939 C298 1.506 . S
C954 C239 1.471 . S
C966 C319 1.502 . S
C981 C282 1.465 . S
C993 C2 1.531 1_556 S
C1008 C24 1.496 1_554 S
C1020 C304 1.527 . S
C1035 C42 1.549 1_556 S
C1047 C242 1.516 . S
C1062 C64 1.564 1_554 S
C1074 C264 1.462 . S
C1089 C82 1.496 . S
C1101 C202 1.561 . S
C1116 C104 1.460 . S
C1128 C224 1.563 . S
C1143 C122 1.465 . S
C1155 C162 1.530 . S
C1170 C184 1.551 . S
C1182 C144 1.480 . S
C1197 C12 1.336 . S
C1209 C9 1.308 . S
C1224 C29 1.323 . S
C1236 C32 1.301 . S
C1251 C52 1.333 . S
C1263 C49 1.312 . S
C1278 C72 1.287 . S
C1290 C69 1.350 . S
C1305 C89 1.287 . S
C1317 C92 1.339 . S
C1332 C109 1.333 . S
C1344 C112 1.293 . S
C1359 C132 1.298 . S
C1371 C129 1.326 . S
C1386 C152 1.349 . S
C1398 C149 1.282 . S
C1413 C172 1.332 . S
C1425 C169 1.312 . S
C1440 C192 1.347 . S
C1452 C189 1.283 . S
C1467 C209 1.285 . S
C1479 C212 1.341 . S
C1494 C229 1.330 . S
C1506 C232 1.295 . S
C1521 C252 1.348 . S
C1533 C249 1.292 . S
C1548 C272 1.286 . S
C1560 C269 1.350 . S
C1575 C289 1.349 . S
C1587 C292 1.291 . S
C1602 C309 1.310 . S
C1614 C312 1.333 . S
