# Generated by pormake.
# Topology bcu-i, (5)-cn, num edge types: 1
# Building blocks:
#     Node 0, Type 0, BuildingBlock: XOMCOT_clean_sbu_1, # of connection points: 5
#     Node 1, Type 0, BuildingBlock: XOMCOT_clean_sbu_1, # of connection points: 5
#     Node 2, Type 0, BuildingBlock: XOMCOT_clean_sbu_1, # of connection points: 5
#     Node 3, Type 0, BuildingBlock: XOMCOT_clean_sbu_1, # of connection points: 5
#     Node 4, Type 0, BuildingBlock: XOMCOT_clean_sbu_1, # of connection points: 5
#     Node 5, Type 0, BuildingBlock: XOMCOT_clean_sbu_1, # of connection points: 5
#     Node 6, Type 0, BuildingBlock: XOMCOT_clean_sbu_1, # of connection points: 5
#     Node 7, Type 0, BuildingBlock: XOMCOT_clean_sbu_1, # of connection points: 5
#     Node 8, Type 0, BuildingBlock: XOMCOT_clean_sbu_1, # of connection points: 5
#     Node 9, Type 0, BuildingBlock: XOMCOT_clean_sbu_1, # of connection points: 5
#     Node 10, Type 0, BuildingBlock: XOMCOT_clean_sbu_1, # of connection points: 5
#     Node 11, Type 0, BuildingBlock: XOMCOT_clean_sbu_1, # of connection points: 5
#     Node 12, Type 0, BuildingBlock: XOMCOT_clean_sbu_1, # of connection points: 5
#     Node 13, Type 0, BuildingBlock: XOMCOT_clean_sbu_1, # of connection points: 5
#     Node 14, Type 0, BuildingBlock: XOMCOT_clean_sbu_1, # of connection points: 5
#     Node 15, Type 0, BuildingBlock: XOMCOT_clean_sbu_1, # of connection points: 5
#     Edge 16, Type (0, 0), None
#     Edge 17, Type (0, 0), None
#     Edge 18, Type (0, 0), None
#     Edge 19, Type (0, 0), None
#     Edge 20, Type (0, 0), None
#     Edge 21, Type (0, 0), None
#     Edge 22, Type (0, 0), None
#     Edge 23, Type (0, 0), None
#     Edge 24, Type (0, 0), None
#     Edge 25, Type (0, 0), None
#     Edge 26, Type (0, 0), None
#     Edge 27, Type (0, 0), None
#     Edge 28, Type (0, 0), None
#     Edge 29, Type (0, 0), None
#     Edge 30, Type (0, 0), None
#     Edge 31, Type (0, 0), None
#     Edge 32, Type (0, 0), None
#     Edge 33, Type (0, 0), None
#     Edge 34, Type (0, 0), None
#     Edge 35, Type (0, 0), None
#     Edge 36, Type (0, 0), None
#     Edge 37, Type (0, 0), None
#     Edge 38, Type (0, 0), None
#     Edge 39, Type (0, 0), None
#     Edge 40, Type (0, 0), None
#     Edge 41, Type (0, 0), None
#     Edge 42, Type (0, 0), None
#     Edge 43, Type (0, 0), None
#     Edge 44, Type (0, 0), None
#     Edge 45, Type (0, 0), None
#     Edge 46, Type (0, 0), None
#     Edge 47, Type (0, 0), None
#     Edge 48, Type (0, 0), None
#     Edge 49, Type (0, 0), None
#     Edge 50, Type (0, 0), None
#     Edge 51, Type (0, 0), None
#     Edge 52, Type (0, 0), None
#     Edge 53, Type (0, 0), None
#     Edge 54, Type (0, 0), None
#     Edge 55, Type (0, 0), None
# Relax obj value: 0.598
# Max RMSD: 0.251
# Mean RMSD: 0.251
data_MOF--net-bcu-i--node1-XOMCOT_clean_sbu_1--edge1-none
_symmetry_space_group_name_H-M    P1
_symmetry_Int_Tables_number       1
_symmetry_cell_setting            triclinic
loop_
_symmetry_equiv_pos_as_xyz
'x, y, z'
_cell_length_a     26.510692
_cell_length_b     26.510206
_cell_length_c     24.050102
_cell_angle_alpha  89.99982
_cell_angle_beta   90.000071
_cell_angle_gamma 90.000359
loop_
_atom_site_label
_atom_site_type_symbol
_atom_site_fract_x
_atom_site_fract_y
_atom_site_fract_z
_atom_type_partial_charge
C0 C 0.06966 0.09052 0.31323 0.0
C1 C 0.01995 0.1035 0.30642 0.0
N2 N -0.00428 0.09602 0.35511 0.0
N3 N 0.07668 0.0758 0.36623 0.0
C4 C 0.03079 0.07883 0.3906 0.0
H5 H 0.09882 0.09171 0.28179 0.0
Co6 Co 0.13462 0.05161 0.39946 0.0
C7 C 0.13182 0.12057 0.4986 0.0
O8 O 0.17388 0.14175 0.48207 0.0
N9 N 0.19286 0.02575 0.43727 0.0
C10 C 0.25813 0.01939 0.49602 0.0
C11 C 0.23434 0.04963 0.45722 0.0
C12 C 0.19434 -0.01975 0.46247 0.0
N13 N 0.23212 -0.02396 0.49941 0.0
O14 O 0.09947 -0.01004 0.41254 0.0
H15 H 0.24471 0.08811 0.44791 0.0
H16 H 0.16579 0.95166 0.45817 0.0
O17 O 0.11269 0.08409 0.47063 0.0
C18 C 0.10752 -0.03146 0.3653 0.0
O19 O 0.13103 -0.00586 0.32632 0.0
N20 N 0.17059 0.10705 0.37221 0.0
C21 C 0.21794 0.16654 0.292 0.0
C22 C 0.18096 0.18756 0.32699 0.0
C23 C 0.15672 0.15658 0.36655 0.0
C24 C 0.20546 0.08666 0.33722 0.0
C25 C 0.22935 0.11538 0.29735 0.0
H26 H 0.12541 0.17144 0.39029 0.0
H27 H 0.21304 0.04664 0.33792 0.0
H28 H 0.02335 0.06892 0.4335 0.0
H29 H 0.00295 0.11758 0.26851 0.0
H30 H 0.28868 0.03041 0.52327 0.0
H31 H 0.1708 0.22699 0.32351 0.0
H32 H 0.25666 0.09733 0.27032 0.0
C33 C 0.82482 0.06968 0.31323 0.0
C34 C 0.81185 0.01996 0.30641 0.0
N35 N 0.81932 -0.00426 0.35511 0.0
N36 N 0.83954 0.07669 0.36624 0.0
C37 C 0.83651 0.03081 0.3906 0.0
H38 H 0.82363 0.09883 0.28179 0.0
Co39 Co 0.86373 0.13463 0.39946 0.0
C40 C 0.79477 0.13183 0.49861 0.0
O41 O 0.77359 0.17389 0.48207 0.0
N42 N 0.88958 0.19288 0.43727 0.0
C43 C 0.89595 0.25814 0.49603 0.0
C44 C 0.8657 0.23436 0.45723 0.0
C45 C 0.93508 0.19435 0.46248 0.0
N46 N 0.93929 0.23213 0.49942 0.0
O47 O 0.92538 0.09948 0.41255 0.0
H48 H 0.82722 0.24472 0.44791 0.0
H49 H -0.03632 0.16581 0.45817 0.0
O50 O 0.83125 0.1127 0.47063 0.0
C51 C 0.94679 0.10753 0.36531 0.0
O52 O 0.9212 0.13106 0.32633 0.0
N53 N 0.80828 0.1706 0.37222 0.0
C54 C 0.7488 0.21795 0.29201 0.0
C55 C 0.72778 0.18097 0.32699 0.0
C56 C 0.75876 0.15673 0.36656 0.0
C57 C 0.82867 0.20548 0.33723 0.0
C58 C 0.79995 0.22936 0.29735 0.0
H59 H 0.7439 0.12542 0.39029 0.0
H60 H 0.86869 0.21306 0.33792 0.0
H61 H 0.84641 0.02336 0.4335 0.0
H62 H 0.79777 0.00296 0.26851 0.0
H63 H 0.88493 0.2887 0.52328 0.0
H64 H 0.68835 0.1708 0.32351 0.0
H65 H 0.818 0.25667 0.27033 0.0
C66 C 0.84566 0.82483 0.31323 0.0
C67 C 0.89538 0.81186 0.30641 0.0
N68 N 0.9196 0.81933 0.3551 0.0
N69 N 0.83865 0.83955 0.36623 0.0
C70 C 0.88453 0.83652 0.3906 0.0
H71 H 0.81651 0.82364 0.28178 0.0
Co72 Co 0.78071 0.86374 0.39946 0.0
C73 C 0.78351 0.79478 0.4986 0.0
O74 O 0.74145 0.7736 0.48207 0.0
N75 N 0.72246 0.88959 0.43727 0.0
C76 C 0.6572 0.89595 0.49602 0.0
C77 C 0.68099 0.86571 0.45722 0.0
C78 C 0.72099 0.93509 0.46248 0.0
N79 N 0.68321 0.9393 0.49942 0.0
O80 O 0.81586 0.92539 0.41254 0.0
H81 H 0.67062 0.82723 0.4479 0.0
H82 H 0.74954 -0.03632 0.45818 0.0
O83 O 0.80264 0.83125 0.47063 0.0
C84 C 0.80781 0.94681 0.3653 0.0
O85 O 0.78429 0.92121 0.32633 0.0
N86 N 0.74474 0.80829 0.37221 0.0
C87 C 0.69739 0.74881 0.292 0.0
C88 C 0.73437 0.72779 0.32699 0.0
C89 C 0.75861 0.75877 0.36655 0.0
C90 C 0.70986 0.82869 0.33722 0.0
C91 C 0.68598 0.79997 0.29735 0.0
H92 H 0.78992 0.74391 0.39029 0.0
H93 H 0.70229 0.8687 0.33792 0.0
H94 H 0.89198 0.84642 0.4335 0.0
H95 H 0.91238 0.79778 0.2685 0.0
H96 H 0.62665 0.88494 0.52327 0.0
H97 H 0.74454 0.68836 0.32351 0.0
H98 H 0.65867 0.81802 0.27032 0.0
C99 C 0.09051 0.84567 0.31323 0.0
C100 C 0.1035 0.89538 0.30642 0.0
N101 N 0.09604 0.9196 0.35512 0.0
N102 N 0.07579 0.83865 0.36623 0.0
C103 C 0.07883 0.88454 0.39061 0.0
H104 H 0.09169 0.81651 0.28178 0.0
Co105 Co 0.0516 0.78071 0.39945 0.0
C106 C 0.12055 0.7835 0.49861 0.0
O107 O 0.14173 0.74145 0.48207 0.0
N108 N 0.02574 0.72247 0.43726 0.0
C109 C 0.01937 0.6572 0.49601 0.0
C110 C 0.04961 0.68099 0.45721 0.0
C111 C -0.01976 0.721 0.46247 0.0
N112 N -0.02397 0.68322 0.49941 0.0
O113 O -0.01005 0.81587 0.41254 0.0
H114 H 0.08809 0.67061 0.4479 0.0
H115 H 0.95165 0.74955 0.45817 0.0
O116 O 0.08408 0.80264 0.47063 0.0
C117 C -0.03147 0.80782 0.3653 0.0
O118 O -0.00587 0.78429 0.32632 0.0
N119 N 0.10704 0.74474 0.37221 0.0
C120 C 0.16653 0.6974 0.29201 0.0
C121 C 0.18755 0.73437 0.327 0.0
C122 C 0.15657 0.75861 0.36656 0.0
C123 C 0.08665 0.70986 0.33722 0.0
C124 C 0.11537 0.68598 0.29735 0.0
H125 H 0.17143 0.78992 0.3903 0.0
H126 H 0.04663 0.70229 0.33791 0.0
H127 H 0.06892 0.89198 0.4335 0.0
H128 H 0.11757 0.91238 0.26851 0.0
H129 H 0.03039 0.62664 0.52326 0.0
H130 H 0.22698 0.74454 0.32352 0.0
H131 H 0.09732 0.65868 0.27032 0.0
C132 C 0.07527 0.82995 0.73605 0.0
C133 C 0.02655 0.81377 0.74271 0.0
N134 N 0.0021 0.81943 0.69388 0.0
N135 N 0.08145 0.84518 0.68309 0.0
C136 C 0.03598 0.83907 0.65851 0.0
H137 H 0.10437 0.83023 0.76755 0.0
Co138 Co 0.13902 0.87019 0.6502 0.0
C139 C 0.14318 0.80947 0.54702 0.0
O140 O 0.1906 0.80009 0.55898 0.0
N141 N 0.19641 0.89702 0.61367 0.0
C142 C 0.26675 0.93531 0.58382 0.0
C143 C 0.24545 0.90674 0.62597 0.0
C144 C 0.18943 0.91951 0.56409 0.0
N145 N 0.23107 0.94267 0.54505 0.0
O146 O 0.10427 0.93225 0.63651 0.0
H147 H 0.26451 0.89644 0.66394 0.0
H148 H 0.15297 0.92178 0.54418 0.0
O149 O 0.11725 0.8377 0.57932 0.0
C150 C 0.11048 0.95403 0.68373 0.0
O151 O 0.13339 0.9292 0.72362 0.0
N152 N 0.17461 0.81407 0.67594 0.0
C153 C 0.2189 0.74938 0.75324 0.0
C154 C 0.18831 0.72984 0.71047 0.0
C155 C 0.16536 0.76335 0.6724 0.0
C156 C 0.20277 0.83269 0.71851 0.0
C157 C 0.22505 0.80148 0.75711 0.0
H158 H 0.13872 0.74897 0.6423 0.0
H159 H 0.20553 0.87275 0.72501 0.0
H160 H 0.02805 0.84822 0.61552 0.0
H161 H 0.01045 0.7985 0.78054 0.0
H162 H 0.30439 0.95108 0.58294 0.0
H163 H 0.18209 0.68962 0.70681 0.0
H164 H 0.24688 0.8183 0.79042 0.0
C165 C 0.0854 0.07528 0.73605 0.0
C166 C 0.10159 0.02656 0.74271 0.0
N167 N 0.09594 0.00212 0.69386 0.0
N168 N 0.07016 0.08146 0.68309 0.0
C169 C 0.07628 0.03599 0.65851 0.0
H170 H 0.0851 0.10437 0.76755 0.0
Co171 Co 0.04514 0.13904 0.6502 0.0
C172 C 0.10586 0.1432 0.54702 0.0
O173 O 0.11524 0.19062 0.55898 0.0
N174 N 0.01831 0.19643 0.61368 0.0
C175 C -0.01998 0.26676 0.58383 0.0
C176 C 0.00859 0.24546 0.62598 0.0
C177 C -0.00418 0.18945 0.5641 0.0
N178 N -0.02734 0.23108 0.54506 0.0
O179 O -0.01691 0.10428 0.63652 0.0
H180 H 0.01889 0.26452 0.66395 0.0
H181 H -0.00645 0.15298 0.54419 0.0
O182 O 0.07763 0.11727 0.57932 0.0
C183 C -0.0387 0.11049 0.68374 0.0
O184 O -0.01387 0.1334 0.72363 0.0
N185 N 0.10126 0.17462 0.67594 0.0
C186 C 0.16595 0.21891 0.75324 0.0
C187 C 0.18549 0.18832 0.71047 0.0
C188 C 0.15198 0.16538 0.6724 0.0
C189 C 0.08265 0.20278 0.71852 0.0
C190 C 0.11386 0.22506 0.75711 0.0
H191 H 0.16636 0.13873 0.64229 0.0
H192 H 0.04259 0.20554 0.72502 0.0
H193 H 0.06712 0.02806 0.61552 0.0
H194 H 0.11685 0.01046 0.78054 0.0
H195 H -0.03575 0.3044 0.58295 0.0
H196 H 0.22572 0.1821 0.7068 0.0
H197 H 0.09704 0.24689 0.79042 0.0
C198 C 0.84006 0.08541 0.73605 0.0
C199 C 0.88878 0.10159 0.74271 0.0
N200 N 0.91322 0.09594 0.69387 0.0
N201 N 0.83388 0.07017 0.6831 0.0
C202 C 0.87935 0.07629 0.65851 0.0
H203 H 0.81097 0.08511 0.76755 0.0
Co204 Co 0.77631 0.04515 0.65021 0.0
C205 C 0.77214 0.10587 0.54702 0.0
O206 O 0.72472 0.11525 0.55898 0.0
N207 N 0.71892 0.01832 0.61368 0.0
C208 C 0.64858 -0.01997 0.58383 0.0
C209 C 0.66988 0.00859 0.62598 0.0
C210 C 0.7259 -0.00417 0.5641 0.0
N211 N 0.68426 -0.02734 0.54506 0.0
O212 O 0.81106 -0.0169 0.63652 0.0
H213 H 0.65082 0.0189 0.66395 0.0
H214 H 0.76236 -0.00644 0.54419 0.0
O215 O 0.79807 0.07764 0.57932 0.0
C216 C 0.80485 -0.03869 0.68374 0.0
O217 O 0.78194 -0.01386 0.72363 0.0
N218 N 0.74072 0.10127 0.67595 0.0
C219 C 0.69643 0.16596 0.75324 0.0
C220 C 0.72701 0.1855 0.71047 0.0
C221 C 0.74996 0.15199 0.6724 0.0
C222 C 0.71256 0.08265 0.71852 0.0
C223 C 0.69028 0.11387 0.75712 0.0
H224 H 0.7766 0.16637 0.64229 0.0
H225 H 0.7098 0.04259 0.72502 0.0
H226 H 0.88728 0.06713 0.61552 0.0
H227 H 0.90487 0.11686 0.78054 0.0
H228 H 0.61094 -0.03574 0.58294 0.0
H229 H 0.73323 0.22572 0.70681 0.0
H230 H 0.66844 0.09704 0.79043 0.0
C231 C 0.82994 0.84006 0.73605 0.0
C232 C 0.81375 0.88878 0.74271 0.0
N233 N 0.8194 0.91322 0.69387 0.0
N234 N 0.84517 0.83389 0.6831 0.0
C235 C 0.83905 0.87935 0.65851 0.0
H236 H 0.83024 0.81097 0.76755 0.0
Co237 Co 0.87019 0.77631 0.6502 0.0
C238 C 0.80947 0.77215 0.54702 0.0
O239 O 0.80009 0.72473 0.55898 0.0
N240 N 0.89702 0.71892 0.61368 0.0
C241 C 0.9353 0.64858 0.58382 0.0
C242 C 0.90674 0.66988 0.62597 0.0
C243 C 0.91951 0.7259 0.5641 0.0
N244 N 0.94267 0.68426 0.54506 0.0
O245 O 0.93224 0.81107 0.63652 0.0
H246 H 0.89643 0.65082 0.66394 0.0
H247 H 0.92178 0.76237 0.54419 0.0
O248 O 0.8377 0.79808 0.57932 0.0
C249 C 0.95403 0.80486 0.68374 0.0
O250 O 0.9292 0.78194 0.72363 0.0
N251 N 0.81407 0.74072 0.67594 0.0
C252 C 0.74938 0.69644 0.75324 0.0
C253 C 0.72984 0.72702 0.71047 0.0
C254 C 0.76335 0.74997 0.6724 0.0
C255 C 0.83268 0.71256 0.71852 0.0
C256 C 0.80147 0.69029 0.75711 0.0
H257 H 0.74897 0.77661 0.64229 0.0
H258 H 0.87274 0.7098 0.72502 0.0
H259 H 0.8482 0.88729 0.61552 0.0
H260 H 0.79849 0.90488 0.78054 0.0
H261 H 0.95106 0.61094 0.58293 0.0
H262 H 0.68961 0.73325 0.7068 0.0
H263 H 0.81829 0.66845 0.79042 0.0
C264 C 0.56966 0.59052 0.81323 0.0
C265 C 0.51995 0.6035 0.80641 0.0
N266 N 0.49572 0.59602 0.85511 0.0
N267 N 0.57667 0.5758 0.86623 0.0
C268 C 0.53079 0.57883 0.8906 0.0
H269 H 0.59882 0.59171 0.78179 0.0
Co270 Co 0.63462 0.55161 0.89945 0.0
C271 C 0.63182 0.62057 0.9986 0.0
O272 O 0.67388 0.64175 0.98207 0.0
N273 N 0.69286 0.52575 0.93727 0.0
C274 C 0.75813 0.51939 0.99602 0.0
C275 C 0.73434 0.54963 0.95722 0.0
C276 C 0.69434 0.48025 0.96247 0.0
N277 N 0.73211 0.47604 0.99941 0.0
O278 O 0.59947 0.48996 0.91254 0.0
H279 H 0.74471 0.58811 0.9479 0.0
H280 H 0.66579 0.45166 0.95817 0.0
O281 O 0.61268 0.58409 0.97063 0.0
C282 C 0.60752 0.46854 0.8653 0.0
O283 O 0.63103 0.49414 0.82632 0.0
N284 N 0.67059 0.60706 0.87221 0.0
C285 C 0.71794 0.66654 0.79201 0.0
C286 C 0.68096 0.68757 0.82699 0.0
C287 C 0.65672 0.65658 0.86656 0.0
C288 C 0.70546 0.58666 0.83722 0.0
C289 C 0.72935 0.61538 0.79735 0.0
H290 H 0.62541 0.67144 0.89029 0.0
H291 H 0.71303 0.54665 0.83792 0.0
H292 H 0.52335 0.56892 0.9335 0.0
H293 H 0.50295 0.61758 0.76851 0.0
H294 H 0.78868 0.53041 1.02327 0.0
H295 H 0.67079 0.72699 0.82351 0.0
H296 H 0.75666 0.59734 0.77033 0.0
C297 C 0.32482 0.56968 0.81323 0.0
C298 C 0.31185 0.51996 0.80641 0.0
N299 N 0.31932 0.49573 0.85511 0.0
N300 N 0.33954 0.57669 0.86624 0.0
C301 C 0.33651 0.53081 0.8906 0.0
H302 H 0.32363 0.59883 0.78179 0.0
Co303 Co 0.36373 0.63463 0.89946 0.0
C304 C 0.29477 0.63183 0.99861 0.0
O305 O 0.27359 0.67389 0.98207 0.0
N306 N 0.38958 0.69288 0.93727 0.0
C307 C 0.39594 0.75814 0.99603 0.0
C308 C 0.3657 0.73436 0.95723 0.0
C309 C 0.43508 0.69435 0.96248 0.0
N310 N 0.43929 0.73213 0.99942 0.0
O311 O 0.42538 0.59948 0.91254 0.0
H312 H 0.32722 0.74472 0.94791 0.0
H313 H 0.46367 0.66581 0.95817 0.0
O314 O 0.33125 0.6127 0.97063 0.0
C315 C 0.44679 0.60753 0.86531 0.0
O316 O 0.4212 0.63106 0.82633 0.0
N317 N 0.30828 0.6706 0.87222 0.0
C318 C 0.24879 0.71795 0.79202 0.0
C319 C 0.22777 0.68097 0.827 0.0
C320 C 0.25876 0.65673 0.86656 0.0
C321 C 0.32867 0.70548 0.83723 0.0
C322 C 0.29995 0.72937 0.79736 0.0
H323 H 0.2439 0.62542 0.89029 0.0
H324 H 0.36869 0.71306 0.83792 0.0
H325 H 0.34641 0.52336 0.9335 0.0
H326 H 0.29777 0.50296 0.76851 0.0
H327 H 0.38493 0.7887 1.02328 0.0
H328 H 0.18835 0.6708 0.82351 0.0
H329 H 0.318 0.75668 0.77033 0.0
C330 C 0.34566 0.32483 0.81323 0.0
C331 C 0.39538 0.31185 0.80641 0.0
N332 N 0.41961 0.31933 0.8551 0.0
N333 N 0.33865 0.33955 0.86623 0.0
C334 C 0.38453 0.33652 0.8906 0.0
H335 H 0.31651 0.32364 0.78178 0.0
Co336 Co 0.28071 0.36374 0.89945 0.0
C337 C 0.28351 0.29478 0.99861 0.0
O338 O 0.24145 0.2736 0.98207 0.0
N339 N 0.22247 0.38959 0.93727 0.0
C340 C 0.1572 0.39595 0.99602 0.0
C341 C 0.18099 0.36571 0.95722 0.0
C342 C 0.22099 0.43509 0.96248 0.0
N343 N 0.18322 0.4393 0.99942 0.0
O344 O 0.31586 0.42539 0.91254 0.0
H345 H 0.17062 0.32723 0.9479 0.0
H346 H 0.24954 0.46368 0.95818 0.0
O347 O 0.30265 0.33125 0.97063 0.0
C348 C 0.30781 0.4468 0.8653 0.0
O349 O 0.28429 0.42121 0.82633 0.0
N350 N 0.24474 0.30829 0.87221 0.0
C351 C 0.19739 0.2488 0.79201 0.0
C352 C 0.23437 0.22778 0.82699 0.0
C353 C 0.25861 0.25876 0.86656 0.0
C354 C 0.20986 0.32868 0.83722 0.0
C355 C 0.18598 0.29996 0.79735 0.0
H356 H 0.28992 0.24391 0.89029 0.0
H357 H 0.20229 0.3687 0.83792 0.0
H358 H 0.39198 0.34642 0.9335 0.0
H359 H 0.41238 0.29778 0.7685 0.0
H360 H 0.12665 0.38493 1.02327 0.0
H361 H 0.24454 0.18835 0.82351 0.0
H362 H 0.15867 0.31801 0.77033 0.0
C363 C 0.59051 0.34567 0.81323 0.0
C364 C 0.6035 0.39538 0.80642 0.0
N365 N 0.59604 0.4196 0.85511 0.0
N366 N 0.57579 0.33866 0.86623 0.0
C367 C 0.57883 0.38454 0.8906 0.0
H368 H 0.59169 0.31652 0.78178 0.0
Co369 Co 0.5516 0.28072 0.89945 0.0
C370 C 0.62055 0.28351 0.99861 0.0
O371 O 0.64173 0.24145 0.98208 0.0
N372 N 0.52574 0.22247 0.93726 0.0
C373 C 0.51937 0.1572 0.99601 0.0
C374 C 0.54961 0.18099 0.95721 0.0
C375 C 0.48024 0.221 0.96247 0.0
N376 N 0.47603 0.18322 0.99941 0.0
O377 O 0.48995 0.31587 0.91254 0.0
H378 H 0.58809 0.17062 0.94789 0.0
H379 H 0.45165 0.24955 0.95817 0.0
O380 O 0.58408 0.30265 0.97063 0.0
C381 C 0.46853 0.30782 0.8653 0.0
O382 O 0.49413 0.28429 0.82632 0.0
N383 N 0.60704 0.24474 0.87221 0.0
C384 C 0.66653 0.19739 0.79202 0.0
C385 C 0.68755 0.23437 0.827 0.0
C386 C 0.65657 0.25861 0.86656 0.0
C387 C 0.58665 0.20987 0.83722 0.0
C388 C 0.61538 0.18598 0.79735 0.0
H389 H 0.67143 0.28992 0.8903 0.0
H390 H 0.54664 0.20229 0.83791 0.0
H391 H 0.56892 0.39198 0.9335 0.0
H392 H 0.61757 0.41238 0.76851 0.0
H393 H 0.53039 0.12664 1.02326 0.0
H394 H 0.72698 0.24454 0.82352 0.0
H395 H 0.59733 0.15867 0.77032 0.0
C396 C 0.57527 0.32995 0.23605 0.0
C397 C 0.52655 0.31377 0.24271 0.0
N398 N 0.5021 0.31943 0.19388 0.0
N399 N 0.58145 0.34518 0.1831 0.0
C400 C 0.53598 0.33907 0.15852 0.0
H401 H 0.60437 0.33023 0.26755 0.0
Co402 Co 0.63902 0.3702 0.1502 0.0
C403 C 0.64318 0.30947 0.04702 0.0
O404 O 0.6906 0.30009 0.05898 0.0
N405 N 0.69641 0.39702 0.11367 0.0
C406 C 0.76675 0.43531 0.08382 0.0
C407 C 0.74545 0.40675 0.12597 0.0
C408 C 0.68943 0.41951 0.06409 0.0
N409 N 0.73107 0.44268 0.04506 0.0
O410 O 0.60427 0.43225 0.13651 0.0
H411 H 0.76451 0.39644 0.16394 0.0
H412 H 0.65297 0.42178 0.04418 0.0
O413 O 0.61725 0.3377 0.07932 0.0
C414 C 0.61048 0.45404 0.18373 0.0
O415 O 0.6334 0.42921 0.22362 0.0
N416 N 0.67461 0.31407 0.17594 0.0
C417 C 0.7189 0.24938 0.25323 0.0
C418 C 0.68831 0.22984 0.21047 0.0
C419 C 0.66536 0.26335 0.1724 0.0
C420 C 0.70277 0.33269 0.21851 0.0
C421 C 0.72505 0.30147 0.25711 0.0
H422 H 0.63872 0.24897 0.14229 0.0
H423 H 0.70553 0.37275 0.22501 0.0
H424 H 0.52805 0.34822 0.11552 0.0
H425 H 0.51046 0.2985 0.28054 0.0
H426 H 0.80439 0.45108 0.08294 0.0
H427 H 0.68209 0.18962 0.20681 0.0
H428 H 0.74689 0.3183 0.29042 0.0
C429 C 0.5854 0.57528 0.23605 0.0
C430 C 0.60159 0.52656 0.24271 0.0
N431 N 0.59594 0.50212 0.19387 0.0
N432 N 0.57016 0.58146 0.18309 0.0
C433 C 0.57628 0.53599 0.15851 0.0
H434 H 0.5851 0.60437 0.26755 0.0
Co435 Co 0.54514 0.63904 0.1502 0.0
C436 C 0.60585 0.6432 0.04702 0.0
O437 O 0.61524 0.69062 0.05898 0.0
N438 N 0.51831 0.69643 0.11368 0.0
C439 C 0.48002 0.76676 0.08383 0.0
C440 C 0.50859 0.74546 0.12598 0.0
C441 C 0.49582 0.68944 0.0641 0.0
N442 N 0.47266 0.73108 0.04506 0.0
O443 O 0.48309 0.60428 0.13652 0.0
H444 H 0.51889 0.76452 0.16395 0.0
H445 H 0.49355 0.65298 0.04419 0.0
O446 O 0.57763 0.61727 0.07932 0.0
C447 C 0.4613 0.61049 0.18374 0.0
O448 O 0.48613 0.6334 0.22363 0.0
N449 N 0.60126 0.67462 0.17594 0.0
C450 C 0.66596 0.71891 0.25323 0.0
C451 C 0.68549 0.68833 0.21046 0.0
C452 C 0.65198 0.66538 0.1724 0.0
C453 C 0.58265 0.70278 0.21851 0.0
C454 C 0.61386 0.72506 0.25711 0.0
H455 H 0.66636 0.63873 0.14229 0.0
H456 H 0.54259 0.70554 0.22502 0.0
H457 H 0.56712 0.52806 0.11552 0.0
H458 H 0.61685 0.51047 0.28054 0.0
H459 H 0.46425 0.8044 0.08295 0.0
H460 H 0.72572 0.6821 0.2068 0.0
H461 H 0.59704 0.7469 0.29042 0.0
C462 C 0.34006 0.58541 0.23605 0.0
C463 C 0.38878 0.6016 0.24271 0.0
N464 N 0.41322 0.59594 0.19387 0.0
N465 N 0.33388 0.57017 0.1831 0.0
C466 C 0.37935 0.57629 0.15851 0.0
H467 H 0.31097 0.58511 0.26756 0.0
Co468 Co 0.2763 0.54515 0.15021 0.0
C469 C 0.27214 0.60586 0.04702 0.0
O470 O 0.22472 0.61524 0.05898 0.0
N471 N 0.21892 0.51832 0.11368 0.0
C472 C 0.14858 0.48003 0.08383 0.0
C473 C 0.16988 0.50859 0.12598 0.0
C474 C 0.2259 0.49583 0.0641 0.0
N475 N 0.18426 0.47266 0.04506 0.0
O476 O 0.31106 0.4831 0.13652 0.0
H477 H 0.15082 0.5189 0.16395 0.0
H478 H 0.26237 0.49356 0.04419 0.0
O479 O 0.29807 0.57764 0.07932 0.0
C480 C 0.30485 0.46131 0.18374 0.0
O481 O 0.28194 0.48614 0.22363 0.0
N482 N 0.24072 0.60127 0.17595 0.0
C483 C 0.19642 0.66596 0.25323 0.0
C484 C 0.22701 0.6855 0.21047 0.0
C485 C 0.24996 0.65199 0.1724 0.0
C486 C 0.21256 0.58265 0.21852 0.0
C487 C 0.19028 0.61387 0.25711 0.0
H488 H 0.27661 0.66637 0.14229 0.0
H489 H 0.2098 0.54259 0.22502 0.0
H490 H 0.38728 0.56713 0.11552 0.0
H491 H 0.40487 0.61686 0.28054 0.0
H492 H 0.11094 0.46426 0.08294 0.0
H493 H 0.23323 0.72572 0.2068 0.0
H494 H 0.16844 0.59704 0.29042 0.0
C495 C 0.32994 0.34006 0.23605 0.0
C496 C 0.31375 0.38878 0.24271 0.0
N497 N 0.3194 0.41322 0.19387 0.0
N498 N 0.34517 0.33389 0.1831 0.0
C499 C 0.33905 0.37935 0.15851 0.0
H500 H 0.33024 0.31097 0.26755 0.0
Co501 Co 0.37019 0.27631 0.1502 0.0
C502 C 0.30948 0.27215 0.04702 0.0
O503 O 0.3001 0.22473 0.05898 0.0
N504 N 0.39702 0.21892 0.11368 0.0
C505 C 0.4353 0.14859 0.08382 0.0
C506 C 0.40674 0.16989 0.12597 0.0
C507 C 0.41951 0.2259 0.0641 0.0
N508 N 0.44267 0.18427 0.04506 0.0
O509 O 0.43224 0.31107 0.13652 0.0
H510 H 0.39643 0.15082 0.16394 0.0
H511 H 0.42178 0.26237 0.04419 0.0
O512 O 0.3377 0.29808 0.07932 0.0
C513 C 0.45403 0.30486 0.18374 0.0
O514 O 0.4292 0.28194 0.22363 0.0
N515 N 0.31407 0.24072 0.17594 0.0
C516 C 0.24937 0.19643 0.25323 0.0
C517 C 0.22984 0.22702 0.21046 0.0
C518 C 0.26335 0.24997 0.1724 0.0
C519 C 0.33268 0.21256 0.21851 0.0
C520 C 0.30147 0.19028 0.25711 0.0
H521 H 0.24897 0.27661 0.14229 0.0
H522 H 0.37274 0.2098 0.22502 0.0
H523 H 0.34821 0.38729 0.11552 0.0
H524 H 0.29849 0.40488 0.28055 0.0
H525 H 0.45107 0.11094 0.08293 0.0
H526 H 0.18961 0.23325 0.2068 0.0
H527 H 0.31829 0.16844 0.29042 0.0
loop_
_geom_bond_atom_site_label_1
_geom_bond_atom_site_label_2
_geom_bond_distance
_geom_bond_site_symmetry_2
_ccdc_geom_bond_type
C0 C1 1.351 . S
C0 N3 1.368 . S
C0 H5 0.931 . S
C1 C0 1.351 . S
C1 N2 1.373 . S
C1 H29 0.930 . S
N2 C1 1.373 . S
N2 C4 1.340 . S
N3 C0 1.368 . S
N3 C4 1.321 . S
N3 Co6 2.135 . S
C4 N2 1.340 . S
C4 N3 1.321 . S
C4 H28 0.930 . S
H5 C0 0.931 . S
Co6 N3 2.135 . S
Co6 N9 2.121 . S
Co6 O14 2.055 . S
Co6 O17 2.039 . S
Co6 N20 2.140 . S
C7 O8 1.227 . S
C7 O17 1.265 . S
O8 C7 1.227 . S
N9 Co6 2.121 . S
N9 C11 1.375 . S
N9 C12 1.313 . S
C10 C11 1.338 . S
C10 N13 1.377 . S
C10 H30 0.930 . S
C11 N9 1.375 . S
C11 C10 1.338 . S
C11 H15 0.931 . S
C12 N9 1.313 . S
C12 N13 1.344 . S
C12 H16 0.930 1_545 S
N13 C10 1.377 . S
N13 C12 1.344 . S
O14 Co6 2.055 . S
O14 C18 1.250 1_545 S
H15 C11 0.931 . S
H16 C12 0.930 1_565 S
O17 Co6 2.039 . S
O17 C7 1.265 . S
C18 O14 1.250 1_565 S
C18 O19 1.225 1_565 S
O19 C18 1.225 1_545 S
N20 Co6 2.140 . S
N20 C23 1.346 . S
N20 C24 1.345 . S
C21 C22 1.387 . S
C21 C25 1.391 . S
C22 C21 1.387 . S
C22 C23 1.369 . S
C22 H31 0.929 . S
C23 N20 1.346 . S
C23 C22 1.369 . S
C23 H26 0.928 . S
C24 N20 1.345 . S
C24 C25 1.371 . S
C24 H27 0.931 . S
C25 C21 1.391 . S
C25 C24 1.371 . S
C25 H32 0.930 . S
H26 C23 0.928 . S
H27 C24 0.931 . S
H28 C4 0.930 . S
H29 C1 0.930 . S
H30 C10 0.930 . S
H31 C22 0.929 . S
H32 C25 0.930 . S
C33 C34 1.351 . S
C33 N36 1.368 . S
C33 H38 0.931 . S
C34 C33 1.351 . S
C34 N35 1.373 . S
C34 H62 0.930 . S
N35 C34 1.373 . S
N35 C37 1.340 . S
N36 C33 1.368 . S
N36 C37 1.321 . S
N36 Co39 2.135 . S
C37 N35 1.340 . S
C37 N36 1.321 . S
C37 H61 0.930 . S
H38 C33 0.931 . S
Co39 N36 2.135 . S
Co39 N42 2.121 . S
Co39 O47 2.055 . S
Co39 O50 2.039 . S
Co39 N53 2.140 . S
C40 O41 1.227 . S
C40 O50 1.265 . S
O41 C40 1.227 . S
N42 Co39 2.121 . S
N42 C44 1.375 . S
N42 C45 1.313 . S
C43 C44 1.338 . S
C43 N46 1.377 . S
C43 H63 0.930 . S
C44 N42 1.375 . S
C44 C43 1.338 . S
C44 H48 0.931 . S
C45 N42 1.313 . S
C45 N46 1.344 . S
C45 H49 0.930 1_655 S
N46 C43 1.377 . S
N46 C45 1.344 . S
O47 Co39 2.055 . S
O47 C51 1.250 1_655 S
H48 C44 0.931 . S
H49 C45 0.930 1_455 S
O50 Co39 2.039 . S
O50 C40 1.265 . S
C51 O47 1.250 1_455 S
C51 O52 1.225 1_455 S
O52 C51 1.225 1_655 S
N53 Co39 2.140 . S
N53 C56 1.346 . S
N53 C57 1.345 . S
C54 C55 1.387 . S
C54 C58 1.391 . S
C55 C54 1.387 . S
C55 C56 1.369 . S
C55 H64 0.929 . S
C56 N53 1.346 . S
C56 C55 1.369 . S
C56 H59 0.928 . S
C57 N53 1.345 . S
C57 C58 1.371 . S
C57 H60 0.931 . S
C58 C54 1.391 . S
C58 C57 1.371 . S
C58 H65 0.930 . S
H59 C56 0.928 . S
H60 C57 0.931 . S
H61 C37 0.930 . S
H62 C34 0.930 . S
H63 C43 0.930 . S
H64 C55 0.929 . S
H65 C58 0.930 . S
C66 C67 1.351 . S
C66 N69 1.368 . S
C66 H71 0.931 . S
C67 C66 1.351 . S
C67 N68 1.373 . S
C67 H95 0.930 . S
N68 C67 1.373 . S
N68 C70 1.340 . S
N69 C66 1.368 . S
N69 C70 1.321 . S
N69 Co72 2.135 . S
C70 N68 1.340 . S
C70 N69 1.321 . S
C70 H94 0.930 . S
H71 C66 0.931 . S
Co72 N69 2.135 . S
Co72 N75 2.121 . S
Co72 O80 2.055 . S
Co72 O83 2.039 . S
Co72 N86 2.140 . S
C73 O74 1.227 . S
C73 O83 1.265 . S
O74 C73 1.227 . S
N75 Co72 2.121 . S
N75 C77 1.375 . S
N75 C78 1.313 . S
C76 C77 1.338 . S
C76 N79 1.377 . S
C76 H96 0.930 . S
C77 N75 1.375 . S
C77 C76 1.338 . S
C77 H81 0.931 . S
C78 N75 1.313 . S
C78 N79 1.344 . S
C78 H82 0.930 1_565 S
N79 C76 1.377 . S
N79 C78 1.344 . S
O80 Co72 2.055 . S
O80 C84 1.250 1_565 S
H81 C77 0.931 . S
H82 C78 0.930 1_545 S
O83 Co72 2.039 . S
O83 C73 1.265 . S
C84 O80 1.250 1_545 S
C84 O85 1.225 1_545 S
O85 C84 1.225 1_565 S
N86 Co72 2.140 . S
N86 C89 1.346 . S
N86 C90 1.345 . S
C87 C88 1.387 . S
C87 C91 1.391 . S
C88 C87 1.387 . S
C88 C89 1.369 . S
C88 H97 0.929 . S
C89 N86 1.346 . S
C89 C88 1.369 . S
C89 H92 0.928 . S
C90 N86 1.345 . S
C90 C91 1.371 . S
C90 H93 0.931 . S
C91 C87 1.391 . S
C91 C90 1.371 . S
C91 H98 0.930 . S
H92 C89 0.928 . S
H93 C90 0.931 . S
H94 C70 0.930 . S
H95 C67 0.930 . S
H96 C76 0.930 . S
H97 C88 0.929 . S
H98 C91 0.930 . S
C99 C100 1.351 . S
C99 N102 1.368 . S
C99 H104 0.931 . S
C100 C99 1.351 . S
C100 N101 1.373 . S
C100 H128 0.930 . S
N101 C100 1.373 . S
N101 C103 1.340 . S
N102 C99 1.368 . S
N102 C103 1.321 . S
N102 Co105 2.135 . S
C103 N101 1.340 . S
C103 N102 1.321 . S
C103 H127 0.930 . S
H104 C99 0.931 . S
Co105 N102 2.135 . S
Co105 N108 2.121 . S
Co105 O113 2.055 . S
Co105 O116 2.039 . S
Co105 N119 2.140 . S
C106 O107 1.227 . S
C106 O116 1.265 . S
O107 C106 1.227 . S
N108 Co105 2.121 . S
N108 C110 1.375 . S
N108 C111 1.313 . S
C109 C110 1.338 . S
C109 N112 1.377 . S
C109 H129 0.930 . S
C110 N108 1.375 . S
C110 C109 1.338 . S
C110 H114 0.931 . S
C111 N108 1.313 . S
C111 N112 1.344 . S
C111 H115 0.930 1_455 S
N112 C109 1.377 . S
N112 C111 1.344 . S
O113 Co105 2.055 . S
O113 C117 1.250 1_455 S
H114 C110 0.931 . S
H115 C111 0.930 1_655 S
O116 Co105 2.039 . S
O116 C106 1.265 . S
C117 O113 1.250 1_655 S
C117 O118 1.225 1_655 S
O118 C117 1.225 1_455 S
N119 Co105 2.140 . S
N119 C122 1.346 . S
N119 C123 1.345 . S
C120 C121 1.387 . S
C120 C124 1.391 . S
C121 C120 1.387 . S
C121 C122 1.369 . S
C121 H130 0.929 . S
C122 N119 1.346 . S
C122 C121 1.369 . S
C122 H125 0.928 . S
C123 N119 1.345 . S
C123 C124 1.371 . S
C123 H126 0.931 . S
C124 C120 1.391 . S
C124 C123 1.371 . S
C124 H131 0.930 . S
H125 C122 0.928 . S
H126 C123 0.931 . S
H127 C103 0.930 . S
H128 C100 0.930 . S
H129 C109 0.930 . S
H130 C121 0.929 . S
H131 C124 0.930 . S
C132 C133 1.351 . S
C132 N135 1.368 . S
C132 H137 0.931 . S
C133 C132 1.351 . S
C133 N134 1.373 . S
C133 H161 0.930 . S
N134 C133 1.373 . S
N134 C136 1.340 . S
N135 C132 1.368 . S
N135 C136 1.321 . S
N135 Co138 2.135 . S
C136 N134 1.340 . S
C136 N135 1.321 . S
C136 H160 0.930 . S
H137 C132 0.931 . S
Co138 N135 2.135 . S
Co138 N141 2.121 . S
Co138 O146 2.055 . S
Co138 O149 2.039 . S
Co138 N152 2.140 . S
C139 O140 1.227 . S
C139 O149 1.265 . S
O140 C139 1.227 . S
N141 Co138 2.121 . S
N141 C143 1.375 . S
N141 C144 1.313 . S
C142 C143 1.338 . S
C142 N145 1.377 . S
C142 H162 0.930 . S
C143 N141 1.375 . S
C143 C142 1.338 . S
C143 H147 0.931 . S
C144 N141 1.313 . S
C144 N145 1.344 . S
C144 H148 0.930 1_565 S
N145 C142 1.377 . S
N145 C144 1.344 . S
O146 Co138 2.055 . S
O146 C150 1.250 1_565 S
H147 C143 0.931 . S
H148 C144 0.930 1_545 S
O149 Co138 2.039 . S
O149 C139 1.265 . S
C150 O146 1.250 1_545 S
C150 O151 1.225 1_545 S
O151 C150 1.225 1_565 S
N152 Co138 2.140 . S
N152 C155 1.346 . S
N152 C156 1.345 . S
C153 C154 1.387 . S
C153 C157 1.391 . S
C154 C153 1.387 . S
C154 C155 1.369 . S
C154 H163 0.929 . S
C155 N152 1.346 . S
C155 C154 1.369 . S
C155 H158 0.928 . S
C156 N152 1.345 . S
C156 C157 1.371 . S
C156 H159 0.931 . S
C157 C153 1.391 . S
C157 C156 1.371 . S
C157 H164 0.930 . S
H158 C155 0.928 . S
H159 C156 0.931 . S
H160 C136 0.930 . S
H161 C133 0.930 . S
H162 C142 0.930 . S
H163 C154 0.929 . S
H164 C157 0.930 . S
C165 C166 1.351 . S
C165 N168 1.368 . S
C165 H170 0.931 . S
C166 C165 1.351 . S
C166 N167 1.373 . S
C166 H194 0.930 . S
N167 C166 1.373 . S
N167 C169 1.340 . S
N168 C165 1.368 . S
N168 C169 1.321 . S
N168 Co171 2.135 . S
C169 N167 1.340 . S
C169 N168 1.321 . S
C169 H193 0.930 . S
H170 C165 0.931 . S
Co171 N168 2.135 . S
Co171 N174 2.121 . S
Co171 O179 2.055 . S
Co171 O182 2.039 . S
Co171 N185 2.140 . S
C172 O173 1.227 . S
C172 O182 1.265 . S
O173 C172 1.227 . S
N174 Co171 2.121 . S
N174 C176 1.375 . S
N174 C177 1.313 . S
C175 C176 1.338 . S
C175 N178 1.377 . S
C175 H195 0.930 . S
C176 N174 1.375 . S
C176 C175 1.338 . S
C176 H180 0.931 . S
C177 N174 1.313 . S
C177 N178 1.344 . S
C177 H181 0.930 1_455 S
N178 C175 1.377 . S
N178 C177 1.344 . S
O179 Co171 2.055 . S
O179 C183 1.250 1_455 S
H180 C176 0.931 . S
H181 C177 0.930 1_655 S
O182 Co171 2.039 . S
O182 C172 1.265 . S
C183 O179 1.250 1_655 S
C183 O184 1.225 1_655 S
O184 C183 1.225 1_455 S
N185 Co171 2.140 . S
N185 C188 1.346 . S
N185 C189 1.345 . S
C186 C187 1.387 . S
C186 C190 1.391 . S
C187 C186 1.387 . S
C187 C188 1.369 . S
C187 H196 0.929 . S
C188 N185 1.346 . S
C188 C187 1.369 . S
C188 H191 0.928 . S
C189 N185 1.345 . S
C189 C190 1.371 . S
C189 H192 0.931 . S
C190 C186 1.391 . S
C190 C189 1.371 . S
C190 H197 0.930 . S
H191 C188 0.928 . S
H192 C189 0.931 . S
H193 C169 0.930 . S
H194 C166 0.930 . S
H195 C175 0.930 . S
H196 C187 0.929 . S
H197 C190 0.930 . S
C198 C199 1.351 . S
C198 N201 1.368 . S
C198 H203 0.931 . S
C199 C198 1.351 . S
C199 N200 1.373 . S
C199 H227 0.930 . S
N200 C199 1.373 . S
N200 C202 1.340 . S
N201 C198 1.368 . S
N201 C202 1.321 . S
N201 Co204 2.135 . S
C202 N200 1.340 . S
C202 N201 1.321 . S
C202 H226 0.930 . S
H203 C198 0.931 . S
Co204 N201 2.135 . S
Co204 N207 2.121 . S
Co204 O212 2.055 . S
Co204 O215 2.039 . S
Co204 N218 2.140 . S
C205 O206 1.227 . S
C205 O215 1.265 . S
O206 C205 1.227 . S
N207 Co204 2.121 . S
N207 C209 1.375 . S
N207 C210 1.313 . S
C208 C209 1.338 . S
C208 N211 1.377 . S
C208 H228 0.930 . S
C209 N207 1.375 . S
C209 C208 1.338 . S
C209 H213 0.931 . S
C210 N207 1.313 . S
C210 N211 1.344 . S
C210 H214 0.930 1_545 S
N211 C208 1.377 . S
N211 C210 1.344 . S
O212 Co204 2.055 . S
O212 C216 1.250 1_545 S
H213 C209 0.931 . S
H214 C210 0.930 1_565 S
O215 Co204 2.039 . S
O215 C205 1.265 . S
C216 O212 1.250 1_565 S
C216 O217 1.225 1_565 S
O217 C216 1.225 1_545 S
N218 Co204 2.140 . S
N218 C221 1.346 . S
N218 C222 1.345 . S
C219 C220 1.387 . S
C219 C223 1.391 . S
C220 C219 1.387 . S
C220 C221 1.369 . S
C220 H229 0.929 . S
C221 N218 1.346 . S
C221 C220 1.369 . S
C221 H224 0.928 . S
C222 N218 1.345 . S
C222 C223 1.371 . S
C222 H225 0.931 . S
C223 C219 1.391 . S
C223 C222 1.371 . S
C223 H230 0.930 . S
H224 C221 0.928 . S
H225 C222 0.931 . S
H226 C202 0.930 . S
H227 C199 0.930 . S
H228 C208 0.930 . S
H229 C220 0.929 . S
H230 C223 0.930 . S
C231 C232 1.351 . S
C231 N234 1.368 . S
C231 H236 0.931 . S
C232 C231 1.351 . S
C232 N233 1.373 . S
C232 H260 0.930 . S
N233 C232 1.373 . S
N233 C235 1.340 . S
N234 C231 1.368 . S
N234 C235 1.321 . S
N234 Co237 2.135 . S
C235 N233 1.340 . S
C235 N234 1.321 . S
C235 H259 0.930 . S
H236 C231 0.931 . S
Co237 N234 2.135 . S
Co237 N240 2.121 . S
Co237 O245 2.055 . S
Co237 O248 2.039 . S
Co237 N251 2.140 . S
C238 O239 1.227 . S
C238 O248 1.265 . S
O239 C238 1.227 . S
N240 Co237 2.121 . S
N240 C242 1.375 . S
N240 C243 1.313 . S
C241 C242 1.338 . S
C241 N244 1.377 . S
C241 H261 0.930 . S
C242 N240 1.375 . S
C242 C241 1.338 . S
C242 H246 0.931 . S
C243 N240 1.313 . S
C243 N244 1.344 . S
C243 H247 0.930 1_655 S
N244 C241 1.377 . S
N244 C243 1.344 . S
O245 Co237 2.055 . S
O245 C249 1.250 1_655 S
H246 C242 0.931 . S
H247 C243 0.930 1_455 S
O248 Co237 2.039 . S
O248 C238 1.265 . S
C249 O245 1.250 1_455 S
C249 O250 1.225 1_455 S
O250 C249 1.225 1_655 S
N251 Co237 2.140 . S
N251 C254 1.346 . S
N251 C255 1.345 . S
C252 C253 1.387 . S
C252 C256 1.391 . S
C253 C252 1.387 . S
C253 C254 1.369 . S
C253 H262 0.929 . S
C254 N251 1.346 . S
C254 C253 1.369 . S
C254 H257 0.928 . S
C255 N251 1.345 . S
C255 C256 1.371 . S
C255 H258 0.931 . S
C256 C252 1.391 . S
C256 C255 1.371 . S
C256 H263 0.930 . S
H257 C254 0.928 . S
H258 C255 0.931 . S
H259 C235 0.930 . S
H260 C232 0.930 . S
H261 C241 0.930 . S
H262 C253 0.929 . S
H263 C256 0.930 . S
C264 C265 1.351 . S
C264 N267 1.368 . S
C264 H269 0.931 . S
C265 C264 1.351 . S
C265 N266 1.373 . S
C265 H293 0.930 . S
N266 C265 1.373 . S
N266 C268 1.340 . S
N267 C264 1.368 . S
N267 C268 1.321 . S
N267 Co270 2.135 . S
C268 N266 1.340 . S
C268 N267 1.321 . S
C268 H292 0.930 . S
H269 C264 0.931 . S
Co270 N267 2.135 . S
Co270 N273 2.121 . S
Co270 O278 2.055 . S
Co270 O281 2.039 . S
Co270 N284 2.140 . S
C271 O272 1.227 . S
C271 O281 1.265 . S
O272 C271 1.227 . S
N273 Co270 2.121 . S
N273 C275 1.375 . S
N273 C276 1.313 . S
C274 C275 1.340 . S
C274 N277 1.379 . S
C274 H294 0.926 1_556 S
C275 N273 1.375 . S
C275 C274 1.340 . S
C275 H279 0.931 . S
C276 N273 1.313 . S
C276 N277 1.344 . S
C276 H280 0.930 . S
N277 C274 1.379 . S
N277 C276 1.344 . S
O278 Co270 2.055 . S
O278 C282 1.253 . S
H279 C275 0.931 . S
H280 C276 0.930 . S
O281 Co270 2.039 . S
O281 C271 1.265 . S
C282 O278 1.253 . S
C282 O283 1.227 . S
O283 C282 1.227 . S
N284 Co270 2.140 . S
N284 C287 1.346 . S
N284 C288 1.345 . S
C285 C286 1.387 . S
C285 C289 1.391 . S
C286 C285 1.387 . S
C286 C287 1.369 . S
C286 H295 0.929 . S
C287 N284 1.346 . S
C287 C286 1.369 . S
C287 H290 0.928 . S
C288 N284 1.345 . S
C288 C289 1.371 . S
C288 H291 0.931 . S
C289 C285 1.391 . S
C289 C288 1.371 . S
C289 H296 0.930 . S
H290 C287 0.928 . S
H291 C288 0.931 . S
H292 C268 0.930 . S
H293 C265 0.930 . S
H294 C274 0.926 1_554 S
H295 C286 0.929 . S
H296 C289 0.930 . S
C297 C298 1.351 . S
C297 N300 1.368 . S
C297 H302 0.931 . S
C298 C297 1.351 . S
C298 N299 1.373 . S
C298 H326 0.930 . S
N299 C298 1.373 . S
N299 C301 1.340 . S
N300 C297 1.368 . S
N300 C301 1.321 . S
N300 Co303 2.135 . S
C301 N299 1.340 . S
C301 N300 1.321 . S
C301 H325 0.930 . S
H302 C297 0.931 . S
Co303 N300 2.135 . S
Co303 N306 2.121 . S
Co303 O311 2.055 . S
Co303 O314 2.039 . S
Co303 N317 2.140 . S
C304 O305 1.227 . S
C304 O314 1.265 . S
O305 C304 1.227 . S
N306 Co303 2.121 . S
N306 C308 1.375 . S
N306 C309 1.313 . S
C307 C308 1.340 . S
C307 N310 1.379 . S
C307 H327 0.926 1_556 S
C308 N306 1.375 . S
C308 C307 1.340 . S
C308 H312 0.931 . S
C309 N306 1.313 . S
C309 N310 1.344 . S
C309 H313 0.930 . S
N310 C307 1.379 . S
N310 C309 1.344 . S
O311 Co303 2.055 . S
O311 C315 1.253 . S
H312 C308 0.931 . S
H313 C309 0.930 . S
O314 Co303 2.039 . S
O314 C304 1.265 . S
C315 O311 1.253 . S
C315 O316 1.227 . S
O316 C315 1.227 . S
N317 Co303 2.140 . S
N317 C320 1.346 . S
N317 C321 1.345 . S
C318 C319 1.387 . S
C318 C322 1.391 . S
C319 C318 1.387 . S
C319 C320 1.369 . S
C319 H328 0.929 . S
C320 N317 1.346 . S
C320 C319 1.369 . S
C320 H323 0.928 . S
C321 N317 1.345 . S
C321 C322 1.371 . S
C321 H324 0.931 . S
C322 C318 1.391 . S
C322 C321 1.371 . S
C322 H329 0.930 . S
H323 C320 0.928 . S
H324 C321 0.931 . S
H325 C301 0.930 . S
H326 C298 0.930 . S
H327 C307 0.926 1_554 S
H328 C319 0.929 . S
H329 C322 0.930 . S
C330 C331 1.351 . S
C330 N333 1.368 . S
C330 H335 0.931 . S
C331 C330 1.351 . S
C331 N332 1.373 . S
C331 H359 0.930 . S
N332 C331 1.373 . S
N332 C334 1.340 . S
N333 C330 1.368 . S
N333 C334 1.321 . S
N333 Co336 2.135 . S
C334 N332 1.340 . S
C334 N333 1.321 . S
C334 H358 0.930 . S
H335 C330 0.931 . S
Co336 N333 2.135 . S
Co336 N339 2.121 . S
Co336 O344 2.055 . S
Co336 O347 2.039 . S
Co336 N350 2.140 . S
C337 O338 1.227 . S
C337 O347 1.265 . S
O338 C337 1.227 . S
N339 Co336 2.121 . S
N339 C341 1.375 . S
N339 C342 1.313 . S
C340 C341 1.340 . S
C340 N343 1.379 . S
C340 H360 0.926 1_556 S
C341 N339 1.375 . S
C341 C340 1.340 . S
C341 H345 0.931 . S
C342 N339 1.313 . S
C342 N343 1.344 . S
C342 H346 0.930 . S
N343 C340 1.379 . S
N343 C342 1.344 . S
O344 Co336 2.055 . S
O344 C348 1.253 . S
H345 C341 0.931 . S
H346 C342 0.930 . S
O347 Co336 2.039 . S
O347 C337 1.265 . S
C348 O344 1.253 . S
C348 O349 1.227 . S
O349 C348 1.227 . S
N350 Co336 2.140 . S
N350 C353 1.346 . S
N350 C354 1.345 . S
C351 C352 1.387 . S
C351 C355 1.391 . S
C352 C351 1.387 . S
C352 C353 1.369 . S
C352 H361 0.929 . S
C353 N350 1.346 . S
C353 C352 1.369 . S
C353 H356 0.928 . S
C354 N350 1.345 . S
C354 C355 1.371 . S
C354 H357 0.931 . S
C355 C351 1.391 . S
C355 C354 1.371 . S
C355 H362 0.930 . S
H356 C353 0.928 . S
H357 C354 0.931 . S
H358 C334 0.930 . S
H359 C331 0.930 . S
H360 C340 0.926 1_554 S
H361 C352 0.929 . S
H362 C355 0.930 . S
C363 C364 1.351 . S
C363 N366 1.368 . S
C363 H368 0.931 . S
C364 C363 1.351 . S
C364 N365 1.373 . S
C364 H392 0.930 . S
N365 C364 1.373 . S
N365 C367 1.340 . S
N366 C363 1.368 . S
N366 C367 1.321 . S
N366 Co369 2.135 . S
C367 N365 1.340 . S
C367 N366 1.321 . S
C367 H391 0.930 . S
H368 C363 0.931 . S
Co369 N366 2.135 . S
Co369 N372 2.121 . S
Co369 O377 2.055 . S
Co369 O380 2.039 . S
Co369 N383 2.140 . S
C370 O371 1.227 . S
C370 O380 1.265 . S
O371 C370 1.227 . S
N372 Co369 2.121 . S
N372 C374 1.375 . S
N372 C375 1.313 . S
C373 C374 1.340 . S
C373 N376 1.379 . S
C373 H393 0.926 1_556 S
C374 N372 1.375 . S
C374 C373 1.340 . S
C374 H378 0.931 . S
C375 N372 1.313 . S
C375 N376 1.344 . S
C375 H379 0.930 . S
N376 C373 1.379 . S
N376 C375 1.344 . S
O377 Co369 2.055 . S
O377 C381 1.253 . S
H378 C374 0.931 . S
H379 C375 0.930 . S
O380 Co369 2.039 . S
O380 C370 1.265 . S
C381 O377 1.253 . S
C381 O382 1.227 . S
O382 C381 1.227 . S
N383 Co369 2.140 . S
N383 C386 1.346 . S
N383 C387 1.345 . S
C384 C385 1.387 . S
C384 C388 1.391 . S
C385 C384 1.387 . S
C385 C386 1.369 . S
C385 H394 0.929 . S
C386 N383 1.346 . S
C386 C385 1.369 . S
C386 H389 0.928 . S
C387 N383 1.345 . S
C387 C388 1.371 . S
C387 H390 0.931 . S
C388 C384 1.391 . S
C388 C387 1.371 . S
C388 H395 0.930 . S
H389 C386 0.928 . S
H390 C387 0.931 . S
H391 C367 0.930 . S
H392 C364 0.930 . S
H393 C373 0.926 1_554 S
H394 C385 0.929 . S
H395 C388 0.930 . S
C396 C397 1.351 . S
C396 N399 1.368 . S
C396 H401 0.931 . S
C397 C396 1.351 . S
C397 N398 1.373 . S
C397 H425 0.930 . S
N398 C397 1.373 . S
N398 C400 1.340 . S
N399 C396 1.368 . S
N399 C400 1.321 . S
N399 Co402 2.135 . S
C400 N398 1.340 . S
C400 N399 1.321 . S
C400 H424 0.930 . S
H401 C396 0.931 . S
Co402 N399 2.135 . S
Co402 N405 2.121 . S
Co402 O410 2.055 . S
Co402 O413 2.039 . S
Co402 N416 2.140 . S
C403 O404 1.227 . S
C403 O413 1.265 . S
O404 C403 1.227 . S
N405 Co402 2.121 . S
N405 C407 1.375 . S
N405 C408 1.313 . S
C406 C407 1.340 . S
C406 N409 1.379 . S
C406 H426 0.926 1_554 S
C407 N405 1.375 . S
C407 C406 1.340 . S
C407 H411 0.931 . S
C408 N405 1.313 . S
C408 N409 1.344 . S
C408 H412 0.930 . S
N409 C406 1.379 . S
N409 C408 1.344 . S
O410 Co402 2.055 . S
O410 C414 1.253 . S
H411 C407 0.931 . S
H412 C408 0.930 . S
O413 Co402 2.039 . S
O413 C403 1.265 . S
C414 O410 1.253 . S
C414 O415 1.227 . S
O415 C414 1.227 . S
N416 Co402 2.140 . S
N416 C419 1.346 . S
N416 C420 1.345 . S
C417 C418 1.387 . S
C417 C421 1.391 . S
C418 C417 1.387 . S
C418 C419 1.369 . S
C418 H427 0.929 . S
C419 N416 1.346 . S
C419 C418 1.369 . S
C419 H422 0.928 . S
C420 N416 1.345 . S
C420 C421 1.371 . S
C420 H423 0.931 . S
C421 C417 1.391 . S
C421 C420 1.371 . S
C421 H428 0.930 . S
H422 C419 0.928 . S
H423 C420 0.931 . S
H424 C400 0.930 . S
H425 C397 0.930 . S
H426 C406 0.926 1_556 S
H427 C418 0.929 . S
H428 C421 0.930 . S
C429 C430 1.351 . S
C429 N432 1.368 . S
C429 H434 0.931 . S
C430 C429 1.351 . S
C430 N431 1.373 . S
C430 H458 0.930 . S
N431 C430 1.373 . S
N431 C433 1.340 . S
N432 C429 1.368 . S
N432 C433 1.321 . S
N432 Co435 2.135 . S
C433 N431 1.340 . S
C433 N432 1.321 . S
C433 H457 0.930 . S
H434 C429 0.931 . S
Co435 N432 2.135 . S
Co435 N438 2.121 . S
Co435 O443 2.055 . S
Co435 O446 2.039 . S
Co435 N449 2.140 . S
C436 O437 1.227 . S
C436 O446 1.265 . S
O437 C436 1.227 . S
N438 Co435 2.121 . S
N438 C440 1.375 . S
N438 C441 1.313 . S
C439 C440 1.340 . S
C439 N442 1.379 . S
C439 H459 0.926 1_554 S
C440 N438 1.375 . S
C440 C439 1.340 . S
C440 H444 0.931 . S
C441 N438 1.313 . S
C441 N442 1.344 . S
C441 H445 0.930 . S
N442 C439 1.379 . S
N442 C441 1.344 . S
O443 Co435 2.055 . S
O443 C447 1.253 . S
H444 C440 0.931 . S
H445 C441 0.930 . S
O446 Co435 2.039 . S
O446 C436 1.265 . S
C447 O443 1.253 . S
C447 O448 1.227 . S
O448 C447 1.227 . S
N449 Co435 2.140 . S
N449 C452 1.346 . S
N449 C453 1.345 . S
C450 C451 1.387 . S
C450 C454 1.391 . S
C451 C450 1.387 . S
C451 C452 1.369 . S
C451 H460 0.929 . S
C452 N449 1.346 . S
C452 C451 1.369 . S
C452 H455 0.928 . S
C453 N449 1.345 . S
C453 C454 1.371 . S
C453 H456 0.931 . S
C454 C450 1.391 . S
C454 C453 1.371 . S
C454 H461 0.930 . S
H455 C452 0.928 . S
H456 C453 0.931 . S
H457 C433 0.930 . S
H458 C430 0.930 . S
H459 C439 0.926 1_556 S
H460 C451 0.929 . S
H461 C454 0.930 . S
C462 C463 1.351 . S
C462 N465 1.368 . S
C462 H467 0.931 . S
C463 C462 1.351 . S
C463 N464 1.373 . S
C463 H491 0.930 . S
N464 C463 1.373 . S
N464 C466 1.340 . S
N465 C462 1.368 . S
N465 C466 1.321 . S
N465 Co468 2.135 . S
C466 N464 1.340 . S
C466 N465 1.321 . S
C466 H490 0.930 . S
H467 C462 0.931 . S
Co468 N465 2.135 . S
Co468 N471 2.121 . S
Co468 O476 2.055 . S
Co468 O479 2.039 . S
Co468 N482 2.140 . S
C469 O470 1.227 . S
C469 O479 1.265 . S
O470 C469 1.227 . S
N471 Co468 2.121 . S
N471 C473 1.375 . S
N471 C474 1.313 . S
C472 C473 1.340 . S
C472 N475 1.379 . S
C472 H492 0.926 1_554 S
C473 N471 1.375 . S
C473 C472 1.340 . S
C473 H477 0.931 . S
C474 N471 1.313 . S
C474 N475 1.344 . S
C474 H478 0.930 . S
N475 C472 1.379 . S
N475 C474 1.344 . S
O476 Co468 2.055 . S
O476 C480 1.253 . S
H477 C473 0.931 . S
H478 C474 0.930 . S
O479 Co468 2.039 . S
O479 C469 1.265 . S
C480 O476 1.253 . S
C480 O481 1.227 . S
O481 C480 1.227 . S
N482 Co468 2.140 . S
N482 C485 1.346 . S
N482 C486 1.345 . S
C483 C484 1.387 . S
C483 C487 1.391 . S
C484 C483 1.387 . S
C484 C485 1.369 . S
C484 H493 0.929 . S
C485 N482 1.346 . S
C485 C484 1.369 . S
C485 H488 0.928 . S
C486 N482 1.345 . S
C486 C487 1.371 . S
C486 H489 0.931 . S
C487 C483 1.391 . S
C487 C486 1.371 . S
C487 H494 0.930 . S
H488 C485 0.928 . S
H489 C486 0.931 . S
H490 C466 0.930 . S
H491 C463 0.930 . S
H492 C472 0.926 1_556 S
H493 C484 0.929 . S
H494 C487 0.930 . S
C495 C496 1.351 . S
C495 N498 1.368 . S
C495 H500 0.931 . S
C496 C495 1.351 . S
C496 N497 1.373 . S
C496 H524 0.930 . S
N497 C496 1.373 . S
N497 C499 1.340 . S
N498 C495 1.368 . S
N498 C499 1.321 . S
N498 Co501 2.135 . S
C499 N497 1.340 . S
C499 N498 1.321 . S
C499 H523 0.930 . S
H500 C495 0.931 . S
Co501 N498 2.135 . S
Co501 N504 2.121 . S
Co501 O509 2.055 . S
Co501 O512 2.039 . S
Co501 N515 2.140 . S
C502 O503 1.227 . S
C502 O512 1.265 . S
O503 C502 1.227 . S
N504 Co501 2.121 . S
N504 C506 1.375 . S
N504 C507 1.313 . S
C505 C506 1.340 . S
C505 N508 1.379 . S
C505 H525 0.926 1_554 S
C506 N504 1.375 . S
C506 C505 1.340 . S
C506 H510 0.931 . S
C507 N504 1.313 . S
C507 N508 1.344 . S
C507 H511 0.930 . S
N508 C505 1.379 . S
N508 C507 1.344 . S
O509 Co501 2.055 . S
O509 C513 1.253 . S
H510 C506 0.931 . S
H511 C507 0.930 . S
O512 Co501 2.039 . S
O512 C502 1.265 . S
C513 O509 1.253 . S
C513 O514 1.227 . S
O514 C513 1.227 . S
N515 Co501 2.140 . S
N515 C518 1.346 . S
N515 C519 1.345 . S
C516 C517 1.387 . S
C516 C520 1.391 . S
C517 C516 1.387 . S
C517 C518 1.369 . S
C517 H526 0.929 . S
C518 N515 1.346 . S
C518 C517 1.369 . S
C518 H521 0.928 . S
C519 N515 1.345 . S
C519 C520 1.371 . S
C519 H522 0.931 . S
C520 C516 1.391 . S
C520 C519 1.371 . S
C520 H527 0.930 . S
H521 C518 0.928 . S
H522 C519 0.931 . S
H523 C499 0.930 . S
H524 C496 0.930 . S
H525 C505 0.926 1_556 S
H526 C517 0.929 . S
H527 C520 0.930 . S
C18 N101 2.351 . S
N2 C51 2.351 . S
C84 N35 2.351 . S
N68 C117 2.351 . S
N167 C150 2.351 . S
N200 C183 2.351 . S
N233 C216 2.351 . S
C249 N134 2.351 . S
C282 N365 2.347 . S
C315 N266 2.346 . S
C348 N299 2.346 . S
N332 C381 2.346 . S
N431 C414 2.346 . S
C447 N464 2.346 . S
C480 N497 2.346 . S
C513 N398 2.347 . S
C7 C172 1.001 . S
C40 C205 1.001 . S
C238 C73 1.001 . S
C106 C139 1.001 . S
C271 C436 1.000 1_556 S
C304 C469 1.001 1_556 S
C337 C502 1.000 1_556 S
C370 C403 1.001 1_556 S
C21 C516 1.738 . S
C417 C54 1.738 . S
C87 C450 1.738 . S
C120 C483 1.738 . S
C318 C153 1.738 . S
C351 C186 1.738 . S
C384 C219 1.738 . S
C285 C252 1.738 . S
N13 N145 1.217 1_545 S
N46 N178 1.217 1_655 S
N79 N211 1.217 1_565 S
N244 N112 1.217 1_655 S
N277 N409 1.217 1_556 S
N310 N442 1.217 1_556 S
N475 N343 1.217 1_554 S
N376 N508 1.217 1_556 S
