# Generated by pormake.
# Topology umz, (4)-cn, num edge types: 1
# Building blocks:
#     Node 0, Type 0, BuildingBlock: NAHDIM_clean_sbu_0, # of connection points: 4
#     Node 1, Type 0, BuildingBlock: NAHDIM_clean_sbu_0, # of connection points: 4
#     Node 2, Type 0, BuildingBlock: NAHDIM_clean_sbu_0, # of connection points: 4
#     Node 3, Type 0, BuildingBlock: NAHDIM_clean_sbu_0, # of connection points: 4
#     Node 4, Type 0, BuildingBlock: NAHDIM_clean_sbu_0, # of connection points: 4
#     Node 5, Type 0, BuildingBlock: NAHDIM_clean_sbu_0, # of connection points: 4
#     Node 6, Type 0, BuildingBlock: NAHDIM_clean_sbu_0, # of connection points: 4
#     Node 7, Type 0, BuildingBlock: NAHDIM_clean_sbu_0, # of connection points: 4
#     Node 8, Type 0, BuildingBlock: NAHDIM_clean_sbu_0, # of connection points: 4
#     Node 9, Type 0, BuildingBlock: NAHDIM_clean_sbu_0, # of connection points: 4
#     Node 10, Type 0, BuildingBlock: NAHDIM_clean_sbu_0, # of connection points: 4
#     Node 11, Type 0, BuildingBlock: NAHDIM_clean_sbu_0, # of connection points: 4
#     Node 12, Type 0, BuildingBlock: NAHDIM_clean_sbu_0, # of connection points: 4
#     Node 13, Type 0, BuildingBlock: NAHDIM_clean_sbu_0, # of connection points: 4
#     Node 14, Type 0, BuildingBlock: NAHDIM_clean_sbu_0, # of connection points: 4
#     Node 15, Type 0, BuildingBlock: NAHDIM_clean_sbu_0, # of connection points: 4
#     Edge 16, Type (0, 0), BuildingBlock: EZIPEK_clean_linker_0, # of connection points: 2
#     Edge 17, Type (0, 0), BuildingBlock: EZIPEK_clean_linker_0, # of connection points: 2
#     Edge 18, Type (0, 0), BuildingBlock: EZIPEK_clean_linker_0, # of connection points: 2
#     Edge 19, Type (0, 0), BuildingBlock: EZIPEK_clean_linker_0, # of connection points: 2
#     Edge 20, Type (0, 0), BuildingBlock: EZIPEK_clean_linker_0, # of connection points: 2
#     Edge 21, Type (0, 0), BuildingBlock: EZIPEK_clean_linker_0, # of connection points: 2
#     Edge 22, Type (0, 0), BuildingBlock: EZIPEK_clean_linker_0, # of connection points: 2
#     Edge 23, Type (0, 0), BuildingBlock: EZIPEK_clean_linker_0, # of connection points: 2
#     Edge 24, Type (0, 0), BuildingBlock: EZIPEK_clean_linker_0, # of connection points: 2
#     Edge 25, Type (0, 0), BuildingBlock: EZIPEK_clean_linker_0, # of connection points: 2
#     Edge 26, Type (0, 0), BuildingBlock: EZIPEK_clean_linker_0, # of connection points: 2
#     Edge 27, Type (0, 0), BuildingBlock: EZIPEK_clean_linker_0, # of connection points: 2
#     Edge 28, Type (0, 0), BuildingBlock: EZIPEK_clean_linker_0, # of connection points: 2
#     Edge 29, Type (0, 0), BuildingBlock: EZIPEK_clean_linker_0, # of connection points: 2
#     Edge 30, Type (0, 0), BuildingBlock: EZIPEK_clean_linker_0, # of connection points: 2
#     Edge 31, Type (0, 0), BuildingBlock: EZIPEK_clean_linker_0, # of connection points: 2
#     Edge 32, Type (0, 0), BuildingBlock: EZIPEK_clean_linker_0, # of connection points: 2
#     Edge 33, Type (0, 0), BuildingBlock: EZIPEK_clean_linker_0, # of connection points: 2
#     Edge 34, Type (0, 0), BuildingBlock: EZIPEK_clean_linker_0, # of connection points: 2
#     Edge 35, Type (0, 0), BuildingBlock: EZIPEK_clean_linker_0, # of connection points: 2
#     Edge 36, Type (0, 0), BuildingBlock: EZIPEK_clean_linker_0, # of connection points: 2
#     Edge 37, Type (0, 0), BuildingBlock: EZIPEK_clean_linker_0, # of connection points: 2
#     Edge 38, Type (0, 0), BuildingBlock: EZIPEK_clean_linker_0, # of connection points: 2
#     Edge 39, Type (0, 0), BuildingBlock: EZIPEK_clean_linker_0, # of connection points: 2
#     Edge 40, Type (0, 0), BuildingBlock: EZIPEK_clean_linker_0, # of connection points: 2
#     Edge 41, Type (0, 0), BuildingBlock: EZIPEK_clean_linker_0, # of connection points: 2
#     Edge 42, Type (0, 0), BuildingBlock: EZIPEK_clean_linker_0, # of connection points: 2
#     Edge 43, Type (0, 0), BuildingBlock: EZIPEK_clean_linker_0, # of connection points: 2
#     Edge 44, Type (0, 0), BuildingBlock: EZIPEK_clean_linker_0, # of connection points: 2
#     Edge 45, Type (0, 0), BuildingBlock: EZIPEK_clean_linker_0, # of connection points: 2
#     Edge 46, Type (0, 0), BuildingBlock: EZIPEK_clean_linker_0, # of connection points: 2
#     Edge 47, Type (0, 0), BuildingBlock: EZIPEK_clean_linker_0, # of connection points: 2
# Relax obj value: 0.217
# Max RMSD: 0.162
# Mean RMSD: 0.160
data_MOF--net-umz--node1-NAHDIM_clean_sbu_0--edge1-EZIPEK_clean_linker_0
_symmetry_space_group_name_H-M    P1
_symmetry_Int_Tables_number       1
_symmetry_cell_setting            triclinic
loop_
_symmetry_equiv_pos_as_xyz
'x, y, z'
_cell_length_a     44.299983
_cell_length_b     44.27958
_cell_length_c     15.927277
_cell_angle_alpha  90.031885
_cell_angle_beta   89.905377
_cell_angle_gamma 89.956155
loop_
_atom_site_label
_atom_site_type_symbol
_atom_site_fract_x
_atom_site_fract_y
_atom_site_fract_z
_atom_type_partial_charge
C0 C 0.01318 0.70617 0.12272 0.0
O1 O 0.9941 0.68465 0.10256 0.0
O2 O 0.98727 0.6463 0.24744 0.0
Zn3 Zn 0.03014 0.65881 0.22191 0.0
O4 O 0.04822 0.63542 0.12586 0.0
C5 C 0.05289 0.62022 0.33913 0.0
O6 O 0.03899 0.60276 0.28498 0.0
O7 O 0.03163 0.70172 0.18256 0.0
C8 C 0.07684 0.63458 0.11972 0.0
O9 O 0.09339 0.64757 0.17776 0.0
C10 C 0.97631 0.62263 0.21458 0.0
O11 O 0.99146 0.60848 0.15553 0.0
O12 O 0.05385 0.64856 0.32595 0.0
C13 C 0.81381 0.00792 0.5503 0.0
O14 O 0.83798 0.99707 0.51314 0.0
O15 O 0.87767 0.98684 0.69161 0.0
Zn16 Zn 0.85803 0.02674 0.66546 0.0
O17 O 0.88096 0.04972 0.576 0.0
C18 C 0.88136 0.04703 0.81847 0.0
O19 O 0.90166 0.02707 0.79547 0.0
O20 O 0.81625 0.02107 0.62089 0.0
C21 C 0.90001 0.07052 0.59068 0.0
O22 O 0.90767 0.07702 0.66804 0.0
C23 C 0.89676 0.97385 0.64447 0.0
O24 O 0.9022 0.98463 0.56916 0.0
O25 O 0.85831 0.05129 0.77252 0.0
C26 C 0.49049 0.81392 0.06152 0.0
O27 O 0.49316 0.83936 0.01994 0.0
O28 O 0.51656 0.87752 0.21383 0.0
Zn29 Zn 0.47781 0.85607 0.18761 0.0
O30 O 0.4541 0.88016 0.10415 0.0
C31 C 0.4653 0.86347 0.3622 0.0
O32 O 0.49469 0.86065 0.36894 0.0
O33 O 0.48457 0.81456 0.1397 0.0
C34 C 0.42617 0.87438 0.09584 0.0
O35 O 0.41362 0.85308 0.14137 0.0
C36 C 0.53019 0.89516 0.16395 0.0
O37 O 0.52089 0.89787 0.08606 0.0
O38 O 0.45273 0.85792 0.29234 0.0
C39 C 0.68464 0.48351 0.57381 0.0
O40 O 0.6581 0.48823 0.53962 0.0
O41 O 0.61727 0.49218 0.70279 0.0
Zn42 Zn 0.64723 0.45807 0.69688 0.0
O43 O 0.63242 0.42315 0.62702 0.0
C44 C 0.62463 0.43669 0.84259 0.0
O45 O 0.60135 0.43872 0.79197 0.0
O46 O 0.68628 0.47148 0.64608 0.0
C47 C 0.60635 0.42177 0.59435 0.0
O48 O 0.58693 0.44375 0.60692 0.0
C49 C 0.62489 0.51824 0.72867 0.0
O50 O 0.65358 0.52455 0.73961 0.0
O51 O 0.65068 0.44381 0.81564 0.0
C52 C 0.01353 0.81091 0.90615 0.0
O53 O 0.99673 0.83411 0.9277 0.0
O54 O 0.99342 0.87282 0.75909 0.0
Zn55 Zn 0.03324 0.85385 0.78909 0.0
O56 O 0.05422 0.87975 0.87296 0.0
C57 C 0.04704 0.86129 0.61583 0.0
O58 O 0.01796 0.85672 0.60685 0.0
O59 O 0.03037 0.81287 0.84169 0.0
C60 C 0.08179 0.8738 0.88701 0.0
O61 O 0.09508 0.85161 0.84653 0.0
C62 C 0.97986 0.89178 0.80549 0.0
O63 O 0.98952 0.89674 0.8822 0.0
O64 O 0.05929 0.85635 0.68651 0.0
C65 C 0.6995 0.01111 0.37792 0.0
O66 O 0.67589 0.00064 0.41842 0.0
O67 O 0.6304 0.99342 0.26172 0.0
Zn68 Zn 0.65265 0.03245 0.27893 0.0
O69 O 0.63461 0.05731 0.37326 0.0
C70 C 0.61857 0.05748 0.15627 0.0
O71 O 0.59918 0.04745 0.21211 0.0
O72 O 0.69579 0.02523 0.30926 0.0
C73 C 0.63014 0.08564 0.36723 0.0
O74 O 0.63659 0.09954 0.29677 0.0
C75 C 0.61143 0.98193 0.31208 0.0
O76 O 0.60738 0.99387 0.38677 0.0
O77 O 0.64666 0.05423 0.16983 0.0
C78 C 0.49641 0.70504 0.86257 0.0
O79 O 0.50652 0.70476 0.78501 0.0
O80 O 0.52083 0.61895 0.8258 0.0
Zn81 Zn 0.48085 0.64064 0.84173 0.0
O82 O 0.45279 0.61832 0.91829 0.0
C83 C 0.4716 0.63247 0.66556 0.0
O84 O 0.50103 0.62931 0.66391 0.0
O85 O 0.48567 0.68122 0.89499 0.0
C86 C 0.42547 0.62719 0.91801 0.0
O87 O 0.41714 0.64916 0.86774 0.0
C88 C 0.5228 0.59039 0.83196 0.0
O89 O 0.49919 0.57463 0.85553 0.0
O90 O 0.45881 0.64179 0.73197 0.0
C91 C 0.7952 0.50245 0.3891 0.0
O92 O 0.81476 0.52087 0.42381 0.0
O93 O 0.86149 0.53235 0.29188 0.0
Zn94 Zn 0.84626 0.48924 0.28882 0.0
O95 O 0.8698 0.46022 0.3622 0.0
C96 C 0.8806 0.47026 0.15398 0.0
O97 O 0.90091 0.47641 0.2112 0.0
O98 O 0.80284 0.48727 0.32473 0.0
C99 C 0.87606 0.46393 0.43924 0.0
O100 O 0.86718 0.48855 0.47809 0.0
C101 C 0.88874 0.53797 0.31061 0.0
O102 O 0.90566 0.51634 0.34133 0.0
O103 O 0.8528 0.47437 0.17065 0.0
C104 C 0.97019 0.31896 0.92953 0.0
O105 O 0.97043 0.34381 0.97449 0.0
O106 O 0.94278 0.36534 0.6943 0.0
Zn107 Zn 0.96869 0.36246 0.79853 0.0
O108 O 0.9489 0.38985 0.88326 0.0
C109 C 0.03138 0.38007 0.82709 0.0
O110 O 0.02448 0.37496 0.90604 0.0
O111 O 0.96979 0.3207 0.84969 0.0
C112 C 0.93839 0.41604 0.86904 0.0
O113 O 0.94162 0.42847 0.79485 0.0
C114 C 0.94858 0.38759 0.64648 0.0
O115 O 0.97349 0.40303 0.65848 0.0
O116 O 0.01077 0.37678 0.77265 0.0
C117 C 0.20398 0.95762 0.37488 0.0
O118 O 0.19176 0.93092 0.36368 0.0
O119 O 0.1534 0.95345 0.17925 0.0
Zn120 Zn 0.15087 0.97352 0.29191 0.0
O121 O 0.12939 0.94408 0.36754 0.0
C122 C 0.13145 0.03232 0.22812 0.0
O123 O 0.1546 0.03003 0.17691 0.0
O124 O 0.19127 0.9809 0.34451 0.0
C125 C 0.10253 0.94764 0.39336 0.0
O126 O 0.08735 0.97202 0.37284 0.0
C127 C 0.12741 0.94556 0.15391 0.0
O128 O 0.10362 0.95183 0.19976 0.0
O129 O 0.12636 0.01166 0.28165 0.0
C130 C 0.55345 0.21027 0.85731 0.0
O131 O 0.579 0.19533 0.8536 0.0
O132 O 0.55218 0.15352 0.65751 0.0
Zn133 Zn 0.53228 0.15819 0.77079 0.0
O134 O 0.55764 0.13349 0.84962 0.0
C135 C 0.48827 0.11313 0.74643 0.0
O136 O 0.5131 0.09774 0.73326 0.0
O137 O 0.53042 0.20021 0.81894 0.0
C138 C 0.5476 0.11875 0.91183 0.0
O139 O 0.51859 0.11849 0.92833 0.0
C140 C 0.58067 0.15039 0.6518 0.0
O141 O 0.59759 0.15458 0.71835 0.0
O142 O 0.49005 0.14103 0.76392 0.0
C143 C 0.30505 0.55251 0.43592 0.0
O144 O 0.32014 0.578 0.43795 0.0
O145 O 0.35021 0.55622 0.21954 0.0
Zn146 Zn 0.35479 0.53596 0.33344 0.0
O147 O 0.37941 0.56275 0.41081 0.0
C148 C 0.39634 0.49098 0.26897 0.0
O149 O 0.40371 0.51283 0.21739 0.0
O150 O 0.31469 0.5307 0.39133 0.0
C151 C 0.40789 0.56218 0.4192 0.0
O152 O 0.42417 0.5426 0.37695 0.0
C153 C 0.37265 0.57196 0.19605 0.0
O154 O 0.39623 0.57428 0.24488 0.0
O155 O 0.37522 0.49508 0.32193 0.0
C156 C 0.96449 0.20759 0.11835 0.0
O157 O 0.93795 0.19733 0.14168 0.0
O158 O 0.96768 0.14334 0.28754 0.0
Zn159 Zn 0.98149 0.1488 0.1681 0.0
O160 O 0.94938 0.13172 0.09307 0.0
C161 C 0.0393 0.12454 0.21308 0.0
O162 O 0.03561 0.1421 0.27879 0.0
O163 O 0.9878 0.19145 0.13028 0.0
C164 C 0.94979 0.10455 0.06804 0.0
O165 O 0.97159 0.08647 0.09235 0.0
C166 C 0.93992 0.13928 0.30422 0.0
O167 O 0.91964 0.14301 0.24519 0.0
O168 O 0.01968 0.12466 0.15491 0.0
C169 C 0.30554 0.95558 0.59942 0.0
O170 O 0.31966 0.92956 0.60443 0.0
O171 O 0.35678 0.95591 0.80175 0.0
Zn172 Zn 0.35802 0.97451 0.68509 0.0
O173 O 0.38024 0.94564 0.60814 0.0
C174 C 0.39832 0.02334 0.73506 0.0
O175 O 0.40533 0.00504 0.79666 0.0
O176 O 0.31674 0.97873 0.63467 0.0
C177 C 0.40821 0.94671 0.59119 0.0
O178 O 0.4251 0.96808 0.62355 0.0
C179 C 0.38089 0.94278 0.82503 0.0
O180 O 0.40456 0.94286 0.77569 0.0
O181 O 0.37812 0.01567 0.68276 0.0
C182 C 0.54976 0.30437 0.10828 0.0
O183 O 0.57489 0.31916 0.12294 0.0
O184 O 0.54475 0.35547 0.31359 0.0
Zn185 Zn 0.52659 0.35389 0.19872 0.0
O186 O 0.55238 0.37975 0.12442 0.0
C187 C 0.4862 0.39929 0.23867 0.0
O188 O 0.51187 0.41014 0.26669 0.0
O189 O 0.52529 0.31338 0.14182 0.0
C190 C 0.57671 0.39254 0.14701 0.0
O191 O 0.58583 0.39112 0.22521 0.0
C192 C 0.56268 0.33828 0.35296 0.0
O193 O 0.57083 0.31218 0.32093 0.0
O194 O 0.48573 0.37327 0.2051 0.0
C195 C 0.20039 0.54916 0.65012 0.0
O196 O 0.18293 0.57289 0.64118 0.0
O197 O 0.1382 0.54971 0.83035 0.0
Zn198 Zn 0.14679 0.52702 0.72282 0.0
O199 O 0.12596 0.5486 0.62884 0.0
C200 C 0.11276 0.47665 0.78841 0.0
O201 O 0.10679 0.49569 0.84931 0.0
O202 O 0.19063 0.52622 0.68962 0.0
C203 C 0.09777 0.55274 0.62174 0.0
O204 O 0.07917 0.54146 0.6778 0.0
C205 C 0.13122 0.57758 0.82932 0.0
O206 O 0.1326 0.59272 0.75858 0.0
O207 O 0.13037 0.48451 0.72925 0.0
C208 C 0.01557 0.76263 0.10333 0.0
C209 C 0.01559 0.73319 0.06837 0.0
C210 C 0.01247 0.75464 0.92698 0.0
C211 C 0.01501 0.78405 0.96139 0.0
N212 N 0.02814 0.81511 0.08098 0.0
N213 N 0.02384 0.70176 0.94619 0.0
C214 C 0.01925 0.78785 0.04927 0.0
C215 C 0.01695 0.72932 0.97989 0.0
N216 N 0.01086 0.76676 0.18735 0.0
N217 N 0.00454 0.75068 0.84482 0.0
H218 H 0.02922 0.68299 0.98278 0.0
H219 H 0.02777 0.69851 0.88228 0.0
H220 H -0.00012 0.76858 0.80436 0.0
H221 H -0.00047 0.72958 0.81941 0.0
H222 H 0.00758 0.78799 0.21416 0.0
H223 H 0.00734 0.74897 0.22905 0.0
H224 H 0.0343 0.81815 0.14354 0.0
H225 H 0.03278 0.8338 0.0433 0.0
C226 C 0.74315 0.03757 0.44454 0.0
C227 C 0.72939 0.0102 0.41852 0.0
C228 C 0.76993 0.9811 0.48491 0.0
C229 C 0.78482 0.00852 0.50483 0.0
N230 N 0.78911 0.06255 0.48777 0.0
N231 N 0.73139 0.95612 0.40205 0.0
C232 C 0.77244 0.0367 0.48016 0.0
C233 C 0.74326 0.98197 0.43538 0.0
N234 N 0.72772 0.06427 0.43902 0.0
N235 N 0.78069 0.95438 0.51583 0.0
H236 H 0.71189 0.95598 0.36536 0.0
H237 H 0.74212 0.93522 0.40469 0.0
H238 H 0.80019 0.95293 0.55224 0.0
H239 H 0.76909 0.93401 0.51121 0.0
H240 H 0.73535 0.08431 0.46587 0.0
H241 H 0.70596 0.066 0.41459 0.0
H242 H 0.78249 0.08317 0.46226 0.0
H243 H 0.8109 0.06292 0.51242 0.0
C244 C 0.52063 0.77605 0.9798 0.0
C245 C 0.4926 0.78502 0.01538 0.0
C246 C 0.46694 0.74385 0.94182 0.0
C247 C 0.49526 0.73341 0.9116 0.0
N248 N 0.54961 0.73638 0.9121 0.0
N249 N 0.4398 0.77508 0.04135 0.0
C250 C 0.5223 0.74872 0.93297 0.0
C251 C 0.46601 0.76807 0.00019 0.0
N252 N 0.54564 0.79369 0.99071 0.0
N253 N 0.44081 0.7316 0.91127 0.0
H254 H 0.43771 0.79338 0.08211 0.0
H255 H 0.4207 0.7614 0.0403 0.0
H256 H 0.44047 0.71448 0.86628 0.0
H257 H 0.41945 0.74033 0.92396 0.0
H258 H 0.56574 0.79047 0.95792 0.0
H259 H 0.54586 0.8127 0.02946 0.0
H260 H 0.57016 0.74462 0.93391 0.0
H261 H 0.55177 0.71634 0.8782 0.0
C262 C 0.72985 0.46307 0.49908 0.0
C263 C 0.71229 0.48835 0.52378 0.0
C264 C 0.74625 0.52201 0.44645 0.0
C265 C 0.76576 0.4972 0.43063 0.0
N266 N 0.77854 0.44468 0.45352 0.0
N267 N 0.70501 0.54226 0.52963 0.0
C268 C 0.75817 0.46782 0.45961 0.0
C269 C 0.72074 0.51797 0.49954 0.0
N270 N 0.71903 0.43445 0.51077 0.0
N271 N 0.75158 0.54917 0.40842 0.0
H272 H 0.68612 0.54013 0.56839 0.0
H273 H 0.71203 0.56452 0.52183 0.0
H274 H 0.76976 0.55276 0.36789 0.0
H275 H 0.73656 0.56725 0.41062 0.0
H276 H 0.72924 0.41534 0.48518 0.0
H277 H 0.69832 0.4299 0.53929 0.0
H278 H 0.77558 0.42389 0.48298 0.0
H279 H 0.79969 0.44689 0.42558 0.0
C280 C 0.94723 0.26784 0.95542 0.0
C281 C 0.97003 0.2894 0.97299 0.0
C282 C 0.98767 0.25844 0.09067 0.0
C283 C 0.9667 0.23567 0.06817 0.0
N284 N 0.93244 0.21546 0.96413 0.0
N285 N 0.01656 0.30166 0.04401 0.0
C286 C 0.94817 0.23938 0.99614 0.0
C287 C 0.99165 0.28365 0.03674 0.0
N288 N 0.9238 0.27488 0.9032 0.0
N289 N 0.00291 0.25671 0.16507 0.0
H290 H 0.0209 0.31965 0.00352 0.0
H291 H 0.03446 0.29677 0.08415 0.0
H292 H 5e-05 0.23902 0.20751 0.0
H293 H 0.01611 0.27428 0.18838 0.0
H294 H 0.90501 0.26099 0.89571 0.0
H295 H 0.92152 0.2958 0.87393 0.0
H296 H 0.92107 0.21637 0.90694 0.0
H297 H 0.93345 0.1938 0.98949 0.0
C298 C 0.28462 0.95386 0.45411 0.0
C299 C 0.27984 0.95888 0.54119 0.0
C300 C 0.2263 0.96909 0.5153 0.0
C301 C 0.23049 0.9605 0.43014 0.0
N302 N 0.26257 0.94246 0.31853 0.0
N303 N 0.24633 0.96903 0.65713 0.0
C304 C 0.25938 0.95229 0.39949 0.0
C305 C 0.25078 0.96625 0.57247 0.0
N306 N 0.31339 0.95179 0.42324 0.0
N307 N 0.19888 0.97981 0.54144 0.0
H308 H 0.26379 0.96728 0.70072 0.0
H309 H 0.22515 0.97096 0.685 0.0
H310 H 0.18007 0.98103 0.5023 0.0
H311 H 0.19519 0.98949 0.60013 0.0
H312 H 0.31849 0.95123 0.35943 0.0
H313 H 0.33253 0.95346 0.46105 0.0
H314 H 0.28225 0.93261 0.29538 0.0
H315 H 0.24486 0.94248 0.27542 0.0
C316 C 0.53673 0.22915 -0.00191 0.0
C317 C 0.55023 0.23508 0.91876 0.0
C318 C 0.55938 0.28748 0.9604 0.0
C319 C 0.54922 0.28057 0.04294 0.0
N320 N 0.53202 0.24394 0.14415 0.0
N321 N 0.57741 0.26854 0.82651 0.0
C322 C 0.53867 0.25121 0.06275 0.0
C323 C 0.56251 0.26386 0.9006 0.0
N324 N 0.52203 0.20244 0.01174 0.0
N325 N 0.56461 0.31684 0.93783 0.0
H326 H 0.57887 0.25219 0.77947 0.0
H327 H 0.59 0.28788 0.81393 0.0
H328 H 0.56147 0.33501 0.97858 0.0
H329 H 0.56913 0.32356 0.87645 0.0
H330 H 0.5089 0.19822 0.06472 0.0
H331 H 0.52096 0.18518 0.96733 0.0
H332 H 0.52756 0.22202 0.16425 0.0
H333 H 0.53351 0.25939 0.19343 0.0
C334 C 0.24957 0.54384 0.45622 0.0
C335 C 0.27856 0.54857 0.49139 0.0
C336 C 0.25649 0.55227 0.63244 0.0
C337 C 0.22769 0.54664 0.5975 0.0
N338 N 0.19705 0.53098 0.48024 0.0
N339 N 0.31079 0.55067 0.6133 0.0
C340 C 0.22433 0.54047 0.51055 0.0
C341 C 0.28238 0.55086 0.57974 0.0
N342 N 0.24592 0.54411 0.37097 0.0
N343 N 0.25895 0.55985 0.71537 0.0
H344 H 0.33028 0.54909 0.57671 0.0
H345 H 0.31506 0.5493 0.67743 0.0
H346 H 0.24051 0.56013 0.7562 0.0
H347 H 0.27881 0.56772 0.74253 0.0
H348 H 0.22493 0.54431 0.34165 0.0
H349 H 0.26386 0.54647 0.32903 0.0
H350 H 0.19388 0.52309 0.4193 0.0
H351 H 0.17797 0.5285 0.51809 0.0
C352 C 0.11402 0.63519 -0.0 0.0
C353 C 0.09139 0.61977 0.04666 0.0
C354 C 0.09242 0.57869 0.94428 0.0
C355 C 0.1179 0.59196 0.90477 0.0
N356 N 0.15645 0.63044 0.90488 0.0
N357 N 0.06435 0.57333 0.07336 0.0
C358 C 0.12979 0.61953 0.93556 0.0
C359 C 0.08214 0.59045 0.02191 0.0
N360 N 0.11937 0.66518 0.01366 0.0
N361 N 0.07681 0.55607 0.9055 0.0
H362 H 0.05736 0.58052 0.13261 0.0
H363 H 0.05938 0.55076 0.06098 0.0
H364 H 0.08211 0.54846 0.84538 0.0
H365 H 0.05649 0.54757 0.92858 0.0
H366 H 0.13357 0.67804 0.97564 0.0
H367 H 0.10719 0.67807 0.05678 0.0
H368 H 0.16758 0.64888 0.93118 0.0
H369 H 0.16892 0.61933 0.85858 0.0
C370 C 0.93896 0.09137 0.38698 0.0
C371 C 0.9315 0.1225 0.38082 0.0
C372 C 0.90278 0.11946 0.512 0.0
C373 C 0.91187 0.08883 0.52062 0.0
N374 N 0.94311 0.04724 0.47597 0.0
N375 N 0.91051 0.16757 0.44201 0.0
C376 C 0.93131 0.07525 0.46091 0.0
C377 C 0.91466 0.13699 0.44483 0.0
N378 N 0.95208 0.07681 0.32053 0.0
N379 N 0.88177 0.13135 0.56567 0.0
H380 H 0.91867 0.18092 0.393 0.0
H381 H 0.90118 0.18003 0.49108 0.0
H382 H 0.87247 0.11922 0.61549 0.0
H383 H 0.87176 0.1524 0.55722 0.0
H384 H 0.95484 0.05348 0.3175 0.0
H385 H 0.9579 0.08771 0.26488 0.0
H386 H 0.96002 0.0375 0.43939 0.0
H387 H 0.93795 0.03477 0.52959 0.0
C388 C 0.39774 0.87644 0.9603 0.0
C389 C 0.40814 0.89124 0.03382 0.0
C390 C 0.3916 0.94013 0.97855 0.0
C391 C 0.38267 0.92544 0.90368 0.0
N392 N 0.36883 0.87999 0.83119 0.0
N393 N 0.40872 0.93527 0.12282 0.0
C394 C 0.38281 0.89359 0.89763 0.0
C395 C 0.40298 0.92257 0.04619 0.0
N396 N 0.40389 0.8465 0.9479 0.0
N397 N 0.39033 0.97092 0.98317 0.0
H398 H 0.41698 0.92285 0.17353 0.0
H399 H 0.40319 0.95741 0.13848 0.0
H400 H 0.3801 0.98398 0.93673 0.0
H401 H 0.39997 0.98353 0.0313 0.0
H402 H 0.40003 0.83526 0.89153 0.0
H403 H 0.41484 0.83315 0.99225 0.0
H404 H 0.36582 0.85675 0.82602 0.0
H405 H 0.35765 0.89234 0.78486 0.0
C406 C 0.60675 0.36478 0.41507 0.0
C407 C 0.57803 0.35137 0.42677 0.0
C408 C 0.57234 0.37826 0.56038 0.0
C409 C 0.59814 0.39582 0.54032 0.0
N410 N 0.63859 0.4079 0.44391 0.0
N411 N 0.53312 0.34467 0.50973 0.0
C412 C 0.6154 0.3893 0.46725 0.0
C413 C 0.56087 0.35766 0.49986 0.0
N414 N 0.62538 0.35466 0.35262 0.0
N415 N 0.55925 0.38085 0.63784 0.0
H416 H 0.52501 0.32811 0.46891 0.0
H417 H 0.51774 0.35117 0.55585 0.0
H418 H 0.56748 0.39536 0.68408 0.0
H419 H 0.54208 0.36671 0.65903 0.0
H420 H 0.64771 0.3616 0.34604 0.0
H421 H 0.61948 0.33715 0.31213 0.0
H422 H 0.6497 0.40626 0.38643 0.0
H423 H 0.64504 0.42685 0.47821 0.0
C424 C 0.11407 0.94104 0.00265 0.0
C425 C 0.12338 0.92704 0.07819 0.0
C426 C 0.10829 0.87752 0.02516 0.0
C427 C 0.09859 0.89151 0.94972 0.0
N428 N 0.09831 0.93474 0.85778 0.0
N429 N 0.13648 0.88217 0.15506 0.0
C430 C 0.10341 0.92278 0.93564 0.0
C431 C 0.12299 0.89525 0.08702 0.0
N432 N 0.11454 0.97182 0.99635 0.0
N433 N 0.10171 0.84781 0.03999 0.0
H434 H 0.14721 0.89475 0.20169 0.0
H435 H 0.13944 0.85896 0.16164 0.0
H436 H 0.09087 0.834 0.99644 0.0
H437 H 0.10491 0.83732 0.09777 0.0
H438 H 0.10455 0.98377 0.94745 0.0
H439 H 0.12403 0.9856 0.04247 0.0
H440 H 0.10387 0.95678 0.84114 0.0
H441 H 0.09078 0.92181 0.80721 0.0
C442 C 0.61573 0.1483 0.52744 0.0
C443 C 0.59358 0.13439 0.57847 0.0
C444 C 0.59267 0.09074 0.48473 0.0
C445 C 0.61735 0.10283 0.43899 0.0
N446 N 0.65703 0.14035 0.43038 0.0
N447 N 0.569 0.08823 0.62074 0.0
C448 C 0.63018 0.13097 0.4637 0.0
C449 C 0.58427 0.10441 0.56147 0.0
N450 N 0.62278 0.17802 0.5392 0.0
N451 N 0.57648 0.06694 0.45401 0.0
H452 H 0.56538 0.09652 0.68116 0.0
H453 H 0.56379 0.06541 0.61362 0.0
H454 H 0.58053 0.0574 0.39523 0.0
H455 H 0.5568 0.05913 0.48266 0.0
H456 H 0.63649 0.19015 0.49808 0.0
H457 H 0.61284 0.19118 0.58609 0.0
H458 H 0.66858 0.1593 0.45196 0.0
H459 H 0.66952 0.12749 0.38791 0.0
C460 C 0.37784 0.6187 0.11428 0.0
C461 C 0.37402 0.58702 0.11386 0.0
C462 C 0.39413 0.58446 0.9711 0.0
C463 C 0.40391 0.61477 0.97945 0.0
N464 N 0.40472 0.66165 0.05708 0.0
N465 N 0.37599 0.53935 0.04134 0.0
C466 C 0.39503 0.63245 0.0496 0.0
C467 C 0.38074 0.56983 0.0412 0.0
N468 N 0.36543 0.63527 0.17797 0.0
N469 N 0.3975 0.56995 0.89596 0.0
H470 H 0.36464 0.52838 0.0899 0.0
H471 H 0.38405 0.52485 0.99496 0.0
H472 H 0.40668 0.58062 0.84347 0.0
H473 H 0.38876 0.54862 0.88331 0.0
H474 H 0.36523 0.65878 0.17937 0.0
H475 H 0.35271 0.62525 0.22568 0.0
H476 H 0.40189 0.67456 0.11116 0.0
H477 H 0.41728 0.67262 0.01087 0.0
C478 C 0.93655 0.40729 0.5047 0.0
C479 C 0.92615 0.3996 0.58596 0.0
C480 C 0.87931 0.42765 0.55947 0.0
C481 C 0.89246 0.44005 0.48594 0.0
N482 N 0.93502 0.44337 0.3911 0.0
N483 N 0.88732 0.40329 0.69301 0.0
C484 C 0.92127 0.42997 0.45828 0.0
C485 C 0.8972 0.40951 0.61358 0.0
N486 N 0.96115 0.39275 0.47211 0.0
N487 N 0.84948 0.43266 0.57677 0.0
H488 H 0.89841 0.38882 0.73389 0.0
H489 H 0.86874 0.41387 0.72037 0.0
H490 H 0.83563 0.44585 0.53876 0.0
H491 H 0.83776 0.42144 0.62413 0.0
H492 H 0.96828 0.39526 0.41016 0.0
H493 H 0.97244 0.37571 0.50474 0.0
H494 H 0.95737 0.43926 0.37417 0.0
H495 H 0.92512 0.46063 0.35651 0.0
C496 C 0.93003 0.46053 0.96352 0.0
C497 C 0.92093 0.4316 0.93516 0.0
C498 C 0.88258 0.42902 0.04597 0.0
C499 C 0.89091 0.45846 0.07216 0.0
N500 N 0.91707 0.50507 0.04404 0.0
N501 N 0.8838 0.39165 0.93521 0.0
C502 C 0.91287 0.47513 0.02684 0.0
C503 C 0.89568 0.41689 0.97192 0.0
N504 N 0.95606 0.4733 0.93389 0.0
N505 N 0.86368 0.41186 0.09428 0.0
H506 H 0.89265 0.38202 0.88077 0.0
H507 H 0.86349 0.38193 0.95412 0.0
H508 H 0.85357 0.41971 0.14923 0.0
H509 H 0.85989 0.38897 0.0835 0.0
H510 H 0.96553 0.49277 0.95936 0.0
H511 H 0.96977 0.46309 0.88881 0.0
H512 H 0.93057 0.51922 0.0077 0.0
H513 H 0.90466 0.51641 0.08987 0.0
C514 C 0.07215 0.87327 0.47868 0.0
C515 C 0.062 0.8828 0.55873 0.0
C516 C 0.08147 0.93371 0.53318 0.0
C517 C 0.08903 0.92507 0.45019 0.0
N518 N 0.08852 0.88792 0.33915 0.0
N519 N 0.05153 0.92332 0.65658 0.0
C520 C 0.08368 0.89513 0.42156 0.0
C521 C 0.06515 0.91336 0.58454 0.0
N522 N 0.07129 0.84331 0.4581 0.0
N523 N 0.09093 0.96092 0.56419 0.0
H524 H 0.03916 0.90933 0.69636 0.0
H525 H 0.05019 0.94604 0.67319 0.0
H526 H 0.10332 0.9764 0.52885 0.0
H527 H 0.08906 0.96691 0.62725 0.0
H528 H 0.08125 0.83438 0.4043 0.0
H529 H 0.06246 0.82692 0.49825 0.0
H530 H 0.0821 0.86749 0.31227 0.0
H531 H 0.09692 0.90331 0.29556 0.0
C532 C 0.58616 0.05502 0.02894 0.0
C533 C 0.60676 0.07163 0.07914 0.0
C534 C 0.5896 0.11889 0.01647 0.0
C535 C 0.56885 0.10241 0.96656 0.0
N536 N 0.55196 0.05484 0.91003 0.0
N537 N 0.63465 0.11768 0.10213 0.0
C538 C 0.56854 0.07041 0.96803 0.0
C539 C 0.61079 0.10301 0.06639 0.0
N540 N 0.58313 0.02459 0.04087 0.0
N541 N 0.58782 0.14967 0.02039 0.0
H542 H 0.65096 0.10669 0.13778 0.0
H543 H 0.64016 0.14003 0.08875 0.0
H544 H 0.57198 0.16208 0.9867 0.0
H545 H 0.60003 0.16271 0.06287 0.0
H546 H 0.56585 0.01175 0.01472 0.0
H547 H 0.59751 0.01224 0.07978 0.0
H548 H 0.5531 0.03153 0.90228 0.0
H549 H 0.53875 0.0655 0.86471 0.0
C550 C 0.42958 0.56801 0.56211 0.0
C551 C 0.42227 0.58112 0.48374 0.0
C552 C 0.44721 0.6283 0.52432 0.0
C553 C 0.45332 0.61565 0.60406 0.0
N554 N 0.44534 0.57576 0.70556 0.0
N555 N 0.41799 0.62532 0.39608 0.0
C556 C 0.44294 0.5862 0.62506 0.0
C557 C 0.42921 0.61179 0.46651 0.0
N558 N 0.42416 0.53799 0.57595 0.0
N559 N 0.45895 0.65584 0.50356 0.0
H560 H 0.40431 0.61403 0.35331 0.0
H561 H 0.41984 0.64834 0.38392 0.0
H562 H 0.47127 0.66898 0.54576 0.0
H563 H 0.4582 0.66481 0.44318 0.0
H564 H 0.43274 0.5261 0.627 0.0
H565 H 0.41258 0.5243 0.5336 0.0
H566 H 0.43527 0.55592 0.72661 0.0
H567 H 0.45559 0.58789 0.75364 0.0
C568 C 0.89339 0.05112 0.97023 0.0
C569 C 0.88788 0.06579 0.89283 0.0
C570 C 0.91938 0.10827 0.93499 0.0
C571 C 0.92588 0.09317 0.01163 0.0
N572 N 0.91133 0.05553 0.11335 0.0
N573 N 0.88551 0.11265 0.81642 0.0
C574 C 0.91034 0.06623 0.03297 0.0
C575 C 0.89725 0.09598 0.88061 0.0
N576 N 0.88317 0.02234 0.98233 0.0
N577 N 0.9359 0.13282 0.91056 0.0
H578 H 0.86866 0.10441 0.77704 0.0
H579 H 0.88987 0.1356 0.80861 0.0
H580 H 0.95352 0.14179 0.94586 0.0
H581 H 0.9341 0.14256 0.85125 0.0
H582 H 0.88962 0.00888 0.03282 0.0
H583 H 0.86896 0.01161 0.93943 0.0
H584 H 0.89845 0.03736 0.13435 0.0
H585 H 0.92271 0.06677 0.16129 0.0
C586 C 0.42214 0.89353 0.55105 0.0
C587 C 0.42142 0.92486 0.53143 0.0
C588 C 0.45002 0.91566 0.40256 0.0
C589 C 0.44961 0.8842 0.42014 0.0
N590 N 0.43171 0.84235 0.50243 0.0
N591 N 0.42839 0.96487 0.43062 0.0
C592 C 0.43455 0.87285 0.49185 0.0
C593 C 0.43365 0.93571 0.455 0.0
N594 N 0.41206 0.8837 0.62746 0.0
N595 N 0.46659 0.92652 0.33662 0.0
H596 H 0.41595 0.98016 0.46659 0.0
H597 H 0.43378 0.97318 0.37131 0.0
H598 H 0.4779 0.91264 0.29414 0.0
H599 H 0.47094 0.94938 0.32729 0.0
H600 H 0.41508 0.86178 0.64946 0.0
H601 H 0.40236 0.898 0.67185 0.0
H602 H 0.41825 0.83249 0.54847 0.0
H603 H 0.44118 0.82672 0.46094 0.0
C604 C 0.61942 0.39218 0.04532 0.0
C605 C 0.59504 0.40791 0.08302 0.0
C606 C 0.59891 0.44769 0.97755 0.0
C607 C 0.61918 0.42921 0.93145 0.0
N608 N 0.64898 0.38382 0.91911 0.0
N609 N 0.56183 0.4509 0.08943 0.0
C610 C 0.63012 0.40173 0.96548 0.0
C611 C 0.58514 0.43602 0.05108 0.0
N612 N 0.6319 0.3679 0.08531 0.0
N613 N 0.59306 0.47643 0.95074 0.0
H614 H 0.55242 0.44369 0.14611 0.0
H615 H 0.55096 0.46956 0.0637 0.0
H616 H 0.60301 0.48548 0.89698 0.0
H617 H 0.5806 0.49212 0.98503 0.0
H618 H 0.65144 0.35706 0.06489 0.0
H619 H 0.62421 0.36018 0.14337 0.0
H620 H 0.65475 0.36184 0.93578 0.0
H621 H 0.65762 0.39028 0.86092 0.0
C622 C 0.0948 0.56251 0.46748 0.0
C623 C 0.08641 0.57078 0.55037 0.0
C624 C 0.05686 0.61323 0.49551 0.0
C625 C 0.06707 0.60612 0.4133 0.0
N626 N 0.10128 0.57866 0.32346 0.0
N627 N 0.06501 0.60774 0.64502 0.0
C628 C 0.08779 0.58218 0.40012 0.0
C629 C 0.06901 0.59722 0.56504 0.0
N630 N 0.10817 0.53517 0.45245 0.0
N631 N 0.03459 0.6342 0.50718 0.0
H632 H 0.07371 0.59691 0.69779 0.0
H633 H 0.05541 0.62867 0.65852 0.0
H634 H 0.02531 0.64681 0.45841 0.0
H635 H 0.0237 0.63749 0.56448 0.0
H636 H 0.11197 0.5267 0.39234 0.0
H637 H 0.11271 0.51951 0.49968 0.0
H638 H 0.11883 0.56349 0.31244 0.0
H639 H 0.09712 0.5931 0.27303 0.0
C640 C 0.9218 0.57997 0.35544 0.0
C641 C 0.90285 0.56767 0.29283 0.0
C642 C 0.92457 0.60273 0.19011 0.0
C643 C 0.94815 0.60903 0.24726 0.0
N644 N 0.96937 0.60399 0.38664 0.0
N645 N 0.88431 0.56898 0.14961 0.0
C646 C 0.94648 0.59843 0.33136 0.0
C647 C 0.90306 0.58004 0.21029 0.0
N648 N 0.91615 0.57369 0.43796 0.0
N649 N 0.92287 0.61859 0.11666 0.0
H650 H 0.8673 0.55336 0.16095 0.0
H651 H 0.88656 0.57418 0.08617 0.0
H652 H 0.93833 0.6355 0.10122 0.0
H653 H 0.90469 0.61725 0.07549 0.0
H654 H 0.92751 0.58402 0.48745 0.0
H655 H 0.89778 0.56052 0.45667 0.0
H656 H 0.97114 0.59343 0.44483 0.0
H657 H 0.98772 0.61775 0.37289 0.0
C658 C 0.90882 0.92236 0.70078 0.0
C659 C 0.91809 0.95237 0.68338 0.0
C660 C 0.96686 0.94322 0.75183 0.0
C661 C 0.95809 0.91276 0.76611 0.0
N662 N 0.92259 0.87206 0.74838 0.0
N663 N 0.95582 0.99164 0.68751 0.0
C664 C 0.92958 0.90195 0.73878 0.0
C665 C 0.9471 0.96286 0.70759 0.0
N666 N 0.87995 0.91368 0.68234 0.0
N667 N 0.99406 0.95342 0.78118 0.0
H668 H 0.94128 0.00763 0.66175 0.0
H669 H 0.97779 -0.00034 0.69274 0.0
H670 H 0.01042 0.93944 0.80745 0.0
H671 H 0.00031 0.97604 0.78303 0.0
H672 H 0.87047 0.89331 0.70136 0.0
H673 H 0.86465 0.92769 0.65136 0.0
H674 H 0.90379 0.8618 0.72174 0.0
H675 H 0.93654 0.85687 0.77997 0.0
C676 C 0.54139 0.94734 0.21448 0.0
C677 C 0.55147 0.91734 0.19988 0.0
C678 C 0.60084 0.92945 0.26092 0.0
C679 C 0.59026 0.959 0.27923 0.0
N680 N 0.54976 0.99556 0.28262 0.0
N681 N 0.58886 0.8783 0.21675 0.0
C682 C 0.5603 0.96777 0.25878 0.0
C683 C 0.58066 0.90793 0.22543 0.0
N684 N 0.51382 0.95644 0.18505 0.0
N685 N 0.63032 0.92218 0.27642 0.0
H686 H 0.57522 0.8623 0.1873 0.0
H687 H 0.60836 0.86907 0.24253 0.0
H688 H 0.64523 0.9368 0.30668 0.0
H689 H 0.64056 0.90236 0.25581 0.0
H690 H 0.50675 0.97884 0.1834 0.0
H691 H 0.49828 0.94183 0.15754 0.0
H692 H 0.52718 0.00194 0.27949 0.0
H693 H 0.56316 0.01192 0.31103 0.0
C694 C 0.60019 0.55339 0.83363 0.0
C695 C 0.60102 0.54029 0.7519 0.0
C696 C 0.55053 0.56024 0.72302 0.0
C697 C 0.55035 0.57459 0.80277 0.0
N698 N 0.5772 0.59024 0.92675 0.0
N699 N 0.58064 0.53812 0.6118 0.0
C700 C 0.57602 0.5731 0.85543 0.0
C701 C 0.57725 0.5458 0.69447 0.0
N702 N 0.62114 0.54546 0.89263 0.0
N703 N 0.52501 0.55985 0.67504 0.0
H704 H 0.6004 0.52848 0.58807 0.0
H705 H 0.5653 0.5442 0.56529 0.0
H706 H 0.50525 0.5709 0.69247 0.0
H707 H 0.52271 0.54673 0.62112 0.0
H708 H 0.61947 0.55157 0.95562 0.0
H709 H 0.63865 0.5303 0.88142 0.0
H710 H 0.59667 0.59269 0.96269 0.0
H711 H 0.55942 0.60404 0.9463 0.0
C712 C 0.10105 0.42753 0.85972 0.0
C713 C 0.09809 0.44659 0.7883 0.0
C714 C 0.06302 0.41043 0.72562 0.0
C715 C 0.06007 0.39613 0.80469 0.0
N716 N 0.08678 0.38047 0.92819 0.0
N717 N 0.07521 0.45658 0.6529 0.0
C718 C 0.08235 0.40147 0.86663 0.0
C719 C 0.07934 0.43785 0.72014 0.0
N720 N 0.12127 0.4348 0.92125 0.0
N721 N 0.05174 0.39697 0.65523 0.0
H722 H 0.08603 0.4773 0.64613 0.0
H723 H 0.05894 0.45265 0.60699 0.0
H724 H 0.04309 0.37507 0.65612 0.0
H725 H 0.05516 0.40544 0.59493 0.0
H726 H 0.12228 0.42417 0.97939 0.0
H727 H 0.13697 0.4522 0.91461 0.0
H728 H 0.10347 0.38183 0.97385 0.0
H729 H 0.0757 0.35967 0.92756 0.0
C730 C 0.05564 0.07047 0.20678 0.0
C731 C 0.0635 0.10144 0.21305 0.0
C732 C 0.11673 0.08736 0.23049 0.0
C733 C 0.1089 0.05668 0.2169 0.0
N734 N 0.07227 0.02053 0.16779 0.0
N735 N 0.102 0.13992 0.21602 0.0
C736 C 0.07875 0.0487 0.19765 0.0
C737 C 0.09424 0.1101 0.22063 0.0
N738 N 0.02624 0.06155 0.21435 0.0
N739 N 0.14525 0.09468 0.25589 0.0
H740 H 0.08614 0.15709 0.20805 0.0
H741 H 0.12425 0.14739 0.21266 0.0
H742 H 0.16231 0.07865 0.26327 0.0
H743 H 0.15138 0.11624 0.27571 0.0
H744 H 0.01978 0.03897 0.21857 0.0
H745 H 0.00866 0.07659 0.22606 0.0
H746 H 0.05102 0.01443 0.14547 0.0
H747 H 0.08897 0.00454 0.15588 0.0
C748 C 0.43218 0.05911 0.65534 0.0
C749 C 0.41457 0.05246 0.72769 0.0
C750 C 0.43987 0.0927 0.80636 0.0
C751 C 0.45893 0.09771 0.73618 0.0
N752 N 0.46702 0.09368 0.5874 0.0
N753 N 0.3945 0.06888 0.86054 0.0
C754 C 0.4529 0.08353 0.65836 0.0
C755 C 0.41608 0.07134 0.7995 0.0
N756 N 0.43069 0.04107 0.58582 0.0
N757 N 0.44549 0.10701 0.8807 0.0
H758 H 0.3765 0.05377 0.85586 0.0
H759 H 0.39268 0.08363 0.91121 0.0
H760 H 0.46156 0.12401 0.88684 0.0
H761 H 0.43509 0.10124 0.93711 0.0
H762 H 0.44604 0.04221 0.53637 0.0
H763 H 0.41495 0.02388 0.57857 0.0
H764 H 0.46166 0.0863 0.52717 0.0
H765 H 0.48206 0.11183 0.58826 0.0
C766 C 0.44262 0.42789 0.1763 0.0
C767 C 0.45842 0.41748 0.24805 0.0
C768 C 0.4297 0.45198 0.33798 0.0
C769 C 0.41384 0.46246 0.26611 0.0
N770 N 0.39862 0.4541 0.12283 0.0
N771 N 0.46103 0.41272 0.39845 0.0
C772 C 0.41815 0.44825 0.18716 0.0
C773 C 0.44992 0.42727 0.32939 0.0
N774 N 0.4521 0.41994 0.09759 0.0
N775 N 0.4272 0.46672 0.4131 0.0
H776 H 0.47564 0.39427 0.39401 0.0
H777 H 0.45342 0.41688 0.45928 0.0
H778 H 0.41258 0.48472 0.42338 0.0
H779 H 0.44126 0.46244 0.46407 0.0
H780 H 0.44367 0.42978 0.04305 0.0
H781 H 0.47001 0.40519 0.08655 0.0
H782 H 0.39894 0.44241 0.06606 0.0
H783 H 0.38007 0.46845 0.12963 0.0
loop_
_geom_bond_atom_site_label_1
_geom_bond_atom_site_label_2
_geom_bond_distance
_geom_bond_site_symmetry_2
_ccdc_geom_bond_type
C0 O1 1.160 1_455 S
C0 O7 1.185 . S
O1 C0 1.160 1_655 S
O2 Zn3 1.899 1_655 S
O2 C10 1.284 . S
Zn3 O2 1.899 1_455 S
Zn3 O4 2.032 . S
Zn3 O7 2.086 . S
Zn3 O12 1.977 . S
O4 Zn3 2.032 . S
O4 C8 1.278 . S
C5 O6 1.203 . S
C5 O12 1.267 . S
O6 C5 1.203 . S
O7 C0 1.185 . S
O7 Zn3 2.086 . S
C8 O4 1.278 . S
C8 O9 1.211 . S
O9 C8 1.211 . S
C10 O2 1.284 . S
C10 O11 1.273 . S
O11 C10 1.273 . S
O12 Zn3 1.977 . S
O12 C5 1.267 . S
C13 O14 1.160 1_545 S
C13 O20 1.185 . S
O14 C13 1.160 1_565 S
O15 Zn16 1.899 1_565 S
O15 C23 1.284 . S
Zn16 O15 1.899 1_545 S
Zn16 O17 2.032 . S
Zn16 O20 2.086 . S
Zn16 O25 1.977 . S
O17 Zn16 2.032 . S
O17 C21 1.278 . S
C18 O19 1.203 . S
C18 O25 1.267 . S
O19 C18 1.203 . S
O20 C13 1.185 . S
O20 Zn16 2.086 . S
C21 O17 1.278 . S
C21 O22 1.211 . S
O22 C21 1.211 . S
C23 O15 1.284 . S
C23 O24 1.273 . S
O24 C23 1.273 . S
O25 Zn16 1.977 . S
O25 C18 1.267 . S
C26 O27 1.160 . S
C26 O33 1.185 . S
O27 C26 1.160 . S
O28 Zn29 1.899 . S
O28 C36 1.284 . S
Zn29 O28 1.899 . S
Zn29 O30 2.032 . S
Zn29 O33 2.086 . S
Zn29 O38 1.977 . S
O30 Zn29 2.032 . S
O30 C34 1.278 . S
C31 O32 1.203 . S
C31 O38 1.267 . S
O32 C31 1.203 . S
O33 C26 1.185 . S
O33 Zn29 2.086 . S
C34 O30 1.278 . S
C34 O35 1.211 . S
O35 C34 1.211 . S
C36 O28 1.284 . S
C36 O37 1.273 . S
O37 C36 1.273 . S
O38 Zn29 1.977 . S
O38 C31 1.267 . S
C39 O40 1.160 . S
C39 O46 1.185 . S
O40 C39 1.160 . S
O41 Zn42 1.899 . S
O41 C49 1.284 . S
Zn42 O41 1.899 . S
Zn42 O43 2.032 . S
Zn42 O46 2.086 . S
Zn42 O51 1.977 . S
O43 Zn42 2.032 . S
O43 C47 1.278 . S
C44 O45 1.203 . S
C44 O51 1.267 . S
O45 C44 1.203 . S
O46 C39 1.185 . S
O46 Zn42 2.086 . S
C47 O43 1.278 . S
C47 O48 1.211 . S
O48 C47 1.211 . S
C49 O41 1.284 . S
C49 O50 1.273 . S
O50 C49 1.273 . S
O51 Zn42 1.977 . S
O51 C44 1.267 . S
C52 O53 1.160 1_455 S
C52 O59 1.185 . S
O53 C52 1.160 1_655 S
O54 Zn55 1.899 1_655 S
O54 C62 1.284 . S
Zn55 O54 1.899 1_455 S
Zn55 O56 2.032 . S
Zn55 O59 2.086 . S
Zn55 O64 1.977 . S
O56 Zn55 2.032 . S
O56 C60 1.278 . S
C57 O58 1.203 . S
C57 O64 1.267 . S
O58 C57 1.203 . S
O59 C52 1.185 . S
O59 Zn55 2.086 . S
C60 O56 1.278 . S
C60 O61 1.211 . S
O61 C60 1.211 . S
C62 O54 1.284 . S
C62 O63 1.273 . S
O63 C62 1.273 . S
O64 Zn55 1.977 . S
O64 C57 1.267 . S
C65 O66 1.160 1_545 S
C65 O72 1.185 . S
O66 C65 1.160 1_565 S
O67 Zn68 1.899 1_565 S
O67 C75 1.284 . S
Zn68 O67 1.899 1_545 S
Zn68 O69 2.032 . S
Zn68 O72 2.086 . S
Zn68 O77 1.977 . S
O69 Zn68 2.032 . S
O69 C73 1.278 . S
C70 O71 1.203 . S
C70 O77 1.267 . S
O71 C70 1.203 . S
O72 C65 1.185 . S
O72 Zn68 2.086 . S
C73 O69 1.278 . S
C73 O74 1.211 . S
O74 C73 1.211 . S
C75 O67 1.284 . S
C75 O76 1.273 . S
O76 C75 1.273 . S
O77 Zn68 1.977 . S
O77 C70 1.267 . S
C78 O79 1.160 . S
C78 O85 1.185 . S
O79 C78 1.160 . S
O80 Zn81 1.899 . S
O80 C88 1.284 . S
Zn81 O80 1.899 . S
Zn81 O82 2.032 . S
Zn81 O85 2.086 . S
Zn81 O90 1.977 . S
O82 Zn81 2.032 . S
O82 C86 1.278 . S
C83 O84 1.203 . S
C83 O90 1.267 . S
O84 C83 1.203 . S
O85 C78 1.185 . S
O85 Zn81 2.086 . S
C86 O82 1.278 . S
C86 O87 1.211 . S
O87 C86 1.211 . S
C88 O80 1.284 . S
C88 O89 1.273 . S
O89 C88 1.273 . S
O90 Zn81 1.977 . S
O90 C83 1.267 . S
C91 O92 1.160 . S
C91 O98 1.185 . S
O92 C91 1.160 . S
O93 Zn94 1.899 . S
O93 C101 1.284 . S
Zn94 O93 1.899 . S
Zn94 O95 2.032 . S
Zn94 O98 2.086 . S
Zn94 O103 1.977 . S
O95 Zn94 2.032 . S
O95 C99 1.278 . S
C96 O97 1.203 . S
C96 O103 1.267 . S
O97 C96 1.203 . S
O98 C91 1.185 . S
O98 Zn94 2.086 . S
C99 O95 1.278 . S
C99 O100 1.211 . S
O100 C99 1.211 . S
C101 O93 1.284 . S
C101 O102 1.273 . S
O102 C101 1.273 . S
O103 Zn94 1.977 . S
O103 C96 1.267 . S
C104 O105 1.160 . S
C104 O111 1.185 . S
O105 C104 1.160 . S
O106 Zn107 1.899 . S
O106 C114 1.284 . S
Zn107 O106 1.899 . S
Zn107 O108 2.032 . S
Zn107 O111 2.086 . S
Zn107 O116 1.977 1_655 S
O108 Zn107 2.032 . S
O108 C112 1.278 . S
C109 O110 1.203 . S
C109 O116 1.267 . S
O110 C109 1.203 . S
O111 C104 1.185 . S
O111 Zn107 2.086 . S
C112 O108 1.278 . S
C112 O113 1.211 . S
O113 C112 1.211 . S
C114 O106 1.284 . S
C114 O115 1.273 . S
O115 C114 1.273 . S
O116 Zn107 1.977 1_455 S
O116 C109 1.267 . S
C117 O118 1.160 . S
C117 O124 1.185 . S
O118 C117 1.160 . S
O119 Zn120 1.899 . S
O119 C127 1.284 . S
Zn120 O119 1.899 . S
Zn120 O121 2.032 . S
Zn120 O124 2.086 . S
Zn120 O129 1.977 1_565 S
O121 Zn120 2.032 . S
O121 C125 1.278 . S
C122 O123 1.203 . S
C122 O129 1.267 . S
O123 C122 1.203 . S
O124 C117 1.185 . S
O124 Zn120 2.086 . S
C125 O121 1.278 . S
C125 O126 1.211 . S
O126 C125 1.211 . S
C127 O119 1.284 . S
C127 O128 1.273 . S
O128 C127 1.273 . S
O129 Zn120 1.977 1_545 S
O129 C122 1.267 . S
C130 O131 1.160 . S
C130 O137 1.185 . S
O131 C130 1.160 . S
O132 Zn133 1.899 . S
O132 C140 1.284 . S
Zn133 O132 1.899 . S
Zn133 O134 2.032 . S
Zn133 O137 2.086 . S
Zn133 O142 1.977 . S
O134 Zn133 2.032 . S
O134 C138 1.278 . S
C135 O136 1.203 . S
C135 O142 1.267 . S
O136 C135 1.203 . S
O137 C130 1.185 . S
O137 Zn133 2.086 . S
C138 O134 1.278 . S
C138 O139 1.211 . S
O139 C138 1.211 . S
C140 O132 1.284 . S
C140 O141 1.273 . S
O141 C140 1.273 . S
O142 Zn133 1.977 . S
O142 C135 1.267 . S
C143 O144 1.160 . S
C143 O150 1.185 . S
O144 C143 1.160 . S
O145 Zn146 1.899 . S
O145 C153 1.284 . S
Zn146 O145 1.899 . S
Zn146 O147 2.032 . S
Zn146 O150 2.086 . S
Zn146 O155 1.977 . S
O147 Zn146 2.032 . S
O147 C151 1.278 . S
C148 O149 1.203 . S
C148 O155 1.267 . S
O149 C148 1.203 . S
O150 C143 1.185 . S
O150 Zn146 2.086 . S
C151 O147 1.278 . S
C151 O152 1.211 . S
O152 C151 1.211 . S
C153 O145 1.284 . S
C153 O154 1.273 . S
O154 C153 1.273 . S
O155 Zn146 1.977 . S
O155 C148 1.267 . S
C156 O157 1.160 . S
C156 O163 1.185 . S
O157 C156 1.160 . S
O158 Zn159 1.899 . S
O158 C166 1.284 . S
Zn159 O158 1.899 . S
Zn159 O160 2.032 . S
Zn159 O163 2.086 . S
Zn159 O168 1.977 1_655 S
O160 Zn159 2.032 . S
O160 C164 1.278 . S
C161 O162 1.203 . S
C161 O168 1.267 . S
O162 C161 1.203 . S
O163 C156 1.185 . S
O163 Zn159 2.086 . S
C164 O160 1.278 . S
C164 O165 1.211 . S
O165 C164 1.211 . S
C166 O158 1.284 . S
C166 O167 1.273 . S
O167 C166 1.273 . S
O168 Zn159 1.977 1_455 S
O168 C161 1.267 . S
C169 O170 1.160 . S
C169 O176 1.185 . S
O170 C169 1.160 . S
O171 Zn172 1.899 . S
O171 C179 1.284 . S
Zn172 O171 1.899 . S
Zn172 O173 2.032 . S
Zn172 O176 2.086 . S
Zn172 O181 1.977 1_565 S
O173 Zn172 2.032 . S
O173 C177 1.278 . S
C174 O175 1.203 . S
C174 O181 1.267 . S
O175 C174 1.203 . S
O176 C169 1.185 . S
O176 Zn172 2.086 . S
C177 O173 1.278 . S
C177 O178 1.211 . S
O178 C177 1.211 . S
C179 O171 1.284 . S
C179 O180 1.273 . S
O180 C179 1.273 . S
O181 Zn172 1.977 1_545 S
O181 C174 1.267 . S
C182 O183 1.160 . S
C182 O189 1.185 . S
O183 C182 1.160 . S
O184 Zn185 1.899 . S
O184 C192 1.284 . S
Zn185 O184 1.899 . S
Zn185 O186 2.032 . S
Zn185 O189 2.086 . S
Zn185 O194 1.977 . S
O186 Zn185 2.032 . S
O186 C190 1.278 . S
C187 O188 1.203 . S
C187 O194 1.267 . S
O188 C187 1.203 . S
O189 C182 1.185 . S
O189 Zn185 2.086 . S
C190 O186 1.278 . S
C190 O191 1.211 . S
O191 C190 1.211 . S
C192 O184 1.284 . S
C192 O193 1.273 . S
O193 C192 1.273 . S
O194 Zn185 1.977 . S
O194 C187 1.267 . S
C195 O196 1.160 . S
C195 O202 1.185 . S
O196 C195 1.160 . S
O197 Zn198 1.899 . S
O197 C205 1.284 . S
Zn198 O197 1.899 . S
Zn198 O199 2.032 . S
Zn198 O202 2.086 . S
Zn198 O207 1.977 . S
O199 Zn198 2.032 . S
O199 C203 1.278 . S
C200 O201 1.203 . S
C200 O207 1.267 . S
O201 C200 1.203 . S
O202 C195 1.185 . S
O202 Zn198 2.086 . S
C203 O199 1.278 . S
C203 O204 1.211 . S
O204 C203 1.211 . S
C205 O197 1.284 . S
C205 O206 1.273 . S
O206 C205 1.273 . S
O207 Zn198 1.977 . S
O207 C200 1.267 . S
C208 C209 1.381 . S
C208 C214 1.379 . S
C208 N216 1.342 1_455 S
C209 C208 1.381 . S
C209 C215 1.363 1_554 S
C210 C211 1.363 . S
C210 C215 1.379 . S
C210 N217 1.356 . S
C211 C210 1.363 . S
C211 C214 1.381 1_556 S
N212 C214 1.342 1_655 S
N212 H224 0.984 . S
N212 H225 0.985 1_554 S
N213 C215 1.356 . S
N213 H218 0.984 1_556 S
N213 H219 0.985 . S
C214 C208 1.379 . S
C214 C211 1.381 1_554 S
C214 N212 1.342 1_455 S
C215 C209 1.363 1_556 S
C215 C210 1.379 . S
C215 N213 1.356 . S
N216 C208 1.342 1_655 S
N216 H222 0.984 . S
N216 H223 0.984 . S
N217 C210 1.356 . S
N217 H220 0.984 . S
N217 H221 0.985 . S
H218 N213 0.984 1_554 S
H219 N213 0.985 . S
H220 N217 0.984 . S
H221 N217 0.985 . S
H222 N216 0.984 . S
H223 N216 0.984 . S
H224 N212 0.984 . S
H225 N212 0.985 1_556 S
C226 C227 1.363 . S
C226 C232 1.379 . S
C226 N234 1.356 . S
C227 C226 1.363 . S
C227 C233 1.363 1_545 S
C228 C229 1.363 1_565 S
C228 C233 1.379 . S
C228 N235 1.356 . S
C229 C228 1.363 1_545 S
C229 C232 1.363 . S
N230 C232 1.356 . S
N230 H242 0.984 . S
N230 H243 0.985 . S
N231 C233 1.356 . S
N231 H236 0.984 . S
N231 H237 0.985 . S
C232 C226 1.379 . S
C232 C229 1.363 . S
C232 N230 1.356 . S
C233 C227 1.363 1_565 S
C233 C228 1.379 . S
C233 N231 1.356 . S
N234 C226 1.356 . S
N234 H240 0.984 . S
N234 H241 0.984 . S
N235 C228 1.356 . S
N235 H238 0.984 . S
N235 H239 0.985 . S
H236 N231 0.984 . S
H237 N231 0.985 . S
H238 N235 0.984 . S
H239 N235 0.985 . S
H240 N234 0.984 . S
H241 N234 0.984 . S
H242 N230 0.984 . S
H243 N230 0.985 . S
C244 C245 1.363 . S
C244 C250 1.379 . S
C244 N252 1.356 . S
C245 C244 1.363 . S
C245 C251 1.363 1_554 S
C246 C247 1.363 . S
C246 C251 1.379 . S
C246 N253 1.356 . S
C247 C246 1.363 . S
C247 C250 1.363 1_556 S
N248 C250 1.356 . S
N248 H260 0.984 . S
N248 H261 0.985 1_554 S
N249 C251 1.356 . S
N249 H254 0.984 1_556 S
N249 H255 0.985 . S
C250 C244 1.379 . S
C250 C247 1.363 1_554 S
C250 N248 1.356 . S
C251 C245 1.363 1_556 S
C251 C246 1.379 . S
C251 N249 1.356 . S
N252 C244 1.356 . S
N252 H258 0.984 . S
N252 H259 0.984 . S
N253 C246 1.356 . S
N253 H256 0.984 . S
N253 H257 0.985 . S
H254 N249 0.984 1_554 S
H255 N249 0.985 . S
H256 N253 0.984 . S
H257 N253 0.985 . S
H258 N252 0.984 . S
H259 N252 0.984 . S
H260 N248 0.984 . S
H261 N248 0.985 1_556 S
C262 C263 1.363 . S
C262 C268 1.379 . S
C262 N270 1.356 . S
C263 C262 1.363 . S
C263 C269 1.363 . S
C264 C265 1.363 . S
C264 C269 1.379 . S
C264 N271 1.356 . S
C265 C264 1.363 . S
C265 C268 1.363 . S
N266 C268 1.356 . S
N266 H278 0.984 . S
N266 H279 0.985 . S
N267 C269 1.356 . S
N267 H272 0.984 . S
N267 H273 0.985 . S
C268 C262 1.379 . S
C268 C265 1.363 . S
C268 N266 1.356 . S
C269 C263 1.363 . S
C269 C264 1.379 . S
C269 N267 1.356 . S
N270 C262 1.356 . S
N270 H276 0.984 . S
N270 H277 0.984 . S
N271 C264 1.356 . S
N271 H274 0.984 . S
N271 H275 0.985 . S
H272 N267 0.984 . S
H273 N267 0.985 . S
H274 N271 0.984 . S
H275 N271 0.985 . S
H276 N270 0.984 . S
H277 N270 0.984 . S
H278 N266 0.984 . S
H279 N266 0.985 . S
C280 C281 1.363 . S
C280 C286 1.379 1_556 S
C280 N288 1.356 . S
C281 C280 1.363 . S
C281 C287 1.363 1_655 S
C282 C283 1.363 1_455 S
C282 C287 1.379 1_554 S
C282 N289 1.356 . S
C283 C282 1.363 1_655 S
C283 C286 1.363 . S
N284 C286 1.356 . S
N284 H296 0.984 . S
N284 H297 0.985 . S
N285 C287 1.356 . S
N285 H290 0.984 . S
N285 H291 0.985 . S
C286 C280 1.379 1_554 S
C286 C283 1.363 . S
C286 N284 1.356 . S
C287 C281 1.363 1_455 S
C287 C282 1.379 1_556 S
C287 N285 1.356 . S
N288 C280 1.356 . S
N288 H294 0.984 . S
N288 H295 0.984 . S
N289 C282 1.356 . S
N289 H292 0.984 . S
N289 H293 0.985 . S
H290 N285 0.984 . S
H291 N285 0.985 . S
H292 N289 0.984 . S
H293 N289 0.985 . S
H294 N288 0.984 . S
H295 N288 0.984 . S
H296 N284 0.984 . S
H297 N284 0.985 . S
C298 C299 1.363 . S
C298 C304 1.379 . S
C298 N306 1.356 . S
C299 C298 1.363 . S
C299 C305 1.363 1_565 S
C300 C301 1.363 1_545 S
C300 C305 1.379 . S
C300 N307 1.356 . S
C301 C300 1.363 1_565 S
C301 C304 1.363 . S
N302 C304 1.356 . S
N302 H314 0.984 . S
N302 H315 0.985 . S
N303 C305 1.356 . S
N303 H308 0.984 . S
N303 H309 0.985 . S
C304 C298 1.379 . S
C304 C301 1.363 . S
C304 N302 1.356 . S
C305 C299 1.363 1_545 S
C305 C300 1.379 . S
C305 N303 1.356 . S
N306 C298 1.356 . S
N306 H312 0.984 . S
N306 H313 0.984 . S
N307 C300 1.356 . S
N307 H310 0.984 . S
N307 H311 0.985 . S
H308 N303 0.984 . S
H309 N303 0.985 . S
H310 N307 0.984 . S
H311 N307 0.985 . S
H312 N306 0.984 . S
H313 N306 0.984 . S
H314 N302 0.984 . S
H315 N302 0.985 . S
C316 C317 1.363 1_554 S
C316 C322 1.379 . S
C316 N324 1.356 1_554 S
C317 C316 1.363 1_556 S
C317 C323 1.363 . S
C318 C319 1.363 1_556 S
C318 C323 1.379 . S
C318 N325 1.356 1_556 S
C319 C318 1.363 1_554 S
C319 C322 1.363 . S
N320 C322 1.356 . S
N320 H332 0.984 . S
N320 H333 0.985 . S
N321 C323 1.356 . S
N321 H326 0.984 . S
N321 H327 0.985 . S
C322 C316 1.379 . S
C322 C319 1.363 . S
C322 N320 1.356 . S
C323 C317 1.363 . S
C323 C318 1.379 . S
C323 N321 1.356 . S
N324 C316 1.356 1_556 S
N324 H330 0.984 1_556 S
N324 H331 0.984 . S
N325 C318 1.356 1_554 S
N325 H328 0.984 . S
N325 H329 0.985 1_554 S
H326 N321 0.984 . S
H327 N321 0.985 . S
H328 N325 0.984 . S
H329 N325 0.985 1_556 S
H330 N324 0.984 1_554 S
H331 N324 0.984 . S
H332 N320 0.984 . S
H333 N320 0.985 . S
C334 C335 1.363 . S
C334 C340 1.379 . S
C334 N342 1.356 . S
C335 C334 1.363 . S
C335 C341 1.363 . S
C336 C337 1.363 . S
C336 C341 1.379 . S
C336 N343 1.356 . S
C337 C336 1.363 . S
C337 C340 1.363 . S
N338 C340 1.356 . S
N338 H350 0.984 . S
N338 H351 0.985 . S
N339 C341 1.356 . S
N339 H344 0.984 . S
N339 H345 0.985 . S
C340 C334 1.379 . S
C340 C337 1.363 . S
C340 N338 1.356 . S
C341 C335 1.363 . S
C341 C336 1.379 . S
C341 N339 1.356 . S
N342 C334 1.356 . S
N342 H348 0.984 . S
N342 H349 0.984 . S
N343 C336 1.356 . S
N343 H346 0.984 . S
N343 H347 0.985 . S
H344 N339 0.984 . S
H345 N339 0.985 . S
H346 N343 0.984 . S
H347 N343 0.985 . S
H348 N342 0.984 . S
H349 N342 0.984 . S
H350 N338 0.984 . S
H351 N338 0.985 . S
C352 C353 1.363 . S
C352 C358 1.379 . S
C352 N360 1.356 1_556 S
C353 C352 1.363 . S
C353 C359 1.363 . S
C354 C355 1.363 . S
C354 C359 1.379 . S
C354 N361 1.356 . S
C355 C354 1.363 . S
C355 C358 1.363 . S
N356 C358 1.356 . S
N356 H368 0.984 . S
N356 H369 0.985 . S
N357 C359 1.356 . S
N357 H362 0.984 . S
N357 H363 0.985 . S
C358 C352 1.379 . S
C358 C355 1.363 . S
C358 N356 1.356 . S
C359 C353 1.363 . S
C359 C354 1.379 . S
C359 N357 1.356 . S
N360 C352 1.356 1_554 S
N360 H366 0.984 . S
N360 H367 0.984 . S
N361 C354 1.356 . S
N361 H364 0.984 . S
N361 H365 0.985 . S
H362 N357 0.984 . S
H363 N357 0.985 . S
H364 N361 0.984 . S
H365 N361 0.985 . S
H366 N360 0.984 . S
H367 N360 0.984 . S
H368 N356 0.984 . S
H369 N356 0.985 . S
C370 C371 1.363 . S
C370 C376 1.379 . S
C370 N378 1.356 . S
C371 C370 1.363 . S
C371 C377 1.363 . S
C372 C373 1.363 . S
C372 C377 1.379 . S
C372 N379 1.356 . S
C373 C372 1.363 . S
C373 C376 1.363 . S
N374 C376 1.356 . S
N374 H386 0.984 . S
N374 H387 0.985 . S
N375 C377 1.356 . S
N375 H380 0.984 . S
N375 H381 0.985 . S
C376 C370 1.379 . S
C376 C373 1.363 . S
C376 N374 1.356 . S
C377 C371 1.363 . S
C377 C372 1.379 . S
C377 N375 1.356 . S
N378 C370 1.356 . S
N378 H384 0.984 . S
N378 H385 0.984 . S
N379 C372 1.356 . S
N379 H382 0.984 . S
N379 H383 0.985 . S
H380 N375 0.984 . S
H381 N375 0.985 . S
H382 N379 0.984 . S
H383 N379 0.985 . S
H384 N378 0.984 . S
H385 N378 0.984 . S
H386 N374 0.984 . S
H387 N374 0.985 . S
C388 C389 1.363 . S
C388 C394 1.379 . S
C388 N396 1.356 . S
C389 C388 1.363 . S
C389 C395 1.363 . S
C390 C391 1.363 . S
C390 C395 1.379 . S
C390 N397 1.356 . S
C391 C390 1.363 . S
C391 C394 1.363 . S
N392 C394 1.356 . S
N392 H404 0.984 . S
N392 H405 0.985 . S
N393 C395 1.356 1_554 S
N393 H398 0.984 . S
N393 H399 0.985 . S
C394 C388 1.379 . S
C394 C391 1.363 . S
C394 N392 1.356 . S
C395 C389 1.363 . S
C395 C390 1.379 . S
C395 N393 1.356 1_556 S
N396 C388 1.356 . S
N396 H402 0.984 . S
N396 H403 0.984 . S
N397 C390 1.356 . S
N397 H400 0.984 . S
N397 H401 0.985 . S
H398 N393 0.984 . S
H399 N393 0.985 . S
H400 N397 0.984 . S
H401 N397 0.985 . S
H402 N396 0.984 . S
H403 N396 0.984 . S
H404 N392 0.984 . S
H405 N392 0.985 . S
C406 C407 1.363 . S
C406 C412 1.379 . S
C406 N414 1.356 . S
C407 C406 1.363 . S
C407 C413 1.363 . S
C408 C409 1.363 . S
C408 C413 1.379 . S
C408 N415 1.356 . S
C409 C408 1.363 . S
C409 C412 1.363 . S
N410 C412 1.356 . S
N410 H422 0.984 . S
N410 H423 0.985 . S
N411 C413 1.356 . S
N411 H416 0.984 . S
N411 H417 0.985 . S
C412 C406 1.379 . S
C412 C409 1.363 . S
C412 N410 1.356 . S
C413 C407 1.363 . S
C413 C408 1.379 . S
C413 N411 1.356 . S
N414 C406 1.356 . S
N414 H420 0.984 . S
N414 H421 0.984 . S
N415 C408 1.356 . S
N415 H418 0.984 . S
N415 H419 0.985 . S
H416 N411 0.984 . S
H417 N411 0.985 . S
H418 N415 0.984 . S
H419 N415 0.985 . S
H420 N414 0.984 . S
H421 N414 0.984 . S
H422 N410 0.984 . S
H423 N410 0.985 . S
C424 C425 1.363 . S
C424 C430 1.379 . S
C424 N432 1.356 . S
C425 C424 1.363 . S
C425 C431 1.363 . S
C426 C427 1.363 . S
C426 C431 1.379 . S
C426 N433 1.356 . S
C427 C426 1.363 . S
C427 C430 1.363 . S
N428 C430 1.356 1_556 S
N428 H440 0.984 . S
N428 H441 0.985 . S
N429 C431 1.356 . S
N429 H434 0.984 . S
N429 H435 0.985 . S
C430 C424 1.379 . S
C430 C427 1.363 . S
C430 N428 1.356 1_554 S
C431 C425 1.363 . S
C431 C426 1.379 . S
C431 N429 1.356 . S
N432 C424 1.356 . S
N432 H438 0.984 . S
N432 H439 0.984 . S
N433 C426 1.356 . S
N433 H436 0.984 . S
N433 H437 0.985 . S
H434 N429 0.984 . S
H435 N429 0.985 . S
H436 N433 0.984 . S
H437 N433 0.985 . S
H438 N432 0.984 . S
H439 N432 0.984 . S
H440 N428 0.984 . S
H441 N428 0.985 . S
C442 C443 1.363 . S
C442 C448 1.379 . S
C442 N450 1.356 . S
C443 C442 1.363 . S
C443 C449 1.363 . S
C444 C445 1.363 . S
C444 C449 1.379 . S
C444 N451 1.356 . S
C445 C444 1.363 . S
C445 C448 1.363 . S
N446 C448 1.356 . S
N446 H458 0.984 . S
N446 H459 0.985 . S
N447 C449 1.356 . S
N447 H452 0.984 . S
N447 H453 0.985 . S
C448 C442 1.379 . S
C448 C445 1.363 . S
C448 N446 1.356 . S
C449 C443 1.363 . S
C449 C444 1.379 . S
C449 N447 1.356 . S
N450 C442 1.356 . S
N450 H456 0.984 . S
N450 H457 0.984 . S
N451 C444 1.356 . S
N451 H454 0.984 . S
N451 H455 0.985 . S
H452 N447 0.984 . S
H453 N447 0.985 . S
H454 N451 0.984 . S
H455 N451 0.985 . S
H456 N450 0.984 . S
H457 N450 0.984 . S
H458 N446 0.984 . S
H459 N446 0.985 . S
C460 C461 1.363 . S
C460 C466 1.379 . S
C460 N468 1.356 . S
C461 C460 1.363 . S
C461 C467 1.363 . S
C462 C463 1.363 . S
C462 C467 1.379 . S
C462 N469 1.356 . S
C463 C462 1.363 . S
C463 C466 1.363 . S
N464 C466 1.356 . S
N464 H476 0.984 . S
N464 H477 0.985 . S
N465 C467 1.356 . S
N465 H470 0.984 . S
N465 H471 0.985 . S
C466 C460 1.379 . S
C466 C463 1.363 . S
C466 N464 1.356 . S
C467 C461 1.363 . S
C467 C462 1.379 . S
C467 N465 1.356 . S
N468 C460 1.356 . S
N468 H474 0.984 . S
N468 H475 0.984 . S
N469 C462 1.356 . S
N469 H472 0.984 1_554 S
N469 H473 0.985 . S
H470 N465 0.984 . S
H471 N465 0.985 . S
H472 N469 0.984 1_556 S
H473 N469 0.985 . S
H474 N468 0.984 . S
H475 N468 0.984 . S
H476 N464 0.984 . S
H477 N464 0.985 . S
C478 C479 1.363 . S
C478 C484 1.379 . S
C478 N486 1.356 . S
C479 C478 1.363 . S
C479 C485 1.363 . S
C480 C481 1.363 . S
C480 C485 1.379 . S
C480 N487 1.356 . S
C481 C480 1.363 . S
C481 C484 1.363 . S
N482 C484 1.356 . S
N482 H494 0.984 . S
N482 H495 0.985 . S
N483 C485 1.356 . S
N483 H488 0.984 . S
N483 H489 0.985 . S
C484 C478 1.379 . S
C484 C481 1.363 . S
C484 N482 1.356 . S
C485 C479 1.363 . S
C485 C480 1.379 . S
C485 N483 1.356 . S
N486 C478 1.356 . S
N486 H492 0.984 . S
N486 H493 0.984 . S
N487 C480 1.356 . S
N487 H490 0.984 . S
N487 H491 0.985 . S
H488 N483 0.984 . S
H489 N483 0.985 . S
H490 N487 0.984 . S
H491 N487 0.985 . S
H492 N486 0.984 . S
H493 N486 0.984 . S
H494 N482 0.984 . S
H495 N482 0.985 . S
C496 C497 1.363 . S
C496 C502 1.379 . S
C496 N504 1.356 . S
C497 C496 1.363 . S
C497 C503 1.363 . S
C498 C499 1.363 . S
C498 C503 1.379 . S
C498 N505 1.356 . S
C499 C498 1.363 . S
C499 C502 1.363 . S
N500 C502 1.356 . S
N500 H512 0.984 . S
N500 H513 0.985 . S
N501 C503 1.356 . S
N501 H506 0.984 1_554 S
N501 H507 0.985 . S
C502 C496 1.379 . S
C502 C499 1.363 . S
C502 N500 1.356 . S
C503 C497 1.363 . S
C503 C498 1.379 . S
C503 N501 1.356 . S
N504 C496 1.356 . S
N504 H510 0.984 . S
N504 H511 0.984 1_554 S
N505 C498 1.356 . S
N505 H508 0.984 . S
N505 H509 0.985 . S
H506 N501 0.984 1_556 S
H507 N501 0.985 . S
H508 N505 0.984 . S
H509 N505 0.985 . S
H510 N504 0.984 . S
H511 N504 0.984 1_556 S
H512 N500 0.984 . S
H513 N500 0.985 . S
C514 C515 1.363 . S
C514 C520 1.379 . S
C514 N522 1.356 . S
C515 C514 1.363 . S
C515 C521 1.363 . S
C516 C517 1.363 . S
C516 C521 1.379 . S
C516 N523 1.356 . S
C517 C516 1.363 . S
C517 C520 1.363 . S
N518 C520 1.356 . S
N518 H530 0.984 . S
N518 H531 0.985 . S
N519 C521 1.356 . S
N519 H524 0.984 . S
N519 H525 0.985 . S
C520 C514 1.379 . S
C520 C517 1.363 . S
C520 N518 1.356 . S
C521 C515 1.363 . S
C521 C516 1.379 . S
C521 N519 1.356 . S
N522 C514 1.356 . S
N522 H528 0.984 . S
N522 H529 0.984 . S
N523 C516 1.356 . S
N523 H526 0.984 . S
N523 H527 0.985 . S
H524 N519 0.984 . S
H525 N519 0.985 . S
H526 N523 0.984 . S
H527 N523 0.985 . S
H528 N522 0.984 . S
H529 N522 0.984 . S
H530 N518 0.984 . S
H531 N518 0.985 . S
C532 C533 1.363 . S
C532 C538 1.379 . S
C532 N540 1.356 . S
C533 C532 1.363 . S
C533 C539 1.363 . S
C534 C535 1.363 . S
C534 C539 1.379 . S
C534 N541 1.356 . S
C535 C534 1.363 . S
C535 C538 1.363 . S
N536 C538 1.356 1_556 S
N536 H548 0.984 . S
N536 H549 0.985 . S
N537 C539 1.356 . S
N537 H542 0.984 . S
N537 H543 0.985 . S
C538 C532 1.379 . S
C538 C535 1.363 . S
C538 N536 1.356 1_554 S
C539 C533 1.363 . S
C539 C534 1.379 . S
C539 N537 1.356 . S
N540 C532 1.356 . S
N540 H546 0.984 . S
N540 H547 0.984 . S
N541 C534 1.356 . S
N541 H544 0.984 . S
N541 H545 0.985 . S
H542 N537 0.984 . S
H543 N537 0.985 . S
H544 N541 0.984 . S
H545 N541 0.985 . S
H546 N540 0.984 . S
H547 N540 0.984 . S
H548 N536 0.984 . S
H549 N536 0.985 . S
C550 C551 1.363 . S
C550 C556 1.379 . S
C550 N558 1.356 . S
C551 C550 1.363 . S
C551 C557 1.363 . S
C552 C553 1.363 . S
C552 C557 1.379 . S
C552 N559 1.356 . S
C553 C552 1.363 . S
C553 C556 1.363 . S
N554 C556 1.356 . S
N554 H566 0.984 . S
N554 H567 0.985 . S
N555 C557 1.356 . S
N555 H560 0.984 . S
N555 H561 0.985 . S
C556 C550 1.379 . S
C556 C553 1.363 . S
C556 N554 1.356 . S
C557 C551 1.363 . S
C557 C552 1.379 . S
C557 N555 1.356 . S
N558 C550 1.356 . S
N558 H564 0.984 . S
N558 H565 0.984 . S
N559 C552 1.356 . S
N559 H562 0.984 . S
N559 H563 0.985 . S
H560 N555 0.984 . S
H561 N555 0.985 . S
H562 N559 0.984 . S
H563 N559 0.985 . S
H564 N558 0.984 . S
H565 N558 0.984 . S
H566 N554 0.984 . S
H567 N554 0.985 . S
C568 C569 1.363 . S
C568 C574 1.379 . S
C568 N576 1.356 . S
C569 C568 1.363 . S
C569 C575 1.363 . S
C570 C571 1.363 . S
C570 C575 1.379 . S
C570 N577 1.356 . S
C571 C570 1.363 . S
C571 C574 1.363 . S
N572 C574 1.356 1_554 S
N572 H584 0.984 . S
N572 H585 0.985 . S
N573 C575 1.356 . S
N573 H578 0.984 . S
N573 H579 0.985 . S
C574 C568 1.379 . S
C574 C571 1.363 . S
C574 N572 1.356 1_556 S
C575 C569 1.363 . S
C575 C570 1.379 . S
C575 N573 1.356 . S
N576 C568 1.356 . S
N576 H582 0.984 . S
N576 H583 0.984 . S
N577 C570 1.356 . S
N577 H580 0.984 . S
N577 H581 0.985 . S
H578 N573 0.984 . S
H579 N573 0.985 . S
H580 N577 0.984 . S
H581 N577 0.985 . S
H582 N576 0.984 . S
H583 N576 0.984 . S
H584 N572 0.984 . S
H585 N572 0.985 . S
C586 C587 1.363 . S
C586 C592 1.379 . S
C586 N594 1.356 . S
C587 C586 1.363 . S
C587 C593 1.363 . S
C588 C589 1.363 . S
C588 C593 1.379 . S
C588 N595 1.356 . S
C589 C588 1.363 . S
C589 C592 1.363 . S
N590 C592 1.356 . S
N590 H602 0.984 . S
N590 H603 0.985 . S
N591 C593 1.356 . S
N591 H596 0.984 . S
N591 H597 0.985 . S
C592 C586 1.379 . S
C592 C589 1.363 . S
C592 N590 1.356 . S
C593 C587 1.363 . S
C593 C588 1.379 . S
C593 N591 1.356 . S
N594 C586 1.356 . S
N594 H600 0.984 . S
N594 H601 0.984 . S
N595 C588 1.356 . S
N595 H598 0.984 . S
N595 H599 0.985 . S
H596 N591 0.984 . S
H597 N591 0.985 . S
H598 N595 0.984 . S
H599 N595 0.985 . S
H600 N594 0.984 . S
H601 N594 0.984 . S
H602 N590 0.984 . S
H603 N590 0.985 . S
C604 C605 1.363 . S
C604 C610 1.379 . S
C604 N612 1.356 . S
C605 C604 1.363 . S
C605 C611 1.363 . S
C606 C607 1.363 . S
C606 C611 1.379 . S
C606 N613 1.356 . S
C607 C606 1.363 . S
C607 C610 1.363 . S
N608 C610 1.356 . S
N608 H620 0.984 . S
N608 H621 0.985 . S
N609 C611 1.356 . S
N609 H614 0.983 1_556 S
N609 H615 0.985 . S
C610 C604 1.379 . S
C610 C607 1.363 . S
C610 N608 1.356 . S
C611 C605 1.363 . S
C611 C606 1.379 . S
C611 N609 1.356 . S
N612 C604 1.356 . S
N612 H618 0.984 . S
N612 H619 0.984 1_556 S
N613 C606 1.356 . S
N613 H616 0.984 . S
N613 H617 0.985 . S
H614 N609 0.983 1_554 S
H615 N609 0.985 . S
H616 N613 0.984 . S
H617 N613 0.985 . S
H618 N612 0.984 . S
H619 N612 0.984 1_554 S
H620 N608 0.984 . S
H621 N608 0.985 . S
C622 C623 1.363 . S
C622 C628 1.379 . S
C622 N630 1.356 . S
C623 C622 1.363 . S
C623 C629 1.363 . S
C624 C625 1.363 . S
C624 C629 1.379 . S
C624 N631 1.356 . S
C625 C624 1.363 . S
C625 C628 1.363 . S
N626 C628 1.356 . S
N626 H638 0.984 . S
N626 H639 0.985 . S
N627 C629 1.356 . S
N627 H632 0.984 . S
N627 H633 0.985 . S
C628 C622 1.379 . S
C628 C625 1.363 . S
C628 N626 1.356 . S
C629 C623 1.363 . S
C629 C624 1.379 . S
C629 N627 1.356 . S
N630 C622 1.356 . S
N630 H636 0.984 . S
N630 H637 0.984 . S
N631 C624 1.356 . S
N631 H634 0.984 . S
N631 H635 0.985 . S
H632 N627 0.984 . S
H633 N627 0.985 . S
H634 N631 0.984 . S
H635 N631 0.985 . S
H636 N630 0.984 . S
H637 N630 0.984 . S
H638 N626 0.984 . S
H639 N626 0.985 . S
C640 C641 1.363 . S
C640 C646 1.379 . S
C640 N648 1.356 . S
C641 C640 1.363 . S
C641 C647 1.363 . S
C642 C643 1.363 . S
C642 C647 1.379 . S
C642 N649 1.356 . S
C643 C642 1.363 . S
C643 C646 1.363 . S
N644 C646 1.356 . S
N644 H656 0.984 . S
N644 H657 0.985 . S
N645 C647 1.356 . S
N645 H650 0.984 . S
N645 H651 0.985 . S
C646 C640 1.379 . S
C646 C643 1.363 . S
C646 N644 1.356 . S
C647 C641 1.363 . S
C647 C642 1.379 . S
C647 N645 1.356 . S
N648 C640 1.356 . S
N648 H654 0.984 . S
N648 H655 0.984 . S
N649 C642 1.356 . S
N649 H652 0.984 . S
N649 H653 0.985 . S
H650 N645 0.984 . S
H651 N645 0.985 . S
H652 N649 0.984 . S
H653 N649 0.985 . S
H654 N648 0.984 . S
H655 N648 0.984 . S
H656 N644 0.984 . S
H657 N644 0.985 . S
C658 C659 1.363 . S
C658 C664 1.379 . S
C658 N666 1.356 . S
C659 C658 1.363 . S
C659 C665 1.363 . S
C660 C661 1.363 . S
C660 C665 1.379 . S
C660 N667 1.356 . S
C661 C660 1.363 . S
C661 C664 1.363 . S
N662 C664 1.356 . S
N662 H674 0.984 . S
N662 H675 0.985 . S
N663 C665 1.356 . S
N663 H668 0.984 . S
N663 H669 0.985 . S
C664 C658 1.379 . S
C664 C661 1.363 . S
C664 N662 1.356 . S
C665 C659 1.363 . S
C665 C660 1.379 . S
C665 N663 1.356 . S
N666 C658 1.356 . S
N666 H672 0.984 . S
N666 H673 0.984 . S
N667 C660 1.356 . S
N667 H670 0.984 1_655 S
N667 H671 0.985 1_655 S
H668 N663 0.984 . S
H669 N663 0.985 . S
H670 N667 0.984 1_455 S
H671 N667 0.985 1_455 S
H672 N666 0.984 . S
H673 N666 0.984 . S
H674 N662 0.984 . S
H675 N662 0.985 . S
C676 C677 1.363 . S
C676 C682 1.379 . S
C676 N684 1.356 . S
C677 C676 1.363 . S
C677 C683 1.363 . S
C678 C679 1.363 . S
C678 C683 1.379 . S
C678 N685 1.356 . S
C679 C678 1.363 . S
C679 C682 1.363 . S
N680 C682 1.356 . S
N680 H692 0.984 1_565 S
N680 H693 0.985 1_565 S
N681 C683 1.356 . S
N681 H686 0.984 . S
N681 H687 0.985 . S
C682 C676 1.379 . S
C682 C679 1.363 . S
C682 N680 1.356 . S
C683 C677 1.363 . S
C683 C678 1.379 . S
C683 N681 1.356 . S
N684 C676 1.356 . S
N684 H690 0.984 . S
N684 H691 0.984 . S
N685 C678 1.356 . S
N685 H688 0.984 . S
N685 H689 0.985 . S
H686 N681 0.984 . S
H687 N681 0.985 . S
H688 N685 0.984 . S
H689 N685 0.985 . S
H690 N684 0.984 . S
H691 N684 0.984 . S
H692 N680 0.984 1_545 S
H693 N680 0.985 1_545 S
C694 C695 1.363 . S
C694 C700 1.379 . S
C694 N702 1.356 . S
C695 C694 1.363 . S
C695 C701 1.363 . S
C696 C697 1.363 . S
C696 C701 1.379 . S
C696 N703 1.356 . S
C697 C696 1.363 . S
C697 C700 1.363 . S
N698 C700 1.356 . S
N698 H710 0.984 . S
N698 H711 0.985 . S
N699 C701 1.356 . S
N699 H704 0.984 . S
N699 H705 0.985 . S
C700 C694 1.379 . S
C700 C697 1.363 . S
C700 N698 1.356 . S
C701 C695 1.363 . S
C701 C696 1.379 . S
C701 N699 1.356 . S
N702 C694 1.356 . S
N702 H708 0.984 . S
N702 H709 0.984 . S
N703 C696 1.356 . S
N703 H706 0.984 . S
N703 H707 0.985 . S
H704 N699 0.984 . S
H705 N699 0.985 . S
H706 N703 0.984 . S
H707 N703 0.985 . S
H708 N702 0.984 . S
H709 N702 0.984 . S
H710 N698 0.984 . S
H711 N698 0.985 . S
C712 C713 1.363 . S
C712 C718 1.379 . S
C712 N720 1.356 . S
C713 C712 1.363 . S
C713 C719 1.363 . S
C714 C715 1.363 . S
C714 C719 1.379 . S
C714 N721 1.356 . S
C715 C714 1.363 . S
C715 C718 1.363 . S
N716 C718 1.356 . S
N716 H728 0.984 . S
N716 H729 0.985 . S
N717 C719 1.356 . S
N717 H722 0.984 . S
N717 H723 0.985 . S
C718 C712 1.379 . S
C718 C715 1.363 . S
C718 N716 1.356 . S
C719 C713 1.363 . S
C719 C714 1.379 . S
C719 N717 1.356 . S
N720 C712 1.356 . S
N720 H726 0.984 . S
N720 H727 0.984 . S
N721 C714 1.356 . S
N721 H724 0.984 . S
N721 H725 0.985 . S
H722 N717 0.984 . S
H723 N717 0.985 . S
H724 N721 0.984 . S
H725 N721 0.985 . S
H726 N720 0.984 . S
H727 N720 0.984 . S
H728 N716 0.984 . S
H729 N716 0.985 . S
C730 C731 1.363 . S
C730 C736 1.379 . S
C730 N738 1.356 . S
C731 C730 1.363 . S
C731 C737 1.363 . S
C732 C733 1.363 . S
C732 C737 1.379 . S
C732 N739 1.356 . S
C733 C732 1.363 . S
C733 C736 1.363 . S
N734 C736 1.356 . S
N734 H746 0.984 1_545 S
N734 H747 0.985 . S
N735 C737 1.356 . S
N735 H740 0.984 . S
N735 H741 0.985 . S
C736 C730 1.379 . S
C736 C733 1.363 . S
C736 N734 1.356 . S
C737 C731 1.363 . S
C737 C732 1.379 . S
C737 N735 1.356 . S
N738 C730 1.356 . S
N738 H744 0.984 . S
N738 H745 0.984 . S
N739 C732 1.356 . S
N739 H742 0.984 . S
N739 H743 0.985 . S
H740 N735 0.984 . S
H741 N735 0.985 . S
H742 N739 0.984 . S
H743 N739 0.985 . S
H744 N738 0.984 . S
H745 N738 0.984 . S
H746 N734 0.984 1_565 S
H747 N734 0.985 . S
C748 C749 1.363 . S
C748 C754 1.379 . S
C748 N756 1.356 . S
C749 C748 1.363 . S
C749 C755 1.363 . S
C750 C751 1.363 . S
C750 C755 1.379 . S
C750 N757 1.356 . S
C751 C750 1.363 . S
C751 C754 1.363 . S
N752 C754 1.356 . S
N752 H764 0.984 . S
N752 H765 0.985 . S
N753 C755 1.356 . S
N753 H758 0.984 . S
N753 H759 0.985 . S
C754 C748 1.379 . S
C754 C751 1.363 . S
C754 N752 1.356 . S
C755 C749 1.363 . S
C755 C750 1.379 . S
C755 N753 1.356 . S
N756 C748 1.356 . S
N756 H762 0.984 . S
N756 H763 0.984 . S
N757 C750 1.356 . S
N757 H760 0.984 . S
N757 H761 0.985 . S
H758 N753 0.984 . S
H759 N753 0.985 . S
H760 N757 0.984 . S
H761 N757 0.985 . S
H762 N756 0.984 . S
H763 N756 0.984 . S
H764 N752 0.984 . S
H765 N752 0.985 . S
C766 C767 1.363 . S
C766 C772 1.379 . S
C766 N774 1.356 . S
C767 C766 1.363 . S
C767 C773 1.363 . S
C768 C769 1.363 . S
C768 C773 1.379 . S
C768 N775 1.356 . S
C769 C768 1.363 . S
C769 C772 1.363 . S
N770 C772 1.356 . S
N770 H782 0.984 . S
N770 H783 0.985 . S
N771 C773 1.356 . S
N771 H776 0.984 . S
N771 H777 0.985 . S
C772 C766 1.379 . S
C772 C769 1.363 . S
C772 N770 1.356 . S
C773 C767 1.363 . S
C773 C768 1.379 . S
C773 N771 1.356 . S
N774 C766 1.356 . S
N774 H780 0.984 . S
N774 H781 0.984 . S
N775 C768 1.356 . S
N775 H778 0.984 . S
N775 H779 0.985 . S
H776 N771 0.984 . S
H777 N771 0.985 . S
H778 N775 0.984 . S
H779 N775 0.985 . S
H780 N774 0.984 . S
H781 N774 0.984 . S
H782 N770 0.984 . S
H783 N770 0.985 . S
C209 C0 1.334 . S
C211 C52 1.334 . S
C227 C65 1.334 . S
C229 C13 1.334 . S
C245 C26 1.334 . S
C247 C78 1.334 . S
C263 C39 1.334 . S
C265 C91 1.334 . S
C281 C104 1.424 . S
C283 C156 1.424 . S
C299 C169 1.424 . S
C301 C117 1.424 . S
C317 C130 1.424 . S
C319 C182 1.424 . S
C335 C143 1.424 . S
C337 C195 1.424 . S
C353 C8 1.327 1_556 S
C355 C205 1.299 . S
C371 C166 1.299 . S
C373 C21 1.327 . S
C389 C34 1.327 1_556 S
C391 C179 1.299 . S
C407 C192 1.299 . S
C409 C47 1.327 . S
C425 C127 1.299 . S
C427 C60 1.327 1_554 S
C443 C140 1.299 . S
C445 C73 1.327 . S
C461 C153 1.299 . S
C463 C86 1.327 1_554 S
C479 C114 1.299 . S
C481 C99 1.327 . S
C497 C112 1.260 1_554 S
C499 C96 1.166 . S
C515 C57 1.166 . S
C517 C125 1.260 . S
C533 C70 1.166 . S
C535 C138 1.260 1_554 S
C551 C151 1.260 . S
C553 C83 1.166 . S
C569 C18 1.166 . S
C571 C164 1.260 1_556 S
C587 C177 1.260 . S
C589 C31 1.166 . S
C605 C190 1.260 1_556 S
C607 C44 1.166 . S
C623 C203 1.260 . S
C625 C5 1.166 . S
C641 C101 1.443 . S
C643 C10 1.443 . S
C659 C23 1.443 . S
C661 C62 1.443 . S
C677 C36 1.443 . S
C679 C75 1.443 . S
C695 C49 1.443 . S
C697 C88 1.443 . S
C713 C200 1.255 . S
C715 C109 1.255 . S
C731 C161 1.255 . S
C733 C122 1.255 . S
C749 C174 1.255 . S
C751 C135 1.255 . S
C767 C187 1.255 . S
C769 C148 1.255 . S
