# Generated by pormake.
# Topology fcj, (5)-cn, num edge types: 1
# Building blocks:
#     Node 0, Type 0, BuildingBlock: XOMCOT_clean_sbu_0, # of connection points: 5
#     Node 1, Type 0, BuildingBlock: XOMCOT_clean_sbu_0, # of connection points: 5
#     Node 2, Type 0, BuildingBlock: XOMCOT_clean_sbu_0, # of connection points: 5
#     Node 3, Type 0, BuildingBlock: XOMCOT_clean_sbu_0, # of connection points: 5
#     Node 4, Type 0, BuildingBlock: XOMCOT_clean_sbu_0, # of connection points: 5
#     Node 5, Type 0, BuildingBlock: XOMCOT_clean_sbu_0, # of connection points: 5
#     Node 6, Type 0, BuildingBlock: XOMCOT_clean_sbu_0, # of connection points: 5
#     Node 7, Type 0, BuildingBlock: XOMCOT_clean_sbu_0, # of connection points: 5
#     Node 8, Type 0, BuildingBlock: XOMCOT_clean_sbu_0, # of connection points: 5
#     Node 9, Type 0, BuildingBlock: XOMCOT_clean_sbu_0, # of connection points: 5
#     Node 10, Type 0, BuildingBlock: XOMCOT_clean_sbu_0, # of connection points: 5
#     Node 11, Type 0, BuildingBlock: XOMCOT_clean_sbu_0, # of connection points: 5
#     Node 12, Type 0, BuildingBlock: XOMCOT_clean_sbu_0, # of connection points: 5
#     Node 13, Type 0, BuildingBlock: XOMCOT_clean_sbu_0, # of connection points: 5
#     Node 14, Type 0, BuildingBlock: XOMCOT_clean_sbu_0, # of connection points: 5
#     Node 15, Type 0, BuildingBlock: XOMCOT_clean_sbu_0, # of connection points: 5
#     Node 16, Type 0, BuildingBlock: XOMCOT_clean_sbu_0, # of connection points: 5
#     Node 17, Type 0, BuildingBlock: XOMCOT_clean_sbu_0, # of connection points: 5
#     Node 18, Type 0, BuildingBlock: XOMCOT_clean_sbu_0, # of connection points: 5
#     Node 19, Type 0, BuildingBlock: XOMCOT_clean_sbu_0, # of connection points: 5
#     Node 20, Type 0, BuildingBlock: XOMCOT_clean_sbu_0, # of connection points: 5
#     Node 21, Type 0, BuildingBlock: XOMCOT_clean_sbu_0, # of connection points: 5
#     Node 22, Type 0, BuildingBlock: XOMCOT_clean_sbu_0, # of connection points: 5
#     Node 23, Type 0, BuildingBlock: XOMCOT_clean_sbu_0, # of connection points: 5
#     Edge 24, Type (0, 0), None
#     Edge 25, Type (0, 0), None
#     Edge 26, Type (0, 0), None
#     Edge 27, Type (0, 0), None
#     Edge 28, Type (0, 0), None
#     Edge 29, Type (0, 0), None
#     Edge 30, Type (0, 0), None
#     Edge 31, Type (0, 0), None
#     Edge 32, Type (0, 0), None
#     Edge 33, Type (0, 0), None
#     Edge 34, Type (0, 0), None
#     Edge 35, Type (0, 0), None
#     Edge 36, Type (0, 0), None
#     Edge 37, Type (0, 0), None
#     Edge 38, Type (0, 0), None
#     Edge 39, Type (0, 0), None
#     Edge 40, Type (0, 0), None
#     Edge 41, Type (0, 0), None
#     Edge 42, Type (0, 0), None
#     Edge 43, Type (0, 0), None
#     Edge 44, Type (0, 0), None
#     Edge 45, Type (0, 0), None
#     Edge 46, Type (0, 0), None
#     Edge 47, Type (0, 0), None
#     Edge 48, Type (0, 0), None
#     Edge 49, Type (0, 0), None
#     Edge 50, Type (0, 0), None
#     Edge 51, Type (0, 0), None
#     Edge 52, Type (0, 0), None
#     Edge 53, Type (0, 0), None
#     Edge 54, Type (0, 0), None
#     Edge 55, Type (0, 0), None
#     Edge 56, Type (0, 0), None
#     Edge 57, Type (0, 0), None
#     Edge 58, Type (0, 0), None
#     Edge 59, Type (0, 0), None
#     Edge 60, Type (0, 0), None
#     Edge 61, Type (0, 0), None
#     Edge 62, Type (0, 0), None
#     Edge 63, Type (0, 0), None
#     Edge 64, Type (0, 0), None
#     Edge 65, Type (0, 0), None
#     Edge 66, Type (0, 0), None
#     Edge 67, Type (0, 0), None
#     Edge 68, Type (0, 0), None
#     Edge 69, Type (0, 0), None
#     Edge 70, Type (0, 0), None
#     Edge 71, Type (0, 0), None
#     Edge 72, Type (0, 0), None
#     Edge 73, Type (0, 0), None
#     Edge 74, Type (0, 0), None
#     Edge 75, Type (0, 0), None
#     Edge 76, Type (0, 0), None
#     Edge 77, Type (0, 0), None
#     Edge 78, Type (0, 0), None
#     Edge 79, Type (0, 0), None
#     Edge 80, Type (0, 0), None
#     Edge 81, Type (0, 0), None
#     Edge 82, Type (0, 0), None
#     Edge 83, Type (0, 0), None
# Relax obj value: 0.247
# Max RMSD: 0.188
# Mean RMSD: 0.188
data_MOF--net-fcj--node1-XOMCOT_clean_sbu_0--edge1-none
_symmetry_space_group_name_H-M    P1
_symmetry_Int_Tables_number       1
_symmetry_cell_setting            triclinic
loop_
_symmetry_equiv_pos_as_xyz
'x, y, z'
_cell_length_a     26.251137
_cell_length_b     26.251155
_cell_length_c     26.251806
_cell_angle_alpha  90.000206
_cell_angle_beta   90.000763
_cell_angle_gamma 90.000919
loop_
_atom_site_label
_atom_site_type_symbol
_atom_site_fract_x
_atom_site_fract_y
_atom_site_fract_z
_atom_type_partial_charge
Co0 Co 0.07501 0.19236 0.30549 0.0
C1 C 0.1617 0.14053 0.25805 0.0
C2 C 0.10809 0.08674 0.28748 0.0
C3 C 0.15283 0.06159 0.27643 0.0
N4 N 0.11301 0.1365 0.27512 0.0
N5 N 0.18593 0.09538 0.25743 0.0
H6 H 0.18009 0.17585 0.24772 0.0
H7 H 0.07634 0.07028 0.30782 0.0
C8 C 0.97107 0.14857 0.32548 0.0
O9 O 0.95049 0.1645 0.36825 0.0
N10 N 0.04189 0.25048 0.33864 0.0
C11 C 0.06946 0.2877 0.36083 0.0
C12 C 0.03779 0.32279 0.38214 0.0
C13 C 0.99268 0.26573 0.34478 0.0
N14 N 0.98928 0.30865 0.37349 0.0
C15 C 0.16204 0.20446 0.36825 0.0
C16 C 0.14713 0.12074 0.4303 0.0
C17 C 0.19512 0.14443 0.42972 0.0
C18 C 0.20081 0.18854 0.40031 0.0
C19 C 0.10799 0.13921 0.39834 0.0
N20 N 0.11651 0.1795 0.36618 0.0
H21 H 0.17069 0.23504 0.34237 0.0
H22 H 0.07254 0.11848 0.39694 0.0
H23 H 0.1103 0.29047 0.36093 0.0
H24 H 0.96014 0.24724 0.32797 0.0
O25 O 0.11914 0.23948 0.26904 0.0
O26 O 0.04471 0.21158 0.24117 0.0
O27 O 0.0194 0.14212 0.32543 0.0
C28 C 0.08558 0.238 0.23275 0.0
H29 H 0.16201 0.02245 0.28554 0.0
H30 H 0.04995 0.35677 0.40209 0.0
H31 H 0.14074 0.0868 0.4528 0.0
H32 H 0.23623 0.20958 0.39977 0.0
Co33 Co 0.57155 0.32501 0.05546 0.0
C34 C 0.62338 0.41169 1.00801 0.0
C35 C 0.67717 0.35809 0.03746 0.0
C36 C 0.70232 0.40283 0.02641 0.0
N37 N 0.62741 0.363 0.02509 0.0
N38 N 0.66853 0.43592 1.0074 0.0
H39 H 0.58806 0.43008 0.99767 0.0
H40 H 0.69363 0.32635 0.0578 0.0
C41 C 0.61535 0.22107 0.07545 0.0
O42 O 0.59939 0.2005 0.11822 0.0
N43 N 0.51343 0.29189 0.0886 0.0
C44 C 0.47622 0.31945 0.11079 0.0
C45 C 0.44112 0.28779 0.13211 0.0
C46 C 0.49818 0.24267 0.09474 0.0
N47 N 0.45526 0.23927 0.12346 0.0
C48 C 0.55945 0.41203 0.11821 0.0
C49 C 0.64317 0.39712 0.18027 0.0
C50 C 0.61948 0.44511 0.17969 0.0
C51 C 0.57537 0.4508 0.15027 0.0
C52 C 0.6247 0.35798 0.14831 0.0
N53 N 0.58441 0.36651 0.11614 0.0
H54 H 0.52888 0.42068 0.09233 0.0
H55 H 0.64543 0.32253 0.14691 0.0
H56 H 0.47345 0.36029 0.11089 0.0
H57 H 0.51667 0.21013 0.07794 0.0
O58 O 0.52443 0.36913 0.019 0.0
O59 O 0.55233 0.29471 0.99113 0.0
O60 O 0.6218 0.2694 0.07538 0.0
C61 C 0.52591 0.33558 0.98271 0.0
H62 H 0.74145 0.41202 0.03553 0.0
H63 H 0.40715 0.29995 0.15206 0.0
H64 H 0.67711 0.39073 0.20278 0.0
H65 H 0.55433 0.48622 0.14973 0.0
Co66 Co 0.4389 0.82157 0.80547 0.0
C67 C 0.35222 0.87341 0.75803 0.0
C68 C 0.40583 0.9272 0.78747 0.0
C69 C 0.36109 0.95235 0.77642 0.0
N70 N 0.40091 0.87743 0.77511 0.0
N71 N 0.32799 0.91856 0.75741 0.0
H72 H 0.33382 0.83809 0.7477 0.0
H73 H 0.43757 0.94366 0.80781 0.0
C74 C 0.54285 0.86535 0.82547 0.0
O75 O 0.56342 0.84942 0.86825 0.0
N76 N 0.47202 0.76345 0.83861 0.0
C77 C 0.44446 0.72623 0.8608 0.0
C78 C 0.47612 0.69114 0.88211 0.0
C79 C 0.52124 0.74819 0.84475 0.0
N80 N 0.52464 0.70527 0.87346 0.0
C81 C 0.35188 0.80947 0.86823 0.0
C82 C 0.3668 0.89318 0.93028 0.0
C83 C 0.31881 0.86949 0.92971 0.0
C84 C 0.31312 0.82538 0.90029 0.0
C85 C 0.40593 0.87472 0.89832 0.0
N86 N 0.39741 0.83443 0.86616 0.0
H87 H 0.34323 0.77889 0.84235 0.0
H88 H 0.44138 0.89545 0.89693 0.0
H89 H 0.40362 0.72346 0.8609 0.0
H90 H 0.55378 0.76669 0.82795 0.0
O91 O 0.39478 0.77446 0.76902 0.0
O92 O 0.4692 0.80236 0.74115 0.0
O93 O 0.49452 0.87182 0.8254 0.0
C94 C 0.42833 0.77594 0.73273 0.0
H95 H 0.3519 0.99148 0.78553 0.0
H96 H 0.46396 0.65716 0.90205 0.0
H97 H 0.37319 0.92712 0.95279 0.0
H98 H 0.27769 0.80434 0.89975 0.0
Co99 Co 0.94235 0.68891 0.55549 0.0
C100 C 0.89051 0.60223 0.50805 0.0
C101 C 0.83673 0.65583 0.53749 0.0
C102 C 0.81157 0.61109 0.52643 0.0
N103 N 0.88649 0.65091 0.52512 0.0
N104 N 0.84536 0.578 0.50742 0.0
H105 H 0.92584 0.58383 0.49771 0.0
H106 H 0.82027 0.68757 0.55782 0.0
C107 C 0.89857 0.79285 0.57548 0.0
O108 O 0.91449 0.81344 0.61826 0.0
N109 N 1.00047 0.72202 0.58863 0.0
C110 C 0.0377 0.69446 0.61081 0.0
C111 C 0.07279 0.72612 0.63213 0.0
C112 C 0.01573 0.77124 0.59478 0.0
N113 N 0.05865 0.77464 0.62348 0.0
C114 C 0.95446 0.60188 0.61824 0.0
C115 C 0.87075 0.61679 0.6803 0.0
C116 C 0.89444 0.5688 0.67972 0.0
C117 C 0.93855 0.56311 0.6503 0.0
C118 C 0.88921 0.65593 0.64834 0.0
N119 N 0.9295 0.64741 0.61617 0.0
H120 H 0.98503 0.59323 0.59236 0.0
H121 H 0.86848 0.69138 0.64694 0.0
H122 H 0.04047 0.65362 0.6109 0.0
H123 H 0.99722 0.80379 0.57798 0.0
O124 O 0.98946 0.64478 0.51903 0.0
O125 O 0.96156 0.71921 0.49117 0.0
O126 O 0.89211 0.74452 0.57543 0.0
C127 C 0.98798 0.67834 0.48274 0.0
H128 H 0.77244 0.60191 0.53554 0.0
H129 H 0.10677 0.71397 0.65206 0.0
H130 H 0.83681 0.62318 0.70281 0.0
H131 H 0.95959 0.52769 0.64976 0.0
Co132 Co 0.57491 0.32145 0.7084 0.0
C133 C 0.66155 0.37333 0.75584 0.0
C134 C 0.60793 0.42709 0.72639 0.0
C135 C 0.65266 0.45226 0.73745 0.0
N136 N 0.61287 0.37733 0.73876 0.0
N137 N 0.68576 0.41849 0.75646 0.0
H138 H 0.67996 0.33802 0.76619 0.0
H139 H 0.57619 0.44353 0.70603 0.0
C140 C 0.47098 0.36526 0.68842 0.0
O141 O 0.45027 0.34932 0.64571 0.0
N142 N 0.54183 0.26331 0.67527 0.0
C143 C 0.56941 0.22607 0.65313 0.0
C144 C 0.53775 0.19097 0.63182 0.0
C145 C 0.49262 0.24806 0.66911 0.0
N146 N 0.48923 0.20511 0.64044 0.0
C147 C 0.662 0.30932 0.64572 0.0
C148 C 0.64711 0.39298 0.58358 0.0
C149 C 0.6951 0.3693 0.5842 0.0
C150 C 0.70079 0.32522 0.61367 0.0
C151 C 0.60796 0.37454 0.61554 0.0
N152 N 0.61647 0.33427 0.64774 0.0
H153 H 0.67063 0.27876 0.67163 0.0
H154 H 0.57251 0.39526 0.61689 0.0
H155 H 0.61025 0.2233 0.65305 0.0
H156 H 0.46007 0.26658 0.68588 0.0
O157 O 0.61902 0.27437 0.74492 0.0
O158 O 0.54458 0.30226 0.77272 0.0
O159 O 0.51932 0.37166 0.68834 0.0
C160 C 0.58545 0.27585 0.78119 0.0
H161 H 0.66184 0.49139 0.72831 0.0
H162 H 0.54991 0.15697 0.61191 0.0
H163 H 0.64073 0.4269 0.56104 0.0
H164 H 0.73622 0.30419 0.61426 0.0
Co165 Co 0.44247 0.8249 0.45837 0.0
C166 C 0.39059 0.91153 0.50582 0.0
C167 C 0.33683 0.85791 0.47636 0.0
C168 C 0.31166 0.90264 0.48743 0.0
N169 N 0.38658 0.86285 0.48873 0.0
N170 N 0.34543 0.93575 0.50644 0.0
H171 H 0.4259 0.92994 0.51616 0.0
H172 H 0.32038 0.82617 0.45601 0.0
C173 C 0.39865 0.72096 0.43841 0.0
O174 O 0.41456 0.70021 0.39571 0.0
N175 N 0.50061 0.79182 0.42525 0.0
C176 C 0.53785 0.8194 0.40311 0.0
C177 C 0.57296 0.78774 0.38181 0.0
C178 C 0.51585 0.74261 0.41908 0.0
N179 N 0.5588 0.73922 0.39041 0.0
C180 C 0.45461 0.91199 0.3957 0.0
C181 C 0.37094 0.89711 0.33357 0.0
C182 C 0.39462 0.94511 0.33419 0.0
C183 C 0.43871 0.95079 0.36366 0.0
C184 C 0.38939 0.85796 0.36551 0.0
N185 N 0.42966 0.86646 0.39771 0.0
H186 H 0.48517 0.92062 0.42161 0.0
H187 H 0.36866 0.82251 0.36686 0.0
H188 H 0.54063 0.86024 0.40305 0.0
H189 H 0.49733 0.71006 0.43584 0.0
O190 O 0.48955 0.869 0.4949 0.0
O191 O 0.46166 0.79456 0.5227 0.0
O192 O 0.39227 0.7693 0.43829 0.0
C193 C 0.48807 0.83543 0.53117 0.0
H194 H 0.27252 0.91182 0.47829 0.0
H195 H 0.60695 0.7999 0.3619 0.0
H196 H 0.33702 0.89073 0.31102 0.0
H197 H 0.45974 0.98621 0.36425 0.0
Co198 Co 0.93901 0.69246 0.20836 0.0
C199 C 0.85237 0.64057 0.25581 0.0
C200 C 0.906 0.58681 0.22636 0.0
C201 C 0.86127 0.56164 0.23742 0.0
N202 N 0.90106 0.63657 0.23872 0.0
N203 N 0.82816 0.59541 0.25643 0.0
H204 H 0.83396 0.67589 0.26615 0.0
H205 H 0.93774 0.57037 0.20601 0.0
C206 C 0.04295 0.64865 0.1884 0.0
O207 O 0.06369 0.66455 0.14569 0.0
N208 N 0.97208 0.7506 0.17524 0.0
C209 C 0.94451 0.78784 0.15311 0.0
C210 C 0.97617 0.82295 0.1318 0.0
C211 C 0.0213 0.76584 0.16907 0.0
N212 N 0.02469 0.80879 0.14041 0.0
C213 C 0.85192 0.7046 0.14569 0.0
C214 C 0.8668 0.62093 0.08355 0.0
C215 C 0.8188 0.64461 0.08417 0.0
C216 C 0.81312 0.68869 0.11364 0.0
C217 C 0.90595 0.63937 0.1155 0.0
N218 N 0.89745 0.67965 0.1477 0.0
H219 H 0.84329 0.73515 0.1716 0.0
H220 H 0.9414 0.61864 0.11685 0.0
H221 H 0.90367 0.79062 0.15304 0.0
H222 H 0.05385 0.74732 0.18583 0.0
O223 O 0.8949 0.73953 0.24489 0.0
O224 O 0.96935 0.71164 0.27269 0.0
O225 O 0.99461 0.64226 0.18828 0.0
C226 C 0.92847 0.73805 0.28116 0.0
H227 H 0.8521 0.5225 0.22829 0.0
H228 H 0.96401 0.85695 0.11189 0.0
H229 H 0.87318 0.58701 0.06101 0.0
H230 H 0.7777 0.70972 0.11423 0.0
Co231 Co 0.07146 0.18901 0.95839 0.0
C232 C 0.12335 0.10238 1.00583 0.0
C233 C 0.17711 0.156 0.97638 0.0
C234 C 0.20228 0.11127 0.98744 0.0
N235 N 0.12735 0.15106 0.98875 0.0
N236 N 0.1685 0.07817 1.00646 0.0
H237 H 0.08803 0.08397 0.01618 0.0
H238 H 0.19355 0.18774 0.95602 0.0
C239 C 0.11527 0.29295 0.93842 0.0
O240 O 0.09936 0.31368 0.89571 0.0
N241 N 0.01331 0.22209 0.92527 0.0
C242 C 0.97607 0.19452 0.90314 0.0
C243 C 0.94097 0.22618 0.88184 0.0
C244 C 0.99807 0.27131 0.91911 0.0
N245 N 0.95513 0.27469 0.89044 0.0
C246 C 0.05932 0.10192 0.89571 0.0
C247 C 0.14297 0.11681 0.83358 0.0
C248 C 0.11929 0.06881 0.8342 0.0
C249 C 0.07521 0.06313 0.86367 0.0
C250 C 0.12454 0.15596 0.86553 0.0
N251 N 0.08427 0.14746 0.89773 0.0
H252 H 0.02876 0.09329 0.92163 0.0
H253 H 0.14526 0.19141 0.86688 0.0
H254 H 0.97329 0.15368 0.90307 0.0
H255 H 0.0166 0.30386 0.93586 0.0
O256 O 0.02438 0.1449 0.99492 0.0
O257 O 0.05228 0.21935 0.02272 0.0
O258 O 0.12166 0.24461 0.93831 0.0
C259 C 0.02587 0.17847 0.03119 0.0
H260 H 0.24141 0.10209 0.97831 0.0
H261 H 0.90697 0.21402 0.86193 0.0
H262 H 0.17689 0.12319 0.81103 0.0
H263 H 0.05419 0.0277 0.86426 0.0
Co264 Co 0.30551 0.075 0.19244 0.0
C265 C 0.25806 0.16166 0.1406 0.0
C266 C 0.2875 0.10805 0.08682 0.0
C267 C 0.27645 0.15279 0.06167 0.0
N268 N 0.27513 0.11298 0.13658 0.0
N269 N 0.25745 0.18589 0.09545 0.0
H270 H 0.24772 0.18006 0.17592 0.0
H271 H 0.30785 0.07632 0.07037 0.0
C272 C 0.32548 0.97107 0.14858 0.0
O273 O 0.36822 0.9504 0.16451 0.0
N274 N 0.33866 0.04188 0.25055 0.0
C275 C 0.36085 0.06944 0.28777 0.0
C276 C 0.3822 0.03777 0.32283 0.0
C277 C 0.34484 0.99266 0.26577 0.0
N278 N 0.37358 0.98926 0.30867 0.0
C279 C 0.36824 0.16206 0.20454 0.0
C280 C 0.43033 0.14714 0.12086 0.0
C281 C 0.42974 0.19513 0.14453 0.0
C282 C 0.40029 0.20083 0.18863 0.0
C283 C 0.39837 0.108 0.13932 0.0
N284 N 0.36619 0.11652 0.1796 0.0
H285 H 0.34234 0.1707 0.23511 0.0
H286 H 0.397 0.07255 0.1186 0.0
H287 H 0.36093 0.11028 0.29055 0.0
H288 H 0.32803 0.96012 0.24726 0.0
O289 O 0.26902 0.1191 0.23955 0.0
O290 O 0.24118 0.04467 0.21165 0.0
O291 O 0.32551 0.01941 0.14219 0.0
C292 C 0.23274 0.08554 0.23807 0.0
H293 H 0.28558 0.16198 0.02254 0.0
H294 H 0.40215 0.04992 0.35681 0.0
H295 H 0.45286 0.14074 0.08693 0.0
H296 H 0.39973 0.23626 0.20965 0.0
Co297 Co 0.68891 0.55551 0.94241 0.0
C298 C 0.60224 0.50807 0.89057 0.0
C299 C 0.65585 0.53751 0.83679 0.0
C300 C 0.61112 0.52645 0.81164 0.0
N301 N 0.65093 0.52514 0.88655 0.0
N302 N 0.57802 0.50745 0.84542 0.0
H303 H 0.58385 0.49772 0.92589 0.0
H304 H 0.68759 0.55785 0.82034 0.0
C305 C 0.79284 0.57549 0.89857 0.0
O306 O 0.81351 0.61824 0.91448 0.0
N307 N 0.72203 0.58866 1.00053 0.0
C308 C 0.69447 0.61084 0.03775 0.0
C309 C 0.72614 0.63219 0.07282 0.0
C310 C 0.77125 0.59483 0.01575 0.0
N311 N 0.77465 0.62357 0.05865 0.0
C312 C 0.60186 0.61824 0.95453 0.0
C313 C 0.61677 0.68034 0.87085 0.0
C314 C 0.56878 0.67974 0.89452 0.0
C315 C 0.56308 0.6503 0.93862 0.0
C316 C 0.65591 0.64837 0.8893 0.0
N317 N 0.64739 0.61619 0.92958 0.0
H318 H 0.59322 0.59234 0.98509 0.0
H319 H 0.69136 0.647 0.86858 0.0
H320 H 0.65363 0.61092 0.04054 0.0
H321 H 0.80379 0.57803 0.99724 0.0
O322 O 0.64481 0.51902 0.98952 0.0
O323 O 0.71924 0.49118 0.96162 0.0
O324 O 0.7445 0.57551 0.89217 0.0
C325 C 0.67837 0.48274 0.98804 0.0
H326 H 0.60193 0.53558 0.77251 0.0
H327 H 0.71399 0.65213 0.1068 0.0
H328 H 0.62316 0.70287 0.83692 0.0
H329 H 0.52766 0.64973 0.95965 0.0
Co330 Co 0.20839 0.93894 0.69244 0.0
C331 C 0.25584 0.85228 0.64059 0.0
C332 C 0.2264 0.90589 0.58681 0.0
C333 C 0.23745 0.86116 0.56166 0.0
N334 N 0.23876 0.90096 0.63657 0.0
N335 N 0.25646 0.82806 0.59544 0.0
H336 H 0.26618 0.83388 0.67591 0.0
H337 H 0.20605 0.93763 0.57036 0.0
C338 C 0.18842 0.04286 0.64859 0.0
O339 O 0.14569 0.06357 0.66449 0.0
N340 N 0.17525 0.97204 0.75056 0.0
C341 C 0.15307 0.94448 0.78778 0.0
C342 C 0.13173 0.97615 0.82285 0.0
C343 C 0.16907 0.02126 0.76577 0.0
N344 N 0.14034 0.02466 0.80868 0.0
C345 C 0.14568 0.85187 0.70455 0.0
C346 C 0.08357 0.86678 0.62088 0.0
C347 C 0.08417 0.81878 0.64455 0.0
C348 C 0.11363 0.81308 0.68864 0.0
C349 C 0.11553 0.90591 0.63933 0.0
N350 N 0.14772 0.8974 0.67961 0.0
H351 H 0.17158 0.84323 0.73512 0.0
H352 H 0.11689 0.94137 0.61861 0.0
H353 H 0.153 0.90364 0.79057 0.0
H354 H 0.18586 0.0538 0.74726 0.0
O355 O 0.24489 0.89483 0.73954 0.0
O356 O 0.27272 0.96927 0.71164 0.0
O357 O 0.18836 0.99453 0.64221 0.0
C358 C 0.28117 0.92839 0.73806 0.0
H359 H 0.22832 0.85197 0.52253 0.0
H360 H 0.11179 0.96401 0.85683 0.0
H361 H 0.06104 0.87317 0.58696 0.0
H362 H 0.1142 0.77766 0.70967 0.0
Co363 Co 0.82499 0.4584 0.44244 0.0
C364 C 0.91165 0.50585 0.3906 0.0
C365 C 0.85804 0.47641 0.33682 0.0
C366 C 0.90277 0.48746 0.31166 0.0
N367 N 0.86296 0.48877 0.38658 0.0
N368 N 0.93587 0.50646 0.34545 0.0
H369 H 0.93005 0.51619 0.42592 0.0
H370 H 0.8263 0.45606 0.32037 0.0
C371 C 0.72106 0.43843 0.39858 0.0
O372 O 0.70037 0.3957 0.41451 0.0
N373 N 0.79188 0.42526 0.50055 0.0
C374 C 0.81944 0.40307 0.53778 0.0
C375 C 0.78777 0.38173 0.57285 0.0
C376 C 0.74266 0.41908 0.51578 0.0
N377 N 0.73925 0.39035 0.55868 0.0
C378 C 0.91205 0.39569 0.45456 0.0
C379 C 0.89714 0.33358 0.37088 0.0
C380 C 0.94514 0.33418 0.39455 0.0
C381 C 0.95083 0.36363 0.43865 0.0
C382 C 0.85801 0.36554 0.38933 0.0
N383 N 0.86652 0.39773 0.42961 0.0
H384 H 0.92069 0.42159 0.48512 0.0
H385 H 0.82255 0.36691 0.36861 0.0
H386 H 0.86028 0.403 0.54057 0.0
H387 H 0.71012 0.43587 0.49726 0.0
O388 O 0.86909 0.4949 0.48955 0.0
O389 O 0.79466 0.52273 0.46165 0.0
O390 O 0.7694 0.43838 0.3922 0.0
C391 C 0.83553 0.53118 0.48806 0.0
H392 H 0.91196 0.47833 0.27254 0.0
H393 H 0.79991 0.36179 0.60683 0.0
H394 H 0.89075 0.31105 0.33696 0.0
H395 H 0.98626 0.3642 0.45968 0.0
Co396 Co 0.80532 0.43891 0.82147 0.0
C397 C 0.75788 0.35223 0.87331 0.0
C398 C 0.78735 0.40582 0.92708 0.0
C399 C 0.77632 0.36109 0.95223 0.0
N400 N 0.77496 0.40091 0.87733 0.0
N401 N 0.75729 0.328 0.91846 0.0
H402 H 0.74752 0.33384 0.83799 0.0
H403 H 0.80771 0.43756 0.94354 0.0
C404 C 0.82538 0.54283 0.86531 0.0
O405 O 0.86814 0.56338 0.84928 0.0
N406 N 0.83847 0.47204 0.76337 0.0
C407 C 0.86069 0.44448 0.72617 0.0
C408 C 0.88203 0.47615 0.6911 0.0
C409 C 0.84461 0.52125 0.74812 0.0
N410 N 0.87337 0.52466 0.70524 0.0
C411 C 0.86807 0.35187 0.80938 0.0
C412 C 0.93019 0.36683 0.89304 0.0
C413 C 0.9296 0.31883 0.86937 0.0
C414 C 0.90014 0.31311 0.82529 0.0
C415 C 0.89821 0.40595 0.87459 0.0
N416 N 0.86601 0.39741 0.83432 0.0
H417 H 0.84217 0.34322 0.77882 0.0
H418 H 0.89682 0.44141 0.8953 0.0
H419 H 0.86079 0.40364 0.7234 0.0
H420 H 0.82777 0.55379 0.76661 0.0
O421 O 0.76886 0.39479 0.77435 0.0
O422 O 0.74099 0.46921 0.80225 0.0
O423 O 0.82523 0.4945 0.87175 0.0
C424 C 0.73257 0.42834 0.77583 0.0
H425 H 0.78547 0.35189 0.99136 0.0
H426 H 0.902 0.46399 0.65714 0.0
H427 H 0.95272 0.37323 0.92696 0.0
H428 H 0.89959 0.27768 0.80427 0.0
Co429 Co 0.32502 0.0553 0.57146 0.0
C430 C 0.4117 1.00786 0.62329 0.0
C431 C 0.35811 0.03733 0.67707 0.0
C432 C 0.40285 0.02631 0.70222 0.0
N433 N 0.36302 0.02493 0.62731 0.0
N434 N 0.43594 1.00727 0.66844 0.0
H435 H 0.43009 0.99749 0.58797 0.0
H436 H 0.32638 0.05769 0.69352 0.0
C437 C 0.22111 0.07537 0.61531 0.0
O438 O 0.20058 0.11812 0.59924 0.0
N439 N 0.29189 0.08845 0.51337 0.0
C440 C 0.31944 0.11068 0.47617 0.0
C441 C 0.28778 0.13203 0.4411 0.0
C442 C 0.24267 0.09459 0.49812 0.0
N443 N 0.23926 0.12336 0.45524 0.0
C444 C 0.41205 0.11805 0.55938 0.0
C445 C 0.39709 0.18017 0.64304 0.0
C446 C 0.4451 0.17958 0.61937 0.0
C447 C 0.45081 0.15013 0.57529 0.0
C448 C 0.35797 0.14818 0.62459 0.0
N449 N 0.36652 0.11599 0.58432 0.0
H450 H 0.42071 0.09215 0.52882 0.0
H451 H 0.32251 0.1468 0.6453 0.0
H452 H 0.36028 0.1108 0.4734 0.0
H453 H 0.21013 0.07774 0.51659 0.0
O454 O 0.36913 0.01885 0.52433 0.0
O455 O 0.29472 0.99097 0.55224 0.0
O456 O 0.26943 0.07518 0.62175 0.0
C457 C 0.33559 0.98255 0.52581 0.0
H458 H 0.41205 0.03546 0.74133 0.0
H459 H 0.29993 0.15201 0.40715 0.0
H460 H 0.39069 0.2027 0.67696 0.0
H461 H 0.48624 0.14958 0.55426 0.0
Co462 Co 0.7086 0.575 0.32145 0.0
C463 C 0.75605 0.66168 0.37328 0.0
C464 C 0.72657 0.60808 0.42705 0.0
C465 C 0.7376 0.65282 0.45221 0.0
N466 N 0.73897 0.61299 0.3773 0.0
N467 N 0.75663 0.68591 0.41843 0.0
H468 H 0.76641 0.68006 0.33796 0.0
H469 H 0.70621 0.57635 0.44351 0.0
C470 C 0.68854 0.47109 0.36529 0.0
O471 O 0.6458 0.45053 0.34924 0.0
N472 N 0.67545 0.54187 0.26335 0.0
C473 C 0.65323 0.56943 0.22615 0.0
C474 C 0.63188 0.53776 0.19108 0.0
C475 C 0.66931 0.49266 0.24809 0.0
N476 N 0.64054 0.48925 0.20522 0.0
C477 C 0.64586 0.66204 0.30936 0.0
C478 C 0.58374 0.64708 0.39301 0.0
C479 C 0.58433 0.69509 0.36934 0.0
C480 C 0.61379 0.7008 0.32526 0.0
C481 C 0.61572 0.60796 0.37456 0.0
N482 N 0.64791 0.6165 0.3343 0.0
H483 H 0.67176 0.6707 0.2788 0.0
H484 H 0.6171 0.5725 0.39527 0.0
H485 H 0.65312 0.61027 0.22338 0.0
H486 H 0.68615 0.46012 0.26657 0.0
O487 O 0.74506 0.61911 0.27432 0.0
O488 O 0.77293 0.5447 0.30223 0.0
O489 O 0.6887 0.51941 0.37173 0.0
C490 C 0.78136 0.58556 0.2758 0.0
H491 H 0.72844 0.66202 0.49133 0.0
H492 H 0.61191 0.54992 0.15712 0.0
H493 H 0.5612 0.64068 0.42693 0.0
H494 H 0.61435 0.73623 0.30424 0.0
Co495 Co 0.18891 0.9586 0.07146 0.0
C496 C 0.10224 1.00604 0.1233 0.0
C497 C 0.15583 0.97656 0.17707 0.0
C498 C 0.1111 0.98759 0.20222 0.0
N499 N 0.15092 0.98896 0.12732 0.0
N500 N 0.07801 1.00662 0.16845 0.0
H501 H 0.08385 0.0164 0.08798 0.0
H502 H 0.18757 0.9562 0.19352 0.0
C503 C 0.29283 0.93853 0.1153 0.0
O504 O 0.31339 0.89579 0.09927 0.0
N505 N 0.22204 0.92546 0.01336 0.0
C506 C 0.19448 0.90324 0.97615 0.0
C507 C 0.22615 0.8819 0.94108 0.0
C508 C 0.27126 0.91932 0.99811 0.0
N509 N 0.27466 0.89056 0.95523 0.0
C510 C 0.10187 0.89586 0.05936 0.0
C511 C 0.11682 0.83373 0.14301 0.0
C512 C 0.06882 0.83432 0.11934 0.0
C513 C 0.06311 0.86378 0.07526 0.0
C514 C 0.15595 0.86571 0.12457 0.0
N515 N 0.14741 0.89791 0.0843 0.0
H516 H 0.09322 0.92176 0.0288 0.0
H517 H 0.19141 0.86709 0.14528 0.0
H518 H 0.15364 0.90314 0.97338 0.0
H519 H 0.3038 0.93615 0.0166 0.0
O520 O 0.1448 0.99506 0.02434 0.0
O521 O 0.21922 0.02293 0.05225 0.0
O522 O 0.2445 0.93869 0.12174 0.0
C523 C 0.17835 0.03136 0.02582 0.0
H524 H 0.1019 0.97844 0.24135 0.0
H525 H 0.214 0.86194 0.90712 0.0
H526 H 0.12322 0.8112 0.17693 0.0
H527 H 0.02768 0.86434 0.05424 0.0
Co528 Co 0.1924 0.30542 0.07502 0.0
C529 C 0.14059 0.25796 0.16171 0.0
C530 C 0.0868 0.28744 0.10813 0.0
C531 C 0.06165 0.2764 0.15286 0.0
N532 N 0.13656 0.27505 0.11303 0.0
N533 N 0.09543 0.25734 0.18593 0.0
H534 H 0.17591 0.2476 0.18009 0.0
H535 H 0.07034 0.30781 0.07641 0.0
C536 C 0.14856 0.32544 0.97111 0.0
O537 O 0.16468 0.36817 0.95057 0.0
N538 N 0.2505 0.33858 0.04187 0.0
C539 C 0.28769 0.36083 0.06943 0.0
C540 C 0.32279 0.38212 0.03776 0.0
C541 C 0.26578 0.34465 0.99266 0.0
N542 N 0.30869 0.37339 0.98924 0.0
C543 C 0.20448 0.36821 0.16203 0.0
C544 C 0.12077 0.43027 0.14711 0.0
C545 C 0.14447 0.42972 0.1951 0.0
C546 C 0.18858 0.40029 0.20079 0.0
C547 C 0.13923 0.39829 0.10799 0.0
N548 N 0.17952 0.36613 0.11651 0.0
H549 H 0.23506 0.34232 0.17069 0.0
H550 H 0.1185 0.39688 0.07254 0.0
H551 H 0.29044 0.36098 0.11026 0.0
H552 H 0.24732 0.32778 0.96013 0.0
O553 O 0.23954 0.26899 0.11914 0.0
O554 O 0.21163 0.2411 0.04474 0.0
O555 O 0.14211 0.32527 0.01943 0.0
C556 C 0.23807 0.23269 0.08561 0.0
H557 H 0.02253 0.28555 0.16207 0.0
H558 H 0.35675 0.40209 0.04991 0.0
H559 H 0.08683 0.45278 0.14072 0.0
H560 H 0.20964 0.39976 0.2362 0.0
Co561 Co 0.69232 0.20843 0.93889 0.0
C562 C 0.64045 0.25589 0.85223 0.0
C563 C 0.58669 0.2264 0.90582 0.0
C564 C 0.56152 0.23747 0.8611 0.0
N565 N 0.63644 0.23878 0.9009 0.0
N566 N 0.59529 0.25653 0.82802 0.0
H567 H 0.67577 0.26623 0.83383 0.0
H568 H 0.57024 0.20603 0.93755 0.0
C569 C 0.64855 0.18842 0.04282 0.0
O570 O 0.66452 0.14568 0.06345 0.0
N571 N 0.75045 0.17531 0.97201 0.0
C572 C 0.78767 0.15313 0.94446 0.0
C573 C 0.82278 0.13185 0.97613 0.0
C574 C 0.76571 0.16922 0.02123 0.0
N575 N 0.80865 0.14053 0.02464 0.0
C576 C 0.70445 0.14567 0.85187 0.0
C577 C 0.62077 0.08357 0.86677 0.0
C578 C 0.64448 0.08414 0.81878 0.0
C579 C 0.68857 0.11359 0.8131 0.0
C580 C 0.6392 0.11556 0.9059 0.0
N581 N 0.67948 0.14774 0.89739 0.0
H582 H 0.73502 0.17157 0.84322 0.0
H583 H 0.61846 0.11695 0.94134 0.0
H584 H 0.79044 0.153 0.90362 0.0
H585 H 0.74721 0.18604 0.05376 0.0
O586 O 0.73942 0.2449 0.89476 0.0
O587 O 0.71152 0.27277 0.96918 0.0
O588 O 0.64208 0.18849 0.9945 0.0
C589 C 0.73793 0.28119 0.9283 0.0
H590 H 0.52239 0.22834 0.85191 0.0
H591 H 0.85676 0.11192 0.96398 0.0
H592 H 0.58684 0.06104 0.87314 0.0
H593 H 0.70962 0.11414 0.77769 0.0
Co594 Co 0.55549 0.94229 0.68888 0.0
C595 C 0.50803 0.89043 0.60221 0.0
C596 C 0.53751 0.83666 0.65581 0.0
C597 C 0.52643 0.8115 0.61108 0.0
N598 N 0.52513 0.88642 0.65089 0.0
N599 N 0.50738 0.84527 0.578 0.0
H600 H 0.49769 0.92575 0.58381 0.0
H601 H 0.55787 0.82021 0.68754 0.0
C602 C 0.57551 0.89852 0.79282 0.0
O603 O 0.61826 0.91448 0.81343 0.0
N604 N 0.58862 1.00041 0.72201 0.0
C605 C 0.61081 0.03764 0.69446 0.0
C606 C 0.63211 0.07273 0.72613 0.0
C607 C 0.59473 0.01567 0.77123 0.0
N608 N 0.62345 0.05859 0.77464 0.0
C609 C 0.61826 0.95442 0.60187 0.0
C610 C 0.68034 0.87072 0.61677 0.0
C611 C 0.67978 0.89444 0.56879 0.0
C612 C 0.65034 0.93854 0.56311 0.0
C613 C 0.64836 0.88916 0.6559 0.0
N614 N 0.61619 0.92945 0.64739 0.0
H615 H 0.59237 0.98499 0.59322 0.0
H616 H 0.64695 0.86841 0.69134 0.0
H617 H 0.61092 0.04041 0.65362 0.0
H618 H 0.57791 0.99718 0.80376 0.0
O619 O 0.51904 0.98939 0.64475 0.0
O620 O 0.49116 0.9615 0.71916 0.0
O621 O 0.57541 0.89205 0.74449 0.0
C622 C 0.48274 0.98791 0.67829 0.0
H623 H 0.53556 0.77237 0.60189 0.0
H624 H 0.65205 0.10671 0.71398 0.0
H625 H 0.70286 0.83679 0.62314 0.0
H626 H 0.64981 0.9596 0.5277 0.0
Co627 Co 0.82162 0.80546 0.43888 0.0
C628 C 0.87348 0.75801 0.3522 0.0
C629 C 0.92725 0.78749 0.4058 0.0
C630 C 0.95241 0.77642 0.36107 0.0
N631 N 0.87749 0.77511 0.40088 0.0
N632 N 0.91864 0.75736 0.32799 0.0
H633 H 0.83815 0.74766 0.3338 0.0
H634 H 0.9437 0.80785 0.43753 0.0
C635 C 0.8654 0.82549 0.54281 0.0
O636 O 0.84943 0.86825 0.5634 0.0
N637 N 0.7635 0.83858 0.47201 0.0
C638 C 0.72628 0.86078 0.44446 0.0
C639 C 0.69119 0.88208 0.47613 0.0
C640 C 0.74824 0.84469 0.52123 0.0
N641 N 0.70533 0.87341 0.52464 0.0
C642 C 0.80949 0.86823 0.35187 0.0
C643 C 0.89319 0.93032 0.36677 0.0
C644 C 0.86947 0.92976 0.31879 0.0
C645 C 0.82537 0.90032 0.31311 0.0
C646 C 0.87476 0.89833 0.4059 0.0
N647 N 0.83446 0.86616 0.39739 0.0
H648 H 0.77892 0.84234 0.34322 0.0
H649 H 0.8955 0.89693 0.44134 0.0
H650 H 0.7235 0.8609 0.40362 0.0
H651 H 0.76673 0.82786 0.55376 0.0
O652 O 0.77451 0.76901 0.39474 0.0
O653 O 0.80242 0.74112 0.46916 0.0
O654 O 0.87187 0.82537 0.49449 0.0
C655 C 0.776 0.73271 0.42828 0.0
H656 H 0.99154 0.78555 0.35188 0.0
H657 H 0.65721 0.90202 0.46398 0.0
H658 H 0.92712 0.95284 0.37315 0.0
H659 H 0.80431 0.89979 0.2777 0.0
Co660 Co 0.95845 0.07161 0.18889 0.0
C661 C 1.00591 0.12347 0.10223 0.0
C662 C 0.97643 0.17724 0.15582 0.0
C663 C 0.9875 0.2024 0.1111 0.0
N664 N 0.98881 0.12748 0.1509 0.0
N665 N 1.00656 0.16863 0.07802 0.0
H666 H 0.01625 0.08815 0.08383 0.0
H667 H 0.95607 0.19369 0.18756 0.0
C668 C 0.93843 0.11538 0.29283 0.0
O669 O 0.89568 0.09941 0.31343 0.0
N670 N 0.92533 0.01349 0.22202 0.0
C671 C 0.90312 0.97627 0.19446 0.0
C672 C 0.88182 0.94118 0.22613 0.0
C673 C 0.91922 0.99822 0.27123 0.0
N674 N 0.89049 0.95531 0.27464 0.0
C675 C 0.89569 0.05949 0.10187 0.0
C676 C 0.83361 0.14319 0.11678 0.0
C677 C 0.83418 0.11948 0.06879 0.0
C678 C 0.86361 0.07538 0.06311 0.0
C679 C 0.86559 0.12475 0.15591 0.0
N680 N 0.89776 0.08446 0.14739 0.0
H681 H 0.92158 0.02892 0.09323 0.0
H682 H 0.86699 0.14548 0.19135 0.0
H683 H 0.903 0.9735 0.15363 0.0
H684 H 0.93605 0.01671 0.30377 0.0
O685 O 0.99491 0.0245 0.14476 0.0
O686 O 0.02279 0.0524 0.21918 0.0
O687 O 0.93853 0.12186 0.2445 0.0
C688 C 0.0312 0.02598 0.1783 0.0
H689 H 0.97837 0.24153 0.10191 0.0
H690 H 0.86188 0.9072 0.21398 0.0
H691 H 0.81109 0.17712 0.12315 0.0
H692 H 0.86415 0.05433 0.02769 0.0
Co693 Co 0.3215 0.70852 0.57501 0.0
C694 C 0.37332 0.75598 0.66169 0.0
C695 C 0.4271 0.72649 0.60811 0.0
C696 C 0.45225 0.73754 0.65284 0.0
N697 N 0.37734 0.73889 0.61301 0.0
N698 N 0.41847 0.7566 0.68591 0.0
H699 H 0.338 0.76634 0.68008 0.0
H700 H 0.44356 0.70612 0.57639 0.0
C701 C 0.36534 0.68849 0.4711 0.0
O702 O 0.34921 0.64576 0.45057 0.0
N703 N 0.2634 0.67536 0.54187 0.0
C704 C 0.22621 0.65311 0.56942 0.0
C705 C 0.19111 0.63183 0.53775 0.0
C706 C 0.24811 0.66929 0.49265 0.0
N707 N 0.2052 0.64055 0.48924 0.0
C708 C 0.30942 0.64574 0.66203 0.0
C709 C 0.39311 0.58366 0.6471 0.0
C710 C 0.36942 0.58422 0.69509 0.0
C711 C 0.32531 0.61366 0.70079 0.0
C712 C 0.37466 0.61565 0.60798 0.0
N713 N 0.33437 0.64782 0.6165 0.0
H714 H 0.27885 0.67163 0.67068 0.0
H715 H 0.39539 0.61705 0.57253 0.0
H716 H 0.22346 0.65296 0.61026 0.0
H717 H 0.26658 0.68616 0.46012 0.0
O718 O 0.27436 0.74495 0.61913 0.0
O719 O 0.30227 0.77284 0.54473 0.0
O720 O 0.37179 0.68866 0.51942 0.0
C721 C 0.27583 0.78126 0.58559 0.0
H722 H 0.49137 0.72838 0.66205 0.0
H723 H 0.15715 0.61185 0.54991 0.0
H724 H 0.42705 0.56115 0.64071 0.0
H725 H 0.30426 0.61419 0.7362 0.0
Co726 Co 0.0554 0.57152 0.32501 0.0
C727 C 1.00793 0.62333 0.4117 0.0
C728 C 0.03742 0.67712 0.35812 0.0
C729 C 0.02637 0.70227 0.40285 0.0
N730 N 0.02502 0.62736 0.36302 0.0
N731 N 1.00731 0.66849 0.43592 0.0
H732 H 0.99758 0.58801 0.43008 0.0
H733 H 0.05779 0.69358 0.3264 0.0
C734 C 0.07543 0.61536 0.2211 0.0
O735 O 0.11817 0.59925 0.20058 0.0
N736 N 0.08857 0.51343 0.29187 0.0
C737 C 0.11083 0.47625 0.31942 0.0
C738 C 0.13214 0.44116 0.28775 0.0
C739 C 0.09466 0.49815 0.24265 0.0
N740 N 0.12343 0.45527 0.23924 0.0
C741 C 0.11819 0.55946 0.41203 0.0
C742 C 0.18023 0.64318 0.3971 0.0
C743 C 0.17967 0.61949 0.44509 0.0
C744 C 0.15026 0.57537 0.45079 0.0
C745 C 0.14826 0.62471 0.35797 0.0
N746 N 0.1161 0.58441 0.3665 0.0
H747 H 0.09231 0.52888 0.42068 0.0
H748 H 0.14685 0.64544 0.32252 0.0
H749 H 0.11097 0.47349 0.36026 0.0
H750 H 0.07778 0.5166 0.21012 0.0
O751 O 0.01898 0.52437 0.36913 0.0
O752 O 0.99108 0.55228 0.29473 0.0
O753 O 0.07524 0.62182 0.26942 0.0
C754 C 0.98267 0.52584 0.3356 0.0
H755 H 0.03553 0.74139 0.41206 0.0
H756 H 0.15212 0.40721 0.29991 0.0
H757 H 0.20273 0.67712 0.39071 0.0
H758 H 0.14973 0.55432 0.4862 0.0
Co759 Co 0.45848 0.4424 0.825 0.0
C760 C 0.50595 0.39058 0.91167 0.0
C761 C 0.47647 0.3368 0.85809 0.0
C762 C 0.48752 0.31165 0.90282 0.0
N763 N 0.48886 0.38656 0.86299 0.0
N764 N 0.50658 0.34543 0.93589 0.0
H765 H 0.5163 0.42591 0.93006 0.0
H766 H 0.4561 0.32034 0.82637 0.0
C767 C 0.43847 0.39856 0.72108 0.0
O768 O 0.39574 0.41465 0.70051 0.0
N769 N 0.42531 0.5005 0.79186 0.0
C770 C 0.40307 0.53769 0.81942 0.0
C771 C 0.38176 0.57278 0.78775 0.0
C772 C 0.41921 0.51578 0.74264 0.0
N773 N 0.39045 0.55867 0.73924 0.0
C774 C 0.39571 0.45448 0.91202 0.0
C775 C 0.33366 0.37076 0.89711 0.0
C776 C 0.33422 0.39445 0.9451 0.0
C777 C 0.36364 0.43856 0.95079 0.0
C778 C 0.36562 0.38922 0.85798 0.0
N779 N 0.39778 0.42952 0.86649 0.0
H780 H 0.42159 0.48505 0.92067 0.0
H781 H 0.36702 0.3685 0.82252 0.0
H782 H 0.40294 0.54044 0.86025 0.0
H783 H 0.43608 0.49732 0.71011 0.0
O784 O 0.49492 0.48954 0.86912 0.0
O785 O 0.5228 0.46164 0.79471 0.0
O786 O 0.43861 0.39212 0.7694 0.0
C787 C 0.53121 0.48807 0.83557 0.0
H788 H 0.47837 0.27253 0.91202 0.0
H789 H 0.36179 0.60674 0.79991 0.0
H790 H 0.31115 0.33682 0.89072 0.0
H791 H 0.36418 0.45961 0.9862 0.0
loop_
_geom_bond_atom_site_label_1
_geom_bond_atom_site_label_2
_geom_bond_distance
_geom_bond_site_symmetry_2
_ccdc_geom_bond_type
Co0 N4 2.148 . S
Co0 N10 2.128 . S
Co0 N20 2.194 . S
Co0 O25 2.351 . S
Co0 O26 2.155 . S
Co0 O27 2.096 1_455 S
C1 N4 1.301 . S
C1 N5 1.328 . S
C1 H6 0.930 . S
C2 C3 1.333 . S
C2 N4 1.317 . S
C2 H7 0.930 . S
C3 C2 1.333 . S
C3 N5 1.350 . S
C3 H29 0.931 . S
N4 Co0 2.148 . S
N4 C1 1.301 . S
N4 C2 1.317 . S
N5 C1 1.328 . S
N5 C3 1.350 . S
H6 C1 0.930 . S
H7 C2 0.930 . S
C8 O9 1.231 . S
C8 O27 1.247 . S
O9 C8 1.231 . S
N10 Co0 2.128 . S
N10 C11 1.355 . S
N10 C13 1.311 1_455 S
C11 N10 1.355 . S
C11 C12 1.363 1_455 S
C11 H23 0.929 . S
C12 C11 1.363 1_655 S
C12 N14 1.375 . S
C12 H30 0.931 . S
C13 N10 1.311 1_655 S
C13 N14 1.347 . S
C13 H24 0.929 . S
N14 C12 1.375 . S
N14 C13 1.347 . S
C15 C18 1.365 . S
C15 N20 1.328 . S
C15 H21 0.929 . S
C16 C17 1.362 . S
C16 C19 1.378 . S
C16 H31 0.929 . S
C17 C16 1.362 . S
C17 C18 1.366 . S
C18 C15 1.365 . S
C18 C17 1.366 . S
C18 H32 0.930 . S
C19 C16 1.378 . S
C19 N20 1.315 . S
C19 H22 0.930 . S
N20 Co0 2.194 . S
N20 C15 1.328 . S
N20 C19 1.315 . S
H21 C15 0.929 . S
H22 C19 0.930 . S
H23 C11 0.929 . S
H24 C13 0.929 . S
O25 Co0 2.351 . S
O25 C28 1.244 . S
O26 Co0 2.155 . S
O26 C28 1.240 . S
O27 Co0 2.096 1_655 S
O27 C8 1.247 . S
C28 O25 1.244 . S
C28 O26 1.240 . S
H29 C3 0.931 . S
H30 C12 0.931 . S
H31 C16 0.929 . S
H32 C18 0.930 . S
Co33 N37 2.148 . S
Co33 N43 2.128 . S
Co33 N53 2.194 . S
Co33 O58 2.351 . S
Co33 O59 2.155 1_554 S
Co33 O60 2.096 . S
C34 N37 1.301 . S
C34 N38 1.328 1_554 S
C34 H39 0.930 . S
C35 C36 1.333 . S
C35 N37 1.317 1_556 S
C35 H40 0.930 . S
C36 C35 1.333 . S
C36 N38 1.350 . S
C36 H62 0.931 . S
N37 Co33 2.148 . S
N37 C34 1.301 . S
N37 C35 1.317 1_554 S
N38 C34 1.328 1_556 S
N38 C36 1.350 . S
H39 C34 0.930 . S
H40 C35 0.930 . S
C41 O42 1.224 . S
C41 O60 1.247 . S
O42 C41 1.224 . S
N43 Co33 2.128 . S
N43 C44 1.355 . S
N43 C46 1.311 . S
C44 N43 1.355 . S
C44 C45 1.363 . S
C44 H56 0.929 . S
C45 C44 1.363 . S
C45 N47 1.375 . S
C45 H63 0.931 . S
C46 N43 1.311 . S
C46 N47 1.347 . S
C46 H57 0.929 . S
N47 C45 1.375 . S
N47 C46 1.347 . S
C48 C51 1.365 . S
C48 N53 1.328 . S
C48 H54 0.929 . S
C49 C50 1.362 . S
C49 C52 1.378 . S
C49 H64 0.929 . S
C50 C49 1.362 . S
C50 C51 1.366 . S
C51 C48 1.365 . S
C51 C50 1.366 . S
C51 H65 0.930 . S
C52 C49 1.378 . S
C52 N53 1.315 . S
C52 H55 0.930 . S
N53 Co33 2.194 . S
N53 C48 1.328 . S
N53 C52 1.315 . S
H54 C48 0.929 . S
H55 C52 0.930 . S
H56 C44 0.929 . S
H57 C46 0.929 . S
O58 Co33 2.351 . S
O58 C61 1.246 . S
O59 Co33 2.155 1_556 S
O59 C61 1.239 1_556 S
O60 Co33 2.096 . S
O60 C41 1.247 . S
C61 O58 1.246 . S
C61 O59 1.239 1_554 S
H62 C36 0.931 . S
H63 C45 0.931 . S
H64 C49 0.929 . S
H65 C51 0.930 . S
Co66 N70 2.148 . S
Co66 N76 2.128 . S
Co66 N86 2.194 . S
Co66 O91 2.351 . S
Co66 O92 2.155 . S
Co66 O93 2.096 . S
C67 N70 1.301 . S
C67 N71 1.328 . S
C67 H72 0.930 . S
C68 C69 1.333 . S
C68 N70 1.317 . S
C68 H73 0.930 . S
C69 C68 1.333 . S
C69 N71 1.350 . S
C69 H95 0.931 . S
N70 Co66 2.148 . S
N70 C67 1.301 . S
N70 C68 1.317 . S
N71 C67 1.328 . S
N71 C69 1.350 . S
H72 C67 0.930 . S
H73 C68 0.930 . S
C74 O75 1.224 . S
C74 O93 1.247 . S
O75 C74 1.224 . S
N76 Co66 2.128 . S
N76 C77 1.355 . S
N76 C79 1.311 . S
C77 N76 1.355 . S
C77 C78 1.363 . S
C77 H89 0.929 . S
C78 C77 1.363 . S
C78 N80 1.375 . S
C78 H96 0.931 . S
C79 N76 1.311 . S
C79 N80 1.347 . S
C79 H90 0.929 . S
N80 C78 1.375 . S
N80 C79 1.347 . S
C81 C84 1.365 . S
C81 N86 1.328 . S
C81 H87 0.929 . S
C82 C83 1.362 . S
C82 C85 1.378 . S
C82 H97 0.929 . S
C83 C82 1.362 . S
C83 C84 1.366 . S
C84 C81 1.365 . S
C84 C83 1.366 . S
C84 H98 0.930 . S
C85 C82 1.378 . S
C85 N86 1.315 . S
C85 H88 0.930 . S
N86 Co66 2.194 . S
N86 C81 1.328 . S
N86 C85 1.315 . S
H87 C81 0.929 . S
H88 C85 0.930 . S
H89 C77 0.929 . S
H90 C79 0.929 . S
O91 Co66 2.351 . S
O91 C94 1.244 . S
O92 Co66 2.155 . S
O92 C94 1.240 . S
O93 Co66 2.096 . S
O93 C74 1.247 . S
C94 O91 1.244 . S
C94 O92 1.240 . S
H95 C69 0.931 . S
H96 C78 0.931 . S
H97 C82 0.929 . S
H98 C84 0.930 . S
Co99 N103 2.148 . S
Co99 N109 2.128 . S
Co99 N119 2.194 . S
Co99 O124 2.351 . S
Co99 O125 2.155 . S
Co99 O126 2.096 . S
C100 N103 1.301 . S
C100 N104 1.328 . S
C100 H105 0.930 . S
C101 C102 1.333 . S
C101 N103 1.317 . S
C101 H106 0.930 . S
C102 C101 1.333 . S
C102 N104 1.350 . S
C102 H128 0.931 . S
N103 Co99 2.148 . S
N103 C100 1.301 . S
N103 C101 1.317 . S
N104 C100 1.328 . S
N104 C102 1.350 . S
H105 C100 0.930 . S
H106 C101 0.930 . S
C107 O108 1.224 . S
C107 O126 1.247 . S
O108 C107 1.224 . S
N109 Co99 2.128 . S
N109 C110 1.355 1_655 S
N109 C112 1.311 . S
C110 N109 1.355 1_455 S
C110 C111 1.363 . S
C110 H122 0.929 . S
C111 C110 1.363 . S
C111 N113 1.375 . S
C111 H129 0.931 . S
C112 N109 1.311 . S
C112 N113 1.347 1_655 S
C112 H123 0.929 . S
N113 C111 1.375 . S
N113 C112 1.347 1_455 S
C114 C117 1.365 . S
C114 N119 1.328 . S
C114 H120 0.929 . S
C115 C116 1.362 . S
C115 C118 1.378 . S
C115 H130 0.929 . S
C116 C115 1.362 . S
C116 C117 1.366 . S
C117 C114 1.365 . S
C117 C116 1.366 . S
C117 H131 0.930 . S
C118 C115 1.378 . S
C118 N119 1.315 . S
C118 H121 0.930 . S
N119 Co99 2.194 . S
N119 C114 1.328 . S
N119 C118 1.315 . S
H120 C114 0.929 . S
H121 C118 0.930 . S
H122 C110 0.929 . S
H123 C112 0.929 . S
O124 Co99 2.351 . S
O124 C127 1.244 . S
O125 Co99 2.155 . S
O125 C127 1.240 . S
O126 Co99 2.096 . S
O126 C107 1.247 . S
C127 O124 1.244 . S
C127 O125 1.240 . S
H128 C102 0.931 . S
H129 C111 0.931 . S
H130 C115 0.929 . S
H131 C117 0.930 . S
Co132 N136 2.148 . S
Co132 N142 2.128 . S
Co132 N152 2.194 . S
Co132 O157 2.351 . S
Co132 O158 2.155 . S
Co132 O159 2.096 . S
C133 N136 1.301 . S
C133 N137 1.328 . S
C133 H138 0.930 . S
C134 C135 1.333 . S
C134 N136 1.317 . S
C134 H139 0.930 . S
C135 C134 1.333 . S
C135 N137 1.350 . S
C135 H161 0.931 . S
N136 Co132 2.148 . S
N136 C133 1.301 . S
N136 C134 1.317 . S
N137 C133 1.328 . S
N137 C135 1.350 . S
H138 C133 0.930 . S
H139 C134 0.930 . S
C140 O141 1.224 . S
C140 O159 1.247 . S
O141 C140 1.224 . S
N142 Co132 2.128 . S
N142 C143 1.355 . S
N142 C145 1.311 . S
C143 N142 1.355 . S
C143 C144 1.363 . S
C143 H155 0.929 . S
C144 C143 1.363 . S
C144 N146 1.375 . S
C144 H162 0.931 . S
C145 N142 1.311 . S
C145 N146 1.347 . S
C145 H156 0.929 . S
N146 C144 1.375 . S
N146 C145 1.347 . S
C147 C150 1.365 . S
C147 N152 1.328 . S
C147 H153 0.929 . S
C148 C149 1.362 . S
C148 C151 1.378 . S
C148 H163 0.929 . S
C149 C148 1.362 . S
C149 C150 1.366 . S
C150 C147 1.365 . S
C150 C149 1.366 . S
C150 H164 0.930 . S
C151 C148 1.378 . S
C151 N152 1.315 . S
C151 H154 0.930 . S
N152 Co132 2.194 . S
N152 C147 1.328 . S
N152 C151 1.315 . S
H153 C147 0.929 . S
H154 C151 0.930 . S
H155 C143 0.929 . S
H156 C145 0.929 . S
O157 Co132 2.351 . S
O157 C160 1.244 . S
O158 Co132 2.155 . S
O158 C160 1.240 . S
O159 Co132 2.096 . S
O159 C140 1.247 . S
C160 O157 1.244 . S
C160 O158 1.240 . S
H161 C135 0.931 . S
H162 C144 0.931 . S
H163 C148 0.929 . S
H164 C150 0.930 . S
Co165 N169 2.148 . S
Co165 N175 2.128 . S
Co165 N185 2.194 . S
Co165 O190 2.351 . S
Co165 O191 2.155 . S
Co165 O192 2.096 . S
C166 N169 1.301 . S
C166 N170 1.328 . S
C166 H171 0.930 . S
C167 C168 1.333 . S
C167 N169 1.317 . S
C167 H172 0.930 . S
C168 C167 1.333 . S
C168 N170 1.350 . S
C168 H194 0.931 . S
N169 Co165 2.148 . S
N169 C166 1.301 . S
N169 C167 1.317 . S
N170 C166 1.328 . S
N170 C168 1.350 . S
H171 C166 0.930 . S
H172 C167 0.930 . S
C173 O174 1.224 . S
C173 O192 1.247 . S
O174 C173 1.224 . S
N175 Co165 2.128 . S
N175 C176 1.355 . S
N175 C178 1.311 . S
C176 N175 1.355 . S
C176 C177 1.363 . S
C176 H188 0.929 . S
C177 C176 1.363 . S
C177 N179 1.375 . S
C177 H195 0.931 . S
C178 N175 1.311 . S
C178 N179 1.347 . S
C178 H189 0.929 . S
N179 C177 1.375 . S
N179 C178 1.347 . S
C180 C183 1.365 . S
C180 N185 1.328 . S
C180 H186 0.929 . S
C181 C182 1.362 . S
C181 C184 1.378 . S
C181 H196 0.929 . S
C182 C181 1.362 . S
C182 C183 1.366 . S
C183 C180 1.365 . S
C183 C182 1.366 . S
C183 H197 0.930 . S
C184 C181 1.378 . S
C184 N185 1.315 . S
C184 H187 0.930 . S
N185 Co165 2.194 . S
N185 C180 1.328 . S
N185 C184 1.315 . S
H186 C180 0.929 . S
H187 C184 0.930 . S
H188 C176 0.929 . S
H189 C178 0.929 . S
O190 Co165 2.351 . S
O190 C193 1.244 . S
O191 Co165 2.155 . S
O191 C193 1.240 . S
O192 Co165 2.096 . S
O192 C173 1.247 . S
C193 O190 1.244 . S
C193 O191 1.240 . S
H194 C168 0.931 . S
H195 C177 0.931 . S
H196 C181 0.929 . S
H197 C183 0.930 . S
Co198 N202 2.148 . S
Co198 N208 2.128 . S
Co198 N218 2.194 . S
Co198 O223 2.351 . S
Co198 O224 2.155 . S
Co198 O225 2.096 . S
C199 N202 1.301 . S
C199 N203 1.328 . S
C199 H204 0.930 . S
C200 C201 1.333 . S
C200 N202 1.317 . S
C200 H205 0.930 . S
C201 C200 1.333 . S
C201 N203 1.350 . S
C201 H227 0.931 . S
N202 Co198 2.148 . S
N202 C199 1.301 . S
N202 C200 1.317 . S
N203 C199 1.328 . S
N203 C201 1.350 . S
H204 C199 0.930 . S
H205 C200 0.930 . S
C206 O207 1.224 1_455 S
C206 O225 1.247 1_455 S
O207 C206 1.224 1_655 S
N208 Co198 2.128 . S
N208 C209 1.355 . S
N208 C211 1.311 1_655 S
C209 N208 1.355 . S
C209 C210 1.366 . S
C209 H221 0.929 . S
C210 C209 1.366 . S
C210 N212 1.371 1_655 S
C210 H228 0.931 . S
C211 N208 1.311 1_455 S
C211 N212 1.347 . S
C211 H222 0.929 . S
N212 C210 1.371 1_455 S
N212 C211 1.347 . S
C213 C216 1.365 . S
C213 N218 1.328 . S
C213 H219 0.929 . S
C214 C215 1.362 . S
C214 C217 1.378 . S
C214 H229 0.929 . S
C215 C214 1.362 . S
C215 C216 1.366 . S
C216 C213 1.365 . S
C216 C215 1.366 . S
C216 H230 0.930 . S
C217 C214 1.378 . S
C217 N218 1.315 . S
C217 H220 0.930 . S
N218 Co198 2.194 . S
N218 C213 1.328 . S
N218 C217 1.315 . S
H219 C213 0.929 . S
H220 C217 0.930 . S
H221 C209 0.929 . S
H222 C211 0.929 . S
O223 Co198 2.351 . S
O223 C226 1.244 . S
O224 Co198 2.155 . S
O224 C226 1.240 . S
O225 Co198 2.096 . S
O225 C206 1.247 1_655 S
C226 O223 1.244 . S
C226 O224 1.240 . S
H227 C201 0.931 . S
H228 C210 0.931 . S
H229 C214 0.929 . S
H230 C216 0.930 . S
Co231 N235 2.148 . S
Co231 N241 2.128 . S
Co231 N251 2.194 . S
Co231 O256 2.351 . S
Co231 O257 2.155 1_556 S
Co231 O258 2.096 . S
C232 N235 1.301 . S
C232 N236 1.328 1_556 S
C232 H237 0.930 . S
C233 C234 1.333 . S
C233 N235 1.317 1_554 S
C233 H238 0.930 . S
C234 C233 1.333 . S
C234 N236 1.350 . S
C234 H260 0.931 . S
N235 Co231 2.148 . S
N235 C232 1.301 . S
N235 C233 1.317 1_556 S
N236 C232 1.328 1_554 S
N236 C234 1.350 . S
H237 C232 0.930 . S
H238 C233 0.930 . S
C239 O240 1.224 . S
C239 O258 1.247 . S
O240 C239 1.224 . S
N241 Co231 2.128 . S
N241 C242 1.355 1_455 S
N241 C244 1.311 . S
C242 N241 1.355 1_655 S
C242 C243 1.363 . S
C242 H254 0.929 . S
C243 C242 1.363 . S
C243 N245 1.375 . S
C243 H261 0.931 . S
C244 N241 1.311 . S
C244 N245 1.347 1_455 S
C244 H255 0.929 . S
N245 C243 1.375 . S
N245 C244 1.347 1_655 S
C246 C249 1.365 . S
C246 N251 1.328 . S
C246 H252 0.929 . S
C247 C248 1.362 . S
C247 C250 1.378 . S
C247 H262 0.929 . S
C248 C247 1.362 . S
C248 C249 1.366 . S
C249 C246 1.365 . S
C249 C248 1.366 . S
C249 H263 0.930 . S
C250 C247 1.378 . S
C250 N251 1.315 . S
C250 H253 0.930 . S
N251 Co231 2.194 . S
N251 C246 1.328 . S
N251 C250 1.315 . S
H252 C246 0.929 . S
H253 C250 0.930 . S
H254 C242 0.929 . S
H255 C244 0.929 . S
O256 Co231 2.351 . S
O256 C259 1.244 . S
O257 Co231 2.155 1_554 S
O257 C259 1.240 1_554 S
O258 Co231 2.096 . S
O258 C239 1.247 . S
C259 O256 1.244 . S
C259 O257 1.240 1_556 S
H260 C234 0.931 . S
H261 C243 0.931 . S
H262 C247 0.929 . S
H263 C249 0.930 . S
Co264 N268 2.148 . S
Co264 N274 2.128 . S
Co264 N284 2.194 . S
Co264 O289 2.351 . S
Co264 O290 2.155 . S
Co264 O291 2.096 1_545 S
C265 N268 1.301 . S
C265 N269 1.328 . S
C265 H270 0.930 . S
C266 C267 1.333 . S
C266 N268 1.317 . S
C266 H271 0.930 . S
C267 C266 1.333 . S
C267 N269 1.350 . S
C267 H293 0.931 . S
N268 Co264 2.148 . S
N268 C265 1.301 . S
N268 C266 1.317 . S
N269 C265 1.328 . S
N269 C267 1.350 . S
H270 C265 0.930 . S
H271 C266 0.930 . S
C272 O273 1.231 . S
C272 O291 1.247 . S
O273 C272 1.231 . S
N274 Co264 2.128 . S
N274 C275 1.355 . S
N274 C277 1.311 1_545 S
C275 N274 1.355 . S
C275 C276 1.363 1_545 S
C275 H287 0.929 . S
C276 C275 1.363 1_565 S
C276 N278 1.375 . S
C276 H294 0.931 . S
C277 N274 1.311 1_565 S
C277 N278 1.347 . S
C277 H288 0.929 . S
N278 C276 1.375 . S
N278 C277 1.347 . S
C279 C282 1.365 . S
C279 N284 1.328 . S
C279 H285 0.929 . S
C280 C281 1.362 . S
C280 C283 1.378 . S
C280 H295 0.929 . S
C281 C280 1.362 . S
C281 C282 1.366 . S
C282 C279 1.365 . S
C282 C281 1.366 . S
C282 H296 0.930 . S
C283 C280 1.378 . S
C283 N284 1.315 . S
C283 H286 0.930 . S
N284 Co264 2.194 . S
N284 C279 1.328 . S
N284 C283 1.315 . S
H285 C279 0.929 . S
H286 C283 0.930 . S
H287 C275 0.929 . S
H288 C277 0.929 . S
O289 Co264 2.351 . S
O289 C292 1.244 . S
O290 Co264 2.155 . S
O290 C292 1.240 . S
O291 Co264 2.096 1_565 S
O291 C272 1.247 . S
C292 O289 1.244 . S
C292 O290 1.240 . S
H293 C267 0.931 . S
H294 C276 0.931 . S
H295 C280 0.929 . S
H296 C282 0.930 . S
Co297 N301 2.148 . S
Co297 N307 2.128 . S
Co297 N317 2.194 . S
Co297 O322 2.351 . S
Co297 O323 2.155 . S
Co297 O324 2.096 . S
C298 N301 1.301 . S
C298 N302 1.328 . S
C298 H303 0.930 . S
C299 C300 1.333 . S
C299 N301 1.317 . S
C299 H304 0.930 . S
C300 C299 1.333 . S
C300 N302 1.350 . S
C300 H326 0.931 . S
N301 Co297 2.148 . S
N301 C298 1.301 . S
N301 C299 1.317 . S
N302 C298 1.328 . S
N302 C300 1.350 . S
H303 C298 0.930 . S
H304 C299 0.930 . S
C305 O306 1.224 . S
C305 O324 1.247 . S
O306 C305 1.224 . S
N307 Co297 2.128 . S
N307 C308 1.355 1_556 S
N307 C310 1.311 . S
C308 N307 1.355 1_554 S
C308 C309 1.363 . S
C308 H320 0.929 . S
C309 C308 1.363 . S
C309 N311 1.375 . S
C309 H327 0.931 . S
C310 N307 1.311 . S
C310 N311 1.347 1_556 S
C310 H321 0.929 . S
N311 C309 1.375 . S
N311 C310 1.347 1_554 S
C312 C315 1.365 . S
C312 N317 1.328 . S
C312 H318 0.929 . S
C313 C314 1.362 . S
C313 C316 1.378 . S
C313 H328 0.929 . S
C314 C313 1.362 . S
C314 C315 1.366 . S
C315 C312 1.365 . S
C315 C314 1.366 . S
C315 H329 0.930 . S
C316 C313 1.378 . S
C316 N317 1.315 . S
C316 H319 0.930 . S
N317 Co297 2.194 . S
N317 C312 1.328 . S
N317 C316 1.315 . S
H318 C312 0.929 . S
H319 C316 0.930 . S
H320 C308 0.929 . S
H321 C310 0.929 . S
O322 Co297 2.351 . S
O322 C325 1.244 . S
O323 Co297 2.155 . S
O323 C325 1.240 . S
O324 Co297 2.096 . S
O324 C305 1.247 . S
C325 O322 1.244 . S
C325 O323 1.240 . S
H326 C300 0.931 . S
H327 C309 0.931 . S
H328 C313 0.929 . S
H329 C315 0.930 . S
Co330 N334 2.148 . S
Co330 N340 2.128 . S
Co330 N350 2.194 . S
Co330 O355 2.351 . S
Co330 O356 2.155 . S
Co330 O357 2.096 . S
C331 N334 1.301 . S
C331 N335 1.328 . S
C331 H336 0.930 . S
C332 C333 1.333 . S
C332 N334 1.317 . S
C332 H337 0.930 . S
C333 C332 1.333 . S
C333 N335 1.350 . S
C333 H359 0.931 . S
N334 Co330 2.148 . S
N334 C331 1.301 . S
N334 C332 1.317 . S
N335 C331 1.328 . S
N335 C333 1.350 . S
H336 C331 0.930 . S
H337 C332 0.930 . S
C338 O339 1.224 1_545 S
C338 O357 1.247 1_545 S
O339 C338 1.224 1_565 S
N340 Co330 2.128 . S
N340 C341 1.355 . S
N340 C343 1.311 1_565 S
C341 N340 1.355 . S
C341 C342 1.366 . S
C341 H353 0.929 . S
C342 C341 1.366 . S
C342 N344 1.371 1_565 S
C342 H360 0.931 . S
C343 N340 1.311 1_545 S
C343 N344 1.347 . S
C343 H354 0.929 . S
N344 C342 1.371 1_545 S
N344 C343 1.347 . S
C345 C348 1.365 . S
C345 N350 1.328 . S
C345 H351 0.929 . S
C346 C347 1.362 . S
C346 C349 1.378 . S
C346 H361 0.929 . S
C347 C346 1.362 . S
C347 C348 1.366 . S
C348 C345 1.365 . S
C348 C347 1.366 . S
C348 H362 0.930 . S
C349 C346 1.378 . S
C349 N350 1.315 . S
C349 H352 0.930 . S
N350 Co330 2.194 . S
N350 C345 1.328 . S
N350 C349 1.315 . S
H351 C345 0.929 . S
H352 C349 0.930 . S
H353 C341 0.929 . S
H354 C343 0.929 . S
O355 Co330 2.351 . S
O355 C358 1.244 . S
O356 Co330 2.155 . S
O356 C358 1.240 . S
O357 Co330 2.096 . S
O357 C338 1.247 1_565 S
C358 O355 1.244 . S
C358 O356 1.240 . S
H359 C333 0.931 . S
H360 C342 0.931 . S
H361 C346 0.929 . S
H362 C348 0.930 . S
Co363 N367 2.148 . S
Co363 N373 2.128 . S
Co363 N383 2.194 . S
Co363 O388 2.351 . S
Co363 O389 2.155 . S
Co363 O390 2.096 . S
C364 N367 1.301 . S
C364 N368 1.328 . S
C364 H369 0.930 . S
C365 C366 1.333 . S
C365 N367 1.317 . S
C365 H370 0.930 . S
C366 C365 1.333 . S
C366 N368 1.350 . S
C366 H392 0.931 . S
N367 Co363 2.148 . S
N367 C364 1.301 . S
N367 C365 1.317 . S
N368 C364 1.328 . S
N368 C366 1.350 . S
H369 C364 0.930 . S
H370 C365 0.930 . S
C371 O372 1.224 . S
C371 O390 1.247 . S
O372 C371 1.224 . S
N373 Co363 2.128 . S
N373 C374 1.355 . S
N373 C376 1.311 . S
C374 N373 1.355 . S
C374 C375 1.363 . S
C374 H386 0.929 . S
C375 C374 1.363 . S
C375 N377 1.375 . S
C375 H393 0.931 . S
C376 N373 1.311 . S
C376 N377 1.347 . S
C376 H387 0.929 . S
N377 C375 1.375 . S
N377 C376 1.347 . S
C378 C381 1.365 . S
C378 N383 1.328 . S
C378 H384 0.929 . S
C379 C380 1.362 . S
C379 C382 1.378 . S
C379 H394 0.929 . S
C380 C379 1.362 . S
C380 C381 1.366 . S
C381 C378 1.365 . S
C381 C380 1.366 . S
C381 H395 0.930 . S
C382 C379 1.378 . S
C382 N383 1.315 . S
C382 H385 0.930 . S
N383 Co363 2.194 . S
N383 C378 1.328 . S
N383 C382 1.315 . S
H384 C378 0.929 . S
H385 C382 0.930 . S
H386 C374 0.929 . S
H387 C376 0.929 . S
O388 Co363 2.351 . S
O388 C391 1.244 . S
O389 Co363 2.155 . S
O389 C391 1.240 . S
O390 Co363 2.096 . S
O390 C371 1.247 . S
C391 O388 1.244 . S
C391 O389 1.240 . S
H392 C366 0.931 . S
H393 C375 0.931 . S
H394 C379 0.929 . S
H395 C381 0.930 . S
Co396 N400 2.148 . S
Co396 N406 2.128 . S
Co396 N416 2.194 . S
Co396 O421 2.351 . S
Co396 O422 2.155 . S
Co396 O423 2.096 . S
C397 N400 1.301 . S
C397 N401 1.328 . S
C397 H402 0.930 . S
C398 C399 1.333 . S
C398 N400 1.317 . S
C398 H403 0.930 . S
C399 C398 1.333 . S
C399 N401 1.350 . S
C399 H425 0.931 . S
N400 Co396 2.148 . S
N400 C397 1.301 . S
N400 C398 1.317 . S
N401 C397 1.328 . S
N401 C399 1.350 . S
H402 C397 0.930 . S
H403 C398 0.930 . S
C404 O405 1.224 . S
C404 O423 1.247 . S
O405 C404 1.224 . S
N406 Co396 2.128 . S
N406 C407 1.355 . S
N406 C409 1.311 . S
C407 N406 1.355 . S
C407 C408 1.363 . S
C407 H419 0.929 . S
C408 C407 1.363 . S
C408 N410 1.375 . S
C408 H426 0.931 . S
C409 N406 1.311 . S
C409 N410 1.347 . S
C409 H420 0.929 . S
N410 C408 1.375 . S
N410 C409 1.347 . S
C411 C414 1.365 . S
C411 N416 1.328 . S
C411 H417 0.929 . S
C412 C413 1.362 . S
C412 C415 1.378 . S
C412 H427 0.929 . S
C413 C412 1.362 . S
C413 C414 1.366 . S
C414 C411 1.365 . S
C414 C413 1.366 . S
C414 H428 0.930 . S
C415 C412 1.378 . S
C415 N416 1.315 . S
C415 H418 0.930 . S
N416 Co396 2.194 . S
N416 C411 1.328 . S
N416 C415 1.315 . S
H417 C411 0.929 . S
H418 C415 0.930 . S
H419 C407 0.929 . S
H420 C409 0.929 . S
O421 Co396 2.351 . S
O421 C424 1.244 . S
O422 Co396 2.155 . S
O422 C424 1.240 . S
O423 Co396 2.096 . S
O423 C404 1.247 . S
C424 O421 1.244 . S
C424 O422 1.240 . S
H425 C399 0.931 . S
H426 C408 0.931 . S
H427 C412 0.929 . S
H428 C414 0.930 . S
Co429 N433 2.148 . S
Co429 N439 2.128 . S
Co429 N449 2.194 . S
Co429 O454 2.351 . S
Co429 O455 2.155 1_545 S
Co429 O456 2.096 . S
C430 N433 1.301 . S
C430 N434 1.328 1_545 S
C430 H435 0.930 . S
C431 C432 1.333 . S
C431 N433 1.317 1_565 S
C431 H436 0.930 . S
C432 C431 1.333 . S
C432 N434 1.350 . S
C432 H458 0.931 . S
N433 Co429 2.148 . S
N433 C430 1.301 . S
N433 C431 1.317 1_545 S
N434 C430 1.328 1_565 S
N434 C432 1.350 . S
H435 C430 0.930 . S
H436 C431 0.930 . S
C437 O438 1.224 . S
C437 O456 1.247 . S
O438 C437 1.224 . S
N439 Co429 2.128 . S
N439 C440 1.355 . S
N439 C442 1.311 . S
C440 N439 1.355 . S
C440 C441 1.363 . S
C440 H452 0.929 . S
C441 C440 1.363 . S
C441 N443 1.375 . S
C441 H459 0.931 . S
C442 N439 1.311 . S
C442 N443 1.347 . S
C442 H453 0.929 . S
N443 C441 1.375 . S
N443 C442 1.347 . S
C444 C447 1.365 . S
C444 N449 1.328 . S
C444 H450 0.929 . S
C445 C446 1.362 . S
C445 C448 1.378 . S
C445 H460 0.929 . S
C446 C445 1.362 . S
C446 C447 1.366 . S
C447 C444 1.365 . S
C447 C446 1.366 . S
C447 H461 0.930 . S
C448 C445 1.378 . S
C448 N449 1.315 . S
C448 H451 0.930 . S
N449 Co429 2.194 . S
N449 C444 1.328 . S
N449 C448 1.315 . S
H450 C444 0.929 . S
H451 C448 0.930 . S
H452 C440 0.929 . S
H453 C442 0.929 . S
O454 Co429 2.351 . S
O454 C457 1.246 . S
O455 Co429 2.155 1_565 S
O455 C457 1.239 1_565 S
O456 Co429 2.096 . S
O456 C437 1.247 . S
C457 O454 1.246 . S
C457 O455 1.239 1_545 S
H458 C432 0.931 . S
H459 C441 0.931 . S
H460 C445 0.929 . S
H461 C447 0.930 . S
Co462 N466 2.148 . S
Co462 N472 2.128 . S
Co462 N482 2.194 . S
Co462 O487 2.351 . S
Co462 O488 2.155 . S
Co462 O489 2.096 . S
C463 N466 1.301 . S
C463 N467 1.328 . S
C463 H468 0.930 . S
C464 C465 1.333 . S
C464 N466 1.317 . S
C464 H469 0.930 . S
C465 C464 1.333 . S
C465 N467 1.350 . S
C465 H491 0.931 . S
N466 Co462 2.148 . S
N466 C463 1.301 . S
N466 C464 1.317 . S
N467 C463 1.328 . S
N467 C465 1.350 . S
H468 C463 0.930 . S
H469 C464 0.930 . S
C470 O471 1.224 . S
C470 O489 1.247 . S
O471 C470 1.224 . S
N472 Co462 2.128 . S
N472 C473 1.355 . S
N472 C475 1.311 . S
C473 N472 1.355 . S
C473 C474 1.363 . S
C473 H485 0.929 . S
C474 C473 1.363 . S
C474 N476 1.375 . S
C474 H492 0.931 . S
C475 N472 1.311 . S
C475 N476 1.347 . S
C475 H486 0.929 . S
N476 C474 1.375 . S
N476 C475 1.347 . S
C477 C480 1.365 . S
C477 N482 1.328 . S
C477 H483 0.929 . S
C478 C479 1.362 . S
C478 C481 1.378 . S
C478 H493 0.929 . S
C479 C478 1.362 . S
C479 C480 1.366 . S
C480 C477 1.365 . S
C480 C479 1.366 . S
C480 H494 0.930 . S
C481 C478 1.378 . S
C481 N482 1.315 . S
C481 H484 0.930 . S
N482 Co462 2.194 . S
N482 C477 1.328 . S
N482 C481 1.315 . S
H483 C477 0.929 . S
H484 C481 0.930 . S
H485 C473 0.929 . S
H486 C475 0.929 . S
O487 Co462 2.351 . S
O487 C490 1.244 . S
O488 Co462 2.155 . S
O488 C490 1.240 . S
O489 Co462 2.096 . S
O489 C470 1.247 . S
C490 O487 1.244 . S
C490 O488 1.240 . S
H491 C465 0.931 . S
H492 C474 0.931 . S
H493 C478 0.929 . S
H494 C480 0.930 . S
Co495 N499 2.148 . S
Co495 N505 2.128 . S
Co495 N515 2.194 . S
Co495 O520 2.351 . S
Co495 O521 2.155 1_565 S
Co495 O522 2.096 . S
C496 N499 1.301 . S
C496 N500 1.328 1_565 S
C496 H501 0.930 . S
C497 C498 1.333 . S
C497 N499 1.317 1_545 S
C497 H502 0.930 . S
C498 C497 1.333 . S
C498 N500 1.350 . S
C498 H524 0.931 . S
N499 Co495 2.148 . S
N499 C496 1.301 . S
N499 C497 1.317 1_565 S
N500 C496 1.328 1_545 S
N500 C498 1.350 . S
H501 C496 0.930 . S
H502 C497 0.930 . S
C503 O504 1.224 . S
C503 O522 1.247 . S
O504 C503 1.224 . S
N505 Co495 2.128 . S
N505 C506 1.355 1_554 S
N505 C508 1.311 . S
C506 N505 1.355 1_556 S
C506 C507 1.363 . S
C506 H518 0.929 . S
C507 C506 1.363 . S
C507 N509 1.375 . S
C507 H525 0.931 . S
C508 N505 1.311 . S
C508 N509 1.347 1_554 S
C508 H519 0.929 . S
N509 C507 1.375 . S
N509 C508 1.347 1_556 S
C510 C513 1.365 . S
C510 N515 1.328 . S
C510 H516 0.929 . S
C511 C512 1.362 . S
C511 C514 1.378 . S
C511 H526 0.929 . S
C512 C511 1.362 . S
C512 C513 1.366 . S
C513 C510 1.365 . S
C513 C512 1.366 . S
C513 H527 0.930 . S
C514 C511 1.378 . S
C514 N515 1.315 . S
C514 H517 0.930 . S
N515 Co495 2.194 . S
N515 C510 1.328 . S
N515 C514 1.315 . S
H516 C510 0.929 . S
H517 C514 0.930 . S
H518 C506 0.929 . S
H519 C508 0.929 . S
O520 Co495 2.351 . S
O520 C523 1.244 . S
O521 Co495 2.155 1_545 S
O521 C523 1.240 1_545 S
O522 Co495 2.096 . S
O522 C503 1.247 . S
C523 O520 1.244 . S
C523 O521 1.240 1_565 S
H524 C498 0.931 . S
H525 C507 0.931 . S
H526 C511 0.929 . S
H527 C513 0.930 . S
Co528 N532 2.148 . S
Co528 N538 2.128 . S
Co528 N548 2.194 . S
Co528 O553 2.351 . S
Co528 O554 2.155 . S
Co528 O555 2.096 1_554 S
C529 N532 1.301 . S
C529 N533 1.328 . S
C529 H534 0.930 . S
C530 C531 1.333 . S
C530 N532 1.317 . S
C530 H535 0.930 . S
C531 C530 1.333 . S
C531 N533 1.350 . S
C531 H557 0.931 . S
N532 Co528 2.148 . S
N532 C529 1.301 . S
N532 C530 1.317 . S
N533 C529 1.328 . S
N533 C531 1.350 . S
H534 C529 0.930 . S
H535 C530 0.930 . S
C536 O537 1.231 . S
C536 O555 1.247 . S
O537 C536 1.231 . S
N538 Co528 2.128 . S
N538 C539 1.355 . S
N538 C541 1.311 1_554 S
C539 N538 1.355 . S
C539 C540 1.363 1_554 S
C539 H551 0.929 . S
C540 C539 1.363 1_556 S
C540 N542 1.375 . S
C540 H558 0.931 . S
C541 N538 1.311 1_556 S
C541 N542 1.347 . S
C541 H552 0.929 . S
N542 C540 1.375 . S
N542 C541 1.347 . S
C543 C546 1.365 . S
C543 N548 1.328 . S
C543 H549 0.929 . S
C544 C545 1.362 . S
C544 C547 1.378 . S
C544 H559 0.929 . S
C545 C544 1.362 . S
C545 C546 1.366 . S
C546 C543 1.365 . S
C546 C545 1.366 . S
C546 H560 0.930 . S
C547 C544 1.378 . S
C547 N548 1.315 . S
C547 H550 0.930 . S
N548 Co528 2.194 . S
N548 C543 1.328 . S
N548 C547 1.315 . S
H549 C543 0.929 . S
H550 C547 0.930 . S
H551 C539 0.929 . S
H552 C541 0.929 . S
O553 Co528 2.351 . S
O553 C556 1.244 . S
O554 Co528 2.155 . S
O554 C556 1.240 . S
O555 Co528 2.096 1_556 S
O555 C536 1.247 . S
C556 O553 1.244 . S
C556 O554 1.240 . S
H557 C531 0.931 . S
H558 C540 0.931 . S
H559 C544 0.929 . S
H560 C546 0.930 . S
Co561 N565 2.148 . S
Co561 N571 2.128 . S
Co561 N581 2.194 . S
Co561 O586 2.351 . S
Co561 O587 2.155 . S
Co561 O588 2.096 . S
C562 N565 1.301 . S
C562 N566 1.328 . S
C562 H567 0.930 . S
C563 C564 1.333 . S
C563 N565 1.317 . S
C563 H568 0.930 . S
C564 C563 1.333 . S
C564 N566 1.350 . S
C564 H590 0.931 . S
N565 Co561 2.148 . S
N565 C562 1.301 . S
N565 C563 1.317 . S
N566 C562 1.328 . S
N566 C564 1.350 . S
H567 C562 0.930 . S
H568 C563 0.930 . S
C569 O570 1.224 1_554 S
C569 O588 1.247 1_554 S
O570 C569 1.224 1_556 S
N571 Co561 2.128 . S
N571 C572 1.355 . S
N571 C574 1.311 1_556 S
C572 N571 1.355 . S
C572 C573 1.366 . S
C572 H584 0.929 . S
C573 C572 1.366 . S
C573 N575 1.371 1_556 S
C573 H591 0.931 . S
C574 N571 1.311 1_554 S
C574 N575 1.347 . S
C574 H585 0.929 . S
N575 C573 1.371 1_554 S
N575 C574 1.347 . S
C576 C579 1.365 . S
C576 N581 1.328 . S
C576 H582 0.929 . S
C577 C578 1.362 . S
C577 C580 1.378 . S
C577 H592 0.929 . S
C578 C577 1.362 . S
C578 C579 1.366 . S
C579 C576 1.365 . S
C579 C578 1.366 . S
C579 H593 0.930 . S
C580 C577 1.378 . S
C580 N581 1.315 . S
C580 H583 0.930 . S
N581 Co561 2.194 . S
N581 C576 1.328 . S
N581 C580 1.315 . S
H582 C576 0.929 . S
H583 C580 0.930 . S
H584 C572 0.929 . S
H585 C574 0.929 . S
O586 Co561 2.351 . S
O586 C589 1.244 . S
O587 Co561 2.155 . S
O587 C589 1.240 . S
O588 Co561 2.096 . S
O588 C569 1.247 1_556 S
C589 O586 1.244 . S
C589 O587 1.240 . S
H590 C564 0.931 . S
H591 C573 0.931 . S
H592 C577 0.929 . S
H593 C579 0.930 . S
Co594 N598 2.148 . S
Co594 N604 2.128 . S
Co594 N614 2.194 . S
Co594 O619 2.351 . S
Co594 O620 2.155 . S
Co594 O621 2.096 . S
C595 N598 1.301 . S
C595 N599 1.328 . S
C595 H600 0.930 . S
C596 C597 1.333 . S
C596 N598 1.317 . S
C596 H601 0.930 . S
C597 C596 1.333 . S
C597 N599 1.350 . S
C597 H623 0.931 . S
N598 Co594 2.148 . S
N598 C595 1.301 . S
N598 C596 1.317 . S
N599 C595 1.328 . S
N599 C597 1.350 . S
H600 C595 0.930 . S
H601 C596 0.930 . S
C602 O603 1.224 . S
C602 O621 1.247 . S
O603 C602 1.224 . S
N604 Co594 2.128 . S
N604 C605 1.355 1_565 S
N604 C607 1.311 . S
C605 N604 1.355 1_545 S
C605 C606 1.363 . S
C605 H617 0.929 . S
C606 C605 1.363 . S
C606 N608 1.375 . S
C606 H624 0.931 . S
C607 N604 1.311 . S
C607 N608 1.347 1_565 S
C607 H618 0.929 . S
N608 C606 1.375 . S
N608 C607 1.347 1_545 S
C609 C612 1.365 . S
C609 N614 1.328 . S
C609 H615 0.929 . S
C610 C611 1.362 . S
C610 C613 1.378 . S
C610 H625 0.929 . S
C611 C610 1.362 . S
C611 C612 1.366 . S
C612 C609 1.365 . S
C612 C611 1.366 . S
C612 H626 0.930 . S
C613 C610 1.378 . S
C613 N614 1.315 . S
C613 H616 0.930 . S
N614 Co594 2.194 . S
N614 C609 1.328 . S
N614 C613 1.315 . S
H615 C609 0.929 . S
H616 C613 0.930 . S
H617 C605 0.929 . S
H618 C607 0.929 . S
O619 Co594 2.351 . S
O619 C622 1.244 . S
O620 Co594 2.155 . S
O620 C622 1.240 . S
O621 Co594 2.096 . S
O621 C602 1.247 . S
C622 O619 1.244 . S
C622 O620 1.240 . S
H623 C597 0.931 . S
H624 C606 0.931 . S
H625 C610 0.929 . S
H626 C612 0.930 . S
Co627 N631 2.148 . S
Co627 N637 2.128 . S
Co627 N647 2.194 . S
Co627 O652 2.351 . S
Co627 O653 2.155 . S
Co627 O654 2.096 . S
C628 N631 1.301 . S
C628 N632 1.328 . S
C628 H633 0.930 . S
C629 C630 1.333 . S
C629 N631 1.317 . S
C629 H634 0.930 . S
C630 C629 1.333 . S
C630 N632 1.350 . S
C630 H656 0.931 . S
N631 Co627 2.148 . S
N631 C628 1.301 . S
N631 C629 1.317 . S
N632 C628 1.328 . S
N632 C630 1.350 . S
H633 C628 0.930 . S
H634 C629 0.930 . S
C635 O636 1.224 . S
C635 O654 1.247 . S
O636 C635 1.224 . S
N637 Co627 2.128 . S
N637 C638 1.355 . S
N637 C640 1.311 . S
C638 N637 1.355 . S
C638 C639 1.363 . S
C638 H650 0.929 . S
C639 C638 1.363 . S
C639 N641 1.375 . S
C639 H657 0.931 . S
C640 N637 1.311 . S
C640 N641 1.347 . S
C640 H651 0.929 . S
N641 C639 1.375 . S
N641 C640 1.347 . S
C642 C645 1.365 . S
C642 N647 1.328 . S
C642 H648 0.929 . S
C643 C644 1.362 . S
C643 C646 1.378 . S
C643 H658 0.929 . S
C644 C643 1.362 . S
C644 C645 1.366 . S
C645 C642 1.365 . S
C645 C644 1.366 . S
C645 H659 0.930 . S
C646 C643 1.378 . S
C646 N647 1.315 . S
C646 H649 0.930 . S
N647 Co627 2.194 . S
N647 C642 1.328 . S
N647 C646 1.315 . S
H648 C642 0.929 . S
H649 C646 0.930 . S
H650 C638 0.929 . S
H651 C640 0.929 . S
O652 Co627 2.351 . S
O652 C655 1.244 . S
O653 Co627 2.155 . S
O653 C655 1.240 . S
O654 Co627 2.096 . S
O654 C635 1.247 . S
C655 O652 1.244 . S
C655 O653 1.240 . S
H656 C630 0.931 . S
H657 C639 0.931 . S
H658 C643 0.929 . S
H659 C645 0.930 . S
Co660 N664 2.148 . S
Co660 N670 2.128 . S
Co660 N680 2.194 . S
Co660 O685 2.351 . S
Co660 O686 2.155 1_655 S
Co660 O687 2.096 . S
C661 N664 1.301 . S
C661 N665 1.328 1_655 S
C661 H666 0.930 . S
C662 C663 1.333 . S
C662 N664 1.317 1_455 S
C662 H667 0.930 . S
C663 C662 1.333 . S
C663 N665 1.350 . S
C663 H689 0.931 . S
N664 Co660 2.148 . S
N664 C661 1.301 . S
N664 C662 1.317 1_655 S
N665 C661 1.328 1_455 S
N665 C663 1.350 . S
H666 C661 0.930 . S
H667 C662 0.930 . S
C668 O669 1.224 . S
C668 O687 1.247 . S
O669 C668 1.224 . S
N670 Co660 2.128 . S
N670 C671 1.355 1_545 S
N670 C673 1.311 . S
C671 N670 1.355 1_565 S
C671 C672 1.363 . S
C671 H683 0.929 . S
C672 C671 1.363 . S
C672 N674 1.375 . S
C672 H690 0.931 . S
C673 N670 1.311 . S
C673 N674 1.347 1_545 S
C673 H684 0.929 . S
N674 C672 1.375 . S
N674 C673 1.347 1_565 S
C675 C678 1.365 . S
C675 N680 1.328 . S
C675 H681 0.929 . S
C676 C677 1.362 . S
C676 C679 1.378 . S
C676 H691 0.929 . S
C677 C676 1.362 . S
C677 C678 1.366 . S
C678 C675 1.365 . S
C678 C677 1.366 . S
C678 H692 0.930 . S
C679 C676 1.378 . S
C679 N680 1.315 . S
C679 H682 0.930 . S
N680 Co660 2.194 . S
N680 C675 1.328 . S
N680 C679 1.315 . S
H681 C675 0.929 . S
H682 C679 0.930 . S
H683 C671 0.929 . S
H684 C673 0.929 . S
O685 Co660 2.351 . S
O685 C688 1.244 . S
O686 Co660 2.155 1_455 S
O686 C688 1.240 1_455 S
O687 Co660 2.096 . S
O687 C668 1.247 . S
C688 O685 1.244 . S
C688 O686 1.240 1_655 S
H689 C663 0.931 . S
H690 C672 0.931 . S
H691 C676 0.929 . S
H692 C678 0.930 . S
Co693 N697 2.148 . S
Co693 N703 2.128 . S
Co693 N713 2.194 . S
Co693 O718 2.351 . S
Co693 O719 2.155 . S
Co693 O720 2.096 . S
C694 N697 1.301 . S
C694 N698 1.328 . S
C694 H699 0.930 . S
C695 C696 1.333 . S
C695 N697 1.317 . S
C695 H700 0.930 . S
C696 C695 1.333 . S
C696 N698 1.350 . S
C696 H722 0.931 . S
N697 Co693 2.148 . S
N697 C694 1.301 . S
N697 C695 1.317 . S
N698 C694 1.328 . S
N698 C696 1.350 . S
H699 C694 0.930 . S
H700 C695 0.930 . S
C701 O702 1.224 . S
C701 O720 1.247 . S
O702 C701 1.224 . S
N703 Co693 2.128 . S
N703 C704 1.355 . S
N703 C706 1.311 . S
C704 N703 1.355 . S
C704 C705 1.363 . S
C704 H716 0.929 . S
C705 C704 1.363 . S
C705 N707 1.375 . S
C705 H723 0.931 . S
C706 N703 1.311 . S
C706 N707 1.347 . S
C706 H717 0.929 . S
N707 C705 1.375 . S
N707 C706 1.347 . S
C708 C711 1.365 . S
C708 N713 1.328 . S
C708 H714 0.929 . S
C709 C710 1.362 . S
C709 C712 1.378 . S
C709 H724 0.929 . S
C710 C709 1.362 . S
C710 C711 1.366 . S
C711 C708 1.365 . S
C711 C710 1.366 . S
C711 H725 0.930 . S
C712 C709 1.378 . S
C712 N713 1.315 . S
C712 H715 0.930 . S
N713 Co693 2.194 . S
N713 C708 1.328 . S
N713 C712 1.315 . S
H714 C708 0.929 . S
H715 C712 0.930 . S
H716 C704 0.929 . S
H717 C706 0.929 . S
O718 Co693 2.351 . S
O718 C721 1.244 . S
O719 Co693 2.155 . S
O719 C721 1.240 . S
O720 Co693 2.096 . S
O720 C701 1.247 . S
C721 O718 1.244 . S
C721 O719 1.240 . S
H722 C696 0.931 . S
H723 C705 0.931 . S
H724 C709 0.929 . S
H725 C711 0.930 . S
Co726 N730 2.148 . S
Co726 N736 2.128 . S
Co726 N746 2.194 . S
Co726 O751 2.351 . S
Co726 O752 2.155 1_455 S
Co726 O753 2.096 . S
C727 N730 1.301 . S
C727 N731 1.328 1_455 S
C727 H732 0.930 . S
C728 C729 1.333 . S
C728 N730 1.317 1_655 S
C728 H733 0.930 . S
C729 C728 1.333 . S
C729 N731 1.350 . S
C729 H755 0.931 . S
N730 Co726 2.148 . S
N730 C727 1.301 . S
N730 C728 1.317 1_455 S
N731 C727 1.328 1_655 S
N731 C729 1.350 . S
H732 C727 0.930 . S
H733 C728 0.930 . S
C734 O735 1.224 . S
C734 O753 1.247 . S
O735 C734 1.224 . S
N736 Co726 2.128 . S
N736 C737 1.355 . S
N736 C739 1.311 . S
C737 N736 1.355 . S
C737 C738 1.363 . S
C737 H749 0.929 . S
C738 C737 1.363 . S
C738 N740 1.375 . S
C738 H756 0.931 . S
C739 N736 1.311 . S
C739 N740 1.347 . S
C739 H750 0.929 . S
N740 C738 1.375 . S
N740 C739 1.347 . S
C741 C744 1.365 . S
C741 N746 1.328 . S
C741 H747 0.929 . S
C742 C743 1.362 . S
C742 C745 1.378 . S
C742 H757 0.929 . S
C743 C742 1.362 . S
C743 C744 1.366 . S
C744 C741 1.365 . S
C744 C743 1.366 . S
C744 H758 0.930 . S
C745 C742 1.378 . S
C745 N746 1.315 . S
C745 H748 0.930 . S
N746 Co726 2.194 . S
N746 C741 1.328 . S
N746 C745 1.315 . S
H747 C741 0.929 . S
H748 C745 0.930 . S
H749 C737 0.929 . S
H750 C739 0.929 . S
O751 Co726 2.351 . S
O751 C754 1.246 . S
O752 Co726 2.155 1_655 S
O752 C754 1.239 1_655 S
O753 Co726 2.096 . S
O753 C734 1.247 . S
C754 O751 1.246 . S
C754 O752 1.239 1_455 S
H755 C729 0.931 . S
H756 C738 0.931 . S
H757 C742 0.929 . S
H758 C744 0.930 . S
Co759 N763 2.148 . S
Co759 N769 2.128 . S
Co759 N779 2.194 . S
Co759 O784 2.351 . S
Co759 O785 2.155 . S
Co759 O786 2.096 . S
C760 N763 1.301 . S
C760 N764 1.328 . S
C760 H765 0.930 . S
C761 C762 1.333 . S
C761 N763 1.317 . S
C761 H766 0.930 . S
C762 C761 1.333 . S
C762 N764 1.350 . S
C762 H788 0.931 . S
N763 Co759 2.148 . S
N763 C760 1.301 . S
N763 C761 1.317 . S
N764 C760 1.328 . S
N764 C762 1.350 . S
H765 C760 0.930 . S
H766 C761 0.930 . S
C767 O768 1.224 . S
C767 O786 1.247 . S
O768 C767 1.224 . S
N769 Co759 2.128 . S
N769 C770 1.355 . S
N769 C772 1.311 . S
C770 N769 1.355 . S
C770 C771 1.363 . S
C770 H782 0.929 . S
C771 C770 1.363 . S
C771 N773 1.375 . S
C771 H789 0.931 . S
C772 N769 1.311 . S
C772 N773 1.347 . S
C772 H783 0.929 . S
N773 C771 1.375 . S
N773 C772 1.347 . S
C774 C777 1.365 . S
C774 N779 1.328 . S
C774 H780 0.929 . S
C775 C776 1.362 . S
C775 C778 1.378 . S
C775 H790 0.929 . S
C776 C775 1.362 . S
C776 C777 1.366 . S
C777 C774 1.365 . S
C777 C776 1.366 . S
C777 H791 0.930 . S
C778 C775 1.378 . S
C778 N779 1.315 . S
C778 H781 0.930 . S
N779 Co759 2.194 . S
N779 C774 1.328 . S
N779 C778 1.315 . S
H780 C774 0.929 . S
H781 C778 0.930 . S
H782 C770 0.929 . S
H783 C772 0.929 . S
O784 Co759 2.351 . S
O784 C787 1.244 . S
O785 Co759 2.155 . S
O785 C787 1.240 . S
O786 Co759 2.096 . S
O786 C767 1.247 . S
C787 O784 1.244 . S
C787 O785 1.240 . S
H788 C762 0.931 . S
H789 C771 0.931 . S
H790 C775 0.929 . S
H791 C777 0.930 . S
N443 C17 1.670 . S
C50 N476 1.670 . S
C83 N509 1.670 . S
N410 C116 1.670 . S
N377 C149 1.670 . S
N278 C182 1.670 . S
C215 N311 1.670 . S
N344 C248 1.670 . S
C281 N47 1.670 . S
C314 N80 1.670 . S
C347 N113 1.670 . S
N14 C380 1.670 . S
N245 C413 1.670 . S
C446 N146 1.670 . S
C479 N179 1.670 . S
N212 C512 1.670 . S
N740 C545 1.670 . S
C578 N608 1.670 . S
C611 N641 1.670 . S
N674 C644 1.670 . S
C677 N575 1.670 . S
N773 C710 1.670 . S
C743 N707 1.670 . S
N542 C776 1.670 . S
N533 C28 2.238 . S
N764 C61 2.236 1_556 S
C94 N698 2.238 . S
N731 C127 2.238 . S
N566 C160 2.238 . S
N599 C193 2.238 . S
N632 C226 2.238 . S
C259 N665 2.238 1_556 S
C292 N5 2.238 . S
C325 N38 2.238 . S
C358 N71 2.238 . S
C391 N104 2.238 . S
C424 N137 2.238 . S
N170 C457 2.236 1_565 S
N203 C490 2.238 . S
C523 N236 2.238 1_565 S
N269 C556 2.238 . S
N401 C589 2.238 . S
N434 C622 2.238 . S
N467 C655 2.238 . S
C688 N500 2.238 1_655 S
C721 N335 2.238 . S
C754 N368 2.236 1_455 S
N302 C787 2.238 . S
C668 C8 1.468 . S
C41 C569 1.468 . S
C602 C74 1.468 . S
C107 C635 1.468 . S
C767 C140 1.468 . S
C701 C173 1.468 . S
C206 C734 1.468 . S
C536 C239 1.468 . S
C503 C272 1.468 . S
C404 C305 1.468 . S
C437 C338 1.468 . S
C470 C371 1.468 . S
