# Generated by pormake.
# Topology qtz-a, (4)-cn, num edge types: 1
# Building blocks:
#     Node 0, Type 0, BuildingBlock: NAHDIM_clean_sbu_0, # of connection points: 4
#     Node 1, Type 0, BuildingBlock: NAHDIM_clean_sbu_0, # of connection points: 4
#     Node 2, Type 0, BuildingBlock: NAHDIM_clean_sbu_0, # of connection points: 4
#     Node 3, Type 0, BuildingBlock: NAHDIM_clean_sbu_0, # of connection points: 4
#     Node 4, Type 0, BuildingBlock: NAHDIM_clean_sbu_0, # of connection points: 4
#     Node 5, Type 0, BuildingBlock: NAHDIM_clean_sbu_0, # of connection points: 4
#     Node 6, Type 0, BuildingBlock: NAHDIM_clean_sbu_0, # of connection points: 4
#     Node 7, Type 0, BuildingBlock: NAHDIM_clean_sbu_0, # of connection points: 4
#     Node 8, Type 0, BuildingBlock: NAHDIM_clean_sbu_0, # of connection points: 4
#     Node 9, Type 0, BuildingBlock: NAHDIM_clean_sbu_0, # of connection points: 4
#     Node 10, Type 0, BuildingBlock: NAHDIM_clean_sbu_0, # of connection points: 4
#     Node 11, Type 0, BuildingBlock: NAHDIM_clean_sbu_0, # of connection points: 4
#     Edge 12, Type (0, 0), BuildingBlock: CIFDUS_clean_linker_0, # of connection points: 2
#     Edge 13, Type (0, 0), BuildingBlock: CIFDUS_clean_linker_0, # of connection points: 2
#     Edge 14, Type (0, 0), BuildingBlock: CIFDUS_clean_linker_0, # of connection points: 2
#     Edge 15, Type (0, 0), BuildingBlock: CIFDUS_clean_linker_0, # of connection points: 2
#     Edge 16, Type (0, 0), BuildingBlock: CIFDUS_clean_linker_0, # of connection points: 2
#     Edge 17, Type (0, 0), BuildingBlock: CIFDUS_clean_linker_0, # of connection points: 2
#     Edge 18, Type (0, 0), BuildingBlock: CIFDUS_clean_linker_0, # of connection points: 2
#     Edge 19, Type (0, 0), BuildingBlock: CIFDUS_clean_linker_0, # of connection points: 2
#     Edge 20, Type (0, 0), BuildingBlock: CIFDUS_clean_linker_0, # of connection points: 2
#     Edge 21, Type (0, 0), BuildingBlock: CIFDUS_clean_linker_0, # of connection points: 2
#     Edge 22, Type (0, 0), BuildingBlock: CIFDUS_clean_linker_0, # of connection points: 2
#     Edge 23, Type (0, 0), BuildingBlock: CIFDUS_clean_linker_0, # of connection points: 2
#     Edge 24, Type (0, 0), BuildingBlock: CIFDUS_clean_linker_0, # of connection points: 2
#     Edge 25, Type (0, 0), BuildingBlock: CIFDUS_clean_linker_0, # of connection points: 2
#     Edge 26, Type (0, 0), BuildingBlock: CIFDUS_clean_linker_0, # of connection points: 2
#     Edge 27, Type (0, 0), BuildingBlock: CIFDUS_clean_linker_0, # of connection points: 2
#     Edge 28, Type (0, 0), BuildingBlock: CIFDUS_clean_linker_0, # of connection points: 2
#     Edge 29, Type (0, 0), BuildingBlock: CIFDUS_clean_linker_0, # of connection points: 2
#     Edge 30, Type (0, 0), BuildingBlock: CIFDUS_clean_linker_0, # of connection points: 2
#     Edge 31, Type (0, 0), BuildingBlock: CIFDUS_clean_linker_0, # of connection points: 2
#     Edge 32, Type (0, 0), BuildingBlock: CIFDUS_clean_linker_0, # of connection points: 2
#     Edge 33, Type (0, 0), BuildingBlock: CIFDUS_clean_linker_0, # of connection points: 2
#     Edge 34, Type (0, 0), BuildingBlock: CIFDUS_clean_linker_0, # of connection points: 2
#     Edge 35, Type (0, 0), BuildingBlock: CIFDUS_clean_linker_0, # of connection points: 2
# Relax obj value: 0.795
# Max RMSD: 0.385
# Mean RMSD: 0.327
data_MOF--net-qtz-a--node1-NAHDIM_clean_sbu_0--edge1-CIFDUS_clean_linker_0
_symmetry_space_group_name_H-M    P1
_symmetry_Int_Tables_number       1
_symmetry_cell_setting            triclinic
loop_
_symmetry_equiv_pos_as_xyz
'x, y, z'
_cell_length_a     40.835246
_cell_length_b     40.596038
_cell_length_c     35.178257
_cell_angle_alpha  90.259635
_cell_angle_beta   89.862885
_cell_angle_gamma 111.02562
loop_
_atom_site_label
_atom_site_type_symbol
_atom_site_fract_x
_atom_site_fract_y
_atom_site_fract_z
_atom_type_partial_charge
C0 C 0.39278 0.09983 0.19945 0.0
O1 O 0.40818 0.0782 0.21067 0.0
O2 O 0.3854 0.01637 0.15945 0.0
Zn3 Zn 0.35407 0.04342 0.14576 0.0
O4 O 0.36356 0.05629 0.09025 0.0
C5 C 0.28075 0.99283 0.13233 0.0
O6 O 0.24781 0.97867 0.14304 0.0
O7 O 0.36816 0.08932 0.17513 0.0
C8 C 0.37604 0.08793 0.07842 0.0
O9 O 0.38018 0.11394 0.10247 0.0
C10 C 0.41729 0.02937 0.14892 0.0
O11 O 0.42865 0.06045 0.13247 0.0
O12 O 0.30275 0.01417 0.15487 0.0
C13 C 0.31222 0.4171 0.47304 0.0
O14 O 0.33848 0.40917 0.48636 0.0
O15 O 0.39674 0.47022 0.49526 0.0
Zn16 Zn 0.36589 0.48606 0.46122 0.0
O17 O 0.35962 0.53039 0.48228 0.0
C18 C 0.42099 0.50738 0.40351 0.0
O19 O 0.44084 0.52471 0.43172 0.0
O20 O 0.31804 0.4478 0.45982 0.0
C21 C 0.36359 0.56013 0.46741 0.0
O22 O 0.35972 0.58503 0.48889 0.0
C23 C 0.4212 0.48989 0.51634 0.0
O24 O 0.42582 0.52353 0.5195 0.0
O25 O 0.38852 0.49041 0.40944 0.0
C26 C 0.80845 0.36455 0.81433 0.0
O27 O 0.82024 0.37428 0.77982 0.0
O28 O 0.91284 0.40261 0.87182 0.0
Zn29 Zn 0.88088 0.38899 0.82674 0.0
O30 O 0.88953 0.43374 0.79744 0.0
C31 C 0.91616 0.3431 0.79372 0.0
O32 O 0.9365 0.35085 0.82385 0.0
O33 O 0.83032 0.36868 0.84119 0.0
C34 C 0.92105 0.45355 0.79067 0.0
O35 O 0.94673 0.44443 0.80362 0.0
C36 C 0.90823 0.4254 0.89395 0.0
O37 O 0.87915 0.43205 0.89064 0.0
O38 O 0.89184 0.35556 0.79078 0.0
C39 C 0.63031 0.89486 0.12547 0.0
O40 O 0.62357 0.91911 0.14544 0.0
O41 O 0.58823 0.95479 0.09893 0.0
Zn42 Zn 0.60638 0.92618 0.06324 0.0
O43 O 0.56302 0.89366 0.03768 0.0
C44 C 0.64504 0.9916 0.02657 0.0
O45 O 0.64468 0.00414 0.061 0.0
O46 O 0.62832 0.89543 0.08946 0.0
C47 C 0.56141 0.88632 0.00246 0.0
O48 O 0.59004 0.89821 0.98173 0.0
C49 C 0.55872 0.94045 0.11526 0.0
O50 O 0.54299 0.90603 0.11307 0.0
O51 O 0.63466 0.95835 0.02196 0.0
C52 C 0.70251 0.46281 0.45287 0.0
O53 O 0.69483 0.46531 0.417 0.0
O54 O 0.59246 0.43487 0.49455 0.0
Zn55 Zn 0.62998 0.44216 0.45508 0.0
O56 O 0.61658 0.40729 0.41171 0.0
C57 C 0.62563 0.51177 0.44347 0.0
O58 O 0.61389 0.50896 0.47855 0.0
O59 O 0.67758 0.45021 0.47651 0.0
C60 C 0.58901 0.4054 0.39359 0.0
O61 O 0.56856 0.42097 0.40798 0.0
C62 C 0.56506 0.40767 0.49916 0.0
O63 O 0.56209 0.37854 0.48067 0.0
O64 O 0.63427 0.48727 0.42922 0.0
C65 C 0.16545 0.67143 0.80152 0.0
O66 O 0.15144 0.66395 0.7675 0.0
O67 O 0.08367 0.58485 0.86255 0.0
Zn68 Zn 0.11148 0.60647 0.81614 0.0
O69 O 0.12428 0.56801 0.79149 0.0
C70 C 0.07055 0.60529 0.74835 0.0
O71 O 0.07878 0.57773 0.73973 0.0
O72 O 0.15333 0.64941 0.82825 0.0
C73 C 0.14846 0.56934 0.7681 0.0
O74 O 0.17154 0.60007 0.7582 0.0
C75 C 0.09232 0.56262 0.88147 0.0
O76 O 0.1223 0.55889 0.87375 0.0
O77 O 0.08043 0.6209 0.78002 0.0
C78 C 0.90301 0.57802 0.49329 0.0
O79 O 0.92994 0.58771 0.46995 0.0
O80 O 0.98535 0.57844 0.52883 0.0
Zn81 Zn 0.95615 0.60442 0.5513 0.0
O82 O 0.95155 0.59131 0.60659 0.0
C83 C -2e-05 0.67684 0.56778 0.0
O84 O 0.00994 0.71132 0.5655 0.0
O85 O 0.90812 0.5842 0.52861 0.0
C86 C 0.92393 0.58648 0.62592 0.0
O87 O 0.89764 0.59287 0.61029 0.0
C88 C 0.97134 0.54502 0.53094 0.0
O89 O 0.9391 0.53104 0.54389 0.0
O90 O 0.97695 0.65746 0.5449 0.0
C91 C 0.30289 0.86858 0.81258 0.0
O92 O 0.31854 0.89047 0.78518 0.0
O93 O 0.36843 0.95852 0.82722 0.0
Zn94 Zn 0.35195 0.91887 0.86487 0.0
O95 O 0.39249 0.90324 0.87367 0.0
C96 C 0.36231 0.94862 0.94068 0.0
O97 O 0.39492 0.9518 0.93371 0.0
O98 O 0.31218 0.87663 0.84682 0.0
C99 C 0.39087 0.87835 0.89615 0.0
O100 O 0.36142 0.8617 0.91427 0.0
C101 C 0.38997 0.95724 0.80159 0.0
O102 O 0.39659 0.92805 0.79738 0.0
O103 O 0.33921 0.93597 0.91502 0.0
C104 C 0.46538 0.30803 0.18514 0.0
O105 O 0.49928 0.31844 0.17887 0.0
O106 O 0.44902 0.37659 0.10785 0.0
Zn107 Zn 0.47117 0.37936 0.15995 0.0
O108 O 0.52397 0.39375 0.153 0.0
C109 C 0.47595 0.43983 0.21121 0.0
O110 O 0.51004 0.45111 0.20586 0.0
O111 O 0.44948 0.32943 0.17989 0.0
C112 C 0.55099 0.39632 0.1727 0.0
O113 O 0.58142 0.4063 0.15514 0.0
C114 C 0.43928 0.39923 0.09112 0.0
O115 O 0.42208 0.39064 0.05889 0.0
O116 O 0.45638 0.41186 0.19445 0.0
C117 C 0.11105 0.34308 0.51997 0.0
O118 O 0.08459 0.34838 0.50339 0.0
O119 O 0.04436 0.36918 0.56034 0.0
Zn120 Zn 0.07423 0.34753 0.58907 0.0
O121 O 0.09926 0.38481 0.62784 0.0
C122 C 0.01149 0.29669 0.61977 0.0
O123 O -0.00303 0.30503 0.58981 0.0
O124 O 0.11059 0.33914 0.55582 0.0
C125 C 0.07932 0.38992 0.65316 0.0
O126 O 0.04561 0.37121 0.65202 0.0
C127 C 0.05902 0.40099 0.54959 0.0
O128 O 0.09306 0.41654 0.55415 0.0
O129 O 0.0447 0.3059 0.62047 0.0
C130 C 0.61261 0.23068 0.81558 0.0
O131 O 0.59565 0.211 0.78704 0.0
O132 O 0.54544 0.14332 0.81899 0.0
Zn133 Zn 0.57037 0.17252 0.86364 0.0
O134 O 0.53322 0.17589 0.89948 0.0
C135 C 0.60393 0.121 0.88352 0.0
O136 O 0.59401 0.10671 0.84991 0.0
O137 O 0.60457 0.21991 0.84937 0.0
C138 C 0.50891 0.14652 0.90639 0.0
O139 O 0.50976 0.11794 0.8894 0.0
C140 C 0.51923 0.14922 0.80549 0.0
O141 O 0.51383 0.17788 0.81635 0.0
O142 O 0.59688 0.14787 0.89341 0.0
C143 C 0.5851 0.69662 0.18739 0.0
O144 O 0.58719 0.66917 0.16906 0.0
O145 O 0.53356 0.60441 0.20451 0.0
Zn146 Zn 0.54445 0.64446 0.24205 0.0
O147 O 0.50208 0.64296 0.27228 0.0
C148 C 0.5999 0.62409 0.27166 0.0
O149 O 0.60618 0.62034 0.23556 0.0
O150 O 0.56799 0.692 0.21836 0.0
C151 C 0.47942 0.61378 0.283 0.0
O152 O 0.48172 0.58407 0.27074 0.0
C153 C 0.50511 0.59017 0.18632 0.0
O154 O 0.48011 0.60329 0.18947 0.0
O155 O 0.57611 0.63599 0.28059 0.0
H156 H 0.4201 0.1508 0.05118 0.0
H157 H 0.36833 0.04147 0.01982 0.0
H158 H 0.40295 0.05093 0.96161 0.0
H159 H 0.45226 0.08864 0.9234 0.0
H160 H 0.50536 0.19764 0.95551 0.0
H161 H 0.46547 0.19007 0.0094 0.0
C162 C 0.41591 0.12918 0.0313 0.0
C163 C 0.39209 0.09528 0.04019 0.0
C164 C 0.43637 0.13472 0.99817 0.0
C165 C 0.3869 0.06763 0.01399 0.0
C166 C 0.40671 0.07304 0.98067 0.0
C167 C 0.45493 0.11087 0.94194 0.0
C168 C 0.4821 0.14351 0.93581 0.0
C169 C 0.43229 0.1062 0.97312 0.0
C170 C 0.48484 0.17216 0.95977 0.0
C171 C 0.4621 0.16783 0.99065 0.0
H172 H 0.41656 0.563 0.29973 0.0
H173 H 0.49038 0.6629 0.33884 0.0
H174 H 0.45865 0.65652 0.39877 0.0
H175 H 0.41478 0.61882 0.44309 0.0
H176 H 0.33871 0.52069 0.40369 0.0
H177 H 0.3655 0.5307 0.34017 0.0
C178 C 0.42516 0.58369 0.32107 0.0
C179 C 0.45599 0.6131 0.31517 0.0
C180 C 0.40655 0.58007 0.35539 0.0
C181 C 0.46674 0.63997 0.34277 0.0
C182 C 0.44874 0.63626 0.37717 0.0
C183 C 0.40389 0.59988 0.42039 0.0
C184 C 0.37605 0.56829 0.42811 0.0
C185 C 0.41942 0.60584 0.38427 0.0
C186 C 0.36113 0.54454 0.39842 0.0
C187 C 0.37634 0.55031 0.36221 0.0
H188 H 0.97343 0.57159 0.6664 0.0
H189 H 0.86377 0.55857 0.6676 0.0
H190 H 0.85382 0.51844 0.72144 0.0
H191 H 0.87485 0.48184 0.76302 0.0
H192 H 0.98449 0.49464 0.76137 0.0
H193 H -0.00412 0.5404 0.71313 0.0
C194 C 0.94747 0.56049 0.67883 0.0
C195 C 0.9193 0.56768 0.6626 0.0
C196 C 0.94184 0.53709 0.70945 0.0
C197 C 0.88589 0.55332 0.67933 0.0
C198 C 0.88013 0.5302 0.71002 0.0
C199 C 0.90131 0.49489 0.75241 0.0
C200 C 0.92862 0.48434 0.76526 0.0
C201 C 0.90767 0.52102 0.72447 0.0
C202 C 0.96288 0.50194 0.75168 0.0
C203 C 0.96944 0.5281 0.72403 0.0
H204 H 0.54579 0.89297 0.92881 0.0
H205 H 0.49899 0.84844 0.03575 0.0
H206 H 0.44052 0.83658 0.00956 0.0
H207 H 0.40373 0.84765 0.9599 0.0
H208 H 0.45129 0.89703 0.85509 0.0
H209 H 0.50834 0.89783 0.8766 0.0
C210 C 0.52277 0.87983 0.94607 0.0
C211 C 0.52665 0.87194 0.98423 0.0
C212 C 0.48937 0.87444 0.93135 0.0
C213 C 0.49661 0.85505 0.00633 0.0
C214 C 0.4632 0.8484 0.99144 0.0
C215 C 0.42643 0.85784 0.94144 0.0
C216 C 0.42346 0.87267 0.90622 0.0
C217 C 0.45936 0.85934 0.95452 0.0
C218 C 0.45307 0.88586 0.88258 0.0
C219 C 0.4857 0.88636 0.89485 0.0
H220 H 0.53003 0.38841 0.35053 0.0
H221 H 0.63889 0.39865 0.34566 0.0
H222 H 0.6357 0.394 0.2765 0.0
H223 H 0.60425 0.39463 0.21753 0.0
H224 H 0.49467 0.38077 0.22191 0.0
H225 H 0.49587 0.37942 0.29108 0.0
C226 C 0.55286 0.38892 0.33436 0.0
C227 C 0.58477 0.39437 0.3532 0.0
C228 C 0.55092 0.38639 0.29452 0.0
C229 C 0.614 0.39451 0.33193 0.0
C230 C 0.61229 0.39216 0.29231 0.0
C231 C 0.58046 0.39103 0.23348 0.0
C232 C 0.5497 0.38963 0.21434 0.0
C233 C 0.58124 0.38935 0.27329 0.0
C234 C 0.51902 0.38365 0.23567 0.0
C235 C 0.51965 0.3825 0.27538 0.0
H236 H 0.13813 0.44933 0.64951 0.0
H237 H 0.04986 0.39351 0.72122 0.0
H238 H 0.06664 0.4428 0.76587 0.0
H239 H 0.1023 0.50349 0.7811 0.0
H240 H 0.18845 0.56189 0.70799 0.0
H241 H 0.17708 0.50958 0.66778 0.0
C242 C 0.12301 0.44781 0.67527 0.0
C243 C 0.09267 0.41802 0.68197 0.0
C244 C 0.1323 0.47672 0.70044 0.0
C245 C 0.07312 0.41636 0.71528 0.0
C246 C 0.0827 0.4445 0.74084 0.0
C247 C 0.11896 0.5048 0.75664 0.0
C248 C 0.14591 0.53673 0.74731 0.0
C249 C 0.11162 0.47512 0.73316 0.0
C250 C 0.1674 0.53771 0.71573 0.0
C251 C 0.16079 0.50785 0.69261 0.0
H252 H 0.34082 0.98311 0.11211 0.0
H253 H 0.2425 0.98217 0.06739 0.0
H254 H 0.25867 0.96798 0.00404 0.0
H255 H 0.30127 0.9567 0.96125 0.0
H256 H 0.40124 0.96116 0.00567 0.0
H257 H 0.38448 0.97418 0.06905 0.0
C258 C 0.3234 0.98064 0.08833 0.0
C259 C 0.29106 0.9847 0.09415 0.0
C260 C 0.33317 0.97307 0.05197 0.0
C261 C 0.2678 0.97961 0.06345 0.0
C262 C 0.27705 0.97156 0.02725 0.0
C263 C 0.3194 0.96055 0.98478 0.0
C264 C 0.35239 0.95783 0.9787 0.0
C265 C 0.30975 0.96839 0.02113 0.0
C266 C 0.37568 0.96315 0.00949 0.0
C267 C 0.36608 0.97043 0.04582 0.0
H268 H 0.51036 0.48916 0.26446 0.0
H269 H 0.40676 0.42786 0.22316 0.0
H270 H 0.38053 0.44693 0.27723 0.0
H271 H 0.38699 0.47455 0.33996 0.0
H272 H 0.49028 0.53477 0.38273 0.0
H273 H 0.51657 0.52301 0.32416 0.0
C274 C 0.48205 0.48044 0.26697 0.0
C275 C 0.46057 0.45647 0.24025 0.0
C276 C 0.46706 0.49099 0.29862 0.0
C277 C 0.42392 0.44576 0.2437 0.0
C278 C 0.40886 0.45664 0.27464 0.0
C279 C 0.41524 0.48546 0.33638 0.0
C280 C 0.43664 0.50483 0.36607 0.0
C281 C 0.43018 0.47817 0.30294 0.0
C282 C 0.47317 0.51931 0.36058 0.0
C283 C 0.48825 0.51254 0.32709 0.0
H284 H 0.94444 0.29265 0.63259 0.0
H285 H 0.03645 0.28956 0.69036 0.0
H286 H 0.01267 0.29967 0.7511 0.0
H287 H 0.97068 0.31955 0.78589 0.0
H288 H 0.87989 0.3247 0.72716 0.0
H289 H 0.89826 0.30354 0.66901 0.0
C290 C 0.95893 0.2932 0.65853 0.0
C291 C 0.99257 0.29115 0.65666 0.0
C292 C 0.94565 0.30018 0.69327 0.0
C293 C 0.01066 0.29145 0.69077 0.0
C294 C -0.00278 0.29758 0.72558 0.0
C295 C 0.95457 0.31544 0.76057 0.0
C296 C 0.92435 0.32445 0.76078 0.0
C297 C 0.96554 0.30368 0.72688 0.0
C298 C 0.90359 0.31853 0.72777 0.0
C299 C 0.91405 0.30639 0.6944 0.0
H300 H 0.65516 0.06146 0.02691 0.0
H301 H 0.63801 0.97286 0.95119 0.0
H302 H 0.62713 0.00671 0.8987 0.0
H303 H 0.61465 0.05852 0.87658 0.0
H304 H 0.62958 0.14584 0.95363 0.0
H305 H 0.64915 0.11542 0.00309 0.0
C306 C 0.64977 0.04972 0.99878 0.0
C307 C 0.64693 0.01447 0.99324 0.0
C308 C 0.64252 0.06894 0.96898 0.0
C309 C 0.64016 -0.00013 0.95643 0.0
C310 C 0.63367 0.01914 0.92639 0.0
C311 C 0.62265 0.07111 0.904 0.0
C312 C 0.62007 0.10419 0.91148 0.0
C313 C 0.63348 0.05322 0.93269 0.0
C314 C 0.63083 0.1202 0.94715 0.0
C315 C 0.64208 0.10284 0.97553 0.0
H316 H 0.58745 0.62266 0.34757 0.0
H317 H 0.64588 0.5896 0.26259 0.0
H318 H 0.6623 0.55469 0.31007 0.0
H319 H 0.65422 0.52827 0.3734 0.0
H320 H 0.59393 0.55953 0.45774 0.0
H321 H 0.58433 0.6008 0.41271 0.0
C322 C 0.60425 0.6083 0.3395 0.0
C323 C 0.61503 0.60835 0.30145 0.0
C324 C 0.61297 0.58772 0.3667 0.0
C325 C 0.63702 0.58982 0.2916 0.0
C326 C 0.6463 0.56973 0.3187 0.0
C327 C 0.63934 0.54443 0.38212 0.0
C328 C 0.62439 0.54051 0.41866 0.0
C329 C 0.63348 0.56763 0.35598 0.0
C330 C 0.60559 0.56195 0.42972 0.0
C331 C 0.59998 0.58544 0.40394 0.0
H332 H 0.06618 0.59245 0.67267 0.0
H333 H 0.03761 0.65251 0.75961 0.0
H334 H 0.0131 0.68019 0.71124 0.0
H335 H 0.00109 0.6883 0.64373 0.0
H336 H 0.03297 0.63067 0.55727 0.0
H337 H 0.0549 0.60086 0.60583 0.0
C338 C 0.05436 0.6114 0.68111 0.0
C339 C 0.05365 0.62038 0.71965 0.0
C340 C 0.04109 0.62771 0.65317 0.0
C341 C 0.03851 0.64521 0.73008 0.0
C342 C 0.02458 0.66109 0.70245 0.0
C343 C 0.01297 0.66928 0.63576 0.0
C344 C 0.01466 0.66073 0.59729 0.0
C345 C 0.02605 0.65282 0.66387 0.0
C346 C 0.03028 0.63639 0.58692 0.0
C347 C 0.04312 0.61973 0.61462 0.0
H348 H 0.49228 0.91848 0.14358 0.0
H349 H 0.58108 0.01248 0.1173 0.0
H350 H 0.54555 0.04867 0.12875 0.0
H351 H 0.48784 0.05299 0.13924 0.0
H352 H 0.39867 0.95904 0.16422 0.0
H353 H 0.43587 0.92354 0.16047 0.0
C354 C 0.50407 0.94693 0.14098 0.0
C355 C 0.5392 0.96265 0.12913 0.0
C356 C 0.48332 0.96759 0.14695 0.0
C357 C 0.55406 -0.00039 0.12615 0.0
C358 C 0.53371 0.02036 0.13251 0.0
C359 C 0.4766 0.02479 0.14428 0.0
C360 C 0.44048 0.00863 0.15158 0.0
C361 C 0.49806 0.00452 0.14177 0.0
C362 C 0.4264 0.97214 0.15848 0.0
C363 C 0.44764 0.95179 0.15621 0.0
H364 H 0.56217 0.46546 0.53613 0.0
H365 H 0.49703 0.36137 0.49784 0.0
H366 H 0.44475 0.37632 0.50703 0.0
H367 H 0.41933 0.42235 0.51354 0.0
H368 H 0.48519 0.52768 0.54731 0.0
H369 H 0.53529 0.50866 0.55275 0.0
C370 C 0.53649 0.44571 0.53061 0.0
C371 C 0.53363 0.41265 0.51532 0.0
C372 C 0.50668 0.45492 0.53455 0.0
C373 C 0.50009 0.38717 0.50914 0.0
C374 C 0.47016 0.3958 0.51412 0.0
C375 C 0.44446 0.44101 0.52289 0.0
C376 C 0.44871 0.47662 0.52907 0.0
C377 C 0.47338 0.43017 0.52484 0.0
C378 C 0.48127 0.50024 0.54189 0.0
C379 C 0.51 0.48941 0.54483 0.0
H380 H 0.03224 0.56562 0.91164 0.0
H381 H 0.08964 0.49571 0.89567 0.0
H382 H 0.03651 0.44483 0.90751 0.0
H383 H 0.97209 0.4206 0.90637 0.0
H384 H 0.91458 0.49067 0.92065 0.0
H385 H 0.96935 0.54082 0.92669 0.0
C386 C 0.03332 0.53931 0.91201 0.0
C387 C 0.06448 0.53435 0.90163 0.0
C388 C 0.00248 0.51008 0.91796 0.0
C389 C 0.06583 0.50025 0.90305 0.0
C390 C 0.03535 0.47104 0.90951 0.0
C391 C 0.97153 0.44668 0.91207 0.0
C392 C 0.93938 0.45206 0.91164 0.0
C393 C 0.00318 0.47562 0.91454 0.0
C394 C 0.93899 0.48582 0.92005 0.0
C395 C 0.97036 0.51466 0.92323 0.0
H396 H 0.94787 0.47357 0.52976 0.0
H397 H 0.0422 0.56576 0.51948 0.0
H398 H 0.07765 0.52842 0.51998 0.0
H399 H 0.08207 0.47042 0.53057 0.0
H400 H 0.98765 0.3786 0.54318 0.0
H401 H 0.95202 0.41501 0.5341 0.0
C402 C 0.97616 0.4855 0.52711 0.0
C403 C 0.99238 0.52242 0.52501 0.0
C404 C -0.00361 0.46396 0.5281 0.0
C405 C 0.02904 0.53741 0.5212 0.0
C406 C 0.04935 0.51608 0.52168 0.0
C407 C 0.05369 0.45824 0.53078 0.0
C408 C 0.03758 0.42189 0.53803 0.0
C409 C 0.03335 0.47944 0.52622 0.0
C410 C 0.00076 0.40654 0.53791 0.0
C411 C 0.98035 0.42737 0.53285 0.0
H412 H 0.3809 0.02029 0.79797 0.0
H413 H 0.45357 0.96896 0.76842 0.0
H414 H 0.49998 0.02613 0.75908 0.0
H415 H 0.52244 0.08969 0.77297 0.0
H416 H 0.44996 0.14095 0.80346 0.0
H417 H 0.40097 0.08505 0.79775 0.0
C418 C 0.40664 0.02163 0.78846 0.0
C419 C 0.41405 0.99051 0.785 0.0
C420 C 0.43343 0.05463 0.78374 0.0
C421 C 0.44727 0.99255 0.77184 0.0
C422 C 0.47395 0.02528 0.7667 0.0
C423 C 0.4958 0.0888 0.77719 0.0
C424 C 0.48994 0.11917 0.78961 0.0
C425 C 0.46777 0.0564 0.77466 0.0
C426 C 0.45528 0.11786 0.79428 0.0
C427 C 0.4272 0.0858 0.79136 0.0
H428 H 0.50125 0.44562 0.11571 0.0
H429 H 0.39223 0.43135 0.10199 0.0
H430 H 0.40307 0.49014 0.1288 0.0
H431 H 0.44346 0.54494 0.15745 0.0
H432 H 0.5529 0.55938 0.1702 0.0
H433 H 0.5422 0.5016 0.14172 0.0
C434 C 0.47998 0.45551 0.11875 0.0
C435 C 0.44596 0.43429 0.10771 0.0
C436 C 0.48657 0.48948 0.1335 0.0
C437 C 0.41857 0.44734 0.11085 0.0
C438 C 0.42477 0.48088 0.12606 0.0
C439 C 0.46503 0.53561 0.15367 0.0
C440 C 0.49889 0.55648 0.16599 0.0
C441 C 0.45866 0.50214 0.13762 0.0
C442 C 0.52653 0.54387 0.16102 0.0
C443 C 0.52047 0.51079 0.14477 0.0
H444 H 0.49007 0.25912 0.21317 0.0
H445 H 0.39516 0.27281 0.17586 0.0
H446 H 0.3631 0.20945 0.18113 0.0
H447 H 0.36361 0.14967 0.18955 0.0
H448 H 0.45818 0.13581 0.22776 0.0
H449 H 0.48853 0.1997 0.22963 0.0
C450 C 0.46228 0.24825 0.20662 0.0
C451 C 0.44518 0.27055 0.19355 0.0
C452 C 0.44393 0.21176 0.2098 0.0
C453 C 0.40902 0.25621 0.18579 0.0
C454 C 0.39066 0.21994 0.18868 0.0
C455 C 0.39069 0.16065 0.19892 0.0
C456 C 0.40871 0.13801 0.208 0.0
C457 C 0.40808 0.19739 0.19966 0.0
C458 C 0.44367 0.15262 0.22053 0.0
C459 C 0.46116 0.18918 0.22135 0.0
H460 H 0.16639 0.32515 0.54075 0.0
H461 H 0.13099 0.3787 0.45325 0.0
H462 H 0.19044 0.40351 0.42784 0.0
H463 H 0.25366 0.41711 0.43667 0.0
H464 H 0.28898 0.36319 0.52385 0.0
H465 H 0.22838 0.33112 0.54286 0.0
C466 C 0.17157 0.34164 0.51562 0.0
C467 C 0.1445 0.35061 0.49937 0.0
C468 C 0.20588 0.35614 0.50139 0.0
C469 C 0.15141 0.37152 0.46646 0.0
C470 C 0.18547 0.38597 0.45205 0.0
C471 C 0.24801 0.39789 0.4594 0.0
C472 C 0.27572 0.39305 0.47933 0.0
C473 C 0.21312 0.37961 0.47027 0.0
C474 C 0.2681 0.3676 0.50823 0.0
C475 C 0.23345 0.34935 0.51925 0.0
H476 H 0.65773 0.27035 0.86867 0.0
H477 H 0.64062 0.25986 0.74741 0.0
H478 H 0.69904 0.30387 0.73649 0.0
H479 H 0.75715 0.33974 0.76128 0.0
H480 H 0.77492 0.34699 0.88251 0.0
H481 H 0.71383 0.30981 0.89351 0.0
C482 C 0.66648 0.27801 0.8398 0.0
C483 C 0.64501 0.26147 0.80887 0.0
C484 C 0.70037 0.30243 0.83374 0.0
C485 C 0.65674 0.27197 0.77172 0.0
C486 C 0.69019 0.29702 0.76545 0.0
C487 C 0.74755 0.33358 0.79013 0.0
C488 C 0.77064 0.34572 0.82102 0.0
C489 C 0.71261 0.31154 0.79623 0.0
C490 C 0.75777 0.33763 0.85823 0.0
C491 C 0.72286 0.31639 0.86455 0.0
H492 H 0.59794 0.75885 0.22412 0.0
H493 H 0.60767 0.71483 0.11463 0.0
H494 H 0.62758 0.77373 0.08661 0.0
H495 H 0.63586 0.8365 0.09194 0.0
H496 H 0.62522 0.8802 0.20143 0.0
H497 H 0.61287 0.82272 0.23086 0.0
C498 C 0.60468 0.76217 0.19418 0.0
C499 C 0.60073 0.73247 0.17133 0.0
C500 C 0.616 0.79604 0.17827 0.0
C501 C 0.61021 0.73724 0.13277 0.0
C502 C 0.62156 0.77091 0.11672 0.0
C503 C 0.6315 0.83367 0.12237 0.0
C504 C 0.63089 0.86254 0.14431 0.0
C505 C 0.62368 0.80036 0.13901 0.0
C506 C 0.62556 0.85841 0.18377 0.0
C507 C 0.61827 0.82546 0.20062 0.0
H508 H 0.84647 0.54031 0.53546 0.0
H509 H 0.87992 0.5687 0.41979 0.0
H510 H 0.82118 0.5336 0.39692 0.0
H511 H 0.76016 0.49622 0.41001 0.0
H512 H 0.72696 0.46763 0.52577 0.0
H513 H 0.78614 0.50109 0.54833 0.0
C514 C 0.84091 0.53896 0.50524 0.0
C515 C 0.86742 0.55736 0.47936 0.0
C516 C 0.80728 0.51848 0.49231 0.0
C517 C 0.85992 0.55491 0.44028 0.0
C518 C 0.82638 0.53479 0.4272 0.0
C519 C 0.7659 0.497 0.44016 0.0
C520 C 0.73911 0.47954 0.46617 0.0
C521 C 0.79986 0.51658 0.45298 0.0
C522 C 0.74706 0.48081 0.50512 0.0
C523 C 0.78085 0.50009 0.51808 0.0
H524 H 0.19368 0.72498 0.75152 0.0
H525 H 0.19837 0.69607 0.86886 0.0
H526 H 0.24086 0.75479 0.88245 0.0
H527 H 0.27567 0.8143 0.86147 0.0
H528 H 0.27177 0.8436 0.74418 0.0
H529 H 0.2296 0.78455 0.73017 0.0
C530 C 0.20411 0.73144 0.78004 0.0
C531 C 0.1928 0.70619 0.80915 0.0
C532 C 0.22839 0.7653 0.78772 0.0
C533 C 0.20661 0.715 0.84593 0.0
C534 C 0.23083 0.7486 0.85377 0.0
C535 C 0.26551 0.80792 0.83283 0.0
C536 C 0.27666 0.83339 0.80395 0.0
C537 C 0.24165 0.77399 0.82496 0.0
C538 C 0.2635 0.8245 0.76695 0.0
C539 C 0.23947 0.79075 0.75891 0.0
loop_
_geom_bond_atom_site_label_1
_geom_bond_atom_site_label_2
_geom_bond_distance
_geom_bond_site_symmetry_2
_ccdc_geom_bond_type
C0 O1 1.160 . S
C0 O7 1.185 . S
O1 C0 1.160 . S
O2 Zn3 1.899 . S
O2 C10 1.284 . S
Zn3 O2 1.899 . S
Zn3 O4 2.032 . S
Zn3 O7 2.086 . S
Zn3 O12 1.977 . S
O4 Zn3 2.032 . S
O4 C8 1.278 . S
C5 O6 1.203 . S
C5 O12 1.267 . S
O6 C5 1.203 . S
O7 C0 1.185 . S
O7 Zn3 2.086 . S
C8 O4 1.278 . S
C8 O9 1.211 . S
O9 C8 1.211 . S
C10 O2 1.284 . S
C10 O11 1.273 . S
O11 C10 1.273 . S
O12 Zn3 1.977 . S
O12 C5 1.267 . S
C13 O14 1.160 . S
C13 O20 1.185 . S
O14 C13 1.160 . S
O15 Zn16 1.899 . S
O15 C23 1.284 . S
Zn16 O15 1.899 . S
Zn16 O17 2.032 . S
Zn16 O20 2.086 . S
Zn16 O25 1.977 . S
O17 Zn16 2.032 . S
O17 C21 1.278 . S
C18 O19 1.203 . S
C18 O25 1.267 . S
O19 C18 1.203 . S
O20 C13 1.185 . S
O20 Zn16 2.086 . S
C21 O17 1.278 . S
C21 O22 1.211 . S
O22 C21 1.211 . S
C23 O15 1.284 . S
C23 O24 1.273 . S
O24 C23 1.273 . S
O25 Zn16 1.977 . S
O25 C18 1.267 . S
C26 O27 1.160 . S
C26 O33 1.185 . S
O27 C26 1.160 . S
O28 Zn29 1.899 . S
O28 C36 1.284 . S
Zn29 O28 1.899 . S
Zn29 O30 2.032 . S
Zn29 O33 2.086 . S
Zn29 O38 1.977 . S
O30 Zn29 2.032 . S
O30 C34 1.278 . S
C31 O32 1.203 . S
C31 O38 1.267 . S
O32 C31 1.203 . S
O33 C26 1.185 . S
O33 Zn29 2.086 . S
C34 O30 1.278 . S
C34 O35 1.211 . S
O35 C34 1.211 . S
C36 O28 1.284 . S
C36 O37 1.273 . S
O37 C36 1.273 . S
O38 Zn29 1.977 . S
O38 C31 1.267 . S
C39 O40 1.160 . S
C39 O46 1.185 . S
O40 C39 1.160 . S
O41 Zn42 1.899 . S
O41 C49 1.284 . S
Zn42 O41 1.899 . S
Zn42 O43 2.032 . S
Zn42 O46 2.086 . S
Zn42 O51 1.977 . S
O43 Zn42 2.032 . S
O43 C47 1.278 . S
C44 O45 1.203 . S
C44 O51 1.267 . S
O45 C44 1.203 . S
O46 C39 1.185 . S
O46 Zn42 2.086 . S
C47 O43 1.278 . S
C47 O48 1.211 . S
O48 C47 1.211 . S
C49 O41 1.284 . S
C49 O50 1.273 . S
O50 C49 1.273 . S
O51 Zn42 1.977 . S
O51 C44 1.267 . S
C52 O53 1.160 . S
C52 O59 1.185 . S
O53 C52 1.160 . S
O54 Zn55 1.899 . S
O54 C62 1.284 . S
Zn55 O54 1.899 . S
Zn55 O56 2.032 . S
Zn55 O59 2.086 . S
Zn55 O64 1.977 . S
O56 Zn55 2.032 . S
O56 C60 1.278 . S
C57 O58 1.203 . S
C57 O64 1.267 . S
O58 C57 1.203 . S
O59 C52 1.185 . S
O59 Zn55 2.086 . S
C60 O56 1.278 . S
C60 O61 1.211 . S
O61 C60 1.211 . S
C62 O54 1.284 . S
C62 O63 1.273 . S
O63 C62 1.273 . S
O64 Zn55 1.977 . S
O64 C57 1.267 . S
C65 O66 1.160 . S
C65 O72 1.185 . S
O66 C65 1.160 . S
O67 Zn68 1.899 . S
O67 C75 1.284 . S
Zn68 O67 1.899 . S
Zn68 O69 2.032 . S
Zn68 O72 2.086 . S
Zn68 O77 1.977 . S
O69 Zn68 2.032 . S
O69 C73 1.278 . S
C70 O71 1.203 . S
C70 O77 1.267 . S
O71 C70 1.203 . S
O72 C65 1.185 . S
O72 Zn68 2.086 . S
C73 O69 1.278 . S
C73 O74 1.211 . S
O74 C73 1.211 . S
C75 O67 1.284 . S
C75 O76 1.273 . S
O76 C75 1.273 . S
O77 Zn68 1.977 . S
O77 C70 1.267 . S
C78 O79 1.160 . S
C78 O85 1.185 . S
O79 C78 1.160 . S
O80 Zn81 1.899 . S
O80 C88 1.284 . S
Zn81 O80 1.899 . S
Zn81 O82 2.032 . S
Zn81 O85 2.086 . S
Zn81 O90 1.977 . S
O82 Zn81 2.032 . S
O82 C86 1.278 . S
C83 O84 1.203 . S
C83 O90 1.267 . S
O84 C83 1.203 . S
O85 C78 1.185 . S
O85 Zn81 2.086 . S
C86 O82 1.278 . S
C86 O87 1.211 . S
O87 C86 1.211 . S
C88 O80 1.284 . S
C88 O89 1.273 . S
O89 C88 1.273 . S
O90 Zn81 1.977 . S
O90 C83 1.267 . S
C91 O92 1.160 . S
C91 O98 1.185 . S
O92 C91 1.160 . S
O93 Zn94 1.899 . S
O93 C101 1.284 . S
Zn94 O93 1.899 . S
Zn94 O95 2.032 . S
Zn94 O98 2.086 . S
Zn94 O103 1.977 . S
O95 Zn94 2.032 . S
O95 C99 1.278 . S
C96 O97 1.203 . S
C96 O103 1.267 . S
O97 C96 1.203 . S
O98 C91 1.185 . S
O98 Zn94 2.086 . S
C99 O95 1.278 . S
C99 O100 1.211 . S
O100 C99 1.211 . S
C101 O93 1.284 . S
C101 O102 1.273 . S
O102 C101 1.273 . S
O103 Zn94 1.977 . S
O103 C96 1.267 . S
C104 O105 1.160 . S
C104 O111 1.185 . S
O105 C104 1.160 . S
O106 Zn107 1.899 . S
O106 C114 1.284 . S
Zn107 O106 1.899 . S
Zn107 O108 2.032 . S
Zn107 O111 2.086 . S
Zn107 O116 1.977 . S
O108 Zn107 2.032 . S
O108 C112 1.278 . S
C109 O110 1.203 . S
C109 O116 1.267 . S
O110 C109 1.203 . S
O111 C104 1.185 . S
O111 Zn107 2.086 . S
C112 O108 1.278 . S
C112 O113 1.211 . S
O113 C112 1.211 . S
C114 O106 1.284 . S
C114 O115 1.273 . S
O115 C114 1.273 . S
O116 Zn107 1.977 . S
O116 C109 1.267 . S
C117 O118 1.160 . S
C117 O124 1.185 . S
O118 C117 1.160 . S
O119 Zn120 1.899 . S
O119 C127 1.284 . S
Zn120 O119 1.899 . S
Zn120 O121 2.032 . S
Zn120 O124 2.086 . S
Zn120 O129 1.977 . S
O121 Zn120 2.032 . S
O121 C125 1.278 . S
C122 O123 1.203 . S
C122 O129 1.267 . S
O123 C122 1.203 . S
O124 C117 1.185 . S
O124 Zn120 2.086 . S
C125 O121 1.278 . S
C125 O126 1.211 . S
O126 C125 1.211 . S
C127 O119 1.284 . S
C127 O128 1.273 . S
O128 C127 1.273 . S
O129 Zn120 1.977 . S
O129 C122 1.267 . S
C130 O131 1.160 . S
C130 O137 1.185 . S
O131 C130 1.160 . S
O132 Zn133 1.899 . S
O132 C140 1.284 . S
Zn133 O132 1.899 . S
Zn133 O134 2.032 . S
Zn133 O137 2.086 . S
Zn133 O142 1.977 . S
O134 Zn133 2.032 . S
O134 C138 1.278 . S
C135 O136 1.203 . S
C135 O142 1.267 . S
O136 C135 1.203 . S
O137 C130 1.185 . S
O137 Zn133 2.086 . S
C138 O134 1.278 . S
C138 O139 1.211 . S
O139 C138 1.211 . S
C140 O132 1.284 . S
C140 O141 1.273 . S
O141 C140 1.273 . S
O142 Zn133 1.977 . S
O142 C135 1.267 . S
C143 O144 1.160 . S
C143 O150 1.185 . S
O144 C143 1.160 . S
O145 Zn146 1.899 . S
O145 C153 1.284 . S
Zn146 O145 1.899 . S
Zn146 O147 2.032 . S
Zn146 O150 2.086 . S
Zn146 O155 1.977 . S
O147 Zn146 2.032 . S
O147 C151 1.278 . S
C148 O149 1.203 . S
C148 O155 1.267 . S
O149 C148 1.203 . S
O150 C143 1.185 . S
O150 Zn146 2.086 . S
C151 O147 1.278 . S
C151 O152 1.211 . S
O152 C151 1.211 . S
C153 O145 1.284 . S
C153 O154 1.273 . S
O154 C153 1.273 . S
O155 Zn146 1.977 . S
O155 C148 1.267 . S
H156 C162 0.930 . S
H157 C165 0.930 . S
H158 C166 0.930 . S
H159 C167 0.930 . S
H160 C170 0.930 . S
H161 C171 0.930 . S
C162 H156 0.930 . S
C162 C163 1.355 . S
C162 C164 1.415 1_554 S
C163 C162 1.355 . S
C163 C165 1.419 1_554 S
C164 C162 1.415 1_556 S
C164 C169 1.425 . S
C164 C171 1.409 . S
C165 H157 0.930 . S
C165 C163 1.419 1_556 S
C165 C166 1.362 . S
C166 H158 0.930 . S
C166 C165 1.362 . S
C166 C169 1.409 . S
C167 H159 0.930 . S
C167 C168 1.355 . S
C167 C169 1.415 . S
C168 C167 1.355 . S
C168 C170 1.419 . S
C169 C164 1.425 . S
C169 C166 1.409 . S
C169 C167 1.415 . S
C170 H160 0.930 . S
C170 C168 1.419 . S
C170 C171 1.362 . S
C171 H161 0.930 . S
C171 C164 1.409 . S
C171 C170 1.362 . S
H172 C178 0.930 . S
H173 C181 0.930 . S
H174 C182 0.930 . S
H175 C183 0.930 . S
H176 C186 0.930 . S
H177 C187 0.930 . S
C178 H172 0.930 . S
C178 C179 1.355 . S
C178 C180 1.415 . S
C179 C178 1.355 . S
C179 C181 1.419 . S
C180 C178 1.415 . S
C180 C185 1.425 . S
C180 C187 1.409 . S
C181 H173 0.930 . S
C181 C179 1.419 . S
C181 C182 1.362 . S
C182 H174 0.930 . S
C182 C181 1.362 . S
C182 C185 1.409 . S
C183 H175 0.930 . S
C183 C184 1.355 . S
C183 C185 1.415 . S
C184 C183 1.355 . S
C184 C186 1.419 . S
C185 C180 1.425 . S
C185 C182 1.409 . S
C185 C183 1.415 . S
C186 H176 0.930 . S
C186 C184 1.419 . S
C186 C187 1.362 . S
C187 H177 0.930 . S
C187 C180 1.409 . S
C187 C186 1.362 . S
H188 C194 0.930 . S
H189 C197 0.930 . S
H190 C198 0.930 . S
H191 C199 0.930 . S
H192 C202 0.930 . S
H193 C203 0.930 . S
C194 H188 0.930 . S
C194 C195 1.355 . S
C194 C196 1.415 . S
C195 C194 1.355 . S
C195 C197 1.419 . S
C196 C194 1.415 . S
C196 C201 1.425 . S
C196 C203 1.409 . S
C197 H189 0.930 . S
C197 C195 1.419 . S
C197 C198 1.362 . S
C198 H190 0.930 . S
C198 C197 1.362 . S
C198 C201 1.409 . S
C199 H191 0.930 . S
C199 C200 1.355 . S
C199 C201 1.415 . S
C200 C199 1.355 . S
C200 C202 1.419 . S
C201 C196 1.425 . S
C201 C198 1.409 . S
C201 C199 1.415 . S
C202 H192 0.930 . S
C202 C200 1.419 . S
C202 C203 1.362 . S
C203 H193 0.930 . S
C203 C196 1.409 . S
C203 C202 1.362 . S
H204 C210 0.930 . S
H205 C213 0.930 . S
H206 C214 0.930 . S
H207 C215 0.930 . S
H208 C218 0.930 . S
H209 C219 0.930 . S
C210 H204 0.930 . S
C210 C211 1.355 1_556 S
C210 C212 1.415 . S
C211 C210 1.355 1_554 S
C211 C213 1.419 . S
C212 C210 1.415 . S
C212 C217 1.425 . S
C212 C219 1.409 . S
C213 H205 0.930 . S
C213 C211 1.419 . S
C213 C214 1.362 1_554 S
C214 H206 0.930 . S
C214 C213 1.362 1_556 S
C214 C217 1.409 . S
C215 H207 0.930 . S
C215 C216 1.355 . S
C215 C217 1.415 . S
C216 C215 1.355 . S
C216 C218 1.419 . S
C217 C212 1.425 . S
C217 C214 1.409 . S
C217 C215 1.415 . S
C218 H208 0.930 . S
C218 C216 1.419 . S
C218 C219 1.362 . S
C219 H209 0.930 . S
C219 C212 1.409 . S
C219 C218 1.362 . S
H220 C226 0.930 . S
H221 C229 0.930 . S
H222 C230 0.930 . S
H223 C231 0.930 . S
H224 C234 0.930 . S
H225 C235 0.930 . S
C226 H220 0.930 . S
C226 C227 1.355 . S
C226 C228 1.415 . S
C227 C226 1.355 . S
C227 C229 1.419 . S
C228 C226 1.415 . S
C228 C233 1.425 . S
C228 C235 1.409 . S
C229 H221 0.930 . S
C229 C227 1.419 . S
C229 C230 1.362 . S
C230 H222 0.930 . S
C230 C229 1.362 . S
C230 C233 1.409 . S
C231 H223 0.930 . S
C231 C232 1.355 . S
C231 C233 1.415 . S
C232 C231 1.355 . S
C232 C234 1.419 . S
C233 C228 1.425 . S
C233 C230 1.409 . S
C233 C231 1.415 . S
C234 H224 0.930 . S
C234 C232 1.419 . S
C234 C235 1.362 . S
C235 H225 0.930 . S
C235 C228 1.409 . S
C235 C234 1.362 . S
H236 C242 0.930 . S
H237 C245 0.930 . S
H238 C246 0.930 . S
H239 C247 0.930 . S
H240 C250 0.930 . S
H241 C251 0.930 . S
C242 H236 0.930 . S
C242 C243 1.355 . S
C242 C244 1.415 . S
C243 C242 1.355 . S
C243 C245 1.419 . S
C244 C242 1.415 . S
C244 C249 1.425 . S
C244 C251 1.409 . S
C245 H237 0.930 . S
C245 C243 1.419 . S
C245 C246 1.362 . S
C246 H238 0.930 . S
C246 C245 1.362 . S
C246 C249 1.409 . S
C247 H239 0.930 . S
C247 C248 1.355 . S
C247 C249 1.415 . S
C248 C247 1.355 . S
C248 C250 1.419 . S
C249 C244 1.425 . S
C249 C246 1.409 . S
C249 C247 1.415 . S
C250 H240 0.930 . S
C250 C248 1.419 . S
C250 C251 1.362 . S
C251 H241 0.930 . S
C251 C244 1.409 . S
C251 C250 1.362 . S
H252 C258 0.930 . S
H253 C261 0.930 . S
H254 C262 0.930 . S
H255 C263 0.930 . S
H256 C266 0.930 . S
H257 C267 0.930 . S
C258 H252 0.930 . S
C258 C259 1.355 . S
C258 C260 1.415 1_544 S
C259 C258 1.355 . S
C259 C261 1.419 1_545 S
C260 C258 1.415 1_566 S
C260 C265 1.425 . S
C260 C267 1.409 1_565 S
C261 H253 0.930 . S
C261 C259 1.419 1_565 S
C261 C262 1.362 1_554 S
C262 H254 0.930 . S
C262 C261 1.362 1_556 S
C262 C265 1.409 . S
C263 H255 0.930 . S
C263 C264 1.355 . S
C263 C265 1.415 . S
C264 C263 1.355 . S
C264 C266 1.419 . S
C265 C260 1.425 . S
C265 C262 1.409 . S
C265 C263 1.415 . S
C266 H256 0.930 . S
C266 C264 1.419 . S
C266 C267 1.362 1_565 S
C267 H257 0.930 . S
C267 C260 1.409 1_545 S
C267 C266 1.362 1_545 S
H268 C274 0.930 . S
H269 C277 0.930 . S
H270 C278 0.930 . S
H271 C279 0.930 . S
H272 C282 0.930 . S
H273 C283 0.930 . S
C274 H268 0.930 . S
C274 C275 1.355 . S
C274 C276 1.415 . S
C275 C274 1.355 . S
C275 C277 1.419 . S
C276 C274 1.415 . S
C276 C281 1.425 . S
C276 C283 1.409 . S
C277 H269 0.930 . S
C277 C275 1.419 . S
C277 C278 1.362 . S
C278 H270 0.930 . S
C278 C277 1.362 . S
C278 C281 1.409 . S
C279 H271 0.930 . S
C279 C280 1.355 . S
C279 C281 1.415 . S
C280 C279 1.355 . S
C280 C282 1.419 . S
C281 C276 1.425 . S
C281 C278 1.409 . S
C281 C279 1.415 . S
C282 H272 0.930 . S
C282 C280 1.419 . S
C282 C283 1.362 . S
C283 H273 0.930 . S
C283 C276 1.409 . S
C283 C282 1.362 . S
H284 C290 0.930 . S
H285 C293 0.930 . S
H286 C294 0.930 . S
H287 C295 0.930 . S
H288 C298 0.930 . S
H289 C299 0.930 . S
C290 H284 0.930 . S
C290 C291 1.355 1_655 S
C290 C292 1.415 . S
C291 C290 1.355 1_455 S
C291 C293 1.419 . S
C292 C290 1.415 . S
C292 C297 1.425 . S
C292 C299 1.409 . S
C293 H285 0.930 . S
C293 C291 1.419 . S
C293 C294 1.362 . S
C294 H286 0.930 . S
C294 C293 1.362 . S
C294 C297 1.409 1_455 S
C295 H287 0.930 . S
C295 C296 1.355 . S
C295 C297 1.415 . S
C296 C295 1.355 . S
C296 C298 1.419 . S
C297 C292 1.425 . S
C297 C294 1.409 1_655 S
C297 C295 1.415 . S
C298 H288 0.930 . S
C298 C296 1.419 . S
C298 C299 1.362 . S
C299 H289 0.930 . S
C299 C292 1.409 . S
C299 C298 1.362 . S
H300 C306 0.930 . S
H301 C309 0.930 . S
H302 C310 0.930 . S
H303 C311 0.930 . S
H304 C314 0.930 . S
H305 C315 0.930 1_554 S
C306 H300 0.930 . S
C306 C307 1.355 1_545 S
C306 C308 1.415 1_554 S
C307 C306 1.355 1_565 S
C307 C309 1.419 1_554 S
C308 C306 1.415 1_556 S
C308 C313 1.425 . S
C308 C315 1.409 . S
C309 H301 0.930 . S
C309 C307 1.419 1_556 S
C309 C310 1.362 . S
C310 H302 0.930 . S
C310 C309 1.362 . S
C310 C313 1.409 1_565 S
C311 H303 0.930 . S
C311 C312 1.355 . S
C311 C313 1.415 . S
C312 C311 1.355 . S
C312 C314 1.419 . S
C313 C308 1.425 . S
C313 C310 1.409 1_545 S
C313 C311 1.415 . S
C314 H304 0.930 . S
C314 C312 1.419 . S
C314 C315 1.362 . S
C315 H305 0.930 1_556 S
C315 C308 1.409 . S
C315 C314 1.362 . S
H316 C322 0.930 . S
H317 C325 0.930 . S
H318 C326 0.930 . S
H319 C327 0.930 . S
H320 C330 0.930 . S
H321 C331 0.930 . S
C322 H316 0.930 . S
C322 C323 1.355 . S
C322 C324 1.415 . S
C323 C322 1.355 . S
C323 C325 1.419 . S
C324 C322 1.415 . S
C324 C329 1.425 . S
C324 C331 1.409 . S
C325 H317 0.930 . S
C325 C323 1.419 . S
C325 C326 1.362 . S
C326 H318 0.930 . S
C326 C325 1.362 . S
C326 C329 1.409 . S
C327 H319 0.930 . S
C327 C328 1.355 . S
C327 C329 1.415 . S
C328 C327 1.355 . S
C328 C330 1.419 . S
C329 C324 1.425 . S
C329 C326 1.409 . S
C329 C327 1.415 . S
C330 H320 0.930 . S
C330 C328 1.419 . S
C330 C331 1.362 . S
C331 H321 0.930 . S
C331 C324 1.409 . S
C331 C330 1.362 . S
H332 C338 0.930 . S
H333 C341 0.930 . S
H334 C342 0.930 . S
H335 C343 0.930 . S
H336 C346 0.930 . S
H337 C347 0.930 . S
C338 H332 0.930 . S
C338 C339 1.355 . S
C338 C340 1.415 . S
C339 C338 1.355 . S
C339 C341 1.419 . S
C340 C338 1.415 . S
C340 C345 1.425 . S
C340 C347 1.409 1_455 S
C341 H333 0.930 . S
C341 C339 1.419 . S
C341 C342 1.362 . S
C342 H334 0.930 . S
C342 C341 1.362 . S
C342 C345 1.409 . S
C343 H335 0.930 . S
C343 C344 1.355 1_455 S
C343 C345 1.415 . S
C344 C343 1.355 1_655 S
C344 C346 1.419 . S
C345 C340 1.425 . S
C345 C342 1.409 . S
C345 C343 1.415 . S
C346 H336 0.930 . S
C346 C344 1.419 . S
C346 C347 1.362 . S
C347 H337 0.930 . S
C347 C340 1.409 1_655 S
C347 C346 1.362 . S
H348 C354 0.930 . S
H349 C357 0.930 . S
H350 C358 0.937 . S
H351 C359 0.930 . S
H352 C362 0.930 . S
H353 C363 0.937 . S
C354 H348 0.930 . S
C354 C355 1.355 . S
C354 C356 1.415 . S
C355 C354 1.355 . S
C355 C357 1.419 . S
C356 C354 1.415 . S
C356 C361 1.425 1_565 S
C356 C363 1.409 1_565 S
C357 H349 0.930 . S
C357 C355 1.419 . S
C357 C358 1.362 . S
C358 H350 0.937 . S
C358 C357 1.362 . S
C358 C361 1.409 1_565 S
C359 H351 0.930 . S
C359 C360 1.355 . S
C359 C361 1.415 . S
C360 C359 1.355 . S
C360 C362 1.419 . S
C361 C356 1.425 1_545 S
C361 C358 1.409 1_545 S
C361 C359 1.415 . S
C362 H352 0.930 . S
C362 C360 1.419 . S
C362 C363 1.362 . S
C363 H353 0.937 . S
C363 C356 1.409 1_545 S
C363 C362 1.362 . S
H364 C370 0.930 . S
H365 C373 0.930 . S
H366 C374 0.930 . S
H367 C375 0.930 . S
H368 C378 0.930 . S
H369 C379 0.930 . S
C370 H364 0.930 . S
C370 C371 1.355 . S
C370 C372 1.415 . S
C371 C370 1.355 . S
C371 C373 1.419 . S
C372 C370 1.415 . S
C372 C377 1.425 . S
C372 C379 1.409 . S
C373 H365 0.930 . S
C373 C371 1.419 . S
C373 C374 1.362 . S
C374 H366 0.930 . S
C374 C373 1.362 . S
C374 C377 1.409 . S
C375 H367 0.930 . S
C375 C376 1.355 . S
C375 C377 1.415 . S
C376 C375 1.355 . S
C376 C378 1.419 . S
C377 C372 1.425 . S
C377 C374 1.409 . S
C377 C375 1.415 . S
C378 H368 0.930 . S
C378 C376 1.419 . S
C378 C379 1.362 . S
C379 H369 0.930 . S
C379 C372 1.409 . S
C379 C378 1.362 . S
H380 C386 0.930 . S
H381 C389 0.930 . S
H382 C390 0.930 . S
H383 C391 0.930 . S
H384 C394 0.930 . S
H385 C395 0.930 . S
C386 H380 0.930 . S
C386 C387 1.355 . S
C386 C388 1.415 . S
C387 C386 1.355 . S
C387 C389 1.419 . S
C388 C386 1.415 . S
C388 C393 1.425 1_455 S
C388 C395 1.409 1_455 S
C389 H381 0.930 . S
C389 C387 1.419 . S
C389 C390 1.362 . S
C390 H382 0.930 . S
C390 C389 1.362 . S
C390 C393 1.409 1_455 S
C391 H383 0.930 . S
C391 C392 1.355 . S
C391 C393 1.415 . S
C392 C391 1.355 . S
C392 C394 1.419 . S
C393 C388 1.425 1_655 S
C393 C390 1.409 1_655 S
C393 C391 1.415 . S
C394 H384 0.930 . S
C394 C392 1.419 . S
C394 C395 1.362 . S
C395 H385 0.930 . S
C395 C388 1.409 1_655 S
C395 C394 1.362 . S
H396 C402 0.930 . S
H397 C405 0.930 . S
H398 C406 0.930 . S
H399 C407 0.930 . S
H400 C410 0.930 . S
H401 C411 0.930 . S
C402 H396 0.930 . S
C402 C403 1.355 . S
C402 C404 1.415 . S
C403 C402 1.355 . S
C403 C405 1.419 1_655 S
C404 C402 1.415 . S
C404 C409 1.425 1_655 S
C404 C411 1.409 . S
C405 H397 0.930 . S
C405 C403 1.419 1_455 S
C405 C406 1.362 . S
C406 H398 0.930 . S
C406 C405 1.362 . S
C406 C409 1.409 . S
C407 H399 0.930 . S
C407 C408 1.355 . S
C407 C409 1.415 . S
C408 C407 1.355 . S
C408 C410 1.419 1_455 S
C409 C404 1.425 1_455 S
C409 C406 1.409 . S
C409 C407 1.415 . S
C410 H400 0.930 . S
C410 C408 1.419 1_655 S
C410 C411 1.362 . S
C411 H401 0.930 . S
C411 C404 1.409 . S
C411 C410 1.362 . S
H412 C418 0.930 . S
H413 C421 0.930 . S
H414 C422 0.930 . S
H415 C423 0.930 . S
H416 C426 0.930 . S
H417 C427 0.930 . S
C418 H412 0.930 . S
C418 C419 1.355 . S
C418 C420 1.415 1_565 S
C419 C418 1.355 . S
C419 C421 1.419 . S
C420 C418 1.415 1_545 S
C420 C425 1.425 1_545 S
C420 C427 1.409 . S
C421 H413 0.930 . S
C421 C419 1.419 . S
C421 C422 1.362 . S
C422 H414 0.930 . S
C422 C421 1.362 . S
C422 C425 1.409 . S
C423 H415 0.930 . S
C423 C424 1.355 . S
C423 C425 1.415 1_545 S
C424 C423 1.355 . S
C424 C426 1.419 . S
C425 C420 1.425 1_565 S
C425 C422 1.409 . S
C425 C423 1.415 1_565 S
C426 H416 0.930 . S
C426 C424 1.419 . S
C426 C427 1.362 . S
C427 H417 0.930 . S
C427 C420 1.409 . S
C427 C426 1.362 . S
H428 C434 0.930 . S
H429 C437 0.930 . S
H430 C438 0.930 . S
H431 C439 0.930 . S
H432 C442 0.930 . S
H433 C443 0.930 . S
C434 H428 0.930 . S
C434 C435 1.355 . S
C434 C436 1.415 . S
C435 C434 1.355 . S
C435 C437 1.419 . S
C436 C434 1.415 . S
C436 C441 1.425 . S
C436 C443 1.409 . S
C437 H429 0.930 . S
C437 C435 1.419 . S
C437 C438 1.362 . S
C438 H430 0.930 . S
C438 C437 1.362 . S
C438 C441 1.409 . S
C439 H431 0.930 . S
C439 C440 1.355 . S
C439 C441 1.415 . S
C440 C439 1.355 . S
C440 C442 1.419 . S
C441 C436 1.425 . S
C441 C438 1.409 . S
C441 C439 1.415 . S
C442 H432 0.930 . S
C442 C440 1.419 . S
C442 C443 1.362 . S
C443 H433 0.930 . S
C443 C436 1.409 . S
C443 C442 1.362 . S
H444 C450 0.930 . S
H445 C453 0.930 . S
H446 C454 0.930 . S
H447 C455 0.930 . S
H448 C458 0.930 . S
H449 C459 0.930 . S
C450 H444 0.930 . S
C450 C451 1.355 . S
C450 C452 1.415 . S
C451 C450 1.355 . S
C451 C453 1.419 . S
C452 C450 1.415 . S
C452 C457 1.425 . S
C452 C459 1.409 . S
C453 H445 0.930 . S
C453 C451 1.419 . S
C453 C454 1.362 . S
C454 H446 0.930 . S
C454 C453 1.362 . S
C454 C457 1.409 . S
C455 H447 0.930 . S
C455 C456 1.355 . S
C455 C457 1.415 . S
C456 C455 1.355 . S
C456 C458 1.419 . S
C457 C452 1.425 . S
C457 C454 1.409 . S
C457 C455 1.415 . S
C458 H448 0.930 . S
C458 C456 1.419 . S
C458 C459 1.362 . S
C459 H449 0.930 . S
C459 C452 1.409 . S
C459 C458 1.362 . S
H460 C466 0.930 . S
H461 C469 0.930 . S
H462 C470 0.930 . S
H463 C471 0.930 . S
H464 C474 0.930 . S
H465 C475 0.930 . S
C466 H460 0.930 . S
C466 C467 1.355 . S
C466 C468 1.415 . S
C467 C466 1.355 . S
C467 C469 1.419 . S
C468 C466 1.415 . S
C468 C473 1.425 . S
C468 C475 1.409 . S
C469 H461 0.930 . S
C469 C467 1.419 . S
C469 C470 1.362 . S
C470 H462 0.930 . S
C470 C469 1.362 . S
C470 C473 1.409 . S
C471 H463 0.930 . S
C471 C472 1.355 . S
C471 C473 1.415 . S
C472 C471 1.355 . S
C472 C474 1.419 . S
C473 C468 1.425 . S
C473 C470 1.409 . S
C473 C471 1.415 . S
C474 H464 0.930 . S
C474 C472 1.419 . S
C474 C475 1.362 . S
C475 H465 0.930 . S
C475 C468 1.409 . S
C475 C474 1.362 . S
H476 C482 0.930 . S
H477 C485 0.930 . S
H478 C486 0.930 . S
H479 C487 0.930 . S
H480 C490 0.930 . S
H481 C491 0.930 . S
C482 H476 0.930 . S
C482 C483 1.355 . S
C482 C484 1.415 . S
C483 C482 1.355 . S
C483 C485 1.419 . S
C484 C482 1.415 . S
C484 C489 1.425 . S
C484 C491 1.409 . S
C485 H477 0.930 . S
C485 C483 1.419 . S
C485 C486 1.362 . S
C486 H478 0.930 . S
C486 C485 1.362 . S
C486 C489 1.409 . S
C487 H479 0.930 . S
C487 C488 1.355 . S
C487 C489 1.415 . S
C488 C487 1.355 . S
C488 C490 1.419 . S
C489 C484 1.425 . S
C489 C486 1.409 . S
C489 C487 1.415 . S
C490 H480 0.930 . S
C490 C488 1.419 . S
C490 C491 1.362 . S
C491 H481 0.930 . S
C491 C484 1.409 . S
C491 C490 1.362 . S
H492 C498 0.930 . S
H493 C501 0.930 . S
H494 C502 0.930 . S
H495 C503 0.930 . S
H496 C506 0.930 . S
H497 C507 0.930 . S
C498 H492 0.930 . S
C498 C499 1.355 . S
C498 C500 1.415 . S
C499 C498 1.355 . S
C499 C501 1.419 . S
C500 C498 1.415 . S
C500 C505 1.425 . S
C500 C507 1.409 . S
C501 H493 0.930 . S
C501 C499 1.419 . S
C501 C502 1.362 . S
C502 H494 0.930 . S
C502 C501 1.362 . S
C502 C505 1.409 . S
C503 H495 0.930 . S
C503 C504 1.355 . S
C503 C505 1.415 . S
C504 C503 1.355 . S
C504 C506 1.419 . S
C505 C500 1.425 . S
C505 C502 1.409 . S
C505 C503 1.415 . S
C506 H496 0.930 . S
C506 C504 1.419 . S
C506 C507 1.362 . S
C507 H497 0.930 . S
C507 C500 1.409 . S
C507 C506 1.362 . S
H508 C514 0.930 . S
H509 C517 0.930 . S
H510 C518 0.930 . S
H511 C519 0.930 . S
H512 C522 0.930 . S
H513 C523 0.930 . S
C514 H508 0.930 . S
C514 C515 1.355 . S
C514 C516 1.415 . S
C515 C514 1.355 . S
C515 C517 1.419 . S
C516 C514 1.415 . S
C516 C521 1.425 . S
C516 C523 1.409 . S
C517 H509 0.930 . S
C517 C515 1.419 . S
C517 C518 1.362 . S
C518 H510 0.930 . S
C518 C517 1.362 . S
C518 C521 1.409 . S
C519 H511 0.930 . S
C519 C520 1.355 . S
C519 C521 1.415 . S
C520 C519 1.355 . S
C520 C522 1.419 . S
C521 C516 1.425 . S
C521 C518 1.409 . S
C521 C519 1.415 . S
C522 H512 0.930 . S
C522 C520 1.419 . S
C522 C523 1.362 . S
C523 H513 0.930 . S
C523 C516 1.409 . S
C523 C522 1.362 . S
H524 C530 0.930 . S
H525 C533 0.930 . S
H526 C534 0.930 . S
H527 C535 0.930 . S
H528 C538 0.930 . S
H529 C539 0.930 . S
C530 H524 0.930 . S
C530 C531 1.355 . S
C530 C532 1.415 . S
C531 C530 1.355 . S
C531 C533 1.419 . S
C532 C530 1.415 . S
C532 C537 1.425 . S
C532 C539 1.409 . S
C533 H525 0.930 . S
C533 C531 1.419 . S
C533 C534 1.362 . S
C534 H526 0.930 . S
C534 C533 1.362 . S
C534 C537 1.409 . S
C535 H527 0.930 . S
C535 C536 1.355 . S
C535 C537 1.415 . S
C536 C535 1.355 . S
C536 C538 1.419 . S
C537 C532 1.425 . S
C537 C534 1.409 . S
C537 C535 1.415 . S
C538 H528 0.930 . S
C538 C536 1.419 . S
C538 C539 1.362 . S
C539 H529 0.930 . S
C539 C532 1.409 . S
C539 C538 1.362 . S
C163 C8 0.526 . S
C168 C138 0.685 . S
C179 C151 0.848 . S
C184 C21 0.644 . S
C195 C86 0.516 . S
C200 C34 0.719 . S
C211 C47 0.683 . S
C216 C99 0.706 . S
C227 C60 0.848 . S
C232 C112 0.644 . S
C243 C125 0.624 . S
C248 C73 0.781 . S
C259 C5 1.034 . S
C264 C96 1.180 . S
C275 C109 1.014 . S
C280 C18 0.891 . S
C291 C122 0.816 . S
C296 C31 1.238 . S
C307 C44 0.920 . S
C312 C135 1.213 . S
C323 C148 0.945 . S
C328 C57 0.944 . S
C339 C70 1.237 . S
C344 C83 0.821 . S
C355 C49 0.939 . S
C360 C10 0.787 . S
C371 C62 1.012 . S
C376 C23 0.981 . S
C387 C75 0.831 . S
C392 C36 0.607 . S
C403 C88 0.880 . S
C408 C127 0.898 . S
C419 C101 0.748 . S
C424 C140 0.663 . S
C435 C114 0.847 . S
C440 C153 0.983 . S
C451 C104 1.547 . S
C456 C0 1.417 . S
C467 C117 1.503 . S
C472 C13 1.587 . S
C483 C130 1.583 . S
C488 C26 1.573 . S
C499 C143 1.578 . S
C504 C39 1.487 . S
C515 C78 1.433 . S
C520 C52 1.560 . S
C531 C65 1.581 . S
C536 C91 1.593 . S
