# Generated by pormake.
# Topology umc, (4)-cn, num edge types: 1
# Building blocks:
#     Node 0, Type 0, BuildingBlock: CEKHIL_clean_sbu_0, # of connection points: 4
#     Node 1, Type 0, BuildingBlock: CEKHIL_clean_sbu_0, # of connection points: 4
#     Node 2, Type 0, BuildingBlock: CEKHIL_clean_sbu_0, # of connection points: 4
#     Node 3, Type 0, BuildingBlock: CEKHIL_clean_sbu_0, # of connection points: 4
#     Node 4, Type 0, BuildingBlock: CEKHIL_clean_sbu_0, # of connection points: 4
#     Node 5, Type 0, BuildingBlock: CEKHIL_clean_sbu_0, # of connection points: 4
#     Node 6, Type 0, BuildingBlock: CEKHIL_clean_sbu_0, # of connection points: 4
#     Node 7, Type 0, BuildingBlock: CEKHIL_clean_sbu_0, # of connection points: 4
#     Node 8, Type 0, BuildingBlock: CEKHIL_clean_sbu_0, # of connection points: 4
#     Node 9, Type 0, BuildingBlock: CEKHIL_clean_sbu_0, # of connection points: 4
#     Node 10, Type 0, BuildingBlock: CEKHIL_clean_sbu_0, # of connection points: 4
#     Node 11, Type 0, BuildingBlock: CEKHIL_clean_sbu_0, # of connection points: 4
#     Node 12, Type 0, BuildingBlock: CEKHIL_clean_sbu_0, # of connection points: 4
#     Node 13, Type 0, BuildingBlock: CEKHIL_clean_sbu_0, # of connection points: 4
#     Node 14, Type 0, BuildingBlock: CEKHIL_clean_sbu_0, # of connection points: 4
#     Node 15, Type 0, BuildingBlock: CEKHIL_clean_sbu_0, # of connection points: 4
#     Edge 16, Type (0, 0), BuildingBlock: OJICUG_clean_linker_0, # of connection points: 2
#     Edge 17, Type (0, 0), BuildingBlock: OJICUG_clean_linker_0, # of connection points: 2
#     Edge 18, Type (0, 0), BuildingBlock: OJICUG_clean_linker_0, # of connection points: 2
#     Edge 19, Type (0, 0), BuildingBlock: OJICUG_clean_linker_0, # of connection points: 2
#     Edge 20, Type (0, 0), BuildingBlock: OJICUG_clean_linker_0, # of connection points: 2
#     Edge 21, Type (0, 0), BuildingBlock: OJICUG_clean_linker_0, # of connection points: 2
#     Edge 22, Type (0, 0), BuildingBlock: OJICUG_clean_linker_0, # of connection points: 2
#     Edge 23, Type (0, 0), BuildingBlock: OJICUG_clean_linker_0, # of connection points: 2
#     Edge 24, Type (0, 0), BuildingBlock: OJICUG_clean_linker_0, # of connection points: 2
#     Edge 25, Type (0, 0), BuildingBlock: OJICUG_clean_linker_0, # of connection points: 2
#     Edge 26, Type (0, 0), BuildingBlock: OJICUG_clean_linker_0, # of connection points: 2
#     Edge 27, Type (0, 0), BuildingBlock: OJICUG_clean_linker_0, # of connection points: 2
#     Edge 28, Type (0, 0), BuildingBlock: OJICUG_clean_linker_0, # of connection points: 2
#     Edge 29, Type (0, 0), BuildingBlock: OJICUG_clean_linker_0, # of connection points: 2
#     Edge 30, Type (0, 0), BuildingBlock: OJICUG_clean_linker_0, # of connection points: 2
#     Edge 31, Type (0, 0), BuildingBlock: OJICUG_clean_linker_0, # of connection points: 2
#     Edge 32, Type (0, 0), BuildingBlock: OJICUG_clean_linker_0, # of connection points: 2
#     Edge 33, Type (0, 0), BuildingBlock: OJICUG_clean_linker_0, # of connection points: 2
#     Edge 34, Type (0, 0), BuildingBlock: OJICUG_clean_linker_0, # of connection points: 2
#     Edge 35, Type (0, 0), BuildingBlock: OJICUG_clean_linker_0, # of connection points: 2
#     Edge 36, Type (0, 0), BuildingBlock: OJICUG_clean_linker_0, # of connection points: 2
#     Edge 37, Type (0, 0), BuildingBlock: OJICUG_clean_linker_0, # of connection points: 2
#     Edge 38, Type (0, 0), BuildingBlock: OJICUG_clean_linker_0, # of connection points: 2
#     Edge 39, Type (0, 0), BuildingBlock: OJICUG_clean_linker_0, # of connection points: 2
#     Edge 40, Type (0, 0), BuildingBlock: OJICUG_clean_linker_0, # of connection points: 2
#     Edge 41, Type (0, 0), BuildingBlock: OJICUG_clean_linker_0, # of connection points: 2
#     Edge 42, Type (0, 0), BuildingBlock: OJICUG_clean_linker_0, # of connection points: 2
#     Edge 43, Type (0, 0), BuildingBlock: OJICUG_clean_linker_0, # of connection points: 2
#     Edge 44, Type (0, 0), BuildingBlock: OJICUG_clean_linker_0, # of connection points: 2
#     Edge 45, Type (0, 0), BuildingBlock: OJICUG_clean_linker_0, # of connection points: 2
#     Edge 46, Type (0, 0), BuildingBlock: OJICUG_clean_linker_0, # of connection points: 2
#     Edge 47, Type (0, 0), BuildingBlock: OJICUG_clean_linker_0, # of connection points: 2
# Relax obj value: 0.081
# Max RMSD: 0.168
# Mean RMSD: 0.168
data_MOF--net-umc--node1-CEKHIL_clean_sbu_0--edge1-OJICUG_clean_linker_0
_symmetry_space_group_name_H-M    P1
_symmetry_Int_Tables_number       1
_symmetry_cell_setting            triclinic
loop_
_symmetry_equiv_pos_as_xyz
'x, y, z'
_cell_length_a     33.235152
_cell_length_b     24.154096
_cell_length_c     40.027782
_cell_angle_alpha  90.000015
_cell_angle_beta   89.999054
_cell_angle_gamma 89.998435
loop_
_atom_site_label
_atom_site_type_symbol
_atom_site_fract_x
_atom_site_fract_y
_atom_site_fract_z
_atom_type_partial_charge
Co0 Co 0.34102 0.07495 0.36822 0.0
O1 O 0.28889 0.10958 0.36868 0.0
O2 O 0.34457 0.14959 0.38668 0.0
C3 C 0.3374 0.04381 0.31551 0.0
O4 O 0.4004 0.04987 0.37015 0.0
Co5 Co 0.34368 0.94744 0.36171 0.0
O6 O 0.40238 0.959 0.35726 0.0
C7 C 0.32289 0.9961 0.42641 0.0
C8 C 0.30591 0.15289 0.38136 0.0
C9 C 0.41998 0.00451 0.36404 0.0
O10 O 0.33056 0.04393 0.41392 0.0
O11 O 0.32388 0.95145 0.4092 0.0
O12 O 0.34813 0.09442 0.32163 0.0
O13 O 0.32499 0.01554 0.34105 0.0
Co14 Co 0.67447 0.92818 0.36815 0.0
O15 O 0.72672 0.89391 0.36856 0.0
O16 O 0.67125 0.85356 0.3867 0.0
C17 C 0.67784 0.95913 0.3154 0.0
O18 O 0.61501 0.95293 0.37014 0.0
Co19 Co 0.67152 0.05568 0.36147 0.0
O20 O 0.61286 0.04375 0.35711 0.0
C21 C 0.69238 0.00736 0.42624 0.0
C22 C 0.70991 0.8505 0.3813 0.0
C23 C 0.59535 0.99821 0.36398 0.0
O24 O 0.68491 0.95943 0.4138 0.0
O25 O 0.69124 0.05195 0.40899 0.0
O26 O 0.66731 0.90847 0.32161 0.0
O27 O 0.69024 0.98756 0.34087 0.0
Co28 Co 0.3401 0.92929 0.12809 0.0
O29 O 0.28783 0.89503 0.12763 0.0
O30 O 0.34335 0.8547 0.10955 0.0
C31 C 0.3367 0.96033 0.18082 0.0
O32 O 0.39959 0.95388 0.12613 0.0
Co33 Co 0.34335 0.05677 0.13472 0.0
O34 O 0.402 0.04469 0.13912 0.0
C35 C 0.32236 0.00848 0.06997 0.0
C36 C 0.30469 0.85163 0.1149 0.0
C37 C 0.41938 0.99904 0.13228 0.0
O38 O 0.32974 0.96054 0.08242 0.0
O39 O 0.3236 0.05307 0.08722 0.0
O40 O 0.34718 0.90964 0.17465 0.0
O41 O 0.32437 0.98877 0.15532 0.0
Co42 Co 0.67412 0.0734 0.12793 0.0
O43 O 0.72644 0.10748 0.1275 0.0
O44 O 0.67101 0.14806 0.10945 0.0
C45 C 0.67752 0.0423 0.18065 0.0
O46 O 0.61459 0.04896 0.12599 0.0
Co47 Co 0.67075 0.94593 0.1345 0.0
O48 O 0.61213 0.95816 0.13898 0.0
C49 C 0.69175 0.99427 0.06977 0.0
C50 C 0.70967 0.15098 0.11482 0.0
C51 C 0.59477 0.00383 0.13216 0.0
O52 O 0.68442 0.04221 0.08225 0.0
O53 O 0.69047 0.94965 0.08698 0.0
O54 O 0.66708 0.09301 0.1745 0.0
O55 O 0.68979 0.01386 0.15514 0.0
Co56 Co 0.67399 0.92861 0.62793 0.0
O57 O 0.72622 0.8943 0.62757 0.0
O58 O 0.67074 0.85395 0.60945 0.0
C59 C 0.67735 0.95969 0.68065 0.0
O60 O 0.61454 0.95341 0.62592 0.0
Co61 Co 0.67108 0.05612 0.63447 0.0
O62 O 0.61242 0.04425 0.63887 0.0
C63 C 0.69205 0.00761 0.56978 0.0
C64 C 0.70939 0.85088 0.61486 0.0
C65 C 0.59489 0.9987 0.63205 0.0
O66 O 0.68448 0.95974 0.58226 0.0
O67 O 0.69092 0.05224 0.58699 0.0
O68 O 0.66679 0.90903 0.67448 0.0
O69 O 0.68978 0.98805 0.65516 0.0
Co70 Co 0.34052 0.07533 0.6281 0.0
O71 O 0.28838 0.10991 0.62763 0.0
O72 O 0.34402 0.14994 0.60959 0.0
C73 C 0.33693 0.04428 0.68083 0.0
O74 O 0.39992 0.05031 0.62617 0.0
Co75 Co 0.34325 0.94783 0.63472 0.0
O76 O 0.40194 0.95947 0.63912 0.0
C77 C 0.32254 0.99633 0.56996 0.0
C78 C 0.30537 0.15322 0.61492 0.0
C79 C 0.41952 0.00498 0.63229 0.0
O80 O 0.3301 0.04421 0.58242 0.0
O81 O 0.32357 0.95172 0.58719 0.0
O82 O 0.34762 0.0949 0.67468 0.0
O83 O 0.32454 0.01596 0.65531 0.0
Co84 Co 0.67414 0.07381 0.86815 0.0
O85 O 0.72648 0.10787 0.8686 0.0
O86 O 0.67106 0.14842 0.88671 0.0
C87 C 0.67749 0.04284 0.81541 0.0
O88 O 0.61461 0.04939 0.87011 0.0
Co89 Co 0.67075 0.94635 0.86145 0.0
O90 O 0.61212 0.95862 0.85704 0.0
C91 C 0.69178 0.9945 0.92623 0.0
C92 C 0.70972 0.15134 0.88133 0.0
C93 C 0.59478 0.00428 0.86392 0.0
O94 O 0.68447 0.04248 0.9138 0.0
O95 O 0.69048 0.94993 0.90897 0.0
O96 O 0.66707 0.09355 0.82161 0.0
O97 O 0.68977 0.01434 0.84089 0.0
Co98 Co 0.34013 0.92966 0.86823 0.0
O99 O 0.28788 0.89537 0.8687 0.0
O100 O 0.34342 0.85504 0.88672 0.0
C101 C 0.33666 0.9608 0.81553 0.0
O102 O 0.39962 0.95428 0.87016 0.0
Co103 Co 0.34334 0.05714 0.8617 0.0
O104 O 0.40199 0.04511 0.85724 0.0
C105 C 0.32239 0.0087 0.92642 0.0
C106 C 0.30476 0.85195 0.88139 0.0
C107 C 0.41939 0.99946 0.86403 0.0
O108 O 0.32981 0.9608 0.91393 0.0
O109 O 0.3236 0.05334 0.90922 0.0
O110 O 0.34717 0.91011 0.82166 0.0
O111 O 0.32435 0.98919 0.84105 0.0
Co112 Co 0.84125 0.57379 0.36826 0.0
O113 O 0.7889 0.60782 0.36864 0.0
O114 O 0.8443 0.64849 0.38669 0.0
C115 C 0.83791 0.54254 0.31556 0.0
O116 O 0.9008 0.54945 0.37026 0.0
Co117 Co 0.84474 0.44631 0.36181 0.0
O118 O 0.90336 0.4586 0.35742 0.0
C119 C 0.8236 0.49479 0.42648 0.0
C120 C 0.80564 0.65135 0.38131 0.0
C121 C 0.92067 0.50433 0.36419 0.0
O122 O 0.83094 0.5427 0.41397 0.0
O123 O 0.82492 0.45014 0.40929 0.0
O124 O 0.84831 0.59329 0.32167 0.0
O125 O 0.82565 0.51416 0.3411 0.0
Co126 Co 0.17539 0.43023 0.36841 0.0
O127 O 0.22768 0.39602 0.36884 0.0
O128 O 0.17224 0.35573 0.38709 0.0
C129 C 0.17865 0.46094 0.31561 0.0
O130 O 0.11589 0.45475 0.3704 0.0
Co131 Co 0.17203 0.55764 0.36153 0.0
O132 O 0.11339 0.54545 0.35718 0.0
C133 C 0.19314 0.50976 0.42636 0.0
C134 C 0.21088 0.35265 0.38164 0.0
C135 C 0.09605 0.49983 0.36416 0.0
O136 O 0.18584 0.46173 0.414 0.0
O137 O 0.19177 0.55427 0.40905 0.0
O138 O 0.16821 0.41028 0.32192 0.0
O139 O 0.19103 0.48956 0.34102 0.0
Co140 Co 0.8408 0.42785 0.12816 0.0
O141 O 0.78854 0.39359 0.12781 0.0
O142 O 0.84399 0.35322 0.10964 0.0
C143 C 0.83751 0.45893 0.1809 0.0
O144 O 0.90027 0.45256 0.12611 0.0
Co145 Co 0.84382 0.55537 0.13475 0.0
O146 O 0.90249 0.54341 0.13904 0.0
C147 C 0.82281 0.50694 0.07005 0.0
C148 C 0.80535 0.35018 0.11505 0.0
C149 C 0.91996 0.49783 0.13219 0.0
O150 O 0.83031 0.45904 0.0825 0.0
O151 O 0.82398 0.55155 0.08728 0.0
O152 O 0.84801 0.40824 0.17472 0.0
O153 O 0.82509 0.4873 0.15541 0.0
Co154 Co 0.17437 0.5741 0.1279 0.0
O155 O 0.22653 0.60862 0.12749 0.0
O156 O 0.17096 0.64867 0.10932 0.0
C157 C 0.17784 0.54324 0.18067 0.0
O158 O 0.11496 0.54912 0.12591 0.0
Co159 Co 0.17157 0.44665 0.13461 0.0
O160 O 0.11288 0.45834 0.13898 0.0
C161 C 0.1925 0.49493 0.06985 0.0
C162 C 0.2096 0.65193 0.11473 0.0
C163 C 0.09533 0.50384 0.13208 0.0
O164 O 0.18492 0.54284 0.08227 0.0
O165 O 0.19137 0.45035 0.08711 0.0
O166 O 0.16715 0.59383 0.17442 0.0
O167 O 0.19029 0.5148 0.15521 0.0
Co168 Co 0.17489 0.43061 0.62786 0.0
O169 O 0.22715 0.39635 0.62746 0.0
O170 O 0.17169 0.35607 0.60923 0.0
C171 C 0.17816 0.46141 0.68064 0.0
O172 O 0.11539 0.45519 0.62586 0.0
Co173 Co 0.17159 0.55802 0.63463 0.0
O174 O 0.11294 0.54591 0.63903 0.0
C175 C 0.19278 0.50998 0.56987 0.0
C176 C 0.21033 0.35297 0.61468 0.0
C177 C 0.09558 0.50029 0.63209 0.0
O178 O 0.18538 0.462 0.58226 0.0
O179 O 0.19145 0.55453 0.58715 0.0
O180 O 0.16768 0.41076 0.67436 0.0
O181 O 0.19055 0.48998 0.65522 0.0
Co182 Co 0.84075 0.57422 0.6282 0.0
O183 O 0.78839 0.60821 0.62776 0.0
O184 O 0.84378 0.64887 0.6097 0.0
C185 C 0.83741 0.54309 0.68092 0.0
O186 O 0.90031 0.54992 0.62623 0.0
Co187 Co 0.84428 0.44674 0.63478 0.0
O188 O 0.9029 0.45909 0.63914 0.0
C189 C 0.82326 0.49503 0.57003 0.0
C190 C 0.80512 0.65172 0.61506 0.0
C191 C 0.92019 0.50481 0.63232 0.0
O192 O 0.8305 0.543 0.58251 0.0
O193 O 0.82459 0.45042 0.58726 0.0
O194 O 0.84777 0.59384 0.67478 0.0
O195 O 0.82517 0.51464 0.6554 0.0
Co196 Co 0.1744 0.57447 0.86837 0.0
O197 O 0.22657 0.60897 0.86877 0.0
O198 O 0.17103 0.64901 0.88701 0.0
C199 C 0.17779 0.54372 0.81558 0.0
O200 O 0.11498 0.54954 0.87039 0.0
Co201 Co 0.17155 0.44703 0.86155 0.0
O202 O 0.11286 0.45878 0.85725 0.0
C203 C 0.19253 0.49516 0.92634 0.0
C204 C 0.20966 0.65226 0.88157 0.0
C205 C 0.09533 0.50428 0.8642 0.0
O206 O 0.18497 0.54311 0.91397 0.0
O207 O 0.19137 0.45062 0.90905 0.0
O208 O 0.16714 0.59431 0.82187 0.0
O209 O 0.19025 0.51522 0.84101 0.0
Co210 Co 0.84081 0.42827 0.86829 0.0
O211 O 0.78857 0.39398 0.86864 0.0
O212 O 0.84404 0.35358 0.88674 0.0
C213 C 0.83746 0.45947 0.81559 0.0
O214 O 0.90028 0.453 0.87034 0.0
Co215 Co 0.8438 0.55579 0.86184 0.0
O216 O 0.90247 0.54388 0.85749 0.0
C217 C 0.82283 0.50718 0.9265 0.0
C218 C 0.80539 0.35054 0.88134 0.0
C219 C 0.91996 0.49829 0.86428 0.0
O220 O 0.83035 0.45932 0.91399 0.0
O221 O 0.82398 0.55184 0.90931 0.0
O222 O 0.848 0.40879 0.82172 0.0
O223 O 0.82506 0.48779 0.8411 0.0
C224 C 0.32053 0.94345 0.48069 0.0
C225 C 0.31573 0.99324 0.46289 0.0
H226 H 0.32632 0.9051 0.52881 0.0
C227 C 0.30788 0.04217 0.48074 0.0
H228 H 0.32648 0.905 0.46767 0.0
C229 C 0.30779 0.04222 0.51552 0.0
C230 C 0.31554 0.99335 0.53345 0.0
H231 H 0.30334 0.08113 0.46786 0.0
H232 H 0.30318 0.08122 0.52834 0.0
C233 C 0.32043 0.9435 0.51572 0.0
C234 C 0.69424 0.06028 0.5155 0.0
C235 C 0.69922 0.01052 0.5333 0.0
H236 H 0.6883 0.09858 0.46738 0.0
C237 C 0.70724 0.96164 0.51546 0.0
H238 H 0.68815 0.09868 0.52852 0.0
C239 C 0.70734 0.96158 0.48067 0.0
C240 C 0.6994 0.0104 0.46274 0.0
H241 H 0.71193 0.92272 0.52834 0.0
H242 H 0.71208 0.92261 0.46786 0.0
C243 C 0.69433 0.06022 0.48047 0.0
C244 C 0.32041 0.06133 0.01574 0.0
C245 C 0.3153 0.01153 0.03348 0.0
H246 H 0.32653 0.09977 0.96768 0.0
C247 C 0.30725 0.96274 0.01556 0.0
H248 H 0.32652 0.09967 0.02882 0.0
C249 C 0.30726 0.96279 0.98078 0.0
C250 C 0.31532 0.01164 0.96292 0.0
H251 H 0.30246 0.92378 0.02839 0.0
H252 H 0.30248 0.92388 0.9679 0.0
C253 C 0.32041 0.06139 0.98071 0.0
C254 C 0.69357 0.94163 0.98045 0.0
C255 C 0.69884 0.9914 0.96272 0.0
H256 H 0.68731 0.90323 0.02851 0.0
C257 C 0.70705 0.04014 0.98064 0.0
H258 H 0.68733 0.90333 0.96737 0.0
C259 C 0.70704 0.04008 0.01542 0.0
C260 C 0.69883 0.99128 0.03328 0.0
H261 H 0.71196 0.07906 0.96781 0.0
H262 H 0.71195 0.07897 0.02829 0.0
C263 C 0.69357 0.94157 0.01548 0.0
C264 C 0.80826 0.54077 0.5156 0.0
C265 C 0.8163 0.49198 0.53353 0.0
H266 H 0.80358 0.57962 0.46793 0.0
C267 C 0.82149 0.44219 0.5158 0.0
H268 H 0.80342 0.57972 0.52841 0.0
C269 C 0.82158 0.44213 0.48077 0.0
C270 C 0.81648 0.49187 0.46297 0.0
H271 H 0.82759 0.40385 0.52888 0.0
H272 H 0.82775 0.40375 0.46775 0.0
C273 C 0.80835 0.54071 0.48081 0.0
C274 C 0.19457 0.56275 0.51561 0.0
C275 C 0.20002 0.51308 0.5334 0.0
H276 H 0.18825 0.60093 0.46749 0.0
C277 C 0.20855 0.46437 0.51556 0.0
H278 H 0.18809 0.60103 0.52863 0.0
C279 C 0.20865 0.46432 0.48078 0.0
C280 C 0.20021 0.51297 0.46285 0.0
H281 H 0.21362 0.42554 0.52844 0.0
H282 H 0.21378 0.42544 0.46796 0.0
C283 C 0.19467 0.5627 0.48057 0.0
C284 C 0.82067 0.55983 0.98079 0.0
C285 C 0.81573 0.51006 0.96299 0.0
H286 H 0.82665 0.59815 0.02889 0.0
C287 C 0.80783 0.46116 0.98085 0.0
H288 H 0.82666 0.59825 0.96776 0.0
C289 C 0.80782 0.4611 0.01564 0.0
C290 C 0.81571 0.50994 0.03355 0.0
H291 H 0.80318 0.42222 0.96798 0.0
H292 H 0.80317 0.42212 0.02846 0.0
C293 C 0.82066 0.55977 0.01582 0.0
C294 C 0.20786 0.54073 0.01552 0.0
C295 C 0.19967 0.49192 0.03337 0.0
H296 H 0.21274 0.57972 0.96791 0.0
C297 C 0.19447 0.4422 0.01558 0.0
H298 H 0.21273 0.57962 0.02839 0.0
C299 C 0.19447 0.44225 0.98055 0.0
C300 C 0.19968 0.49204 0.96282 0.0
H301 H 0.18824 0.40385 0.02862 0.0
H302 H 0.18825 0.40394 0.96748 0.0
C303 C 0.20787 0.54078 0.98074 0.0
C304 C 0.52969 0.05032 0.36548 0.0
C305 C 0.55046 0.99924 0.36517 0.0
H306 H 0.47275 0.09233 0.36563 0.0
C307 C 0.5278 0.95026 0.36542 0.0
H308 H 0.54602 0.08912 0.36554 0.0
C309 C 0.48564 0.95231 0.36525 0.0
C310 C 0.46487 0.00339 0.36518 0.0
H311 H 0.54259 0.9103 0.36522 0.0
H312 H 0.4693 0.91351 0.36514 0.0
C313 C 0.48753 0.05236 0.36565 0.0
C314 C 0.48671 0.95058 0.13071 0.0
C315 C 0.46427 0.99975 0.1311 0.0
H316 H 0.54503 0.91332 0.13085 0.0
C317 C 0.48527 0.05065 0.13091 0.0
H318 H 0.47174 0.91075 0.13082 0.0
C319 C 0.52744 0.05233 0.1307 0.0
C320 C 0.54987 0.00315 0.13103 0.0
H321 H 0.46911 0.08959 0.13096 0.0
H322 H 0.54241 0.09216 0.13081 0.0
C323 C 0.52888 0.95225 0.13085 0.0
C324 C 0.52735 0.95076 0.63077 0.0
C325 C 0.55 0.99974 0.63092 0.0
H326 H 0.46885 0.914 0.63121 0.0
C327 C 0.52923 0.05081 0.6306 0.0
H328 H 0.54214 0.9108 0.63099 0.0
C329 C 0.48707 0.05285 0.63051 0.0
C330 C 0.46441 0.00388 0.63109 0.0
H331 H 0.54555 0.08961 0.63046 0.0
H332 H 0.47228 0.09281 0.63051 0.0
C333 C 0.48518 0.95279 0.63102 0.0
C334 C 0.52745 0.05277 0.8655 0.0
C335 C 0.54988 0.0036 0.8651 0.0
H336 H 0.46911 0.09002 0.86536 0.0
C337 C 0.52889 0.9527 0.86527 0.0
H338 H 0.54241 0.0926 0.8654 0.0
C339 C 0.48672 0.95102 0.86547 0.0
C340 C 0.46429 1.00019 0.86515 0.0
H341 H 0.54505 0.91376 0.86522 0.0
H342 H 0.47176 0.91118 0.86535 0.0
C343 C 0.48527 0.05109 0.86535 0.0
C344 C 0.9866 0.45287 0.36574 0.0
C345 C 0.96556 0.50373 0.36537 0.0
H346 H 0.04378 0.41147 0.36593 0.0
C347 C 0.98794 0.55295 0.36554 0.0
H348 H 0.97048 0.41391 0.36586 0.0
C349 C 0.03012 0.55135 0.36536 0.0
C350 C 0.05116 0.50048 0.36534 0.0
H351 H 0.97294 0.59275 0.36529 0.0
H352 H 0.04624 0.59031 0.36519 0.0
C353 C 0.02877 0.45128 0.36589 0.0
C354 C 0.02963 0.45175 0.13086 0.0
C355 C 0.05044 0.5028 0.13092 0.0
H356 H 0.97264 0.40984 0.13095 0.0
C357 C 0.02782 0.55181 0.13042 0.0
H358 H 0.04594 0.41293 0.13099 0.0
C359 C 0.98566 0.54984 0.13061 0.0
C360 C 0.96485 0.4988 0.13096 0.0
H361 H 0.04264 0.59175 0.13042 0.0
H362 H 0.96936 0.58866 0.13054 0.0
C363 C 0.98746 0.44978 0.13072 0.0
C364 C 0.98747 0.55343 0.63083 0.0
C365 C 0.96508 0.50422 0.6311 0.0
H366 H 0.04578 0.59078 0.63104 0.0
C367 C 0.98612 0.45336 0.63074 0.0
H368 H 0.97247 0.59324 0.63106 0.0
C369 C 0.02829 0.45175 0.63051 0.0
C370 C 0.05068 0.50096 0.63097 0.0
H371 H 0.97 0.41439 0.63069 0.0
H372 H 0.04329 0.41194 0.6305 0.0
C373 C 0.02965 0.55183 0.63093 0.0
C374 C 0.02783 0.55226 0.86596 0.0
C375 C 0.05044 0.50325 0.86541 0.0
H376 H 0.96937 0.58912 0.86593 0.0
C377 C 0.02963 0.4522 0.86546 0.0
H378 H 0.04265 0.5922 0.86597 0.0
C379 C 0.98746 0.45023 0.86565 0.0
C380 C 0.96485 0.49925 0.86546 0.0
H381 H 0.04593 0.41338 0.86529 0.0
H382 H 0.97264 0.4103 0.86542 0.0
C383 C 0.98567 0.55029 0.86582 0.0
C384 C 0.27725 0.30443 0.38773 0.0
C385 C 0.23488 0.30164 0.38714 0.0
H386 H 0.33307 0.25963 0.38708 0.0
C387 C 0.21636 0.24952 0.38843 0.0
H388 H 0.29245 0.34408 0.38695 0.0
C389 C 0.2397 0.20121 0.38808 0.0
C390 C 0.28205 0.20398 0.38699 0.0
H391 H 0.18387 0.24598 0.38796 0.0
H392 H 0.22448 0.16155 0.38758 0.0
C393 C 0.30059 0.2561 0.38794 0.0
C394 C 0.71562 0.74733 0.38787 0.0
C395 C 0.73398 0.79958 0.38686 0.0
H396 H 0.72407 0.65942 0.38685 0.0
C397 C 0.77632 0.80263 0.38779 0.0
H398 H 0.68315 0.74359 0.38713 0.0
C399 C 0.79984 0.75447 0.38806 0.0
C400 C 0.78149 0.70223 0.38683 0.0
H401 H 0.7914 0.84238 0.38724 0.0
H402 H 0.83231 0.75822 0.38748 0.0
C403 C 0.73914 0.69917 0.38757 0.0
C404 C 0.21498 0.75514 0.10823 0.0
C405 C 0.23351 0.703 0.1092 0.0
H406 H 0.22315 0.8431 0.10933 0.0
C407 C 0.27586 0.7002 0.10827 0.0
H408 H 0.1825 0.75868 0.10897 0.0
C409 C 0.29922 0.74851 0.10805 0.0
C410 C 0.2807 0.80063 0.10932 0.0
H411 H 0.29106 0.66054 0.10879 0.0
H412 H 0.3317 0.74494 0.10863 0.0
C413 C 0.23834 0.80345 0.10857 0.0
C414 C 0.71541 0.25413 0.10826 0.0
C415 C 0.73378 0.20189 0.10933 0.0
H416 H 0.72383 0.34204 0.10927 0.0
C417 C 0.77613 0.19886 0.10851 0.0
H418 H 0.68295 0.25786 0.10891 0.0
C419 C 0.79963 0.24704 0.1083 0.0
C420 C 0.78126 0.29927 0.10946 0.0
H421 H 0.79121 0.15911 0.10912 0.0
H422 H 0.8321 0.2433 0.10897 0.0
C423 C 0.73892 0.3023 0.1086 0.0
C424 C 0.77579 0.80297 0.60839 0.0
C425 C 0.73345 0.79992 0.60935 0.0
H426 H 0.83177 0.75857 0.60873 0.0
C427 C 0.71509 0.74768 0.60843 0.0
H428 H 0.79087 0.84272 0.60887 0.0
C429 C 0.73861 0.69951 0.60878 0.0
C430 C 0.78096 0.70257 0.60949 0.0
H431 H 0.68262 0.74394 0.6092 0.0
H432 H 0.72354 0.65976 0.60957 0.0
C433 C 0.79931 0.75481 0.60817 0.0
C434 C 0.21579 0.24984 0.60792 0.0
C435 C 0.23432 0.30196 0.60918 0.0
H436 H 0.22392 0.16187 0.6088 0.0
C437 C 0.27668 0.30474 0.60853 0.0
H438 H 0.18331 0.2463 0.60843 0.0
C439 C 0.30003 0.25642 0.60831 0.0
C440 C 0.28149 0.2043 0.6093 0.0
H441 H 0.29188 0.34439 0.60928 0.0
H442 H 0.33251 0.25995 0.60912 0.0
C443 C 0.23914 0.20152 0.60827 0.0
C444 C 0.7762 0.19919 0.88763 0.0
C445 C 0.73385 0.20223 0.88687 0.0
H446 H 0.83217 0.24364 0.88718 0.0
C447 C 0.71548 0.25446 0.88807 0.0
H448 H 0.79128 0.15944 0.88692 0.0
C449 C 0.73898 0.30263 0.8878 0.0
C450 C 0.78133 0.2996 0.88687 0.0
H451 H 0.68301 0.25819 0.88748 0.0
H452 H 0.7239 0.34237 0.88723 0.0
C453 C 0.7997 0.24736 0.88791 0.0
C454 C 0.21506 0.75546 0.88813 0.0
C455 C 0.23359 0.70332 0.8871 0.0
H456 H 0.22323 0.84342 0.88707 0.0
C457 C 0.27594 0.70052 0.88797 0.0
H458 H 0.18259 0.759 0.88744 0.0
C459 C 0.2993 0.74882 0.88819 0.0
C460 C 0.28079 0.80095 0.88697 0.0
H461 H 0.29114 0.66085 0.8874 0.0
H462 H 0.33178 0.74525 0.88756 0.0
C463 C 0.23843 0.80376 0.88778 0.0
C464 C 0.33738 0.05903 0.25396 0.0
C465 C 0.33713 0.02213 0.28116 0.0
H466 H 0.33677 0.06835 0.20068 0.0
C467 C 0.33668 0.96502 0.27512 0.0
H468 H 0.33759 0.10338 0.25797 0.0
C469 C 0.33692 0.94511 0.24237 0.0
C470 C 0.33676 0.98201 0.21517 0.0
H471 H 0.33661 0.93579 0.29566 0.0
H472 H 0.33679 0.90076 0.23836 0.0
C473 C 0.33676 0.03912 0.22121 0.0
C474 C 0.67756 0.05765 0.24218 0.0
C475 C 0.67764 0.02069 0.21501 0.0
H476 H 0.6782 0.0671 0.29545 0.0
C477 C 0.67782 0.96359 0.2211 0.0
H478 H 0.67756 0.102 0.23813 0.0
C479 C 0.67747 0.94377 0.25386 0.0
C480 C 0.67781 0.98073 0.28103 0.0
H481 H 0.67775 0.93432 0.20059 0.0
H482 H 0.6774 0.89942 0.25791 0.0
C483 C 0.67807 0.03783 0.27495 0.0
C484 C 0.67737 0.05823 0.75387 0.0
C485 C 0.67749 0.02126 0.78104 0.0
H486 H 0.67787 0.06767 0.70059 0.0
C487 C 0.67758 0.96416 0.77495 0.0
H488 H 0.67743 0.10257 0.75792 0.0
C489 C 0.67712 0.94434 0.74218 0.0
C490 C 0.67743 0.9813 0.71501 0.0
H491 H 0.67753 0.93489 0.79546 0.0
H492 H 0.67698 0.89999 0.73814 0.0
C493 C 0.67777 0.0384 0.7211 0.0
C494 C 0.33653 0.03961 0.77514 0.0
C495 C 0.33661 0.9825 0.78118 0.0
H496 H 0.33719 0.10387 0.73837 0.0
C497 C 0.33674 0.9456 0.75398 0.0
H498 H 0.33657 0.06883 0.79567 0.0
C499 C 0.33638 0.96551 0.72122 0.0
C500 C 0.33676 0.02262 0.71518 0.0
H501 H 0.33667 0.90124 0.75799 0.0
H502 H 0.33629 0.93628 0.70069 0.0
C503 C 0.33704 0.05952 0.74239 0.0
C504 C 0.83736 0.53775 0.22126 0.0
C505 C 0.8376 0.48063 0.21524 0.0
H506 H 0.8379 0.60205 0.258 0.0
C507 C 0.83797 0.44376 0.24246 0.0
H508 H 0.83722 0.56695 0.20072 0.0
C509 C 0.83764 0.46369 0.2752 0.0
C510 C 0.83782 0.52082 0.28122 0.0
H511 H 0.83803 0.3994 0.23846 0.0
H512 H 0.83772 0.43449 0.29574 0.0
C513 C 0.8379 0.55769 0.25401 0.0
C514 C 0.1785 0.53939 0.27498 0.0
C515 C 0.17856 0.48233 0.2812 0.0
H516 H 0.17759 0.60331 0.23801 0.0
C517 C 0.17842 0.44519 0.25411 0.0
H518 H 0.17847 0.56879 0.29542 0.0
C519 C 0.17864 0.4648 0.2213 0.0
C520 C 0.17812 0.52185 0.21508 0.0
H521 H 0.1786 0.40087 0.25827 0.0
H522 H 0.17872 0.4354 0.20086 0.0
C523 C 0.17785 0.55899 0.24216 0.0
C524 C 0.17767 0.55949 0.75408 0.0
C525 C 0.17796 0.52235 0.78117 0.0
H526 H 0.17816 0.56927 0.70083 0.0
C527 C 0.17837 0.46529 0.77495 0.0
H528 H 0.17748 0.6038 0.75824 0.0
C529 C 0.17804 0.44568 0.74213 0.0
C530 C 0.17816 0.48282 0.71505 0.0
H531 H 0.17847 0.43589 0.79539 0.0
H532 H 0.17815 0.40136 0.73798 0.0
C533 C 0.1782 0.53987 0.72127 0.0
C534 C 0.83732 0.46427 0.72129 0.0
C535 C 0.83741 0.52139 0.71527 0.0
H536 H 0.8379 0.39997 0.75802 0.0
C537 C 0.83752 0.55826 0.74248 0.0
H538 H 0.83738 0.43506 0.70075 0.0
C539 C 0.8371 0.53832 0.77523 0.0
C540 C 0.83743 0.4812 0.78125 0.0
H541 H 0.83745 0.60262 0.73849 0.0
H542 H 0.83698 0.56752 0.79577 0.0
C543 C 0.83776 0.44433 0.75403 0.0
loop_
_geom_bond_atom_site_label_1
_geom_bond_atom_site_label_2
_geom_bond_distance
_geom_bond_site_symmetry_2
_ccdc_geom_bond_type
Co0 O1 2.216 . S
Co0 O2 2.091 . S
Co0 O4 2.004 . S
Co0 O10 2.021 . S
Co0 O12 2.137 . S
Co0 O13 2.244 1_545 S
O1 Co0 2.216 . S
O1 C8 1.247 . S
O2 Co0 2.091 . S
O2 C8 1.261 . S
C3 O12 1.247 . S
C3 O13 1.272 1_545 S
O4 Co0 2.004 . S
O4 C9 1.259 . S
Co5 O6 2.061 . S
Co5 O11 2.052 . S
Co5 O13 2.135 . S
O6 Co5 2.061 . S
O6 C9 1.235 1_565 S
C7 O10 1.238 . S
C7 O11 1.241 1_545 S
C8 O1 1.247 . S
C8 O2 1.261 . S
C9 O4 1.259 . S
C9 O6 1.235 1_545 S
O10 Co0 2.021 . S
O10 C7 1.238 . S
O11 Co5 2.052 . S
O11 C7 1.241 1_565 S
O12 Co0 2.137 . S
O12 C3 1.247 . S
O13 Co0 2.244 1_565 S
O13 C3 1.272 1_565 S
O13 Co5 2.135 . S
Co14 O15 2.216 . S
Co14 O16 2.091 . S
Co14 O18 2.004 . S
Co14 O24 2.021 . S
Co14 O26 2.137 . S
Co14 O27 2.244 1_565 S
O15 Co14 2.216 . S
O15 C22 1.247 . S
O16 Co14 2.091 . S
O16 C22 1.261 . S
C17 O26 1.247 . S
C17 O27 1.272 1_565 S
O18 Co14 2.004 . S
O18 C23 1.259 . S
Co19 O20 2.061 . S
Co19 O25 2.052 . S
Co19 O27 2.135 . S
O20 Co19 2.061 . S
O20 C23 1.235 1_545 S
C21 O24 1.238 . S
C21 O25 1.241 1_565 S
C22 O15 1.247 . S
C22 O16 1.261 . S
C23 O18 1.259 . S
C23 O20 1.235 1_565 S
O24 Co14 2.021 . S
O24 C21 1.238 . S
O25 Co19 2.052 . S
O25 C21 1.241 1_545 S
O26 Co14 2.137 . S
O26 C17 1.247 . S
O27 Co14 2.244 1_545 S
O27 C17 1.272 1_545 S
O27 Co19 2.135 . S
Co28 O29 2.216 . S
Co28 O30 2.091 . S
Co28 O32 2.004 . S
Co28 O38 2.021 . S
Co28 O40 2.137 . S
Co28 O41 2.244 1_565 S
O29 Co28 2.216 . S
O29 C36 1.247 . S
O30 Co28 2.091 . S
O30 C36 1.261 . S
C31 O40 1.247 . S
C31 O41 1.272 1_565 S
O32 Co28 2.004 . S
O32 C37 1.259 . S
Co33 O34 2.061 . S
Co33 O39 2.052 . S
Co33 O41 2.135 . S
O34 Co33 2.061 . S
O34 C37 1.235 1_545 S
C35 O38 1.238 . S
C35 O39 1.241 1_565 S
C36 O29 1.247 . S
C36 O30 1.261 . S
C37 O32 1.259 . S
C37 O34 1.235 1_565 S
O38 Co28 2.021 . S
O38 C35 1.238 . S
O39 Co33 2.052 . S
O39 C35 1.241 1_545 S
O40 Co28 2.137 . S
O40 C31 1.247 . S
O41 Co28 2.244 1_545 S
O41 C31 1.272 1_545 S
O41 Co33 2.135 . S
Co42 O43 2.216 . S
Co42 O44 2.091 . S
Co42 O46 2.004 . S
Co42 O52 2.021 . S
Co42 O54 2.137 . S
Co42 O55 2.244 1_545 S
O43 Co42 2.216 . S
O43 C50 1.247 . S
O44 Co42 2.091 . S
O44 C50 1.261 . S
C45 O54 1.247 . S
C45 O55 1.272 1_545 S
O46 Co42 2.004 . S
O46 C51 1.259 . S
Co47 O48 2.061 . S
Co47 O53 2.052 . S
Co47 O55 2.135 . S
O48 Co47 2.061 . S
O48 C51 1.235 1_565 S
C49 O52 1.238 . S
C49 O53 1.241 1_545 S
C50 O43 1.247 . S
C50 O44 1.261 . S
C51 O46 1.259 . S
C51 O48 1.235 1_545 S
O52 Co42 2.021 . S
O52 C49 1.238 . S
O53 Co47 2.052 . S
O53 C49 1.241 1_565 S
O54 Co42 2.137 . S
O54 C45 1.247 . S
O55 Co42 2.244 1_565 S
O55 C45 1.272 1_565 S
O55 Co47 2.135 . S
Co56 O57 2.216 . S
Co56 O58 2.091 . S
Co56 O60 2.004 . S
Co56 O66 2.021 . S
Co56 O68 2.137 . S
Co56 O69 2.244 1_565 S
O57 Co56 2.216 . S
O57 C64 1.247 . S
O58 Co56 2.091 . S
O58 C64 1.261 . S
C59 O68 1.247 . S
C59 O69 1.272 1_565 S
O60 Co56 2.004 . S
O60 C65 1.259 . S
Co61 O62 2.061 . S
Co61 O67 2.052 . S
Co61 O69 2.135 . S
O62 Co61 2.061 . S
O62 C65 1.235 1_545 S
C63 O66 1.238 . S
C63 O67 1.241 1_565 S
C64 O57 1.247 . S
C64 O58 1.261 . S
C65 O60 1.259 . S
C65 O62 1.235 1_565 S
O66 Co56 2.021 . S
O66 C63 1.238 . S
O67 Co61 2.052 . S
O67 C63 1.241 1_545 S
O68 Co56 2.137 . S
O68 C59 1.247 . S
O69 Co56 2.244 1_545 S
O69 C59 1.272 1_545 S
O69 Co61 2.135 . S
Co70 O71 2.216 . S
Co70 O72 2.091 . S
Co70 O74 2.004 . S
Co70 O80 2.021 . S
Co70 O82 2.137 . S
Co70 O83 2.244 1_545 S
O71 Co70 2.216 . S
O71 C78 1.247 . S
O72 Co70 2.091 . S
O72 C78 1.261 . S
C73 O82 1.247 . S
C73 O83 1.272 1_545 S
O74 Co70 2.004 . S
O74 C79 1.259 . S
Co75 O76 2.061 . S
Co75 O81 2.052 . S
Co75 O83 2.135 . S
O76 Co75 2.061 . S
O76 C79 1.235 1_565 S
C77 O80 1.238 . S
C77 O81 1.241 1_545 S
C78 O71 1.247 . S
C78 O72 1.261 . S
C79 O74 1.259 . S
C79 O76 1.235 1_545 S
O80 Co70 2.021 . S
O80 C77 1.238 . S
O81 Co75 2.052 . S
O81 C77 1.241 1_565 S
O82 Co70 2.137 . S
O82 C73 1.247 . S
O83 Co70 2.244 1_565 S
O83 C73 1.272 1_565 S
O83 Co75 2.135 . S
Co84 O85 2.216 . S
Co84 O86 2.091 . S
Co84 O88 2.004 . S
Co84 O94 2.021 . S
Co84 O96 2.137 . S
Co84 O97 2.244 1_545 S
O85 Co84 2.216 . S
O85 C92 1.247 . S
O86 Co84 2.091 . S
O86 C92 1.261 . S
C87 O96 1.247 . S
C87 O97 1.272 1_545 S
O88 Co84 2.004 . S
O88 C93 1.259 . S
Co89 O90 2.061 . S
Co89 O95 2.052 . S
Co89 O97 2.135 . S
O90 Co89 2.061 . S
O90 C93 1.235 1_565 S
C91 O94 1.238 . S
C91 O95 1.241 1_545 S
C92 O85 1.247 . S
C92 O86 1.261 . S
C93 O88 1.259 . S
C93 O90 1.235 1_545 S
O94 Co84 2.021 . S
O94 C91 1.238 . S
O95 Co89 2.052 . S
O95 C91 1.241 1_565 S
O96 Co84 2.137 . S
O96 C87 1.247 . S
O97 Co84 2.244 1_565 S
O97 C87 1.272 1_565 S
O97 Co89 2.135 . S
Co98 O99 2.216 . S
Co98 O100 2.091 . S
Co98 O102 2.004 . S
Co98 O108 2.021 . S
Co98 O110 2.137 . S
Co98 O111 2.244 1_565 S
O99 Co98 2.216 . S
O99 C106 1.247 . S
O100 Co98 2.091 . S
O100 C106 1.261 . S
C101 O110 1.247 . S
C101 O111 1.272 1_565 S
O102 Co98 2.004 . S
O102 C107 1.259 . S
Co103 O104 2.061 . S
Co103 O109 2.052 . S
Co103 O111 2.135 . S
O104 Co103 2.061 . S
O104 C107 1.235 1_545 S
C105 O108 1.238 . S
C105 O109 1.241 1_565 S
C106 O99 1.247 . S
C106 O100 1.261 . S
C107 O102 1.259 . S
C107 O104 1.235 1_565 S
O108 Co98 2.021 . S
O108 C105 1.238 . S
O109 Co103 2.052 . S
O109 C105 1.241 1_545 S
O110 Co98 2.137 . S
O110 C101 1.247 . S
O111 Co98 2.244 1_545 S
O111 C101 1.272 1_545 S
O111 Co103 2.135 . S
Co112 O113 2.216 . S
Co112 O114 2.091 . S
Co112 O116 2.004 . S
Co112 O122 2.021 . S
Co112 O124 2.137 . S
Co112 O125 2.244 . S
O113 Co112 2.216 . S
O113 C120 1.247 . S
O114 Co112 2.091 . S
O114 C120 1.261 . S
C115 O124 1.247 . S
C115 O125 1.272 . S
O116 Co112 2.004 . S
O116 C121 1.259 . S
Co117 O118 2.061 . S
Co117 O123 2.052 . S
Co117 O125 2.135 . S
O118 Co117 2.061 . S
O118 C121 1.235 . S
C119 O122 1.238 . S
C119 O123 1.241 . S
C120 O113 1.247 . S
C120 O114 1.261 . S
C121 O116 1.259 . S
C121 O118 1.235 . S
O122 Co112 2.021 . S
O122 C119 1.238 . S
O123 Co117 2.052 . S
O123 C119 1.241 . S
O124 Co112 2.137 . S
O124 C115 1.247 . S
O125 Co112 2.244 . S
O125 C115 1.272 . S
O125 Co117 2.135 . S
Co126 O127 2.216 . S
Co126 O128 2.091 . S
Co126 O130 2.004 . S
Co126 O136 2.021 . S
Co126 O138 2.137 . S
Co126 O139 2.244 . S
O127 Co126 2.216 . S
O127 C134 1.247 . S
O128 Co126 2.091 . S
O128 C134 1.261 . S
C129 O138 1.247 . S
C129 O139 1.272 . S
O130 Co126 2.004 . S
O130 C135 1.259 . S
Co131 O132 2.061 . S
Co131 O137 2.052 . S
Co131 O139 2.135 . S
O132 Co131 2.061 . S
O132 C135 1.235 . S
C133 O136 1.238 . S
C133 O137 1.241 . S
C134 O127 1.247 . S
C134 O128 1.261 . S
C135 O130 1.259 . S
C135 O132 1.235 . S
O136 Co126 2.021 . S
O136 C133 1.238 . S
O137 Co131 2.052 . S
O137 C133 1.241 . S
O138 Co126 2.137 . S
O138 C129 1.247 . S
O139 Co126 2.244 . S
O139 C129 1.272 . S
O139 Co131 2.135 . S
Co140 O141 2.216 . S
Co140 O142 2.091 . S
Co140 O144 2.004 . S
Co140 O150 2.021 . S
Co140 O152 2.137 . S
Co140 O153 2.244 . S
O141 Co140 2.216 . S
O141 C148 1.247 . S
O142 Co140 2.091 . S
O142 C148 1.261 . S
C143 O152 1.247 . S
C143 O153 1.272 . S
O144 Co140 2.004 . S
O144 C149 1.259 . S
Co145 O146 2.061 . S
Co145 O151 2.052 . S
Co145 O153 2.135 . S
O146 Co145 2.061 . S
O146 C149 1.235 . S
C147 O150 1.238 . S
C147 O151 1.241 . S
C148 O141 1.247 . S
C148 O142 1.261 . S
C149 O144 1.259 . S
C149 O146 1.235 . S
O150 Co140 2.021 . S
O150 C147 1.238 . S
O151 Co145 2.052 . S
O151 C147 1.241 . S
O152 Co140 2.137 . S
O152 C143 1.247 . S
O153 Co140 2.244 . S
O153 C143 1.272 . S
O153 Co145 2.135 . S
Co154 O155 2.216 . S
Co154 O156 2.091 . S
Co154 O158 2.004 . S
Co154 O164 2.021 . S
Co154 O166 2.137 . S
Co154 O167 2.244 . S
O155 Co154 2.216 . S
O155 C162 1.247 . S
O156 Co154 2.091 . S
O156 C162 1.261 . S
C157 O166 1.247 . S
C157 O167 1.272 . S
O158 Co154 2.004 . S
O158 C163 1.259 . S
Co159 O160 2.061 . S
Co159 O165 2.052 . S
Co159 O167 2.135 . S
O160 Co159 2.061 . S
O160 C163 1.235 . S
C161 O164 1.238 . S
C161 O165 1.241 . S
C162 O155 1.247 . S
C162 O156 1.261 . S
C163 O158 1.259 . S
C163 O160 1.235 . S
O164 Co154 2.021 . S
O164 C161 1.238 . S
O165 Co159 2.052 . S
O165 C161 1.241 . S
O166 Co154 2.137 . S
O166 C157 1.247 . S
O167 Co154 2.244 . S
O167 C157 1.272 . S
O167 Co159 2.135 . S
Co168 O169 2.216 . S
Co168 O170 2.091 . S
Co168 O172 2.004 . S
Co168 O178 2.021 . S
Co168 O180 2.137 . S
Co168 O181 2.244 . S
O169 Co168 2.216 . S
O169 C176 1.247 . S
O170 Co168 2.091 . S
O170 C176 1.261 . S
C171 O180 1.247 . S
C171 O181 1.272 . S
O172 Co168 2.004 . S
O172 C177 1.259 . S
Co173 O174 2.061 . S
Co173 O179 2.052 . S
Co173 O181 2.135 . S
O174 Co173 2.061 . S
O174 C177 1.235 . S
C175 O178 1.238 . S
C175 O179 1.241 . S
C176 O169 1.247 . S
C176 O170 1.261 . S
C177 O172 1.259 . S
C177 O174 1.235 . S
O178 Co168 2.021 . S
O178 C175 1.238 . S
O179 Co173 2.052 . S
O179 C175 1.241 . S
O180 Co168 2.137 . S
O180 C171 1.247 . S
O181 Co168 2.244 . S
O181 C171 1.272 . S
O181 Co173 2.135 . S
Co182 O183 2.216 . S
Co182 O184 2.091 . S
Co182 O186 2.004 . S
Co182 O192 2.021 . S
Co182 O194 2.137 . S
Co182 O195 2.244 . S
O183 Co182 2.216 . S
O183 C190 1.247 . S
O184 Co182 2.091 . S
O184 C190 1.261 . S
C185 O194 1.247 . S
C185 O195 1.272 . S
O186 Co182 2.004 . S
O186 C191 1.259 . S
Co187 O188 2.061 . S
Co187 O193 2.052 . S
Co187 O195 2.135 . S
O188 Co187 2.061 . S
O188 C191 1.235 . S
C189 O192 1.238 . S
C189 O193 1.241 . S
C190 O183 1.247 . S
C190 O184 1.261 . S
C191 O186 1.259 . S
C191 O188 1.235 . S
O192 Co182 2.021 . S
O192 C189 1.238 . S
O193 Co187 2.052 . S
O193 C189 1.241 . S
O194 Co182 2.137 . S
O194 C185 1.247 . S
O195 Co182 2.244 . S
O195 C185 1.272 . S
O195 Co187 2.135 . S
Co196 O197 2.216 . S
Co196 O198 2.091 . S
Co196 O200 2.004 . S
Co196 O206 2.021 . S
Co196 O208 2.137 . S
Co196 O209 2.244 . S
O197 Co196 2.216 . S
O197 C204 1.247 . S
O198 Co196 2.091 . S
O198 C204 1.261 . S
C199 O208 1.247 . S
C199 O209 1.272 . S
O200 Co196 2.004 . S
O200 C205 1.259 . S
Co201 O202 2.061 . S
Co201 O207 2.052 . S
Co201 O209 2.135 . S
O202 Co201 2.061 . S
O202 C205 1.235 . S
C203 O206 1.238 . S
C203 O207 1.241 . S
C204 O197 1.247 . S
C204 O198 1.261 . S
C205 O200 1.259 . S
C205 O202 1.235 . S
O206 Co196 2.021 . S
O206 C203 1.238 . S
O207 Co201 2.052 . S
O207 C203 1.241 . S
O208 Co196 2.137 . S
O208 C199 1.247 . S
O209 Co196 2.244 . S
O209 C199 1.272 . S
O209 Co201 2.135 . S
Co210 O211 2.216 . S
Co210 O212 2.091 . S
Co210 O214 2.004 . S
Co210 O220 2.021 . S
Co210 O222 2.137 . S
Co210 O223 2.244 . S
O211 Co210 2.216 . S
O211 C218 1.247 . S
O212 Co210 2.091 . S
O212 C218 1.261 . S
C213 O222 1.247 . S
C213 O223 1.272 . S
O214 Co210 2.004 . S
O214 C219 1.259 . S
Co215 O216 2.061 . S
Co215 O221 2.052 . S
Co215 O223 2.135 . S
O216 Co215 2.061 . S
O216 C219 1.235 . S
C217 O220 1.238 . S
C217 O221 1.241 . S
C218 O211 1.247 . S
C218 O212 1.261 . S
C219 O214 1.259 . S
C219 O216 1.235 . S
O220 Co210 2.021 . S
O220 C217 1.238 . S
O221 Co215 2.052 . S
O221 C217 1.241 . S
O222 Co210 2.137 . S
O222 C213 1.247 . S
O223 Co210 2.244 . S
O223 C213 1.272 . S
O223 Co215 2.135 . S
C224 C225 1.387 . S
C224 H228 0.950 1_545 S
C224 C233 1.390 . S
C225 C224 1.387 . S
C225 C227 1.387 . S
H226 C233 0.950 1_565 S
C227 C225 1.387 . S
C227 C229 1.390 . S
C227 H231 0.950 . S
H228 C224 0.950 1_565 S
C229 C227 1.390 . S
C229 C230 1.387 . S
C229 H232 0.950 . S
C230 C229 1.387 . S
C230 C233 1.387 . S
H231 C227 0.950 . S
H232 C229 0.950 . S
C233 C224 1.390 . S
C233 H226 0.950 1_545 S
C233 C230 1.387 . S
C234 C235 1.387 1_545 S
C234 H238 0.950 . S
C234 C243 1.390 . S
C235 C234 1.387 1_565 S
C235 C237 1.387 . S
H236 C243 0.950 . S
C237 C235 1.387 . S
C237 C239 1.390 . S
C237 H241 0.950 . S
H238 C234 0.950 . S
C239 C237 1.390 . S
C239 C240 1.387 . S
C239 H242 0.950 . S
C240 C239 1.387 . S
C240 C243 1.387 1_565 S
H241 C237 0.950 . S
H242 C239 0.950 . S
C243 C234 1.390 . S
C243 H236 0.950 . S
C243 C240 1.387 1_545 S
C244 C245 1.387 1_545 S
C244 H248 0.950 . S
C244 C253 1.390 1_554 S
C245 C244 1.387 1_565 S
C245 C247 1.387 . S
H246 C253 0.950 . S
C247 C245 1.387 . S
C247 C249 1.390 1_554 S
C247 H251 0.950 . S
H248 C244 0.950 . S
C249 C247 1.390 1_556 S
C249 C250 1.387 . S
C249 H252 0.950 . S
C250 C249 1.387 . S
C250 C253 1.387 1_565 S
H251 C247 0.950 . S
H252 C249 0.950 . S
C253 C244 1.390 1_556 S
C253 H246 0.950 . S
C253 C250 1.387 1_545 S
C254 C255 1.387 1_565 S
C254 H258 0.950 . S
C254 C263 1.390 1_556 S
C255 C254 1.387 1_545 S
C255 C257 1.387 . S
H256 C263 0.950 . S
C257 C255 1.387 . S
C257 C259 1.390 1_556 S
C257 H261 0.950 . S
H258 C254 0.950 . S
C259 C257 1.390 1_554 S
C259 C260 1.387 . S
C259 H262 0.950 . S
C260 C259 1.387 . S
C260 C263 1.387 1_545 S
H261 C257 0.950 . S
H262 C259 0.950 . S
C263 C254 1.390 1_554 S
C263 H256 0.950 . S
C263 C260 1.387 1_565 S
C264 C265 1.387 . S
C264 H268 0.950 . S
C264 C273 1.390 . S
C265 C264 1.387 . S
C265 C267 1.387 . S
H266 C273 0.950 . S
C267 C265 1.387 . S
C267 C269 1.390 . S
C267 H271 0.950 . S
H268 C264 0.950 . S
C269 C267 1.390 . S
C269 C270 1.387 . S
C269 H272 0.950 . S
C270 C269 1.387 . S
C270 C273 1.387 . S
H271 C267 0.950 . S
H272 C269 0.950 . S
C273 C264 1.390 . S
C273 H266 0.950 . S
C273 C270 1.387 . S
C274 C275 1.387 . S
C274 H278 0.950 . S
C274 C283 1.390 . S
C275 C274 1.387 . S
C275 C277 1.387 . S
H276 C283 0.950 . S
C277 C275 1.387 . S
C277 C279 1.390 . S
C277 H281 0.950 . S
H278 C274 0.950 . S
C279 C277 1.390 . S
C279 C280 1.387 . S
C279 H282 0.950 . S
C280 C279 1.387 . S
C280 C283 1.387 . S
H281 C277 0.950 . S
H282 C279 0.950 . S
C283 C274 1.390 . S
C283 H276 0.950 . S
C283 C280 1.387 . S
C284 C285 1.387 . S
C284 H288 0.950 . S
C284 C293 1.390 1_556 S
C285 C284 1.387 . S
C285 C287 1.387 . S
H286 C293 0.950 . S
C287 C285 1.387 . S
C287 C289 1.390 1_556 S
C287 H291 0.950 . S
H288 C284 0.950 . S
C289 C287 1.390 1_554 S
C289 C290 1.387 . S
C289 H292 0.950 . S
C290 C289 1.387 . S
C290 C293 1.387 . S
H291 C287 0.950 . S
H292 C289 0.950 . S
C293 C284 1.390 1_554 S
C293 H286 0.950 . S
C293 C290 1.387 . S
C294 C295 1.387 . S
C294 H298 0.950 . S
C294 C303 1.390 1_554 S
C295 C294 1.387 . S
C295 C297 1.387 . S
H296 C303 0.950 . S
C297 C295 1.387 . S
C297 C299 1.390 1_554 S
C297 H301 0.950 . S
H298 C294 0.950 . S
C299 C297 1.390 1_556 S
C299 C300 1.387 . S
C299 H302 0.950 . S
C300 C299 1.387 . S
C300 C303 1.387 . S
H301 C297 0.950 . S
H302 C299 0.950 . S
C303 C294 1.390 1_556 S
C303 H296 0.950 . S
C303 C300 1.387 . S
C304 C305 1.387 . S
C304 H308 0.950 . S
C304 C313 1.390 1_565 S
C305 C304 1.387 . S
C305 C307 1.387 . S
H306 C313 0.950 . S
C307 C305 1.387 . S
C307 C309 1.390 1_565 S
C307 H311 0.950 . S
H308 C304 0.950 . S
C309 C307 1.390 1_545 S
C309 C310 1.387 . S
C309 H312 0.950 . S
C310 C309 1.387 . S
C310 C313 1.387 . S
H311 C307 0.950 . S
H312 C309 0.950 . S
C313 C304 1.390 1_545 S
C313 H306 0.950 . S
C313 C310 1.387 . S
C314 C315 1.387 . S
C314 H318 0.950 . S
C314 C323 1.390 1_565 S
C315 C314 1.387 . S
C315 C317 1.387 . S
H316 C323 0.950 . S
C317 C315 1.387 . S
C317 C319 1.390 1_565 S
C317 H321 0.950 . S
H318 C314 0.950 . S
C319 C317 1.390 1_545 S
C319 C320 1.387 . S
C319 H322 0.950 . S
C320 C319 1.387 . S
C320 C323 1.387 . S
H321 C317 0.950 . S
H322 C319 0.950 . S
C323 C314 1.390 1_545 S
C323 H316 0.950 . S
C323 C320 1.387 . S
C324 C325 1.387 . S
C324 H328 0.950 . S
C324 C333 1.390 1_565 S
C325 C324 1.387 . S
C325 C327 1.387 . S
H326 C333 0.950 . S
C327 C325 1.387 . S
C327 C329 1.390 1_565 S
C327 H331 0.950 . S
H328 C324 0.950 . S
C329 C327 1.390 1_545 S
C329 C330 1.387 . S
C329 H332 0.950 . S
C330 C329 1.387 . S
C330 C333 1.387 . S
H331 C327 0.950 . S
H332 C329 0.950 . S
C333 C324 1.390 1_545 S
C333 H326 0.950 . S
C333 C330 1.387 . S
C334 C335 1.387 . S
C334 H338 0.950 . S
C334 C343 1.390 1_545 S
C335 C334 1.387 . S
C335 C337 1.387 . S
H336 C343 0.950 . S
C337 C335 1.387 . S
C337 C339 1.390 1_545 S
C337 H341 0.950 . S
H338 C334 0.950 . S
C339 C337 1.390 1_565 S
C339 C340 1.387 . S
C339 H342 0.950 . S
C340 C339 1.387 . S
C340 C343 1.387 . S
H341 C337 0.950 . S
H342 C339 0.950 . S
C343 C334 1.390 1_565 S
C343 H336 0.950 . S
C343 C340 1.387 . S
C344 C345 1.387 . S
C344 H348 0.950 . S
C344 C353 1.390 1_655 S
C345 C344 1.387 . S
C345 C347 1.387 . S
H346 C353 0.950 . S
C347 C345 1.387 . S
C347 C349 1.390 1_655 S
C347 H351 0.950 . S
H348 C344 0.950 . S
C349 C347 1.390 1_455 S
C349 C350 1.387 . S
C349 H352 0.950 . S
C350 C349 1.387 . S
C350 C353 1.387 . S
H351 C347 0.950 . S
H352 C349 0.950 . S
C353 C344 1.390 1_455 S
C353 H346 0.950 . S
C353 C350 1.387 . S
C354 C355 1.387 . S
C354 H358 0.950 . S
C354 C363 1.390 1_455 S
C355 C354 1.387 . S
C355 C357 1.387 . S
H356 C363 0.950 . S
C357 C355 1.387 . S
C357 C359 1.390 1_455 S
C357 H361 0.950 . S
H358 C354 0.950 . S
C359 C357 1.390 1_655 S
C359 C360 1.387 . S
C359 H362 0.950 . S
C360 C359 1.387 . S
C360 C363 1.387 . S
H361 C357 0.950 . S
H362 C359 0.950 . S
C363 C354 1.390 1_655 S
C363 H356 0.950 . S
C363 C360 1.387 . S
C364 C365 1.387 . S
C364 H368 0.950 . S
C364 C373 1.390 1_655 S
C365 C364 1.387 . S
C365 C367 1.387 . S
H366 C373 0.950 . S
C367 C365 1.387 . S
C367 C369 1.390 1_655 S
C367 H371 0.950 . S
H368 C364 0.950 . S
C369 C367 1.390 1_455 S
C369 C370 1.387 . S
C369 H372 0.950 . S
C370 C369 1.387 . S
C370 C373 1.387 . S
H371 C367 0.950 . S
H372 C369 0.950 . S
C373 C364 1.390 1_455 S
C373 H366 0.950 . S
C373 C370 1.387 . S
C374 C375 1.387 . S
C374 H378 0.950 . S
C374 C383 1.390 1_455 S
C375 C374 1.387 . S
C375 C377 1.387 . S
H376 C383 0.950 . S
C377 C375 1.387 . S
C377 C379 1.390 1_455 S
C377 H381 0.950 . S
H378 C374 0.950 . S
C379 C377 1.390 1_655 S
C379 C380 1.387 . S
C379 H382 0.950 . S
C380 C379 1.387 . S
C380 C383 1.387 . S
H381 C377 0.950 . S
H382 C379 0.950 . S
C383 C374 1.390 1_655 S
C383 H376 0.950 . S
C383 C380 1.387 . S
C384 C385 1.387 . S
C384 H388 0.950 . S
C384 C393 1.390 . S
C385 C384 1.387 . S
C385 C387 1.387 . S
H386 C393 0.950 . S
C387 C385 1.387 . S
C387 C389 1.390 . S
C387 H391 0.950 . S
H388 C384 0.950 . S
C389 C387 1.390 . S
C389 C390 1.387 . S
C389 H392 0.950 . S
C390 C389 1.387 . S
C390 C393 1.387 . S
H391 C387 0.950 . S
H392 C389 0.950 . S
C393 C384 1.390 . S
C393 H386 0.950 . S
C393 C390 1.387 . S
C394 C395 1.387 . S
C394 H398 0.950 . S
C394 C403 1.390 . S
C395 C394 1.387 . S
C395 C397 1.387 . S
H396 C403 0.950 . S
C397 C395 1.387 . S
C397 C399 1.390 . S
C397 H401 0.950 . S
H398 C394 0.950 . S
C399 C397 1.390 . S
C399 C400 1.387 . S
C399 H402 0.950 . S
C400 C399 1.387 . S
C400 C403 1.387 . S
H401 C397 0.950 . S
H402 C399 0.950 . S
C403 C394 1.390 . S
C403 H396 0.950 . S
C403 C400 1.387 . S
C404 C405 1.387 . S
C404 H408 0.950 . S
C404 C413 1.390 . S
C405 C404 1.387 . S
C405 C407 1.387 . S
H406 C413 0.950 . S
C407 C405 1.387 . S
C407 C409 1.390 . S
C407 H411 0.950 . S
H408 C404 0.950 . S
C409 C407 1.390 . S
C409 C410 1.387 . S
C409 H412 0.950 . S
C410 C409 1.387 . S
C410 C413 1.387 . S
H411 C407 0.950 . S
H412 C409 0.950 . S
C413 C404 1.390 . S
C413 H406 0.950 . S
C413 C410 1.387 . S
C414 C415 1.387 . S
C414 H418 0.950 . S
C414 C423 1.390 . S
C415 C414 1.387 . S
C415 C417 1.387 . S
H416 C423 0.950 . S
C417 C415 1.387 . S
C417 C419 1.390 . S
C417 H421 0.950 . S
H418 C414 0.950 . S
C419 C417 1.390 . S
C419 C420 1.387 . S
C419 H422 0.950 . S
C420 C419 1.387 . S
C420 C423 1.387 . S
H421 C417 0.950 . S
H422 C419 0.950 . S
C423 C414 1.390 . S
C423 H416 0.950 . S
C423 C420 1.387 . S
C424 C425 1.387 . S
C424 H428 0.950 . S
C424 C433 1.390 . S
C425 C424 1.387 . S
C425 C427 1.387 . S
H426 C433 0.950 . S
C427 C425 1.387 . S
C427 C429 1.390 . S
C427 H431 0.950 . S
H428 C424 0.950 . S
C429 C427 1.390 . S
C429 C430 1.387 . S
C429 H432 0.950 . S
C430 C429 1.387 . S
C430 C433 1.387 . S
H431 C427 0.950 . S
H432 C429 0.950 . S
C433 C424 1.390 . S
C433 H426 0.950 . S
C433 C430 1.387 . S
C434 C435 1.387 . S
C434 H438 0.950 . S
C434 C443 1.390 . S
C435 C434 1.387 . S
C435 C437 1.387 . S
H436 C443 0.950 . S
C437 C435 1.387 . S
C437 C439 1.390 . S
C437 H441 0.950 . S
H438 C434 0.950 . S
C439 C437 1.390 . S
C439 C440 1.387 . S
C439 H442 0.950 . S
C440 C439 1.387 . S
C440 C443 1.387 . S
H441 C437 0.950 . S
H442 C439 0.950 . S
C443 C434 1.390 . S
C443 H436 0.950 . S
C443 C440 1.387 . S
C444 C445 1.387 . S
C444 H448 0.950 . S
C444 C453 1.390 . S
C445 C444 1.387 . S
C445 C447 1.387 . S
H446 C453 0.950 . S
C447 C445 1.387 . S
C447 C449 1.390 . S
C447 H451 0.950 . S
H448 C444 0.950 . S
C449 C447 1.390 . S
C449 C450 1.387 . S
C449 H452 0.950 . S
C450 C449 1.387 . S
C450 C453 1.387 . S
H451 C447 0.950 . S
H452 C449 0.950 . S
C453 C444 1.390 . S
C453 H446 0.950 . S
C453 C450 1.387 . S
C454 C455 1.387 . S
C454 H458 0.950 . S
C454 C463 1.390 . S
C455 C454 1.387 . S
C455 C457 1.387 . S
H456 C463 0.950 . S
C457 C455 1.387 . S
C457 C459 1.390 . S
C457 H461 0.950 . S
H458 C454 0.950 . S
C459 C457 1.390 . S
C459 C460 1.387 . S
C459 H462 0.950 . S
C460 C459 1.387 . S
C460 C463 1.387 . S
H461 C457 0.950 . S
H462 C459 0.950 . S
C463 C454 1.390 . S
C463 H456 0.950 . S
C463 C460 1.387 . S
C464 C465 1.387 . S
C464 H468 0.950 . S
C464 C473 1.390 1_565 S
C465 C464 1.387 . S
C465 C467 1.387 . S
H466 C473 0.950 . S
C467 C465 1.387 . S
C467 C469 1.390 1_565 S
C467 H471 0.950 . S
H468 C464 0.950 . S
C469 C467 1.390 1_545 S
C469 C470 1.387 . S
C469 H472 0.950 . S
C470 C469 1.387 . S
C470 C473 1.387 . S
H471 C467 0.950 . S
H472 C469 0.950 . S
C473 C464 1.390 1_545 S
C473 H466 0.950 . S
C473 C470 1.387 . S
C474 C475 1.387 . S
C474 H478 0.950 . S
C474 C483 1.390 1_565 S
C475 C474 1.387 . S
C475 C477 1.387 . S
H476 C483 0.950 . S
C477 C475 1.387 . S
C477 C479 1.390 1_565 S
C477 H481 0.950 . S
H478 C474 0.950 . S
C479 C477 1.390 1_545 S
C479 C480 1.387 . S
C479 H482 0.950 . S
C480 C479 1.387 . S
C480 C483 1.387 . S
H481 C477 0.950 . S
H482 C479 0.950 . S
C483 C474 1.390 1_545 S
C483 H476 0.950 . S
C483 C480 1.387 . S
C484 C485 1.387 . S
C484 H488 0.950 . S
C484 C493 1.390 1_565 S
C485 C484 1.387 . S
C485 C487 1.387 . S
H486 C493 0.950 . S
C487 C485 1.387 . S
C487 C489 1.390 1_565 S
C487 H491 0.950 . S
H488 C484 0.950 . S
C489 C487 1.390 1_545 S
C489 C490 1.387 . S
C489 H492 0.950 . S
C490 C489 1.387 . S
C490 C493 1.387 . S
H491 C487 0.950 . S
H492 C489 0.950 . S
C493 C484 1.390 1_545 S
C493 H486 0.950 . S
C493 C490 1.387 . S
C494 C495 1.387 . S
C494 H498 0.950 . S
C494 C503 1.390 1_545 S
C495 C494 1.387 . S
C495 C497 1.387 . S
H496 C503 0.950 . S
C497 C495 1.387 . S
C497 C499 1.390 1_545 S
C497 H501 0.950 . S
H498 C494 0.950 . S
C499 C497 1.390 1_565 S
C499 C500 1.387 . S
C499 H502 0.950 . S
C500 C499 1.387 . S
C500 C503 1.387 . S
H501 C497 0.950 . S
H502 C499 0.950 . S
C503 C494 1.390 1_565 S
C503 H496 0.950 . S
C503 C500 1.387 . S
C504 C505 1.387 . S
C504 H508 0.950 . S
C504 C513 1.390 . S
C505 C504 1.387 . S
C505 C507 1.387 . S
H506 C513 0.950 . S
C507 C505 1.387 . S
C507 C509 1.390 . S
C507 H511 0.950 . S
H508 C504 0.950 . S
C509 C507 1.390 . S
C509 C510 1.387 . S
C509 H512 0.950 . S
C510 C509 1.387 . S
C510 C513 1.387 . S
H511 C507 0.950 . S
H512 C509 0.950 . S
C513 C504 1.390 . S
C513 H506 0.950 . S
C513 C510 1.387 . S
C514 C515 1.387 . S
C514 H518 0.950 . S
C514 C523 1.390 . S
C515 C514 1.387 . S
C515 C517 1.387 . S
H516 C523 0.950 . S
C517 C515 1.387 . S
C517 C519 1.390 . S
C517 H521 0.950 . S
H518 C514 0.950 . S
C519 C517 1.390 . S
C519 C520 1.387 . S
C519 H522 0.950 . S
C520 C519 1.387 . S
C520 C523 1.387 . S
H521 C517 0.950 . S
H522 C519 0.950 . S
C523 C514 1.390 . S
C523 H516 0.950 . S
C523 C520 1.387 . S
C524 C525 1.387 . S
C524 H528 0.950 . S
C524 C533 1.390 . S
C525 C524 1.387 . S
C525 C527 1.387 . S
H526 C533 0.950 . S
C527 C525 1.387 . S
C527 C529 1.390 . S
C527 H531 0.950 . S
H528 C524 0.950 . S
C529 C527 1.390 . S
C529 C530 1.387 . S
C529 H532 0.950 . S
C530 C529 1.387 . S
C530 C533 1.387 . S
H531 C527 0.950 . S
H532 C529 0.950 . S
C533 C524 1.390 . S
C533 H526 0.950 . S
C533 C530 1.387 . S
C534 C535 1.387 . S
C534 H538 0.950 . S
C534 C543 1.390 . S
C535 C534 1.387 . S
C535 C537 1.387 . S
H536 C543 0.950 . S
C537 C535 1.387 . S
C537 C539 1.390 . S
C537 H541 0.950 . S
H538 C534 0.950 . S
C539 C537 1.390 . S
C539 C540 1.387 . S
C539 H542 0.950 . S
C540 C539 1.387 . S
C540 C543 1.387 . S
H541 C537 0.950 . S
H542 C539 0.950 . S
C543 C534 1.390 . S
C543 H536 0.950 . S
C543 C540 1.387 . S
C225 C7 1.373 . S
C230 C77 1.374 . S
C235 C63 1.373 . S
C240 C21 1.374 . S
C245 C35 1.374 . S
C250 C105 1.373 . S
C255 C91 1.372 . S
C260 C49 1.375 . S
C265 C189 1.374 . S
C270 C119 1.373 . S
C275 C175 1.373 . S
C280 C133 1.374 . S
C285 C217 1.372 . S
C290 C147 1.375 . S
C295 C161 1.373 . S
C300 C203 1.375 . S
C305 C23 1.486 . S
C310 C9 1.486 . S
C315 C37 1.484 . S
C320 C51 1.484 . S
C325 C65 1.486 . S
C330 C79 1.486 . S
C335 C93 1.484 . S
C340 C107 1.484 . S
C345 C121 1.486 . S
C350 C135 1.486 . S
C355 C163 1.484 . S
C360 C149 1.484 . S
C365 C191 1.486 . S
C370 C177 1.486 . S
C375 C205 1.484 . S
C380 C219 1.484 . S
C385 C134 1.513 . S
C390 C8 1.513 . S
C395 C22 1.514 . S
C400 C120 1.514 . S
C405 C162 1.514 . S
C410 C36 1.514 . S
C415 C50 1.513 . S
C420 C148 1.513 . S
C425 C64 1.514 . S
C430 C190 1.514 . S
C435 C176 1.513 . S
C440 C78 1.513 . S
C445 C92 1.514 . S
C450 C218 1.514 . S
C455 C204 1.513 . S
C460 C106 1.513 . S
C465 C3 1.395 1_565 S
C470 C31 1.395 1_545 S
C475 C45 1.399 1_565 S
C480 C17 1.399 1_545 S
C485 C87 1.395 1_565 S
C490 C59 1.395 1_545 S
C495 C101 1.399 1_545 S
C500 C73 1.399 1_565 S
C505 C143 1.399 . S
C510 C115 1.399 . S
C515 C129 1.395 . S
C520 C157 1.395 . S
C525 C199 1.399 . S
C530 C171 1.399 . S
C535 C185 1.399 . S
C540 C213 1.399 . S
