# Generated by pormake.
# Topology wmb, (6)-cn, num edge types: 1
# Building blocks:
#     Node 0, Type 0, BuildingBlock: IZENUY_clean_sbu_0, # of connection points: 6
#     Node 1, Type 0, BuildingBlock: IZENUY_clean_sbu_0, # of connection points: 6
#     Node 2, Type 0, BuildingBlock: IZENUY_clean_sbu_0, # of connection points: 6
#     Node 3, Type 0, BuildingBlock: IZENUY_clean_sbu_0, # of connection points: 6
#     Node 4, Type 0, BuildingBlock: IZENUY_clean_sbu_0, # of connection points: 6
#     Node 5, Type 0, BuildingBlock: IZENUY_clean_sbu_0, # of connection points: 6
#     Edge 6, Type (0, 0), BuildingBlock: XIVTED_clean_linker_0, # of connection points: 2
#     Edge 7, Type (0, 0), BuildingBlock: XIVTED_clean_linker_0, # of connection points: 2
#     Edge 8, Type (0, 0), BuildingBlock: XIVTED_clean_linker_0, # of connection points: 2
#     Edge 9, Type (0, 0), BuildingBlock: XIVTED_clean_linker_0, # of connection points: 2
#     Edge 10, Type (0, 0), BuildingBlock: XIVTED_clean_linker_0, # of connection points: 2
#     Edge 11, Type (0, 0), BuildingBlock: XIVTED_clean_linker_0, # of connection points: 2
#     Edge 12, Type (0, 0), BuildingBlock: XIVTED_clean_linker_0, # of connection points: 2
#     Edge 13, Type (0, 0), BuildingBlock: XIVTED_clean_linker_0, # of connection points: 2
#     Edge 14, Type (0, 0), BuildingBlock: XIVTED_clean_linker_0, # of connection points: 2
#     Edge 15, Type (0, 0), BuildingBlock: XIVTED_clean_linker_0, # of connection points: 2
#     Edge 16, Type (0, 0), BuildingBlock: XIVTED_clean_linker_0, # of connection points: 2
#     Edge 17, Type (0, 0), BuildingBlock: XIVTED_clean_linker_0, # of connection points: 2
#     Edge 18, Type (0, 0), BuildingBlock: XIVTED_clean_linker_0, # of connection points: 2
#     Edge 19, Type (0, 0), BuildingBlock: XIVTED_clean_linker_0, # of connection points: 2
#     Edge 20, Type (0, 0), BuildingBlock: XIVTED_clean_linker_0, # of connection points: 2
#     Edge 21, Type (0, 0), BuildingBlock: XIVTED_clean_linker_0, # of connection points: 2
#     Edge 22, Type (0, 0), BuildingBlock: XIVTED_clean_linker_0, # of connection points: 2
#     Edge 23, Type (0, 0), BuildingBlock: XIVTED_clean_linker_0, # of connection points: 2
# Relax obj value: 0.258
# Max RMSD: 0.258
# Mean RMSD: 0.258
data_MOF--net-wmb--node1-IZENUY_clean_sbu_0--edge1-XIVTED_clean_linker_0
_symmetry_space_group_name_H-M    P1
_symmetry_Int_Tables_number       1
_symmetry_cell_setting            triclinic
loop_
_symmetry_equiv_pos_as_xyz
'x, y, z'
_cell_length_a     27.067889
_cell_length_b     27.106087
_cell_length_c     42.430227
_cell_angle_alpha  89.808479
_cell_angle_beta   90.118313
_cell_angle_gamma 119.96009
loop_
_atom_site_label
_atom_site_type_symbol
_atom_site_fract_x
_atom_site_fract_y
_atom_site_fract_z
_atom_type_partial_charge
Fe0 Fe 0.48662 0.17635 0.04214 0.0
Fe1 Fe 0.57065 0.14959 0.00798 0.0
O2 O 0.54733 0.19795 0.01793 0.0
Fe3 Fe 0.58589 0.26895 0.00405 0.0
O4 O 0.60398 0.29535 0.04413 0.0
O5 O 0.51587 0.24582 0.06186 0.0
O6 O 0.51827 0.1568 0.07376 0.0
C7 C 0.538 0.12358 0.07197 0.0
C8 C 0.47104 0.24632 0.0027 0.0
O9 O 0.54919 0.10996 0.04552 0.0
C10 C 0.58339 0.21128 0.95123 0.0
O11 O 0.44756 0.10244 0.02701 0.0
O12 O 0.50338 0.10181 0.98967 0.0
O13 O 0.52439 0.28005 0.00358 0.0
O14 O 0.45045 0.19577 0.01249 0.0
C15 C 0.674 0.24406 0.01615 0.0
O16 O 0.59548 0.18032 0.96848 0.0
O17 O 0.56991 0.24548 0.9634 0.0
C18 C 0.45547 0.07943 0.00296 0.0
O19 O 0.64044 0.19425 0.02563 0.0
O20 O 0.65504 0.27199 0.00171 0.0
C21 C 0.56734 0.28499 0.06536 0.0
Fe22 Fe 0.86724 0.41455 0.67089 0.0
Fe23 Fe 0.74513 0.31325 0.66993 0.0
O24 O 0.81713 0.34385 0.68204 0.0
Fe25 Fe 0.83856 0.30363 0.70561 0.0
O26 O 0.86093 0.35525 0.73695 0.0
O27 O 0.9093 0.43166 0.70761 0.0
O28 O 0.82668 0.4435 0.68921 0.0
C29 C 0.77551 0.42768 0.68263 0.0
C30 C 0.93402 0.36635 0.6648 0.0
O31 O 0.74406 0.38041 0.66927 0.0
C32 C 0.76517 0.21932 0.66685 0.0
O33 O 0.83435 0.40949 0.63238 0.0
O34 O 0.765 0.32033 0.62857 0.0
O35 O 0.91181 0.33675 0.68942 0.0
O36 O 0.91124 0.39145 0.65143 0.0
C37 C 0.73223 0.27823 0.73127 0.0
O38 O 0.73232 0.24002 0.66858 0.0
O39 O 0.81629 0.24802 0.67602 0.0
C40 C 0.8009 0.36681 0.61582 0.0
O41 O 0.72159 0.30519 0.71059 0.0
O42 O 0.77009 0.26455 0.72658 0.0
C43 C 0.89632 0.40756 0.73436 0.0
Fe44 Fe 0.71876 0.5418 0.37383 0.0
Fe45 Fe 0.61019 0.45993 0.33776 0.0
O46 O 0.68127 0.48234 0.34875 0.0
Fe47 Fe 0.71439 0.44421 0.33524 0.0
O48 O 0.72221 0.42563 0.37544 0.0
O49 O 0.75945 0.51301 0.39354 0.0
O50 O 0.66638 0.50809 0.40469 0.0
C51 C 0.61389 0.49032 0.40185 0.0
C52 C 0.80528 0.55963 0.33468 0.0
O53 O 0.59092 0.48125 0.37488 0.0
C54 C 0.66021 0.44694 0.28177 0.0
O55 O 0.68331 0.5806 0.35875 0.0
O56 O 0.63106 0.52763 0.31948 0.0
O57 O 0.78695 0.50646 0.33499 0.0
O58 O 0.77497 0.57938 0.34506 0.0
C59 C 0.60057 0.35643 0.34651 0.0
O60 O 0.61689 0.43514 0.29857 0.0
O61 O 0.70758 0.46032 0.29443 0.0
C62 C 0.65399 0.57418 0.33407 0.0
O63 O 0.5843 0.39024 0.3554 0.0
O64 O 0.6481 0.37492 0.33276 0.0
C65 C 0.74757 0.46177 0.39694 0.0
Fe66 Fe 0.28051 0.5773 0.99323 0.0
Fe67 Fe 0.19008 0.47717 0.95483 0.0
O68 O 0.2094 0.53647 0.97972 0.0
Fe69 Fe 0.15787 0.55525 0.99076 0.0
O70 O 0.19847 0.62588 0.97354 0.0
O71 O 0.28064 0.64501 0.99434 0.0
O72 O 0.30668 0.59577 0.95315 0.0
C73 C 0.29769 0.55998 0.93183 0.0
C74 C 0.22296 0.57369 0.04661 0.0
O75 O 0.2597 0.50823 0.93516 0.0
C76 C 0.0928 0.43994 0.99446 0.0
O77 O 0.29382 0.51705 0.99417 0.0
O78 O 0.21086 0.44169 0.98406 0.0
O79 O 0.18895 0.58158 0.02964 0.0
O80 O 0.25837 0.56204 0.03426 0.0
C81 C 0.13188 0.5236 0.92657 0.0
O82 O 0.1164 0.43578 0.96962 0.0
O83 O 0.11366 0.48645 0.00908 0.0
C84 C 0.2612 0.46343 0.99441 0.0
O85 O 0.16887 0.50865 0.92375 0.0
O86 O 0.11758 0.53212 0.95354 0.0
C87 C 0.24942 0.66105 0.98071 0.0
Fe88 Fe 0.43853 0.69852 0.65816 0.0
Fe89 Fe 0.53925 0.70651 0.62099 0.0
O90 O 0.47898 0.66737 0.64555 0.0
Fe91 Fe 0.45872 0.59704 0.65729 0.0
O92 O 0.3886 0.56784 0.63958 0.0
O93 O 0.37024 0.6314 0.65988 0.0
O94 O 0.42069 0.70524 0.61784 0.0
C95 C 0.45693 0.73155 0.59652 0.0
C96 C 0.44266 0.6464 0.71233 0.0
O97 O 0.50869 0.74488 0.60008 0.0
C98 C 0.57389 0.64538 0.6621 0.0
O99 O 0.49907 0.77178 0.65836 0.0
O100 O 0.57439 0.76331 0.64978 0.0
O101 O 0.43225 0.6032 0.69596 0.0
O102 O 0.45384 0.69282 0.69927 0.0
C103 C 0.49168 0.60147 0.59353 0.0
O104 O 0.58009 0.67385 0.63709 0.0
O105 O 0.52663 0.62084 0.67608 0.0
C106 C 0.5527 0.79253 0.65906 0.0
O107 O 0.50814 0.65359 0.59034 0.0
O108 O 0.48221 0.57868 0.6206 0.0
C109 C 0.35371 0.58407 0.64643 0.0
Fe110 Fe 0.32228 0.75659 0.32334 0.0
Fe111 Fe 0.32887 0.85728 0.2858 0.0
O112 O 0.35903 0.82999 0.31319 0.0
Fe113 Fe 0.42678 0.87667 0.32993 0.0
O114 O 0.44938 0.8237 0.33386 0.0
O115 O 0.38164 0.74755 0.31089 0.0
O116 O 0.29257 0.7322 0.28371 0.0
C117 C 0.30597 0.75751 0.25729 0.0
C118 C 0.37037 0.81316 0.38157 0.0
O119 O 0.32816 0.81083 0.25521 0.0
C120 C 0.37266 0.94316 0.32867 0.0
O121 O 0.25918 0.75882 0.33642 0.0
O122 O 0.25459 0.80685 0.29587 0.0
O123 O 0.39771 0.8621 0.36936 0.0
O124 O 0.34656 0.76875 0.36459 0.0
C125 C 0.44485 0.91417 0.26905 0.0
O126 O 0.32819 0.90651 0.31463 0.0
O127 O 0.41689 0.93857 0.3296 0.0
C128 C 0.23132 0.77442 0.31922 0.0
O129 O 0.39727 0.91216 0.26996 0.0
O130 O 0.46074 0.8943 0.29127 0.0
C131 C 0.43224 0.77626 0.32066 0.0
H132 H 0.37103 0.49752 0.01092 0.0
H133 H 0.35367 0.19608 0.00988 0.0
H134 H 0.21117 0.34609 0.98961 0.0
H135 H 0.50352 0.3548 0.98475 0.0
H136 H 0.29792 0.24545 0.00951 0.0
H137 H 0.41771 0.44081 0.01152 0.0
C138 C 0.34542 0.45217 0.00671 0.0
C139 C 0.28701 0.42684 -0.00016 0.0
C140 C 0.34292 0.26899 0.00382 0.0
C141 C 0.34088 0.36135 0.00035 0.0
C142 C 0.37471 0.24089 0.00386 0.0
C143 C 0.43364 0.27134 0.99762 0.0
C144 C 0.37059 0.32791 -0.00197 0.0
C145 C 0.45849 0.32943 0.99004 0.0
C146 C 0.37234 0.41984 0.00683 0.0
C147 C 0.25633 0.36755 0.99485 0.0
N148 N 0.42711 0.35576 0.99087 0.0
N149 N 0.28368 0.33672 0.99509 0.0
H150 H 0.65617 0.1455 0.64846 0.0
H151 H 0.67049 0.85922 0.65567 0.0
H152 H 0.8135 0.15046 0.67305 0.0
H153 H 0.51825 0.86925 0.67179 0.0
H154 H 0.72654 0.96406 0.65566 0.0
H155 H 0.60812 0.04218 0.64769 0.0
C156 C 0.68094 0.12499 0.65337 0.0
C157 C 0.73902 0.15708 0.6612 0.0
C158 C 0.68091 0.94298 0.65943 0.0
C159 C 0.68354 0.03775 0.66054 0.0
C160 C 0.6489 0.88321 0.65959 0.0
C161 C 0.58933 0.85507 0.66354 0.0
C162 C 0.65295 0.97457 0.66274 0.0
C163 C 0.56384 0.88861 0.66845 0.0
C164 C 0.65323 0.06577 0.65315 0.0
C165 C 0.76865 0.12756 0.66702 0.0
N166 N 0.59559 0.94625 0.66755 0.0
N167 N 0.74051 0.06942 0.66672 0.0
H168 H 0.16583 0.73778 0.37325 0.0
H169 H 0.87173 0.55672 0.28734 0.0
H170 H 0.15383 0.74771 0.27226 0.0
H171 H 0.87918 0.64743 0.37208 0.0
H172 H 0.97631 0.61296 0.28364 0.0
H173 H 0.06082 0.69034 0.37641 0.0
C174 C 0.14119 0.73008 0.35184 0.0
C175 C 0.16853 0.74699 0.32249 0.0
C176 C 0.95487 0.62088 0.30284 0.0
C177 C 0.0493 0.69194 0.32586 0.0
C178 C 0.89543 0.58907 0.30487 0.0
C179 C 0.86697 0.59827 0.32971 0.0
C180 C 0.9861 0.66054 0.32648 0.0
C181 C 0.8996 0.63995 0.35221 0.0
C182 C 0.08155 0.70336 0.35366 0.0
C183 C 0.13457 0.73591 0.29541 0.0
N184 N 0.9576 0.66901 0.35036 0.0
N185 N 0.0768 0.70845 0.2977 0.0
H186 H 0.50855 0.02866 0.266 0.0
H187 H 0.53829 0.0227 0.07895 0.0
H188 H 0.46444 0.87594 0.21405 0.0
H189 H 0.54829 0.16313 0.13184 0.0
H190 H 0.53457 0.97456 0.12879 0.0
H191 H 0.54893 0.08477 0.21797 0.0
C192 C 0.50947 1.00735 0.24462 0.0
C193 C 0.48413 0.94802 0.24382 0.0
C194 C 0.53836 0.01625 0.1294 0.0
C195 C 0.52759 0.01115 0.18858 0.0
C196 C 0.54057 0.04374 0.10101 0.0
C197 C 0.54259 0.09651 0.1013 0.0
C198 C 0.5388 0.0421 0.15816 0.0
C199 C 0.54564 0.12198 0.13052 0.0
C200 C 0.53181 0.03915 0.21714 0.0
C201 C 0.48463 0.92187 0.2155 0.0
N202 N 0.54325 0.09439 0.15771 0.0
N203 N 0.50529 0.95356 0.18879 0.0
H204 H 0.85805 0.38888 0.79473 0.0
H205 H 0.02815 0.5184 0.92456 0.0
H206 H 1.00734 0.49391 0.73862 0.0
H207 H 0.15967 0.52442 0.86452 0.0
H208 H 0.96855 0.50252 0.87804 0.0
H209 H 0.9144 0.42905 0.84242 0.0
C210 C 0.90254 0.42133 0.79252 0.0
C211 C 0.92819 0.43813 0.76278 0.0
C212 C 1.01047 0.50735 0.8751 0.0
C213 C 0.99301 0.48443 0.81723 0.0
C214 C 0.04474 0.51694 0.90159 0.0
C215 C 0.09853 0.52162 0.89847 0.0
C216 C 0.03027 0.50261 0.84532 0.0
C217 C 0.11802 0.51995 0.86805 0.0
C218 C 0.93459 0.44464 0.81975 0.0
C219 C 0.98596 0.48014 0.76115 0.0
N220 N 0.08374 0.51025 0.84264 0.0
N221 N 0.01682 0.50104 0.78808 0.0
H222 H 0.6335 0.47271 0.46273 0.0
H223 H 0.47058 0.61731 0.53274 0.0
H224 H 0.52243 0.50722 0.40529 0.0
H225 H 0.51646 0.51523 0.59065 0.0
H226 H 0.487 0.57571 0.48567 0.0
H227 H 0.58969 0.48567 0.50999 0.0
C228 C 0.5993 0.48225 0.46011 0.0
C229 C 0.58187 0.48947 0.43012 0.0
C230 C 0.49246 0.56159 0.50866 0.0
C231 C 0.53229 0.50518 0.48398 0.0
C232 C 0.48332 0.58545 0.53549 0.0
C233 C 0.49267 0.56995 0.56553 0.0
C234 C 0.51247 0.52302 0.5119 0.0
C235 C 0.5088 0.52828 0.56787 0.0
C236 C 0.57418 0.48939 0.48706 0.0
C237 C 0.53714 0.50137 0.42799 0.0
N238 N 0.51932 0.50704 0.54134 0.0
N239 N 0.5146 0.50997 0.45461 0.0
H240 H 0.35325 1.00438 0.03172 0.0
H241 H 0.3537 0.7398 0.95951 0.0
H242 H 0.46088 0.0191 0.95304 0.0
H243 H 0.19641 0.722 0.99485 0.0
H244 H 0.39548 0.8433 0.95965 0.0
H245 H 0.2947 0.90182 0.02103 0.0
C246 C 0.36397 0.98646 0.01188 0.0
C247 C 0.41273 0.02043 0.99362 0.0
C248 C 0.35153 0.81683 0.96694 0.0
C249 C 0.34672 0.90345 0.98173 0.0
C250 C 0.32782 0.75789 0.96691 0.0
C251 C 0.27162 0.72266 0.97703 0.0
C252 C 0.31943 0.84087 0.97809 0.0
C253 C 0.23979 0.74799 0.98658 0.0
C254 C 0.33057 0.92797 0.00584 0.0
C255 C 0.42437 0.9947 0.96816 0.0
N256 N 0.2645 0.80582 0.98745 0.0
N257 N 0.39235 0.93777 0.96338 0.0
H258 H 0.27423 0.61088 0.62771 0.0
H259 H 1.00899 0.33868 0.69329 0.0
H260 H 0.29312 0.46905 0.65767 0.0
H261 H 0.9953 0.43456 0.61558 0.0
H262 H 0.11219 0.38483 0.68367 0.0
H263 H 0.17066 0.54819 0.62667 0.0
C264 C 0.25641 0.56632 0.63377 0.0
C265 C 0.29196 0.54492 0.6427 0.0
C266 C 0.08613 0.39472 0.66843 0.0
C267 C 0.17374 0.47334 0.6423 0.0
C268 C 0.02727 0.36838 0.67385 0.0
C269 C 0.99335 0.38335 0.65558 0.0
C270 C 0.11107 0.43688 0.64501 0.0
C271 C 0.01961 0.42218 0.63066 0.0
C272 C 0.19746 0.53055 0.63308 0.0
C273 C 0.26692 0.4869 0.65042 0.0
N274 N 0.07691 0.44838 0.62655 0.0
N275 N 0.20908 0.45315 0.65061 0.0
H276 H 0.53408 0.81494 0.35119 0.0
H277 H 0.5884 0.57101 0.28412 0.0
H278 H 0.41924 0.68351 0.28741 0.0
H279 H 0.67211 0.66906 0.36725 0.0
H280 H 0.5393 0.62521 0.27793 0.0
H281 H 0.5962 0.77366 0.35069 0.0
C282 C 0.522 0.77756 0.33691 0.0
C283 C 0.471 0.75241 0.31946 0.0
C284 C 0.56886 0.63527 0.29732 0.0
C285 C 0.5425 0.70527 0.31867 0.0
C286 C 0.5973 0.6046 0.30082 0.0
C287 C 0.63404 0.61489 0.32655 0.0
C288 C 0.57735 0.67695 0.31954 0.0
C289 C 0.64404 0.65937 0.34717 0.0
C290 C 0.55756 0.75403 0.3367 0.0
C291 C 0.45781 0.70405 0.30142 0.0
N292 N 0.61542 0.68842 0.34339 0.0
N293 N 0.49331 0.68205 0.30151 0.0
H294 H 0.03459 0.42062 0.05023 0.0
H295 H 0.74248 0.29062 0.96568 0.0
H296 H 1.01464 0.36115 0.95426 0.0
H297 H 0.7447 0.24289 0.0625 0.0
H298 H 0.84488 0.32606 0.96223 0.0
H299 H 0.93088 0.36231 0.0574 0.0
C300 C 1.0086 0.39436 0.03093 0.0
C301 C 0.03323 0.39606 0.00153 0.0
C302 C 0.82294 0.30746 0.98417 0.0
C303 C 0.91517 0.33091 0.00939 0.0
C304 C 0.76476 0.28778 0.98625 0.0
C305 C 0.73553 0.26429 0.01449 0.0
C306 C 0.85253 0.3051 0.01077 0.0
C307 C 0.76606 0.26088 0.04036 0.0
C308 C 0.94959 0.36118 0.03507 0.0
C309 C 0.99759 0.36121 0.97732 0.0
N310 N 0.82343 0.28209 0.03809 0.0
N311 N 0.94024 0.3311 0.98156 0.0
H312 H 0.67456 0.67037 0.63223 0.0
H313 H 0.6707 0.40277 0.70297 0.0
H314 H 0.56996 0.58095 0.71264 0.0
H315 H 0.82988 0.54195 0.66938 0.0
H316 H 0.63033 0.46592 0.70324 0.0
H317 H 0.73197 0.62467 0.64235 0.0
C318 C 0.66434 0.64221 0.65234 0.0
C319 C 0.61669 0.62887 0.67127 0.0
C320 C 0.67436 0.48292 0.69623 0.0
C321 C 0.68125 0.57583 0.68244 0.0
C322 C 0.69727 0.44691 0.69601 0.0
C323 C 0.75362 0.46741 0.6863 0.0
C324 C 0.70746 0.53941 0.68571 0.0
C325 C 0.78634 0.52485 0.67733 0.0
C326 C 0.69705 0.61612 0.65805 0.0
C327 C 0.60563 0.59199 0.69704 0.0
N328 N 0.76244 0.55876 0.67668 0.0
N329 N 0.63683 0.56595 0.70145 0.0
H330 H 0.58431 0.28326 0.29899 0.0
H331 H 0.40227 0.99946 0.38444 0.0
H332 H 0.5209 0.29094 0.39096 0.0
H333 H 0.36885 0.01673 0.28693 0.0
H334 H 0.44881 0.1034 0.39032 0.0
H335 H 0.51248 0.18215 0.29595 0.0
C336 C 0.55547 0.26343 0.31865 0.0
C337 C 0.5587 0.29508 0.34541 0.0
C338 C 0.4295 0.08417 0.36797 0.0
C339 C 0.47676 0.17982 0.34205 0.0
C340 C 0.40263 0.02508 0.36469 0.0
C341 C 0.381 0.99986 0.33532 0.0
C342 C 0.43666 0.11789 0.34135 0.0
C343 C 0.38403 0.0347 0.31008 0.0
C344 C 0.51412 0.20609 0.31671 0.0
C345 C 0.51974 0.26768 0.37001 0.0
N346 N 0.41285 0.09224 0.31343 0.0
N347 N 0.4808 0.21109 0.36802 0.0
H348 H 0.49698 0.29519 0.10743 0.0
H349 H 0.73729 0.45052 0.23811 0.0
H350 H 0.67459 0.35251 0.08978 0.0
H351 H 0.56415 0.41654 0.24722 0.0
H352 H 0.7178 0.42014 0.18295 0.0
H353 H 0.52288 0.34416 0.15788 0.0
C354 C 0.54157 0.31849 0.11408 0.0
C355 C 0.58366 0.31948 0.09444 0.0
C356 C 0.68434 0.41996 0.19699 0.0
C357 C 0.61371 0.37538 0.15254 0.0
C358 C 0.69543 0.4373 0.22847 0.0
C359 C 0.65206 0.43534 0.2475 0.0
C360 C 0.62949 0.40034 0.18456 0.0
C361 C 0.59874 0.41811 0.23365 0.0
C362 C 0.55639 0.3466 0.14292 0.0
C363 C 0.6408 0.35072 0.10422 0.0
N364 N 0.58888 0.40081 0.2032 0.0
N365 N 0.65414 0.37692 0.13279 0.0
H366 H 0.61462 0.14557 0.91757 0.0
H367 H 0.66393 0.31679 0.75586 0.0
H368 H 0.57751 0.28224 0.90653 0.0
H369 H 0.72764 0.20208 0.77515 0.0
H370 H 0.61862 0.29476 0.80792 0.0
H371 H 0.64208 0.15566 0.86235 0.0
C372 C 0.61186 0.17753 0.9035 0.0
C373 C 0.59441 0.21364 0.91691 0.0
C374 C 0.64214 0.27412 0.80059 0.0
C375 C 0.62609 0.22548 0.85339 0.0
C376 C 0.6678 0.28646 0.77085 0.0
C377 C 0.69991 0.26147 0.7612 0.0
C378 C 0.64836 0.23627 0.82067 0.0
C379 C 0.70369 0.2227 0.78165 0.0
C380 C 0.62766 0.18329 0.87191 0.0
C381 C 0.59114 0.25379 0.89729 0.0
N382 N 0.67844 0.21148 0.8104 0.0
N383 N 0.6073 0.25894 0.86654 0.0
H384 H 0.82581 0.53195 0.43982 0.0
H385 H 0.88614 0.44734 0.57994 0.0
H386 H 0.70673 0.35451 0.42187 0.0
H387 H 0.71512 0.30421 0.57317 0.0
H388 H 0.88253 0.46783 0.52443 0.0
H389 H 0.84558 0.50667 0.49127 0.0
C390 C 0.80458 0.4874 0.4465 0.0
C391 C 0.76464 0.44526 0.42646 0.0
C392 C 0.84541 0.43237 0.53506 0.0
C393 C 0.78799 0.41555 0.48553 0.0
C394 C 0.84762 0.42033 0.56675 0.0
C395 C 0.80031 0.37483 0.58139 0.0
C396 C 0.79511 0.39932 0.51787 0.0
C397 C 0.75225 0.34019 0.56288 0.0
C398 C 0.81639 0.47283 0.47588 0.0
C399 C 0.7382 0.38826 0.43651 0.0
N400 N 0.75059 0.35357 0.53207 0.0
N401 N 0.74977 0.37509 0.4656 0.0
H402 H 0.36018 0.66787 0.90745 0.0
H403 H 0.42548 0.55527 0.74779 0.0
H404 H 0.31159 0.49275 0.88932 0.0
H405 H 0.43998 0.72085 0.75556 0.0
H406 H 0.40125 0.5386 0.8034 0.0
H407 H 0.40639 0.69414 0.85559 0.0
C408 C 0.36 0.63514 0.89279 0.0
C409 C 0.33163 0.57796 0.90256 0.0
C410 C 0.40999 0.57874 0.79304 0.0
C411 C 0.38415 0.60765 0.84349 0.0
C412 C 0.42385 0.58835 0.76122 0.0
C413 C 0.4338 0.63918 0.7468 0.0
C414 C 0.4059 0.62015 0.81075 0.0
C415 C 0.43204 0.6808 0.76563 0.0
C416 C 0.38608 0.65012 0.86318 0.0
C417 C 0.33245 0.53724 0.88261 0.0
N418 N 0.41772 0.67014 0.79664 0.0
N419 N 0.35802 0.55286 0.85401 0.0
H420 H 0.34995 0.68387 0.57122 0.0
H421 H 0.44703 0.89242 0.42244 0.0
H422 H 0.52355 0.81752 0.55565 0.0
H423 H 0.30588 0.71986 0.41883 0.0
H424 H 0.46396 0.8769 0.47721 0.0
H425 H 0.32279 0.70812 0.5208 0.0
C426 C 0.38217 0.71876 0.55738 0.0
C427 C 0.43917 0.74856 0.56748 0.0
C428 C 0.42891 0.84272 0.46448 0.0
C429 C 0.40825 0.77665 0.51021 0.0
C430 C 0.41892 0.85157 0.43329 0.0
C431 C 0.37529 0.8071 0.4159 0.0
C432 C 0.39456 0.78935 0.47855 0.0
C433 C 0.34034 0.75509 0.43127 0.0
C434 C 0.36667 0.73234 0.52863 0.0
C435 C 0.47925 0.79317 0.54859 0.0
N436 N 0.35087 0.74753 0.46173 0.0
N437 N 0.46301 0.80591 0.52085 0.0
H438 H 0.16423 0.61591 0.07761 0.0
H439 H 0.30571 0.65785 0.24611 0.0
H440 H 0.29247 0.56765 0.09257 0.0
H441 H 0.27103 0.78124 0.20225 0.0
H442 H 0.28125 0.60449 0.19608 0.0
H443 H 0.18093 0.65447 0.13064 0.0
C444 C 0.19548 0.61269 0.09212 0.0
C445 C 0.22776 0.58929 0.08032 0.0
C446 C 0.27898 0.64318 0.19766 0.0
C447 C 0.24648 0.63322 0.14131 0.0
C448 C 0.29257 0.67335 0.22604 0.0
C449 C 0.29041 0.72392 0.2281 0.0
C450 C 0.26162 0.66312 0.17178 0.0
C451 C 0.27357 0.74263 0.20152 0.0
C452 C 0.20501 0.63495 0.12237 0.0
C453 C 0.26715 0.58591 0.10058 0.0
N454 N 0.25935 0.71196 0.17453 0.0
N455 N 0.2757 0.60802 0.1302 0.0
loop_
_geom_bond_atom_site_label_1
_geom_bond_atom_site_label_2
_geom_bond_distance
_geom_bond_site_symmetry_2
_ccdc_geom_bond_type
Fe0 O2 1.918 . S
Fe0 O5 1.997 . S
Fe0 O6 2.002 . S
Fe0 O11 1.976 . S
Fe0 O14 1.996 . S
Fe1 O2 1.918 . S
Fe1 O9 1.997 . S
Fe1 O12 1.998 . S
Fe1 O16 1.976 1_554 S
Fe1 O19 2.002 . S
O2 Fe0 1.918 . S
O2 Fe1 1.918 . S
O2 Fe3 1.918 . S
Fe3 O2 1.918 . S
Fe3 O4 2.002 . S
Fe3 O13 1.976 . S
Fe3 O17 1.996 1_554 S
Fe3 O20 1.997 . S
O4 Fe3 2.002 . S
O4 C21 1.295 . S
O5 Fe0 1.997 . S
O5 C21 1.235 . S
O6 Fe0 2.002 . S
O6 C7 1.295 . S
C7 O6 1.295 . S
C7 O9 1.235 . S
C8 O13 1.287 . S
C8 O14 1.255 . S
O9 Fe1 1.997 . S
O9 C7 1.235 . S
C10 O16 1.287 . S
C10 O17 1.255 . S
O11 Fe0 1.976 . S
O11 C18 1.287 . S
O12 Fe1 1.998 . S
O12 C18 1.257 . S
O13 Fe3 1.976 . S
O13 C8 1.287 . S
O14 Fe0 1.996 . S
O14 C8 1.255 . S
C15 O19 1.295 . S
C15 O20 1.235 . S
O16 Fe1 1.976 1_556 S
O16 C10 1.287 . S
O17 Fe3 1.996 1_556 S
O17 C10 1.255 . S
C18 O11 1.287 . S
C18 O12 1.257 . S
O19 Fe1 2.002 . S
O19 C15 1.295 . S
O20 Fe3 1.997 . S
O20 C15 1.235 . S
C21 O4 1.295 . S
C21 O5 1.235 . S
Fe22 O24 1.918 . S
Fe22 O27 1.997 . S
Fe22 O28 2.002 . S
Fe22 O33 1.976 . S
Fe22 O36 1.996 . S
Fe23 O24 1.918 . S
Fe23 O31 1.997 . S
Fe23 O34 1.996 . S
Fe23 O38 1.976 . S
Fe23 O41 2.002 . S
O24 Fe22 1.918 . S
O24 Fe23 1.918 . S
O24 Fe25 1.918 . S
Fe25 O24 1.918 . S
Fe25 O26 2.002 . S
Fe25 O35 1.976 . S
Fe25 O39 1.996 . S
Fe25 O42 1.997 . S
O26 Fe25 2.002 . S
O26 C43 1.295 . S
O27 Fe22 1.997 . S
O27 C43 1.235 . S
O28 Fe22 2.002 . S
O28 C29 1.295 . S
C29 O28 1.295 . S
C29 O31 1.235 . S
C30 O35 1.287 . S
C30 O36 1.255 . S
O31 Fe23 1.997 . S
O31 C29 1.235 . S
C32 O38 1.287 . S
C32 O39 1.255 . S
O33 Fe22 1.976 . S
O33 C40 1.287 . S
O34 Fe23 1.996 . S
O34 C40 1.255 . S
O35 Fe25 1.976 . S
O35 C30 1.287 . S
O36 Fe22 1.996 . S
O36 C30 1.255 . S
C37 O41 1.295 . S
C37 O42 1.235 . S
O38 Fe23 1.976 . S
O38 C32 1.287 . S
O39 Fe25 1.996 . S
O39 C32 1.255 . S
C40 O33 1.287 . S
C40 O34 1.255 . S
O41 Fe23 2.002 . S
O41 C37 1.295 . S
O42 Fe25 1.997 . S
O42 C37 1.235 . S
C43 O26 1.295 . S
C43 O27 1.235 . S
Fe44 O46 1.918 . S
Fe44 O49 1.997 . S
Fe44 O50 2.002 . S
Fe44 O55 1.976 . S
Fe44 O58 1.996 . S
Fe45 O46 1.918 . S
Fe45 O53 1.997 . S
Fe45 O56 1.996 . S
Fe45 O60 1.976 . S
Fe45 O63 2.002 . S
O46 Fe44 1.918 . S
O46 Fe45 1.918 . S
O46 Fe47 1.918 . S
Fe47 O46 1.918 . S
Fe47 O48 2.002 . S
Fe47 O57 1.976 . S
Fe47 O61 1.996 . S
Fe47 O64 1.997 . S
O48 Fe47 2.002 . S
O48 C65 1.295 . S
O49 Fe44 1.997 . S
O49 C65 1.235 . S
O50 Fe44 2.002 . S
O50 C51 1.295 . S
C51 O50 1.295 . S
C51 O53 1.235 . S
C52 O57 1.287 . S
C52 O58 1.255 . S
O53 Fe45 1.997 . S
O53 C51 1.235 . S
C54 O60 1.287 . S
C54 O61 1.255 . S
O55 Fe44 1.976 . S
O55 C62 1.287 . S
O56 Fe45 1.996 . S
O56 C62 1.255 . S
O57 Fe47 1.976 . S
O57 C52 1.287 . S
O58 Fe44 1.996 . S
O58 C52 1.255 . S
C59 O63 1.295 . S
C59 O64 1.235 . S
O60 Fe45 1.976 . S
O60 C54 1.287 . S
O61 Fe47 1.996 . S
O61 C54 1.255 . S
C62 O55 1.287 . S
C62 O56 1.255 . S
O63 Fe45 2.002 . S
O63 C59 1.295 . S
O64 Fe47 1.997 . S
O64 C59 1.235 . S
C65 O48 1.295 . S
C65 O49 1.235 . S
Fe66 O68 1.918 . S
Fe66 O71 1.997 . S
Fe66 O72 2.002 . S
Fe66 O77 1.976 . S
Fe66 O80 1.996 1_556 S
Fe67 O68 1.918 . S
Fe67 O75 1.997 . S
Fe67 O78 1.996 . S
Fe67 O82 1.976 . S
Fe67 O85 2.002 . S
O68 Fe66 1.918 . S
O68 Fe67 1.918 . S
O68 Fe69 1.918 . S
Fe69 O68 1.918 . S
Fe69 O70 2.002 . S
Fe69 O79 1.976 1_556 S
Fe69 O83 1.998 . S
Fe69 O86 1.997 . S
O70 Fe69 2.002 . S
O70 C87 1.295 . S
O71 Fe66 1.997 . S
O71 C87 1.235 . S
O72 Fe66 2.002 . S
O72 C73 1.295 . S
C73 O72 1.295 . S
C73 O75 1.235 . S
C74 O79 1.287 . S
C74 O80 1.255 . S
O75 Fe67 1.997 . S
O75 C73 1.235 . S
C76 O82 1.287 . S
C76 O83 1.257 . S
O77 Fe66 1.976 . S
O77 C84 1.287 . S
O78 Fe67 1.996 . S
O78 C84 1.255 . S
O79 Fe69 1.976 1_554 S
O79 C74 1.287 . S
O80 Fe66 1.996 1_554 S
O80 C74 1.255 . S
C81 O85 1.295 . S
C81 O86 1.235 . S
O82 Fe67 1.976 . S
O82 C76 1.287 . S
O83 Fe69 1.998 . S
O83 C76 1.257 . S
C84 O77 1.287 . S
C84 O78 1.255 . S
O85 Fe67 2.002 . S
O85 C81 1.295 . S
O86 Fe69 1.997 . S
O86 C81 1.235 . S
C87 O70 1.295 . S
C87 O71 1.235 . S
Fe88 O90 1.918 . S
Fe88 O93 1.997 . S
Fe88 O94 2.002 . S
Fe88 O99 1.976 . S
Fe88 O102 1.996 . S
Fe89 O90 1.918 . S
Fe89 O97 1.997 . S
Fe89 O100 1.996 . S
Fe89 O104 1.976 . S
Fe89 O107 2.002 . S
O90 Fe88 1.918 . S
O90 Fe89 1.918 . S
O90 Fe91 1.918 . S
Fe91 O90 1.918 . S
Fe91 O92 2.002 . S
Fe91 O101 1.976 . S
Fe91 O105 1.996 . S
Fe91 O108 1.997 . S
O92 Fe91 2.002 . S
O92 C109 1.295 . S
O93 Fe88 1.997 . S
O93 C109 1.235 . S
O94 Fe88 2.002 . S
O94 C95 1.295 . S
C95 O94 1.295 . S
C95 O97 1.235 . S
C96 O101 1.287 . S
C96 O102 1.255 . S
O97 Fe89 1.997 . S
O97 C95 1.235 . S
C98 O104 1.287 . S
C98 O105 1.255 . S
O99 Fe88 1.976 . S
O99 C106 1.287 . S
O100 Fe89 1.996 . S
O100 C106 1.255 . S
O101 Fe91 1.976 . S
O101 C96 1.287 . S
O102 Fe88 1.996 . S
O102 C96 1.255 . S
C103 O107 1.295 . S
C103 O108 1.235 . S
O104 Fe89 1.976 . S
O104 C98 1.287 . S
O105 Fe91 1.996 . S
O105 C98 1.255 . S
C106 O99 1.287 . S
C106 O100 1.255 . S
O107 Fe89 2.002 . S
O107 C103 1.295 . S
O108 Fe91 1.997 . S
O108 C103 1.235 . S
C109 O92 1.295 . S
C109 O93 1.235 . S
Fe110 O112 1.918 . S
Fe110 O115 1.997 . S
Fe110 O116 2.002 . S
Fe110 O121 1.976 . S
Fe110 O124 1.996 . S
Fe111 O112 1.918 . S
Fe111 O119 1.997 . S
Fe111 O122 1.996 . S
Fe111 O126 1.976 . S
Fe111 O129 2.002 . S
O112 Fe110 1.918 . S
O112 Fe111 1.918 . S
O112 Fe113 1.918 . S
Fe113 O112 1.918 . S
Fe113 O114 2.002 . S
Fe113 O123 1.976 . S
Fe113 O127 1.996 . S
Fe113 O130 1.997 . S
O114 Fe113 2.002 . S
O114 C131 1.295 . S
O115 Fe110 1.997 . S
O115 C131 1.235 . S
O116 Fe110 2.002 . S
O116 C117 1.295 . S
C117 O116 1.295 . S
C117 O119 1.235 . S
C118 O123 1.287 . S
C118 O124 1.255 . S
O119 Fe111 1.997 . S
O119 C117 1.235 . S
C120 O126 1.287 . S
C120 O127 1.255 . S
O121 Fe110 1.976 . S
O121 C128 1.287 . S
O122 Fe111 1.996 . S
O122 C128 1.255 . S
O123 Fe113 1.976 . S
O123 C118 1.287 . S
O124 Fe110 1.996 . S
O124 C118 1.255 . S
C125 O129 1.295 . S
C125 O130 1.235 . S
O126 Fe111 1.976 . S
O126 C120 1.287 . S
O127 Fe113 1.996 . S
O127 C120 1.255 . S
C128 O121 1.287 . S
C128 O122 1.255 . S
O129 Fe111 2.002 . S
O129 C125 1.295 . S
O130 Fe113 1.997 . S
O130 C125 1.235 . S
C131 O114 1.295 . S
C131 O115 1.235 . S
H132 C138 0.930 . S
H133 C142 0.930 . S
H134 C147 0.929 . S
H135 C145 0.929 . S
H136 C140 0.929 . S
H137 C146 0.929 . S
C138 H132 0.930 . S
C138 C139 1.367 1_554 S
C138 C146 1.378 . S
C139 C138 1.367 1_556 S
C139 C147 1.433 . S
C140 H136 0.929 . S
C140 C142 1.378 . S
C140 C144 1.350 1_556 S
C141 C144 1.463 1_556 S
C141 C146 1.350 1_556 S
C141 N149 1.427 . S
C142 H133 0.930 . S
C142 C140 1.378 . S
C142 C143 1.367 1_556 S
C143 C142 1.367 1_554 S
C143 C145 1.433 . S
C144 C140 1.350 1_554 S
C144 C141 1.463 1_554 S
C144 N148 1.427 . S
C145 H135 0.929 . S
C145 C143 1.433 . S
C145 N148 1.384 . S
C146 H137 0.929 . S
C146 C138 1.378 . S
C146 C141 1.350 1_554 S
C147 H134 0.929 . S
C147 C139 1.433 . S
C147 N149 1.384 . S
N148 C144 1.427 . S
N148 C145 1.384 . S
N149 C141 1.427 . S
N149 C147 1.384 . S
H150 C156 0.930 . S
H151 C160 0.930 . S
H152 C165 0.929 . S
H153 C163 0.929 . S
H154 C158 0.929 . S
H155 C164 0.929 . S
C156 H150 0.930 . S
C156 C157 1.367 . S
C156 C164 1.378 . S
C157 C156 1.367 . S
C157 C165 1.433 . S
C158 H154 0.929 . S
C158 C160 1.378 . S
C158 C162 1.350 . S
C159 C162 1.463 1_545 S
C159 C164 1.350 . S
C159 N167 1.427 . S
C160 H151 0.930 . S
C160 C158 1.378 . S
C160 C161 1.367 . S
C161 C160 1.367 . S
C161 C163 1.433 . S
C162 C158 1.350 . S
C162 C159 1.463 1_565 S
C162 N166 1.427 . S
C163 H153 0.929 . S
C163 C161 1.433 . S
C163 N166 1.384 . S
C164 H155 0.929 . S
C164 C156 1.378 . S
C164 C159 1.350 . S
C165 H152 0.929 . S
C165 C157 1.433 . S
C165 N167 1.384 . S
N166 C162 1.427 . S
N166 C163 1.384 . S
N167 C159 1.427 . S
N167 C165 1.384 . S
H168 C174 0.930 . S
H169 C178 0.930 . S
H170 C183 0.929 . S
H171 C181 0.929 . S
H172 C176 0.929 . S
H173 C182 0.929 . S
C174 H168 0.930 . S
C174 C175 1.367 . S
C174 C182 1.378 . S
C175 C174 1.367 . S
C175 C183 1.433 . S
C176 H172 0.929 . S
C176 C178 1.378 . S
C176 C180 1.350 . S
C177 C180 1.463 1_455 S
C177 C182 1.350 . S
C177 N185 1.427 . S
C178 H169 0.930 . S
C178 C176 1.378 . S
C178 C179 1.367 . S
C179 C178 1.367 . S
C179 C181 1.433 . S
C180 C176 1.350 . S
C180 C177 1.463 1_655 S
C180 N184 1.427 . S
C181 H171 0.929 . S
C181 C179 1.433 . S
C181 N184 1.384 . S
C182 H173 0.929 . S
C182 C174 1.378 . S
C182 C177 1.350 . S
C183 H170 0.929 . S
C183 C175 1.433 . S
C183 N185 1.384 . S
N184 C180 1.427 . S
N184 C181 1.384 . S
N185 C177 1.427 . S
N185 C183 1.384 . S
H186 C192 0.930 . S
H187 C196 0.930 . S
H188 C201 0.929 . S
H189 C199 0.929 . S
H190 C194 0.929 1_565 S
H191 C200 0.929 1_545 S
C192 H186 0.930 . S
C192 C193 1.367 . S
C192 C200 1.378 . S
C193 C192 1.367 . S
C193 C201 1.433 . S
C194 H190 0.929 1_545 S
C194 C196 1.378 . S
C194 C198 1.350 . S
C195 C198 1.463 1_565 S
C195 C200 1.350 . S
C195 N203 1.427 . S
C196 H187 0.930 . S
C196 C194 1.378 . S
C196 C197 1.367 . S
C197 C196 1.367 . S
C197 C199 1.433 . S
C198 C194 1.350 . S
C198 C195 1.463 1_545 S
C198 N202 1.427 . S
C199 H189 0.929 . S
C199 C197 1.433 . S
C199 N202 1.384 . S
C200 H191 0.929 1_565 S
C200 C192 1.378 . S
C200 C195 1.350 . S
C201 H188 0.929 . S
C201 C193 1.433 . S
C201 N203 1.384 . S
N202 C198 1.427 . S
N202 C199 1.384 . S
N203 C195 1.427 . S
N203 C201 1.384 . S
H204 C210 0.930 . S
H205 C214 0.930 . S
H206 C219 0.929 . S
H207 C217 0.929 . S
H208 C212 0.929 . S
H209 C218 0.929 . S
C210 H204 0.930 . S
C210 C211 1.367 . S
C210 C218 1.378 . S
C211 C210 1.367 . S
C211 C219 1.433 . S
C212 H208 0.929 . S
C212 C214 1.378 . S
C212 C216 1.350 . S
C213 C216 1.463 1_655 S
C213 C218 1.350 . S
C213 N221 1.427 . S
C214 H205 0.930 . S
C214 C212 1.378 . S
C214 C215 1.367 . S
C215 C214 1.367 . S
C215 C217 1.433 . S
C216 C212 1.350 . S
C216 C213 1.463 1_455 S
C216 N220 1.427 . S
C217 H207 0.929 . S
C217 C215 1.433 . S
C217 N220 1.384 . S
C218 H209 0.929 . S
C218 C210 1.378 . S
C218 C213 1.350 . S
C219 H206 0.929 . S
C219 C211 1.433 . S
C219 N221 1.384 . S
N220 C216 1.427 . S
N220 C217 1.384 . S
N221 C213 1.427 . S
N221 C219 1.384 . S
H222 C228 0.930 . S
H223 C232 0.930 . S
H224 C237 0.929 . S
H225 C235 0.929 . S
H226 C230 0.929 . S
H227 C236 0.929 . S
C228 H222 0.930 . S
C228 C229 1.367 . S
C228 C236 1.378 . S
C229 C228 1.367 . S
C229 C237 1.433 . S
C230 H226 0.929 . S
C230 C232 1.378 . S
C230 C234 1.350 . S
C231 C234 1.463 . S
C231 C236 1.350 . S
C231 N239 1.427 . S
C232 H223 0.930 . S
C232 C230 1.378 . S
C232 C233 1.367 . S
C233 C232 1.367 . S
C233 C235 1.433 . S
C234 C230 1.350 . S
C234 C231 1.463 . S
C234 N238 1.427 . S
C235 H225 0.929 . S
C235 C233 1.433 . S
C235 N238 1.384 . S
C236 H227 0.929 . S
C236 C228 1.378 . S
C236 C231 1.350 . S
C237 H224 0.929 . S
C237 C229 1.433 . S
C237 N239 1.384 . S
N238 C234 1.427 . S
N238 C235 1.384 . S
N239 C231 1.427 . S
N239 C237 1.384 . S
H240 C246 0.930 . S
H241 C250 0.930 . S
H242 C255 0.929 1_545 S
H243 C253 0.929 1_554 S
H244 C248 0.929 . S
H245 C254 0.929 . S
C246 H240 0.930 . S
C246 C247 1.342 1_564 S
C246 C254 1.378 . S
C247 C246 1.342 1_546 S
C247 C255 1.466 1_545 S
C248 H244 0.929 . S
C248 C250 1.378 . S
C248 C252 1.350 . S
C249 C252 1.463 . S
C249 C254 1.350 1_556 S
C249 N257 1.427 . S
C250 H241 0.930 . S
C250 C248 1.378 . S
C250 C251 1.367 . S
C251 C250 1.367 . S
C251 C253 1.433 . S
C252 C248 1.350 . S
C252 C249 1.463 . S
C252 N256 1.427 1_556 S
C253 H243 0.929 1_556 S
C253 C251 1.433 . S
C253 N256 1.384 1_556 S
C254 H245 0.929 . S
C254 C246 1.378 . S
C254 C249 1.350 1_554 S
C255 H242 0.929 1_565 S
C255 C247 1.466 1_565 S
C255 N257 1.384 . S
N256 C252 1.427 1_554 S
N256 C253 1.384 1_554 S
N257 C249 1.427 . S
N257 C255 1.384 . S
H258 C264 0.930 . S
H259 C268 0.930 1_655 S
H260 C273 0.929 . S
H261 C271 0.929 . S
H262 C266 0.929 . S
H263 C272 0.929 . S
C264 H258 0.930 . S
C264 C265 1.367 . S
C264 C272 1.378 . S
C265 C264 1.367 . S
C265 C273 1.433 . S
C266 H262 0.929 . S
C266 C268 1.378 . S
C266 C270 1.350 . S
C267 C270 1.463 . S
C267 C272 1.350 . S
C267 N275 1.427 . S
C268 H259 0.930 1_455 S
C268 C266 1.378 . S
C268 C269 1.367 1_455 S
C269 C268 1.367 1_655 S
C269 C271 1.433 1_655 S
C270 C266 1.350 . S
C270 C267 1.463 . S
C270 N274 1.427 . S
C271 H261 0.929 . S
C271 C269 1.433 1_455 S
C271 N274 1.384 . S
C272 H263 0.929 . S
C272 C264 1.378 . S
C272 C267 1.350 . S
C273 H260 0.929 . S
C273 C265 1.433 . S
C273 N275 1.384 . S
N274 C270 1.427 . S
N274 C271 1.384 . S
N275 C267 1.427 . S
N275 C273 1.384 . S
H276 C282 0.930 . S
H277 C286 0.930 . S
H278 C291 0.929 . S
H279 C289 0.929 . S
H280 C284 0.929 . S
H281 C290 0.929 . S
C282 H276 0.930 . S
C282 C283 1.367 . S
C282 C290 1.378 . S
C283 C282 1.367 . S
C283 C291 1.433 . S
C284 H280 0.929 . S
C284 C286 1.378 . S
C284 C288 1.350 . S
C285 C288 1.463 . S
C285 C290 1.350 . S
C285 N293 1.427 . S
C286 H277 0.930 . S
C286 C284 1.378 . S
C286 C287 1.367 . S
C287 C286 1.367 . S
C287 C289 1.433 . S
C288 C284 1.350 . S
C288 C285 1.463 . S
C288 N292 1.427 . S
C289 H279 0.929 . S
C289 C287 1.433 . S
C289 N292 1.384 . S
C290 H281 0.929 . S
C290 C282 1.378 . S
C290 C285 1.350 . S
C291 H278 0.929 . S
C291 C283 1.433 . S
C291 N293 1.384 . S
N292 C288 1.427 . S
N292 C289 1.384 . S
N293 C285 1.427 . S
N293 C291 1.384 . S
H294 C300 0.930 1_455 S
H295 C304 0.930 1_556 S
H296 C309 0.929 . S
H297 C307 0.929 . S
H298 C302 0.947 . S
H299 C308 0.929 . S
C300 H294 0.930 1_655 S
C300 C301 1.367 1_655 S
C300 C308 1.378 . S
C301 C300 1.367 1_455 S
C301 C309 1.433 1_454 S
C302 H298 0.947 . S
C302 C304 1.374 1_556 S
C302 C306 1.336 1_556 S
C303 C306 1.463 . S
C303 C308 1.350 . S
C303 N311 1.427 1_554 S
C304 H295 0.930 1_554 S
C304 C302 1.374 1_554 S
C304 C305 1.367 . S
C305 C304 1.367 . S
C305 C307 1.433 . S
C306 C302 1.336 1_554 S
C306 C303 1.463 . S
C306 N310 1.427 . S
C307 H297 0.929 . S
C307 C305 1.433 . S
C307 N310 1.384 . S
C308 H299 0.929 . S
C308 C300 1.378 . S
C308 C303 1.350 . S
C309 H296 0.929 . S
C309 C301 1.433 1_656 S
C309 N311 1.384 . S
N310 C306 1.427 . S
N310 C307 1.384 . S
N311 C303 1.427 1_556 S
N311 C309 1.384 . S
H312 C318 0.930 . S
H313 C322 0.930 . S
H314 C327 0.929 . S
H315 C325 0.929 . S
H316 C320 0.929 . S
H317 C326 0.929 . S
C318 H312 0.930 . S
C318 C319 1.367 . S
C318 C326 1.378 . S
C319 C318 1.367 . S
C319 C327 1.433 . S
C320 H316 0.929 . S
C320 C322 1.378 . S
C320 C324 1.350 . S
C321 C324 1.463 . S
C321 C326 1.350 . S
C321 N329 1.427 . S
C322 H313 0.930 . S
C322 C320 1.378 . S
C322 C323 1.367 . S
C323 C322 1.367 . S
C323 C325 1.433 . S
C324 C320 1.350 . S
C324 C321 1.463 . S
C324 N328 1.427 . S
C325 H315 0.929 . S
C325 C323 1.433 . S
C325 N328 1.384 . S
C326 H317 0.929 . S
C326 C318 1.378 . S
C326 C321 1.350 . S
C327 H314 0.929 . S
C327 C319 1.433 . S
C327 N329 1.384 . S
N328 C324 1.427 . S
N328 C325 1.384 . S
N329 C321 1.427 . S
N329 C327 1.384 . S
H330 C336 0.930 . S
H331 C340 0.930 1_565 S
H332 C345 0.929 . S
H333 C343 0.929 . S
H334 C338 0.929 . S
H335 C344 0.929 . S
C336 H330 0.930 . S
C336 C337 1.367 . S
C336 C344 1.378 . S
C337 C336 1.367 . S
C337 C345 1.433 . S
C338 H334 0.929 . S
C338 C340 1.378 . S
C338 C342 1.350 . S
C339 C342 1.463 . S
C339 C344 1.350 . S
C339 N347 1.427 . S
C340 H331 0.930 1_545 S
C340 C338 1.378 . S
C340 C341 1.367 1_545 S
C341 C340 1.367 1_565 S
C341 C343 1.433 1_565 S
C342 C338 1.350 . S
C342 C339 1.463 . S
C342 N346 1.427 . S
C343 H333 0.929 . S
C343 C341 1.433 1_545 S
C343 N346 1.384 . S
C344 H335 0.929 . S
C344 C336 1.378 . S
C344 C339 1.350 . S
C345 H332 0.929 . S
C345 C337 1.433 . S
C345 N347 1.384 . S
N346 C342 1.427 . S
N346 C343 1.384 . S
N347 C339 1.427 . S
N347 C345 1.384 . S
H348 C354 0.930 . S
H349 C358 0.930 . S
H350 C363 0.929 . S
H351 C361 0.929 . S
H352 C356 0.929 . S
H353 C362 0.929 . S
C354 H348 0.930 . S
C354 C355 1.367 . S
C354 C362 1.378 . S
C355 C354 1.367 . S
C355 C363 1.433 . S
C356 H352 0.929 . S
C356 C358 1.378 . S
C356 C360 1.350 . S
C357 C360 1.463 . S
C357 C362 1.350 . S
C357 N365 1.427 . S
C358 H349 0.930 . S
C358 C356 1.378 . S
C358 C359 1.367 . S
C359 C358 1.367 . S
C359 C361 1.433 . S
C360 C356 1.350 . S
C360 C357 1.463 . S
C360 N364 1.427 . S
C361 H351 0.929 . S
C361 C359 1.433 . S
C361 N364 1.384 . S
C362 H353 0.929 . S
C362 C354 1.378 . S
C362 C357 1.350 . S
C363 H350 0.929 . S
C363 C355 1.433 . S
C363 N365 1.384 . S
N364 C360 1.427 . S
N364 C361 1.384 . S
N365 C357 1.427 . S
N365 C363 1.384 . S
H366 C372 0.930 . S
H367 C376 0.930 . S
H368 C381 0.929 . S
H369 C379 0.929 . S
H370 C374 0.929 . S
H371 C380 0.929 . S
C372 H366 0.930 . S
C372 C373 1.367 . S
C372 C380 1.378 . S
C373 C372 1.367 . S
C373 C381 1.433 . S
C374 H370 0.929 . S
C374 C376 1.378 . S
C374 C378 1.350 . S
C375 C378 1.463 . S
C375 C380 1.350 . S
C375 N383 1.427 . S
C376 H367 0.930 . S
C376 C374 1.378 . S
C376 C377 1.367 . S
C377 C376 1.367 . S
C377 C379 1.433 . S
C378 C374 1.350 . S
C378 C375 1.463 . S
C378 N382 1.427 . S
C379 H369 0.929 . S
C379 C377 1.433 . S
C379 N382 1.384 . S
C380 H371 0.929 . S
C380 C372 1.378 . S
C380 C375 1.350 . S
C381 H368 0.929 . S
C381 C373 1.433 . S
C381 N383 1.384 . S
N382 C378 1.427 . S
N382 C379 1.384 . S
N383 C375 1.427 . S
N383 C381 1.384 . S
H384 C390 0.930 . S
H385 C394 0.930 . S
H386 C399 0.929 . S
H387 C397 0.929 . S
H388 C392 0.929 . S
H389 C398 0.929 . S
C390 H384 0.930 . S
C390 C391 1.367 . S
C390 C398 1.378 . S
C391 C390 1.367 . S
C391 C399 1.433 . S
C392 H388 0.929 . S
C392 C394 1.378 . S
C392 C396 1.350 . S
C393 C396 1.463 . S
C393 C398 1.350 . S
C393 N401 1.427 . S
C394 H385 0.930 . S
C394 C392 1.378 . S
C394 C395 1.367 . S
C395 C394 1.367 . S
C395 C397 1.433 . S
C396 C392 1.350 . S
C396 C393 1.463 . S
C396 N400 1.427 . S
C397 H387 0.929 . S
C397 C395 1.433 . S
C397 N400 1.384 . S
C398 H389 0.929 . S
C398 C390 1.378 . S
C398 C393 1.350 . S
C399 H386 0.929 . S
C399 C391 1.433 . S
C399 N401 1.384 . S
N400 C396 1.427 . S
N400 C397 1.384 . S
N401 C393 1.427 . S
N401 C399 1.384 . S
H402 C408 0.930 . S
H403 C412 0.930 . S
H404 C417 0.929 . S
H405 C415 0.929 . S
H406 C410 0.929 . S
H407 C416 0.929 . S
C408 H402 0.930 . S
C408 C409 1.367 . S
C408 C416 1.378 . S
C409 C408 1.367 . S
C409 C417 1.433 . S
C410 H406 0.929 . S
C410 C412 1.378 . S
C410 C414 1.350 . S
C411 C414 1.463 . S
C411 C416 1.350 . S
C411 N419 1.427 . S
C412 H403 0.930 . S
C412 C410 1.378 . S
C412 C413 1.367 . S
C413 C412 1.367 . S
C413 C415 1.433 . S
C414 C410 1.350 . S
C414 C411 1.463 . S
C414 N418 1.427 . S
C415 H405 0.929 . S
C415 C413 1.433 . S
C415 N418 1.384 . S
C416 H407 0.929 . S
C416 C408 1.378 . S
C416 C411 1.350 . S
C417 H404 0.929 . S
C417 C409 1.433 . S
C417 N419 1.384 . S
N418 C414 1.427 . S
N418 C415 1.384 . S
N419 C411 1.427 . S
N419 C417 1.384 . S
H420 C426 0.930 . S
H421 C430 0.930 . S
H422 C435 0.929 . S
H423 C433 0.929 . S
H424 C428 0.929 . S
H425 C434 0.929 . S
C426 H420 0.930 . S
C426 C427 1.367 . S
C426 C434 1.378 . S
C427 C426 1.367 . S
C427 C435 1.433 . S
C428 H424 0.929 . S
C428 C430 1.378 . S
C428 C432 1.350 . S
C429 C432 1.463 . S
C429 C434 1.350 . S
C429 N437 1.427 . S
C430 H421 0.930 . S
C430 C428 1.378 . S
C430 C431 1.367 . S
C431 C430 1.367 . S
C431 C433 1.433 . S
C432 C428 1.350 . S
C432 C429 1.463 . S
C432 N436 1.427 . S
C433 H423 0.929 . S
C433 C431 1.433 . S
C433 N436 1.384 . S
C434 H425 0.929 . S
C434 C426 1.378 . S
C434 C429 1.350 . S
C435 H422 0.929 . S
C435 C427 1.433 . S
C435 N437 1.384 . S
N436 C432 1.427 . S
N436 C433 1.384 . S
N437 C429 1.427 . S
N437 C435 1.384 . S
H438 C444 0.930 . S
H439 C448 0.930 . S
H440 C453 0.929 . S
H441 C451 0.929 . S
H442 C446 0.929 . S
H443 C452 0.929 . S
C444 H438 0.930 . S
C444 C445 1.367 . S
C444 C452 1.378 . S
C445 C444 1.367 . S
C445 C453 1.433 . S
C446 H442 0.929 . S
C446 C448 1.378 . S
C446 C450 1.350 . S
C447 C450 1.463 . S
C447 C452 1.350 . S
C447 N455 1.427 . S
C448 H439 0.930 . S
C448 C446 1.378 . S
C448 C449 1.367 . S
C449 C448 1.367 . S
C449 C451 1.433 . S
C450 C446 1.350 . S
C450 C447 1.463 . S
C450 N454 1.427 . S
C451 H441 0.929 . S
C451 C449 1.433 . S
C451 N454 1.384 . S
C452 H443 0.929 . S
C452 C444 1.378 . S
C452 C447 1.350 . S
C453 H440 0.929 . S
C453 C445 1.433 . S
C453 N455 1.384 . S
N454 C450 1.427 . S
N454 C451 1.384 . S
N455 C447 1.427 . S
N455 C453 1.384 . S
C139 C84 1.806 . S
C143 C8 1.810 . S
C157 C32 1.804 . S
C161 C106 1.807 . S
C175 C128 1.811 . S
C179 C52 1.809 . S
C193 C125 0.887 . S
C197 C7 0.867 . S
C211 C43 0.866 . S
C215 C81 0.888 . S
C229 C51 0.866 . S
C233 C103 0.888 . S
C247 C18 1.381 1_556 S
C251 C87 1.399 . S
C265 C109 1.388 . S
C269 C30 1.397 . S
C283 C131 1.386 . S
C287 C62 1.392 . S
C301 C76 1.396 1_554 S
C305 C15 1.387 . S
C319 C98 1.395 . S
C323 C29 1.395 . S
C337 C59 1.387 . S
C341 C120 1.397 . S
C355 C21 1.290 . S
C359 C54 1.289 . S
C373 C10 1.282 . S
C377 C37 1.293 . S
C391 C65 1.290 . S
C395 C40 1.288 . S
C409 C73 1.293 . S
C413 C96 1.282 . S
C427 C95 1.290 . S
C431 C118 1.285 . S
C445 C74 1.282 . S
C449 C117 1.292 . S
