# Generated by pormake.
# Topology sml, (6)-cn, num edge types: 1
# Building blocks:
#     Node 0, Type 0, BuildingBlock: HISSIN_clean_sbu_0, # of connection points: 6
#     Node 1, Type 0, BuildingBlock: HISSIN_clean_sbu_0, # of connection points: 6
#     Node 2, Type 0, BuildingBlock: HISSIN_clean_sbu_0, # of connection points: 6
#     Node 3, Type 0, BuildingBlock: HISSIN_clean_sbu_0, # of connection points: 6
#     Node 4, Type 0, BuildingBlock: HISSIN_clean_sbu_0, # of connection points: 6
#     Node 5, Type 0, BuildingBlock: HISSIN_clean_sbu_0, # of connection points: 6
#     Edge 6, Type (0, 0), BuildingBlock: UVAHIK_clean_linker_0, # of connection points: 2
#     Edge 7, Type (0, 0), BuildingBlock: UVAHIK_clean_linker_0, # of connection points: 2
#     Edge 8, Type (0, 0), BuildingBlock: UVAHIK_clean_linker_0, # of connection points: 2
#     Edge 9, Type (0, 0), BuildingBlock: UVAHIK_clean_linker_0, # of connection points: 2
#     Edge 10, Type (0, 0), BuildingBlock: UVAHIK_clean_linker_0, # of connection points: 2
#     Edge 11, Type (0, 0), BuildingBlock: UVAHIK_clean_linker_0, # of connection points: 2
#     Edge 12, Type (0, 0), BuildingBlock: UVAHIK_clean_linker_0, # of connection points: 2
#     Edge 13, Type (0, 0), BuildingBlock: UVAHIK_clean_linker_0, # of connection points: 2
#     Edge 14, Type (0, 0), BuildingBlock: UVAHIK_clean_linker_0, # of connection points: 2
#     Edge 15, Type (0, 0), BuildingBlock: UVAHIK_clean_linker_0, # of connection points: 2
#     Edge 16, Type (0, 0), BuildingBlock: UVAHIK_clean_linker_0, # of connection points: 2
#     Edge 17, Type (0, 0), BuildingBlock: UVAHIK_clean_linker_0, # of connection points: 2
#     Edge 18, Type (0, 0), BuildingBlock: UVAHIK_clean_linker_0, # of connection points: 2
#     Edge 19, Type (0, 0), BuildingBlock: UVAHIK_clean_linker_0, # of connection points: 2
#     Edge 20, Type (0, 0), BuildingBlock: UVAHIK_clean_linker_0, # of connection points: 2
#     Edge 21, Type (0, 0), BuildingBlock: UVAHIK_clean_linker_0, # of connection points: 2
#     Edge 22, Type (0, 0), BuildingBlock: UVAHIK_clean_linker_0, # of connection points: 2
#     Edge 23, Type (0, 0), BuildingBlock: UVAHIK_clean_linker_0, # of connection points: 2
# Relax obj value: 0.145
# Max RMSD: 0.197
# Mean RMSD: 0.197
data_MOF--net-sml--node1-HISSIN_clean_sbu_0--edge1-UVAHIK_clean_linker_0
_symmetry_space_group_name_H-M    P1
_symmetry_Int_Tables_number       1
_symmetry_cell_setting            triclinic
loop_
_symmetry_equiv_pos_as_xyz
'x, y, z'
_cell_length_a     44.21042
_cell_length_b     44.381911
_cell_length_c     29.604738
_cell_angle_alpha  90.072765
_cell_angle_beta   89.95715
_cell_angle_gamma 120.32487
loop_
_atom_site_label
_atom_site_type_symbol
_atom_site_fract_x
_atom_site_fract_y
_atom_site_fract_z
_atom_type_partial_charge
Eu0 Eu 0.18694 0.40333 0.08873 0.0
Eu1 Eu 0.14101 0.40055 0.99813 0.0
C2 C 0.15547 0.45314 0.08028 0.0
C3 C 0.21093 0.40528 0.21191 0.0
C4 C 0.1798 0.40387 0.2254 0.0
C5 C 0.22552 0.40389 0.29063 0.0
C6 C 0.17163 0.4026 0.27129 0.0
C7 C 0.23367 0.4052 0.24473 0.0
C8 C 0.19444 0.40267 0.30453 0.0
C9 C 0.21971 0.40675 0.16374 0.0
O10 O 0.19563 0.41947 0.97397 0.0
O11 O 0.22522 0.44386 0.0398 0.0
C12 C 0.22448 0.44095 0.99552 0.0
O13 O 0.19323 0.36815 0.04083 0.0
O14 O 0.13319 0.42849 0.9432 0.0
O15 O 0.09819 0.37274 0.94991 0.0
O16 O 0.14441 0.35127 0.99628 0.0
C17 C 0.16956 0.3466 0.01218 0.0
O18 O 0.13174 0.35873 0.09774 0.0
O19 O 0.10257 0.37938 0.05565 0.0
O20 O 0.15652 0.45084 0.03608 0.0
O21 O 0.20112 0.37798 0.14093 0.0
O22 O 0.224 0.43413 0.14181 0.0
O23 O 0.1581 0.43092 0.10653 0.0
C24 C 0.11225 0.39618 0.87618 0.0
C25 C 0.14096 0.39384 0.86053 0.0
C26 C 0.09362 0.39467 0.79862 0.0
C27 C 0.14619 0.39231 0.81417 0.0
C28 C 0.08848 0.3963 0.84502 0.0
C29 C 0.12277 0.39304 0.7826 0.0
C30 C 0.10799 0.40026 0.92467 0.0
C31 C 0.10323 0.35958 0.08809 0.0
H32 H 0.16191 0.4039 0.20042 0.0
H33 H 0.24341 0.40344 0.31521 0.0
H34 H 0.1477 0.40209 0.28071 0.0
H35 H 0.25771 0.40609 0.23486 0.0
H36 H 0.15958 0.39369 0.88418 0.0
H37 H 0.0753 0.39566 0.77527 0.0
H38 H 0.16862 0.3906 0.80305 0.0
H39 H 0.06628 0.39828 0.85654 0.0
Eu40 Eu 0.77783 0.19854 0.45495 0.0
Eu41 Eu 0.82447 0.24377 0.54503 0.0
C42 C 0.80737 0.28018 0.46263 0.0
C43 C 0.75465 0.17468 0.33181 0.0
C44 C 0.78569 0.20464 0.31821 0.0
C45 C 0.74004 0.15843 0.25306 0.0
C46 C 0.79381 0.2115 0.27227 0.0
C47 C 0.73195 0.15162 0.29899 0.0
C48 C 0.77103 0.18852 0.23904 0.0
C49 C 0.74586 0.16745 0.38006 0.0
O50 O 0.7696 0.20883 0.56934 0.0
O51 O 0.73924 0.20061 0.50325 0.0
C52 C 0.74049 0.20018 0.54765 0.0
O53 O 0.77083 0.15824 0.50529 0.0
O54 O 0.83264 0.27956 0.60029 0.0
O55 O 0.86743 0.25883 0.59299 0.0
O56 O 0.82108 0.19107 0.5469 0.0
C57 C 0.79501 0.16076 0.53324 0.0
O58 O 0.83335 0.21024 0.4467 0.0
O59 O 0.86213 0.26136 0.48666 0.0
O60 O 0.80995 0.27896 0.50678 0.0
O61 O 0.7653 0.15872 0.40335 0.0
O62 O 0.74026 0.18986 0.40155 0.0
O63 O 0.80374 0.25482 0.43644 0.0
C64 C 0.85342 0.2678 0.66708 0.0
C65 C 0.82478 0.23642 0.68242 0.0
C66 C 0.87183 0.28458 0.74491 0.0
C67 C 0.81948 0.22932 0.72872 0.0
C68 C 0.87703 0.29169 0.69856 0.0
C69 C 0.84276 0.25346 0.76062 0.0
C70 C 0.85774 0.27644 0.61861 0.0
C71 C 0.86153 0.24043 0.4549 0.0
H72 H 0.80355 0.22278 0.34316 0.0
H73 H 0.72215 0.13987 0.22853 0.0
H74 H 0.81768 0.23509 0.26281 0.0
H75 H 0.70796 0.1283 0.30889 0.0
H76 H 0.80626 0.21762 0.65857 0.0
H77 H 0.89005 0.30391 0.76846 0.0
H78 H 0.79712 0.2049 0.73953 0.0
H79 H 0.89919 0.31613 0.68733 0.0
Eu80 Eu 0.57039 0.7789 0.75828 0.0
Eu81 Eu 0.57384 0.73659 0.66718 0.0
C82 C 0.52103 0.69712 0.74909 0.0
C83 C 0.56888 0.80093 0.88162 0.0
C84 C 0.57081 0.77162 0.89499 0.0
C85 C 0.57141 0.81748 0.96031 0.0
C86 C 0.57292 0.76521 0.94081 0.0
C87 C 0.56921 0.8238 0.91449 0.0
C88 C 0.57328 0.7881 0.97406 0.0
C89 C 0.56681 0.80787 0.83351 0.0
O90 O 0.55316 0.77057 0.64329 0.0
O91 O 0.52937 0.77566 0.70973 0.0
C92 C 0.53168 0.77747 0.66539 0.0
O93 O 0.60475 0.82099 0.71019 0.0
O94 O 0.54632 0.70037 0.61214 0.0
O95 O 0.6024 0.72271 0.61906 0.0
O96 O 0.62255 0.79027 0.66525 0.0
C97 C 0.6266 0.81976 0.68132 0.0
O98 O 0.61593 0.77012 0.76666 0.0
O99 O 0.59563 0.7202 0.72462 0.0
O100 O 0.52364 0.70058 0.70493 0.0
O101 O 0.59561 0.81885 0.81037 0.0
O102 O 0.5394 0.78406 0.81186 0.0
O103 O 0.54299 0.72221 0.77566 0.0
C104 C 0.57891 0.71222 0.54525 0.0
C105 C 0.58082 0.74285 0.52916 0.0
C106 C 0.5812 0.69493 0.46804 0.0
C107 C 0.58264 0.74937 0.48272 0.0
C108 C 0.57935 0.68844 0.51449 0.0
C109 C 0.58258 0.72535 0.45152 0.0
C110 C 0.57489 0.7042 0.59381 0.0
C111 C 0.61557 0.74111 0.75687 0.0
H112 H 0.57077 0.75376 0.86996 0.0
H113 H 0.57118 0.83538 0.98503 0.0
H114 H 0.57476 0.74261 0.95016 0.0
H115 H 0.56771 0.84653 0.90471 0.0
H116 H 0.58033 0.76143 0.55249 0.0
H117 H 0.58161 0.67614 0.44506 0.0
H118 H 0.58322 0.77281 0.47125 0.0
H119 H 0.57789 0.66466 0.52638 0.0
Eu120 Eu 0.77607 0.57719 0.11929 0.0
Eu121 Eu 0.73121 0.57761 0.20982 0.0
C122 C 0.69391 0.52583 0.12648 0.0
C123 C 0.79935 0.57825 0.9958 0.0
C124 C 0.76926 0.57896 0.98244 0.0
C125 C 0.81603 0.58122 0.91703 0.0
C126 C 0.76252 0.58066 0.9366 0.0
C127 C 0.82268 0.57943 0.96287 0.0
C128 C 0.78584 0.58181 0.90329 0.0
C129 C 0.80648 0.57625 0.04391 0.0
O130 O 0.7652 0.55699 0.23389 0.0
O131 O 0.77448 0.53657 0.16693 0.0
C132 C 0.77424 0.53731 0.21139 0.0
O133 O 0.81705 0.61036 0.16945 0.0
O134 O 0.6946 0.54922 0.26425 0.0
O135 O 0.71593 0.60495 0.258 0.0
O136 O 0.78465 0.62667 0.21343 0.0
C137 C 0.81487 0.63137 0.19874 0.0
O138 O 0.76611 0.62197 0.11285 0.0
O139 O 0.7146 0.59899 0.1522 0.0
O140 O 0.69644 0.52785 0.17075 0.0
O141 O 0.81603 0.60446 0.06761 0.0
O142 O 0.78346 0.54816 0.0651 0.0
O143 O 0.71932 0.54845 0.1008 0.0
C144 C 0.70576 0.58118 0.33157 0.0
C145 C 0.73701 0.58411 0.34754 0.0
C146 C 0.68819 0.58266 0.40894 0.0
C147 C 0.74372 0.58608 0.39396 0.0
C148 C 0.68151 0.58067 0.36249 0.0
C149 C 0.71928 0.58515 0.42532 0.0
C150 C 0.69774 0.57728 0.28295 0.0
C151 C 0.73604 0.62002 0.12117 0.0
H152 H 0.75101 0.57822 1.0075 0.0
H153 H 0.83429 0.58161 0.8923 0.0
H154 H 0.73928 0.58151 0.92729 0.0
H155 H 0.846 0.57884 0.9726 0.0
H156 H 0.75598 0.58437 0.3241 0.0
H157 H 0.66903 0.58237 0.43202 0.0
H158 H 0.7677 0.58752 0.40529 0.0
H159 H 0.65725 0.57842 0.35073 0.0
Eu160 Eu 0.19772 0.7872 0.42151 0.0
Eu161 Eu 0.2409 0.8332 0.33088 0.0
C162 C 0.27985 0.82094 0.41386 0.0
C163 C 0.17533 0.76331 0.54473 0.0
C164 C 0.20469 0.79484 0.5583 0.0
C165 C 0.15938 0.74834 0.62341 0.0
C166 C 0.21144 0.80302 0.60421 0.0
C167 C 0.15269 0.74019 0.57749 0.0
C168 C 0.18891 0.77981 0.63739 0.0
C169 C 0.16829 0.75443 0.49656 0.0
O170 O 0.20669 0.77829 0.30688 0.0
O171 O 0.20153 0.74965 0.37336 0.0
C172 C 0.19981 0.74999 0.32901 0.0
O173 O 0.15584 0.77896 0.37284 0.0
O174 O 0.27749 0.84213 0.27622 0.0
O175 O 0.2551 0.8755 0.28253 0.0
O176 O 0.18719 0.82794 0.3286 0.0
C177 C 0.15741 0.80223 0.34425 0.0
O178 O 0.20629 0.8414 0.42932 0.0
O179 O 0.25685 0.87163 0.38819 0.0
O180 O 0.27676 0.81963 0.36963 0.0
O181 O 0.15764 0.77238 0.47354 0.0
O182 O 0.19198 0.75082 0.47486 0.0
O183 O 0.25441 0.81767 0.43975 0.0
C184 C 0.26536 0.86196 0.20898 0.0
C185 C 0.23459 0.83267 0.19335 0.0
C186 C 0.2822 0.88088 0.13144 0.0
C187 C 0.22783 0.82732 0.147 0.0
C188 C 0.28897 0.88614 0.17783 0.0
C189 C 0.25171 0.85121 0.11543 0.0
C190 C 0.27363 0.86656 0.2575 0.0
C191 C 0.23548 0.87036 0.41993 0.0
H192 H 0.22248 0.81303 0.53336 0.0
H193 H 0.1412 0.73011 0.64796 0.0
H194 H 0.23461 0.82727 0.6137 0.0
H195 H 0.12982 0.71582 0.56757 0.0
H196 H 0.21602 0.81374 0.217 0.0
H197 H 0.30131 0.89957 0.10808 0.0
H198 H 0.20389 0.80447 0.13589 0.0
H199 H 0.31293 0.90881 0.18934 0.0
Eu200 Eu 0.39477 0.19026 0.78851 0.0
Eu201 Eu 0.39257 0.14507 0.87928 0.0
C202 C 0.44476 0.15863 0.79646 0.0
C203 C 0.39442 0.21276 0.66521 0.0
C204 C 0.39433 0.18238 0.65173 0.0
C205 C 0.39 0.22564 0.58662 0.0
C206 C 0.39225 0.17376 0.60592 0.0
C207 C 0.39219 0.23427 0.63244 0.0
C208 C 0.39006 0.1953 0.57277 0.0
C209 C 0.39668 0.22199 0.7133 0.0
O210 O 0.41437 0.20017 0.90281 0.0
O211 O 0.43697 0.22852 0.83568 0.0
C212 C 0.43562 0.22841 0.8801 0.0
O213 O 0.36254 0.19932 0.83865 0.0
O214 O 0.42027 0.13673 0.93422 0.0
O215 O 0.36422 0.10244 0.92729 0.0
O216 O 0.34403 0.15001 0.88198 0.0
C217 C 0.34057 0.17615 0.86743 0.0
O218 O 0.34909 0.13555 0.78165 0.0
O219 O 0.37097 0.10678 0.82176 0.0
O220 O 0.44236 0.15925 0.84069 0.0
O221 O 0.36822 0.20359 0.73691 0.0
O222 O 0.4246 0.22665 0.7345 0.0
O223 O 0.42266 0.16171 0.77026 0.0
C224 C 0.38771 0.11556 1.00109 0.0
C225 C 0.38391 0.1432 0.01723 0.0
C226 C 0.38721 0.09693 0.07832 0.0
C227 C 0.38198 0.14781 0.06369 0.0
C228 C 0.38914 0.09236 0.03185 0.0
C229 C 0.38387 0.12487 0.09487 0.0
C230 C 0.39178 0.11171 0.95249 0.0
C231 C 0.35037 0.10725 0.79025 0.0
H232 H 0.39583 0.16533 0.67668 0.0
H233 H 0.38877 0.243 0.56198 0.0
H234 H 0.39192 0.15001 0.59649 0.0
H235 H 0.39224 0.25782 0.64228 0.0
H236 H 0.38298 0.16151 0.99389 0.0
H237 H 0.38826 0.0785 0.10129 0.0
H238 H 0.37986 0.16984 0.0752 0.0
H239 H 0.3921 0.07089 0.01993 0.0
C240 C 0.29876 0.19732 0.85597 0.0
C241 C 0.31109 0.17995 0.88329 0.0
C242 C 0.27281 0.2037 0.87164 0.0
C243 C 0.24483 0.22352 0.97521 0.0
H244 H 0.16999 0.21917 0.90194 0.0
C245 C 0.17649 0.29646 0.03248 0.0
C246 C 0.17134 0.31569 0.99898 0.0
C247 C 0.18346 0.27018 0.02068 0.0
C248 C 0.19083 0.22069 0.92279 0.0
H249 H 0.30508 0.15435 0.94769 0.0
H250 H 0.26007 0.16652 0.97586 0.0
H251 H 0.20098 0.18959 0.87652 0.0
H252 H 0.16763 0.32191 0.92715 0.0
H253 H 0.18179 0.27716 0.90599 0.0
H254 H 0.23694 0.25656 0.0198 0.0
C255 C 0.27038 0.1748 0.94209 0.0
C256 C 0.20835 0.20353 0.90837 0.0
C257 C 0.29603 0.16785 0.92602 0.0
C258 C 0.17143 0.30718 0.95344 0.0
C259 C 0.17935 0.2814 0.94149 0.0
C260 C 0.22772 0.24103 0.9893 0.0
C261 C 0.25898 0.19327 0.91523 0.0
C262 C 0.23606 0.20554 0.93396 0.0
C263 C 0.18657 0.26335 0.97504 0.0
C264 C 0.20105 0.24057 0.96277 0.0
H265 H 0.30964 0.20659 0.82265 0.0
H266 H 0.26483 0.21835 0.85045 0.0
H267 H 0.26648 0.22598 0.99522 0.0
H268 H 0.17601 0.3024 0.06791 0.0
H269 H 0.18772 0.25613 0.04745 0.0
C270 C 0.06772 0.31271 0.14356 0.0
C271 C 0.07361 0.34248 0.11959 0.0
C272 C 0.0434 0.29976 0.17875 0.0
C273 C 0.01244 0.32876 0.26857 0.0
H274 H 0.92925 0.23693 0.27325 0.0
C275 C 0.91063 0.28799 0.41157 0.0
C276 C 0.89102 0.25259 0.42325 0.0
C277 C 0.93432 0.2987 0.37568 0.0
C278 C 0.95276 0.2624 0.27301 0.0
H279 H 0.05842 0.3817 0.11268 0.0
H280 H 0.01646 0.35945 0.17529 0.0
H281 H 0.96601 0.25486 0.20582 0.0
H282 H 0.88223 0.20089 0.40905 0.0
H283 H 0.92505 0.21972 0.34821 0.0
H284 H 0.00047 0.33614 0.33612 0.0
C285 C 0.03029 0.34596 0.16618 0.0
C286 C 0.97348 0.27268 0.23416 0.0
C287 C 0.05399 0.35842 0.13028 0.0
C288 C 0.89694 0.22835 0.40038 0.0
C289 C 0.92117 0.23913 0.36518 0.0
C290 C -0.00781 0.31826 0.30781 0.0
C291 C 0.02533 0.31692 0.19101 0.0
C292 C 0.00321 0.30601 0.23163 0.0
C293 C 0.93934 0.27426 0.35138 0.0
C294 C 0.96193 0.285 0.31046 0.0
H295 H 0.08266 0.30009 0.13597 0.0
H296 H 0.0399 0.27736 0.19773 0.0
H297 H 0.03566 0.35447 0.26729 0.0
H298 H 0.90617 0.30712 0.42834 0.0
H299 H 0.94742 0.32588 0.36578 0.0
C300 C 0.80446 0.126 0.59236 0.0
C301 C 0.7923 0.12813 0.54937 0.0
C302 C 0.79796 0.09375 0.60897 0.0
C303 C 0.7701 0.00275 0.5771 0.0
H304 H 0.71542 0.97847 0.68723 0.0
C305 C 0.66628 0.86142 0.6227 0.0
C306 C 0.6572 0.85308 0.66818 0.0
C307 C 0.69199 0.89535 0.61065 0.0
C308 C 0.73141 0.98475 0.65714 0.0
H309 H 0.76623 0.09911 0.48876 0.0
H310 H 0.7553 0.04315 0.51749 0.0
H311 H 0.74624 0.03854 0.66196 0.0
H312 H 0.66949 0.87188 0.73701 0.0
H313 H 0.71565 0.93031 0.71645 0.0
H314 H 0.75471 0.94877 0.57176 0.0
C315 C 0.76962 0.06613 0.53848 0.0
C316 C 0.74907 0.01935 0.64265 0.0
C317 C 0.77553 0.09809 0.52226 0.0
C318 C 0.67581 0.87807 0.7016 0.0
C319 C 0.70205 0.91158 0.68974 0.0
C320 C 0.75282 0.96811 0.59194 0.0
C321 C 0.77991 0.06345 0.5824 0.0
C322 C 0.76764 0.02848 0.60182 0.0
C323 C 0.70947 0.92115 0.64406 0.0
C324 C 0.73233 0.95849 0.63145 0.0
H325 H 0.81748 0.14884 0.61386 0.0
H326 H 0.80612 0.09227 0.64299 0.0
H327 H 0.78448 0.00926 0.54556 0.0
H328 H 0.65207 0.84241 0.59646 0.0
H329 H 0.69668 0.90174 0.5751 0.0
C330 C 0.61905 0.69403 0.79775 0.0
C331 C 0.6337 0.72959 0.7878 0.0
C332 C 0.63245 0.68347 0.83308 0.0
C333 C 0.68517 0.71894 0.93768 0.0
H334 H 0.67916 0.62871 0.93962 0.0
C335 C 0.7487 0.66796 0.0672 0.0
C336 C 0.72414 0.63743 0.08965 0.0
C337 C 0.73809 0.6814 0.03198 0.0
C338 C 0.68079 0.65391 0.93936 0.0
H339 H 0.67513 0.78187 0.8045 0.0
H340 H 0.69992 0.76341 0.86442 0.0
H341 H 0.66307 0.64783 0.87111 0.0
H342 H 0.66929 0.59735 0.09384 0.0
H343 H 0.65095 0.62049 0.03117 0.0
H344 H 0.70429 0.72521 1.00567 0.0
C345 C 0.67716 0.74368 0.84647 0.0
C346 C 0.67148 0.66486 0.90032 0.0
C347 C 0.66326 0.75427 0.81181 0.0
C348 C 0.68864 0.62119 0.07742 0.0
C349 C 0.67819 0.63417 0.0415 0.0
C350 C 0.69519 0.70825 0.97636 0.0
C351 C 0.66122 0.70824 0.85857 0.0
C352 C 0.67319 0.69739 0.89909 0.0
C353 C 0.70297 0.664 0.01818 0.0
C354 C 0.69266 0.67554 0.97753 0.0
H355 H 0.59591 0.67453 0.78011 0.0
H356 H 0.61911 0.65602 0.84167 0.0
H357 H 0.68613 0.7438 0.9385 0.0
H358 H 0.77623 0.68084 0.076 0.0
H359 H 0.75752 0.70442 0.01417 0.0
C360 C 0.09956 0.79368 0.36542 0.0
C361 C 0.12421 0.79981 0.33161 0.0
C362 C 0.06611 0.78683 0.3541 0.0
C363 C 0.00918 0.78185 0.25742 0.0
H364 H 0.93812 0.70446 0.32723 0.0
C365 C 0.87786 0.67496 0.18773 0.0
C366 C 0.84785 0.66124 0.21512 0.0
C367 C 0.9101 0.70105 0.20399 0.0
C368 C 0.95749 0.72661 0.30801 0.0
H369 H 0.13441 0.80538 0.25979 0.0
H370 H 0.07508 0.79135 0.23935 0.0
H371 H -0.00145 0.73346 0.35195 0.0
H372 H 0.82751 0.66506 0.28016 0.0
H373 H 0.88457 0.71036 0.30933 0.0
H374 H 0.96781 0.77277 0.21166 0.0
C375 C 0.08173 0.79292 0.27479 0.0
C376 C -0.00771 0.74339 0.32218 0.0
C377 C 0.11564 0.80073 0.28631 0.0
C378 C 0.85032 0.67518 0.25846 0.0
C379 C 0.88285 0.701 0.27508 0.0
C380 C 0.97432 0.76468 0.24292 0.0
C381 C 0.05623 0.78484 0.30858 0.0
C382 C 0.01877 0.77067 0.2965 0.0
C383 C 0.91311 0.71366 0.24821 0.0
C384 C 0.94836 0.73633 0.26753 0.0
H385 H 0.10597 0.79346 0.40071 0.0
H386 H 0.04762 0.78187 0.38109 0.0
H387 H 0.02872 0.80318 0.23729 0.0
H388 H 0.87659 0.66495 0.15395 0.0
H389 H 0.93304 0.71001 0.18276 0.0
C390 C 0.30318 0.07229 0.73465 0.0
C391 C 0.33318 0.07804 0.75827 0.0
C392 C 0.29032 0.04862 0.69881 0.0
C393 C 0.31994 0.02027 0.60716 0.0
H394 H 0.22906 0.93578 0.60127 0.0
C395 C 0.28217 0.92055 0.46271 0.0
C396 C 0.24671 0.89991 0.45108 0.0
C397 C 0.29215 0.94405 0.49866 0.0
C398 C 0.25423 0.95968 0.60185 0.0
H399 H 0.37282 0.06316 0.76396 0.0
H400 H 0.35071 0.02235 0.70026 0.0
H401 H 0.24624 0.97135 0.66969 0.0
H402 H 0.19411 0.8891 0.46532 0.0
H403 H 0.21163 0.93161 0.52629 0.0
H404 H 0.32777 0.0098 0.53907 0.0
C405 C 0.33698 0.03579 0.71013 0.0
C406 C 0.2641 0.97971 0.64125 0.0
C407 C 0.34937 0.05884 0.74664 0.0
C408 C 0.22163 0.90466 0.47394 0.0
C409 C 0.23167 0.9287 0.50921 0.0
C410 C 0.30983 0.00069 0.5674 0.0
C411 C 0.30779 0.03106 0.68559 0.0
C412 C 0.29713 0.00986 0.64423 0.0
C413 C 0.26691 0.94783 0.52307 0.0
C414 C 0.27696 0.96993 0.56435 0.0
H415 H 0.29037 0.08692 0.74296 0.0
H416 H 0.26778 0.04528 0.68006 0.0
H417 H 0.34541 0.04382 0.60881 0.0
H418 H 0.30194 0.91697 0.44599 0.0
H419 H 0.31945 0.9579 0.50859 0.0
C420 C 0.16332 0.41345 0.71568 0.0
C421 C 0.12926 0.39316 0.7332 0.0
C422 C 0.16945 0.41428 0.66924 0.0
C423 C 0.13174 0.36552 0.56321 0.0
H424 H 0.19628 0.45398 0.50687 0.0
C425 C 0.15151 0.38052 0.36925 0.0
C426 C 0.18601 0.40167 0.35347 0.0
C427 C 0.14375 0.37948 0.41528 0.0
C428 C 0.17848 0.42898 0.52211 0.0
H429 H 0.07501 0.35741 0.71548 0.0
H430 H 0.08567 0.35917 0.6343 0.0
H431 H 0.18441 0.45191 0.58753 0.0
H432 H 0.23926 0.43877 0.37391 0.0
H433 H 0.22592 0.43636 0.45406 0.0
H434 H 0.12598 0.34255 0.49781 0.0
C435 C 0.10767 0.37428 0.6566 0.0
C436 C 0.17166 0.42781 0.5684 0.0
C437 C 0.10151 0.37354 0.70309 0.0
C438 C 0.21249 0.42186 0.38487 0.0
C439 C 0.20474 0.42082 0.43084 0.0
C440 C 0.13861 0.36668 0.51688 0.0
C441 C 0.14171 0.39479 0.63909 0.0
C442 C 0.14835 0.39604 0.58959 0.0
C443 C 0.17029 0.3996 0.44668 0.0
C444 C 0.16222 0.39841 0.49577 0.0
H445 H 0.18525 0.42918 0.73782 0.0
H446 H 0.19605 0.43005 0.65698 0.0
H447 H 0.11396 0.34055 0.57854 0.0
H448 H 0.1305 0.36437 0.34611 0.0
H449 H 0.11687 0.36312 0.42619 0.0
C450 C 0.75278 0.18893 0.15857 0.0
C451 C 0.77939 0.19588 0.19 0.0
C452 C 0.76039 0.1953 0.11251 0.0
C453 C 0.83295 0.24525 0.0319 0.0
H454 H 0.76858 0.1777 0.94532 0.0
C455 C 0.86399 0.255 0.84015 0.0
C456 C 0.83623 0.24658 0.81001 0.0
C457 C 0.85773 0.24878 0.88655 0.0
C458 C 0.78666 0.19706 0.96895 0.0
H459 H 0.83502 0.215 0.19719 0.0
H460 H 0.84829 0.22625 0.11684 0.0
H461 H 0.75652 0.16727 0.02582 0.0
H462 H 0.78015 0.22568 0.80546 0.0
H463 H 0.76927 0.21498 0.8861 0.0
H464 H 0.86299 0.27515 0.97494 0.0
C465 C 0.82155 0.21618 0.12798 0.0
C466 C 0.77973 0.19106 0.0152 0.0
C467 C 0.81392 0.20973 0.1741 0.0
C468 C 0.80208 0.23188 0.82751 0.0
C469 C 0.79583 0.22573 0.87385 0.0
C470 C 0.83985 0.25131 0.98558 0.0
C471 C 0.79483 0.20887 0.09655 0.0
C472 C 0.80268 0.21514 0.0473 0.0
C473 C 0.82355 0.23404 0.90403 0.0
C474 C 0.8167 0.22736 0.95346 0.0
H475 H 0.72602 0.17892 0.1696 0.0
H476 H 0.73927 0.18998 0.08941 0.0
H477 H 0.85098 0.26456 0.05563 0.0
H478 H 0.89056 0.26596 0.8278 0.0
H479 H 0.87966 0.25506 0.90864 0.0
C480 C 0.56237 0.70407 0.3723 0.0
C481 C 0.5832 0.73165 0.402 0.0
C482 C 0.56231 0.71007 0.32593 0.0
C483 C 0.58196 0.78017 0.24366 0.0
H484 H 0.58084 0.71428 0.15657 0.0
C485 C 0.59684 0.809 0.05224 0.0
C486 C 0.57555 0.7814 0.02287 0.0
C487 C 0.59858 0.80285 0.09822 0.0
C488 C 0.58076 0.73276 0.18043 0.0
H489 H 0.6209 0.78709 0.40584 0.0
H490 H 0.62072 0.79757 0.32502 0.0
H491 H 0.58249 0.70374 0.23715 0.0
H492 H 0.53923 0.72564 0.01901 0.0
H493 H 0.54212 0.71491 0.09924 0.0
H494 H 0.57999 0.80907 0.18708 0.0
C495 C 0.60403 0.77136 0.33772 0.0
C496 C 0.58174 0.72672 0.22665 0.0
C497 C 0.60413 0.76535 0.38408 0.0
C498 C 0.55625 0.74743 0.04057 0.0
C499 C 0.55793 0.74128 0.08659 0.0
C500 C 0.58093 0.78617 0.19748 0.0
C501 C 0.58301 0.74382 0.30808 0.0
C502 C 0.58233 0.75035 0.25885 0.0
C503 C 0.57901 0.76894 0.11606 0.0
C504 C 0.58032 0.76255 0.16525 0.0
H505 H 0.54549 0.67789 0.38497 0.0
H506 H 0.54542 0.68836 0.30419 0.0
H507 H 0.5818 0.7986 0.26752 0.0
H508 H 0.61252 0.83539 0.0396 0.0
H509 H 0.61558 0.82468 0.11973 0.0
C510 C 0.74459 0.56324 0.83694 0.0
C511 C 0.77868 0.58344 0.85442 0.0
C512 C 0.73804 0.56426 0.79087 0.0
C513 C 0.78264 0.58744 0.67958 0.0
H514 H 0.69805 0.58535 0.63983 0.0
C515 C 0.7597 0.60785 0.49257 0.0
C516 C 0.72593 0.58615 0.47485 0.0
C517 C 0.76604 0.60822 0.53893 0.0
C518 C 0.72164 0.5856 0.65033 0.0
H519 H 0.83244 0.62131 0.83714 0.0
H520 H 0.82104 0.62321 0.75697 0.0
H521 H 0.70922 0.58481 0.72042 0.0
H522 H 0.67242 0.54756 0.49233 0.0
H523 H 0.68346 0.54831 0.57309 0.0
H524 H 0.79505 0.58821 0.60952 0.0
C525 C 0.79944 0.60602 0.7787 0.0
C526 C 0.72804 0.58527 0.69659 0.0
C527 C 0.80598 0.60495 0.82472 0.0
C528 C 0.69862 0.56502 0.50481 0.0
C529 C 0.70496 0.56543 0.55118 0.0
C530 C 0.77626 0.58782 0.63336 0.0
C531 C 0.76541 0.58555 0.76109 0.0
C532 C 0.75862 0.58616 0.71183 0.0
C533 C 0.73878 0.58693 0.56883 0.0
C534 C 0.74567 0.58687 0.61812 0.0
H535 H 0.72302 0.54602 0.85871 0.0
H536 H 0.71161 0.54776 0.77845 0.0
H537 H 0.80616 0.58753 0.69 0.0
H538 H 0.78124 0.62487 0.47064 0.0
H539 H 0.79228 0.62552 0.55143 0.0
C540 C 0.2088 0.82234 0.70237 0.0
C541 C 0.19627 0.78819 0.68635 0.0
C542 C 0.21554 0.83006 0.7484 0.0
C543 C 0.23228 0.79653 0.85455 0.0
H544 H 0.20589 0.85842 0.91217 0.0
C545 C 0.2323 0.81097 0.04831 0.0
C546 C 0.24529 0.84471 0.06603 0.0
C547 C 0.22689 0.80485 1.00188 0.0
C548 C 0.21378 0.84139 0.8965 0.0
H549 H 0.18157 0.73552 0.70636 0.0
H550 H 0.19253 0.74878 0.78653 0.0
H551 H 0.19565 0.84644 0.83144 0.0
H552 H 0.26229 0.89841 0.04868 0.0
H553 H 0.25321 0.8878 0.96751 0.0
H554 H 0.25019 0.7913 0.91963 0.0
C555 C 0.19751 0.76972 0.76349 0.0
C556 C 0.20794 0.83454 0.85018 0.0
C557 C 0.19078 0.76201 0.71752 0.0
C558 C 0.25255 0.87217 0.03613 0.0
C559 C 0.24701 0.86602 0.98965 0.0
C560 C 0.23805 0.80333 0.90083 0.0
C561 C 0.20997 0.80384 0.77956 0.0
C562 C 0.21695 0.81187 0.82865 0.0
C563 C 0.23425 0.8323 0.97193 0.0
C564 C 0.22871 0.8257 0.92245 0.0
H565 H 0.21302 0.84309 0.6794 0.0
H566 H 0.22545 0.85669 0.7595 0.0
H567 H 0.24016 0.77947 0.83898 0.0
H568 H 0.22679 0.78929 0.07028 0.0
H569 H 0.21666 0.7785 0.98946 0.0
C570 C 0.3654 0.19069 0.49487 0.0
C571 C 0.38803 0.18633 0.52395 0.0
C572 C 0.36396 0.18291 0.44885 0.0
C573 C 0.386 0.13411 0.36598 0.0
H574 H 0.3797 0.19624 0.27946 0.0
C575 C 0.40524 0.12569 0.1739 0.0
C576 C 0.38308 0.13048 0.14441 0.0
C577 C 0.40502 0.13158 0.2203 0.0
C578 C 0.38104 0.17838 0.30316 0.0
H579 H 0.42703 0.17047 0.52726 0.0
H580 H 0.42466 0.15708 0.44697 0.0
H581 H 0.38087 0.20812 0.35999 0.0
H582 H 0.34275 0.14455 0.14096 0.0
H583 H 0.34241 0.15488 0.22185 0.0
H584 H 0.38641 0.10452 0.30901 0.0
C585 C 0.40759 0.16599 0.45986 0.0
C586 C 0.38169 0.18518 0.34939 0.0
C587 C 0.40897 0.1737 0.50593 0.0
C588 C 0.36055 0.14113 0.16256 0.0
C589 C 0.36035 0.14705 0.20897 0.0
C590 C 0.3854 0.12734 0.3197 0.0
C591 C 0.38517 0.17065 0.43068 0.0
C592 C 0.3842 0.16316 0.38143 0.0
C593 C 0.38266 0.14246 0.23841 0.0
C594 C 0.38294 0.14941 0.2877 0.0
H595 H 0.34848 0.19979 0.50777 0.0
H596 H 0.34592 0.1862 0.42757 0.0
H597 H 0.38742 0.1163 0.38967 0.0
H598 H 0.42335 0.11807 0.16104 0.0
H599 H 0.42292 0.12831 0.24188 0.0
C600 C 0.16029 0.51213 0.07872 0.0
C601 C 0.15249 0.4815 0.10208 0.0
C602 C 0.16141 0.54028 0.10183 0.0
C603 C 0.17707 0.57687 0.21642 0.0
H604 H 0.14152 0.63481 0.17055 0.0
C605 C 0.18044 0.68627 0.32463 0.0
C606 C 0.19051 0.71804 0.3028 0.0
C607 C 0.17284 0.65654 0.29953 0.0
C608 C 0.15185 0.61904 0.18363 0.0
H609 H 0.13723 0.45537 0.16712 0.0
H610 H 0.13887 0.50398 0.20685 0.0
H611 H 0.13335 0.58458 0.12644 0.0
H612 H 0.20002 0.74335 0.23732 0.0
H613 H 0.18745 0.69183 0.19389 0.0
H614 H 0.19612 0.61135 0.27308 0.0
C615 C 0.14502 0.50675 0.17112 0.0
C616 C 0.14715 0.5903 0.15836 0.0
C617 C 0.14398 0.47884 0.14823 0.0
C618 C 0.19227 0.71928 0.25532 0.0
C619 C 0.18482 0.68965 0.23029 0.0
C620 C 0.18188 0.60557 0.24151 0.0
C621 C 0.15468 0.53812 0.14856 0.0
C622 C 0.15959 0.56884 0.17463 0.0
C623 C 0.1753 0.65798 0.25209 0.0
C624 C 0.16929 0.62698 0.22553 0.0
H625 H 0.1669 0.51489 0.04315 0.0
H626 H 0.16897 0.5642 0.08358 0.0
H627 H 0.1876 0.56125 0.22946 0.0
H628 H 0.17858 0.68434 0.3611 0.0
H629 H 0.16503 0.63241 0.31736 0.0
C630 C 0.70999 0.18898 0.62213 0.0
C631 C 0.70854 0.18991 0.57469 0.0
C632 C 0.68059 0.18087 0.64826 0.0
C633 C 0.58439 0.14055 0.64402 0.0
H634 H 0.59859 0.19994 0.74757 0.0
C635 C 0.47265 0.15058 0.72781 0.0
C636 C 0.47309 0.15527 0.77485 0.0
C637 C 0.50039 0.15008 0.70617 0.0
C638 C 0.59421 0.18267 0.71933 0.0
H639 H 0.67471 0.18226 0.51756 0.0
H640 H 0.62328 0.16833 0.56339 0.0
H641 H 0.64887 0.20838 0.70365 0.0
H642 H 0.50247 0.16181 0.83628 0.0
H643 H 0.55114 0.16077 0.79829 0.0
H644 H 0.52963 0.11521 0.65933 0.0
C645 C 0.64721 0.17361 0.58023 0.0
C646 C 0.62303 0.18757 0.69404 0.0
C647 C 0.67672 0.18178 0.55397 0.0
C648 C 0.50142 0.15828 0.8 0.0
C649 C 0.52935 0.15788 0.77821 0.0
C650 C 0.55555 0.13559 0.66938 0.0
C651 C 0.64898 0.17346 0.62768 0.0
C652 C 0.6184 0.16687 0.65576 0.0
C653 C 0.52933 0.15426 0.73096 0.0
C654 C 0.5601 0.15695 0.70691 0.0
H655 H 0.73398 0.19486 0.63935 0.0
H656 H 0.68266 0.18046 0.68469 0.0
H657 H 0.58005 0.12381 0.61517 0.0
H658 H 0.45116 0.14798 0.70734 0.0
H659 H 0.49969 0.1477 0.66972 0.0
C660 C 0.28816 0.48689 0.98929 0.0
C661 C 0.25649 0.46267 0.96854 0.0
C662 C 0.31774 0.50827 0.9631 0.0
C663 C 0.34231 0.54578 0.84916 0.0
H664 H 0.43563 0.56786 0.88495 0.0
C665 C 0.4645 0.63964 0.74466 0.0
C666 C 0.49259 0.66509 0.77021 0.0
C667 C 0.43648 0.61097 0.76603 0.0
C668 C 0.40973 0.56204 0.87459 0.0
H669 H 0.23136 0.44132 0.9039 0.0
H670 H 0.28281 0.47838 0.85865 0.0
H671 H 0.38506 0.52573 0.92878 0.0
H672 H 0.51398 0.67964 0.83802 0.0
H673 H 0.46532 0.6303 0.8749 0.0
H674 H 0.36692 0.58268 0.79572 0.0
C675 C 0.28471 0.48118 0.89506 0.0
C676 C 0.38081 0.53797 0.89975 0.0
C677 C 0.25525 0.45982 0.92113 0.0
C678 C 0.49269 0.66065 0.81723 0.0
C679 C 0.46487 0.6321 0.83845 0.0
C680 C 0.37122 0.56992 0.82409 0.0
C681 C 0.31618 0.50588 0.91567 0.0
C682 C 0.34682 0.52993 0.88765 0.0
C683 C 0.43618 0.60718 0.81327 0.0
C684 C 0.40532 0.57874 0.83692 0.0
H685 H 0.29001 0.48974 0.02569 0.0
H686 H 0.34156 0.52731 0.97995 0.0
H687 H 0.31648 0.54044 0.83927 0.0
H688 H 0.46372 0.64227 0.70837 0.0
H689 H 0.41489 0.59197 0.74564 0.0
C690 C 0.82741 0.3442 0.45768 0.0
C691 C 0.80777 0.31014 0.44057 0.0
C692 C 0.82923 0.37232 0.43367 0.0
C693 C 0.81121 0.39449 0.3186 0.0
H694 H 0.81225 0.47187 0.38056 0.0
C695 C 0.80422 0.50226 0.2186 0.0
C696 C 0.78392 0.51515 0.23766 0.0
C697 C 0.81302 0.48125 0.24412 0.0
C698 C 0.81164 0.45029 0.36264 0.0
H699 H 0.77326 0.27839 0.38651 0.0
H700 H 0.77489 0.32655 0.34627 0.0
H701 H 0.81482 0.42687 0.42422 0.0
H702 H 0.75676 0.51608 0.29827 0.0
H703 H 0.77044 0.47832 0.34171 0.0
H704 H 0.80544 0.41629 0.25736 0.0
C705 C 0.79035 0.33225 0.37677 0.0
C706 C 0.8137 0.42471 0.38776 0.0
C707 C 0.7891 0.30449 0.40014 0.0
C708 C 0.77269 0.50675 0.28266 0.0
C709 C 0.78088 0.4853 0.30781 0.0
C710 C 0.80847 0.41963 0.29361 0.0
C711 C 0.81097 0.36666 0.39258 0.0
C712 C 0.81265 0.39601 0.3661 0.0
C713 C 0.80111 0.47214 0.28896 0.0
C714 C 0.8079 0.44752 0.3153 0.0
H715 H 0.84217 0.3492 0.48871 0.0
H716 H 0.8455 0.39847 0.44681 0.0
H717 H 0.81139 0.37335 0.30053 0.0
H718 H 0.81357 0.50863 0.18414 0.0
H719 H 0.82917 0.47218 0.22859 0.0
C720 C 0.31696 0.83329 0.48224 0.0
C721 C 0.31146 0.82465 0.43611 0.0
C722 C 0.34396 0.83269 0.50561 0.0
C723 C 0.42611 0.83109 0.49421 0.0
H724 H 0.39696 0.78213 0.6087 0.0
C725 C 0.50899 0.78541 0.59163 0.0
C726 C 0.50925 0.78698 0.63911 0.0
C727 C 0.48703 0.79308 0.56652 0.0
C728 C 0.40577 0.79638 0.57721 0.0
H729 H 0.33119 0.81048 0.37768 0.0
H730 H 0.37861 0.80916 0.41892 0.0
H731 H 0.35559 0.7907 0.5646 0.0
H732 H 0.48727 0.7988 0.69735 0.0
H733 H 0.44926 0.81274 0.65346 0.0
H734 H 0.47637 0.83664 0.50693 0.0
C735 C 0.36192 0.81651 0.4368 0.0
C736 C 0.38201 0.80123 0.55185 0.0
C737 C 0.33479 0.81721 0.41322 0.0
C738 C 0.48752 0.79708 0.66087 0.0
C739 C 0.46563 0.80492 0.63569 0.0
C740 C 0.45002 0.82636 0.51975 0.0
C741 C 0.36611 0.82332 0.48353 0.0
C742 C 0.39189 0.81865 0.5101 0.0
C743 C 0.46486 0.80265 0.58823 0.0
C744 C 0.44007 0.80889 0.56155 0.0
H745 H 0.29984 0.83975 0.50076 0.0
H746 H 0.34704 0.83888 0.54132 0.0
H747 H 0.43453 0.84485 0.46233 0.0
H748 H 0.52533 0.77764 0.57368 0.0
H749 H 0.48677 0.79059 0.53011 0.0
C750 C 0.6384 0.46728 0.1275 0.0
C751 C 0.66256 0.49746 0.10402 0.0
C752 C 0.611 0.43926 0.10427 0.0
C753 C 0.58995 0.40152 0.99011 0.0
H754 H 0.49512 0.34602 0.03552 0.0
C755 C 0.48133 0.29202 0.88324 0.0
C756 C 0.4589 0.26063 0.9057 0.0
C757 C 0.50416 0.32195 0.90776 0.0
C758 C 0.52158 0.36112 0.02258 0.0
H759 H 0.67558 0.52283 0.0384 0.0
H760 H 0.62792 0.47443 0.99845 0.0
H761 H 0.5384 0.39631 0.07897 0.0
H762 H 0.44247 0.23626 0.97169 0.0
H763 H 0.48258 0.28816 0.01413 0.0
H764 H 0.57357 0.36629 0.93419 0.0
C765 C 0.63054 0.47193 0.03443 0.0
C766 C 0.54632 0.38989 0.04747 0.0
C767 C 0.6578 0.49973 0.05746 0.0
C768 C 0.45936 0.26 0.95321 0.0
C769 C 0.48221 0.28986 0.97766 0.0
C770 C 0.56533 0.37281 0.96535 0.0
C771 C 0.60735 0.44105 0.05728 0.0
C772 C 0.58075 0.41043 0.0314 0.0
C773 C 0.50511 0.32111 0.95524 0.0
C774 C 0.53085 0.35225 0.98123 0.0
H775 H 0.64138 0.46481 0.16338 0.0
H776 H 0.59354 0.41572 0.12276 0.0
H777 H 0.61645 0.41641 0.97723 0.0
H778 H 0.48149 0.29347 0.84672 0.0
H779 H 0.52111 0.34577 0.88948 0.0
loop_
_geom_bond_atom_site_label_1
_geom_bond_atom_site_label_2
_geom_bond_distance
_geom_bond_site_symmetry_2
_ccdc_geom_bond_type
Eu0 C9 2.828 . S
Eu0 O11 2.372 1_554 S
Eu0 O13 2.418 . S
Eu0 O18 2.373 . S
Eu0 O21 2.488 . S
Eu0 O22 2.471 . S
Eu0 O23 2.349 . S
Eu1 O10 2.373 . S
Eu1 O14 2.488 . S
Eu1 O15 2.471 . S
Eu1 O16 2.349 . S
Eu1 O19 2.392 1_556 S
Eu1 O20 2.418 . S
Eu1 C30 2.828 . S
C2 O20 1.244 1_554 S
C2 O23 1.265 . S
C3 C4 1.379 . S
C3 C7 1.373 . S
C3 C9 1.505 . S
C4 C3 1.379 . S
C4 C6 1.369 . S
C4 H32 0.930 . S
C5 C7 1.383 . S
C5 C8 1.382 . S
C5 H33 0.930 . S
C6 C4 1.369 . S
C6 C8 1.392 . S
C6 H34 0.930 . S
C7 C3 1.373 . S
C7 C5 1.383 . S
C7 H35 0.931 . S
C8 C5 1.382 . S
C8 C6 1.392 . S
C9 Eu0 2.828 . S
C9 C3 1.505 . S
C9 O21 1.249 . S
C9 O22 1.244 . S
O10 Eu1 2.373 . S
O10 C12 1.258 . S
O11 Eu0 2.372 1_556 S
O11 C12 1.263 . S
C12 O10 1.258 . S
C12 O11 1.263 . S
O13 Eu0 2.418 . S
O13 C17 1.244 . S
O14 Eu1 2.488 . S
O14 C30 1.249 . S
O15 Eu1 2.471 . S
O15 C30 1.244 . S
O16 Eu1 2.349 . S
O16 C17 1.265 1_556 S
C17 O13 1.244 . S
C17 O16 1.265 1_554 S
O18 Eu0 2.373 . S
O18 C31 1.258 . S
O19 Eu1 2.392 1_554 S
O19 C31 1.242 . S
O20 Eu1 2.418 . S
O20 C2 1.244 1_556 S
O21 Eu0 2.488 . S
O21 C9 1.249 . S
O22 Eu0 2.471 . S
O22 C9 1.244 . S
O23 Eu0 2.349 . S
O23 C2 1.265 . S
C24 C25 1.379 . S
C24 C28 1.373 . S
C24 C30 1.505 . S
C25 C24 1.379 . S
C25 C27 1.369 . S
C25 H36 0.930 . S
C26 C28 1.383 . S
C26 C29 1.382 . S
C26 H37 0.930 . S
C27 C25 1.369 . S
C27 C29 1.392 . S
C27 H38 0.930 . S
C28 C24 1.373 . S
C28 C26 1.383 . S
C28 H39 0.931 . S
C29 C26 1.382 . S
C29 C27 1.392 . S
C30 Eu1 2.828 . S
C30 O14 1.249 . S
C30 O15 1.244 . S
C30 C24 1.505 . S
C31 O18 1.258 . S
C31 O19 1.242 . S
H32 C4 0.930 . S
H33 C5 0.930 . S
H34 C6 0.930 . S
H35 C7 0.931 . S
H36 C25 0.930 . S
H37 C26 0.930 . S
H38 C27 0.930 . S
H39 C28 0.931 . S
Eu40 C49 2.828 . S
Eu40 O51 2.392 . S
Eu40 O53 2.418 . S
Eu40 O58 2.373 . S
Eu40 O61 2.488 . S
Eu40 O62 2.471 . S
Eu40 O63 2.349 . S
Eu41 O50 2.373 . S
Eu41 O54 2.488 . S
Eu41 O55 2.471 . S
Eu41 O56 2.349 . S
Eu41 O59 2.392 . S
Eu41 O60 2.418 . S
Eu41 C70 2.828 . S
C42 O60 1.244 . S
C42 O63 1.265 . S
C43 C44 1.379 . S
C43 C47 1.373 . S
C43 C49 1.505 . S
C44 C43 1.379 . S
C44 C46 1.369 . S
C44 H72 0.930 . S
C45 C47 1.383 . S
C45 C48 1.382 . S
C45 H73 0.930 . S
C46 C44 1.369 . S
C46 C48 1.392 . S
C46 H74 0.930 . S
C47 C43 1.373 . S
C47 C45 1.383 . S
C47 H75 0.931 . S
C48 C45 1.382 . S
C48 C46 1.392 . S
C49 Eu40 2.828 . S
C49 C43 1.505 . S
C49 O61 1.249 . S
C49 O62 1.244 . S
O50 Eu41 2.373 . S
O50 C52 1.258 . S
O51 Eu40 2.392 . S
O51 C52 1.242 . S
C52 O50 1.258 . S
C52 O51 1.242 . S
O53 Eu40 2.418 . S
O53 C57 1.244 . S
O54 Eu41 2.488 . S
O54 C70 1.249 . S
O55 Eu41 2.471 . S
O55 C70 1.244 . S
O56 Eu41 2.349 . S
O56 C57 1.265 . S
C57 O53 1.244 . S
C57 O56 1.265 . S
O58 Eu40 2.373 . S
O58 C71 1.258 . S
O59 Eu41 2.392 . S
O59 C71 1.242 . S
O60 Eu41 2.418 . S
O60 C42 1.244 . S
O61 Eu40 2.488 . S
O61 C49 1.249 . S
O62 Eu40 2.471 . S
O62 C49 1.244 . S
O63 Eu40 2.349 . S
O63 C42 1.265 . S
C64 C65 1.379 . S
C64 C68 1.373 . S
C64 C70 1.505 . S
C65 C64 1.379 . S
C65 C67 1.369 . S
C65 H76 0.930 . S
C66 C68 1.383 . S
C66 C69 1.382 . S
C66 H77 0.930 . S
C67 C65 1.369 . S
C67 C69 1.392 . S
C67 H78 0.930 . S
C68 C64 1.373 . S
C68 C66 1.383 . S
C68 H79 0.931 . S
C69 C66 1.382 . S
C69 C67 1.392 . S
C70 Eu41 2.828 . S
C70 O54 1.249 . S
C70 O55 1.244 . S
C70 C64 1.505 . S
C71 O58 1.258 . S
C71 O59 1.242 . S
H72 C44 0.930 . S
H73 C45 0.930 . S
H74 C46 0.930 . S
H75 C47 0.931 . S
H76 C65 0.930 . S
H77 C66 0.930 . S
H78 C67 0.930 . S
H79 C68 0.931 . S
Eu80 C89 2.828 . S
Eu80 O91 2.392 . S
Eu80 O93 2.418 . S
Eu80 O98 2.373 . S
Eu80 O101 2.488 . S
Eu80 O102 2.471 . S
Eu80 O103 2.349 . S
Eu81 O90 2.373 . S
Eu81 O94 2.488 . S
Eu81 O95 2.471 . S
Eu81 O96 2.349 . S
Eu81 O99 2.392 . S
Eu81 O100 2.418 . S
Eu81 C110 2.828 . S
C82 O100 1.244 . S
C82 O103 1.265 . S
C83 C84 1.379 . S
C83 C87 1.373 . S
C83 C89 1.505 . S
C84 C83 1.379 . S
C84 C86 1.369 . S
C84 H112 0.930 . S
C85 C87 1.383 . S
C85 C88 1.382 . S
C85 H113 0.930 . S
C86 C84 1.369 . S
C86 C88 1.392 . S
C86 H114 0.930 . S
C87 C83 1.373 . S
C87 C85 1.383 . S
C87 H115 0.931 . S
C88 C85 1.382 . S
C88 C86 1.392 . S
C89 Eu80 2.828 . S
C89 C83 1.505 . S
C89 O101 1.249 . S
C89 O102 1.244 . S
O90 Eu81 2.373 . S
O90 C92 1.258 . S
O91 Eu80 2.392 . S
O91 C92 1.242 . S
C92 O90 1.258 . S
C92 O91 1.242 . S
O93 Eu80 2.418 . S
O93 C97 1.244 . S
O94 Eu81 2.488 . S
O94 C110 1.249 . S
O95 Eu81 2.471 . S
O95 C110 1.244 . S
O96 Eu81 2.349 . S
O96 C97 1.265 . S
C97 O93 1.244 . S
C97 O96 1.265 . S
O98 Eu80 2.373 . S
O98 C111 1.258 . S
O99 Eu81 2.392 . S
O99 C111 1.242 . S
O100 Eu81 2.418 . S
O100 C82 1.244 . S
O101 Eu80 2.488 . S
O101 C89 1.249 . S
O102 Eu80 2.471 . S
O102 C89 1.244 . S
O103 Eu80 2.349 . S
O103 C82 1.265 . S
C104 C105 1.379 . S
C104 C108 1.373 . S
C104 C110 1.505 . S
C105 C104 1.379 . S
C105 C107 1.369 . S
C105 H116 0.930 . S
C106 C108 1.383 . S
C106 C109 1.382 . S
C106 H117 0.930 . S
C107 C105 1.369 . S
C107 C109 1.392 . S
C107 H118 0.930 . S
C108 C104 1.373 . S
C108 C106 1.383 . S
C108 H119 0.931 . S
C109 C106 1.382 . S
C109 C107 1.392 . S
C110 Eu81 2.828 . S
C110 O94 1.249 . S
C110 O95 1.244 . S
C110 C104 1.505 . S
C111 O98 1.258 . S
C111 O99 1.242 . S
H112 C84 0.930 . S
H113 C85 0.930 . S
H114 C86 0.930 . S
H115 C87 0.931 . S
H116 C105 0.930 . S
H117 C106 0.930 . S
H118 C107 0.930 . S
H119 C108 0.931 . S
Eu120 C129 2.828 . S
Eu120 O131 2.392 . S
Eu120 O133 2.418 . S
Eu120 O138 2.373 . S
Eu120 O141 2.488 . S
Eu120 O142 2.471 . S
Eu120 O143 2.349 . S
Eu121 O130 2.373 . S
Eu121 O134 2.488 . S
Eu121 O135 2.471 . S
Eu121 O136 2.349 . S
Eu121 O139 2.392 . S
Eu121 O140 2.418 . S
Eu121 C150 2.828 . S
C122 O140 1.244 . S
C122 O143 1.265 . S
C123 C124 1.379 . S
C123 C127 1.373 . S
C123 C129 1.505 1_556 S
C124 C123 1.379 . S
C124 C126 1.369 . S
C124 H152 0.930 . S
C125 C127 1.383 . S
C125 C128 1.382 . S
C125 H153 0.930 . S
C126 C124 1.369 . S
C126 C128 1.392 . S
C126 H154 0.930 . S
C127 C123 1.373 . S
C127 C125 1.383 . S
C127 H155 0.931 . S
C128 C125 1.382 . S
C128 C126 1.392 . S
C129 Eu120 2.828 . S
C129 C123 1.505 1_554 S
C129 O141 1.249 . S
C129 O142 1.244 . S
O130 Eu121 2.373 . S
O130 C132 1.258 . S
O131 Eu120 2.392 . S
O131 C132 1.242 . S
C132 O130 1.258 . S
C132 O131 1.242 . S
O133 Eu120 2.418 . S
O133 C137 1.244 . S
O134 Eu121 2.488 . S
O134 C150 1.249 . S
O135 Eu121 2.471 . S
O135 C150 1.244 . S
O136 Eu121 2.349 . S
O136 C137 1.265 . S
C137 O133 1.244 . S
C137 O136 1.265 . S
O138 Eu120 2.373 . S
O138 C151 1.258 . S
O139 Eu121 2.392 . S
O139 C151 1.242 . S
O140 Eu121 2.418 . S
O140 C122 1.244 . S
O141 Eu120 2.488 . S
O141 C129 1.249 . S
O142 Eu120 2.471 . S
O142 C129 1.244 . S
O143 Eu120 2.349 . S
O143 C122 1.265 . S
C144 C145 1.379 . S
C144 C148 1.373 . S
C144 C150 1.505 . S
C145 C144 1.379 . S
C145 C147 1.369 . S
C145 H156 0.930 . S
C146 C148 1.383 . S
C146 C149 1.382 . S
C146 H157 0.930 . S
C147 C145 1.369 . S
C147 C149 1.392 . S
C147 H158 0.930 . S
C148 C144 1.373 . S
C148 C146 1.383 . S
C148 H159 0.931 . S
C149 C146 1.382 . S
C149 C147 1.392 . S
C150 Eu121 2.828 . S
C150 O134 1.249 . S
C150 O135 1.244 . S
C150 C144 1.505 . S
C151 O138 1.258 . S
C151 O139 1.242 . S
H152 C124 0.930 . S
H153 C125 0.930 . S
H154 C126 0.930 . S
H155 C127 0.931 . S
H156 C145 0.930 . S
H157 C146 0.930 . S
H158 C147 0.930 . S
H159 C148 0.931 . S
Eu160 C169 2.828 . S
Eu160 O171 2.392 . S
Eu160 O173 2.418 . S
Eu160 O178 2.373 . S
Eu160 O181 2.488 . S
Eu160 O182 2.471 . S
Eu160 O183 2.349 . S
Eu161 O170 2.373 . S
Eu161 O174 2.488 . S
Eu161 O175 2.471 . S
Eu161 O176 2.349 . S
Eu161 O179 2.392 . S
Eu161 O180 2.418 . S
Eu161 C190 2.828 . S
C162 O180 1.244 . S
C162 O183 1.265 . S
C163 C164 1.379 . S
C163 C167 1.373 . S
C163 C169 1.505 . S
C164 C163 1.379 . S
C164 C166 1.369 . S
C164 H192 0.930 . S
C165 C167 1.383 . S
C165 C168 1.382 . S
C165 H193 0.930 . S
C166 C164 1.369 . S
C166 C168 1.392 . S
C166 H194 0.930 . S
C167 C163 1.373 . S
C167 C165 1.383 . S
C167 H195 0.931 . S
C168 C165 1.382 . S
C168 C166 1.392 . S
C169 Eu160 2.828 . S
C169 C163 1.505 . S
C169 O181 1.249 . S
C169 O182 1.244 . S
O170 Eu161 2.373 . S
O170 C172 1.258 . S
O171 Eu160 2.392 . S
O171 C172 1.242 . S
C172 O170 1.258 . S
C172 O171 1.242 . S
O173 Eu160 2.418 . S
O173 C177 1.244 . S
O174 Eu161 2.488 . S
O174 C190 1.249 . S
O175 Eu161 2.471 . S
O175 C190 1.244 . S
O176 Eu161 2.349 . S
O176 C177 1.265 . S
C177 O173 1.244 . S
C177 O176 1.265 . S
O178 Eu160 2.373 . S
O178 C191 1.258 . S
O179 Eu161 2.392 . S
O179 C191 1.242 . S
O180 Eu161 2.418 . S
O180 C162 1.244 . S
O181 Eu160 2.488 . S
O181 C169 1.249 . S
O182 Eu160 2.471 . S
O182 C169 1.244 . S
O183 Eu160 2.349 . S
O183 C162 1.265 . S
C184 C185 1.379 . S
C184 C188 1.373 . S
C184 C190 1.505 . S
C185 C184 1.379 . S
C185 C187 1.369 . S
C185 H196 0.930 . S
C186 C188 1.383 . S
C186 C189 1.382 . S
C186 H197 0.930 . S
C187 C185 1.369 . S
C187 C189 1.392 . S
C187 H198 0.930 . S
C188 C184 1.373 . S
C188 C186 1.383 . S
C188 H199 0.931 . S
C189 C186 1.382 . S
C189 C187 1.392 . S
C190 Eu161 2.828 . S
C190 O174 1.249 . S
C190 O175 1.244 . S
C190 C184 1.505 . S
C191 O178 1.258 . S
C191 O179 1.242 . S
H192 C164 0.930 . S
H193 C165 0.930 . S
H194 C166 0.930 . S
H195 C167 0.931 . S
H196 C185 0.930 . S
H197 C186 0.930 . S
H198 C187 0.930 . S
H199 C188 0.931 . S
Eu200 C209 2.828 . S
Eu200 O211 2.392 . S
Eu200 O213 2.418 . S
Eu200 O218 2.373 . S
Eu200 O221 2.488 . S
Eu200 O222 2.471 . S
Eu200 O223 2.349 . S
Eu201 O210 2.373 . S
Eu201 O214 2.488 . S
Eu201 O215 2.471 . S
Eu201 O216 2.349 . S
Eu201 O219 2.392 . S
Eu201 O220 2.418 . S
Eu201 C230 2.828 . S
C202 O220 1.244 . S
C202 O223 1.265 . S
C203 C204 1.379 . S
C203 C207 1.373 . S
C203 C209 1.505 . S
C204 C203 1.379 . S
C204 C206 1.369 . S
C204 H232 0.930 . S
C205 C207 1.383 . S
C205 C208 1.382 . S
C205 H233 0.930 . S
C206 C204 1.369 . S
C206 C208 1.392 . S
C206 H234 0.930 . S
C207 C203 1.373 . S
C207 C205 1.383 . S
C207 H235 0.931 . S
C208 C205 1.382 . S
C208 C206 1.392 . S
C209 Eu200 2.828 . S
C209 C203 1.505 . S
C209 O221 1.249 . S
C209 O222 1.244 . S
O210 Eu201 2.373 . S
O210 C212 1.258 . S
O211 Eu200 2.392 . S
O211 C212 1.242 . S
C212 O210 1.258 . S
C212 O211 1.242 . S
O213 Eu200 2.418 . S
O213 C217 1.244 . S
O214 Eu201 2.488 . S
O214 C230 1.249 . S
O215 Eu201 2.471 . S
O215 C230 1.244 . S
O216 Eu201 2.349 . S
O216 C217 1.265 . S
C217 O213 1.244 . S
C217 O216 1.265 . S
O218 Eu200 2.373 . S
O218 C231 1.258 . S
O219 Eu201 2.392 . S
O219 C231 1.242 . S
O220 Eu201 2.418 . S
O220 C202 1.244 . S
O221 Eu200 2.488 . S
O221 C209 1.249 . S
O222 Eu200 2.471 . S
O222 C209 1.244 . S
O223 Eu200 2.349 . S
O223 C202 1.265 . S
C224 C225 1.379 . S
C224 C228 1.373 . S
C224 C230 1.505 1_554 S
C225 C224 1.379 . S
C225 C227 1.369 . S
C225 H236 0.930 . S
C226 C228 1.383 . S
C226 C229 1.382 . S
C226 H237 0.930 . S
C227 C225 1.369 . S
C227 C229 1.392 . S
C227 H238 0.930 . S
C228 C224 1.373 . S
C228 C226 1.383 . S
C228 H239 0.931 . S
C229 C226 1.382 . S
C229 C227 1.392 . S
C230 Eu201 2.828 . S
C230 O214 1.249 . S
C230 O215 1.244 . S
C230 C224 1.505 1_556 S
C231 O218 1.258 . S
C231 O219 1.242 . S
H232 C204 0.930 . S
H233 C205 0.930 . S
H234 C206 0.930 . S
H235 C207 0.931 . S
H236 C225 0.930 . S
H237 C226 0.930 . S
H238 C227 0.930 . S
H239 C228 0.931 . S
C240 C241 1.349 . S
C240 C242 1.327 . S
C240 H265 0.950 . S
C241 C240 1.349 . S
C241 C257 1.349 . S
C242 C240 1.327 . S
C242 C261 1.429 . S
C242 H266 0.950 . S
C243 C260 1.574 . S
C243 C262 1.368 . S
C243 H267 0.949 . S
H244 C248 0.949 . S
C245 C246 1.349 1_554 S
C245 C247 1.327 . S
C245 H268 0.950 . S
C246 C245 1.349 1_556 S
C246 C258 1.349 . S
C247 C245 1.327 . S
C247 C263 1.429 1_554 S
C247 H269 0.950 . S
C248 H244 0.949 . S
C248 C256 1.574 . S
C248 C264 1.368 . S
H249 C257 0.950 . S
H250 C255 0.950 . S
H251 C256 0.949 . S
H252 C258 0.950 . S
H253 C259 0.950 . S
H254 C260 0.949 1_554 S
C255 H250 0.950 . S
C255 C257 1.327 . S
C255 C261 1.429 . S
C256 C248 1.574 . S
C256 H251 0.949 . S
C256 C262 1.368 . S
C257 C241 1.349 . S
C257 H249 0.950 . S
C257 C255 1.327 . S
C258 C246 1.349 . S
C258 H252 0.950 . S
C258 C259 1.327 . S
C259 H253 0.950 . S
C259 C258 1.327 . S
C259 C263 1.429 . S
C260 C243 1.574 . S
C260 H254 0.949 1_556 S
C260 C264 1.368 . S
C261 C242 1.429 . S
C261 C255 1.429 . S
C261 C262 1.523 . S
C262 C243 1.368 . S
C262 C256 1.368 . S
C262 C261 1.523 . S
C263 C247 1.429 1_556 S
C263 C259 1.429 . S
C263 C264 1.523 . S
C264 C248 1.368 . S
C264 C260 1.368 . S
C264 C263 1.523 . S
H265 C240 0.950 . S
H266 C242 0.950 . S
H267 C243 0.949 . S
H268 C245 0.950 . S
H269 C247 0.950 . S
C270 C271 1.349 . S
C270 C272 1.327 . S
C270 H295 0.950 . S
C271 C270 1.349 . S
C271 C287 1.349 . S
C272 C270 1.327 . S
C272 C291 1.429 . S
C272 H296 0.950 . S
C273 C290 1.574 . S
C273 C292 1.368 . S
C273 H297 0.949 . S
H274 C278 0.949 . S
C275 C276 1.349 . S
C275 C277 1.327 . S
C275 H298 0.950 . S
C276 C275 1.349 . S
C276 C288 1.349 . S
C277 C275 1.327 . S
C277 C293 1.429 . S
C277 H299 0.950 . S
C278 H274 0.949 . S
C278 C286 1.574 . S
C278 C294 1.368 . S
H279 C287 0.950 . S
H280 C285 0.950 . S
H281 C286 0.949 . S
H282 C288 0.950 . S
H283 C289 0.950 . S
H284 C290 0.949 . S
C285 H280 0.950 . S
C285 C287 1.327 . S
C285 C291 1.429 . S
C286 C278 1.574 . S
C286 H281 0.949 . S
C286 C292 1.368 1_655 S
C287 C271 1.349 . S
C287 H279 0.950 . S
C287 C285 1.327 . S
C288 C276 1.349 . S
C288 H282 0.950 . S
C288 C289 1.327 . S
C289 H283 0.950 . S
C289 C288 1.327 . S
C289 C293 1.429 . S
C290 C273 1.574 . S
C290 H284 0.949 . S
C290 C294 1.368 1_455 S
C291 C272 1.429 . S
C291 C285 1.429 . S
C291 C292 1.523 . S
C292 C273 1.368 . S
C292 C286 1.368 1_455 S
C292 C291 1.523 . S
C293 C277 1.429 . S
C293 C289 1.429 . S
C293 C294 1.523 . S
C294 C278 1.368 . S
C294 C290 1.368 1_655 S
C294 C293 1.523 . S
H295 C270 0.950 . S
H296 C272 0.950 . S
H297 C273 0.949 . S
H298 C275 0.950 . S
H299 C277 0.950 . S
C300 C301 1.349 . S
C300 C302 1.327 . S
C300 H325 0.950 . S
C301 C300 1.349 . S
C301 C317 1.349 . S
C302 C300 1.327 . S
C302 C321 1.429 . S
C302 H326 0.950 . S
C303 C320 1.574 1_545 S
C303 C322 1.368 . S
C303 H327 0.949 . S
H304 C308 0.949 . S
C305 C306 1.349 . S
C305 C307 1.327 . S
C305 H328 0.950 . S
C306 C305 1.349 . S
C306 C318 1.349 . S
C307 C305 1.327 . S
C307 C323 1.429 . S
C307 H329 0.950 . S
C308 H304 0.949 . S
C308 C316 1.574 1_565 S
C308 C324 1.368 . S
H309 C317 0.950 . S
H310 C315 0.950 . S
H311 C316 0.949 . S
H312 C318 0.950 . S
H313 C319 0.950 . S
H314 C320 0.949 . S
C315 H310 0.950 . S
C315 C317 1.327 . S
C315 C321 1.429 . S
C316 C308 1.574 1_545 S
C316 H311 0.949 . S
C316 C322 1.368 . S
C317 C301 1.349 . S
C317 H309 0.950 . S
C317 C315 1.327 . S
C318 C306 1.349 . S
C318 H312 0.950 . S
C318 C319 1.327 . S
C319 H313 0.950 . S
C319 C318 1.327 . S
C319 C323 1.429 . S
C320 C303 1.574 1_565 S
C320 H314 0.949 . S
C320 C324 1.368 . S
C321 C302 1.429 . S
C321 C315 1.429 . S
C321 C322 1.523 . S
C322 C303 1.368 . S
C322 C316 1.368 . S
C322 C321 1.523 . S
C323 C307 1.429 . S
C323 C319 1.429 . S
C323 C324 1.523 . S
C324 C308 1.368 . S
C324 C320 1.368 . S
C324 C323 1.523 . S
H325 C300 0.950 . S
H326 C302 0.950 . S
H327 C303 0.949 . S
H328 C305 0.950 . S
H329 C307 0.950 . S
C330 C331 1.349 . S
C330 C332 1.327 . S
C330 H355 0.950 . S
C331 C330 1.349 . S
C331 C347 1.349 . S
C332 C330 1.327 . S
C332 C351 1.429 . S
C332 H356 0.950 . S
C333 C350 1.574 . S
C333 C352 1.368 . S
C333 H357 0.949 . S
H334 C338 0.949 . S
C335 C336 1.349 . S
C335 C337 1.327 . S
C335 H358 0.950 . S
C336 C335 1.349 . S
C336 C348 1.349 . S
C337 C335 1.327 . S
C337 C353 1.429 . S
C337 H359 0.950 . S
C338 H334 0.949 . S
C338 C346 1.574 . S
C338 C354 1.368 . S
H339 C347 0.950 . S
H340 C345 0.950 . S
H341 C346 0.949 . S
H342 C348 0.950 . S
H343 C349 0.950 1_556 S
H344 C350 0.949 1_554 S
C345 H340 0.950 . S
C345 C347 1.327 . S
C345 C351 1.429 . S
C346 C338 1.574 . S
C346 H341 0.949 . S
C346 C352 1.368 . S
C347 C331 1.349 . S
C347 H339 0.950 . S
C347 C345 1.327 . S
C348 C336 1.349 . S
C348 H342 0.950 . S
C348 C349 1.327 . S
C349 H343 0.950 1_554 S
C349 C348 1.327 . S
C349 C353 1.429 . S
C350 C333 1.574 . S
C350 H344 0.949 1_556 S
C350 C354 1.368 . S
C351 C332 1.429 . S
C351 C345 1.429 . S
C351 C352 1.523 . S
C352 C333 1.368 . S
C352 C346 1.368 . S
C352 C351 1.523 . S
C353 C337 1.429 . S
C353 C349 1.429 . S
C353 C354 1.523 1_554 S
C354 C338 1.368 . S
C354 C350 1.368 . S
C354 C353 1.523 1_556 S
H355 C330 0.950 . S
H356 C332 0.950 . S
H357 C333 0.949 . S
H358 C335 0.950 . S
H359 C337 0.950 . S
C360 C361 1.349 . S
C360 C362 1.327 . S
C360 H385 0.950 . S
C361 C360 1.349 . S
C361 C377 1.349 . S
C362 C360 1.327 . S
C362 C381 1.429 . S
C362 H386 0.950 . S
C363 C380 1.574 1_455 S
C363 C382 1.368 . S
C363 H387 0.949 . S
H364 C368 0.949 . S
C365 C366 1.349 . S
C365 C367 1.327 . S
C365 H388 0.950 . S
C366 C365 1.349 . S
C366 C378 1.349 . S
C367 C365 1.327 . S
C367 C383 1.429 . S
C367 H389 0.950 . S
C368 H364 0.949 . S
C368 C376 1.574 1_655 S
C368 C384 1.368 . S
H369 C377 0.950 . S
H370 C375 0.950 . S
H371 C376 0.949 . S
H372 C378 0.950 . S
H373 C379 0.950 . S
H374 C380 0.949 . S
C375 H370 0.950 . S
C375 C377 1.327 . S
C375 C381 1.429 . S
C376 C368 1.574 1_455 S
C376 H371 0.949 . S
C376 C382 1.368 . S
C377 C361 1.349 . S
C377 H369 0.950 . S
C377 C375 1.327 . S
C378 C366 1.349 . S
C378 H372 0.950 . S
C378 C379 1.327 . S
C379 H373 0.950 . S
C379 C378 1.327 . S
C379 C383 1.429 . S
C380 C363 1.574 1_655 S
C380 H374 0.949 . S
C380 C384 1.368 . S
C381 C362 1.429 . S
C381 C375 1.429 . S
C381 C382 1.523 . S
C382 C363 1.368 . S
C382 C376 1.368 . S
C382 C381 1.523 . S
C383 C367 1.429 . S
C383 C379 1.429 . S
C383 C384 1.523 . S
C384 C368 1.368 . S
C384 C380 1.368 . S
C384 C383 1.523 . S
H385 C360 0.950 . S
H386 C362 0.950 . S
H387 C363 0.949 . S
H388 C365 0.950 . S
H389 C367 0.950 . S
C390 C391 1.349 . S
C390 C392 1.327 . S
C390 H415 0.950 . S
C391 C390 1.349 . S
C391 C407 1.349 . S
C392 C390 1.327 . S
C392 C411 1.429 . S
C392 H416 0.950 . S
C393 C410 1.574 . S
C393 C412 1.368 . S
C393 H417 0.949 . S
H394 C398 0.949 . S
C395 C396 1.349 . S
C395 C397 1.327 . S
C395 H418 0.950 . S
C396 C395 1.349 . S
C396 C408 1.349 . S
C397 C395 1.327 . S
C397 C413 1.429 . S
C397 H419 0.950 . S
C398 H394 0.949 . S
C398 C406 1.574 . S
C398 C414 1.368 . S
H399 C407 0.950 . S
H400 C405 0.950 . S
H401 C406 0.949 . S
H402 C408 0.950 . S
H403 C409 0.950 . S
H404 C410 0.949 . S
C405 H400 0.950 . S
C405 C407 1.327 . S
C405 C411 1.429 . S
C406 C398 1.574 . S
C406 H401 0.949 . S
C406 C412 1.368 1_565 S
C407 C391 1.349 . S
C407 H399 0.950 . S
C407 C405 1.327 . S
C408 C396 1.349 . S
C408 H402 0.950 . S
C408 C409 1.327 . S
C409 H403 0.950 . S
C409 C408 1.327 . S
C409 C413 1.429 . S
C410 C393 1.574 . S
C410 H404 0.949 . S
C410 C414 1.368 1_545 S
C411 C392 1.429 . S
C411 C405 1.429 . S
C411 C412 1.523 . S
C412 C393 1.368 . S
C412 C406 1.368 1_545 S
C412 C411 1.523 . S
C413 C397 1.429 . S
C413 C409 1.429 . S
C413 C414 1.523 . S
C414 C398 1.368 . S
C414 C410 1.368 1_565 S
C414 C413 1.523 . S
H415 C390 0.950 . S
H416 C392 0.950 . S
H417 C393 0.949 . S
H418 C395 0.950 . S
H419 C397 0.950 . S
C420 C421 1.349 . S
C420 C422 1.327 . S
C420 H445 0.950 . S
C421 C420 1.349 . S
C421 C437 1.349 . S
C422 C420 1.327 . S
C422 C441 1.429 . S
C422 H446 0.950 . S
C423 C440 1.574 . S
C423 C442 1.368 . S
C423 H447 0.949 . S
H424 C428 0.949 . S
C425 C426 1.349 . S
C425 C427 1.327 . S
C425 H448 0.950 . S
C426 C425 1.349 . S
C426 C438 1.349 . S
C427 C425 1.327 . S
C427 C443 1.429 . S
C427 H449 0.950 . S
C428 H424 0.949 . S
C428 C436 1.574 . S
C428 C444 1.368 . S
H429 C437 0.950 . S
H430 C435 0.950 . S
H431 C436 0.949 . S
H432 C438 0.950 . S
H433 C439 0.950 . S
H434 C440 0.949 . S
C435 H430 0.950 . S
C435 C437 1.327 . S
C435 C441 1.429 . S
C436 C428 1.574 . S
C436 H431 0.949 . S
C436 C442 1.368 . S
C437 C421 1.349 . S
C437 H429 0.950 . S
C437 C435 1.327 . S
C438 C426 1.349 . S
C438 H432 0.950 . S
C438 C439 1.327 . S
C439 H433 0.950 . S
C439 C438 1.327 . S
C439 C443 1.429 . S
C440 C423 1.574 . S
C440 H434 0.949 . S
C440 C444 1.368 . S
C441 C422 1.429 . S
C441 C435 1.429 . S
C441 C442 1.523 . S
C442 C423 1.368 . S
C442 C436 1.368 . S
C442 C441 1.523 . S
C443 C427 1.429 . S
C443 C439 1.429 . S
C443 C444 1.523 . S
C444 C428 1.368 . S
C444 C440 1.368 . S
C444 C443 1.523 . S
H445 C420 0.950 . S
H446 C422 0.950 . S
H447 C423 0.949 . S
H448 C425 0.950 . S
H449 C427 0.950 . S
C450 C451 1.349 . S
C450 C452 1.327 . S
C450 H475 0.950 . S
C451 C450 1.349 . S
C451 C467 1.349 . S
C452 C450 1.327 . S
C452 C471 1.429 . S
C452 H476 0.950 . S
C453 C470 1.574 1_554 S
C453 C472 1.368 . S
C453 H477 0.949 . S
H454 C458 0.949 . S
C455 C456 1.349 . S
C455 C457 1.327 . S
C455 H478 0.950 . S
C456 C455 1.349 . S
C456 C468 1.349 . S
C457 C455 1.327 . S
C457 C473 1.429 . S
C457 H479 0.950 . S
C458 H454 0.949 . S
C458 C466 1.574 1_556 S
C458 C474 1.368 . S
H459 C467 0.950 . S
H460 C465 0.950 . S
H461 C466 0.949 . S
H462 C468 0.950 . S
H463 C469 0.950 . S
H464 C470 0.949 . S
C465 H460 0.950 . S
C465 C467 1.327 . S
C465 C471 1.429 . S
C466 C458 1.574 1_554 S
C466 H461 0.949 . S
C466 C472 1.368 . S
C467 C451 1.349 . S
C467 H459 0.950 . S
C467 C465 1.327 . S
C468 C456 1.349 . S
C468 H462 0.950 . S
C468 C469 1.327 . S
C469 H463 0.950 . S
C469 C468 1.327 . S
C469 C473 1.429 . S
C470 C453 1.574 1_556 S
C470 H464 0.949 . S
C470 C474 1.368 . S
C471 C452 1.429 . S
C471 C465 1.429 . S
C471 C472 1.523 . S
C472 C453 1.368 . S
C472 C466 1.368 . S
C472 C471 1.523 . S
C473 C457 1.429 . S
C473 C469 1.429 . S
C473 C474 1.523 . S
C474 C458 1.368 . S
C474 C470 1.368 . S
C474 C473 1.523 . S
H475 C450 0.950 . S
H476 C452 0.950 . S
H477 C453 0.949 . S
H478 C455 0.950 . S
H479 C457 0.950 . S
C480 C481 1.349 . S
C480 C482 1.327 . S
C480 H505 0.950 . S
C481 C480 1.349 . S
C481 C497 1.349 . S
C482 C480 1.327 . S
C482 C501 1.429 . S
C482 H506 0.950 . S
C483 C500 1.574 . S
C483 C502 1.368 . S
C483 H507 0.949 . S
H484 C488 0.949 . S
C485 C486 1.356 . S
C485 C487 1.327 . S
C485 H508 0.950 . S
C486 C485 1.356 . S
C486 C498 1.352 . S
C487 C485 1.327 . S
C487 C503 1.429 . S
C487 H509 0.950 . S
C488 H484 0.949 . S
C488 C496 1.574 . S
C488 C504 1.368 . S
H489 C497 0.950 . S
H490 C495 0.950 . S
H491 C496 0.949 . S
H492 C498 0.950 1_556 S
H493 C499 0.950 . S
H494 C500 0.949 . S
C495 H490 0.950 . S
C495 C497 1.327 . S
C495 C501 1.429 . S
C496 C488 1.574 . S
C496 H491 0.949 . S
C496 C502 1.368 . S
C497 C481 1.349 . S
C497 H489 0.950 . S
C497 C495 1.327 . S
C498 C486 1.352 . S
C498 H492 0.950 1_554 S
C498 C499 1.327 . S
C499 H493 0.950 . S
C499 C498 1.327 . S
C499 C503 1.429 . S
C500 C483 1.574 . S
C500 H494 0.949 . S
C500 C504 1.368 . S
C501 C482 1.429 . S
C501 C495 1.429 . S
C501 C502 1.523 . S
C502 C483 1.368 . S
C502 C496 1.368 . S
C502 C501 1.523 . S
C503 C487 1.429 . S
C503 C499 1.429 . S
C503 C504 1.523 . S
C504 C488 1.368 . S
C504 C500 1.368 . S
C504 C503 1.523 . S
H505 C480 0.950 . S
H506 C482 0.950 . S
H507 C483 0.949 . S
H508 C485 0.950 . S
H509 C487 0.950 . S
C510 C511 1.349 . S
C510 C512 1.327 . S
C510 H535 0.950 . S
C511 C510 1.349 . S
C511 C527 1.349 . S
C512 C510 1.327 . S
C512 C531 1.429 . S
C512 H536 0.950 . S
C513 C530 1.574 . S
C513 C532 1.368 . S
C513 H537 0.949 . S
H514 C518 0.949 . S
C515 C516 1.349 . S
C515 C517 1.327 . S
C515 H538 0.950 . S
C516 C515 1.349 . S
C516 C528 1.349 . S
C517 C515 1.327 . S
C517 C533 1.429 . S
C517 H539 0.950 . S
C518 H514 0.949 . S
C518 C526 1.574 . S
C518 C534 1.368 . S
H519 C527 0.950 . S
H520 C525 0.950 . S
H521 C526 0.949 . S
H522 C528 0.950 . S
H523 C529 0.950 . S
H524 C530 0.949 . S
C525 H520 0.950 . S
C525 C527 1.327 . S
C525 C531 1.429 . S
C526 C518 1.574 . S
C526 H521 0.949 . S
C526 C532 1.368 . S
C527 C511 1.349 . S
C527 H519 0.950 . S
C527 C525 1.327 . S
C528 C516 1.349 . S
C528 H522 0.950 . S
C528 C529 1.327 . S
C529 H523 0.950 . S
C529 C528 1.327 . S
C529 C533 1.429 . S
C530 C513 1.574 . S
C530 H524 0.949 . S
C530 C534 1.368 . S
C531 C512 1.429 . S
C531 C525 1.429 . S
C531 C532 1.523 . S
C532 C513 1.368 . S
C532 C526 1.368 . S
C532 C531 1.523 . S
C533 C517 1.429 . S
C533 C529 1.429 . S
C533 C534 1.523 . S
C534 C518 1.368 . S
C534 C530 1.368 . S
C534 C533 1.523 . S
H535 C510 0.950 . S
H536 C512 0.950 . S
H537 C513 0.949 . S
H538 C515 0.950 . S
H539 C517 0.950 . S
C540 C541 1.349 . S
C540 C542 1.327 . S
C540 H565 0.950 . S
C541 C540 1.349 . S
C541 C557 1.349 . S
C542 C540 1.327 . S
C542 C561 1.429 . S
C542 H566 0.950 . S
C543 C560 1.574 . S
C543 C562 1.368 . S
C543 H567 0.949 . S
H544 C548 0.949 . S
C545 C546 1.349 . S
C545 C547 1.327 1_554 S
C545 H568 0.950 . S
C546 C545 1.349 . S
C546 C558 1.349 . S
C547 C545 1.327 1_556 S
C547 C563 1.429 . S
C547 H569 0.950 . S
C548 H544 0.949 . S
C548 C556 1.574 . S
C548 C564 1.368 . S
H549 C557 0.950 . S
H550 C555 0.950 . S
H551 C556 0.949 . S
H552 C558 0.950 . S
H553 C559 0.950 . S
H554 C560 0.949 . S
C555 H550 0.950 . S
C555 C557 1.327 . S
C555 C561 1.429 . S
C556 C548 1.574 . S
C556 H551 0.949 . S
C556 C562 1.368 . S
C557 C541 1.349 . S
C557 H549 0.950 . S
C557 C555 1.327 . S
C558 C546 1.349 . S
C558 H552 0.950 . S
C558 C559 1.327 1_554 S
C559 H553 0.950 . S
C559 C558 1.327 1_556 S
C559 C563 1.429 . S
C560 C543 1.574 . S
C560 H554 0.949 . S
C560 C564 1.368 . S
C561 C542 1.429 . S
C561 C555 1.429 . S
C561 C562 1.523 . S
C562 C543 1.368 . S
C562 C556 1.368 . S
C562 C561 1.523 . S
C563 C547 1.429 . S
C563 C559 1.429 . S
C563 C564 1.523 . S
C564 C548 1.368 . S
C564 C560 1.368 . S
C564 C563 1.523 . S
H565 C540 0.950 . S
H566 C542 0.950 . S
H567 C543 0.949 . S
H568 C545 0.950 . S
H569 C547 0.950 . S
C570 C571 1.349 . S
C570 C572 1.327 . S
C570 H595 0.950 . S
C571 C570 1.349 . S
C571 C587 1.349 . S
C572 C570 1.327 . S
C572 C591 1.429 . S
C572 H596 0.950 . S
C573 C590 1.574 . S
C573 C592 1.368 . S
C573 H597 0.949 . S
H574 C578 0.949 . S
C575 C576 1.349 . S
C575 C577 1.327 . S
C575 H598 0.950 . S
C576 C575 1.349 . S
C576 C588 1.349 . S
C577 C575 1.327 . S
C577 C593 1.429 . S
C577 H599 0.950 . S
C578 H574 0.949 . S
C578 C586 1.574 . S
C578 C594 1.368 . S
H579 C587 0.950 . S
H580 C585 0.950 . S
H581 C586 0.949 . S
H582 C588 0.950 . S
H583 C589 0.950 . S
H584 C590 0.949 . S
C585 H580 0.950 . S
C585 C587 1.327 . S
C585 C591 1.429 . S
C586 C578 1.574 . S
C586 H581 0.949 . S
C586 C592 1.368 . S
C587 C571 1.349 . S
C587 H579 0.950 . S
C587 C585 1.327 . S
C588 C576 1.349 . S
C588 H582 0.950 . S
C588 C589 1.327 . S
C589 H583 0.950 . S
C589 C588 1.327 . S
C589 C593 1.429 . S
C590 C573 1.574 . S
C590 H584 0.949 . S
C590 C594 1.368 . S
C591 C572 1.429 . S
C591 C585 1.429 . S
C591 C592 1.523 . S
C592 C573 1.368 . S
C592 C586 1.368 . S
C592 C591 1.523 . S
C593 C577 1.429 . S
C593 C589 1.429 . S
C593 C594 1.523 . S
C594 C578 1.368 . S
C594 C590 1.368 . S
C594 C593 1.523 . S
H595 C570 0.950 . S
H596 C572 0.950 . S
H597 C573 0.949 . S
H598 C575 0.950 . S
H599 C577 0.950 . S
C600 C601 1.349 . S
C600 C602 1.327 . S
C600 H625 0.950 . S
C601 C600 1.349 . S
C601 C617 1.349 . S
C602 C600 1.327 . S
C602 C621 1.429 . S
C602 H626 0.950 . S
C603 C620 1.574 . S
C603 C622 1.368 . S
C603 H627 0.949 . S
H604 C608 0.949 . S
C605 C606 1.349 . S
C605 C607 1.327 . S
C605 H628 0.950 . S
C606 C605 1.349 . S
C606 C618 1.349 . S
C607 C605 1.327 . S
C607 C623 1.429 . S
C607 H629 0.950 . S
C608 H604 0.949 . S
C608 C616 1.574 . S
C608 C624 1.368 . S
H609 C617 0.950 . S
H610 C615 0.950 . S
H611 C616 0.949 . S
H612 C618 0.950 . S
H613 C619 0.950 . S
H614 C620 0.949 . S
C615 H610 0.950 . S
C615 C617 1.327 . S
C615 C621 1.429 . S
C616 C608 1.574 . S
C616 H611 0.949 . S
C616 C622 1.368 . S
C617 C601 1.349 . S
C617 H609 0.950 . S
C617 C615 1.327 . S
C618 C606 1.349 . S
C618 H612 0.950 . S
C618 C619 1.327 . S
C619 H613 0.950 . S
C619 C618 1.327 . S
C619 C623 1.429 . S
C620 C603 1.574 . S
C620 H614 0.949 . S
C620 C624 1.368 . S
C621 C602 1.429 . S
C621 C615 1.429 . S
C621 C622 1.523 . S
C622 C603 1.368 . S
C622 C616 1.368 . S
C622 C621 1.523 . S
C623 C607 1.429 . S
C623 C619 1.429 . S
C623 C624 1.523 . S
C624 C608 1.368 . S
C624 C620 1.368 . S
C624 C623 1.523 . S
H625 C600 0.950 . S
H626 C602 0.950 . S
H627 C603 0.949 . S
H628 C605 0.950 . S
H629 C607 0.950 . S
C630 C631 1.349 . S
C630 C632 1.327 . S
C630 H655 0.950 . S
C631 C630 1.349 . S
C631 C647 1.349 . S
C632 C630 1.327 . S
C632 C651 1.429 . S
C632 H656 0.950 . S
C633 C650 1.574 . S
C633 C652 1.368 . S
C633 H657 0.949 . S
H634 C638 0.949 . S
C635 C636 1.349 . S
C635 C637 1.327 . S
C635 H658 0.950 . S
C636 C635 1.349 . S
C636 C648 1.349 . S
C637 C635 1.327 . S
C637 C653 1.429 . S
C637 H659 0.950 . S
C638 H634 0.949 . S
C638 C646 1.574 . S
C638 C654 1.368 . S
H639 C647 0.950 . S
H640 C645 0.950 . S
H641 C646 0.949 . S
H642 C648 0.950 . S
H643 C649 0.950 . S
H644 C650 0.949 . S
C645 H640 0.950 . S
C645 C647 1.327 . S
C645 C651 1.429 . S
C646 C638 1.574 . S
C646 H641 0.949 . S
C646 C652 1.368 . S
C647 C631 1.349 . S
C647 H639 0.950 . S
C647 C645 1.327 . S
C648 C636 1.349 . S
C648 H642 0.950 . S
C648 C649 1.327 . S
C649 H643 0.950 . S
C649 C648 1.327 . S
C649 C653 1.429 . S
C650 C633 1.574 . S
C650 H644 0.949 . S
C650 C654 1.368 . S
C651 C632 1.429 . S
C651 C645 1.429 . S
C651 C652 1.523 . S
C652 C633 1.368 . S
C652 C646 1.368 . S
C652 C651 1.523 . S
C653 C637 1.429 . S
C653 C649 1.429 . S
C653 C654 1.523 . S
C654 C638 1.368 . S
C654 C650 1.368 . S
C654 C653 1.523 . S
H655 C630 0.950 . S
H656 C632 0.950 . S
H657 C633 0.949 . S
H658 C635 0.950 . S
H659 C637 0.950 . S
C660 C661 1.349 . S
C660 C662 1.327 . S
C660 H685 0.950 . S
C661 C660 1.349 . S
C661 C677 1.349 . S
C662 C660 1.327 . S
C662 C681 1.429 . S
C662 H686 0.950 . S
C663 C680 1.574 . S
C663 C682 1.368 . S
C663 H687 0.949 . S
H664 C668 0.949 . S
C665 C666 1.349 . S
C665 C667 1.327 . S
C665 H688 0.950 . S
C666 C665 1.349 . S
C666 C678 1.349 . S
C667 C665 1.327 . S
C667 C683 1.429 . S
C667 H689 0.950 . S
C668 H664 0.949 . S
C668 C676 1.574 . S
C668 C684 1.368 . S
H669 C677 0.950 . S
H670 C675 0.950 . S
H671 C676 0.949 . S
H672 C678 0.950 . S
H673 C679 0.950 . S
H674 C680 0.949 . S
C675 H670 0.950 . S
C675 C677 1.327 . S
C675 C681 1.429 . S
C676 C668 1.574 . S
C676 H671 0.949 . S
C676 C682 1.368 . S
C677 C661 1.349 . S
C677 H669 0.950 . S
C677 C675 1.327 . S
C678 C666 1.349 . S
C678 H672 0.950 . S
C678 C679 1.327 . S
C679 H673 0.950 . S
C679 C678 1.327 . S
C679 C683 1.429 . S
C680 C663 1.574 . S
C680 H674 0.949 . S
C680 C684 1.368 . S
C681 C662 1.429 . S
C681 C675 1.429 . S
C681 C682 1.523 . S
C682 C663 1.368 . S
C682 C676 1.368 . S
C682 C681 1.523 . S
C683 C667 1.429 . S
C683 C679 1.429 . S
C683 C684 1.523 . S
C684 C668 1.368 . S
C684 C680 1.368 . S
C684 C683 1.523 . S
H685 C660 0.950 . S
H686 C662 0.950 . S
H687 C663 0.949 . S
H688 C665 0.950 . S
H689 C667 0.950 . S
C690 C691 1.349 . S
C690 C692 1.327 . S
C690 H715 0.950 . S
C691 C690 1.349 . S
C691 C707 1.349 . S
C692 C690 1.327 . S
C692 C711 1.429 . S
C692 H716 0.950 . S
C693 C710 1.574 . S
C693 C712 1.368 . S
C693 H717 0.949 . S
H694 C698 0.949 . S
C695 C696 1.349 . S
C695 C697 1.327 . S
C695 H718 0.950 . S
C696 C695 1.349 . S
C696 C708 1.349 . S
C697 C695 1.327 . S
C697 C713 1.429 . S
C697 H719 0.950 . S
C698 H694 0.949 . S
C698 C706 1.574 . S
C698 C714 1.368 . S
H699 C707 0.950 . S
H700 C705 0.950 . S
H701 C706 0.949 . S
H702 C708 0.950 . S
H703 C709 0.950 . S
H704 C710 0.949 . S
C705 H700 0.950 . S
C705 C707 1.327 . S
C705 C711 1.429 . S
C706 C698 1.574 . S
C706 H701 0.949 . S
C706 C712 1.368 . S
C707 C691 1.349 . S
C707 H699 0.950 . S
C707 C705 1.327 . S
C708 C696 1.349 . S
C708 H702 0.950 . S
C708 C709 1.327 . S
C709 H703 0.950 . S
C709 C708 1.327 . S
C709 C713 1.429 . S
C710 C693 1.574 . S
C710 H704 0.949 . S
C710 C714 1.368 . S
C711 C692 1.429 . S
C711 C705 1.429 . S
C711 C712 1.523 . S
C712 C693 1.368 . S
C712 C706 1.368 . S
C712 C711 1.523 . S
C713 C697 1.429 . S
C713 C709 1.429 . S
C713 C714 1.523 . S
C714 C698 1.368 . S
C714 C710 1.368 . S
C714 C713 1.523 . S
H715 C690 0.950 . S
H716 C692 0.950 . S
H717 C693 0.949 . S
H718 C695 0.950 . S
H719 C697 0.950 . S
C720 C721 1.349 . S
C720 C722 1.327 . S
C720 H745 0.950 . S
C721 C720 1.349 . S
C721 C737 1.349 . S
C722 C720 1.327 . S
C722 C741 1.429 . S
C722 H746 0.950 . S
C723 C740 1.574 . S
C723 C742 1.368 . S
C723 H747 0.949 . S
H724 C728 0.949 . S
C725 C726 1.349 . S
C725 C727 1.327 . S
C725 H748 0.950 . S
C726 C725 1.349 . S
C726 C738 1.349 . S
C727 C725 1.327 . S
C727 C743 1.429 . S
C727 H749 0.950 . S
C728 H724 0.949 . S
C728 C736 1.574 . S
C728 C744 1.368 . S
H729 C737 0.950 . S
H730 C735 0.950 . S
H731 C736 0.949 . S
H732 C738 0.950 . S
H733 C739 0.950 . S
H734 C740 0.949 . S
C735 H730 0.950 . S
C735 C737 1.327 . S
C735 C741 1.429 . S
C736 C728 1.574 . S
C736 H731 0.949 . S
C736 C742 1.368 . S
C737 C721 1.349 . S
C737 H729 0.950 . S
C737 C735 1.327 . S
C738 C726 1.349 . S
C738 H732 0.950 . S
C738 C739 1.327 . S
C739 H733 0.950 . S
C739 C738 1.327 . S
C739 C743 1.429 . S
C740 C723 1.574 . S
C740 H734 0.949 . S
C740 C744 1.368 . S
C741 C722 1.429 . S
C741 C735 1.429 . S
C741 C742 1.523 . S
C742 C723 1.368 . S
C742 C736 1.368 . S
C742 C741 1.523 . S
C743 C727 1.429 . S
C743 C739 1.429 . S
C743 C744 1.523 . S
C744 C728 1.368 . S
C744 C740 1.368 . S
C744 C743 1.523 . S
H745 C720 0.950 . S
H746 C722 0.950 . S
H747 C723 0.949 . S
H748 C725 0.950 . S
H749 C727 0.950 . S
C750 C751 1.349 . S
C750 C752 1.327 . S
C750 H775 0.950 . S
C751 C750 1.349 . S
C751 C767 1.349 . S
C752 C750 1.327 . S
C752 C771 1.429 . S
C752 H776 0.950 . S
C753 C770 1.574 1_554 S
C753 C772 1.368 . S
C753 H777 0.949 . S
H754 C758 0.949 . S
C755 C756 1.349 . S
C755 C757 1.327 . S
C755 H778 0.950 . S
C756 C755 1.349 . S
C756 C768 1.349 . S
C757 C755 1.327 . S
C757 C773 1.429 . S
C757 H779 0.950 . S
C758 H754 0.949 . S
C758 C766 1.574 . S
C758 C774 1.368 . S
H759 C767 0.950 . S
H760 C765 0.950 . S
H761 C766 0.949 . S
H762 C768 0.950 . S
H763 C769 0.950 1_554 S
H764 C770 0.949 . S
C765 H760 0.950 . S
C765 C767 1.327 . S
C765 C771 1.429 . S
C766 C758 1.574 . S
C766 H761 0.949 . S
C766 C772 1.368 . S
C767 C751 1.349 . S
C767 H759 0.950 . S
C767 C765 1.327 . S
C768 C756 1.349 . S
C768 H762 0.950 . S
C768 C769 1.327 . S
C769 H763 0.950 1_556 S
C769 C768 1.327 . S
C769 C773 1.429 . S
C770 C753 1.574 1_556 S
C770 H764 0.949 . S
C770 C774 1.368 1_556 S
C771 C752 1.429 . S
C771 C765 1.429 . S
C771 C772 1.523 . S
C772 C753 1.368 . S
C772 C766 1.368 . S
C772 C771 1.523 . S
C773 C757 1.429 . S
C773 C769 1.429 . S
C773 C774 1.523 1_556 S
C774 C758 1.368 . S
C774 C770 1.368 1_554 S
C774 C773 1.523 1_554 S
H775 C750 0.950 . S
H776 C752 0.950 . S
H777 C753 0.949 . S
H778 C755 0.950 . S
H779 C757 0.950 . S
C241 C217 1.325 . S
C246 C17 1.325 1_556 S
C271 C31 1.568 . S
C276 C71 1.568 . S
C301 C57 1.325 . S
C306 C97 1.325 . S
C331 C111 1.569 . S
C336 C151 1.569 . S
C361 C177 1.325 . S
C366 C137 1.325 . S
C391 C231 1.569 . S
C396 C191 1.569 . S
C421 C29 0.987 . S
C426 C8 0.987 . S
C451 C48 0.987 . S
C456 C69 0.987 . S
C481 C109 0.987 . S
C486 C88 0.977 1_554 S
C511 C128 0.987 . S
C516 C149 0.987 . S
C541 C168 0.987 . S
C546 C189 0.987 . S
C571 C208 0.987 . S
C576 C229 0.987 . S
C601 C2 1.825 . S
C606 C172 1.823 . S
C631 C52 1.823 . S
C636 C202 1.825 . S
C661 C12 1.823 . S
C666 C82 1.825 . S
C691 C42 1.826 . S
C696 C132 1.824 . S
C721 C162 1.825 . S
C726 C92 1.823 . S
C751 C122 1.825 . S
C756 C212 1.823 . S
