# Generated by pormake.
# Topology sxb, (6)-cn, num edge types: 1
# Building blocks:
#     Node 0, Type 0, BuildingBlock: VOLQOD_clean_sbu_1, # of connection points: 6
#     Node 1, Type 0, BuildingBlock: VOLQOD_clean_sbu_1, # of connection points: 6
#     Node 2, Type 0, BuildingBlock: VOLQOD_clean_sbu_1, # of connection points: 6
#     Node 3, Type 0, BuildingBlock: VOLQOD_clean_sbu_1, # of connection points: 6
#     Edge 4, Type (0, 0), BuildingBlock: UVAHIK_clean_linker_0, # of connection points: 2
#     Edge 5, Type (0, 0), BuildingBlock: UVAHIK_clean_linker_0, # of connection points: 2
#     Edge 6, Type (0, 0), BuildingBlock: UVAHIK_clean_linker_0, # of connection points: 2
#     Edge 7, Type (0, 0), BuildingBlock: UVAHIK_clean_linker_0, # of connection points: 2
#     Edge 8, Type (0, 0), BuildingBlock: UVAHIK_clean_linker_0, # of connection points: 2
#     Edge 9, Type (0, 0), BuildingBlock: UVAHIK_clean_linker_0, # of connection points: 2
#     Edge 10, Type (0, 0), BuildingBlock: UVAHIK_clean_linker_0, # of connection points: 2
#     Edge 11, Type (0, 0), BuildingBlock: UVAHIK_clean_linker_0, # of connection points: 2
#     Edge 12, Type (0, 0), BuildingBlock: UVAHIK_clean_linker_0, # of connection points: 2
#     Edge 13, Type (0, 0), BuildingBlock: UVAHIK_clean_linker_0, # of connection points: 2
#     Edge 14, Type (0, 0), BuildingBlock: UVAHIK_clean_linker_0, # of connection points: 2
#     Edge 15, Type (0, 0), BuildingBlock: UVAHIK_clean_linker_0, # of connection points: 2
# Relax obj value: 0.285
# Max RMSD: 0.223
# Mean RMSD: 0.222
data_MOF--net-sxb--node1-VOLQOD_clean_sbu_1--edge1-UVAHIK_clean_linker_0
_symmetry_space_group_name_H-M    P1
_symmetry_Int_Tables_number       1
_symmetry_cell_setting            triclinic
loop_
_symmetry_equiv_pos_as_xyz
'x, y, z'
_cell_length_a     19.651645
_cell_length_b     38.279033
_cell_length_c     43.333827
_cell_angle_alpha  90.028015
_cell_angle_beta   90.460912
_cell_angle_gamma 89.955744
loop_
_atom_site_label
_atom_site_type_symbol
_atom_site_fract_x
_atom_site_fract_y
_atom_site_fract_z
_atom_type_partial_charge
O0 O 0.96381 0.96317 0.92664 0.0
Zn1 Zn 0.94477 0.95837 0.97185 0.0
O2 O -0.03138 0.00093 -0.00569 0.0
Zn3 Zn 0.04569 -0.00676 0.02126 0.0
Zn4 Zn -0.01022 0.03739 0.96462 0.0
Zn5 Zn 0.8938 0.01486 0.02009 0.0
O6 O 0.0264 0.00374 0.06547 0.0
O7 O 0.91543 0.01382 0.06525 0.0
O8 O -0.0022 0.91758 0.9883 0.0
O9 O 0.07174 0.94313 0.02013 0.0
O10 O 0.12514 0.02142 0.00791 0.0
O11 O 0.08718 0.05182 0.96767 0.0
O12 O 0.93124 0.07944 0.9708 0.0
O13 O 0.84465 0.94874 0.97444 0.0
O14 O 0.86633 0.06363 0.0101 0.0
O15 O 0.81328 0.98518 0.0116 0.0
C16 C -0.02655 0.98989 0.90978 0.0
C17 C -0.02846 0.01025 0.07968 0.0
C18 C 0.13459 0.04326 0.98627 0.0
C19 C 0.048 0.91598 0.00702 0.0
C20 C 0.88455 0.08601 0.99013 0.0
C21 C 0.79964 0.9611 0.99231 0.0
O22 O -0.02043 0.02026 0.92136 0.0
O23 O 0.00663 0.97726 0.42254 0.0
Zn24 Zn 0.01244 0.96056 0.46622 0.0
O25 O -0.01508 -0.00296 0.49507 0.0
Zn26 Zn 0.05975 0.01032 0.52169 0.0
Zn27 Zn 0.95212 0.03721 0.47177 0.0
Zn28 Zn 0.91422 0.98002 0.52156 0.0
O29 O 0.03995 0.00454 0.56667 0.0
O30 O 0.94336 0.9748 0.56554 0.0
O31 O 0.10838 0.94521 0.4738 0.0
O32 O 0.13842 0.97959 0.51297 0.0
O33 O 0.08746 0.05985 0.51407 0.0
O34 O 0.01067 0.07856 0.48001 0.0
O35 O 0.85635 0.04949 0.48243 0.0
O36 O 0.95081 0.91919 0.4691 0.0
O37 O 0.83577 0.01256 0.5207 0.0
O38 O 0.88021 0.93403 0.50664 0.0
C39 C -0.01957 0.00424 0.41012 0.0
C40 C -0.00673 0.98779 0.58038 0.0
C41 C 0.06279 0.0838 0.49694 0.0
C42 C 0.15144 0.95522 0.49396 0.0
C43 C 0.81804 0.03803 0.50362 0.0
C44 C 0.89958 0.91278 0.48593 0.0
O45 O 0.95508 0.02866 0.42626 0.0
O46 O 0.4599 0.48311 0.93089 0.0
Zn47 Zn 0.45335 0.46949 0.97523 0.0
O48 O 0.48233 0.50723 0.0024 0.0
Zn49 Zn 0.56236 0.49405 0.02613 0.0
Zn50 Zn 0.50081 0.54832 0.97723 0.0
Zn51 Zn 0.41136 0.51714 0.03147 0.0
O52 O 0.54776 0.49475 0.07214 0.0
O53 O 0.43757 0.50642 0.07478 0.0
O54 O 0.51016 0.42709 0.98204 0.0
O55 O 0.58929 0.44518 0.01531 0.0
O56 O 0.63971 0.52544 0.01561 0.0
O57 O 0.59941 0.56036 0.97873 0.0
O58 O 0.44796 0.5896 0.99202 0.0
O59 O 0.35484 0.45812 0.98054 0.0
O60 O 0.38713 0.56753 0.03028 0.0
O61 O 0.32757 0.49107 0.02069 0.0
C62 C 0.46662 0.51238 0.91741 0.0
C63 C 0.49391 0.49907 0.08779 0.0
C64 C 0.64779 0.54973 -0.00408 0.0
C65 C 0.56354 0.42159 -0.00187 0.0
C66 C 0.40491 0.59317 0.01357 0.0
C67 C 0.31154 0.4691 -0.00012 0.0
O68 O 0.47887 0.54019 0.93253 0.0
O69 O 0.49514 0.47617 0.4349 0.0
Zn70 Zn 0.4898 0.46816 0.48056 0.0
O71 O 0.4523 0.50842 0.50192 0.0
Zn72 Zn 0.51827 0.52796 0.53017 0.0
Zn73 Zn 0.42468 0.54312 0.47138 0.0
Zn74 Zn 0.37613 0.49451 0.52662 0.0
O75 O 0.48491 0.53221 0.57352 0.0
O76 O 0.39347 0.49848 0.57202 0.0
O77 O 0.58315 0.45666 0.49586 0.0
O78 O 0.59935 0.49716 0.53187 0.0
O79 O 0.54925 0.57465 0.51553 0.0
O80 O 0.48313 0.58554 0.47486 0.0
O81 O 0.3276 0.55766 0.47656 0.0
O82 O 0.43061 0.42656 0.48643 0.0
O83 O 0.29857 0.52579 0.51728 0.0
O84 O 0.3486 0.44537 0.51723 0.0
C85 C 0.46853 0.49918 0.41741 0.0
C86 C 0.43654 0.51661 0.58707 0.0
C87 C 0.53085 0.59428 0.49329 0.0
C88 C 0.6192 0.47034 0.51713 0.0
C89 C 0.28522 0.54904 0.49719 0.0
C90 C 0.37581 0.4214 0.50113 0.0
O91 O 0.43642 0.5252 0.42836 0.0
C92 C 0.39008 0.65618 0.0002 0.0
C93 C 0.37276 0.62742 0.01865 0.0
C94 C 0.35629 0.68791 0.00371 0.0
C95 C 0.29826 0.7565 0.02639 0.0
H96 H 0.10105 0.75221 0.02875 0.0
C97 C 0.13483 0.88002 0.03472 0.0
C98 C 0.08084 0.88212 0.01332 0.0
C99 C 0.1688 0.84856 0.03952 0.0
C100 C 0.15607 0.75373 0.02813 0.0
H101 H 0.30823 0.60971 0.05602 0.0
H102 H 0.24952 0.66526 0.0621 0.0
H103 H 0.16712 0.6982 0.0295 0.0
H104 H 0.01865 0.85263 0.98091 0.0
H105 H 0.07871 0.79765 0.98909 0.0
H106 H 0.28721 0.81194 0.02389 0.0
C107 C 0.28865 0.66303 0.04474 0.0
C108 C 0.19383 0.72293 0.02888 0.0
C109 C 0.32248 0.63132 0.04129 0.0
C110 C 0.06012 0.85186 -0.0025 0.0
C111 C 0.09419 0.82035 0.00232 0.0
C112 C 0.26053 0.78728 0.02572 0.0
C113 C 0.30464 0.69142 0.0257 0.0
C114 C 0.26519 0.72407 0.02756 0.0
C115 C 0.14943 0.81861 0.02303 0.0
C116 C 0.1891 0.78612 0.02615 0.0
H117 H 0.42867 0.65403 0.9826 0.0
H118 H 0.36907 0.70936 0.98852 0.0
H119 H 0.35327 0.75802 0.02561 0.0
H120 H 0.15167 0.90279 0.04752 0.0
H121 H 0.21066 0.84774 0.05592 0.0
C122 C 0.65583 0.38031 0.01402 0.0
C123 C 0.59653 0.38709 -0.00332 0.0
C124 C 0.68715 0.34771 0.01249 0.0
C125 C 0.76351 0.28402 0.98971 0.0
H126 H 0.65229 0.20045 -0.00668 0.0
C127 C 0.87141 0.1463 0.96878 0.0
C128 C 0.85098 0.1204 0.9897 0.0
C129 C 0.84007 0.17897 0.96882 0.0
C130 C 0.68393 0.22359 0.99243 0.0
H131 H 0.52368 0.36508 0.96409 0.0
H132 H 0.57884 0.30825 0.96136 0.0
H133 H 0.59817 0.25772 -0.00432 0.0
H134 H 0.78154 0.10837 0.02699 0.0
H135 H 0.72739 0.16545 0.02714 0.0
H136 H 0.8494 0.24985 0.98709 0.0
C137 C 0.60052 0.32806 0.97633 0.0
C138 C 0.65297 0.25629 -0.00653 0.0
C139 C 0.56922 0.36065 0.97782 0.0
C140 C 0.79841 0.12772 0.01054 0.0
C141 C 0.76709 0.16033 0.01052 0.0
C142 C 0.79448 0.25131 0.98862 0.0
C143 C 0.65972 0.32133 -0.00635 0.0
C144 C 0.69253 0.28676 0.99222 0.0
C145 C 0.78772 0.18623 0.98972 0.0
C146 C 0.75493 0.22084 0.99008 0.0
H147 H 0.67806 0.40011 0.02881 0.0
H148 H 0.73235 0.34299 0.02636 0.0
H149 H 0.79504 0.30717 0.98841 0.0
H150 H 0.91171 0.14142 0.9524 0.0
H151 H 0.85637 0.19844 0.95233 0.0
C152 C 0.07205 0.14421 0.47583 0.0
C153 C 0.09563 0.11835 0.49632 0.0
C154 C 0.10299 0.17689 0.4751 0.0
C155 C 0.26085 0.22265 0.49591 0.0
H156 H 0.14645 0.30521 0.49206 0.0
C157 C 0.28435 0.37977 0.51647 0.0
C158 C 0.34313 0.38685 0.49935 0.0
C159 C 0.25387 0.34697 0.51493 0.0
C160 C 0.17895 0.28237 0.4933 0.0
H161 H 0.17024 0.10642 0.53204 0.0
H162 H 0.22362 0.16382 0.531 0.0
H163 H 0.09411 0.24752 0.4922 0.0
H164 H 0.41556 0.36526 0.46687 0.0
H165 H 0.36182 0.30812 0.46399 0.0
H166 H 0.34562 0.25754 0.49784 0.0
C167 C 0.18181 0.15854 0.51525 0.0
C168 C 0.14909 0.2494 0.49304 0.0
C169 C 0.15095 0.12579 0.51596 0.0
C170 C 0.37055 0.36058 0.48048 0.0
C171 C 0.33998 0.32781 0.47892 0.0
C172 C 0.29071 0.25563 0.4962 0.0
C173 C 0.15797 0.18438 0.49486 0.0
C174 C 0.18977 0.21926 0.49449 0.0
C175 C 0.28155 0.32069 0.49621 0.0
C176 C 0.24999 0.28577 0.49506 0.0
H177 H 0.02982 0.13923 0.46025 0.0
H178 H 0.08422 0.1962 0.45886 0.0
H179 H 0.29337 0.1998 0.49671 0.0
H180 H 0.26204 0.39946 0.53127 0.0
H181 H 0.2093 0.34201 0.52879 0.0
C182 C 0.88339 0.85492 0.46005 0.0
C183 C 0.86073 0.88036 0.481 0.0
C184 C 0.84648 0.82418 0.45571 0.0
C185 C 0.67774 0.78496 0.46748 0.0
H186 H 0.77767 0.69784 0.47421 0.0
C187 C 0.6249 0.63564 0.50608 0.0
C188 C 0.5675 0.62725 0.48804 0.0
C189 C 0.66103 0.66622 0.50052 0.0
C190 C 0.74924 0.722 0.47219 0.0
H191 H 0.78103 0.89384 0.51338 0.0
H192 H 0.7173 0.84013 0.506 0.0
H193 H 0.83969 0.75297 0.47245 0.0
H194 H 0.5028 0.64438 0.45006 0.0
H195 H 0.56612 0.69803 0.44052 0.0
H196 H 0.58721 0.75405 0.46855 0.0
C197 C 0.7631 0.84412 0.4927 0.0
C198 C 0.78465 0.75345 0.47086 0.0
C199 C 0.80003 0.87472 0.49715 0.0
C200 C 0.54676 0.65016 0.46441 0.0
C201 C 0.58283 0.68086 0.45894 0.0
C202 C 0.64232 0.75349 0.46872 0.0
C203 C 0.78618 0.81851 0.4721 0.0
C204 C 0.74912 0.78522 0.46927 0.0
C205 C 0.64039 0.68903 0.47689 0.0
C206 C 0.67779 0.72185 0.47187 0.0
H207 H 0.92985 0.85859 0.44717 0.0
H208 H 0.86508 0.80482 0.43959 0.0
H209 H 0.6493 0.80916 0.46591 0.0
H210 H 0.64224 0.61855 0.52445 0.0
H211 H 0.7046 0.67226 0.51504 0.0
C212 C 0.227 0.0537 0.94878 0.0
C213 C 0.20472 0.05339 0.97951 0.0
C214 C 0.29629 0.05086 0.94242 0.0
C215 C 0.46773 0.04802 0.9783 0.0
H216 H 0.48554 0.95955 0.93507 0.0
C217 C 0.68083 0.9593 0.00989 0.0
C218 C 0.72748 0.95449 0.98595 0.0
C219 C 0.61454 0.96954 0.00311 0.0
C220 C 0.48131 0.98445 0.9468 0.0
H221 H 0.23626 0.05489 0.02746 0.0
H222 H 0.35695 0.0508 0.01649 0.0
H223 H 0.37856 -0.00774 0.93167 0.0
H224 H 0.73942 0.95092 0.93632 0.0
H225 H 0.62248 0.96868 0.92451 0.0
H226 H 0.56889 0.03921 -0.00512 0.0
C227 C 0.32157 0.05274 -0.00274 0.0
C228 C 0.42068 0.00339 0.94459 0.0
C229 C 0.25249 0.05495 0.00361 0.0
C230 C 0.70422 0.95453 0.95518 0.0
C231 C 0.63763 0.96497 0.94838 0.0
C232 C 0.52787 0.02906 0.98062 0.0
C233 C 0.34365 0.04843 0.96673 0.0
C234 C 0.41252 0.03455 0.96146 0.0
C235 C 0.59435 0.97499 0.97237 0.0
C236 C 0.53385 -0.00356 0.96603 0.0
H237 H 0.19086 0.05243 0.9298 0.0
H238 H 0.31235 0.04788 0.9187 0.0
H239 H 0.46284 0.07213 0.99121 0.0
H240 H 0.6976 0.95904 0.03378 0.0
H241 H 0.58101 0.97637 0.02192 0.0
C242 C 0.25429 0.94316 0.46345 0.0
C243 C 0.22202 0.94352 0.4922 0.0
C244 C 0.32458 0.94765 0.46201 0.0
C245 C 0.48166 0.95876 0.50842 0.0
H246 H 0.49698 0.0461 0.46335 0.0
C247 C 0.70871 0.04241 0.53088 0.0
C248 C 0.74607 0.04782 0.50387 0.0
C249 C 0.63968 0.03471 0.52889 0.0
C250 C 0.49344 0.02171 0.47591 0.0
H251 H 0.23696 0.94251 0.54173 0.0
H252 H 0.3596 0.94954 0.53932 0.0
H253 H 0.39496 0.01035 0.45729 0.0
H254 H 0.73939 0.05608 0.45444 0.0
H255 H 0.61898 0.04217 0.45088 0.0
H256 H 0.57962 0.9702 0.52732 0.0
C257 C 0.33135 0.94649 0.51792 0.0
C258 C 0.43572 0.00099 0.47211 0.0
C259 C 0.26118 0.9425 0.51935 0.0
C260 C 0.71161 0.05165 0.47558 0.0
C261 C 0.64262 0.0435 0.47352 0.0
C262 C 0.53935 0.97941 0.51216 0.0
C263 C 0.36262 0.95193 0.48932 0.0
C264 C 0.42897 0.96963 0.48872 0.0
C265 C 0.6079 0.0321 0.49985 0.0
C266 C 0.54514 0.01139 0.49641 0.0
H267 H 0.2248 0.94389 0.44222 0.0
H268 H 0.34812 0.95123 0.43971 0.0
H269 H 0.47748 0.93472 0.52145 0.0
H270 H 0.73427 0.04004 0.55304 0.0
H271 H 0.61306 0.02724 0.54966 0.0
C272 C 0.76518 0.56173 0.01367 0.0
C273 C 0.71729 0.56113 0.9896 0.0
C274 C 0.83426 0.56129 0.00709 0.0
C275 C 0.9341 0.5163 0.95251 0.0
H276 H 0.08131 0.55074 0.00415 0.0
C277 C 0.21517 0.46467 0.96294 0.0
C278 C 0.23877 0.46411 -0.00633 0.0
C279 C 0.14929 0.4763 0.9563 0.0
C280 C 0.0406 0.541 0.98949 0.0
H281 H 0.70271 0.56359 0.93999 0.0
H282 H 0.82433 0.56183 0.92842 0.0
H283 H -0.02511 0.58345 0.00114 0.0
H284 H 0.20958 0.46896 0.04158 0.0
H285 H 0.09415 0.48837 0.02999 0.0
H286 H -0.00073 0.4729 0.94211 0.0
C287 C 0.80839 0.56292 0.95228 0.0
C288 C -0.0197 0.55988 0.98751 0.0
C289 C 0.73906 0.56408 0.95892 0.0
C290 C 0.19271 0.46969 0.01771 0.0
C291 C 0.12711 0.48116 0.01109 0.0
C292 C -0.0052 0.49743 0.9544 0.0
C293 C 0.85616 0.55958 0.97633 0.0
C294 C 0.92539 0.54677 0.97026 0.0
C295 C 0.10696 0.48701 0.98039 0.0
C296 C 0.04691 0.50883 0.97417 0.0
H297 H 0.74923 0.55964 0.03748 0.0
H298 H 0.87001 0.55855 0.0261 0.0
H299 H 0.89218 0.50547 0.93925 0.0
H300 H 0.24977 0.4604 0.94396 0.0
H301 H 0.13409 0.48021 0.93246 0.0
C302 C 0.17917 0.55704 0.46743 0.0
C303 C 0.21498 0.56113 0.49529 0.0
C304 C 0.1089 0.55219 0.46793 0.0
C305 C 0.95764 0.54759 0.51755 0.0
H306 H 0.94139 0.45369 0.48422 0.0
C307 C 0.72683 0.47035 0.54698 0.0
C308 C 0.69104 0.4607 0.52016 0.0
C309 C 0.79634 0.47685 0.54556 0.0
C310 C 0.94517 0.47988 0.49355 0.0
H311 H 0.20648 0.56971 0.54448 0.0
H312 H 0.08371 0.56219 0.54533 0.0
H313 H 0.04251 0.4883 0.47332 0.0
H314 H 0.70074 0.44372 0.47264 0.0
H315 H 0.82168 0.45568 0.46998 0.0
H316 H 0.86045 0.53936 0.53774 0.0
C317 C 0.10918 0.56202 0.52324 0.0
C318 C 0.00238 0.49988 0.48695 0.0
C319 C 0.17936 0.56634 0.5228 0.0
C320 C 0.72719 0.4516 0.49355 0.0
C321 C 0.79662 0.45856 0.49201 0.0
C322 C 0.90028 0.5277 0.52399 0.0
C323 C 0.07457 0.55201 0.49622 0.0
C324 C 0.00917 0.53379 0.49906 0.0
C325 C 0.83018 0.47406 0.51726 0.0
C326 C 0.89384 0.49352 0.51232 0.0
H327 H 0.206 0.55296 0.44598 0.0
H328 H 0.08265 0.54502 0.44678 0.0
H329 H 0.96215 0.57358 0.52726 0.0
H330 H 0.69998 0.47671 0.568 0.0
H331 H 0.82193 0.48753 0.56569 0.0
C332 C 0.93345 0.02999 0.36146 0.0
C333 C -0.02054 0.00725 0.37624 0.0
C334 C 0.93207 0.03249 0.32935 0.0
C335 C 0.0364 0.02125 0.26145 0.0
H336 H 0.86645 0.00664 0.21721 0.0
C337 C 0.02829 -0.0005 0.13048 0.0
C338 C -0.0271 0.01292 0.1136 0.0
C339 C 0.02884 0.00095 0.16261 0.0
C340 C 0.91411 0.01144 0.22918 0.0
H341 H 0.06068 0.96971 0.36916 0.0
H342 H 0.059 0.97467 0.31297 0.0
H343 H 0.86782 0.0058 0.2735 0.0
H344 H 0.87536 0.03915 0.11699 0.0
H345 H 0.8773 0.04275 0.17312 0.0
H346 H 0.08282 0.02755 0.21743 0.0
C347 C 0.02388 0.99031 0.32631 0.0
C348 C 0.91482 0.01078 0.26137 0.0
C349 C 0.02452 0.98735 0.35838 0.0
C350 C 0.91852 0.02834 0.12944 0.0
C351 C 0.91948 0.03022 0.16159 0.0
C352 C 0.03559 0.02242 0.2293 0.0
C353 C -0.02252 0.01277 0.31159 0.0
C354 C -0.0239 0.01525 0.27768 0.0
C355 C -0.02555 0.01631 0.17856 0.0
C356 C -0.02541 0.01706 0.21277 0.0
H357 H 0.89798 0.04554 0.37468 0.0
H358 H 0.89604 0.05006 0.31839 0.0
H359 H 0.08411 0.02517 0.27367 0.0
H360 H 0.0707 0.98718 0.11891 0.0
H361 H 0.07136 0.98936 0.17493 0.0
C362 C 0.95468 0.9554 0.8614 0.0
C363 C -0.02088 0.98567 0.87611 0.0
C364 C 0.95959 0.95185 0.82942 0.0
C365 C 0.05512 0.9818 0.76272 0.0
H366 H 0.89044 0.9629 0.71576 0.0
C367 C 0.03756 0.00587 0.63212 0.0
C368 C -0.00341 0.98363 0.61415 0.0
C369 C 0.03864 0.00277 0.66418 0.0
C370 C 0.93724 0.96749 0.72848 0.0
H371 H 0.02909 0.03557 0.86907 0.0
H372 H 0.0383 0.02906 0.81331 0.0
H373 H 0.88706 0.96266 0.77195 0.0
H374 H 0.92651 0.93991 0.61543 0.0
H375 H 0.93008 0.93372 0.67131 0.0
H376 H 0.1057 0.98639 0.71946 0.0
C377 C 0.01524 0.00823 0.82652 0.0
C378 C 0.93512 0.96746 0.76064 0.0
C379 C 0.00945 0.01203 0.85836 0.0
C380 C 0.95799 0.95769 0.62875 0.0
C381 C 0.95982 0.95425 0.66078 0.0
C382 C 0.05753 0.98137 0.73057 0.0
C383 C -0.00997 0.97823 0.8118 0.0
C384 C -0.00624 0.97519 0.77796 0.0
C385 C -0.00047 0.97702 0.67891 0.0
C386 C -0.00167 0.97482 0.71306 0.0
H387 H 0.93101 0.93469 0.87451 0.0
H388 H 0.93995 0.92845 0.81847 0.0
H389 H 0.10116 0.98746 0.77571 0.0
H390 H 0.06756 0.02625 0.62149 0.0
H391 H 0.06885 0.02116 0.67743 0.0
C392 C 0.52596 0.47464 0.37082 0.0
C393 C 0.47476 0.49566 0.38368 0.0
C394 C 0.53191 0.47168 0.33882 0.0
C395 C 0.43308 0.47758 0.26794 0.0
H396 H 0.60264 0.50002 0.22726 0.0
C397 C 0.44048 0.50739 0.13919 0.0
C398 C 0.49605 0.49586 0.12173 0.0
C399 C 0.44116 0.50426 0.17116 0.0
C400 C 0.5553 0.49303 0.23827 0.0
H401 H 0.38941 0.52979 0.37324 0.0
H402 H 0.3991 0.524 0.3174 0.0
H403 H 0.59787 0.49956 0.28365 0.0
H404 H 0.59616 0.47204 0.12414 0.0
H405 H 0.59675 0.46588 0.1803 0.0
H406 H 0.39023 0.47077 0.22294 0.0
C407 C 0.4347 0.51003 0.3321 0.0
C408 C 0.55261 0.49289 0.27049 0.0
C409 C 0.42944 0.51346 0.364 0.0
C410 C 0.55264 0.48124 0.137 0.0
C411 C 0.55307 0.47783 0.16914 0.0
C412 C 0.43593 0.47728 0.23584 0.0
C413 C 0.48597 0.48917 0.31928 0.0
C414 C 0.49105 0.48595 0.28548 0.0
C415 C 0.49709 0.48916 0.18653 0.0
C416 C 0.49658 0.48588 0.22061 0.0
H417 H 0.5618 0.46076 0.38546 0.0
H418 H 0.57174 0.45541 0.32935 0.0
H419 H 0.38533 0.47161 0.27909 0.0
H420 H 0.39638 0.51916 0.12819 0.0
H421 H 0.39795 0.5141 0.18387 0.0
C422 C 0.46829 0.54411 0.63748 0.0
C423 C 0.43173 0.5186 0.62095 0.0
C424 C 0.4663 0.54489 0.66965 0.0
C425 C 0.44496 0.48771 0.73525 0.0
H426 H 0.41457 0.57275 0.78184 0.0
C427 C 0.42861 0.48626 0.86741 0.0
C428 C 0.45908 0.51403 0.88357 0.0
C429 C 0.42128 0.48766 0.83542 0.0
C430 C 0.424 0.54887 0.76916 0.0
H431 H 0.36352 0.47429 0.62508 0.0
H432 H 0.3611 0.47539 0.68138 0.0
H433 H 0.40844 0.57413 0.72553 0.0
H434 H 0.50594 0.56503 0.87893 0.0
H435 H 0.49516 0.56701 0.82292 0.0
H436 H 0.46281 0.46254 0.77849 0.0
C437 C 0.39102 0.49477 0.66934 0.0
C438 C 0.42013 0.54968 0.73699 0.0
C439 C 0.39222 0.49427 0.63717 0.0
C440 C 0.48196 0.54329 0.86711 0.0
C441 C 0.47536 0.54451 0.83503 0.0
C442 C 0.44966 0.48696 0.76734 0.0
C443 C 0.42848 0.5199 0.68581 0.0
C444 C 0.43057 0.51908 0.71982 0.0
C445 C 0.44503 0.51667 0.81882 0.0
C446 C 0.43923 0.51753 0.78469 0.0
H447 H 0.49891 0.56331 0.62559 0.0
H448 H 0.49594 0.56438 0.68192 0.0
H449 H 0.45421 0.46388 0.72243 0.0
H450 H 0.40974 0.46352 0.8795 0.0
H451 H 0.39648 0.46607 0.82375 0.0
loop_
_geom_bond_atom_site_label_1
_geom_bond_atom_site_label_2
_geom_bond_distance
_geom_bond_site_symmetry_2
_ccdc_geom_bond_type
O0 Zn1 1.953 . S
O0 C16 1.225 1_665 S
Zn1 O0 1.953 . S
Zn1 O2 1.949 1_666 S
Zn1 O8 1.919 1_655 S
Zn1 O13 1.924 . S
O2 Zn1 1.949 1_444 S
O2 Zn3 1.923 1_545 S
O2 Zn4 1.950 1_554 S
O2 Zn5 1.945 1_455 S
Zn3 O2 1.923 1_565 S
Zn3 O6 1.933 1_565 S
Zn3 O9 1.941 . S
Zn3 O10 1.965 1_565 S
Zn4 O2 1.950 1_556 S
Zn4 O11 1.938 . S
Zn4 O12 1.906 . S
Zn4 O22 1.953 . S
Zn5 O2 1.945 1_655 S
Zn5 O7 1.932 . S
Zn5 O14 1.977 . S
Zn5 O15 1.910 . S
O6 Zn3 1.933 1_545 S
O6 C17 1.226 . S
O7 Zn5 1.932 . S
O7 C17 1.307 1_655 S
O8 Zn1 1.919 1_455 S
O8 C19 1.253 1_556 S
O9 Zn3 1.941 . S
O9 C19 1.283 . S
O10 Zn3 1.965 1_545 S
O10 C18 1.303 1_554 S
O11 Zn4 1.938 . S
O11 C18 1.247 . S
O12 Zn4 1.906 . S
O12 C20 1.304 1_456 S
O13 Zn1 1.924 . S
O13 C21 1.311 . S
O14 Zn5 1.977 . S
O14 C20 1.272 . S
O15 Zn5 1.910 . S
O15 C21 1.231 1_544 S
C16 O0 1.225 1_445 S
C16 O22 1.298 . S
C17 O6 1.226 . S
C17 O7 1.307 1_455 S
C18 O10 1.303 1_556 S
C18 O11 1.247 . S
C19 O8 1.253 1_554 S
C19 O9 1.283 . S
C20 O12 1.304 1_654 S
C20 O14 1.272 . S
C21 O13 1.311 . S
C21 O15 1.231 1_566 S
O22 Zn4 1.953 . S
O22 C16 1.298 . S
O23 Zn24 1.953 . S
O23 C39 1.225 1_565 S
Zn24 O23 1.953 . S
Zn24 O25 1.949 1_565 S
Zn24 O31 1.919 . S
Zn24 O36 1.924 . S
O25 Zn24 1.949 1_545 S
O25 Zn26 1.923 . S
O25 Zn27 1.950 1_455 S
O25 Zn28 1.945 1_445 S
Zn26 O25 1.923 . S
Zn26 O29 1.933 . S
Zn26 O32 1.941 . S
Zn26 O33 1.965 . S
Zn27 O25 1.950 1_655 S
Zn27 O34 1.938 . S
Zn27 O35 1.906 . S
Zn27 O45 1.953 . S
Zn28 O25 1.945 1_665 S
Zn28 O30 1.932 . S
Zn28 O37 1.966 1_565 S
Zn28 O38 1.910 . S
O29 Zn26 1.933 . S
O29 C40 1.226 . S
O30 Zn28 1.932 . S
O30 C40 1.307 1_665 S
O31 Zn24 1.919 . S
O31 C42 1.253 . S
O32 Zn26 1.941 . S
O32 C42 1.283 1_545 S
O33 Zn26 1.965 . S
O33 C41 1.303 . S
O34 Zn27 1.938 . S
O34 C41 1.247 1_655 S
O35 Zn27 1.906 . S
O35 C43 1.304 . S
O36 Zn24 1.924 . S
O36 C44 1.311 1_455 S
O37 Zn28 1.966 1_545 S
O37 C43 1.297 . S
O38 Zn28 1.910 . S
O38 C44 1.231 . S
C39 O23 1.225 1_545 S
C39 O45 1.298 1_455 S
C40 O29 1.226 . S
C40 O30 1.307 1_445 S
C41 O33 1.303 . S
C41 O34 1.247 1_455 S
C42 O31 1.253 . S
C42 O32 1.283 1_565 S
C43 O35 1.304 . S
C43 O37 1.297 . S
C44 O36 1.311 1_655 S
C44 O38 1.231 . S
O45 Zn27 1.953 . S
O45 C39 1.298 1_655 S
O46 Zn47 1.953 . S
O46 C62 1.225 . S
Zn47 O46 1.953 . S
Zn47 O48 1.949 1_556 S
Zn47 O54 1.919 . S
Zn47 O59 1.924 . S
O48 Zn47 1.949 1_554 S
O48 Zn49 1.923 . S
O48 Zn50 1.950 1_554 S
O48 Zn51 1.945 . S
Zn49 O48 1.923 . S
Zn49 O52 1.933 . S
Zn49 O55 1.941 . S
Zn49 O56 1.965 . S
Zn50 O48 1.950 1_556 S
Zn50 O57 1.938 . S
Zn50 O58 1.906 . S
Zn50 O68 1.953 . S
Zn51 O48 1.945 . S
Zn51 O53 1.932 . S
Zn51 O60 1.977 . S
Zn51 O61 1.910 . S
O52 Zn49 1.933 . S
O52 C63 1.226 . S
O53 Zn51 1.932 . S
O53 C63 1.307 . S
O54 Zn47 1.919 . S
O54 C65 1.253 1_556 S
O55 Zn49 1.941 . S
O55 C65 1.283 . S
O56 Zn49 1.965 . S
O56 C64 1.303 1_554 S
O57 Zn50 1.938 . S
O57 C64 1.247 . S
O58 Zn50 1.906 . S
O58 C66 1.304 1_556 S
O59 Zn47 1.924 . S
O59 C67 1.311 . S
O60 Zn51 1.977 . S
O60 C66 1.272 . S
O61 Zn51 1.910 . S
O61 C67 1.231 1_554 S
C62 O46 1.225 . S
C62 O68 1.298 . S
C63 O52 1.226 . S
C63 O53 1.307 . S
C64 O56 1.303 1_556 S
C64 O57 1.247 . S
C65 O54 1.253 1_554 S
C65 O55 1.283 . S
C66 O58 1.304 1_554 S
C66 O60 1.272 . S
C67 O59 1.311 . S
C67 O61 1.231 1_556 S
O68 Zn50 1.953 . S
O68 C62 1.298 . S
O69 Zn70 1.953 . S
O69 C85 1.225 . S
Zn70 O69 1.953 . S
Zn70 O71 1.949 . S
Zn70 O77 1.919 . S
Zn70 O82 1.924 . S
O71 Zn70 1.949 . S
O71 Zn72 1.923 . S
O71 Zn73 1.950 . S
O71 Zn74 1.945 . S
Zn72 O71 1.923 . S
Zn72 O75 1.933 . S
Zn72 O78 1.941 . S
Zn72 O79 1.965 . S
Zn73 O71 1.950 . S
Zn73 O80 1.938 . S
Zn73 O81 1.906 . S
Zn73 O91 1.953 . S
Zn74 O71 1.945 . S
Zn74 O76 1.932 . S
Zn74 O83 1.977 . S
Zn74 O84 1.910 . S
O75 Zn72 1.933 . S
O75 C86 1.226 . S
O76 Zn74 1.932 . S
O76 C86 1.307 . S
O77 Zn70 1.919 . S
O77 C88 1.253 . S
O78 Zn72 1.941 . S
O78 C88 1.283 . S
O79 Zn72 1.965 . S
O79 C87 1.303 . S
O80 Zn73 1.938 . S
O80 C87 1.247 . S
O81 Zn73 1.906 . S
O81 C89 1.304 . S
O82 Zn70 1.924 . S
O82 C90 1.311 . S
O83 Zn74 1.977 . S
O83 C89 1.272 . S
O84 Zn74 1.910 . S
O84 C90 1.231 . S
C85 O69 1.225 . S
C85 O91 1.298 . S
C86 O75 1.226 . S
C86 O76 1.307 . S
C87 O79 1.303 . S
C87 O80 1.247 . S
C88 O77 1.253 . S
C88 O78 1.283 . S
C89 O81 1.304 . S
C89 O83 1.272 . S
C90 O82 1.311 . S
C90 O84 1.231 . S
O91 Zn73 1.953 . S
O91 C85 1.298 . S
C92 C93 1.349 1_556 S
C92 C94 1.327 . S
C92 H117 0.950 . S
C93 C92 1.349 1_554 S
C93 C109 1.349 . S
C94 C92 1.327 . S
C94 C113 1.429 1_556 S
C94 H118 0.950 . S
C95 C112 1.574 . S
C95 C114 1.368 . S
C95 H119 0.949 . S
H96 C100 0.949 . S
C97 C98 1.349 . S
C97 C99 1.327 . S
C97 H120 0.950 . S
C98 C97 1.349 . S
C98 C110 1.349 1_554 S
C99 C97 1.327 . S
C99 C115 1.429 . S
C99 H121 0.950 . S
C100 H96 0.949 . S
C100 C108 1.574 . S
C100 C116 1.368 1_556 S
H101 C109 0.950 . S
H102 C107 0.950 . S
H103 C108 0.949 . S
H104 C110 0.950 . S
H105 C111 0.950 . S
H106 C112 0.949 . S
C107 H102 0.950 . S
C107 C109 1.327 . S
C107 C113 1.429 . S
C108 C100 1.574 . S
C108 H103 0.949 . S
C108 C114 1.368 1_556 S
C109 C93 1.349 . S
C109 H101 0.950 . S
C109 C107 1.327 . S
C110 C98 1.349 1_556 S
C110 H104 0.950 . S
C110 C111 1.327 . S
C111 H105 0.950 . S
C111 C110 1.327 . S
C111 C115 1.429 1_556 S
C112 C95 1.574 . S
C112 H106 0.949 . S
C112 C116 1.368 . S
C113 C94 1.429 1_554 S
C113 C107 1.429 . S
C113 C114 1.523 . S
C114 C95 1.368 . S
C114 C108 1.368 1_554 S
C114 C113 1.523 . S
C115 C99 1.429 . S
C115 C111 1.429 1_554 S
C115 C116 1.523 . S
C116 C100 1.368 1_554 S
C116 C112 1.368 . S
C116 C115 1.523 . S
H117 C92 0.950 . S
H118 C94 0.950 . S
H119 C95 0.949 . S
H120 C97 0.950 . S
H121 C99 0.950 . S
C122 C123 1.349 . S
C122 C124 1.327 . S
C122 H147 0.950 . S
C123 C122 1.349 . S
C123 C139 1.349 1_554 S
C124 C122 1.327 . S
C124 C143 1.429 . S
C124 H148 0.950 . S
C125 C142 1.574 . S
C125 C144 1.368 1_556 S
C125 H149 0.949 . S
H126 C130 0.949 . S
C127 C128 1.349 1_556 S
C127 C129 1.327 . S
C127 H150 0.950 . S
C128 C127 1.349 1_554 S
C128 C140 1.349 . S
C129 C127 1.327 . S
C129 C145 1.429 1_556 S
C129 H151 0.950 . S
C130 H126 0.949 . S
C130 C138 1.574 . S
C130 C146 1.368 . S
H131 C139 0.950 . S
H132 C137 0.950 . S
H133 C138 0.949 . S
H134 C140 0.950 . S
H135 C141 0.950 . S
H136 C142 0.949 . S
C137 H132 0.950 . S
C137 C139 1.327 . S
C137 C143 1.429 1_556 S
C138 C130 1.574 . S
C138 H133 0.949 . S
C138 C144 1.368 . S
C139 C123 1.349 1_556 S
C139 H131 0.950 . S
C139 C137 1.327 . S
C140 C128 1.349 . S
C140 H134 0.950 . S
C140 C141 1.327 . S
C141 H135 0.950 . S
C141 C140 1.327 . S
C141 C145 1.429 . S
C142 C125 1.574 . S
C142 H136 0.949 . S
C142 C146 1.368 1_556 S
C143 C124 1.429 . S
C143 C137 1.429 1_554 S
C143 C144 1.523 . S
C144 C125 1.368 1_554 S
C144 C138 1.368 . S
C144 C143 1.523 . S
C145 C129 1.429 1_554 S
C145 C141 1.429 . S
C145 C146 1.523 . S
C146 C130 1.368 . S
C146 C142 1.368 1_554 S
C146 C145 1.523 . S
H147 C122 0.950 . S
H148 C124 0.950 . S
H149 C125 0.949 . S
H150 C127 0.950 . S
H151 C129 0.950 . S
C152 C153 1.349 . S
C152 C154 1.327 . S
C152 H177 0.950 . S
C153 C152 1.349 . S
C153 C169 1.349 . S
C154 C152 1.327 . S
C154 C173 1.429 . S
C154 H178 0.950 . S
C155 C172 1.574 . S
C155 C174 1.368 . S
C155 H179 0.949 . S
H156 C160 0.949 . S
C157 C158 1.349 . S
C157 C159 1.327 . S
C157 H180 0.950 . S
C158 C157 1.349 . S
C158 C170 1.349 . S
C159 C157 1.327 . S
C159 C175 1.429 . S
C159 H181 0.950 . S
C160 H156 0.949 . S
C160 C168 1.574 . S
C160 C176 1.368 . S
H161 C169 0.950 . S
H162 C167 0.950 . S
H163 C168 0.949 . S
H164 C170 0.950 . S
H165 C171 0.950 . S
H166 C172 0.949 . S
C167 H162 0.950 . S
C167 C169 1.327 . S
C167 C173 1.429 . S
C168 C160 1.574 . S
C168 H163 0.949 . S
C168 C174 1.368 . S
C169 C153 1.349 . S
C169 H161 0.950 . S
C169 C167 1.327 . S
C170 C158 1.349 . S
C170 H164 0.950 . S
C170 C171 1.327 . S
C171 H165 0.950 . S
C171 C170 1.327 . S
C171 C175 1.429 . S
C172 C155 1.574 . S
C172 H166 0.949 . S
C172 C176 1.368 . S
C173 C154 1.429 . S
C173 C167 1.429 . S
C173 C174 1.523 . S
C174 C155 1.368 . S
C174 C168 1.368 . S
C174 C173 1.523 . S
C175 C159 1.429 . S
C175 C171 1.429 . S
C175 C176 1.523 . S
C176 C160 1.368 . S
C176 C172 1.368 . S
C176 C175 1.523 . S
H177 C152 0.950 . S
H178 C154 0.950 . S
H179 C155 0.949 . S
H180 C157 0.950 . S
H181 C159 0.950 . S
C182 C183 1.349 . S
C182 C184 1.327 . S
C182 H207 0.950 . S
C183 C182 1.349 . S
C183 C199 1.349 . S
C184 C182 1.327 . S
C184 C203 1.429 . S
C184 H208 0.950 . S
C185 C202 1.574 . S
C185 C204 1.368 . S
C185 H209 0.949 . S
H186 C190 0.949 . S
C187 C188 1.349 . S
C187 C189 1.327 . S
C187 H210 0.950 . S
C188 C187 1.349 . S
C188 C200 1.349 . S
C189 C187 1.327 . S
C189 C205 1.429 . S
C189 H211 0.950 . S
C190 H186 0.949 . S
C190 C198 1.574 . S
C190 C206 1.368 . S
H191 C199 0.950 . S
H192 C197 0.950 . S
H193 C198 0.949 . S
H194 C200 0.950 . S
H195 C201 0.950 . S
H196 C202 0.949 . S
C197 H192 0.950 . S
C197 C199 1.327 . S
C197 C203 1.429 . S
C198 C190 1.574 . S
C198 H193 0.949 . S
C198 C204 1.368 . S
C199 C183 1.349 . S
C199 H191 0.950 . S
C199 C197 1.327 . S
C200 C188 1.349 . S
C200 H194 0.950 . S
C200 C201 1.327 . S
C201 H195 0.950 . S
C201 C200 1.327 . S
C201 C205 1.429 . S
C202 C185 1.574 . S
C202 H196 0.949 . S
C202 C206 1.368 . S
C203 C184 1.429 . S
C203 C197 1.429 . S
C203 C204 1.523 . S
C204 C185 1.368 . S
C204 C198 1.368 . S
C204 C203 1.523 . S
C205 C189 1.429 . S
C205 C201 1.429 . S
C205 C206 1.523 . S
C206 C190 1.368 . S
C206 C202 1.368 . S
C206 C205 1.523 . S
H207 C182 0.950 . S
H208 C184 0.950 . S
H209 C185 0.949 . S
H210 C187 0.950 . S
H211 C189 0.950 . S
C212 C213 1.349 . S
C212 C214 1.327 . S
C212 H237 0.950 . S
C213 C212 1.349 . S
C213 C229 1.349 1_556 S
C214 C212 1.327 . S
C214 C233 1.429 . S
C214 H238 0.950 . S
C215 C232 1.574 1_545 S
C215 C234 1.368 1_554 S
C215 H239 0.949 1_545 S
H216 C220 0.949 . S
C217 C218 1.349 1_554 S
C217 C219 1.327 . S
C217 H240 0.950 . S
C218 C217 1.349 1_556 S
C218 C230 1.349 1_565 S
C219 C217 1.327 . S
C219 C235 1.429 1_554 S
C219 H241 0.950 . S
C220 H216 0.949 . S
C220 C228 1.574 . S
C220 C236 1.368 . S
H221 C229 0.950 . S
H222 C227 0.950 . S
H223 C228 0.949 . S
H224 C230 0.950 . S
H225 C231 0.950 . S
H226 C232 0.949 . S
C227 H222 0.950 . S
C227 C229 1.327 . S
C227 C233 1.429 1_554 S
C228 C220 1.574 . S
C228 H223 0.949 . S
C228 C234 1.368 . S
C229 C213 1.349 1_554 S
C229 H221 0.950 . S
C229 C227 1.327 . S
C230 C218 1.349 1_545 S
C230 H224 0.950 . S
C230 C231 1.327 . S
C231 H225 0.950 . S
C231 C230 1.327 . S
C231 C235 1.429 1_545 S
C232 C215 1.574 1_565 S
C232 H226 0.949 . S
C232 C236 1.368 1_564 S
C233 C214 1.429 . S
C233 C227 1.429 1_556 S
C233 C234 1.523 . S
C234 C215 1.368 1_556 S
C234 C228 1.368 . S
C234 C233 1.523 . S
C235 C219 1.429 1_556 S
C235 C231 1.429 1_565 S
C235 C236 1.523 1_565 S
C236 C220 1.368 . S
C236 C232 1.368 1_546 S
C236 C235 1.523 1_545 S
H237 C212 0.950 . S
H238 C214 0.950 . S
H239 C215 0.949 1_565 S
H240 C217 0.950 . S
H241 C219 0.950 . S
C242 C243 1.349 1_545 S
C242 C244 1.327 . S
C242 H267 0.950 . S
C243 C242 1.349 1_565 S
C243 C259 1.349 . S
C244 C242 1.327 . S
C244 C263 1.429 . S
C244 H268 0.950 . S
C245 C262 1.576 . S
C245 C264 1.368 1_565 S
C245 H269 0.949 . S
H246 C250 0.949 . S
C247 C248 1.349 . S
C247 C249 1.327 . S
C247 H270 0.950 . S
C248 C247 1.349 . S
C248 C260 1.349 . S
C249 C247 1.327 . S
C249 C265 1.429 . S
C249 H271 0.933 1_545 S
C250 H246 0.949 . S
C250 C258 1.574 . S
C250 C266 1.368 . S
H251 C259 0.950 . S
H252 C257 0.950 . S
H253 C258 0.949 . S
H254 C260 0.950 . S
H255 C261 0.950 . S
H256 C262 0.953 . S
C257 H252 0.950 . S
C257 C259 1.327 . S
C257 C263 1.429 1_565 S
C258 C250 1.574 . S
C258 H253 0.949 . S
C258 C264 1.368 . S
C259 C243 1.349 . S
C259 H251 0.950 . S
C259 C257 1.327 . S
C260 C248 1.349 . S
C260 H254 0.950 . S
C260 C261 1.327 . S
C261 H255 0.950 . S
C261 C260 1.327 . S
C261 C265 1.429 . S
C262 C245 1.576 . S
C262 H256 0.953 . S
C262 C266 1.362 1_565 S
C263 C244 1.429 . S
C263 C257 1.429 1_545 S
C263 C264 1.523 . S
C264 C245 1.368 1_545 S
C264 C258 1.368 . S
C264 C263 1.523 . S
C265 C249 1.429 . S
C265 C261 1.429 . S
C265 C266 1.523 . S
C266 C250 1.368 . S
C266 C262 1.362 1_545 S
C266 C265 1.523 . S
H267 C242 0.950 . S
H268 C244 0.950 . S
H269 C245 0.949 . S
H270 C247 0.950 . S
H271 C249 0.933 1_565 S
C272 C273 1.349 1_554 S
C272 C274 1.327 . S
C272 H297 0.950 . S
C273 C272 1.349 1_556 S
C273 C289 1.349 . S
C274 C272 1.327 . S
C274 C293 1.429 1_554 S
C274 H298 0.950 . S
C275 C292 1.574 1_655 S
C275 C294 1.368 . S
C275 H299 0.949 . S
H276 C280 0.949 . S
C277 C278 1.349 . S
C277 C279 1.327 . S
C277 H300 0.950 . S
C278 C277 1.349 . S
C278 C290 1.349 1_556 S
C279 C277 1.327 . S
C279 C295 1.429 . S
C279 H301 0.950 . S
C280 H276 0.949 . S
C280 C288 1.574 1_455 S
C280 C296 1.368 1_554 S
H281 C289 0.950 . S
H282 C287 0.950 . S
H283 C288 0.949 . S
H284 C290 0.950 . S
H285 C291 0.950 . S
H286 C292 0.949 . S
C287 H282 0.950 . S
C287 C289 1.327 . S
C287 C293 1.429 . S
C288 C280 1.574 1_655 S
C288 H283 0.949 . S
C288 C294 1.368 1_554 S
C289 C273 1.349 . S
C289 H281 0.950 . S
C289 C287 1.327 . S
C290 C278 1.349 1_554 S
C290 H284 0.950 . S
C290 C291 1.327 . S
C291 H285 0.950 . S
C291 C290 1.327 . S
C291 C295 1.429 1_554 S
C292 C275 1.574 1_455 S
C292 H286 0.949 . S
C292 C296 1.368 . S
C293 C274 1.429 1_556 S
C293 C287 1.429 . S
C293 C294 1.523 . S
C294 C275 1.368 . S
C294 C288 1.368 1_556 S
C294 C293 1.523 . S
C295 C279 1.429 . S
C295 C291 1.429 1_556 S
C295 C296 1.523 . S
C296 C280 1.368 1_556 S
C296 C292 1.368 . S
C296 C295 1.523 . S
H297 C272 0.950 . S
H298 C274 0.950 . S
H299 C275 0.949 . S
H300 C277 0.950 . S
H301 C279 0.950 . S
C302 C303 1.349 . S
C302 C304 1.327 . S
C302 H327 0.950 . S
C303 C302 1.349 . S
C303 C319 1.349 . S
C304 C302 1.327 . S
C304 C323 1.429 . S
C304 H328 0.950 . S
C305 C322 1.574 1_455 S
C305 C324 1.368 . S
C305 H329 0.949 . S
H306 C310 0.949 . S
C307 C308 1.349 . S
C307 C309 1.327 . S
C307 H330 0.950 . S
C308 C307 1.349 . S
C308 C320 1.349 . S
C309 C307 1.327 . S
C309 C325 1.429 . S
C309 H331 0.950 . S
C310 H306 0.949 . S
C310 C318 1.574 1_655 S
C310 C326 1.368 . S
H311 C319 0.950 . S
H312 C317 0.950 . S
H313 C318 0.949 . S
H314 C320 0.950 . S
H315 C321 0.950 . S
H316 C322 0.949 . S
C317 H312 0.950 . S
C317 C319 1.327 . S
C317 C323 1.429 . S
C318 C310 1.574 1_455 S
C318 H313 0.949 . S
C318 C324 1.368 . S
C319 C303 1.349 . S
C319 H311 0.950 . S
C319 C317 1.327 . S
C320 C308 1.349 . S
C320 H314 0.950 . S
C320 C321 1.327 . S
C321 H315 0.950 . S
C321 C320 1.327 . S
C321 C325 1.429 . S
C322 C305 1.574 1_655 S
C322 H316 0.949 . S
C322 C326 1.368 . S
C323 C304 1.429 . S
C323 C317 1.429 . S
C323 C324 1.523 . S
C324 C305 1.368 . S
C324 C318 1.368 . S
C324 C323 1.523 . S
C325 C309 1.429 . S
C325 C321 1.429 . S
C325 C326 1.523 . S
C326 C310 1.368 . S
C326 C322 1.368 . S
C326 C325 1.523 . S
H327 C302 0.950 . S
H328 C304 0.950 . S
H329 C305 0.949 . S
H330 C307 0.950 . S
H331 C309 0.950 . S
C332 C333 1.349 1_665 S
C332 C334 1.327 . S
C332 H357 0.950 . S
C333 C332 1.349 1_445 S
C333 C349 1.349 . S
C334 C332 1.327 . S
C334 C353 1.429 1_665 S
C334 H358 0.950 . S
C335 C352 1.574 . S
C335 C354 1.368 . S
C335 H359 0.949 . S
H336 C340 0.949 . S
C337 C338 1.349 . S
C337 C339 1.327 . S
C337 H360 0.950 . S
C338 C337 1.349 . S
C338 C350 1.349 1_445 S
C339 C337 1.327 . S
C339 C355 1.429 . S
C339 H361 0.950 . S
C340 H336 0.949 . S
C340 C348 1.574 . S
C340 C356 1.368 1_665 S
H341 C349 0.950 . S
H342 C347 0.950 . S
H343 C348 0.949 . S
H344 C350 0.950 . S
H345 C351 0.950 . S
H346 C352 0.949 . S
C347 H342 0.950 . S
C347 C349 1.327 . S
C347 C353 1.429 . S
C348 C340 1.574 . S
C348 H343 0.949 . S
C348 C354 1.368 1_665 S
C349 C333 1.349 . S
C349 H341 0.950 . S
C349 C347 1.327 . S
C350 C338 1.349 1_665 S
C350 H344 0.950 . S
C350 C351 1.327 . S
C351 H345 0.950 . S
C351 C350 1.327 . S
C351 C355 1.429 1_665 S
C352 C335 1.574 . S
C352 H346 0.949 . S
C352 C356 1.368 . S
C353 C334 1.429 1_445 S
C353 C347 1.429 . S
C353 C354 1.523 . S
C354 C335 1.368 . S
C354 C348 1.368 1_445 S
C354 C353 1.523 . S
C355 C339 1.429 . S
C355 C351 1.429 1_445 S
C355 C356 1.523 . S
C356 C340 1.368 1_445 S
C356 C352 1.368 . S
C356 C355 1.523 . S
H357 C332 0.950 . S
H358 C334 0.950 . S
H359 C335 0.949 . S
H360 C337 0.950 . S
H361 C339 0.950 . S
C362 C363 1.349 1_665 S
C362 C364 1.327 . S
C362 H387 0.950 . S
C363 C362 1.349 1_445 S
C363 C379 1.349 . S
C364 C362 1.327 . S
C364 C383 1.429 1_665 S
C364 H388 0.950 . S
C365 C382 1.574 . S
C365 C384 1.368 . S
C365 H389 0.949 . S
H366 C370 0.949 . S
C367 C368 1.349 . S
C367 C369 1.327 . S
C367 H390 0.950 . S
C368 C367 1.349 . S
C368 C380 1.349 1_445 S
C369 C367 1.327 . S
C369 C385 1.429 . S
C369 H391 0.950 . S
C370 H366 0.949 . S
C370 C378 1.574 . S
C370 C386 1.368 1_665 S
H371 C379 0.950 . S
H372 C377 0.950 . S
H373 C378 0.949 . S
H374 C380 0.950 . S
H375 C381 0.950 . S
H376 C382 0.949 . S
C377 H372 0.950 . S
C377 C379 1.327 . S
C377 C383 1.429 . S
C378 C370 1.574 . S
C378 H373 0.949 . S
C378 C384 1.368 1_665 S
C379 C363 1.349 . S
C379 H371 0.950 . S
C379 C377 1.327 . S
C380 C368 1.349 1_665 S
C380 H374 0.950 . S
C380 C381 1.327 . S
C381 H375 0.950 . S
C381 C380 1.327 . S
C381 C385 1.429 1_665 S
C382 C365 1.574 . S
C382 H376 0.949 . S
C382 C386 1.368 . S
C383 C364 1.429 1_445 S
C383 C377 1.429 . S
C383 C384 1.523 . S
C384 C365 1.368 . S
C384 C378 1.368 1_445 S
C384 C383 1.523 . S
C385 C369 1.429 . S
C385 C381 1.429 1_445 S
C385 C386 1.523 . S
C386 C370 1.368 1_445 S
C386 C382 1.368 . S
C386 C385 1.523 . S
H387 C362 0.950 . S
H388 C364 0.950 . S
H389 C365 0.949 . S
H390 C367 0.950 . S
H391 C369 0.950 . S
C392 C393 1.349 . S
C392 C394 1.327 . S
C392 H417 0.950 . S
C393 C392 1.349 . S
C393 C409 1.349 . S
C394 C392 1.327 . S
C394 C413 1.429 . S
C394 H418 0.950 . S
C395 C412 1.574 . S
C395 C414 1.368 . S
C395 H419 0.949 . S
H396 C400 0.949 . S
C397 C398 1.349 . S
C397 C399 1.327 . S
C397 H420 0.950 . S
C398 C397 1.349 . S
C398 C410 1.349 . S
C399 C397 1.327 . S
C399 C415 1.429 . S
C399 H421 0.950 . S
C400 H396 0.949 . S
C400 C408 1.574 . S
C400 C416 1.368 . S
H401 C409 0.950 . S
H402 C407 0.950 . S
H403 C408 0.949 . S
H404 C410 0.950 . S
H405 C411 0.950 . S
H406 C412 0.949 . S
C407 H402 0.950 . S
C407 C409 1.327 . S
C407 C413 1.429 . S
C408 C400 1.574 . S
C408 H403 0.949 . S
C408 C414 1.368 . S
C409 C393 1.349 . S
C409 H401 0.950 . S
C409 C407 1.327 . S
C410 C398 1.349 . S
C410 H404 0.950 . S
C410 C411 1.327 . S
C411 H405 0.950 . S
C411 C410 1.327 . S
C411 C415 1.429 . S
C412 C395 1.574 . S
C412 H406 0.949 . S
C412 C416 1.368 . S
C413 C394 1.429 . S
C413 C407 1.429 . S
C413 C414 1.523 . S
C414 C395 1.368 . S
C414 C408 1.368 . S
C414 C413 1.523 . S
C415 C399 1.429 . S
C415 C411 1.429 . S
C415 C416 1.523 . S
C416 C400 1.368 . S
C416 C412 1.368 . S
C416 C415 1.523 . S
H417 C392 0.950 . S
H418 C394 0.950 . S
H419 C395 0.949 . S
H420 C397 0.950 . S
H421 C399 0.950 . S
C422 C423 1.349 . S
C422 C424 1.327 . S
C422 H447 0.950 . S
C423 C422 1.349 . S
C423 C439 1.349 . S
C424 C422 1.327 . S
C424 C443 1.429 . S
C424 H448 0.950 . S
C425 C442 1.574 . S
C425 C444 1.368 . S
C425 H449 0.949 . S
H426 C430 0.949 . S
C427 C428 1.349 . S
C427 C429 1.327 . S
C427 H450 0.950 . S
C428 C427 1.349 . S
C428 C440 1.349 . S
C429 C427 1.327 . S
C429 C445 1.429 . S
C429 H451 0.950 . S
C430 H426 0.949 . S
C430 C438 1.574 . S
C430 C446 1.368 . S
H431 C439 0.950 . S
H432 C437 0.950 . S
H433 C438 0.949 . S
H434 C440 0.950 . S
H435 C441 0.950 . S
H436 C442 0.949 . S
C437 H432 0.950 . S
C437 C439 1.327 . S
C437 C443 1.429 . S
C438 C430 1.574 . S
C438 H433 0.949 . S
C438 C444 1.368 . S
C439 C423 1.349 . S
C439 H431 0.950 . S
C439 C437 1.327 . S
C440 C428 1.349 . S
C440 H434 0.950 . S
C440 C441 1.327 . S
C441 H435 0.950 . S
C441 C440 1.327 . S
C441 C445 1.429 . S
C442 C425 1.574 . S
C442 H436 0.949 . S
C442 C446 1.368 . S
C443 C424 1.429 . S
C443 C437 1.429 . S
C443 C444 1.523 . S
C444 C425 1.368 . S
C444 C438 1.368 . S
C444 C443 1.523 . S
C445 C429 1.429 . S
C445 C441 1.429 . S
C445 C446 1.523 . S
C446 C430 1.368 . S
C446 C442 1.368 . S
C446 C445 1.523 . S
H447 C422 0.950 . S
H448 C424 0.950 . S
H449 C425 0.949 . S
H450 C427 0.950 . S
H451 C429 0.950 . S
C93 C66 1.516 . S
C98 C19 1.513 . S
C123 C65 1.513 . S
C128 C20 1.516 . S
C153 C41 1.586 . S
C158 C90 1.569 . S
C183 C44 1.569 . S
C188 C87 1.586 . S
C213 C18 0.390 . S
C218 C21 0.425 . S
C243 C42 0.498 . S
C248 C43 0.489 . S
C273 C64 0.390 . S
C278 C67 0.425 . S
C303 C89 0.489 . S
C308 C88 0.498 . S
C333 C39 1.499 . S
C338 C17 1.499 . S
C363 C16 1.500 . S
C368 C40 1.499 . S
C393 C85 1.499 . S
C398 C63 1.499 . S
C423 C86 1.499 . S
C428 C62 1.500 . S
