# Generated by pormake.
# Topology swl, (7)-cn, num edge types: 1
# Building blocks:
#     Node 0, Type 0, BuildingBlock: HICVOG_clean_sbu_0, # of connection points: 7
#     Node 1, Type 0, BuildingBlock: HICVOG_clean_sbu_0, # of connection points: 7
#     Node 2, Type 0, BuildingBlock: HICVOG_clean_sbu_0, # of connection points: 7
#     Node 3, Type 0, BuildingBlock: HICVOG_clean_sbu_0, # of connection points: 7
#     Node 4, Type 0, BuildingBlock: HICVOG_clean_sbu_0, # of connection points: 7
#     Node 5, Type 0, BuildingBlock: HICVOG_clean_sbu_0, # of connection points: 7
#     Node 6, Type 0, BuildingBlock: HICVOG_clean_sbu_0, # of connection points: 7
#     Node 7, Type 0, BuildingBlock: HICVOG_clean_sbu_0, # of connection points: 7
#     Node 8, Type 0, BuildingBlock: HICVOG_clean_sbu_0, # of connection points: 7
#     Node 9, Type 0, BuildingBlock: HICVOG_clean_sbu_0, # of connection points: 7
#     Node 10, Type 0, BuildingBlock: HICVOG_clean_sbu_0, # of connection points: 7
#     Node 11, Type 0, BuildingBlock: HICVOG_clean_sbu_0, # of connection points: 7
#     Node 12, Type 0, BuildingBlock: HICVOG_clean_sbu_0, # of connection points: 7
#     Node 13, Type 0, BuildingBlock: HICVOG_clean_sbu_0, # of connection points: 7
#     Node 14, Type 0, BuildingBlock: HICVOG_clean_sbu_0, # of connection points: 7
#     Node 15, Type 0, BuildingBlock: HICVOG_clean_sbu_0, # of connection points: 7
#     Edge 16, Type (0, 0), BuildingBlock: OJICUG_clean_linker_0, # of connection points: 2
#     Edge 17, Type (0, 0), BuildingBlock: OJICUG_clean_linker_0, # of connection points: 2
#     Edge 18, Type (0, 0), BuildingBlock: OJICUG_clean_linker_0, # of connection points: 2
#     Edge 19, Type (0, 0), BuildingBlock: OJICUG_clean_linker_0, # of connection points: 2
#     Edge 20, Type (0, 0), BuildingBlock: OJICUG_clean_linker_0, # of connection points: 2
#     Edge 21, Type (0, 0), BuildingBlock: OJICUG_clean_linker_0, # of connection points: 2
#     Edge 22, Type (0, 0), BuildingBlock: OJICUG_clean_linker_0, # of connection points: 2
#     Edge 23, Type (0, 0), BuildingBlock: OJICUG_clean_linker_0, # of connection points: 2
#     Edge 24, Type (0, 0), BuildingBlock: OJICUG_clean_linker_0, # of connection points: 2
#     Edge 25, Type (0, 0), BuildingBlock: OJICUG_clean_linker_0, # of connection points: 2
#     Edge 26, Type (0, 0), BuildingBlock: OJICUG_clean_linker_0, # of connection points: 2
#     Edge 27, Type (0, 0), BuildingBlock: OJICUG_clean_linker_0, # of connection points: 2
#     Edge 28, Type (0, 0), BuildingBlock: OJICUG_clean_linker_0, # of connection points: 2
#     Edge 29, Type (0, 0), BuildingBlock: OJICUG_clean_linker_0, # of connection points: 2
#     Edge 30, Type (0, 0), BuildingBlock: OJICUG_clean_linker_0, # of connection points: 2
#     Edge 31, Type (0, 0), BuildingBlock: OJICUG_clean_linker_0, # of connection points: 2
#     Edge 32, Type (0, 0), BuildingBlock: OJICUG_clean_linker_0, # of connection points: 2
#     Edge 33, Type (0, 0), BuildingBlock: OJICUG_clean_linker_0, # of connection points: 2
#     Edge 34, Type (0, 0), BuildingBlock: OJICUG_clean_linker_0, # of connection points: 2
#     Edge 35, Type (0, 0), BuildingBlock: OJICUG_clean_linker_0, # of connection points: 2
#     Edge 36, Type (0, 0), BuildingBlock: OJICUG_clean_linker_0, # of connection points: 2
#     Edge 37, Type (0, 0), BuildingBlock: OJICUG_clean_linker_0, # of connection points: 2
#     Edge 38, Type (0, 0), BuildingBlock: OJICUG_clean_linker_0, # of connection points: 2
#     Edge 39, Type (0, 0), BuildingBlock: OJICUG_clean_linker_0, # of connection points: 2
#     Edge 40, Type (0, 0), BuildingBlock: OJICUG_clean_linker_0, # of connection points: 2
#     Edge 41, Type (0, 0), BuildingBlock: OJICUG_clean_linker_0, # of connection points: 2
#     Edge 42, Type (0, 0), BuildingBlock: OJICUG_clean_linker_0, # of connection points: 2
#     Edge 43, Type (0, 0), BuildingBlock: OJICUG_clean_linker_0, # of connection points: 2
#     Edge 44, Type (0, 0), BuildingBlock: OJICUG_clean_linker_0, # of connection points: 2
#     Edge 45, Type (0, 0), BuildingBlock: OJICUG_clean_linker_0, # of connection points: 2
#     Edge 46, Type (0, 0), BuildingBlock: OJICUG_clean_linker_0, # of connection points: 2
#     Edge 47, Type (0, 0), BuildingBlock: OJICUG_clean_linker_0, # of connection points: 2
#     Edge 48, Type (0, 0), BuildingBlock: OJICUG_clean_linker_0, # of connection points: 2
#     Edge 49, Type (0, 0), BuildingBlock: OJICUG_clean_linker_0, # of connection points: 2
#     Edge 50, Type (0, 0), BuildingBlock: OJICUG_clean_linker_0, # of connection points: 2
#     Edge 51, Type (0, 0), BuildingBlock: OJICUG_clean_linker_0, # of connection points: 2
#     Edge 52, Type (0, 0), BuildingBlock: OJICUG_clean_linker_0, # of connection points: 2
#     Edge 53, Type (0, 0), BuildingBlock: OJICUG_clean_linker_0, # of connection points: 2
#     Edge 54, Type (0, 0), BuildingBlock: OJICUG_clean_linker_0, # of connection points: 2
#     Edge 55, Type (0, 0), BuildingBlock: OJICUG_clean_linker_0, # of connection points: 2
#     Edge 56, Type (0, 0), BuildingBlock: OJICUG_clean_linker_0, # of connection points: 2
#     Edge 57, Type (0, 0), BuildingBlock: OJICUG_clean_linker_0, # of connection points: 2
#     Edge 58, Type (0, 0), BuildingBlock: OJICUG_clean_linker_0, # of connection points: 2
#     Edge 59, Type (0, 0), BuildingBlock: OJICUG_clean_linker_0, # of connection points: 2
#     Edge 60, Type (0, 0), BuildingBlock: OJICUG_clean_linker_0, # of connection points: 2
#     Edge 61, Type (0, 0), BuildingBlock: OJICUG_clean_linker_0, # of connection points: 2
#     Edge 62, Type (0, 0), BuildingBlock: OJICUG_clean_linker_0, # of connection points: 2
#     Edge 63, Type (0, 0), BuildingBlock: OJICUG_clean_linker_0, # of connection points: 2
#     Edge 64, Type (0, 0), BuildingBlock: OJICUG_clean_linker_0, # of connection points: 2
#     Edge 65, Type (0, 0), BuildingBlock: OJICUG_clean_linker_0, # of connection points: 2
#     Edge 66, Type (0, 0), BuildingBlock: OJICUG_clean_linker_0, # of connection points: 2
#     Edge 67, Type (0, 0), BuildingBlock: OJICUG_clean_linker_0, # of connection points: 2
#     Edge 68, Type (0, 0), BuildingBlock: OJICUG_clean_linker_0, # of connection points: 2
#     Edge 69, Type (0, 0), BuildingBlock: OJICUG_clean_linker_0, # of connection points: 2
#     Edge 70, Type (0, 0), BuildingBlock: OJICUG_clean_linker_0, # of connection points: 2
#     Edge 71, Type (0, 0), BuildingBlock: OJICUG_clean_linker_0, # of connection points: 2
# Relax obj value: 0.092
# Max RMSD: 0.189
# Mean RMSD: 0.189
data_MOF--net-swl--node1-HICVOG_clean_sbu_0--edge1-OJICUG_clean_linker_0
_symmetry_space_group_name_H-M    P1
_symmetry_Int_Tables_number       1
_symmetry_cell_setting            triclinic
loop_
_symmetry_equiv_pos_as_xyz
'x, y, z'
_cell_length_a     14.151999
_cell_length_b     62.750439
_cell_length_c     36.884
_cell_angle_alpha  90.181519
_cell_angle_beta   90.000554
_cell_angle_gamma 89.996543
loop_
_atom_site_label
_atom_site_type_symbol
_atom_site_fract_x
_atom_site_fract_y
_atom_site_fract_z
_atom_type_partial_charge
Zn0 Zn 1.00416 0.11571 0.52826 0.0
C1 C 0.1679 0.13189 0.44427 0.0
N2 N 0.09481 0.12438 0.42489 0.0
C3 C 0.02948 0.12086 0.45043 0.0
N4 N 0.06139 0.12579 0.48382 0.0
N5 N 0.14868 0.13294 0.48013 0.0
C6 C 0.41642 0.15148 0.53648 0.0
O7 O 0.37963 0.16111 0.56484 0.0
O8 O 0.85803 0.11674 0.52535 0.0
Zn9 Zn 0.21771 0.14774 0.51839 0.0
N10 N 0.05909 0.08748 0.53454 0.0
C11 C 0.20735 0.06962 0.53765 0.0
C12 C 0.15508 0.08813 0.53315 0.0
C13 C 0.01273 0.06875 0.54034 0.0
N14 N 0.16171 0.05099 0.54334 0.0
C15 C 0.06574 0.04978 0.5448 0.0
O16 O 0.19558 0.13735 0.56971 0.0
C17 C 0.12108 0.13524 0.5887 0.0
O18 O 0.04142 0.1312 0.57428 0.0
H19 H 0.19111 0.10305 0.52871 0.0
H20 H 0.93646 0.06882 0.542 0.0
C21 C 0.21127 0.19551 0.52183 0.0
C22 C 0.15828 0.21463 0.52425 0.0
C23 C 0.0165 0.19455 0.5204 0.0
C24 C 0.06862 0.17587 0.51851 0.0
N25 N 0.16467 0.17653 0.51899 0.0
N26 N 0.06229 0.21339 0.52335 0.0
H27 H 0.28759 0.1956 0.52323 0.0
C28 C 0.81945 0.13327 0.53926 0.0
O29 O 0.87401 0.1477 0.55436 0.0
O30 O 0.36136 0.14515 0.51138 0.0
H31 H 0.03231 0.1608 0.51737 0.0
H32 H 0.28373 0.07002 0.53665 0.0
H33 H 0.94008 0.1941 0.52003 0.0
Zn34 Zn 0.04812 0.15594 0.8143 0.0
C35 C 0.24009 0.13312 0.88455 0.0
N36 N 0.17549 0.13771 0.90994 0.0
C37 C 0.10136 0.14407 0.89001 0.0
N38 N 0.11946 0.14347 0.85406 0.0
N39 N 0.207 0.13642 0.85084 0.0
C40 C 0.44611 0.13992 0.79622 0.0
O41 O 0.39159 0.15403 0.78037 0.0
O42 O 0.90476 0.15316 0.82227 0.0
Zn43 Zn 0.26113 0.12335 0.80828 0.0
N44 N 0.09794 0.18481 0.81035 0.0
C45 C 0.2433 0.20378 0.8062 0.0
C46 C 0.19403 0.18481 0.81003 0.0
C47 C 0.0485 0.20331 0.80642 0.0
N48 N 0.19462 0.22217 0.80227 0.0
C49 C 0.09846 0.2227 0.80214 0.0
O50 O 0.22512 0.13647 0.7603 0.0
C51 C 0.14561 0.14002 0.74543 0.0
O52 O 0.07145 0.14352 0.76408 0.0
H53 H 0.23244 0.17004 0.81218 0.0
H54 H 0.97216 0.20276 0.80571 0.0
C55 C 0.24305 0.07588 0.80356 0.0
C56 C 0.18575 0.05737 0.80251 0.0
C57 C 0.04902 0.07905 0.80781 0.0
C58 C 0.10532 0.09713 0.80852 0.0
N59 N 0.20102 0.09536 0.80661 0.0
N60 N 0.09033 0.0597 0.80483 0.0
H61 H 0.31928 0.07491 0.80241 0.0
C62 C 0.84934 0.15811 0.79645 0.0
O63 O 0.88575 0.1664 0.76692 0.0
O64 O 0.40734 0.1238 0.81118 0.0
H65 H 0.0725 0.11258 0.81059 0.0
H66 H 0.31975 0.20388 0.80595 0.0
H67 H 0.97291 0.08035 0.80946 0.0
Zn68 Zn 0.9622 0.89907 0.5706 0.0
C69 C 0.77506 0.87146 0.63789 0.0
N70 N 0.84081 0.8746 0.66341 0.0
C71 C 0.91363 0.88234 0.64424 0.0
N72 N 0.89386 0.88388 0.60849 0.0
N73 N 0.80639 0.87686 0.60468 0.0
C74 C 0.56417 0.88497 0.54961 0.0
O75 O 0.6188 0.89955 0.53512 0.0
O76 O 0.10596 0.89652 0.57729 0.0
Zn77 Zn 0.7487 0.86733 0.55998 0.0
N78 N 0.90874 0.9278 0.57117 0.0
C79 C 0.76099 0.94602 0.57215 0.0
C80 C 0.81278 0.92727 0.57312 0.0
C81 C 0.95542 0.9467 0.56748 0.0
N82 N 0.80691 0.96477 0.56839 0.0
C83 C 0.90273 0.96587 0.56583 0.0
O84 O 0.78579 0.88304 0.51425 0.0
C85 C 0.86563 0.88692 0.49988 0.0
O86 O 0.93993 0.88914 0.51895 0.0
H87 H 0.77611 0.91228 0.57459 0.0
H88 H 0.03148 0.94665 0.56469 0.0
C89 C 0.75699 0.82036 0.5488 0.0
C90 C 0.80994 0.80146 0.54374 0.0
C91 C 0.95169 0.82158 0.54688 0.0
C92 C 0.89951 0.84004 0.55226 0.0
N93 N 0.80347 0.83923 0.55284 0.0
N94 N 0.9059 0.80281 0.54278 0.0
H95 H 0.68057 0.8202 0.54916 0.0
C96 C 0.16095 0.90288 0.55226 0.0
O97 O 0.1241 0.9125 0.524 0.0
O98 O 0.60268 0.86832 0.56295 0.0
H99 H 0.93562 0.85501 0.55601 0.0
H100 H 0.68467 0.94567 0.57373 0.0
H101 H 0.02807 0.82211 0.54617 0.0
Zn102 Zn 0.79542 0.90457 0.27402 0.0
C103 C 0.98774 0.88112 0.20401 0.0
N104 N 0.92337 0.8858 0.17862 0.0
C105 C 0.84942 0.89235 0.19853 0.0
N106 N 0.86731 0.89177 0.23448 0.0
N107 N 0.9545 0.88448 0.23776 0.0
C108 C 0.19358 0.88792 0.29303 0.0
O109 O 0.13918 0.90206 0.309 0.0
O110 O 0.65193 0.90146 0.26619 0.0
Zn111 Zn 0.00822 0.87146 0.28053 0.0
N112 N 0.84458 0.93361 0.27775 0.0
C113 C 0.99006 0.95257 0.28168 0.0
C114 C 0.94066 0.93358 0.2781 0.0
C115 C 0.79525 0.95219 0.28145 0.0
N116 N 0.94154 0.97102 0.28533 0.0
C117 C 0.84538 0.97162 0.28545 0.0
O118 O 0.97179 0.88486 0.32841 0.0
C119 C 0.89244 0.88892 0.34308 0.0
O120 O 0.81874 0.89253 0.32427 0.0
H121 H 0.97897 0.91878 0.27615 0.0
H122 H 0.71892 0.95167 0.28214 0.0
C123 C 0.98978 0.82401 0.28719 0.0
C124 C 0.9324 0.80551 0.28864 0.0
C125 C 0.79625 0.82702 0.28029 0.0
C126 C 0.85256 0.84511 0.27936 0.0
N127 N 0.94807 0.84341 0.28244 0.0
N128 N 0.83726 0.80776 0.2849 0.0
H129 H 0.06584 0.82308 0.28951 0.0
C130 C 0.59663 0.90648 0.29207 0.0
O131 O 0.63312 0.91503 0.32147 0.0
O132 O 0.15459 0.87183 0.27786 0.0
H133 H 0.81986 0.86052 0.27637 0.0
H134 H 0.0665 0.95264 0.28193 0.0
H135 H 0.72032 0.82827 0.27766 0.0
Zn136 Zn 0.23387 0.66782 1.02136 0.0
C137 C 0.06783 0.64952 0.93902 0.0
N138 N 0.14029 0.65655 0.9189 0.0
C139 C 0.20621 0.66081 0.94388 0.0
N140 N 0.17511 0.65681 0.97772 0.0
N141 N 0.08786 0.64946 0.97487 0.0
C142 C 0.82123 0.63176 1.03293 0.0
O143 O 0.85802 0.62296 0.06196 0.0
O144 O 0.38001 0.66623 1.01856 0.0
Zn145 Zn 0.02017 0.6354 1.01435 0.0
N146 N 0.18155 0.69638 1.02629 0.0
C147 C 0.03527 0.7151 1.02844 0.0
C148 C 0.08558 0.69625 1.02439 0.0
C149 C 0.22978 0.71486 1.03235 0.0
N150 N 0.08278 0.73349 1.03442 0.0
C151 C 0.17878 0.73413 1.03651 0.0
O152 O 0.04146 0.64731 0.06499 0.0
C153 C 0.11678 0.64985 0.08333 0.0
O154 O 0.19564 0.65368 0.06816 0.0
H155 H 0.04806 0.68148 1.02011 0.0
H156 H 0.30591 0.71436 1.03464 0.0
C157 C 0.03165 0.58753 1.02031 0.0
C158 C 0.08726 0.56878 1.02335 0.0
C159 C 0.22622 0.58979 1.01865 0.0
C160 C 0.17161 0.60807 1.01614 0.0
N161 N 0.07569 0.60678 1.01668 0.0
N162 N 0.18301 0.57071 1.02227 0.0
H163 H 0.95539 0.58697 1.02175 0.0
C164 C 0.41837 0.65028 1.03421 0.0
O165 O 0.3637 0.63661 0.05104 0.0
O166 O 0.8763 0.63745 1.00746 0.0
H167 H 0.20594 0.62333 1.01438 0.0
H168 H 0.95891 0.71513 1.02703 0.0
H169 H 0.30254 0.59076 1.01817 0.0
Zn170 Zn 0.0099 0.65311 0.31028 0.0
C171 C 0.19415 0.62463 0.37745 0.0
N172 N 0.12731 0.62716 0.40272 0.0
C173 C 0.05449 0.63481 0.38341 0.0
N174 N 0.07554 0.63695 0.34782 0.0
N175 N 0.16359 0.63026 0.34436 0.0
C176 C 0.40746 0.63956 0.29151 0.0
O177 O 0.35208 0.65402 0.27708 0.0
O178 O 0.86631 0.65078 0.31683 0.0
Zn179 Zn 0.22433 0.62097 0.30045 0.0
N180 N 0.06503 0.6817 0.3132 0.0
C181 C 0.21432 0.69913 0.31723 0.0
C182 C 0.16083 0.68065 0.31556 0.0
C183 C 0.0203 0.70093 0.31109 0.0
N184 N 0.17036 0.71821 0.31518 0.0
C185 C 0.0749 0.71989 0.31178 0.0
O186 O 0.18764 0.63657 0.2551 0.0
C187 C 0.11058 0.64183 0.23986 0.0
O188 O 0.03451 0.64436 0.25783 0.0
H189 H 0.19607 0.66547 0.31554 0.0
H190 H 0.94416 0.70136 0.3088 0.0
C191 C 0.22191 0.57399 0.28977 0.0
C192 C 0.17157 0.55473 0.28443 0.0
C193 C 0.02748 0.57412 0.28521 0.0
C194 C 0.07715 0.59293 0.29069 0.0
N195 N 0.17306 0.59262 0.29277 0.0
N196 N 0.0756 0.55557 0.28223 0.0
H197 H 0.29821 0.57432 0.29108 0.0
C198 C 0.81053 0.65757 0.29243 0.0
O199 O 0.84643 0.66757 0.26437 0.0
O200 O 0.36997 0.62268 0.30438 0.0
H201 H 0.03934 0.6078 0.29332 0.0
H202 H 0.29047 0.69834 0.31943 0.0
H203 H 0.95118 0.57423 0.28343 0.0
Zn204 Zn 0.79747 0.38374 0.06199 0.0
C205 C 0.98712 0.40892 0.13109 0.0
N206 N 0.92222 0.40465 0.15651 0.0
C207 C 0.84846 0.39785 0.13673 0.0
N208 N 0.86696 0.39793 0.10078 0.0
N209 N 0.95421 0.40518 0.09739 0.0
C210 C 0.19546 0.3998 0.04183 0.0
O211 O 0.14085 0.38564 1.02602 0.0
O212 O 0.65361 0.3866 0.06906 0.0
Zn213 Zn 0.01035 0.41691 0.0538 0.0
N214 N 0.85011 0.35492 0.06064 0.0
C215 C 0.99887 0.33721 0.0578 0.0
C216 C 0.94612 0.35579 0.0601 0.0
C217 C 0.80408 0.33585 0.0583 0.0
N218 N 0.95366 0.31828 0.05545 0.0
C219 C 0.8577 0.31682 0.05549 0.0
O220 O 0.97382 0.40241 1.00674 0.0
C221 C 0.89561 0.3973 0.99212 0.0
O222 O 0.8213 0.39423 1.01086 0.0
H223 H 0.98183 0.37094 0.06079 0.0
H224 H 0.72769 0.33562 0.05763 0.0
C225 C 0.99587 0.46439 0.04486 0.0
C226 C 0.93958 0.48299 0.0413 0.0
C227 C 0.8015 0.46178 0.04721 0.0
C228 C 0.85685 0.44365 0.05066 0.0
N229 N 0.95269 0.44514 0.04951 0.0
N230 N 0.84391 0.4809 0.0426 0.0
H231 H 0.0721 0.46505 0.04326 0.0
C232 C 0.59818 0.38084 0.04368 0.0
O233 O 0.63452 0.37154 1.01491 0.0
O234 O 0.15681 0.41606 0.05665 0.0
H235 H 0.8233 0.42834 0.05394 0.0
H236 H 0.07526 0.33782 0.05741 0.0
H237 H 0.72524 0.46069 0.04804 0.0
Zn238 Zn 0.75881 0.40319 0.7727 0.0
C239 C 0.92058 0.38299 0.69136 0.0
N240 N 0.84603 0.389 0.67138 0.0
C241 C 0.7811 0.39332 0.69672 0.0
N242 N 0.81411 0.39019 0.73041 0.0
N243 N 0.90221 0.38351 0.72732 0.0
C244 C 0.17057 0.36933 0.78562 0.0
O245 O 0.13356 0.36181 0.81565 0.0
O246 O 0.61306 0.4024 0.76947 0.0
Zn247 Zn 0.97277 0.37182 0.76784 0.0
N248 N 0.81566 0.43147 0.77411 0.0
C249 C 0.96366 0.44944 0.77046 0.0
C250 C 0.91121 0.43077 0.77009 0.0
C251 C 0.77025 0.45039 0.77924 0.0
N252 N 0.91888 0.46826 0.77544 0.0
C253 C 0.82364 0.46946 0.78011 0.0
O254 O 0.95045 0.38585 0.81713 0.0
C255 C 0.87549 0.38858 0.83571 0.0
O256 O 0.79504 0.39033 0.8207 0.0
H257 H 0.94697 0.41573 0.76676 0.0
H258 H 0.69424 0.45052 0.78228 0.0
C259 C 0.97154 0.32464 0.77772 0.0
C260 C 0.9216 0.3053 0.78271 0.0
C261 C 0.77678 0.32425 0.77885 0.0
C262 C 0.82606 0.34315 0.77418 0.0
N263 N 0.92213 0.34312 0.77353 0.0
N264 N 0.82545 0.30587 0.78306 0.0
H265 H 0.04789 0.32516 0.77795 0.0
C266 C 0.57416 0.38647 0.78493 0.0
O267 O 0.62833 0.37262 0.80156 0.0
O268 O 0.11564 0.37394 0.75949 0.0
H269 H 0.78768 0.35787 0.77148 0.0
H270 H 0.03957 0.44901 0.76707 0.0
H271 H 0.70034 0.32417 0.77939 0.0
Zn272 Zn 0.76536 0.16552 1.02845 0.0
C273 C 0.60152 0.14893 0.94436 0.0
N274 N 0.67462 0.15638 0.92501 0.0
C275 C 0.74004 0.15997 0.95054 0.0
N276 N 0.70797 0.15522 0.98398 0.0
N277 N 0.62071 0.14802 0.98022 0.0
C278 C 0.35252 0.12914 1.03597 0.0
O279 O 0.38863 0.11883 0.06365 0.0
O280 O 0.91153 0.16452 1.02558 0.0
Zn281 Zn 0.55198 0.13239 1.01747 0.0
N282 N 0.7098 0.19372 1.03484 0.0
C283 C 0.56034 0.21082 1.04067 0.0
C284 C 0.61391 0.19251 1.03589 0.0
C285 C 0.75484 0.21283 1.03831 0.0
N286 N 0.60461 0.22983 0.0441 0.0
C287 C 0.70044 0.23162 0.043 0.0
O288 O 0.57725 0.14085 0.06948 0.0
C289 C 0.65037 0.14436 0.08866 0.0
O290 O 0.72813 0.1503 0.07464 0.0
H291 H 0.57909 0.17728 1.03309 0.0
H292 H 0.8312 0.21323 1.03794 0.0
C293 C 0.55453 0.08468 1.01849 0.0
C294 C 0.60527 0.0652 1.01815 0.0
C295 C 0.74805 0.08446 1.00997 0.0
C296 C 0.69833 0.10349 1.01134 0.0
N297 N 0.60269 0.1034 1.01492 0.0
N298 N 0.70066 0.06588 1.01353 0.0
H299 H 0.47861 0.08508 1.02164 0.0
C300 C 0.94967 0.14783 1.03891 0.0
O301 O 0.89456 0.13326 0.0532 0.0
O302 O 0.40806 0.13577 1.01131 0.0
H303 H 0.73636 0.11833 1.01017 0.0
H304 H 0.48403 0.20998 0.04163 0.0
H305 H 0.82406 0.08445 1.00683 0.0
Zn306 Zn 0.7208 0.12185 0.31418 0.0
C307 C 0.52953 0.14619 0.3838 0.0
N308 N 0.59425 0.14202 0.40927 0.0
C309 C 0.66792 0.13512 0.38955 0.0
N310 N 0.64946 0.13498 0.35361 0.0
N311 N 0.56209 0.14213 0.3502 0.0
C312 C 0.32274 0.13767 0.29544 0.0
O313 O 0.37739 0.12343 0.27987 0.0
O314 O 0.8642 0.12472 0.32199 0.0
Zn315 Zn 0.50755 0.15456 0.30727 0.0
N316 N 0.67114 0.09282 0.31085 0.0
C317 C 0.52562 0.07385 0.30742 0.0
C318 C 0.57506 0.09284 0.31078 0.0
C319 C 0.72041 0.07424 0.30714 0.0
N320 N 0.57409 0.0554 0.30371 0.0
C321 C 0.67025 0.0548 0.30335 0.0
O322 O 0.54422 0.14091 0.25966 0.0
C323 C 0.62411 0.13744 0.245 0.0
O324 O 0.69792 0.13394 0.26382 0.0
H325 H 0.53677 0.10765 0.31279 0.0
H326 H 0.79673 0.07476 0.30624 0.0
C327 C 0.52369 0.202 0.30094 0.0
C328 C 0.58032 0.22059 0.29879 0.0
C329 C 0.71793 0.19924 0.30456 0.0
C330 C 0.66223 0.1811 0.30663 0.0
N331 N 0.56646 0.18266 0.30483 0.0
N332 N 0.6759 0.21845 0.30066 0.0
H333 H 0.44755 0.20275 0.29886 0.0
C334 C 0.91956 0.11943 0.29629 0.0
O335 O 0.88309 0.11075 0.26699 0.0
O336 O 0.36136 0.15398 0.31008 0.0
H337 H 0.69559 0.16575 0.3094 0.0
H338 H 0.44917 0.07377 0.30738 0.0
H339 H 0.79412 0.19809 0.3059 0.0
Zn340 Zn 0.51105 0.9157 0.06129 0.0
C341 C 0.34929 0.89763 0.1449 0.0
N342 N 0.42295 0.90453 0.16461 0.0
C343 C 0.48781 0.90873 0.13915 0.0
N344 N 0.45498 0.90482 0.10549 0.0
N345 N 0.36774 0.89761 0.10896 0.0
C346 C 0.09943 0.88079 0.05171 0.0
O347 O 0.13648 0.87176 1.02283 0.0
O348 O 0.65719 0.915 0.06407 0.0
Zn349 Zn 0.29773 0.88381 0.07 0.0
N350 N 0.45458 0.94393 0.05602 0.0
C351 C 0.30573 0.96168 0.05622 0.0
C352 C 0.35883 0.94316 0.05903 0.0
C353 C 0.49973 0.96276 0.04973 0.0
N354 N 0.35019 0.9804 0.05011 0.0
C355 C 0.44574 0.98168 0.04655 0.0
O356 O 0.31987 0.89504 1.01928 0.0
C357 C 0.39477 0.89657 1.00039 0.0
O358 O 0.47454 0.90037 1.0149 0.0
H359 H 0.32356 0.92818 0.06361 0.0
H360 H 0.57596 0.96296 0.04772 0.0
C361 C 0.30041 0.83632 0.06335 0.0
C362 C 0.35118 0.81694 0.06025 0.0
C363 C 0.49502 0.83604 0.0667 0.0
C364 C 0.44502 0.855 0.06925 0.0
N365 N 0.34899 0.85492 0.06787 0.0
N366 N 0.4472 0.81757 0.06216 0.0
H367 H 0.22425 0.83678 0.06119 0.0
C368 C 0.69621 0.89866 0.04969 0.0
O369 O 0.64202 0.88423 1.0344 0.0
O370 O 0.15425 0.88653 0.07729 0.0
H371 H 0.48301 0.8698 0.07163 0.0
H372 H 0.22961 0.96119 0.05877 0.0
H373 H 0.57141 0.83601 0.0678 0.0
Zn374 Zn 0.25289 0.90505 0.78109 0.0
C375 C 0.41344 0.88477 0.69951 0.0
N376 N 0.33986 0.89162 0.67976 0.0
C377 C 0.2751 0.89584 0.7052 0.0
N378 N 0.3074 0.89184 0.73878 0.0
N379 N 0.39485 0.88471 0.73546 0.0
C380 C 0.66509 0.86949 0.79288 0.0
O381 O 0.62882 0.86103 0.8223 0.0
O382 O 0.10655 0.90436 0.77828 0.0
Zn383 Zn 0.466 0.87171 0.77495 0.0
N384 N 0.31211 0.93312 0.7821 0.0
C385 C 0.46388 0.94953 0.78072 0.0
C386 C 0.40785 0.9314 0.78044 0.0
C387 C 0.26975 0.95259 0.78458 0.0
N388 N 0.42224 0.96887 0.78317 0.0
C389 C 0.32676 0.97115 0.78532 0.0
O390 O 0.44251 0.88407 0.82536 0.0
C391 C 0.36931 0.88854 0.84403 0.0
O392 O 0.29013 0.89255 0.82925 0.0
H393 H 0.44087 0.91594 0.77894 0.0
H394 H 0.19349 0.95351 0.78562 0.0
C395 C 0.46219 0.82379 0.77993 0.0
C396 C 0.40974 0.80467 0.78397 0.0
C397 C 0.26774 0.82484 0.78451 0.0
C398 C 0.31938 0.84349 0.7808 0.0
N399 N 0.41519 0.84278 0.77843 0.0
N400 N 0.31388 0.80599 0.78609 0.0
H401 H 0.53855 0.82371 0.77884 0.0
C402 C 0.06801 0.88832 0.7936 0.0
O403 O 0.12275 0.87446 0.80995 0.0
O404 O 0.60956 0.87451 0.76712 0.0
H405 H 0.28314 0.8586 0.78023 0.0
H406 H 0.54002 0.94827 0.77923 0.0
H407 H 0.19149 0.82532 0.78641 0.0
Zn408 Zn 0.50906 0.61604 0.51145 0.0
C409 C 0.69422 0.64715 0.44767 0.0
N410 N 0.62615 0.6458 0.42261 0.0
C411 C 0.55356 0.63767 0.44148 0.0
N412 N 0.57589 0.63409 0.47662 0.0
N413 N 0.66475 0.64022 0.48027 0.0
C414 C 0.90662 0.63296 0.53327 0.0
O415 O 0.85156 0.61805 0.54653 0.0
O416 O 0.36581 0.62162 0.50789 0.0
Zn417 Zn 0.72261 0.6505 0.52394 0.0
N418 N 0.54621 0.58654 0.49889 0.0
C419 C 0.64623 0.56464 0.46238 0.0
C420 C 0.61252 0.5846 0.47228 0.0
C421 C 0.51304 0.56889 0.51634 0.0
N422 N 0.61332 0.54716 0.47963 0.0
C423 C 0.54757 0.54848 0.50645 0.0
O424 O 0.68503 0.63569 0.5696 0.0
C425 C 0.61383 0.62665 0.5838 0.0
O426 O 0.54323 0.62058 0.56495 0.0
H427 H 0.64027 0.5984 0.4587 0.0
H428 H 0.46264 0.57085 0.5381 0.0
C429 C 0.70896 0.6977 0.53099 0.0
C430 C 0.65359 0.71626 0.53599 0.0
C431 C 0.51581 0.69477 0.53951 0.0
C432 C 0.57039 0.67663 0.53457 0.0
N433 N 0.66556 0.67833 0.53042 0.0
N434 N 0.55849 0.71406 0.54015 0.0
H435 H 0.78494 0.69846 0.52822 0.0
C436 C 0.31015 0.61512 0.5326 0.0
O437 O 0.34553 0.60414 0.55967 0.0
O438 O 0.86841 0.64985 0.52079 0.0
H439 H 0.53703 0.66114 0.53408 0.0
H440 H 0.69881 0.56302 0.44125 0.0
H441 H 0.44006 0.69358 0.54288 0.0
Zn442 Zn 0.5156 0.65286 0.8062 0.0
C443 C 0.70619 0.63328 0.88009 0.0
N444 N 0.64105 0.63877 0.90466 0.0
C445 C 0.56743 0.64435 0.8838 0.0
N446 N 0.5865 0.6425 0.84799 0.0
N447 N 0.67425 0.63541 0.84598 0.0
C448 C 0.91385 0.63632 0.79096 0.0
O449 O 0.85883 0.64887 0.77191 0.0
O450 O 0.37247 0.65069 0.81467 0.0
Zn451 Zn 0.72986 0.61983 0.80642 0.0
N452 N 0.56582 0.68152 0.79836 0.0
C453 C 0.71264 0.69909 0.78839 0.0
C454 C 0.66115 0.68061 0.79424 0.0
C455 C 0.51914 0.70055 0.79681 0.0
N456 N 0.66684 0.71798 0.78685 0.0
C457 C 0.57145 0.71953 0.79089 0.0
O458 O 0.69185 0.62893 0.75656 0.0
C459 C 0.61362 0.632 0.74048 0.0
O460 O 0.53934 0.63754 0.75771 0.0
H461 H 0.69703 0.66547 0.79548 0.0
H462 H 0.44313 0.70074 0.79966 0.0
C463 C 0.72041 0.57259 0.80591 0.0
C464 C 0.66794 0.55341 0.80721 0.0
C465 C 0.5281 0.57338 0.81769 0.0
C466 C 0.57948 0.59216 0.81548 0.0
N467 N 0.6746 0.59153 0.81019 0.0
N468 N 0.57326 0.55454 0.8134 0.0
H469 H 0.79592 0.57262 0.80146 0.0
C470 C 0.31662 0.655 0.78867 0.0
O471 O 0.35262 0.66235 0.75834 0.0
O472 O 0.87584 0.62128 0.8091 0.0
H473 H 0.5431 0.60722 0.81742 0.0
H474 H 0.78855 0.69845 0.78509 0.0
H475 H 0.45256 0.57374 0.82214 0.0
Zn476 Zn 0.46545 0.40116 0.56499 0.0
C477 C 0.28106 0.36939 0.62806 0.0
N478 N 0.34858 0.37118 0.65329 0.0
C479 C 0.42091 0.37948 0.63457 0.0
N480 N 0.39901 0.38272 0.59927 0.0
N481 N 0.31082 0.3761 0.59529 0.0
C482 C 0.06787 0.38338 0.53997 0.0
O483 O 0.12273 0.39792 0.52544 0.0
O484 O 0.60923 0.39538 0.56757 0.0
Zn485 Zn 0.25266 0.36581 0.55099 0.0
N486 N 0.4279 0.43058 0.57811 0.0
C487 C 0.3268 0.45219 0.61467 0.0
C488 C 0.36055 0.43229 0.60438 0.0
C489 C 0.4619 0.44836 0.56133 0.0
N490 N 0.36054 0.46981 0.59808 0.0
C491 C 0.42724 0.4687 0.57157 0.0
O492 O 0.29232 0.38054 0.50508 0.0
C493 C 0.36252 0.39055 0.49201 0.0
O494 O 0.42988 0.39721 0.51194 0.0
H495 H 0.33202 0.41836 0.61734 0.0
H496 H 0.51303 0.44656 0.53978 0.0
C497 C 0.26276 0.31844 0.54214 0.0
C498 C 0.31716 0.29969 0.53706 0.0
C499 C 0.45688 0.32069 0.53708 0.0
C500 C 0.40326 0.33898 0.54204 0.0
N501 N 0.30762 0.33762 0.54459 0.0
N502 N 0.41281 0.3016 0.53469 0.0
H503 H 0.18649 0.31798 0.54348 0.0
C504 C 0.66469 0.40213 0.54296 0.0
O505 O 0.62916 0.41356 0.51647 0.0
O506 O 0.10636 0.36682 0.55361 0.0
H507 H 0.43768 0.35433 0.54368 0.0
H508 H 0.27345 0.45363 0.63555 0.0
H509 H 0.53301 0.32162 0.53501 0.0
Zn510 Zn 0.29463 0.40449 0.26558 0.0
C511 C 0.48718 0.38082 0.19622 0.0
N512 N 0.42241 0.38509 0.17072 0.0
C513 C 0.3481 0.3916 0.19048 0.0
N514 N 0.3661 0.39133 0.22643 0.0
N515 N 0.45374 0.38439 0.22991 0.0
C516 C 0.69323 0.38905 0.28575 0.0
O517 O 0.63927 0.40332 0.3016 0.0
O518 O 0.15126 0.40164 0.25781 0.0
Zn519 Zn 0.50771 0.37254 0.27368 0.0
N520 N 0.34509 0.43332 0.26848 0.0
C521 C 0.49078 0.45214 0.2729 0.0
C522 C 0.44112 0.43317 0.26977 0.0
C523 C 0.29604 0.45197 0.27055 0.0
N524 N 0.44248 0.4707 0.27499 0.0
C525 C 0.34637 0.47137 0.27396 0.0
O526 O 0.47089 0.38708 0.32098 0.0
C527 C 0.39087 0.39087 0.33537 0.0
O528 O 0.31661 0.39306 0.31627 0.0
H529 H 0.47912 0.4183 0.26885 0.0
H530 H 0.21965 0.45158 0.27036 0.0
C531 C 0.4914 0.32516 0.28131 0.0
C532 C 0.43487 0.30658 0.28381 0.0
C533 C 0.29715 0.32786 0.27779 0.0
C534 C 0.35277 0.34599 0.27528 0.0
N535 N 0.44854 0.34447 0.2771 0.0
N536 N 0.33927 0.30869 0.282 0.0
H537 H 0.56756 0.32444 0.28328 0.0
C538 C 0.09636 0.40718 0.28349 0.0
O539 O 0.13338 0.41608 0.31249 0.0
O540 O 0.65391 0.3729 0.27092 0.0
H541 H 0.31935 0.3613 0.27204 0.0
H542 H 0.56718 0.45214 0.27395 0.0
H543 H 0.22095 0.32898 0.27644 0.0
C544 C 0.32696 0.26159 0.51659 0.0
C545 C 0.27531 0.27798 0.5338 0.0
H546 H 0.33149 0.22893 0.49971 0.0
C547 C 0.18669 0.27303 0.54869 0.0
H548 H 0.39545 0.26475 0.50467 0.0
C549 C 0.15034 0.25239 0.54594 0.0
C550 C 0.20168 0.23606 0.52852 0.0
H551 H 0.14562 0.2849 0.56303 0.0
H552 H 0.08173 0.2492 0.55776 0.0
C553 C 0.29067 0.2409 0.51395 0.0
C554 C 0.89317 1.00335 0.5434 0.0
C555 C 0.94621 0.98714 0.5602 0.0
H556 H 0.88833 0.0355 0.52475 0.0
C557 C 0.0377 0.99189 0.57245 0.0
H558 H 0.82256 1.00022 0.53337 0.0
C559 C 0.07512 1.01233 0.56785 0.0
C560 C 0.02212 0.02854 0.55097 0.0
H561 H 0.07994 0.98002 0.5862 0.0
H562 H 0.14582 0.01543 0.5778 0.0
C563 C 0.93063 0.02374 0.53872 0.0
C564 C 0.17108 0.01804 0.81169 0.0
C565 C 0.22409 0.03544 0.79874 0.0
H566 H 0.16108 0.98428 0.81811 0.0
C567 C 0.30943 0.03138 0.78062 0.0
H568 H 0.10504 0.02056 0.82592 0.0
C569 C 0.34105 1.01047 0.7758 0.0
C570 C 0.28811 0.99307 0.7888 0.0
H571 H 0.35108 0.04424 0.76942 0.0
H572 H 0.40714 1.00795 0.7616 0.0
C573 C 0.2027 0.99713 0.80687 0.0
C574 C 0.96119 0.24788 0.81081 0.0
C575 C 0.05139 0.24361 0.79676 0.0
H576 H 0.85088 0.27073 0.81788 0.0
C577 C 0.0997 0.26 0.77842 0.0
H578 H 0.9226 0.23592 0.82582 0.0
C579 C 0.05888 0.2801 0.77406 0.0
C580 C 0.96869 0.28438 0.78813 0.0
H581 H 0.1692 0.25725 0.76701 0.0
H582 H 0.09749 0.29204 0.759 0.0
C583 C 0.92038 0.26799 0.80648 0.0
C584 C 0.81446 0.76393 0.52103 0.0
C585 C 0.76626 0.78009 0.54009 0.0
H586 H 0.81716 0.73136 0.50408 0.0
C587 C 0.68098 0.77505 0.55748 0.0
H588 H 0.88018 0.7673 0.50712 0.0
C589 C 0.64538 0.75431 0.55609 0.0
C590 C 0.6942 0.73807 0.53743 0.0
H591 H 0.64297 0.78689 0.57312 0.0
H592 H 0.58003 0.75095 0.57025 0.0
C593 C 0.7788 0.74319 0.51959 0.0
C594 C 0.70762 0.99681 0.27714 0.0
C595 C 0.7987 0.99269 0.29046 0.0
H596 H 0.59707 0.0196 0.27027 0.0
C597 C 0.84829 1.0094 0.30767 0.0
H598 H 0.66785 0.98463 0.26299 0.0
C599 C 0.80798 0.02962 0.31161 0.0
C600 C 0.7169 0.03373 0.2983 0.0
H601 H 0.9185 1.00683 0.3185 0.0
H602 H 0.84774 0.0418 0.32576 0.0
C603 C 0.66729 0.01703 0.28109 0.0
C604 C 0.91903 0.76592 0.28166 0.0
C605 C 0.97033 0.78369 0.29441 0.0
H606 H 0.91079 0.73202 0.27669 0.0
C607 C 0.05352 0.78014 0.31419 0.0
H608 H 0.85454 0.76803 0.26627 0.0
C609 C 0.08509 0.75939 0.3206 0.0
C610 C 0.03439 0.74161 0.30751 0.0
H611 H 0.09362 0.7933 0.32534 0.0
H612 H 0.14976 0.75729 0.33589 0.0
C613 C 0.95069 0.74515 0.28802 0.0
C614 C 0.17348 0.77146 0.06071 0.0
C615 C 0.22466 0.75508 0.04332 0.0
H616 H 0.17234 0.80359 0.08022 0.0
C617 C 0.31672 0.75942 1.03127 0.0
H618 H 0.10243 0.76868 0.07053 0.0
C619 C 0.35651 0.77956 1.03662 0.0
C620 C 0.30533 0.79595 0.05396 0.0
H621 H 0.35767 0.74751 1.01696 0.0
H622 H 0.42748 0.78234 1.0267 0.0
C623 C 0.21328 0.79162 0.06604 0.0
C624 C 0.10287 0.53114 0.04491 0.0
C625 C 0.04719 0.54705 1.02844 0.0
H626 H 0.1137 0.49879 0.06235 0.0
C627 C 0.95692 0.54152 1.01579 0.0
H628 H 0.17266 0.5348 0.05526 0.0
C629 C 0.92341 0.52066 1.0196 0.0
C630 C 0.97921 0.50475 1.03603 0.0
H631 H 0.91263 0.55309 1.00226 0.0
H632 H 0.85357 0.51699 1.00933 0.0
C633 C 0.06939 0.51031 0.04873 0.0
C634 C 0.17159 0.51685 0.26296 0.0
C635 C 0.21815 0.53359 0.28122 0.0
H636 H 0.17483 0.48426 0.24586 0.0
C637 C 0.30587 0.52946 0.29753 0.0
H638 H 0.10398 0.51945 0.24994 0.0
C639 C 0.34614 0.50918 0.29536 0.0
C640 C 0.29962 0.49246 0.27709 0.0
H641 H 0.34291 0.54166 0.31267 0.0
H642 H 0.41372 0.50656 0.3084 0.0
C643 C 0.21181 0.49654 0.26086 0.0
C644 C 0.86673 0.27896 1.03439 0.0
C645 C 0.81506 0.29528 0.05172 0.0
H646 H 0.87201 0.24641 1.01745 0.0
C647 C 0.7264 0.29033 0.06651 0.0
H648 H 0.9351 0.2822 1.02241 0.0
C649 C 0.69058 0.2696 0.06399 0.0
C650 C 0.74241 0.25326 0.04673 0.0
H651 H 0.68536 0.30228 0.08072 0.0
H652 H 0.62216 0.26636 0.07593 0.0
C653 C 0.83089 0.25827 1.03182 0.0
C654 C 0.66517 0.51383 0.81497 0.0
C655 C 0.71036 0.53206 0.80103 0.0
H656 H 0.6648 0.47988 0.81973 0.0
C657 C 0.79135 0.52936 0.77951 0.0
H658 H 0.60265 0.51529 0.83174 0.0
C659 C 0.82646 0.50898 0.77239 0.0
C660 C 0.78124 0.49077 0.78631 0.0
H661 H 0.82674 0.54285 0.76739 0.0
H662 H 0.88898 0.50749 0.75562 0.0
C663 C 0.70018 0.49344 0.80776 0.0
C664 C 0.60739 0.02546 1.01176 0.0
C665 C 0.56072 0.044 1.02395 0.0
H666 H 0.60864 0.99141 1.00892 0.0
C667 C 0.47667 0.04172 0.04381 0.0
H668 H 0.67215 0.02655 0.99623 0.0
C669 C 0.44066 0.02146 0.05131 0.0
C670 C 0.48794 1.00295 1.03944 0.0
H671 H 0.43969 0.05545 0.05452 0.0
H672 H 0.37603 0.02032 0.06692 0.0
C673 C 0.57155 1.00521 1.01938 0.0
C674 C 0.4512 0.24788 0.30742 0.0
C675 C 0.54109 0.24239 0.29434 0.0
H676 H 0.34862 0.27245 0.31494 0.0
C677 C 0.59712 0.25838 0.27834 0.0
H678 H 0.40684 0.23623 0.3207 0.0
C679 C 0.56412 0.27929 0.27531 0.0
C680 C 0.47421 0.28479 0.28837 0.0
H681 H 0.66669 0.25472 0.26778 0.0
H682 H 0.60847 0.29093 0.26199 0.0
C683 C 0.41821 0.2688 0.30439 0.0
C684 C 0.54024 0.77841 0.76981 0.0
C685 C 0.45355 0.78315 0.78645 0.0
H686 H 0.64372 0.75469 0.7576 0.0
C687 C 0.40477 0.76661 0.80429 0.0
H688 H 0.579 0.79048 0.75512 0.0
C689 C 0.44153 0.74593 0.80555 0.0
C690 C 0.52808 0.74115 0.78878 0.0
H691 H 0.33793 0.76967 0.81764 0.0
H692 H 0.40265 0.73392 0.8203 0.0
C693 C 0.57693 0.75772 0.771 0.0
C694 C 0.427 0.5263 0.54003 0.0
C695 C 0.51672 0.52836 0.52418 0.0
H696 H 0.32851 0.50587 0.56671 0.0
C697 C 0.57693 0.51046 0.52369 0.0
H698 H 0.37763 0.53946 0.54026 0.0
C699 C 0.54846 0.49103 0.53863 0.0
C700 C 0.45861 0.48894 0.55436 0.0
H701 H 0.64691 0.51145 0.51192 0.0
H702 H 0.59783 0.47787 0.53836 0.0
C703 C 0.39853 0.50687 0.55498 0.0
C704 C 0.04496 0.13798 0.65005 0.0
C705 C 0.12735 0.13709 0.62874 0.0
H706 H 0.98592 0.13979 0.70342 0.0
C707 C 0.21571 0.13771 0.64614 0.0
H708 H 0.97571 0.13766 0.63756 0.0
C709 C 0.22153 0.1388 0.68395 0.0
C710 C 0.13916 0.1395 0.70528 0.0
H711 H 0.28061 0.13707 0.63061 0.0
H712 H 0.29081 0.13905 0.69643 0.0
C713 C 0.0508 0.13928 0.68785 0.0
C714 C 0.79693 0.88945 0.40047 0.0
C715 C 0.88553 0.88907 0.38322 0.0
H716 H 0.72107 0.88899 0.45066 0.0
C717 C 0.96757 0.88853 0.40474 0.0
H718 H 0.73228 0.88986 0.38477 0.0
C719 C 0.96116 0.88819 0.44257 0.0
C720 C 0.87253 0.88817 0.45981 0.0
H721 H 0.03701 0.88834 0.39239 0.0
H722 H 0.02581 0.88763 0.45826 0.0
C723 C 0.7905 0.8889 0.4383 0.0
C724 C 0.19818 0.64752 0.14338 0.0
C725 C 0.11362 0.64821 0.12344 0.0
H726 H 0.2634 0.64499 0.19535 0.0
C727 C 0.02715 0.64718 0.14223 0.0
H728 H 0.26611 0.64824 0.1299 0.0
C729 C 0.02557 0.64545 0.18012 0.0
C730 C 0.11042 0.64446 0.19991 0.0
H731 H 0.96068 0.64773 0.1277 0.0
H732 H 0.95799 0.64458 0.19382 0.0
C733 C 0.1966 0.64559 0.18104 0.0
C734 C 0.97381 0.39471 0.93105 0.0
C735 C 0.89088 0.39485 0.95212 0.0
H736 H 0.03431 0.39241 0.87791 0.0
C737 C 0.8033 0.39252 0.93458 0.0
H738 H 0.04255 0.39634 0.94367 0.0
C739 C 0.79861 0.39037 0.89691 0.0
C740 C 0.88142 0.3903 0.87579 0.0
H741 H 0.738 0.39254 0.94991 0.0
H742 H 0.72976 0.38875 0.88435 0.0
C743 C 0.96916 0.39236 0.89333 0.0
C744 C 0.72627 0.14169 0.15009 0.0
C745 C 0.64417 0.14186 0.12857 0.0
H746 H 0.78456 0.13992 0.20359 0.0
C747 C 0.55579 0.13987 0.14564 0.0
H748 H 0.79553 0.14307 0.13781 0.0
C749 C 0.54949 0.13822 0.18335 0.0
C750 C 0.63146 0.13827 0.20491 0.0
H751 H 0.4911 0.13992 0.12994 0.0
H752 H 0.48014 0.13697 0.19559 0.0
C753 C 0.72001 0.1398 0.18781 0.0
C754 C 0.47093 0.89235 0.93919 0.0
C755 C 0.38866 0.8941 0.96043 0.0
H756 H 0.52957 0.88899 0.88591 0.0
C757 C 0.30025 0.89344 0.94309 0.0
H758 H 0.5402 0.89267 0.95167 0.0
C759 C 0.29421 0.89143 0.90542 0.0
C760 C 0.37639 0.88983 0.88412 0.0
H761 H 0.23542 0.8947 0.95856 0.0
H762 H 0.22484 0.89118 0.89301 0.0
C763 C 0.46485 0.89014 0.90148 0.0
C764 C 0.5254 0.62651 0.64314 0.0
C765 C 0.61116 0.62543 0.62391 0.0
H766 H 0.45844 0.62984 0.69517 0.0
C767 C 0.69636 0.62558 0.64342 0.0
H768 H 0.45861 0.62664 0.62879 0.0
C769 C 0.69634 0.62734 0.6811 0.0
C770 C 0.61107 0.62926 0.70045 0.0
H771 H 0.76363 0.62476 0.62944 0.0
H772 H 0.76381 0.62771 0.69497 0.0
C773 C 0.52537 0.62856 0.68109 0.0
C774 C 0.46432 0.39488 0.3971 0.0
C775 C 0.38332 0.39216 0.37545 0.0
H776 H 0.52116 0.39696 0.45088 0.0
C777 C 0.29488 0.39033 0.39254 0.0
H778 H 0.53344 0.39651 0.3848 0.0
C779 C 0.28799 0.39041 0.43036 0.0
C780 C 0.36914 0.39268 0.45204 0.0
H781 H 0.23101 0.38827 0.37673 0.0
H782 H 0.21902 0.38841 0.44264 0.0
C783 C 0.45722 0.39531 0.43498 0.0
C784 C 0.37376 0.12956 0.381 0.0
C785 C 0.42969 0.14646 0.39331 0.0
H786 H 0.24718 0.1117 0.38814 0.0
C787 C 0.39684 0.15966 0.42141 0.0
H788 H 0.39965 0.11865 0.36045 0.0
C789 C 0.30934 0.15558 0.43758 0.0
C790 C 0.25658 0.13781 0.42667 0.0
H791 H 0.44048 0.17249 0.43179 0.0
H792 H 0.28418 0.16594 0.45902 0.0
C793 C 0.2876 0.12535 0.39737 0.0
C794 C 0.87366 0.13754 0.45274 0.0
C795 C 0.92986 0.12067 0.44049 0.0
H796 H 0.74668 0.15526 0.44571 0.0
C797 C 0.89792 0.10768 0.41193 0.0
H798 H 0.89917 0.14846 0.47334 0.0
C799 C 0.81087 0.11184 0.39545 0.0
C800 C 0.75714 0.12937 0.40682 0.0
H801 H 0.94201 0.09497 0.40142 0.0
H802 H 0.78665 0.10172 0.37353 0.0
C803 C 0.78757 0.14171 0.43632 0.0
C804 C 0.39522 0.15008 0.88107 0.0
C805 C 0.34009 0.1332 0.89384 0.0
H806 H 0.52118 0.1683 0.8877 0.0
C807 C 0.37393 0.12034 0.92204 0.0
H808 H 0.36863 0.16071 0.86034 0.0
C809 C 0.46145 0.12476 0.93793 0.0
C810 C 0.51329 0.14257 0.92671 0.0
H811 H 0.33104 0.10751 0.93271 0.0
H812 H 0.48719 0.11465 0.95943 0.0
C813 C 0.48145 0.15465 0.89723 0.0
C814 C 0.95903 0.16766 0.89514 0.0
C815 C 0.01223 0.15022 0.90709 0.0
H816 H 0.82866 0.18492 0.90066 0.0
C817 C 0.98133 0.13837 0.93695 0.0
H818 H 0.98348 0.17738 0.87286 0.0
C819 C 0.89533 0.14294 0.95321 0.0
C820 C 0.83977 0.15977 0.94054 0.0
H821 H 0.02175 0.12489 0.94674 0.0
H822 H 0.86941 0.13233 0.97405 0.0
C823 C 0.87223 0.17226 0.91155 0.0
C824 C 0.53302 0.89196 0.65314 0.0
C825 C 0.5031 0.87935 0.68226 0.0
H826 H 0.644 0.89912 0.6162 0.0
C827 C 0.55743 0.86184 0.69309 0.0
H828 H 0.49169 0.90551 0.64421 0.0
C829 C 0.64439 0.85791 0.67633 0.0
C830 C 0.67565 0.87112 0.64808 0.0
H831 H 0.53365 0.85155 0.71474 0.0
H832 H 0.68891 0.84518 0.68637 0.0
C833 C 0.61899 0.88802 0.63647 0.0
C834 C 0.14304 0.90972 0.6679 0.0
C835 C 0.17541 0.89633 0.69567 0.0
H836 H 0.03043 0.9164 0.63054 0.0
C837 C 0.11894 0.87949 0.70763 0.0
H838 H 0.18705 0.92254 0.65788 0.0
C839 C 0.03288 0.87544 0.69105 0.0
C840 C 1.00235 0.88807 0.66201 0.0
H841 H 0.14434 0.86849 0.72803 0.0
H842 H 0.99209 0.8618 0.69994 0.0
C843 C 0.05544 0.90586 0.65163 0.0
C844 C 0.6206 0.92082 0.17803 0.0
C845 C 0.58773 0.90854 0.14874 0.0
H846 H 0.73237 0.92567 0.21658 0.0
C847 C 0.6433 0.89188 0.13524 0.0
H848 H 0.57709 0.93335 0.18949 0.0
C849 C 0.72956 0.88718 0.15118 0.0
C850 C 0.7607 0.89876 0.18146 0.0
H851 H 0.61709 0.88148 0.11401 0.0
H852 H 0.76987 0.87379 0.14085 0.0
C853 C 0.7077 0.91612 0.19404 0.0
C854 C 0.20862 0.87355 0.14982 0.0
C855 C 0.261 0.89106 0.16219 0.0
H856 H 0.078 0.8563 0.15416 0.0
C857 C 0.22958 0.90262 0.19245 0.0
H858 H 0.23388 0.86388 0.12752 0.0
C859 C 0.14332 0.89786 0.20838 0.0
C860 C 0.08784 0.88123 0.19471 0.0
H861 H 0.26963 0.91606 0.20277 0.0
H862 H 0.11697 0.9082 0.22969 0.0
C863 C 0.12124 0.86888 0.16562 0.0
C864 C 0.36212 0.64424 0.94727 0.0
C865 C 0.30555 0.66057 0.93347 0.0
H866 H 0.48909 0.62633 0.94177 0.0
C867 C 0.33647 0.67227 0.90328 0.0
H868 H 0.33728 0.63419 0.96911 0.0
C869 C 0.42303 0.66742 0.88688 0.0
C870 C 0.47741 0.6505 0.90009 0.0
H871 H 0.29196 0.68449 0.89155 0.0
H872 H 0.44657 0.67658 0.86376 0.0
C873 C 0.44774 0.6394 0.93099 0.0
C874 C 0.94817 0.6544 0.89165 0.0
C875 C 0.97913 0.64299 0.92204 0.0
H876 H 0.83641 0.65972 0.85399 0.0
C877 C 0.92644 0.62561 0.93451 0.0
H878 H 0.98871 0.66766 0.88111 0.0
C879 C 0.8386 0.62109 0.91894 0.0
C880 C 0.80581 0.63333 0.88974 0.0
H881 H 0.95196 0.61592 0.95666 0.0
H882 H 0.79486 0.60867 0.93047 0.0
C883 C 0.86202 0.64964 0.87569 0.0
C884 C 0.43311 0.64617 0.39583 0.0
C885 C 0.46412 0.63261 0.42352 0.0
H886 H 0.32222 0.65394 0.35911 0.0
C887 C 0.41172 0.61433 0.43184 0.0
H888 H 0.47304 0.66027 0.38854 0.0
C889 C 0.32556 0.61056 0.41457 0.0
C890 C 0.29316 0.62467 0.38796 0.0
H891 H 0.436 0.60318 0.4519 0.0
H892 H 0.28266 0.59713 0.4229 0.0
C893 C 0.34797 0.64232 0.3784 0.0
C894 C 0.8251 0.66148 0.4099 0.0
C895 C 0.79309 0.64726 0.43656 0.0
H896 H 0.93693 0.6692 0.37268 0.0
C897 C 0.84879 0.62976 0.44616 0.0
H898 H 0.78173 0.67484 0.40164 0.0
C899 C 0.934 0.62611 0.42871 0.0
C900 C 0.96462 0.63974 0.40106 0.0
H901 H 0.82368 0.6181 0.46552 0.0
H902 H 0.9745 0.6121 0.43604 0.0
C903 C 0.91185 0.65795 0.39268 0.0
C904 C 0.64246 0.39786 0.20037 0.0
C905 C 0.58733 0.38113 0.18681 0.0
H906 H 0.76831 0.41622 0.19461 0.0
C907 C 0.62092 0.36884 0.15766 0.0
H908 H 0.61596 0.40817 0.22168 0.0
C909 C 0.70803 0.37364 0.14173 0.0
C910 C 0.76012 0.39121 0.15403 0.0
H911 H 0.578 0.35619 0.14626 0.0
H912 H 0.73335 0.364 0.11941 0.0
C913 C 0.72852 0.40274 0.18433 0.0
C914 C 0.14199 0.3917 0.12701 0.0
C915 C 0.08714 0.40847 0.14062 0.0
H916 H 0.26779 0.37329 0.13259 0.0
C917 C 0.12076 0.42066 0.16986 0.0
H918 H 0.11534 0.38143 0.10569 0.0
C919 C 0.20772 0.41575 0.18578 0.0
C920 C 0.25976 0.39822 0.17327 0.0
H921 H 0.07796 0.43331 0.18135 0.0
H922 H 0.23299 0.42527 0.20824 0.0
C923 C 0.22808 0.38676 0.14295 0.0
C924 C 0.62537 0.37656 0.69886 0.0
C925 C 0.68149 0.39358 0.68731 0.0
H926 H 0.49916 0.35868 0.6904 0.0
C927 C 0.64934 0.40702 0.65974 0.0
H928 H 0.65076 0.36555 0.71924 0.0
C929 C 0.56265 0.40304 0.64309 0.0
C930 C 0.5095 0.38513 0.65283 0.0
H931 H 0.69304 0.41999 0.65006 0.0
H932 H 0.53899 0.41369 0.62225 0.0
C933 C 0.53975 0.37242 0.68184 0.0
C934 C 0.03929 0.39011 0.6446 0.0
C935 C 0.01062 0.37773 0.6742 0.0
H936 H 0.14869 0.39704 0.60682 0.0
C937 C 0.06579 0.36041 0.68522 0.0
H938 H 0.99723 0.40351 0.6355 0.0
C939 C 0.15206 0.35635 0.668 0.0
C940 C 0.18208 0.36931 0.63918 0.0
H941 H 0.04293 0.35027 0.70725 0.0
H942 H 0.19698 0.3437 0.67804 0.0
C943 C 0.12472 0.38609 0.62753 0.0
C944 C 0.55897 0.13176 0.51156 0.0
C945 C 0.51972 0.14695 0.53548 0.0
H946 H 0.68431 0.11503 0.49438 0.0
C947 C 0.57982 0.15724 0.56024 0.0
H948 H 0.51456 0.1235 0.49217 0.0
C949 C 0.67622 0.15256 0.56125 0.0
C950 C 0.71573 0.13721 0.53789 0.0
H951 H 0.55241 0.16902 0.57903 0.0
H952 H 0.71984 0.16096 0.58076 0.0
C953 C 0.65598 0.12678 0.513 0.0
C954 C 0.5894 0.15804 0.77183 0.0
C955 C 0.54996 0.14377 0.79697 0.0
H956 H 0.71307 0.17366 0.75208 0.0
C957 C 0.60984 0.13446 0.82297 0.0
H958 H 0.54566 0.16556 0.75144 0.0
C959 C 0.70692 0.13948 0.82375 0.0
C960 C 0.74606 0.15358 0.79809 0.0
H961 H 0.58151 0.12359 0.84296 0.0
H962 H 0.75144 0.1321 0.84403 0.0
C963 C 0.6858 0.16274 0.77222 0.0
C964 C 0.42091 0.90423 0.5278 0.0
C965 C 0.46042 0.88884 0.55091 0.0
H966 H 0.29698 0.92064 0.51017 0.0
C967 C 0.40062 0.87828 0.5755 0.0
H968 H 0.4646 0.91272 0.50853 0.0
C969 C 0.30353 0.88318 0.57691 0.0
C970 C 0.26427 0.89841 0.55325 0.0
H971 H 0.42895 0.86648 0.5939 0.0
H972 H 0.25908 0.87482 0.59608 0.0
C973 C 0.32442 0.90883 0.52877 0.0
C974 C 0.45419 0.88755 0.26508 0.0
C975 C 0.49342 0.90177 0.29068 0.0
H976 H 0.32879 0.87149 0.24607 0.0
C977 C 0.43333 0.91092 0.31672 0.0
H978 H 0.49857 0.88017 0.24468 0.0
C979 C 0.33703 0.90612 0.3173 0.0
C980 C 0.29746 0.89177 0.29218 0.0
H981 H 0.46065 0.92192 0.33684 0.0
H982 H 0.29345 0.91366 0.3378 0.0
C983 C 0.35719 0.88243 0.26605 0.0
C984 C 0.65778 0.62689 0.05723 0.0
C985 C 0.71793 0.63626 1.03155 0.0
H986 H 0.51778 0.62399 0.07812 0.0
C987 C 0.67874 0.65059 1.00629 0.0
H988 H 0.68514 0.61579 0.07708 0.0
C989 C 0.58178 0.65566 1.00728 0.0
C990 C 0.522 0.64617 1.03312 0.0
H991 H 0.72317 0.65814 0.98616 0.0
H992 H 0.55355 0.66676 0.98764 0.0
C993 C 0.56142 0.63165 0.05785 0.0
C994 C 0.5716 0.63305 0.3169 0.0
C995 C 0.51104 0.64361 0.2926 0.0
H996 H 0.7138 0.62954 0.33673 0.0
C997 C 0.54972 0.65905 0.26935 0.0
H998 H 0.54386 0.62125 0.33543 0.0
C999 C 0.64624 0.66364 0.26983 0.0
C1000 C 0.70721 0.65316 0.29393 0.0
H1001 H 0.50539 0.66753 0.2503 0.0
H1002 H 0.67305 0.67545 0.25112 0.0
C1003 C 0.66873 0.63793 0.3178 0.0
C1004 C 0.33851 0.38101 1.01845 0.0
C1005 C 0.29922 0.39578 0.04293 0.0
H1006 H 0.46184 0.36479 0.9996 0.0
C1007 C 0.35912 0.40543 0.06866 0.0
H1008 H 0.2948 0.37321 0.99828 0.0
C1009 C 0.45601 0.40025 0.06983 0.0
C1010 C 0.49501 0.38561 0.04486 0.0
H1011 H 0.33095 0.41671 0.08816 0.0
H1012 H 0.50051 0.4079 0.08991 0.0
C1013 C 0.43473 0.37612 1.01924 0.0
C1014 C 0.41097 0.39182 0.75789 0.0
C1015 C 0.47036 0.38276 0.78429 0.0
H1016 H 0.26948 0.39424 0.7368 0.0
C1017 C 0.43038 0.36898 0.81008 0.0
H1018 H 0.43976 0.40232 0.73743 0.0
C1019 C 0.33377 0.36454 0.80996 0.0
C1020 C 0.27398 0.37348 0.78372 0.0
H1021 H 0.47381 0.36168 0.8308 0.0
H1022 H 0.30594 0.35403 0.83061 0.0
C1023 C 0.3137 0.38705 0.75738 0.0
C1024 C 0.11361 0.15437 1.01315 0.0
C1025 C 0.05339 0.14381 1.03759 0.0
H1026 H 0.25531 0.15767 0.99262 0.0
C1027 C 0.0924 0.12824 0.0605 0.0
H1028 H 0.08567 0.16628 0.99487 0.0
C1029 C 0.18874 0.12347 0.05946 0.0
C1030 C 0.24933 0.13389 1.03513 0.0
H1031 H 0.0484 0.11974 0.07965 0.0
H1032 H 0.21569 0.1115 0.07788 0.0
C1033 C 0.21058 0.14931 1.0117 0.0
C1034 C 0.06194 0.13848 0.32295 0.0
C1035 C 0.02283 0.12398 0.29778 0.0
H1036 H 0.18726 0.1547 0.34159 0.0
C1037 C 0.08313 0.11442 0.27223 0.0
H1038 H 0.01738 0.14617 0.34296 0.0
C1039 C 0.17953 0.11913 0.27169 0.0
C1040 C 0.21892 0.13379 0.29633 0.0
H1041 H 0.05587 0.10319 0.25247 0.0
H1042 H 0.22329 0.11129 0.25157 0.0
C1043 C 0.159 0.1435 0.32199 0.0
C1044 C 0.85945 0.90489 0.07629 0.0
C1045 C 0.80003 0.89489 0.0508 0.0
H1046 H 1.00071 0.90787 0.09743 0.0
C1047 C 0.83991 0.88005 1.02659 0.0
H1048 H 0.83078 0.91624 0.09555 0.0
C1049 C 0.93636 0.87543 1.02743 0.0
C1050 C 0.99613 0.88527 0.05283 0.0
H1051 H 0.79651 0.872 1.0066 0.0
H1052 H 0.96406 0.86405 1.008 0.0
C1053 C 0.95653 0.89996 0.07754 0.0
C1054 C 0.92499 0.86994 0.81773 0.0
C1055 C 0.96421 0.88431 0.79271 0.0
H1056 H 0.80166 0.85409 0.83729 0.0
C1057 C 0.90416 0.89358 0.76672 0.0
H1058 H 0.96879 0.86244 0.83813 0.0
C1059 C 0.80721 0.8884 0.76582 0.0
C1060 C 0.76831 0.87419 0.79135 0.0
H1061 H 0.93224 0.90455 0.74683 0.0
H1062 H 0.76259 0.89576 0.74554 0.0
C1063 C 0.82872 0.86508 0.81722 0.0
C1064 C 0.0711 0.63987 0.50844 0.0
C1065 C 0.0106 0.62936 0.53284 0.0
H1066 H 0.21329 0.64331 0.48846 0.0
C1067 C 0.04965 0.61426 0.55659 0.0
H1068 H 0.04307 0.65144 0.48955 0.0
C1069 C 0.14629 0.60978 0.55626 0.0
C1070 C 0.20713 0.62004 0.5318 0.0
H1071 H 0.00537 0.60586 0.57578 0.0
H1072 H 0.17316 0.5981 0.5752 0.0
C1073 C 0.16841 0.63511 0.50769 0.0
C1074 C 0.07763 0.63251 0.81844 0.0
C1075 C 0.01744 0.64056 0.79134 0.0
H1076 H 0.21937 0.63118 0.83958 0.0
C1077 C 0.05643 0.65375 0.76445 0.0
H1078 H 0.04972 0.62249 0.83976 0.0
C1079 C 0.15275 0.65856 0.76417 0.0
C1080 C 0.21336 0.65057 0.79103 0.0
H1081 H 0.0125 0.6603 0.74318 0.0
H1082 H 0.17971 0.66858 0.74266 0.0
C1083 C 0.17461 0.63763 0.81847 0.0
C1084 C 0.90377 0.37678 0.56565 0.0
C1085 C 0.96389 0.38718 0.54096 0.0
H1086 H 0.76217 0.37362 0.58639 0.0
C1087 C 0.92448 0.40241 0.51749 0.0
H1088 H 0.93195 0.36511 0.58432 0.0
C1089 C 0.82804 0.40711 0.51842 0.0
C1090 C 0.76762 0.39696 0.54316 0.0
H1091 H 0.96833 0.41075 0.49809 0.0
H1092 H 0.801 0.41889 0.49969 0.0
C1093 C 0.80666 0.38176 0.56696 0.0
C1094 C 0.93352 0.41212 0.30826 0.0
C1095 C 0.99308 0.40261 0.28241 0.0
H1096 H 0.79398 0.41521 0.32951 0.0
C1097 C 0.95329 0.38817 0.25732 0.0
H1098 H 0.96131 0.4233 0.32799 0.0
C1099 C 0.85624 0.38316 0.25861 0.0
C1100 C 0.79707 0.39283 0.28457 0.0
H1101 H 0.99727 0.38051 0.23707 0.0
H1102 H 0.82739 0.37204 0.23902 0.0
C1103 C 0.83716 0.40742 0.30916 0.0
loop_
_geom_bond_atom_site_label_1
_geom_bond_atom_site_label_2
_geom_bond_distance
_geom_bond_site_symmetry_2
_ccdc_geom_bond_type
Zn0 N4 2.020 1_655 S
Zn0 O8 2.019 . S
Zn0 N10 2.119 1_655 S
Zn0 O18 1.975 1_655 S
C1 N2 1.334 . S
C1 N5 1.336 . S
N2 C1 1.334 . S
N2 C3 1.334 . S
C3 N2 1.334 . S
C3 N4 1.336 . S
N4 Zn0 2.020 1_455 S
N4 C3 1.336 . S
N4 N5 1.354 . S
N5 C1 1.336 . S
N5 N4 1.354 . S
N5 Zn9 2.020 . S
C6 O7 1.244 . S
C6 O30 1.257 . S
O7 C6 1.244 . S
O8 Zn0 2.019 . S
O8 C28 1.257 . S
Zn9 N5 2.020 . S
Zn9 O16 1.975 . S
Zn9 N25 2.119 . S
Zn9 O30 2.019 . S
N10 Zn0 2.119 1_455 S
N10 C12 1.334 . S
N10 C13 1.328 1_455 S
C11 C12 1.391 . S
C11 N14 1.329 . S
C11 H32 0.930 . S
C12 N10 1.334 . S
C12 C11 1.391 . S
C12 H19 0.930 . S
C13 N10 1.328 1_655 S
C13 C15 1.392 . S
C13 H20 0.930 . S
N14 C11 1.329 . S
N14 C15 1.331 1_455 S
C15 C13 1.392 . S
C15 N14 1.331 1_655 S
O16 Zn9 1.975 . S
O16 C17 1.252 . S
C17 O16 1.252 . S
C17 O18 1.252 . S
O18 Zn0 1.975 1_455 S
O18 C17 1.252 . S
H19 C12 0.930 . S
H20 C13 0.930 . S
C21 C22 1.392 . S
C21 N25 1.328 . S
C21 H27 0.930 . S
C22 C21 1.392 . S
C22 N26 1.331 . S
C23 C24 1.391 . S
C23 N26 1.329 . S
C23 H33 0.930 . S
C24 C23 1.391 . S
C24 N25 1.334 . S
C24 H31 0.930 . S
N25 Zn9 2.119 . S
N25 C21 1.328 . S
N25 C24 1.334 . S
N26 C22 1.331 . S
N26 C23 1.329 . S
H27 C21 0.930 . S
C28 O8 1.257 . S
C28 O29 1.244 . S
O29 C28 1.244 . S
O30 C6 1.257 . S
O30 Zn9 2.019 . S
H31 C24 0.930 . S
H32 C11 0.930 . S
H33 C23 0.930 . S
Zn34 N38 2.020 1_655 S
Zn34 O42 2.019 . S
Zn34 N44 2.119 1_655 S
Zn34 O52 1.975 1_655 S
C35 N36 1.334 . S
C35 N39 1.336 . S
N36 C35 1.334 . S
N36 C37 1.334 . S
C37 N36 1.334 . S
C37 N38 1.336 . S
N38 Zn34 2.020 1_455 S
N38 C37 1.336 . S
N38 N39 1.354 . S
N39 C35 1.336 . S
N39 N38 1.354 . S
N39 Zn43 2.020 . S
C40 O41 1.244 . S
C40 O64 1.257 . S
O41 C40 1.244 . S
O42 Zn34 2.019 . S
O42 C62 1.257 . S
Zn43 N39 2.020 . S
Zn43 O50 1.975 . S
Zn43 N59 2.119 . S
Zn43 O64 2.019 . S
N44 Zn34 2.119 1_455 S
N44 C46 1.334 . S
N44 C47 1.328 1_455 S
C45 C46 1.391 . S
C45 N48 1.329 . S
C45 H66 0.930 . S
C46 N44 1.334 . S
C46 C45 1.391 . S
C46 H53 0.930 . S
C47 N44 1.328 1_655 S
C47 C49 1.392 . S
C47 H54 0.930 . S
N48 C45 1.329 . S
N48 C49 1.331 1_455 S
C49 C47 1.392 . S
C49 N48 1.331 1_655 S
O50 Zn43 1.975 . S
O50 C51 1.252 . S
C51 O50 1.252 . S
C51 O52 1.252 . S
O52 Zn34 1.975 1_455 S
O52 C51 1.252 . S
H53 C46 0.930 . S
H54 C47 0.930 . S
C55 C56 1.392 . S
C55 N59 1.328 . S
C55 H61 0.930 . S
C56 C55 1.392 . S
C56 N60 1.331 . S
C57 C58 1.391 . S
C57 N60 1.329 . S
C57 H67 0.930 . S
C58 C57 1.391 . S
C58 N59 1.334 . S
C58 H65 0.930 . S
N59 Zn43 2.119 . S
N59 C55 1.328 . S
N59 C58 1.334 . S
N60 C56 1.331 . S
N60 C57 1.329 . S
H61 C55 0.930 . S
C62 O42 1.257 . S
C62 O63 1.244 . S
O63 C62 1.244 . S
O64 C40 1.257 . S
O64 Zn43 2.019 . S
H65 C58 0.930 . S
H66 C45 0.930 . S
H67 C57 0.930 . S
Zn68 N72 2.020 1_455 S
Zn68 O76 2.019 . S
Zn68 N78 2.119 1_455 S
Zn68 O86 1.975 1_455 S
C69 N70 1.334 . S
C69 N73 1.336 . S
N70 C69 1.334 . S
N70 C71 1.334 . S
C71 N70 1.334 . S
C71 N72 1.336 . S
N72 Zn68 2.020 1_655 S
N72 C71 1.336 . S
N72 N73 1.354 . S
N73 C69 1.336 . S
N73 N72 1.354 . S
N73 Zn77 2.020 . S
C74 O75 1.244 . S
C74 O98 1.257 . S
O75 C74 1.244 . S
O76 Zn68 2.019 . S
O76 C96 1.257 . S
Zn77 N73 2.020 . S
Zn77 O84 1.975 . S
Zn77 N93 2.119 . S
Zn77 O98 2.019 . S
N78 Zn68 2.119 1_655 S
N78 C80 1.334 . S
N78 C81 1.328 1_655 S
C79 C80 1.391 . S
C79 N82 1.329 . S
C79 H100 0.930 . S
C80 N78 1.334 . S
C80 C79 1.391 . S
C80 H87 0.930 . S
C81 N78 1.328 1_455 S
C81 C83 1.392 . S
C81 H88 0.930 . S
N82 C79 1.329 . S
N82 C83 1.331 1_655 S
C83 C81 1.392 . S
C83 N82 1.331 1_455 S
O84 Zn77 1.975 . S
O84 C85 1.252 . S
C85 O84 1.252 . S
C85 O86 1.252 . S
O86 Zn68 1.975 1_655 S
O86 C85 1.252 . S
H87 C80 0.930 . S
H88 C81 0.930 . S
C89 C90 1.392 . S
C89 N93 1.328 . S
C89 H95 0.930 . S
C90 C89 1.392 . S
C90 N94 1.331 . S
C91 C92 1.391 . S
C91 N94 1.329 . S
C91 H101 0.930 . S
C92 C91 1.391 . S
C92 N93 1.334 . S
C92 H99 0.930 . S
N93 Zn77 2.119 . S
N93 C89 1.328 . S
N93 C92 1.334 . S
N94 C90 1.331 . S
N94 C91 1.329 . S
H95 C89 0.930 . S
C96 O76 1.257 . S
C96 O97 1.244 . S
O97 C96 1.244 . S
O98 C74 1.257 . S
O98 Zn77 2.019 . S
H99 C92 0.930 . S
H100 C79 0.930 . S
H101 C91 0.930 . S
Zn102 N106 2.020 . S
Zn102 O110 2.019 . S
Zn102 N112 2.119 . S
Zn102 O120 1.975 . S
C103 N104 1.334 . S
C103 N107 1.336 . S
N104 C103 1.334 . S
N104 C105 1.334 . S
C105 N104 1.334 . S
C105 N106 1.336 . S
N106 Zn102 2.020 . S
N106 C105 1.336 . S
N106 N107 1.354 . S
N107 C103 1.336 . S
N107 N106 1.354 . S
N107 Zn111 2.020 1_655 S
C108 O109 1.244 . S
C108 O132 1.257 . S
O109 C108 1.244 . S
O110 Zn102 2.019 . S
O110 C130 1.257 . S
Zn111 N107 2.020 1_455 S
Zn111 O118 1.975 1_455 S
Zn111 N127 2.119 1_455 S
Zn111 O132 2.019 . S
N112 Zn102 2.119 . S
N112 C114 1.334 . S
N112 C115 1.328 . S
C113 C114 1.391 . S
C113 N116 1.329 . S
C113 H134 0.930 . S
C114 N112 1.334 . S
C114 C113 1.391 . S
C114 H121 0.930 . S
C115 N112 1.328 . S
C115 C117 1.392 . S
C115 H122 0.930 . S
N116 C113 1.329 . S
N116 C117 1.331 . S
C117 C115 1.392 . S
C117 N116 1.331 . S
O118 Zn111 1.975 1_655 S
O118 C119 1.252 . S
C119 O118 1.252 . S
C119 O120 1.252 . S
O120 Zn102 1.975 . S
O120 C119 1.252 . S
H121 C114 0.930 . S
H122 C115 0.930 . S
C123 C124 1.392 . S
C123 N127 1.328 1_455 S
C123 H129 0.930 . S
C124 C123 1.392 . S
C124 N128 1.331 1_455 S
C125 C126 1.391 . S
C125 N128 1.329 . S
C125 H135 0.930 . S
C126 C125 1.391 . S
C126 N127 1.334 . S
C126 H133 0.930 . S
N127 Zn111 2.119 1_655 S
N127 C123 1.328 1_655 S
N127 C126 1.334 . S
N128 C124 1.331 1_655 S
N128 C125 1.329 . S
H129 C123 0.930 . S
C130 O110 1.257 . S
C130 O131 1.244 . S
O131 C130 1.244 . S
O132 C108 1.257 . S
O132 Zn111 2.019 . S
H133 C126 0.930 . S
H134 C113 0.930 . S
H135 C125 0.930 . S
Zn136 N140 2.020 . S
Zn136 O144 2.019 1_556 S
Zn136 N146 2.119 . S
Zn136 O154 1.975 1_556 S
C137 N138 1.334 . S
C137 N141 1.336 . S
N138 C137 1.334 . S
N138 C139 1.334 . S
C139 N138 1.334 . S
C139 N140 1.336 . S
N140 Zn136 2.020 . S
N140 C139 1.336 . S
N140 N141 1.354 . S
N141 C137 1.336 . S
N141 N140 1.354 . S
N141 Zn145 2.020 1_455 S
C142 O143 1.244 . S
C142 O166 1.257 1_556 S
O143 C142 1.244 . S
O144 Zn136 2.019 1_554 S
O144 C164 1.257 1_554 S
Zn145 N141 2.020 1_655 S
Zn145 O152 1.975 1_656 S
Zn145 N161 2.119 1_655 S
Zn145 O166 2.019 1_556 S
N146 Zn136 2.119 . S
N146 C148 1.333 . S
N146 C149 1.328 . S
C147 C148 1.391 1_554 S
C147 N150 1.329 . S
C147 H168 0.930 . S
C148 N146 1.333 . S
C148 C147 1.391 1_556 S
C148 H155 0.930 . S
C149 N146 1.328 . S
C149 C151 1.392 1_556 S
C149 H156 0.930 . S
N150 C147 1.329 . S
N150 C151 1.331 . S
C151 C149 1.392 1_554 S
C151 N150 1.331 . S
O152 Zn145 1.975 1_454 S
O152 C153 1.252 . S
C153 O152 1.252 . S
C153 O154 1.252 . S
O154 Zn136 1.975 1_554 S
O154 C153 1.252 . S
H155 C148 0.930 . S
H156 C149 0.930 . S
C157 C158 1.392 1_556 S
C157 N161 1.328 1_655 S
C157 H163 0.930 . S
C158 C157 1.392 1_554 S
C158 N162 1.331 1_655 S
C159 C160 1.391 1_554 S
C159 N162 1.329 . S
C159 H169 0.930 . S
C160 C159 1.391 1_556 S
C160 N161 1.333 . S
C160 H167 0.930 . S
N161 Zn145 2.119 1_455 S
N161 C157 1.328 1_455 S
N161 C160 1.333 . S
N162 C158 1.331 1_455 S
N162 C159 1.329 . S
H163 C157 0.930 . S
C164 O144 1.257 1_556 S
C164 O165 1.244 . S
O165 C164 1.244 . S
O166 C142 1.257 1_554 S
O166 Zn145 2.019 1_554 S
H167 C160 0.930 . S
H168 C147 0.930 . S
H169 C159 0.930 . S
Zn170 N174 2.020 1_655 S
Zn170 O178 2.019 . S
Zn170 N180 2.119 1_655 S
Zn170 O188 1.975 1_655 S
C171 N172 1.334 . S
C171 N175 1.336 . S
N172 C171 1.334 . S
N172 C173 1.334 . S
C173 N172 1.334 . S
C173 N174 1.336 . S
N174 Zn170 2.020 1_455 S
N174 C173 1.336 . S
N174 N175 1.354 . S
N175 C171 1.336 . S
N175 N174 1.354 . S
N175 Zn179 2.020 . S
C176 O177 1.244 . S
C176 O200 1.257 . S
O177 C176 1.244 . S
O178 Zn170 2.019 . S
O178 C198 1.257 . S
Zn179 N175 2.020 . S
Zn179 O186 1.975 . S
Zn179 N195 2.119 . S
Zn179 O200 2.019 . S
N180 Zn170 2.119 1_455 S
N180 C182 1.334 . S
N180 C183 1.328 1_455 S
C181 C182 1.391 . S
C181 N184 1.329 . S
C181 H202 0.930 . S
C182 N180 1.334 . S
C182 C181 1.391 . S
C182 H189 0.930 . S
C183 N180 1.328 1_655 S
C183 C185 1.392 . S
C183 H190 0.930 . S
N184 C181 1.329 . S
N184 C185 1.331 1_455 S
C185 C183 1.392 . S
C185 N184 1.331 1_655 S
O186 Zn179 1.975 . S
O186 C187 1.252 . S
C187 O186 1.252 . S
C187 O188 1.252 . S
O188 Zn170 1.975 1_455 S
O188 C187 1.252 . S
H189 C182 0.930 . S
H190 C183 0.930 . S
C191 C192 1.392 . S
C191 N195 1.328 . S
C191 H197 0.930 . S
C192 C191 1.392 . S
C192 N196 1.331 . S
C193 C194 1.391 . S
C193 N196 1.329 . S
C193 H203 0.930 . S
C194 C193 1.391 . S
C194 N195 1.334 . S
C194 H201 0.930 . S
N195 Zn179 2.119 . S
N195 C191 1.328 . S
N195 C194 1.334 . S
N196 C192 1.331 . S
N196 C193 1.329 . S
H197 C191 0.930 . S
C198 O178 1.257 . S
C198 O199 1.244 . S
O199 C198 1.244 . S
O200 C176 1.257 . S
O200 Zn179 2.019 . S
H201 C194 0.930 . S
H202 C181 0.930 . S
H203 C193 0.930 . S
Zn204 N208 2.020 . S
Zn204 O212 2.019 1_554 S
Zn204 N214 2.119 . S
Zn204 O222 1.975 1_554 S
C205 N206 1.334 . S
C205 N209 1.336 . S
N206 C205 1.334 . S
N206 C207 1.334 . S
C207 N206 1.334 . S
C207 N208 1.336 . S
N208 Zn204 2.020 . S
N208 C207 1.336 . S
N208 N209 1.354 . S
N209 C205 1.336 . S
N209 N208 1.354 . S
N209 Zn213 2.020 1_655 S
C210 O211 1.244 . S
C210 O234 1.257 1_554 S
O211 C210 1.244 . S
O212 Zn204 2.019 1_556 S
O212 C232 1.257 1_556 S
Zn213 N209 2.020 1_455 S
Zn213 O220 1.975 1_454 S
Zn213 N229 2.119 1_455 S
Zn213 O234 2.019 1_554 S
N214 Zn204 2.119 . S
N214 C216 1.333 . S
N214 C217 1.328 . S
C215 C216 1.391 1_556 S
C215 N218 1.329 . S
C215 H236 0.930 . S
C216 N214 1.333 . S
C216 C215 1.391 1_554 S
C216 H223 0.930 . S
C217 N214 1.328 . S
C217 C219 1.392 1_554 S
C217 H224 0.930 . S
N218 C215 1.329 . S
N218 C219 1.331 . S
C219 C217 1.392 1_556 S
C219 N218 1.331 . S
O220 Zn213 1.975 1_656 S
O220 C221 1.252 . S
C221 O220 1.252 . S
C221 O222 1.252 . S
O222 Zn204 1.975 1_556 S
O222 C221 1.252 . S
H223 C216 0.930 . S
H224 C217 0.930 . S
C225 C226 1.392 1_554 S
C225 N229 1.328 1_455 S
C225 H231 0.930 . S
C226 C225 1.392 1_556 S
C226 N230 1.331 1_455 S
C227 C228 1.391 1_556 S
C227 N230 1.329 . S
C227 H237 0.930 . S
C228 C227 1.391 1_554 S
C228 N229 1.333 . S
C228 H235 0.930 . S
N229 Zn213 2.119 1_655 S
N229 C225 1.328 1_655 S
N229 C228 1.333 . S
N230 C226 1.331 1_655 S
N230 C227 1.329 . S
H231 C225 0.930 . S
C232 O212 1.257 1_554 S
C232 O233 1.244 . S
O233 C232 1.244 . S
O234 C210 1.257 1_556 S
O234 Zn213 2.019 1_556 S
H235 C228 0.930 . S
H236 C215 0.930 . S
H237 C227 0.930 . S
Zn238 N242 2.020 . S
Zn238 O246 2.019 . S
Zn238 N248 2.119 . S
Zn238 O256 1.975 . S
C239 N240 1.334 . S
C239 N243 1.336 . S
N240 C239 1.334 . S
N240 C241 1.334 . S
C241 N240 1.334 . S
C241 N242 1.336 . S
N242 Zn238 2.020 . S
N242 C241 1.336 . S
N242 N243 1.354 . S
N243 C239 1.336 . S
N243 N242 1.354 . S
N243 Zn247 2.020 1_655 S
C244 O245 1.244 . S
C244 O268 1.257 . S
O245 C244 1.244 . S
O246 Zn238 2.019 . S
O246 C266 1.257 . S
Zn247 N243 2.020 1_455 S
Zn247 O254 1.975 1_455 S
Zn247 N263 2.119 1_455 S
Zn247 O268 2.019 . S
N248 Zn238 2.119 . S
N248 C250 1.334 . S
N248 C251 1.328 . S
C249 C250 1.391 . S
C249 N252 1.329 . S
C249 H270 0.930 . S
C250 N248 1.334 . S
C250 C249 1.391 . S
C250 H257 0.930 . S
C251 N248 1.328 . S
C251 C253 1.392 . S
C251 H258 0.930 . S
N252 C249 1.329 . S
N252 C253 1.331 . S
C253 C251 1.392 . S
C253 N252 1.331 . S
O254 Zn247 1.975 1_655 S
O254 C255 1.252 . S
C255 O254 1.252 . S
C255 O256 1.252 . S
O256 Zn238 1.975 . S
O256 C255 1.252 . S
H257 C250 0.930 . S
H258 C251 0.930 . S
C259 C260 1.392 . S
C259 N263 1.328 1_455 S
C259 H265 0.930 . S
C260 C259 1.392 . S
C260 N264 1.331 1_455 S
C261 C262 1.391 . S
C261 N264 1.329 . S
C261 H271 0.930 . S
C262 C261 1.391 . S
C262 N263 1.334 . S
C262 H269 0.930 . S
N263 Zn247 2.119 1_655 S
N263 C259 1.328 1_655 S
N263 C262 1.334 . S
N264 C260 1.331 1_655 S
N264 C261 1.329 . S
H265 C259 0.930 . S
C266 O246 1.257 . S
C266 O267 1.244 . S
O267 C266 1.244 . S
O268 C244 1.257 . S
O268 Zn247 2.019 . S
H269 C262 0.930 . S
H270 C249 0.930 . S
H271 C261 0.930 . S
Zn272 N276 2.020 . S
Zn272 O280 2.019 1_556 S
Zn272 N282 2.119 . S
Zn272 O290 1.975 1_556 S
C273 N274 1.334 . S
C273 N277 1.336 . S
N274 C273 1.334 . S
N274 C275 1.334 . S
C275 N274 1.334 . S
C275 N276 1.336 . S
N276 Zn272 2.020 . S
N276 C275 1.336 . S
N276 N277 1.354 . S
N277 C273 1.336 . S
N277 N276 1.354 . S
N277 Zn281 2.020 . S
C278 O279 1.244 . S
C278 O302 1.257 1_556 S
O279 C278 1.244 . S
O280 Zn272 2.019 1_554 S
O280 C300 1.257 1_554 S
Zn281 N277 2.020 . S
Zn281 O288 1.975 1_556 S
Zn281 N297 2.119 . S
Zn281 O302 2.019 1_556 S
N282 Zn272 2.119 . S
N282 C284 1.333 . S
N282 C285 1.328 . S
C283 C284 1.391 1_554 S
C283 N286 1.329 . S
C283 H304 0.930 . S
C284 N282 1.333 . S
C284 C283 1.391 1_556 S
C284 H291 0.930 . S
C285 N282 1.328 . S
C285 C287 1.392 1_556 S
C285 H292 0.930 . S
N286 C283 1.329 . S
N286 C287 1.331 . S
C287 C285 1.392 1_554 S
C287 N286 1.331 . S
O288 Zn281 1.975 1_554 S
O288 C289 1.252 . S
C289 O288 1.252 . S
C289 O290 1.252 . S
O290 Zn272 1.975 1_554 S
O290 C289 1.252 . S
H291 C284 0.930 . S
H292 C285 0.930 . S
C293 C294 1.392 1_556 S
C293 N297 1.328 . S
C293 H299 0.930 . S
C294 C293 1.392 1_554 S
C294 N298 1.331 . S
C295 C296 1.391 1_554 S
C295 N298 1.329 . S
C295 H305 0.930 . S
C296 C295 1.391 1_556 S
C296 N297 1.333 . S
C296 H303 0.930 . S
N297 Zn281 2.119 . S
N297 C293 1.328 . S
N297 C296 1.333 . S
N298 C294 1.331 . S
N298 C295 1.329 . S
H299 C293 0.930 . S
C300 O280 1.257 1_556 S
C300 O301 1.244 . S
O301 C300 1.244 . S
O302 C278 1.257 1_554 S
O302 Zn281 2.019 1_554 S
H303 C296 0.930 . S
H304 C283 0.930 . S
H305 C295 0.930 . S
Zn306 N310 2.020 . S
Zn306 O314 2.019 . S
Zn306 N316 2.119 . S
Zn306 O324 1.975 . S
C307 N308 1.334 . S
C307 N311 1.336 . S
N308 C307 1.334 . S
N308 C309 1.334 . S
C309 N308 1.334 . S
C309 N310 1.336 . S
N310 Zn306 2.020 . S
N310 C309 1.336 . S
N310 N311 1.354 . S
N311 C307 1.336 . S
N311 N310 1.354 . S
N311 Zn315 2.020 . S
C312 O313 1.244 . S
C312 O336 1.257 . S
O313 C312 1.244 . S
O314 Zn306 2.019 . S
O314 C334 1.257 . S
Zn315 N311 2.020 . S
Zn315 O322 1.975 . S
Zn315 N331 2.119 . S
Zn315 O336 2.019 . S
N316 Zn306 2.119 . S
N316 C318 1.334 . S
N316 C319 1.328 . S
C317 C318 1.391 . S
C317 N320 1.329 . S
C317 H338 0.930 . S
C318 N316 1.334 . S
C318 C317 1.391 . S
C318 H325 0.930 . S
C319 N316 1.328 . S
C319 C321 1.392 . S
C319 H326 0.930 . S
N320 C317 1.329 . S
N320 C321 1.331 . S
C321 C319 1.392 . S
C321 N320 1.331 . S
O322 Zn315 1.975 . S
O322 C323 1.252 . S
C323 O322 1.252 . S
C323 O324 1.252 . S
O324 Zn306 1.975 . S
O324 C323 1.252 . S
H325 C318 0.930 . S
H326 C319 0.930 . S
C327 C328 1.392 . S
C327 N331 1.328 . S
C327 H333 0.930 . S
C328 C327 1.392 . S
C328 N332 1.331 . S
C329 C330 1.391 . S
C329 N332 1.329 . S
C329 H339 0.930 . S
C330 C329 1.391 . S
C330 N331 1.334 . S
C330 H337 0.930 . S
N331 Zn315 2.119 . S
N331 C327 1.328 . S
N331 C330 1.334 . S
N332 C328 1.331 . S
N332 C329 1.329 . S
H333 C327 0.930 . S
C334 O314 1.257 . S
C334 O335 1.244 . S
O335 C334 1.244 . S
O336 C312 1.257 . S
O336 Zn315 2.019 . S
H337 C330 0.930 . S
H338 C317 0.930 . S
H339 C329 0.930 . S
Zn340 N344 2.020 . S
Zn340 O348 2.019 1_554 S
Zn340 N350 2.119 . S
Zn340 O358 1.975 1_554 S
C341 N342 1.334 . S
C341 N345 1.336 . S
N342 C341 1.334 . S
N342 C343 1.334 . S
C343 N342 1.334 . S
C343 N344 1.336 . S
N344 Zn340 2.020 . S
N344 C343 1.336 . S
N344 N345 1.354 . S
N345 C341 1.336 . S
N345 N344 1.354 . S
N345 Zn349 2.020 . S
C346 O347 1.244 . S
C346 O370 1.257 1_554 S
O347 C346 1.244 . S
O348 Zn340 2.019 1_556 S
O348 C368 1.257 1_556 S
Zn349 N345 2.020 . S
Zn349 O356 1.975 1_554 S
Zn349 N365 2.119 . S
Zn349 O370 2.019 1_554 S
N350 Zn340 2.119 . S
N350 C352 1.333 . S
N350 C353 1.328 . S
C351 C352 1.391 1_556 S
C351 N354 1.329 . S
C351 H372 0.930 . S
C352 N350 1.333 . S
C352 C351 1.391 1_554 S
C352 H359 0.930 . S
C353 N350 1.328 . S
C353 C355 1.392 1_554 S
C353 H360 0.930 . S
N354 C351 1.329 . S
N354 C355 1.331 . S
C355 C353 1.392 1_556 S
C355 N354 1.331 . S
O356 Zn349 1.975 1_556 S
O356 C357 1.252 . S
C357 O356 1.252 . S
C357 O358 1.252 . S
O358 Zn340 1.975 1_556 S
O358 C357 1.252 . S
H359 C352 0.930 . S
H360 C353 0.930 . S
C361 C362 1.392 1_554 S
C361 N365 1.328 . S
C361 H367 0.930 . S
C362 C361 1.392 1_556 S
C362 N366 1.331 . S
C363 C364 1.391 1_556 S
C363 N366 1.329 . S
C363 H373 0.930 . S
C364 C363 1.391 1_554 S
C364 N365 1.333 . S
C364 H371 0.930 . S
N365 Zn349 2.119 . S
N365 C361 1.328 . S
N365 C364 1.333 . S
N366 C362 1.331 . S
N366 C363 1.329 . S
H367 C361 0.930 . S
C368 O348 1.257 1_554 S
C368 O369 1.244 . S
O369 C368 1.244 . S
O370 C346 1.257 1_556 S
O370 Zn349 2.019 1_556 S
H371 C364 0.930 . S
H372 C351 0.930 . S
H373 C363 0.930 . S
Zn374 N378 2.020 . S
Zn374 O382 2.019 . S
Zn374 N384 2.119 . S
Zn374 O392 1.975 . S
C375 N376 1.334 . S
C375 N379 1.336 . S
N376 C375 1.334 . S
N376 C377 1.334 . S
C377 N376 1.334 . S
C377 N378 1.336 . S
N378 Zn374 2.020 . S
N378 C377 1.336 . S
N378 N379 1.354 . S
N379 C375 1.336 . S
N379 N378 1.354 . S
N379 Zn383 2.020 . S
C380 O381 1.244 . S
C380 O404 1.257 . S
O381 C380 1.244 . S
O382 Zn374 2.019 . S
O382 C402 1.257 . S
Zn383 N379 2.020 . S
Zn383 O390 1.975 . S
Zn383 N399 2.119 . S
Zn383 O404 2.019 . S
N384 Zn374 2.119 . S
N384 C386 1.334 . S
N384 C387 1.328 . S
C385 C386 1.391 . S
C385 N388 1.329 . S
C385 H406 0.930 . S
C386 N384 1.334 . S
C386 C385 1.391 . S
C386 H393 0.930 . S
C387 N384 1.328 . S
C387 C389 1.392 . S
C387 H394 0.930 . S
N388 C385 1.329 . S
N388 C389 1.331 . S
C389 C387 1.392 . S
C389 N388 1.331 . S
O390 Zn383 1.975 . S
O390 C391 1.252 . S
C391 O390 1.252 . S
C391 O392 1.252 . S
O392 Zn374 1.975 . S
O392 C391 1.252 . S
H393 C386 0.930 . S
H394 C387 0.930 . S
C395 C396 1.392 . S
C395 N399 1.328 . S
C395 H401 0.930 . S
C396 C395 1.392 . S
C396 N400 1.331 . S
C397 C398 1.391 . S
C397 N400 1.329 . S
C397 H407 0.930 . S
C398 C397 1.391 . S
C398 N399 1.334 . S
C398 H405 0.930 . S
N399 Zn383 2.119 . S
N399 C395 1.328 . S
N399 C398 1.334 . S
N400 C396 1.331 . S
N400 C397 1.329 . S
H401 C395 0.930 . S
C402 O382 1.257 . S
C402 O403 1.244 . S
O403 C402 1.244 . S
O404 C380 1.257 . S
O404 Zn383 2.019 . S
H405 C398 0.930 . S
H406 C385 0.930 . S
H407 C397 0.930 . S
Zn408 N412 2.020 . S
Zn408 O416 2.019 . S
Zn408 N418 2.119 . S
Zn408 O426 1.975 . S
C409 N410 1.334 . S
C409 N413 1.336 . S
N410 C409 1.334 . S
N410 C411 1.334 . S
C411 N410 1.334 . S
C411 N412 1.336 . S
N412 Zn408 2.020 . S
N412 C411 1.336 . S
N412 N413 1.354 . S
N413 C409 1.336 . S
N413 N412 1.354 . S
N413 Zn417 2.020 . S
C414 O415 1.244 . S
C414 O438 1.257 . S
O415 C414 1.244 . S
O416 Zn408 2.019 . S
O416 C436 1.257 . S
Zn417 N413 2.020 . S
Zn417 O424 1.975 . S
Zn417 N433 2.119 . S
Zn417 O438 2.019 . S
N418 Zn408 2.119 . S
N418 C420 1.334 . S
N418 C421 1.328 . S
C419 C420 1.391 . S
C419 N422 1.329 . S
C419 H440 0.930 . S
C420 N418 1.334 . S
C420 C419 1.391 . S
C420 H427 0.930 . S
C421 N418 1.328 . S
C421 C423 1.392 . S
C421 H428 0.930 . S
N422 C419 1.329 . S
N422 C423 1.331 . S
C423 C421 1.392 . S
C423 N422 1.331 . S
O424 Zn417 1.975 . S
O424 C425 1.252 . S
C425 O424 1.252 . S
C425 O426 1.252 . S
O426 Zn408 1.975 . S
O426 C425 1.252 . S
H427 C420 0.930 . S
H428 C421 0.930 . S
C429 C430 1.392 . S
C429 N433 1.328 . S
C429 H435 0.930 . S
C430 C429 1.392 . S
C430 N434 1.331 . S
C431 C432 1.391 . S
C431 N434 1.329 . S
C431 H441 0.930 . S
C432 C431 1.391 . S
C432 N433 1.334 . S
C432 H439 0.930 . S
N433 Zn417 2.119 . S
N433 C429 1.328 . S
N433 C432 1.334 . S
N434 C430 1.331 . S
N434 C431 1.329 . S
H435 C429 0.930 . S
C436 O416 1.257 . S
C436 O437 1.244 . S
O437 C436 1.244 . S
O438 C414 1.257 . S
O438 Zn417 2.019 . S
H439 C432 0.930 . S
H440 C419 0.930 . S
H441 C431 0.930 . S
Zn442 N446 2.020 . S
Zn442 O450 2.019 . S
Zn442 N452 2.119 . S
Zn442 O460 1.975 . S
C443 N444 1.334 . S
C443 N447 1.336 . S
N444 C443 1.334 . S
N444 C445 1.334 . S
C445 N444 1.334 . S
C445 N446 1.336 . S
N446 Zn442 2.020 . S
N446 C445 1.336 . S
N446 N447 1.354 . S
N447 C443 1.336 . S
N447 N446 1.354 . S
N447 Zn451 2.020 . S
C448 O449 1.244 . S
C448 O472 1.257 . S
O449 C448 1.244 . S
O450 Zn442 2.019 . S
O450 C470 1.257 . S
Zn451 N447 2.020 . S
Zn451 O458 1.975 . S
Zn451 N467 2.119 . S
Zn451 O472 2.019 . S
N452 Zn442 2.119 . S
N452 C454 1.334 . S
N452 C455 1.328 . S
C453 C454 1.391 . S
C453 N456 1.329 . S
C453 H474 0.930 . S
C454 N452 1.334 . S
C454 C453 1.391 . S
C454 H461 0.930 . S
C455 N452 1.328 . S
C455 C457 1.392 . S
C455 H462 0.930 . S
N456 C453 1.329 . S
N456 C457 1.331 . S
C457 C455 1.392 . S
C457 N456 1.331 . S
O458 Zn451 1.975 . S
O458 C459 1.252 . S
C459 O458 1.252 . S
C459 O460 1.252 . S
O460 Zn442 1.975 . S
O460 C459 1.252 . S
H461 C454 0.930 . S
H462 C455 0.930 . S
C463 C464 1.392 . S
C463 N467 1.328 . S
C463 H469 0.930 . S
C464 C463 1.392 . S
C464 N468 1.331 . S
C465 C466 1.391 . S
C465 N468 1.329 . S
C465 H475 0.930 . S
C466 C465 1.391 . S
C466 N467 1.334 . S
C466 H473 0.930 . S
N467 Zn451 2.119 . S
N467 C463 1.328 . S
N467 C466 1.334 . S
N468 C464 1.331 . S
N468 C465 1.329 . S
H469 C463 0.930 . S
C470 O450 1.257 . S
C470 O471 1.244 . S
O471 C470 1.244 . S
O472 C448 1.257 . S
O472 Zn451 2.019 . S
H473 C466 0.930 . S
H474 C453 0.930 . S
H475 C465 0.930 . S
Zn476 N480 2.020 . S
Zn476 O484 2.019 . S
Zn476 N486 2.119 . S
Zn476 O494 1.975 . S
C477 N478 1.334 . S
C477 N481 1.336 . S
N478 C477 1.334 . S
N478 C479 1.334 . S
C479 N478 1.334 . S
C479 N480 1.336 . S
N480 Zn476 2.020 . S
N480 C479 1.336 . S
N480 N481 1.354 . S
N481 C477 1.336 . S
N481 N480 1.354 . S
N481 Zn485 2.020 . S
C482 O483 1.244 . S
C482 O506 1.257 . S
O483 C482 1.244 . S
O484 Zn476 2.019 . S
O484 C504 1.257 . S
Zn485 N481 2.020 . S
Zn485 O492 1.975 . S
Zn485 N501 2.119 . S
Zn485 O506 2.019 . S
N486 Zn476 2.119 . S
N486 C488 1.334 . S
N486 C489 1.328 . S
C487 C488 1.391 . S
C487 N490 1.329 . S
C487 H508 0.930 . S
C488 N486 1.334 . S
C488 C487 1.391 . S
C488 H495 0.930 . S
C489 N486 1.328 . S
C489 C491 1.392 . S
C489 H496 0.930 . S
N490 C487 1.329 . S
N490 C491 1.331 . S
C491 C489 1.392 . S
C491 N490 1.331 . S
O492 Zn485 1.975 . S
O492 C493 1.252 . S
C493 O492 1.252 . S
C493 O494 1.252 . S
O494 Zn476 1.975 . S
O494 C493 1.252 . S
H495 C488 0.930 . S
H496 C489 0.930 . S
C497 C498 1.392 . S
C497 N501 1.328 . S
C497 H503 0.930 . S
C498 C497 1.392 . S
C498 N502 1.331 . S
C499 C500 1.391 . S
C499 N502 1.329 . S
C499 H509 0.930 . S
C500 C499 1.391 . S
C500 N501 1.334 . S
C500 H507 0.930 . S
N501 Zn485 2.119 . S
N501 C497 1.328 . S
N501 C500 1.334 . S
N502 C498 1.331 . S
N502 C499 1.329 . S
H503 C497 0.930 . S
C504 O484 1.257 . S
C504 O505 1.244 . S
O505 C504 1.244 . S
O506 C482 1.257 . S
O506 Zn485 2.019 . S
H507 C500 0.930 . S
H508 C487 0.930 . S
H509 C499 0.930 . S
Zn510 N514 2.020 . S
Zn510 O518 2.019 . S
Zn510 N520 2.119 . S
Zn510 O528 1.975 . S
C511 N512 1.334 . S
C511 N515 1.336 . S
N512 C511 1.334 . S
N512 C513 1.334 . S
C513 N512 1.334 . S
C513 N514 1.336 . S
N514 Zn510 2.020 . S
N514 C513 1.336 . S
N514 N515 1.354 . S
N515 C511 1.336 . S
N515 N514 1.354 . S
N515 Zn519 2.020 . S
C516 O517 1.244 . S
C516 O540 1.257 . S
O517 C516 1.244 . S
O518 Zn510 2.019 . S
O518 C538 1.257 . S
Zn519 N515 2.020 . S
Zn519 O526 1.975 . S
Zn519 N535 2.119 . S
Zn519 O540 2.019 . S
N520 Zn510 2.119 . S
N520 C522 1.334 . S
N520 C523 1.328 . S
C521 C522 1.391 . S
C521 N524 1.329 . S
C521 H542 0.930 . S
C522 N520 1.334 . S
C522 C521 1.391 . S
C522 H529 0.930 . S
C523 N520 1.328 . S
C523 C525 1.392 . S
C523 H530 0.930 . S
N524 C521 1.329 . S
N524 C525 1.331 . S
C525 C523 1.392 . S
C525 N524 1.331 . S
O526 Zn519 1.975 . S
O526 C527 1.252 . S
C527 O526 1.252 . S
C527 O528 1.252 . S
O528 Zn510 1.975 . S
O528 C527 1.252 . S
H529 C522 0.930 . S
H530 C523 0.930 . S
C531 C532 1.392 . S
C531 N535 1.328 . S
C531 H537 0.930 . S
C532 C531 1.392 . S
C532 N536 1.331 . S
C533 C534 1.391 . S
C533 N536 1.329 . S
C533 H543 0.930 . S
C534 C533 1.391 . S
C534 N535 1.334 . S
C534 H541 0.930 . S
N535 Zn519 2.119 . S
N535 C531 1.328 . S
N535 C534 1.334 . S
N536 C532 1.331 . S
N536 C533 1.329 . S
H537 C531 0.930 . S
C538 O518 1.257 . S
C538 O539 1.244 . S
O539 C538 1.244 . S
O540 C516 1.257 . S
O540 Zn519 2.019 . S
H541 C534 0.930 . S
H542 C521 0.930 . S
H543 C533 0.930 . S
C544 C545 1.387 . S
C544 H548 0.950 . S
C544 C553 1.390 . S
C545 C544 1.387 . S
C545 C547 1.387 . S
H546 C553 0.950 . S
C547 C545 1.387 . S
C547 C549 1.390 . S
C547 H551 0.950 . S
H548 C544 0.950 . S
C549 C547 1.390 . S
C549 C550 1.387 . S
C549 H552 0.950 . S
C550 C549 1.387 . S
C550 C553 1.387 . S
H551 C547 0.950 . S
H552 C549 0.950 . S
C553 C544 1.390 . S
C553 H546 0.950 . S
C553 C550 1.387 . S
C554 C555 1.387 . S
C554 H558 0.950 . S
C554 C563 1.390 1_465 S
C555 C554 1.387 . S
C555 C557 1.387 . S
H556 C563 0.950 . S
C557 C555 1.387 . S
C557 C559 1.390 1_465 S
C557 H561 0.950 . S
H558 C554 0.950 . S
C559 C557 1.390 1_645 S
C559 C560 1.387 . S
C559 H562 0.950 . S
C560 C559 1.387 . S
C560 C563 1.387 . S
H561 C557 0.950 . S
H562 C559 0.950 . S
C563 C554 1.390 1_645 S
C563 H556 0.950 . S
C563 C560 1.387 . S
C564 C565 1.387 . S
C564 H568 0.950 . S
C564 C573 1.390 1_545 S
C565 C564 1.387 . S
C565 C567 1.387 . S
H566 C573 0.950 . S
C567 C565 1.387 . S
C567 C569 1.390 1_545 S
C567 H571 0.950 . S
H568 C564 0.950 . S
C569 C567 1.390 1_565 S
C569 C570 1.387 . S
C569 H572 0.950 . S
C570 C569 1.387 . S
C570 C573 1.387 . S
H571 C567 0.950 . S
H572 C569 0.950 . S
C573 C564 1.390 1_565 S
C573 H566 0.950 . S
C573 C570 1.387 . S
C574 C575 1.387 . S
C574 H578 0.950 . S
C574 C583 1.390 1_655 S
C575 C574 1.387 . S
C575 C577 1.387 . S
H576 C583 0.950 . S
C577 C575 1.387 . S
C577 C579 1.390 1_655 S
C577 H581 0.950 . S
H578 C574 0.950 . S
C579 C577 1.390 1_455 S
C579 C580 1.387 . S
C579 H582 0.950 . S
C580 C579 1.387 . S
C580 C583 1.387 . S
H581 C577 0.950 . S
H582 C579 0.950 . S
C583 C574 1.390 1_455 S
C583 H576 0.950 . S
C583 C580 1.387 . S
C584 C585 1.387 . S
C584 H588 0.950 . S
C584 C593 1.390 . S
C585 C584 1.387 . S
C585 C587 1.387 . S
H586 C593 0.950 . S
C587 C585 1.387 . S
C587 C589 1.390 . S
C587 H591 0.950 . S
H588 C584 0.950 . S
C589 C587 1.390 . S
C589 C590 1.387 . S
C589 H592 0.950 . S
C590 C589 1.387 . S
C590 C593 1.387 . S
H591 C587 0.950 . S
H592 C589 0.950 . S
C593 C584 1.390 . S
C593 H586 0.950 . S
C593 C590 1.387 . S
C594 C595 1.387 . S
C594 H598 0.950 . S
C594 C603 1.390 1_565 S
C595 C594 1.387 . S
C595 C597 1.387 . S
H596 C603 0.950 . S
C597 C595 1.387 . S
C597 C599 1.390 1_565 S
C597 H601 0.950 . S
H598 C594 0.950 . S
C599 C597 1.390 1_545 S
C599 C600 1.387 . S
C599 H602 0.950 . S
C600 C599 1.387 . S
C600 C603 1.387 . S
H601 C597 0.950 . S
H602 C599 0.950 . S
C603 C594 1.390 1_545 S
C603 H596 0.950 . S
C603 C600 1.387 . S
C604 C605 1.387 1_655 S
C604 H608 0.950 . S
C604 C613 1.390 . S
C605 C604 1.387 1_455 S
C605 C607 1.387 . S
H606 C613 0.950 . S
C607 C605 1.387 . S
C607 C609 1.390 . S
C607 H611 0.950 . S
H608 C604 0.950 . S
C609 C607 1.390 . S
C609 C610 1.387 1_455 S
C609 H612 0.950 . S
C610 C609 1.387 1_655 S
C610 C613 1.387 . S
H611 C607 0.950 . S
H612 C609 0.950 . S
C613 C604 1.390 . S
C613 H606 0.950 . S
C613 C610 1.387 . S
C614 C615 1.387 . S
C614 H618 0.950 . S
C614 C623 1.390 . S
C615 C614 1.387 . S
C615 C617 1.387 1_554 S
H616 C623 0.950 . S
C617 C615 1.387 1_556 S
C617 C619 1.390 . S
C617 H621 0.950 . S
H618 C614 0.950 . S
C619 C617 1.390 . S
C619 C620 1.387 . S
C619 H622 0.950 . S
C620 C619 1.387 . S
C620 C623 1.387 1_556 S
H621 C617 0.950 . S
H622 C619 0.950 . S
C623 C614 1.390 . S
C623 H616 0.950 . S
C623 C620 1.387 1_554 S
C624 C625 1.387 . S
C624 H628 0.950 . S
C624 C633 1.390 1_655 S
C625 C624 1.387 . S
C625 C627 1.387 1_554 S
H626 C633 0.950 . S
C627 C625 1.387 1_556 S
C627 C629 1.390 1_655 S
C627 H631 0.950 . S
H628 C624 0.950 . S
C629 C627 1.390 1_455 S
C629 C630 1.387 . S
C629 H632 0.950 . S
C630 C629 1.387 . S
C630 C633 1.387 1_556 S
H631 C627 0.950 . S
H632 C629 0.950 . S
C633 C624 1.390 1_455 S
C633 H626 0.950 . S
C633 C630 1.387 1_554 S
C634 C635 1.387 . S
C634 H638 0.950 . S
C634 C643 1.390 . S
C635 C634 1.387 . S
C635 C637 1.387 . S
H636 C643 0.950 . S
C637 C635 1.387 . S
C637 C639 1.390 . S
C637 H641 0.950 . S
H638 C634 0.950 . S
C639 C637 1.390 . S
C639 C640 1.387 . S
C639 H642 0.950 . S
C640 C639 1.387 . S
C640 C643 1.387 . S
H641 C637 0.950 . S
H642 C639 0.950 . S
C643 C634 1.390 . S
C643 H636 0.950 . S
C643 C640 1.387 . S
C644 C645 1.387 . S
C644 H648 0.950 . S
C644 C653 1.390 . S
C645 C644 1.387 . S
C645 C647 1.387 1_556 S
H646 C653 0.950 . S
C647 C645 1.387 1_554 S
C647 C649 1.390 . S
C647 H651 0.950 . S
H648 C644 0.950 . S
C649 C647 1.390 . S
C649 C650 1.387 . S
C649 H652 0.950 . S
C650 C649 1.387 . S
C650 C653 1.387 1_554 S
H651 C647 0.950 . S
H652 C649 0.950 . S
C653 C644 1.390 . S
C653 H646 0.950 . S
C653 C650 1.387 1_556 S
C654 C655 1.387 . S
C654 H658 0.950 . S
C654 C663 1.390 . S
C655 C654 1.387 . S
C655 C657 1.387 . S
H656 C663 0.950 . S
C657 C655 1.387 . S
C657 C659 1.390 . S
C657 H661 0.950 . S
H658 C654 0.950 . S
C659 C657 1.390 . S
C659 C660 1.387 . S
C659 H662 0.950 . S
C660 C659 1.387 . S
C660 C663 1.387 . S
H661 C657 0.950 . S
H662 C659 0.950 . S
C663 C654 1.390 . S
C663 H656 0.950 . S
C663 C660 1.387 . S
C664 C665 1.387 1_556 S
C664 H668 0.950 . S
C664 C673 1.390 1_545 S
C665 C664 1.387 1_554 S
C665 C667 1.387 . S
H666 C673 0.950 . S
C667 C665 1.387 . S
C667 C669 1.390 1_545 S
C667 H671 0.950 . S
H668 C664 0.950 . S
C669 C667 1.390 1_565 S
C669 C670 1.387 1_554 S
C669 H672 0.950 . S
C670 C669 1.387 1_556 S
C670 C673 1.387 . S
H671 C667 0.950 . S
H672 C669 0.950 . S
C673 C664 1.390 1_565 S
C673 H666 0.950 . S
C673 C670 1.387 . S
C674 C675 1.387 . S
C674 H678 0.950 . S
C674 C683 1.390 . S
C675 C674 1.387 . S
C675 C677 1.387 . S
H676 C683 0.950 . S
C677 C675 1.387 . S
C677 C679 1.390 . S
C677 H681 0.950 . S
H678 C674 0.950 . S
C679 C677 1.390 . S
C679 C680 1.387 . S
C679 H682 0.950 . S
C680 C679 1.387 . S
C680 C683 1.387 . S
H681 C677 0.950 . S
H682 C679 0.950 . S
C683 C674 1.390 . S
C683 H676 0.950 . S
C683 C680 1.387 . S
C684 C685 1.387 . S
C684 H688 0.950 . S
C684 C693 1.390 . S
C685 C684 1.387 . S
C685 C687 1.387 . S
H686 C693 0.950 . S
C687 C685 1.387 . S
C687 C689 1.390 . S
C687 H691 0.950 . S
H688 C684 0.950 . S
C689 C687 1.390 . S
C689 C690 1.387 . S
C689 H692 0.950 . S
C690 C689 1.387 . S
C690 C693 1.387 . S
H691 C687 0.950 . S
H692 C689 0.950 . S
C693 C684 1.390 . S
C693 H686 0.950 . S
C693 C690 1.387 . S
C694 C695 1.387 . S
C694 H698 0.950 . S
C694 C703 1.390 . S
C695 C694 1.387 . S
C695 C697 1.387 . S
H696 C703 0.950 . S
C697 C695 1.387 . S
C697 C699 1.390 . S
C697 H701 0.950 . S
H698 C694 0.950 . S
C699 C697 1.390 . S
C699 C700 1.387 . S
C699 H702 0.950 . S
C700 C699 1.387 . S
C700 C703 1.387 . S
H701 C697 0.950 . S
H702 C699 0.950 . S
C703 C694 1.390 . S
C703 H696 0.950 . S
C703 C700 1.387 . S
C704 C705 1.387 . S
C704 H708 0.950 1_455 S
C704 C713 1.390 . S
C705 C704 1.387 . S
C705 C707 1.387 . S
H706 C713 0.950 1_655 S
C707 C705 1.387 . S
C707 C709 1.390 . S
C707 H711 0.950 . S
H708 C704 0.950 1_655 S
C709 C707 1.390 . S
C709 C710 1.387 . S
C709 H712 0.950 . S
C710 C709 1.387 . S
C710 C713 1.387 . S
H711 C707 0.950 . S
H712 C709 0.950 . S
C713 C704 1.390 . S
C713 H706 0.950 1_455 S
C713 C710 1.387 . S
C714 C715 1.387 . S
C714 H718 0.950 . S
C714 C723 1.390 . S
C715 C714 1.387 . S
C715 C717 1.387 . S
H716 C723 0.950 . S
C717 C715 1.387 . S
C717 C719 1.390 . S
C717 H721 0.950 1_655 S
H718 C714 0.950 . S
C719 C717 1.390 . S
C719 C720 1.387 . S
C719 H722 0.950 1_655 S
C720 C719 1.387 . S
C720 C723 1.387 . S
H721 C717 0.950 1_455 S
H722 C719 0.950 1_455 S
C723 C714 1.390 . S
C723 H716 0.950 . S
C723 C720 1.387 . S
C724 C725 1.387 . S
C724 H728 0.950 . S
C724 C733 1.390 . S
C725 C724 1.387 . S
C725 C727 1.387 . S
H726 C733 0.950 . S
C727 C725 1.387 . S
C727 C729 1.390 . S
C727 H731 0.950 1_455 S
H728 C724 0.950 . S
C729 C727 1.390 . S
C729 C730 1.387 . S
C729 H732 0.950 1_455 S
C730 C729 1.387 . S
C730 C733 1.387 . S
H731 C727 0.950 1_655 S
H732 C729 0.950 1_655 S
C733 C724 1.390 . S
C733 H726 0.950 . S
C733 C730 1.387 . S
C734 C735 1.387 . S
C734 H738 0.950 . S
C734 C743 1.390 . S
C735 C734 1.387 . S
C735 C737 1.387 . S
H736 C743 0.950 . S
C737 C735 1.387 . S
C737 C739 1.390 . S
C737 H741 0.950 . S
H738 C734 0.950 . S
C739 C737 1.390 . S
C739 C740 1.387 . S
C739 H742 0.950 . S
C740 C739 1.387 . S
C740 C743 1.387 . S
H741 C737 0.950 . S
H742 C739 0.950 . S
C743 C734 1.390 . S
C743 H736 0.950 . S
C743 C740 1.387 . S
C744 C745 1.387 . S
C744 H748 0.950 . S
C744 C753 1.390 . S
C745 C744 1.387 . S
C745 C747 1.387 . S
H746 C753 0.950 . S
C747 C745 1.387 . S
C747 C749 1.390 . S
C747 H751 0.950 . S
H748 C744 0.950 . S
C749 C747 1.390 . S
C749 C750 1.387 . S
C749 H752 0.950 . S
C750 C749 1.387 . S
C750 C753 1.387 . S
H751 C747 0.950 . S
H752 C749 0.950 . S
C753 C744 1.390 . S
C753 H746 0.950 . S
C753 C750 1.387 . S
C754 C755 1.387 . S
C754 H758 0.950 . S
C754 C763 1.390 . S
C755 C754 1.387 . S
C755 C757 1.387 . S
H756 C763 0.950 . S
C757 C755 1.387 . S
C757 C759 1.390 . S
C757 H761 0.950 . S
H758 C754 0.950 . S
C759 C757 1.390 . S
C759 C760 1.387 . S
C759 H762 0.950 . S
C760 C759 1.387 . S
C760 C763 1.387 . S
H761 C757 0.950 . S
H762 C759 0.950 . S
C763 C754 1.390 . S
C763 H756 0.950 . S
C763 C760 1.387 . S
C764 C765 1.387 . S
C764 H768 0.950 . S
C764 C773 1.390 . S
C765 C764 1.387 . S
C765 C767 1.387 . S
H766 C773 0.950 . S
C767 C765 1.387 . S
C767 C769 1.390 . S
C767 H771 0.950 . S
H768 C764 0.950 . S
C769 C767 1.390 . S
C769 C770 1.387 . S
C769 H772 0.950 . S
C770 C769 1.387 . S
C770 C773 1.387 . S
H771 C767 0.950 . S
H772 C769 0.950 . S
C773 C764 1.390 . S
C773 H766 0.950 . S
C773 C770 1.387 . S
C774 C775 1.387 . S
C774 H778 0.950 . S
C774 C783 1.390 . S
C775 C774 1.387 . S
C775 C777 1.387 . S
H776 C783 0.950 . S
C777 C775 1.387 . S
C777 C779 1.390 . S
C777 H781 0.950 . S
H778 C774 0.950 . S
C779 C777 1.390 . S
C779 C780 1.387 . S
C779 H782 0.950 . S
C780 C779 1.387 . S
C780 C783 1.387 . S
H781 C777 0.950 . S
H782 C779 0.950 . S
C783 C774 1.390 . S
C783 H776 0.950 . S
C783 C780 1.387 . S
C784 C785 1.387 . S
C784 H788 0.950 . S
C784 C793 1.390 . S
C785 C784 1.387 . S
C785 C787 1.387 . S
H786 C793 0.950 . S
C787 C785 1.387 . S
C787 C789 1.390 . S
C787 H791 0.950 . S
H788 C784 0.950 . S
C789 C787 1.390 . S
C789 C790 1.387 . S
C789 H792 0.950 . S
C790 C789 1.387 . S
C790 C793 1.387 . S
H791 C787 0.950 . S
H792 C789 0.950 . S
C793 C784 1.390 . S
C793 H786 0.950 . S
C793 C790 1.387 . S
C794 C795 1.387 . S
C794 H798 0.950 . S
C794 C803 1.390 . S
C795 C794 1.387 . S
C795 C797 1.387 . S
H796 C803 0.950 . S
C797 C795 1.387 . S
C797 C799 1.390 . S
C797 H801 0.950 . S
H798 C794 0.950 . S
C799 C797 1.390 . S
C799 C800 1.387 . S
C799 H802 0.950 . S
C800 C799 1.387 . S
C800 C803 1.387 . S
H801 C797 0.950 . S
H802 C799 0.950 . S
C803 C794 1.390 . S
C803 H796 0.950 . S
C803 C800 1.387 . S
C804 C805 1.387 . S
C804 H808 0.950 . S
C804 C813 1.390 . S
C805 C804 1.387 . S
C805 C807 1.387 . S
H806 C813 0.950 . S
C807 C805 1.387 . S
C807 C809 1.390 . S
C807 H811 0.950 . S
H808 C804 0.950 . S
C809 C807 1.390 . S
C809 C810 1.387 . S
C809 H812 0.950 . S
C810 C809 1.387 . S
C810 C813 1.387 . S
H811 C807 0.950 . S
H812 C809 0.950 . S
C813 C804 1.390 . S
C813 H806 0.950 . S
C813 C810 1.387 . S
C814 C815 1.387 . S
C814 H818 0.950 . S
C814 C823 1.390 . S
C815 C814 1.387 . S
C815 C817 1.387 . S
H816 C823 0.950 . S
C817 C815 1.387 . S
C817 C819 1.390 . S
C817 H821 0.950 . S
H818 C814 0.950 . S
C819 C817 1.390 . S
C819 C820 1.387 . S
C819 H822 0.950 . S
C820 C819 1.387 . S
C820 C823 1.387 . S
H821 C817 0.950 . S
H822 C819 0.950 . S
C823 C814 1.390 . S
C823 H816 0.950 . S
C823 C820 1.387 . S
C824 C825 1.387 . S
C824 H828 0.950 . S
C824 C833 1.390 . S
C825 C824 1.387 . S
C825 C827 1.387 . S
H826 C833 0.950 . S
C827 C825 1.387 . S
C827 C829 1.390 . S
C827 H831 0.950 . S
H828 C824 0.950 . S
C829 C827 1.390 . S
C829 C830 1.387 . S
C829 H832 0.950 . S
C830 C829 1.387 . S
C830 C833 1.387 . S
H831 C827 0.950 . S
H832 C829 0.950 . S
C833 C824 1.390 . S
C833 H826 0.950 . S
C833 C830 1.387 . S
C834 C835 1.387 . S
C834 H838 0.950 . S
C834 C843 1.390 . S
C835 C834 1.387 . S
C835 C837 1.387 . S
H836 C843 0.950 . S
C837 C835 1.387 . S
C837 C839 1.390 . S
C837 H841 0.950 . S
H838 C834 0.950 . S
C839 C837 1.390 . S
C839 C840 1.387 . S
C839 H842 0.950 . S
C840 C839 1.387 . S
C840 C843 1.387 . S
H841 C837 0.950 . S
H842 C839 0.950 . S
C843 C834 1.390 . S
C843 H836 0.950 . S
C843 C840 1.387 . S
C844 C845 1.387 . S
C844 H848 0.950 . S
C844 C853 1.390 . S
C845 C844 1.387 . S
C845 C847 1.387 . S
H846 C853 0.950 . S
C847 C845 1.387 . S
C847 C849 1.390 . S
C847 H851 0.950 . S
H848 C844 0.950 . S
C849 C847 1.390 . S
C849 C850 1.387 . S
C849 H852 0.950 . S
C850 C849 1.387 . S
C850 C853 1.387 . S
H851 C847 0.950 . S
H852 C849 0.950 . S
C853 C844 1.390 . S
C853 H846 0.950 . S
C853 C850 1.387 . S
C854 C855 1.387 . S
C854 H858 0.950 . S
C854 C863 1.390 . S
C855 C854 1.387 . S
C855 C857 1.387 . S
H856 C863 0.950 . S
C857 C855 1.387 . S
C857 C859 1.390 . S
C857 H861 0.950 . S
H858 C854 0.950 . S
C859 C857 1.390 . S
C859 C860 1.387 . S
C859 H862 0.950 . S
C860 C859 1.387 . S
C860 C863 1.387 . S
H861 C857 0.950 . S
H862 C859 0.950 . S
C863 C854 1.390 . S
C863 H856 0.950 . S
C863 C860 1.387 . S
C864 C865 1.387 . S
C864 H868 0.950 . S
C864 C873 1.390 . S
C865 C864 1.387 . S
C865 C867 1.387 . S
H866 C873 0.950 . S
C867 C865 1.387 . S
C867 C869 1.390 . S
C867 H871 0.950 . S
H868 C864 0.950 . S
C869 C867 1.390 . S
C869 C870 1.387 . S
C869 H872 0.950 . S
C870 C869 1.387 . S
C870 C873 1.387 . S
H871 C867 0.950 . S
H872 C869 0.950 . S
C873 C864 1.390 . S
C873 H866 0.950 . S
C873 C870 1.387 . S
C874 C875 1.387 . S
C874 H878 0.950 . S
C874 C883 1.390 . S
C875 C874 1.387 . S
C875 C877 1.387 . S
H876 C883 0.950 . S
C877 C875 1.387 . S
C877 C879 1.390 . S
C877 H881 0.950 . S
H878 C874 0.950 . S
C879 C877 1.390 . S
C879 C880 1.387 . S
C879 H882 0.950 . S
C880 C879 1.387 . S
C880 C883 1.387 . S
H881 C877 0.950 . S
H882 C879 0.950 . S
C883 C874 1.390 . S
C883 H876 0.950 . S
C883 C880 1.387 . S
C884 C885 1.387 . S
C884 H888 0.950 . S
C884 C893 1.390 . S
C885 C884 1.387 . S
C885 C887 1.387 . S
H886 C893 0.950 . S
C887 C885 1.387 . S
C887 C889 1.390 . S
C887 H891 0.950 . S
H888 C884 0.950 . S
C889 C887 1.390 . S
C889 C890 1.387 . S
C889 H892 0.950 . S
C890 C889 1.387 . S
C890 C893 1.387 . S
H891 C887 0.950 . S
H892 C889 0.950 . S
C893 C884 1.390 . S
C893 H886 0.950 . S
C893 C890 1.387 . S
C894 C895 1.387 . S
C894 H898 0.950 . S
C894 C903 1.390 . S
C895 C894 1.387 . S
C895 C897 1.387 . S
H896 C903 0.950 . S
C897 C895 1.387 . S
C897 C899 1.390 . S
C897 H901 0.950 . S
H898 C894 0.950 . S
C899 C897 1.390 . S
C899 C900 1.387 . S
C899 H902 0.950 . S
C900 C899 1.387 . S
C900 C903 1.387 . S
H901 C897 0.950 . S
H902 C899 0.950 . S
C903 C894 1.390 . S
C903 H896 0.950 . S
C903 C900 1.387 . S
C904 C905 1.387 . S
C904 H908 0.950 . S
C904 C913 1.390 . S
C905 C904 1.387 . S
C905 C907 1.387 . S
H906 C913 0.950 . S
C907 C905 1.387 . S
C907 C909 1.390 . S
C907 H911 0.950 . S
H908 C904 0.950 . S
C909 C907 1.390 . S
C909 C910 1.387 . S
C909 H912 0.950 . S
C910 C909 1.387 . S
C910 C913 1.387 . S
H911 C907 0.950 . S
H912 C909 0.950 . S
C913 C904 1.390 . S
C913 H906 0.950 . S
C913 C910 1.387 . S
C914 C915 1.387 . S
C914 H918 0.950 . S
C914 C923 1.390 . S
C915 C914 1.387 . S
C915 C917 1.387 . S
H916 C923 0.950 . S
C917 C915 1.387 . S
C917 C919 1.390 . S
C917 H921 0.950 . S
H918 C914 0.950 . S
C919 C917 1.390 . S
C919 C920 1.387 . S
C919 H922 0.950 . S
C920 C919 1.387 . S
C920 C923 1.387 . S
H921 C917 0.950 . S
H922 C919 0.950 . S
C923 C914 1.390 . S
C923 H916 0.950 . S
C923 C920 1.387 . S
C924 C925 1.387 . S
C924 H928 0.950 . S
C924 C933 1.390 . S
C925 C924 1.387 . S
C925 C927 1.387 . S
H926 C933 0.950 . S
C927 C925 1.387 . S
C927 C929 1.390 . S
C927 H931 0.950 . S
H928 C924 0.950 . S
C929 C927 1.390 . S
C929 C930 1.387 . S
C929 H932 0.950 . S
C930 C929 1.387 . S
C930 C933 1.387 . S
H931 C927 0.950 . S
H932 C929 0.950 . S
C933 C924 1.390 . S
C933 H926 0.950 . S
C933 C930 1.387 . S
C934 C935 1.387 . S
C934 H938 0.950 . S
C934 C943 1.390 . S
C935 C934 1.387 . S
C935 C937 1.387 . S
H936 C943 0.950 . S
C937 C935 1.387 . S
C937 C939 1.390 . S
C937 H941 0.950 . S
H938 C934 0.950 . S
C939 C937 1.390 . S
C939 C940 1.387 . S
C939 H942 0.950 . S
C940 C939 1.387 . S
C940 C943 1.387 . S
H941 C937 0.950 . S
H942 C939 0.950 . S
C943 C934 1.390 . S
C943 H936 0.950 . S
C943 C940 1.387 . S
C944 C945 1.387 . S
C944 H948 0.950 . S
C944 C953 1.390 . S
C945 C944 1.387 . S
C945 C947 1.387 . S
H946 C953 0.950 . S
C947 C945 1.387 . S
C947 C949 1.390 . S
C947 H951 0.950 . S
H948 C944 0.950 . S
C949 C947 1.390 . S
C949 C950 1.387 . S
C949 H952 0.950 . S
C950 C949 1.387 . S
C950 C953 1.387 . S
H951 C947 0.950 . S
H952 C949 0.950 . S
C953 C944 1.390 . S
C953 H946 0.950 . S
C953 C950 1.387 . S
C954 C955 1.387 . S
C954 H958 0.950 . S
C954 C963 1.390 . S
C955 C954 1.387 . S
C955 C957 1.387 . S
H956 C963 0.950 . S
C957 C955 1.387 . S
C957 C959 1.390 . S
C957 H961 0.950 . S
H958 C954 0.950 . S
C959 C957 1.390 . S
C959 C960 1.387 . S
C959 H962 0.950 . S
C960 C959 1.387 . S
C960 C963 1.387 . S
H961 C957 0.950 . S
H962 C959 0.950 . S
C963 C954 1.390 . S
C963 H956 0.950 . S
C963 C960 1.387 . S
C964 C965 1.387 . S
C964 H968 0.950 . S
C964 C973 1.390 . S
C965 C964 1.387 . S
C965 C967 1.387 . S
H966 C973 0.950 . S
C967 C965 1.387 . S
C967 C969 1.390 . S
C967 H971 0.950 . S
H968 C964 0.950 . S
C969 C967 1.390 . S
C969 C970 1.387 . S
C969 H972 0.950 . S
C970 C969 1.387 . S
C970 C973 1.387 . S
H971 C967 0.950 . S
H972 C969 0.950 . S
C973 C964 1.390 . S
C973 H966 0.950 . S
C973 C970 1.387 . S
C974 C975 1.387 . S
C974 H978 0.950 . S
C974 C983 1.390 . S
C975 C974 1.387 . S
C975 C977 1.387 . S
H976 C983 0.950 . S
C977 C975 1.387 . S
C977 C979 1.390 . S
C977 H981 0.950 . S
H978 C974 0.950 . S
C979 C977 1.390 . S
C979 C980 1.387 . S
C979 H982 0.950 . S
C980 C979 1.387 . S
C980 C983 1.387 . S
H981 C977 0.950 . S
H982 C979 0.950 . S
C983 C974 1.390 . S
C983 H976 0.950 . S
C983 C980 1.387 . S
C984 C985 1.383 1_554 S
C984 H988 0.950 . S
C984 C993 1.390 . S
C985 C984 1.383 1_556 S
C985 C987 1.392 . S
H986 C993 0.950 . S
C987 C985 1.392 . S
C987 C989 1.390 . S
C987 H991 0.950 . S
H988 C984 0.950 . S
C989 C987 1.390 . S
C989 C990 1.392 . S
C989 H992 0.950 . S
C990 C989 1.392 . S
C990 C993 1.383 1_556 S
H991 C987 0.950 . S
H992 C989 0.950 . S
C993 C984 1.390 . S
C993 H986 0.950 . S
C993 C990 1.383 1_554 S
C994 C995 1.387 . S
C994 H998 0.950 . S
C994 C1003 1.390 . S
C995 C994 1.387 . S
C995 C997 1.387 . S
H996 C1003 0.950 . S
C997 C995 1.387 . S
C997 C999 1.390 . S
C997 H1001 0.950 . S
H998 C994 0.950 . S
C999 C997 1.390 . S
C999 C1000 1.387 . S
C999 H1002 0.950 . S
C1000 C999 1.387 . S
C1000 C1003 1.387 . S
H1001 C997 0.950 . S
H1002 C999 0.950 . S
C1003 C994 1.390 . S
C1003 H996 0.950 . S
C1003 C1000 1.387 . S
C1004 C1005 1.383 1_556 S
C1004 H1008 0.950 . S
C1004 C1013 1.390 . S
C1005 C1004 1.383 1_554 S
C1005 C1007 1.392 . S
H1006 C1013 0.950 . S
C1007 C1005 1.392 . S
C1007 C1009 1.390 . S
C1007 H1011 0.950 . S
H1008 C1004 0.950 . S
C1009 C1007 1.390 . S
C1009 C1010 1.392 . S
C1009 H1012 0.950 . S
C1010 C1009 1.392 . S
C1010 C1013 1.383 1_554 S
H1011 C1007 0.950 . S
H1012 C1009 0.950 . S
C1013 C1004 1.390 . S
C1013 H1006 0.950 . S
C1013 C1010 1.383 1_556 S
C1014 C1015 1.387 . S
C1014 H1018 0.950 . S
C1014 C1023 1.390 . S
C1015 C1014 1.387 . S
C1015 C1017 1.387 . S
H1016 C1023 0.950 . S
C1017 C1015 1.387 . S
C1017 C1019 1.390 . S
C1017 H1021 0.950 . S
H1018 C1014 0.950 . S
C1019 C1017 1.390 . S
C1019 C1020 1.387 . S
C1019 H1022 0.950 . S
C1020 C1019 1.387 . S
C1020 C1023 1.387 . S
H1021 C1017 0.950 . S
H1022 C1019 0.950 . S
C1023 C1014 1.390 . S
C1023 H1016 0.950 . S
C1023 C1020 1.387 . S
C1024 C1025 1.392 . S
C1024 H1028 0.950 . S
C1024 C1033 1.390 . S
C1025 C1024 1.392 . S
C1025 C1027 1.383 1_556 S
H1026 C1033 0.950 . S
C1027 C1025 1.383 1_554 S
C1027 C1029 1.390 . S
C1027 H1031 0.950 . S
H1028 C1024 0.950 . S
C1029 C1027 1.390 . S
C1029 C1030 1.383 1_554 S
C1029 H1032 0.950 . S
C1030 C1029 1.383 1_556 S
C1030 C1033 1.392 . S
H1031 C1027 0.950 . S
H1032 C1029 0.950 . S
C1033 C1024 1.390 . S
C1033 H1026 0.950 . S
C1033 C1030 1.392 . S
C1034 C1035 1.387 . S
C1034 H1038 0.950 . S
C1034 C1043 1.390 . S
C1035 C1034 1.387 . S
C1035 C1037 1.387 . S
H1036 C1043 0.950 . S
C1037 C1035 1.387 . S
C1037 C1039 1.390 . S
C1037 H1041 0.950 . S
H1038 C1034 0.950 . S
C1039 C1037 1.390 . S
C1039 C1040 1.387 . S
C1039 H1042 0.950 . S
C1040 C1039 1.387 . S
C1040 C1043 1.387 . S
H1041 C1037 0.950 . S
H1042 C1039 0.950 . S
C1043 C1034 1.390 . S
C1043 H1036 0.950 . S
C1043 C1040 1.387 . S
C1044 C1045 1.392 . S
C1044 H1048 0.950 . S
C1044 C1053 1.390 . S
C1045 C1044 1.392 . S
C1045 C1047 1.383 1_554 S
H1046 C1053 0.950 . S
C1047 C1045 1.383 1_556 S
C1047 C1049 1.390 . S
C1047 H1051 0.950 . S
H1048 C1044 0.950 . S
C1049 C1047 1.390 . S
C1049 C1050 1.383 1_556 S
C1049 H1052 0.950 . S
C1050 C1049 1.383 1_554 S
C1050 C1053 1.392 . S
H1051 C1047 0.950 . S
H1052 C1049 0.950 . S
C1053 C1044 1.390 . S
C1053 H1046 0.950 . S
C1053 C1050 1.392 . S
C1054 C1055 1.387 . S
C1054 H1058 0.950 . S
C1054 C1063 1.390 . S
C1055 C1054 1.387 . S
C1055 C1057 1.387 . S
H1056 C1063 0.950 . S
C1057 C1055 1.387 . S
C1057 C1059 1.390 . S
C1057 H1061 0.950 . S
H1058 C1054 0.950 . S
C1059 C1057 1.390 . S
C1059 C1060 1.387 . S
C1059 H1062 0.950 . S
C1060 C1059 1.387 . S
C1060 C1063 1.387 . S
H1061 C1057 0.950 . S
H1062 C1059 0.950 . S
C1063 C1054 1.390 . S
C1063 H1056 0.950 . S
C1063 C1060 1.387 . S
C1064 C1065 1.387 . S
C1064 H1068 0.950 . S
C1064 C1073 1.390 . S
C1065 C1064 1.387 . S
C1065 C1067 1.387 . S
H1066 C1073 0.950 . S
C1067 C1065 1.387 . S
C1067 C1069 1.390 . S
C1067 H1071 0.950 . S
H1068 C1064 0.950 . S
C1069 C1067 1.390 . S
C1069 C1070 1.387 . S
C1069 H1072 0.950 . S
C1070 C1069 1.387 . S
C1070 C1073 1.387 . S
H1071 C1067 0.950 . S
H1072 C1069 0.950 . S
C1073 C1064 1.390 . S
C1073 H1066 0.950 . S
C1073 C1070 1.387 . S
C1074 C1075 1.387 . S
C1074 H1078 0.950 . S
C1074 C1083 1.390 . S
C1075 C1074 1.387 . S
C1075 C1077 1.387 . S
H1076 C1083 0.950 . S
C1077 C1075 1.387 . S
C1077 C1079 1.390 . S
C1077 H1081 0.950 . S
H1078 C1074 0.950 . S
C1079 C1077 1.390 . S
C1079 C1080 1.387 . S
C1079 H1082 0.950 . S
C1080 C1079 1.387 . S
C1080 C1083 1.387 . S
H1081 C1077 0.950 . S
H1082 C1079 0.950 . S
C1083 C1074 1.390 . S
C1083 H1076 0.950 . S
C1083 C1080 1.387 . S
C1084 C1085 1.387 . S
C1084 H1088 0.950 . S
C1084 C1093 1.390 . S
C1085 C1084 1.387 . S
C1085 C1087 1.387 . S
H1086 C1093 0.950 . S
C1087 C1085 1.387 . S
C1087 C1089 1.390 . S
C1087 H1091 0.950 . S
H1088 C1084 0.950 . S
C1089 C1087 1.390 . S
C1089 C1090 1.387 . S
C1089 H1092 0.950 . S
C1090 C1089 1.387 . S
C1090 C1093 1.387 . S
H1091 C1087 0.950 . S
H1092 C1089 0.950 . S
C1093 C1084 1.390 . S
C1093 H1086 0.950 . S
C1093 C1090 1.387 . S
C1094 C1095 1.387 . S
C1094 H1098 0.950 . S
C1094 C1103 1.390 . S
C1095 C1094 1.387 . S
C1095 C1097 1.387 . S
H1096 C1103 0.950 . S
C1097 C1095 1.387 . S
C1097 C1099 1.390 . S
C1097 H1101 0.950 . S
H1098 C1094 0.950 . S
C1099 C1097 1.390 . S
C1099 C1100 1.387 . S
C1099 H1102 0.950 . S
C1100 C1099 1.387 . S
C1100 C1103 1.387 . S
H1101 C1097 0.950 . S
H1102 C1099 0.950 . S
C1103 C1094 1.390 . S
C1103 H1096 0.950 . S
C1103 C1100 1.387 . S
C545 C498 1.606 . S
C550 C22 1.606 . S
C555 C83 1.606 . S
C560 C15 1.606 . S
C565 C56 1.606 . S
C570 C389 1.606 . S
C575 C49 1.606 . S
C580 C260 1.606 . S
C585 C90 1.606 . S
C590 C430 1.606 . S
C595 C117 1.602 . S
C600 C321 1.602 . S
C605 C124 1.602 . S
C610 C185 1.602 . S
C615 C151 1.602 . S
C620 C362 1.602 . S
C625 C158 1.602 . S
C630 C226 1.602 . S
C635 C192 1.602 . S
C640 C525 1.602 . S
C645 C219 1.606 . S
C650 C287 1.606 . S
C655 C464 1.604 . S
C660 C253 1.604 . S
C665 C294 1.606 . S
C670 C355 1.606 . S
C675 C328 1.606 . S
C680 C532 1.606 . S
C685 C396 1.602 . S
C690 C457 1.602 . S
C695 C423 1.606 . S
C700 C491 1.606 . S
C705 C17 1.785 . S
C710 C51 1.785 . S
C715 C119 1.785 . S
C720 C85 1.785 . S
C725 C153 1.785 . S
C730 C187 1.785 . S
C735 C221 1.785 . S
C740 C255 1.785 . S
C745 C289 1.785 . S
C750 C323 1.785 . S
C755 C357 1.785 . S
C760 C391 1.785 . S
C765 C425 1.785 . S
C770 C459 1.785 . S
C775 C527 1.785 . S
C780 C493 1.785 . S
C785 C307 1.813 . S
C790 C1 1.813 . S
C795 C3 1.813 1_655 S
C800 C309 1.813 . S
C805 C35 1.813 . S
C810 C273 1.813 . S
C815 C37 1.811 1_655 S
C820 C275 1.811 . S
C825 C375 1.811 . S
C830 C69 1.811 . S
C835 C377 1.813 . S
C840 C71 1.813 1_455 S
C845 C343 1.813 . S
C850 C105 1.813 . S
C855 C341 1.813 . S
C860 C103 1.813 1_455 S
C865 C139 1.813 . S
C870 C445 1.813 . S
C875 C137 1.813 1_655 S
C880 C443 1.813 . S
C885 C411 1.813 . S
C890 C171 1.813 . S
C895 C409 1.811 . S
C900 C173 1.811 1_655 S
C905 C511 1.811 . S
C910 C207 1.811 . S
C915 C205 1.811 1_455 S
C920 C513 1.811 . S
C925 C241 1.811 . S
C930 C479 1.811 . S
C935 C239 1.811 1_455 S
C940 C477 1.811 . S
C945 C6 1.525 . S
C950 C28 1.525 . S
C955 C40 1.525 . S
C960 C62 1.525 . S
C965 C74 1.525 . S
C970 C96 1.525 . S
C975 C130 1.525 . S
C980 C108 1.525 . S
C985 C142 1.525 . S
C990 C164 1.525 . S
C995 C176 1.525 . S
C1000 C198 1.525 . S
C1005 C210 1.525 . S
C1010 C232 1.525 . S
C1015 C266 1.525 . S
C1020 C244 1.525 . S
C1025 C300 1.525 1_455 S
C1030 C278 1.525 . S
C1035 C334 1.525 1_455 S
C1040 C312 1.525 . S
C1045 C368 1.525 . S
C1050 C346 1.525 1_655 S
C1055 C402 1.525 1_655 S
C1060 C380 1.525 . S
C1065 C414 1.525 1_455 S
C1070 C436 1.525 . S
C1075 C448 1.525 1_455 S
C1080 C470 1.525 . S
C1085 C482 1.525 1_655 S
C1090 C504 1.525 . S
C1095 C538 1.525 1_655 S
C1100 C516 1.525 . S
