# Generated by pormake.
# Topology vmh, (6)-cn, num edge types: 1
# Building blocks:
#     Node 0, Type 0, BuildingBlock: OJICUG_clean_sbu_0, # of connection points: 6
#     Node 1, Type 0, BuildingBlock: OJICUG_clean_sbu_0, # of connection points: 6
#     Node 2, Type 0, BuildingBlock: OJICUG_clean_sbu_0, # of connection points: 6
#     Node 3, Type 0, BuildingBlock: OJICUG_clean_sbu_0, # of connection points: 6
#     Node 4, Type 0, BuildingBlock: OJICUG_clean_sbu_0, # of connection points: 6
#     Node 5, Type 0, BuildingBlock: OJICUG_clean_sbu_0, # of connection points: 6
#     Node 6, Type 0, BuildingBlock: OJICUG_clean_sbu_0, # of connection points: 6
#     Node 7, Type 0, BuildingBlock: OJICUG_clean_sbu_0, # of connection points: 6
#     Edge 8, Type (0, 0), BuildingBlock: XUDNAN_clean_linker_2, # of connection points: 2
#     Edge 9, Type (0, 0), BuildingBlock: XUDNAN_clean_linker_2, # of connection points: 2
#     Edge 10, Type (0, 0), BuildingBlock: XUDNAN_clean_linker_2, # of connection points: 2
#     Edge 11, Type (0, 0), BuildingBlock: XUDNAN_clean_linker_2, # of connection points: 2
#     Edge 12, Type (0, 0), BuildingBlock: XUDNAN_clean_linker_2, # of connection points: 2
#     Edge 13, Type (0, 0), BuildingBlock: XUDNAN_clean_linker_2, # of connection points: 2
#     Edge 14, Type (0, 0), BuildingBlock: XUDNAN_clean_linker_2, # of connection points: 2
#     Edge 15, Type (0, 0), BuildingBlock: XUDNAN_clean_linker_2, # of connection points: 2
#     Edge 16, Type (0, 0), BuildingBlock: XUDNAN_clean_linker_2, # of connection points: 2
#     Edge 17, Type (0, 0), BuildingBlock: XUDNAN_clean_linker_2, # of connection points: 2
#     Edge 18, Type (0, 0), BuildingBlock: XUDNAN_clean_linker_2, # of connection points: 2
#     Edge 19, Type (0, 0), BuildingBlock: XUDNAN_clean_linker_2, # of connection points: 2
#     Edge 20, Type (0, 0), BuildingBlock: XUDNAN_clean_linker_2, # of connection points: 2
#     Edge 21, Type (0, 0), BuildingBlock: XUDNAN_clean_linker_2, # of connection points: 2
#     Edge 22, Type (0, 0), BuildingBlock: XUDNAN_clean_linker_2, # of connection points: 2
#     Edge 23, Type (0, 0), BuildingBlock: XUDNAN_clean_linker_2, # of connection points: 2
#     Edge 24, Type (0, 0), BuildingBlock: XUDNAN_clean_linker_2, # of connection points: 2
#     Edge 25, Type (0, 0), BuildingBlock: XUDNAN_clean_linker_2, # of connection points: 2
#     Edge 26, Type (0, 0), BuildingBlock: XUDNAN_clean_linker_2, # of connection points: 2
#     Edge 27, Type (0, 0), BuildingBlock: XUDNAN_clean_linker_2, # of connection points: 2
#     Edge 28, Type (0, 0), BuildingBlock: XUDNAN_clean_linker_2, # of connection points: 2
#     Edge 29, Type (0, 0), BuildingBlock: XUDNAN_clean_linker_2, # of connection points: 2
#     Edge 30, Type (0, 0), BuildingBlock: XUDNAN_clean_linker_2, # of connection points: 2
#     Edge 31, Type (0, 0), BuildingBlock: XUDNAN_clean_linker_2, # of connection points: 2
# Relax obj value: 0.243
# Max RMSD: 0.270
# Mean RMSD: 0.270
data_MOF--net-vmh--node1-OJICUG_clean_sbu_0--edge1-XUDNAN_clean_linker_2
_symmetry_space_group_name_H-M    P1
_symmetry_Int_Tables_number       1
_symmetry_cell_setting            triclinic
loop_
_symmetry_equiv_pos_as_xyz
'x, y, z'
_cell_length_a     28.31515
_cell_length_b     42.976158
_cell_length_c     30.099343
_cell_angle_alpha  90.215835
_cell_angle_beta   100.41043
_cell_angle_gamma 90.017314
loop_
_atom_site_label
_atom_site_type_symbol
_atom_site_fract_x
_atom_site_fract_y
_atom_site_fract_z
_atom_type_partial_charge
Sc0 Sc 0.23537 0.09783 0.10404 0.0
Sc1 Sc 0.27029 0.03973 0.03567 0.0
Sc2 Sc 0.31164 0.11577 0.03054 0.0
O3 O 0.27126 0.08426 0.05564 0.0
C4 C 0.22824 0.15798 0.03959 0.0
C5 C 0.16023 0.05441 0.04377 0.0
C6 C 0.27201 0.07397 0.94404 0.0
C7 C 0.26611 0.02951 0.1372 0.0
C8 C 0.33749 0.12766 0.1337 0.0
C9 C 0.38068 0.05879 0.04393 0.0
O10 O 0.22358 0.14507 0.07672 0.0
O11 O 0.19388 0.03715 0.03457 0.0
O12 O 0.2964 0.09655 0.96355 0.0
O13 O 0.24201 0.05422 0.13856 0.0
O14 O 0.33263 0.13949 0.09454 0.0
O15 O 0.34654 0.03909 0.03533 0.0
O16 O 0.30476 0.11044 0.14469 0.0
O17 O 0.28593 0.02254 0.10391 0.0
O18 O 0.37397 0.08778 0.04764 0.0
O19 O 0.1676 0.08048 0.06502 0.0
O20 O 0.25121 0.14512 0.01218 0.0
O21 O 0.2552 0.05249 0.9656 0.0
Sc22 Sc 0.76157 0.08634 0.37844 0.0
Sc23 Sc 0.75741 0.01296 0.43249 0.0
Sc24 Sc 0.66749 0.06837 0.43519 0.0
O25 O 0.72926 0.05592 0.41536 0.0
C26 C 0.72495 0.13254 0.44776 0.0
C27 C 0.85228 0.05358 0.44315 0.0
C28 C 0.7212 0.03466 0.52267 0.0
C29 C 0.77806 0.02171 0.33229 0.0
C30 C 0.64847 0.09419 0.33548 0.0
C31 C 0.64763 0.99703 0.40858 0.0
O32 O 0.75553 0.12561 0.42302 0.0
O33 O 0.82768 0.03151 0.4552 0.0
O34 O 0.69336 0.05549 0.50327 0.0
O35 O 0.77202 0.05101 0.33088 0.0
O36 O 0.635 0.08221 0.36939 0.0
O37 O 0.69078 0.98842 0.41118 0.0
O38 O 0.69285 0.09916 0.33409 0.0
O39 O 0.774 0.00497 0.36617 0.0
O40 O 0.63575 0.02417 0.41875 0.0
O41 O 0.83393 0.07505 0.41586 0.0
O42 O 0.69132 0.11439 0.45342 0.0
O43 O 0.74493 0.01648 0.5014 0.0
Sc44 Sc 0.77893 0.90225 0.8806 0.0
Sc45 Sc 0.77524 0.96988 0.94119 0.0
Sc46 Sc 0.71293 0.90399 0.96693 0.0
O47 O 0.7552 0.92526 0.92989 0.0
C48 C 0.66724 0.88695 0.86435 0.0
C49 C 0.75889 0.96964 0.83832 0.0
C50 C 0.6707 0.9713 0.96515 0.0
C51 C 0.87032 0.93837 0.92524 0.0
C52 C 0.77262 0.84615 0.94908 0.0
C53 C 0.78939 0.94183 0.039 0.0
O54 O 0.70422 0.89463 0.84763 0.0
O55 O 0.74571 0.9818 0.87264 0.0
O56 O 0.66439 0.94217 0.96185 0.0
O57 O 0.85265 0.9112 0.91595 0.0
O58 O 0.75542 0.86258 0.97727 0.0
O59 O 0.80485 0.95905 0.01026 0.0
O60 O 0.7799 0.85703 0.91174 0.0
O61 O 0.84418 0.96247 0.92236 0.0
O62 O 0.75466 0.92264 0.02848 0.0
O63 O 0.78023 0.94351 0.84015 0.0
O64 O 0.66805 0.88519 0.90687 0.0
O65 O 0.70998 0.98431 0.96167 0.0
Sc66 Sc 0.25994 0.93167 0.59568 0.0
Sc67 Sc 0.2805 0.99951 0.53639 0.0
Sc68 Sc 0.35791 0.93772 0.54172 0.0
O69 O 0.2978 0.95533 0.55671 0.0
C70 C 0.3683 0.9143 0.64247 0.0
C71 C 0.27128 1.0013 0.63745 0.0
C72 C 0.39178 1.00135 0.54303 0.0
C73 C 0.17717 0.97028 0.53581 0.0
C74 C 0.28944 0.87952 0.52807 0.0
C75 C 0.30304 0.96907 0.44998 0.0
O76 O 0.32433 0.91875 0.64565 0.0
O77 O 0.28902 0.01389 0.60571 0.0
O78 O 0.39194 0.97904 0.56968 0.0
O79 O 0.19159 0.94351 0.55111 0.0
O80 O 0.32352 0.89555 0.51759 0.0
O81 O 0.27191 0.98404 0.46742 0.0
O82 O 0.26417 0.88843 0.55713 0.0
O83 O 0.2055 0.99301 0.53531 0.0
O84 O 0.33891 0.95537 0.47364 0.0
O85 O 0.25503 0.97339 0.63562 0.0
O86 O 0.38333 0.9182 0.60588 0.0
O87 O 0.352 0.01434 0.52848 0.0
Sc88 Sc 0.74523 0.57588 0.10947 0.0
Sc89 Sc 0.75561 0.50935 0.04155 0.0
Sc90 Sc 0.83837 0.56858 0.04968 0.0
O91 O 0.77775 0.55238 0.06557 0.0
C92 C 0.77243 0.62829 0.04228 0.0
C93 C 0.65562 0.54005 0.05311 0.0
C94 C 0.77685 0.5416 0.95654 0.0
C95 C 0.75656 0.50508 0.14552 0.0
C96 C 0.85637 0.59061 0.15165 0.0
C97 C 0.86546 0.50429 0.04262 0.0
O98 O 0.74682 0.61911 0.07086 0.0
O99 O 0.68179 0.5179 0.04402 0.0
O100 O 0.814 0.55404 0.98034 0.0
O101 O 0.74416 0.53361 0.14823 0.0
O102 O 0.87003 0.58493 0.11482 0.0
O103 O 0.8245 0.49255 0.02902 0.0
O104 O 0.81232 0.58851 0.15554 0.0
O105 O 0.76692 0.4926 0.10985 0.0
O106 O 0.86865 0.52517 0.07209 0.0
O107 O 0.67303 0.56514 0.07235 0.0
O108 O 0.80663 0.61251 0.03132 0.0
O109 O 0.7454 0.52691 0.9738 0.0
Sc110 Sc 0.26766 0.59932 0.38521 0.0
Sc111 Sc 0.25962 0.53238 0.45016 0.0
Sc112 Sc 0.20658 0.60167 0.47644 0.0
O113 O 0.24497 0.57788 0.43723 0.0
C114 C 0.26884 0.6579 0.44913 0.0
C115 C 0.3591 0.55879 0.43004 0.0
C116 C 0.27972 0.56628 0.5478 0.0
C117 C 0.24065 0.53198 0.34329 0.0
C118 C 0.15398 0.61556 0.37637 0.0
C119 C 0.16221 0.5336 0.48135 0.0
O120 O 0.28626 0.64286 0.4196 0.0
O121 O 0.33246 0.53923 0.44503 0.0
O122 O 0.25967 0.59205 0.53491 0.0
O123 O 0.25175 0.56039 0.34183 0.0
O124 O 0.15291 0.61094 0.41805 0.0
O125 O 0.18874 0.52022 0.45765 0.0
O126 O 0.19285 0.61432 0.35988 0.0
O127 O 0.24072 0.51771 0.38019 0.0
O128 O 0.1668 0.56207 0.49219 0.0
O129 O 0.34245 0.58299 0.40758 0.0
O130 O 0.23875 0.64604 0.47041 0.0
O131 O 0.27896 0.5426 0.52181 0.0
Sc132 Sc 0.24769 0.42635 0.88674 0.0
Sc133 Sc 0.22754 0.49843 0.93885 0.0
Sc134 Sc 0.14527 0.43775 0.93558 0.0
O135 O 0.20724 0.45411 0.92033 0.0
C136 C 0.13833 0.41361 0.83542 0.0
C137 C 0.2603 0.4924 0.84298 0.0
C138 C 0.11734 0.5076 0.90576 0.0
C139 C 0.32683 0.46228 0.96087 0.0
C140 C 0.21071 0.37723 0.95181 0.0
C141 C 0.18671 0.4737 0.02487 0.0
O142 O 0.18379 0.41117 0.83695 0.0
O143 O 0.25093 0.50799 0.87626 0.0
O144 O 0.10836 0.48019 0.91717 0.0
O145 O 0.31548 0.44034 0.93179 0.0
O146 O 0.174 0.3932 0.95524 0.0
O147 O 0.20776 0.49418 0.00494 0.0
O148 O 0.24214 0.38606 0.92915 0.0
O149 O 0.29754 0.4832 0.96818 0.0
O150 O 0.16464 0.45068 0.00463 0.0
O151 O 0.25814 0.46287 0.84097 0.0
O152 O 0.12037 0.42338 0.86836 0.0
O153 O 0.15941 0.51864 0.91048 0.0
Sc154 Sc 0.73034 0.4107 0.60297 0.0
Sc155 Sc 0.7846 0.46794 0.54917 0.0
Sc156 Sc 0.81726 0.39022 0.54137 0.0
O157 O 0.77639 0.42328 0.563 0.0
C158 C 0.82629 0.37718 0.6417 0.0
C159 C 0.76218 0.47648 0.64592 0.0
C160 C 0.89249 0.4426 0.57333 0.0
C161 C 0.66993 0.45721 0.53472 0.0
C162 C 0.7274 0.35229 0.53508 0.0
C163 C 0.79782 0.43597 0.45773 0.0
O164 O 0.79422 0.39587 0.65065 0.0
O165 O 0.78931 0.48278 0.61801 0.0
O166 O 0.88166 0.4139 0.57045 0.0
O167 O 0.67049 0.4308 0.55495 0.0
O168 O 0.75446 0.36546 0.51168 0.0
O169 O 0.78101 0.45763 0.47907 0.0
O170 O 0.71961 0.3643 0.57197 0.0
O171 O 0.70759 0.47359 0.53448 0.0
O172 O 0.81678 0.41157 0.47682 0.0
O173 O 0.73383 0.45341 0.64062 0.0
O174 O 0.82131 0.36436 0.60316 0.0
O175 O 0.86177 0.46427 0.56282 0.0
H176 H 0.23476 0.02513 0.89014 0.0
H177 H 0.29748 0.11711 0.8858 0.0
H178 H 0.29745 0.11034 0.80451 0.0
H179 H 0.303 0.98892 0.82173 0.0
H180 H 0.25618 0.96372 0.79318 0.0
H181 H 0.25434 0.9774 0.84936 0.0
H182 H 0.16942 1.00036 0.82205 0.0
H183 H 0.17073 0.98642 0.76573 0.0
H184 H 0.15978 0.02702 0.77518 0.0
H185 H 0.29955 0.09124 0.72626 0.0
H186 H 0.30097 0.06167 0.65605 0.0
H187 H 0.23703 0.98241 0.71231 0.0
C188 C 0.24739 0.0442 0.87196 0.0
C189 C 0.26612 0.07162 0.8944 0.0
C190 C 0.28295 0.09583 0.86938 0.0
C191 C 0.28298 0.09228 0.82313 0.0
C192 C 0.2657 0.06452 0.8024 0.0
C193 C 0.24777 0.04103 0.82588 0.0
C194 C 0.23474 0.01258 0.79659 0.0
C195 C 0.26382 0.98399 0.8164 0.0
C196 C 0.18044 0.00623 0.78946 0.0
C197 C 0.24974 0.02337 0.75348 0.0
C198 C 0.26698 0.0535 0.75726 0.0
C199 C 0.28544 0.06778 0.72259 0.0
C200 C 0.2863 0.05074 0.68294 0.0
C201 C 0.26908 0.01971 0.67856 0.0
C202 C 0.25023 0.00612 0.71431 0.0
H203 H 0.78713 0.95112 0.76046 0.0
H204 H 0.71164 0.02518 0.81713 0.0
H205 H 0.69642 0.0511 0.74263 0.0
H206 H 0.84334 0.99908 0.68671 0.0
H207 H 0.83648 0.97015 0.64248 0.0
H208 H 0.84291 0.95832 0.70061 0.0
H209 H 0.76326 0.92717 0.68163 0.0
H210 H 0.75654 0.9389 0.62349 0.0
H211 H 0.70928 0.9467 0.65486 0.0
H212 H 0.68718 0.06755 0.66143 0.0
H213 H 0.6842 0.0737 0.57973 0.0
H214 H 0.76611 0.98838 0.57731 0.0
C215 C 0.76763 0.97291 0.75756 0.0
C216 C 0.75063 0.98617 0.79471 0.0
C217 C 0.72514 0.01465 0.78916 0.0
C218 C 0.71635 0.02952 0.74704 0.0
C219 C 0.73347 0.01559 0.71114 0.0
C220 C 0.75863 0.98796 0.71607 0.0
C221 C 0.7721 0.97726 0.67211 0.0
C222 C 0.82696 0.97615 0.67571 0.0
C223 C 0.74889 0.94564 0.65716 0.0
C224 C 0.7502 0.0031 0.64136 0.0
C225 C 0.72821 0.02502 0.66452 0.0
C226 C 0.70447 0.05063 0.643 0.0
C227 C 0.70294 0.05383 0.59652 0.0
C228 C 0.725 0.03148 0.57202 0.0
C229 C 0.7492 0.00595 0.59502 0.0
H230 H 0.7414 0.97063 0.28383 0.0
H231 H 0.85263 0.04093 0.295 0.0
H232 H 0.87968 0.01925 0.22778 0.0
H233 H 0.80699 0.90645 0.23367 0.0
H234 H 0.75302 0.89465 0.19596 0.0
H235 H 0.74946 0.91074 0.25068 0.0
H236 H 0.69001 0.95284 0.21282 0.0
H237 H 0.69311 0.93671 0.15833 0.0
H238 H 0.707 0.97723 0.16967 0.0
H239 H 0.88689 0.99583 0.1546 0.0
H240 H 0.86842 0.9761 0.07646 0.0
H241 H 0.75074 0.92176 0.11065 0.0
C242 C 0.77231 0.9807 0.27267 0.0
C243 C 0.79534 0.00713 0.29427 0.0
C244 C 0.83471 0.02059 0.27846 0.0
C245 C 0.85063 0.00823 0.24077 0.0
C246 C 0.82656 0.98253 0.21927 0.0
C247 C 0.78801 0.969 0.23442 0.0
C248 C 0.76346 0.94506 0.20109 0.0
C249 C 0.76857 0.91228 0.22159 0.0
C250 C 0.71029 0.95349 0.18449 0.0
C251 C 0.79272 0.94841 0.16396 0.0
C252 C 0.82984 0.96943 0.17572 0.0
C253 C 0.85853 0.97888 0.14519 0.0
C254 C 0.84765 0.96763 0.10082 0.0
C255 C 0.80802 0.94749 0.08739 0.0
C256 C 0.78171 0.93675 0.11999 0.0
H257 H 0.21086 0.02866 0.20197 0.0
H258 H 0.33729 0.98647 0.16433 0.0
H259 H 0.35471 0.96026 0.23858 0.0
H260 H 0.26213 0.04815 0.30882 0.0
H261 H 0.21046 0.04058 0.33443 0.0
H262 H 0.20247 0.05074 0.27572 0.0
H263 H 0.15363 1.00019 0.25392 0.0
H264 H 0.16094 0.98999 0.31281 0.0
H265 H 0.17929 0.96314 0.27304 0.0
H266 H 0.36486 0.9458 0.32025 0.0
H267 H 0.36626 0.94266 0.40201 0.0
H268 H 0.23335 0.99539 0.38593 0.0
C269 C 0.24159 0.01327 0.2088 0.0
C270 C 0.27281 0.00957 0.17753 0.0
C271 C 0.3127 0.98937 0.18774 0.0
C272 C 0.32283 0.97443 0.22978 0.0
C273 C 0.29227 0.97968 0.26059 0.0
C274 C 0.25209 0.99832 0.25031 0.0
C275 C 0.22771 0.00294 0.29058 0.0
C276 C 0.22562 0.03765 0.30311 0.0
C277 C 0.17741 0.98818 0.28207 0.0
C278 C 0.26174 0.9852 0.32589 0.0
C279 C 0.29826 0.97149 0.30779 0.0
C280 C 0.33593 0.95587 0.33459 0.0
C281 C 0.33643 0.95437 0.3811 0.0
C282 C 0.29977 0.96877 0.40046 0.0
C283 C 0.26164 0.98394 0.37221 0.0
H284 H 0.70772 0.47013 0.71153 0.0
H285 H 0.82333 0.52516 0.67459 0.0
H286 H 0.83221 0.55302 0.74754 0.0
H287 H 0.65732 0.53162 0.77626 0.0
H288 H 0.64471 0.50408 0.81762 0.0
H289 H 0.64267 0.49188 0.75993 0.0
H290 H 0.70404 0.44813 0.78724 0.0
H291 H 0.70632 0.4602 0.84481 0.0
H292 H 0.76085 0.45809 0.82195 0.0
H293 H 0.83505 0.57005 0.82733 0.0
H294 H 0.83255 0.57483 0.90831 0.0
H295 H 0.71511 0.50829 0.89296 0.0
C296 C 0.73427 0.48849 0.7182 0.0
C297 C 0.76475 0.49552 0.68724 0.0
C298 C 0.79938 0.51948 0.69766 0.0
C299 C 0.80459 0.5355 0.73893 0.0
C300 C 0.77459 0.52744 0.76906 0.0
C301 C 0.73994 0.50461 0.75907 0.0
C302 C 0.71529 0.49827 0.7987 0.0
C303 C 0.66182 0.50699 0.78744 0.0
C304 C 0.72207 0.46416 0.81407 0.0
C305 C 0.74273 0.5203 0.83324 0.0
C306 C 0.77627 0.53725 0.81526 0.0
C307 C 0.80836 0.55735 0.84157 0.0
C308 C 0.80668 0.5598 0.88762 0.0
C309 C 0.77341 0.54201 0.90701 0.0
C310 C 0.74039 0.52256 0.87909 0.0
H311 H 0.29958 0.51144 0.59231 0.0
H312 H 0.29639 0.61132 0.61367 0.0
H313 H 0.30431 0.60282 0.6956 0.0
H314 H 0.22436 0.49342 0.66015 0.0
H315 H 0.25225 0.45778 0.6828 0.0
H316 H 0.26059 0.47099 0.62827 0.0
H317 H 0.35301 0.47028 0.65389 0.0
H318 H 0.34517 0.45618 0.70845 0.0
H319 H 0.37991 0.49088 0.70444 0.0
H320 H 0.29446 0.58369 0.77112 0.0
H321 H 0.27304 0.55539 0.83571 0.0
H322 H 0.28056 0.46795 0.7644 0.0
C323 C 0.30279 0.53162 0.61432 0.0
C324 C 0.29738 0.56203 0.5966 0.0
C325 C 0.30056 0.58778 0.62652 0.0
C326 C 0.30517 0.58319 0.67314 0.0
C327 C 0.30704 0.55277 0.6892 0.0
C328 C 0.30681 0.5274 0.66076 0.0
C329 C 0.30201 0.49718 0.68515 0.0
C330 C 0.25714 0.4788 0.66276 0.0
C331 C 0.34776 0.47747 0.68817 0.0
C332 C 0.29664 0.50961 0.73097 0.0
C333 C 0.30066 0.54165 0.73297 0.0
C334 C 0.29245 0.55855 0.7704 0.0
C335 C 0.27986 0.54225 0.80676 0.0
C336 C 0.2751 0.5094 0.80517 0.0
C337 C 0.28428 0.493 0.76691 0.0
H338 H 0.22179 0.55939 0.26098 0.0
H339 H 0.22691 0.46895 0.32571 0.0
H340 H 0.20744 0.44392 0.25013 0.0
H341 H 0.12489 0.54198 0.1655 0.0
H342 H 0.15277 0.56543 0.12801 0.0
H343 H 0.16078 0.57523 0.18717 0.0
H344 H 0.25336 0.57333 0.19125 0.0
H345 H 0.24512 0.56268 0.13254 0.0
H346 H 0.28041 0.53823 0.17446 0.0
H347 H 0.192 0.42929 0.16679 0.0
H348 H 0.18467 0.42588 0.08382 0.0
H349 H 0.19405 0.52644 0.07642 0.0
C350 C 0.21855 0.53427 0.25968 0.0
C351 C 0.22623 0.51605 0.29934 0.0
C352 C 0.22119 0.48333 0.29576 0.0
C353 C 0.21006 0.46899 0.25305 0.0
C354 C 0.20382 0.48781 0.21468 0.0
C355 C 0.20775 0.51977 0.21781 0.0
C356 C 0.20261 0.53494 0.172 0.0
C357 C 0.15759 0.55562 0.16264 0.0
C358 C 0.24809 0.55336 0.16731 0.0
C359 C 0.19672 0.50643 0.14227 0.0
C360 C 0.19649 0.47948 0.1673 0.0
C361 C 0.1919 0.45024 0.14694 0.0
C362 C 0.18774 0.44857 0.09988 0.0
C363 C 0.18908 0.47595 0.07398 0.0
C364 C 0.19335 0.50517 0.09551 0.0
H365 H 0.72305 0.51967 0.22223 0.0
H366 H 0.80138 0.44847 0.16286 0.0
H367 H 0.81645 0.42066 0.23582 0.0
H368 H 0.79999 0.5243 0.32486 0.0
H369 H 0.75378 0.53029 0.35809 0.0
H370 H 0.74399 0.54234 0.30001 0.0
H371 H 0.66664 0.50876 0.28286 0.0
H372 H 0.67586 0.49685 0.34113 0.0
H373 H 0.66956 0.46798 0.29686 0.0
H374 H 0.82932 0.40364 0.31742 0.0
H375 H 0.83643 0.39781 0.40001 0.0
H376 H 0.75011 0.48103 0.40391 0.0
C377 C 0.74277 0.49798 0.22418 0.0
C378 C 0.76116 0.48628 0.18692 0.0
C379 C 0.78674 0.45779 0.19098 0.0
C380 C 0.79552 0.44186 0.23224 0.0
C381 C 0.77801 0.45464 0.26868 0.0
C382 C 0.75173 0.48189 0.2648 0.0
C383 C 0.73923 0.49189 0.30936 0.0
C384 C 0.76054 0.5241 0.32392 0.0
C385 C 0.68458 0.49132 0.30742 0.0
C386 C 0.76383 0.46649 0.33934 0.0
C387 C 0.78561 0.44502 0.31536 0.0
C388 C 0.81195 0.42012 0.33647 0.0
C389 C 0.81592 0.41709 0.38337 0.0
C390 C 0.79393 0.43902 0.40845 0.0
C391 C 0.76747 0.46389 0.38586 0.0
H392 H 0.40935 0.00346 0.01302 0.0
H393 H 0.4634 0.09107 0.07476 0.0
H394 H 0.54457 0.07772 0.06211 0.0
H395 H 0.51836 0.95689 0.05539 0.0
H396 H 0.51155 0.93473 0.00365 0.0
H397 H 0.45932 0.94966 0.02297 0.0
H398 H 0.43329 0.97713 0.94587 0.0
H399 H 0.48603 0.96305 0.92674 0.0
H400 H 0.47377 0.00421 0.92654 0.0
H401 H 0.6168 0.058 0.03441 0.0
H402 H 0.6788 0.02957 0.00264 0.0
H403 H 0.57673 0.95514 0.95933 0.0
C404 C 0.43845 0.01945 0.02508 0.0
C405 C 0.43012 0.04834 0.04452 0.0
C406 C 0.46904 0.06886 0.0594 0.0
C407 C 0.51521 0.06152 0.05239 0.0
C408 C 0.52166 0.03356 0.03091 0.0
C409 C 0.48463 0.01256 0.01828 0.0
C410 C 0.5005 0.98485 -0.00622 0.0
C411 C 0.49726 0.95475 0.02056 0.0
C412 C 0.47168 0.98218 0.94538 0.0
C413 C 0.55195 0.99392 -0.00625 0.0
C414 C 0.56348 0.02207 0.01526 0.0
C415 C 0.60849 0.03572 0.018 0.0
C416 C 0.64322 0.01958 -0.00057 0.0
C417 C 0.63249 0.99015 0.97868 0.0
C418 C 0.58604 0.9775 0.97526 0.0
H419 H 0.48053 0.97514 0.56016 0.0
H420 H 0.38053 0.02179 0.45504 0.0
H421 H 0.43017 0.00674 0.39926 0.0
H422 H 0.58418 1.00079 0.52469 0.0
H423 H 0.61685 0.9654 0.54096 0.0
H424 H 0.56896 0.97681 0.56907 0.0
H425 H 0.52969 0.9227 0.54839 0.0
H426 H 0.5764 0.91229 0.51755 0.0
H427 H 0.51438 0.9111 0.48993 0.0
H428 H 0.49257 0.99132 0.35683 0.0
H429 H 0.57341 0.99343 0.33833 0.0
H430 H 0.63276 0.95441 0.46834 0.0
C431 C 0.46914 0.98226 0.52538 0.0
C432 C 0.42637 0.99924 0.51193 0.0
C433 C 0.41316 0.00871 0.4663 0.0
C434 C 0.44052 0.99963 0.43411 0.0
C435 C 0.48102 0.98128 0.44811 0.0
C436 C 0.49609 0.97357 0.49294 0.0
C437 C 0.54471 0.95808 0.50064 0.0
C438 C 0.58078 0.97638 0.53583 0.0
C439 C 0.54104 0.92401 0.51496 0.0
C440 C 0.55628 0.9602 0.45352 0.0
C441 C 0.51791 0.97224 0.42323 0.0
C442 C 0.52248 0.9813 0.3798 0.0
C443 C 0.5685 0.98182 0.36908 0.0
C444 C 0.60875 0.97438 0.40236 0.0
C445 C 0.60204 0.95955 0.44232 0.0
H446 H 0.95043 0.5352 0.05363 0.0
H447 H 0.85137 0.4818 0.95517 0.0
H448 H 0.89803 0.49564 0.89649 0.0
H449 H 0.97692 0.59695 0.9734 0.0
H450 H 0.0389 0.59899 0.00098 0.0
H451 H 0.99289 0.58984 0.03323 0.0
H452 H 0.03655 0.5385 0.06179 0.0
H453 H 0.08336 0.5487 0.03186 0.0
H454 H 0.05334 0.5117 0.02112 0.0
H455 H 0.96072 0.50732 0.853 0.0
H456 H 0.04215 0.50335 0.83624 0.0
H457 H 0.09852 0.55378 0.95856 0.0
C458 C 0.93836 0.52651 0.01964 0.0
C459 C 0.89716 0.50757 0.00903 0.0
C460 C 0.88297 0.49628 0.9643 0.0
C461 C 0.90859 0.50464 0.93047 0.0
C462 C 0.94804 0.52441 0.94183 0.0
C463 C 0.96326 0.53475 0.98559 0.0
C464 C 0.0107 0.55162 0.99091 0.0
C465 C 1.00444 0.58642 0.00016 0.0
C466 C 0.04815 0.53671 0.02854 0.0
C467 C 0.02231 0.54647 0.94428 0.0
C468 C 0.98448 0.53211 0.91571 0.0
C469 C 0.99003 0.5193 0.87435 0.0
C470 C 0.03638 0.51758 0.86458 0.0
C471 C 0.07594 0.5282 0.89652 0.0
C472 C 0.06822 0.5463 0.93347 0.0
H473 H 0.08567 0.5539 0.5164 0.0
H474 H 0.16582 0.47075 0.49515 0.0
H475 H 0.11479 0.43989 0.53674 0.0
H476 H 0.05857 0.53201 0.62985 0.0
H477 H 0.99918 0.54846 0.61639 0.0
H478 H 0.04768 0.5652 0.59299 0.0
H479 H 0.99877 0.55831 0.51178 0.0
H480 H 0.95007 0.54248 0.53514 0.0
H481 H 0.97509 0.52043 0.49389 0.0
H482 H 0.05072 0.41735 0.57209 0.0
H483 H 0.96974 0.40314 0.5835 0.0
H484 H 0.93075 0.5009 0.58159 0.0
C485 C 0.09285 0.52926 0.52104 0.0
C486 C 0.12949 0.51467 0.50263 0.0
C487 C 0.13749 0.48232 0.50868 0.0
C488 C 0.1094 0.46474 0.53304 0.0
C489 C 0.07378 0.47993 0.55121 0.0
C490 C 0.06503 0.5114 0.54495 0.0
C491 C 0.02009 0.52127 0.56151 0.0
C492 C 0.03213 0.54302 0.60264 0.0
C493 C 0.98389 0.53647 0.5233 0.0
C494 C 1.00294 0.48998 0.57491 0.0
C495 C 0.03554 0.46666 0.57072 0.0
C496 C 0.02515 0.43539 0.5761 0.0
C497 C 0.97895 0.42756 0.58247 0.0
C498 C 0.94369 0.45097 0.58221 0.0
C499 C 0.95696 0.48255 0.58167 0.0
H500 H 0.10537 0.04236 0.96094 0.0
H501 H 0.10938 0.03177 0.10457 0.0
H502 H 0.04114 0.9948 0.08884 0.0
H503 H 0.97264 0.03964 0.92967 0.0
H504 H 0.97471 0.0196 0.87734 0.0
H505 H 0.02255 0.04566 0.901 0.0
H506 H 0.08345 1.00099 0.89839 0.0
H507 H 0.03552 0.97447 0.87646 0.0
H508 H 0.07682 0.96513 0.92756 0.0
H509 H 0.97683 0.95543 0.05707 0.0
H510 H 0.90811 0.9271 0.0124 0.0
H511 H 0.94166 0.96614 0.88944 0.0
C512 C 0.09065 0.03306 0.98895 0.0
C513 C 0.11176 0.04044 0.034 0.0
C514 C 0.09267 0.02713 0.06987 0.0
C515 C 0.05452 0.00569 0.06121 0.0
C516 C 0.03553 0.99805 0.01641 0.0
C517 C 0.05182 0.01217 0.98084 0.0
C518 C 0.02383 1.0009 0.93582 0.0
C519 C 0.99681 0.02806 0.90941 0.0
C520 C 0.0569 0.9844 0.90793 0.0
C521 C 0.98946 0.97804 0.95156 0.0
C522 C 0.99761 0.97617 -0.00183 0.0
C523 C 0.97023 0.95671 0.02057 0.0
C524 C 0.93182 0.94017 -0.00513 0.0
C525 C 0.92061 0.94352 0.94737 0.0
C526 C 0.95061 0.96215 0.9255 0.0
H527 H 0.90588 0.02867 0.52036 0.0
H528 H 0.91745 0.06566 0.38886 0.0
H529 H 0.99938 0.04404 0.39679 0.0
H530 H 0.0341 0.04349 0.57259 0.0
H531 H 0.03733 0.00874 0.60634 0.0
H532 H 0.98116 0.02912 0.59126 0.0
H533 H 0.94147 0.97811 0.5569 0.0
H534 H 0.99788 0.95783 0.57042 0.0
H535 H 0.9657 0.95844 0.513 0.0
H536 H 0.07566 0.01323 0.41476 0.0
H537 H 0.15025 0.98645 0.44912 0.0
H538 H 0.09312 0.97152 0.57156 0.0
C539 C 0.92633 0.03314 0.49392 0.0
C540 C 0.90528 0.04924 0.4541 0.0
C541 C 0.93298 0.05411 0.42001 0.0
C542 C 0.97933 0.04142 0.42394 0.0
C543 C 0.99796 0.02437 0.46254 0.0
C544 C 0.97311 0.02115 0.4977 0.0
C545 C 1.002 0.00223 0.53593 0.0
C546 C 0.0144 0.02208 0.57909 0.0
C547 C 0.97514 0.97238 0.54455 0.0
C548 C 0.04662 0.99473 0.51638 0.0
C549 C 0.04295 0.00738 0.47366 0.0
C550 C 0.07904 0.00349 0.44829 0.0
C551 C 0.12103 0.98783 0.46788 0.0
C552 C 0.12718 0.97629 0.51262 0.0
C553 C 0.08892 0.97919 0.53685 0.0
H554 H 0.41262 0.45777 0.92874 0.0
H555 H 0.35302 0.48037 0.04785 0.0
H556 H 0.42955 0.50461 0.08296 0.0
H557 H 0.53756 0.44131 0.99204 0.0
H558 H 0.56487 0.45782 0.94785 0.0
H559 H 0.50688 0.43938 0.93414 0.0
H560 H 0.4725 0.48979 0.89389 0.0
H561 H 0.52997 0.50871 0.90873 0.0
H562 H 0.47756 0.52597 0.92492 0.0
H563 H 0.50815 0.53331 0.10089 0.0
H564 H 0.59095 0.55391 0.10777 0.0
H565 H 0.60259 0.51044 0.97997 0.0
C566 C 0.41647 0.46654 0.96297 0.0
C567 C 0.37679 0.46689 0.98566 0.0
C568 C 0.38295 0.47959 0.02994 0.0
C569 C 0.42619 0.49372 0.05006 0.0
C570 C 0.46362 0.49472 0.02587 0.0
C571 C 0.45993 0.4806 0.98395 0.0
C572 C 0.50579 0.48546 0.96525 0.0
C573 C 0.53023 0.45413 0.9595 0.0
C574 C 0.49583 0.50356 0.92055 0.0
C575 C 0.53513 0.50488 0.00277 0.0
C576 C 0.50982 0.51036 0.0371 0.0
C577 C 0.52864 0.5288 0.07449 0.0
C578 C 0.57542 0.54081 0.07787 0.0
C579 C 0.6031 0.53397 0.04439 0.0
C580 C 0.58218 0.51617 0.00605 0.0
H581 H 0.58069 0.46111 0.55988 0.0
H582 H 0.65838 0.48572 0.45345 0.0
H583 H 0.58942 0.5169 0.41613 0.0
H584 H 0.46111 0.45624 0.48825 0.0
H585 H 0.43173 0.47295 0.53107 0.0
H586 H 0.48617 0.45092 0.54718 0.0
H587 H 0.52459 0.49797 0.59454 0.0
H588 H 0.47061 0.52035 0.57763 0.0
H589 H 0.52729 0.53516 0.56759 0.0
H590 H 0.51191 0.54782 0.39162 0.0
H591 H 0.42995 0.57085 0.37929 0.0
H592 H 0.40545 0.52766 0.5032 0.0
C593 C 0.58256 0.47237 0.52812 0.0
C594 C 0.62471 0.47068 0.50935 0.0
C595 C 0.62628 0.48654 0.46832 0.0
C596 C 0.58737 0.50448 0.44694 0.0
C597 C 0.54694 0.50666 0.46705 0.0
C598 C 0.54407 0.49075 0.50648 0.0
C599 C 0.49696 0.49758 0.52164 0.0
C600 C 0.46723 0.46765 0.52203 0.0
C601 C 0.50539 0.51373 0.5681 0.0
C602 C 0.47396 0.51959 0.48467 0.0
C603 C 0.5032 0.52474 0.45346 0.0
C604 C 0.48867 0.54394 0.41593 0.0
C605 C 0.44231 0.55725 0.40936 0.0
C606 C 0.41121 0.55116 0.44015 0.0
C607 C 0.42822 0.53279 0.47884 0.0
H608 H 0.37622 0.09073 0.20602 0.0
H609 H 0.40865 0.16992 0.12769 0.0
H610 H 0.49265 0.16924 0.16816 0.0
H611 H 0.45396 0.11259 0.31221 0.0
H612 H 0.47128 0.0729 0.32578 0.0
H613 H 0.41332 0.08117 0.29228 0.0
H614 H 0.4327 0.0442 0.22984 0.0
H615 H 0.49113 0.03638 0.26277 0.0
H616 H 0.48578 0.05092 0.20597 0.0
H617 H 0.57583 0.15805 0.2156 0.0
H618 H 0.64701 0.14016 0.27047 0.0
H619 H 0.55941 0.0682 0.31579 0.0
C620 C 0.40058 0.10847 0.19817 0.0
C621 C 0.38534 0.13062 0.16389 0.0
C622 C 0.41908 0.15284 0.154 0.0
C623 C 0.46711 0.15255 0.17665 0.0
C624 C 0.4813 0.12982 0.20923 0.0
C625 C 0.4488 0.10839 0.22028 0.0
C626 C 0.47327 0.08593 0.25582 0.0
C627 C 0.45169 0.08831 0.29909 0.0
C628 C 0.47055 0.05238 0.23749 0.0
C629 C 0.52437 0.09821 0.26328 0.0
C630 C 0.52862 0.12338 0.23596 0.0
C631 C 0.57279 0.13839 0.23726 0.0
C632 C 0.6132 0.12795 0.26823 0.0
C633 C 0.60902 0.10288 0.29764 0.0
C634 C 0.56401 0.08761 0.2941 0.0
H635 H 0.639 0.90544 0.77546 0.0
H636 H 0.58583 0.86124 0.88619 0.0
H637 H 0.50353 0.8626 0.84223 0.0
H638 H 0.54236 0.95719 0.74575 0.0
H639 H 0.54082 0.95477 0.68571 0.0
H640 H 0.59624 0.94811 0.72432 0.0
H641 H 0.60456 0.89413 0.68797 0.0
H642 H 0.54946 0.90085 0.64884 0.0
H643 H 0.55597 0.86651 0.68362 0.0
H644 H 0.42436 0.87292 0.78756 0.0
H645 H 0.35841 0.88727 0.72448 0.0
H646 H 0.46452 0.92374 0.6507 0.0
C647 C 0.61033 0.89528 0.79006 0.0
C648 C 0.61936 0.88309 0.83438 0.0
C649 C 0.58023 0.87068 0.85234 0.0
C650 C 0.53311 0.87141 0.82764 0.0
C651 C 0.52523 0.88449 0.78469 0.0
C652 C 0.56293 0.89582 0.76584 0.0
C653 C 0.54473 0.90957 0.71966 0.0
C654 C 0.55675 0.94447 0.71885 0.0
C655 C 0.56487 0.89168 0.68285 0.0
C656 C 0.49113 0.90433 0.71568 0.0
C657 C 0.48025 0.88998 0.75346 0.0
C658 C 0.43259 0.88386 0.75754 0.0
C659 C 0.39527 0.89219 0.72171 0.0
C660 C 0.40594 0.90625 0.68224 0.0
C661 C 0.45471 0.9125 0.67988 0.0
H662 H 0.9535 0.58352 0.15794 0.0
H663 H 0.84693 0.61585 0.23461 0.0
H664 H 0.91241 0.62953 0.29828 0.0
H665 H 0.03057 0.54838 0.2503 0.0
H666 H 0.08544 0.55864 0.23161 0.0
H667 H 0.03115 0.55293 0.19087 0.0
H668 H 0.03884 0.60766 0.15843 0.0
H669 H 0.09352 0.61412 0.19839 0.0
H670 H 0.04432 0.64107 0.19543 0.0
H671 H 0.99018 0.63852 0.3541 0.0
H672 H 0.072 0.63899 0.39929 0.0
H673 H 0.1277 0.60041 0.28573 0.0
C674 C 0.9436 0.59376 0.18788 0.0
C675 C 0.89469 0.59891 0.19091 0.0
C676 C 0.88386 0.61178 0.23126 0.0
C677 C 0.92091 0.61972 0.26751 0.0
C678 C 0.96863 0.6145 0.26303 0.0
C679 C 0.97993 0.60157 0.22428 0.0
C680 C 0.03377 0.59688 0.22851 0.0
C681 C 0.04592 0.56215 0.22511 0.0
C682 C 0.05377 0.61608 0.19308 0.0
C683 C 0.05134 0.60935 0.27579 0.0
C684 C 0.01318 0.61948 0.29506 0.0
C685 C 0.02019 0.63079 0.33917 0.0
C686 C 0.06697 0.63101 0.36457 0.0
C687 C 0.10661 0.62002 0.34606 0.0
C688 C 0.09853 0.60962 0.30064 0.0
H689 H 0.87218 0.42243 0.69871 0.0
H690 H 0.89134 0.32971 0.64761 0.0
H691 H 0.97659 0.33053 0.68516 0.0
H692 H 0.98817 0.45144 0.68376 0.0
H693 H 0.99583 0.47534 0.73385 0.0
H694 H 0.93637 0.46684 0.70338 0.0
H695 H 0.91323 0.44475 0.77688 0.0
H696 H 0.97262 0.45343 0.80705 0.0
H697 H 0.94939 0.41438 0.80711 0.0
H698 H 0.06135 0.34181 0.72933 0.0
H699 H 0.13379 0.36074 0.78192 0.0
H700 H 0.05921 0.44648 0.80052 0.0
C701 C 0.89396 0.40198 0.69638 0.0
C702 C 0.87466 0.37572 0.67094 0.0
C703 C 0.90505 0.34991 0.66746 0.0
C704 C 0.95371 0.35028 0.68832 0.0
C705 C 0.97196 0.37685 0.71213 0.0
C706 C 0.94284 0.40216 0.71643 0.0
C707 C 0.97117 0.42796 0.74355 0.0
C708 C 0.97296 0.45711 0.71438 0.0
C709 C 0.95038 0.43556 0.78618 0.0
C710 C 0.02026 0.41283 0.75516 0.0
C711 C 0.02045 0.38354 0.73623 0.0
C712 C 0.06165 0.36485 0.744 0.0
C713 C 0.10292 0.37587 0.77345 0.0
C714 C 0.10239 0.40518 0.79484 0.0
C715 C 0.06092 0.42411 0.78416 0.0
H716 H 0.24348 0.19385 0.96867 0.0
H717 H 0.18496 0.19747 0.0925 0.0
H718 H 0.17609 0.25452 0.08416 0.0
H719 H 0.31393 0.26119 0.98947 0.0
H720 H 0.3042 0.27372 0.93145 0.0
H721 H 0.30166 0.23295 0.9444 0.0
H722 H 0.21589 0.22901 0.89688 0.0
H723 H 0.21854 0.2696 0.88287 0.0
H724 H 0.16992 0.25529 0.9084 0.0
H725 H 0.17745 0.31121 0.06412 0.0
H726 H 0.18322 0.36323 0.03112 0.0
H727 H 0.2447 0.3224 0.92246 0.0
C728 C 0.22788 0.20639 -0.00626 0.0
C729 C 0.21475 0.19104 0.03127 0.0
C730 C 0.19496 0.20861 0.06333 0.0
C731 C 0.19009 0.24103 0.05902 0.0
C732 C 0.2053 0.25543 0.02258 0.0
C733 C 0.22334 0.23863 0.99027 0.0
C734 C 0.23868 0.25966 0.95516 0.0
C735 C 0.29283 0.25669 0.95515 0.0
C736 C 0.20897 0.253 0.90804 0.0
C737 C 0.22663 0.2911 0.9728 0.0
C738 C 0.20733 0.28811 0.01168 0.0
C739 C 0.19246 0.3138 0.03372 0.0
C740 C 0.19606 0.34322 0.01481 0.0
C741 C 0.21473 0.34675 0.97445 0.0
C742 C 0.23113 0.3204 0.95374 0.0
H743 H 0.7582 0.18815 0.4197 0.0
H744 H 0.69095 0.14684 0.52409 0.0
H745 H 0.67939 0.1989 0.55474 0.0
H746 H 0.82019 0.2506 0.48996 0.0
H747 H 0.81062 0.27847 0.44463 0.0
H748 H 0.81538 0.23768 0.43225 0.0
H749 H 0.73289 0.24026 0.37847 0.0
H750 H 0.72743 0.28089 0.39155 0.0
H751 H 0.68106 0.25392 0.39984 0.0
H752 H 0.67244 0.25528 0.57284 0.0
H753 H 0.67899 0.31231 0.58212 0.0
H754 H 0.74899 0.31714 0.46516 0.0
C755 C 0.74198 0.19007 0.44953 0.0
C756 C 0.72551 0.16346 0.4695 0.0
C757 C 0.70371 0.16695 0.50813 0.0
C758 C 0.69678 0.19642 0.52573 0.0
C759 C 0.71175 0.22225 0.50433 0.0
C760 C 0.73445 0.21944 0.46748 0.0
C761 C 0.74685 0.2511 0.45088 0.0
C762 C 0.8015 0.25467 0.45468 0.0
C763 C 0.72047 0.25686 0.4023 0.0
C764 C 0.72773 0.27197 0.48425 0.0
C765 C 0.70736 0.25489 0.51462 0.0
C766 C 0.68832 0.26899 0.54926 0.0
C767 C 0.6919 0.30143 0.55409 0.0
C768 C 0.71445 0.31934 0.52445 0.0
C769 C 0.73123 0.3043 0.48832 0.0
H770 H 0.76314 0.81353 0.02584 0.0
H771 H 0.79197 0.80174 0.8897 0.0
H772 H 0.78793 0.74496 0.89785 0.0
H773 H 0.83385 0.74687 0.07379 0.0
H774 H 0.79273 0.73685 0.11075 0.0
H775 H 0.79856 0.77674 0.09442 0.0
H776 H 0.70684 0.77886 0.06475 0.0
H777 H 0.7009 0.73874 0.08006 0.0
H778 H 0.67966 0.75109 0.02276 0.0
H779 H 0.77748 0.69036 0.91836 0.0
H780 H 0.77408 0.63948 0.95476 0.0
H781 H 0.75353 0.68517 0.07868 0.0
C782 C 0.76922 0.79902 -0.00208 0.0
C783 C 0.77772 0.81223 0.95701 0.0
C784 C 0.78555 0.79233 0.9214 0.0
C785 C 0.78289 0.76 0.92553 0.0
C786 C 0.77277 0.74787 0.96557 0.0
C787 C 0.76705 0.7666 0.00155 0.0
C788 C 0.75798 0.74727 0.04131 0.0
C789 C 0.79818 0.75223 0.0825 0.0
C790 C 0.70839 0.75443 0.05288 0.0
C791 C 0.75951 0.71473 0.02191 0.0
C792 C 0.76749 0.71585 0.97793 0.0
C793 C 0.77138 0.68912 0.95278 0.0
C794 C 0.76919 0.66037 0.9737 0.0
C795 C 0.76338 0.6585 0.0194 0.0
C796 C 0.75708 0.686 0.04348 0.0
H797 H 0.24997 0.69553 0.51772 0.0
H798 H 0.31011 0.69649 0.39474 0.0
H799 H 0.31676 0.75366 0.39986 0.0
H800 H 0.17965 0.76408 0.49628 0.0
H801 H 0.19116 0.77765 0.55397 0.0
H802 H 0.19227 0.73658 0.54198 0.0
H803 H 0.27869 0.7325 0.588 0.0
H804 H 0.27748 0.77341 0.60092 0.0
H805 H 0.32484 0.75788 0.57464 0.0
H806 H 0.31286 0.81021 0.41559 0.0
H807 H 0.31006 0.86295 0.44675 0.0
H808 H 0.25394 0.82596 0.56089 0.0
C809 C 0.26506 0.7077 0.4921 0.0
C810 C 0.27943 0.69148 0.45571 0.0
C811 C 0.29913 0.70831 0.42303 0.0
C812 C 0.30264 0.74082 0.42543 0.0
C813 C 0.28668 0.75607 0.46088 0.0
C814 C 0.26913 0.74011 0.49412 0.0
C815 C 0.25534 0.76219 0.5291 0.0
C816 C 0.20139 0.75998 0.53038 0.0
C817 C 0.28592 0.75614 0.57593 0.0
C818 C 0.26773 0.79314 0.51018 0.0
C819 C 0.28527 0.78895 0.47055 0.0
C820 C 0.29953 0.81379 0.44672 0.0
C821 C 0.29766 0.84367 0.46472 0.0
C822 C 0.28196 0.84856 0.50639 0.0
C823 C 0.26559 0.82299 0.52879 0.0
loop_
_geom_bond_atom_site_label_1
_geom_bond_atom_site_label_2
_geom_bond_distance
_geom_bond_site_symmetry_2
_ccdc_geom_bond_type
Sc0 O3 2.025 . S
Sc0 O10 2.105 . S
Sc0 O13 2.105 . S
Sc0 O16 2.105 . S
Sc0 O19 2.105 . S
Sc1 O3 2.025 . S
Sc1 O11 2.105 . S
Sc1 O15 2.105 . S
Sc1 O17 2.105 . S
Sc1 O21 2.105 1_554 S
Sc2 O3 2.025 . S
Sc2 O12 2.105 1_554 S
Sc2 O14 2.105 . S
Sc2 O18 2.105 . S
Sc2 O20 2.105 . S
O3 Sc0 2.025 . S
O3 Sc1 2.025 . S
O3 Sc2 2.025 . S
C4 O10 1.268 . S
C4 O20 1.268 . S
C5 O11 1.268 . S
C5 O19 1.268 . S
C6 O12 1.268 . S
C6 O21 1.268 . S
C7 O13 1.268 . S
C7 O17 1.268 . S
C8 O14 1.268 . S
C8 O16 1.268 . S
C9 O15 1.268 . S
C9 O18 1.268 . S
O10 Sc0 2.105 . S
O10 C4 1.268 . S
O11 Sc1 2.105 . S
O11 C5 1.268 . S
O12 Sc2 2.105 1_556 S
O12 C6 1.268 . S
O13 Sc0 2.105 . S
O13 C7 1.268 . S
O14 Sc2 2.105 . S
O14 C8 1.268 . S
O15 Sc1 2.105 . S
O15 C9 1.268 . S
O16 Sc0 2.105 . S
O16 C8 1.268 . S
O17 Sc1 2.105 . S
O17 C7 1.268 . S
O18 Sc2 2.105 . S
O18 C9 1.268 . S
O19 Sc0 2.105 . S
O19 C5 1.268 . S
O20 Sc2 2.105 . S
O20 C4 1.268 . S
O21 Sc1 2.105 1_556 S
O21 C6 1.268 . S
Sc22 O25 2.025 . S
Sc22 O32 2.105 . S
Sc22 O35 2.105 . S
Sc22 O38 2.105 . S
Sc22 O41 2.105 . S
Sc23 O25 2.025 . S
Sc23 O33 2.105 . S
Sc23 O37 2.105 . S
Sc23 O39 2.105 . S
Sc23 O43 2.105 . S
Sc24 O25 2.025 . S
Sc24 O34 2.105 . S
Sc24 O36 2.105 . S
Sc24 O40 2.105 . S
Sc24 O42 2.105 . S
O25 Sc22 2.025 . S
O25 Sc23 2.025 . S
O25 Sc24 2.025 . S
C26 O32 1.268 . S
C26 O42 1.268 . S
C27 O33 1.268 . S
C27 O41 1.268 . S
C28 O34 1.268 . S
C28 O43 1.268 . S
C29 O35 1.268 . S
C29 O39 1.268 . S
C30 O36 1.268 . S
C30 O38 1.268 . S
C31 O37 1.268 . S
C31 O40 1.268 . S
O32 Sc22 2.105 . S
O32 C26 1.268 . S
O33 Sc23 2.105 . S
O33 C27 1.268 . S
O34 Sc24 2.105 . S
O34 C28 1.268 . S
O35 Sc22 2.105 . S
O35 C29 1.268 . S
O36 Sc24 2.105 . S
O36 C30 1.268 . S
O37 Sc23 2.105 . S
O37 C31 1.268 . S
O38 Sc22 2.105 . S
O38 C30 1.268 . S
O39 Sc23 2.105 . S
O39 C29 1.268 . S
O40 Sc24 2.105 . S
O40 C31 1.268 . S
O41 Sc22 2.105 . S
O41 C27 1.268 . S
O42 Sc24 2.105 . S
O42 C26 1.268 . S
O43 Sc23 2.105 . S
O43 C28 1.268 . S
Sc44 O47 2.025 . S
Sc44 O54 2.105 . S
Sc44 O57 2.105 . S
Sc44 O60 2.105 . S
Sc44 O63 2.105 . S
Sc45 O47 2.025 . S
Sc45 O55 2.105 . S
Sc45 O59 2.105 1_556 S
Sc45 O61 2.105 . S
Sc45 O65 2.105 . S
Sc46 O47 2.025 . S
Sc46 O56 2.105 . S
Sc46 O58 2.105 . S
Sc46 O62 2.105 1_556 S
Sc46 O64 2.105 . S
O47 Sc44 2.025 . S
O47 Sc45 2.025 . S
O47 Sc46 2.025 . S
C48 O54 1.268 . S
C48 O64 1.268 . S
C49 O55 1.268 . S
C49 O63 1.268 . S
C50 O56 1.268 . S
C50 O65 1.268 . S
C51 O57 1.268 . S
C51 O61 1.268 . S
C52 O58 1.268 . S
C52 O60 1.268 . S
C53 O59 1.268 . S
C53 O62 1.268 . S
O54 Sc44 2.105 . S
O54 C48 1.268 . S
O55 Sc45 2.105 . S
O55 C49 1.268 . S
O56 Sc46 2.105 . S
O56 C50 1.268 . S
O57 Sc44 2.105 . S
O57 C51 1.268 . S
O58 Sc46 2.105 . S
O58 C52 1.268 . S
O59 Sc45 2.105 1_554 S
O59 C53 1.268 . S
O60 Sc44 2.105 . S
O60 C52 1.268 . S
O61 Sc45 2.105 . S
O61 C51 1.268 . S
O62 Sc46 2.105 1_554 S
O62 C53 1.268 . S
O63 Sc44 2.105 . S
O63 C49 1.268 . S
O64 Sc46 2.105 . S
O64 C48 1.268 . S
O65 Sc45 2.105 . S
O65 C50 1.268 . S
Sc66 O69 2.025 . S
Sc66 O76 2.105 . S
Sc66 O79 2.105 . S
Sc66 O82 2.105 . S
Sc66 O85 2.105 . S
Sc67 O69 2.025 . S
Sc67 O77 2.105 . S
Sc67 O81 2.105 . S
Sc67 O83 2.105 . S
Sc67 O87 2.105 . S
Sc68 O69 2.025 . S
Sc68 O78 2.105 . S
Sc68 O80 2.105 . S
Sc68 O84 2.105 . S
Sc68 O86 2.105 . S
O69 Sc66 2.025 . S
O69 Sc67 2.025 . S
O69 Sc68 2.025 . S
C70 O76 1.268 . S
C70 O86 1.268 . S
C71 O77 1.268 . S
C71 O85 1.268 . S
C72 O78 1.268 . S
C72 O87 1.268 . S
C73 O79 1.268 . S
C73 O83 1.268 . S
C74 O80 1.268 . S
C74 O82 1.268 . S
C75 O81 1.268 . S
C75 O84 1.268 . S
O76 Sc66 2.105 . S
O76 C70 1.268 . S
O77 Sc67 2.105 . S
O77 C71 1.268 . S
O78 Sc68 2.105 . S
O78 C72 1.268 . S
O79 Sc66 2.105 . S
O79 C73 1.268 . S
O80 Sc68 2.105 . S
O80 C74 1.268 . S
O81 Sc67 2.105 . S
O81 C75 1.268 . S
O82 Sc66 2.105 . S
O82 C74 1.268 . S
O83 Sc67 2.105 . S
O83 C73 1.268 . S
O84 Sc68 2.105 . S
O84 C75 1.268 . S
O85 Sc66 2.105 . S
O85 C71 1.268 . S
O86 Sc68 2.105 . S
O86 C70 1.268 . S
O87 Sc67 2.105 . S
O87 C72 1.268 . S
Sc88 O91 2.025 . S
Sc88 O98 2.105 . S
Sc88 O101 2.105 . S
Sc88 O104 2.105 . S
Sc88 O107 2.105 . S
Sc89 O91 2.025 . S
Sc89 O99 2.105 . S
Sc89 O103 2.105 . S
Sc89 O105 2.105 . S
Sc89 O109 2.105 1_554 S
Sc90 O91 2.025 . S
Sc90 O100 2.105 1_554 S
Sc90 O102 2.105 . S
Sc90 O106 2.105 . S
Sc90 O108 2.105 . S
O91 Sc88 2.025 . S
O91 Sc89 2.025 . S
O91 Sc90 2.025 . S
C92 O98 1.268 . S
C92 O108 1.268 . S
C93 O99 1.268 . S
C93 O107 1.268 . S
C94 O100 1.268 . S
C94 O109 1.268 . S
C95 O101 1.268 . S
C95 O105 1.268 . S
C96 O102 1.268 . S
C96 O104 1.268 . S
C97 O103 1.268 . S
C97 O106 1.268 . S
O98 Sc88 2.105 . S
O98 C92 1.268 . S
O99 Sc89 2.105 . S
O99 C93 1.268 . S
O100 Sc90 2.105 1_556 S
O100 C94 1.268 . S
O101 Sc88 2.105 . S
O101 C95 1.268 . S
O102 Sc90 2.105 . S
O102 C96 1.268 . S
O103 Sc89 2.105 . S
O103 C97 1.268 . S
O104 Sc88 2.105 . S
O104 C96 1.268 . S
O105 Sc89 2.105 . S
O105 C95 1.268 . S
O106 Sc90 2.105 . S
O106 C97 1.268 . S
O107 Sc88 2.105 . S
O107 C93 1.268 . S
O108 Sc90 2.105 . S
O108 C92 1.268 . S
O109 Sc89 2.105 1_556 S
O109 C94 1.268 . S
Sc110 O113 2.025 . S
Sc110 O120 2.105 . S
Sc110 O123 2.105 . S
Sc110 O126 2.105 . S
Sc110 O129 2.105 . S
Sc111 O113 2.025 . S
Sc111 O121 2.105 . S
Sc111 O125 2.105 . S
Sc111 O127 2.105 . S
Sc111 O131 2.105 . S
Sc112 O113 2.025 . S
Sc112 O122 2.105 . S
Sc112 O124 2.105 . S
Sc112 O128 2.105 . S
Sc112 O130 2.105 . S
O113 Sc110 2.025 . S
O113 Sc111 2.025 . S
O113 Sc112 2.025 . S
C114 O120 1.268 . S
C114 O130 1.268 . S
C115 O121 1.268 . S
C115 O129 1.268 . S
C116 O122 1.268 . S
C116 O131 1.268 . S
C117 O123 1.268 . S
C117 O127 1.268 . S
C118 O124 1.268 . S
C118 O126 1.268 . S
C119 O125 1.268 . S
C119 O128 1.268 . S
O120 Sc110 2.105 . S
O120 C114 1.268 . S
O121 Sc111 2.105 . S
O121 C115 1.268 . S
O122 Sc112 2.105 . S
O122 C116 1.268 . S
O123 Sc110 2.105 . S
O123 C117 1.268 . S
O124 Sc112 2.105 . S
O124 C118 1.268 . S
O125 Sc111 2.105 . S
O125 C119 1.268 . S
O126 Sc110 2.105 . S
O126 C118 1.268 . S
O127 Sc111 2.105 . S
O127 C117 1.268 . S
O128 Sc112 2.105 . S
O128 C119 1.268 . S
O129 Sc110 2.105 . S
O129 C115 1.268 . S
O130 Sc112 2.105 . S
O130 C114 1.268 . S
O131 Sc111 2.105 . S
O131 C116 1.268 . S
Sc132 O135 2.025 . S
Sc132 O142 2.105 . S
Sc132 O145 2.105 . S
Sc132 O148 2.105 . S
Sc132 O151 2.105 . S
Sc133 O135 2.025 . S
Sc133 O143 2.105 . S
Sc133 O147 2.105 1_556 S
Sc133 O149 2.105 . S
Sc133 O153 2.105 . S
Sc134 O135 2.025 . S
Sc134 O144 2.105 . S
Sc134 O146 2.105 . S
Sc134 O150 2.105 1_556 S
Sc134 O152 2.105 . S
O135 Sc132 2.025 . S
O135 Sc133 2.025 . S
O135 Sc134 2.025 . S
C136 O142 1.268 . S
C136 O152 1.268 . S
C137 O143 1.268 . S
C137 O151 1.268 . S
C138 O144 1.268 . S
C138 O153 1.268 . S
C139 O145 1.268 . S
C139 O149 1.268 . S
C140 O146 1.268 . S
C140 O148 1.268 . S
C141 O147 1.268 . S
C141 O150 1.268 . S
O142 Sc132 2.105 . S
O142 C136 1.268 . S
O143 Sc133 2.105 . S
O143 C137 1.268 . S
O144 Sc134 2.105 . S
O144 C138 1.268 . S
O145 Sc132 2.105 . S
O145 C139 1.268 . S
O146 Sc134 2.105 . S
O146 C140 1.268 . S
O147 Sc133 2.105 1_554 S
O147 C141 1.268 . S
O148 Sc132 2.105 . S
O148 C140 1.268 . S
O149 Sc133 2.105 . S
O149 C139 1.268 . S
O150 Sc134 2.105 1_554 S
O150 C141 1.268 . S
O151 Sc132 2.105 . S
O151 C137 1.268 . S
O152 Sc134 2.105 . S
O152 C136 1.268 . S
O153 Sc133 2.105 . S
O153 C138 1.268 . S
Sc154 O157 2.025 . S
Sc154 O164 2.105 . S
Sc154 O167 2.105 . S
Sc154 O170 2.105 . S
Sc154 O173 2.105 . S
Sc155 O157 2.025 . S
Sc155 O165 2.105 . S
Sc155 O169 2.105 . S
Sc155 O171 2.105 . S
Sc155 O175 2.105 . S
Sc156 O157 2.025 . S
Sc156 O166 2.105 . S
Sc156 O168 2.105 . S
Sc156 O172 2.105 . S
Sc156 O174 2.105 . S
O157 Sc154 2.025 . S
O157 Sc155 2.025 . S
O157 Sc156 2.025 . S
C158 O164 1.268 . S
C158 O174 1.268 . S
C159 O165 1.268 . S
C159 O173 1.268 . S
C160 O166 1.268 . S
C160 O175 1.268 . S
C161 O167 1.268 . S
C161 O171 1.268 . S
C162 O168 1.268 . S
C162 O170 1.268 . S
C163 O169 1.268 . S
C163 O172 1.268 . S
O164 Sc154 2.105 . S
O164 C158 1.268 . S
O165 Sc155 2.105 . S
O165 C159 1.268 . S
O166 Sc156 2.105 . S
O166 C160 1.268 . S
O167 Sc154 2.105 . S
O167 C161 1.268 . S
O168 Sc156 2.105 . S
O168 C162 1.268 . S
O169 Sc155 2.105 . S
O169 C163 1.268 . S
O170 Sc154 2.105 . S
O170 C162 1.268 . S
O171 Sc155 2.105 . S
O171 C161 1.268 . S
O172 Sc156 2.105 . S
O172 C163 1.268 . S
O173 Sc154 2.105 . S
O173 C159 1.268 . S
O174 Sc156 2.105 . S
O174 C158 1.268 . S
O175 Sc155 2.105 . S
O175 C160 1.268 . S
H176 C188 0.930 . S
H177 C190 0.930 . S
H178 C191 0.930 . S
H179 C195 0.959 . S
H180 C195 0.945 1_565 S
H181 C195 0.961 . S
H182 C196 0.960 . S
H183 C196 0.961 . S
H184 C196 0.959 . S
H185 C199 0.929 . S
H186 C200 0.931 . S
H187 C202 0.930 . S
C188 H176 0.930 . S
C188 C189 1.399 . S
C188 C193 1.399 . S
C189 C188 1.399 . S
C189 C190 1.376 . S
C190 H177 0.930 . S
C190 C189 1.376 . S
C190 C191 1.388 . S
C191 H178 0.930 . S
C191 C190 1.388 . S
C191 C192 1.390 . S
C192 C191 1.390 . S
C192 C193 1.394 . S
C192 C198 1.465 . S
C193 C188 1.399 . S
C193 C192 1.394 . S
C193 C194 1.516 . S
C194 C193 1.516 . S
C194 C195 1.502 . S
C194 C196 1.561 1_545 S
C194 C197 1.526 . S
C195 H179 0.959 . S
C195 H180 0.945 1_545 S
C195 H181 0.961 . S
C195 C194 1.502 . S
C196 H182 0.960 . S
C196 H183 0.961 . S
C196 H184 0.959 . S
C196 C194 1.561 1_565 S
C197 C194 1.526 . S
C197 C198 1.396 . S
C197 C202 1.390 1_545 S
C198 C192 1.465 . S
C198 C197 1.396 . S
C198 C199 1.399 . S
C199 H185 0.929 . S
C199 C198 1.399 . S
C199 C200 1.385 . S
C200 H186 0.931 . S
C200 C199 1.385 . S
C200 C201 1.389 1_545 S
C201 C200 1.389 1_565 S
C201 C202 1.387 . S
C202 H187 0.930 . S
C202 C197 1.390 1_565 S
C202 C201 1.387 . S
H203 C215 0.930 . S
H204 C217 0.930 . S
H205 C218 0.930 . S
H206 C222 0.959 . S
H207 C222 0.959 . S
H208 C222 0.961 . S
H209 C223 0.960 . S
H210 C223 0.961 . S
H211 C223 0.959 . S
H212 C226 0.929 1_565 S
H213 C227 0.931 . S
H214 C229 0.930 . S
C215 H203 0.930 . S
C215 C216 1.399 1_545 S
C215 C220 1.399 . S
C216 C215 1.399 1_565 S
C216 C217 1.376 . S
C217 H204 0.930 . S
C217 C216 1.376 . S
C217 C218 1.388 . S
C218 H205 0.930 . S
C218 C217 1.388 . S
C218 C219 1.390 1_565 S
C219 C218 1.390 1_545 S
C219 C220 1.394 . S
C219 C225 1.465 . S
C220 C215 1.399 . S
C220 C219 1.394 . S
C220 C221 1.516 . S
C221 C220 1.516 . S
C221 C222 1.502 . S
C221 C223 1.561 . S
C221 C224 1.526 . S
C222 H206 0.959 . S
C222 H207 0.959 . S
C222 H208 0.961 . S
C222 C221 1.502 . S
C223 H209 0.960 . S
C223 H210 0.961 . S
C223 H211 0.959 . S
C223 C221 1.561 . S
C224 C221 1.526 . S
C224 C225 1.396 . S
C224 C229 1.390 . S
C225 C219 1.465 . S
C225 C224 1.396 . S
C225 C226 1.399 . S
C226 H212 0.929 1_545 S
C226 C225 1.399 . S
C226 C227 1.385 . S
C227 H213 0.931 . S
C227 C226 1.385 . S
C227 C228 1.389 . S
C228 C227 1.389 . S
C228 C229 1.387 . S
C229 H214 0.930 . S
C229 C224 1.390 . S
C229 C228 1.387 . S
H230 C242 0.930 . S
H231 C244 0.930 . S
H232 C245 0.930 . S
H233 C249 0.959 1_565 S
H234 C249 0.959 . S
H235 C249 0.961 . S
H236 C250 0.960 . S
H237 C250 0.961 . S
H238 C250 0.959 . S
H239 C253 0.929 . S
H240 C254 0.931 . S
H241 C256 0.930 . S
C242 H230 0.930 . S
C242 C243 1.399 . S
C242 C247 1.399 . S
C243 C242 1.399 . S
C243 C244 1.376 1_545 S
C244 H231 0.930 . S
C244 C243 1.376 1_565 S
C244 C245 1.388 . S
C245 H232 0.930 . S
C245 C244 1.388 . S
C245 C246 1.390 . S
C246 C245 1.390 . S
C246 C247 1.394 1_565 S
C246 C252 1.465 . S
C247 C242 1.399 . S
C247 C246 1.394 1_545 S
C247 C248 1.516 . S
C248 C247 1.516 . S
C248 C249 1.502 . S
C248 C250 1.561 . S
C248 C251 1.526 1_545 S
C249 H233 0.959 1_545 S
C249 H234 0.959 . S
C249 H235 0.961 . S
C249 C248 1.502 . S
C250 H236 0.960 . S
C250 H237 0.961 . S
C250 H238 0.959 . S
C250 C248 1.561 . S
C251 C248 1.526 1_565 S
C251 C252 1.396 . S
C251 C256 1.390 . S
C252 C246 1.465 . S
C252 C251 1.396 . S
C252 C253 1.399 . S
C253 H239 0.929 . S
C253 C252 1.399 . S
C253 C254 1.385 . S
C254 H240 0.931 . S
C254 C253 1.385 . S
C254 C255 1.389 . S
C255 C254 1.389 . S
C255 C256 1.387 . S
C256 H241 0.930 . S
C256 C251 1.390 . S
C256 C255 1.387 . S
H257 C269 0.930 . S
H258 C271 0.930 . S
H259 C272 0.930 . S
H260 C276 0.959 . S
H261 C276 0.959 . S
H262 C276 0.961 . S
H263 C277 0.960 . S
H264 C277 0.961 . S
H265 C277 0.959 . S
H266 C280 0.929 . S
H267 C281 0.931 . S
H268 C283 0.930 . S
C269 H257 0.930 . S
C269 C270 1.399 . S
C269 C274 1.399 . S
C270 C269 1.399 . S
C270 C271 1.376 1_545 S
C271 H258 0.930 . S
C271 C270 1.376 1_565 S
C271 C272 1.388 . S
C272 H259 0.930 . S
C272 C271 1.388 . S
C272 C273 1.390 . S
C273 C272 1.390 . S
C273 C274 1.394 1_565 S
C273 C279 1.465 . S
C274 C269 1.399 . S
C274 C273 1.394 1_545 S
C274 C275 1.516 . S
C275 C274 1.516 . S
C275 C276 1.502 . S
C275 C277 1.561 . S
C275 C278 1.526 1_545 S
C276 H260 0.959 . S
C276 H261 0.959 . S
C276 H262 0.961 . S
C276 C275 1.502 . S
C277 H263 0.960 . S
C277 H264 0.961 . S
C277 H265 0.959 . S
C277 C275 1.561 . S
C278 C275 1.526 1_565 S
C278 C279 1.396 . S
C278 C283 1.390 . S
C279 C273 1.465 . S
C279 C278 1.396 . S
C279 C280 1.399 . S
C280 H266 0.929 . S
C280 C279 1.399 . S
C280 C281 1.385 . S
C281 H267 0.931 . S
C281 C280 1.385 . S
C281 C282 1.389 . S
C282 C281 1.389 . S
C282 C283 1.387 . S
C283 H268 0.930 . S
C283 C278 1.390 . S
C283 C282 1.387 . S
H284 C296 0.930 . S
H285 C298 0.930 . S
H286 C299 0.930 . S
H287 C303 0.959 . S
H288 C303 0.959 . S
H289 C303 0.961 . S
H290 C304 0.960 . S
H291 C304 0.961 . S
H292 C304 0.959 . S
H293 C307 0.929 . S
H294 C308 0.931 . S
H295 C310 0.930 . S
C296 H284 0.930 . S
C296 C297 1.399 . S
C296 C301 1.399 . S
C297 C296 1.399 . S
C297 C298 1.376 . S
C298 H285 0.930 . S
C298 C297 1.376 . S
C298 C299 1.388 . S
C299 H286 0.930 . S
C299 C298 1.388 . S
C299 C300 1.390 . S
C300 C299 1.390 . S
C300 C301 1.394 . S
C300 C306 1.465 . S
C301 C296 1.399 . S
C301 C300 1.394 . S
C301 C302 1.516 . S
C302 C301 1.516 . S
C302 C303 1.502 . S
C302 C304 1.561 . S
C302 C305 1.526 . S
C303 H287 0.959 . S
C303 H288 0.959 . S
C303 H289 0.961 . S
C303 C302 1.502 . S
C304 H290 0.960 . S
C304 H291 0.961 . S
C304 H292 0.959 . S
C304 C302 1.561 . S
C305 C302 1.526 . S
C305 C306 1.396 . S
C305 C310 1.390 . S
C306 C300 1.465 . S
C306 C305 1.396 . S
C306 C307 1.399 . S
C307 H293 0.929 . S
C307 C306 1.399 . S
C307 C308 1.385 . S
C308 H294 0.931 . S
C308 C307 1.385 . S
C308 C309 1.389 . S
C309 C308 1.389 . S
C309 C310 1.387 . S
C310 H295 0.930 . S
C310 C305 1.390 . S
C310 C309 1.387 . S
H311 C323 0.930 . S
H312 C325 0.930 . S
H313 C326 0.930 . S
H314 C330 0.959 . S
H315 C330 0.959 . S
H316 C330 0.961 . S
H317 C331 0.960 . S
H318 C331 0.961 . S
H319 C331 0.959 . S
H320 C334 0.929 . S
H321 C335 0.931 . S
H322 C337 0.930 . S
C323 H311 0.930 . S
C323 C324 1.399 . S
C323 C328 1.399 . S
C324 C323 1.399 . S
C324 C325 1.376 . S
C325 H312 0.930 . S
C325 C324 1.376 . S
C325 C326 1.388 . S
C326 H313 0.930 . S
C326 C325 1.388 . S
C326 C327 1.390 . S
C327 C326 1.390 . S
C327 C328 1.394 . S
C327 C333 1.465 . S
C328 C323 1.399 . S
C328 C327 1.394 . S
C328 C329 1.516 . S
C329 C328 1.516 . S
C329 C330 1.502 . S
C329 C331 1.561 . S
C329 C332 1.526 . S
C330 H314 0.959 . S
C330 H315 0.959 . S
C330 H316 0.961 . S
C330 C329 1.502 . S
C331 H317 0.960 . S
C331 H318 0.961 . S
C331 H319 0.959 . S
C331 C329 1.561 . S
C332 C329 1.526 . S
C332 C333 1.396 . S
C332 C337 1.390 . S
C333 C327 1.465 . S
C333 C332 1.396 . S
C333 C334 1.399 . S
C334 H320 0.929 . S
C334 C333 1.399 . S
C334 C335 1.385 . S
C335 H321 0.931 . S
C335 C334 1.385 . S
C335 C336 1.389 . S
C336 C335 1.389 . S
C336 C337 1.387 . S
C337 H322 0.930 . S
C337 C332 1.390 . S
C337 C336 1.387 . S
H338 C350 0.930 . S
H339 C352 0.930 . S
H340 C353 0.930 . S
H341 C357 0.959 . S
H342 C357 0.959 . S
H343 C357 0.961 . S
H344 C358 0.960 . S
H345 C358 0.961 . S
H346 C358 0.959 . S
H347 C361 0.929 . S
H348 C362 0.931 . S
H349 C364 0.930 . S
C350 H338 0.930 . S
C350 C351 1.399 . S
C350 C355 1.399 . S
C351 C350 1.399 . S
C351 C352 1.376 . S
C352 H339 0.930 . S
C352 C351 1.376 . S
C352 C353 1.388 . S
C353 H340 0.930 . S
C353 C352 1.388 . S
C353 C354 1.390 . S
C354 C353 1.390 . S
C354 C355 1.394 . S
C354 C360 1.465 . S
C355 C350 1.399 . S
C355 C354 1.394 . S
C355 C356 1.516 . S
C356 C355 1.516 . S
C356 C357 1.502 . S
C356 C358 1.561 . S
C356 C359 1.526 . S
C357 H341 0.959 . S
C357 H342 0.959 . S
C357 H343 0.961 . S
C357 C356 1.502 . S
C358 H344 0.960 . S
C358 H345 0.961 . S
C358 H346 0.959 . S
C358 C356 1.561 . S
C359 C356 1.526 . S
C359 C360 1.396 . S
C359 C364 1.390 . S
C360 C354 1.465 . S
C360 C359 1.396 . S
C360 C361 1.399 . S
C361 H347 0.929 . S
C361 C360 1.399 . S
C361 C362 1.385 . S
C362 H348 0.931 . S
C362 C361 1.385 . S
C362 C363 1.389 . S
C363 C362 1.389 . S
C363 C364 1.387 . S
C364 H349 0.930 . S
C364 C359 1.390 . S
C364 C363 1.387 . S
H365 C377 0.930 . S
H366 C379 0.930 . S
H367 C380 0.930 . S
H368 C384 0.959 . S
H369 C384 0.959 . S
H370 C384 0.961 . S
H371 C385 0.960 . S
H372 C385 0.961 . S
H373 C385 0.959 . S
H374 C388 0.929 . S
H375 C389 0.931 . S
H376 C391 0.930 . S
C377 H365 0.930 . S
C377 C378 1.399 . S
C377 C382 1.399 . S
C378 C377 1.399 . S
C378 C379 1.376 . S
C379 H366 0.930 . S
C379 C378 1.376 . S
C379 C380 1.388 . S
C380 H367 0.930 . S
C380 C379 1.388 . S
C380 C381 1.390 . S
C381 C380 1.390 . S
C381 C382 1.394 . S
C381 C387 1.465 . S
C382 C377 1.399 . S
C382 C381 1.394 . S
C382 C383 1.516 . S
C383 C382 1.516 . S
C383 C384 1.502 . S
C383 C385 1.561 . S
C383 C386 1.526 . S
C384 H368 0.959 . S
C384 H369 0.959 . S
C384 H370 0.961 . S
C384 C383 1.502 . S
C385 H371 0.960 . S
C385 H372 0.961 . S
C385 H373 0.959 . S
C385 C383 1.561 . S
C386 C383 1.526 . S
C386 C387 1.396 . S
C386 C391 1.390 . S
C387 C381 1.465 . S
C387 C386 1.396 . S
C387 C388 1.399 . S
C388 H374 0.929 . S
C388 C387 1.399 . S
C388 C389 1.385 . S
C389 H375 0.931 . S
C389 C388 1.385 . S
C389 C390 1.389 . S
C390 C389 1.389 . S
C390 C391 1.387 . S
C391 H376 0.930 . S
C391 C386 1.390 . S
C391 C390 1.387 . S
H392 C404 0.930 1_566 S
H393 C406 0.930 . S
H394 C407 0.930 . S
H395 C411 0.959 . S
H396 C411 0.959 . S
H397 C411 0.961 . S
H398 C412 0.960 . S
H399 C412 0.961 . S
H400 C412 0.959 . S
H401 C415 0.929 . S
H402 C416 0.931 . S
H403 C418 0.930 . S
C404 H392 0.930 1_544 S
C404 C405 1.399 . S
C404 C409 1.401 1_554 S
C405 C404 1.399 . S
C405 C406 1.376 . S
C406 H393 0.930 . S
C406 C405 1.376 . S
C406 C407 1.388 . S
C407 H394 0.930 . S
C407 C406 1.388 . S
C407 C408 1.390 . S
C408 C407 1.390 . S
C408 C409 1.407 1_554 S
C408 C414 1.465 . S
C409 C404 1.401 1_556 S
C409 C408 1.407 1_556 S
C409 C410 1.505 1_545 S
C410 C409 1.505 1_565 S
C410 C411 1.502 . S
C410 C412 1.561 1_565 S
C410 C413 1.526 . S
C411 H395 0.959 . S
C411 H396 0.959 . S
C411 H397 0.961 . S
C411 C410 1.502 . S
C412 H398 0.960 . S
C412 H399 0.961 . S
C412 H400 0.959 . S
C412 C410 1.561 1_545 S
C413 C410 1.526 . S
C413 C414 1.396 1_566 S
C413 C418 1.390 . S
C414 C408 1.465 . S
C414 C413 1.396 1_544 S
C414 C415 1.399 . S
C415 H401 0.929 . S
C415 C414 1.399 . S
C415 C416 1.385 . S
C416 H402 0.931 . S
C416 C415 1.385 . S
C416 C417 1.389 1_544 S
C417 C416 1.389 1_566 S
C417 C418 1.387 . S
C418 H403 0.930 . S
C418 C413 1.390 . S
C418 C417 1.387 . S
H419 C431 0.930 . S
H420 C433 0.930 . S
H421 C434 0.930 . S
H422 C438 0.959 . S
H423 C438 0.959 . S
H424 C438 0.961 . S
H425 C439 0.960 . S
H426 C439 0.961 . S
H427 C439 0.959 . S
H428 C442 0.929 . S
H429 C443 0.931 . S
H430 C445 0.930 . S
C431 H419 0.930 . S
C431 C432 1.399 . S
C431 C436 1.399 . S
C432 C431 1.399 . S
C432 C433 1.376 1_565 S
C433 H420 0.930 . S
C433 C432 1.376 1_545 S
C433 C434 1.388 . S
C434 H421 0.930 . S
C434 C433 1.388 . S
C434 C435 1.390 . S
C435 C434 1.390 . S
C435 C436 1.394 1_545 S
C435 C441 1.465 . S
C436 C431 1.399 . S
C436 C435 1.394 1_565 S
C436 C437 1.516 . S
C437 C436 1.516 . S
C437 C438 1.502 . S
C437 C439 1.561 . S
C437 C440 1.526 . S
C438 H422 0.959 . S
C438 H423 0.959 . S
C438 H424 0.961 . S
C438 C437 1.502 . S
C439 H425 0.960 . S
C439 H426 0.961 . S
C439 H427 0.959 . S
C439 C437 1.561 . S
C440 C437 1.526 . S
C440 C441 1.396 1_565 S
C440 C445 1.390 . S
C441 C435 1.465 . S
C441 C440 1.396 1_545 S
C441 C442 1.399 . S
C442 H428 0.929 . S
C442 C441 1.399 . S
C442 C443 1.385 . S
C443 H429 0.931 . S
C443 C442 1.385 . S
C443 C444 1.389 . S
C444 C443 1.389 . S
C444 C445 1.387 1_545 S
C445 H430 0.930 . S
C445 C440 1.390 . S
C445 C444 1.387 1_565 S
H446 C458 0.930 . S
H447 C460 0.930 . S
H448 C461 0.930 . S
H449 C465 0.954 1_556 S
H450 C465 0.959 . S
H451 C465 0.961 . S
H452 C466 0.960 . S
H453 C466 0.961 . S
H454 C466 0.959 . S
H455 C469 0.929 . S
H456 C470 0.931 . S
H457 C472 0.930 1_554 S
C458 H446 0.930 . S
C458 C459 1.399 . S
C458 C463 1.399 . S
C459 C458 1.399 . S
C459 C460 1.376 . S
C460 H447 0.930 . S
C460 C459 1.376 . S
C460 C461 1.388 1_554 S
C461 H448 0.930 . S
C461 C460 1.388 1_556 S
C461 C462 1.391 . S
C462 C461 1.391 . S
C462 C463 1.385 1_556 S
C462 C468 1.472 1_655 S
C463 C458 1.399 . S
C463 C462 1.385 1_554 S
C463 C464 1.516 1_655 S
C464 C463 1.516 1_455 S
C464 C465 1.502 . S
C464 C466 1.561 . S
C464 C467 1.534 . S
C465 H449 0.954 1_554 S
C465 H450 0.959 . S
C465 H451 0.961 . S
C465 C464 1.502 . S
C466 H452 0.960 . S
C466 H453 0.961 . S
C466 H454 0.959 . S
C466 C464 1.561 . S
C467 C464 1.534 . S
C467 C468 1.392 1_554 S
C467 C472 1.385 1_554 S
C468 C462 1.472 1_455 S
C468 C467 1.392 1_556 S
C468 C469 1.399 . S
C469 H455 0.929 . S
C469 C468 1.399 . S
C469 C470 1.385 . S
C470 H456 0.931 . S
C470 C469 1.385 . S
C470 C471 1.389 . S
C471 C470 1.389 . S
C471 C472 1.387 . S
C472 H457 0.930 1_556 S
C472 C467 1.385 1_556 S
C472 C471 1.387 . S
H473 C485 0.930 . S
H474 C487 0.930 . S
H475 C488 0.930 . S
H476 C492 0.959 . S
H477 C492 0.959 . S
H478 C492 0.961 . S
H479 C493 0.960 . S
H480 C493 0.961 . S
H481 C493 0.959 . S
H482 C496 0.929 1_455 S
H483 C497 0.931 . S
H484 C499 0.930 . S
C485 H473 0.930 . S
C485 C486 1.399 . S
C485 C490 1.399 . S
C486 C485 1.399 . S
C486 C487 1.376 . S
C487 H474 0.930 . S
C487 C486 1.376 . S
C487 C488 1.388 . S
C488 H475 0.930 . S
C488 C487 1.388 . S
C488 C489 1.390 . S
C489 C488 1.390 . S
C489 C490 1.394 . S
C489 C495 1.465 1_455 S
C490 C485 1.399 . S
C490 C489 1.394 . S
C490 C491 1.516 1_455 S
C491 C490 1.516 1_655 S
C491 C492 1.502 . S
C491 C493 1.561 . S
C491 C494 1.526 . S
C492 H476 0.959 . S
C492 H477 0.959 . S
C492 H478 0.961 . S
C492 C491 1.502 . S
C493 H479 0.960 . S
C493 H480 0.961 . S
C493 H481 0.959 . S
C493 C491 1.561 . S
C494 C491 1.526 . S
C494 C495 1.396 . S
C494 C499 1.390 . S
C495 C489 1.465 1_655 S
C495 C494 1.396 . S
C495 C496 1.399 . S
C496 H482 0.929 1_655 S
C496 C495 1.399 . S
C496 C497 1.385 . S
C497 H483 0.931 . S
C497 C496 1.385 . S
C497 C498 1.389 . S
C498 C497 1.389 . S
C498 C499 1.387 . S
C499 H484 0.930 . S
C499 C494 1.390 . S
C499 C498 1.387 . S
H500 C512 0.930 . S
H501 C514 0.930 . S
H502 C515 0.930 . S
H503 C519 0.959 . S
H504 C519 0.959 . S
H505 C519 0.961 . S
H506 C520 0.960 1_545 S
H507 C520 0.961 1_655 S
H508 C520 0.959 . S
H509 C523 0.929 . S
H510 C524 0.931 . S
H511 C526 0.930 . S
C512 H500 0.930 . S
C512 C513 1.399 1_556 S
C512 C517 1.399 . S
C513 C512 1.399 1_554 S
C513 C514 1.376 . S
C514 H501 0.930 . S
C514 C513 1.376 . S
C514 C515 1.388 1_545 S
C515 H502 0.930 . S
C515 C514 1.388 1_565 S
C515 C516 1.390 . S
C516 C515 1.390 . S
C516 C517 1.394 1_564 S
C516 C522 1.465 1_455 S
C517 C512 1.399 . S
C517 C516 1.394 1_546 S
C517 C518 1.516 1_455 S
C518 C517 1.516 1_655 S
C518 C519 1.502 . S
C518 C520 1.561 1_645 S
C518 C521 1.526 1_545 S
C519 H503 0.959 . S
C519 H504 0.959 . S
C519 H505 0.961 . S
C519 C518 1.502 . S
C520 H506 0.960 1_565 S
C520 H507 0.961 1_455 S
C520 H508 0.959 . S
C520 C518 1.561 1_465 S
C521 C518 1.526 1_565 S
C521 C522 1.396 1_556 S
C521 C526 1.390 . S
C522 C516 1.465 1_655 S
C522 C521 1.396 1_554 S
C522 C523 1.399 . S
C523 H509 0.929 . S
C523 C522 1.399 . S
C523 C524 1.385 . S
C524 H510 0.931 . S
C524 C523 1.385 . S
C524 C525 1.389 1_554 S
C525 C524 1.389 1_556 S
C525 C526 1.387 . S
C526 H511 0.930 . S
C526 C521 1.390 . S
C526 C525 1.387 . S
H527 C539 0.930 . S
H528 C541 0.930 . S
H529 C542 0.930 . S
H530 C546 0.959 . S
H531 C546 0.959 . S
H532 C546 0.961 . S
H533 C547 0.960 1_655 S
H534 C547 0.961 . S
H535 C547 0.962 1_655 S
H536 C550 0.929 . S
H537 C551 0.931 . S
H538 C553 0.930 . S
C539 H527 0.930 . S
C539 C540 1.399 . S
C539 C544 1.399 . S
C540 C539 1.399 . S
C540 C541 1.376 . S
C541 H528 0.930 . S
C541 C540 1.376 . S
C541 C542 1.388 1_545 S
C542 H529 0.930 . S
C542 C541 1.388 1_565 S
C542 C543 1.390 . S
C543 C542 1.390 . S
C543 C544 1.394 1_565 S
C543 C549 1.465 1_655 S
C544 C539 1.399 . S
C544 C543 1.394 1_545 S
C544 C545 1.516 1_655 S
C545 C544 1.516 1_455 S
C545 C546 1.502 . S
C545 C547 1.561 . S
C545 C548 1.526 1_545 S
C546 H530 0.959 . S
C546 H531 0.959 . S
C546 H532 0.961 . S
C546 C545 1.502 . S
C547 H533 0.960 1_455 S
C547 H534 0.961 . S
C547 H535 0.962 1_455 S
C547 C545 1.561 . S
C548 C545 1.526 1_565 S
C548 C549 1.396 . S
C548 C553 1.390 . S
C549 C543 1.465 1_455 S
C549 C548 1.396 . S
C549 C550 1.399 . S
C550 H536 0.929 . S
C550 C549 1.399 . S
C550 C551 1.385 . S
C551 H537 0.931 . S
C551 C550 1.385 . S
C551 C552 1.389 . S
C552 C551 1.389 . S
C552 C553 1.387 . S
C553 H538 0.930 . S
C553 C548 1.390 . S
C553 C552 1.387 . S
H554 C566 0.930 . S
H555 C568 0.930 . S
H556 C569 0.930 . S
H557 C573 0.959 . S
H558 C573 0.959 . S
H559 C573 0.961 . S
H560 C574 0.960 . S
H561 C574 0.961 . S
H562 C574 0.959 . S
H563 C577 0.929 . S
H564 C578 0.931 . S
H565 C580 0.930 . S
C566 H554 0.930 . S
C566 C567 1.399 . S
C566 C571 1.399 . S
C567 C566 1.399 . S
C567 C568 1.376 1_556 S
C568 H555 0.930 . S
C568 C567 1.376 1_554 S
C568 C569 1.388 . S
C569 H556 0.930 . S
C569 C568 1.388 . S
C569 C570 1.390 . S
C570 C569 1.390 . S
C570 C571 1.394 1_554 S
C570 C576 1.465 . S
C571 C566 1.399 . S
C571 C570 1.394 1_556 S
C571 C572 1.516 . S
C572 C571 1.516 . S
C572 C573 1.502 . S
C572 C574 1.561 . S
C572 C575 1.526 . S
C573 H557 0.959 . S
C573 H558 0.959 . S
C573 H559 0.961 . S
C573 C572 1.502 . S
C574 H560 0.960 . S
C574 H561 0.961 . S
C574 H562 0.959 . S
C574 C572 1.561 . S
C575 C572 1.526 . S
C575 C576 1.396 1_556 S
C575 C580 1.390 . S
C576 C570 1.465 . S
C576 C575 1.396 1_554 S
C576 C577 1.399 . S
C577 H563 0.929 . S
C577 C576 1.399 . S
C577 C578 1.385 . S
C578 H564 0.931 . S
C578 C577 1.385 . S
C578 C579 1.389 . S
C579 C578 1.389 . S
C579 C580 1.387 1_554 S
C580 H565 0.930 . S
C580 C575 1.390 . S
C580 C579 1.387 1_556 S
H581 C593 0.930 . S
H582 C595 0.930 . S
H583 C596 0.930 . S
H584 C600 0.959 . S
H585 C600 0.959 . S
H586 C600 0.961 . S
H587 C601 0.960 . S
H588 C601 0.961 . S
H589 C601 0.959 . S
H590 C604 0.929 . S
H591 C605 0.931 . S
H592 C607 0.930 . S
C593 H581 0.930 . S
C593 C594 1.399 . S
C593 C598 1.399 . S
C594 C593 1.399 . S
C594 C595 1.376 . S
C595 H582 0.930 . S
C595 C594 1.376 . S
C595 C596 1.388 . S
C596 H583 0.930 . S
C596 C595 1.388 . S
C596 C597 1.390 . S
C597 C596 1.390 . S
C597 C598 1.394 . S
C597 C603 1.465 . S
C598 C593 1.399 . S
C598 C597 1.394 . S
C598 C599 1.516 . S
C599 C598 1.516 . S
C599 C600 1.502 . S
C599 C601 1.561 . S
C599 C602 1.526 . S
C600 H584 0.959 . S
C600 H585 0.959 . S
C600 H586 0.961 . S
C600 C599 1.502 . S
C601 H587 0.960 . S
C601 H588 0.961 . S
C601 H589 0.959 . S
C601 C599 1.561 . S
C602 C599 1.526 . S
C602 C603 1.396 . S
C602 C607 1.390 . S
C603 C597 1.465 . S
C603 C602 1.396 . S
C603 C604 1.399 . S
C604 H590 0.929 . S
C604 C603 1.399 . S
C604 C605 1.385 . S
C605 H591 0.931 . S
C605 C604 1.385 . S
C605 C606 1.389 . S
C606 C605 1.389 . S
C606 C607 1.387 . S
C607 H592 0.930 . S
C607 C602 1.390 . S
C607 C606 1.387 . S
H608 C620 0.930 . S
H609 C622 0.930 . S
H610 C623 0.930 . S
H611 C627 0.959 . S
H612 C627 0.959 . S
H613 C627 0.961 . S
H614 C628 0.960 . S
H615 C628 0.961 . S
H616 C628 0.959 . S
H617 C631 0.929 . S
H618 C632 0.931 . S
H619 C634 0.930 . S
C620 H608 0.930 . S
C620 C621 1.399 . S
C620 C625 1.399 . S
C621 C620 1.399 . S
C621 C622 1.376 . S
C622 H609 0.930 . S
C622 C621 1.376 . S
C622 C623 1.388 . S
C623 H610 0.930 . S
C623 C622 1.388 . S
C623 C624 1.390 . S
C624 C623 1.390 . S
C624 C625 1.394 . S
C624 C630 1.465 . S
C625 C620 1.399 . S
C625 C624 1.394 . S
C625 C626 1.516 . S
C626 C625 1.516 . S
C626 C627 1.502 . S
C626 C628 1.561 . S
C626 C629 1.526 . S
C627 H611 0.959 . S
C627 H612 0.959 . S
C627 H613 0.961 . S
C627 C626 1.502 . S
C628 H614 0.960 . S
C628 H615 0.961 . S
C628 H616 0.959 . S
C628 C626 1.561 . S
C629 C626 1.526 . S
C629 C630 1.396 . S
C629 C634 1.390 . S
C630 C624 1.465 . S
C630 C629 1.396 . S
C630 C631 1.399 . S
C631 H617 0.929 . S
C631 C630 1.399 . S
C631 C632 1.385 . S
C632 H618 0.931 . S
C632 C631 1.385 . S
C632 C633 1.389 . S
C633 C632 1.389 . S
C633 C634 1.387 . S
C634 H619 0.930 . S
C634 C629 1.390 . S
C634 C633 1.387 . S
H635 C647 0.930 . S
H636 C649 0.930 . S
H637 C650 0.930 . S
H638 C654 0.959 . S
H639 C654 0.959 . S
H640 C654 0.961 . S
H641 C655 0.960 . S
H642 C655 0.961 . S
H643 C655 0.959 . S
H644 C658 0.929 . S
H645 C659 0.931 . S
H646 C661 0.930 . S
C647 H635 0.930 . S
C647 C648 1.399 . S
C647 C652 1.399 . S
C648 C647 1.399 . S
C648 C649 1.376 . S
C649 H636 0.930 . S
C649 C648 1.376 . S
C649 C650 1.388 . S
C650 H637 0.930 . S
C650 C649 1.388 . S
C650 C651 1.390 . S
C651 C650 1.390 . S
C651 C652 1.394 . S
C651 C657 1.465 . S
C652 C647 1.399 . S
C652 C651 1.394 . S
C652 C653 1.516 . S
C653 C652 1.516 . S
C653 C654 1.502 . S
C653 C655 1.561 . S
C653 C656 1.526 . S
C654 H638 0.959 . S
C654 H639 0.959 . S
C654 H640 0.961 . S
C654 C653 1.502 . S
C655 H641 0.960 . S
C655 H642 0.961 . S
C655 H643 0.959 . S
C655 C653 1.561 . S
C656 C653 1.526 . S
C656 C657 1.396 . S
C656 C661 1.390 . S
C657 C651 1.465 . S
C657 C656 1.396 . S
C657 C658 1.399 . S
C658 H644 0.929 . S
C658 C657 1.399 . S
C658 C659 1.385 . S
C659 H645 0.931 . S
C659 C658 1.385 . S
C659 C660 1.389 . S
C660 C659 1.389 . S
C660 C661 1.387 . S
C661 H646 0.930 . S
C661 C656 1.390 . S
C661 C660 1.387 . S
H662 C674 0.930 . S
H663 C676 0.930 . S
H664 C677 0.930 . S
H665 C681 0.959 . S
H666 C681 0.959 . S
H667 C681 0.961 . S
H668 C682 0.960 . S
H669 C682 0.961 1_455 S
H670 C682 0.959 . S
H671 C685 0.929 . S
H672 C686 0.931 . S
H673 C688 0.930 . S
C674 H662 0.930 . S
C674 C675 1.399 . S
C674 C679 1.399 . S
C675 C674 1.399 . S
C675 C676 1.376 . S
C676 H663 0.930 . S
C676 C675 1.376 . S
C676 C677 1.388 . S
C677 H664 0.930 . S
C677 C676 1.388 . S
C677 C678 1.390 . S
C678 C677 1.390 . S
C678 C679 1.394 . S
C678 C684 1.465 1_655 S
C679 C674 1.399 . S
C679 C678 1.394 . S
C679 C680 1.516 1_655 S
C680 C679 1.516 1_455 S
C680 C681 1.502 . S
C680 C682 1.561 1_455 S
C680 C683 1.526 . S
C681 H665 0.959 . S
C681 H666 0.959 . S
C681 H667 0.961 . S
C681 C680 1.502 . S
C682 H668 0.960 . S
C682 H669 0.961 1_655 S
C682 H670 0.959 . S
C682 C680 1.561 1_655 S
C683 C680 1.526 . S
C683 C684 1.396 . S
C683 C688 1.390 . S
C684 C678 1.465 1_455 S
C684 C683 1.396 . S
C684 C685 1.399 . S
C685 H671 0.929 . S
C685 C684 1.399 . S
C685 C686 1.385 . S
C686 H672 0.931 . S
C686 C685 1.385 . S
C686 C687 1.389 . S
C687 C686 1.389 . S
C687 C688 1.387 . S
C688 H673 0.930 . S
C688 C683 1.390 . S
C688 C687 1.387 . S
H689 C701 0.930 . S
H690 C703 0.930 . S
H691 C704 0.930 . S
H692 C708 0.959 . S
H693 C708 0.959 . S
H694 C708 0.961 . S
H695 C709 0.960 . S
H696 C709 0.961 1_455 S
H697 C709 0.959 . S
H698 C712 0.929 . S
H699 C713 0.931 . S
H700 C715 0.930 . S
C701 H689 0.930 . S
C701 C702 1.399 . S
C701 C706 1.399 . S
C702 C701 1.399 . S
C702 C703 1.376 . S
C703 H690 0.930 . S
C703 C702 1.376 . S
C703 C704 1.388 . S
C704 H691 0.930 . S
C704 C703 1.388 . S
C704 C705 1.390 . S
C705 C704 1.390 . S
C705 C706 1.394 . S
C705 C711 1.465 1_655 S
C706 C701 1.399 . S
C706 C705 1.394 . S
C706 C707 1.516 1_655 S
C707 C706 1.516 1_455 S
C707 C708 1.502 . S
C707 C709 1.561 1_455 S
C707 C710 1.526 . S
C708 H692 0.959 . S
C708 H693 0.959 . S
C708 H694 0.961 . S
C708 C707 1.502 . S
C709 H695 0.960 . S
C709 H696 0.961 1_655 S
C709 H697 0.959 . S
C709 C707 1.561 1_655 S
C710 C707 1.526 . S
C710 C711 1.396 . S
C710 C715 1.390 . S
C711 C705 1.465 1_455 S
C711 C710 1.396 . S
C711 C712 1.399 . S
C712 H698 0.929 . S
C712 C711 1.399 . S
C712 C713 1.385 . S
C713 H699 0.931 . S
C713 C712 1.385 . S
C713 C714 1.389 . S
C714 C713 1.389 . S
C714 C715 1.387 . S
C715 H700 0.930 . S
C715 C710 1.390 . S
C715 C714 1.387 . S
H716 C728 0.930 . S
H717 C730 0.930 . S
H718 C731 0.930 . S
H719 C735 0.959 . S
H720 C735 0.959 . S
H721 C735 0.961 . S
H722 C736 0.960 . S
H723 C736 0.961 . S
H724 C736 0.959 . S
H725 C739 0.929 . S
H726 C740 0.931 . S
H727 C742 0.930 . S
C728 H716 0.930 . S
C728 C729 1.399 1_556 S
C728 C733 1.399 . S
C729 C728 1.399 1_554 S
C729 C730 1.376 . S
C730 H717 0.930 . S
C730 C729 1.376 . S
C730 C731 1.388 . S
C731 H718 0.930 . S
C731 C730 1.388 . S
C731 C732 1.390 . S
C732 C731 1.390 . S
C732 C733 1.394 1_554 S
C732 C738 1.465 . S
C733 C728 1.399 . S
C733 C732 1.394 1_556 S
C733 C734 1.516 . S
C734 C733 1.516 . S
C734 C735 1.502 . S
C734 C736 1.561 . S
C734 C737 1.526 . S
C735 H719 0.959 . S
C735 H720 0.959 . S
C735 H721 0.961 . S
C735 C734 1.502 . S
C736 H722 0.960 . S
C736 H723 0.961 . S
C736 H724 0.959 . S
C736 C734 1.561 . S
C737 C734 1.526 . S
C737 C738 1.396 1_556 S
C737 C742 1.390 . S
C738 C732 1.465 . S
C738 C737 1.396 1_554 S
C738 C739 1.399 . S
C739 H725 0.929 . S
C739 C738 1.399 . S
C739 C740 1.385 . S
C740 H726 0.931 . S
C740 C739 1.385 . S
C740 C741 1.389 1_554 S
C741 C740 1.389 1_556 S
C741 C742 1.387 . S
C742 H727 0.930 . S
C742 C737 1.390 . S
C742 C741 1.387 . S
H743 C755 0.930 . S
H744 C757 0.930 . S
H745 C758 0.930 . S
H746 C762 0.959 . S
H747 C762 0.959 . S
H748 C762 0.961 . S
H749 C763 0.960 . S
H750 C763 0.961 . S
H751 C763 0.959 . S
H752 C766 0.929 . S
H753 C767 0.931 . S
H754 C769 0.930 . S
C755 H743 0.930 . S
C755 C756 1.399 . S
C755 C760 1.399 . S
C756 C755 1.399 . S
C756 C757 1.376 . S
C757 H744 0.930 . S
C757 C756 1.376 . S
C757 C758 1.388 . S
C758 H745 0.930 . S
C758 C757 1.388 . S
C758 C759 1.390 . S
C759 C758 1.390 . S
C759 C760 1.394 . S
C759 C765 1.465 . S
C760 C755 1.399 . S
C760 C759 1.394 . S
C760 C761 1.516 . S
C761 C760 1.516 . S
C761 C762 1.502 . S
C761 C763 1.561 . S
C761 C764 1.526 . S
C762 H746 0.959 . S
C762 H747 0.959 . S
C762 H748 0.961 . S
C762 C761 1.502 . S
C763 H749 0.960 . S
C763 H750 0.961 . S
C763 H751 0.959 . S
C763 C761 1.561 . S
C764 C761 1.526 . S
C764 C765 1.396 . S
C764 C769 1.390 . S
C765 C759 1.465 . S
C765 C764 1.396 . S
C765 C766 1.399 . S
C766 H752 0.929 . S
C766 C765 1.399 . S
C766 C767 1.385 . S
C767 H753 0.931 . S
C767 C766 1.385 . S
C767 C768 1.389 . S
C768 C767 1.389 . S
C768 C769 1.387 . S
C769 H754 0.930 . S
C769 C764 1.390 . S
C769 C768 1.387 . S
H770 C782 0.930 . S
H771 C784 0.930 . S
H772 C785 0.930 . S
H773 C789 0.959 . S
H774 C789 0.959 . S
H775 C789 0.961 . S
H776 C790 0.960 . S
H777 C790 0.961 . S
H778 C790 0.959 . S
H779 C793 0.929 . S
H780 C794 0.931 . S
H781 C796 0.930 . S
C782 H770 0.930 . S
C782 C783 1.399 1_554 S
C782 C787 1.399 . S
C783 C782 1.399 1_556 S
C783 C784 1.376 . S
C784 H771 0.930 . S
C784 C783 1.376 . S
C784 C785 1.388 . S
C785 H772 0.930 . S
C785 C784 1.388 . S
C785 C786 1.390 . S
C786 C785 1.390 . S
C786 C787 1.394 1_556 S
C786 C792 1.465 . S
C787 C782 1.399 . S
C787 C786 1.394 1_554 S
C787 C788 1.516 . S
C788 C787 1.516 . S
C788 C789 1.502 . S
C788 C790 1.561 . S
C788 C791 1.526 . S
C789 H773 0.959 . S
C789 H774 0.959 . S
C789 H775 0.961 . S
C789 C788 1.502 . S
C790 H776 0.960 . S
C790 H777 0.961 . S
C790 H778 0.959 . S
C790 C788 1.561 . S
C791 C788 1.526 . S
C791 C792 1.396 1_554 S
C791 C796 1.390 . S
C792 C786 1.465 . S
C792 C791 1.396 1_556 S
C792 C793 1.399 . S
C793 H779 0.929 . S
C793 C792 1.399 . S
C793 C794 1.385 . S
C794 H780 0.931 . S
C794 C793 1.385 . S
C794 C795 1.389 1_556 S
C795 C794 1.389 1_554 S
C795 C796 1.387 . S
C796 H781 0.930 . S
C796 C791 1.390 . S
C796 C795 1.387 . S
H797 C809 0.930 . S
H798 C811 0.930 . S
H799 C812 0.930 . S
H800 C816 0.959 . S
H801 C816 0.959 . S
H802 C816 0.961 . S
H803 C817 0.960 . S
H804 C817 0.961 . S
H805 C817 0.959 . S
H806 C820 0.929 . S
H807 C821 0.931 . S
H808 C823 0.930 . S
C809 H797 0.930 . S
C809 C810 1.399 . S
C809 C814 1.399 . S
C810 C809 1.399 . S
C810 C811 1.376 . S
C811 H798 0.930 . S
C811 C810 1.376 . S
C811 C812 1.388 . S
C812 H799 0.930 . S
C812 C811 1.388 . S
C812 C813 1.390 . S
C813 C812 1.390 . S
C813 C814 1.394 . S
C813 C819 1.465 . S
C814 C809 1.399 . S
C814 C813 1.394 . S
C814 C815 1.516 . S
C815 C814 1.516 . S
C815 C816 1.502 . S
C815 C817 1.561 . S
C815 C818 1.526 . S
C816 H800 0.959 . S
C816 H801 0.959 . S
C816 H802 0.961 . S
C816 C815 1.502 . S
C817 H803 0.960 . S
C817 H804 0.961 . S
C817 H805 0.959 . S
C817 C815 1.561 . S
C818 C815 1.526 . S
C818 C819 1.396 . S
C818 C823 1.390 . S
C819 C813 1.465 . S
C819 C818 1.396 . S
C819 C820 1.399 . S
C820 H806 0.929 . S
C820 C819 1.399 . S
C820 C821 1.385 . S
C821 H807 0.931 . S
C821 C820 1.385 . S
C821 C822 1.389 . S
C822 C821 1.389 . S
C822 C823 1.387 . S
C823 H808 0.930 . S
C823 C818 1.390 . S
C823 C822 1.387 . S
C189 C6 1.309 . S
C201 C71 1.295 . S
C216 C49 1.307 . S
C228 C28 1.221 . S
C243 C29 1.301 . S
C255 C53 1.320 . S
C270 C7 1.317 . S
C282 C75 1.310 . S
C297 C159 1.283 . S
C309 C94 1.250 . S
C324 C116 1.321 . S
C336 C137 1.315 . S
C351 C117 1.311 . S
C363 C141 1.315 . S
C378 C95 1.328 . S
C390 C163 1.295 . S
C405 C9 0.701 . S
C417 C50 0.655 . S
C432 C72 0.666 . S
C444 C31 0.688 . S
C459 C97 0.734 . S
C471 C138 0.687 . S
C486 C119 0.674 . S
C498 C160 0.743 . S
C513 C5 2.089 . S
C525 C51 2.140 . S
C540 C27 2.087 . S
C552 C73 2.145 . S
C567 C139 2.103 . S
C579 C93 2.122 . S
C594 C161 2.106 . S
C606 C115 2.119 . S
C621 C8 1.698 . S
C633 C30 1.704 . S
C648 C48 1.684 . S
C660 C70 1.686 . S
C675 C96 1.688 . S
C687 C118 1.684 . S
C702 C158 1.702 . S
C714 C136 1.701 . S
C729 C4 1.433 . S
C741 C140 1.407 . S
C756 C26 1.403 . S
C768 C162 1.410 . S
C783 C52 1.370 . S
C795 C92 1.448 . S
C810 C114 1.424 . S
C822 C74 1.416 . S
