# Generated by pormake.
# Topology lvt, (4)-cn, num edge types: 1
# Building blocks:
#     Node 0, Type 0, BuildingBlock: KOZSID_clean_sbu_0, # of connection points: 4
#     Node 1, Type 0, BuildingBlock: KOZSID_clean_sbu_0, # of connection points: 4
#     Node 2, Type 0, BuildingBlock: KOZSID_clean_sbu_0, # of connection points: 4
#     Node 3, Type 0, BuildingBlock: KOZSID_clean_sbu_0, # of connection points: 4
#     Node 4, Type 0, BuildingBlock: KOZSID_clean_sbu_0, # of connection points: 4
#     Node 5, Type 0, BuildingBlock: KOZSID_clean_sbu_0, # of connection points: 4
#     Node 6, Type 0, BuildingBlock: KOZSID_clean_sbu_0, # of connection points: 4
#     Node 7, Type 0, BuildingBlock: KOZSID_clean_sbu_0, # of connection points: 4
#     Edge 8, Type (0, 0), BuildingBlock: XIVTED_clean_linker_0, # of connection points: 2
#     Edge 9, Type (0, 0), BuildingBlock: XIVTED_clean_linker_0, # of connection points: 2
#     Edge 10, Type (0, 0), BuildingBlock: XIVTED_clean_linker_0, # of connection points: 2
#     Edge 11, Type (0, 0), BuildingBlock: XIVTED_clean_linker_0, # of connection points: 2
#     Edge 12, Type (0, 0), BuildingBlock: XIVTED_clean_linker_0, # of connection points: 2
#     Edge 13, Type (0, 0), BuildingBlock: XIVTED_clean_linker_0, # of connection points: 2
#     Edge 14, Type (0, 0), BuildingBlock: XIVTED_clean_linker_0, # of connection points: 2
#     Edge 15, Type (0, 0), BuildingBlock: XIVTED_clean_linker_0, # of connection points: 2
#     Edge 16, Type (0, 0), BuildingBlock: XIVTED_clean_linker_0, # of connection points: 2
#     Edge 17, Type (0, 0), BuildingBlock: XIVTED_clean_linker_0, # of connection points: 2
#     Edge 18, Type (0, 0), BuildingBlock: XIVTED_clean_linker_0, # of connection points: 2
#     Edge 19, Type (0, 0), BuildingBlock: XIVTED_clean_linker_0, # of connection points: 2
#     Edge 20, Type (0, 0), BuildingBlock: XIVTED_clean_linker_0, # of connection points: 2
#     Edge 21, Type (0, 0), BuildingBlock: XIVTED_clean_linker_0, # of connection points: 2
#     Edge 22, Type (0, 0), BuildingBlock: XIVTED_clean_linker_0, # of connection points: 2
#     Edge 23, Type (0, 0), BuildingBlock: XIVTED_clean_linker_0, # of connection points: 2
# Relax obj value: 0.003
# Max RMSD: 0.030
# Mean RMSD: 0.020
data_MOF--net-lvt--node1-KOZSID_clean_sbu_0--edge1-XIVTED_clean_linker_0
_symmetry_space_group_name_H-M    P1
_symmetry_Int_Tables_number       1
_symmetry_cell_setting            triclinic
loop_
_symmetry_equiv_pos_as_xyz
'x, y, z'
_cell_length_a     43.494008
_cell_length_b     43.52241
_cell_length_c     39.816734
_cell_angle_alpha  83.544229
_cell_angle_beta   93.098004
_cell_angle_gamma 86.824962
loop_
_atom_site_label
_atom_site_type_symbol
_atom_site_fract_x
_atom_site_fract_y
_atom_site_fract_z
_atom_type_partial_charge
C0 C 0.04683 0.94478 0.51594 0.0
C1 C 0.05556 0.91759 0.50273 0.0
C2 C 0.03847 0.91757 0.47304 0.0
C3 C 0.02013 0.94443 0.46984 0.0
N4 N 0.02451 0.96177 0.49566 0.0
Co5 Co 0.00157 0.00197 0.50158 0.0
N6 N 0.97375 0.99967 0.4602 0.0
C7 C 0.9732 0.97614 0.44073 0.0
C8 C 0.95033 0.98001 0.41534 0.0
C9 C 0.93542 0.00779 0.4186 0.0
C10 C 0.95044 0.01954 0.44563 0.0
N11 N 0.97952 0.04283 0.50666 0.0
C12 C 0.95739 0.05987 0.48615 0.0
C13 C 0.95082 0.08849 0.49739 0.0
C14 C 0.96894 0.08935 0.52621 0.0
C15 C 0.98584 0.06158 0.53071 0.0
N16 N 0.02847 0.00358 0.54383 0.0
C17 C 0.02762 0.02604 0.56471 0.0
C18 C 0.0486 0.02075 0.59193 0.0
C19 C 0.0634 0.99292 0.58868 0.0
C20 C 0.05034 0.98268 0.55964 0.0
N21 N 0.03164 0.02449 0.47363 0.0
C22 C 0.07249 0.05819 0.43299 0.0
C23 C 0.06764 0.0648 0.46591 0.0
C24 C 0.04734 0.04788 0.48555 0.0
C25 C 0.05688 0.03399 0.42101 0.0
C26 C 0.03682 0.01756 0.44158 0.0
N27 N 0.97149 0.97949 0.52944 0.0
C28 C 0.93814 0.97613 0.57633 0.0
C29 C 0.92926 0.94695 0.56935 0.0
C30 C 0.94206 0.93448 0.54199 0.0
C31 C 0.96265 0.95104 0.52245 0.0
C32 C 0.95922 0.99174 0.5564 0.0
H33 H 0.97123 0.94016 0.50193 0.0
H34 H 0.96526 0.0137 0.5633 0.0
H35 H 0.04468 0.05434 0.51024 0.0
H36 H 0.02553 0.99954 0.43082 0.0
C37 C 0.99565 0.95169 0.44565 0.0
C38 C 0.05912 0.9527 0.54858 0.0
C39 C 0.94242 0.05013 0.45564 0.0
C40 C 0.00778 0.05246 0.55728 0.0
H41 H 0.07178 0.89901 0.51378 0.0
H42 H 0.03831 0.89935 0.45664 0.0
H43 H 0.9454 0.96469 0.39639 0.0
H44 H 0.91594 0.01836 0.40254 0.0
H45 H 0.93491 0.10715 0.48588 0.0
H46 H 0.96998 0.10816 0.54178 0.0
H47 H 0.05272 0.03544 0.61171 0.0
H48 H 0.08168 0.98143 0.60587 0.0
H49 H 0.0796 0.08288 0.47673 0.0
H50 H 0.05957 0.02805 0.3956 0.0
H51 H 0.9287 0.98716 0.59689 0.0
H52 H 0.93664 0.91174 0.53573 0.0
C53 C 0.18812 0.78581 0.73544 0.0
C54 C 0.16043 0.79356 0.7492 0.0
C55 C 0.15941 0.7747 0.77878 0.0
C56 C 0.18617 0.75631 0.7813 0.0
N57 N 0.20446 0.76237 0.75522 0.0
Co58 Co 0.24406 0.73903 0.74732 0.0
N59 N 0.24126 0.70982 0.78974 0.0
C60 C 0.21878 0.7101 0.81193 0.0
C61 C 0.22379 0.68824 0.8395 0.0
C62 C 0.25131 0.67322 0.83492 0.0
C63 C 0.26144 0.68674 0.80453 0.0
N64 N 0.28348 0.71558 0.7392 0.0
C65 C 0.29929 0.69153 0.75842 0.0
C66 C 0.32558 0.68179 0.74329 0.0
C67 C 0.32681 0.70079 0.71381 0.0
C68 C 0.30122 0.72081 0.71251 0.0
N69 N 0.24708 0.76834 0.70512 0.0
C70 C 0.27007 0.76863 0.68349 0.0
C71 C 0.26643 0.7922 0.65749 0.0
C72 C 0.23927 0.80769 0.66247 0.0
C73 C 0.22765 0.79234 0.69112 0.0
N74 N 0.26779 0.76693 0.77382 0.0
C75 C 0.30212 0.80562 0.8118 0.0
C76 C 0.31115 0.7988 0.78023 0.0
C77 C 0.294 0.77932 0.762 0.0
C78 C 0.27562 0.79285 0.82407 0.0
C79 C 0.25874 0.77401 0.80466 0.0
N80 N 0.22032 0.71114 0.7208 0.0
C81 C 0.21146 0.68662 0.66976 0.0
C82 C 0.18523 0.67329 0.68224 0.0
C83 C 0.17718 0.67897 0.71459 0.0
C84 C 0.19482 0.69777 0.7332 0.0
C85 C 0.22853 0.70522 0.68929 0.0
H86 H 0.18722 0.70124 0.7575 0.0
H87 H 0.24809 0.71478 0.67816 0.0
H88 H 0.30257 0.77447 0.73853 0.0
H89 H 0.23849 0.7654 0.81518 0.0
C90 C 0.19385 0.73202 0.80684 0.0
C91 C 0.19744 0.80061 0.70305 0.0
C92 C 0.29099 0.67786 0.79156 0.0
C93 C 0.29429 0.74587 0.68768 0.0
H94 H 0.14237 0.81055 0.73876 0.0
H95 H 0.1409 0.77388 0.79593 0.0
H96 H 0.20951 0.68421 0.8608 0.0
H97 H 0.26283 0.65485 0.85243 0.0
H98 H 0.34242 0.66321 0.7529 0.0
H99 H 0.3446 0.70049 0.69584 0.0
H100 H 0.28152 0.79726 0.6371 0.0
H101 H 0.22897 0.82775 0.64644 0.0
H102 H 0.33175 0.80798 0.76991 0.0
H103 H 0.26767 0.79775 0.84836 0.0
H104 H 0.21857 0.68328 0.6447 0.0
H105 H 0.15741 0.66878 0.72578 0.0
C106 C 0.45122 0.04901 0.01013 0.0
C107 C 0.43559 0.07517 0.99266 0.0
C108 C 0.44847 0.08017 0.96218 0.0
C109 C 0.47109 0.05688 0.96274 0.0
N110 N 0.47331 0.03715 0.99166 0.0
Co111 Co 0.503 1.00003 0.00303 0.0
N112 N 0.5247 0.0099 0.96026 0.0
C113 C 0.51883 0.03495 0.93696 0.0
C114 C 0.53758 0.03553 0.91035 0.0
C115 C 0.55645 0.00918 0.91691 0.0
C116 C 0.54803 0.99398 0.94726 0.0
N117 N 0.53168 0.96206 0.01362 0.0
C118 C 0.55335 0.94996 0.99479 0.0
C119 C 0.56701 0.92215 0.01072 0.0
C120 C 0.55311 0.91618 0.04046 0.0
C121 C 0.53187 0.94055 0.04095 0.0
N122 N 0.4824 0.9911 0.04667 0.0
C123 C 0.48962 0.96726 0.07116 0.0
C124 C 0.47267 0.96817 0.09909 0.0
C125 C 0.45385 0.99452 0.09236 0.0
C126 C 0.46046 0.00814 0.06056 0.0
N127 N 0.47373 0.97486 0.97933 0.0
C128 C 0.43374 0.93804 0.94485 0.0
C129 C 0.44225 0.93064 0.97935 0.0
C130 C 0.46224 0.949 0.99583 0.0
C131 C 0.44548 0.96449 0.92815 0.0
C132 C 0.4649 0.98252 0.94572 0.0
N133 N 0.53217 0.02519 0.02667 0.0
C134 C 0.56872 0.03068 0.07336 0.0
C135 C 0.57105 0.06199 0.06207 0.0
C136 C 0.55408 0.07438 0.0324 0.0
C137 C 0.53514 0.05571 0.01512 0.0
C138 C 0.54921 0.01288 0.05551 0.0
H139 H 0.52293 0.06658 0.99261 0.0
H140 H 0.54799 0.98932 0.0658 0.0
H141 H 0.4681 0.94165 0.02192 0.0
H142 H 0.47267 0.00241 0.93136 0.0
C143 C 0.49321 0.05537 0.93873 0.0
C144 C 0.44572 0.03755 0.04498 0.0
C145 C 0.56134 0.96352 0.96149 0.0
C146 C 0.51228 0.94426 0.067 0.0
H147 H 0.41745 0.08972 0.00147 0.0
H148 H 0.44294 0.09932 0.9426 0.0
H149 H 0.53676 0.05241 0.88813 0.0
H150 H 0.57378 0.00155 0.90065 0.0
H151 H 0.58498 0.90759 0.00162 0.0
H152 H 0.55782 0.89635 0.05938 0.0
H153 H 0.47406 0.9518 0.12178 0.0
H154 H 0.43733 0.00295 0.10908 0.0
H155 H 0.43348 0.91083 0.99388 0.0
H156 H 0.44024 0.97121 0.90136 0.0
H157 H 0.5813 0.02009 0.09636 0.0
H158 H 0.55551 0.09842 0.02237 0.0
C159 C 0.26964 0.28876 0.18809 0.0
C160 C 0.25574 0.3049 0.15859 0.0
C161 C 0.22821 0.29224 0.15291 0.0
C162 C 0.22668 0.26943 0.17932 0.0
N163 N 0.25147 0.26687 0.20172 0.0
Co164 Co 0.25801 0.23754 0.24447 0.0
N165 N 0.21867 0.21725 0.23457 0.0
C166 C 0.19931 0.22351 0.20657 0.0
C167 C 0.1741 0.20597 0.207 0.0
C168 C 0.17738 0.18753 0.23719 0.0
C169 C 0.20451 0.19499 0.25351 0.0
N170 N 0.26393 0.20896 0.28785 0.0
C171 C 0.24486 0.18836 0.3023 0.0
C172 C 0.25707 0.17439 0.33359 0.0
C173 C 0.28463 0.18693 0.33941 0.0
C174 C 0.28764 0.20776 0.31148 0.0
N175 N 0.29793 0.25706 0.25374 0.0
C176 C 0.31845 0.24905 0.2805 0.0
C177 C 0.34485 0.26473 0.27885 0.0
C178 C 0.34123 0.28369 0.24908 0.0
C179 C 0.3125 0.27873 0.23434 0.0
N180 N 0.23532 0.26805 0.26908 0.0
C181 C 0.2015 0.30828 0.3062 0.0
C182 C 0.23183 0.29793 0.31664 0.0
C183 C 0.24816 0.27785 0.29795 0.0
C184 C 0.18869 0.29887 0.27643 0.0
C185 C 0.20592 0.27915 0.25828 0.0
N186 N 0.28071 0.20704 0.21983 0.0
C187 C 0.32396 0.17024 0.21669 0.0
C188 C 0.31507 0.16671 0.18316 0.0
C189 C 0.28822 0.18316 0.16862 0.0
C190 C 0.27153 0.20293 0.18724 0.0
C191 C 0.30657 0.19027 0.23442 0.0
H192 H 0.25152 0.21498 0.1745 0.0
H193 H 0.3147 0.19197 0.25979 0.0
H194 H 0.27094 0.27023 0.30764 0.0
H195 H 0.19479 0.27297 0.23578 0.0
C196 C 0.20362 0.24836 0.18224 0.0
C197 C 0.3005 0.29443 0.20146 0.0
C198 C 0.21482 0.18172 0.28777 0.0
C199 C 0.31237 0.22651 0.30668 0.0
H200 H 0.2648 0.32353 0.14246 0.0
H201 H 0.21165 0.29841 0.13161 0.0
H202 H 0.15498 0.2073 0.18822 0.0
H203 H 0.16115 0.17114 0.24658 0.0
H204 H 0.2469 0.15714 0.35058 0.0
H205 H 0.30043 0.18175 0.36154 0.0
H206 H 0.36462 0.26226 0.29688 0.0
H207 H 0.35818 0.299 0.2392 0.0
H208 H 0.24266 0.30456 0.33967 0.0
H209 H 0.1654 0.30674 0.26707 0.0
H210 H 0.34426 0.15756 0.22935 0.0
H211 H 0.28044 0.18145 0.14263 0.0
C212 C 0.77086 0.21309 0.3161 0.0
C213 C 0.75787 0.19978 0.34496 0.0
C214 C 0.73133 0.21703 0.34828 0.0
C215 C 0.72938 0.23957 0.32121 0.0
N216 N 0.75292 0.23761 0.30051 0.0
Co217 Co 0.75825 0.26479 0.25734 0.0
N218 N 0.71943 0.29049 0.26276 0.0
C219 C 0.7007 0.28738 0.28883 0.0
C220 C 0.67581 0.30844 0.2855 0.0
C221 C 0.67852 0.32582 0.25524 0.0
C222 C 0.70492 0.31414 0.24175 0.0
N223 N 0.76337 0.29188 0.21398 0.0
C224 C 0.74428 0.31498 0.19725 0.0
C225 C 0.75584 0.32672 0.16691 0.0
C226 C 0.78313 0.31045 0.16432 0.0
C227 C 0.7866 0.28969 0.19296 0.0
N228 N 0.79723 0.23919 0.25208 0.0
C229 C 0.8166 0.24331 0.22667 0.0
C230 C 0.8425 0.22363 0.23089 0.0
C231 C 0.83968 0.20588 0.26085 0.0
C232 C 0.81183 0.21552 0.2731 0.0
N233 N 0.73403 0.23672 0.23164 0.0
C234 C 0.6988 0.19818 0.19433 0.0
C235 C 0.72774 0.20668 0.18436 0.0
C236 C 0.74473 0.22596 0.2031 0.0
C237 C 0.68795 0.20905 0.22345 0.0
C238 C 0.70584 0.22794 0.24167 0.0
N239 N 0.78252 0.29289 0.2831 0.0
C240 C 0.82816 0.32138 0.29085 0.0
C241 C 0.81792 0.33139 0.32077 0.0
C242 C 0.78937 0.32186 0.33119 0.0
C243 C 0.77245 0.30257 0.31242 0.0
C244 C 0.81013 0.30272 0.27244 0.0
H245 H 0.75133 0.29574 0.3223 0.0
H246 H 0.81924 0.29637 0.24978 0.0
H247 H 0.76635 0.23205 0.19382 0.0
H248 H 0.69628 0.23523 0.26372 0.0
C249 C 0.70607 0.2632 0.315 0.0
C250 C 0.80066 0.20209 0.30519 0.0
C251 C 0.71441 0.32542 0.20828 0.0
C252 C 0.81057 0.26686 0.19995 0.0
H253 H 0.76678 0.17982 0.36208 0.0
H254 H 0.71546 0.21368 0.36821 0.0
H255 H 0.65747 0.31039 0.3026 0.0
H256 H 0.66251 0.34456 0.24399 0.0
H257 H 0.74537 0.3447 0.14815 0.0
H258 H 0.79823 0.3129 0.14357 0.0
H259 H 0.86155 0.22282 0.21454 0.0
H260 H 0.85667 0.18829 0.2725 0.0
H261 H 0.737 0.19904 0.16177 0.0
H262 H 0.66582 0.20275 0.23244 0.0
H263 H 0.85026 0.3274 0.28166 0.0
H264 H 0.77976 0.3293 0.35366 0.0
C265 C 0.68873 0.72369 0.7618 0.0
C266 C 0.66102 0.71807 0.74522 0.0
C267 C 0.65822 0.73753 0.71576 0.0
C268 C 0.68413 0.75402 0.71601 0.0
N269 N 0.70346 0.7462 0.74382 0.0
Co270 Co 0.74328 0.76525 0.75477 0.0
N271 N 0.73746 0.79593 0.71301 0.0
C272 C 0.71278 0.7997 0.69043 0.0
C273 C 0.71497 0.82306 0.66473 0.0
C274 C 0.74288 0.83474 0.67103 0.0
C275 C 0.75629 0.81752 0.70015 0.0
N276 N 0.7836 0.78365 0.76511 0.0
C277 C 0.79879 0.80536 0.74646 0.0
C278 C 0.82753 0.80943 0.76175 0.0
C279 C 0.83057 0.78977 0.79105 0.0
C280 C 0.80383 0.77463 0.79189 0.0
N281 N 0.7486 0.73525 0.79713 0.0
C282 C 0.77239 0.73275 0.82082 0.0
C283 C 0.76956 0.71039 0.84735 0.0
C284 C 0.74205 0.69815 0.84058 0.0
C285 C 0.72953 0.71398 0.81023 0.0
N286 N 0.76538 0.73526 0.72895 0.0
C287 C 0.79824 0.69464 0.69142 0.0
C288 C 0.8068 0.69649 0.72538 0.0
C289 C 0.79033 0.71693 0.74346 0.0
C290 C 0.77269 0.71305 0.67667 0.0
C291 C 0.75654 0.7328 0.69582 0.0
N292 N 0.72114 0.79518 0.7806 0.0
C293 C 0.71723 0.8219 0.8305 0.0
C294 C 0.68753 0.83409 0.81948 0.0
C295 C 0.6754 0.82725 0.78818 0.0
C296 C 0.69245 0.80804 0.76931 0.0
C297 C 0.7335 0.80266 0.81082 0.0
H298 H 0.6817 0.80367 0.74586 0.0
H299 H 0.75581 0.79373 0.82085 0.0
H300 H 0.79849 0.71768 0.769 0.0
H301 H 0.73711 0.74599 0.68316 0.0
C302 C 0.68918 0.77923 0.69248 0.0
C303 C 0.69928 0.70824 0.79527 0.0
C304 C 0.78748 0.82168 0.71364 0.0
C305 C 0.79741 0.75127 0.81701 0.0
H306 H 0.64405 0.70223 0.75385 0.0
H307 H 0.63897 0.74022 0.69705 0.0
H308 H 0.69862 0.83016 0.64344 0.0
H309 H 0.75256 0.85338 0.6555 0.0
H310 H 0.84491 0.82452 0.75249 0.0
H311 H 0.85026 0.7864 0.80919 0.0
H312 H 0.78559 0.7038 0.86906 0.0
H313 H 0.73226 0.67973 0.85633 0.0
H314 H 0.82663 0.68279 0.73778 0.0
H315 H 0.76501 0.71207 0.65049 0.0
H316 H 0.72762 0.82645 0.85464 0.0
H317 H 0.65275 0.83668 0.77817 0.0
C318 C 0.4554 0.50894 0.93726 0.0
C319 C 0.4474 0.49637 0.90769 0.0
C320 C 0.46678 0.47077 0.90704 0.0
C321 C 0.48555 0.46923 0.93599 0.0
N322 N 0.47919 0.49215 0.95536 0.0
Co323 Co 0.50184 0.49952 0.99873 0.0
N324 N 0.53166 0.46302 0.99644 0.0
C325 C 0.53236 0.4439 0.97189 0.0
C326 C 0.55557 0.42099 0.97713 0.0
C327 C 0.57044 0.42547 0.00703 0.0
C328 C 0.55522 0.45086 0.01844 0.0
N329 N 0.52452 0.50694 0.04207 0.0
C330 C 0.54861 0.4904 0.05992 0.0
C331 C 0.55669 0.50304 0.08943 0.0
C332 C 0.53707 0.52844 0.09028 0.0
C333 C 0.5181 0.52981 0.06148 0.0
N334 N 0.47199 0.53602 0.00103 0.0
C335 C 0.47114 0.55501 0.0257 0.0
C336 C 0.44803 0.57801 0.02035 0.0
C337 C 0.43341 0.57375 0.99022 0.0
C338 C 0.44869 0.54839 0.97882 0.0
N339 N 0.47425 0.4721 0.02489 0.0
C340 C 0.43555 0.4329 0.06257 0.0
C341 C 0.44121 0.46236 0.07145 0.0
C342 C 0.46061 0.48121 0.05268 0.0
C343 C 0.44966 0.42354 0.0343 0.0
C344 C 0.46851 0.44338 0.01589 0.0
N345 N 0.52935 0.52697 0.97256 0.0
C346 C 0.55297 0.57599 0.96261 0.0
C347 C 0.56706 0.56679 0.93427 0.0
C348 C 0.56201 0.53708 0.92572 0.0
C349 C 0.5431 0.51789 0.94481 0.0
C350 C 0.53468 0.55584 0.98136 0.0
H351 H 0.5399 0.49584 0.93652 0.0
H352 H 0.52488 0.56429 0.00271 0.0
H353 H 0.46419 0.50307 0.06125 0.0
H354 H 0.47831 0.43486 0.99458 0.0
C355 C 0.51042 0.44764 0.94462 0.0
C356 C 0.44076 0.53762 0.94626 0.0
C357 C 0.56356 0.46195 0.05073 0.0
C358 C 0.49312 0.55132 0.05295 0.0
H359 H 0.42984 0.50512 0.88816 0.0
H360 H 0.46765 0.45558 0.88732 0.0
H361 H 0.56081 0.40297 0.96129 0.0
H362 H 0.59007 0.4114 0.01927 0.0
H363 H 0.57451 0.4945 0.10875 0.0
H364 H 0.53625 0.54366 0.10996 0.0
H365 H 0.44276 0.59603 0.03618 0.0
H366 H 0.41397 0.58798 0.97779 0.0
H367 H 0.43053 0.47118 0.09266 0.0
H368 H 0.44661 0.40082 0.02649 0.0
H369 H 0.55554 0.59886 0.97023 0.0
H370 H 0.57275 0.52836 0.90449 0.0
C371 C 0.05097 0.51122 0.55771 0.0
C372 C 0.06428 0.49704 0.58843 0.0
C373 C 0.05056 0.46975 0.59504 0.0
C374 C 0.02984 0.46881 0.56805 0.0
N375 N 0.02962 0.49372 0.54443 0.0
Co376 Co 0.00296 0.50174 0.5012 0.0
N377 N 0.98062 0.46308 0.51254 0.0
C378 C 0.98479 0.44316 0.54129 0.0
C379 C 0.96703 0.41814 0.54152 0.0
C380 C 0.9506 0.42216 0.51105 0.0
C381 C 0.95913 0.44969 0.49392 0.0
N382 N 0.97709 0.50919 0.45742 0.0
C383 C 0.95603 0.49147 0.44393 0.0
C384 C 0.94362 0.50518 0.41257 0.0
C385 C 0.95797 0.53201 0.40554 0.0
C386 C 0.97808 0.5333 0.43294 0.0
N387 N 0.02454 0.54096 0.49042 0.0
C388 C 0.01917 0.56193 0.46267 0.0
C389 C 0.03643 0.5873 0.46304 0.0
C390 C 0.05358 0.58254 0.49307 0.0
C391 C 0.04577 0.55437 0.50928 0.0
N392 N 0.03418 0.47803 0.47808 0.0
C393 C 0.07482 0.44259 0.44269 0.0
C394 C 0.06602 0.47337 0.43066 0.0
C395 C 0.04573 0.4905 0.44854 0.0
C396 C 0.06378 0.43018 0.47325 0.0
C397 C 0.0439 0.44822 0.49053 0.0
N398 N 0.9717 0.52547 0.52431 0.0
C399 C 0.93538 0.56963 0.52445 0.0
C400 C 0.93011 0.5613 0.55852 0.0
C401 C 0.94551 0.53418 0.57483 0.0
C402 C 0.96576 0.51666 0.55735 0.0
C403 C 0.95616 0.55168 0.50808 0.0
H404 H 0.97666 0.49632 0.57132 0.0
H405 H 0.95941 0.55971 0.48237 0.0
H406 H 0.03933 0.51358 0.43764 0.0
H407 H 0.0364 0.43735 0.51367 0.0
C408 C 0.00819 0.44652 0.56577 0.0
C409 C 0.05843 0.54187 0.54298 0.0
C410 C 0.94746 0.46132 0.45941 0.0
C411 C 0.99771 0.55714 0.43675 0.0
H412 H 0.0816 0.50587 0.60472 0.0
H413 H 0.05448 0.4531 0.6174 0.0
H414 H 0.96706 0.39858 0.56089 0.0
H415 H 0.9349 0.40599 0.50221 0.0
H416 H 0.92612 0.49661 0.3963 0.0
H417 H 0.95424 0.54857 0.38308 0.0
H418 H 0.03627 0.60709 0.44393 0.0
H419 H 0.06971 0.5982 0.50224 0.0
H420 H 0.07395 0.48393 0.407 0.0
H421 H 0.07044 0.40657 0.48384 0.0
H422 H 0.92356 0.58995 0.51025 0.0
H423 H 0.94263 0.5267 0.60127 0.0
H424 H 0.08012 0.12071 0.42874 0.0
H425 H 0.20399 0.12063 0.2867 0.0
H426 H 0.11249 0.03798 0.3876 0.0
H427 H 0.17869 0.20053 0.33616 0.0
H428 H 0.16924 0.09009 0.32188 0.0
H429 H 0.11486 0.1505 0.39374 0.0
C430 C 0.09467 0.10871 0.41254 0.0
C431 C 0.09339 0.07665 0.41135 0.0
C432 C 0.17126 0.11429 0.32509 0.0
C433 C 0.13304 0.11092 0.37062 0.0
C434 C 0.19101 0.13161 0.30504 0.0
C435 C 0.19393 0.16294 0.30872 0.0
C436 C 0.15434 0.12853 0.34887 0.0
C437 C 0.17686 0.17635 0.33272 0.0
C438 C 0.1144 0.12583 0.39237 0.0
C439 C 0.11237 0.06264 0.38918 0.0
N440 N 0.15773 0.15908 0.35188 0.0
N441 N 0.1314 0.07984 0.36974 0.0
H442 H 0.11623 0.9279 0.5366 0.0
H443 H 0.17256 0.85663 0.71734 0.0
H444 H 0.04897 0.92673 0.61234 0.0
H445 H 0.17426 0.7959 0.63895 0.0
H446 H 0.13757 0.89367 0.67993 0.0
H447 H 0.14939 0.8897 0.57462 0.0
C448 C 0.10848 0.91949 0.56117 0.0
C449 C 0.07972 0.92993 0.57128 0.0
C450 C 0.14565 0.87214 0.67117 0.0
C451 C 0.1178 0.88784 0.61494 0.0
C452 C 0.16538 0.85108 0.69236 0.0
C453 C 0.17584 0.82311 0.68123 0.0
C454 C 0.13747 0.86559 0.63833 0.0
C455 C 0.16652 0.81722 0.64839 0.0
C456 C 0.12734 0.89792 0.58272 0.0
C457 C 0.07095 0.919 0.60367 0.0
N458 N 0.14812 0.8385 0.62782 0.0
N459 N 0.09011 0.8987 0.62462 0.0
H460 H 0.42884 0.87471 0.95612 0.0
H461 H 0.3222 0.86257 0.79061 0.0
H462 H 0.39143 0.95583 0.89093 0.0
H463 H 0.32366 0.79439 0.87817 0.0
H464 H 0.35331 0.89517 0.82369 0.0
H465 H 0.39553 0.84299 0.92497 0.0
C466 C 0.41353 0.88604 0.93555 0.0
C467 C 0.41318 0.91826 0.92635 0.0
C468 C 0.34671 0.87313 0.83567 0.0
C469 C 0.3756 0.88158 0.88986 0.0
C470 C 0.32913 0.85449 0.8168 0.0
C471 C 0.32037 0.82581 0.83175 0.0
C472 C 0.35612 0.86272 0.86952 0.0
C473 C 0.32978 0.81647 0.86582 0.0
C474 C 0.39464 0.86777 0.91764 0.0
C475 C 0.3932 0.93115 0.89873 0.0
N476 N 0.3474 0.83475 0.8835 0.0
N477 N 0.37544 0.91277 0.88137 0.0
H478 H 0.29509 0.1281 0.13754 0.0
H479 H 0.46555 0.07261 0.09313 0.0
H480 H 0.37816 0.15962 0.18316 0.0
H481 H 0.3829 0.0452 0.04321 0.0
H482 H 0.43383 0.10367 0.12755 0.0
H483 H 0.32666 0.09665 0.10378 0.0
C484 C 0.31996 0.1285 0.14041 0.0
C485 C 0.33394 0.14662 0.16325 0.0
C486 C 0.42255 0.09093 0.10906 0.0
C487 C 0.37029 0.11039 0.12481 0.0
C488 C 0.44064 0.0733 0.08951 0.0
C489 C 0.42661 0.05668 0.06543 0.0
C490 C 0.39021 0.09177 0.1045 0.0
C491 C 0.39437 0.05796 0.06153 0.0
C492 C 0.33798 0.11042 0.12121 0.0
C493 C 0.36632 0.14575 0.16624 0.0
N494 N 0.37719 0.07526 0.0809 0.0
N495 N 0.38336 0.12801 0.14723 0.0
H496 H 0.88586 0.90801 0.54894 0.0
H497 H 0.81253 0.87562 0.72764 0.0
H498 H 0.92154 0.94594 0.63789 0.0
H499 H 0.80864 0.812 0.6523 0.0
H500 H 0.84676 0.90705 0.69261 0.0
H501 H 0.85152 0.87785 0.58405 0.0
C502 C 0.88672 0.90995 0.57583 0.0
C503 C 0.90707 0.92949 0.59035 0.0
C504 C 0.83846 0.88617 0.68382 0.0
C505 C 0.8669 0.89545 0.63059 0.0
C506 C 0.81904 0.8683 0.70375 0.0
C507 C 0.80818 0.84112 0.69287 0.0
C508 C 0.84644 0.87708 0.65251 0.0
C509 C 0.81673 0.83277 0.66153 0.0
C510 C 0.8669 0.8928 0.59582 0.0
C511 C 0.90615 0.93158 0.62531 0.0
N512 N 0.83527 0.85075 0.64236 0.0
N513 N 0.88639 0.91482 0.6442 0.0
H514 H 0.88737 0.07626 0.4724 0.0
H515 H 0.82133 0.14441 0.29167 0.0
H516 H 0.94657 0.0726 0.38932 0.0
H517 H 0.82391 0.20555 0.36965 0.0
H518 H 0.85578 0.1064 0.32846 0.0
H519 H 0.85162 0.11332 0.43599 0.0
C520 C 0.89274 0.08327 0.44651 0.0
C521 C 0.92002 0.0718 0.43382 0.0
C522 C 0.84858 0.12813 0.33739 0.0
C523 C 0.87898 0.11266 0.39216 0.0
C524 C 0.82911 0.14971 0.31656 0.0
C525 C 0.82025 0.17819 0.32761 0.0
C526 C 0.85814 0.13471 0.36984 0.0
C527 C 0.83039 0.18385 0.36028 0.0
C528 C 0.87243 0.10421 0.4259 0.0
C529 C 0.92577 0.08105 0.39995 0.0
N530 N 0.84867 0.16214 0.38046 0.0
N531 N 0.90524 0.10079 0.3801 0.0
H532 H 0.63704 0.20584 0.1761 0.0
H533 H 0.62977 0.04836 0.09069 0.0
H534 H 0.71752 0.14544 0.16726 0.0
H535 H 0.55665 0.12059 0.07752 0.0
H536 H 0.6612 0.08143 0.12273 0.0
H537 H 0.60609 0.1727 0.14389 0.0
C538 C 0.64817 0.18551 0.16749 0.0
C539 C 0.6799 0.17836 0.17443 0.0
C540 C 0.63831 0.09006 0.11273 0.0
C541 C 0.64461 0.14031 0.13747 0.0
C542 C 0.62031 0.07114 0.09463 0.0
C543 C 0.59057 0.08176 0.08136 0.0
C544 C 0.62636 0.11968 0.11798 0.0
C545 C 0.57958 0.1116 0.08696 0.0
C546 C 0.63053 0.16671 0.14892 0.0
C547 C 0.69318 0.15194 0.16224 0.0
N548 N 0.5974 0.12943 0.10496 0.0
N549 N 0.67545 0.13378 0.14451 0.0
H550 H 0.62212 0.9688 0.94921 0.0
H551 H 0.62609 0.83175 0.83041 0.0
H552 H 0.54404 0.9162 0.9272 0.0
H553 H 0.70656 0.87968 0.85703 0.0
H554 H 0.59558 0.8634 0.86474 0.0
H555 H 0.65354 0.93727 0.91476 0.0
C556 C 0.61173 0.95056 0.93699 0.0
C557 C 0.58066 0.94493 0.94071 0.0
C558 C 0.61991 0.86704 0.86312 0.0
C559 C 0.61604 0.90891 0.90158 0.0
C560 C 0.63733 0.84909 0.84332 0.0
C561 C 0.66894 0.85315 0.84066 0.0
C562 C 0.63409 0.88936 0.88045 0.0
C563 C 0.68233 0.87558 0.85855 0.0
C564 C 0.62955 0.93259 0.91744 0.0
C565 C 0.568 0.92112 0.9247 0.0
N566 N 0.66482 0.8929 0.8776 0.0
N567 N 0.58573 0.90398 0.90576 0.0
H568 H 0.60458 0.61063 0.95605 0.0
H569 H 0.67924 0.65259 0.78006 0.0
H570 H 0.57471 0.57156 0.86551 0.0
H571 H 0.67402 0.71639 0.8551 0.0
H572 H 0.6465 0.61814 0.81355 0.0
H573 H 0.63572 0.64551 0.9219 0.0
C574 C 0.60428 0.60941 0.92903 0.0
C575 C 0.58669 0.58796 0.91382 0.0
C576 C 0.65242 0.63975 0.82259 0.0
C577 C 0.62322 0.62747 0.87472 0.0
C578 C 0.671 0.65933 0.80352 0.0
C579 C 0.67896 0.68736 0.81482 0.0
C580 C 0.64238 0.648 0.85348 0.0
C581 C 0.6682 0.69496 0.84559 0.0
C582 C 0.62227 0.62928 0.9096 0.0
C583 C 0.58816 0.58717 0.87868 0.0
N584 N 0.65059 0.6753 0.864 0.0
N585 N 0.60619 0.6065 0.8604 0.0
H586 H 0.66044 0.30996 0.17915 0.0
H587 H 0.6219 0.47537 0.07094 0.0
H588 H 0.71843 0.38652 0.18462 0.0
H589 H 0.55601 0.40541 0.08473 0.0
H590 H 0.65919 0.44242 0.10969 0.0
H591 H 0.6233 0.34362 0.14126 0.0
C592 C 0.66527 0.33392 0.17215 0.0
C593 C 0.69241 0.34562 0.1846 0.0
C594 C 0.63653 0.43433 0.10439 0.0
C595 C 0.65032 0.38421 0.14153 0.0
C596 C 0.61536 0.45311 0.0824 0.0
C597 C 0.58601 0.44298 0.07505 0.0
C598 C 0.62829 0.40514 0.11868 0.0
C599 C 0.57849 0.41391 0.09003 0.0
C600 C 0.64413 0.35312 0.15068 0.0
C601 C 0.69778 0.37675 0.17514 0.0
N602 N 0.59955 0.39593 0.11108 0.0
N603 N 0.67693 0.39502 0.15401 0.0
H604 H 0.85858 0.37473 0.29807 0.0
H605 H 0.88979 0.44228 0.47233 0.0
H606 H 0.82096 0.33407 0.38998 0.0
H607 H 0.96027 0.43761 0.40075 0.0
H608 H 0.85797 0.41041 0.43877 0.0
H609 H 0.89032 0.40573 0.33183 0.0
C610 C 0.85698 0.372 0.32525 0.0
C611 C 0.8369 0.35132 0.34096 0.0
C612 C 0.88044 0.41634 0.43052 0.0
C613 C 0.87261 0.38793 0.37956 0.0
C614 C 0.89853 0.4344 0.4496 0.0
C615 C 0.92775 0.44213 0.43941 0.0
C616 C 0.89133 0.40678 0.40057 0.0
C617 C 0.93789 0.43194 0.40945 0.0
C618 C 0.87504 0.38997 0.34444 0.0
C619 C 0.83547 0.34991 0.37637 0.0
N620 N 0.91961 0.41494 0.39091 0.0
N621 N 0.8529 0.36807 0.39439 0.0
H622 H 0.81854 0.63399 0.70909 0.0
H623 H 0.92081 0.62486 0.55034 0.0
H624 H 0.81911 0.70881 0.62834 0.0
H625 H 0.89198 0.54312 0.60934 0.0
H626 H 0.88735 0.65678 0.58145 0.0
H627 H 0.84964 0.60106 0.67607 0.0
C628 C 0.82524 0.64345 0.68441 0.0
C629 C 0.81626 0.67413 0.67138 0.0
C630 C 0.88828 0.63184 0.58745 0.0
C631 C 0.85189 0.63676 0.63365 0.0
C632 C 0.90727 0.61349 0.56954 0.0
C633 C 0.90933 0.58106 0.57702 0.0
C634 C 0.87148 0.61782 0.61345 0.0
C635 C 0.89168 0.56796 0.60294 0.0
C636 C 0.84281 0.62464 0.66553 0.0
C637 C 0.82534 0.6852 0.63917 0.0
N638 N 0.87366 0.58638 0.62031 0.0
N639 N 0.84286 0.6666 0.62151 0.0
H640 H 0.3968 0.39037 0.04003 0.0
H641 H 0.32184 0.34956 0.21652 0.0
H642 H 0.42754 0.42791 0.13121 0.0
H643 H 0.32286 0.28712 0.13991 0.0
H644 H 0.3548 0.38343 0.1827 0.0
H645 H 0.36411 0.35662 0.07358 0.0
C646 C 0.39695 0.39149 0.06706 0.0
C647 C 0.41521 0.4122 0.08263 0.0
C648 C 0.34785 0.36229 0.17332 0.0
C649 C 0.37695 0.37403 0.12103 0.0
C650 C 0.3291 0.34306 0.19256 0.0
C651 C 0.32001 0.3155 0.18101 0.0
C652 C 0.357 0.35416 0.14202 0.0
C653 C 0.32957 0.30818 0.14963 0.0
C654 C 0.37806 0.37228 0.08614 0.0
C655 C 0.41358 0.41289 0.11776 0.0
N656 N 0.34748 0.32746 0.13111 0.0
N657 N 0.39472 0.39423 0.13568 0.0
H658 H 0.3456 0.69215 0.82041 0.0
H659 H 0.38257 0.525 0.92464 0.0
H660 H 0.28792 0.61586 0.81117 0.0
H661 H 0.44945 0.5942 0.91296 0.0
H662 H 0.3462 0.55855 0.88543 0.0
H663 H 0.38293 0.65735 0.85684 0.0
C664 C 0.34095 0.66798 0.82614 0.0
C665 C 0.31378 0.65671 0.81319 0.0
C666 C 0.3689 0.56632 0.89126 0.0
C667 C 0.35599 0.61689 0.85472 0.0
C668 C 0.38954 0.54722 0.91352 0.0
C669 C 0.4189 0.55696 0.92163 0.0
C670 C 0.37764 0.59549 0.87747 0.0
C671 C 0.42696 0.58599 0.90708 0.0
C672 C 0.36217 0.64815 0.84681 0.0
C673 C 0.30861 0.6253 0.82105 0.0
N674 N 0.40638 0.60433 0.88578 0.0
N675 N 0.32947 0.60645 0.84153 0.0
H676 H 0.12215 0.67096 0.67758 0.0
H677 H 0.12059 0.54734 0.54263 0.0
H678 H 0.20483 0.63147 0.6397 0.0
H679 H 0.03949 0.57964 0.58878 0.0
H680 H 0.1519 0.57935 0.57646 0.0
H681 H 0.09146 0.63884 0.64407 0.0
C682 C 0.13393 0.6554 0.66242 0.0
C683 C 0.16624 0.65393 0.66166 0.0
C684 C 0.12727 0.57946 0.57925 0.0
C685 C 0.13101 0.6173 0.62264 0.0
C686 C 0.10952 0.56126 0.55997 0.0
C687 C 0.07764 0.56109 0.56315 0.0
C688 C 0.11291 0.5976 0.60174 0.0
C689 C 0.0641 0.57934 0.5858 0.0
C690 C 0.11632 0.63717 0.64309 0.0
C691 C 0.18002 0.63373 0.64085 0.0
N692 N 0.0818 0.59693 0.60424 0.0
N693 N 0.16235 0.61624 0.62222 0.0
H694 H 0.14237 0.30155 0.32415 0.0
H695 H 0.12792 0.45744 0.412 0.0
H696 H 0.21852 0.35988 0.33462 0.0
H697 H 0.06619 0.3837 0.42836 0.0
H698 H 0.15938 0.42484 0.37887 0.0
H699 H 0.11185 0.33435 0.35755 0.0
C700 C 0.1526 0.32138 0.33337 0.0
C701 C 0.18298 0.32808 0.32656 0.0
C702 C 0.13901 0.4158 0.38984 0.0
C703 C 0.14821 0.3657 0.36484 0.0
C704 C 0.12099 0.43442 0.40856 0.0
C705 C 0.09448 0.42318 0.42301 0.0
C706 C 0.13014 0.38596 0.38512 0.0
C707 C 0.08664 0.39312 0.41798 0.0
C708 C 0.13525 0.33997 0.35261 0.0
C709 C 0.19524 0.35383 0.3395 0.0
N710 N 0.10427 0.37563 0.39931 0.0
N711 N 0.17774 0.37184 0.35787 0.0
loop_
_geom_bond_atom_site_label_1
_geom_bond_atom_site_label_2
_geom_bond_distance
_geom_bond_site_symmetry_2
_ccdc_geom_bond_type
C0 C1 1.443 . S
C0 N4 1.376 . S
C0 C38 1.389 . S
C1 C0 1.443 . S
C1 C2 1.340 . S
C1 H41 0.951 . S
C2 C1 1.340 . S
C2 C3 1.439 . S
C2 H42 0.950 . S
C3 C2 1.439 . S
C3 N4 1.374 . S
C3 C37 1.395 1_455 S
N4 C0 1.376 . S
N4 C3 1.374 . S
N4 Co5 2.005 1_565 S
Co5 N4 2.005 1_545 S
Co5 N6 1.994 1_445 S
Co5 N11 2.011 1_455 S
Co5 N16 1.993 . S
Co5 N21 2.284 . S
Co5 N27 2.281 1_445 S
N6 Co5 1.994 1_665 S
N6 C7 1.378 . S
N6 C10 1.381 1_565 S
C7 N6 1.378 . S
C7 C8 1.446 . S
C7 C37 1.391 . S
C8 C7 1.446 . S
C8 C9 1.339 1_565 S
C8 H43 0.949 . S
C9 C8 1.339 1_545 S
C9 C10 1.439 . S
C9 H44 0.950 . S
C10 N6 1.381 1_545 S
C10 C9 1.439 . S
C10 C39 1.392 . S
N11 Co5 2.011 1_655 S
N11 C12 1.376 . S
N11 C15 1.374 . S
C12 N11 1.376 . S
C12 C13 1.443 . S
C12 C39 1.389 . S
C13 C12 1.443 . S
C13 C14 1.340 . S
C13 H45 0.951 . S
C14 C13 1.340 . S
C14 C15 1.439 . S
C14 H46 0.950 . S
C15 N11 1.374 . S
C15 C14 1.439 . S
C15 C40 1.395 1_655 S
N16 Co5 1.993 . S
N16 C17 1.390 . S
N16 C20 1.371 1_545 S
C17 N16 1.390 . S
C17 C18 1.446 . S
C17 C40 1.391 . S
C18 C17 1.446 . S
C18 C19 1.339 1_545 S
C18 H47 0.949 . S
C19 C18 1.339 1_565 S
C19 C20 1.439 . S
C19 H48 0.950 . S
C20 N16 1.371 1_565 S
C20 C19 1.439 . S
C20 C38 1.392 . S
N21 Co5 2.284 . S
N21 C24 1.332 . S
N21 C26 1.332 . S
C22 C23 1.386 . S
C22 C25 1.388 . S
C23 C22 1.386 . S
C23 C24 1.382 . S
C23 H49 0.950 . S
C24 N21 1.332 . S
C24 C23 1.382 . S
C24 H35 0.952 . S
C25 C22 1.388 . S
C25 C26 1.382 . S
C25 H50 0.950 . S
C26 N21 1.332 . S
C26 C25 1.382 . S
C26 H36 0.948 . S
N27 Co5 2.281 1_665 S
N27 C31 1.332 . S
N27 C32 1.332 . S
C28 C29 1.388 . S
C28 C32 1.382 . S
C28 H51 0.950 . S
C29 C28 1.388 . S
C29 C30 1.386 . S
C30 C29 1.386 . S
C30 C31 1.382 . S
C30 H52 0.950 . S
C31 N27 1.332 . S
C31 C30 1.382 . S
C31 H33 0.952 . S
C32 N27 1.332 . S
C32 C28 1.382 . S
C32 H34 0.948 . S
H33 C31 0.952 . S
H34 C32 0.948 . S
H35 C24 0.952 . S
H36 C26 0.948 . S
C37 C3 1.395 1_655 S
C37 C7 1.391 . S
C38 C0 1.389 . S
C38 C20 1.392 . S
C39 C10 1.392 . S
C39 C12 1.389 . S
C40 C15 1.395 1_455 S
C40 C17 1.391 . S
H41 C1 0.951 . S
H42 C2 0.950 . S
H43 C8 0.949 . S
H44 C9 0.950 . S
H45 C13 0.951 . S
H46 C14 0.950 . S
H47 C18 0.949 . S
H48 C19 0.950 . S
H49 C23 0.950 . S
H50 C25 0.950 . S
H51 C28 0.950 . S
H52 C30 0.950 . S
C53 C54 1.443 . S
C53 N57 1.376 . S
C53 C91 1.389 . S
C54 C53 1.443 . S
C54 C55 1.340 . S
C54 H94 0.951 . S
C55 C54 1.340 . S
C55 C56 1.439 . S
C55 H95 0.950 . S
C56 C55 1.439 . S
C56 N57 1.374 . S
C56 C90 1.395 . S
N57 C53 1.376 . S
N57 C56 1.374 . S
N57 Co58 2.008 . S
Co58 N57 2.008 . S
Co58 N59 1.995 . S
Co58 N64 2.008 . S
Co58 N69 1.995 . S
Co58 N74 2.282 . S
Co58 N80 2.282 . S
N59 Co58 1.995 . S
N59 C60 1.376 . S
N59 C63 1.383 . S
C60 N59 1.376 . S
C60 C61 1.446 . S
C60 C90 1.391 . S
C61 C60 1.446 . S
C61 C62 1.339 . S
C61 H96 0.949 . S
C62 C61 1.339 . S
C62 C63 1.439 . S
C62 H97 0.950 . S
C63 N59 1.383 . S
C63 C62 1.439 . S
C63 C92 1.392 . S
N64 Co58 2.008 . S
N64 C65 1.376 . S
N64 C68 1.374 . S
C65 N64 1.376 . S
C65 C66 1.443 . S
C65 C92 1.389 . S
C66 C65 1.443 . S
C66 C67 1.340 . S
C66 H98 0.951 . S
C67 C66 1.340 . S
C67 C68 1.439 . S
C67 H99 0.950 . S
C68 N64 1.374 . S
C68 C67 1.439 . S
C68 C93 1.395 . S
N69 Co58 1.995 . S
N69 C70 1.376 . S
N69 C73 1.383 . S
C70 N69 1.376 . S
C70 C71 1.446 . S
C70 C93 1.391 . S
C71 C70 1.446 . S
C71 C72 1.339 . S
C71 H100 0.949 . S
C72 C71 1.339 . S
C72 C73 1.439 . S
C72 H101 0.950 . S
C73 N69 1.383 . S
C73 C72 1.439 . S
C73 C91 1.392 . S
N74 Co58 2.282 . S
N74 C77 1.332 . S
N74 C79 1.332 . S
C75 C76 1.386 . S
C75 C78 1.388 . S
C76 C75 1.386 . S
C76 C77 1.382 . S
C76 H102 0.950 . S
C77 N74 1.332 . S
C77 C76 1.382 . S
C77 H88 0.952 . S
C78 C75 1.388 . S
C78 C79 1.382 . S
C78 H103 0.950 . S
C79 N74 1.332 . S
C79 C78 1.382 . S
C79 H89 0.948 . S
N80 Co58 2.282 . S
N80 C84 1.332 . S
N80 C85 1.332 . S
C81 C82 1.388 . S
C81 C85 1.382 . S
C81 H104 0.950 . S
C82 C81 1.388 . S
C82 C83 1.386 . S
C83 C82 1.386 . S
C83 C84 1.382 . S
C83 H105 0.950 . S
C84 N80 1.332 . S
C84 C83 1.382 . S
C84 H86 0.952 . S
C85 N80 1.332 . S
C85 C81 1.382 . S
C85 H87 0.948 . S
H86 C84 0.952 . S
H87 C85 0.948 . S
H88 C77 0.952 . S
H89 C79 0.948 . S
C90 C56 1.395 . S
C90 C60 1.391 . S
C91 C53 1.389 . S
C91 C73 1.392 . S
C92 C63 1.392 . S
C92 C65 1.389 . S
C93 C68 1.395 . S
C93 C70 1.391 . S
H94 C54 0.951 . S
H95 C55 0.950 . S
H96 C61 0.949 . S
H97 C62 0.950 . S
H98 C66 0.951 . S
H99 C67 0.950 . S
H100 C71 0.949 . S
H101 C72 0.950 . S
H102 C76 0.950 . S
H103 C78 0.950 . S
H104 C81 0.950 . S
H105 C83 0.950 . S
C106 C107 1.439 1_554 S
C106 N110 1.376 1_554 S
C106 C144 1.389 . S
C107 C106 1.439 1_556 S
C107 C108 1.357 . S
C107 H147 0.941 1_556 S
C108 C107 1.357 . S
C108 C109 1.439 . S
C108 H148 0.950 . S
C109 C108 1.439 . S
C109 N110 1.374 . S
C109 C143 1.395 . S
N110 C106 1.376 1_556 S
N110 C109 1.374 . S
N110 Co111 2.013 1_556 S
Co111 N110 2.013 1_554 S
Co111 N112 1.992 1_554 S
Co111 N117 2.003 1_545 S
Co111 N122 1.997 1_545 S
Co111 N127 2.277 1_544 S
Co111 N133 2.288 . S
N112 Co111 1.992 1_556 S
N112 C113 1.376 . S
N112 C116 1.383 1_545 S
C113 N112 1.376 . S
C113 C114 1.446 . S
C113 C143 1.391 . S
C114 C113 1.446 . S
C114 C115 1.358 . S
C114 H149 0.949 . S
C115 C114 1.358 . S
C115 C116 1.432 1_545 S
C115 H150 0.939 1_545 S
C116 N112 1.383 1_565 S
C116 C115 1.432 1_565 S
C116 C145 1.392 . S
N117 Co111 2.003 1_565 S
N117 C118 1.376 1_554 S
N117 C121 1.374 . S
C118 N117 1.376 1_556 S
C118 C119 1.436 1_556 S
C118 C145 1.389 . S
C119 C118 1.436 1_554 S
C119 C120 1.370 . S
C119 H151 0.934 1_554 S
C120 C119 1.370 . S
C120 C121 1.439 . S
C120 H152 0.950 . S
C121 N117 1.374 . S
C121 C120 1.439 . S
C121 C146 1.395 . S
N122 Co111 1.997 1_565 S
N122 C123 1.376 . S
N122 C126 1.383 1_565 S
C123 N122 1.376 . S
C123 C124 1.446 . S
C123 C146 1.391 . S
C124 C123 1.446 . S
C124 C125 1.339 . S
C124 H153 0.949 . S
C125 C124 1.339 . S
C125 C126 1.438 1_565 S
C125 H154 0.949 1_565 S
C126 N122 1.383 1_545 S
C126 C125 1.438 1_545 S
C126 C144 1.392 . S
N127 Co111 2.277 1_566 S
N127 C130 1.332 . S
N127 C132 1.332 . S
C128 C129 1.386 . S
C128 C131 1.388 . S
C129 C128 1.386 . S
C129 C130 1.382 . S
C129 H155 0.950 . S
C130 N127 1.332 . S
C130 C129 1.382 . S
C130 H141 0.952 1_556 S
C131 C128 1.388 . S
C131 C132 1.382 . S
C131 H156 0.950 . S
C132 N127 1.332 . S
C132 C131 1.382 . S
C132 H142 0.948 . S
N133 Co111 2.288 . S
N133 C137 1.332 . S
N133 C138 1.332 . S
C134 C135 1.388 . S
C134 C138 1.382 . S
C134 H157 0.950 . S
C135 C134 1.388 . S
C135 C136 1.386 . S
C136 C135 1.386 . S
C136 C137 1.382 . S
C136 H158 0.950 . S
C137 N133 1.332 . S
C137 C136 1.382 . S
C137 H139 0.952 1_554 S
C138 N133 1.332 . S
C138 C134 1.382 . S
C138 H140 0.948 . S
H139 C137 0.952 1_556 S
H140 C138 0.948 . S
H141 C130 0.952 1_554 S
H142 C132 0.948 . S
C143 C109 1.395 . S
C143 C113 1.391 . S
C144 C106 1.389 . S
C144 C126 1.392 . S
C145 C116 1.392 . S
C145 C118 1.389 . S
C146 C121 1.395 . S
C146 C123 1.391 . S
H147 C107 0.941 1_554 S
H148 C108 0.950 . S
H149 C114 0.949 . S
H150 C115 0.939 1_565 S
H151 C119 0.934 1_556 S
H152 C120 0.950 . S
H153 C124 0.949 . S
H154 C125 0.949 1_545 S
H155 C129 0.950 . S
H156 C131 0.950 . S
H157 C134 0.950 . S
H158 C136 0.950 . S
C159 C160 1.443 . S
C159 N163 1.376 . S
C159 C197 1.389 . S
C160 C159 1.443 . S
C160 C161 1.340 . S
C160 H200 0.951 . S
C161 C160 1.340 . S
C161 C162 1.439 . S
C161 H201 0.950 . S
C162 C161 1.439 . S
C162 N163 1.374 . S
C162 C196 1.395 . S
N163 C159 1.376 . S
N163 C162 1.374 . S
N163 Co164 2.008 . S
Co164 N163 2.008 . S
Co164 N165 1.995 . S
Co164 N170 2.008 . S
Co164 N175 1.995 . S
Co164 N180 2.282 . S
Co164 N186 2.282 . S
N165 Co164 1.995 . S
N165 C166 1.376 . S
N165 C169 1.383 . S
C166 N165 1.376 . S
C166 C167 1.446 . S
C166 C196 1.391 . S
C167 C166 1.446 . S
C167 C168 1.339 . S
C167 H202 0.949 . S
C168 C167 1.339 . S
C168 C169 1.439 . S
C168 H203 0.950 . S
C169 N165 1.383 . S
C169 C168 1.439 . S
C169 C198 1.392 . S
N170 Co164 2.008 . S
N170 C171 1.376 . S
N170 C174 1.374 . S
C171 N170 1.376 . S
C171 C172 1.443 . S
C171 C198 1.389 . S
C172 C171 1.443 . S
C172 C173 1.340 . S
C172 H204 0.951 . S
C173 C172 1.340 . S
C173 C174 1.439 . S
C173 H205 0.950 . S
C174 N170 1.374 . S
C174 C173 1.439 . S
C174 C199 1.395 . S
N175 Co164 1.995 . S
N175 C176 1.376 . S
N175 C179 1.383 . S
C176 N175 1.376 . S
C176 C177 1.446 . S
C176 C199 1.391 . S
C177 C176 1.446 . S
C177 C178 1.339 . S
C177 H206 0.949 . S
C178 C177 1.339 . S
C178 C179 1.439 . S
C178 H207 0.950 . S
C179 N175 1.383 . S
C179 C178 1.439 . S
C179 C197 1.392 . S
N180 Co164 2.282 . S
N180 C183 1.332 . S
N180 C185 1.332 . S
C181 C182 1.386 . S
C181 C184 1.388 . S
C182 C181 1.386 . S
C182 C183 1.382 . S
C182 H208 0.950 . S
C183 N180 1.332 . S
C183 C182 1.382 . S
C183 H194 0.952 . S
C184 C181 1.388 . S
C184 C185 1.382 . S
C184 H209 0.950 . S
C185 N180 1.332 . S
C185 C184 1.382 . S
C185 H195 0.948 . S
N186 Co164 2.282 . S
N186 C190 1.332 . S
N186 C191 1.332 . S
C187 C188 1.388 . S
C187 C191 1.382 . S
C187 H210 0.950 . S
C188 C187 1.388 . S
C188 C189 1.386 . S
C189 C188 1.386 . S
C189 C190 1.382 . S
C189 H211 0.950 . S
C190 N186 1.332 . S
C190 C189 1.382 . S
C190 H192 0.952 . S
C191 N186 1.332 . S
C191 C187 1.382 . S
C191 H193 0.948 . S
H192 C190 0.952 . S
H193 C191 0.948 . S
H194 C183 0.952 . S
H195 C185 0.948 . S
C196 C162 1.395 . S
C196 C166 1.391 . S
C197 C159 1.389 . S
C197 C179 1.392 . S
C198 C169 1.392 . S
C198 C171 1.389 . S
C199 C174 1.395 . S
C199 C176 1.391 . S
H200 C160 0.951 . S
H201 C161 0.950 . S
H202 C167 0.949 . S
H203 C168 0.950 . S
H204 C172 0.951 . S
H205 C173 0.950 . S
H206 C177 0.949 . S
H207 C178 0.950 . S
H208 C182 0.950 . S
H209 C184 0.950 . S
H210 C187 0.950 . S
H211 C189 0.950 . S
C212 C213 1.443 . S
C212 N216 1.376 . S
C212 C250 1.389 . S
C213 C212 1.443 . S
C213 C214 1.340 . S
C213 H253 0.951 . S
C214 C213 1.340 . S
C214 C215 1.439 . S
C214 H254 0.950 . S
C215 C214 1.439 . S
C215 N216 1.374 . S
C215 C249 1.395 . S
N216 C212 1.376 . S
N216 C215 1.374 . S
N216 Co217 2.008 . S
Co217 N216 2.008 . S
Co217 N218 1.995 . S
Co217 N223 2.008 . S
Co217 N228 1.995 . S
Co217 N233 2.282 . S
Co217 N239 2.282 . S
N218 Co217 1.995 . S
N218 C219 1.376 . S
N218 C222 1.383 . S
C219 N218 1.376 . S
C219 C220 1.446 . S
C219 C249 1.391 . S
C220 C219 1.446 . S
C220 C221 1.339 . S
C220 H255 0.949 . S
C221 C220 1.339 . S
C221 C222 1.439 . S
C221 H256 0.950 . S
C222 N218 1.383 . S
C222 C221 1.439 . S
C222 C251 1.392 . S
N223 Co217 2.008 . S
N223 C224 1.376 . S
N223 C227 1.374 . S
C224 N223 1.376 . S
C224 C225 1.443 . S
C224 C251 1.389 . S
C225 C224 1.443 . S
C225 C226 1.340 . S
C225 H257 0.951 . S
C226 C225 1.340 . S
C226 C227 1.439 . S
C226 H258 0.950 . S
C227 N223 1.374 . S
C227 C226 1.439 . S
C227 C252 1.395 . S
N228 Co217 1.995 . S
N228 C229 1.376 . S
N228 C232 1.383 . S
C229 N228 1.376 . S
C229 C230 1.446 . S
C229 C252 1.391 . S
C230 C229 1.446 . S
C230 C231 1.339 . S
C230 H259 0.949 . S
C231 C230 1.339 . S
C231 C232 1.439 . S
C231 H260 0.950 . S
C232 N228 1.383 . S
C232 C231 1.439 . S
C232 C250 1.392 . S
N233 Co217 2.282 . S
N233 C236 1.332 . S
N233 C238 1.332 . S
C234 C235 1.386 . S
C234 C237 1.388 . S
C235 C234 1.386 . S
C235 C236 1.382 . S
C235 H261 0.950 . S
C236 N233 1.332 . S
C236 C235 1.382 . S
C236 H247 0.952 . S
C237 C234 1.388 . S
C237 C238 1.382 . S
C237 H262 0.950 . S
C238 N233 1.332 . S
C238 C237 1.382 . S
C238 H248 0.948 . S
N239 Co217 2.282 . S
N239 C243 1.332 . S
N239 C244 1.332 . S
C240 C241 1.388 . S
C240 C244 1.382 . S
C240 H263 0.950 . S
C241 C240 1.388 . S
C241 C242 1.386 . S
C242 C241 1.386 . S
C242 C243 1.382 . S
C242 H264 0.950 . S
C243 N239 1.332 . S
C243 C242 1.382 . S
C243 H245 0.952 . S
C244 N239 1.332 . S
C244 C240 1.382 . S
C244 H246 0.948 . S
H245 C243 0.952 . S
H246 C244 0.948 . S
H247 C236 0.952 . S
H248 C238 0.948 . S
C249 C215 1.395 . S
C249 C219 1.391 . S
C250 C212 1.389 . S
C250 C232 1.392 . S
C251 C222 1.392 . S
C251 C224 1.389 . S
C252 C227 1.395 . S
C252 C229 1.391 . S
H253 C213 0.951 . S
H254 C214 0.950 . S
H255 C220 0.949 . S
H256 C221 0.950 . S
H257 C225 0.951 . S
H258 C226 0.950 . S
H259 C230 0.949 . S
H260 C231 0.950 . S
H261 C235 0.950 . S
H262 C237 0.950 . S
H263 C240 0.950 . S
H264 C242 0.950 . S
C265 C266 1.443 . S
C265 N269 1.376 . S
C265 C303 1.389 . S
C266 C265 1.443 . S
C266 C267 1.340 . S
C266 H306 0.951 . S
C267 C266 1.340 . S
C267 C268 1.439 . S
C267 H307 0.950 . S
C268 C267 1.439 . S
C268 N269 1.374 . S
C268 C302 1.395 . S
N269 C265 1.376 . S
N269 C268 1.374 . S
N269 Co270 2.008 . S
Co270 N269 2.008 . S
Co270 N271 1.995 . S
Co270 N276 2.008 . S
Co270 N281 1.995 . S
Co270 N286 2.282 . S
Co270 N292 2.282 . S
N271 Co270 1.995 . S
N271 C272 1.376 . S
N271 C275 1.383 . S
C272 N271 1.376 . S
C272 C273 1.446 . S
C272 C302 1.391 . S
C273 C272 1.446 . S
C273 C274 1.339 . S
C273 H308 0.949 . S
C274 C273 1.339 . S
C274 C275 1.439 . S
C274 H309 0.950 . S
C275 N271 1.383 . S
C275 C274 1.439 . S
C275 C304 1.392 . S
N276 Co270 2.008 . S
N276 C277 1.376 . S
N276 C280 1.374 . S
C277 N276 1.376 . S
C277 C278 1.443 . S
C277 C304 1.389 . S
C278 C277 1.443 . S
C278 C279 1.340 . S
C278 H310 0.951 . S
C279 C278 1.340 . S
C279 C280 1.439 . S
C279 H311 0.950 . S
C280 N276 1.374 . S
C280 C279 1.439 . S
C280 C305 1.395 . S
N281 Co270 1.995 . S
N281 C282 1.376 . S
N281 C285 1.383 . S
C282 N281 1.376 . S
C282 C283 1.446 . S
C282 C305 1.391 . S
C283 C282 1.446 . S
C283 C284 1.339 . S
C283 H312 0.949 . S
C284 C283 1.339 . S
C284 C285 1.439 . S
C284 H313 0.950 . S
C285 N281 1.383 . S
C285 C284 1.439 . S
C285 C303 1.392 . S
N286 Co270 2.282 . S
N286 C289 1.332 . S
N286 C291 1.332 . S
C287 C288 1.386 . S
C287 C290 1.388 . S
C288 C287 1.386 . S
C288 C289 1.382 . S
C288 H314 0.950 . S
C289 N286 1.332 . S
C289 C288 1.382 . S
C289 H300 0.952 . S
C290 C287 1.388 . S
C290 C291 1.382 . S
C290 H315 0.950 . S
C291 N286 1.332 . S
C291 C290 1.382 . S
C291 H301 0.948 . S
N292 Co270 2.282 . S
N292 C296 1.332 . S
N292 C297 1.332 . S
C293 C294 1.388 . S
C293 C297 1.382 . S
C293 H316 0.950 . S
C294 C293 1.388 . S
C294 C295 1.386 . S
C295 C294 1.386 . S
C295 C296 1.382 . S
C295 H317 0.950 . S
C296 N292 1.332 . S
C296 C295 1.382 . S
C296 H298 0.952 . S
C297 N292 1.332 . S
C297 C293 1.382 . S
C297 H299 0.948 . S
H298 C296 0.952 . S
H299 C297 0.948 . S
H300 C289 0.952 . S
H301 C291 0.948 . S
C302 C268 1.395 . S
C302 C272 1.391 . S
C303 C265 1.389 . S
C303 C285 1.392 . S
C304 C275 1.392 . S
C304 C277 1.389 . S
C305 C280 1.395 . S
C305 C282 1.391 . S
H306 C266 0.951 . S
H307 C267 0.950 . S
H308 C273 0.949 . S
H309 C274 0.950 . S
H310 C278 0.951 . S
H311 C279 0.950 . S
H312 C283 0.949 . S
H313 C284 0.950 . S
H314 C288 0.950 . S
H315 C290 0.950 . S
H316 C293 0.950 . S
H317 C295 0.950 . S
C318 C319 1.443 . S
C318 N322 1.376 . S
C318 C356 1.389 . S
C319 C318 1.443 . S
C319 C320 1.340 . S
C319 H359 0.951 . S
C320 C319 1.340 . S
C320 C321 1.439 . S
C320 H360 0.950 . S
C321 C320 1.439 . S
C321 N322 1.374 . S
C321 C355 1.395 . S
N322 C318 1.376 . S
N322 C321 1.374 . S
N322 Co323 2.002 1_556 S
Co323 N322 2.002 1_554 S
Co323 N324 1.993 1_554 S
Co323 N329 2.015 . S
Co323 N334 1.996 . S
Co323 N339 2.285 . S
Co323 N345 2.279 1_554 S
N324 Co323 1.993 1_556 S
N324 C325 1.376 . S
N324 C328 1.383 1_556 S
C325 N324 1.376 . S
C325 C326 1.446 . S
C325 C355 1.391 . S
C326 C325 1.446 . S
C326 C327 1.339 1_556 S
C326 H361 0.949 . S
C327 C326 1.339 1_554 S
C327 C328 1.439 . S
C327 H362 0.950 . S
C328 N324 1.383 1_554 S
C328 C327 1.439 . S
C328 C357 1.392 . S
N329 Co323 2.015 . S
N329 C330 1.376 . S
N329 C333 1.374 . S
C330 N329 1.376 . S
C330 C331 1.443 . S
C330 C357 1.389 . S
C331 C330 1.443 . S
C331 C332 1.340 . S
C331 H363 0.951 . S
C332 C331 1.340 . S
C332 C333 1.439 . S
C332 H364 0.950 . S
C333 N329 1.374 . S
C333 C332 1.439 . S
C333 C358 1.395 . S
N334 Co323 1.996 . S
N334 C335 1.376 . S
N334 C338 1.383 1_554 S
C335 N334 1.376 . S
C335 C336 1.446 . S
C335 C358 1.391 . S
C336 C335 1.446 . S
C336 C337 1.339 1_554 S
C336 H365 0.949 . S
C337 C336 1.339 1_556 S
C337 C338 1.439 . S
C337 H366 0.950 . S
C338 N334 1.383 1_556 S
C338 C337 1.439 . S
C338 C356 1.392 . S
N339 Co323 2.285 . S
N339 C342 1.332 . S
N339 C344 1.332 . S
C340 C341 1.386 . S
C340 C343 1.388 . S
C341 C340 1.386 . S
C341 C342 1.382 . S
C341 H367 0.950 . S
C342 N339 1.332 . S
C342 C341 1.382 . S
C342 H353 0.952 . S
C343 C340 1.388 . S
C343 C344 1.382 . S
C343 H368 0.950 . S
C344 N339 1.332 . S
C344 C343 1.382 . S
C344 H354 0.948 . S
N345 Co323 2.279 1_556 S
N345 C349 1.332 . S
N345 C350 1.332 . S
C346 C347 1.388 . S
C346 C350 1.382 . S
C346 H369 0.950 . S
C347 C346 1.388 . S
C347 C348 1.386 . S
C348 C347 1.386 . S
C348 C349 1.382 . S
C348 H370 0.950 . S
C349 N345 1.332 . S
C349 C348 1.382 . S
C349 H351 0.952 . S
C350 N345 1.332 . S
C350 C346 1.382 . S
C350 H352 0.948 . S
H351 C349 0.952 . S
H352 C350 0.948 . S
H353 C342 0.952 . S
H354 C344 0.948 . S
C355 C321 1.395 . S
C355 C325 1.391 . S
C356 C318 1.389 . S
C356 C338 1.392 . S
C357 C328 1.392 . S
C357 C330 1.389 . S
C358 C333 1.395 . S
C358 C335 1.391 . S
H359 C319 0.951 . S
H360 C320 0.950 . S
H361 C326 0.949 . S
H362 C327 0.950 . S
H363 C331 0.951 . S
H364 C332 0.950 . S
H365 C336 0.949 . S
H366 C337 0.950 . S
H367 C341 0.950 . S
H368 C343 0.950 . S
H369 C346 0.950 . S
H370 C348 0.950 . S
C371 C372 1.443 . S
C371 N375 1.376 . S
C371 C409 1.389 . S
C372 C371 1.443 . S
C372 C373 1.340 . S
C372 H412 0.951 . S
C373 C372 1.340 . S
C373 C374 1.439 . S
C373 H413 0.950 . S
C374 C373 1.439 . S
C374 N375 1.374 . S
C374 C408 1.376 1_455 S
N375 C371 1.376 . S
N375 C374 1.374 . S
N375 Co376 2.008 . S
Co376 N375 2.008 . S
Co376 N377 1.995 1_455 S
Co376 N382 2.008 1_455 S
Co376 N387 1.995 . S
Co376 N392 2.282 . S
Co376 N398 2.282 1_455 S
N377 Co376 1.995 1_655 S
N377 C378 1.376 . S
N377 C381 1.383 . S
C378 N377 1.376 . S
C378 C379 1.446 . S
C378 C408 1.408 . S
C379 C378 1.446 . S
C379 C380 1.339 . S
C379 H414 0.949 . S
C380 C379 1.339 . S
C380 C381 1.439 . S
C380 H415 0.950 . S
C381 N377 1.383 . S
C381 C380 1.439 . S
C381 C410 1.392 . S
N382 Co376 2.008 1_655 S
N382 C383 1.376 . S
N382 C386 1.374 . S
C383 N382 1.376 . S
C383 C384 1.443 . S
C383 C410 1.389 . S
C384 C383 1.443 . S
C384 C385 1.340 . S
C384 H416 0.951 . S
C385 C384 1.340 . S
C385 C386 1.439 . S
C385 H417 0.950 . S
C386 N382 1.374 . S
C386 C385 1.439 . S
C386 C411 1.395 1_655 S
N387 Co376 1.995 . S
N387 C388 1.376 . S
N387 C391 1.383 . S
C388 N387 1.376 . S
C388 C389 1.446 . S
C388 C411 1.391 . S
C389 C388 1.446 . S
C389 C390 1.339 . S
C389 H418 0.949 . S
C390 C389 1.339 . S
C390 C391 1.439 . S
C390 H419 0.950 . S
C391 N387 1.383 . S
C391 C390 1.439 . S
C391 C409 1.392 . S
N392 Co376 2.282 . S
N392 C395 1.332 . S
N392 C397 1.332 . S
C393 C394 1.386 . S
C393 C396 1.388 . S
C394 C393 1.386 . S
C394 C395 1.382 . S
C394 H420 0.950 . S
C395 N392 1.332 . S
C395 C394 1.382 . S
C395 H406 0.952 . S
C396 C393 1.388 . S
C396 C397 1.382 . S
C396 H421 0.950 . S
C397 N392 1.332 . S
C397 C396 1.382 . S
C397 H407 0.948 . S
N398 Co376 2.282 1_655 S
N398 C402 1.332 . S
N398 C403 1.332 . S
C399 C400 1.388 . S
C399 C403 1.382 . S
C399 H422 0.950 . S
C400 C399 1.388 . S
C400 C401 1.386 . S
C401 C400 1.386 . S
C401 C402 1.382 . S
C401 H423 0.950 . S
C402 N398 1.332 . S
C402 C401 1.382 . S
C402 H404 0.952 . S
C403 N398 1.332 . S
C403 C399 1.382 . S
C403 H405 0.948 . S
H404 C402 0.952 . S
H405 C403 0.948 . S
H406 C395 0.952 . S
H407 C397 0.948 . S
C408 C374 1.376 1_655 S
C408 C378 1.408 . S
C409 C371 1.389 . S
C409 C391 1.392 . S
C410 C381 1.392 . S
C410 C383 1.389 . S
C411 C386 1.395 1_455 S
C411 C388 1.391 . S
H412 C372 0.951 . S
H413 C373 0.950 . S
H414 C379 0.949 . S
H415 C380 0.950 . S
H416 C384 0.951 . S
H417 C385 0.950 . S
H418 C389 0.949 . S
H419 C390 0.950 . S
H420 C394 0.950 . S
H421 C396 0.950 . S
H422 C399 0.950 . S
H423 C401 0.950 . S
H424 C430 0.930 . S
H425 C434 0.930 . S
H426 C439 0.929 . S
H427 C437 0.929 . S
H428 C432 0.929 . S
H429 C438 0.929 . S
C430 H424 0.930 . S
C430 C431 1.367 . S
C430 C438 1.378 . S
C431 C430 1.367 . S
C431 C439 1.433 . S
C432 H428 0.929 . S
C432 C434 1.378 . S
C432 C436 1.350 . S
C433 C436 1.463 . S
C433 C438 1.350 . S
C433 N441 1.427 . S
C434 H425 0.930 . S
C434 C432 1.378 . S
C434 C435 1.367 . S
C435 C434 1.367 . S
C435 C437 1.433 . S
C436 C432 1.350 . S
C436 C433 1.463 . S
C436 N440 1.427 . S
C437 H427 0.929 . S
C437 C435 1.433 . S
C437 N440 1.384 . S
C438 H429 0.929 . S
C438 C430 1.378 . S
C438 C433 1.350 . S
C439 H426 0.929 . S
C439 C431 1.433 . S
C439 N441 1.384 . S
N440 C436 1.427 . S
N440 C437 1.384 . S
N441 C433 1.427 . S
N441 C439 1.384 . S
H442 C448 0.930 . S
H443 C452 0.930 . S
H444 C457 0.929 . S
H445 C455 0.929 . S
H446 C450 0.929 . S
H447 C456 0.929 . S
C448 H442 0.930 . S
C448 C449 1.367 . S
C448 C456 1.378 . S
C449 C448 1.367 . S
C449 C457 1.433 . S
C450 H446 0.929 . S
C450 C452 1.378 . S
C450 C454 1.350 . S
C451 C454 1.463 . S
C451 C456 1.350 . S
C451 N459 1.427 . S
C452 H443 0.930 . S
C452 C450 1.378 . S
C452 C453 1.367 . S
C453 C452 1.367 . S
C453 C455 1.433 . S
C454 C450 1.350 . S
C454 C451 1.463 . S
C454 N458 1.427 . S
C455 H445 0.929 . S
C455 C453 1.433 . S
C455 N458 1.384 . S
C456 H447 0.929 . S
C456 C448 1.378 . S
C456 C451 1.350 . S
C457 H444 0.929 . S
C457 C449 1.433 . S
C457 N459 1.384 . S
N458 C454 1.427 . S
N458 C455 1.384 . S
N459 C451 1.427 . S
N459 C457 1.384 . S
H460 C466 0.930 . S
H461 C470 0.930 . S
H462 C475 0.929 . S
H463 C473 0.929 . S
H464 C468 0.929 . S
H465 C474 0.929 . S
C466 H460 0.930 . S
C466 C467 1.367 . S
C466 C474 1.378 . S
C467 C466 1.367 . S
C467 C475 1.433 . S
C468 H464 0.929 . S
C468 C470 1.378 . S
C468 C472 1.350 . S
C469 C472 1.463 . S
C469 C474 1.350 . S
C469 N477 1.427 . S
C470 H461 0.930 . S
C470 C468 1.378 . S
C470 C471 1.367 . S
C471 C470 1.367 . S
C471 C473 1.433 . S
C472 C468 1.350 . S
C472 C469 1.463 . S
C472 N476 1.427 . S
C473 H463 0.929 . S
C473 C471 1.433 . S
C473 N476 1.384 . S
C474 H465 0.929 . S
C474 C466 1.378 . S
C474 C469 1.350 . S
C475 H462 0.929 . S
C475 C467 1.433 . S
C475 N477 1.384 . S
N476 C472 1.427 . S
N476 C473 1.384 . S
N477 C469 1.427 . S
N477 C475 1.384 . S
H478 C484 0.930 . S
H479 C488 0.930 . S
H480 C493 0.929 . S
H481 C491 0.929 . S
H482 C486 0.929 . S
H483 C492 0.929 . S
C484 H478 0.930 . S
C484 C485 1.367 . S
C484 C492 1.378 . S
C485 C484 1.367 . S
C485 C493 1.433 . S
C486 H482 0.929 . S
C486 C488 1.378 . S
C486 C490 1.350 . S
C487 C490 1.463 . S
C487 C492 1.350 . S
C487 N495 1.427 . S
C488 H479 0.930 . S
C488 C486 1.378 . S
C488 C489 1.367 . S
C489 C488 1.367 . S
C489 C491 1.433 . S
C490 C486 1.350 . S
C490 C487 1.463 . S
C490 N494 1.427 . S
C491 H481 0.929 . S
C491 C489 1.433 . S
C491 N494 1.384 . S
C492 H483 0.929 . S
C492 C484 1.378 . S
C492 C487 1.350 . S
C493 H480 0.929 . S
C493 C485 1.433 . S
C493 N495 1.384 . S
N494 C490 1.427 . S
N494 C491 1.384 . S
N495 C487 1.427 . S
N495 C493 1.384 . S
H496 C502 0.930 . S
H497 C506 0.930 . S
H498 C511 0.929 . S
H499 C509 0.929 . S
H500 C504 0.929 . S
H501 C510 0.929 . S
C502 H496 0.930 . S
C502 C503 1.367 . S
C502 C510 1.378 . S
C503 C502 1.367 . S
C503 C511 1.433 . S
C504 H500 0.929 . S
C504 C506 1.378 . S
C504 C508 1.350 . S
C505 C508 1.463 . S
C505 C510 1.350 . S
C505 N513 1.427 . S
C506 H497 0.930 . S
C506 C504 1.378 . S
C506 C507 1.367 . S
C507 C506 1.367 . S
C507 C509 1.433 . S
C508 C504 1.350 . S
C508 C505 1.463 . S
C508 N512 1.427 . S
C509 H499 0.929 . S
C509 C507 1.433 . S
C509 N512 1.384 . S
C510 H501 0.929 . S
C510 C502 1.378 . S
C510 C505 1.350 . S
C511 H498 0.929 . S
C511 C503 1.433 . S
C511 N513 1.384 . S
N512 C508 1.427 . S
N512 C509 1.384 . S
N513 C505 1.427 . S
N513 C511 1.384 . S
H514 C520 0.930 . S
H515 C524 0.930 . S
H516 C529 0.929 . S
H517 C527 0.929 . S
H518 C522 0.929 . S
H519 C528 0.929 . S
C520 H514 0.930 . S
C520 C521 1.367 . S
C520 C528 1.378 . S
C521 C520 1.367 . S
C521 C529 1.433 . S
C522 H518 0.929 . S
C522 C524 1.378 . S
C522 C526 1.350 . S
C523 C526 1.463 . S
C523 C528 1.350 . S
C523 N531 1.427 . S
C524 H515 0.930 . S
C524 C522 1.378 . S
C524 C525 1.367 . S
C525 C524 1.367 . S
C525 C527 1.433 . S
C526 C522 1.350 . S
C526 C523 1.463 . S
C526 N530 1.427 . S
C527 H517 0.929 . S
C527 C525 1.433 . S
C527 N530 1.384 . S
C528 H519 0.929 . S
C528 C520 1.378 . S
C528 C523 1.350 . S
C529 H516 0.929 . S
C529 C521 1.433 . S
C529 N531 1.384 . S
N530 C526 1.427 . S
N530 C527 1.384 . S
N531 C523 1.427 . S
N531 C529 1.384 . S
H532 C538 0.930 . S
H533 C542 0.930 . S
H534 C547 0.929 . S
H535 C545 0.929 . S
H536 C540 0.929 . S
H537 C546 0.929 . S
C538 H532 0.930 . S
C538 C539 1.367 . S
C538 C546 1.378 . S
C539 C538 1.367 . S
C539 C547 1.433 . S
C540 H536 0.929 . S
C540 C542 1.378 . S
C540 C544 1.350 . S
C541 C544 1.463 . S
C541 C546 1.350 . S
C541 N549 1.427 . S
C542 H533 0.930 . S
C542 C540 1.378 . S
C542 C543 1.367 . S
C543 C542 1.367 . S
C543 C545 1.433 . S
C544 C540 1.350 . S
C544 C541 1.463 . S
C544 N548 1.427 . S
C545 H535 0.929 . S
C545 C543 1.433 . S
C545 N548 1.384 . S
C546 H537 0.929 . S
C546 C538 1.378 . S
C546 C541 1.350 . S
C547 H534 0.929 . S
C547 C539 1.433 . S
C547 N549 1.384 . S
N548 C544 1.427 . S
N548 C545 1.384 . S
N549 C541 1.427 . S
N549 C547 1.384 . S
H550 C556 0.930 . S
H551 C560 0.930 . S
H552 C565 0.929 . S
H553 C563 0.929 . S
H554 C558 0.929 . S
H555 C564 0.929 . S
C556 H550 0.930 . S
C556 C557 1.367 . S
C556 C564 1.378 . S
C557 C556 1.367 . S
C557 C565 1.433 . S
C558 H554 0.929 . S
C558 C560 1.378 . S
C558 C562 1.350 . S
C559 C562 1.463 . S
C559 C564 1.350 . S
C559 N567 1.427 . S
C560 H551 0.930 . S
C560 C558 1.378 . S
C560 C561 1.367 . S
C561 C560 1.367 . S
C561 C563 1.433 . S
C562 C558 1.350 . S
C562 C559 1.463 . S
C562 N566 1.427 . S
C563 H553 0.929 . S
C563 C561 1.433 . S
C563 N566 1.384 . S
C564 H555 0.929 . S
C564 C556 1.378 . S
C564 C559 1.350 . S
C565 H552 0.929 . S
C565 C557 1.433 . S
C565 N567 1.384 . S
N566 C562 1.427 . S
N566 C563 1.384 . S
N567 C559 1.427 . S
N567 C565 1.384 . S
H568 C574 0.930 . S
H569 C578 0.930 . S
H570 C583 0.929 . S
H571 C581 0.929 . S
H572 C576 0.929 . S
H573 C582 0.929 . S
C574 H568 0.930 . S
C574 C575 1.367 . S
C574 C582 1.378 . S
C575 C574 1.367 . S
C575 C583 1.433 . S
C576 H572 0.929 . S
C576 C578 1.378 . S
C576 C580 1.350 . S
C577 C580 1.463 . S
C577 C582 1.350 . S
C577 N585 1.427 . S
C578 H569 0.930 . S
C578 C576 1.378 . S
C578 C579 1.367 . S
C579 C578 1.367 . S
C579 C581 1.433 . S
C580 C576 1.350 . S
C580 C577 1.463 . S
C580 N584 1.427 . S
C581 H571 0.929 . S
C581 C579 1.433 . S
C581 N584 1.384 . S
C582 H573 0.929 . S
C582 C574 1.378 . S
C582 C577 1.350 . S
C583 H570 0.929 . S
C583 C575 1.433 . S
C583 N585 1.384 . S
N584 C580 1.427 . S
N584 C581 1.384 . S
N585 C577 1.427 . S
N585 C583 1.384 . S
H586 C592 0.930 . S
H587 C596 0.930 . S
H588 C601 0.929 . S
H589 C599 0.929 . S
H590 C594 0.929 . S
H591 C600 0.929 . S
C592 H586 0.930 . S
C592 C593 1.367 . S
C592 C600 1.378 . S
C593 C592 1.367 . S
C593 C601 1.433 . S
C594 H590 0.929 . S
C594 C596 1.378 . S
C594 C598 1.350 . S
C595 C598 1.463 . S
C595 C600 1.350 . S
C595 N603 1.427 . S
C596 H587 0.930 . S
C596 C594 1.378 . S
C596 C597 1.367 . S
C597 C596 1.367 . S
C597 C599 1.433 . S
C598 C594 1.350 . S
C598 C595 1.463 . S
C598 N602 1.427 . S
C599 H589 0.929 . S
C599 C597 1.433 . S
C599 N602 1.384 . S
C600 H591 0.929 . S
C600 C592 1.378 . S
C600 C595 1.350 . S
C601 H588 0.929 . S
C601 C593 1.433 . S
C601 N603 1.384 . S
N602 C598 1.427 . S
N602 C599 1.384 . S
N603 C595 1.427 . S
N603 C601 1.384 . S
H604 C610 0.930 . S
H605 C614 0.930 . S
H606 C619 0.929 . S
H607 C617 0.929 . S
H608 C612 0.929 . S
H609 C618 0.929 . S
C610 H604 0.930 . S
C610 C611 1.367 . S
C610 C618 1.378 . S
C611 C610 1.367 . S
C611 C619 1.433 . S
C612 H608 0.929 . S
C612 C614 1.378 . S
C612 C616 1.350 . S
C613 C616 1.463 . S
C613 C618 1.350 . S
C613 N621 1.427 . S
C614 H605 0.930 . S
C614 C612 1.378 . S
C614 C615 1.367 . S
C615 C614 1.367 . S
C615 C617 1.433 . S
C616 C612 1.350 . S
C616 C613 1.463 . S
C616 N620 1.427 . S
C617 H607 0.929 . S
C617 C615 1.433 . S
C617 N620 1.384 . S
C618 H609 0.929 . S
C618 C610 1.378 . S
C618 C613 1.350 . S
C619 H606 0.929 . S
C619 C611 1.433 . S
C619 N621 1.384 . S
N620 C616 1.427 . S
N620 C617 1.384 . S
N621 C613 1.427 . S
N621 C619 1.384 . S
H622 C628 0.930 . S
H623 C632 0.930 . S
H624 C637 0.929 . S
H625 C635 0.929 . S
H626 C630 0.929 . S
H627 C636 0.929 . S
C628 H622 0.930 . S
C628 C629 1.367 . S
C628 C636 1.378 . S
C629 C628 1.367 . S
C629 C637 1.433 . S
C630 H626 0.929 . S
C630 C632 1.378 . S
C630 C634 1.350 . S
C631 C634 1.463 . S
C631 C636 1.350 . S
C631 N639 1.427 . S
C632 H623 0.930 . S
C632 C630 1.378 . S
C632 C633 1.367 . S
C633 C632 1.367 . S
C633 C635 1.433 . S
C634 C630 1.350 . S
C634 C631 1.463 . S
C634 N638 1.427 . S
C635 H625 0.929 . S
C635 C633 1.433 . S
C635 N638 1.384 . S
C636 H627 0.929 . S
C636 C628 1.378 . S
C636 C631 1.350 . S
C637 H624 0.929 . S
C637 C629 1.433 . S
C637 N639 1.384 . S
N638 C634 1.427 . S
N638 C635 1.384 . S
N639 C631 1.427 . S
N639 C637 1.384 . S
H640 C646 0.930 . S
H641 C650 0.930 . S
H642 C655 0.929 . S
H643 C653 0.929 . S
H644 C648 0.929 . S
H645 C654 0.929 . S
C646 H640 0.930 . S
C646 C647 1.367 . S
C646 C654 1.378 . S
C647 C646 1.367 . S
C647 C655 1.433 . S
C648 H644 0.929 . S
C648 C650 1.378 . S
C648 C652 1.350 . S
C649 C652 1.463 . S
C649 C654 1.350 . S
C649 N657 1.427 . S
C650 H641 0.930 . S
C650 C648 1.378 . S
C650 C651 1.367 . S
C651 C650 1.367 . S
C651 C653 1.433 . S
C652 C648 1.350 . S
C652 C649 1.463 . S
C652 N656 1.427 . S
C653 H643 0.929 . S
C653 C651 1.433 . S
C653 N656 1.384 . S
C654 H645 0.929 . S
C654 C646 1.378 . S
C654 C649 1.350 . S
C655 H642 0.929 . S
C655 C647 1.433 . S
C655 N657 1.384 . S
N656 C652 1.427 . S
N656 C653 1.384 . S
N657 C649 1.427 . S
N657 C655 1.384 . S
H658 C664 0.930 . S
H659 C668 0.930 . S
H660 C673 0.929 . S
H661 C671 0.929 . S
H662 C666 0.929 . S
H663 C672 0.929 . S
C664 H658 0.930 . S
C664 C665 1.367 . S
C664 C672 1.378 . S
C665 C664 1.367 . S
C665 C673 1.433 . S
C666 H662 0.929 . S
C666 C668 1.378 . S
C666 C670 1.350 . S
C667 C670 1.463 . S
C667 C672 1.350 . S
C667 N675 1.427 . S
C668 H659 0.930 . S
C668 C666 1.378 . S
C668 C669 1.367 . S
C669 C668 1.367 . S
C669 C671 1.433 . S
C670 C666 1.350 . S
C670 C667 1.463 . S
C670 N674 1.427 . S
C671 H661 0.929 . S
C671 C669 1.433 . S
C671 N674 1.384 . S
C672 H663 0.929 . S
C672 C664 1.378 . S
C672 C667 1.350 . S
C673 H660 0.929 . S
C673 C665 1.433 . S
C673 N675 1.384 . S
N674 C670 1.427 . S
N674 C671 1.384 . S
N675 C667 1.427 . S
N675 C673 1.384 . S
H676 C682 0.930 . S
H677 C686 0.930 . S
H678 C691 0.929 . S
H679 C689 0.929 . S
H680 C684 0.929 . S
H681 C690 0.929 . S
C682 H676 0.930 . S
C682 C683 1.367 . S
C682 C690 1.378 . S
C683 C682 1.367 . S
C683 C691 1.433 . S
C684 H680 0.929 . S
C684 C686 1.378 . S
C684 C688 1.350 . S
C685 C688 1.463 . S
C685 C690 1.350 . S
C685 N693 1.427 . S
C686 H677 0.930 . S
C686 C684 1.378 . S
C686 C687 1.367 . S
C687 C686 1.367 . S
C687 C689 1.433 . S
C688 C684 1.350 . S
C688 C685 1.463 . S
C688 N692 1.427 . S
C689 H679 0.929 . S
C689 C687 1.433 . S
C689 N692 1.384 . S
C690 H681 0.929 . S
C690 C682 1.378 . S
C690 C685 1.350 . S
C691 H678 0.929 . S
C691 C683 1.433 . S
C691 N693 1.384 . S
N692 C688 1.427 . S
N692 C689 1.384 . S
N693 C685 1.427 . S
N693 C691 1.384 . S
H694 C700 0.930 . S
H695 C704 0.930 . S
H696 C709 0.929 . S
H697 C707 0.929 . S
H698 C702 0.929 . S
H699 C708 0.929 . S
C700 H694 0.930 . S
C700 C701 1.367 . S
C700 C708 1.378 . S
C701 C700 1.367 . S
C701 C709 1.433 . S
C702 H698 0.929 . S
C702 C704 1.378 . S
C702 C706 1.350 . S
C703 C706 1.463 . S
C703 C708 1.350 . S
C703 N711 1.427 . S
C704 H695 0.930 . S
C704 C702 1.378 . S
C704 C705 1.367 . S
C705 C704 1.367 . S
C705 C707 1.433 . S
C706 C702 1.350 . S
C706 C703 1.463 . S
C706 N710 1.427 . S
C707 H697 0.929 . S
C707 C705 1.433 . S
C707 N710 1.384 . S
C708 H699 0.929 . S
C708 C700 1.378 . S
C708 C703 1.350 . S
C709 H696 0.929 . S
C709 C701 1.433 . S
C709 N711 1.384 . S
N710 C706 1.427 . S
N710 C707 1.384 . S
N711 C703 1.427 . S
N711 C709 1.384 . S
C431 C22 1.567 . S
C435 C198 1.567 . S
C449 C38 1.600 . S
C453 C91 1.597 . S
C467 C128 1.398 . S
C471 C75 1.395 . S
C485 C188 1.466 . S
C489 C144 1.467 . S
C503 C29 1.566 . S
C507 C304 1.570 . S
C521 C39 1.600 . S
C525 C250 1.601 . S
C539 C234 1.398 . S
C543 C135 1.398 . S
C557 C145 1.466 . S
C561 C294 1.466 . S
C575 C347 1.521 . S
C579 C303 1.522 . S
C593 C251 1.642 . S
C597 C357 1.639 . S
C611 C241 1.535 . S
C615 C410 1.537 . S
C629 C287 1.335 . S
C633 C400 1.338 . S
C647 C340 1.522 . S
C651 C197 1.521 . S
C665 C92 1.642 . S
C669 C356 1.638 . S
C683 C82 1.535 . S
C687 C409 1.534 . S
C701 C181 1.336 . S
C705 C393 1.335 . S
