# Generated by pormake.
# Topology lta, (4)-cn, num edge types: 1
# Building blocks:
#     Node 0, Type 0, BuildingBlock: AZAVOO_clean_sbu_0, # of connection points: 4
#     Node 1, Type 0, BuildingBlock: AZAVOO_clean_sbu_0, # of connection points: 4
#     Node 2, Type 0, BuildingBlock: AZAVOO_clean_sbu_0, # of connection points: 4
#     Node 3, Type 0, BuildingBlock: AZAVOO_clean_sbu_0, # of connection points: 4
#     Node 4, Type 0, BuildingBlock: AZAVOO_clean_sbu_0, # of connection points: 4
#     Node 5, Type 0, BuildingBlock: AZAVOO_clean_sbu_0, # of connection points: 4
#     Node 6, Type 0, BuildingBlock: AZAVOO_clean_sbu_0, # of connection points: 4
#     Node 7, Type 0, BuildingBlock: AZAVOO_clean_sbu_0, # of connection points: 4
#     Node 8, Type 0, BuildingBlock: AZAVOO_clean_sbu_0, # of connection points: 4
#     Node 9, Type 0, BuildingBlock: AZAVOO_clean_sbu_0, # of connection points: 4
#     Node 10, Type 0, BuildingBlock: AZAVOO_clean_sbu_0, # of connection points: 4
#     Node 11, Type 0, BuildingBlock: AZAVOO_clean_sbu_0, # of connection points: 4
#     Node 12, Type 0, BuildingBlock: AZAVOO_clean_sbu_0, # of connection points: 4
#     Node 13, Type 0, BuildingBlock: AZAVOO_clean_sbu_0, # of connection points: 4
#     Node 14, Type 0, BuildingBlock: AZAVOO_clean_sbu_0, # of connection points: 4
#     Node 15, Type 0, BuildingBlock: AZAVOO_clean_sbu_0, # of connection points: 4
#     Node 16, Type 0, BuildingBlock: AZAVOO_clean_sbu_0, # of connection points: 4
#     Node 17, Type 0, BuildingBlock: AZAVOO_clean_sbu_0, # of connection points: 4
#     Node 18, Type 0, BuildingBlock: AZAVOO_clean_sbu_0, # of connection points: 4
#     Node 19, Type 0, BuildingBlock: AZAVOO_clean_sbu_0, # of connection points: 4
#     Node 20, Type 0, BuildingBlock: AZAVOO_clean_sbu_0, # of connection points: 4
#     Node 21, Type 0, BuildingBlock: AZAVOO_clean_sbu_0, # of connection points: 4
#     Node 22, Type 0, BuildingBlock: AZAVOO_clean_sbu_0, # of connection points: 4
#     Node 23, Type 0, BuildingBlock: AZAVOO_clean_sbu_0, # of connection points: 4
#     Edge 24, Type (0, 0), BuildingBlock: KIFKEQ_clean_linker_1, # of connection points: 2
#     Edge 25, Type (0, 0), BuildingBlock: KIFKEQ_clean_linker_1, # of connection points: 2
#     Edge 26, Type (0, 0), BuildingBlock: KIFKEQ_clean_linker_1, # of connection points: 2
#     Edge 27, Type (0, 0), BuildingBlock: KIFKEQ_clean_linker_1, # of connection points: 2
#     Edge 28, Type (0, 0), BuildingBlock: KIFKEQ_clean_linker_1, # of connection points: 2
#     Edge 29, Type (0, 0), BuildingBlock: KIFKEQ_clean_linker_1, # of connection points: 2
#     Edge 30, Type (0, 0), BuildingBlock: KIFKEQ_clean_linker_1, # of connection points: 2
#     Edge 31, Type (0, 0), BuildingBlock: KIFKEQ_clean_linker_1, # of connection points: 2
#     Edge 32, Type (0, 0), BuildingBlock: KIFKEQ_clean_linker_1, # of connection points: 2
#     Edge 33, Type (0, 0), BuildingBlock: KIFKEQ_clean_linker_1, # of connection points: 2
#     Edge 34, Type (0, 0), BuildingBlock: KIFKEQ_clean_linker_1, # of connection points: 2
#     Edge 35, Type (0, 0), BuildingBlock: KIFKEQ_clean_linker_1, # of connection points: 2
#     Edge 36, Type (0, 0), BuildingBlock: KIFKEQ_clean_linker_1, # of connection points: 2
#     Edge 37, Type (0, 0), BuildingBlock: KIFKEQ_clean_linker_1, # of connection points: 2
#     Edge 38, Type (0, 0), BuildingBlock: KIFKEQ_clean_linker_1, # of connection points: 2
#     Edge 39, Type (0, 0), BuildingBlock: KIFKEQ_clean_linker_1, # of connection points: 2
#     Edge 40, Type (0, 0), BuildingBlock: KIFKEQ_clean_linker_1, # of connection points: 2
#     Edge 41, Type (0, 0), BuildingBlock: KIFKEQ_clean_linker_1, # of connection points: 2
#     Edge 42, Type (0, 0), BuildingBlock: KIFKEQ_clean_linker_1, # of connection points: 2
#     Edge 43, Type (0, 0), BuildingBlock: KIFKEQ_clean_linker_1, # of connection points: 2
#     Edge 44, Type (0, 0), BuildingBlock: KIFKEQ_clean_linker_1, # of connection points: 2
#     Edge 45, Type (0, 0), BuildingBlock: KIFKEQ_clean_linker_1, # of connection points: 2
#     Edge 46, Type (0, 0), BuildingBlock: KIFKEQ_clean_linker_1, # of connection points: 2
#     Edge 47, Type (0, 0), BuildingBlock: KIFKEQ_clean_linker_1, # of connection points: 2
#     Edge 48, Type (0, 0), BuildingBlock: KIFKEQ_clean_linker_1, # of connection points: 2
#     Edge 49, Type (0, 0), BuildingBlock: KIFKEQ_clean_linker_1, # of connection points: 2
#     Edge 50, Type (0, 0), BuildingBlock: KIFKEQ_clean_linker_1, # of connection points: 2
#     Edge 51, Type (0, 0), BuildingBlock: KIFKEQ_clean_linker_1, # of connection points: 2
#     Edge 52, Type (0, 0), BuildingBlock: KIFKEQ_clean_linker_1, # of connection points: 2
#     Edge 53, Type (0, 0), BuildingBlock: KIFKEQ_clean_linker_1, # of connection points: 2
#     Edge 54, Type (0, 0), BuildingBlock: KIFKEQ_clean_linker_1, # of connection points: 2
#     Edge 55, Type (0, 0), BuildingBlock: KIFKEQ_clean_linker_1, # of connection points: 2
#     Edge 56, Type (0, 0), BuildingBlock: KIFKEQ_clean_linker_1, # of connection points: 2
#     Edge 57, Type (0, 0), BuildingBlock: KIFKEQ_clean_linker_1, # of connection points: 2
#     Edge 58, Type (0, 0), BuildingBlock: KIFKEQ_clean_linker_1, # of connection points: 2
#     Edge 59, Type (0, 0), BuildingBlock: KIFKEQ_clean_linker_1, # of connection points: 2
#     Edge 60, Type (0, 0), BuildingBlock: KIFKEQ_clean_linker_1, # of connection points: 2
#     Edge 61, Type (0, 0), BuildingBlock: KIFKEQ_clean_linker_1, # of connection points: 2
#     Edge 62, Type (0, 0), BuildingBlock: KIFKEQ_clean_linker_1, # of connection points: 2
#     Edge 63, Type (0, 0), BuildingBlock: KIFKEQ_clean_linker_1, # of connection points: 2
#     Edge 64, Type (0, 0), BuildingBlock: KIFKEQ_clean_linker_1, # of connection points: 2
#     Edge 65, Type (0, 0), BuildingBlock: KIFKEQ_clean_linker_1, # of connection points: 2
#     Edge 66, Type (0, 0), BuildingBlock: KIFKEQ_clean_linker_1, # of connection points: 2
#     Edge 67, Type (0, 0), BuildingBlock: KIFKEQ_clean_linker_1, # of connection points: 2
#     Edge 68, Type (0, 0), BuildingBlock: KIFKEQ_clean_linker_1, # of connection points: 2
#     Edge 69, Type (0, 0), BuildingBlock: KIFKEQ_clean_linker_1, # of connection points: 2
#     Edge 70, Type (0, 0), BuildingBlock: KIFKEQ_clean_linker_1, # of connection points: 2
#     Edge 71, Type (0, 0), BuildingBlock: KIFKEQ_clean_linker_1, # of connection points: 2
# Relax obj value: 0.171
# Max RMSD: 0.067
# Mean RMSD: 0.067
data_MOF--net-lta--node1-AZAVOO_clean_sbu_0--edge1-KIFKEQ_clean_linker_1
_symmetry_space_group_name_H-M    P1
_symmetry_Int_Tables_number       1
_symmetry_cell_setting            triclinic
loop_
_symmetry_equiv_pos_as_xyz
'x, y, z'
_cell_length_a     59.086986
_cell_length_b     59.249982
_cell_length_c     59.007368
_cell_angle_alpha  90.115921
_cell_angle_beta   90.287377
_cell_angle_gamma 89.788707
loop_
_atom_site_label
_atom_site_type_symbol
_atom_site_fract_x
_atom_site_fract_y
_atom_site_fract_z
_atom_type_partial_charge
Mg0 Mg 0.11004 0.29002 0.51576 0.0
O1 O 0.11131 0.31082 0.48264 0.0
O2 O 0.08117 0.3338 0.48276 0.0
Mg3 Mg 0.06234 0.33009 0.51629 0.0
C4 C 0.09892 0.32593 0.4733 0.0
C5 C 0.14784 0.25515 0.51749 0.0
O6 O 0.13169 0.24723 0.53044 0.0
O7 O 0.1245 0.32042 0.53564 0.0
O8 O 0.09377 0.34281 0.53508 0.0
O9 O 0.08512 0.26563 0.49981 0.0
O10 O 0.07528 0.29578 0.51931 0.0
C11 C 0.11422 0.33875 0.54089 0.0
C12 C 0.06926 0.27857 0.50758 0.0
O13 O 0.14493 0.27438 0.50831 0.0
Mg14 Mg 0.67404 0.11143 0.51559 0.0
O15 O 0.6514 0.11785 0.48409 0.0
O16 O 0.62222 0.09396 0.48614 0.0
Mg17 Mg 0.62674 0.07102 0.51678 0.0
C18 C 0.63277 0.10997 0.47647 0.0
C19 C 0.70149 0.14717 0.48878 0.0
O20 O 0.69715 0.13192 0.47318 0.0
O21 O 0.64756 0.1288 0.53878 0.0
O22 O 0.62105 0.10177 0.53921 0.0
O23 O 0.69397 0.0839 0.49767 0.0
O24 O 0.66317 0.07786 0.51743 0.0
C25 C 0.6286 0.12091 0.54556 0.0
C26 C 0.67915 0.06976 0.50517 0.0
O27 O 0.69366 0.14427 0.50863 0.0
Mg28 Mg 0.86315 0.67863 0.51461 0.0
O29 O 0.86055 0.65229 0.48577 0.0
O30 O 0.88873 0.62767 0.49158 0.0
Mg31 Mg 0.90984 0.63815 0.52242 0.0
C32 C 0.87147 0.63443 0.48033 0.0
C33 C 0.82531 0.70146 0.48557 0.0
O34 O 0.84128 0.69841 0.47043 0.0
O35 O 0.84852 0.65263 0.53986 0.0
O36 O 0.87925 0.63073 0.54464 0.0
O37 O 0.88794 0.69925 0.4942 0.0
O38 O 0.89786 0.67269 0.51832 0.0
C39 C 0.85887 0.6361 0.54933 0.0
C40 C 0.90382 0.68741 0.50363 0.0
O41 O 0.82838 0.69373 0.50547 0.0
Mg42 Mg 0.2949 0.85805 0.51315 0.0
O43 O 0.31869 0.85057 0.48301 0.0
O44 O 0.34689 0.8757 0.48556 0.0
Mg45 Mg 0.33999 0.90086 0.51408 0.0
C46 C 0.33745 0.85872 0.47617 0.0
C47 C 0.25638 0.82332 0.51375 0.0
O48 O 0.24725 0.8416 0.52252 0.0
O49 O 0.32144 0.84369 0.53847 0.0
O50 O 0.34601 0.87246 0.53925 0.0
O51 O 0.27394 0.88278 0.49252 0.0
O52 O 0.30414 0.89207 0.51236 0.0
C53 C 0.33927 0.85329 0.54621 0.0
C54 C 0.28819 0.89812 0.49879 0.0
O55 O 0.27715 0.82387 0.50817 0.0
Mg56 Mg 0.10937 0.67242 0.45387 0.0
O57 O 0.11114 0.65204 0.48712 0.0
O58 O 0.08084 0.6296 0.48862 0.0
Mg59 Mg 0.06174 0.63249 0.45497 0.0
C60 C 0.099 0.6375 0.4973 0.0
C61 C 0.14611 0.69774 0.48111 0.0
O62 O 0.12922 0.69623 0.49542 0.0
O63 O 0.12368 0.64145 0.4346 0.0
O64 O 0.09316 0.61911 0.43684 0.0
O65 O 0.08457 0.6971 0.46951 0.0
O66 O 0.0745 0.66664 0.45064 0.0
C67 C 0.11345 0.62283 0.43053 0.0
C68 C 0.06863 0.68405 0.46217 0.0
O69 O 0.14416 0.68825 0.46181 0.0
Mg70 Mg 0.29441 0.1055 0.45189 0.0
O71 O 0.3201 0.10845 0.48156 0.0
O72 O 0.34608 0.08156 0.4758 0.0
Mg73 Mg 0.33717 0.0607 0.4445 0.0
C74 C 0.33837 0.09821 0.48721 0.0
C75 C 0.27158 0.1432 0.48148 0.0
O76 O 0.2761 0.12796 0.49701 0.0
O77 O 0.32043 0.12147 0.42739 0.0
O78 O 0.34369 0.09176 0.42294 0.0
O79 O 0.27394 0.07903 0.4707 0.0
O80 O 0.30199 0.07134 0.44763 0.0
C81 C 0.33762 0.1119 0.41828 0.0
C82 C 0.28682 0.06407 0.4612 0.0
O83 O 0.27797 0.13957 0.46122 0.0
Mg84 Mg 0.86377 0.29258 0.45634 0.0
O85 O 0.85976 0.31573 0.48761 0.0
O86 O 0.88945 0.33904 0.4881 0.0
Mg87 Mg 0.9111 0.33276 0.45668 0.0
C88 C 0.87112 0.3317 0.4967 0.0
C89 C 0.82672 0.25728 0.45476 0.0
O90 O 0.84395 0.2485 0.44379 0.0
O91 O 0.8508 0.32135 0.43318 0.0
O92 O 0.88142 0.34369 0.43411 0.0
O93 O 0.88772 0.26938 0.47552 0.0
O94 O 0.89864 0.29824 0.45493 0.0
C95 C 0.86145 0.33913 0.42715 0.0
C96 C 0.90401 0.28172 0.4679 0.0
O97 O 0.82858 0.2773 0.46238 0.0
Mg98 Mg 0.67367 0.86128 0.45932 0.0
O99 O 0.65229 0.85303 0.49102 0.0
O100 O 0.62278 0.87686 0.49094 0.0
Mg101 Mg 0.62563 0.90099 0.46111 0.0
C102 C 0.6339 0.8605 0.49956 0.0
C103 C 0.71327 0.82694 0.45573 0.0
O104 O 0.72107 0.84441 0.44456 0.0
O105 O 0.64694 0.8449 0.43582 0.0
O106 O 0.61963 0.87125 0.43729 0.0
O107 O 0.6938 0.88806 0.47807 0.0
O108 O 0.66224 0.89478 0.45936 0.0
C109 C 0.62756 0.85262 0.42984 0.0
C110 C 0.67854 0.90243 0.47159 0.0
O111 O 0.69345 0.8281 0.46399 0.0
Mg112 Mg 0.51479 0.10712 0.29364 0.0
O113 O 0.48083 0.10969 0.31289 0.0
O114 O 0.47852 0.08042 0.33661 0.0
Mg115 Mg 0.51206 0.06133 0.33567 0.0
C116 C 0.47016 0.09817 0.32763 0.0
C117 C 0.48839 0.14354 0.2669 0.0
O118 O 0.47382 0.12692 0.2684 0.0
O119 O 0.53321 0.12245 0.32471 0.0
O120 O 0.52987 0.0931 0.34839 0.0
O121 O 0.50031 0.08141 0.26901 0.0
O122 O 0.51751 0.07263 0.30093 0.0
C123 C 0.53653 0.1131 0.34401 0.0
C124 C 0.50695 0.066 0.28308 0.0
O125 O 0.50759 0.14138 0.27658 0.0
Mg126 Mg 0.86356 0.51456 0.29606 0.0
O127 O 0.86202 0.48181 0.31728 0.0
O128 O 0.89261 0.48132 0.3398 0.0
Mg129 Mg 0.91178 0.51447 0.33574 0.0
C130 C 0.8745 0.47228 0.33224 0.0
C131 C 0.82523 0.51667 0.26157 0.0
O132 O 0.8413 0.52959 0.25348 0.0
O133 O 0.84982 0.53475 0.32661 0.0
O134 O 0.8807 0.53344 0.3489 0.0
O135 O 0.88786 0.49813 0.27139 0.0
O136 O 0.89843 0.51757 0.30143 0.0
C137 C 0.86033 0.53962 0.34501 0.0
C138 C 0.90402 0.50568 0.28415 0.0
O139 O 0.82837 0.50744 0.2808 0.0
Mg140 Mg 0.457 0.86105 0.29574 0.0
O141 O 0.49147 0.85747 0.31411 0.0
O142 O 0.49525 0.88676 0.3378 0.0
Mg143 Mg 0.4624 0.90702 0.33742 0.0
C144 C 0.50284 0.86874 0.32868 0.0
C145 C 0.45526 0.82529 0.25856 0.0
O146 O 0.4439 0.84256 0.25033 0.0
O147 O 0.43917 0.84646 0.32724 0.0
O148 O 0.44396 0.87592 0.35065 0.0
O149 O 0.47142 0.88612 0.27065 0.0
O150 O 0.45549 0.89563 0.30289 0.0
C151 C 0.43664 0.85607 0.34654 0.0
C152 C 0.4656 0.90182 0.28477 0.0
O153 O 0.46273 0.8266 0.27878 0.0
Mg154 Mg 0.10888 0.45136 0.29432 0.0
O155 O 0.11154 0.48047 0.32034 0.0
O156 O 0.08254 0.47635 0.34413 0.0
Mg157 Mg 0.06073 0.44631 0.33333 0.0
C158 C 0.10032 0.48671 0.33775 0.0
C159 C 0.1485 0.4792 0.27372 0.0
O160 O 0.13337 0.49504 0.27757 0.0
O161 O 0.12187 0.42599 0.32146 0.0
O162 O 0.09018 0.42292 0.34206 0.0
O163 O 0.08501 0.47205 0.2723 0.0
O164 O 0.07397 0.44891 0.2991 0.0
C165 C 0.11053 0.4172 0.33765 0.0
C166 C 0.06865 0.46326 0.28375 0.0
O167 O 0.14428 0.45914 0.28012 0.0
Mg168 Mg 0.51309 0.85854 0.67837 0.0
O169 O 0.47975 0.85703 0.65781 0.0
O170 O 0.47893 0.88639 0.63408 0.0
Mg171 Mg 0.51275 0.90477 0.63674 0.0
C172 C 0.46987 0.86886 0.64261 0.0
C173 C 0.48644 0.82266 0.70538 0.0
O174 O 0.47303 0.84038 0.70621 0.0
O175 O 0.53237 0.84317 0.64795 0.0
O176 O 0.53058 0.8728 0.62436 0.0
O177 O 0.49824 0.88481 0.70244 0.0
O178 O 0.51701 0.89282 0.67144 0.0
C179 C 0.53666 0.8526 0.62893 0.0
C180 C 0.50607 0.89989 0.68876 0.0
O181 O 0.50481 0.8241 0.69428 0.0
Mg182 Mg 0.10805 0.51238 0.67379 0.0
O183 O 0.11191 0.48224 0.64902 0.0
O184 O 0.08497 0.48677 0.62267 0.0
Mg185 Mg 0.06294 0.51736 0.63088 0.0
C186 C 0.10194 0.47603 0.63076 0.0
C187 C 0.14707 0.5163 0.70774 0.0
O188 O 0.13318 0.53279 0.71319 0.0
O189 O 0.12327 0.53657 0.64714 0.0
O190 O 0.0933 0.53976 0.62383 0.0
O191 O 0.08251 0.49347 0.69504 0.0
O192 O 0.07359 0.51531 0.66627 0.0
C193 C 0.11337 0.54508 0.62978 0.0
C194 C 0.06701 0.50198 0.68201 0.0
O195 O 0.14233 0.50429 0.69046 0.0
Mg196 Mg 0.45535 0.10567 0.67313 0.0
O197 O 0.48924 0.11178 0.65453 0.0
O198 O 0.49373 0.08377 0.62937 0.0
Mg199 Mg 0.46225 0.06161 0.62952 0.0
C200 C 0.5007 0.10166 0.63923 0.0
C201 C 0.47654 0.14421 0.70187 0.0
O202 O 0.49285 0.12909 0.70148 0.0
O203 O 0.43576 0.12012 0.64232 0.0
O204 O 0.44114 0.09173 0.61775 0.0
O205 O 0.47165 0.08111 0.69778 0.0
O206 O 0.45695 0.07118 0.66493 0.0
C207 C 0.43287 0.11098 0.62285 0.0
C208 C 0.46769 0.06544 0.68303 0.0
O209 O 0.45836 0.14018 0.69092 0.0
Mg210 Mg 0.85964 0.45667 0.67261 0.0
O211 O 0.85581 0.49063 0.65338 0.0
O212 O 0.88417 0.49206 0.62842 0.0
Mg213 Mg 0.90402 0.4591 0.62908 0.0
C214 C 0.86689 0.50081 0.63793 0.0
C215 C 0.82535 0.45578 0.71107 0.0
O216 O 0.84347 0.44561 0.71914 0.0
O217 O 0.84383 0.43719 0.6425 0.0
O218 O 0.87249 0.43978 0.61788 0.0
O219 O 0.88602 0.47161 0.69631 0.0
O220 O 0.89397 0.45435 0.6643 0.0
C221 C 0.85272 0.43305 0.62317 0.0
C222 C 0.90108 0.465 0.68188 0.0
O223 O 0.82568 0.46269 0.69066 0.0
Mg224 Mg 0.29408 0.51169 0.11105 0.0
O225 O 0.3206 0.483 0.11475 0.0
O226 O 0.34635 0.4896 0.08785 0.0
Mg227 Mg 0.3362 0.51987 0.06601 0.0
C228 C 0.33913 0.47812 0.10465 0.0
C229 C 0.2591 0.51332 0.14899 0.0
O230 O 0.25134 0.52717 0.13339 0.0
O231 O 0.31985 0.53671 0.12679 0.0
O232 O 0.34221 0.54226 0.09672 0.0
O233 O 0.27359 0.49141 0.08549 0.0
O234 O 0.30156 0.51406 0.07659 0.0
C235 C 0.33627 0.54673 0.11698 0.0
C236 C 0.2868 0.49954 0.07015 0.0
O237 O 0.27801 0.50355 0.14556 0.0
Mg238 Mg 0.29585 0.45427 0.86103 0.0
O239 O 0.31936 0.48506 0.85666 0.0
O240 O 0.34745 0.48111 0.88187 0.0
Mg241 Mg 0.34143 0.44986 0.90356 0.0
C242 C 0.3379 0.49175 0.86563 0.0
C243 C 0.25628 0.46603 0.8296 0.0
O244 O 0.24713 0.46327 0.84964 0.0
O245 O 0.32227 0.43092 0.84384 0.0
O246 O 0.34771 0.42839 0.87212 0.0
O247 O 0.27575 0.47234 0.8883 0.0
O248 O 0.30537 0.45082 0.89508 0.0
C249 C 0.34069 0.42311 0.85233 0.0
C250 C 0.28972 0.46371 0.90286 0.0
O251 O 0.27752 0.46302 0.82762 0.0
Mg252 Mg 0.51426 0.29282 0.86023 0.0
O253 O 0.48089 0.31283 0.8548 0.0
O254 O 0.47844 0.3382 0.88283 0.0
Mg255 Mg 0.51062 0.33688 0.90417 0.0
C256 C 0.47041 0.32863 0.86518 0.0
C257 C 0.49102 0.2643 0.82219 0.0
O258 O 0.47519 0.26472 0.83775 0.0
O259 O 0.53496 0.32214 0.84523 0.0
O260 O 0.53166 0.34729 0.87349 0.0
O261 O 0.49785 0.26979 0.88609 0.0
O262 O 0.51522 0.30145 0.89463 0.0
C263 C 0.53912 0.34144 0.85407 0.0
C264 C 0.50408 0.2842 0.90139 0.0
O265 O 0.5093 0.27507 0.82584 0.0
Mg266 Mg 0.6752 0.51143 0.86239 0.0
O267 O 0.65442 0.47854 0.85867 0.0
O268 O 0.62967 0.47725 0.88723 0.0
Mg269 Mg 0.63187 0.51019 0.90713 0.0
C270 C 0.63874 0.46864 0.86963 0.0
C271 C 0.70231 0.48524 0.82574 0.0
O272 O 0.70031 0.4702 0.84193 0.0
O273 O 0.64547 0.53137 0.84637 0.0
O274 O 0.62104 0.52934 0.8753 0.0
O275 O 0.69844 0.49572 0.88888 0.0
O276 O 0.66705 0.514 0.89683 0.0
C277 C 0.62631 0.53583 0.8554 0.0
C278 C 0.68426 0.50281 0.90397 0.0
O279 O 0.69285 0.50442 0.82829 0.0
Mg280 Mg 0.45665 0.67342 0.86147 0.0
O281 O 0.48679 0.64854 0.85854 0.0
O282 O 0.4819 0.62302 0.88598 0.0
Mg283 Mg 0.45129 0.63211 0.90774 0.0
C284 C 0.49279 0.63054 0.86894 0.0
C285 C 0.44949 0.69779 0.81465 0.0
O286 O 0.42833 0.69592 0.82111 0.0
O287 O 0.43304 0.64596 0.84646 0.0
O288 O 0.42903 0.62403 0.87716 0.0
O289 O 0.47562 0.69551 0.88656 0.0
O290 O 0.45432 0.66662 0.89598 0.0
C291 C 0.4241 0.62921 0.85675 0.0
C292 C 0.46792 0.68231 0.90212 0.0
O293 O 0.46497 0.68905 0.8269 0.0
Mg294 Mg 0.67674 0.45405 0.11145 0.0
O295 O 0.65197 0.48412 0.11612 0.0
O296 O 0.62492 0.48011 0.08982 0.0
Mg297 Mg 0.63273 0.44983 0.06722 0.0
C298 C 0.6335 0.49054 0.10673 0.0
C299 C 0.70045 0.48178 0.14982 0.0
O300 O 0.6957 0.49764 0.13499 0.0
O301 O 0.65044 0.42956 0.12686 0.0
O302 O 0.62629 0.42701 0.09749 0.0
O303 O 0.6974 0.47327 0.08563 0.0
O304 O 0.66843 0.45171 0.07699 0.0
C305 C 0.63277 0.42134 0.11734 0.0
C306 C 0.68406 0.46507 0.07025 0.0
O307 O 0.69396 0.4617 0.14574 0.0
Mg308 Mg 0.51256 0.67161 0.11064 0.0
O309 O 0.48058 0.64982 0.11562 0.0
O310 O 0.48268 0.62192 0.09006 0.0
Mg311 Mg 0.51322 0.62702 0.06703 0.0
C312 C 0.47293 0.63167 0.10671 0.0
C313 C 0.5082 0.71121 0.14305 0.0
O314 O 0.51499 0.71982 0.12374 0.0
O315 O 0.53466 0.64337 0.12666 0.0
O316 O 0.53566 0.619 0.0975 0.0
O317 O 0.49494 0.69385 0.0848 0.0
O318 O 0.51338 0.6626 0.07642 0.0
C319 C 0.54174 0.62514 0.11734 0.0
C320 C 0.50118 0.67928 0.06972 0.0
O321 O 0.50609 0.68989 0.14441 0.0
Mg322 Mg 0.45716 0.2948 0.10866 0.0
O323 O 0.49159 0.31298 0.11256 0.0
O324 O 0.49428 0.33774 0.08412 0.0
Mg325 Mg 0.46127 0.33782 0.064 0.0
C326 C 0.50244 0.32804 0.10164 0.0
C327 C 0.45591 0.25675 0.14348 0.0
O328 O 0.44561 0.2485 0.12551 0.0
O329 O 0.43896 0.32558 0.12443 0.0
O330 O 0.44255 0.34991 0.0956 0.0
O331 O 0.47141 0.27054 0.08245 0.0
O332 O 0.45519 0.30297 0.07423 0.0
C333 C 0.43565 0.34497 0.11544 0.0
C334 C 0.46526 0.28507 0.06725 0.0
O335 O 0.46289 0.27703 0.1428 0.0
H336 H 0.10017 0.37323 0.33499 0.0
H337 H 0.13947 0.42108 0.37353 0.0
H338 H 0.10187 0.34667 0.36656 0.0
H339 H 0.14136 0.39435 0.40525 0.0
H340 H 0.1415 0.3328 0.45616 0.0
H341 H 0.15121 0.35135 0.42018 0.0
H342 H 0.08015 0.35779 0.40416 0.0
H343 H 0.07049 0.34001 0.44001 0.0
C344 C 0.11025 0.37752 0.34977 0.0
C345 C 0.11996 0.39901 0.35177 0.0
C346 C 0.11102 0.36243 0.36791 0.0
C347 C 0.12152 0.36858 0.38839 0.0
C348 C 0.13331 0.38914 0.38957 0.0
C349 C 0.13239 0.40436 0.37138 0.0
C350 C 0.12803 0.33796 0.44475 0.0
C351 C 0.10523 0.33503 0.45086 0.0
C352 C 0.13359 0.3486 0.42428 0.0
C353 C 0.11643 0.3558 0.40935 0.0
C354 C 0.09372 0.35214 0.4152 0.0
C355 C 0.08819 0.34209 0.43579 0.0
H356 H 0.5957 0.13659 0.47562 0.0
H357 H 0.64538 0.10539 0.43238 0.0
H358 H 0.5732 0.14721 0.44246 0.0
H359 H 0.62247 0.11498 0.39905 0.0
H360 H 0.57801 0.13336 0.34088 0.0
H361 H 0.60382 0.14078 0.37279 0.0
H362 H 0.55047 0.12352 0.41949 0.0
H363 H 0.52511 0.11652 0.3879 0.0
C364 C 0.60198 0.13247 0.45888 0.0
C365 C 0.62212 0.12019 0.45639 0.0
C366 C 0.58907 0.1384 0.4399 0.0
C367 C 0.59577 0.13163 0.41804 0.0
C368 C 0.61685 0.12069 0.41554 0.0
C369 C 0.62995 0.11506 0.43459 0.0
C370 C 0.57167 0.13216 0.35803 0.0
C371 C 0.54962 0.12442 0.36202 0.0
C372 C 0.5865 0.13609 0.37629 0.0
C373 C 0.57936 0.13252 0.39876 0.0
C374 C 0.55662 0.12673 0.40255 0.0
C375 C 0.542 0.12265 0.38441 0.0
H376 H 0.88406 0.59145 0.46991 0.0
H377 H 0.84186 0.64628 0.44602 0.0
H378 H 0.87352 0.56914 0.43714 0.0
H379 H 0.8311 0.62356 0.41286 0.0
H380 H 0.85384 0.58496 0.3445 0.0
H381 H 0.8509 0.60883 0.37829 0.0
H382 H 0.84188 0.54937 0.41945 0.0
H383 H 0.84551 0.52568 0.38574 0.0
C384 C 0.87237 0.59873 0.45773 0.0
C385 C 0.86394 0.62075 0.46058 0.0
C386 C 0.86609 0.58577 0.439 0.0
C387 C 0.85125 0.59444 0.42246 0.0
C388 C 0.84254 0.6164 0.42533 0.0
C389 C 0.84869 0.62937 0.44432 0.0
C390 C 0.85012 0.57717 0.36065 0.0
C391 C 0.84969 0.55357 0.36261 0.0
C392 C 0.84855 0.5908 0.38003 0.0
C393 C 0.84664 0.58096 0.40162 0.0
C394 C 0.8438 0.55744 0.40312 0.0
C395 C 0.84554 0.54387 0.38382 0.0
H396 H 0.37684 0.83565 0.47772 0.0
H397 H 0.32505 0.85902 0.43169 0.0
H398 H 0.4007 0.82506 0.44573 0.0
H399 H 0.34929 0.84966 0.39947 0.0
H400 H 0.39662 0.83275 0.34341 0.0
H401 H 0.37085 0.82488 0.37495 0.0
H402 H 0.42154 0.84908 0.42212 0.0
H403 H 0.44692 0.85635 0.39098 0.0
C404 C 0.37044 0.83805 0.46065 0.0
C405 C 0.34927 0.84816 0.45701 0.0
C406 C 0.38412 0.83216 0.44231 0.0
C407 C 0.37718 0.83693 0.41996 0.0
C408 C 0.35518 0.84555 0.41637 0.0
C409 C 0.3413 0.85104 0.43479 0.0
C410 C 0.40244 0.83547 0.36064 0.0
C411 C 0.42367 0.84524 0.36483 0.0
C412 C 0.38762 0.83126 0.37868 0.0
C413 C 0.39395 0.83656 0.40114 0.0
C414 C 0.41602 0.84449 0.40521 0.0
C415 C 0.43062 0.8488 0.38731 0.0
H416 H 0.13951 0.53989 0.59245 0.0
H417 H 0.10816 0.58978 0.63539 0.0
H418 H 0.14157 0.56756 0.56171 0.0
H419 H 0.10982 0.61731 0.60464 0.0
H420 H 0.07233 0.62572 0.53257 0.0
H421 H 0.08381 0.6079 0.56808 0.0
H422 H 0.15374 0.61059 0.54758 0.0
H423 H 0.14226 0.62928 0.51208 0.0
C424 C 0.13435 0.55715 0.59572 0.0
C425 C 0.124 0.56288 0.61631 0.0
C426 C 0.13537 0.57294 0.57811 0.0
C427 C 0.12563 0.59445 0.5808 0.0
C428 C 0.11743 0.60083 0.60218 0.0
C429 C 0.1167 0.58517 0.61983 0.0
C430 C 0.09018 0.62289 0.53581 0.0
C431 C 0.10639 0.62883 0.51961 0.0
C432 C 0.09677 0.61285 0.55617 0.0
C433 C 0.11967 0.60804 0.56058 0.0
C434 C 0.13601 0.6143 0.5446 0.0
C435 C 0.12944 0.62497 0.52439 0.0
H436 H 0.38161 0.08677 0.49828 0.0
H437 H 0.32519 0.12708 0.5216 0.0
H438 H 0.40337 0.09775 0.53128 0.0
H439 H 0.3474 0.1383 0.55506 0.0
H440 H 0.3872 0.11647 0.62367 0.0
H441 H 0.36297 0.119 0.58994 0.0
H442 H 0.42206 0.1301 0.54869 0.0
H443 H 0.44611 0.1268 0.58226 0.0
C444 C 0.37384 0.09812 0.51039 0.0
C445 C 0.35155 0.10592 0.50727 0.0
C446 C 0.38649 0.10466 0.52927 0.0
C447 C 0.37726 0.11916 0.54572 0.0
C448 C 0.355 0.12716 0.54265 0.0
C449 C 0.34231 0.12075 0.52349 0.0
C450 C 0.3948 0.12056 0.60752 0.0
C451 C 0.41844 0.12157 0.60547 0.0
C452 C 0.38097 0.12188 0.58817 0.0
C453 C 0.39066 0.12422 0.56656 0.0
C454 C 0.41412 0.12781 0.56503 0.0
C455 C 0.42789 0.12624 0.58426 0.0
H456 H 0.84047 0.44124 0.57972 0.0
H457 H 0.84411 0.38879 0.63015 0.0
H458 H 0.83853 0.41263 0.54979 0.0
H459 H 0.84296 0.36014 0.60008 0.0
H460 H 0.89612 0.34843 0.5315 0.0
H461 H 0.88285 0.37038 0.56398 0.0
H462 H 0.81391 0.36316 0.54092 0.0
H463 H 0.8271 0.34037 0.50854 0.0
C464 C 0.83958 0.42359 0.58443 0.0
C465 C 0.84211 0.41716 0.6072 0.0
C466 C 0.83858 0.40726 0.56733 0.0
C467 C 0.84055 0.38429 0.57275 0.0
C468 C 0.84107 0.37777 0.5956 0.0
C469 C 0.84157 0.39414 0.61277 0.0
C470 C 0.8781 0.35114 0.53355 0.0
C471 C 0.86264 0.34274 0.51751 0.0
C472 C 0.87053 0.36358 0.55216 0.0
C473 C 0.84742 0.36824 0.55488 0.0
C474 C 0.8318 0.3595 0.5392 0.0
C475 C 0.83935 0.34652 0.52078 0.0
H476 H 0.57915 0.83492 0.63378 0.0
H477 H 0.52595 0.84678 0.58496 0.0
H478 H 0.60605 0.82864 0.60279 0.0
H479 H 0.5524 0.84063 0.55419 0.0
H480 H 0.60059 0.82948 0.49994 0.0
H481 H 0.57832 0.81765 0.53266 0.0
H482 H 0.62199 0.85669 0.5766 0.0
H483 H 0.64449 0.86788 0.5438 0.0
C484 C 0.57303 0.83513 0.61644 0.0
C485 C 0.55052 0.8412 0.61166 0.0
C486 C 0.58845 0.83185 0.59871 0.0
C487 C 0.58147 0.83437 0.57598 0.0
C488 C 0.55841 0.83831 0.5714 0.0
C489 C 0.54317 0.84184 0.58904 0.0
C490 C 0.6058 0.83481 0.51674 0.0
C491 C 0.62419 0.84945 0.51953 0.0
C492 C 0.59302 0.82819 0.53545 0.0
C493 C 0.59819 0.83641 0.55726 0.0
C494 C 0.61766 0.8498 0.56014 0.0
C495 C 0.63052 0.85631 0.54139 0.0
H496 H 0.37472 0.13816 0.42401 0.0
H497 H 0.33178 0.10783 0.37329 0.0
H498 H 0.40541 0.14071 0.39637 0.0
H499 H 0.36246 0.11001 0.34575 0.0
H500 H 0.43409 0.07204 0.33763 0.0
H501 H 0.39846 0.08373 0.35481 0.0
H502 H 0.42019 0.15317 0.3538 0.0
H503 H 0.45585 0.14147 0.33571 0.0
C504 C 0.37142 0.13337 0.40657 0.0
C505 C 0.35085 0.12312 0.40062 0.0
C506 C 0.38902 0.13466 0.3908 0.0
C507 C 0.38632 0.12532 0.36904 0.0
C508 C 0.36494 0.11732 0.36243 0.0
C509 C 0.34732 0.1163 0.3781 0.0
C510 C 0.43107 0.08985 0.34061 0.0
C511 C 0.44768 0.10585 0.33538 0.0
C512 C 0.41064 0.09657 0.3503 0.0
C513 C 0.40655 0.11937 0.35548 0.0
C514 C 0.42291 0.13552 0.3498 0.0
C515 C 0.44321 0.12884 0.33946 0.0
H516 H 0.86614 0.33489 0.38205 0.0
H517 H 0.83871 0.37853 0.43365 0.0
H518 H 0.86471 0.366 0.35482 0.0
H519 H 0.83674 0.40961 0.40626 0.0
H520 H 0.83181 0.45791 0.3428 0.0
H521 H 0.8216 0.42308 0.36298 0.0
H522 H 0.89172 0.40251 0.36308 0.0
H523 H 0.90198 0.4374 0.34378 0.0
C524 C 0.85861 0.3508 0.38717 0.0
C525 C 0.85215 0.35429 0.40975 0.0
C526 C 0.85799 0.36862 0.37168 0.0
C527 C 0.85068 0.39016 0.37851 0.0
C528 C 0.84219 0.39308 0.40053 0.0
C529 C 0.84317 0.37531 0.41615 0.0
C530 C 0.84492 0.44573 0.34686 0.0
C531 C 0.86769 0.4503 0.34179 0.0
C532 C 0.83909 0.42592 0.35842 0.0
C533 C 0.85586 0.41011 0.36438 0.0
C534 C 0.87844 0.41431 0.35842 0.0
C535 C 0.88432 0.4343 0.3475 0.0
H536 H 0.54108 0.89264 0.33664 0.0
H537 H 0.5136 0.82538 0.34008 0.0
H538 H 0.57508 0.87988 0.35662 0.0
H539 H 0.54745 0.81272 0.36097 0.0
H540 H 0.58693 0.83209 0.43347 0.0
H541 H 0.55899 0.82926 0.40289 0.0
H542 H 0.60958 0.84971 0.35471 0.0
H543 H 0.63771 0.85181 0.3853 0.0
C544 C 0.5426 0.875 0.34123 0.0
C545 C 0.52481 0.85998 0.33684 0.0
C546 C 0.56208 0.86765 0.35253 0.0
C547 C 0.56389 0.84529 0.36022 0.0
C548 C 0.5465 0.82998 0.35502 0.0
C549 C 0.52723 0.83721 0.34308 0.0
C550 C 0.59237 0.83458 0.41615 0.0
C551 C 0.61446 0.84185 0.41161 0.0
C552 C 0.57638 0.83308 0.39866 0.0
C553 C 0.58214 0.83944 0.37651 0.0
C554 C 0.60478 0.84465 0.37165 0.0
C555 C 0.6209 0.84565 0.38909 0.0
H556 H 0.12172 0.62232 0.38528 0.0
H557 H 0.12659 0.58203 0.44581 0.0
H558 H 0.12408 0.58809 0.36205 0.0
H559 H 0.12959 0.54788 0.42281 0.0
H560 H 0.13166 0.51915 0.32634 0.0
H561 H 0.14294 0.55222 0.34878 0.0
H562 H 0.09765 0.5316 0.40204 0.0
H563 H 0.08657 0.49892 0.38 0.0
C564 C 0.1246 0.60624 0.39354 0.0
C565 C 0.12417 0.60473 0.41727 0.0
C566 C 0.1258 0.5866 0.38027 0.0
C567 C 0.12651 0.56522 0.39061 0.0
C568 C 0.12859 0.56406 0.41434 0.0
C569 C 0.12722 0.58361 0.42753 0.0
C570 C 0.12429 0.52163 0.34294 0.0
C571 C 0.1081 0.50641 0.3513 0.0
C572 C 0.13074 0.54057 0.35575 0.0
C573 C 0.1214 0.54444 0.37731 0.0
C574 C 0.10557 0.52894 0.38573 0.0
C575 C 0.09899 0.51027 0.37292 0.0
H576 H 0.37654 0.82659 0.54356 0.0
H577 H 0.33279 0.86104 0.5906 0.0
H578 H 0.40651 0.8253 0.5724 0.0
H579 H 0.36281 0.86018 0.61929 0.0
H580 H 0.43517 0.89585 0.62919 0.0
H581 H 0.39994 0.88467 0.61066 0.0
H582 H 0.41935 0.81461 0.61614 0.0
H583 H 0.45455 0.82582 0.63553 0.0
C584 C 0.37291 0.83265 0.5605 0.0
C585 C 0.3523 0.84355 0.56506 0.0
C586 C 0.39009 0.83208 0.57694 0.0
C587 C 0.38698 0.84284 0.59796 0.0
C588 C 0.36559 0.85177 0.60322 0.0
C589 C 0.34835 0.85204 0.58691 0.0
C590 C 0.43173 0.87805 0.62685 0.0
C591 C 0.44757 0.86171 0.63376 0.0
C592 C 0.41152 0.87163 0.61639 0.0
C593 C 0.4069 0.84877 0.61211 0.0
C594 C 0.42249 0.83232 0.6194 0.0
C595 C 0.44253 0.83874 0.63049 0.0
H596 H 0.13002 0.44173 0.64568 0.0
H597 H 0.09272 0.46498 0.58698 0.0
H598 H 0.1416 0.40787 0.62458 0.0
H599 H 0.10406 0.43156 0.56625 0.0
H600 H 0.13238 0.37782 0.52642 0.0
H601 H 0.13627 0.41204 0.54927 0.0
H602 H 0.12136 0.37377 0.60957 0.0
H603 H 0.11809 0.3395 0.58661 0.0
C604 C 0.12448 0.43976 0.62827 0.0
C605 C 0.11027 0.45599 0.6181 0.0
C606 C 0.13109 0.42037 0.61621 0.0
C607 C 0.12394 0.41709 0.59366 0.0
C608 C 0.11029 0.43369 0.58341 0.0
C609 C 0.10352 0.4528 0.59545 0.0
C610 C 0.13115 0.37658 0.5447 0.0
C611 C 0.12524 0.35609 0.55486 0.0
C612 C 0.13304 0.39619 0.55776 0.0
C613 C 0.12862 0.39572 0.58118 0.0
C614 C 0.12497 0.37472 0.59162 0.0
C615 C 0.12322 0.35505 0.57852 0.0
H616 H 0.5106 0.1456 0.62928 0.0
H617 H 0.53959 0.07872 0.63177 0.0
H618 H 0.54498 0.15954 0.61056 0.0
H619 H 0.57401 0.09268 0.61401 0.0
H620 H 0.63707 0.12104 0.59048 0.0
H621 H 0.60751 0.12259 0.61934 0.0
H622 H 0.55958 0.14552 0.56897 0.0
H623 H 0.58903 0.1434 0.54007 0.0
C624 C 0.5246 0.1341 0.62647 0.0
C625 C 0.52253 0.1111 0.63185 0.0
C626 C 0.54418 0.14205 0.61579 0.0
C627 C 0.56219 0.12722 0.61106 0.0
C628 C 0.56055 0.10455 0.61778 0.0
C629 C 0.54082 0.09652 0.6278 0.0
C630 C 0.62058 0.12774 0.58591 0.0
C631 C 0.61533 0.13237 0.56317 0.0
C632 C 0.60361 0.12839 0.60236 0.0
C633 C 0.58125 0.13397 0.59631 0.0
C634 C 0.57671 0.14136 0.57413 0.0
C635 C 0.5936 0.14031 0.55761 0.0
H636 H 0.82415 0.51645 0.62813 0.0
H637 H 0.89431 0.53626 0.63052 0.0
H638 H 0.8143 0.55291 0.61049 0.0
H639 H 0.88454 0.57252 0.61372 0.0
H640 H 0.86479 0.63971 0.59439 0.0
H641 H 0.86093 0.60869 0.6213 0.0
H642 H 0.82708 0.56904 0.57002 0.0
H643 H 0.83102 0.60023 0.5431 0.0
C644 C 0.8373 0.52883 0.62543 0.0
C645 C 0.85998 0.52363 0.6306 0.0
C646 C 0.8317 0.54957 0.61531 0.0
C647 C 0.84862 0.5656 0.61092 0.0
C648 C 0.87107 0.56068 0.61721 0.0
C649 C 0.87671 0.53987 0.6267 0.0
C650 C 0.8554 0.62485 0.58931 0.0
C651 C 0.84794 0.62239 0.56684 0.0
C652 C 0.85338 0.60702 0.60461 0.0
C653 C 0.84396 0.58638 0.59765 0.0
C654 C 0.83424 0.58482 0.5759 0.0
C655 C 0.83637 0.60269 0.56052 0.0
H656 H 0.3277 0.44415 0.13446 0.0
H657 H 0.38241 0.46818 0.09269 0.0
H658 H 0.35102 0.41161 0.14567 0.0
H659 H 0.40522 0.43603 0.10354 0.0
H660 H 0.44958 0.38565 0.13043 0.0
H661 H 0.4255 0.41891 0.13473 0.0
H662 H 0.36619 0.37714 0.12683 0.0
H663 H 0.39049 0.34377 0.12344 0.0
C664 C 0.34471 0.44262 0.12781 0.0
C665 C 0.35311 0.45875 0.11255 0.0
C666 C 0.35802 0.42398 0.13422 0.0
C667 C 0.38009 0.42131 0.12573 0.0
C668 C 0.38853 0.43773 0.11087 0.0
C669 C 0.37527 0.45613 0.10437 0.0
C670 C 0.43138 0.3835 0.13082 0.0
C671 C 0.42183 0.36224 0.12678 0.0
C672 C 0.41757 0.40255 0.13294 0.0
C673 C 0.39394 0.40077 0.13047 0.0
C674 C 0.38431 0.37912 0.12884 0.0
C675 C 0.3982 0.35997 0.12702 0.0
H676 H 0.37877 0.62787 0.86176 0.0
H677 H 0.43452 0.59488 0.82836 0.0
H678 H 0.35564 0.59413 0.85671 0.0
H679 H 0.41148 0.56097 0.82327 0.0
H680 H 0.3826 0.50199 0.86799 0.0
H681 H 0.40112 0.53669 0.85666 0.0
H682 H 0.33729 0.56319 0.83244 0.0
H683 H 0.31858 0.528 0.84365 0.0
C684 C 0.38559 0.61381 0.85217 0.0
C685 C 0.40825 0.61399 0.84517 0.0
C686 C 0.37241 0.59443 0.84938 0.0
C687 C 0.38187 0.57478 0.8399 0.0
C688 C 0.40382 0.57581 0.83081 0.0
C689 C 0.41692 0.59529 0.83343 0.0
C690 C 0.3725 0.51508 0.86001 0.0
C691 C 0.34908 0.51233 0.85694 0.0
C692 C 0.38319 0.53488 0.85325 0.0
C693 C 0.3707 0.55264 0.84349 0.0
C694 C 0.34734 0.54975 0.83985 0.0
C695 C 0.33666 0.52965 0.84627 0.0
H696 H 0.45876 0.34034 0.82179 0.0
H697 H 0.4326 0.33559 0.88973 0.0
H698 H 0.42379 0.35975 0.80966 0.0
H699 H 0.39763 0.35405 0.87757 0.0
H700 H 0.33318 0.3783 0.85195 0.0
H701 H 0.36302 0.34974 0.84874 0.0
H702 H 0.40934 0.40067 0.82542 0.0
H703 H 0.37958 0.42926 0.82912 0.0
C704 C 0.44525 0.34283 0.8339 0.0
C705 C 0.44827 0.33657 0.85668 0.0
C706 C 0.42535 0.35392 0.82699 0.0
C707 C 0.40797 0.35819 0.84264 0.0
C708 C 0.41058 0.35066 0.86506 0.0
C709 C 0.43062 0.34023 0.87207 0.0
C710 C 0.34934 0.38309 0.84486 0.0
C711 C 0.35407 0.40585 0.84048 0.0
C712 C 0.36647 0.36681 0.84324 0.0
C713 C 0.3885 0.37306 0.83701 0.0
C714 C 0.39246 0.39536 0.83004 0.0
C715 C 0.3754 0.41171 0.83201 0.0
H716 H 0.63037 0.43099 0.89407 0.0
H717 H 0.62553 0.45827 0.82648 0.0
H718 H 0.60961 0.39744 0.88177 0.0
H719 H 0.60373 0.42496 0.81437 0.0
H720 H 0.53194 0.38407 0.83909 0.0
H721 H 0.56095 0.41335 0.83629 0.0
H722 H 0.61292 0.36318 0.84707 0.0
H723 H 0.58391 0.33374 0.84894 0.0
C724 C 0.62524 0.42954 0.87647 0.0
C725 C 0.62958 0.44708 0.86118 0.0
C726 C 0.61347 0.41036 0.86942 0.0
C727 C 0.60525 0.40864 0.84712 0.0
C728 C 0.61014 0.42585 0.83158 0.0
C729 C 0.62259 0.4448 0.83848 0.0
C730 C 0.54963 0.37917 0.8395 0.0
C731 C 0.55578 0.35668 0.84386 0.0
C732 C 0.5662 0.39589 0.838 0.0
C733 C 0.58909 0.39044 0.84151 0.0
C734 C 0.59537 0.3677 0.84411 0.0
C735 C 0.57882 0.35088 0.84499 0.0
H736 H 0.62785 0.58117 0.84961 0.0
H737 H 0.58619 0.5227 0.83805 0.0
H738 H 0.59441 0.60552 0.84678 0.0
H739 H 0.55284 0.5469 0.83456 0.0
H740 H 0.50372 0.58729 0.8798 0.0
H741 H 0.53616 0.56536 0.86785 0.0
H742 H 0.55942 0.62126 0.8274 0.0
H743 H 0.52651 0.6436 0.83954 0.0
C744 C 0.61173 0.5737 0.8451 0.0
C745 C 0.60951 0.55015 0.84388 0.0
C746 C 0.59254 0.58761 0.84362 0.0
C747 C 0.57091 0.57807 0.84098 0.0
C748 C 0.56922 0.5547 0.83705 0.0
C749 C 0.58832 0.54086 0.83871 0.0
C750 C 0.51561 0.595 0.86827 0.0
C751 C 0.51253 0.6173 0.86078 0.0
C752 C 0.53413 0.58227 0.86116 0.0
C753 C 0.55026 0.59144 0.84641 0.0
C754 C 0.54722 0.61371 0.8387 0.0
C755 C 0.5284 0.62647 0.84566 0.0
H756 H 0.65039 0.52642 0.13126 0.0
H757 H 0.5887 0.49983 0.10228 0.0
H758 H 0.62983 0.56064 0.14295 0.0
H759 H 0.56842 0.53352 0.11394 0.0
H760 H 0.53092 0.58876 0.14244 0.0
H761 H 0.55507 0.55549 0.14722 0.0
H762 H 0.61167 0.59256 0.12034 0.0
H763 H 0.58745 0.62582 0.11589 0.0
C764 C 0.63243 0.52773 0.12769 0.0
C765 C 0.62122 0.51053 0.11564 0.0
C766 C 0.6207 0.54728 0.13436 0.0
C767 C 0.59746 0.54972 0.12955 0.0
C768 C 0.58619 0.53207 0.1183 0.0
C769 C 0.59792 0.51282 0.11135 0.0
C770 C 0.54882 0.59011 0.13881 0.0
C771 C 0.55746 0.60985 0.12911 0.0
C772 C 0.56259 0.57101 0.14123 0.0
C773 C 0.58517 0.57128 0.13375 0.0
C774 C 0.5944 0.59183 0.12637 0.0
C775 C 0.58059 0.61093 0.12395 0.0
H776 H 0.33705 0.59185 0.11117 0.0
H777 H 0.36936 0.5374 0.14737 0.0
H778 H 0.37064 0.61517 0.11649 0.0
H779 H 0.40316 0.56062 0.15267 0.0
H780 H 0.46228 0.58721 0.1061 0.0
H781 H 0.42749 0.56944 0.11848 0.0
H782 H 0.40182 0.63408 0.1407 0.0
H783 H 0.43717 0.65202 0.12849 0.0
C784 C 0.35086 0.58541 0.12147 0.0
C785 C 0.35061 0.56298 0.12909 0.0
C786 C 0.37017 0.5987 0.12441 0.0
C787 C 0.38966 0.58957 0.13466 0.0
C788 C 0.38842 0.56801 0.14454 0.0
C789 C 0.36899 0.55481 0.14179 0.0
C790 C 0.44937 0.59764 0.11388 0.0
C791 C 0.45236 0.62105 0.11609 0.0
C792 C 0.42952 0.5874 0.12126 0.0
C793 C 0.41197 0.60034 0.13074 0.0
C794 C 0.41513 0.6237 0.13355 0.0
C795 C 0.4353 0.63394 0.12655 0.0
H796 H 0.63991 0.37664 0.11355 0.0
H797 H 0.59461 0.42601 0.14226 0.0
H798 H 0.61009 0.34818 0.11537 0.0
H799 H 0.56482 0.3975 0.14448 0.0
H800 H 0.53941 0.33655 0.07626 0.0
H801 H 0.57462 0.35434 0.0884 0.0
H802 H 0.55077 0.35585 0.15741 0.0
H803 H 0.51557 0.33718 0.14525 0.0
C804 C 0.62401 0.381 0.12156 0.0
C805 C 0.61959 0.40336 0.12808 0.0
C806 C 0.60689 0.3648 0.12238 0.0
C807 C 0.58512 0.37072 0.12987 0.0
C808 C 0.5815 0.39243 0.13884 0.0
C809 C 0.59858 0.40872 0.13772 0.0
C810 C 0.54194 0.34013 0.09411 0.0
C811 C 0.52486 0.3355 0.10982 0.0
C812 C 0.56212 0.35019 0.10109 0.0
C813 C 0.56545 0.35636 0.12388 0.0
C814 C 0.54866 0.35111 0.13979 0.0
C815 C 0.52862 0.34041 0.13286 0.0
H816 H 0.03346 0.29174 0.5329 0.0
H817 H 0.05037 0.25751 0.47055 0.0
H818 H -0.00675 0.28863 0.52372 0.0
H819 H 0.00989 0.25495 0.46105 0.0
H820 H 0.94065 0.29361 0.44341 0.0
H821 H 0.98055 0.28878 0.45313 0.0
H822 H 0.96188 0.25664 0.51583 0.0
H823 H 0.92162 0.26092 0.50578 0.0
C824 C 0.02855 0.2834 0.51728 0.0
C825 C 0.04503 0.27495 0.50236 0.0
C826 C 0.00554 0.28149 0.51214 0.0
C827 C -0.0015 0.27152 0.49173 0.0
C828 C 0.01493 0.26268 0.47693 0.0
C829 C 0.03802 0.26411 0.48235 0.0
C830 C 0.94502 0.28532 0.4592 0.0
C831 C 0.92803 0.27774 0.47392 0.0
C832 C 0.96786 0.2824 0.46464 0.0
C833 C 0.97426 0.27226 0.48515 0.0
C834 C 0.95733 0.26447 0.49986 0.0
C835 C 0.93436 0.26691 0.49414 0.0
H836 H 0.64923 0.03731 0.51801 0.0
H837 H 0.71194 0.04622 0.48178 0.0
H838 H 0.65047 -0.00287 0.51025 0.0
H839 H 0.71344 0.00532 0.47462 0.0
H840 H 0.71313 0.92559 0.49268 0.0
H841 H 0.71495 0.96636 0.50047 0.0
H842 H 0.64841 0.97489 0.47131 0.0
H843 H 0.64678 0.93488 0.46294 0.0
C844 C 0.6632 0.03082 0.50819 0.0
C845 C 0.68021 0.04521 0.50006 0.0
C846 C 0.66398 0.00768 0.50393 0.0
C847 C 0.68201 -0.00184 0.49182 0.0
C848 C 0.6994 0.01229 0.4841 0.0
C849 C 0.69842 0.03567 0.48804 0.0
C850 C 0.69887 0.93617 0.48804 0.0
C851 C 0.67962 0.92679 0.47754 0.0
C852 C 0.70001 0.95948 0.49233 0.0
C853 C 0.68177 0.97368 0.48654 0.0
C854 C 0.66262 0.96428 0.47613 0.0
C855 C 0.66165 0.94123 0.47148 0.0
H856 H 0.92164 0.70434 0.4643 0.0
H857 H 0.94044 0.67575 0.529 0.0
H858 H 0.96181 0.70627 0.45392 0.0
H859 H 0.98036 0.67819 0.51884 0.0
H860 H 0.03217 0.66949 0.43835 0.0
H861 H -0.00778 0.67337 0.44802 0.0
H862 H 0.01046 0.71013 0.50856 0.0
H863 H 0.05068 0.70674 0.49858 0.0
C864 C 0.93433 0.69871 0.47636 0.0
C865 C 0.92792 0.68975 0.49738 0.0
C866 C 0.95725 0.6998 0.47043 0.0
C867 C 0.97413 0.69248 0.48565 0.0
C868 C 0.96771 0.68415 0.5069 0.0
C869 C 0.94485 0.6826 0.51261 0.0
C870 C 0.02767 0.6786 0.45362 0.0
C871 C 0.04453 0.68776 0.46777 0.0
C872 C 0.0048 0.68094 0.45905 0.0
C873 C -0.00171 0.69207 0.47898 0.0
C874 C 0.01509 0.70147 0.49307 0.0
C875 C 0.03804 0.69958 0.48736 0.0
H876 H 0.26052 0.0424 0.49296 0.0
H877 H 0.30862 0.03001 0.4394 0.0
H878 H 0.25912 0.00164 0.50057 0.0
H879 H 0.30734 -0.01012 0.44709 0.0
H880 H 0.32279 0.92632 0.48834 0.0
H881 H 0.32074 0.96625 0.4793 0.0
H882 H 0.24778 0.96362 0.48188 0.0
H883 H 0.24994 0.92324 0.49133 0.0
C884 C 0.27075 0.03106 0.48284 0.0
C885 C 0.28506 0.03955 0.46592 0.0
C886 C 0.26984 0.00775 0.48709 0.0
C887 C 0.28332 -0.00739 0.47456 0.0
C888 C 0.29709 0.00113 0.4573 0.0
C889 C 0.29788 0.02423 0.45299 0.0
C890 C 0.30632 0.93419 0.48711 0.0
C891 C 0.28656 0.9217 0.4908 0.0
C892 C 0.30512 0.95707 0.48171 0.0
C893 C 0.2841 0.96812 0.47999 0.0
C894 C 0.26422 0.95558 0.48332 0.0
C895 C 0.26544 0.93248 0.48847 0.0
H896 H 0.49109 0.92106 0.25082 0.0
H897 H 0.45222 0.93747 0.31055 0.0
H898 H 0.50115 0.9612 0.24691 0.0
H899 H 0.46282 0.97687 0.3069 0.0
H900 H 0.52222 0.03088 0.30855 0.0
H901 H 0.51188 -0.00871 0.30577 0.0
H902 H 0.47041 0.00567 0.24722 0.0
H903 H 0.48022 0.04596 0.25028 0.0
C904 C 0.48467 0.93313 0.26303 0.0
C905 C 0.47125 0.92594 0.28128 0.0
C906 C 0.49032 0.95602 0.26071 0.0
C907 C 0.4827 0.97192 0.27665 0.0
C908 C 0.46889 0.96484 0.29446 0.0
C909 C 0.46305 0.94219 0.29663 0.0
C910 C 0.51078 0.02581 0.29511 0.0
C911 C 0.50162 0.04174 0.27995 0.0
C912 C 0.50509 0.00306 0.29342 0.0
C913 C 0.49045 -0.00442 0.27629 0.0
C914 C 0.48189 0.01116 0.26048 0.0
C915 C 0.48741 0.03414 0.26232 0.0
H916 H 0.92191 0.46907 0.26173 0.0
H917 H 0.94052 0.52967 0.29797 0.0
H918 H 0.96215 0.45898 0.25835 0.0
H919 H 0.98047 0.51986 0.29415 0.0
H920 H 0.05134 0.50247 0.26563 0.0
H921 H 0.01121 0.51319 0.26234 0.0
H922 H -0.00803 0.44886 0.29031 0.0
H923 H 0.03176 0.43838 0.29406 0.0
C924 C 0.93458 0.48036 0.26865 0.0
C925 C 0.92811 0.50005 0.28025 0.0
C926 C 0.95754 0.47459 0.26676 0.0
C927 C 0.97438 0.48871 0.27593 0.0
C928 C 0.96787 0.5088 0.28673 0.0
C929 C 0.945 0.51429 0.28906 0.0
C930 C 0.0385 0.49061 0.27089 0.0
C931 C 0.04466 0.46969 0.28026 0.0
C932 C 0.0156 0.49673 0.26904 0.0
C933 C -0.00147 0.48178 0.27598 0.0
C934 C 0.00475 0.46059 0.28461 0.0
C935 C 0.02754 0.45471 0.28692 0.0
H936 H 0.47391 0.92171 0.71488 0.0
H937 H 0.52951 0.93365 0.66926 0.0
H938 H 0.46612 0.96253 0.71595 0.0
H939 H 0.52214 0.97386 0.6707 0.0
H940 H 0.48288 0.03627 0.65079 0.0
H941 H 0.49218 -0.00326 0.65481 0.0
H942 H 0.48096 0.0013 0.72696 0.0
H943 H 0.47071 0.04138 0.72262 0.0
C944 C 0.48459 0.93302 0.70534 0.0
C945 C 0.50201 0.92443 0.69162 0.0
C946 C 0.48023 0.95637 0.70604 0.0
C947 C 0.49329 0.97141 0.6931 0.0
C948 C 0.5114 0.96275 0.68041 0.0
C949 C 0.51562 0.93963 0.67961 0.0
C950 C 0.48206 0.02894 0.66747 0.0
C951 C 0.47564 0.04192 0.68628 0.0
C952 C 0.48776 0.00624 0.66987 0.0
C953 C 0.48734 -0.00421 0.69123 0.0
C954 C 0.48127 0.00881 0.71025 0.0
C955 C 0.47564 0.03176 0.70781 0.0
H956 H 0.93554 0.45018 0.65523 0.0
H957 H 0.92224 0.49054 0.71485 0.0
H958 H 0.97555 0.45927 0.65797 0.0
H959 H 0.96293 0.4991 0.71781 0.0
H960 H 0.04703 0.47268 0.71205 0.0
H961 H 0.00648 0.46379 0.71509 0.0
H962 H -0.00829 0.51004 0.66068 0.0
H963 H 0.03163 0.51944 0.65793 0.0
C964 C 0.94107 0.46104 0.66891 0.0
C965 C 0.92553 0.47004 0.68455 0.0
C966 C 0.96406 0.466 0.67057 0.0
C967 C 0.97215 0.47973 0.68812 0.0
C968 C 0.95694 0.4883 0.70423 0.0
C969 C 0.93374 0.48351 0.70244 0.0
C970 C 0.03511 0.48102 0.70084 0.0
C971 C 0.04268 0.49645 0.68445 0.0
C972 C 0.01198 0.47604 0.7027 0.0
C973 C -0.00381 0.48636 0.68816 0.0
C974 C 0.00366 0.50196 0.67209 0.0
C975 C 0.02659 0.5071 0.67038 0.0
H976 H 0.26094 0.49287 0.92506 0.0
H977 H 0.31454 0.4444 0.93666 0.0
H978 H 0.25886 0.49991 0.96599 0.0
H979 H 0.31235 0.45127 0.97712 0.0
H980 H 0.3225 0.49052 0.04278 0.0
H981 H 0.32202 0.48205 0.00255 0.0
H982 H 0.24892 0.48157 0.00313 0.0
H983 H 0.24953 0.49085 0.04379 0.0
C984 C 0.27227 0.48375 0.93629 0.0
C985 C 0.28818 0.46838 0.92752 0.0
C986 C 0.27095 0.48764 0.95972 0.0
C987 C 0.28555 0.47626 0.97481 0.0
C988 C 0.30114 0.46063 0.96598 0.0
C989 C 0.30242 0.45673 0.9427 0.0
C990 C 0.30632 0.48889 0.03435 0.0
C991 C 0.28607 0.4918 0.04633 0.0
C992 C 0.30603 0.48369 0.01129 0.0
C993 C 0.28543 0.48123 -0.00044 0.0
C994 C 0.26506 0.48363 0.01164 0.0
C995 C 0.2654 0.48869 0.03491 0.0
H996 H 0.47919 0.25073 0.92208 0.0
H997 H 0.51671 0.31171 0.93614 0.0
H998 H 0.46974 0.2479 0.96261 0.0
H999 H 0.50662 0.30919 0.97585 0.0
H1000 H 0.45182 0.31229 0.03262 0.0
H1001 H 0.46125 0.30941 -0.00727 0.0
H1002 H 0.49806 0.24775 0.0055 0.0
H1003 H 0.48925 0.25092 0.04617 0.0
C1004 C 0.48535 0.26351 0.93369 0.0
C1005 C 0.49828 0.28174 0.92571 0.0
C1006 C 0.48006 0.26179 0.95682 0.0
C1007 C 0.48744 0.2784 0.97217 0.0
C1008 C 0.50065 0.29627 0.96427 0.0
C1009 C 0.5062 0.2978 0.94142 0.0
C1010 C 0.46213 0.29819 0.02718 0.0
C1011 C 0.47028 0.28215 0.04278 0.0
C1012 C 0.46729 0.29646 0.00423 0.0
C1013 C 0.48035 0.27841 -0.00384 0.0
C1014 C 0.48784 0.26177 0.01142 0.0
C1015 C 0.48292 0.26368 0.03463 0.0
H1016 H 0.71634 0.47614 0.92524 0.0
H1017 H 0.65812 0.51849 0.93847 0.0
H1018 H 0.71895 0.46744 0.966 0.0
H1019 H 0.66045 0.50919 0.97853 0.0
H1020 H 0.65829 0.44952 0.03509 0.0
H1021 H 0.66093 0.45909 -0.00487 0.0
H1022 H 0.718 0.50201 0.00932 0.0
H1023 H 0.71507 0.49302 0.04992 0.0
C1024 C 0.70415 0.48357 0.93673 0.0
C1025 C 0.68674 0.49765 0.92848 0.0
C1026 C 0.70573 0.47868 0.95998 0.0
C1027 C 0.68988 0.48772 0.97519 0.0
C1028 C 0.67283 0.50205 0.96704 0.0
C1029 C 0.6714 0.50713 0.94402 0.0
C1030 C 0.67128 0.4612 0.02993 0.0
C1031 C 0.68617 0.47087 0.04588 0.0
C1032 C 0.67291 0.46644 0.00696 0.0
C1033 C 0.68972 0.48111 -0.0007 0.0
C1034 C 0.70501 0.49048 0.01495 0.0
C1035 C 0.70321 0.48545 0.03812 0.0
H1036 H 0.46493 0.71855 0.93046 0.0
H1037 H 0.4871 0.64928 0.92727 0.0
H1038 H 0.47164 0.7189 0.97142 0.0
H1039 H 0.49531 0.64976 0.96767 0.0
H1040 H 0.48489 0.64626 0.04228 0.0
H1041 H 0.47727 0.6483 0.00186 0.0
H1042 H 0.49621 0.7188 0.0022 0.0
H1043 H 0.50245 0.71678 0.04315 0.0
C1044 C 0.47179 0.70359 0.93853 0.0
C1045 C 0.47538 0.68385 0.92591 0.0
C1046 C 0.47568 0.70373 0.96201 0.0
C1047 C 0.48366 0.68421 0.97318 0.0
C1048 C 0.48838 0.66489 0.96003 0.0
C1049 C 0.48396 0.66463 0.93677 0.0
C1050 C 0.48731 0.66218 0.03368 0.0
C1051 C 0.49444 0.6813 0.04571 0.0
C1052 C 0.48315 0.66338 0.0104 0.0
C1053 C 0.48662 0.68361 -0.00161 0.0
C1054 C 0.49317 0.70295 0.01071 0.0
C1055 C 0.4968 0.70184 0.03419 0.0
H1056 H 0.18319 0.2636 0.48833 0.0
H1057 H 0.15857 0.2146 0.5363 0.0
H1058 H 0.21557 0.23898 0.4801 0.0
H1059 H 0.19034 0.19007 0.52784 0.0
H1060 H 0.2579 0.15705 0.52338 0.0
H1061 H 0.23047 0.18633 0.53261 0.0
H1062 H 0.22388 0.20282 0.46161 0.0
H1063 H 0.25185 0.17378 0.45238 0.0
C1064 C 0.18472 0.24768 0.4972 0.0
C1065 C 0.16825 0.24112 0.51299 0.0
C1066 C 0.2032 0.2335 0.49238 0.0
C1067 C 0.20567 0.21254 0.50336 0.0
C1068 C 0.1893 0.20623 0.51934 0.0
C1069 C 0.17091 0.22029 0.52408 0.0
C1070 C 0.25083 0.16708 0.50972 0.0
C1071 C 0.25693 0.16286 0.48711 0.0
C1072 C 0.23497 0.18382 0.51501 0.0
C1073 C 0.22464 0.19675 0.49784 0.0
C1074 C 0.23155 0.19329 0.47529 0.0
C1075 C 0.24753 0.17655 0.46999 0.0
H1076 H 0.72021 0.17824 0.51813 0.0
H1077 H 0.71774 0.15926 0.44744 0.0
H1078 H 0.74875 0.20677 0.50945 0.0
H1079 H 0.74573 0.18787 0.43878 0.0
H1080 H 0.81761 0.2156 0.43774 0.0
H1081 H 0.78578 0.19129 0.4459 0.0
H1082 H 0.75743 0.24256 0.48959 0.0
H1083 H 0.78982 0.26705 0.48161 0.0
C1084 C 0.72548 0.18036 0.50071 0.0
C1085 C 0.71688 0.16624 0.48353 0.0
C1086 C 0.74177 0.19679 0.49572 0.0
C1087 C 0.74978 0.19944 0.47345 0.0
C1088 C 0.74034 0.18599 0.45619 0.0
C1089 C 0.72417 0.16961 0.46116 0.0
C1090 C 0.80458 0.22185 0.449 0.0
C1091 C 0.80632 0.24333 0.459 0.0
C1092 C 0.78618 0.2079 0.45357 0.0
C1093 C 0.76892 0.21497 0.46831 0.0
C1094 C 0.7705 0.23654 0.47826 0.0
C1095 C 0.78897 0.25062 0.47358 0.0
H1096 H 0.81369 0.7195 0.44459 0.0
H1097 H 0.79283 0.71768 0.51462 0.0
H1098 H 0.78482 0.74782 0.43661 0.0
H1099 H 0.76413 0.74644 0.50669 0.0
H1100 H 0.70407 0.78868 0.48037 0.0
H1101 H 0.7289 0.75611 0.48673 0.0
H1102 H 0.78036 0.7873 0.44569 0.0
H1103 H 0.75559 0.81944 0.43906 0.0
C1104 C 0.80282 0.72499 0.45827 0.0
C1105 C 0.80576 0.71644 0.4803 0.0
C1106 C 0.78633 0.74137 0.45372 0.0
C1107 C 0.77234 0.7497 0.47107 0.0
C1108 C 0.77452 0.74035 0.49289 0.0
C1109 C 0.79104 0.7239 0.49745 0.0
C1110 C 0.72063 0.78848 0.47259 0.0
C1111 C 0.72781 0.8067 0.45919 0.0
C1112 C 0.73491 0.76987 0.47634 0.0
C1113 C 0.75663 0.769 0.46666 0.0
C1114 C 0.76363 0.78716 0.4531 0.0
C1115 C 0.74944 0.80572 0.44942 0.0
H1116 H 0.15606 0.71693 0.52188 0.0
H1117 H 0.18006 0.71257 0.45298 0.0
H1118 H 0.18459 0.74518 0.53037 0.0
H1119 H 0.2086 0.74132 0.46147 0.0
H1120 H 0.26758 0.78407 0.49116 0.0
H1121 H 0.24317 0.75143 0.48379 0.0
H1122 H 0.1887 0.78447 0.51956 0.0
H1123 H 0.2129 0.81666 0.52708 0.0
C1124 C 0.16755 0.72185 0.50855 0.0
C1125 C 0.16557 0.71264 0.48666 0.0
C1126 C 0.18387 0.73818 0.51341 0.0
C1127 C 0.19866 0.74583 0.49652 0.0
C1128 C 0.19752 0.73577 0.4749 0.0
C1129 C 0.18112 0.71933 0.47001 0.0
C1130 C 0.25044 0.78425 0.49757 0.0
C1131 C 0.24223 0.80299 0.50977 0.0
C1132 C 0.23642 0.76561 0.49323 0.0
C1133 C 0.21401 0.76525 0.50119 0.0
C1134 C 0.20597 0.78396 0.5135 0.0
C1135 C 0.21985 0.80253 0.5177 0.0
H1136 H 0.51708 0.17677 0.25181 0.0
H1137 H 0.44756 0.15466 0.24849 0.0
H1138 H 0.50872 0.20596 0.22362 0.0
H1139 H 0.43916 0.18392 0.22086 0.0
H1140 H 0.441 0.21387 0.14988 0.0
H1141 H 0.44862 0.18883 0.18147 0.0
H1142 H 0.48762 0.24105 0.21446 0.0
H1143 H 0.48023 0.26627 0.18233 0.0
C1144 C 0.49995 0.17838 0.24538 0.0
C1145 C 0.48307 0.16318 0.25218 0.0
C1146 C 0.49513 0.19515 0.22927 0.0
C1147 C 0.47334 0.19707 0.2197 0.0
C1148 C 0.45625 0.1826 0.22746 0.0
C1149 C 0.46106 0.16587 0.24342 0.0
C1150 C 0.45112 0.22015 0.16387 0.0
C1151 C 0.45997 0.24213 0.16353 0.0
C1152 C 0.45537 0.20579 0.18212 0.0
C1153 C 0.46861 0.21294 0.20064 0.0
C1154 C 0.47746 0.23497 0.20041 0.0
C1155 C 0.47312 0.24945 0.18208 0.0
H1156 H 0.79041 0.48691 0.26986 0.0
H1157 H 0.81364 0.53616 0.22145 0.0
H1158 H 0.75782 0.47871 0.24531 0.0
H1159 H 0.78167 0.52776 0.19702 0.0
H1160 H 0.71364 0.52325 0.16487 0.0
H1161 H 0.74134 0.53205 0.19416 0.0
H1162 H 0.74936 0.461 0.20846 0.0
H1163 H 0.72111 0.45218 0.17935 0.0
C1164 C 0.78852 0.49607 0.25409 0.0
C1165 C 0.80466 0.51221 0.24766 0.0
C1166 C 0.76993 0.49127 0.23996 0.0
C1167 C 0.76702 0.50263 0.21919 0.0
C1168 C 0.78306 0.51895 0.21303 0.0
C1169 C 0.80156 0.52367 0.22703 0.0
C1170 C 0.72109 0.50948 0.1744 0.0
C1171 C 0.71531 0.48698 0.16955 0.0
C1172 C 0.7371 0.51453 0.19116 0.0
C1173 C 0.7479 0.49723 0.20347 0.0
C1174 C 0.74132 0.47476 0.1994 0.0
C1175 C 0.72518 0.46969 0.18264 0.0
H1176 H 0.49359 0.70014 0.186 0.0
H1177 H 0.50723 0.75707 0.14254 0.0
H1178 H 0.48 0.72613 0.21551 0.0
H1179 H 0.49374 0.78264 0.17171 0.0
H1180 H 0.44269 0.81926 0.21455 0.0
H1181 H 0.45543 0.79035 0.18824 0.0
H1182 H 0.49427 0.75867 0.24161 0.0
H1183 H 0.48144 0.78785 0.26828 0.0
C1184 C 0.49384 0.71813 0.18279 0.0
C1185 C 0.50137 0.72649 0.16183 0.0
C1186 C 0.48612 0.73298 0.19969 0.0
C1187 C 0.48554 0.75639 0.1958 0.0
C1188 C 0.4936 0.76467 0.17508 0.0
C1189 C 0.50146 0.74996 0.15838 0.0
C1190 C 0.45379 0.80608 0.22085 0.0
C1191 C 0.46122 0.80605 0.24351 0.0
C1192 C 0.46117 0.78954 0.20569 0.0
C1193 C 0.47611 0.77243 0.21277 0.0
C1194 C 0.48274 0.77166 0.23569 0.0
C1195 C 0.47544 0.78839 0.25092 0.0
H1196 H 0.16395 0.52054 0.26094 0.0
H1197 H 0.17796 0.44932 0.25351 0.0
H1198 H 0.19302 0.52905 0.23323 0.0
H1199 H 0.20682 0.45784 0.22525 0.0
H1200 H 0.26751 0.48303 0.18354 0.0
H1201 H 0.24346 0.475 0.2163 0.0
H1202 H 0.19527 0.52486 0.1929 0.0
H1203 H 0.21922 0.53309 0.16076 0.0
C1204 C 0.17337 0.50667 0.25354 0.0
C1205 C 0.16841 0.48423 0.2593 0.0
C1206 C 0.18998 0.51156 0.2375 0.0
C1207 C 0.20203 0.49413 0.22665 0.0
C1208 C 0.19795 0.47171 0.2333 0.0
C1209 C 0.18134 0.46681 0.24947 0.0
C1210 C 0.25186 0.49238 0.18555 0.0
C1211 C 0.24534 0.50873 0.1695 0.0
C1212 C 0.23802 0.48769 0.20425 0.0
C1213 C 0.21744 0.49936 0.20736 0.0
C1214 C 0.21115 0.51582 0.19137 0.0
C1215 C 0.22488 0.52044 0.17277 0.0
H1216 H 0.4915 0.71233 0.8016 0.0
H1217 H 0.42065 0.71687 0.78374 0.0
H1218 H 0.50029 0.74057 0.77298 0.0
H1219 H 0.42949 0.74457 0.75471 0.0
H1220 H 0.44886 0.81542 0.73089 0.0
H1221 H 0.44032 0.78325 0.75467 0.0
H1222 H 0.50222 0.75066 0.73339 0.0
H1223 H 0.51111 0.78337 0.70984 0.0
C1224 C 0.47784 0.71902 0.79128 0.0
C1225 C 0.45532 0.7125 0.79517 0.0
C1226 C 0.4829 0.73517 0.77476 0.0
C1227 C 0.46558 0.74512 0.76166 0.0
C1228 C 0.44322 0.73768 0.7648 0.0
C1229 C 0.43815 0.72165 0.78137 0.0
C1230 C 0.46063 0.80136 0.7311 0.0
C1231 C 0.48074 0.80207 0.71848 0.0
C1232 C 0.45562 0.78276 0.74466 0.0
C1233 C 0.47053 0.76423 0.74598 0.0
C1234 C 0.49046 0.76471 0.733 0.0
C1235 C 0.4955 0.78341 0.71939 0.0
H1236 H 0.2673 0.46858 0.78424 0.0
H1237 H 0.21255 0.4802 0.83118 0.0
H1238 H 0.24288 0.48148 0.75294 0.0
H1239 H 0.18854 0.49299 0.80024 0.0
H1240 H 0.15976 0.5381 0.7464 0.0
H1241 H 0.18785 0.5264 0.77427 0.0
H1242 H 0.20586 0.46937 0.73239 0.0
H1243 H 0.17755 0.48111 0.70418 0.0
C1244 C 0.25013 0.47386 0.78789 0.0
C1245 C 0.24191 0.47341 0.81024 0.0
C1246 C 0.23616 0.48115 0.76998 0.0
C1247 C 0.21387 0.48844 0.77418 0.0
C1248 C 0.20573 0.48782 0.79649 0.0
C1249 C 0.2195 0.48034 0.81423 0.0
C1250 C 0.16981 0.52318 0.74291 0.0
C1251 C 0.16618 0.51041 0.72313 0.0
C1252 C 0.18588 0.51644 0.75897 0.0
C1253 C 0.19885 0.4968 0.75567 0.0
C1254 C 0.19613 0.4846 0.73537 0.0
C1255 C 0.17987 0.4913 0.71927 0.0
H1256 H 0.44454 0.17672 0.71117 0.0
H1257 H 0.51375 0.15775 0.72577 0.0
H1258 H 0.44779 0.20831 0.73771 0.0
H1259 H 0.51684 0.18891 0.75245 0.0
H1260 H 0.52178 0.25597 0.78841 0.0
H1261 H 0.51811 0.22955 0.75678 0.0
H1262 H 0.45049 0.21299 0.77854 0.0
H1263 H 0.45399 0.23961 0.8098 0.0
C1264 C 0.46049 0.17937 0.71988 0.0
C1265 C 0.47883 0.16459 0.71641 0.0
C1266 C 0.46232 0.19741 0.7352 0.0
C1267 C 0.48256 0.20113 0.74733 0.0
C1268 C 0.50109 0.18677 0.74325 0.0
C1269 C 0.49924 0.16875 0.72802 0.0
C1270 C 0.50604 0.24689 0.78628 0.0
C1271 C 0.48825 0.24983 0.80177 0.0
C1272 C 0.50397 0.23163 0.76821 0.0
C1273 C 0.48405 0.21899 0.76515 0.0
C1274 C 0.46599 0.22257 0.78019 0.0
C1275 C 0.46807 0.23777 0.79825 0.0
H1276 H 0.72181 0.44505 0.81447 0.0
H1277 H 0.71687 0.51444 0.79261 0.0
H1278 H 0.74945 0.43753 0.78503 0.0
H1279 H 0.74505 0.50694 0.76322 0.0
H1280 H 0.78607 0.47957 0.70205 0.0
H1281 H 0.75424 0.48632 0.72777 0.0
H1282 H 0.78854 0.4478 0.77975 0.0
H1283 H 0.81984 0.44083 0.75424 0.0
C1284 C 0.72652 0.45871 0.8033 0.0
C1285 C 0.71726 0.48042 0.8061 0.0
C1286 C 0.7425 0.45441 0.78645 0.0
C1287 C 0.74978 0.4717 0.77195 0.0
C1288 C 0.73978 0.4932 0.77403 0.0
C1289 C 0.72368 0.49752 0.79094 0.0
C1290 C 0.78669 0.47244 0.71893 0.0
C1291 C 0.80551 0.4596 0.72603 0.0
C1292 C 0.76852 0.47642 0.73371 0.0
C1293 C 0.76873 0.46749 0.75581 0.0
C1294 C 0.78754 0.4546 0.76275 0.0
C1295 C 0.80563 0.45072 0.7481 0.0
loop_
_geom_bond_atom_site_label_1
_geom_bond_atom_site_label_2
_geom_bond_distance
_geom_bond_site_symmetry_2
_ccdc_geom_bond_type
Mg0 O1 2.028 . S
Mg0 O7 1.986 . S
Mg0 O9 2.114 . S
Mg0 O10 2.251 . S
Mg0 O13 2.010 . S
O1 Mg0 2.028 . S
O1 C4 1.250 . S
O2 Mg3 2.028 . S
O2 C4 1.248 . S
Mg3 O2 2.028 . S
Mg3 O8 2.032 . S
Mg3 O10 2.079 . S
C4 O1 1.250 . S
C4 O2 1.248 . S
C5 O6 1.264 . S
C5 O13 1.249 . S
O6 C5 1.264 . S
O7 Mg0 1.986 . S
O7 C11 1.246 . S
O8 Mg3 2.032 . S
O8 C11 1.259 . S
O9 Mg0 2.114 . S
O9 C12 1.252 . S
O10 Mg0 2.251 . S
O10 Mg3 2.079 . S
O10 C12 1.273 . S
C11 O7 1.246 . S
C11 O8 1.259 . S
C12 O9 1.252 . S
C12 O10 1.273 . S
O13 Mg0 2.010 . S
O13 C5 1.249 . S
Mg14 O15 2.028 . S
Mg14 O21 1.986 . S
Mg14 O23 2.114 . S
Mg14 O24 2.251 . S
Mg14 O27 2.010 . S
O15 Mg14 2.028 . S
O15 C18 1.250 . S
O16 Mg17 2.028 . S
O16 C18 1.248 . S
Mg17 O16 2.028 . S
Mg17 O22 2.032 . S
Mg17 O24 2.079 . S
C18 O15 1.250 . S
C18 O16 1.248 . S
C19 O20 1.264 . S
C19 O27 1.249 . S
O20 C19 1.264 . S
O21 Mg14 1.986 . S
O21 C25 1.246 . S
O22 Mg17 2.032 . S
O22 C25 1.259 . S
O23 Mg14 2.114 . S
O23 C26 1.252 . S
O24 Mg14 2.251 . S
O24 Mg17 2.079 . S
O24 C26 1.273 . S
C25 O21 1.246 . S
C25 O22 1.259 . S
C26 O23 1.252 . S
C26 O24 1.273 . S
O27 Mg14 2.010 . S
O27 C19 1.249 . S
Mg28 O29 2.028 . S
Mg28 O35 1.986 . S
Mg28 O37 2.114 . S
Mg28 O38 2.251 . S
Mg28 O41 2.010 . S
O29 Mg28 2.028 . S
O29 C32 1.250 . S
O30 Mg31 2.028 . S
O30 C32 1.248 . S
Mg31 O30 2.028 . S
Mg31 O36 2.032 . S
Mg31 O38 2.079 . S
C32 O29 1.250 . S
C32 O30 1.248 . S
C33 O34 1.264 . S
C33 O41 1.249 . S
O34 C33 1.264 . S
O35 Mg28 1.986 . S
O35 C39 1.246 . S
O36 Mg31 2.032 . S
O36 C39 1.259 . S
O37 Mg28 2.114 . S
O37 C40 1.252 . S
O38 Mg28 2.251 . S
O38 Mg31 2.079 . S
O38 C40 1.273 . S
C39 O35 1.246 . S
C39 O36 1.259 . S
C40 O37 1.252 . S
C40 O38 1.273 . S
O41 Mg28 2.010 . S
O41 C33 1.249 . S
Mg42 O43 2.028 . S
Mg42 O49 1.986 . S
Mg42 O51 2.114 . S
Mg42 O52 2.251 . S
Mg42 O55 2.010 . S
O43 Mg42 2.028 . S
O43 C46 1.250 . S
O44 Mg45 2.028 . S
O44 C46 1.248 . S
Mg45 O44 2.028 . S
Mg45 O50 2.032 . S
Mg45 O52 2.079 . S
C46 O43 1.250 . S
C46 O44 1.248 . S
C47 O48 1.264 . S
C47 O55 1.249 . S
O48 C47 1.264 . S
O49 Mg42 1.986 . S
O49 C53 1.246 . S
O50 Mg45 2.032 . S
O50 C53 1.259 . S
O51 Mg42 2.114 . S
O51 C54 1.252 . S
O52 Mg42 2.251 . S
O52 Mg45 2.079 . S
O52 C54 1.273 . S
C53 O49 1.246 . S
C53 O50 1.259 . S
C54 O51 1.252 . S
C54 O52 1.273 . S
O55 Mg42 2.010 . S
O55 C47 1.249 . S
Mg56 O57 2.028 . S
Mg56 O63 1.986 . S
Mg56 O65 2.114 . S
Mg56 O66 2.251 . S
Mg56 O69 2.010 . S
O57 Mg56 2.028 . S
O57 C60 1.250 . S
O58 Mg59 2.028 . S
O58 C60 1.248 . S
Mg59 O58 2.028 . S
Mg59 O64 2.032 . S
Mg59 O66 2.079 . S
C60 O57 1.250 . S
C60 O58 1.248 . S
C61 O62 1.264 . S
C61 O69 1.249 . S
O62 C61 1.264 . S
O63 Mg56 1.986 . S
O63 C67 1.246 . S
O64 Mg59 2.032 . S
O64 C67 1.259 . S
O65 Mg56 2.114 . S
O65 C68 1.252 . S
O66 Mg56 2.251 . S
O66 Mg59 2.079 . S
O66 C68 1.273 . S
C67 O63 1.246 . S
C67 O64 1.259 . S
C68 O65 1.252 . S
C68 O66 1.273 . S
O69 Mg56 2.010 . S
O69 C61 1.249 . S
Mg70 O71 2.028 . S
Mg70 O77 1.986 . S
Mg70 O79 2.114 . S
Mg70 O80 2.251 . S
Mg70 O83 2.010 . S
O71 Mg70 2.028 . S
O71 C74 1.250 . S
O72 Mg73 2.028 . S
O72 C74 1.248 . S
Mg73 O72 2.028 . S
Mg73 O78 2.032 . S
Mg73 O80 2.079 . S
C74 O71 1.250 . S
C74 O72 1.248 . S
C75 O76 1.264 . S
C75 O83 1.249 . S
O76 C75 1.264 . S
O77 Mg70 1.986 . S
O77 C81 1.246 . S
O78 Mg73 2.032 . S
O78 C81 1.259 . S
O79 Mg70 2.114 . S
O79 C82 1.252 . S
O80 Mg70 2.251 . S
O80 Mg73 2.079 . S
O80 C82 1.273 . S
C81 O77 1.246 . S
C81 O78 1.259 . S
C82 O79 1.252 . S
C82 O80 1.273 . S
O83 Mg70 2.010 . S
O83 C75 1.249 . S
Mg84 O85 2.028 . S
Mg84 O91 1.986 . S
Mg84 O93 2.114 . S
Mg84 O94 2.251 . S
Mg84 O97 2.010 . S
O85 Mg84 2.028 . S
O85 C88 1.250 . S
O86 Mg87 2.028 . S
O86 C88 1.248 . S
Mg87 O86 2.028 . S
Mg87 O92 2.032 . S
Mg87 O94 2.079 . S
C88 O85 1.250 . S
C88 O86 1.248 . S
C89 O90 1.264 . S
C89 O97 1.249 . S
O90 C89 1.264 . S
O91 Mg84 1.986 . S
O91 C95 1.246 . S
O92 Mg87 2.032 . S
O92 C95 1.259 . S
O93 Mg84 2.114 . S
O93 C96 1.252 . S
O94 Mg84 2.251 . S
O94 Mg87 2.079 . S
O94 C96 1.273 . S
C95 O91 1.246 . S
C95 O92 1.259 . S
C96 O93 1.252 . S
C96 O94 1.273 . S
O97 Mg84 2.010 . S
O97 C89 1.249 . S
Mg98 O99 2.028 . S
Mg98 O105 1.986 . S
Mg98 O107 2.114 . S
Mg98 O108 2.251 . S
Mg98 O111 2.010 . S
O99 Mg98 2.028 . S
O99 C102 1.250 . S
O100 Mg101 2.028 . S
O100 C102 1.248 . S
Mg101 O100 2.028 . S
Mg101 O106 2.032 . S
Mg101 O108 2.079 . S
C102 O99 1.250 . S
C102 O100 1.248 . S
C103 O104 1.264 . S
C103 O111 1.249 . S
O104 C103 1.264 . S
O105 Mg98 1.986 . S
O105 C109 1.246 . S
O106 Mg101 2.032 . S
O106 C109 1.259 . S
O107 Mg98 2.114 . S
O107 C110 1.252 . S
O108 Mg98 2.251 . S
O108 Mg101 2.079 . S
O108 C110 1.273 . S
C109 O105 1.246 . S
C109 O106 1.259 . S
C110 O107 1.252 . S
C110 O108 1.273 . S
O111 Mg98 2.010 . S
O111 C103 1.249 . S
Mg112 O113 2.028 . S
Mg112 O119 1.986 . S
Mg112 O121 2.114 . S
Mg112 O122 2.251 . S
Mg112 O125 2.010 . S
O113 Mg112 2.028 . S
O113 C116 1.250 . S
O114 Mg115 2.028 . S
O114 C116 1.248 . S
Mg115 O114 2.028 . S
Mg115 O120 2.032 . S
Mg115 O122 2.079 . S
C116 O113 1.250 . S
C116 O114 1.248 . S
C117 O118 1.264 . S
C117 O125 1.249 . S
O118 C117 1.264 . S
O119 Mg112 1.986 . S
O119 C123 1.246 . S
O120 Mg115 2.032 . S
O120 C123 1.259 . S
O121 Mg112 2.114 . S
O121 C124 1.252 . S
O122 Mg112 2.251 . S
O122 Mg115 2.079 . S
O122 C124 1.273 . S
C123 O119 1.246 . S
C123 O120 1.259 . S
C124 O121 1.252 . S
C124 O122 1.273 . S
O125 Mg112 2.010 . S
O125 C117 1.249 . S
Mg126 O127 2.028 . S
Mg126 O133 1.986 . S
Mg126 O135 2.114 . S
Mg126 O136 2.251 . S
Mg126 O139 2.010 . S
O127 Mg126 2.028 . S
O127 C130 1.250 . S
O128 Mg129 2.028 . S
O128 C130 1.248 . S
Mg129 O128 2.028 . S
Mg129 O134 2.032 . S
Mg129 O136 2.079 . S
C130 O127 1.250 . S
C130 O128 1.248 . S
C131 O132 1.264 . S
C131 O139 1.249 . S
O132 C131 1.264 . S
O133 Mg126 1.986 . S
O133 C137 1.246 . S
O134 Mg129 2.032 . S
O134 C137 1.259 . S
O135 Mg126 2.114 . S
O135 C138 1.252 . S
O136 Mg126 2.251 . S
O136 Mg129 2.079 . S
O136 C138 1.273 . S
C137 O133 1.246 . S
C137 O134 1.259 . S
C138 O135 1.252 . S
C138 O136 1.273 . S
O139 Mg126 2.010 . S
O139 C131 1.249 . S
Mg140 O141 2.028 . S
Mg140 O147 1.986 . S
Mg140 O149 2.114 . S
Mg140 O150 2.251 . S
Mg140 O153 2.010 . S
O141 Mg140 2.028 . S
O141 C144 1.250 . S
O142 Mg143 2.028 . S
O142 C144 1.248 . S
Mg143 O142 2.028 . S
Mg143 O148 2.032 . S
Mg143 O150 2.079 . S
C144 O141 1.250 . S
C144 O142 1.248 . S
C145 O146 1.264 . S
C145 O153 1.249 . S
O146 C145 1.264 . S
O147 Mg140 1.986 . S
O147 C151 1.246 . S
O148 Mg143 2.032 . S
O148 C151 1.259 . S
O149 Mg140 2.114 . S
O149 C152 1.252 . S
O150 Mg140 2.251 . S
O150 Mg143 2.079 . S
O150 C152 1.273 . S
C151 O147 1.246 . S
C151 O148 1.259 . S
C152 O149 1.252 . S
C152 O150 1.273 . S
O153 Mg140 2.010 . S
O153 C145 1.249 . S
Mg154 O155 2.028 . S
Mg154 O161 1.986 . S
Mg154 O163 2.114 . S
Mg154 O164 2.251 . S
Mg154 O167 2.010 . S
O155 Mg154 2.028 . S
O155 C158 1.250 . S
O156 Mg157 2.028 . S
O156 C158 1.248 . S
Mg157 O156 2.028 . S
Mg157 O162 2.032 . S
Mg157 O164 2.079 . S
C158 O155 1.250 . S
C158 O156 1.248 . S
C159 O160 1.264 . S
C159 O167 1.249 . S
O160 C159 1.264 . S
O161 Mg154 1.986 . S
O161 C165 1.246 . S
O162 Mg157 2.032 . S
O162 C165 1.259 . S
O163 Mg154 2.114 . S
O163 C166 1.252 . S
O164 Mg154 2.251 . S
O164 Mg157 2.079 . S
O164 C166 1.273 . S
C165 O161 1.246 . S
C165 O162 1.259 . S
C166 O163 1.252 . S
C166 O164 1.273 . S
O167 Mg154 2.010 . S
O167 C159 1.249 . S
Mg168 O169 2.028 . S
Mg168 O175 1.986 . S
Mg168 O177 2.114 . S
Mg168 O178 2.251 . S
Mg168 O181 2.010 . S
O169 Mg168 2.028 . S
O169 C172 1.250 . S
O170 Mg171 2.028 . S
O170 C172 1.248 . S
Mg171 O170 2.028 . S
Mg171 O176 2.032 . S
Mg171 O178 2.079 . S
C172 O169 1.250 . S
C172 O170 1.248 . S
C173 O174 1.264 . S
C173 O181 1.249 . S
O174 C173 1.264 . S
O175 Mg168 1.986 . S
O175 C179 1.246 . S
O176 Mg171 2.032 . S
O176 C179 1.259 . S
O177 Mg168 2.114 . S
O177 C180 1.252 . S
O178 Mg168 2.251 . S
O178 Mg171 2.079 . S
O178 C180 1.273 . S
C179 O175 1.246 . S
C179 O176 1.259 . S
C180 O177 1.252 . S
C180 O178 1.273 . S
O181 Mg168 2.010 . S
O181 C173 1.249 . S
Mg182 O183 2.028 . S
Mg182 O189 1.986 . S
Mg182 O191 2.114 . S
Mg182 O192 2.251 . S
Mg182 O195 2.010 . S
O183 Mg182 2.028 . S
O183 C186 1.250 . S
O184 Mg185 2.028 . S
O184 C186 1.248 . S
Mg185 O184 2.028 . S
Mg185 O190 2.032 . S
Mg185 O192 2.079 . S
C186 O183 1.250 . S
C186 O184 1.248 . S
C187 O188 1.264 . S
C187 O195 1.249 . S
O188 C187 1.264 . S
O189 Mg182 1.986 . S
O189 C193 1.246 . S
O190 Mg185 2.032 . S
O190 C193 1.259 . S
O191 Mg182 2.114 . S
O191 C194 1.252 . S
O192 Mg182 2.251 . S
O192 Mg185 2.079 . S
O192 C194 1.273 . S
C193 O189 1.246 . S
C193 O190 1.259 . S
C194 O191 1.252 . S
C194 O192 1.273 . S
O195 Mg182 2.010 . S
O195 C187 1.249 . S
Mg196 O197 2.028 . S
Mg196 O203 1.986 . S
Mg196 O205 2.114 . S
Mg196 O206 2.251 . S
Mg196 O209 2.010 . S
O197 Mg196 2.028 . S
O197 C200 1.250 . S
O198 Mg199 2.028 . S
O198 C200 1.248 . S
Mg199 O198 2.028 . S
Mg199 O204 2.032 . S
Mg199 O206 2.079 . S
C200 O197 1.250 . S
C200 O198 1.248 . S
C201 O202 1.264 . S
C201 O209 1.249 . S
O202 C201 1.264 . S
O203 Mg196 1.986 . S
O203 C207 1.246 . S
O204 Mg199 2.032 . S
O204 C207 1.259 . S
O205 Mg196 2.114 . S
O205 C208 1.252 . S
O206 Mg196 2.251 . S
O206 Mg199 2.079 . S
O206 C208 1.273 . S
C207 O203 1.246 . S
C207 O204 1.259 . S
C208 O205 1.252 . S
C208 O206 1.273 . S
O209 Mg196 2.010 . S
O209 C201 1.249 . S
Mg210 O211 2.028 . S
Mg210 O217 1.986 . S
Mg210 O219 2.114 . S
Mg210 O220 2.251 . S
Mg210 O223 2.010 . S
O211 Mg210 2.028 . S
O211 C214 1.250 . S
O212 Mg213 2.028 . S
O212 C214 1.248 . S
Mg213 O212 2.028 . S
Mg213 O218 2.032 . S
Mg213 O220 2.079 . S
C214 O211 1.250 . S
C214 O212 1.248 . S
C215 O216 1.264 . S
C215 O223 1.249 . S
O216 C215 1.264 . S
O217 Mg210 1.986 . S
O217 C221 1.246 . S
O218 Mg213 2.032 . S
O218 C221 1.259 . S
O219 Mg210 2.114 . S
O219 C222 1.252 . S
O220 Mg210 2.251 . S
O220 Mg213 2.079 . S
O220 C222 1.273 . S
C221 O217 1.246 . S
C221 O218 1.259 . S
C222 O219 1.252 . S
C222 O220 1.273 . S
O223 Mg210 2.010 . S
O223 C215 1.249 . S
Mg224 O225 2.028 . S
Mg224 O231 1.986 . S
Mg224 O233 2.114 . S
Mg224 O234 2.251 . S
Mg224 O237 2.010 . S
O225 Mg224 2.028 . S
O225 C228 1.250 . S
O226 Mg227 2.028 . S
O226 C228 1.248 . S
Mg227 O226 2.028 . S
Mg227 O232 2.032 . S
Mg227 O234 2.079 . S
C228 O225 1.250 . S
C228 O226 1.248 . S
C229 O230 1.264 . S
C229 O237 1.249 . S
O230 C229 1.264 . S
O231 Mg224 1.986 . S
O231 C235 1.246 . S
O232 Mg227 2.032 . S
O232 C235 1.259 . S
O233 Mg224 2.114 . S
O233 C236 1.252 . S
O234 Mg224 2.251 . S
O234 Mg227 2.079 . S
O234 C236 1.273 . S
C235 O231 1.246 . S
C235 O232 1.259 . S
C236 O233 1.252 . S
C236 O234 1.273 . S
O237 Mg224 2.010 . S
O237 C229 1.249 . S
Mg238 O239 2.028 . S
Mg238 O245 1.986 . S
Mg238 O247 2.114 . S
Mg238 O248 2.251 . S
Mg238 O251 2.010 . S
O239 Mg238 2.028 . S
O239 C242 1.250 . S
O240 Mg241 2.028 . S
O240 C242 1.248 . S
Mg241 O240 2.028 . S
Mg241 O246 2.032 . S
Mg241 O248 2.079 . S
C242 O239 1.250 . S
C242 O240 1.248 . S
C243 O244 1.264 . S
C243 O251 1.249 . S
O244 C243 1.264 . S
O245 Mg238 1.986 . S
O245 C249 1.246 . S
O246 Mg241 2.032 . S
O246 C249 1.259 . S
O247 Mg238 2.114 . S
O247 C250 1.252 . S
O248 Mg238 2.251 . S
O248 Mg241 2.079 . S
O248 C250 1.273 . S
C249 O245 1.246 . S
C249 O246 1.259 . S
C250 O247 1.252 . S
C250 O248 1.273 . S
O251 Mg238 2.010 . S
O251 C243 1.249 . S
Mg252 O253 2.028 . S
Mg252 O259 1.986 . S
Mg252 O261 2.114 . S
Mg252 O262 2.251 . S
Mg252 O265 2.010 . S
O253 Mg252 2.028 . S
O253 C256 1.250 . S
O254 Mg255 2.028 . S
O254 C256 1.248 . S
Mg255 O254 2.028 . S
Mg255 O260 2.032 . S
Mg255 O262 2.079 . S
C256 O253 1.250 . S
C256 O254 1.248 . S
C257 O258 1.264 . S
C257 O265 1.249 . S
O258 C257 1.264 . S
O259 Mg252 1.986 . S
O259 C263 1.246 . S
O260 Mg255 2.032 . S
O260 C263 1.259 . S
O261 Mg252 2.114 . S
O261 C264 1.252 . S
O262 Mg252 2.251 . S
O262 Mg255 2.079 . S
O262 C264 1.273 . S
C263 O259 1.246 . S
C263 O260 1.259 . S
C264 O261 1.252 . S
C264 O262 1.273 . S
O265 Mg252 2.010 . S
O265 C257 1.249 . S
Mg266 O267 2.028 . S
Mg266 O273 1.986 . S
Mg266 O275 2.114 . S
Mg266 O276 2.251 . S
Mg266 O279 2.010 . S
O267 Mg266 2.028 . S
O267 C270 1.250 . S
O268 Mg269 2.028 . S
O268 C270 1.248 . S
Mg269 O268 2.028 . S
Mg269 O274 2.032 . S
Mg269 O276 2.079 . S
C270 O267 1.250 . S
C270 O268 1.248 . S
C271 O272 1.264 . S
C271 O279 1.249 . S
O272 C271 1.264 . S
O273 Mg266 1.986 . S
O273 C277 1.246 . S
O274 Mg269 2.032 . S
O274 C277 1.259 . S
O275 Mg266 2.114 . S
O275 C278 1.252 . S
O276 Mg266 2.251 . S
O276 Mg269 2.079 . S
O276 C278 1.273 . S
C277 O273 1.246 . S
C277 O274 1.259 . S
C278 O275 1.252 . S
C278 O276 1.273 . S
O279 Mg266 2.010 . S
O279 C271 1.249 . S
Mg280 O281 2.028 . S
Mg280 O287 1.986 . S
Mg280 O289 2.114 . S
Mg280 O290 2.251 . S
Mg280 O293 2.010 . S
O281 Mg280 2.028 . S
O281 C284 1.250 . S
O282 Mg283 2.028 . S
O282 C284 1.248 . S
Mg283 O282 2.028 . S
Mg283 O288 2.032 . S
Mg283 O290 2.079 . S
C284 O281 1.250 . S
C284 O282 1.248 . S
C285 O286 1.264 . S
C285 O293 1.249 . S
O286 C285 1.264 . S
O287 Mg280 1.986 . S
O287 C291 1.246 . S
O288 Mg283 2.032 . S
O288 C291 1.259 . S
O289 Mg280 2.114 . S
O289 C292 1.252 . S
O290 Mg280 2.251 . S
O290 Mg283 2.079 . S
O290 C292 1.273 . S
C291 O287 1.246 . S
C291 O288 1.259 . S
C292 O289 1.252 . S
C292 O290 1.273 . S
O293 Mg280 2.010 . S
O293 C285 1.249 . S
Mg294 O295 2.028 . S
Mg294 O301 1.986 . S
Mg294 O303 2.114 . S
Mg294 O304 2.251 . S
Mg294 O307 2.010 . S
O295 Mg294 2.028 . S
O295 C298 1.250 . S
O296 Mg297 2.028 . S
O296 C298 1.248 . S
Mg297 O296 2.028 . S
Mg297 O302 2.032 . S
Mg297 O304 2.079 . S
C298 O295 1.250 . S
C298 O296 1.248 . S
C299 O300 1.264 . S
C299 O307 1.249 . S
O300 C299 1.264 . S
O301 Mg294 1.986 . S
O301 C305 1.246 . S
O302 Mg297 2.032 . S
O302 C305 1.259 . S
O303 Mg294 2.114 . S
O303 C306 1.252 . S
O304 Mg294 2.251 . S
O304 Mg297 2.079 . S
O304 C306 1.273 . S
C305 O301 1.246 . S
C305 O302 1.259 . S
C306 O303 1.252 . S
C306 O304 1.273 . S
O307 Mg294 2.010 . S
O307 C299 1.249 . S
Mg308 O309 2.028 . S
Mg308 O315 1.986 . S
Mg308 O317 2.114 . S
Mg308 O318 2.251 . S
Mg308 O321 2.010 . S
O309 Mg308 2.028 . S
O309 C312 1.250 . S
O310 Mg311 2.028 . S
O310 C312 1.248 . S
Mg311 O310 2.028 . S
Mg311 O316 2.032 . S
Mg311 O318 2.079 . S
C312 O309 1.250 . S
C312 O310 1.248 . S
C313 O314 1.264 . S
C313 O321 1.249 . S
O314 C313 1.264 . S
O315 Mg308 1.986 . S
O315 C319 1.246 . S
O316 Mg311 2.032 . S
O316 C319 1.259 . S
O317 Mg308 2.114 . S
O317 C320 1.252 . S
O318 Mg308 2.251 . S
O318 Mg311 2.079 . S
O318 C320 1.273 . S
C319 O315 1.246 . S
C319 O316 1.259 . S
C320 O317 1.252 . S
C320 O318 1.273 . S
O321 Mg308 2.010 . S
O321 C313 1.249 . S
Mg322 O323 2.028 . S
Mg322 O329 1.986 . S
Mg322 O331 2.114 . S
Mg322 O332 2.251 . S
Mg322 O335 2.010 . S
O323 Mg322 2.028 . S
O323 C326 1.250 . S
O324 Mg325 2.028 . S
O324 C326 1.248 . S
Mg325 O324 2.028 . S
Mg325 O330 2.032 . S
Mg325 O332 2.079 . S
C326 O323 1.250 . S
C326 O324 1.248 . S
C327 O328 1.264 . S
C327 O335 1.249 . S
O328 C327 1.264 . S
O329 Mg322 1.986 . S
O329 C333 1.246 . S
O330 Mg325 2.032 . S
O330 C333 1.259 . S
O331 Mg322 2.114 . S
O331 C334 1.252 . S
O332 Mg322 2.251 . S
O332 Mg325 2.079 . S
O332 C334 1.273 . S
C333 O329 1.246 . S
C333 O330 1.259 . S
C334 O331 1.252 . S
C334 O332 1.273 . S
O335 Mg322 2.010 . S
O335 C327 1.249 . S
H336 C344 0.950 . S
H337 C349 0.950 . S
H338 C346 0.950 . S
H339 C348 0.950 . S
H340 C350 0.950 . S
H341 C352 0.950 . S
H342 C354 0.950 . S
H343 C355 0.950 . S
C344 H336 0.950 . S
C344 C345 1.386 . S
C344 C346 1.391 . S
C345 C344 1.386 . S
C345 C349 1.393 . S
C346 H338 0.950 . S
C346 C344 1.391 . S
C346 C347 1.400 . S
C347 C346 1.400 . S
C347 C348 1.398 . S
C347 C353 1.491 . S
C348 H339 0.950 . S
C348 C347 1.398 . S
C348 C349 1.391 . S
C349 H337 0.950 . S
C349 C345 1.393 . S
C349 C348 1.391 . S
C350 H340 0.950 . S
C350 C351 1.386 . S
C350 C352 1.391 . S
C351 C350 1.386 . S
C351 C355 1.393 . S
C352 H341 0.950 . S
C352 C350 1.391 . S
C352 C353 1.400 . S
C353 C347 1.491 . S
C353 C352 1.400 . S
C353 C354 1.398 . S
C354 H342 0.950 . S
C354 C353 1.398 . S
C354 C355 1.391 . S
C355 H343 0.950 . S
C355 C351 1.393 . S
C355 C354 1.391 . S
H356 C364 0.950 . S
H357 C369 0.950 . S
H358 C366 0.950 . S
H359 C368 0.950 . S
H360 C370 0.950 . S
H361 C372 0.950 . S
H362 C374 0.950 . S
H363 C375 0.950 . S
C364 H356 0.950 . S
C364 C365 1.386 . S
C364 C366 1.391 . S
C365 C364 1.386 . S
C365 C369 1.393 . S
C366 H358 0.950 . S
C366 C364 1.391 . S
C366 C367 1.400 . S
C367 C366 1.400 . S
C367 C368 1.398 . S
C367 C373 1.491 . S
C368 H359 0.950 . S
C368 C367 1.398 . S
C368 C369 1.391 . S
C369 H357 0.950 . S
C369 C365 1.393 . S
C369 C368 1.391 . S
C370 H360 0.950 . S
C370 C371 1.386 . S
C370 C372 1.391 . S
C371 C370 1.386 . S
C371 C375 1.393 . S
C372 H361 0.950 . S
C372 C370 1.391 . S
C372 C373 1.400 . S
C373 C367 1.491 . S
C373 C372 1.400 . S
C373 C374 1.398 . S
C374 H362 0.950 . S
C374 C373 1.398 . S
C374 C375 1.391 . S
C375 H363 0.950 . S
C375 C371 1.393 . S
C375 C374 1.391 . S
H376 C384 0.950 . S
H377 C389 0.950 . S
H378 C386 0.950 . S
H379 C388 0.950 . S
H380 C390 0.950 . S
H381 C392 0.950 . S
H382 C394 0.950 . S
H383 C395 0.950 . S
C384 H376 0.950 . S
C384 C385 1.386 . S
C384 C386 1.391 . S
C385 C384 1.386 . S
C385 C389 1.393 . S
C386 H378 0.950 . S
C386 C384 1.391 . S
C386 C387 1.400 . S
C387 C386 1.400 . S
C387 C388 1.398 . S
C387 C393 1.491 . S
C388 H379 0.950 . S
C388 C387 1.398 . S
C388 C389 1.391 . S
C389 H377 0.950 . S
C389 C385 1.393 . S
C389 C388 1.391 . S
C390 H380 0.950 . S
C390 C391 1.386 . S
C390 C392 1.391 . S
C391 C390 1.386 . S
C391 C395 1.393 . S
C392 H381 0.950 . S
C392 C390 1.391 . S
C392 C393 1.400 . S
C393 C387 1.491 . S
C393 C392 1.400 . S
C393 C394 1.398 . S
C394 H382 0.950 . S
C394 C393 1.398 . S
C394 C395 1.391 . S
C395 H383 0.950 . S
C395 C391 1.393 . S
C395 C394 1.391 . S
H396 C404 0.950 . S
H397 C409 0.950 . S
H398 C406 0.950 . S
H399 C408 0.950 . S
H400 C410 0.950 . S
H401 C412 0.950 . S
H402 C414 0.950 . S
H403 C415 0.950 . S
C404 H396 0.950 . S
C404 C405 1.386 . S
C404 C406 1.391 . S
C405 C404 1.386 . S
C405 C409 1.393 . S
C406 H398 0.950 . S
C406 C404 1.391 . S
C406 C407 1.400 . S
C407 C406 1.400 . S
C407 C408 1.398 . S
C407 C413 1.491 . S
C408 H399 0.950 . S
C408 C407 1.398 . S
C408 C409 1.391 . S
C409 H397 0.950 . S
C409 C405 1.393 . S
C409 C408 1.391 . S
C410 H400 0.950 . S
C410 C411 1.386 . S
C410 C412 1.391 . S
C411 C410 1.386 . S
C411 C415 1.393 . S
C412 H401 0.950 . S
C412 C410 1.391 . S
C412 C413 1.400 . S
C413 C407 1.491 . S
C413 C412 1.400 . S
C413 C414 1.398 . S
C414 H402 0.950 . S
C414 C413 1.398 . S
C414 C415 1.391 . S
C415 H403 0.950 . S
C415 C411 1.393 . S
C415 C414 1.391 . S
H416 C424 0.950 . S
H417 C429 0.950 . S
H418 C426 0.950 . S
H419 C428 0.950 . S
H420 C430 0.950 . S
H421 C432 0.950 . S
H422 C434 0.950 . S
H423 C435 0.950 . S
C424 H416 0.950 . S
C424 C425 1.386 . S
C424 C426 1.391 . S
C425 C424 1.386 . S
C425 C429 1.393 . S
C426 H418 0.950 . S
C426 C424 1.391 . S
C426 C427 1.400 . S
C427 C426 1.400 . S
C427 C428 1.398 . S
C427 C433 1.491 . S
C428 H419 0.950 . S
C428 C427 1.398 . S
C428 C429 1.391 . S
C429 H417 0.950 . S
C429 C425 1.393 . S
C429 C428 1.391 . S
C430 H420 0.950 . S
C430 C431 1.386 . S
C430 C432 1.391 . S
C431 C430 1.386 . S
C431 C435 1.393 . S
C432 H421 0.950 . S
C432 C430 1.391 . S
C432 C433 1.400 . S
C433 C427 1.491 . S
C433 C432 1.400 . S
C433 C434 1.398 . S
C434 H422 0.950 . S
C434 C433 1.398 . S
C434 C435 1.391 . S
C435 H423 0.950 . S
C435 C431 1.393 . S
C435 C434 1.391 . S
H436 C444 0.950 . S
H437 C449 0.950 . S
H438 C446 0.950 . S
H439 C448 0.950 . S
H440 C450 0.950 . S
H441 C452 0.950 . S
H442 C454 0.950 . S
H443 C455 0.950 . S
C444 H436 0.950 . S
C444 C445 1.386 . S
C444 C446 1.391 . S
C445 C444 1.386 . S
C445 C449 1.393 . S
C446 H438 0.950 . S
C446 C444 1.391 . S
C446 C447 1.400 . S
C447 C446 1.400 . S
C447 C448 1.398 . S
C447 C453 1.491 . S
C448 H439 0.950 . S
C448 C447 1.398 . S
C448 C449 1.391 . S
C449 H437 0.950 . S
C449 C445 1.393 . S
C449 C448 1.391 . S
C450 H440 0.950 . S
C450 C451 1.386 . S
C450 C452 1.391 . S
C451 C450 1.386 . S
C451 C455 1.393 . S
C452 H441 0.950 . S
C452 C450 1.391 . S
C452 C453 1.400 . S
C453 C447 1.491 . S
C453 C452 1.400 . S
C453 C454 1.398 . S
C454 H442 0.950 . S
C454 C453 1.398 . S
C454 C455 1.391 . S
C455 H443 0.950 . S
C455 C451 1.393 . S
C455 C454 1.391 . S
H456 C464 0.950 . S
H457 C469 0.950 . S
H458 C466 0.950 . S
H459 C468 0.950 . S
H460 C470 0.950 . S
H461 C472 0.950 . S
H462 C474 0.950 . S
H463 C475 0.950 . S
C464 H456 0.950 . S
C464 C465 1.386 . S
C464 C466 1.391 . S
C465 C464 1.386 . S
C465 C469 1.393 . S
C466 H458 0.950 . S
C466 C464 1.391 . S
C466 C467 1.400 . S
C467 C466 1.400 . S
C467 C468 1.398 . S
C467 C473 1.491 . S
C468 H459 0.950 . S
C468 C467 1.398 . S
C468 C469 1.391 . S
C469 H457 0.950 . S
C469 C465 1.393 . S
C469 C468 1.391 . S
C470 H460 0.950 . S
C470 C471 1.386 . S
C470 C472 1.391 . S
C471 C470 1.386 . S
C471 C475 1.393 . S
C472 H461 0.950 . S
C472 C470 1.391 . S
C472 C473 1.400 . S
C473 C467 1.491 . S
C473 C472 1.400 . S
C473 C474 1.398 . S
C474 H462 0.950 . S
C474 C473 1.398 . S
C474 C475 1.391 . S
C475 H463 0.950 . S
C475 C471 1.393 . S
C475 C474 1.391 . S
H476 C484 0.950 . S
H477 C489 0.950 . S
H478 C486 0.950 . S
H479 C488 0.950 . S
H480 C490 0.950 . S
H481 C492 0.950 . S
H482 C494 0.950 . S
H483 C495 0.950 . S
C484 H476 0.950 . S
C484 C485 1.386 . S
C484 C486 1.391 . S
C485 C484 1.386 . S
C485 C489 1.393 . S
C486 H478 0.950 . S
C486 C484 1.391 . S
C486 C487 1.400 . S
C487 C486 1.400 . S
C487 C488 1.398 . S
C487 C493 1.491 . S
C488 H479 0.950 . S
C488 C487 1.398 . S
C488 C489 1.391 . S
C489 H477 0.950 . S
C489 C485 1.393 . S
C489 C488 1.391 . S
C490 H480 0.950 . S
C490 C491 1.386 . S
C490 C492 1.391 . S
C491 C490 1.386 . S
C491 C495 1.393 . S
C492 H481 0.950 . S
C492 C490 1.391 . S
C492 C493 1.400 . S
C493 C487 1.491 . S
C493 C492 1.400 . S
C493 C494 1.398 . S
C494 H482 0.950 . S
C494 C493 1.398 . S
C494 C495 1.391 . S
C495 H483 0.950 . S
C495 C491 1.393 . S
C495 C494 1.391 . S
H496 C504 0.950 . S
H497 C509 0.950 . S
H498 C506 0.950 . S
H499 C508 0.950 . S
H500 C510 0.950 . S
H501 C512 0.950 . S
H502 C514 0.950 . S
H503 C515 0.950 . S
C504 H496 0.950 . S
C504 C505 1.386 . S
C504 C506 1.391 . S
C505 C504 1.386 . S
C505 C509 1.393 . S
C506 H498 0.950 . S
C506 C504 1.391 . S
C506 C507 1.400 . S
C507 C506 1.400 . S
C507 C508 1.398 . S
C507 C513 1.491 . S
C508 H499 0.950 . S
C508 C507 1.398 . S
C508 C509 1.391 . S
C509 H497 0.950 . S
C509 C505 1.393 . S
C509 C508 1.391 . S
C510 H500 0.950 . S
C510 C511 1.386 . S
C510 C512 1.391 . S
C511 C510 1.386 . S
C511 C515 1.393 . S
C512 H501 0.950 . S
C512 C510 1.391 . S
C512 C513 1.400 . S
C513 C507 1.491 . S
C513 C512 1.400 . S
C513 C514 1.398 . S
C514 H502 0.950 . S
C514 C513 1.398 . S
C514 C515 1.391 . S
C515 H503 0.950 . S
C515 C511 1.393 . S
C515 C514 1.391 . S
H516 C524 0.950 . S
H517 C529 0.950 . S
H518 C526 0.950 . S
H519 C528 0.950 . S
H520 C530 0.950 . S
H521 C532 0.950 . S
H522 C534 0.950 . S
H523 C535 0.950 . S
C524 H516 0.950 . S
C524 C525 1.386 . S
C524 C526 1.391 . S
C525 C524 1.386 . S
C525 C529 1.393 . S
C526 H518 0.950 . S
C526 C524 1.391 . S
C526 C527 1.400 . S
C527 C526 1.400 . S
C527 C528 1.398 . S
C527 C533 1.491 . S
C528 H519 0.950 . S
C528 C527 1.398 . S
C528 C529 1.391 . S
C529 H517 0.950 . S
C529 C525 1.393 . S
C529 C528 1.391 . S
C530 H520 0.950 . S
C530 C531 1.386 . S
C530 C532 1.391 . S
C531 C530 1.386 . S
C531 C535 1.393 . S
C532 H521 0.950 . S
C532 C530 1.391 . S
C532 C533 1.400 . S
C533 C527 1.491 . S
C533 C532 1.400 . S
C533 C534 1.398 . S
C534 H522 0.950 . S
C534 C533 1.398 . S
C534 C535 1.391 . S
C535 H523 0.950 . S
C535 C531 1.393 . S
C535 C534 1.391 . S
H536 C544 0.950 . S
H537 C549 0.950 . S
H538 C546 0.950 . S
H539 C548 0.950 . S
H540 C550 0.950 . S
H541 C552 0.950 . S
H542 C554 0.950 . S
H543 C555 0.950 . S
C544 H536 0.950 . S
C544 C545 1.386 . S
C544 C546 1.391 . S
C545 C544 1.386 . S
C545 C549 1.393 . S
C546 H538 0.950 . S
C546 C544 1.391 . S
C546 C547 1.400 . S
C547 C546 1.400 . S
C547 C548 1.398 . S
C547 C553 1.491 . S
C548 H539 0.950 . S
C548 C547 1.398 . S
C548 C549 1.391 . S
C549 H537 0.950 . S
C549 C545 1.393 . S
C549 C548 1.391 . S
C550 H540 0.950 . S
C550 C551 1.386 . S
C550 C552 1.391 . S
C551 C550 1.386 . S
C551 C555 1.393 . S
C552 H541 0.950 . S
C552 C550 1.391 . S
C552 C553 1.400 . S
C553 C547 1.491 . S
C553 C552 1.400 . S
C553 C554 1.398 . S
C554 H542 0.950 . S
C554 C553 1.398 . S
C554 C555 1.391 . S
C555 H543 0.950 . S
C555 C551 1.393 . S
C555 C554 1.391 . S
H556 C564 0.950 . S
H557 C569 0.950 . S
H558 C566 0.950 . S
H559 C568 0.950 . S
H560 C570 0.950 . S
H561 C572 0.950 . S
H562 C574 0.950 . S
H563 C575 0.950 . S
C564 H556 0.950 . S
C564 C565 1.386 . S
C564 C566 1.391 . S
C565 C564 1.386 . S
C565 C569 1.393 . S
C566 H558 0.950 . S
C566 C564 1.391 . S
C566 C567 1.400 . S
C567 C566 1.400 . S
C567 C568 1.398 . S
C567 C573 1.491 . S
C568 H559 0.950 . S
C568 C567 1.398 . S
C568 C569 1.391 . S
C569 H557 0.950 . S
C569 C565 1.393 . S
C569 C568 1.391 . S
C570 H560 0.950 . S
C570 C571 1.386 . S
C570 C572 1.391 . S
C571 C570 1.386 . S
C571 C575 1.393 . S
C572 H561 0.950 . S
C572 C570 1.391 . S
C572 C573 1.400 . S
C573 C567 1.491 . S
C573 C572 1.400 . S
C573 C574 1.398 . S
C574 H562 0.950 . S
C574 C573 1.398 . S
C574 C575 1.391 . S
C575 H563 0.950 . S
C575 C571 1.393 . S
C575 C574 1.391 . S
H576 C584 0.950 . S
H577 C589 0.950 . S
H578 C586 0.950 . S
H579 C588 0.950 . S
H580 C590 0.950 . S
H581 C592 0.950 . S
H582 C594 0.950 . S
H583 C595 0.950 . S
C584 H576 0.950 . S
C584 C585 1.386 . S
C584 C586 1.391 . S
C585 C584 1.386 . S
C585 C589 1.393 . S
C586 H578 0.950 . S
C586 C584 1.391 . S
C586 C587 1.400 . S
C587 C586 1.400 . S
C587 C588 1.398 . S
C587 C593 1.491 . S
C588 H579 0.950 . S
C588 C587 1.398 . S
C588 C589 1.391 . S
C589 H577 0.950 . S
C589 C585 1.393 . S
C589 C588 1.391 . S
C590 H580 0.950 . S
C590 C591 1.386 . S
C590 C592 1.391 . S
C591 C590 1.386 . S
C591 C595 1.393 . S
C592 H581 0.950 . S
C592 C590 1.391 . S
C592 C593 1.400 . S
C593 C587 1.491 . S
C593 C592 1.400 . S
C593 C594 1.398 . S
C594 H582 0.950 . S
C594 C593 1.398 . S
C594 C595 1.391 . S
C595 H583 0.950 . S
C595 C591 1.393 . S
C595 C594 1.391 . S
H596 C604 0.950 . S
H597 C609 0.950 . S
H598 C606 0.950 . S
H599 C608 0.950 . S
H600 C610 0.950 . S
H601 C612 0.950 . S
H602 C614 0.950 . S
H603 C615 0.950 . S
C604 H596 0.950 . S
C604 C605 1.386 . S
C604 C606 1.391 . S
C605 C604 1.386 . S
C605 C609 1.393 . S
C606 H598 0.950 . S
C606 C604 1.391 . S
C606 C607 1.400 . S
C607 C606 1.400 . S
C607 C608 1.398 . S
C607 C613 1.491 . S
C608 H599 0.950 . S
C608 C607 1.398 . S
C608 C609 1.391 . S
C609 H597 0.950 . S
C609 C605 1.393 . S
C609 C608 1.391 . S
C610 H600 0.950 . S
C610 C611 1.386 . S
C610 C612 1.391 . S
C611 C610 1.386 . S
C611 C615 1.393 . S
C612 H601 0.950 . S
C612 C610 1.391 . S
C612 C613 1.400 . S
C613 C607 1.491 . S
C613 C612 1.400 . S
C613 C614 1.398 . S
C614 H602 0.950 . S
C614 C613 1.398 . S
C614 C615 1.391 . S
C615 H603 0.950 . S
C615 C611 1.393 . S
C615 C614 1.391 . S
H616 C624 0.950 . S
H617 C629 0.950 . S
H618 C626 0.950 . S
H619 C628 0.950 . S
H620 C630 0.950 . S
H621 C632 0.950 . S
H622 C634 0.950 . S
H623 C635 0.950 . S
C624 H616 0.950 . S
C624 C625 1.386 . S
C624 C626 1.391 . S
C625 C624 1.386 . S
C625 C629 1.393 . S
C626 H618 0.950 . S
C626 C624 1.391 . S
C626 C627 1.400 . S
C627 C626 1.400 . S
C627 C628 1.398 . S
C627 C633 1.491 . S
C628 H619 0.950 . S
C628 C627 1.398 . S
C628 C629 1.391 . S
C629 H617 0.950 . S
C629 C625 1.393 . S
C629 C628 1.391 . S
C630 H620 0.950 . S
C630 C631 1.386 . S
C630 C632 1.391 . S
C631 C630 1.386 . S
C631 C635 1.393 . S
C632 H621 0.950 . S
C632 C630 1.391 . S
C632 C633 1.400 . S
C633 C627 1.491 . S
C633 C632 1.400 . S
C633 C634 1.398 . S
C634 H622 0.950 . S
C634 C633 1.398 . S
C634 C635 1.391 . S
C635 H623 0.950 . S
C635 C631 1.393 . S
C635 C634 1.391 . S
H636 C644 0.950 . S
H637 C649 0.950 . S
H638 C646 0.950 . S
H639 C648 0.950 . S
H640 C650 0.950 . S
H641 C652 0.950 . S
H642 C654 0.950 . S
H643 C655 0.950 . S
C644 H636 0.950 . S
C644 C645 1.386 . S
C644 C646 1.391 . S
C645 C644 1.386 . S
C645 C649 1.393 . S
C646 H638 0.950 . S
C646 C644 1.391 . S
C646 C647 1.400 . S
C647 C646 1.400 . S
C647 C648 1.398 . S
C647 C653 1.491 . S
C648 H639 0.950 . S
C648 C647 1.398 . S
C648 C649 1.391 . S
C649 H637 0.950 . S
C649 C645 1.393 . S
C649 C648 1.391 . S
C650 H640 0.950 . S
C650 C651 1.386 . S
C650 C652 1.391 . S
C651 C650 1.386 . S
C651 C655 1.393 . S
C652 H641 0.950 . S
C652 C650 1.391 . S
C652 C653 1.400 . S
C653 C647 1.491 . S
C653 C652 1.400 . S
C653 C654 1.398 . S
C654 H642 0.950 . S
C654 C653 1.398 . S
C654 C655 1.391 . S
C655 H643 0.950 . S
C655 C651 1.393 . S
C655 C654 1.391 . S
H656 C664 0.950 . S
H657 C669 0.950 . S
H658 C666 0.950 . S
H659 C668 0.950 . S
H660 C670 0.950 . S
H661 C672 0.950 . S
H662 C674 0.950 . S
H663 C675 0.950 . S
C664 H656 0.950 . S
C664 C665 1.386 . S
C664 C666 1.391 . S
C665 C664 1.386 . S
C665 C669 1.393 . S
C666 H658 0.950 . S
C666 C664 1.391 . S
C666 C667 1.400 . S
C667 C666 1.400 . S
C667 C668 1.398 . S
C667 C673 1.491 . S
C668 H659 0.950 . S
C668 C667 1.398 . S
C668 C669 1.391 . S
C669 H657 0.950 . S
C669 C665 1.393 . S
C669 C668 1.391 . S
C670 H660 0.950 . S
C670 C671 1.386 . S
C670 C672 1.391 . S
C671 C670 1.386 . S
C671 C675 1.393 . S
C672 H661 0.950 . S
C672 C670 1.391 . S
C672 C673 1.400 . S
C673 C667 1.491 . S
C673 C672 1.400 . S
C673 C674 1.398 . S
C674 H662 0.950 . S
C674 C673 1.398 . S
C674 C675 1.391 . S
C675 H663 0.950 . S
C675 C671 1.393 . S
C675 C674 1.391 . S
H676 C684 0.950 . S
H677 C689 0.950 . S
H678 C686 0.950 . S
H679 C688 0.950 . S
H680 C690 0.950 . S
H681 C692 0.950 . S
H682 C694 0.950 . S
H683 C695 0.950 . S
C684 H676 0.950 . S
C684 C685 1.386 . S
C684 C686 1.391 . S
C685 C684 1.386 . S
C685 C689 1.393 . S
C686 H678 0.950 . S
C686 C684 1.391 . S
C686 C687 1.400 . S
C687 C686 1.400 . S
C687 C688 1.398 . S
C687 C693 1.491 . S
C688 H679 0.950 . S
C688 C687 1.398 . S
C688 C689 1.391 . S
C689 H677 0.950 . S
C689 C685 1.393 . S
C689 C688 1.391 . S
C690 H680 0.950 . S
C690 C691 1.386 . S
C690 C692 1.391 . S
C691 C690 1.386 . S
C691 C695 1.393 . S
C692 H681 0.950 . S
C692 C690 1.391 . S
C692 C693 1.400 . S
C693 C687 1.491 . S
C693 C692 1.400 . S
C693 C694 1.398 . S
C694 H682 0.950 . S
C694 C693 1.398 . S
C694 C695 1.391 . S
C695 H683 0.950 . S
C695 C691 1.393 . S
C695 C694 1.391 . S
H696 C704 0.950 . S
H697 C709 0.950 . S
H698 C706 0.950 . S
H699 C708 0.950 . S
H700 C710 0.950 . S
H701 C712 0.950 . S
H702 C714 0.950 . S
H703 C715 0.950 . S
C704 H696 0.950 . S
C704 C705 1.386 . S
C704 C706 1.391 . S
C705 C704 1.386 . S
C705 C709 1.393 . S
C706 H698 0.950 . S
C706 C704 1.391 . S
C706 C707 1.400 . S
C707 C706 1.400 . S
C707 C708 1.398 . S
C707 C713 1.491 . S
C708 H699 0.950 . S
C708 C707 1.398 . S
C708 C709 1.391 . S
C709 H697 0.950 . S
C709 C705 1.393 . S
C709 C708 1.391 . S
C710 H700 0.950 . S
C710 C711 1.386 . S
C710 C712 1.391 . S
C711 C710 1.386 . S
C711 C715 1.393 . S
C712 H701 0.950 . S
C712 C710 1.391 . S
C712 C713 1.400 . S
C713 C707 1.491 . S
C713 C712 1.400 . S
C713 C714 1.398 . S
C714 H702 0.950 . S
C714 C713 1.398 . S
C714 C715 1.391 . S
C715 H703 0.950 . S
C715 C711 1.393 . S
C715 C714 1.391 . S
H716 C724 0.950 . S
H717 C729 0.950 . S
H718 C726 0.950 . S
H719 C728 0.950 . S
H720 C730 0.950 . S
H721 C732 0.950 . S
H722 C734 0.950 . S
H723 C735 0.950 . S
C724 H716 0.950 . S
C724 C725 1.386 . S
C724 C726 1.391 . S
C725 C724 1.386 . S
C725 C729 1.393 . S
C726 H718 0.950 . S
C726 C724 1.391 . S
C726 C727 1.400 . S
C727 C726 1.400 . S
C727 C728 1.398 . S
C727 C733 1.491 . S
C728 H719 0.950 . S
C728 C727 1.398 . S
C728 C729 1.391 . S
C729 H717 0.950 . S
C729 C725 1.393 . S
C729 C728 1.391 . S
C730 H720 0.950 . S
C730 C731 1.386 . S
C730 C732 1.391 . S
C731 C730 1.386 . S
C731 C735 1.393 . S
C732 H721 0.950 . S
C732 C730 1.391 . S
C732 C733 1.400 . S
C733 C727 1.491 . S
C733 C732 1.400 . S
C733 C734 1.398 . S
C734 H722 0.950 . S
C734 C733 1.398 . S
C734 C735 1.391 . S
C735 H723 0.950 . S
C735 C731 1.393 . S
C735 C734 1.391 . S
H736 C744 0.950 . S
H737 C749 0.950 . S
H738 C746 0.950 . S
H739 C748 0.950 . S
H740 C750 0.950 . S
H741 C752 0.950 . S
H742 C754 0.950 . S
H743 C755 0.950 . S
C744 H736 0.950 . S
C744 C745 1.386 . S
C744 C746 1.391 . S
C745 C744 1.386 . S
C745 C749 1.393 . S
C746 H738 0.950 . S
C746 C744 1.391 . S
C746 C747 1.400 . S
C747 C746 1.400 . S
C747 C748 1.398 . S
C747 C753 1.491 . S
C748 H739 0.950 . S
C748 C747 1.398 . S
C748 C749 1.391 . S
C749 H737 0.950 . S
C749 C745 1.393 . S
C749 C748 1.391 . S
C750 H740 0.950 . S
C750 C751 1.386 . S
C750 C752 1.391 . S
C751 C750 1.386 . S
C751 C755 1.393 . S
C752 H741 0.950 . S
C752 C750 1.391 . S
C752 C753 1.400 . S
C753 C747 1.491 . S
C753 C752 1.400 . S
C753 C754 1.398 . S
C754 H742 0.950 . S
C754 C753 1.398 . S
C754 C755 1.391 . S
C755 H743 0.950 . S
C755 C751 1.393 . S
C755 C754 1.391 . S
H756 C764 0.950 . S
H757 C769 0.950 . S
H758 C766 0.950 . S
H759 C768 0.950 . S
H760 C770 0.950 . S
H761 C772 0.950 . S
H762 C774 0.950 . S
H763 C775 0.950 . S
C764 H756 0.950 . S
C764 C765 1.386 . S
C764 C766 1.391 . S
C765 C764 1.386 . S
C765 C769 1.393 . S
C766 H758 0.950 . S
C766 C764 1.391 . S
C766 C767 1.400 . S
C767 C766 1.400 . S
C767 C768 1.398 . S
C767 C773 1.491 . S
C768 H759 0.950 . S
C768 C767 1.398 . S
C768 C769 1.391 . S
C769 H757 0.950 . S
C769 C765 1.393 . S
C769 C768 1.391 . S
C770 H760 0.950 . S
C770 C771 1.386 . S
C770 C772 1.391 . S
C771 C770 1.386 . S
C771 C775 1.393 . S
C772 H761 0.950 . S
C772 C770 1.391 . S
C772 C773 1.400 . S
C773 C767 1.491 . S
C773 C772 1.400 . S
C773 C774 1.398 . S
C774 H762 0.950 . S
C774 C773 1.398 . S
C774 C775 1.391 . S
C775 H763 0.950 . S
C775 C771 1.393 . S
C775 C774 1.391 . S
H776 C784 0.950 . S
H777 C789 0.950 . S
H778 C786 0.950 . S
H779 C788 0.950 . S
H780 C790 0.950 . S
H781 C792 0.950 . S
H782 C794 0.950 . S
H783 C795 0.950 . S
C784 H776 0.950 . S
C784 C785 1.386 . S
C784 C786 1.391 . S
C785 C784 1.386 . S
C785 C789 1.393 . S
C786 H778 0.950 . S
C786 C784 1.391 . S
C786 C787 1.400 . S
C787 C786 1.400 . S
C787 C788 1.398 . S
C787 C793 1.491 . S
C788 H779 0.950 . S
C788 C787 1.398 . S
C788 C789 1.391 . S
C789 H777 0.950 . S
C789 C785 1.393 . S
C789 C788 1.391 . S
C790 H780 0.950 . S
C790 C791 1.386 . S
C790 C792 1.391 . S
C791 C790 1.386 . S
C791 C795 1.393 . S
C792 H781 0.950 . S
C792 C790 1.391 . S
C792 C793 1.400 . S
C793 C787 1.491 . S
C793 C792 1.400 . S
C793 C794 1.398 . S
C794 H782 0.950 . S
C794 C793 1.398 . S
C794 C795 1.391 . S
C795 H783 0.950 . S
C795 C791 1.393 . S
C795 C794 1.391 . S
H796 C804 0.950 . S
H797 C809 0.950 . S
H798 C806 0.950 . S
H799 C808 0.950 . S
H800 C810 0.950 . S
H801 C812 0.950 . S
H802 C814 0.950 . S
H803 C815 0.950 . S
C804 H796 0.950 . S
C804 C805 1.386 . S
C804 C806 1.391 . S
C805 C804 1.386 . S
C805 C809 1.393 . S
C806 H798 0.950 . S
C806 C804 1.391 . S
C806 C807 1.400 . S
C807 C806 1.400 . S
C807 C808 1.398 . S
C807 C813 1.491 . S
C808 H799 0.950 . S
C808 C807 1.398 . S
C808 C809 1.391 . S
C809 H797 0.950 . S
C809 C805 1.393 . S
C809 C808 1.391 . S
C810 H800 0.950 . S
C810 C811 1.386 . S
C810 C812 1.391 . S
C811 C810 1.386 . S
C811 C815 1.393 . S
C812 H801 0.950 . S
C812 C810 1.391 . S
C812 C813 1.400 . S
C813 C807 1.491 . S
C813 C812 1.400 . S
C813 C814 1.398 . S
C814 H802 0.950 . S
C814 C813 1.398 . S
C814 C815 1.391 . S
C815 H803 0.950 . S
C815 C811 1.393 . S
C815 C814 1.391 . S
H816 C824 0.950 . S
H817 C829 0.950 . S
H818 C826 0.950 . S
H819 C828 0.950 . S
H820 C830 0.950 . S
H821 C832 0.950 . S
H822 C834 0.950 . S
H823 C835 0.950 . S
C824 H816 0.950 . S
C824 C825 1.386 . S
C824 C826 1.391 . S
C825 C824 1.386 . S
C825 C829 1.393 . S
C826 H818 0.950 . S
C826 C824 1.391 . S
C826 C827 1.400 . S
C827 C826 1.400 . S
C827 C828 1.398 . S
C827 C833 1.491 1_455 S
C828 H819 0.950 . S
C828 C827 1.398 . S
C828 C829 1.391 . S
C829 H817 0.950 . S
C829 C825 1.393 . S
C829 C828 1.391 . S
C830 H820 0.950 . S
C830 C831 1.386 . S
C830 C832 1.391 . S
C831 C830 1.386 . S
C831 C835 1.393 . S
C832 H821 0.950 . S
C832 C830 1.391 . S
C832 C833 1.400 . S
C833 C827 1.491 1_655 S
C833 C832 1.400 . S
C833 C834 1.398 . S
C834 H822 0.950 . S
C834 C833 1.398 . S
C834 C835 1.391 . S
C835 H823 0.950 . S
C835 C831 1.393 . S
C835 C834 1.391 . S
H836 C844 0.950 . S
H837 C849 0.950 . S
H838 C846 0.950 . S
H839 C848 0.950 . S
H840 C850 0.950 . S
H841 C852 0.950 . S
H842 C854 0.950 . S
H843 C855 0.950 . S
C844 H836 0.950 . S
C844 C845 1.386 . S
C844 C846 1.391 . S
C845 C844 1.386 . S
C845 C849 1.393 . S
C846 H838 0.950 . S
C846 C844 1.391 . S
C846 C847 1.400 . S
C847 C846 1.400 . S
C847 C848 1.398 . S
C847 C853 1.491 1_545 S
C848 H839 0.950 . S
C848 C847 1.398 . S
C848 C849 1.391 . S
C849 H837 0.950 . S
C849 C845 1.393 . S
C849 C848 1.391 . S
C850 H840 0.950 . S
C850 C851 1.386 . S
C850 C852 1.391 . S
C851 C850 1.386 . S
C851 C855 1.393 . S
C852 H841 0.950 . S
C852 C850 1.391 . S
C852 C853 1.400 . S
C853 C847 1.491 1_565 S
C853 C852 1.400 . S
C853 C854 1.398 . S
C854 H842 0.950 . S
C854 C853 1.398 . S
C854 C855 1.391 . S
C855 H843 0.950 . S
C855 C851 1.393 . S
C855 C854 1.391 . S
H856 C864 0.950 . S
H857 C869 0.950 . S
H858 C866 0.950 . S
H859 C868 0.950 . S
H860 C870 0.950 . S
H861 C872 0.950 . S
H862 C874 0.950 . S
H863 C875 0.950 . S
C864 H856 0.950 . S
C864 C865 1.386 . S
C864 C866 1.391 . S
C865 C864 1.386 . S
C865 C869 1.393 . S
C866 H858 0.950 . S
C866 C864 1.391 . S
C866 C867 1.400 . S
C867 C866 1.400 . S
C867 C868 1.398 . S
C867 C873 1.491 1_655 S
C868 H859 0.950 . S
C868 C867 1.398 . S
C868 C869 1.391 . S
C869 H857 0.950 . S
C869 C865 1.393 . S
C869 C868 1.391 . S
C870 H860 0.950 . S
C870 C871 1.386 . S
C870 C872 1.391 . S
C871 C870 1.386 . S
C871 C875 1.393 . S
C872 H861 0.950 . S
C872 C870 1.391 . S
C872 C873 1.400 . S
C873 C867 1.491 1_455 S
C873 C872 1.400 . S
C873 C874 1.398 . S
C874 H862 0.950 . S
C874 C873 1.398 . S
C874 C875 1.391 . S
C875 H863 0.950 . S
C875 C871 1.393 . S
C875 C874 1.391 . S
H876 C884 0.950 . S
H877 C889 0.950 . S
H878 C886 0.950 . S
H879 C888 0.950 . S
H880 C890 0.950 . S
H881 C892 0.950 . S
H882 C894 0.950 . S
H883 C895 0.950 . S
C884 H876 0.950 . S
C884 C885 1.386 . S
C884 C886 1.391 . S
C885 C884 1.386 . S
C885 C889 1.393 . S
C886 H878 0.950 . S
C886 C884 1.391 . S
C886 C887 1.400 . S
C887 C886 1.400 . S
C887 C888 1.398 . S
C887 C893 1.491 1_545 S
C888 H879 0.950 . S
C888 C887 1.398 . S
C888 C889 1.391 . S
C889 H877 0.950 . S
C889 C885 1.393 . S
C889 C888 1.391 . S
C890 H880 0.950 . S
C890 C891 1.386 . S
C890 C892 1.391 . S
C891 C890 1.386 . S
C891 C895 1.393 . S
C892 H881 0.950 . S
C892 C890 1.391 . S
C892 C893 1.400 . S
C893 C887 1.491 1_565 S
C893 C892 1.400 . S
C893 C894 1.398 . S
C894 H882 0.950 . S
C894 C893 1.398 . S
C894 C895 1.391 . S
C895 H883 0.950 . S
C895 C891 1.393 . S
C895 C894 1.391 . S
H896 C904 0.950 . S
H897 C909 0.950 . S
H898 C906 0.950 . S
H899 C908 0.950 . S
H900 C910 0.950 . S
H901 C912 0.950 . S
H902 C914 0.950 . S
H903 C915 0.950 . S
C904 H896 0.950 . S
C904 C905 1.386 . S
C904 C906 1.391 . S
C905 C904 1.386 . S
C905 C909 1.393 . S
C906 H898 0.950 . S
C906 C904 1.391 . S
C906 C907 1.400 . S
C907 C906 1.400 . S
C907 C908 1.398 . S
C907 C913 1.491 1_565 S
C908 H899 0.950 . S
C908 C907 1.398 . S
C908 C909 1.391 . S
C909 H897 0.950 . S
C909 C905 1.393 . S
C909 C908 1.391 . S
C910 H900 0.950 . S
C910 C911 1.386 . S
C910 C912 1.391 . S
C911 C910 1.386 . S
C911 C915 1.393 . S
C912 H901 0.950 . S
C912 C910 1.391 . S
C912 C913 1.400 . S
C913 C907 1.491 1_545 S
C913 C912 1.400 . S
C913 C914 1.398 . S
C914 H902 0.950 . S
C914 C913 1.398 . S
C914 C915 1.391 . S
C915 H903 0.950 . S
C915 C911 1.393 . S
C915 C914 1.391 . S
H916 C924 0.950 . S
H917 C929 0.950 . S
H918 C926 0.950 . S
H919 C928 0.950 . S
H920 C930 0.950 . S
H921 C932 0.950 . S
H922 C934 0.950 . S
H923 C935 0.950 . S
C924 H916 0.950 . S
C924 C925 1.386 . S
C924 C926 1.391 . S
C925 C924 1.386 . S
C925 C929 1.393 . S
C926 H918 0.950 . S
C926 C924 1.391 . S
C926 C927 1.400 . S
C927 C926 1.400 . S
C927 C928 1.398 . S
C927 C933 1.491 1_655 S
C928 H919 0.950 . S
C928 C927 1.398 . S
C928 C929 1.391 . S
C929 H917 0.950 . S
C929 C925 1.393 . S
C929 C928 1.391 . S
C930 H920 0.950 . S
C930 C931 1.386 . S
C930 C932 1.391 . S
C931 C930 1.386 . S
C931 C935 1.393 . S
C932 H921 0.950 . S
C932 C930 1.391 . S
C932 C933 1.400 . S
C933 C927 1.491 1_455 S
C933 C932 1.400 . S
C933 C934 1.398 . S
C934 H922 0.950 . S
C934 C933 1.398 . S
C934 C935 1.391 . S
C935 H923 0.950 . S
C935 C931 1.393 . S
C935 C934 1.391 . S
H936 C944 0.950 . S
H937 C949 0.950 . S
H938 C946 0.950 . S
H939 C948 0.950 . S
H940 C950 0.950 . S
H941 C952 0.950 . S
H942 C954 0.950 . S
H943 C955 0.950 . S
C944 H936 0.950 . S
C944 C945 1.386 . S
C944 C946 1.391 . S
C945 C944 1.386 . S
C945 C949 1.393 . S
C946 H938 0.950 . S
C946 C944 1.391 . S
C946 C947 1.400 . S
C947 C946 1.400 . S
C947 C948 1.398 . S
C947 C953 1.491 1_565 S
C948 H939 0.950 . S
C948 C947 1.398 . S
C948 C949 1.391 . S
C949 H937 0.950 . S
C949 C945 1.393 . S
C949 C948 1.391 . S
C950 H940 0.950 . S
C950 C951 1.386 . S
C950 C952 1.391 . S
C951 C950 1.386 . S
C951 C955 1.393 . S
C952 H941 0.950 . S
C952 C950 1.391 . S
C952 C953 1.400 . S
C953 C947 1.491 1_545 S
C953 C952 1.400 . S
C953 C954 1.398 . S
C954 H942 0.950 . S
C954 C953 1.398 . S
C954 C955 1.391 . S
C955 H943 0.950 . S
C955 C951 1.393 . S
C955 C954 1.391 . S
H956 C964 0.950 . S
H957 C969 0.950 . S
H958 C966 0.950 . S
H959 C968 0.950 . S
H960 C970 0.950 . S
H961 C972 0.950 . S
H962 C974 0.950 . S
H963 C975 0.950 . S
C964 H956 0.950 . S
C964 C965 1.386 . S
C964 C966 1.391 . S
C965 C964 1.386 . S
C965 C969 1.393 . S
C966 H958 0.950 . S
C966 C964 1.391 . S
C966 C967 1.400 . S
C967 C966 1.400 . S
C967 C968 1.398 . S
C967 C973 1.491 1_655 S
C968 H959 0.950 . S
C968 C967 1.398 . S
C968 C969 1.391 . S
C969 H957 0.950 . S
C969 C965 1.393 . S
C969 C968 1.391 . S
C970 H960 0.950 . S
C970 C971 1.386 . S
C970 C972 1.391 . S
C971 C970 1.386 . S
C971 C975 1.393 . S
C972 H961 0.950 . S
C972 C970 1.391 . S
C972 C973 1.400 . S
C973 C967 1.491 1_455 S
C973 C972 1.400 . S
C973 C974 1.398 . S
C974 H962 0.950 . S
C974 C973 1.398 . S
C974 C975 1.391 . S
C975 H963 0.950 . S
C975 C971 1.393 . S
C975 C974 1.391 . S
H976 C984 0.950 . S
H977 C989 0.950 . S
H978 C986 0.950 . S
H979 C988 0.950 . S
H980 C990 0.950 . S
H981 C992 0.950 . S
H982 C994 0.950 . S
H983 C995 0.950 . S
C984 H976 0.950 . S
C984 C985 1.386 . S
C984 C986 1.391 . S
C985 C984 1.386 . S
C985 C989 1.393 . S
C986 H978 0.950 . S
C986 C984 1.391 . S
C986 C987 1.400 . S
C987 C986 1.400 . S
C987 C988 1.398 . S
C987 C993 1.491 1_556 S
C988 H979 0.950 . S
C988 C987 1.398 . S
C988 C989 1.391 . S
C989 H977 0.950 . S
C989 C985 1.393 . S
C989 C988 1.391 . S
C990 H980 0.950 . S
C990 C991 1.386 . S
C990 C992 1.391 . S
C991 C990 1.386 . S
C991 C995 1.393 . S
C992 H981 0.950 . S
C992 C990 1.391 . S
C992 C993 1.400 . S
C993 C987 1.491 1_554 S
C993 C992 1.400 . S
C993 C994 1.398 . S
C994 H982 0.950 . S
C994 C993 1.398 . S
C994 C995 1.391 . S
C995 H983 0.950 . S
C995 C991 1.393 . S
C995 C994 1.391 . S
H996 C1004 0.950 . S
H997 C1009 0.950 . S
H998 C1006 0.950 . S
H999 C1008 0.950 . S
H1000 C1010 0.950 . S
H1001 C1012 0.950 . S
H1002 C1014 0.950 . S
H1003 C1015 0.950 . S
C1004 H996 0.950 . S
C1004 C1005 1.386 . S
C1004 C1006 1.391 . S
C1005 C1004 1.386 . S
C1005 C1009 1.393 . S
C1006 H998 0.950 . S
C1006 C1004 1.391 . S
C1006 C1007 1.400 . S
C1007 C1006 1.400 . S
C1007 C1008 1.398 . S
C1007 C1013 1.491 1_556 S
C1008 H999 0.950 . S
C1008 C1007 1.398 . S
C1008 C1009 1.391 . S
C1009 H997 0.950 . S
C1009 C1005 1.393 . S
C1009 C1008 1.391 . S
C1010 H1000 0.950 . S
C1010 C1011 1.386 . S
C1010 C1012 1.391 . S
C1011 C1010 1.386 . S
C1011 C1015 1.393 . S
C1012 H1001 0.950 . S
C1012 C1010 1.391 . S
C1012 C1013 1.400 . S
C1013 C1007 1.491 1_554 S
C1013 C1012 1.400 . S
C1013 C1014 1.398 . S
C1014 H1002 0.950 . S
C1014 C1013 1.398 . S
C1014 C1015 1.391 . S
C1015 H1003 0.950 . S
C1015 C1011 1.393 . S
C1015 C1014 1.391 . S
H1016 C1024 0.950 . S
H1017 C1029 0.950 . S
H1018 C1026 0.950 . S
H1019 C1028 0.950 . S
H1020 C1030 0.950 . S
H1021 C1032 0.950 . S
H1022 C1034 0.950 . S
H1023 C1035 0.950 . S
C1024 H1016 0.950 . S
C1024 C1025 1.386 . S
C1024 C1026 1.391 . S
C1025 C1024 1.386 . S
C1025 C1029 1.393 . S
C1026 H1018 0.950 . S
C1026 C1024 1.391 . S
C1026 C1027 1.400 . S
C1027 C1026 1.400 . S
C1027 C1028 1.398 . S
C1027 C1033 1.491 1_556 S
C1028 H1019 0.950 . S
C1028 C1027 1.398 . S
C1028 C1029 1.391 . S
C1029 H1017 0.950 . S
C1029 C1025 1.393 . S
C1029 C1028 1.391 . S
C1030 H1020 0.950 . S
C1030 C1031 1.386 . S
C1030 C1032 1.391 . S
C1031 C1030 1.386 . S
C1031 C1035 1.393 . S
C1032 H1021 0.950 . S
C1032 C1030 1.391 . S
C1032 C1033 1.400 . S
C1033 C1027 1.491 1_554 S
C1033 C1032 1.400 . S
C1033 C1034 1.398 . S
C1034 H1022 0.950 . S
C1034 C1033 1.398 . S
C1034 C1035 1.391 . S
C1035 H1023 0.950 . S
C1035 C1031 1.393 . S
C1035 C1034 1.391 . S
H1036 C1044 0.950 . S
H1037 C1049 0.950 . S
H1038 C1046 0.950 . S
H1039 C1048 0.950 . S
H1040 C1050 0.950 . S
H1041 C1052 0.950 . S
H1042 C1054 0.950 . S
H1043 C1055 0.950 . S
C1044 H1036 0.950 . S
C1044 C1045 1.386 . S
C1044 C1046 1.391 . S
C1045 C1044 1.386 . S
C1045 C1049 1.393 . S
C1046 H1038 0.950 . S
C1046 C1044 1.391 . S
C1046 C1047 1.400 . S
C1047 C1046 1.400 . S
C1047 C1048 1.398 . S
C1047 C1053 1.491 1_556 S
C1048 H1039 0.950 . S
C1048 C1047 1.398 . S
C1048 C1049 1.391 . S
C1049 H1037 0.950 . S
C1049 C1045 1.393 . S
C1049 C1048 1.391 . S
C1050 H1040 0.950 . S
C1050 C1051 1.386 . S
C1050 C1052 1.391 . S
C1051 C1050 1.386 . S
C1051 C1055 1.393 . S
C1052 H1041 0.950 . S
C1052 C1050 1.391 . S
C1052 C1053 1.400 . S
C1053 C1047 1.491 1_554 S
C1053 C1052 1.400 . S
C1053 C1054 1.398 . S
C1054 H1042 0.950 . S
C1054 C1053 1.398 . S
C1054 C1055 1.391 . S
C1055 H1043 0.950 . S
C1055 C1051 1.393 . S
C1055 C1054 1.391 . S
H1056 C1064 0.950 . S
H1057 C1069 0.950 . S
H1058 C1066 0.950 . S
H1059 C1068 0.950 . S
H1060 C1070 0.950 . S
H1061 C1072 0.950 . S
H1062 C1074 0.950 . S
H1063 C1075 0.950 . S
C1064 H1056 0.950 . S
C1064 C1065 1.386 . S
C1064 C1066 1.391 . S
C1065 C1064 1.386 . S
C1065 C1069 1.393 . S
C1066 H1058 0.950 . S
C1066 C1064 1.391 . S
C1066 C1067 1.400 . S
C1067 C1066 1.400 . S
C1067 C1068 1.398 . S
C1067 C1073 1.491 . S
C1068 H1059 0.950 . S
C1068 C1067 1.398 . S
C1068 C1069 1.391 . S
C1069 H1057 0.950 . S
C1069 C1065 1.393 . S
C1069 C1068 1.391 . S
C1070 H1060 0.950 . S
C1070 C1071 1.386 . S
C1070 C1072 1.391 . S
C1071 C1070 1.386 . S
C1071 C1075 1.393 . S
C1072 H1061 0.950 . S
C1072 C1070 1.391 . S
C1072 C1073 1.400 . S
C1073 C1067 1.491 . S
C1073 C1072 1.400 . S
C1073 C1074 1.398 . S
C1074 H1062 0.950 . S
C1074 C1073 1.398 . S
C1074 C1075 1.391 . S
C1075 H1063 0.950 . S
C1075 C1071 1.393 . S
C1075 C1074 1.391 . S
H1076 C1084 0.950 . S
H1077 C1089 0.950 . S
H1078 C1086 0.950 . S
H1079 C1088 0.950 . S
H1080 C1090 0.950 . S
H1081 C1092 0.950 . S
H1082 C1094 0.950 . S
H1083 C1095 0.950 . S
C1084 H1076 0.950 . S
C1084 C1085 1.386 . S
C1084 C1086 1.391 . S
C1085 C1084 1.386 . S
C1085 C1089 1.393 . S
C1086 H1078 0.950 . S
C1086 C1084 1.391 . S
C1086 C1087 1.400 . S
C1087 C1086 1.400 . S
C1087 C1088 1.398 . S
C1087 C1093 1.491 . S
C1088 H1079 0.950 . S
C1088 C1087 1.398 . S
C1088 C1089 1.391 . S
C1089 H1077 0.950 . S
C1089 C1085 1.393 . S
C1089 C1088 1.391 . S
C1090 H1080 0.950 . S
C1090 C1091 1.386 . S
C1090 C1092 1.391 . S
C1091 C1090 1.386 . S
C1091 C1095 1.393 . S
C1092 H1081 0.950 . S
C1092 C1090 1.391 . S
C1092 C1093 1.400 . S
C1093 C1087 1.491 . S
C1093 C1092 1.400 . S
C1093 C1094 1.398 . S
C1094 H1082 0.950 . S
C1094 C1093 1.398 . S
C1094 C1095 1.391 . S
C1095 H1083 0.950 . S
C1095 C1091 1.393 . S
C1095 C1094 1.391 . S
H1096 C1104 0.950 . S
H1097 C1109 0.950 . S
H1098 C1106 0.950 . S
H1099 C1108 0.950 . S
H1100 C1110 0.950 . S
H1101 C1112 0.950 . S
H1102 C1114 0.950 . S
H1103 C1115 0.950 . S
C1104 H1096 0.950 . S
C1104 C1105 1.386 . S
C1104 C1106 1.391 . S
C1105 C1104 1.386 . S
C1105 C1109 1.393 . S
C1106 H1098 0.950 . S
C1106 C1104 1.391 . S
C1106 C1107 1.400 . S
C1107 C1106 1.400 . S
C1107 C1108 1.398 . S
C1107 C1113 1.491 . S
C1108 H1099 0.950 . S
C1108 C1107 1.398 . S
C1108 C1109 1.391 . S
C1109 H1097 0.950 . S
C1109 C1105 1.393 . S
C1109 C1108 1.391 . S
C1110 H1100 0.950 . S
C1110 C1111 1.386 . S
C1110 C1112 1.391 . S
C1111 C1110 1.386 . S
C1111 C1115 1.393 . S
C1112 H1101 0.950 . S
C1112 C1110 1.391 . S
C1112 C1113 1.400 . S
C1113 C1107 1.491 . S
C1113 C1112 1.400 . S
C1113 C1114 1.398 . S
C1114 H1102 0.950 . S
C1114 C1113 1.398 . S
C1114 C1115 1.391 . S
C1115 H1103 0.950 . S
C1115 C1111 1.393 . S
C1115 C1114 1.391 . S
H1116 C1124 0.950 . S
H1117 C1129 0.950 . S
H1118 C1126 0.950 . S
H1119 C1128 0.950 . S
H1120 C1130 0.950 . S
H1121 C1132 0.950 . S
H1122 C1134 0.950 . S
H1123 C1135 0.950 . S
C1124 H1116 0.950 . S
C1124 C1125 1.386 . S
C1124 C1126 1.391 . S
C1125 C1124 1.386 . S
C1125 C1129 1.393 . S
C1126 H1118 0.950 . S
C1126 C1124 1.391 . S
C1126 C1127 1.400 . S
C1127 C1126 1.400 . S
C1127 C1128 1.398 . S
C1127 C1133 1.491 . S
C1128 H1119 0.950 . S
C1128 C1127 1.398 . S
C1128 C1129 1.391 . S
C1129 H1117 0.950 . S
C1129 C1125 1.393 . S
C1129 C1128 1.391 . S
C1130 H1120 0.950 . S
C1130 C1131 1.386 . S
C1130 C1132 1.391 . S
C1131 C1130 1.386 . S
C1131 C1135 1.393 . S
C1132 H1121 0.950 . S
C1132 C1130 1.391 . S
C1132 C1133 1.400 . S
C1133 C1127 1.491 . S
C1133 C1132 1.400 . S
C1133 C1134 1.398 . S
C1134 H1122 0.950 . S
C1134 C1133 1.398 . S
C1134 C1135 1.391 . S
C1135 H1123 0.950 . S
C1135 C1131 1.393 . S
C1135 C1134 1.391 . S
H1136 C1144 0.950 . S
H1137 C1149 0.950 . S
H1138 C1146 0.950 . S
H1139 C1148 0.950 . S
H1140 C1150 0.950 . S
H1141 C1152 0.950 . S
H1142 C1154 0.950 . S
H1143 C1155 0.950 . S
C1144 H1136 0.950 . S
C1144 C1145 1.386 . S
C1144 C1146 1.391 . S
C1145 C1144 1.386 . S
C1145 C1149 1.393 . S
C1146 H1138 0.950 . S
C1146 C1144 1.391 . S
C1146 C1147 1.400 . S
C1147 C1146 1.400 . S
C1147 C1148 1.398 . S
C1147 C1153 1.491 . S
C1148 H1139 0.950 . S
C1148 C1147 1.398 . S
C1148 C1149 1.391 . S
C1149 H1137 0.950 . S
C1149 C1145 1.393 . S
C1149 C1148 1.391 . S
C1150 H1140 0.950 . S
C1150 C1151 1.386 . S
C1150 C1152 1.391 . S
C1151 C1150 1.386 . S
C1151 C1155 1.393 . S
C1152 H1141 0.950 . S
C1152 C1150 1.391 . S
C1152 C1153 1.400 . S
C1153 C1147 1.491 . S
C1153 C1152 1.400 . S
C1153 C1154 1.398 . S
C1154 H1142 0.950 . S
C1154 C1153 1.398 . S
C1154 C1155 1.391 . S
C1155 H1143 0.950 . S
C1155 C1151 1.393 . S
C1155 C1154 1.391 . S
H1156 C1164 0.950 . S
H1157 C1169 0.950 . S
H1158 C1166 0.950 . S
H1159 C1168 0.950 . S
H1160 C1170 0.950 . S
H1161 C1172 0.950 . S
H1162 C1174 0.950 . S
H1163 C1175 0.950 . S
C1164 H1156 0.950 . S
C1164 C1165 1.386 . S
C1164 C1166 1.391 . S
C1165 C1164 1.386 . S
C1165 C1169 1.393 . S
C1166 H1158 0.950 . S
C1166 C1164 1.391 . S
C1166 C1167 1.400 . S
C1167 C1166 1.400 . S
C1167 C1168 1.398 . S
C1167 C1173 1.491 . S
C1168 H1159 0.950 . S
C1168 C1167 1.398 . S
C1168 C1169 1.391 . S
C1169 H1157 0.950 . S
C1169 C1165 1.393 . S
C1169 C1168 1.391 . S
C1170 H1160 0.950 . S
C1170 C1171 1.386 . S
C1170 C1172 1.391 . S
C1171 C1170 1.386 . S
C1171 C1175 1.393 . S
C1172 H1161 0.950 . S
C1172 C1170 1.391 . S
C1172 C1173 1.400 . S
C1173 C1167 1.491 . S
C1173 C1172 1.400 . S
C1173 C1174 1.398 . S
C1174 H1162 0.950 . S
C1174 C1173 1.398 . S
C1174 C1175 1.391 . S
C1175 H1163 0.950 . S
C1175 C1171 1.393 . S
C1175 C1174 1.391 . S
H1176 C1184 0.950 . S
H1177 C1189 0.950 . S
H1178 C1186 0.950 . S
H1179 C1188 0.950 . S
H1180 C1190 0.950 . S
H1181 C1192 0.950 . S
H1182 C1194 0.950 . S
H1183 C1195 0.950 . S
C1184 H1176 0.950 . S
C1184 C1185 1.386 . S
C1184 C1186 1.391 . S
C1185 C1184 1.386 . S
C1185 C1189 1.393 . S
C1186 H1178 0.950 . S
C1186 C1184 1.391 . S
C1186 C1187 1.400 . S
C1187 C1186 1.400 . S
C1187 C1188 1.398 . S
C1187 C1193 1.491 . S
C1188 H1179 0.950 . S
C1188 C1187 1.398 . S
C1188 C1189 1.391 . S
C1189 H1177 0.950 . S
C1189 C1185 1.393 . S
C1189 C1188 1.391 . S
C1190 H1180 0.950 . S
C1190 C1191 1.386 . S
C1190 C1192 1.391 . S
C1191 C1190 1.386 . S
C1191 C1195 1.393 . S
C1192 H1181 0.950 . S
C1192 C1190 1.391 . S
C1192 C1193 1.400 . S
C1193 C1187 1.491 . S
C1193 C1192 1.400 . S
C1193 C1194 1.398 . S
C1194 H1182 0.950 . S
C1194 C1193 1.398 . S
C1194 C1195 1.391 . S
C1195 H1183 0.950 . S
C1195 C1191 1.393 . S
C1195 C1194 1.391 . S
H1196 C1204 0.950 . S
H1197 C1209 0.950 . S
H1198 C1206 0.950 . S
H1199 C1208 0.950 . S
H1200 C1210 0.950 . S
H1201 C1212 0.950 . S
H1202 C1214 0.950 . S
H1203 C1215 0.950 . S
C1204 H1196 0.950 . S
C1204 C1205 1.386 . S
C1204 C1206 1.391 . S
C1205 C1204 1.386 . S
C1205 C1209 1.393 . S
C1206 H1198 0.950 . S
C1206 C1204 1.391 . S
C1206 C1207 1.400 . S
C1207 C1206 1.400 . S
C1207 C1208 1.398 . S
C1207 C1213 1.491 . S
C1208 H1199 0.950 . S
C1208 C1207 1.398 . S
C1208 C1209 1.391 . S
C1209 H1197 0.950 . S
C1209 C1205 1.393 . S
C1209 C1208 1.391 . S
C1210 H1200 0.950 . S
C1210 C1211 1.386 . S
C1210 C1212 1.391 . S
C1211 C1210 1.386 . S
C1211 C1215 1.393 . S
C1212 H1201 0.950 . S
C1212 C1210 1.391 . S
C1212 C1213 1.400 . S
C1213 C1207 1.491 . S
C1213 C1212 1.400 . S
C1213 C1214 1.398 . S
C1214 H1202 0.950 . S
C1214 C1213 1.398 . S
C1214 C1215 1.391 . S
C1215 H1203 0.950 . S
C1215 C1211 1.393 . S
C1215 C1214 1.391 . S
H1216 C1224 0.950 . S
H1217 C1229 0.950 . S
H1218 C1226 0.950 . S
H1219 C1228 0.950 . S
H1220 C1230 0.950 . S
H1221 C1232 0.950 . S
H1222 C1234 0.950 . S
H1223 C1235 0.950 . S
C1224 H1216 0.950 . S
C1224 C1225 1.386 . S
C1224 C1226 1.391 . S
C1225 C1224 1.386 . S
C1225 C1229 1.393 . S
C1226 H1218 0.950 . S
C1226 C1224 1.391 . S
C1226 C1227 1.400 . S
C1227 C1226 1.400 . S
C1227 C1228 1.398 . S
C1227 C1233 1.491 . S
C1228 H1219 0.950 . S
C1228 C1227 1.398 . S
C1228 C1229 1.391 . S
C1229 H1217 0.950 . S
C1229 C1225 1.393 . S
C1229 C1228 1.391 . S
C1230 H1220 0.950 . S
C1230 C1231 1.386 . S
C1230 C1232 1.391 . S
C1231 C1230 1.386 . S
C1231 C1235 1.393 . S
C1232 H1221 0.950 . S
C1232 C1230 1.391 . S
C1232 C1233 1.400 . S
C1233 C1227 1.491 . S
C1233 C1232 1.400 . S
C1233 C1234 1.398 . S
C1234 H1222 0.950 . S
C1234 C1233 1.398 . S
C1234 C1235 1.391 . S
C1235 H1223 0.950 . S
C1235 C1231 1.393 . S
C1235 C1234 1.391 . S
H1236 C1244 0.950 . S
H1237 C1249 0.950 . S
H1238 C1246 0.950 . S
H1239 C1248 0.950 . S
H1240 C1250 0.950 . S
H1241 C1252 0.950 . S
H1242 C1254 0.950 . S
H1243 C1255 0.950 . S
C1244 H1236 0.950 . S
C1244 C1245 1.386 . S
C1244 C1246 1.391 . S
C1245 C1244 1.386 . S
C1245 C1249 1.393 . S
C1246 H1238 0.950 . S
C1246 C1244 1.391 . S
C1246 C1247 1.400 . S
C1247 C1246 1.400 . S
C1247 C1248 1.398 . S
C1247 C1253 1.491 . S
C1248 H1239 0.950 . S
C1248 C1247 1.398 . S
C1248 C1249 1.391 . S
C1249 H1237 0.950 . S
C1249 C1245 1.393 . S
C1249 C1248 1.391 . S
C1250 H1240 0.950 . S
C1250 C1251 1.386 . S
C1250 C1252 1.391 . S
C1251 C1250 1.386 . S
C1251 C1255 1.393 . S
C1252 H1241 0.950 . S
C1252 C1250 1.391 . S
C1252 C1253 1.400 . S
C1253 C1247 1.491 . S
C1253 C1252 1.400 . S
C1253 C1254 1.398 . S
C1254 H1242 0.950 . S
C1254 C1253 1.398 . S
C1254 C1255 1.391 . S
C1255 H1243 0.950 . S
C1255 C1251 1.393 . S
C1255 C1254 1.391 . S
H1256 C1264 0.950 . S
H1257 C1269 0.950 . S
H1258 C1266 0.950 . S
H1259 C1268 0.950 . S
H1260 C1270 0.950 . S
H1261 C1272 0.950 . S
H1262 C1274 0.950 . S
H1263 C1275 0.950 . S
C1264 H1256 0.950 . S
C1264 C1265 1.386 . S
C1264 C1266 1.391 . S
C1265 C1264 1.386 . S
C1265 C1269 1.393 . S
C1266 H1258 0.950 . S
C1266 C1264 1.391 . S
C1266 C1267 1.400 . S
C1267 C1266 1.400 . S
C1267 C1268 1.398 . S
C1267 C1273 1.491 . S
C1268 H1259 0.950 . S
C1268 C1267 1.398 . S
C1268 C1269 1.391 . S
C1269 H1257 0.950 . S
C1269 C1265 1.393 . S
C1269 C1268 1.391 . S
C1270 H1260 0.950 . S
C1270 C1271 1.386 . S
C1270 C1272 1.391 . S
C1271 C1270 1.386 . S
C1271 C1275 1.393 . S
C1272 H1261 0.950 . S
C1272 C1270 1.391 . S
C1272 C1273 1.400 . S
C1273 C1267 1.491 . S
C1273 C1272 1.400 . S
C1273 C1274 1.398 . S
C1274 H1262 0.950 . S
C1274 C1273 1.398 . S
C1274 C1275 1.391 . S
C1275 H1263 0.950 . S
C1275 C1271 1.393 . S
C1275 C1274 1.391 . S
H1276 C1284 0.950 . S
H1277 C1289 0.950 . S
H1278 C1286 0.950 . S
H1279 C1288 0.950 . S
H1280 C1290 0.950 . S
H1281 C1292 0.950 . S
H1282 C1294 0.950 . S
H1283 C1295 0.950 . S
C1284 H1276 0.950 . S
C1284 C1285 1.386 . S
C1284 C1286 1.391 . S
C1285 C1284 1.386 . S
C1285 C1289 1.393 . S
C1286 H1278 0.950 . S
C1286 C1284 1.391 . S
C1286 C1287 1.400 . S
C1287 C1286 1.400 . S
C1287 C1288 1.398 . S
C1287 C1293 1.491 . S
C1288 H1279 0.950 . S
C1288 C1287 1.398 . S
C1288 C1289 1.391 . S
C1289 H1277 0.950 . S
C1289 C1285 1.393 . S
C1289 C1288 1.391 . S
C1290 H1280 0.950 . S
C1290 C1291 1.386 . S
C1290 C1292 1.391 . S
C1291 C1290 1.386 . S
C1291 C1295 1.393 . S
C1292 H1281 0.950 . S
C1292 C1290 1.391 . S
C1292 C1293 1.400 . S
C1293 C1287 1.491 . S
C1293 C1292 1.400 . S
C1293 C1294 1.398 . S
C1294 H1282 0.950 . S
C1294 C1293 1.398 . S
C1294 C1295 1.391 . S
C1295 H1283 0.950 . S
C1295 C1291 1.393 . S
C1295 C1294 1.391 . S
C345 C165 1.404 . S
C351 C4 1.373 . S
C365 C18 1.391 . S
C371 C123 1.391 . S
C385 C32 1.399 . S
C391 C137 1.380 . S
C405 C46 1.403 . S
C411 C151 1.377 . S
C425 C193 1.389 . S
C431 C60 1.392 . S
C445 C74 1.398 . S
C451 C207 1.380 . S
C465 C221 1.385 . S
C471 C88 1.397 . S
C485 C179 1.404 . S
C491 C102 1.373 . S
C505 C81 1.391 . S
C511 C116 1.391 . S
C525 C95 1.401 . S
C531 C130 1.376 . S
C545 C144 1.371 . S
C551 C109 1.408 . S
C565 C67 1.401 . S
C571 C158 1.380 . S
C585 C53 1.378 . S
C591 C172 1.403 . S
C605 C186 1.374 . S
C611 C11 1.404 . S
C625 C200 1.403 . S
C631 C25 1.377 . S
C645 C214 1.403 . S
C651 C39 1.377 . S
C665 C228 1.389 . S
C671 C333 1.389 . S
C685 C291 1.388 . S
C691 C242 1.390 . S
C705 C256 1.403 . S
C711 C249 1.378 . S
C725 C270 1.374 . S
C731 C263 1.406 . S
C745 C277 1.394 . S
C751 C284 1.383 . S
C765 C298 1.378 . S
C771 C319 1.399 . S
C785 C235 1.395 . S
C791 C312 1.382 . S
C805 C305 1.384 . S
C811 C326 1.394 . S
C825 C12 1.310 . S
C831 C96 1.323 . S
C845 C26 1.314 . S
C851 C110 1.316 . S
C865 C40 1.316 . S
C871 C68 1.321 . S
C885 C82 1.322 . S
C891 C54 1.315 . S
C905 C152 1.315 . S
C911 C124 1.322 . S
C925 C138 1.323 . S
C931 C166 1.313 . S
C945 C180 1.322 . S
C951 C208 1.314 . S
C965 C222 1.311 . S
C971 C194 1.319 . S
C985 C250 1.322 . S
C991 C236 1.315 . S
C1005 C264 1.314 . S
C1011 C334 1.323 . S
C1025 C278 1.322 . S
C1031 C306 1.315 . S
C1045 C292 1.317 . S
C1051 C320 1.321 . S
C1065 C5 0.879 . S
C1071 C75 0.883 . S
C1085 C19 0.876 . S
C1091 C89 0.901 . S
C1105 C33 0.944 . S
C1111 C103 0.918 . S
C1125 C61 0.942 . S
C1131 C47 0.913 . S
C1145 C117 0.877 . S
C1151 C327 0.885 . S
C1165 C131 0.884 . S
C1171 C299 0.877 . S
C1185 C313 0.886 . S
C1191 C145 0.922 . S
C1205 C159 0.944 . S
C1211 C229 0.934 . S
C1225 C285 0.916 . S
C1231 C173 0.882 . S
C1245 C243 0.882 . S
C1251 C187 0.917 . S
C1265 C201 0.899 . S
C1271 C257 0.934 . S
C1285 C271 0.943 . S
C1291 C215 0.937 . S
