# Generated by pormake.
# Topology uoy, (4)-cn, num edge types: 1
# Building blocks:
#     Node 0, Type 0, BuildingBlock: QUQFOY_clean_sbu_1, # of connection points: 4
#     Node 1, Type 0, BuildingBlock: QUQFOY_clean_sbu_1, # of connection points: 4
#     Node 2, Type 0, BuildingBlock: QUQFOY_clean_sbu_1, # of connection points: 4
#     Node 3, Type 0, BuildingBlock: QUQFOY_clean_sbu_1, # of connection points: 4
#     Node 4, Type 0, BuildingBlock: QUQFOY_clean_sbu_1, # of connection points: 4
#     Node 5, Type 0, BuildingBlock: QUQFOY_clean_sbu_1, # of connection points: 4
#     Node 6, Type 0, BuildingBlock: QUQFOY_clean_sbu_1, # of connection points: 4
#     Node 7, Type 0, BuildingBlock: QUQFOY_clean_sbu_1, # of connection points: 4
#     Node 8, Type 0, BuildingBlock: QUQFOY_clean_sbu_1, # of connection points: 4
#     Node 9, Type 0, BuildingBlock: QUQFOY_clean_sbu_1, # of connection points: 4
#     Node 10, Type 0, BuildingBlock: QUQFOY_clean_sbu_1, # of connection points: 4
#     Node 11, Type 0, BuildingBlock: QUQFOY_clean_sbu_1, # of connection points: 4
#     Node 12, Type 0, BuildingBlock: QUQFOY_clean_sbu_1, # of connection points: 4
#     Node 13, Type 0, BuildingBlock: QUQFOY_clean_sbu_1, # of connection points: 4
#     Node 14, Type 0, BuildingBlock: QUQFOY_clean_sbu_1, # of connection points: 4
#     Node 15, Type 0, BuildingBlock: QUQFOY_clean_sbu_1, # of connection points: 4
#     Edge 16, Type (0, 0), BuildingBlock: MIFKUJ_clean_linker_0, # of connection points: 2
#     Edge 17, Type (0, 0), BuildingBlock: MIFKUJ_clean_linker_0, # of connection points: 2
#     Edge 18, Type (0, 0), BuildingBlock: MIFKUJ_clean_linker_0, # of connection points: 2
#     Edge 19, Type (0, 0), BuildingBlock: MIFKUJ_clean_linker_0, # of connection points: 2
#     Edge 20, Type (0, 0), BuildingBlock: MIFKUJ_clean_linker_0, # of connection points: 2
#     Edge 21, Type (0, 0), BuildingBlock: MIFKUJ_clean_linker_0, # of connection points: 2
#     Edge 22, Type (0, 0), BuildingBlock: MIFKUJ_clean_linker_0, # of connection points: 2
#     Edge 23, Type (0, 0), BuildingBlock: MIFKUJ_clean_linker_0, # of connection points: 2
#     Edge 24, Type (0, 0), BuildingBlock: MIFKUJ_clean_linker_0, # of connection points: 2
#     Edge 25, Type (0, 0), BuildingBlock: MIFKUJ_clean_linker_0, # of connection points: 2
#     Edge 26, Type (0, 0), BuildingBlock: MIFKUJ_clean_linker_0, # of connection points: 2
#     Edge 27, Type (0, 0), BuildingBlock: MIFKUJ_clean_linker_0, # of connection points: 2
#     Edge 28, Type (0, 0), BuildingBlock: MIFKUJ_clean_linker_0, # of connection points: 2
#     Edge 29, Type (0, 0), BuildingBlock: MIFKUJ_clean_linker_0, # of connection points: 2
#     Edge 30, Type (0, 0), BuildingBlock: MIFKUJ_clean_linker_0, # of connection points: 2
#     Edge 31, Type (0, 0), BuildingBlock: MIFKUJ_clean_linker_0, # of connection points: 2
#     Edge 32, Type (0, 0), BuildingBlock: MIFKUJ_clean_linker_0, # of connection points: 2
#     Edge 33, Type (0, 0), BuildingBlock: MIFKUJ_clean_linker_0, # of connection points: 2
#     Edge 34, Type (0, 0), BuildingBlock: MIFKUJ_clean_linker_0, # of connection points: 2
#     Edge 35, Type (0, 0), BuildingBlock: MIFKUJ_clean_linker_0, # of connection points: 2
#     Edge 36, Type (0, 0), BuildingBlock: MIFKUJ_clean_linker_0, # of connection points: 2
#     Edge 37, Type (0, 0), BuildingBlock: MIFKUJ_clean_linker_0, # of connection points: 2
#     Edge 38, Type (0, 0), BuildingBlock: MIFKUJ_clean_linker_0, # of connection points: 2
#     Edge 39, Type (0, 0), BuildingBlock: MIFKUJ_clean_linker_0, # of connection points: 2
#     Edge 40, Type (0, 0), BuildingBlock: MIFKUJ_clean_linker_0, # of connection points: 2
#     Edge 41, Type (0, 0), BuildingBlock: MIFKUJ_clean_linker_0, # of connection points: 2
#     Edge 42, Type (0, 0), BuildingBlock: MIFKUJ_clean_linker_0, # of connection points: 2
#     Edge 43, Type (0, 0), BuildingBlock: MIFKUJ_clean_linker_0, # of connection points: 2
#     Edge 44, Type (0, 0), BuildingBlock: MIFKUJ_clean_linker_0, # of connection points: 2
#     Edge 45, Type (0, 0), BuildingBlock: MIFKUJ_clean_linker_0, # of connection points: 2
#     Edge 46, Type (0, 0), BuildingBlock: MIFKUJ_clean_linker_0, # of connection points: 2
#     Edge 47, Type (0, 0), BuildingBlock: MIFKUJ_clean_linker_0, # of connection points: 2
# Relax obj value: 0.056
# Max RMSD: 0.100
# Mean RMSD: 0.100
data_MOF--net-uoy--node1-QUQFOY_clean_sbu_1--edge1-MIFKUJ_clean_linker_0
_symmetry_space_group_name_H-M    P1
_symmetry_Int_Tables_number       1
_symmetry_cell_setting            triclinic
loop_
_symmetry_equiv_pos_as_xyz
'x, y, z'
_cell_length_a     36.243086
_cell_length_b     36.196682
_cell_length_c     145.90034
_cell_angle_alpha  89.656471
_cell_angle_beta   89.804032
_cell_angle_gamma 89.981104
loop_
_atom_site_label
_atom_site_type_symbol
_atom_site_fract_x
_atom_site_fract_y
_atom_site_fract_z
_atom_type_partial_charge
O0 O 0.25203 0.12838 0.21263 0.0
Cd1 Cd 0.25072 0.09676 0.20085 0.0
Cd2 Cd 0.27909 0.15857 0.19344 0.0
O3 O 0.27003 0.18078 0.20625 0.0
O4 O 0.2142 0.05648 0.20331 0.0
O5 O 0.20622 0.0994 0.19265 0.0
C6 C 0.19375 0.07079 0.19699 0.0
C7 C 0.25874 0.18734 0.18001 0.0
C8 C 0.26024 0.16242 0.21331 0.0
C9 C 0.32783 0.0913 0.19353 0.0
O10 O 0.32527 0.12587 0.1921 0.0
O11 O 0.30021 0.07324 0.19659 0.0
O12 O 0.28588 0.20052 0.18466 0.0
O13 O 0.24207 0.15843 0.1832 0.0
O14 O 0.89075 0.75594 0.46104 0.0
Cd15 Cd 0.91592 0.75075 0.44838 0.0
Cd16 Cd 0.85154 0.77695 0.4427 0.0
O17 O 0.83423 0.7648 0.45593 0.0
O18 O 0.95841 0.71587 0.44986 0.0
O19 O 0.90891 0.703 0.44164 0.0
C20 C 0.94048 0.69278 0.44485 0.0
C21 C 0.82334 0.75435 0.42953 0.0
C22 C 0.8564 0.7599 0.46257 0.0
C23 C 0.91654 0.82716 0.44067 0.0
O24 O 0.88153 0.825 0.44095 0.0
O25 O 0.93613 0.79894 0.44253 0.0
O26 O 0.80784 0.77976 0.43438 0.0
O27 O 0.85408 0.74056 0.43241 0.0
O28 O 0.25916 0.38854 0.7118 0.0
Cd29 Cd 0.26128 0.41743 0.69953 0.0
Cd30 Cd 0.23336 0.3545 0.69298 0.0
O31 O 0.24423 0.33445 0.70599 0.0
O32 O 0.29711 0.45903 0.70114 0.0
O33 O 0.30719 0.41194 0.69187 0.0
C34 C 0.31876 0.44226 0.69549 0.0
C35 C 0.25514 0.32685 0.67962 0.0
C36 C 0.25254 0.35426 0.71286 0.0
C37 C 0.18374 0.42042 0.69236 0.0
O38 O 0.18605 0.3855 0.69167 0.0
O39 O 0.2118 0.43923 0.69473 0.0
O40 O 0.22942 0.31159 0.68446 0.0
O41 O 0.26955 0.35716 0.68256 0.0
O42 O 0.61866 0.75275 0.96168 0.0
Cd43 Cd 0.59323 0.75622 0.94904 0.0
Cd44 Cd 0.65803 0.73039 0.94329 0.0
O45 O 0.67488 0.74185 0.95653 0.0
O46 O 0.55102 0.7917 0.95008 0.0
O47 O 0.6011 0.80293 0.9418 0.0
C48 C 0.56953 0.81392 0.94487 0.0
C49 C 0.68808 0.75239 0.93019 0.0
C50 C 0.65293 0.74805 0.96317 0.0
C51 C 0.59322 0.67965 0.94154 0.0
O52 O 0.62817 0.68251 0.94153 0.0
O53 O 0.57326 0.70732 0.94361 0.0
O54 O 0.70239 0.72658 0.93518 0.0
O55 O 0.65743 0.76695 0.9329 0.0
O56 O 0.25228 0.38685 0.05549 0.0
Cd57 Cd 0.24983 0.41655 0.06757 0.0
Cd58 Cd 0.27814 0.35423 0.07467 0.0
O59 O 0.26978 0.33385 0.06165 0.0
O60 O 0.21281 0.45705 0.06592 0.0
O61 O 0.20474 0.40999 0.07548 0.0
C62 C 0.19215 0.43997 0.07179 0.0
C63 C 0.25907 0.32242 0.08784 0.0
C64 C 0.26057 0.35287 0.05466 0.0
C65 C 0.32638 0.42167 0.07513 0.0
O66 O 0.32399 0.38695 0.07631 0.0
O67 O 0.29879 0.43986 0.07217 0.0
O68 O 0.28646 0.31101 0.08296 0.0
O69 O 0.24131 0.35123 0.08501 0.0
O70 O 0.61648 0.75684 0.30665 0.0
Cd71 Cd 0.5908 0.75287 0.31928 0.0
Cd72 Cd 0.65575 0.77716 0.32507 0.0
O73 O 0.67299 0.76345 0.31195 0.0
O74 O 0.5487 0.71731 0.31818 0.0
O75 O 0.59859 0.70605 0.32644 0.0
C76 C 0.56719 0.69496 0.32334 0.0
C77 C 0.68417 0.75542 0.33837 0.0
C78 C 0.65106 0.75919 0.30524 0.0
C79 C 0.59193 0.82938 0.32663 0.0
O80 O 0.62686 0.82605 0.32646 0.0
O81 O 0.57151 0.80177 0.32482 0.0
O82 O 0.69994 0.77993 0.33323 0.0
O83 O 0.65295 0.74208 0.33574 0.0
O84 O 0.25643 0.12006 0.557 0.0
Cd85 Cd 0.26092 0.09439 0.56963 0.0
Cd86 Cd 0.23617 0.15936 0.57544 0.0
O87 O 0.24796 0.17658 0.56217 0.0
O88 O 0.29574 0.05176 0.56829 0.0
O89 O 0.30821 0.10124 0.57655 0.0
C90 C 0.31857 0.06967 0.57337 0.0
C91 C 0.25896 0.18801 0.58854 0.0
C92 C 0.25272 0.15452 0.5555 0.0
C93 C 0.18476 0.09498 0.57739 0.0
O94 O 0.18787 0.12997 0.57728 0.0
O95 O 0.21229 0.07476 0.57535 0.0
O96 O 0.2336 0.20341 0.58364 0.0
O97 O 0.27262 0.1571 0.58574 0.0
O98 O 0.88284 0.76755 0.80582 0.0
Cd99 Cd 0.91172 0.76946 0.81805 0.0
Cd100 Cd 0.84922 0.73971 0.82455 0.0
O101 O 0.82924 0.74952 0.81153 0.0
O102 O 0.95319 0.80533 0.8163 0.0
O103 O 0.90627 0.81525 0.82571 0.0
C104 C 0.93665 0.82677 0.82203 0.0
C105 C 0.81946 0.75914 0.83789 0.0
C106 C 0.84899 0.75936 0.80471 0.0
C107 C 0.91656 0.69185 0.82526 0.0
O108 O 0.88168 0.69351 0.82601 0.0
O109 O 0.93479 0.72027 0.82277 0.0
O110 O 0.80676 0.73218 0.83309 0.0
O111 O 0.84823 0.77639 0.83484 0.0
O112 O 0.75149 0.62872 0.71208 0.0
Cd113 Cd 0.74947 0.59836 0.70009 0.0
Cd114 Cd 0.77753 0.66048 0.6929 0.0
O115 O 0.76763 0.6819 0.70577 0.0
O116 O 0.71356 0.55711 0.7021 0.0
O117 O 0.70386 0.60308 0.69233 0.0
C118 C 0.69223 0.57311 0.69623 0.0
C119 C 0.75792 0.68946 0.67942 0.0
C120 C 0.75881 0.66297 0.71281 0.0
C121 C 0.82662 0.59375 0.69275 0.0
O122 O 0.82419 0.62851 0.69164 0.0
O123 O 0.79875 0.57533 0.69551 0.0
O124 O 0.78464 0.70268 0.68421 0.0
O125 O 0.74111 0.66049 0.68253 0.0
O126 O 0.38913 0.2477 0.96165 0.0
Cd127 Cd 0.41744 0.24535 0.9493 0.0
Cd128 Cd 0.35475 0.27499 0.94299 0.0
O129 O 0.33532 0.2654 0.95611 0.0
O130 O 0.4583 0.20865 0.95078 0.0
O131 O 0.41084 0.20015 0.94153 0.0
C132 C 0.44118 0.18787 0.94504 0.0
C133 C 0.32355 0.25614 0.92985 0.0
C134 C 0.3553 0.25586 0.96288 0.0
C135 C 0.42246 0.32248 0.94192 0.0
O136 O 0.38756 0.32089 0.94127 0.0
O137 O 0.44066 0.29417 0.94446 0.0
O138 O 0.31177 0.28334 0.93473 0.0
O139 O 0.35223 0.23834 0.93271 0.0
O140 O 0.7593 0.88843 0.21222 0.0
Cd141 Cd 0.76273 0.91697 0.19993 0.0
Cd142 Cd 0.73533 0.8537 0.19374 0.0
O143 O 0.74716 0.83323 0.20669 0.0
O144 O 0.79885 0.95777 0.20205 0.0
O145 O 0.80858 0.91269 0.19217 0.0
C146 C 0.82034 0.94218 0.19616 0.0
C147 C 0.75421 0.82486 0.18023 0.0
C148 C 0.75397 0.85403 0.21347 0.0
C149 C 0.68581 0.9205 0.19303 0.0
O150 O 0.68822 0.8855 0.19261 0.0
O151 O 0.71395 0.93965 0.19513 0.0
O152 O 0.72807 0.81131 0.18525 0.0
O153 O 0.77094 0.85403 0.18314 0.0
O154 O 0.11588 0.25383 0.46229 0.0
Cd155 Cd 0.09025 0.25924 0.44972 0.0
Cd156 Cd 0.1545 0.23348 0.44373 0.0
O157 O 0.17211 0.24475 0.45693 0.0
O158 O 0.04945 0.29609 0.45099 0.0
O159 O 0.09943 0.30586 0.44255 0.0
C160 C 0.0684 0.31784 0.44575 0.0
C161 C 0.18654 0.25299 0.43064 0.0
C162 C 0.1503 0.24969 0.46366 0.0
C163 C 0.08849 0.18368 0.44197 0.0
O164 O 0.12348 0.18617 0.44198 0.0
O165 O 0.06887 0.21149 0.44411 0.0
O166 O 0.19892 0.22668 0.43578 0.0
O167 O 0.1567 0.26957 0.4332 0.0
O168 O 0.75682 0.89621 0.55569 0.0
Cd169 Cd 0.75181 0.92195 0.56825 0.0
Cd170 Cd 0.77919 0.85816 0.57426 0.0
O171 O 0.7678 0.84027 0.56111 0.0
O172 O 0.71479 0.96264 0.56697 0.0
O173 O 0.70553 0.91277 0.57553 0.0
C174 C 0.69336 0.94375 0.5723 0.0
C175 C 0.75962 0.82624 0.58737 0.0
C176 C 0.7618 0.86185 0.55436 0.0
C177 C 0.82777 0.92499 0.57587 0.0
O178 O 0.82605 0.88991 0.57593 0.0
O179 O 0.79952 0.944 0.57373 0.0
O180 O 0.78601 0.81381 0.58229 0.0
O181 O 0.74315 0.85614 0.58476 0.0
O182 O 0.12171 0.25945 0.8064 0.0
Cd183 Cd 0.09292 0.25768 0.81868 0.0
Cd184 Cd 0.15608 0.28563 0.8252 0.0
O185 O 0.17556 0.27588 0.8121 0.0
O186 O 0.05146 0.22167 0.81717 0.0
O187 O 0.09879 0.21191 0.82642 0.0
C188 C 0.06844 0.20017 0.82285 0.0
C189 C 0.18577 0.26406 0.83836 0.0
C190 C 0.15577 0.26681 0.80529 0.0
C191 C 0.08979 0.33496 0.82604 0.0
O192 O 0.12462 0.33245 0.82682 0.0
O193 O 0.07103 0.3072 0.82344 0.0
O194 O 0.19946 0.29067 0.83351 0.0
O195 O 0.15583 0.2486 0.83552 0.0
O196 O 0.75802 0.62185 0.05667 0.0
Cd197 Cd 0.76113 0.59518 0.06923 0.0
Cd198 Cd 0.73361 0.65899 0.07508 0.0
O199 O 0.74552 0.67742 0.06196 0.0
O200 O 0.7964 0.55307 0.06781 0.0
O201 O 0.80775 0.60158 0.07652 0.0
C202 C 0.81863 0.57047 0.07316 0.0
C203 C 0.75273 0.6898 0.08827 0.0
C204 C 0.7526 0.65615 0.05526 0.0
C205 C 0.68389 0.593 0.07635 0.0
O206 O 0.68618 0.62802 0.0765 0.0
O207 O 0.71215 0.57367 0.0744 0.0
O208 O 0.72689 0.70292 0.08313 0.0
O209 O 0.76896 0.65981 0.08568 0.0
O210 O 0.38498 0.26171 0.30659 0.0
Cd211 Cd 0.41334 0.26346 0.31888 0.0
Cd212 Cd 0.35097 0.23277 0.32523 0.0
O213 O 0.33144 0.24288 0.31216 0.0
O214 O 0.45474 0.29944 0.31722 0.0
O215 O 0.40746 0.30919 0.32654 0.0
C216 C 0.43791 0.32081 0.32291 0.0
C217 C 0.32149 0.25314 0.3385 0.0
C218 C 0.35125 0.25327 0.30541 0.0
C219 C 0.41873 0.18575 0.32611 0.0
O220 O 0.38379 0.18681 0.32679 0.0
O221 O 0.43655 0.21444 0.32363 0.0
O222 O 0.30825 0.22628 0.33376 0.0
O223 O 0.3507 0.26963 0.33546 0.0
H224 H 0.2887 0.25911 0.09487 0.0
H225 H 0.28071 0.23383 0.11029 0.0
H226 H 0.2033 0.32067 0.11661 0.0
H227 H 0.21069 0.34583 0.10109 0.0
H228 H 0.29932 0.26567 0.12558 0.0
H229 H 0.14442 0.29057 0.13368 0.0
H230 H 0.08468 0.29104 0.12563 0.0
H231 H 0.12828 0.21751 0.1053 0.0
H232 H 0.18808 0.21619 0.1133 0.0
H233 H 0.27911 0.25443 0.17306 0.0
H234 H 0.27097 0.27712 0.1574 0.0
H235 H 0.21037 0.17843 0.15066 0.0
H236 H 0.21738 0.1561 0.16644 0.0
H237 H 0.18211 0.23605 0.14168 0.0
H238 H 0.3033 0.18544 0.14613 0.0
H239 H 0.36369 0.17871 0.15371 0.0
H240 H 0.38872 0.29232 0.14778 0.0
H241 H 0.32826 0.29985 0.14027 0.0
C242 C 0.2695 0.27253 0.09948 0.0
C243 C 0.25045 0.3046 0.09677 0.0
C244 C 0.26505 0.25809 0.10831 0.0
C245 C 0.24146 0.27533 0.11463 0.0
C246 C 0.22134 0.30661 0.11183 0.0
C247 C 0.22566 0.32102 0.10296 0.0
C248 C 0.24022 0.26213 0.1243 0.0
C249 C 0.27364 0.2592 0.12908 0.0
C250 C 0.20681 0.25325 0.12887 0.0
C251 C 0.17085 0.25363 0.12404 0.0
C252 C 0.14122 0.27441 0.12751 0.0
C253 C 0.10734 0.27484 0.12295 0.0
C254 C 0.10273 0.25442 0.11494 0.0
C255 C 0.13194 0.23344 0.11148 0.0
C256 C 0.16584 0.2329 0.11602 0.0
C257 C 0.26352 0.23782 0.16829 0.0
C258 C 0.24925 0.20328 0.17096 0.0
C259 C 0.25899 0.25076 0.15933 0.0
C260 C 0.24082 0.22909 0.15279 0.0
C261 C 0.22465 0.19557 0.15557 0.0
C262 C 0.22873 0.18281 0.16459 0.0
C263 C 0.24117 0.24007 0.14295 0.0
C264 C 0.2077 0.24264 0.13816 0.0
C265 C 0.27463 0.24783 0.13827 0.0
C266 C 0.31114 0.24328 0.14271 0.0
C267 C 0.32161 0.20904 0.14649 0.0
C268 C 0.35585 0.20507 0.15077 0.0
C269 C 0.37999 0.23509 0.15125 0.0
C270 C 0.36998 0.26911 0.14742 0.0
C271 C 0.33574 0.27323 0.14314 0.0
H272 H 0.40648 0.23197 0.15456 0.0
H273 H 0.07649 0.2548 0.11142 0.0
H274 H 0.85975 0.72336 0.41511 0.0
H275 H 0.83653 0.71473 0.3995 0.0
H276 H 0.72913 0.75279 0.40801 0.0
H277 H 0.7524 0.76264 0.42357 0.0
H278 H 0.73833 0.68218 0.39476 0.0
H279 H 0.76567 0.81412 0.39942 0.0
H280 H 0.80727 0.86428 0.40422 0.0
H281 H 0.8894 0.82716 0.38509 0.0
H282 H 0.84842 0.7764 0.38028 0.0
H283 H 0.64737 0.732 0.35362 0.0
H284 H 0.67217 0.7235 0.36901 0.0
H285 H 0.78185 0.74618 0.35876 0.0
H286 H 0.75653 0.75724 0.34347 0.0
H287 H 0.77498 0.78177 0.37305 0.0
H288 H 0.74889 0.6558 0.36661 0.0
H289 H 0.71226 0.60212 0.36168 0.0
H290 H 0.63487 0.62108 0.38351 0.0
H291 H 0.67078 0.67519 0.38849 0.0
C292 C 0.83101 0.72923 0.4137 0.0
C293 C 0.8079 0.74382 0.42055 0.0
C294 C 0.81783 0.7243 0.40479 0.0
C295 C 0.78118 0.73313 0.40264 0.0
C296 C 0.75747 0.74568 0.40957 0.0
C297 C 0.77083 0.75141 0.41843 0.0
C298 C 0.76865 0.73275 0.393 0.0
C299 C 0.74596 0.70399 0.38998 0.0
C300 C 0.77982 0.76055 0.38676 0.0
C301 C 0.80421 0.79125 0.38958 0.0
C302 C 0.79274 0.81645 0.39631 0.0
C303 C 0.81617 0.84503 0.39901 0.0
C304 C 0.85101 0.84883 0.39499 0.0
C305 C 0.86244 0.82414 0.38822 0.0
C306 C 0.83913 0.79548 0.3855 0.0
C307 C 0.67685 0.7346 0.35464 0.0
C308 C 0.70005 0.74524 0.34736 0.0
C309 C 0.69112 0.72949 0.36345 0.0
C310 C 0.72911 0.73362 0.36511 0.0
C311 C 0.75246 0.74292 0.35772 0.0
C312 C 0.73802 0.74907 0.34896 0.0
C313 C 0.74404 0.73109 0.37462 0.0
C314 C 0.76733 0.75949 0.37769 0.0
C315 C 0.73401 0.70239 0.38082 0.0
C316 C 0.71239 0.66975 0.37788 0.0
C317 C 0.72393 0.64868 0.37032 0.0
C318 C 0.70331 0.61814 0.36752 0.0
C319 C 0.67121 0.60824 0.37227 0.0
C320 C 0.65973 0.6288 0.37983 0.0
C321 C 0.68023 0.65937 0.38266 0.0
H322 H 0.65528 0.58461 0.37009 0.0
H323 H 0.8691 0.87098 0.39709 0.0
H324 H 0.29046 0.15204 0.60301 0.0
H325 H 0.2989 0.17555 0.61858 0.0
H326 H 0.25985 0.28263 0.60992 0.0
H327 H 0.25024 0.25907 0.59438 0.0
H328 H 0.32943 0.27543 0.62323 0.0
H329 H 0.19893 0.24335 0.61847 0.0
H330 H 0.15028 0.19996 0.61369 0.0
H331 H 0.1896 0.11957 0.6331 0.0
H332 H 0.23887 0.16234 0.63788 0.0
H333 H 0.27781 0.36456 0.66444 0.0
H334 H 0.28679 0.34026 0.64902 0.0
H335 H 0.26662 0.22974 0.6592 0.0
H336 H 0.25481 0.25458 0.67448 0.0
H337 H 0.23134 0.23555 0.64493 0.0
H338 H 0.35641 0.26581 0.65136 0.0
H339 H 0.40875 0.30436 0.65627 0.0
H340 H 0.38684 0.3812 0.63442 0.0
H341 H 0.33405 0.34336 0.62945 0.0
C342 C 0.28435 0.18079 0.60437 0.0
C343 C 0.26952 0.2037 0.59749 0.0
C344 C 0.28917 0.19413 0.61327 0.0
C345 C 0.27998 0.23076 0.61537 0.0
C346 C 0.26725 0.25431 0.6084 0.0
C347 C 0.26165 0.24079 0.59955 0.0
C348 C 0.28001 0.24335 0.625 0.0
C349 C 0.30795 0.26708 0.62801 0.0
C350 C 0.25266 0.2313 0.63124 0.0
C351 C 0.22281 0.20583 0.62844 0.0
C352 C 0.19741 0.21629 0.62165 0.0
C353 C 0.16968 0.19184 0.61895 0.0
C354 C 0.16692 0.15698 0.62307 0.0
C355 C 0.19181 0.14655 0.6299 0.0
C356 C 0.21963 0.17088 0.63261 0.0
C357 C 0.27585 0.33502 0.66339 0.0
C358 C 0.26568 0.31141 0.67064 0.0
C359 C 0.28125 0.32103 0.65457 0.0
C360 C 0.278 0.28293 0.65288 0.0
C361 C 0.26919 0.25922 0.66025 0.0
C362 C 0.26263 0.27337 0.669 0.0
C363 C 0.28092 0.26816 0.64336 0.0
C364 C 0.25332 0.24391 0.6403 0.0
C365 C 0.3092 0.27914 0.63716 0.0
C366 C 0.34107 0.30188 0.64008 0.0
C367 C 0.36261 0.29105 0.64764 0.0
C368 C 0.39238 0.31276 0.65043 0.0
C369 C 0.40106 0.34525 0.64567 0.0
C370 C 0.38006 0.35604 0.6381 0.0
C371 C 0.35024 0.33444 0.63529 0.0
H372 H 0.42411 0.36203 0.64785 0.0
H373 H 0.14544 0.13809 0.62097 0.0
H374 H 0.84345 0.80976 0.85047 0.0
H375 H 0.82217 0.81657 0.86634 0.0
H376 H 0.73829 0.73431 0.86179 0.0
H377 H 0.75941 0.72713 0.846 0.0
H378 H 0.75599 0.83356 0.87519 0.0
H379 H 0.73839 0.6757 0.87997 0.0
H380 H 0.76353 0.61784 0.87362 0.0
H381 H 0.86408 0.67365 0.86636 0.0
H382 H 0.83977 0.73167 0.87279 0.0
H383 H 0.65587 0.79 0.91602 0.0
H384 H 0.68034 0.79889 0.90055 0.0
H385 H 0.78256 0.74721 0.90868 0.0
H386 H 0.7576 0.7369 0.92406 0.0
H387 H 0.76154 0.71829 0.89372 0.0
H388 H 0.77395 0.84346 0.90367 0.0
H389 H 0.75284 0.90201 0.91048 0.0
H390 H 0.67178 0.91405 0.88928 0.0
H391 H 0.69214 0.85535 0.88239 0.0
C392 C 0.82006 0.79358 0.8528 0.0
C393 C 0.80338 0.76761 0.84699 0.0
C394 C 0.8079 0.79758 0.86187 0.0
C395 C 0.77903 0.77555 0.86528 0.0
C396 C 0.76096 0.75122 0.85933 0.0
C397 C 0.77305 0.74722 0.85029 0.0
C398 C 0.76957 0.77566 0.87519 0.0
C399 C 0.7572 0.80843 0.87927 0.0
C400 C 0.77198 0.74304 0.88054 0.0
C401 C 0.78708 0.70811 0.87678 0.0
C402 C 0.76592 0.67558 0.87705 0.0
C403 C 0.78002 0.64276 0.87344 0.0
C404 C 0.81534 0.6421 0.86956 0.0
C405 C 0.83668 0.67423 0.86933 0.0
C406 C 0.82273 0.7071 0.87295 0.0
C407 C 0.68379 0.7811 0.91455 0.0
C408 C 0.70477 0.76264 0.92125 0.0
C409 C 0.69785 0.78634 0.9057 0.0
C410 C 0.73347 0.77397 0.90342 0.0
C411 C 0.75497 0.75688 0.91023 0.0
C412 C 0.74072 0.75112 0.91904 0.0
C413 C 0.74727 0.77614 0.8938 0.0
C414 C 0.76043 0.74362 0.88972 0.0
C415 C 0.74624 0.80918 0.88854 0.0
C416 C 0.73442 0.84486 0.89255 0.0
C417 C 0.75152 0.85851 0.90048 0.0
C418 C 0.7397 0.89174 0.90435 0.0
C419 C 0.71093 0.9117 0.90033 0.0
C420 C 0.69405 0.89855 0.89239 0.0
C421 C 0.70577 0.86534 0.88849 0.0
H422 H 0.70175 0.93736 0.90335 0.0
H423 H 0.82619 0.61668 0.86676 0.0
H424 H 0.78402 0.75955 0.59373 0.0
H425 H 0.77559 0.73328 0.60904 0.0
H426 H 0.7083 0.82669 0.61661 0.0
H427 H 0.71585 0.85265 0.6012 0.0
H428 H 0.79923 0.75969 0.62429 0.0
H429 H 0.65007 0.80323 0.63412 0.0
H430 H 0.5896 0.81192 0.6267 0.0
H431 H 0.62026 0.73539 0.60563 0.0
H432 H 0.68069 0.72586 0.61299 0.0
H433 H 0.78399 0.75361 0.67193 0.0
H434 H 0.77653 0.77556 0.65619 0.0
H435 H 0.70572 0.68291 0.6504 0.0
H436 H 0.71246 0.66109 0.66624 0.0
H437 H 0.68196 0.74436 0.64154 0.0
H438 H 0.79595 0.67886 0.64487 0.0
H439 H 0.85613 0.66409 0.65183 0.0
H440 H 0.89518 0.77325 0.64543 0.0
H441 H 0.83502 0.78884 0.63854 0.0
C442 C 0.76689 0.77421 0.59859 0.0
C443 C 0.75069 0.80825 0.59625 0.0
C444 C 0.76218 0.7592 0.60737 0.0
C445 C 0.74129 0.77792 0.614 0.0
C446 C 0.72409 0.81139 0.61159 0.0
C447 C 0.72853 0.82628 0.60277 0.0
C448 C 0.73997 0.76382 0.6236 0.0
C449 C 0.77352 0.7563 0.62803 0.0
C450 C 0.70647 0.75888 0.6285 0.0
C451 C 0.67005 0.76413 0.62407 0.0
C452 C 0.64385 0.78816 0.62793 0.0
C453 C 0.60959 0.79324 0.62373 0.0
C454 C 0.60114 0.77431 0.61568 0.0
C455 C 0.62689 0.75015 0.61184 0.0
C456 C 0.66117 0.74494 0.61601 0.0
C457 C 0.76636 0.73816 0.66736 0.0
C458 C 0.74913 0.70537 0.67031 0.0
C459 C 0.76221 0.75071 0.65835 0.0
C460 C 0.74117 0.73048 0.65206 0.0
C461 C 0.7222 0.69888 0.65512 0.0
C462 C 0.72614 0.68642 0.66417 0.0
C463 C 0.7412 0.74092 0.64219 0.0
C464 C 0.70756 0.74778 0.63775 0.0
C465 C 0.77456 0.74446 0.63719 0.0
C466 C 0.81087 0.73511 0.64127 0.0
C467 C 0.81729 0.69979 0.645 0.0
C468 C 0.8514 0.69126 0.64893 0.0
C469 C 0.87943 0.71774 0.64909 0.0
C470 C 0.87343 0.75278 0.64531 0.0
C471 C 0.83934 0.76147 0.64139 0.0
H472 H 0.90583 0.71109 0.65213 0.0
H473 H 0.57461 0.77831 0.61244 0.0
H474 H 0.34386 0.20322 0.91741 0.0
H475 H 0.32131 0.19645 0.90168 0.0
H476 H 0.24295 0.28419 0.90619 0.0
H477 H 0.26522 0.29121 0.92184 0.0
H478 H 0.25295 0.18314 0.89332 0.0
H479 H 0.24743 0.34174 0.88773 0.0
H480 H 0.27803 0.39778 0.89353 0.0
H481 H 0.37413 0.33414 0.90042 0.0
H482 H 0.34435 0.27788 0.89453 0.0
H483 H 0.15276 0.2291 0.85286 0.0
H484 H 0.17794 0.21997 0.86822 0.0
H485 H 0.28202 0.26574 0.85923 0.0
H486 H 0.25627 0.2766 0.84399 0.0
H487 H 0.26519 0.2961 0.87411 0.0
H488 H 0.2676 0.16972 0.86477 0.0
H489 H 0.24244 0.11178 0.85855 0.0
H490 H 0.16317 0.10683 0.88046 0.0
H491 H 0.18755 0.16499 0.88675 0.0
C492 C 0.32139 0.22063 0.9151 0.0
C493 C 0.30659 0.24801 0.92085 0.0
C494 C 0.3085 0.21667 0.90612 0.0
C495 C 0.28084 0.24017 0.90274 0.0
C496 C 0.26464 0.26607 0.90863 0.0
C497 C 0.27739 0.26999 0.91759 0.0
C498 C 0.27074 0.23983 0.89289 0.0
C499 C 0.25561 0.20775 0.88908 0.0
C500 C 0.27514 0.27168 0.88733 0.0
C501 C 0.29347 0.30553 0.89077 0.0
C502 C 0.27514 0.33975 0.89045 0.0
C503 C 0.29235 0.37155 0.89376 0.0
C504 C 0.32796 0.36951 0.89737 0.0
C505 C 0.3465 0.33567 0.89765 0.0
C506 C 0.32945 0.30381 0.89434 0.0
C507 C 0.1812 0.23665 0.85413 0.0
C508 C 0.20253 0.25366 0.84723 0.0
C509 C 0.19567 0.23126 0.86292 0.0
C510 C 0.23208 0.24187 0.86492 0.0
C511 C 0.25382 0.25747 0.8579 0.0
C512 C 0.23913 0.26355 0.84918 0.0
C513 C 0.24662 0.23947 0.87445 0.0
C514 C 0.26259 0.27125 0.87825 0.0
C515 C 0.24376 0.20702 0.87991 0.0
C516 C 0.22924 0.17187 0.87619 0.0
C517 C 0.24466 0.15639 0.86823 0.0
C518 C 0.23056 0.12349 0.86469 0.0
C519 C 0.20118 0.10567 0.8691 0.0
C520 C 0.18592 0.12066 0.87706 0.0
C521 C 0.1999 0.15357 0.88061 0.0
H522 H 0.19029 0.08022 0.86635 0.0
H523 H 0.34122 0.39415 0.89993 0.0
H524 H 0.72988 0.75707 0.09444 0.0
H525 H 0.73789 0.78283 0.10973 0.0
H526 H 0.80115 0.68698 0.11774 0.0
H527 H 0.79412 0.66156 0.10234 0.0
H528 H 0.71238 0.75803 0.125 0.0
H529 H 0.85875 0.70769 0.13535 0.0
H530 H 0.91929 0.6963 0.12812 0.0
H531 H 0.89356 0.77413 0.10675 0.0
H532 H 0.8331 0.78635 0.11392 0.0
H533 H 0.72555 0.76228 0.17272 0.0
H534 H 0.73247 0.74077 0.15698 0.0
H535 H 0.80726 0.83062 0.15117 0.0
H536 H 0.80091 0.85209 0.16699 0.0
H537 H 0.82905 0.76795 0.14251 0.0
H538 H 0.7184 0.83884 0.14536 0.0
H539 H 0.65855 0.85683 0.15207 0.0
H540 H 0.61422 0.74991 0.14586 0.0
H541 H 0.67401 0.7311 0.13922 0.0
C542 C 0.74604 0.74174 0.09941 0.0
C543 C 0.76132 0.70723 0.09718 0.0
C544 C 0.75049 0.75645 0.10817 0.0
C545 C 0.77017 0.73695 0.11492 0.0
C546 C 0.78635 0.70291 0.11263 0.0
C547 C 0.78221 0.68832 0.10382 0.0
C548 C 0.77143 0.75106 0.12449 0.0
C549 C 0.73797 0.76022 0.12879 0.0
C550 C 0.80479 0.75452 0.12945 0.0
C551 C 0.84125 0.74764 0.12513 0.0
C552 C 0.86608 0.72247 0.12913 0.0
C553 C 0.90036 0.71585 0.12503 0.0
C554 C 0.91021 0.73439 0.11696 0.0
C555 C 0.88584 0.75968 0.11298 0.0
C556 C 0.85154 0.76642 0.11705 0.0
C557 C 0.74392 0.77721 0.16814 0.0
C558 C 0.76241 0.80913 0.17109 0.0
C559 C 0.74775 0.76492 0.15913 0.0
C560 C 0.76985 0.78447 0.15285 0.0
C561 C 0.78995 0.81518 0.15589 0.0
C562 C 0.78624 0.82745 0.16494 0.0
C563 C 0.77 0.77417 0.143 0.0
C564 C 0.80358 0.76572 0.13867 0.0
C565 C 0.73686 0.77221 0.13791 0.0
C566 C 0.70079 0.78345 0.14187 0.0
C567 C 0.69597 0.81907 0.14548 0.0
C568 C 0.66205 0.82943 0.14927 0.0
C569 C 0.63263 0.8045 0.14941 0.0
C570 C 0.63705 0.76918 0.14575 0.0
C571 C 0.67094 0.75866 0.14197 0.0
H572 H 0.60638 0.81258 0.15234 0.0
H573 H 0.93676 0.72921 0.1138 0.0
H574 H 0.25067 0.22447 0.42385 0.0
H575 H 0.27596 0.23217 0.40843 0.0
H576 H 0.18748 0.30716 0.40166 0.0
H577 H 0.1623 0.30005 0.41715 0.0
H578 H 0.24501 0.21202 0.39311 0.0
H579 H 0.21628 0.36622 0.38451 0.0
H580 H 0.21442 0.42633 0.39239 0.0
H581 H 0.2888 0.38518 0.41289 0.0
H582 H 0.2915 0.32503 0.40508 0.0
H583 H 0.25508 0.23112 0.34553 0.0
H584 H 0.23254 0.23892 0.3612 0.0
H585 H 0.3296 0.30229 0.36777 0.0
H586 H 0.3518 0.29554 0.352 0.0
H587 H 0.27143 0.32946 0.37665 0.0
H588 H 0.32518 0.20943 0.37259 0.0
H589 H 0.33361 0.14885 0.36522 0.0
H590 H 0.22091 0.12083 0.37119 0.0
H591 H 0.21169 0.18145 0.3785 0.0
C592 C 0.23689 0.2431 0.41914 0.0
C593 C 0.20437 0.26154 0.42172 0.0
C594 C 0.25134 0.24737 0.41031 0.0
C595 C 0.23365 0.2702 0.40386 0.0
C596 C 0.20189 0.28972 0.40653 0.0
C597 C 0.18747 0.28556 0.41539 0.0
C598 C 0.24697 0.27133 0.39421 0.0
C599 C 0.25079 0.23776 0.38954 0.0
C600 C 0.25498 0.30481 0.38954 0.0
C601 C 0.25375 0.34099 0.39426 0.0
C602 C 0.23232 0.37004 0.39068 0.0
C603 C 0.23111 0.40412 0.39514 0.0
C604 C 0.25137 0.40953 0.40315 0.0
C605 C 0.27299 0.38091 0.40671 0.0
C606 C 0.27432 0.3468 0.40228 0.0
C607 C 0.27136 0.24724 0.35026 0.0
C608 C 0.30542 0.26238 0.34755 0.0
C609 C 0.2585 0.25156 0.35923 0.0
C610 C 0.27978 0.27047 0.36573 0.0
C611 C 0.31277 0.28745 0.3629 0.0
C612 C 0.32546 0.28352 0.35388 0.0
C613 C 0.26893 0.27019 0.37557 0.0
C614 C 0.26554 0.30382 0.38026 0.0
C615 C 0.26212 0.23669 0.38035 0.0
C616 C 0.26767 0.20009 0.37602 0.0
C617 C 0.30214 0.19043 0.37228 0.0
C618 C 0.30707 0.15608 0.36812 0.0
C619 C 0.27779 0.13104 0.36772 0.0
C620 C 0.24355 0.14027 0.3715 0.0
C621 C 0.23847 0.1746 0.37566 0.0
H622 H 0.28165 0.10447 0.36449 0.0
H623 H 0.25039 0.43592 0.40659 0.0
H624 H 0.22993 0.13687 0.22935 0.0
H625 H 0.23963 0.16104 0.24479 0.0
H626 H 0.30507 0.25004 0.23359 0.0
H627 H 0.29515 0.2264 0.21812 0.0
H628 H 0.3402 0.20804 0.24755 0.0
H629 H 0.22544 0.27108 0.24232 0.0
H630 H 0.1598 0.27563 0.23809 0.0
H631 H 0.13089 0.20188 0.26013 0.0
H632 H 0.19646 0.19646 0.26442 0.0
H633 H 0.37748 0.28889 0.29014 0.0
H634 H 0.35646 0.28195 0.27435 0.0
H635 H 0.27099 0.20728 0.28352 0.0
H636 H 0.29084 0.21547 0.29937 0.0
H637 H 0.24521 0.24627 0.27014 0.0
H638 H 0.35638 0.17679 0.27462 0.0
H639 H 0.42134 0.16649 0.27891 0.0
H640 H 0.45634 0.24474 0.25843 0.0
H641 H 0.3915 0.25586 0.25409 0.0
C642 C 0.24585 0.16196 0.23015 0.0
C643 C 0.26185 0.17964 0.2225 0.0
C644 C 0.25127 0.17578 0.23898 0.0
C645 C 0.27305 0.20733 0.24032 0.0
C646 C 0.28813 0.22568 0.23269 0.0
C647 C 0.28229 0.21219 0.22385 0.0
C648 C 0.28255 0.21929 0.24973 0.0
C649 C 0.31956 0.21712 0.25245 0.0
C650 C 0.25539 0.22979 0.25619 0.0
C651 C 0.21592 0.23312 0.25364 0.0
C652 C 0.20513 0.25558 0.24622 0.0
C653 C 0.16792 0.25837 0.24382 0.0
C654 C 0.1412 0.23899 0.24882 0.0
C655 C 0.15163 0.21685 0.25625 0.0
C656 C 0.18881 0.21395 0.25868 0.0
C657 C 0.35389 0.27139 0.28881 0.0
C658 C 0.33603 0.25248 0.296 0.0
C659 C 0.34201 0.26727 0.27976 0.0
C660 C 0.3127 0.24332 0.27769 0.0
C661 C 0.29375 0.22579 0.28492 0.0
C662 C 0.30517 0.23046 0.29399 0.0
C663 C 0.30301 0.23504 0.268 0.0
C664 C 0.26598 0.23764 0.26523 0.0
C665 C 0.33007 0.22412 0.26152 0.0
C666 C 0.36908 0.21747 0.2641 0.0
C667 C 0.37792 0.192 0.27108 0.0
C668 C 0.41471 0.18599 0.27351 0.0
C669 C 0.44294 0.20504 0.26897 0.0
C670 C 0.43443 0.23007 0.26196 0.0
C671 C 0.39767 0.23622 0.2595 0.0
H672 H 0.47141 0.20034 0.27086 0.0
H673 H 0.11241 0.24119 0.24695 0.0
H674 H 0.78501 0.75512 0.46887 0.0
H675 H 0.76299 0.76499 0.48455 0.0
H676 H 0.8751 0.78223 0.49346 0.0
H677 H 0.89725 0.77066 0.47797 0.0
H678 H 0.84207 0.7479 0.50615 0.0
H679 H 0.81219 0.85537 0.4881 0.0
H680 H 0.78385 0.88988 0.47531 0.0
H681 H 0.67636 0.85357 0.48394 0.0
H682 H 0.70415 0.81847 0.49673 0.0
H683 H 0.77106 0.90162 0.53859 0.0
H684 H 0.78143 0.87824 0.52318 0.0
H685 H 0.76597 0.76663 0.53305 0.0
H686 H 0.75733 0.7899 0.54863 0.0
H687 H 0.74626 0.84373 0.51101 0.0
H688 H 0.81875 0.70705 0.52097 0.0
H689 H 0.85532 0.68078 0.53368 0.0
H690 H 0.89146 0.78952 0.5411 0.0
H691 H 0.85547 0.81634 0.52837 0.0
C692 C 0.80496 0.76053 0.47421 0.0
C693 C 0.84287 0.76229 0.47216 0.0
C694 C 0.79233 0.76641 0.48317 0.0
C695 C 0.81727 0.77513 0.4902 0.0
C696 C 0.85521 0.77555 0.4882 0.0
C697 C 0.86787 0.76899 0.4793 0.0
C698 C 0.8042 0.78539 0.49954 0.0
C699 C 0.82093 0.76869 0.50719 0.0
C700 C 0.77703 0.81295 0.50098 0.0
C701 C 0.76027 0.83396 0.4933 0.0
C702 C 0.78254 0.85454 0.48723 0.0
C703 C 0.76657 0.87423 0.47999 0.0
C704 C 0.72833 0.87382 0.47879 0.0
C705 C 0.70597 0.85379 0.48486 0.0
C706 C 0.72181 0.83401 0.49211 0.0
C707 C 0.76956 0.87209 0.53748 0.0
C708 C 0.76371 0.8476 0.54486 0.0
C709 C 0.77542 0.85872 0.52864 0.0
C710 C 0.77513 0.82057 0.52693 0.0
C711 C 0.76728 0.79613 0.53421 0.0
C712 C 0.76212 0.80947 0.54311 0.0
C713 C 0.7846 0.80672 0.5176 0.0
C714 C 0.76706 0.82259 0.50996 0.0
C715 C 0.81215 0.77954 0.51616 0.0
C716 C 0.83404 0.76369 0.5238 0.0
C717 C 0.83456 0.72531 0.52531 0.0
C718 C 0.85518 0.71034 0.53251 0.0
C719 C 0.87558 0.73348 0.53822 0.0
C720 C 0.87552 0.77164 0.5367 0.0
C721 C 0.855 0.78674 0.5295 0.0
H722 H 0.8915 0.72184 0.54379 0.0
H723 H 0.71602 0.88909 0.47318 0.0
H724 H 0.22026 0.2894 0.71828 0.0
H725 H 0.2096 0.26774 0.73398 0.0
H726 H 0.26985 0.36111 0.74438 0.0
H727 H 0.28024 0.38337 0.72869 0.0
H728 H 0.28373 0.29006 0.75373 0.0
H729 H 0.18392 0.37052 0.74405 0.0
H730 H 0.13441 0.39037 0.73357 0.0
H731 H 0.08028 0.28572 0.73712 0.0
H732 H 0.12982 0.26505 0.74752 0.0
H733 H 0.21721 0.30371 0.79938 0.0
H734 H 0.23881 0.31152 0.78364 0.0
H735 H 0.1523 0.23924 0.77423 0.0
H736 H 0.1295 0.23283 0.78995 0.0
H737 H 0.15311 0.29551 0.76392 0.0
H738 H 0.24873 0.21526 0.77439 0.0
H739 H 0.29827 0.1929 0.78455 0.0
H740 H 0.36038 0.29184 0.77933 0.0
H741 H 0.31098 0.31505 0.76923 0.0
C742 C 0.23186 0.30501 0.72389 0.0
C743 C 0.2509 0.33828 0.72223 0.0
C744 C 0.22566 0.29261 0.73286 0.0
C745 C 0.23874 0.31298 0.74032 0.0
C746 C 0.25958 0.345 0.7387 0.0
C747 C 0.26536 0.35774 0.72973 0.0
C748 C 0.22798 0.30264 0.74981 0.0
C749 C 0.25526 0.29144 0.75602 0.0
C750 C 0.1907 0.30358 0.75268 0.0
C751 C 0.16078 0.31609 0.74648 0.0
C752 C 0.16164 0.35162 0.74253 0.0
C753 C 0.13354 0.36305 0.73662 0.0
C754 C 0.10428 0.33928 0.73465 0.0
C755 C 0.103 0.30408 0.73863 0.0
C756 C 0.13107 0.2925 0.74454 0.0
C757 C 0.20313 0.28901 0.79398 0.0
C758 C 0.17161 0.26768 0.79591 0.0
C759 C 0.21565 0.29335 0.78496 0.0
C760 C 0.19753 0.27564 0.77769 0.0
C761 C 0.16677 0.25329 0.77968 0.0
C762 C 0.1538 0.24954 0.78868 0.0
C763 C 0.20886 0.28263 0.768 0.0
C764 C 0.18163 0.29351 0.7617 0.0
C765 C 0.24617 0.2809 0.76505 0.0
C766 C 0.27598 0.26702 0.77111 0.0
C767 C 0.27282 0.23238 0.77546 0.0
C768 C 0.30091 0.21953 0.7812 0.0
C769 C 0.33242 0.24097 0.7826 0.0
C770 C 0.33595 0.27528 0.77824 0.0
C771 C 0.30793 0.28827 0.7725 0.0
H772 H 0.35413 0.23098 0.78705 0.0
H773 H 0.08255 0.34818 0.73007 0.0
H774 H 0.73791 0.72699 0.04951 0.0
H775 H 0.72587 0.74798 0.03382 0.0
H776 H 0.75073 0.63903 0.02374 0.0
H777 H 0.76262 0.6177 0.03936 0.0
H778 H 0.76438 0.74994 0.01723 0.0
H779 H 0.68476 0.61734 1.00806 0.0
H780 H 0.65005 0.56744 0.01581 0.0
H781 H 0.62287 0.64071 0.03787 0.0
H782 H 0.65694 0.69115 0.03019 0.0
H783 H 0.72394 0.73696 0.96911 0.0
H784 H 0.74473 0.72785 0.98491 0.0
H785 H 0.6339 0.74653 0.99469 0.0
H786 H 0.61283 0.75549 0.97896 0.0
H787 H 0.66219 0.68412 1.00173 0.0
H788 H 0.70039 0.81002 0.99826 0.0
H789 H 0.73231 0.86262 0.99092 0.0
H790 H 0.83662 0.8085 0.99473 0.0
H791 H 0.80526 0.75531 1.00199 0.0
C792 C 0.74143 0.70761 0.04394 0.0
C793 C 0.75081 0.67051 0.04572 0.0
C794 C 0.73463 0.71972 0.03498 0.0
C795 C 0.73689 0.69493 0.02764 0.0
C796 C 0.74837 0.65849 0.02932 0.0
C797 C 0.75522 0.64638 0.03827 0.0
C798 C 0.72435 0.7062 0.01835 0.0
C799 C 0.74213 0.73553 0.01381 0.0
C800 C 0.69483 0.68784 0.01398 0.0
C801 C 0.67373 0.65788 0.01859 0.0
C802 C 0.67124 0.62282 0.01455 0.0
C803 C 0.6517 0.59445 0.01893 0.0
C804 C 0.63437 0.60087 0.02734 0.0
C805 C 0.63642 0.63573 0.03137 0.0
C806 C 0.65587 0.66421 0.02701 0.0
C807 C 0.70407 0.73966 0.97463 0.0
C808 C 0.66665 0.74679 0.97275 0.0
C809 C 0.71604 0.73453 0.98366 0.0
C810 C 0.69087 0.73651 0.99098 0.0
C811 C 0.65378 0.74475 0.98914 0.0
C812 C 0.64182 0.74999 0.98014 0.0
C813 C 0.70254 0.72759 1.0005 0.0
C814 C 0.68455 0.69856 1.0051 0.0
C815 C 0.73149 0.74658 1.00494 0.0
C816 C 0.75043 0.77853 1.00059 0.0
C817 C 0.7301 0.80919 0.99747 0.0
C818 C 0.7481 0.83914 0.99333 0.0
C819 C 0.78646 0.83886 0.99234 0.0
C820 C 0.80691 0.80866 0.9955 0.0
C821 C 0.78904 0.77862 0.99963 0.0
H822 H 0.80034 0.86208 0.98914 0.0
H823 H 0.6193 0.57885 0.03073 0.0
H824 H 0.29833 0.29095 0.04959 0.0
H825 H 0.30915 0.26849 0.03403 0.0
H826 H 0.23925 0.35457 0.02322 0.0
H827 H 0.22885 0.37785 0.03877 0.0
H828 H 0.23139 0.2782 0.01505 0.0
H829 H 0.32024 0.37395 0.02189 0.0
H830 H 0.3679 0.40375 0.03133 0.0
H831 H 0.43587 0.30693 0.02934 0.0
H832 H 0.38828 0.2763 0.02 0.0
H833 H 0.2908 0.28787 0.96856 0.0
H834 H 0.27001 0.29754 0.98429 0.0
H835 H 0.36431 0.23701 0.99434 0.0
H836 H 0.38593 0.2283 0.97862 0.0
H837 H 0.3586 0.29773 1.0033 0.0
H838 H 0.27304 0.20278 0.99558 0.0
H839 H 0.22557 0.17126 0.98643 0.0
H840 H 0.15176 0.26272 0.99027 0.0
H841 H 0.19899 0.29504 0.99934 0.0
C842 C 0.28471 0.30477 0.04393 0.0
C843 C 0.26287 0.33633 0.04541 0.0
C844 C 0.29099 0.2919 0.03504 0.0
C845 C 0.27509 0.30998 0.0275 0.0
C846 C 0.25166 0.34023 0.02897 0.0
C847 C 0.24589 0.35356 0.03785 0.0
C848 C 0.28547 0.29919 0.01806 0.0
C849 C 0.25905 0.28271 0.01241 0.0
C850 C 0.32182 0.3043 0.01476 0.0
C851 C 0.35052 0.32268 0.02034 0.0
C852 C 0.34518 0.35887 0.02354 0.0
C853 C 0.3722 0.37594 0.02886 0.0
C854 C 0.40483 0.3572 0.03095 0.0
C855 C 0.41054 0.32138 0.02772 0.0
C856 C 0.38356 0.30415 0.02242 0.0
C857 C 0.30684 0.27608 0.97411 0.0
C858 C 0.34012 0.2574 0.97232 0.0
C859 C 0.2948 0.28151 0.98312 0.0
C860 C 0.3154 0.26779 0.99054 0.0
C861 C 0.34796 0.24797 0.98875 0.0
C862 C 0.36024 0.2429 0.97975 0.0
C863 C 0.30454 0.27643 1.00015 0.0
C864 C 0.33092 0.29275 1.00588 0.0
C865 C 0.2682 0.27083 1.00352 0.0
C866 C 0.2397 0.25148 0.99807 0.0
C867 C 0.2468 0.21631 0.99441 0.0
C868 C 0.21991 0.19827 0.98925 0.0
C869 C 0.1857 0.21502 0.98775 0.0
C870 C 0.17828 0.2498 0.99143 0.0
C871 C 0.20509 0.26798 0.99659 0.0
H872 H 0.16492 0.201 0.98376 0.0
H873 H 0.42574 0.37051 0.03505 0.0
H874 H 0.7223 0.74904 0.29929 0.0
H875 H 0.74596 0.75629 0.28364 0.0
H876 H 0.63599 0.78124 0.27415 0.0
H877 H 0.6121 0.77222 0.28962 0.0
H878 H 0.66716 0.74406 0.26179 0.0
H879 H 0.70391 0.84986 0.27936 0.0
H880 H 0.734 0.8827 0.29208 0.0
H881 H 0.83892 0.83783 0.2841 0.0
H882 H 0.80934 0.80437 0.2714 0.0
H883 H 0.74843 0.89318 0.2293 0.0
H884 H 0.73712 0.86967 0.2447 0.0
H885 H 0.74489 0.75784 0.23476 0.0
H886 H 0.75447 0.78141 0.21915 0.0
H887 H 0.76989 0.83249 0.25681 0.0
H888 H 0.68854 0.70143 0.24706 0.0
H889 H 0.65052 0.6778 0.23437 0.0
H890 H 0.62154 0.78878 0.22671 0.0
H891 H 0.65901 0.813 0.23941 0.0
C892 C 0.70315 0.7556 0.29383 0.0
C893 C 0.66535 0.76024 0.29571 0.0
C894 C 0.71673 0.75996 0.28489 0.0
C895 C 0.69294 0.77006 0.2777 0.0
C896 C 0.65501 0.77341 0.27954 0.0
C897 C 0.64135 0.76833 0.28842 0.0
C898 C 0.70731 0.77887 0.26835 0.0
C899 C 0.68982 0.76321 0.26072 0.0
C900 C 0.73653 0.80426 0.26687 0.0
C901 C 0.75436 0.82427 0.27451 0.0
C902 C 0.73335 0.84679 0.28036 0.0
C903 C 0.75032 0.86555 0.28756 0.0
C904 C 0.78833 0.86225 0.28892 0.0
C905 C 0.80947 0.84028 0.28306 0.0
C906 C 0.79263 0.82143 0.27586 0.0
C907 C 0.7481 0.86354 0.23037 0.0
C908 C 0.75202 0.83918 0.22296 0.0
C909 C 0.7417 0.85009 0.23922 0.0
C910 C 0.73951 0.81192 0.24092 0.0
C911 C 0.74554 0.78742 0.23361 0.0
C912 C 0.75125 0.80092 0.2247 0.0
C913 C 0.72916 0.79836 0.25025 0.0
C914 C 0.74759 0.81292 0.25788 0.0
C915 C 0.69971 0.77324 0.25173 0.0
C916 C 0.67696 0.75898 0.2441 0.0
C917 C 0.674 0.72075 0.24267 0.0
C918 C 0.65255 0.70726 0.23548 0.0
C919 C 0.63375 0.73178 0.22971 0.0
C920 C 0.63623 0.76983 0.23115 0.0
C921 C 0.6576 0.78344 0.23834 0.0
H922 H 0.61718 0.72128 0.22415 0.0
H923 H 0.80142 0.8768 0.29449 0.0
H924 H 0.22167 0.25744 0.4696 0.0
H925 H 0.24485 0.24879 0.48521 0.0
H926 H 0.13412 0.22604 0.49467 0.0
H927 H 0.11075 0.23652 0.47925 0.0
H928 H 0.16557 0.26204 0.50708 0.0
H929 H 0.20114 0.1561 0.48937 0.0
H930 H 0.23103 0.12298 0.47662 0.0
H931 H 0.33648 0.16578 0.48466 0.0
H932 H 0.30712 0.19952 0.4974 0.0
H933 H 0.24535 0.1138 0.53995 0.0
H934 H 0.23373 0.13609 0.52445 0.0
H935 H 0.24425 0.24864 0.53369 0.0
H936 H 0.25439 0.22642 0.54936 0.0
H937 H 0.26712 0.17225 0.51196 0.0
H938 H 0.18682 0.30451 0.52168 0.0
H939 H 0.14909 0.32862 0.53443 0.0
H940 H 0.11991 0.21795 0.54236 0.0
H941 H 0.1571 0.19325 0.5296 0.0
C942 C 0.20227 0.25103 0.47504 0.0
C943 C 0.16439 0.24751 0.47317 0.0
C944 C 0.21556 0.24585 0.48396 0.0
C945 C 0.19139 0.236 0.49114 0.0
C946 C 0.15344 0.23364 0.4893 0.0
C947 C 0.14007 0.23957 0.48045 0.0
C948 C 0.20536 0.22671 0.50047 0.0
C949 C 0.18796 0.24258 0.50812 0.0
C950 C 0.23419 0.20086 0.50192 0.0
C951 C 0.25189 0.18067 0.49426 0.0
C952 C 0.23067 0.15865 0.48838 0.0
C953 C 0.24751 0.13974 0.48116 0.0
C954 C 0.28561 0.14237 0.47981 0.0
C955 C 0.30696 0.16384 0.4857 0.0
C956 C 0.29024 0.18285 0.49292 0.0
C957 C 0.24556 0.14332 0.53869 0.0
C958 C 0.25046 0.16833 0.54593 0.0
C959 C 0.23899 0.15606 0.52979 0.0
C960 C 0.23748 0.19411 0.52788 0.0
C961 C 0.24441 0.21917 0.535 0.0
C962 C 0.25043 0.20643 0.54396 0.0
C963 C 0.22691 0.20711 0.51854 0.0
C964 C 0.24508 0.1921 0.5109 0.0
C965 C 0.1977 0.2325 0.5171 0.0
C966 C 0.17513 0.24708 0.52476 0.0
C967 C 0.1723 0.28536 0.52614 0.0
C968 C 0.15101 0.29912 0.53337 0.0
C969 C 0.13224 0.27482 0.53923 0.0
C970 C 0.13459 0.23673 0.53785 0.0
C971 C 0.1558 0.22284 0.53062 0.0
H972 H 0.1158 0.28553 0.54482 0.0
H973 H 0.29861 0.1277 0.47422 0.0
H974 H 0.73005 0.63622 0.72893 0.0
H975 H 0.7395 0.66064 0.74436 0.0
H976 H 0.80196 0.75154 0.73306 0.0
H977 H 0.79223 0.72771 0.7176 0.0
H978 H 0.83851 0.70999 0.74708 0.0
H979 H 0.72241 0.77066 0.74168 0.0
H980 H 0.65668 0.77349 0.73743 0.0
H981 H 0.6295 0.70003 0.75966 0.0
H982 H 0.69518 0.69634 0.76396 0.0
H983 H 0.87466 0.7943 0.78929 0.0
H984 H 0.85365 0.78591 0.77353 0.0
H985 H 0.7691 0.71094 0.78309 0.0
H986 H 0.78886 0.72066 0.79888 0.0
H987 H 0.7428 0.74796 0.76952 0.0
H988 H 0.85515 0.68091 0.7743 0.0
H989 H 0.92027 0.67205 0.77865 0.0
H990 H 0.95398 0.74934 0.75781 0.0
H991 H 0.88897 0.75902 0.75341 0.0
C992 C 0.74528 0.66174 0.72971 0.0
C993 C 0.76046 0.67996 0.72203 0.0
C994 C 0.75057 0.67569 0.73853 0.0
C995 C 0.77142 0.70789 0.73984 0.0
C996 C 0.78575 0.72668 0.73218 0.0
C997 C 0.78002 0.71307 0.72335 0.0
C998 C 0.78067 0.7203 0.74922 0.0
C999 C 0.8177 0.71898 0.75195 0.0
C1000 C 0.7533 0.73067 0.75564 0.0
C1001 C 0.71378 0.73297 0.75309 0.0
C1002 C 0.70247 0.75486 0.74561 0.0
C1003 C 0.66521 0.75667 0.74321 0.0
C1004 C 0.63894 0.73688 0.74826 0.0
C1005 C 0.64988 0.71532 0.75575 0.0
C1006 C 0.68712 0.71339 0.75818 0.0
C1007 C 0.85124 0.77646 0.78804 0.0
C1008 C 0.83363 0.75791 0.79532 0.0
C1009 C 0.83938 0.77148 0.77902 0.0
C1010 C 0.81038 0.74699 0.77707 0.0
C1011 C 0.79162 0.72985 0.78438 0.0
C1012 C 0.80299 0.73541 0.79342 0.0
C1013 C 0.80082 0.73773 0.76742 0.0
C1014 C 0.76374 0.73938 0.76465 0.0
C1015 C 0.82807 0.7268 0.76099 0.0
C1016 C 0.86718 0.721 0.7636 0.0
C1017 C 0.87644 0.69622 0.77069 0.0
C1018 C 0.91332 0.69102 0.77316 0.0
C1019 C 0.94123 0.71021 0.76853 0.0
C1020 C 0.93232 0.73456 0.7614 0.0
C1021 C 0.89547 0.7399 0.75892 0.0
H1022 H 0.96978 0.70614 0.77044 0.0
H1023 H 0.6101 0.73832 0.74639 0.0
H1024 H 0.15653 0.01802 0.20674 0.0
H1025 H 0.09376 0.99603 0.20437 0.0
H1026 H 0.08365 0.06688 0.18061 0.0
H1027 H 0.1463 0.08999 0.18315 0.0
H1028 H 0.02423 0.07221 0.1902 0.0
H1029 H 0.09251 0.97049 0.17882 0.0
H1030 H 0.14001 0.92172 0.17875 0.0
H1031 H 0.09012 0.87133 0.20245 0.0
H1032 H 0.04259 0.92009 0.20274 0.0
H1033 H 0.87047 0.91964 0.1832 0.0
H1034 H 0.93362 0.94212 0.18093 0.0
H1035 H 0.91885 0.01881 0.20318 0.0
H1036 H 0.85564 0.99738 0.20527 0.0
H1037 H 0.99103 0.9393 0.19127 0.0
H1038 H 0.97035 0.0943 0.20066 0.0
H1039 H 0.92304 0.1428 0.1989 0.0
H1040 H 0.87812 0.08623 0.17568 0.0
H1041 H 0.92545 0.03767 0.17723 0.0
C1042 C 0.14113 0.02873 0.20095 0.0
C1043 C 0.1565 0.05572 0.19512 0.0
C1044 C 0.1052 0.01595 0.19957 0.0
C1045 C 0.08398 0.02933 0.19223 0.0
C1046 C 0.09942 0.05605 0.18632 0.0
C1047 C 0.1353 0.06915 0.18776 0.0
C1048 C 0.0452 0.01658 0.191 0.0
C1049 C 0.01702 0.04313 0.19038 0.0
C1050 C 0.03565 0.97862 0.19099 0.0
C1051 C 0.06411 0.94912 0.19083 0.0
C1052 C 0.0918 0.94915 0.18405 0.0
C1053 C 0.11872 0.92148 0.18397 0.0
C1054 C 0.11812 0.89348 0.1906 0.0
C1055 C 0.09055 0.89305 0.19732 0.0
C1056 C 0.06358 0.92067 0.19744 0.0
C1057 C 0.88057 0.94161 0.18753 0.0
C1058 C 0.85793 0.95684 0.19439 0.0
C1059 C 0.91673 0.95436 0.18625 0.0
C1060 C 0.93101 0.98252 0.1918 0.0
C1061 C 0.90835 0.99771 0.19865 0.0
C1062 C 0.87216 0.98526 0.19987 0.0
C1063 C 0.97003 0.99496 0.19077 0.0
C1064 C 0.99825 0.96836 0.19099 0.0
C1065 C 0.97965 0.03284 0.19015 0.0
C1066 C 0.95131 0.06218 0.18911 0.0
C1067 C 0.9505 0.0923 0.19515 0.0
C1068 C 0.92365 0.11978 0.1942 0.0
C1069 C 0.89753 0.11755 0.1872 0.0
C1070 C 0.89829 0.08787 0.18112 0.0
C1071 C 0.92509 0.06033 0.18204 0.0
H1072 H 0.87675 0.13884 0.18648 0.0
H1073 H 0.13899 0.87209 0.19053 0.0
H1074 H 0.99833 0.34499 0.44714 0.0
H1075 H 0.97824 0.40926 0.44522 0.0
H1076 H 0.08979 0.44146 0.43867 0.0
H1077 H 0.10997 0.37705 0.44032 0.0
H1078 H 0.04941 0.48196 0.45387 0.0
H1079 H 0.03926 0.44491 0.42219 0.0
H1080 H 0.01776 0.40469 0.40972 0.0
H1081 H 0.90517 0.42714 0.41706 0.0
H1082 H 0.92602 0.46707 0.42967 0.0
H1083 H 0.0121 0.66978 0.44557 0.0
H1084 H 0.03547 0.60677 0.44404 0.0
H1085 H 0.92453 0.56738 0.43965 0.0
H1086 H 0.90142 0.63074 0.44063 0.0
H1087 H 0.96671 0.52974 0.42949 0.0
H1088 H 0.9718 0.5615 0.46121 0.0
H1089 H 0.98834 0.5984 0.47475 0.0
H1090 H 0.10341 0.58225 0.46892 0.0
H1091 H 0.08754 0.54563 0.45528 0.0
C1092 C 0.01849 0.36568 0.44518 0.0
C1093 C 0.05572 0.35601 0.44388 0.0
C1094 C 0.00697 0.40232 0.44407 0.0
C1095 C 0.03256 0.42998 0.44181 0.0
C1096 C 0.06966 0.42041 0.44041 0.0
C1097 C 0.08108 0.38363 0.44132 0.0
C1098 C 0.02083 0.46916 0.4414 0.0
C1099 C 0.03185 0.49271 0.44846 0.0
C1100 C 0.99679 0.48253 0.43454 0.0
C1101 C 0.98422 0.45868 0.42693 0.0
C1102 C 0.00992 0.44099 0.4212 0.0
C1103 C 0.99785 0.41831 0.41409 0.0
C1104 C 0.96012 0.41328 0.41261 0.0
C1105 C 0.93438 0.43102 0.41822 0.0
C1106 C 0.94632 0.45371 0.42534 0.0
C1107 C 0.99277 0.64769 0.44419 0.0
C1108 C 0.95492 0.65512 0.44328 0.0
C1109 C 0.00611 0.61159 0.44338 0.0
C1110 C 0.98171 0.58196 0.44198 0.0
C1111 C 0.94399 0.5896 0.44077 0.0
C1112 C 0.93076 0.62585 0.44135 0.0
C1113 C 0.99531 0.54304 0.44199 0.0
C1114 C 0.9845 0.51934 0.43489 0.0
C1115 C 0.01883 0.52918 0.44897 0.0
C1116 C 0.02848 0.55117 0.45717 0.0
C1117 C 1.00063 0.56605 0.46278 0.0
C1118 C 0.00988 0.58688 0.47048 0.0
C1119 C 0.0469 0.59276 0.47268 0.0
C1120 C 0.07475 0.57773 0.4672 0.0
C1121 C 0.06564 0.55691 0.45949 0.0
H1122 H 0.05401 0.60889 0.47864 0.0
H1123 H 0.95083 0.39572 0.4071 0.0
H1124 H 0.34535 0.51182 0.69843 0.0
H1125 H 0.40925 0.53323 0.69677 0.0
H1126 H 0.44179 0.42541 0.68734 0.0
H1127 H 0.37777 0.40401 0.68871 0.0
H1128 H 0.4781 0.47221 0.70542 0.0
H1129 H 0.45436 0.4642 0.67225 0.0
H1130 H 0.41731 0.47895 0.65856 0.0
H1131 H 0.4295 0.59488 0.66385 0.0
H1132 H 0.46616 0.58073 0.67767 0.0
H1133 H 0.66762 0.50266 0.69891 0.0
H1134 H 0.6048 0.47943 0.69714 0.0
H1135 H 0.56897 0.58758 0.68826 0.0
H1136 H 0.63233 0.61036 0.68955 0.0
H1137 H 0.53287 0.54018 0.67906 0.0
H1138 H 0.55662 0.55327 0.71105 0.0
H1139 H 0.58983 0.54462 0.72564 0.0
H1140 H 0.57346 0.42735 0.72402 0.0
H1141 H 0.54055 0.43527 0.70936 0.0
C1142 C 0.366 0.49282 0.69587 0.0
C1143 C 0.35653 0.45623 0.69369 0.0
C1144 C 0.40242 0.50512 0.69492 0.0
C1145 C 0.43005 0.48092 0.69189 0.0
C1146 C 0.4207 0.44454 0.68961 0.0
C1147 C 0.38414 0.43242 0.69038 0.0
C1148 C 0.46907 0.49297 0.69179 0.0
C1149 C 0.49041 0.48651 0.69962 0.0
C1150 C 0.48438 0.51291 0.68435 0.0
C1151 C 0.46254 0.5214 0.67605 0.0
C1152 C 0.44875 0.49281 0.67056 0.0
C1153 C 0.42793 0.50106 0.66276 0.0
C1154 C 0.42093 0.53783 0.66036 0.0
C1155 C 0.43486 0.56642 0.66573 0.0
C1156 C 0.45568 0.55829 0.67354 0.0
C1157 C 0.64641 0.52138 0.69649 0.0
C1158 C 0.65483 0.5584 0.69443 0.0
C1159 C 0.61039 0.50815 0.69554 0.0
C1160 C 0.58173 0.53194 0.6928 0.0
C1161 C 0.59042 0.56864 0.69042 0.0
C1162 C 0.62667 0.58168 0.69118 0.0
C1163 C 0.54268 0.51886 0.69269 0.0
C1164 C 0.52101 0.5255 0.68487 0.0
C1165 C 0.52674 0.49971 0.70024 0.0
C1166 C 0.54646 0.49484 0.70907 0.0
C1167 C 0.56033 0.52562 0.71378 0.0
C1168 C 0.57906 0.52085 0.72206 0.0
C1169 C 0.58384 0.48545 0.72574 0.0
C1170 C 0.5698 0.45475 0.72116 0.0
C1171 C 0.55107 0.45936 0.71286 0.0
H1172 H 0.59835 0.48181 0.73215 0.0
H1173 H 0.40482 0.54417 0.65432 0.0
H1174 H 0.40242 0.12939 0.93825 0.0
H1175 H 0.42404 0.06562 0.93641 0.0
H1176 H 0.53277 0.09791 0.94516 0.0
H1177 H 0.51118 0.16149 0.94725 0.0
H1178 H 0.5272 0.04621 0.9288 0.0
H1179 H 0.48799 0.06311 0.96049 0.0
H1180 H 0.44311 0.08144 0.97237 0.0
H1181 H 0.36488 1.00333 0.96192 0.0
H1182 H 0.40916 0.98496 0.94988 0.0
H1183 H 0.61005 0.87565 0.94116 0.0
H1184 H 0.58774 0.939 0.93955 0.0
H1185 H 0.47543 0.90032 0.94214 0.0
H1186 H 0.49801 0.83726 0.9444 0.0
H1187 H 0.48048 0.9561 0.95181 0.0
H1188 H 0.51827 0.93437 0.92092 0.0
H1189 H 0.56032 0.91553 0.90847 0.0
H1190 H 0.63661 1.0007 0.91604 0.0
H1191 H 0.59523 0.01977 0.92861 0.0
C1192 C 0.43106 0.12301 0.93966 0.0
C1193 C 0.45507 0.15038 0.94294 0.0
C1194 C 0.44333 0.08661 0.93861 0.0
C1195 C 0.47997 0.07715 0.94065 0.0
C1196 C 0.50444 0.10474 0.94351 0.0
C1197 C 0.49201 0.14097 0.94474 0.0
C1198 C 0.49199 0.03802 0.94052 0.0
C1199 C 0.51728 0.0264 0.93384 0.0
C1200 C 0.47817 0.01216 0.94696 0.0
C1201 C 0.45169 0.023 0.95423 0.0
C1202 C 0.46109 0.05011 0.96067 0.0
C1203 C 0.43579 0.06045 0.96744 0.0
C1204 C 0.40112 0.04365 0.96788 0.0
C1205 C 0.39172 0.01638 0.96156 0.0
C1206 C 0.41691 1.00598 0.95477 0.0
C1207 C 0.58059 0.88068 0.94128 0.0
C1208 C 0.55574 0.85157 0.94289 0.0
C1209 C 0.56777 0.91694 0.94029 0.0
C1210 C 0.52973 0.92471 0.94056 0.0
C1211 C 0.50489 0.8953 0.94192 0.0
C1212 C 0.51777 0.8592 0.94317 0.0
C1213 C 0.51594 0.96356 0.94002 0.0
C1214 C 0.4903 0.9754 0.94664 0.0
C1215 C 0.529 0.98937 0.9334 0.0
C1216 C 0.55376 0.9783 0.92576 0.0
C1217 C 0.54411 0.94895 0.91996 0.0
C1218 C 0.56782 0.93825 0.91288 0.0
C1219 C 0.60116 0.95684 0.91148 0.0
C1220 C 0.61079 0.98629 0.91714 0.0
C1221 C 0.58719 0.9971 0.92423 0.0
H1222 H 0.61951 0.94847 0.906 0.0
H1223 H 0.38157 0.05168 0.97313 0.0
H1224 H 0.16521 0.50986 0.0695 0.0
H1225 H 0.10142 0.53088 0.07162 0.0
H1226 H 0.06967 0.42131 0.08025 0.0
H1227 H 0.13366 0.40028 0.07843 0.0
H1228 H 0.02844 0.46096 0.06417 0.0
H1229 H 0.06668 0.4719 0.09587 0.0
H1230 H 0.10771 0.49383 0.10813 0.0
H1231 H 0.08631 0.6063 0.10027 0.0
H1232 H 0.04557 0.58499 0.08786 0.0
H1233 H 0.84155 0.49879 0.07262 0.0
H1234 H 0.90446 0.47538 0.07418 0.0
H1235 H 0.94383 0.58647 0.07851 0.0
H1236 H 0.88048 0.60958 0.07753 0.0
H1237 H 0.98229 0.54445 0.0885 0.0
H1238 H 0.94899 0.53907 0.0569 0.0
H1239 H 0.91152 0.5226 0.04346 0.0
H1240 H 0.92755 0.40734 0.04933 0.0
H1241 H 0.96475 0.42313 0.06289 0.0
C1242 C 0.14474 0.49036 0.07197 0.0
C1243 C 0.15441 0.45342 0.0738 0.0
C1244 C 0.10838 0.50243 0.07319 0.0
C1245 C 0.08096 0.47762 0.07609 0.0
C1246 C 0.09055 0.44085 0.07803 0.0
C1247 C 0.12709 0.42895 0.07702 0.0
C1248 C 0.04193 0.48967 0.07656 0.0
C1249 C 0.01804 0.47869 0.06956 0.0
C1250 C 0.02905 0.51401 0.0834 0.0
C1251 C 0.0534 0.52683 0.09088 0.0
C1252 C 0.07102 0.50129 0.09669 0.0
C1253 C 0.09416 0.51361 0.10369 0.0
C1254 C 0.09971 0.55143 0.10496 0.0
C1255 C 0.08204 0.57701 0.09927 0.0
C1256 C 0.05889 0.56483 0.09226 0.0
C1257 C 0.8636 0.51813 0.07401 0.0
C1258 C 0.85617 0.55603 0.07489 0.0
C1259 C 0.89966 0.50478 0.07483 0.0
C1260 C 0.92929 0.5292 0.0762 0.0
C1261 C 0.92164 0.56697 0.07741 0.0
C1262 C 0.8854 0.58021 0.07684 0.0
C1263 C 0.9682 0.51558 0.0761 0.0
C1264 C 0.99231 0.52646 0.08312 0.0
C1265 C 0.98165 0.4919 0.06912 0.0
C1266 C 0.95931 0.48229 0.06097 0.0
C1267 C 0.9443 0.51021 0.05536 0.0
C1268 C 0.92314 0.501 0.04772 0.0
C1269 C 0.91707 0.46395 0.04556 0.0
C1270 C 0.93222 0.43603 0.05103 0.0
C1271 C 0.95336 0.44509 0.05869 0.0
H1272 H 0.90069 0.45687 0.03963 0.0
H1273 H 0.11762 0.56091 0.11038 0.0
H1274 H 0.49658 0.66905 0.32201 0.0
H1275 H 0.47555 0.60496 0.32377 0.0
H1276 H 0.58657 0.57082 0.33008 0.0
H1277 H 0.60767 0.63494 0.3286 0.0
H1278 H 0.54429 0.53275 0.31445 0.0
H1279 H 0.53827 0.56598 0.34655 0.0
H1280 H 0.5184 0.60494 0.35946 0.0
H1281 H 0.40491 0.58441 0.35284 0.0
H1282 H 0.42414 0.54575 0.3398 0.0
H1283 H 0.50918 0.34441 0.32182 0.0
H1284 H 0.53223 0.40734 0.32365 0.0
H1285 H 0.42162 0.44517 0.32943 0.0
H1286 H 0.39892 0.38172 0.32816 0.0
H1287 H 0.46482 0.48249 0.33932 0.0
H1288 H 0.46577 0.4537 0.30741 0.0
H1289 H 0.48056 0.41812 0.2935 0.0
H1290 H 0.5963 0.43422 0.29824 0.0
H1291 H 0.5822 0.46951 0.31224 0.0
C1292 C 0.51641 0.64797 0.3239 0.0
C1293 C 0.55377 0.657 0.32517 0.0
C1294 C 0.50435 0.61144 0.32491 0.0
C1295 C 0.52955 0.5833 0.32705 0.0
C1296 C 0.56675 0.59225 0.32845 0.0
C1297 C 0.57869 0.62888 0.32763 0.0
C1298 C 0.51742 0.54424 0.32728 0.0
C1299 C 0.52742 0.52146 0.31995 0.0
C1300 C 0.49423 0.5302 0.33428 0.0
C1301 C 0.48266 0.5533 0.34214 0.0
C1302 C 0.50908 0.57008 0.34779 0.0
C1303 C 0.49793 0.59204 0.35515 0.0
C1304 C 0.46041 0.59724 0.35696 0.0
C1305 C 0.43396 0.5804 0.35143 0.0
C1306 C 0.44498 0.55843 0.34406 0.0
C1307 C 0.48988 0.36612 0.32358 0.0
C1308 C 0.45223 0.35825 0.32478 0.0
C1309 C 0.50302 0.40218 0.32456 0.0
C1310 C 0.47857 0.43141 0.32641 0.0
C1311 C 0.4411 0.42328 0.32795 0.0
C1312 C 0.42811 0.38699 0.32721 0.0
C1313 C 0.49184 0.47044 0.32648 0.0
C1314 C 0.48189 0.49344 0.33382 0.0
C1315 C 0.51435 0.48506 0.31935 0.0
C1316 C 0.52293 0.46391 0.31092 0.0
C1317 C 0.49438 0.44943 0.30552 0.0
C1318 C 0.50264 0.42935 0.29761 0.0
C1319 C 0.53935 0.42382 0.295 0.0
C1320 C 0.56788 0.43847 0.30028 0.0
C1321 C 0.55977 0.45853 0.30819 0.0
H1322 H 0.54568 0.40827 0.28888 0.0
H1323 H 0.45183 0.61425 0.36266 0.0
H1324 H 0.63446 0.90222 0.57792 0.0
H1325 H 0.57021 0.92245 0.57965 0.0
H1326 H 0.60216 0.03408 0.57292 0.0
H1327 H 0.66627 0.01394 0.57093 0.0
H1328 H 0.54913 0.02171 0.58913 0.0
H1329 H 0.56943 0.99498 0.55675 0.0
H1330 H 0.58915 0.95478 0.54406 0.0
H1331 H 0.51059 0.87251 0.55254 0.0
H1332 H 0.49082 0.91206 0.56538 0.0
H1333 H 0.38009 0.1088 0.57791 0.0
H1334 H 0.44323 0.08591 0.57922 0.0
H1335 H 0.40491 0.97485 0.57431 0.0
H1336 H 0.34202 0.99812 0.57245 0.0
H1337 H 0.4617 0.98376 0.56485 0.0
H1338 H 0.43671 0.00851 0.59627 0.0
H1339 H 0.41664 0.0445 0.60969 0.0
H1340 H 0.50194 0.12422 0.60443 0.0
H1341 H 0.52223 0.08897 0.5909 0.0
C1342 C 0.62787 0.93115 0.57692 0.0
C1343 C 0.65535 0.95649 0.57425 0.0
C1344 C 0.5912 0.94262 0.5779 0.0
C1345 C 0.58156 0.97972 0.5764 0.0
C1346 C 0.60915 1.00536 0.57413 0.0
C1347 C 0.64568 0.99378 0.57296 0.0
C1348 C 0.54238 0.99135 0.57663 0.0
C1349 C 0.52993 0.01376 0.5838 0.0
C1350 C 0.51728 0.97989 0.56983 0.0
C1351 C 0.52898 0.95626 0.56208 0.0
C1352 C 0.55663 0.96817 0.55596 0.0
C1353 C 0.56776 0.94554 0.54873 0.0
C1354 C 0.55122 0.91106 0.54751 0.0
C1355 C 0.52343 0.89919 0.5535 0.0
C1356 C 0.51225 0.92171 0.56075 0.0
C1357 C 0.38511 0.07944 0.57722 0.0
C1358 C 0.35613 0.05524 0.57509 0.0
C1359 C 0.42126 0.06629 0.57803 0.0
C1360 C 0.42905 0.02844 0.57701 0.0
C1361 C 0.39983 1.00415 0.57511 0.0
C1362 C 0.36382 0.01744 0.57408 0.0
C1363 C 0.46781 0.01453 0.57738 0.0
C1364 C 0.48044 0.99164 0.57028 0.0
C1365 C 0.49282 0.02498 0.58437 0.0
C1366 C 0.48078 0.04624 0.59252 0.0
C1367 C 0.45103 0.03385 0.59794 0.0
C1368 C 0.43964 0.0541 0.60557 0.0
C1369 C 0.45795 0.08667 0.6079 0.0
C1370 C 0.48776 0.099 0.60261 0.0
C1371 C 0.49924 0.07888 0.59496 0.0
H1372 H 0.44908 0.10231 0.61381 0.0
H1373 H 0.55986 0.89358 0.5419 0.0
H1374 H 0.99831 0.17409 0.82068 0.0
H1375 H 0.97693 0.11011 0.8224 0.0
H1376 H 0.08629 0.07648 0.83041 0.0
H1377 H 0.10767 0.14059 0.82899 0.0
H1378 H 0.04419 0.03862 0.81378 0.0
H1379 H 0.03913 0.0699 0.84613 0.0
H1380 H 0.0196 0.10859 0.85913 0.0
H1381 H 0.90595 0.09021 0.8523 0.0
H1382 H 0.92486 0.05185 0.83916 0.0
H1383 H 0.00798 0.85007 0.82071 0.0
H1384 H 0.03153 0.91279 0.8226 0.0
H1385 H 0.92146 0.95109 0.82881 0.0
H1386 H 0.89829 0.88783 0.82748 0.0
H1387 H 0.9652 0.98776 0.83866 0.0
H1388 H 0.96487 0.96042 0.80668 0.0
H1389 H 0.97888 0.92546 0.79264 0.0
H1390 H 0.09491 0.94056 0.79714 0.0
H1391 H 0.08159 0.97523 0.81129 0.0
C1392 C 0.01767 0.15317 0.82294 0.0
C1393 C 0.05466 0.16234 0.82471 0.0
C1394 C 1.00541 0.1167 0.82393 0.0
C1395 C 0.03006 0.08871 0.82653 0.0
C1396 C 0.06687 0.0978 0.82843 0.0
C1397 C 0.07897 0.13442 0.82764 0.0
C1398 C 0.01787 0.04967 0.8267 0.0
C1399 C 0.02745 0.02717 0.81928 0.0
C1400 C 0.9948 0.03547 0.8337 0.0
C1401 C 0.98343 0.05837 0.8416 0.0
C1402 C 0.00999 0.07444 0.84734 0.0
C1403 C 0.99903 0.09623 0.85474 0.0
C1404 C 0.96156 0.10195 0.85652 0.0
C1405 C 0.93497 0.0858 0.8509 0.0
C1406 C 0.94579 0.06401 0.84348 0.0
C1407 C 0.9889 0.87183 0.82258 0.0
C1408 C 0.95127 0.86413 0.82389 0.0
C1409 C 1.00232 0.90779 0.82359 0.0
C1410 C 0.97818 0.93711 0.82559 0.0
C1411 C 0.94073 0.92914 0.82722 0.0
C1412 C 0.92746 0.89296 0.82645 0.0
C1413 C 0.99174 0.97606 0.82574 0.0
C1414 C 0.9822 0.9988 0.83316 0.0
C1415 C 0.01411 0.99087 0.8186 0.0
C1416 C 0.02223 0.97008 0.81009 0.0
C1417 C 0.99338 0.95606 0.80471 0.0
C1418 C 1.00119 0.93633 0.79673 0.0
C1419 C 0.03776 0.9307 0.79402 0.0
C1420 C 0.06659 0.94489 0.79926 0.0
C1421 C 0.05893 0.9646 0.80726 0.0
H1422 H 0.04376 0.91542 0.78783 0.0
H1423 H 0.95312 0.11882 0.86226 0.0
H1424 H 0.61871 0.88714 0.19108 0.0
H1425 H 0.55837 0.91643 0.18996 0.0
H1426 H 0.60979 0.02388 0.19052 0.0
H1427 H 0.67043 0.99467 0.19194 0.0
H1428 H 0.55374 0.0229 0.20172 0.0
H1429 H 0.5711 0.98673 0.17059 0.0
H1430 H 0.58545 0.94415 0.15794 0.0
H1431 H 0.49301 0.87621 0.16549 0.0
H1432 H 0.4784 0.9181 0.17827 0.0
H1433 H 0.39404 0.12364 0.18953 0.0
H1434 H 0.45434 0.0941 0.18831 0.0
H1435 H 0.40434 0.9876 0.19303 0.0
H1436 H 0.34354 0.017 0.19434 0.0
H1437 H 0.45928 0.98891 0.17871 0.0
H1438 H 0.44408 0.0256 0.2102 0.0
H1439 H 0.43038 0.06945 0.22263 0.0
H1440 H 0.52013 0.13854 0.21379 0.0
H1441 H 0.53403 0.09534 0.20122 0.0
C1442 C 0.61732 0.91702 0.19088 0.0
C1443 C 0.6495 0.93855 0.1916 0.0
C1444 C 0.5827 0.93376 0.19018 0.0
C1445 C 0.57944 0.97241 0.19004 0.0
C1446 C 0.61156 0.99401 0.19062 0.0
C1447 C 0.64625 0.97727 0.1914 0.0
C1448 C 0.54241 0.99019 0.18975 0.0
C1449 C 0.53338 0.01588 0.19658 0.0
C1450 C 0.51539 0.98048 0.18319 0.0
C1451 C 0.52386 0.9554 0.17544 0.0
C1452 C 0.55398 0.96257 0.16959 0.0
C1453 C 0.56214 0.93858 0.16239 0.0
C1454 C 0.54021 0.90744 0.16092 0.0
C1455 C 0.50999 0.90031 0.16664 0.0
C1456 C 0.50174 0.9242 0.17386 0.0
C1457 C 0.39566 0.09388 0.19024 0.0
C1458 C 0.36389 0.07271 0.19209 0.0
C1459 C 0.43023 0.07707 0.18955 0.0
C1460 C 0.43382 0.03874 0.19066 0.0
C1461 C 0.4021 0.01726 0.19217 0.0
C1462 C 0.36743 0.03412 0.19294 0.0
C1463 C 0.47095 0.02149 0.19064 0.0
C1464 C 0.47986 0.99593 0.18379 0.0
C1465 C 0.49803 0.03152 0.19713 0.0
C1466 C 0.48984 0.05743 0.20471 0.0
C1467 C 0.46069 0.0503 0.21086 0.0
C1468 C 0.45293 0.07501 0.21794 0.0
C1469 C 0.4743 0.10681 0.21898 0.0
C1470 C 0.50356 0.11392 0.21296 0.0
C1471 C 0.51141 0.08933 0.20586 0.0
H1472 H 0.46825 0.1259 0.22447 0.0
H1473 H 0.5466 0.88888 0.15535 0.0
H1474 H 0.99029 0.84158 0.43846 0.0
H1475 H 0.01995 0.90193 0.43695 0.0
H1476 H 0.91338 0.95499 0.43748 0.0
H1477 H 0.88344 0.89474 0.43876 0.0
H1478 H 0.95723 0.98915 0.42554 0.0
H1479 H 0.96705 0.94866 0.45683 0.0
H1480 H 0.9833 0.90591 0.46941 0.0
H1481 H 0.09733 0.91076 0.46141 0.0
H1482 H 0.08167 0.95317 0.4487 0.0
H1483 H 0.01455 0.16772 0.44101 0.0
H1484 H 0.98603 0.10701 0.43904 0.0
H1485 H 0.09376 0.0573 0.43665 0.0
H1486 H 0.1225 0.11768 0.43863 0.0
H1487 H 0.05038 0.02127 0.44903 0.0
H1488 H 0.03941 0.06563 0.41808 0.0
H1489 H 0.0216 0.10968 0.40592 0.0
H1490 H 0.90782 0.09936 0.41383 0.0
H1491 H 0.92502 0.05561 0.42613 0.0
C1492 C 0.97311 0.86604 0.43816 0.0
C1493 C 0.93448 0.8633 0.43883 0.0
C1494 C 0.99013 0.90056 0.43733 0.0
C1495 C 0.96894 0.93308 0.43728 0.0
C1496 C 0.93032 0.93033 0.43754 0.0
C1497 C 0.91325 0.89581 0.43829 0.0
C1498 C 0.98698 0.96995 0.43741 0.0
C1499 C 0.97735 0.9963 0.43073 0.0
C1500 C 0.01362 0.97918 0.4441 0.0
C1501 C 0.02313 0.95377 0.45175 0.0
C1502 C 0.99555 0.94038 0.45771 0.0
C1503 C 1.00466 0.91625 0.46487 0.0
C1504 C 0.04131 0.90554 0.46619 0.0
C1505 C 0.06895 0.91903 0.46037 0.0
C1506 C 0.05998 0.94313 0.45319 0.0
C1507 C 0.03219 0.14395 0.43996 0.0
C1508 C 0.07084 0.14761 0.44001 0.0
C1509 C 0.01583 0.10927 0.43881 0.0
C1510 C 0.03778 0.07764 0.43767 0.0
C1511 C 0.0763 0.08133 0.43752 0.0
C1512 C 0.09267 0.11595 0.43864 0.0
C1513 C 0.02076 0.04041 0.43714 0.0
C1514 C 0.03047 0.01404 0.4438 0.0
C1515 C 0.99398 0.03138 0.43049 0.0
C1516 C 0.98356 0.05761 0.42308 0.0
C1517 C 0.01063 0.07298 0.41728 0.0
C1518 C 1.00064 0.09785 0.41035 0.0
C1519 C 0.96361 0.10738 0.40912 0.0
C1520 C 0.9365 0.09198 0.4148 0.0
C1521 C 0.94635 0.06712 0.42174 0.0
H1522 H 0.95593 0.12664 0.40375 0.0
H1523 H 0.04831 0.88686 0.47174 0.0
H1524 H 0.16867 0.49472 0.69172 0.0
H1525 H 0.10815 0.52429 0.69057 0.0
H1526 H 0.05629 0.41724 0.68906 0.0
H1527 H 0.11661 0.38757 0.68992 0.0
H1528 H 0.02299 0.46244 0.6778 0.0
H1529 H 0.05911 0.46737 0.70929 0.0
H1530 H 0.09966 0.48158 0.72234 0.0
H1531 H 0.09464 0.59712 0.71561 0.0
H1532 H 0.05444 0.58353 0.70243 0.0
H1533 H 0.842 0.51935 0.69268 0.0
H1534 H 0.90276 0.48997 0.69138 0.0
H1535 H 0.95375 0.59706 0.68858 0.0
H1536 H 0.89343 0.6266 0.68979 0.0
H1537 H 0.98699 0.55206 0.70182 0.0
H1538 H 0.94757 0.54472 0.67038 0.0
H1539 H 0.90514 0.52802 0.6579 0.0
H1540 H 0.91394 0.41349 0.66541 0.0
H1541 H 0.95605 0.42957 0.67803 0.0
C1542 C 0.14442 0.47748 0.69106 0.0
C1543 C 0.14753 0.43875 0.69097 0.0
C1544 C 0.10978 0.49442 0.69045 0.0
C1545 C 0.07752 0.47299 0.6899 0.0
C1546 C 0.0807 0.43439 0.6895 0.0
C1547 C 0.1153 0.41746 0.69001 0.0
C1548 C 0.0404 0.49061 0.69002 0.0
C1549 C 0.01503 0.48173 0.68311 0.0
C1550 C 0.02998 0.5161 0.69689 0.0
C1551 C 0.05409 0.52438 0.70482 0.0
C1552 C 0.06688 0.49578 0.71055 0.0
C1553 C 0.08977 0.50372 0.71798 0.0
C1554 C 0.09981 0.54022 0.71979 0.0
C1555 C 0.0869 0.56885 0.71419 0.0
C1556 C 0.06404 0.56105 0.70674 0.0
C1557 C 0.8661 0.53663 0.6917 0.0
C1558 C 0.86279 0.57534 0.69135 0.0
C1559 C 0.90078 0.51979 0.69094 0.0
C1560 C 0.93273 0.54137 0.68987 0.0
C1561 C 0.92945 0.57992 0.68941 0.0
C1562 C 0.89486 0.59673 0.69007 0.0
C1563 C 0.96981 0.524 0.68959 0.0
C1564 C 0.99509 0.53286 0.6965 0.0
C1565 C 0.97989 0.49812 0.6828 0.0
C1566 C 0.95467 0.4884 0.67521 0.0
C1567 C 0.94021 0.51601 0.66942 0.0
C1568 C 0.91626 0.50665 0.66231 0.0
C1569 C 0.90677 0.46973 0.66088 0.0
C1570 C 0.92128 0.44208 0.66654 0.0
C1571 C 0.94521 0.4513 0.67366 0.0
H1572 H 0.88823 0.46253 0.65537 0.0
H1573 H 0.11752 0.54632 0.72554 0.0
H1574 H 0.3909 0.38996 0.93891 0.0
H1575 H 0.42157 0.44946 0.93727 0.0
H1576 H 0.52763 0.39585 0.93924 0.0
H1577 H 0.49697 0.33603 0.94118 0.0
H1578 H 0.52625 0.45366 0.94982 0.0
H1579 H 0.49366 0.43249 0.91859 0.0
H1580 H 0.45221 0.41695 0.90582 0.0
H1581 H 0.38518 0.51164 0.91182 0.0
H1582 H 0.42592 0.52746 0.92473 0.0
H1583 H 0.62802 0.61384 0.93847 0.0
H1584 H 0.60001 0.5529 0.93692 0.0
H1585 H 0.49169 0.60146 0.93898 0.0
H1586 H 0.51946 0.6628 0.94053 0.0
H1587 H 0.49648 0.54569 0.9256 0.0
H1588 H 0.52726 0.56387 0.95737 0.0
H1589 H 0.56855 0.5789 0.97021 0.0
H1590 H 0.63963 0.48874 0.96292 0.0
H1591 H 0.599 0.4735 0.94994 0.0
C1592 C 0.42078 0.39066 0.93891 0.0
C1593 C 0.44148 0.35814 0.94018 0.0
C1594 C 0.43831 0.42479 0.93791 0.0
C1595 C 0.47697 0.42719 0.938 0.0
C1596 C 0.49776 0.39471 0.93913 0.0
C1597 C 0.48021 0.36051 0.94022 0.0
C1598 C 0.49548 0.46383 0.93745 0.0
C1599 C 0.52025 0.47344 0.94441 0.0
C1600 C 0.487 0.49012 0.93052 0.0
C1601 C 0.46272 0.48099 0.92268 0.0
C1602 C 0.46996 0.44988 0.91723 0.0
C1603 C 0.4466 0.44103 0.90996 0.0
C1604 C 0.41603 0.46324 0.90802 0.0
C1605 C 0.40885 0.49444 0.91334 0.0
C1606 C 0.4321 0.50339 0.92062 0.0
C1607 C 0.59821 0.61174 0.9385 0.0
C1608 C 0.57599 0.64325 0.93971 0.0
C1609 C 0.58227 0.57682 0.93762 0.0
C1610 C 0.54381 0.57263 0.93794 0.0
C1611 C 0.52145 0.60412 0.93873 0.0
C1612 C 0.53738 0.63913 0.93965 0.0
C1613 C 0.52712 0.53521 0.93796 0.0
C1614 C 0.50267 0.5256 0.93093 0.0
C1615 C 0.53595 0.5088 0.9448 0.0
C1616 C 0.56031 0.5178 0.95262 0.0
C1617 C 0.55186 0.54744 0.95846 0.0
C1618 C 0.57511 0.55596 0.96577 0.0
C1619 C 0.60675 0.53485 0.96736 0.0
C1620 C 0.61515 0.5051 0.96166 0.0
C1621 C 0.592 0.4965 0.95433 0.0
H1622 H 0.62472 0.54149 0.97303 0.0
H1623 H 0.39795 0.45631 0.9024 0.0
H1624 H 0.61634 0.62621 0.07733 0.0
H1625 H 0.55608 0.59674 0.07839 0.0
H1626 H 0.60833 0.48974 0.0799 0.0
H1627 H 0.66894 0.5191 0.07851 0.0
H1628 H 0.55455 0.48677 0.0684 0.0
H1629 H 0.56514 0.53182 0.0989 0.0
H1630 H 0.57628 0.57749 0.11105 0.0
H1631 H 0.4853 0.64275 0.10137 0.0
H1632 H 0.4739 0.59771 0.08908 0.0
H1633 H 0.39164 0.38963 0.08009 0.0
H1634 H 0.45191 0.41894 0.08148 0.0
H1635 H 0.40352 0.5248 0.07511 0.0
H1636 H 0.34275 0.49566 0.07369 0.0
H1637 H 0.45519 0.52704 0.08958 0.0
H1638 H 0.44675 0.47967 0.05875 0.0
H1639 H 0.4363 0.43139 0.04718 0.0
H1640 H 0.52496 0.36711 0.05846 0.0
H1641 H 0.53557 0.41473 0.07019 0.0
C1642 C 0.61513 0.59642 0.07799 0.0
C1643 C 0.64755 0.57503 0.07784 0.0
C1644 C 0.58054 0.57957 0.07864 0.0
C1645 C 0.57752 0.54098 0.07935 0.0
C1646 C 0.60989 0.51957 0.07937 0.0
C1647 C 0.64455 0.53639 0.0786 0.0
C1648 C 0.54057 0.52298 0.07956 0.0
C1649 C 0.5331 0.4952 0.07315 0.0
C1650 C 0.51216 0.53438 0.08562 0.0
C1651 C 0.51888 0.56154 0.09301 0.0
C1652 C 0.54768 0.55605 0.09932 0.0
C1653 C 0.55401 0.5818 0.10624 0.0
C1654 C 0.53157 0.61305 0.10697 0.0
C1655 C 0.50268 0.61856 0.10079 0.0
C1656 C 0.49625 0.5929 0.09385 0.0
C1657 C 0.3936 0.41921 0.07905 0.0
C1658 C 0.36229 0.44025 0.07671 0.0
C1659 C 0.42818 0.43589 0.07983 0.0
C1660 C 0.43226 0.47394 0.07829 0.0
C1661 C 0.40094 0.49534 0.0763 0.0
C1662 C 0.36626 0.47863 0.07547 0.0
C1663 C 0.46946 0.49104 0.07844 0.0
C1664 C 0.47685 0.51862 0.08489 0.0
C1665 C 0.49798 0.47914 0.0725 0.0
C1666 C 0.49171 0.45061 0.0654 0.0
C1667 C 0.46382 0.4551 0.05881 0.0
C1668 C 0.4579 0.42787 0.05222 0.0
C1669 C 0.4799 0.39617 0.0521 0.0
C1670 C 0.50791 0.39166 0.05857 0.0
C1671 C 0.5139 0.41877 0.06518 0.0
H1672 H 0.47533 0.37511 0.047 0.0
H1673 H 0.53652 0.63295 0.11233 0.0
H1674 H 0.38834 0.11775 0.32922 0.0
H1675 H 0.42004 0.05876 0.33082 0.0
H1676 H 0.52514 0.11402 0.32845 0.0
H1677 H 0.49346 0.17331 0.32657 0.0
H1678 H 0.52459 0.05574 0.31797 0.0
H1679 H 0.49268 0.07746 0.34926 0.0
H1680 H 0.45173 0.0927 0.36222 0.0
H1681 H 0.38562 0.99707 0.35665 0.0
H1682 H 0.42589 0.98152 0.34357 0.0
H1683 H 0.62738 0.89532 0.32906 0.0
H1684 H 0.59977 0.95657 0.3305 0.0
H1685 H 0.4911 0.90837 0.32945 0.0
H1686 H 0.51845 0.84682 0.32802 0.0
H1687 H 0.49653 0.96413 0.34246 0.0
H1688 H 0.52666 0.94543 0.3106 0.0
H1689 H 0.56785 0.93049 0.29765 0.0
H1690 H 0.6382 0.02145 0.30462 0.0
H1691 H 0.59768 0.03661 0.31769 0.0
C1692 C 0.41823 0.11752 0.32913 0.0
C1693 C 0.43834 0.15036 0.32777 0.0
C1694 C 0.43636 0.08368 0.33009 0.0
C1695 C 0.47505 0.08189 0.32988 0.0
C1696 C 0.49527 0.11468 0.32866 0.0
C1697 C 0.47711 0.14858 0.3276 0.0
C1698 C 0.49418 0.04556 0.33046 0.0
C1699 C 0.51896 0.03605 0.32344 0.0
C1700 C 0.48628 0.01941 0.33746 0.0
C1701 C 0.46216 0.02849 0.34538 0.0
C1702 C 0.46927 0.05981 0.35076 0.0
C1703 C 0.4462 0.06849 0.35814 0.0
C1704 C 0.41604 0.04592 0.36025 0.0
C1705 C 0.40897 0.01455 0.355 0.0
C1706 C 0.43194 1.00576 0.34761 0.0
C1707 C 0.59759 0.8976 0.32922 0.0
C1708 C 0.57514 0.8661 0.32835 0.0
C1709 C 0.58187 0.9327 0.33003 0.0
C1710 C 0.5434 0.93706 0.32997 0.0
C1711 C 0.52086 0.90561 0.32949 0.0
C1712 C 0.53656 0.87046 0.32864 0.0
C1713 C 0.52671 0.97451 0.32998 0.0
C1714 C 0.50237 0.98411 0.33707 0.0
C1715 C 0.5351 1.00085 0.32307 0.0
C1716 C 0.55937 0.9919 0.31518 0.0
C1717 C 0.55108 0.96206 0.30941 0.0
C1718 C 0.57427 0.95358 0.30204 0.0
C1719 C 0.60568 0.97494 0.30033 0.0
C1720 C 0.6139 1.00489 0.30596 0.0
C1721 C 0.59082 0.01345 0.31335 0.0
H1722 H 0.62361 0.96833 0.29462 0.0
H1723 H 0.39819 0.0527 0.36596 0.0
H1724 H 0.89515 0.89277 0.57855 0.0
H1725 H 0.95456 0.92324 0.58047 0.0
H1726 H 0.90092 0.02962 0.57952 0.0
H1727 H 0.84131 0.99928 0.57735 0.0
H1728 H 0.95894 0.03016 0.56882 0.0
H1729 H 0.9369 0.99264 0.59979 0.0
H1730 H 0.92147 0.94959 0.61239 0.0
H1731 H 0.01637 0.8836 0.60587 0.0
H1732 H 0.0321 0.92599 0.59315 0.0
H1733 H 0.11916 0.13011 0.58061 0.0
H1734 H 0.058 0.10235 0.58203 0.0
H1735 H 0.10591 0.99376 0.57965 0.0
H1736 H 0.16738 0.02126 0.57825 0.0
H1737 H 0.05002 0.99681 0.5928 0.0
H1738 H 0.06924 0.03298 0.56128 0.0
H1739 H 0.08465 0.07667 0.54881 0.0
H1740 H 0.9941 0.1462 0.55671 0.0
H1741 H 0.97847 0.10315 0.56932 0.0
C1742 C 0.89585 0.92265 0.57885 0.0
C1743 C 0.86339 0.94356 0.57779 0.0
C1744 C 0.92991 0.94006 0.58 0.0
C1745 C 0.93226 0.97877 0.58025 0.0
C1746 C 0.89983 0.99972 0.57936 0.0
C1747 C 0.86573 0.98232 0.57814 0.0
C1748 C 0.96878 0.99731 0.58094 0.0
C1749 C 0.97852 0.02333 0.57417 0.0
C1750 C 0.9948 0.98785 0.58779 0.0
C1751 C 0.9855 0.96234 0.59546 0.0
C1752 C 0.95433 0.9688 0.601 0.0
C1753 C 0.94556 0.94454 0.60817 0.0
C1754 C 0.96788 0.91383 0.60992 0.0
C1755 C 0.99908 0.90738 0.60451 0.0
C1756 C 0.00796 0.93154 0.59732 0.0
C1757 C 0.11685 0.10029 0.58049 0.0
C1758 C 0.14822 0.07793 0.57923 0.0
C1759 C 0.0818 0.08449 0.58128 0.0
C1760 C 0.07738 0.04603 0.58082 0.0
C1761 C 0.10873 0.02351 0.58 0.0
C1762 C 0.14383 0.0393 0.57917 0.0
C1763 C 0.03993 0.02946 0.58069 0.0
C1764 C 0.03016 1.00379 0.58752 0.0
C1765 C 0.01377 0.03931 0.57392 0.0
C1766 C 0.02294 0.06505 0.5663 0.0
C1767 C 0.05279 0.05773 0.5604 0.0
C1768 C 0.06154 0.08235 0.5533 0.0
C1769 C 0.04043 0.11424 0.55198 0.0
C1770 C 0.01046 0.12151 0.55775 0.0
C1771 C 1.00163 0.09701 0.56487 0.0
H1772 H 0.04725 0.13328 0.54648 0.0
H1773 H 0.96104 0.89508 0.61547 0.0
H1774 H 0.88485 0.62399 0.82742 0.0
H1775 H 0.91537 0.56439 0.82889 0.0
H1776 H 0.02153 0.61832 0.82827 0.0
H1777 H 0.99101 0.6783 0.82645 0.0
H1778 H 0.02313 0.56145 0.81756 0.0
H1779 H 0.98321 0.57958 0.84841 0.0
H1780 H 0.93898 0.59392 0.86076 0.0
H1781 H 0.87348 0.4999 0.85341 0.0
H1782 H 0.91703 0.4853 0.84091 0.0
H1783 H 0.12278 0.4009 0.8299 0.0
H1784 H 0.09381 0.46152 0.83114 0.0
H1785 H 0.98693 0.41234 0.82693 0.0
H1786 H 0.01571 0.35127 0.82565 0.0
H1787 H 0.9877 0.46712 0.84079 0.0
H1788 H 0.02728 0.45187 0.80943 0.0
H1789 H 0.07234 0.43828 0.7972 0.0
H1790 H 0.14027 0.52828 0.80611 0.0
H1791 H 0.09584 0.54208 0.81848 0.0
C1792 C 0.9147 0.62333 0.82768 0.0
C1793 C 0.93548 0.65602 0.82683 0.0
C1794 C 0.93216 0.58912 0.82858 0.0
C1795 C 0.9708 0.58676 0.82884 0.0
C1796 C 0.99167 0.61939 0.8281 0.0
C1797 C 0.97419 0.65369 0.82709 0.0
C1798 C 0.9893 0.55008 0.82942 0.0
C1799 C 0.01583 0.54115 0.82276 0.0
C1800 C 0.97927 0.52313 0.83608 0.0
C1801 C 0.95326 0.53152 0.84367 0.0
C1802 C 0.95926 0.56209 0.84939 0.0
C1803 C 0.93431 0.57025 0.85642 0.0
C1804 C 0.90339 0.54789 0.85786 0.0
C1805 C 0.89743 0.51722 0.85228 0.0
C1806 C 0.92226 0.50896 0.84523 0.0
C1807 C 0.09306 0.40278 0.82932 0.0
C1808 C 0.07161 0.37115 0.82761 0.0
C1809 C 0.07657 0.43753 0.83002 0.0
C1810 C 0.03829 0.44147 0.82903 0.0
C1811 C 0.01655 0.40987 0.8277 0.0
C1812 C 0.03306 0.37502 0.82694 0.0
C1813 C 0.02131 0.47879 0.82894 0.0
C1814 C 0.99509 0.48769 0.83567 0.0
C1815 C 0.03181 0.50588 0.82241 0.0
C1816 C 0.05843 0.49775 0.81494 0.0
C1817 C 0.05198 0.46857 0.80883 0.0
C1818 C 0.07737 0.46086 0.80186 0.0
C1819 C 0.1092 0.48234 0.80089 0.0
C1820 C 0.11563 0.51163 0.80687 0.0
C1821 C 0.09034 0.51942 0.81386 0.0
H1822 H 0.12882 0.47633 0.7955 0.0
H1823 H 0.88409 0.55429 0.8633 0.0
loop_
_geom_bond_atom_site_label_1
_geom_bond_atom_site_label_2
_geom_bond_distance
_geom_bond_site_symmetry_2
_ccdc_geom_bond_type
O0 Cd1 2.223 . S
O0 C8 1.315 . S
Cd1 O0 2.223 . S
Cd1 O4 2.297 . S
Cd1 O5 2.439 . S
Cd1 O11 2.240 . S
Cd2 O3 2.240 . S
Cd2 O10 2.223 . S
Cd2 O12 2.297 . S
Cd2 O13 2.439 . S
O3 Cd2 2.240 . S
O3 C8 1.279 . S
O4 Cd1 2.297 . S
O4 C6 1.247 . S
O5 Cd1 2.439 . S
O5 C6 1.208 . S
C6 O4 1.247 . S
C6 O5 1.208 . S
C7 O12 1.247 . S
C7 O13 1.208 . S
C8 O0 1.315 . S
C8 O3 1.279 . S
C9 O10 1.315 . S
C9 O11 1.279 . S
O10 Cd2 2.223 . S
O10 C9 1.315 . S
O11 Cd1 2.240 . S
O11 C9 1.279 . S
O12 Cd2 2.297 . S
O12 C7 1.247 . S
O13 Cd2 2.439 . S
O13 C7 1.208 . S
O14 Cd15 2.223 . S
O14 C22 1.315 . S
Cd15 O14 2.223 . S
Cd15 O18 2.297 . S
Cd15 O19 2.439 . S
Cd15 O25 2.240 . S
Cd16 O17 2.240 . S
Cd16 O24 2.223 . S
Cd16 O26 2.297 . S
Cd16 O27 2.439 . S
O17 Cd16 2.240 . S
O17 C22 1.279 . S
O18 Cd15 2.297 . S
O18 C20 1.247 . S
O19 Cd15 2.439 . S
O19 C20 1.208 . S
C20 O18 1.247 . S
C20 O19 1.208 . S
C21 O26 1.247 . S
C21 O27 1.208 . S
C22 O14 1.315 . S
C22 O17 1.279 . S
C23 O24 1.315 . S
C23 O25 1.279 . S
O24 Cd16 2.223 . S
O24 C23 1.315 . S
O25 Cd15 2.240 . S
O25 C23 1.279 . S
O26 Cd16 2.297 . S
O26 C21 1.247 . S
O27 Cd16 2.439 . S
O27 C21 1.208 . S
O28 Cd29 2.223 . S
O28 C36 1.315 . S
Cd29 O28 2.223 . S
Cd29 O32 2.297 . S
Cd29 O33 2.439 . S
Cd29 O39 2.240 . S
Cd30 O31 2.240 . S
Cd30 O38 2.223 . S
Cd30 O40 2.297 . S
Cd30 O41 2.439 . S
O31 Cd30 2.240 . S
O31 C36 1.279 . S
O32 Cd29 2.297 . S
O32 C34 1.247 . S
O33 Cd29 2.439 . S
O33 C34 1.208 . S
C34 O32 1.247 . S
C34 O33 1.208 . S
C35 O40 1.247 . S
C35 O41 1.208 . S
C36 O28 1.315 . S
C36 O31 1.279 . S
C37 O38 1.315 . S
C37 O39 1.279 . S
O38 Cd30 2.223 . S
O38 C37 1.315 . S
O39 Cd29 2.240 . S
O39 C37 1.279 . S
O40 Cd30 2.297 . S
O40 C35 1.247 . S
O41 Cd30 2.439 . S
O41 C35 1.208 . S
O42 Cd43 2.223 . S
O42 C50 1.315 . S
Cd43 O42 2.223 . S
Cd43 O46 2.297 . S
Cd43 O47 2.439 . S
Cd43 O53 2.240 . S
Cd44 O45 2.240 . S
Cd44 O52 2.223 . S
Cd44 O54 2.297 . S
Cd44 O55 2.439 . S
O45 Cd44 2.240 . S
O45 C50 1.279 . S
O46 Cd43 2.297 . S
O46 C48 1.247 . S
O47 Cd43 2.439 . S
O47 C48 1.208 . S
C48 O46 1.247 . S
C48 O47 1.208 . S
C49 O54 1.247 . S
C49 O55 1.208 . S
C50 O42 1.315 . S
C50 O45 1.279 . S
C51 O52 1.315 . S
C51 O53 1.279 . S
O52 Cd44 2.223 . S
O52 C51 1.315 . S
O53 Cd43 2.240 . S
O53 C51 1.279 . S
O54 Cd44 2.297 . S
O54 C49 1.247 . S
O55 Cd44 2.439 . S
O55 C49 1.208 . S
O56 Cd57 2.223 . S
O56 C64 1.315 . S
Cd57 O56 2.223 . S
Cd57 O60 2.297 . S
Cd57 O61 2.439 . S
Cd57 O67 2.240 . S
Cd58 O59 2.240 . S
Cd58 O66 2.223 . S
Cd58 O68 2.297 . S
Cd58 O69 2.439 . S
O59 Cd58 2.240 . S
O59 C64 1.279 . S
O60 Cd57 2.297 . S
O60 C62 1.247 . S
O61 Cd57 2.439 . S
O61 C62 1.208 . S
C62 O60 1.247 . S
C62 O61 1.208 . S
C63 O68 1.247 . S
C63 O69 1.208 . S
C64 O56 1.315 . S
C64 O59 1.279 . S
C65 O66 1.315 . S
C65 O67 1.279 . S
O66 Cd58 2.223 . S
O66 C65 1.315 . S
O67 Cd57 2.240 . S
O67 C65 1.279 . S
O68 Cd58 2.297 . S
O68 C63 1.247 . S
O69 Cd58 2.439 . S
O69 C63 1.208 . S
O70 Cd71 2.223 . S
O70 C78 1.315 . S
Cd71 O70 2.223 . S
Cd71 O74 2.297 . S
Cd71 O75 2.439 . S
Cd71 O81 2.240 . S
Cd72 O73 2.240 . S
Cd72 O80 2.223 . S
Cd72 O82 2.297 . S
Cd72 O83 2.439 . S
O73 Cd72 2.240 . S
O73 C78 1.279 . S
O74 Cd71 2.297 . S
O74 C76 1.247 . S
O75 Cd71 2.439 . S
O75 C76 1.208 . S
C76 O74 1.247 . S
C76 O75 1.208 . S
C77 O82 1.247 . S
C77 O83 1.208 . S
C78 O70 1.315 . S
C78 O73 1.279 . S
C79 O80 1.315 . S
C79 O81 1.279 . S
O80 Cd72 2.223 . S
O80 C79 1.315 . S
O81 Cd71 2.240 . S
O81 C79 1.279 . S
O82 Cd72 2.297 . S
O82 C77 1.247 . S
O83 Cd72 2.439 . S
O83 C77 1.208 . S
O84 Cd85 2.223 . S
O84 C92 1.315 . S
Cd85 O84 2.223 . S
Cd85 O88 2.297 . S
Cd85 O89 2.439 . S
Cd85 O95 2.240 . S
Cd86 O87 2.240 . S
Cd86 O94 2.223 . S
Cd86 O96 2.297 . S
Cd86 O97 2.439 . S
O87 Cd86 2.240 . S
O87 C92 1.279 . S
O88 Cd85 2.297 . S
O88 C90 1.247 . S
O89 Cd85 2.439 . S
O89 C90 1.208 . S
C90 O88 1.247 . S
C90 O89 1.208 . S
C91 O96 1.247 . S
C91 O97 1.208 . S
C92 O84 1.315 . S
C92 O87 1.279 . S
C93 O94 1.315 . S
C93 O95 1.279 . S
O94 Cd86 2.223 . S
O94 C93 1.315 . S
O95 Cd85 2.240 . S
O95 C93 1.279 . S
O96 Cd86 2.297 . S
O96 C91 1.247 . S
O97 Cd86 2.439 . S
O97 C91 1.208 . S
O98 Cd99 2.223 . S
O98 C106 1.315 . S
Cd99 O98 2.223 . S
Cd99 O102 2.297 . S
Cd99 O103 2.439 . S
Cd99 O109 2.240 . S
Cd100 O101 2.240 . S
Cd100 O108 2.223 . S
Cd100 O110 2.297 . S
Cd100 O111 2.439 . S
O101 Cd100 2.240 . S
O101 C106 1.279 . S
O102 Cd99 2.297 . S
O102 C104 1.247 . S
O103 Cd99 2.439 . S
O103 C104 1.208 . S
C104 O102 1.247 . S
C104 O103 1.208 . S
C105 O110 1.247 . S
C105 O111 1.208 . S
C106 O98 1.315 . S
C106 O101 1.279 . S
C107 O108 1.315 . S
C107 O109 1.279 . S
O108 Cd100 2.223 . S
O108 C107 1.315 . S
O109 Cd99 2.240 . S
O109 C107 1.279 . S
O110 Cd100 2.297 . S
O110 C105 1.247 . S
O111 Cd100 2.439 . S
O111 C105 1.208 . S
O112 Cd113 2.223 . S
O112 C120 1.315 . S
Cd113 O112 2.223 . S
Cd113 O116 2.297 . S
Cd113 O117 2.439 . S
Cd113 O123 2.240 . S
Cd114 O115 2.240 . S
Cd114 O122 2.223 . S
Cd114 O124 2.297 . S
Cd114 O125 2.439 . S
O115 Cd114 2.240 . S
O115 C120 1.279 . S
O116 Cd113 2.297 . S
O116 C118 1.247 . S
O117 Cd113 2.439 . S
O117 C118 1.208 . S
C118 O116 1.247 . S
C118 O117 1.208 . S
C119 O124 1.247 . S
C119 O125 1.208 . S
C120 O112 1.315 . S
C120 O115 1.279 . S
C121 O122 1.315 . S
C121 O123 1.279 . S
O122 Cd114 2.223 . S
O122 C121 1.315 . S
O123 Cd113 2.240 . S
O123 C121 1.279 . S
O124 Cd114 2.297 . S
O124 C119 1.247 . S
O125 Cd114 2.439 . S
O125 C119 1.208 . S
O126 Cd127 2.223 . S
O126 C134 1.315 . S
Cd127 O126 2.223 . S
Cd127 O130 2.297 . S
Cd127 O131 2.439 . S
Cd127 O137 2.240 . S
Cd128 O129 2.240 . S
Cd128 O136 2.223 . S
Cd128 O138 2.297 . S
Cd128 O139 2.439 . S
O129 Cd128 2.240 . S
O129 C134 1.279 . S
O130 Cd127 2.297 . S
O130 C132 1.247 . S
O131 Cd127 2.439 . S
O131 C132 1.208 . S
C132 O130 1.247 . S
C132 O131 1.208 . S
C133 O138 1.247 . S
C133 O139 1.208 . S
C134 O126 1.315 . S
C134 O129 1.279 . S
C135 O136 1.315 . S
C135 O137 1.279 . S
O136 Cd128 2.223 . S
O136 C135 1.315 . S
O137 Cd127 2.240 . S
O137 C135 1.279 . S
O138 Cd128 2.297 . S
O138 C133 1.247 . S
O139 Cd128 2.439 . S
O139 C133 1.208 . S
O140 Cd141 2.223 . S
O140 C148 1.315 . S
Cd141 O140 2.223 . S
Cd141 O144 2.297 . S
Cd141 O145 2.439 . S
Cd141 O151 2.240 . S
Cd142 O143 2.240 . S
Cd142 O150 2.223 . S
Cd142 O152 2.297 . S
Cd142 O153 2.439 . S
O143 Cd142 2.240 . S
O143 C148 1.279 . S
O144 Cd141 2.297 . S
O144 C146 1.247 . S
O145 Cd141 2.439 . S
O145 C146 1.208 . S
C146 O144 1.247 . S
C146 O145 1.208 . S
C147 O152 1.247 . S
C147 O153 1.208 . S
C148 O140 1.315 . S
C148 O143 1.279 . S
C149 O150 1.315 . S
C149 O151 1.279 . S
O150 Cd142 2.223 . S
O150 C149 1.315 . S
O151 Cd141 2.240 . S
O151 C149 1.279 . S
O152 Cd142 2.297 . S
O152 C147 1.247 . S
O153 Cd142 2.439 . S
O153 C147 1.208 . S
O154 Cd155 2.223 . S
O154 C162 1.315 . S
Cd155 O154 2.223 . S
Cd155 O158 2.297 . S
Cd155 O159 2.439 . S
Cd155 O165 2.240 . S
Cd156 O157 2.240 . S
Cd156 O164 2.223 . S
Cd156 O166 2.297 . S
Cd156 O167 2.439 . S
O157 Cd156 2.240 . S
O157 C162 1.279 . S
O158 Cd155 2.297 . S
O158 C160 1.247 . S
O159 Cd155 2.439 . S
O159 C160 1.208 . S
C160 O158 1.247 . S
C160 O159 1.208 . S
C161 O166 1.247 . S
C161 O167 1.208 . S
C162 O154 1.315 . S
C162 O157 1.279 . S
C163 O164 1.315 . S
C163 O165 1.279 . S
O164 Cd156 2.223 . S
O164 C163 1.315 . S
O165 Cd155 2.240 . S
O165 C163 1.279 . S
O166 Cd156 2.297 . S
O166 C161 1.247 . S
O167 Cd156 2.439 . S
O167 C161 1.208 . S
O168 Cd169 2.223 . S
O168 C176 1.315 . S
Cd169 O168 2.223 . S
Cd169 O172 2.297 . S
Cd169 O173 2.439 . S
Cd169 O179 2.240 . S
Cd170 O171 2.240 . S
Cd170 O178 2.223 . S
Cd170 O180 2.297 . S
Cd170 O181 2.439 . S
O171 Cd170 2.240 . S
O171 C176 1.279 . S
O172 Cd169 2.297 . S
O172 C174 1.247 . S
O173 Cd169 2.439 . S
O173 C174 1.208 . S
C174 O172 1.247 . S
C174 O173 1.208 . S
C175 O180 1.247 . S
C175 O181 1.208 . S
C176 O168 1.315 . S
C176 O171 1.279 . S
C177 O178 1.315 . S
C177 O179 1.279 . S
O178 Cd170 2.223 . S
O178 C177 1.315 . S
O179 Cd169 2.240 . S
O179 C177 1.279 . S
O180 Cd170 2.297 . S
O180 C175 1.247 . S
O181 Cd170 2.439 . S
O181 C175 1.208 . S
O182 Cd183 2.223 . S
O182 C190 1.315 . S
Cd183 O182 2.223 . S
Cd183 O186 2.297 . S
Cd183 O187 2.439 . S
Cd183 O193 2.240 . S
Cd184 O185 2.240 . S
Cd184 O192 2.223 . S
Cd184 O194 2.297 . S
Cd184 O195 2.439 . S
O185 Cd184 2.240 . S
O185 C190 1.279 . S
O186 Cd183 2.297 . S
O186 C188 1.247 . S
O187 Cd183 2.439 . S
O187 C188 1.208 . S
C188 O186 1.247 . S
C188 O187 1.208 . S
C189 O194 1.247 . S
C189 O195 1.208 . S
C190 O182 1.315 . S
C190 O185 1.279 . S
C191 O192 1.315 . S
C191 O193 1.279 . S
O192 Cd184 2.223 . S
O192 C191 1.315 . S
O193 Cd183 2.240 . S
O193 C191 1.279 . S
O194 Cd184 2.297 . S
O194 C189 1.247 . S
O195 Cd184 2.439 . S
O195 C189 1.208 . S
O196 Cd197 2.223 . S
O196 C204 1.315 . S
Cd197 O196 2.223 . S
Cd197 O200 2.297 . S
Cd197 O201 2.439 . S
Cd197 O207 2.240 . S
Cd198 O199 2.240 . S
Cd198 O206 2.223 . S
Cd198 O208 2.297 . S
Cd198 O209 2.439 . S
O199 Cd198 2.240 . S
O199 C204 1.279 . S
O200 Cd197 2.297 . S
O200 C202 1.247 . S
O201 Cd197 2.439 . S
O201 C202 1.208 . S
C202 O200 1.247 . S
C202 O201 1.208 . S
C203 O208 1.247 . S
C203 O209 1.208 . S
C204 O196 1.315 . S
C204 O199 1.279 . S
C205 O206 1.315 . S
C205 O207 1.279 . S
O206 Cd198 2.223 . S
O206 C205 1.315 . S
O207 Cd197 2.240 . S
O207 C205 1.279 . S
O208 Cd198 2.297 . S
O208 C203 1.247 . S
O209 Cd198 2.439 . S
O209 C203 1.208 . S
O210 Cd211 2.223 . S
O210 C218 1.315 . S
Cd211 O210 2.223 . S
Cd211 O214 2.297 . S
Cd211 O215 2.439 . S
Cd211 O221 2.240 . S
Cd212 O213 2.240 . S
Cd212 O220 2.223 . S
Cd212 O222 2.297 . S
Cd212 O223 2.439 . S
O213 Cd212 2.240 . S
O213 C218 1.279 . S
O214 Cd211 2.297 . S
O214 C216 1.247 . S
O215 Cd211 2.439 . S
O215 C216 1.208 . S
C216 O214 1.247 . S
C216 O215 1.208 . S
C217 O222 1.247 . S
C217 O223 1.208 . S
C218 O210 1.315 . S
C218 O213 1.279 . S
C219 O220 1.315 . S
C219 O221 1.279 . S
O220 Cd212 2.223 . S
O220 C219 1.315 . S
O221 Cd211 2.240 . S
O221 C219 1.279 . S
O222 Cd212 2.297 . S
O222 C217 1.247 . S
O223 Cd212 2.439 . S
O223 C217 1.208 . S
H224 C242 0.951 . S
H225 C244 0.951 . S
H226 C246 0.950 . S
H227 C247 0.950 . S
H228 C249 0.950 . S
H229 C252 0.950 . S
H230 C253 0.950 . S
H231 C255 0.950 . S
H232 C256 0.950 . S
H233 C257 0.951 . S
H234 C259 0.951 . S
H235 C261 0.950 . S
H236 C262 0.950 . S
H237 C264 0.950 . S
H238 C267 0.950 . S
H239 C268 0.950 . S
H240 C270 0.950 . S
H241 C271 0.950 . S
C242 H224 0.951 . S
C242 C243 1.366 . S
C242 C244 1.388 . S
C243 C242 1.366 . S
C243 C247 1.385 . S
C244 H225 0.951 . S
C244 C242 1.388 . S
C244 C245 1.366 . S
C245 C244 1.366 . S
C245 C246 1.414 . S
C245 C248 1.499 . S
C246 H226 0.950 . S
C246 C245 1.414 . S
C246 C247 1.374 . S
C247 H227 0.950 . S
C247 C243 1.385 . S
C247 C246 1.374 . S
C248 C245 1.499 . S
C248 C249 1.373 . S
C248 C250 1.389 . S
C249 H228 0.950 . S
C249 C248 1.373 . S
C249 C265 1.377 . S
C250 C248 1.389 . S
C250 C251 1.524 . S
C250 C264 1.377 . S
C251 C250 1.524 . S
C251 C252 1.397 . S
C251 C256 1.363 . S
C252 H229 0.950 . S
C252 C251 1.397 . S
C252 C253 1.334 . S
C253 H230 0.950 . S
C253 C252 1.334 . S
C253 C254 1.287 . S
C254 C253 1.287 . S
C254 C255 1.524 . S
C254 H273 0.913 . S
C255 H231 0.950 . S
C255 C254 1.524 . S
C255 C256 1.415 . S
C256 H232 0.950 . S
C256 C251 1.363 . S
C256 C255 1.415 . S
C257 H233 0.951 . S
C257 C258 1.366 . S
C257 C259 1.388 . S
C258 C257 1.366 . S
C258 C262 1.385 . S
C259 H234 0.951 . S
C259 C257 1.388 . S
C259 C260 1.366 . S
C260 C259 1.366 . S
C260 C261 1.414 . S
C260 C263 1.499 . S
C261 H235 0.950 . S
C261 C260 1.414 . S
C261 C262 1.374 . S
C262 H236 0.950 . S
C262 C258 1.385 . S
C262 C261 1.374 . S
C263 C260 1.499 . S
C263 C264 1.373 . S
C263 C265 1.389 . S
C264 H237 0.950 . S
C264 C250 1.377 . S
C264 C263 1.373 . S
C265 C249 1.377 . S
C265 C263 1.389 . S
C265 C266 1.524 . S
C266 C265 1.524 . S
C266 C267 1.397 . S
C266 C271 1.363 . S
C267 H238 0.950 . S
C267 C266 1.397 . S
C267 C268 1.334 . S
C268 H239 0.950 . S
C268 C267 1.334 . S
C268 C269 1.287 . S
C269 C268 1.287 . S
C269 C270 1.524 . S
C269 H272 0.999 . S
C270 H240 0.950 . S
C270 C269 1.524 . S
C270 C271 1.415 . S
C271 H241 0.950 . S
C271 C266 1.363 . S
C271 C270 1.415 . S
H272 C269 0.999 . S
H273 C254 0.913 . S
H274 C292 0.951 . S
H275 C294 0.951 . S
H276 C296 0.950 . S
H277 C297 0.950 . S
H278 C299 0.950 . S
H279 C302 0.950 . S
H280 C303 0.950 . S
H281 C305 0.950 . S
H282 C306 0.950 . S
H283 C307 0.951 . S
H284 C309 0.951 . S
H285 C311 0.950 . S
H286 C312 0.950 . S
H287 C314 0.950 . S
H288 C317 0.950 . S
H289 C318 0.950 . S
H290 C320 0.950 . S
H291 C321 0.950 . S
C292 H274 0.951 . S
C292 C293 1.366 . S
C292 C294 1.388 . S
C293 C292 1.366 . S
C293 C297 1.385 . S
C294 H275 0.951 . S
C294 C292 1.388 . S
C294 C295 1.366 . S
C295 C294 1.366 . S
C295 C296 1.414 . S
C295 C298 1.499 . S
C296 H276 0.950 . S
C296 C295 1.414 . S
C296 C297 1.374 . S
C297 H277 0.950 . S
C297 C293 1.385 . S
C297 C296 1.374 . S
C298 C295 1.499 . S
C298 C299 1.373 . S
C298 C300 1.389 . S
C299 H278 0.950 . S
C299 C298 1.373 . S
C299 C315 1.377 . S
C300 C298 1.389 . S
C300 C301 1.524 . S
C300 C314 1.377 . S
C301 C300 1.524 . S
C301 C302 1.397 . S
C301 C306 1.363 . S
C302 H279 0.950 . S
C302 C301 1.397 . S
C302 C303 1.334 . S
C303 H280 0.950 . S
C303 C302 1.334 . S
C303 C304 1.287 . S
C304 C303 1.287 . S
C304 C305 1.524 . S
C304 H323 0.913 . S
C305 H281 0.950 . S
C305 C304 1.524 . S
C305 C306 1.415 . S
C306 H282 0.950 . S
C306 C301 1.363 . S
C306 C305 1.415 . S
C307 H283 0.951 . S
C307 C308 1.366 . S
C307 C309 1.388 . S
C308 C307 1.366 . S
C308 C312 1.385 . S
C309 H284 0.951 . S
C309 C307 1.388 . S
C309 C310 1.366 . S
C310 C309 1.366 . S
C310 C311 1.414 . S
C310 C313 1.499 . S
C311 H285 0.950 . S
C311 C310 1.414 . S
C311 C312 1.374 . S
C312 H286 0.950 . S
C312 C308 1.385 . S
C312 C311 1.374 . S
C313 C310 1.499 . S
C313 C314 1.373 . S
C313 C315 1.389 . S
C314 H287 0.950 . S
C314 C300 1.377 . S
C314 C313 1.373 . S
C315 C299 1.377 . S
C315 C313 1.389 . S
C315 C316 1.524 . S
C316 C315 1.524 . S
C316 C317 1.397 . S
C316 C321 1.363 . S
C317 H288 0.950 . S
C317 C316 1.397 . S
C317 C318 1.334 . S
C318 H289 0.950 . S
C318 C317 1.334 . S
C318 C319 1.287 . S
C319 C318 1.287 . S
C319 C320 1.524 . S
C319 H322 0.999 . S
C320 H290 0.950 . S
C320 C319 1.524 . S
C320 C321 1.415 . S
C321 H291 0.950 . S
C321 C316 1.363 . S
C321 C320 1.415 . S
H322 C319 0.999 . S
H323 C304 0.913 . S
H324 C342 0.951 . S
H325 C344 0.951 . S
H326 C346 0.950 . S
H327 C347 0.950 . S
H328 C349 0.950 . S
H329 C352 0.950 . S
H330 C353 0.950 . S
H331 C355 0.950 . S
H332 C356 0.950 . S
H333 C357 0.951 . S
H334 C359 0.951 . S
H335 C361 0.950 . S
H336 C362 0.950 . S
H337 C364 0.950 . S
H338 C367 0.950 . S
H339 C368 0.950 . S
H340 C370 0.950 . S
H341 C371 0.950 . S
C342 H324 0.951 . S
C342 C343 1.366 . S
C342 C344 1.388 . S
C343 C342 1.366 . S
C343 C347 1.385 . S
C344 H325 0.951 . S
C344 C342 1.388 . S
C344 C345 1.366 . S
C345 C344 1.366 . S
C345 C346 1.414 . S
C345 C348 1.499 . S
C346 H326 0.950 . S
C346 C345 1.414 . S
C346 C347 1.374 . S
C347 H327 0.950 . S
C347 C343 1.385 . S
C347 C346 1.374 . S
C348 C345 1.499 . S
C348 C349 1.373 . S
C348 C350 1.389 . S
C349 H328 0.950 . S
C349 C348 1.373 . S
C349 C365 1.377 . S
C350 C348 1.389 . S
C350 C351 1.524 . S
C350 C364 1.377 . S
C351 C350 1.524 . S
C351 C352 1.397 . S
C351 C356 1.363 . S
C352 H329 0.950 . S
C352 C351 1.397 . S
C352 C353 1.334 . S
C353 H330 0.950 . S
C353 C352 1.334 . S
C353 C354 1.287 . S
C354 C353 1.287 . S
C354 C355 1.524 . S
C354 H373 0.913 . S
C355 H331 0.950 . S
C355 C354 1.524 . S
C355 C356 1.415 . S
C356 H332 0.950 . S
C356 C351 1.363 . S
C356 C355 1.415 . S
C357 H333 0.951 . S
C357 C358 1.366 . S
C357 C359 1.388 . S
C358 C357 1.366 . S
C358 C362 1.385 . S
C359 H334 0.951 . S
C359 C357 1.388 . S
C359 C360 1.366 . S
C360 C359 1.366 . S
C360 C361 1.414 . S
C360 C363 1.499 . S
C361 H335 0.950 . S
C361 C360 1.414 . S
C361 C362 1.374 . S
C362 H336 0.950 . S
C362 C358 1.385 . S
C362 C361 1.374 . S
C363 C360 1.499 . S
C363 C364 1.373 . S
C363 C365 1.389 . S
C364 H337 0.950 . S
C364 C350 1.377 . S
C364 C363 1.373 . S
C365 C349 1.377 . S
C365 C363 1.389 . S
C365 C366 1.524 . S
C366 C365 1.524 . S
C366 C367 1.397 . S
C366 C371 1.363 . S
C367 H338 0.950 . S
C367 C366 1.397 . S
C367 C368 1.334 . S
C368 H339 0.950 . S
C368 C367 1.334 . S
C368 C369 1.287 . S
C369 C368 1.287 . S
C369 C370 1.524 . S
C369 H372 0.999 . S
C370 H340 0.950 . S
C370 C369 1.524 . S
C370 C371 1.415 . S
C371 H341 0.950 . S
C371 C366 1.363 . S
C371 C370 1.415 . S
H372 C369 0.999 . S
H373 C354 0.913 . S
H374 C392 0.951 . S
H375 C394 0.951 . S
H376 C396 0.950 . S
H377 C397 0.950 . S
H378 C399 0.950 . S
H379 C402 0.950 . S
H380 C403 0.950 . S
H381 C405 0.950 . S
H382 C406 0.950 . S
H383 C407 0.951 . S
H384 C409 0.951 . S
H385 C411 0.950 . S
H386 C412 0.950 . S
H387 C414 0.950 . S
H388 C417 0.950 . S
H389 C418 0.950 . S
H390 C420 0.950 . S
H391 C421 0.950 . S
C392 H374 0.951 . S
C392 C393 1.366 . S
C392 C394 1.388 . S
C393 C392 1.366 . S
C393 C397 1.385 . S
C394 H375 0.951 . S
C394 C392 1.388 . S
C394 C395 1.366 . S
C395 C394 1.366 . S
C395 C396 1.414 . S
C395 C398 1.499 . S
C396 H376 0.950 . S
C396 C395 1.414 . S
C396 C397 1.374 . S
C397 H377 0.950 . S
C397 C393 1.385 . S
C397 C396 1.374 . S
C398 C395 1.499 . S
C398 C399 1.373 . S
C398 C400 1.389 . S
C399 H378 0.950 . S
C399 C398 1.373 . S
C399 C415 1.377 . S
C400 C398 1.389 . S
C400 C401 1.524 . S
C400 C414 1.377 . S
C401 C400 1.524 . S
C401 C402 1.397 . S
C401 C406 1.363 . S
C402 H379 0.950 . S
C402 C401 1.397 . S
C402 C403 1.334 . S
C403 H380 0.950 . S
C403 C402 1.334 . S
C403 C404 1.287 . S
C404 C403 1.287 . S
C404 C405 1.524 . S
C404 H423 0.913 . S
C405 H381 0.950 . S
C405 C404 1.524 . S
C405 C406 1.415 . S
C406 H382 0.950 . S
C406 C401 1.363 . S
C406 C405 1.415 . S
C407 H383 0.951 . S
C407 C408 1.366 . S
C407 C409 1.388 . S
C408 C407 1.366 . S
C408 C412 1.385 . S
C409 H384 0.951 . S
C409 C407 1.388 . S
C409 C410 1.366 . S
C410 C409 1.366 . S
C410 C411 1.414 . S
C410 C413 1.499 . S
C411 H385 0.950 . S
C411 C410 1.414 . S
C411 C412 1.374 . S
C412 H386 0.950 . S
C412 C408 1.385 . S
C412 C411 1.374 . S
C413 C410 1.499 . S
C413 C414 1.373 . S
C413 C415 1.389 . S
C414 H387 0.950 . S
C414 C400 1.377 . S
C414 C413 1.373 . S
C415 C399 1.377 . S
C415 C413 1.389 . S
C415 C416 1.524 . S
C416 C415 1.524 . S
C416 C417 1.397 . S
C416 C421 1.363 . S
C417 H388 0.950 . S
C417 C416 1.397 . S
C417 C418 1.334 . S
C418 H389 0.950 . S
C418 C417 1.334 . S
C418 C419 1.287 . S
C419 C418 1.287 . S
C419 C420 1.524 . S
C419 H422 0.999 . S
C420 H390 0.950 . S
C420 C419 1.524 . S
C420 C421 1.415 . S
C421 H391 0.950 . S
C421 C416 1.363 . S
C421 C420 1.415 . S
H422 C419 0.999 . S
H423 C404 0.913 . S
H424 C442 0.951 . S
H425 C444 0.951 . S
H426 C446 0.950 . S
H427 C447 0.950 . S
H428 C449 0.950 . S
H429 C452 0.950 . S
H430 C453 0.950 . S
H431 C455 0.950 . S
H432 C456 0.950 . S
H433 C457 0.951 . S
H434 C459 0.951 . S
H435 C461 0.950 . S
H436 C462 0.950 . S
H437 C464 0.950 . S
H438 C467 0.950 . S
H439 C468 0.950 . S
H440 C470 0.950 . S
H441 C471 0.950 . S
C442 H424 0.951 . S
C442 C443 1.366 . S
C442 C444 1.388 . S
C443 C442 1.366 . S
C443 C447 1.385 . S
C444 H425 0.951 . S
C444 C442 1.388 . S
C444 C445 1.366 . S
C445 C444 1.366 . S
C445 C446 1.414 . S
C445 C448 1.499 . S
C446 H426 0.950 . S
C446 C445 1.414 . S
C446 C447 1.374 . S
C447 H427 0.950 . S
C447 C443 1.385 . S
C447 C446 1.374 . S
C448 C445 1.499 . S
C448 C449 1.373 . S
C448 C450 1.389 . S
C449 H428 0.950 . S
C449 C448 1.373 . S
C449 C465 1.377 . S
C450 C448 1.389 . S
C450 C451 1.524 . S
C450 C464 1.377 . S
C451 C450 1.524 . S
C451 C452 1.397 . S
C451 C456 1.363 . S
C452 H429 0.950 . S
C452 C451 1.397 . S
C452 C453 1.334 . S
C453 H430 0.950 . S
C453 C452 1.334 . S
C453 C454 1.287 . S
C454 C453 1.287 . S
C454 C455 1.524 . S
C454 H473 0.913 . S
C455 H431 0.950 . S
C455 C454 1.524 . S
C455 C456 1.415 . S
C456 H432 0.950 . S
C456 C451 1.363 . S
C456 C455 1.415 . S
C457 H433 0.951 . S
C457 C458 1.366 . S
C457 C459 1.388 . S
C458 C457 1.366 . S
C458 C462 1.385 . S
C459 H434 0.951 . S
C459 C457 1.388 . S
C459 C460 1.366 . S
C460 C459 1.366 . S
C460 C461 1.414 . S
C460 C463 1.499 . S
C461 H435 0.950 . S
C461 C460 1.414 . S
C461 C462 1.374 . S
C462 H436 0.950 . S
C462 C458 1.385 . S
C462 C461 1.374 . S
C463 C460 1.499 . S
C463 C464 1.373 . S
C463 C465 1.389 . S
C464 H437 0.950 . S
C464 C450 1.377 . S
C464 C463 1.373 . S
C465 C449 1.377 . S
C465 C463 1.389 . S
C465 C466 1.524 . S
C466 C465 1.524 . S
C466 C467 1.397 . S
C466 C471 1.363 . S
C467 H438 0.950 . S
C467 C466 1.397 . S
C467 C468 1.334 . S
C468 H439 0.950 . S
C468 C467 1.334 . S
C468 C469 1.287 . S
C469 C468 1.287 . S
C469 C470 1.524 . S
C469 H472 0.999 . S
C470 H440 0.950 . S
C470 C469 1.524 . S
C470 C471 1.415 . S
C471 H441 0.950 . S
C471 C466 1.363 . S
C471 C470 1.415 . S
H472 C469 0.999 . S
H473 C454 0.913 . S
H474 C492 0.951 . S
H475 C494 0.951 . S
H476 C496 0.950 . S
H477 C497 0.950 . S
H478 C499 0.950 . S
H479 C502 0.950 . S
H480 C503 0.950 . S
H481 C505 0.950 . S
H482 C506 0.950 . S
H483 C507 0.951 . S
H484 C509 0.951 . S
H485 C511 0.950 . S
H486 C512 0.950 . S
H487 C514 0.950 . S
H488 C517 0.950 . S
H489 C518 0.950 . S
H490 C520 0.950 . S
H491 C521 0.950 . S
C492 H474 0.951 . S
C492 C493 1.366 . S
C492 C494 1.388 . S
C493 C492 1.366 . S
C493 C497 1.385 . S
C494 H475 0.951 . S
C494 C492 1.388 . S
C494 C495 1.366 . S
C495 C494 1.366 . S
C495 C496 1.414 . S
C495 C498 1.499 . S
C496 H476 0.950 . S
C496 C495 1.414 . S
C496 C497 1.374 . S
C497 H477 0.950 . S
C497 C493 1.385 . S
C497 C496 1.374 . S
C498 C495 1.499 . S
C498 C499 1.373 . S
C498 C500 1.389 . S
C499 H478 0.950 . S
C499 C498 1.373 . S
C499 C515 1.377 . S
C500 C498 1.389 . S
C500 C501 1.524 . S
C500 C514 1.377 . S
C501 C500 1.524 . S
C501 C502 1.397 . S
C501 C506 1.363 . S
C502 H479 0.950 . S
C502 C501 1.397 . S
C502 C503 1.334 . S
C503 H480 0.950 . S
C503 C502 1.334 . S
C503 C504 1.287 . S
C504 C503 1.287 . S
C504 C505 1.524 . S
C504 H523 0.913 . S
C505 H481 0.950 . S
C505 C504 1.524 . S
C505 C506 1.415 . S
C506 H482 0.950 . S
C506 C501 1.363 . S
C506 C505 1.415 . S
C507 H483 0.951 . S
C507 C508 1.366 . S
C507 C509 1.388 . S
C508 C507 1.366 . S
C508 C512 1.385 . S
C509 H484 0.951 . S
C509 C507 1.388 . S
C509 C510 1.366 . S
C510 C509 1.366 . S
C510 C511 1.414 . S
C510 C513 1.499 . S
C511 H485 0.950 . S
C511 C510 1.414 . S
C511 C512 1.374 . S
C512 H486 0.950 . S
C512 C508 1.385 . S
C512 C511 1.374 . S
C513 C510 1.499 . S
C513 C514 1.373 . S
C513 C515 1.389 . S
C514 H487 0.950 . S
C514 C500 1.377 . S
C514 C513 1.373 . S
C515 C499 1.377 . S
C515 C513 1.389 . S
C515 C516 1.524 . S
C516 C515 1.524 . S
C516 C517 1.397 . S
C516 C521 1.363 . S
C517 H488 0.950 . S
C517 C516 1.397 . S
C517 C518 1.334 . S
C518 H489 0.950 . S
C518 C517 1.334 . S
C518 C519 1.287 . S
C519 C518 1.287 . S
C519 C520 1.524 . S
C519 H522 0.999 . S
C520 H490 0.950 . S
C520 C519 1.524 . S
C520 C521 1.415 . S
C521 H491 0.950 . S
C521 C516 1.363 . S
C521 C520 1.415 . S
H522 C519 0.999 . S
H523 C504 0.913 . S
H524 C542 0.951 . S
H525 C544 0.951 . S
H526 C546 0.950 . S
H527 C547 0.950 . S
H528 C549 0.950 . S
H529 C552 0.950 . S
H530 C553 0.950 . S
H531 C555 0.950 . S
H532 C556 0.950 . S
H533 C557 0.951 . S
H534 C559 0.951 . S
H535 C561 0.950 . S
H536 C562 0.950 . S
H537 C564 0.950 . S
H538 C567 0.950 . S
H539 C568 0.950 . S
H540 C570 0.950 . S
H541 C571 0.950 . S
C542 H524 0.951 . S
C542 C543 1.366 . S
C542 C544 1.388 . S
C543 C542 1.366 . S
C543 C547 1.385 . S
C544 H525 0.951 . S
C544 C542 1.388 . S
C544 C545 1.366 . S
C545 C544 1.366 . S
C545 C546 1.414 . S
C545 C548 1.499 . S
C546 H526 0.950 . S
C546 C545 1.414 . S
C546 C547 1.374 . S
C547 H527 0.950 . S
C547 C543 1.385 . S
C547 C546 1.374 . S
C548 C545 1.499 . S
C548 C549 1.373 . S
C548 C550 1.389 . S
C549 H528 0.950 . S
C549 C548 1.373 . S
C549 C565 1.377 . S
C550 C548 1.389 . S
C550 C551 1.524 . S
C550 C564 1.377 . S
C551 C550 1.524 . S
C551 C552 1.397 . S
C551 C556 1.363 . S
C552 H529 0.950 . S
C552 C551 1.397 . S
C552 C553 1.334 . S
C553 H530 0.950 . S
C553 C552 1.334 . S
C553 C554 1.287 . S
C554 C553 1.287 . S
C554 C555 1.524 . S
C554 H573 0.913 . S
C555 H531 0.950 . S
C555 C554 1.524 . S
C555 C556 1.415 . S
C556 H532 0.950 . S
C556 C551 1.363 . S
C556 C555 1.415 . S
C557 H533 0.951 . S
C557 C558 1.366 . S
C557 C559 1.388 . S
C558 C557 1.366 . S
C558 C562 1.385 . S
C559 H534 0.951 . S
C559 C557 1.388 . S
C559 C560 1.366 . S
C560 C559 1.366 . S
C560 C561 1.414 . S
C560 C563 1.499 . S
C561 H535 0.950 . S
C561 C560 1.414 . S
C561 C562 1.374 . S
C562 H536 0.950 . S
C562 C558 1.385 . S
C562 C561 1.374 . S
C563 C560 1.499 . S
C563 C564 1.373 . S
C563 C565 1.389 . S
C564 H537 0.950 . S
C564 C550 1.377 . S
C564 C563 1.373 . S
C565 C549 1.377 . S
C565 C563 1.389 . S
C565 C566 1.524 . S
C566 C565 1.524 . S
C566 C567 1.397 . S
C566 C571 1.363 . S
C567 H538 0.950 . S
C567 C566 1.397 . S
C567 C568 1.334 . S
C568 H539 0.950 . S
C568 C567 1.334 . S
C568 C569 1.287 . S
C569 C568 1.287 . S
C569 C570 1.524 . S
C569 H572 0.999 . S
C570 H540 0.950 . S
C570 C569 1.524 . S
C570 C571 1.415 . S
C571 H541 0.950 . S
C571 C566 1.363 . S
C571 C570 1.415 . S
H572 C569 0.999 . S
H573 C554 0.913 . S
H574 C592 0.951 . S
H575 C594 0.951 . S
H576 C596 0.950 . S
H577 C597 0.950 . S
H578 C599 0.950 . S
H579 C602 0.950 . S
H580 C603 0.950 . S
H581 C605 0.950 . S
H582 C606 0.950 . S
H583 C607 0.951 . S
H584 C609 0.951 . S
H585 C611 0.950 . S
H586 C612 0.950 . S
H587 C614 0.950 . S
H588 C617 0.950 . S
H589 C618 0.950 . S
H590 C620 0.950 . S
H591 C621 0.950 . S
C592 H574 0.951 . S
C592 C593 1.366 . S
C592 C594 1.388 . S
C593 C592 1.366 . S
C593 C597 1.385 . S
C594 H575 0.951 . S
C594 C592 1.388 . S
C594 C595 1.366 . S
C595 C594 1.366 . S
C595 C596 1.414 . S
C595 C598 1.499 . S
C596 H576 0.950 . S
C596 C595 1.414 . S
C596 C597 1.374 . S
C597 H577 0.950 . S
C597 C593 1.385 . S
C597 C596 1.374 . S
C598 C595 1.499 . S
C598 C599 1.373 . S
C598 C600 1.389 . S
C599 H578 0.950 . S
C599 C598 1.373 . S
C599 C615 1.377 . S
C600 C598 1.389 . S
C600 C601 1.524 . S
C600 C614 1.377 . S
C601 C600 1.524 . S
C601 C602 1.397 . S
C601 C606 1.363 . S
C602 H579 0.950 . S
C602 C601 1.397 . S
C602 C603 1.334 . S
C603 H580 0.950 . S
C603 C602 1.334 . S
C603 C604 1.287 . S
C604 C603 1.287 . S
C604 C605 1.524 . S
C604 H623 0.913 . S
C605 H581 0.950 . S
C605 C604 1.524 . S
C605 C606 1.415 . S
C606 H582 0.950 . S
C606 C601 1.363 . S
C606 C605 1.415 . S
C607 H583 0.951 . S
C607 C608 1.366 . S
C607 C609 1.388 . S
C608 C607 1.366 . S
C608 C612 1.385 . S
C609 H584 0.951 . S
C609 C607 1.388 . S
C609 C610 1.366 . S
C610 C609 1.366 . S
C610 C611 1.414 . S
C610 C613 1.499 . S
C611 H585 0.950 . S
C611 C610 1.414 . S
C611 C612 1.374 . S
C612 H586 0.950 . S
C612 C608 1.385 . S
C612 C611 1.374 . S
C613 C610 1.499 . S
C613 C614 1.373 . S
C613 C615 1.389 . S
C614 H587 0.950 . S
C614 C600 1.377 . S
C614 C613 1.373 . S
C615 C599 1.377 . S
C615 C613 1.389 . S
C615 C616 1.524 . S
C616 C615 1.524 . S
C616 C617 1.397 . S
C616 C621 1.363 . S
C617 H588 0.950 . S
C617 C616 1.397 . S
C617 C618 1.334 . S
C618 H589 0.950 . S
C618 C617 1.334 . S
C618 C619 1.287 . S
C619 C618 1.287 . S
C619 C620 1.524 . S
C619 H622 0.999 . S
C620 H590 0.950 . S
C620 C619 1.524 . S
C620 C621 1.415 . S
C621 H591 0.950 . S
C621 C616 1.363 . S
C621 C620 1.415 . S
H622 C619 0.999 . S
H623 C604 0.913 . S
H624 C642 0.951 . S
H625 C644 0.951 . S
H626 C646 0.950 . S
H627 C647 0.950 . S
H628 C649 0.950 . S
H629 C652 0.950 . S
H630 C653 0.950 . S
H631 C655 0.950 . S
H632 C656 0.950 . S
H633 C657 0.951 . S
H634 C659 0.951 . S
H635 C661 0.950 . S
H636 C662 0.950 . S
H637 C664 0.950 . S
H638 C667 0.950 . S
H639 C668 0.950 . S
H640 C670 0.950 . S
H641 C671 0.950 . S
C642 H624 0.951 . S
C642 C643 1.366 . S
C642 C644 1.388 . S
C643 C642 1.366 . S
C643 C647 1.385 . S
C644 H625 0.951 . S
C644 C642 1.388 . S
C644 C645 1.366 . S
C645 C644 1.366 . S
C645 C646 1.414 . S
C645 C648 1.499 . S
C646 H626 0.950 . S
C646 C645 1.414 . S
C646 C647 1.374 . S
C647 H627 0.950 . S
C647 C643 1.385 . S
C647 C646 1.374 . S
C648 C645 1.499 . S
C648 C649 1.373 . S
C648 C650 1.389 . S
C649 H628 0.950 . S
C649 C648 1.373 . S
C649 C665 1.377 . S
C650 C648 1.389 . S
C650 C651 1.524 . S
C650 C664 1.377 . S
C651 C650 1.524 . S
C651 C652 1.397 . S
C651 C656 1.363 . S
C652 H629 0.950 . S
C652 C651 1.397 . S
C652 C653 1.334 . S
C653 H630 0.950 . S
C653 C652 1.334 . S
C653 C654 1.287 . S
C654 C653 1.287 . S
C654 C655 1.524 . S
C654 H673 0.913 . S
C655 H631 0.950 . S
C655 C654 1.524 . S
C655 C656 1.415 . S
C656 H632 0.950 . S
C656 C651 1.363 . S
C656 C655 1.415 . S
C657 H633 0.951 . S
C657 C658 1.366 . S
C657 C659 1.388 . S
C658 C657 1.366 . S
C658 C662 1.385 . S
C659 H634 0.951 . S
C659 C657 1.388 . S
C659 C660 1.366 . S
C660 C659 1.366 . S
C660 C661 1.414 . S
C660 C663 1.499 . S
C661 H635 0.950 . S
C661 C660 1.414 . S
C661 C662 1.374 . S
C662 H636 0.950 . S
C662 C658 1.385 . S
C662 C661 1.374 . S
C663 C660 1.499 . S
C663 C664 1.373 . S
C663 C665 1.389 . S
C664 H637 0.950 . S
C664 C650 1.377 . S
C664 C663 1.373 . S
C665 C649 1.377 . S
C665 C663 1.389 . S
C665 C666 1.524 . S
C666 C665 1.524 . S
C666 C667 1.397 . S
C666 C671 1.363 . S
C667 H638 0.950 . S
C667 C666 1.397 . S
C667 C668 1.334 . S
C668 H639 0.950 . S
C668 C667 1.334 . S
C668 C669 1.287 . S
C669 C668 1.287 . S
C669 C670 1.524 . S
C669 H672 0.999 . S
C670 H640 0.950 . S
C670 C669 1.524 . S
C670 C671 1.415 . S
C671 H641 0.950 . S
C671 C666 1.363 . S
C671 C670 1.415 . S
H672 C669 0.999 . S
H673 C654 0.913 . S
H674 C692 0.951 . S
H675 C694 0.951 . S
H676 C696 0.950 . S
H677 C697 0.950 . S
H678 C699 0.950 . S
H679 C702 0.950 . S
H680 C703 0.950 . S
H681 C705 0.950 . S
H682 C706 0.950 . S
H683 C707 0.951 . S
H684 C709 0.951 . S
H685 C711 0.950 . S
H686 C712 0.950 . S
H687 C714 0.950 . S
H688 C717 0.950 . S
H689 C718 0.950 . S
H690 C720 0.950 . S
H691 C721 0.950 . S
C692 H674 0.951 . S
C692 C693 1.366 . S
C692 C694 1.388 . S
C693 C692 1.366 . S
C693 C697 1.385 . S
C694 H675 0.951 . S
C694 C692 1.388 . S
C694 C695 1.366 . S
C695 C694 1.366 . S
C695 C696 1.414 . S
C695 C698 1.499 . S
C696 H676 0.950 . S
C696 C695 1.414 . S
C696 C697 1.374 . S
C697 H677 0.950 . S
C697 C693 1.385 . S
C697 C696 1.374 . S
C698 C695 1.499 . S
C698 C699 1.373 . S
C698 C700 1.389 . S
C699 H678 0.950 . S
C699 C698 1.373 . S
C699 C715 1.377 . S
C700 C698 1.389 . S
C700 C701 1.524 . S
C700 C714 1.377 . S
C701 C700 1.524 . S
C701 C702 1.397 . S
C701 C706 1.363 . S
C702 H679 0.950 . S
C702 C701 1.397 . S
C702 C703 1.334 . S
C703 H680 0.950 . S
C703 C702 1.334 . S
C703 C704 1.287 . S
C704 C703 1.287 . S
C704 C705 1.524 . S
C704 H723 0.913 . S
C705 H681 0.950 . S
C705 C704 1.524 . S
C705 C706 1.415 . S
C706 H682 0.950 . S
C706 C701 1.363 . S
C706 C705 1.415 . S
C707 H683 0.951 . S
C707 C708 1.366 . S
C707 C709 1.388 . S
C708 C707 1.366 . S
C708 C712 1.385 . S
C709 H684 0.951 . S
C709 C707 1.388 . S
C709 C710 1.366 . S
C710 C709 1.366 . S
C710 C711 1.414 . S
C710 C713 1.499 . S
C711 H685 0.950 . S
C711 C710 1.414 . S
C711 C712 1.374 . S
C712 H686 0.950 . S
C712 C708 1.385 . S
C712 C711 1.374 . S
C713 C710 1.499 . S
C713 C714 1.373 . S
C713 C715 1.389 . S
C714 H687 0.950 . S
C714 C700 1.377 . S
C714 C713 1.373 . S
C715 C699 1.377 . S
C715 C713 1.389 . S
C715 C716 1.524 . S
C716 C715 1.524 . S
C716 C717 1.397 . S
C716 C721 1.363 . S
C717 H688 0.950 . S
C717 C716 1.397 . S
C717 C718 1.334 . S
C718 H689 0.950 . S
C718 C717 1.334 . S
C718 C719 1.287 . S
C719 C718 1.287 . S
C719 C720 1.524 . S
C719 H722 0.999 . S
C720 H690 0.950 . S
C720 C719 1.524 . S
C720 C721 1.415 . S
C721 H691 0.950 . S
C721 C716 1.363 . S
C721 C720 1.415 . S
H722 C719 0.999 . S
H723 C704 0.913 . S
H724 C742 0.951 . S
H725 C744 0.951 . S
H726 C746 0.950 . S
H727 C747 0.950 . S
H728 C749 0.950 . S
H729 C752 0.950 . S
H730 C753 0.950 . S
H731 C755 0.950 . S
H732 C756 0.950 . S
H733 C757 0.951 . S
H734 C759 0.951 . S
H735 C761 0.950 . S
H736 C762 0.950 . S
H737 C764 0.950 . S
H738 C767 0.950 . S
H739 C768 0.950 . S
H740 C770 0.950 . S
H741 C771 0.950 . S
C742 H724 0.951 . S
C742 C743 1.366 . S
C742 C744 1.388 . S
C743 C742 1.366 . S
C743 C747 1.385 . S
C744 H725 0.951 . S
C744 C742 1.388 . S
C744 C745 1.366 . S
C745 C744 1.366 . S
C745 C746 1.414 . S
C745 C748 1.499 . S
C746 H726 0.950 . S
C746 C745 1.414 . S
C746 C747 1.374 . S
C747 H727 0.950 . S
C747 C743 1.385 . S
C747 C746 1.374 . S
C748 C745 1.499 . S
C748 C749 1.373 . S
C748 C750 1.389 . S
C749 H728 0.950 . S
C749 C748 1.373 . S
C749 C765 1.377 . S
C750 C748 1.389 . S
C750 C751 1.524 . S
C750 C764 1.377 . S
C751 C750 1.524 . S
C751 C752 1.397 . S
C751 C756 1.363 . S
C752 H729 0.950 . S
C752 C751 1.397 . S
C752 C753 1.334 . S
C753 H730 0.950 . S
C753 C752 1.334 . S
C753 C754 1.287 . S
C754 C753 1.287 . S
C754 C755 1.524 . S
C754 H773 0.913 . S
C755 H731 0.950 . S
C755 C754 1.524 . S
C755 C756 1.415 . S
C756 H732 0.950 . S
C756 C751 1.363 . S
C756 C755 1.415 . S
C757 H733 0.951 . S
C757 C758 1.366 . S
C757 C759 1.388 . S
C758 C757 1.366 . S
C758 C762 1.385 . S
C759 H734 0.951 . S
C759 C757 1.388 . S
C759 C760 1.366 . S
C760 C759 1.366 . S
C760 C761 1.414 . S
C760 C763 1.499 . S
C761 H735 0.950 . S
C761 C760 1.414 . S
C761 C762 1.374 . S
C762 H736 0.950 . S
C762 C758 1.385 . S
C762 C761 1.374 . S
C763 C760 1.499 . S
C763 C764 1.373 . S
C763 C765 1.389 . S
C764 H737 0.950 . S
C764 C750 1.377 . S
C764 C763 1.373 . S
C765 C749 1.377 . S
C765 C763 1.389 . S
C765 C766 1.524 . S
C766 C765 1.524 . S
C766 C767 1.397 . S
C766 C771 1.363 . S
C767 H738 0.950 . S
C767 C766 1.397 . S
C767 C768 1.334 . S
C768 H739 0.950 . S
C768 C767 1.334 . S
C768 C769 1.287 . S
C769 C768 1.287 . S
C769 C770 1.524 . S
C769 H772 0.999 . S
C770 H740 0.950 . S
C770 C769 1.524 . S
C770 C771 1.415 . S
C771 H741 0.950 . S
C771 C766 1.363 . S
C771 C770 1.415 . S
H772 C769 0.999 . S
H773 C754 0.913 . S
H774 C792 0.951 . S
H775 C794 0.951 . S
H776 C796 0.950 . S
H777 C797 0.950 . S
H778 C799 0.950 . S
H779 C802 0.950 . S
H780 C803 0.950 . S
H781 C805 0.950 . S
H782 C806 0.950 . S
H783 C807 0.951 . S
H784 C809 0.951 . S
H785 C811 0.950 . S
H786 C812 0.950 . S
H787 C814 0.950 . S
H788 C817 0.950 . S
H789 C818 0.950 . S
H790 C820 0.950 . S
H791 C821 0.950 . S
C792 H774 0.951 . S
C792 C793 1.366 . S
C792 C794 1.388 . S
C793 C792 1.366 . S
C793 C797 1.385 . S
C794 H775 0.951 . S
C794 C792 1.388 . S
C794 C795 1.366 . S
C795 C794 1.366 . S
C795 C796 1.414 . S
C795 C798 1.499 . S
C796 H776 0.950 . S
C796 C795 1.414 . S
C796 C797 1.374 . S
C797 H777 0.950 . S
C797 C793 1.385 . S
C797 C796 1.374 . S
C798 C795 1.499 . S
C798 C799 1.373 . S
C798 C800 1.389 . S
C799 H778 0.950 . S
C799 C798 1.373 . S
C799 C815 1.377 1_554 S
C800 C798 1.389 . S
C800 C801 1.524 . S
C800 C814 1.377 1_554 S
C801 C800 1.524 . S
C801 C802 1.397 . S
C801 C806 1.363 . S
C802 H779 0.950 . S
C802 C801 1.397 . S
C802 C803 1.334 . S
C803 H780 0.950 . S
C803 C802 1.334 . S
C803 C804 1.287 . S
C804 C803 1.287 . S
C804 C805 1.524 . S
C804 H823 0.913 . S
C805 H781 0.950 . S
C805 C804 1.524 . S
C805 C806 1.415 . S
C806 H782 0.950 . S
C806 C801 1.363 . S
C806 C805 1.415 . S
C807 H783 0.951 . S
C807 C808 1.366 . S
C807 C809 1.388 . S
C808 C807 1.366 . S
C808 C812 1.385 . S
C809 H784 0.951 . S
C809 C807 1.388 . S
C809 C810 1.366 . S
C810 C809 1.366 . S
C810 C811 1.414 . S
C810 C813 1.499 . S
C811 H785 0.950 . S
C811 C810 1.414 . S
C811 C812 1.374 . S
C812 H786 0.950 . S
C812 C808 1.385 . S
C812 C811 1.374 . S
C813 C810 1.499 . S
C813 C814 1.373 . S
C813 C815 1.389 . S
C814 H787 0.950 . S
C814 C800 1.377 1_556 S
C814 C813 1.373 . S
C815 C799 1.377 1_556 S
C815 C813 1.389 . S
C815 C816 1.524 . S
C816 C815 1.524 . S
C816 C817 1.397 . S
C816 C821 1.363 . S
C817 H788 0.950 . S
C817 C816 1.397 . S
C817 C818 1.334 . S
C818 H789 0.950 . S
C818 C817 1.334 . S
C818 C819 1.287 . S
C819 C818 1.287 . S
C819 C820 1.524 . S
C819 H822 0.999 . S
C820 H790 0.950 . S
C820 C819 1.524 . S
C820 C821 1.415 . S
C821 H791 0.950 . S
C821 C816 1.363 . S
C821 C820 1.415 . S
H822 C819 0.999 . S
H823 C804 0.913 . S
H824 C842 0.951 . S
H825 C844 0.951 . S
H826 C846 0.950 . S
H827 C847 0.950 . S
H828 C849 0.950 . S
H829 C852 0.950 . S
H830 C853 0.950 . S
H831 C855 0.950 . S
H832 C856 0.950 . S
H833 C857 0.951 . S
H834 C859 0.951 . S
H835 C861 0.950 . S
H836 C862 0.950 . S
H837 C864 0.950 . S
H838 C867 0.950 . S
H839 C868 0.950 . S
H840 C870 0.950 . S
H841 C871 0.950 . S
C842 H824 0.951 . S
C842 C843 1.366 . S
C842 C844 1.388 . S
C843 C842 1.366 . S
C843 C847 1.385 . S
C844 H825 0.951 . S
C844 C842 1.388 . S
C844 C845 1.366 . S
C845 C844 1.366 . S
C845 C846 1.414 . S
C845 C848 1.499 . S
C846 H826 0.950 . S
C846 C845 1.414 . S
C846 C847 1.374 . S
C847 H827 0.950 . S
C847 C843 1.385 . S
C847 C846 1.374 . S
C848 C845 1.499 . S
C848 C849 1.373 . S
C848 C850 1.389 . S
C849 H828 0.950 . S
C849 C848 1.373 . S
C849 C865 1.377 1_554 S
C850 C848 1.389 . S
C850 C851 1.524 . S
C850 C864 1.377 1_554 S
C851 C850 1.524 . S
C851 C852 1.397 . S
C851 C856 1.363 . S
C852 H829 0.950 . S
C852 C851 1.397 . S
C852 C853 1.334 . S
C853 H830 0.950 . S
C853 C852 1.334 . S
C853 C854 1.287 . S
C854 C853 1.287 . S
C854 C855 1.524 . S
C854 H873 0.913 . S
C855 H831 0.950 . S
C855 C854 1.524 . S
C855 C856 1.415 . S
C856 H832 0.950 . S
C856 C851 1.363 . S
C856 C855 1.415 . S
C857 H833 0.951 . S
C857 C858 1.366 . S
C857 C859 1.388 . S
C858 C857 1.366 . S
C858 C862 1.385 . S
C859 H834 0.951 . S
C859 C857 1.388 . S
C859 C860 1.366 . S
C860 C859 1.366 . S
C860 C861 1.414 . S
C860 C863 1.499 . S
C861 H835 0.950 . S
C861 C860 1.414 . S
C861 C862 1.374 . S
C862 H836 0.950 . S
C862 C858 1.385 . S
C862 C861 1.374 . S
C863 C860 1.499 . S
C863 C864 1.373 . S
C863 C865 1.389 . S
C864 H837 0.950 . S
C864 C850 1.377 1_556 S
C864 C863 1.373 . S
C865 C849 1.377 1_556 S
C865 C863 1.389 . S
C865 C866 1.524 . S
C866 C865 1.524 . S
C866 C867 1.397 . S
C866 C871 1.363 . S
C867 H838 0.950 . S
C867 C866 1.397 . S
C867 C868 1.334 . S
C868 H839 0.950 . S
C868 C867 1.334 . S
C868 C869 1.287 . S
C869 C868 1.287 . S
C869 C870 1.524 . S
C869 H872 0.999 . S
C870 H840 0.950 . S
C870 C869 1.524 . S
C870 C871 1.415 . S
C871 H841 0.950 . S
C871 C866 1.363 . S
C871 C870 1.415 . S
H872 C869 0.999 . S
H873 C854 0.913 . S
H874 C892 0.951 . S
H875 C894 0.951 . S
H876 C896 0.950 . S
H877 C897 0.950 . S
H878 C899 0.950 . S
H879 C902 0.950 . S
H880 C903 0.950 . S
H881 C905 0.950 . S
H882 C906 0.950 . S
H883 C907 0.951 . S
H884 C909 0.951 . S
H885 C911 0.950 . S
H886 C912 0.950 . S
H887 C914 0.950 . S
H888 C917 0.950 . S
H889 C918 0.950 . S
H890 C920 0.950 . S
H891 C921 0.950 . S
C892 H874 0.951 . S
C892 C893 1.366 . S
C892 C894 1.388 . S
C893 C892 1.366 . S
C893 C897 1.385 . S
C894 H875 0.951 . S
C894 C892 1.388 . S
C894 C895 1.366 . S
C895 C894 1.366 . S
C895 C896 1.414 . S
C895 C898 1.499 . S
C896 H876 0.950 . S
C896 C895 1.414 . S
C896 C897 1.374 . S
C897 H877 0.950 . S
C897 C893 1.385 . S
C897 C896 1.374 . S
C898 C895 1.499 . S
C898 C899 1.373 . S
C898 C900 1.389 . S
C899 H878 0.950 . S
C899 C898 1.373 . S
C899 C915 1.377 . S
C900 C898 1.389 . S
C900 C901 1.524 . S
C900 C914 1.377 . S
C901 C900 1.524 . S
C901 C902 1.397 . S
C901 C906 1.363 . S
C902 H879 0.950 . S
C902 C901 1.397 . S
C902 C903 1.334 . S
C903 H880 0.950 . S
C903 C902 1.334 . S
C903 C904 1.287 . S
C904 C903 1.287 . S
C904 C905 1.524 . S
C904 H923 0.913 . S
C905 H881 0.950 . S
C905 C904 1.524 . S
C905 C906 1.415 . S
C906 H882 0.950 . S
C906 C901 1.363 . S
C906 C905 1.415 . S
C907 H883 0.951 . S
C907 C908 1.366 . S
C907 C909 1.388 . S
C908 C907 1.366 . S
C908 C912 1.385 . S
C909 H884 0.951 . S
C909 C907 1.388 . S
C909 C910 1.366 . S
C910 C909 1.366 . S
C910 C911 1.414 . S
C910 C913 1.499 . S
C911 H885 0.950 . S
C911 C910 1.414 . S
C911 C912 1.374 . S
C912 H886 0.950 . S
C912 C908 1.385 . S
C912 C911 1.374 . S
C913 C910 1.499 . S
C913 C914 1.373 . S
C913 C915 1.389 . S
C914 H887 0.950 . S
C914 C900 1.377 . S
C914 C913 1.373 . S
C915 C899 1.377 . S
C915 C913 1.389 . S
C915 C916 1.524 . S
C916 C915 1.524 . S
C916 C917 1.397 . S
C916 C921 1.363 . S
C917 H888 0.950 . S
C917 C916 1.397 . S
C917 C918 1.334 . S
C918 H889 0.950 . S
C918 C917 1.334 . S
C918 C919 1.287 . S
C919 C918 1.287 . S
C919 C920 1.524 . S
C919 H922 0.999 . S
C920 H890 0.950 . S
C920 C919 1.524 . S
C920 C921 1.415 . S
C921 H891 0.950 . S
C921 C916 1.363 . S
C921 C920 1.415 . S
H922 C919 0.999 . S
H923 C904 0.913 . S
H924 C942 0.951 . S
H925 C944 0.951 . S
H926 C946 0.950 . S
H927 C947 0.950 . S
H928 C949 0.950 . S
H929 C952 0.950 . S
H930 C953 0.950 . S
H931 C955 0.950 . S
H932 C956 0.950 . S
H933 C957 0.951 . S
H934 C959 0.951 . S
H935 C961 0.950 . S
H936 C962 0.950 . S
H937 C964 0.950 . S
H938 C967 0.950 . S
H939 C968 0.950 . S
H940 C970 0.950 . S
H941 C971 0.950 . S
C942 H924 0.951 . S
C942 C943 1.366 . S
C942 C944 1.388 . S
C943 C942 1.366 . S
C943 C947 1.385 . S
C944 H925 0.951 . S
C944 C942 1.388 . S
C944 C945 1.366 . S
C945 C944 1.366 . S
C945 C946 1.414 . S
C945 C948 1.499 . S
C946 H926 0.950 . S
C946 C945 1.414 . S
C946 C947 1.374 . S
C947 H927 0.950 . S
C947 C943 1.385 . S
C947 C946 1.374 . S
C948 C945 1.499 . S
C948 C949 1.373 . S
C948 C950 1.389 . S
C949 H928 0.950 . S
C949 C948 1.373 . S
C949 C965 1.377 . S
C950 C948 1.389 . S
C950 C951 1.524 . S
C950 C964 1.377 . S
C951 C950 1.524 . S
C951 C952 1.397 . S
C951 C956 1.363 . S
C952 H929 0.950 . S
C952 C951 1.397 . S
C952 C953 1.334 . S
C953 H930 0.950 . S
C953 C952 1.334 . S
C953 C954 1.287 . S
C954 C953 1.287 . S
C954 C955 1.524 . S
C954 H973 0.913 . S
C955 H931 0.950 . S
C955 C954 1.524 . S
C955 C956 1.415 . S
C956 H932 0.950 . S
C956 C951 1.363 . S
C956 C955 1.415 . S
C957 H933 0.951 . S
C957 C958 1.366 . S
C957 C959 1.388 . S
C958 C957 1.366 . S
C958 C962 1.385 . S
C959 H934 0.951 . S
C959 C957 1.388 . S
C959 C960 1.366 . S
C960 C959 1.366 . S
C960 C961 1.414 . S
C960 C963 1.499 . S
C961 H935 0.950 . S
C961 C960 1.414 . S
C961 C962 1.374 . S
C962 H936 0.950 . S
C962 C958 1.385 . S
C962 C961 1.374 . S
C963 C960 1.499 . S
C963 C964 1.373 . S
C963 C965 1.389 . S
C964 H937 0.950 . S
C964 C950 1.377 . S
C964 C963 1.373 . S
C965 C949 1.377 . S
C965 C963 1.389 . S
C965 C966 1.524 . S
C966 C965 1.524 . S
C966 C967 1.397 . S
C966 C971 1.363 . S
C967 H938 0.950 . S
C967 C966 1.397 . S
C967 C968 1.334 . S
C968 H939 0.950 . S
C968 C967 1.334 . S
C968 C969 1.287 . S
C969 C968 1.287 . S
C969 C970 1.524 . S
C969 H972 0.999 . S
C970 H940 0.950 . S
C970 C969 1.524 . S
C970 C971 1.415 . S
C971 H941 0.950 . S
C971 C966 1.363 . S
C971 C970 1.415 . S
H972 C969 0.999 . S
H973 C954 0.913 . S
H974 C992 0.951 . S
H975 C994 0.951 . S
H976 C996 0.950 . S
H977 C997 0.950 . S
H978 C999 0.950 . S
H979 C1002 0.950 . S
H980 C1003 0.950 . S
H981 C1005 0.950 . S
H982 C1006 0.950 . S
H983 C1007 0.951 . S
H984 C1009 0.951 . S
H985 C1011 0.950 . S
H986 C1012 0.950 . S
H987 C1014 0.950 . S
H988 C1017 0.950 . S
H989 C1018 0.950 . S
H990 C1020 0.950 . S
H991 C1021 0.950 . S
C992 H974 0.951 . S
C992 C993 1.366 . S
C992 C994 1.388 . S
C993 C992 1.366 . S
C993 C997 1.385 . S
C994 H975 0.951 . S
C994 C992 1.388 . S
C994 C995 1.366 . S
C995 C994 1.366 . S
C995 C996 1.414 . S
C995 C998 1.499 . S
C996 H976 0.950 . S
C996 C995 1.414 . S
C996 C997 1.374 . S
C997 H977 0.950 . S
C997 C993 1.385 . S
C997 C996 1.374 . S
C998 C995 1.499 . S
C998 C999 1.373 . S
C998 C1000 1.389 . S
C999 H978 0.950 . S
C999 C998 1.373 . S
C999 C1015 1.377 . S
C1000 C998 1.389 . S
C1000 C1001 1.524 . S
C1000 C1014 1.377 . S
C1001 C1000 1.524 . S
C1001 C1002 1.397 . S
C1001 C1006 1.363 . S
C1002 H979 0.950 . S
C1002 C1001 1.397 . S
C1002 C1003 1.334 . S
C1003 H980 0.950 . S
C1003 C1002 1.334 . S
C1003 C1004 1.287 . S
C1004 C1003 1.287 . S
C1004 C1005 1.524 . S
C1004 H1023 0.913 . S
C1005 H981 0.950 . S
C1005 C1004 1.524 . S
C1005 C1006 1.415 . S
C1006 H982 0.950 . S
C1006 C1001 1.363 . S
C1006 C1005 1.415 . S
C1007 H983 0.951 . S
C1007 C1008 1.366 . S
C1007 C1009 1.388 . S
C1008 C1007 1.366 . S
C1008 C1012 1.385 . S
C1009 H984 0.951 . S
C1009 C1007 1.388 . S
C1009 C1010 1.366 . S
C1010 C1009 1.366 . S
C1010 C1011 1.414 . S
C1010 C1013 1.499 . S
C1011 H985 0.950 . S
C1011 C1010 1.414 . S
C1011 C1012 1.374 . S
C1012 H986 0.950 . S
C1012 C1008 1.385 . S
C1012 C1011 1.374 . S
C1013 C1010 1.499 . S
C1013 C1014 1.373 . S
C1013 C1015 1.389 . S
C1014 H987 0.950 . S
C1014 C1000 1.377 . S
C1014 C1013 1.373 . S
C1015 C999 1.377 . S
C1015 C1013 1.389 . S
C1015 C1016 1.524 . S
C1016 C1015 1.524 . S
C1016 C1017 1.397 . S
C1016 C1021 1.363 . S
C1017 H988 0.950 . S
C1017 C1016 1.397 . S
C1017 C1018 1.334 . S
C1018 H989 0.950 . S
C1018 C1017 1.334 . S
C1018 C1019 1.287 . S
C1019 C1018 1.287 . S
C1019 C1020 1.524 . S
C1019 H1022 0.999 . S
C1020 H990 0.950 . S
C1020 C1019 1.524 . S
C1020 C1021 1.415 . S
C1021 H991 0.950 . S
C1021 C1016 1.363 . S
C1021 C1020 1.415 . S
H1022 C1019 0.999 . S
H1023 C1004 0.913 . S
H1024 C1042 0.951 . S
H1025 C1044 0.951 . S
H1026 C1046 0.950 . S
H1027 C1047 0.950 . S
H1028 C1049 0.950 . S
H1029 C1052 0.950 . S
H1030 C1053 0.950 . S
H1031 C1055 0.950 . S
H1032 C1056 0.950 . S
H1033 C1057 0.951 . S
H1034 C1059 0.951 . S
H1035 C1061 0.950 . S
H1036 C1062 0.950 . S
H1037 C1064 0.950 . S
H1038 C1067 0.950 . S
H1039 C1068 0.950 . S
H1040 C1070 0.950 . S
H1041 C1071 0.950 . S
C1042 H1024 0.951 . S
C1042 C1043 1.366 . S
C1042 C1044 1.388 . S
C1043 C1042 1.366 . S
C1043 C1047 1.385 . S
C1044 H1025 0.951 . S
C1044 C1042 1.388 . S
C1044 C1045 1.366 . S
C1045 C1044 1.366 . S
C1045 C1046 1.414 . S
C1045 C1048 1.499 . S
C1046 H1026 0.950 . S
C1046 C1045 1.414 . S
C1046 C1047 1.374 . S
C1047 H1027 0.950 . S
C1047 C1043 1.385 . S
C1047 C1046 1.374 . S
C1048 C1045 1.499 . S
C1048 C1049 1.373 . S
C1048 C1050 1.389 1_545 S
C1049 H1028 0.950 . S
C1049 C1048 1.373 . S
C1049 C1065 1.377 1_455 S
C1050 C1048 1.389 1_565 S
C1050 C1051 1.524 . S
C1050 C1064 1.377 1_455 S
C1051 C1050 1.524 . S
C1051 C1052 1.397 . S
C1051 C1056 1.363 . S
C1052 H1029 0.950 . S
C1052 C1051 1.397 . S
C1052 C1053 1.334 . S
C1053 H1030 0.950 . S
C1053 C1052 1.334 . S
C1053 C1054 1.287 . S
C1054 C1053 1.287 . S
C1054 C1055 1.524 . S
C1054 H1073 0.913 . S
C1055 H1031 0.950 . S
C1055 C1054 1.524 . S
C1055 C1056 1.415 . S
C1056 H1032 0.950 . S
C1056 C1051 1.363 . S
C1056 C1055 1.415 . S
C1057 H1033 0.951 . S
C1057 C1058 1.366 . S
C1057 C1059 1.388 . S
C1058 C1057 1.366 . S
C1058 C1062 1.385 . S
C1059 H1034 0.951 . S
C1059 C1057 1.388 . S
C1059 C1060 1.366 . S
C1060 C1059 1.366 . S
C1060 C1061 1.414 . S
C1060 C1063 1.499 . S
C1061 H1035 0.950 . S
C1061 C1060 1.414 . S
C1061 C1062 1.374 . S
C1062 H1036 0.950 . S
C1062 C1058 1.385 . S
C1062 C1061 1.374 . S
C1063 C1060 1.499 . S
C1063 C1064 1.373 . S
C1063 C1065 1.389 1_565 S
C1064 H1037 0.950 . S
C1064 C1050 1.377 1_655 S
C1064 C1063 1.373 . S
C1065 C1049 1.377 1_655 S
C1065 C1063 1.389 1_545 S
C1065 C1066 1.524 . S
C1066 C1065 1.524 . S
C1066 C1067 1.397 . S
C1066 C1071 1.363 . S
C1067 H1038 0.950 . S
C1067 C1066 1.397 . S
C1067 C1068 1.334 . S
C1068 H1039 0.950 . S
C1068 C1067 1.334 . S
C1068 C1069 1.287 . S
C1069 C1068 1.287 . S
C1069 C1070 1.524 . S
C1069 H1072 0.999 . S
C1070 H1040 0.950 . S
C1070 C1069 1.524 . S
C1070 C1071 1.415 . S
C1071 H1041 0.950 . S
C1071 C1066 1.363 . S
C1071 C1070 1.415 . S
H1072 C1069 0.999 . S
H1073 C1054 0.913 . S
H1074 C1092 0.951 . S
H1075 C1094 0.951 1_655 S
H1076 C1096 0.950 . S
H1077 C1097 0.950 . S
H1078 C1099 0.950 . S
H1079 C1102 0.950 1_455 S
H1080 C1103 0.950 . S
H1081 C1105 0.950 . S
H1082 C1106 0.950 . S
H1083 C1107 0.951 . S
H1084 C1109 0.951 1_455 S
H1085 C1111 0.950 . S
H1086 C1112 0.950 . S
H1087 C1114 0.950 . S
H1088 C1117 0.950 1_655 S
H1089 C1118 0.950 . S
H1090 C1120 0.950 . S
H1091 C1121 0.950 . S
C1092 H1074 0.951 . S
C1092 C1093 1.366 . S
C1092 C1094 1.388 . S
C1093 C1092 1.366 . S
C1093 C1097 1.385 . S
C1094 H1075 0.951 1_455 S
C1094 C1092 1.388 . S
C1094 C1095 1.366 . S
C1095 C1094 1.366 . S
C1095 C1096 1.414 . S
C1095 C1098 1.499 . S
C1096 H1076 0.950 . S
C1096 C1095 1.414 . S
C1096 C1097 1.374 . S
C1097 H1077 0.950 . S
C1097 C1093 1.385 . S
C1097 C1096 1.374 . S
C1098 C1095 1.499 . S
C1098 C1099 1.373 . S
C1098 C1100 1.389 1_455 S
C1099 H1078 0.950 . S
C1099 C1098 1.373 . S
C1099 C1115 1.377 . S
C1100 C1098 1.389 1_655 S
C1100 C1101 1.524 . S
C1100 C1114 1.377 . S
C1101 C1100 1.524 . S
C1101 C1102 1.397 . S
C1101 C1106 1.363 . S
C1102 H1079 0.950 1_655 S
C1102 C1101 1.397 . S
C1102 C1103 1.334 . S
C1103 H1080 0.950 . S
C1103 C1102 1.334 . S
C1103 C1104 1.287 . S
C1104 C1103 1.287 . S
C1104 C1105 1.524 . S
C1104 H1123 0.913 . S
C1105 H1081 0.950 . S
C1105 C1104 1.524 . S
C1105 C1106 1.415 . S
C1106 H1082 0.950 . S
C1106 C1101 1.363 . S
C1106 C1105 1.415 . S
C1107 H1083 0.951 . S
C1107 C1108 1.366 . S
C1107 C1109 1.388 . S
C1108 C1107 1.366 . S
C1108 C1112 1.385 . S
C1109 H1084 0.951 1_655 S
C1109 C1107 1.388 . S
C1109 C1110 1.366 . S
C1110 C1109 1.366 . S
C1110 C1111 1.414 . S
C1110 C1113 1.499 . S
C1111 H1085 0.950 . S
C1111 C1110 1.414 . S
C1111 C1112 1.374 . S
C1112 H1086 0.950 . S
C1112 C1108 1.385 . S
C1112 C1111 1.374 . S
C1113 C1110 1.499 . S
C1113 C1114 1.373 . S
C1113 C1115 1.389 1_655 S
C1114 H1087 0.950 . S
C1114 C1100 1.377 . S
C1114 C1113 1.373 . S
C1115 C1099 1.377 . S
C1115 C1113 1.389 1_455 S
C1115 C1116 1.524 . S
C1116 C1115 1.524 . S
C1116 C1117 1.397 . S
C1116 C1121 1.363 . S
C1117 H1088 0.950 1_455 S
C1117 C1116 1.397 . S
C1117 C1118 1.334 . S
C1118 H1089 0.950 . S
C1118 C1117 1.334 . S
C1118 C1119 1.287 . S
C1119 C1118 1.287 . S
C1119 C1120 1.524 . S
C1119 H1122 0.999 . S
C1120 H1090 0.950 . S
C1120 C1119 1.524 . S
C1120 C1121 1.415 . S
C1121 H1091 0.950 . S
C1121 C1116 1.363 . S
C1121 C1120 1.415 . S
H1122 C1119 0.999 . S
H1123 C1104 0.913 . S
H1124 C1142 0.951 . S
H1125 C1144 0.951 . S
H1126 C1146 0.950 . S
H1127 C1147 0.950 . S
H1128 C1149 0.950 . S
H1129 C1152 0.950 . S
H1130 C1153 0.950 . S
H1131 C1155 0.950 . S
H1132 C1156 0.950 . S
H1133 C1157 0.951 . S
H1134 C1159 0.951 . S
H1135 C1161 0.950 . S
H1136 C1162 0.950 . S
H1137 C1164 0.950 . S
H1138 C1167 0.950 . S
H1139 C1168 0.950 . S
H1140 C1170 0.950 . S
H1141 C1171 0.950 . S
C1142 H1124 0.951 . S
C1142 C1143 1.366 . S
C1142 C1144 1.388 . S
C1143 C1142 1.366 . S
C1143 C1147 1.385 . S
C1144 H1125 0.951 . S
C1144 C1142 1.388 . S
C1144 C1145 1.366 . S
C1145 C1144 1.366 . S
C1145 C1146 1.414 . S
C1145 C1148 1.499 . S
C1146 H1126 0.950 . S
C1146 C1145 1.414 . S
C1146 C1147 1.374 . S
C1147 H1127 0.950 . S
C1147 C1143 1.385 . S
C1147 C1146 1.374 . S
C1148 C1145 1.499 . S
C1148 C1149 1.373 . S
C1148 C1150 1.389 . S
C1149 H1128 0.950 . S
C1149 C1148 1.373 . S
C1149 C1165 1.377 . S
C1150 C1148 1.389 . S
C1150 C1151 1.524 . S
C1150 C1164 1.377 . S
C1151 C1150 1.524 . S
C1151 C1152 1.397 . S
C1151 C1156 1.363 . S
C1152 H1129 0.950 . S
C1152 C1151 1.397 . S
C1152 C1153 1.334 . S
C1153 H1130 0.950 . S
C1153 C1152 1.334 . S
C1153 C1154 1.287 . S
C1154 C1153 1.287 . S
C1154 C1155 1.524 . S
C1154 H1173 0.913 . S
C1155 H1131 0.950 . S
C1155 C1154 1.524 . S
C1155 C1156 1.415 . S
C1156 H1132 0.950 . S
C1156 C1151 1.363 . S
C1156 C1155 1.415 . S
C1157 H1133 0.951 . S
C1157 C1158 1.366 . S
C1157 C1159 1.388 . S
C1158 C1157 1.366 . S
C1158 C1162 1.385 . S
C1159 H1134 0.951 . S
C1159 C1157 1.388 . S
C1159 C1160 1.366 . S
C1160 C1159 1.366 . S
C1160 C1161 1.414 . S
C1160 C1163 1.499 . S
C1161 H1135 0.950 . S
C1161 C1160 1.414 . S
C1161 C1162 1.374 . S
C1162 H1136 0.950 . S
C1162 C1158 1.385 . S
C1162 C1161 1.374 . S
C1163 C1160 1.499 . S
C1163 C1164 1.373 . S
C1163 C1165 1.389 . S
C1164 H1137 0.950 . S
C1164 C1150 1.377 . S
C1164 C1163 1.373 . S
C1165 C1149 1.377 . S
C1165 C1163 1.389 . S
C1165 C1166 1.524 . S
C1166 C1165 1.524 . S
C1166 C1167 1.397 . S
C1166 C1171 1.363 . S
C1167 H1138 0.950 . S
C1167 C1166 1.397 . S
C1167 C1168 1.334 . S
C1168 H1139 0.950 . S
C1168 C1167 1.334 . S
C1168 C1169 1.287 . S
C1169 C1168 1.287 . S
C1169 C1170 1.524 . S
C1169 H1172 0.999 . S
C1170 H1140 0.950 . S
C1170 C1169 1.524 . S
C1170 C1171 1.415 . S
C1171 H1141 0.950 . S
C1171 C1166 1.363 . S
C1171 C1170 1.415 . S
H1172 C1169 0.999 . S
H1173 C1154 0.913 . S
H1174 C1192 0.951 . S
H1175 C1194 0.951 . S
H1176 C1196 0.950 . S
H1177 C1197 0.950 . S
H1178 C1199 0.950 . S
H1179 C1202 0.950 . S
H1180 C1203 0.950 . S
H1181 C1205 0.950 . S
H1182 C1206 0.950 . S
H1183 C1207 0.951 . S
H1184 C1209 0.951 . S
H1185 C1211 0.950 . S
H1186 C1212 0.950 . S
H1187 C1214 0.950 . S
H1188 C1217 0.950 . S
H1189 C1218 0.950 . S
H1190 C1220 0.950 . S
H1191 C1221 0.950 . S
C1192 H1174 0.951 . S
C1192 C1193 1.366 . S
C1192 C1194 1.388 . S
C1193 C1192 1.366 . S
C1193 C1197 1.385 . S
C1194 H1175 0.951 . S
C1194 C1192 1.388 . S
C1194 C1195 1.366 . S
C1195 C1194 1.366 . S
C1195 C1196 1.414 . S
C1195 C1198 1.499 . S
C1196 H1176 0.950 . S
C1196 C1195 1.414 . S
C1196 C1197 1.374 . S
C1197 H1177 0.950 . S
C1197 C1193 1.385 . S
C1197 C1196 1.374 . S
C1198 C1195 1.499 . S
C1198 C1199 1.373 . S
C1198 C1200 1.389 . S
C1199 H1178 0.950 . S
C1199 C1198 1.373 . S
C1199 C1215 1.377 1_545 S
C1200 C1198 1.389 . S
C1200 C1201 1.524 . S
C1200 C1214 1.377 1_545 S
C1201 C1200 1.524 . S
C1201 C1202 1.397 . S
C1201 C1206 1.363 1_545 S
C1202 H1179 0.950 . S
C1202 C1201 1.397 . S
C1202 C1203 1.334 . S
C1203 H1180 0.950 . S
C1203 C1202 1.334 . S
C1203 C1204 1.287 . S
C1204 C1203 1.287 . S
C1204 C1205 1.524 1_545 S
C1204 H1223 0.913 . S
C1205 H1181 0.950 . S
C1205 C1204 1.524 1_565 S
C1205 C1206 1.415 . S
C1206 H1182 0.950 . S
C1206 C1201 1.363 1_565 S
C1206 C1205 1.415 . S
C1207 H1183 0.951 . S
C1207 C1208 1.366 . S
C1207 C1209 1.388 . S
C1208 C1207 1.366 . S
C1208 C1212 1.385 . S
C1209 H1184 0.951 . S
C1209 C1207 1.388 . S
C1209 C1210 1.366 . S
C1210 C1209 1.366 . S
C1210 C1211 1.414 . S
C1210 C1213 1.499 . S
C1211 H1185 0.950 . S
C1211 C1210 1.414 . S
C1211 C1212 1.374 . S
C1212 H1186 0.950 . S
C1212 C1208 1.385 . S
C1212 C1211 1.374 . S
C1213 C1210 1.499 . S
C1213 C1214 1.373 . S
C1213 C1215 1.389 . S
C1214 H1187 0.950 . S
C1214 C1200 1.377 1_565 S
C1214 C1213 1.373 . S
C1215 C1199 1.377 1_565 S
C1215 C1213 1.389 . S
C1215 C1216 1.524 . S
C1216 C1215 1.524 . S
C1216 C1217 1.397 . S
C1216 C1221 1.363 1_565 S
C1217 H1188 0.950 . S
C1217 C1216 1.397 . S
C1217 C1218 1.334 . S
C1218 H1189 0.950 . S
C1218 C1217 1.334 . S
C1218 C1219 1.287 . S
C1219 C1218 1.287 . S
C1219 C1220 1.524 1_565 S
C1219 H1222 0.999 . S
C1220 H1190 0.950 . S
C1220 C1219 1.524 1_545 S
C1220 C1221 1.415 . S
C1221 H1191 0.950 . S
C1221 C1216 1.363 1_545 S
C1221 C1220 1.415 . S
H1222 C1219 0.999 . S
H1223 C1204 0.913 . S
H1224 C1242 0.951 . S
H1225 C1244 0.951 . S
H1226 C1246 0.950 . S
H1227 C1247 0.950 . S
H1228 C1249 0.950 . S
H1229 C1252 0.950 . S
H1230 C1253 0.950 . S
H1231 C1255 0.950 . S
H1232 C1256 0.950 . S
H1233 C1257 0.951 . S
H1234 C1259 0.951 . S
H1235 C1261 0.950 . S
H1236 C1262 0.950 . S
H1237 C1264 0.950 . S
H1238 C1267 0.950 . S
H1239 C1268 0.950 . S
H1240 C1270 0.950 . S
H1241 C1271 0.950 . S
C1242 H1224 0.951 . S
C1242 C1243 1.366 . S
C1242 C1244 1.388 . S
C1243 C1242 1.366 . S
C1243 C1247 1.385 . S
C1244 H1225 0.951 . S
C1244 C1242 1.388 . S
C1244 C1245 1.366 . S
C1245 C1244 1.366 . S
C1245 C1246 1.414 . S
C1245 C1248 1.499 . S
C1246 H1226 0.950 . S
C1246 C1245 1.414 . S
C1246 C1247 1.374 . S
C1247 H1227 0.950 . S
C1247 C1243 1.385 . S
C1247 C1246 1.374 . S
C1248 C1245 1.499 . S
C1248 C1249 1.373 . S
C1248 C1250 1.389 . S
C1249 H1228 0.950 . S
C1249 C1248 1.373 . S
C1249 C1265 1.377 1_455 S
C1250 C1248 1.389 . S
C1250 C1251 1.524 . S
C1250 C1264 1.377 1_455 S
C1251 C1250 1.524 . S
C1251 C1252 1.397 . S
C1251 C1256 1.363 . S
C1252 H1229 0.950 . S
C1252 C1251 1.397 . S
C1252 C1253 1.334 . S
C1253 H1230 0.950 . S
C1253 C1252 1.334 . S
C1253 C1254 1.287 . S
C1254 C1253 1.287 . S
C1254 C1255 1.524 . S
C1254 H1273 0.913 . S
C1255 H1231 0.950 . S
C1255 C1254 1.524 . S
C1255 C1256 1.415 . S
C1256 H1232 0.950 . S
C1256 C1251 1.363 . S
C1256 C1255 1.415 . S
C1257 H1233 0.951 . S
C1257 C1258 1.366 . S
C1257 C1259 1.388 . S
C1258 C1257 1.366 . S
C1258 C1262 1.385 . S
C1259 H1234 0.951 . S
C1259 C1257 1.388 . S
C1259 C1260 1.366 . S
C1260 C1259 1.366 . S
C1260 C1261 1.414 . S
C1260 C1263 1.499 . S
C1261 H1235 0.950 . S
C1261 C1260 1.414 . S
C1261 C1262 1.374 . S
C1262 H1236 0.950 . S
C1262 C1258 1.385 . S
C1262 C1261 1.374 . S
C1263 C1260 1.499 . S
C1263 C1264 1.373 . S
C1263 C1265 1.389 . S
C1264 H1237 0.950 . S
C1264 C1250 1.377 1_655 S
C1264 C1263 1.373 . S
C1265 C1249 1.377 1_655 S
C1265 C1263 1.389 . S
C1265 C1266 1.524 . S
C1266 C1265 1.524 . S
C1266 C1267 1.397 . S
C1266 C1271 1.363 . S
C1267 H1238 0.950 . S
C1267 C1266 1.397 . S
C1267 C1268 1.334 . S
C1268 H1239 0.950 . S
C1268 C1267 1.334 . S
C1268 C1269 1.287 . S
C1269 C1268 1.287 . S
C1269 C1270 1.524 . S
C1269 H1272 0.999 . S
C1270 H1240 0.950 . S
C1270 C1269 1.524 . S
C1270 C1271 1.415 . S
C1271 H1241 0.950 . S
C1271 C1266 1.363 . S
C1271 C1270 1.415 . S
H1272 C1269 0.999 . S
H1273 C1254 0.913 . S
H1274 C1292 0.951 . S
H1275 C1294 0.951 . S
H1276 C1296 0.950 . S
H1277 C1297 0.950 . S
H1278 C1299 0.950 . S
H1279 C1302 0.950 . S
H1280 C1303 0.950 . S
H1281 C1305 0.950 . S
H1282 C1306 0.950 . S
H1283 C1307 0.951 . S
H1284 C1309 0.951 . S
H1285 C1311 0.950 . S
H1286 C1312 0.950 . S
H1287 C1314 0.950 . S
H1288 C1317 0.950 . S
H1289 C1318 0.950 . S
H1290 C1320 0.950 . S
H1291 C1321 0.950 . S
C1292 H1274 0.951 . S
C1292 C1293 1.366 . S
C1292 C1294 1.388 . S
C1293 C1292 1.366 . S
C1293 C1297 1.385 . S
C1294 H1275 0.951 . S
C1294 C1292 1.388 . S
C1294 C1295 1.366 . S
C1295 C1294 1.366 . S
C1295 C1296 1.414 . S
C1295 C1298 1.499 . S
C1296 H1276 0.950 . S
C1296 C1295 1.414 . S
C1296 C1297 1.374 . S
C1297 H1277 0.950 . S
C1297 C1293 1.385 . S
C1297 C1296 1.374 . S
C1298 C1295 1.499 . S
C1298 C1299 1.373 . S
C1298 C1300 1.389 . S
C1299 H1278 0.950 . S
C1299 C1298 1.373 . S
C1299 C1315 1.377 . S
C1300 C1298 1.389 . S
C1300 C1301 1.524 . S
C1300 C1314 1.377 . S
C1301 C1300 1.524 . S
C1301 C1302 1.397 . S
C1301 C1306 1.363 . S
C1302 H1279 0.950 . S
C1302 C1301 1.397 . S
C1302 C1303 1.334 . S
C1303 H1280 0.950 . S
C1303 C1302 1.334 . S
C1303 C1304 1.287 . S
C1304 C1303 1.287 . S
C1304 C1305 1.524 . S
C1304 H1323 0.913 . S
C1305 H1281 0.950 . S
C1305 C1304 1.524 . S
C1305 C1306 1.415 . S
C1306 H1282 0.950 . S
C1306 C1301 1.363 . S
C1306 C1305 1.415 . S
C1307 H1283 0.951 . S
C1307 C1308 1.366 . S
C1307 C1309 1.388 . S
C1308 C1307 1.366 . S
C1308 C1312 1.385 . S
C1309 H1284 0.951 . S
C1309 C1307 1.388 . S
C1309 C1310 1.366 . S
C1310 C1309 1.366 . S
C1310 C1311 1.414 . S
C1310 C1313 1.499 . S
C1311 H1285 0.950 . S
C1311 C1310 1.414 . S
C1311 C1312 1.374 . S
C1312 H1286 0.950 . S
C1312 C1308 1.385 . S
C1312 C1311 1.374 . S
C1313 C1310 1.499 . S
C1313 C1314 1.373 . S
C1313 C1315 1.389 . S
C1314 H1287 0.950 . S
C1314 C1300 1.377 . S
C1314 C1313 1.373 . S
C1315 C1299 1.377 . S
C1315 C1313 1.389 . S
C1315 C1316 1.524 . S
C1316 C1315 1.524 . S
C1316 C1317 1.397 . S
C1316 C1321 1.363 . S
C1317 H1288 0.950 . S
C1317 C1316 1.397 . S
C1317 C1318 1.334 . S
C1318 H1289 0.950 . S
C1318 C1317 1.334 . S
C1318 C1319 1.287 . S
C1319 C1318 1.287 . S
C1319 C1320 1.524 . S
C1319 H1322 0.999 . S
C1320 H1290 0.950 . S
C1320 C1319 1.524 . S
C1320 C1321 1.415 . S
C1321 H1291 0.950 . S
C1321 C1316 1.363 . S
C1321 C1320 1.415 . S
H1322 C1319 0.999 . S
H1323 C1304 0.913 . S
H1324 C1342 0.951 . S
H1325 C1344 0.951 . S
H1326 C1346 0.950 1_545 S
H1327 C1347 0.950 . S
H1328 C1349 0.950 . S
H1329 C1352 0.950 . S
H1330 C1353 0.950 . S
H1331 C1355 0.950 . S
H1332 C1356 0.950 . S
H1333 C1357 0.951 . S
H1334 C1359 0.951 . S
H1335 C1361 0.950 1_565 S
H1336 C1362 0.950 . S
H1337 C1364 0.950 . S
H1338 C1367 0.950 . S
H1339 C1368 0.950 . S
H1340 C1370 0.950 . S
H1341 C1371 0.950 . S
C1342 H1324 0.951 . S
C1342 C1343 1.366 . S
C1342 C1344 1.388 . S
C1343 C1342 1.366 . S
C1343 C1347 1.385 . S
C1344 H1325 0.951 . S
C1344 C1342 1.388 . S
C1344 C1345 1.366 . S
C1345 C1344 1.366 . S
C1345 C1346 1.414 . S
C1345 C1348 1.499 . S
C1346 H1326 0.950 1_565 S
C1346 C1345 1.414 . S
C1346 C1347 1.374 . S
C1347 H1327 0.950 . S
C1347 C1343 1.385 . S
C1347 C1346 1.374 . S
C1348 C1345 1.499 . S
C1348 C1349 1.373 1_565 S
C1348 C1350 1.389 . S
C1349 H1328 0.950 . S
C1349 C1348 1.373 1_545 S
C1349 C1365 1.377 . S
C1350 C1348 1.389 . S
C1350 C1351 1.524 . S
C1350 C1364 1.377 . S
C1351 C1350 1.524 . S
C1351 C1352 1.397 . S
C1351 C1356 1.363 . S
C1352 H1329 0.950 . S
C1352 C1351 1.397 . S
C1352 C1353 1.334 . S
C1353 H1330 0.950 . S
C1353 C1352 1.334 . S
C1353 C1354 1.287 . S
C1354 C1353 1.287 . S
C1354 C1355 1.524 . S
C1354 H1373 0.913 . S
C1355 H1331 0.950 . S
C1355 C1354 1.524 . S
C1355 C1356 1.415 . S
C1356 H1332 0.950 . S
C1356 C1351 1.363 . S
C1356 C1355 1.415 . S
C1357 H1333 0.951 . S
C1357 C1358 1.366 . S
C1357 C1359 1.388 . S
C1358 C1357 1.366 . S
C1358 C1362 1.385 . S
C1359 H1334 0.951 . S
C1359 C1357 1.388 . S
C1359 C1360 1.366 . S
C1360 C1359 1.366 . S
C1360 C1361 1.414 . S
C1360 C1363 1.499 . S
C1361 H1335 0.950 1_545 S
C1361 C1360 1.414 . S
C1361 C1362 1.374 . S
C1362 H1336 0.950 . S
C1362 C1358 1.385 . S
C1362 C1361 1.374 . S
C1363 C1360 1.499 . S
C1363 C1364 1.373 1_545 S
C1363 C1365 1.389 . S
C1364 H1337 0.950 . S
C1364 C1350 1.377 . S
C1364 C1363 1.373 1_565 S
C1365 C1349 1.377 . S
C1365 C1363 1.389 . S
C1365 C1366 1.524 . S
C1366 C1365 1.524 . S
C1366 C1367 1.397 . S
C1366 C1371 1.363 . S
C1367 H1338 0.950 . S
C1367 C1366 1.397 . S
C1367 C1368 1.334 . S
C1368 H1339 0.950 . S
C1368 C1367 1.334 . S
C1368 C1369 1.287 . S
C1369 C1368 1.287 . S
C1369 C1370 1.524 . S
C1369 H1372 0.999 . S
C1370 H1340 0.950 . S
C1370 C1369 1.524 . S
C1370 C1371 1.415 . S
C1371 H1341 0.950 . S
C1371 C1366 1.363 . S
C1371 C1370 1.415 . S
H1372 C1369 0.999 . S
H1373 C1354 0.913 . S
H1374 C1392 0.951 . S
H1375 C1394 0.951 1_655 S
H1376 C1396 0.950 . S
H1377 C1397 0.950 . S
H1378 C1399 0.950 . S
H1379 C1402 0.950 1_455 S
H1380 C1403 0.950 . S
H1381 C1405 0.950 . S
H1382 C1406 0.950 . S
H1383 C1407 0.951 . S
H1384 C1409 0.951 1_455 S
H1385 C1411 0.950 . S
H1386 C1412 0.950 . S
H1387 C1414 0.950 . S
H1388 C1417 0.950 1_655 S
H1389 C1418 0.950 . S
H1390 C1420 0.950 . S
H1391 C1421 0.950 . S
C1392 H1374 0.951 . S
C1392 C1393 1.366 . S
C1392 C1394 1.388 . S
C1393 C1392 1.366 . S
C1393 C1397 1.385 . S
C1394 H1375 0.951 1_455 S
C1394 C1392 1.388 . S
C1394 C1395 1.366 . S
C1395 C1394 1.366 . S
C1395 C1396 1.414 . S
C1395 C1398 1.499 . S
C1396 H1376 0.950 . S
C1396 C1395 1.414 . S
C1396 C1397 1.374 . S
C1397 H1377 0.950 . S
C1397 C1393 1.385 . S
C1397 C1396 1.374 . S
C1398 C1395 1.499 . S
C1398 C1399 1.373 . S
C1398 C1400 1.389 1_455 S
C1399 H1378 0.950 . S
C1399 C1398 1.373 . S
C1399 C1415 1.377 1_545 S
C1400 C1398 1.389 1_655 S
C1400 C1401 1.524 . S
C1400 C1414 1.377 1_545 S
C1401 C1400 1.524 . S
C1401 C1402 1.397 . S
C1401 C1406 1.363 . S
C1402 H1379 0.950 1_655 S
C1402 C1401 1.397 . S
C1402 C1403 1.334 . S
C1403 H1380 0.950 . S
C1403 C1402 1.334 . S
C1403 C1404 1.287 . S
C1404 C1403 1.287 . S
C1404 C1405 1.524 . S
C1404 H1423 0.913 . S
C1405 H1381 0.950 . S
C1405 C1404 1.524 . S
C1405 C1406 1.415 . S
C1406 H1382 0.950 . S
C1406 C1401 1.363 . S
C1406 C1405 1.415 . S
C1407 H1383 0.951 . S
C1407 C1408 1.366 . S
C1407 C1409 1.388 . S
C1408 C1407 1.366 . S
C1408 C1412 1.385 . S
C1409 H1384 0.951 1_655 S
C1409 C1407 1.388 . S
C1409 C1410 1.366 . S
C1410 C1409 1.366 . S
C1410 C1411 1.414 . S
C1410 C1413 1.499 . S
C1411 H1385 0.950 . S
C1411 C1410 1.414 . S
C1411 C1412 1.374 . S
C1412 H1386 0.950 . S
C1412 C1408 1.385 . S
C1412 C1411 1.374 . S
C1413 C1410 1.499 . S
C1413 C1414 1.373 . S
C1413 C1415 1.389 1_655 S
C1414 H1387 0.950 . S
C1414 C1400 1.377 1_565 S
C1414 C1413 1.373 . S
C1415 C1399 1.377 1_565 S
C1415 C1413 1.389 1_455 S
C1415 C1416 1.524 . S
C1416 C1415 1.524 . S
C1416 C1417 1.397 . S
C1416 C1421 1.363 . S
C1417 H1388 0.950 1_455 S
C1417 C1416 1.397 . S
C1417 C1418 1.334 . S
C1418 H1389 0.950 . S
C1418 C1417 1.334 . S
C1418 C1419 1.287 . S
C1419 C1418 1.287 . S
C1419 C1420 1.524 . S
C1419 H1422 0.999 . S
C1420 H1390 0.950 . S
C1420 C1419 1.524 . S
C1420 C1421 1.415 . S
C1421 H1391 0.950 . S
C1421 C1416 1.363 . S
C1421 C1420 1.415 . S
H1422 C1419 0.999 . S
H1423 C1404 0.913 . S
H1424 C1442 0.951 . S
H1425 C1444 0.951 . S
H1426 C1446 0.950 . S
H1427 C1447 0.950 . S
H1428 C1449 0.950 . S
H1429 C1452 0.950 . S
H1430 C1453 0.950 . S
H1431 C1455 0.950 . S
H1432 C1456 0.950 . S
H1433 C1457 0.951 . S
H1434 C1459 0.951 . S
H1435 C1461 0.950 . S
H1436 C1462 0.950 . S
H1437 C1464 0.950 . S
H1438 C1467 0.950 . S
H1439 C1468 0.950 . S
H1440 C1470 0.950 . S
H1441 C1471 0.950 . S
C1442 H1424 0.951 . S
C1442 C1443 1.366 . S
C1442 C1444 1.388 . S
C1443 C1442 1.366 . S
C1443 C1447 1.385 . S
C1444 H1425 0.951 . S
C1444 C1442 1.388 . S
C1444 C1445 1.366 . S
C1445 C1444 1.366 . S
C1445 C1446 1.414 . S
C1445 C1448 1.499 . S
C1446 H1426 0.950 . S
C1446 C1445 1.414 . S
C1446 C1447 1.374 . S
C1447 H1427 0.950 . S
C1447 C1443 1.385 . S
C1447 C1446 1.374 . S
C1448 C1445 1.499 . S
C1448 C1449 1.373 . S
C1448 C1450 1.389 . S
C1449 H1428 0.950 . S
C1449 C1448 1.373 . S
C1449 C1465 1.377 1_565 S
C1450 C1448 1.389 . S
C1450 C1451 1.524 . S
C1450 C1464 1.377 1_565 S
C1451 C1450 1.524 . S
C1451 C1452 1.397 1_565 S
C1451 C1456 1.363 . S
C1452 H1429 0.950 . S
C1452 C1451 1.397 1_545 S
C1452 C1453 1.334 . S
C1453 H1430 0.950 . S
C1453 C1452 1.334 . S
C1453 C1454 1.287 1_545 S
C1454 C1453 1.287 1_565 S
C1454 C1455 1.524 . S
C1454 H1473 0.913 . S
C1455 H1431 0.950 . S
C1455 C1454 1.524 . S
C1455 C1456 1.415 . S
C1456 H1432 0.950 . S
C1456 C1451 1.363 . S
C1456 C1455 1.415 . S
C1457 H1433 0.951 . S
C1457 C1458 1.366 . S
C1457 C1459 1.388 . S
C1458 C1457 1.366 . S
C1458 C1462 1.385 . S
C1459 H1434 0.951 . S
C1459 C1457 1.388 . S
C1459 C1460 1.366 . S
C1460 C1459 1.366 . S
C1460 C1461 1.414 . S
C1460 C1463 1.499 . S
C1461 H1435 0.950 . S
C1461 C1460 1.414 . S
C1461 C1462 1.374 . S
C1462 H1436 0.950 . S
C1462 C1458 1.385 . S
C1462 C1461 1.374 . S
C1463 C1460 1.499 . S
C1463 C1464 1.373 . S
C1463 C1465 1.389 . S
C1464 H1437 0.950 . S
C1464 C1450 1.377 1_545 S
C1464 C1463 1.373 . S
C1465 C1449 1.377 1_545 S
C1465 C1463 1.389 . S
C1465 C1466 1.524 . S
C1466 C1465 1.524 . S
C1466 C1467 1.397 1_545 S
C1466 C1471 1.363 . S
C1467 H1438 0.950 . S
C1467 C1466 1.397 1_565 S
C1467 C1468 1.334 . S
C1468 H1439 0.950 . S
C1468 C1467 1.334 . S
C1468 C1469 1.287 1_565 S
C1469 C1468 1.287 1_545 S
C1469 C1470 1.524 . S
C1469 H1472 0.999 . S
C1470 H1440 0.950 . S
C1470 C1469 1.524 . S
C1470 C1471 1.415 . S
C1471 H1441 0.950 . S
C1471 C1466 1.363 . S
C1471 C1470 1.415 . S
H1472 C1469 0.999 . S
H1473 C1454 0.913 . S
H1474 C1492 0.951 . S
H1475 C1494 0.951 1_455 S
H1476 C1496 0.950 . S
H1477 C1497 0.950 . S
H1478 C1499 0.950 . S
H1479 C1502 0.950 1_655 S
H1480 C1503 0.950 1_655 S
H1481 C1505 0.950 . S
H1482 C1506 0.950 . S
H1483 C1507 0.951 . S
H1484 C1509 0.951 1_655 S
H1485 C1511 0.950 . S
H1486 C1512 0.950 . S
H1487 C1514 0.950 . S
H1488 C1517 0.950 1_455 S
H1489 C1518 0.950 1_455 S
H1490 C1520 0.950 . S
H1491 C1521 0.950 . S
C1492 H1474 0.951 . S
C1492 C1493 1.366 . S
C1492 C1494 1.388 . S
C1493 C1492 1.366 . S
C1493 C1497 1.385 . S
C1494 H1475 0.951 1_655 S
C1494 C1492 1.388 . S
C1494 C1495 1.366 . S
C1495 C1494 1.366 . S
C1495 C1496 1.414 . S
C1495 C1498 1.499 . S
C1496 H1476 0.950 . S
C1496 C1495 1.414 . S
C1496 C1497 1.374 . S
C1497 H1477 0.950 . S
C1497 C1493 1.385 . S
C1497 C1496 1.374 . S
C1498 C1495 1.499 . S
C1498 C1499 1.373 . S
C1498 C1500 1.389 1_655 S
C1499 H1478 0.950 . S
C1499 C1498 1.373 . S
C1499 C1515 1.377 1_565 S
C1500 C1498 1.389 1_455 S
C1500 C1501 1.524 . S
C1500 C1514 1.377 1_565 S
C1501 C1500 1.524 . S
C1501 C1502 1.397 . S
C1501 C1506 1.363 . S
C1502 H1479 0.950 1_455 S
C1502 C1501 1.397 . S
C1502 C1503 1.334 . S
C1503 H1480 0.950 1_455 S
C1503 C1502 1.334 . S
C1503 C1504 1.287 . S
C1504 C1503 1.287 . S
C1504 C1505 1.524 . S
C1504 H1523 0.913 . S
C1505 H1481 0.950 . S
C1505 C1504 1.524 . S
C1505 C1506 1.415 . S
C1506 H1482 0.950 . S
C1506 C1501 1.363 . S
C1506 C1505 1.415 . S
C1507 H1483 0.951 . S
C1507 C1508 1.366 . S
C1507 C1509 1.388 . S
C1508 C1507 1.366 . S
C1508 C1512 1.385 . S
C1509 H1484 0.951 1_455 S
C1509 C1507 1.388 . S
C1509 C1510 1.366 . S
C1510 C1509 1.366 . S
C1510 C1511 1.414 . S
C1510 C1513 1.499 . S
C1511 H1485 0.950 . S
C1511 C1510 1.414 . S
C1511 C1512 1.374 . S
C1512 H1486 0.950 . S
C1512 C1508 1.385 . S
C1512 C1511 1.374 . S
C1513 C1510 1.499 . S
C1513 C1514 1.373 . S
C1513 C1515 1.389 1_455 S
C1514 H1487 0.950 . S
C1514 C1500 1.377 1_545 S
C1514 C1513 1.373 . S
C1515 C1499 1.377 1_545 S
C1515 C1513 1.389 1_655 S
C1515 C1516 1.524 . S
C1516 C1515 1.524 . S
C1516 C1517 1.397 . S
C1516 C1521 1.363 . S
C1517 H1488 0.950 1_655 S
C1517 C1516 1.397 . S
C1517 C1518 1.334 . S
C1518 H1489 0.950 1_655 S
C1518 C1517 1.334 . S
C1518 C1519 1.287 . S
C1519 C1518 1.287 . S
C1519 C1520 1.524 . S
C1519 H1522 0.999 . S
C1520 H1490 0.950 . S
C1520 C1519 1.524 . S
C1520 C1521 1.415 . S
C1521 H1491 0.950 . S
C1521 C1516 1.363 . S
C1521 C1520 1.415 . S
H1522 C1519 0.999 . S
H1523 C1504 0.913 . S
H1524 C1542 0.951 . S
H1525 C1544 0.951 . S
H1526 C1546 0.950 . S
H1527 C1547 0.950 . S
H1528 C1549 0.950 . S
H1529 C1552 0.950 . S
H1530 C1553 0.950 . S
H1531 C1555 0.950 . S
H1532 C1556 0.950 . S
H1533 C1557 0.951 . S
H1534 C1559 0.951 . S
H1535 C1561 0.950 . S
H1536 C1562 0.950 . S
H1537 C1564 0.950 . S
H1538 C1567 0.950 . S
H1539 C1568 0.950 . S
H1540 C1570 0.950 . S
H1541 C1571 0.950 . S
C1542 H1524 0.951 . S
C1542 C1543 1.366 . S
C1542 C1544 1.388 . S
C1543 C1542 1.366 . S
C1543 C1547 1.385 . S
C1544 H1525 0.951 . S
C1544 C1542 1.388 . S
C1544 C1545 1.366 . S
C1545 C1544 1.366 . S
C1545 C1546 1.414 . S
C1545 C1548 1.499 . S
C1546 H1526 0.950 . S
C1546 C1545 1.414 . S
C1546 C1547 1.374 . S
C1547 H1527 0.950 . S
C1547 C1543 1.385 . S
C1547 C1546 1.374 . S
C1548 C1545 1.499 . S
C1548 C1549 1.373 . S
C1548 C1550 1.389 . S
C1549 H1528 0.950 . S
C1549 C1548 1.373 . S
C1549 C1565 1.377 1_455 S
C1550 C1548 1.389 . S
C1550 C1551 1.524 . S
C1550 C1564 1.377 1_455 S
C1551 C1550 1.524 . S
C1551 C1552 1.397 . S
C1551 C1556 1.363 . S
C1552 H1529 0.950 . S
C1552 C1551 1.397 . S
C1552 C1553 1.334 . S
C1553 H1530 0.950 . S
C1553 C1552 1.334 . S
C1553 C1554 1.287 . S
C1554 C1553 1.287 . S
C1554 C1555 1.524 . S
C1554 H1573 0.913 . S
C1555 H1531 0.950 . S
C1555 C1554 1.524 . S
C1555 C1556 1.415 . S
C1556 H1532 0.950 . S
C1556 C1551 1.363 . S
C1556 C1555 1.415 . S
C1557 H1533 0.951 . S
C1557 C1558 1.366 . S
C1557 C1559 1.388 . S
C1558 C1557 1.366 . S
C1558 C1562 1.385 . S
C1559 H1534 0.951 . S
C1559 C1557 1.388 . S
C1559 C1560 1.366 . S
C1560 C1559 1.366 . S
C1560 C1561 1.414 . S
C1560 C1563 1.499 . S
C1561 H1535 0.950 . S
C1561 C1560 1.414 . S
C1561 C1562 1.374 . S
C1562 H1536 0.950 . S
C1562 C1558 1.385 . S
C1562 C1561 1.374 . S
C1563 C1560 1.499 . S
C1563 C1564 1.373 . S
C1563 C1565 1.389 . S
C1564 H1537 0.950 . S
C1564 C1550 1.377 1_655 S
C1564 C1563 1.373 . S
C1565 C1549 1.377 1_655 S
C1565 C1563 1.389 . S
C1565 C1566 1.524 . S
C1566 C1565 1.524 . S
C1566 C1567 1.397 . S
C1566 C1571 1.363 . S
C1567 H1538 0.950 . S
C1567 C1566 1.397 . S
C1567 C1568 1.334 . S
C1568 H1539 0.950 . S
C1568 C1567 1.334 . S
C1568 C1569 1.287 . S
C1569 C1568 1.287 . S
C1569 C1570 1.524 . S
C1569 H1572 0.999 . S
C1570 H1540 0.950 . S
C1570 C1569 1.524 . S
C1570 C1571 1.415 . S
C1571 H1541 0.950 . S
C1571 C1566 1.363 . S
C1571 C1570 1.415 . S
H1572 C1569 0.999 . S
H1573 C1554 0.913 . S
H1574 C1592 0.951 . S
H1575 C1594 0.951 . S
H1576 C1596 0.950 . S
H1577 C1597 0.950 . S
H1578 C1599 0.950 . S
H1579 C1602 0.950 . S
H1580 C1603 0.950 . S
H1581 C1605 0.950 . S
H1582 C1606 0.950 . S
H1583 C1607 0.951 . S
H1584 C1609 0.951 . S
H1585 C1611 0.950 . S
H1586 C1612 0.950 . S
H1587 C1614 0.950 . S
H1588 C1617 0.950 . S
H1589 C1618 0.950 . S
H1590 C1620 0.950 . S
H1591 C1621 0.950 . S
C1592 H1574 0.951 . S
C1592 C1593 1.366 . S
C1592 C1594 1.388 . S
C1593 C1592 1.366 . S
C1593 C1597 1.385 . S
C1594 H1575 0.951 . S
C1594 C1592 1.388 . S
C1594 C1595 1.366 . S
C1595 C1594 1.366 . S
C1595 C1596 1.414 . S
C1595 C1598 1.499 . S
C1596 H1576 0.950 . S
C1596 C1595 1.414 . S
C1596 C1597 1.374 . S
C1597 H1577 0.950 . S
C1597 C1593 1.385 . S
C1597 C1596 1.374 . S
C1598 C1595 1.499 . S
C1598 C1599 1.373 . S
C1598 C1600 1.389 . S
C1599 H1578 0.950 . S
C1599 C1598 1.373 . S
C1599 C1615 1.377 . S
C1600 C1598 1.389 . S
C1600 C1601 1.524 . S
C1600 C1614 1.377 . S
C1601 C1600 1.524 . S
C1601 C1602 1.397 . S
C1601 C1606 1.363 . S
C1602 H1579 0.950 . S
C1602 C1601 1.397 . S
C1602 C1603 1.334 . S
C1603 H1580 0.950 . S
C1603 C1602 1.334 . S
C1603 C1604 1.287 . S
C1604 C1603 1.287 . S
C1604 C1605 1.524 . S
C1604 H1623 0.913 . S
C1605 H1581 0.950 . S
C1605 C1604 1.524 . S
C1605 C1606 1.415 . S
C1606 H1582 0.950 . S
C1606 C1601 1.363 . S
C1606 C1605 1.415 . S
C1607 H1583 0.951 . S
C1607 C1608 1.366 . S
C1607 C1609 1.388 . S
C1608 C1607 1.366 . S
C1608 C1612 1.385 . S
C1609 H1584 0.951 . S
C1609 C1607 1.388 . S
C1609 C1610 1.366 . S
C1610 C1609 1.366 . S
C1610 C1611 1.414 . S
C1610 C1613 1.499 . S
C1611 H1585 0.950 . S
C1611 C1610 1.414 . S
C1611 C1612 1.374 . S
C1612 H1586 0.950 . S
C1612 C1608 1.385 . S
C1612 C1611 1.374 . S
C1613 C1610 1.499 . S
C1613 C1614 1.373 . S
C1613 C1615 1.389 . S
C1614 H1587 0.950 . S
C1614 C1600 1.377 . S
C1614 C1613 1.373 . S
C1615 C1599 1.377 . S
C1615 C1613 1.389 . S
C1615 C1616 1.524 . S
C1616 C1615 1.524 . S
C1616 C1617 1.397 . S
C1616 C1621 1.363 . S
C1617 H1588 0.950 . S
C1617 C1616 1.397 . S
C1617 C1618 1.334 . S
C1618 H1589 0.950 . S
C1618 C1617 1.334 . S
C1618 C1619 1.287 . S
C1619 C1618 1.287 . S
C1619 C1620 1.524 . S
C1619 H1622 0.999 . S
C1620 H1590 0.950 . S
C1620 C1619 1.524 . S
C1620 C1621 1.415 . S
C1621 H1591 0.950 . S
C1621 C1616 1.363 . S
C1621 C1620 1.415 . S
H1622 C1619 0.999 . S
H1623 C1604 0.913 . S
H1624 C1642 0.951 . S
H1625 C1644 0.951 . S
H1626 C1646 0.950 . S
H1627 C1647 0.950 . S
H1628 C1649 0.950 . S
H1629 C1652 0.950 . S
H1630 C1653 0.950 . S
H1631 C1655 0.950 . S
H1632 C1656 0.950 . S
H1633 C1657 0.951 . S
H1634 C1659 0.951 . S
H1635 C1661 0.950 . S
H1636 C1662 0.950 . S
H1637 C1664 0.950 . S
H1638 C1667 0.950 . S
H1639 C1668 0.950 . S
H1640 C1670 0.950 . S
H1641 C1671 0.950 . S
C1642 H1624 0.951 . S
C1642 C1643 1.366 . S
C1642 C1644 1.388 . S
C1643 C1642 1.366 . S
C1643 C1647 1.385 . S
C1644 H1625 0.951 . S
C1644 C1642 1.388 . S
C1644 C1645 1.366 . S
C1645 C1644 1.366 . S
C1645 C1646 1.414 . S
C1645 C1648 1.499 . S
C1646 H1626 0.950 . S
C1646 C1645 1.414 . S
C1646 C1647 1.374 . S
C1647 H1627 0.950 . S
C1647 C1643 1.385 . S
C1647 C1646 1.374 . S
C1648 C1645 1.499 . S
C1648 C1649 1.373 . S
C1648 C1650 1.389 . S
C1649 H1628 0.950 . S
C1649 C1648 1.373 . S
C1649 C1665 1.377 . S
C1650 C1648 1.389 . S
C1650 C1651 1.524 . S
C1650 C1664 1.377 . S
C1651 C1650 1.524 . S
C1651 C1652 1.397 . S
C1651 C1656 1.363 . S
C1652 H1629 0.950 . S
C1652 C1651 1.397 . S
C1652 C1653 1.334 . S
C1653 H1630 0.950 . S
C1653 C1652 1.334 . S
C1653 C1654 1.287 . S
C1654 C1653 1.287 . S
C1654 C1655 1.524 . S
C1654 H1673 0.913 . S
C1655 H1631 0.950 . S
C1655 C1654 1.524 . S
C1655 C1656 1.415 . S
C1656 H1632 0.950 . S
C1656 C1651 1.363 . S
C1656 C1655 1.415 . S
C1657 H1633 0.951 . S
C1657 C1658 1.366 . S
C1657 C1659 1.388 . S
C1658 C1657 1.366 . S
C1658 C1662 1.385 . S
C1659 H1634 0.951 . S
C1659 C1657 1.388 . S
C1659 C1660 1.366 . S
C1660 C1659 1.366 . S
C1660 C1661 1.414 . S
C1660 C1663 1.499 . S
C1661 H1635 0.950 . S
C1661 C1660 1.414 . S
C1661 C1662 1.374 . S
C1662 H1636 0.950 . S
C1662 C1658 1.385 . S
C1662 C1661 1.374 . S
C1663 C1660 1.499 . S
C1663 C1664 1.373 . S
C1663 C1665 1.389 . S
C1664 H1637 0.950 . S
C1664 C1650 1.377 . S
C1664 C1663 1.373 . S
C1665 C1649 1.377 . S
C1665 C1663 1.389 . S
C1665 C1666 1.524 . S
C1666 C1665 1.524 . S
C1666 C1667 1.397 . S
C1666 C1671 1.363 . S
C1667 H1638 0.950 . S
C1667 C1666 1.397 . S
C1667 C1668 1.334 . S
C1668 H1639 0.950 . S
C1668 C1667 1.334 . S
C1668 C1669 1.287 . S
C1669 C1668 1.287 . S
C1669 C1670 1.524 . S
C1669 H1672 0.999 . S
C1670 H1640 0.950 . S
C1670 C1669 1.524 . S
C1670 C1671 1.415 . S
C1671 H1641 0.950 . S
C1671 C1666 1.363 . S
C1671 C1670 1.415 . S
H1672 C1669 0.999 . S
H1673 C1654 0.913 . S
H1674 C1692 0.951 . S
H1675 C1694 0.951 . S
H1676 C1696 0.950 . S
H1677 C1697 0.950 . S
H1678 C1699 0.950 . S
H1679 C1702 0.950 . S
H1680 C1703 0.950 . S
H1681 C1705 0.950 . S
H1682 C1706 0.950 . S
H1683 C1707 0.951 . S
H1684 C1709 0.951 . S
H1685 C1711 0.950 . S
H1686 C1712 0.950 . S
H1687 C1714 0.950 . S
H1688 C1717 0.950 . S
H1689 C1718 0.950 . S
H1690 C1720 0.950 . S
H1691 C1721 0.950 . S
C1692 H1674 0.951 . S
C1692 C1693 1.366 . S
C1692 C1694 1.388 . S
C1693 C1692 1.366 . S
C1693 C1697 1.385 . S
C1694 H1675 0.951 . S
C1694 C1692 1.388 . S
C1694 C1695 1.366 . S
C1695 C1694 1.366 . S
C1695 C1696 1.414 . S
C1695 C1698 1.499 . S
C1696 H1676 0.950 . S
C1696 C1695 1.414 . S
C1696 C1697 1.374 . S
C1697 H1677 0.950 . S
C1697 C1693 1.385 . S
C1697 C1696 1.374 . S
C1698 C1695 1.499 . S
C1698 C1699 1.373 . S
C1698 C1700 1.389 . S
C1699 H1678 0.950 . S
C1699 C1698 1.373 . S
C1699 C1715 1.377 1_545 S
C1700 C1698 1.389 . S
C1700 C1701 1.524 . S
C1700 C1714 1.377 1_545 S
C1701 C1700 1.524 . S
C1701 C1702 1.397 . S
C1701 C1706 1.363 1_545 S
C1702 H1679 0.950 . S
C1702 C1701 1.397 . S
C1702 C1703 1.334 . S
C1703 H1680 0.950 . S
C1703 C1702 1.334 . S
C1703 C1704 1.287 . S
C1704 C1703 1.287 . S
C1704 C1705 1.524 1_545 S
C1704 H1723 0.913 . S
C1705 H1681 0.950 . S
C1705 C1704 1.524 1_565 S
C1705 C1706 1.415 . S
C1706 H1682 0.950 . S
C1706 C1701 1.363 1_565 S
C1706 C1705 1.415 . S
C1707 H1683 0.951 . S
C1707 C1708 1.366 . S
C1707 C1709 1.388 . S
C1708 C1707 1.366 . S
C1708 C1712 1.385 . S
C1709 H1684 0.951 . S
C1709 C1707 1.388 . S
C1709 C1710 1.366 . S
C1710 C1709 1.366 . S
C1710 C1711 1.414 . S
C1710 C1713 1.499 . S
C1711 H1685 0.950 . S
C1711 C1710 1.414 . S
C1711 C1712 1.374 . S
C1712 H1686 0.950 . S
C1712 C1708 1.385 . S
C1712 C1711 1.374 . S
C1713 C1710 1.499 . S
C1713 C1714 1.373 . S
C1713 C1715 1.389 . S
C1714 H1687 0.950 . S
C1714 C1700 1.377 1_565 S
C1714 C1713 1.373 . S
C1715 C1699 1.377 1_565 S
C1715 C1713 1.389 . S
C1715 C1716 1.524 . S
C1716 C1715 1.524 . S
C1716 C1717 1.397 . S
C1716 C1721 1.363 1_565 S
C1717 H1688 0.950 . S
C1717 C1716 1.397 . S
C1717 C1718 1.334 . S
C1718 H1689 0.950 . S
C1718 C1717 1.334 . S
C1718 C1719 1.287 . S
C1719 C1718 1.287 . S
C1719 C1720 1.524 1_565 S
C1719 H1722 0.999 . S
C1720 H1690 0.950 . S
C1720 C1719 1.524 1_545 S
C1720 C1721 1.415 . S
C1721 H1691 0.950 . S
C1721 C1716 1.363 1_545 S
C1721 C1720 1.415 . S
H1722 C1719 0.999 . S
H1723 C1704 0.913 . S
H1724 C1742 0.951 . S
H1725 C1744 0.951 . S
H1726 C1746 0.950 1_545 S
H1727 C1747 0.950 . S
H1728 C1749 0.950 . S
H1729 C1752 0.950 . S
H1730 C1753 0.950 . S
H1731 C1755 0.950 . S
H1732 C1756 0.950 . S
H1733 C1757 0.951 . S
H1734 C1759 0.951 . S
H1735 C1761 0.950 1_565 S
H1736 C1762 0.950 . S
H1737 C1764 0.950 . S
H1738 C1767 0.950 . S
H1739 C1768 0.950 . S
H1740 C1770 0.950 . S
H1741 C1771 0.950 . S
C1742 H1724 0.951 . S
C1742 C1743 1.366 . S
C1742 C1744 1.388 . S
C1743 C1742 1.366 . S
C1743 C1747 1.385 . S
C1744 H1725 0.951 . S
C1744 C1742 1.388 . S
C1744 C1745 1.366 . S
C1745 C1744 1.366 . S
C1745 C1746 1.414 . S
C1745 C1748 1.499 . S
C1746 H1726 0.950 1_565 S
C1746 C1745 1.414 . S
C1746 C1747 1.374 . S
C1747 H1727 0.950 . S
C1747 C1743 1.385 . S
C1747 C1746 1.374 . S
C1748 C1745 1.499 . S
C1748 C1749 1.373 1_565 S
C1748 C1750 1.389 . S
C1749 H1728 0.950 . S
C1749 C1748 1.373 1_545 S
C1749 C1765 1.377 1_655 S
C1750 C1748 1.389 . S
C1750 C1751 1.524 . S
C1750 C1764 1.377 1_655 S
C1751 C1750 1.524 . S
C1751 C1752 1.397 . S
C1751 C1756 1.363 1_655 S
C1752 H1729 0.950 . S
C1752 C1751 1.397 . S
C1752 C1753 1.334 . S
C1753 H1730 0.950 . S
C1753 C1752 1.334 . S
C1753 C1754 1.287 . S
C1754 C1753 1.287 . S
C1754 C1755 1.524 1_655 S
C1754 H1773 0.913 . S
C1755 H1731 0.950 . S
C1755 C1754 1.524 1_455 S
C1755 C1756 1.415 . S
C1756 H1732 0.950 . S
C1756 C1751 1.363 1_455 S
C1756 C1755 1.415 . S
C1757 H1733 0.951 . S
C1757 C1758 1.366 . S
C1757 C1759 1.388 . S
C1758 C1757 1.366 . S
C1758 C1762 1.385 . S
C1759 H1734 0.951 . S
C1759 C1757 1.388 . S
C1759 C1760 1.366 . S
C1760 C1759 1.366 . S
C1760 C1761 1.414 . S
C1760 C1763 1.499 . S
C1761 H1735 0.950 1_545 S
C1761 C1760 1.414 . S
C1761 C1762 1.374 . S
C1762 H1736 0.950 . S
C1762 C1758 1.385 . S
C1762 C1761 1.374 . S
C1763 C1760 1.499 . S
C1763 C1764 1.373 1_545 S
C1763 C1765 1.389 . S
C1764 H1737 0.950 . S
C1764 C1750 1.377 1_455 S
C1764 C1763 1.373 1_565 S
C1765 C1749 1.377 1_455 S
C1765 C1763 1.389 . S
C1765 C1766 1.524 . S
C1766 C1765 1.524 . S
C1766 C1767 1.397 . S
C1766 C1771 1.363 1_455 S
C1767 H1738 0.950 . S
C1767 C1766 1.397 . S
C1767 C1768 1.334 . S
C1768 H1739 0.950 . S
C1768 C1767 1.334 . S
C1768 C1769 1.287 . S
C1769 C1768 1.287 . S
C1769 C1770 1.524 1_455 S
C1769 H1772 0.999 . S
C1770 H1740 0.950 . S
C1770 C1769 1.524 1_655 S
C1770 C1771 1.415 . S
C1771 H1741 0.950 . S
C1771 C1766 1.363 1_655 S
C1771 C1770 1.415 . S
H1772 C1769 0.999 . S
H1773 C1754 0.913 . S
H1774 C1792 0.951 . S
H1775 C1794 0.951 . S
H1776 C1796 0.950 . S
H1777 C1797 0.950 . S
H1778 C1799 0.950 . S
H1779 C1802 0.950 . S
H1780 C1803 0.950 . S
H1781 C1805 0.950 . S
H1782 C1806 0.950 . S
H1783 C1807 0.951 . S
H1784 C1809 0.951 . S
H1785 C1811 0.950 . S
H1786 C1812 0.950 . S
H1787 C1814 0.950 . S
H1788 C1817 0.950 . S
H1789 C1818 0.950 . S
H1790 C1820 0.950 . S
H1791 C1821 0.950 . S
C1792 H1774 0.951 . S
C1792 C1793 1.366 . S
C1792 C1794 1.388 . S
C1793 C1792 1.366 . S
C1793 C1797 1.385 . S
C1794 H1775 0.951 . S
C1794 C1792 1.388 . S
C1794 C1795 1.366 . S
C1795 C1794 1.366 . S
C1795 C1796 1.414 . S
C1795 C1798 1.499 . S
C1796 H1776 0.950 . S
C1796 C1795 1.414 . S
C1796 C1797 1.374 . S
C1797 H1777 0.950 . S
C1797 C1793 1.385 . S
C1797 C1796 1.374 . S
C1798 C1795 1.499 . S
C1798 C1799 1.373 1_655 S
C1798 C1800 1.389 . S
C1799 H1778 0.950 . S
C1799 C1798 1.373 1_455 S
C1799 C1815 1.377 . S
C1800 C1798 1.389 . S
C1800 C1801 1.524 . S
C1800 C1814 1.377 . S
C1801 C1800 1.524 . S
C1801 C1802 1.397 . S
C1801 C1806 1.363 . S
C1802 H1779 0.950 . S
C1802 C1801 1.397 . S
C1802 C1803 1.334 . S
C1803 H1780 0.950 . S
C1803 C1802 1.334 . S
C1803 C1804 1.287 . S
C1804 C1803 1.287 . S
C1804 C1805 1.524 . S
C1804 H1823 0.913 . S
C1805 H1781 0.950 . S
C1805 C1804 1.524 . S
C1805 C1806 1.415 . S
C1806 H1782 0.950 . S
C1806 C1801 1.363 . S
C1806 C1805 1.415 . S
C1807 H1783 0.951 . S
C1807 C1808 1.366 . S
C1807 C1809 1.388 . S
C1808 C1807 1.366 . S
C1808 C1812 1.385 . S
C1809 H1784 0.951 . S
C1809 C1807 1.388 . S
C1809 C1810 1.366 . S
C1810 C1809 1.366 . S
C1810 C1811 1.414 . S
C1810 C1813 1.499 . S
C1811 H1785 0.950 . S
C1811 C1810 1.414 . S
C1811 C1812 1.374 . S
C1812 H1786 0.950 . S
C1812 C1808 1.385 . S
C1812 C1811 1.374 . S
C1813 C1810 1.499 . S
C1813 C1814 1.373 1_455 S
C1813 C1815 1.389 . S
C1814 H1787 0.950 . S
C1814 C1800 1.377 . S
C1814 C1813 1.373 1_655 S
C1815 C1799 1.377 . S
C1815 C1813 1.389 . S
C1815 C1816 1.524 . S
C1816 C1815 1.524 . S
C1816 C1817 1.397 . S
C1816 C1821 1.363 . S
C1817 H1788 0.950 . S
C1817 C1816 1.397 . S
C1817 C1818 1.334 . S
C1818 H1789 0.950 . S
C1818 C1817 1.334 . S
C1818 C1819 1.287 . S
C1819 C1818 1.287 . S
C1819 C1820 1.524 . S
C1819 H1822 0.999 . S
C1820 H1790 0.950 . S
C1820 C1819 1.524 . S
C1820 C1821 1.415 . S
C1821 H1791 0.950 . S
C1821 C1816 1.363 . S
C1821 C1820 1.415 . S
H1822 C1819 0.999 . S
H1823 C1804 0.913 . S
C243 C63 1.472 . S
C258 C7 1.472 . S
C293 C21 1.471 . S
C308 C77 1.471 . S
C343 C91 1.471 . S
C358 C35 1.471 . S
C393 C105 1.472 . S
C408 C49 1.472 . S
C443 C175 1.471 . S
C458 C119 1.471 . S
C493 C133 1.471 . S
C508 C189 1.471 . S
C543 C203 1.471 . S
C558 C147 1.471 . S
C593 C161 1.471 . S
C608 C217 1.471 . S
C643 C8 1.448 . S
C658 C218 1.448 . S
C693 C22 1.448 . S
C708 C176 1.448 . S
C743 C36 1.448 . S
C758 C190 1.448 . S
C793 C204 1.448 . S
C808 C50 1.448 . S
C843 C64 1.448 . S
C858 C134 1.448 . S
C893 C78 1.448 . S
C908 C148 1.448 . S
C943 C162 1.448 . S
C958 C92 1.448 . S
C993 C120 1.448 . S
C1008 C106 1.448 . S
C1043 C6 1.676 . S
C1058 C146 1.676 . S
C1093 C160 1.676 . S
C1108 C20 1.676 . S
C1143 C34 1.675 . S
C1158 C118 1.675 . S
C1193 C132 1.675 . S
C1208 C48 1.675 . S
C1243 C62 1.676 . S
C1258 C202 1.676 . S
C1293 C76 1.676 . S
C1308 C216 1.676 . S
C1343 C174 1.675 . S
C1358 C90 1.675 . S
C1393 C188 1.675 . S
C1408 C104 1.675 . S
C1443 C149 1.426 . S
C1458 C9 1.425 . S
C1493 C23 1.425 . S
C1508 C163 1.426 . S
C1543 C37 1.425 . S
C1558 C121 1.426 . S
C1593 C135 1.426 . S
C1608 C51 1.426 . S
C1643 C205 1.426 . S
C1658 C65 1.426 . S
C1693 C219 1.426 . S
C1708 C79 1.426 . S
C1743 C177 1.426 . S
C1758 C93 1.426 . S
C1793 C107 1.426 . S
C1808 C191 1.426 . S
