# Generated by pormake.
# Topology uoz, (4)-cn, num edge types: 1
# Building blocks:
#     Node 0, Type 0, BuildingBlock: AZAVOO_clean_sbu_0, # of connection points: 4
#     Node 1, Type 0, BuildingBlock: AZAVOO_clean_sbu_0, # of connection points: 4
#     Node 2, Type 0, BuildingBlock: AZAVOO_clean_sbu_0, # of connection points: 4
#     Node 3, Type 0, BuildingBlock: AZAVOO_clean_sbu_0, # of connection points: 4
#     Node 4, Type 0, BuildingBlock: AZAVOO_clean_sbu_0, # of connection points: 4
#     Node 5, Type 0, BuildingBlock: AZAVOO_clean_sbu_0, # of connection points: 4
#     Node 6, Type 0, BuildingBlock: AZAVOO_clean_sbu_0, # of connection points: 4
#     Node 7, Type 0, BuildingBlock: AZAVOO_clean_sbu_0, # of connection points: 4
#     Node 8, Type 0, BuildingBlock: AZAVOO_clean_sbu_0, # of connection points: 4
#     Node 9, Type 0, BuildingBlock: AZAVOO_clean_sbu_0, # of connection points: 4
#     Node 10, Type 0, BuildingBlock: AZAVOO_clean_sbu_0, # of connection points: 4
#     Node 11, Type 0, BuildingBlock: AZAVOO_clean_sbu_0, # of connection points: 4
#     Node 12, Type 0, BuildingBlock: AZAVOO_clean_sbu_0, # of connection points: 4
#     Node 13, Type 0, BuildingBlock: AZAVOO_clean_sbu_0, # of connection points: 4
#     Node 14, Type 0, BuildingBlock: AZAVOO_clean_sbu_0, # of connection points: 4
#     Node 15, Type 0, BuildingBlock: AZAVOO_clean_sbu_0, # of connection points: 4
#     Edge 16, Type (0, 0), BuildingBlock: AJUNOK_clean_linker_0, # of connection points: 2
#     Edge 17, Type (0, 0), BuildingBlock: AJUNOK_clean_linker_0, # of connection points: 2
#     Edge 18, Type (0, 0), BuildingBlock: AJUNOK_clean_linker_0, # of connection points: 2
#     Edge 19, Type (0, 0), BuildingBlock: AJUNOK_clean_linker_0, # of connection points: 2
#     Edge 20, Type (0, 0), BuildingBlock: AJUNOK_clean_linker_0, # of connection points: 2
#     Edge 21, Type (0, 0), BuildingBlock: AJUNOK_clean_linker_0, # of connection points: 2
#     Edge 22, Type (0, 0), BuildingBlock: AJUNOK_clean_linker_0, # of connection points: 2
#     Edge 23, Type (0, 0), BuildingBlock: AJUNOK_clean_linker_0, # of connection points: 2
#     Edge 24, Type (0, 0), BuildingBlock: AJUNOK_clean_linker_0, # of connection points: 2
#     Edge 25, Type (0, 0), BuildingBlock: AJUNOK_clean_linker_0, # of connection points: 2
#     Edge 26, Type (0, 0), BuildingBlock: AJUNOK_clean_linker_0, # of connection points: 2
#     Edge 27, Type (0, 0), BuildingBlock: AJUNOK_clean_linker_0, # of connection points: 2
#     Edge 28, Type (0, 0), BuildingBlock: AJUNOK_clean_linker_0, # of connection points: 2
#     Edge 29, Type (0, 0), BuildingBlock: AJUNOK_clean_linker_0, # of connection points: 2
#     Edge 30, Type (0, 0), BuildingBlock: AJUNOK_clean_linker_0, # of connection points: 2
#     Edge 31, Type (0, 0), BuildingBlock: AJUNOK_clean_linker_0, # of connection points: 2
#     Edge 32, Type (0, 0), BuildingBlock: AJUNOK_clean_linker_0, # of connection points: 2
#     Edge 33, Type (0, 0), BuildingBlock: AJUNOK_clean_linker_0, # of connection points: 2
#     Edge 34, Type (0, 0), BuildingBlock: AJUNOK_clean_linker_0, # of connection points: 2
#     Edge 35, Type (0, 0), BuildingBlock: AJUNOK_clean_linker_0, # of connection points: 2
#     Edge 36, Type (0, 0), BuildingBlock: AJUNOK_clean_linker_0, # of connection points: 2
#     Edge 37, Type (0, 0), BuildingBlock: AJUNOK_clean_linker_0, # of connection points: 2
#     Edge 38, Type (0, 0), BuildingBlock: AJUNOK_clean_linker_0, # of connection points: 2
#     Edge 39, Type (0, 0), BuildingBlock: AJUNOK_clean_linker_0, # of connection points: 2
#     Edge 40, Type (0, 0), BuildingBlock: AJUNOK_clean_linker_0, # of connection points: 2
#     Edge 41, Type (0, 0), BuildingBlock: AJUNOK_clean_linker_0, # of connection points: 2
#     Edge 42, Type (0, 0), BuildingBlock: AJUNOK_clean_linker_0, # of connection points: 2
#     Edge 43, Type (0, 0), BuildingBlock: AJUNOK_clean_linker_0, # of connection points: 2
#     Edge 44, Type (0, 0), BuildingBlock: AJUNOK_clean_linker_0, # of connection points: 2
#     Edge 45, Type (0, 0), BuildingBlock: AJUNOK_clean_linker_0, # of connection points: 2
#     Edge 46, Type (0, 0), BuildingBlock: AJUNOK_clean_linker_0, # of connection points: 2
#     Edge 47, Type (0, 0), BuildingBlock: AJUNOK_clean_linker_0, # of connection points: 2
# Relax obj value: 0.103
# Max RMSD: 0.100
# Mean RMSD: 0.100
data_MOF--net-uoz--node1-AZAVOO_clean_sbu_0--edge1-AJUNOK_clean_linker_0
_symmetry_space_group_name_H-M    P1
_symmetry_Int_Tables_number       1
_symmetry_cell_setting            triclinic
loop_
_symmetry_equiv_pos_as_xyz
'x, y, z'
_cell_length_a     44.68603
_cell_length_b     44.420916
_cell_length_c     16.795333
_cell_angle_alpha  89.931118
_cell_angle_beta   90.131792
_cell_angle_gamma 90.387397
loop_
_atom_site_label
_atom_site_type_symbol
_atom_site_fract_x
_atom_site_fract_y
_atom_site_fract_z
_atom_type_partial_charge
Mg0 Mg 0.00486 0.5887 0.31403 0.0
O1 O 0.00118 0.55179 0.22032 0.0
O2 O -0.00334 0.57291 0.10023 0.0
Mg3 Mg -0.0032 0.6237 0.11542 0.0
C4 C -0.00176 0.54975 0.14496 0.0
C5 C 0.00016 0.53186 0.41855 0.0
O6 O 0.97575 0.53107 0.37486 0.0
O7 O 0.05355 0.59825 0.27482 0.0
O8 O 0.04517 0.62042 0.15727 0.0
O9 O 0.95445 0.59083 0.32331 0.0
O10 O 0.98147 0.61712 0.23773 0.0
C11 C 0.06302 0.61101 0.21112 0.0
C12 C 0.95559 0.60895 0.26308 0.0
O13 O 0.01853 0.55355 0.40829 0.0
Mg14 Mg 0.66637 0.74512 0.56578 0.0
O15 O 0.7021 0.73642 0.47263 0.0
O16 O 0.68113 0.73423 0.35208 0.0
Mg17 Mg 0.63158 0.74331 0.36616 0.0
C18 C 0.70399 0.73286 0.39751 0.0
C19 C 0.70048 0.73835 0.72604 0.0
O20 O 0.67666 0.72127 0.73617 0.0
O21 O 0.66561 0.79524 0.52828 0.0
O22 O 0.64369 0.79044 0.40908 0.0
O23 O 0.65547 0.69514 0.56994 0.0
O24 O 0.63389 0.72748 0.48933 0.0
C25 C 0.65554 0.80668 0.4635 0.0
C26 C 0.63698 0.70011 0.51204 0.0
O27 O 0.70317 0.75258 0.66057 0.0
Mg28 Mg 0.51816 0.39407 0.82612 0.0
O29 O 0.53281 0.42646 0.72891 0.0
O30 O 0.53675 0.40274 0.61276 0.0
Mg31 Mg 0.52337 0.35385 0.63459 0.0
C32 C 0.53866 0.42657 0.65471 0.0
C33 C 0.50545 0.43212 0.98253 0.0
O34 O 0.50147 0.40497 0.01193 0.0
O35 O 0.46971 0.39556 0.77731 0.0
O36 O 0.47647 0.37 0.664 0.0
O37 O 0.56631 0.37892 0.84314 0.0
O38 O 0.53382 0.35758 0.7615 0.0
C39 C 0.45967 0.38431 0.71213 0.0
C40 C 0.56031 0.35855 0.79032 0.0
O41 O 0.51173 0.43482 0.90895 0.0
Mg42 Mg 0.85398 0.24976 0.06615 0.0
O43 O 0.81985 0.2606 0.96949 0.0
O44 O 0.84247 0.26089 0.85115 0.0
Mg45 Mg 0.89128 0.24901 0.86988 0.0
C46 C 0.81922 0.26409 0.89411 0.0
C47 C 0.81813 0.26178 0.22005 0.0
O48 O 0.84112 0.28023 0.22583 0.0
O49 O 0.85268 0.19942 0.03029 0.0
O50 O 0.87667 0.20285 0.91369 0.0
O51 O 0.8692 0.29902 0.0692 0.0
O52 O 0.88825 0.26384 0.99291 0.0
C53 C 0.86346 0.18733 0.96731 0.0
C54 C 0.88825 0.2913 0.01512 0.0
O55 O 0.81634 0.24488 0.15904 0.0
Mg56 Mg 0.01809 0.4013 0.81256 0.0
O57 O 0.00862 0.43419 0.91287 0.0
O58 O 0.00544 0.4093 0.0281 0.0
Mg59 Mg 0.015 0.36015 0.00369 0.0
C60 C 0.0044 0.43365 0.98798 0.0
C61 C 0.01141 0.43715 0.65836 0.0
O62 O -0.0037 0.41206 0.64645 0.0
O63 O 0.06778 0.39975 0.85163 0.0
O64 O 0.06164 0.37428 0.9656 0.0
O65 O 0.96841 0.38978 0.80516 0.0
O66 O 0.00129 0.36637 0.88052 0.0
C67 C 0.07835 0.38781 0.91525 0.0
C68 C 0.97416 0.36927 0.85765 0.0
O69 O 0.02492 0.44047 0.72459 0.0
Mg70 Mg 0.85341 0.73797 0.06538 0.0
O71 O 0.81947 0.73289 0.16623 0.0
O72 O 0.8438 0.72681 0.28155 0.0
Mg73 Mg 0.89359 0.72938 0.25715 0.0
C74 C 0.81961 0.72879 0.24155 0.0
C75 C 0.79375 0.73292 0.97074 0.0
O76 O 0.79271 0.70944 0.01832 0.0
O77 O 0.86251 0.78714 0.10514 0.0
O78 O 0.88679 0.77785 0.21916 0.0
O79 O 0.85654 0.68728 0.05454 0.0
O80 O 0.88416 0.71502 0.13557 0.0
C81 C 0.87584 0.79617 0.16852 0.0
C82 C 0.87602 0.68884 0.11148 0.0
O83 O 0.81605 0.75083 0.97628 0.0
Mg84 Mg 0.51318 0.57877 0.34124 0.0
O85 O 0.52842 0.54485 0.43324 0.0
O86 O 0.53669 0.56712 0.55 0.0
Mg87 Mg 0.52574 0.61684 0.53347 0.0
C88 C 0.5364 0.54376 0.50594 0.0
C89 C 0.5109 0.53878 0.18663 0.0
O90 O 0.52521 0.56255 0.1592 0.0
O91 O 0.46596 0.58002 0.39761 0.0
O92 O 0.47678 0.60476 0.51012 0.0
O93 O 0.56162 0.59105 0.31605 0.0
O94 O 0.53317 0.61362 0.40489 0.0
C95 C 0.45791 0.5921 0.46345 0.0
C96 C 0.55873 0.61099 0.37157 0.0
O97 O 0.5019 0.53899 0.25847 0.0
Mg98 Mg 0.67111 0.23449 0.56699 0.0
O99 O 0.70467 0.24635 0.66736 0.0
O100 O 0.68098 0.25309 0.78347 0.0
Mg101 Mg 0.63955 0.22437 0.76502 0.0
C102 C 0.70439 0.25508 0.74011 0.0
C103 C 0.72599 0.25695 0.46752 0.0
O104 O 0.7212 0.2801 0.51429 0.0
O105 O 0.67267 0.18283 0.58763 0.0
O106 O 0.67492 0.19424 0.71224 0.0
O107 O 0.65549 0.28245 0.5752 0.0
O108 O 0.6357 0.24524 0.64513 0.0
C109 C 0.66903 0.17474 0.65976 0.0
C110 C 0.63699 0.27358 0.62981 0.0
O111 O 0.70917 0.23387 0.4746 0.0
Mg112 Mg 0.35582 0.24391 0.56904 0.0
O113 O 0.32047 0.23785 0.66552 0.0
O114 O 0.34288 0.2346 0.78444 0.0
Mg115 Mg 0.39283 0.24037 0.76606 0.0
C116 C 0.31944 0.2343 0.7409 0.0
C117 C 0.29933 0.2337 0.46553 0.0
O118 O 0.30105 0.20904 0.50848 0.0
O119 O 0.36149 0.29398 0.60437 0.0
O120 O 0.38422 0.28779 0.72177 0.0
O121 O 0.36119 0.19344 0.56352 0.0
O122 O 0.3864 0.22303 0.64541 0.0
C123 C 0.37333 0.30476 0.66783 0.0
C124 C 0.37936 0.19625 0.6231 0.0
O125 O 0.3191 0.25411 0.47595 0.0
Mg126 Mg 0.17553 0.75584 0.08685 0.0
O127 O 0.21165 0.75827 0.18273 0.0
O128 O 0.19045 0.76199 0.30244 0.0
Mg129 Mg 0.13997 0.76267 0.28493 0.0
C130 C 0.21358 0.76037 0.25829 0.0
C131 C 0.2324 0.76251 0.98588 0.0
O132 O 0.23139 0.78697 0.02962 0.0
O133 O 0.16524 0.70652 0.12294 0.0
O134 O 0.14254 0.71459 0.23953 0.0
O135 O 0.17288 0.80679 0.08042 0.0
O136 O 0.14662 0.77856 0.16305 0.0
C137 C 0.15168 0.69683 0.18522 0.0
C138 C 0.15429 0.80489 0.13909 0.0
O139 O 0.21148 0.74313 0.9939 0.0
Mg140 Mg 0.16866 0.24095 0.06876 0.0
O141 O 0.20368 0.23241 0.97313 0.0
O142 O 0.18063 0.22985 0.85505 0.0
Mg143 Mg 0.13082 0.23581 0.8731 0.0
C144 C 0.20426 0.22909 0.89763 0.0
C145 C 0.20399 0.23643 0.22648 0.0
O146 O 0.18098 0.2183 0.23719 0.0
O147 O 0.16629 0.29044 0.02658 0.0
O148 O 0.14229 0.28363 0.91092 0.0
O149 O 0.15956 0.19093 0.08095 0.0
O150 O 0.1366 0.22066 0.99553 0.0
C151 C 0.15479 0.30078 0.96227 0.0
C152 C 0.14116 0.19399 0.02201 0.0
O153 O 0.20574 0.25085 0.16111 0.0
Mg154 Mg 0.36177 0.73901 0.59419 0.0
O155 O 0.32831 0.74634 0.49331 0.0
O156 O 0.35268 0.74617 0.37749 0.0
Mg157 Mg 0.40166 0.73666 0.40192 0.0
C158 C 0.32864 0.7487 0.41755 0.0
C159 C 0.32743 0.74973 0.7484 0.0
O160 O 0.35292 0.76434 0.75617 0.0
O161 O 0.36336 0.68793 0.56545 0.0
O162 O 0.38816 0.69072 0.44997 0.0
O163 O 0.37351 0.78904 0.59193 0.0
O164 O 0.39633 0.75429 0.52195 0.0
C165 C 0.37509 0.67544 0.50428 0.0
C166 C 0.39364 0.78212 0.53995 0.0
O167 O 0.32322 0.73461 0.68495 0.0
Mg168 Mg 0.50228 0.09079 0.83267 0.0
O169 O 0.49688 0.05511 0.7356 0.0
O170 O 0.49188 0.07799 0.61787 0.0
Mg171 Mg 0.49322 0.12859 0.63746 0.0
C172 C 0.49327 0.05419 0.66019 0.0
C173 C 0.49751 0.03184 0.93169 0.0
O174 O 0.47401 0.03044 0.88462 0.0
O175 O 0.55099 0.09945 0.79069 0.0
O176 O 0.5416 0.12307 0.67547 0.0
O177 O 0.45184 0.09458 0.844 0.0
O178 O 0.47951 0.12095 0.76019 0.0
C179 C 0.55986 0.11274 0.72705 0.0
C180 C 0.45349 0.11352 0.78563 0.0
O181 O 0.51528 0.05423 0.92464 0.0
Mg182 Mg 0.01952 0.90168 0.329 0.0
O183 O 0.02437 0.93675 0.23291 0.0
O184 O 0.0318 0.91651 0.11316 0.0
Mg185 Mg 0.03049 0.86577 0.13281 0.0
C186 C 0.02852 0.93931 0.15833 0.0
C187 C 0.00443 0.93983 0.48765 0.0
O188 O 0.00727 0.91405 0.52522 0.0
O189 O 0.97123 0.89255 0.28469 0.0
O190 O 0.98164 0.87053 0.16839 0.0
O191 O 0.06974 0.89957 0.34268 0.0
O192 O 0.04362 0.87193 0.25781 0.0
C193 C 0.96285 0.88005 0.2195 0.0
C194 C 0.06924 0.88049 0.28457 0.0
O195 O 0.0062 0.94039 0.41209 0.0
Mg196 Mg 0.51386 0.90273 0.33382 0.0
O197 O 0.50324 0.93695 0.43011 0.0
O198 O 0.50249 0.91439 0.54888 0.0
Mg199 Mg 0.51325 0.86497 0.53022 0.0
C200 C 0.4998 0.93777 0.5054 0.0
C201 C 0.50547 0.93807 0.17607 0.0
O202 O 0.48979 0.91331 0.16467 0.0
O203 O 0.56379 0.90333 0.37167 0.0
O204 O 0.55948 0.87883 0.48765 0.0
O205 O 0.46471 0.88799 0.32867 0.0
O206 O 0.49895 0.86803 0.40635 0.0
C207 C 0.5754 0.89193 0.43474 0.0
C208 C 0.47178 0.86848 0.38269 0.0
O209 O 0.51933 0.94114 0.24192 0.0
Mg210 Mg 0.00728 0.0891 0.83308 0.0
O211 O 0.01599 0.05556 0.93217 0.0
O212 O 0.01955 0.0801 0.04821 0.0
Mg213 Mg 0.01323 0.12991 0.02392 0.0
C214 C 0.01984 0.05592 0.00737 0.0
C215 C 0.00737 0.04935 0.68003 0.0
O216 O 0.02361 0.07257 0.65742 0.0
O217 O 0.9582 0.09342 0.87452 0.0
O218 O 0.96535 0.11902 0.98744 0.0
O219 O 0.05707 0.09643 0.82003 0.0
O220 O 0.0284 0.1222 0.90181 0.0
C221 C 0.94806 0.10622 0.93707 0.0
C222 C 0.05478 0.11595 0.87677 0.0
O223 O -0.0038 0.04955 0.74962 0.0
C224 C 0.13182 0.65412 0.26543 0.0
C225 C 0.14047 0.6654 0.19023 0.0
C226 C 0.10917 0.63231 0.27255 0.0
C227 C 0.09454 0.62114 0.20457 0.0
H228 H 0.14006 0.66473 0.31934 0.0
H229 H 0.10066 0.62718 0.33141 0.0
S230 S 0.11635 0.63514 0.9947 0.0
N231 N 0.13828 0.65778 0.04703 0.0
N232 N 0.09588 0.61653 0.06035 0.0
C233 C 0.1068 0.62813 0.1295 0.0
C234 C 0.12986 0.65035 0.12226 0.0
C235 C 0.61965 0.87846 0.5157 0.0
C236 C 0.60795 0.88606 0.44016 0.0
C237 C 0.6405 0.85519 0.52397 0.0
C238 C 0.65047 0.8395 0.45665 0.0
H239 H 0.60906 0.88689 0.56915 0.0
H240 H 0.64502 0.84664 0.5832 0.0
S241 S 0.6382 0.86139 0.24608 0.0
N242 N 0.61612 0.88386 0.29732 0.0
N243 N 0.65602 0.84075 0.31267 0.0
C244 C 0.6447 0.85217 0.38125 0.0
C245 C 0.62323 0.87558 0.3729 0.0
C246 C 0.40985 0.36997 0.7637 0.0
C247 C 0.42713 0.38024 0.69934 0.0
C248 C 0.38703 0.34865 0.75139 0.0
C249 C 0.38111 0.33712 0.67463 0.0
H250 H 0.41693 0.37448 0.82429 0.0
H251 H 0.37726 0.33788 0.80321 0.0
S252 S 0.41106 0.36753 0.48541 0.0
N253 N 0.42982 0.38569 0.55553 0.0
N254 N 0.38723 0.34521 0.53247 0.0
C255 C 0.39342 0.35249 0.60933 0.0
C256 C 0.41651 0.37433 0.62186 0.0
C257 C 0.88201 0.14117 0.03134 0.0
C258 C 0.86906 0.1546 0.96396 0.0
C259 C 0.90515 0.12028 0.02257 0.0
C260 C 0.91567 0.11227 0.94635 0.0
H261 H 0.878 0.15035 0.09007 0.0
H262 H 0.91759 0.11382 0.07528 0.0
S263 S 0.87928 0.13089 0.75442 0.0
N264 N 0.86078 0.15059 0.82135 0.0
N265 N 0.90449 0.11151 0.80465 0.0
C266 C 0.89811 0.12015 0.88027 0.0
C267 C 0.87447 0.1413 0.88933 0.0
C268 C 0.1249 0.36786 0.85924 0.0
C269 C 0.11063 0.38174 0.92369 0.0
C270 C 0.14455 0.3439 0.87257 0.0
C271 C 0.15039 0.3335 0.95049 0.0
H272 H 0.11714 0.3718 0.79898 0.0
H273 H 0.1516 0.33079 0.82165 0.0
S274 S 0.12921 0.372 0.13717 0.0
N275 N 0.11187 0.39092 0.0662 0.0
N276 N 0.14854 0.34559 0.09149 0.0
C277 C 0.14189 0.35188 0.01429 0.0
C278 C 0.12208 0.37639 1.00058 0.0
C279 C 0.92206 0.86363 0.12806 0.0
C280 C 0.93125 0.87092 0.20625 0.0
C281 C 0.89928 0.8424 0.11419 0.0
C282 C 0.88513 0.82792 0.17825 0.0
H283 H 0.93493 0.87154 0.07748 0.0
H284 H 0.89587 0.83438 0.05393 0.0
S285 S 0.89318 0.84724 0.39194 0.0
N286 N 0.91867 0.86824 0.34683 0.0
N287 N 0.8757 0.82846 0.32066 0.0
C288 C 0.89009 0.83935 0.25538 0.0
C289 C 0.9133 0.86092 0.26956 0.0
C290 C 0.39571 0.63 0.56805 0.0
C291 C 0.38095 0.64274 0.50243 0.0
C292 C 0.41792 0.60824 0.55655 0.0
C293 C 0.42593 0.59883 0.47921 0.0
H294 H 0.39367 0.6401 0.62646 0.0
H295 H 0.43172 0.60216 0.60713 0.0
S296 S 0.38452 0.61626 0.29362 0.0
N297 N 0.36867 0.6374 0.36227 0.0
N298 N 0.4105 0.59667 0.34036 0.0
C299 C 0.40667 0.60647 0.41624 0.0
C300 C 0.38401 0.62851 0.42809 0.0
C301 C 0.62838 0.13907 0.61715 0.0
C302 C 0.64602 0.15146 0.67845 0.0
C303 C 0.60178 0.1236 0.6343 0.0
C304 C 0.59187 0.11972 0.71327 0.0
H305 H 0.63385 0.14323 0.55529 0.0
H306 H 0.58779 0.11649 0.58491 0.0
S307 S 0.63346 0.14142 0.89561 0.0
N308 N 0.65455 0.15382 0.82172 0.0
N309 N 0.60423 0.12496 0.85344 0.0
C310 C 0.61101 0.12872 0.77523 0.0
C311 C 0.63817 0.14457 0.75786 0.0
C312 C 0.92272 0.36055 0.91565 0.0
C313 C 0.95112 0.34974 0.89404 0.0
C314 C 0.90235 0.34206 0.95767 0.0
C315 C 0.9098 0.31225 0.97773 0.0
H316 H 0.91652 0.38348 0.90163 0.0
H317 H 0.88059 0.35087 0.97312 0.0
S318 S 0.98127 0.27352 0.93374 0.0
N319 N 0.98536 0.30745 0.89519 0.0
N320 N 0.94757 0.27309 0.97348 0.0
C321 C 0.9381 0.3014 0.95595 0.0
C322 C 0.95863 0.32004 0.91414 0.0
C323 C 0.41218 0.15009 0.79043 0.0
C324 C 0.42705 0.12733 0.74893 0.0
C325 C 0.39451 0.17103 0.74971 0.0
C326 C 0.39136 0.16998 0.66631 0.0
H327 H 0.41614 0.1532 0.85359 0.0
H328 H 0.38433 0.18885 0.78361 0.0
S329 S 0.42068 0.11069 0.5334 0.0
N330 N 0.43348 0.10173 0.62262 0.0
N331 N 0.40063 0.14145 0.5457 0.0
C332 C 0.40345 0.14538 0.62559 0.0
C333 C 0.42139 0.12402 0.6671 0.0
C334 C 0.57828 0.66249 0.38271 0.0
C335 C 0.5828 0.63172 0.39564 0.0
C336 C 0.59654 0.68409 0.41905 0.0
C337 C 0.62 0.67585 0.47069 0.0
H338 H 0.5596 0.67002 0.34668 0.0
H339 H 0.59121 0.70751 0.40892 0.0
S340 S 0.64117 0.5976 0.52307 0.0
N341 N 0.61233 0.59354 0.4621 0.0
N342 N 0.64716 0.63425 0.53098 0.0
C343 C 0.62526 0.64491 0.48262 0.0
C344 C 0.60654 0.6228 0.4449 0.0
C345 C 0.12032 0.84843 0.12858 0.0
C346 C 0.14016 0.83142 0.1749 0.0
C347 C 0.09887 0.86675 0.16479 0.0
C348 C 0.09676 0.86868 0.24823 0.0
H349 H 0.11965 0.84559 0.06453 0.0
H350 H 0.08289 0.87821 0.12725 0.0
S351 S 0.14784 0.83353 0.39454 0.0
N352 N 0.15973 0.82144 0.30723 0.0
N353 N 0.11923 0.8558 0.37539 0.0
C354 C 0.11861 0.85444 0.2946 0.0
C355 C 0.14033 0.83566 0.25777 0.0
C356 C 0.91069 0.64102 0.27115 0.0
C357 C 0.92856 0.62159 0.22626 0.0
C358 C 0.89109 0.66099 0.23339 0.0
C359 C 0.88873 0.66198 0.14985 0.0
H360 H 0.91372 0.64263 0.33504 0.0
H361 H 0.87903 0.67691 0.26965 0.0
S362 S 0.92569 0.61078 0.00762 0.0
N363 N 0.93881 0.6007 0.09567 0.0
N364 N 0.90211 0.63853 0.02458 0.0
C365 C 0.90386 0.64029 0.10521 0.0
C366 C 0.92392 0.62005 0.1436 0.0
C367 C 0.08212 0.13415 0.99742 0.0
C368 C 0.08122 0.1302 0.91427 0.0
C369 C 0.10362 0.15289 0.03327 0.0
C370 C 0.1248 0.16834 0.98697 0.0
H371 H 0.06558 0.12348 0.035 0.0
H372 H 0.10236 0.15687 0.09682 0.0
S373 S 0.1356 0.16112 0.76908 0.0
N374 N 0.10595 0.1399 0.78816 0.0
N375 N 0.14649 0.17503 0.85568 0.0
C376 C 0.12583 0.16247 0.90483 0.0
C377 C 0.10405 0.14325 0.86838 0.0
C378 C 0.62685 0.32578 0.68159 0.0
C379 C 0.61883 0.29507 0.67656 0.0
C380 C 0.60896 0.34637 0.72355 0.0
C381 C 0.58239 0.33684 0.76068 0.0
H382 H 0.64682 0.33403 0.65214 0.0
H383 H 0.61517 0.36999 0.72373 0.0
S384 S 0.55179 0.25913 0.76742 0.0
N385 N 0.58283 0.25632 0.71502 0.0
N386 N 0.54934 0.29498 0.7921 0.0
C387 C 0.57457 0.30623 0.75767 0.0
C388 C 0.59278 0.28533 0.71612 0.0
C389 C 0.40302 0.83406 0.48285 0.0
C390 C 0.41292 0.80466 0.49968 0.0
C391 C 0.42148 0.8547 0.44153 0.0
C392 C 0.45049 0.84659 0.41752 0.0
H393 H 0.38087 0.841 0.50095 0.0
H394 H 0.41341 0.87726 0.43042 0.0
S395 S 0.48686 0.77256 0.44745 0.0
N396 N 0.4536 0.76877 0.48879 0.0
N397 N 0.48792 0.80723 0.41235 0.0
C398 C 0.4604 0.81729 0.43387 0.0
C399 C 0.44173 0.79641 0.47471 0.0
C400 C -0.00184 0.51741 0.0238 0.0
C401 C -0.00248 0.51965 0.10732 0.0
C402 C -0.00056 0.4895 0.98603 0.0
C403 C 8e-05 0.46255 0.03006 0.0
H404 H -0.00166 0.5374 0.98679 0.0
H405 H 0.00057 0.48922 0.92161 0.0
S406 S -0.00391 0.45578 0.25046 0.0
N407 N -0.00436 0.49233 0.23312 0.0
N408 N -0.00202 0.43975 0.16208 0.0
C409 C -0.00176 0.46432 0.11368 0.0
C410 C -0.00299 0.49286 0.15227 0.0
C411 C 0.7639 0.72524 0.24004 0.0
C412 C 0.79066 0.72735 0.28397 0.0
C413 C 0.73609 0.726 0.27764 0.0
C414 C 0.73381 0.72901 0.36082 0.0
H415 H 0.76431 0.72344 0.17573 0.0
H416 H 0.71624 0.72488 0.2406 0.0
S417 S 0.7972 0.73361 0.5041 0.0
N418 N 0.8132 0.73118 0.41594 0.0
N419 N 0.76087 0.73259 0.48667 0.0
C420 C 0.7604 0.73008 0.40597 0.0
C421 C 0.78881 0.72926 0.36757 0.0
C422 C 0.5431 0.51091 0.62527 0.0
C423 C 0.54266 0.51399 0.54197 0.0
C424 C 0.54379 0.48252 0.66115 0.0
C425 C 0.5441 0.456 0.61526 0.0
H426 H 0.54136 0.53046 0.66342 0.0
H427 H 0.54262 0.48148 0.72551 0.0
S428 S 0.54906 0.452 0.39468 0.0
N429 N 0.54696 0.4883 0.41444 0.0
N430 N 0.54818 0.43488 0.4819 0.0
C431 C 0.54626 0.45883 0.53193 0.0
C432 C 0.54553 0.48782 0.49531 0.0
C433 C 0.7877 0.26349 0.77147 0.0
C434 C 0.79002 0.26835 0.85403 0.0
C435 C 0.75983 0.26137 0.73408 0.0
C436 C 0.73312 0.26402 0.77771 0.0
H437 H 0.80745 0.25955 0.73579 0.0
H438 H 0.75936 0.25595 0.67121 0.0
S439 S 0.72718 0.28387 0.99198 0.0
N440 N 0.76345 0.28087 0.97585 0.0
N441 N 0.71092 0.27692 0.90555 0.0
C442 C 0.73517 0.27189 0.85881 0.0
C443 C 0.76365 0.27401 0.89698 0.0
C444 C 0.25989 0.23335 0.90042 0.0
C445 C 0.23355 0.22698 0.85746 0.0
C446 C 0.28759 0.23501 0.86239 0.0
C447 C 0.29008 0.23041 0.77984 0.0
H448 H 0.25912 0.23807 0.96365 0.0
H449 H 0.30706 0.2408 0.8979 0.0
S450 S 0.22846 0.20931 0.64159 0.0
N451 N 0.21208 0.21327 0.72885 0.0
N452 N 0.26423 0.21657 0.65734 0.0
C453 C 0.26415 0.22268 0.73662 0.0
C454 C 0.23589 0.22088 0.77544 0.0
C455 C 0.2732 0.75551 0.41851 0.0
C456 C 0.29998 0.7536 0.37496 0.0
C457 C 0.24558 0.75841 0.38024 0.0
C458 C 0.24347 0.75948 0.29667 0.0
H459 H 0.27337 0.75429 0.48293 0.0
H460 H 0.22569 0.75924 0.41688 0.0
S461 S 0.3071 0.75739 0.15464 0.0
N462 N 0.32279 0.75453 0.24327 0.0
N463 N 0.27084 0.75992 0.17135 0.0
C464 C 0.27014 0.75849 0.2522 0.0
C465 C 0.29836 0.75558 0.29129 0.0
C466 C 0.49999 0.97021 0.62659 0.0
C467 C 0.4948 0.96716 0.54432 0.0
C468 C 0.49859 -0.00172 0.66379 0.0
C469 C 0.49191 0.0245 0.6203 0.0
H470 H 0.50617 0.95093 0.66244 0.0
H471 H 0.50365 -0.00056 0.72684 0.0
S472 S 0.47265 0.02814 0.40505 0.0
N473 N 0.48 -0.00768 0.42166 0.0
N474 N 0.47727 0.04515 0.49153 0.0
C475 C 0.4852 0.02157 0.53863 0.0
C476 C 0.48668 -0.00707 0.50068 0.0
C477 C 0.03758 0.00296 0.01023 0.0
C478 C 0.02343 0.02704 0.04875 0.0
C479 C 0.03973 0.97476 0.04677 0.0
C480 C 0.02762 0.96967 0.12284 0.0
H481 H 0.04698 0.00591 0.95129 0.0
H482 H 0.05074 0.95679 0.01488 0.0
S483 S 0.9861 0.02503 0.24547 0.0
N484 N -0.00393 0.0439 0.16506 0.0
N485 N -0.0003 0.99088 0.23386 0.0
C486 C 0.01334 -0.00632 0.16189 0.0
C487 C 0.01135 0.02239 0.12479 0.0
C488 C -0.00902 0.45843 0.53184 0.0
C489 C 0.01067 0.4614 0.59697 0.0
C490 C 0.98825 0.48114 0.47449 0.0
C491 C 0.00529 0.50783 0.47883 0.0
H492 H 0.977 0.43857 0.52543 0.0
H493 H 0.97238 0.47768 0.42645 0.0
S494 S 0.06119 0.52654 0.63535 0.0
N495 N 0.04825 0.49302 0.66127 0.0
N496 N 0.04334 0.53565 0.55261 0.0
C497 C 0.02569 0.51093 0.54244 0.0
C498 C 0.02828 0.48778 0.60167 0.0
C499 C 0.74319 0.72006 0.91605 0.0
C500 C 0.76984 0.73696 0.90962 0.0
C501 C 0.7209 0.72129 0.85736 0.0
C502 C 0.72417 0.73934 0.78888 0.0
H503 H 0.73952 0.70538 0.9667 0.0
H504 H 0.70109 0.70745 0.8655 0.0
S505 S 0.78931 0.78885 0.7438 0.0
N506 N 0.7979 0.77314 0.82998 0.0
N507 N 0.75605 0.7753 0.71919 0.0
C508 C 0.75045 0.75691 0.78219 0.0
C509 C 0.7732 0.75579 0.84258 0.0
C510 C 0.51466 0.51307 0.05409 0.0
C511 C 0.50723 0.51155 0.13548 0.0
C512 C 0.51333 0.48752 0.00506 0.0
C513 C 0.50467 0.45917 0.03518 0.0
H514 H 0.52194 0.53415 0.02782 0.0
H515 H 0.51972 0.49002 0.94322 0.0
S516 S 0.48174 0.44306 0.24367 0.0
N517 N 0.48991 0.47935 0.2435 0.0
N518 N 0.48749 0.43141 0.15172 0.0
C519 C 0.49654 0.45741 0.11618 0.0
C520 C 0.49777 0.48352 0.16611 0.0
C521 C 0.77306 0.23782 0.28503 0.0
C522 C 0.79492 0.26083 0.28381 0.0
C523 C 0.75116 0.23647 0.34501 0.0
C524 C 0.74998 0.25823 0.40592 0.0
H525 H 0.77289 0.22058 0.23948 0.0
H526 H 0.73483 0.21835 0.34299 0.0
S527 S 0.80205 0.32317 0.43034 0.0
N528 N 0.81394 0.3059 0.34959 0.0
N529 N 0.77296 0.3034 0.46141 0.0
C530 C 0.77173 0.28133 0.40543 0.0
C531 C 0.79411 0.28262 0.34474 0.0
C532 C 0.2502 0.2169 0.40943 0.0
C533 C 0.27487 0.23672 0.40568 0.0
C534 C 0.22734 0.2176 0.35234 0.0
C535 C 0.2281 0.23795 0.288 0.0
H536 H 0.24852 0.2004 0.45676 0.0
H537 H 0.20915 0.20152 0.35825 0.0
S538 S 0.28727 0.29543 0.25148 0.0
N539 N 0.29828 0.27806 0.33336 0.0
N540 N 0.2554 0.27917 0.22522 0.0
C541 C 0.25238 0.25833 0.28397 0.0
C542 C 0.27567 0.25779 0.34294 0.0
C543 C 0.27792 0.73399 0.80883 0.0
C544 C 0.30382 0.75229 0.81088 0.0
C545 C 0.25519 0.73686 0.86636 0.0
C546 C 0.25725 0.75842 0.92766 0.0
H547 H 0.27509 0.71735 0.76229 0.0
H548 H 0.23562 0.72244 0.86179 0.0
S549 S 0.32072 0.81149 0.96118 0.0
N550 N 0.33031 0.79232 0.8813 0.0
N551 N 0.28777 0.79795 0.98762 0.0
C552 C 0.28317 0.77663 0.93075 0.0
C553 C 0.30637 0.77351 0.87296 0.0
C554 C 0.48706 0.9587 0.04629 0.0
C555 C 0.50551 0.96213 0.11383 0.0
C556 C 0.48523 0.98109 0.9877 0.0
C557 C 0.50192 0.00801 0.99321 0.0
H558 H 0.47341 0.93866 0.03875 0.0
H559 H 0.47033 0.97723 0.93774 0.0
S560 S 0.55457 0.02804 0.15645 0.0
N561 N 0.54151 -0.0055 0.18178 0.0
N562 N 0.53823 0.03655 0.07111 0.0
C563 C 0.52105 0.01159 0.05942 0.0
C564 C 0.52277 0.98873 0.11977 0.0
C565 C -0.00628 -0.00517 0.65921 0.0
C566 C 0.00436 0.02234 0.62789 0.0
C567 C -0.00682 0.96843 0.61307 0.0
C568 C 0.00283 0.96851 0.53333 0.0
H569 H 0.98651 -0.0066 0.72063 0.0
H570 H 0.98546 0.94772 0.64049 0.0
S571 S 0.0321 0.03475 0.42203 0.0
N572 N 0.02418 0.04802 0.51115 0.0
N573 N 0.02301 -0.0013 0.42475 0.0
C574 C 0.01275 -0.00397 0.50058 0.0
C575 C 0.01356 0.02282 0.54773 0.0
loop_
_geom_bond_atom_site_label_1
_geom_bond_atom_site_label_2
_geom_bond_distance
_geom_bond_site_symmetry_2
_ccdc_geom_bond_type
Mg0 O1 2.028 . S
Mg0 O7 1.986 . S
Mg0 O9 2.114 1_455 S
Mg0 O10 2.251 1_455 S
Mg0 O13 2.010 . S
O1 Mg0 2.028 . S
O1 C4 1.250 . S
O2 Mg3 2.028 . S
O2 C4 1.248 . S
Mg3 O2 2.028 . S
Mg3 O8 2.032 . S
Mg3 O10 2.079 1_455 S
C4 O1 1.250 . S
C4 O2 1.248 . S
C5 O6 1.264 . S
C5 O13 1.249 . S
O6 C5 1.264 . S
O7 Mg0 1.986 . S
O7 C11 1.246 . S
O8 Mg3 2.032 . S
O8 C11 1.259 . S
O9 Mg0 2.114 1_655 S
O9 C12 1.252 . S
O10 Mg0 2.251 1_655 S
O10 Mg3 2.079 1_655 S
O10 C12 1.273 . S
C11 O7 1.246 . S
C11 O8 1.259 . S
C12 O9 1.252 . S
C12 O10 1.273 . S
O13 Mg0 2.010 . S
O13 C5 1.249 . S
Mg14 O15 2.028 . S
Mg14 O21 1.986 . S
Mg14 O23 2.114 . S
Mg14 O24 2.251 . S
Mg14 O27 2.010 . S
O15 Mg14 2.028 . S
O15 C18 1.250 . S
O16 Mg17 2.028 . S
O16 C18 1.248 . S
Mg17 O16 2.028 . S
Mg17 O22 2.032 . S
Mg17 O24 2.079 . S
C18 O15 1.250 . S
C18 O16 1.248 . S
C19 O20 1.264 . S
C19 O27 1.249 . S
O20 C19 1.264 . S
O21 Mg14 1.986 . S
O21 C25 1.246 . S
O22 Mg17 2.032 . S
O22 C25 1.259 . S
O23 Mg14 2.114 . S
O23 C26 1.252 . S
O24 Mg14 2.251 . S
O24 Mg17 2.079 . S
O24 C26 1.273 . S
C25 O21 1.246 . S
C25 O22 1.259 . S
C26 O23 1.252 . S
C26 O24 1.273 . S
O27 Mg14 2.010 . S
O27 C19 1.249 . S
Mg28 O29 2.028 . S
Mg28 O35 1.986 . S
Mg28 O37 2.114 . S
Mg28 O38 2.251 . S
Mg28 O41 2.010 . S
O29 Mg28 2.028 . S
O29 C32 1.250 . S
O30 Mg31 2.028 . S
O30 C32 1.248 . S
Mg31 O30 2.028 . S
Mg31 O36 2.032 . S
Mg31 O38 2.079 . S
C32 O29 1.250 . S
C32 O30 1.248 . S
C33 O34 1.264 1_556 S
C33 O41 1.249 . S
O34 C33 1.264 1_554 S
O35 Mg28 1.986 . S
O35 C39 1.246 . S
O36 Mg31 2.032 . S
O36 C39 1.259 . S
O37 Mg28 2.114 . S
O37 C40 1.252 . S
O38 Mg28 2.251 . S
O38 Mg31 2.079 . S
O38 C40 1.273 . S
C39 O35 1.246 . S
C39 O36 1.259 . S
C40 O37 1.252 . S
C40 O38 1.273 . S
O41 Mg28 2.010 . S
O41 C33 1.249 . S
Mg42 O43 2.028 1_554 S
Mg42 O49 1.986 . S
Mg42 O51 2.114 . S
Mg42 O52 2.251 1_554 S
Mg42 O55 2.010 . S
O43 Mg42 2.028 1_556 S
O43 C46 1.250 . S
O44 Mg45 2.028 . S
O44 C46 1.248 . S
Mg45 O44 2.028 . S
Mg45 O50 2.032 . S
Mg45 O52 2.079 . S
C46 O43 1.250 . S
C46 O44 1.248 . S
C47 O48 1.264 . S
C47 O55 1.249 . S
O48 C47 1.264 . S
O49 Mg42 1.986 . S
O49 C53 1.246 1_554 S
O50 Mg45 2.032 . S
O50 C53 1.259 . S
O51 Mg42 2.114 . S
O51 C54 1.252 1_554 S
O52 Mg42 2.251 1_556 S
O52 Mg45 2.079 . S
O52 C54 1.273 . S
C53 O49 1.246 1_556 S
C53 O50 1.259 . S
C54 O51 1.252 1_556 S
C54 O52 1.273 . S
O55 Mg42 2.010 . S
O55 C47 1.249 . S
Mg56 O57 2.028 . S
Mg56 O63 1.986 . S
Mg56 O65 2.114 1_455 S
Mg56 O66 2.251 1_455 S
Mg56 O69 2.010 . S
O57 Mg56 2.028 . S
O57 C60 1.250 . S
O58 Mg59 2.028 . S
O58 C60 1.248 1_554 S
Mg59 O58 2.028 . S
Mg59 O64 2.032 1_554 S
Mg59 O66 2.079 1_454 S
C60 O57 1.250 . S
C60 O58 1.248 1_556 S
C61 O62 1.264 . S
C61 O69 1.249 . S
O62 C61 1.264 . S
O63 Mg56 1.986 . S
O63 C67 1.246 . S
O64 Mg59 2.032 1_556 S
O64 C67 1.259 . S
O65 Mg56 2.114 1_655 S
O65 C68 1.252 . S
O66 Mg56 2.251 1_655 S
O66 Mg59 2.079 1_656 S
O66 C68 1.273 . S
C67 O63 1.246 . S
C67 O64 1.259 . S
C68 O65 1.252 . S
C68 O66 1.273 . S
O69 Mg56 2.010 . S
O69 C61 1.249 . S
Mg70 O71 2.028 . S
Mg70 O77 1.986 . S
Mg70 O79 2.114 . S
Mg70 O80 2.251 . S
Mg70 O83 2.010 1_554 S
O71 Mg70 2.028 . S
O71 C74 1.250 . S
O72 Mg73 2.028 . S
O72 C74 1.248 . S
Mg73 O72 2.028 . S
Mg73 O78 2.032 . S
Mg73 O80 2.079 . S
C74 O71 1.250 . S
C74 O72 1.248 . S
C75 O76 1.264 . S
C75 O83 1.249 . S
O76 C75 1.264 . S
O77 Mg70 1.986 . S
O77 C81 1.246 . S
O78 Mg73 2.032 . S
O78 C81 1.259 . S
O79 Mg70 2.114 . S
O79 C82 1.252 . S
O80 Mg70 2.251 . S
O80 Mg73 2.079 . S
O80 C82 1.273 . S
C81 O77 1.246 . S
C81 O78 1.259 . S
C82 O79 1.252 . S
C82 O80 1.273 . S
O83 Mg70 2.010 1_556 S
O83 C75 1.249 . S
Mg84 O85 2.028 . S
Mg84 O91 1.986 . S
Mg84 O93 2.114 . S
Mg84 O94 2.251 . S
Mg84 O97 2.010 . S
O85 Mg84 2.028 . S
O85 C88 1.250 . S
O86 Mg87 2.028 . S
O86 C88 1.248 . S
Mg87 O86 2.028 . S
Mg87 O92 2.032 . S
Mg87 O94 2.079 . S
C88 O85 1.250 . S
C88 O86 1.248 . S
C89 O90 1.264 . S
C89 O97 1.249 . S
O90 C89 1.264 . S
O91 Mg84 1.986 . S
O91 C95 1.246 . S
O92 Mg87 2.032 . S
O92 C95 1.259 . S
O93 Mg84 2.114 . S
O93 C96 1.252 . S
O94 Mg84 2.251 . S
O94 Mg87 2.079 . S
O94 C96 1.273 . S
C95 O91 1.246 . S
C95 O92 1.259 . S
C96 O93 1.252 . S
C96 O94 1.273 . S
O97 Mg84 2.010 . S
O97 C89 1.249 . S
Mg98 O99 2.028 . S
Mg98 O105 1.986 . S
Mg98 O107 2.114 . S
Mg98 O108 2.251 . S
Mg98 O111 2.010 . S
O99 Mg98 2.028 . S
O99 C102 1.250 . S
O100 Mg101 2.028 . S
O100 C102 1.248 . S
Mg101 O100 2.028 . S
Mg101 O106 2.032 . S
Mg101 O108 2.079 . S
C102 O99 1.250 . S
C102 O100 1.248 . S
C103 O104 1.264 . S
C103 O111 1.249 . S
O104 C103 1.264 . S
O105 Mg98 1.986 . S
O105 C109 1.246 . S
O106 Mg101 2.032 . S
O106 C109 1.259 . S
O107 Mg98 2.114 . S
O107 C110 1.252 . S
O108 Mg98 2.251 . S
O108 Mg101 2.079 . S
O108 C110 1.273 . S
C109 O105 1.246 . S
C109 O106 1.259 . S
C110 O107 1.252 . S
C110 O108 1.273 . S
O111 Mg98 2.010 . S
O111 C103 1.249 . S
Mg112 O113 2.028 . S
Mg112 O119 1.986 . S
Mg112 O121 2.114 . S
Mg112 O122 2.251 . S
Mg112 O125 2.010 . S
O113 Mg112 2.028 . S
O113 C116 1.250 . S
O114 Mg115 2.028 . S
O114 C116 1.248 . S
Mg115 O114 2.028 . S
Mg115 O120 2.032 . S
Mg115 O122 2.079 . S
C116 O113 1.250 . S
C116 O114 1.248 . S
C117 O118 1.264 . S
C117 O125 1.249 . S
O118 C117 1.264 . S
O119 Mg112 1.986 . S
O119 C123 1.246 . S
O120 Mg115 2.032 . S
O120 C123 1.259 . S
O121 Mg112 2.114 . S
O121 C124 1.252 . S
O122 Mg112 2.251 . S
O122 Mg115 2.079 . S
O122 C124 1.273 . S
C123 O119 1.246 . S
C123 O120 1.259 . S
C124 O121 1.252 . S
C124 O122 1.273 . S
O125 Mg112 2.010 . S
O125 C117 1.249 . S
Mg126 O127 2.028 . S
Mg126 O133 1.986 . S
Mg126 O135 2.114 . S
Mg126 O136 2.251 . S
Mg126 O139 2.010 1_554 S
O127 Mg126 2.028 . S
O127 C130 1.250 . S
O128 Mg129 2.028 . S
O128 C130 1.248 . S
Mg129 O128 2.028 . S
Mg129 O134 2.032 . S
Mg129 O136 2.079 . S
C130 O127 1.250 . S
C130 O128 1.248 . S
C131 O132 1.264 . S
C131 O139 1.249 . S
O132 C131 1.264 . S
O133 Mg126 1.986 . S
O133 C137 1.246 . S
O134 Mg129 2.032 . S
O134 C137 1.259 . S
O135 Mg126 2.114 . S
O135 C138 1.252 . S
O136 Mg126 2.251 . S
O136 Mg129 2.079 . S
O136 C138 1.273 . S
C137 O133 1.246 . S
C137 O134 1.259 . S
C138 O135 1.252 . S
C138 O136 1.273 . S
O139 Mg126 2.010 1_556 S
O139 C131 1.249 . S
Mg140 O141 2.028 1_554 S
Mg140 O147 1.986 . S
Mg140 O149 2.114 . S
Mg140 O150 2.251 1_554 S
Mg140 O153 2.010 . S
O141 Mg140 2.028 1_556 S
O141 C144 1.250 . S
O142 Mg143 2.028 . S
O142 C144 1.248 . S
Mg143 O142 2.028 . S
Mg143 O148 2.032 . S
Mg143 O150 2.079 . S
C144 O141 1.250 . S
C144 O142 1.248 . S
C145 O146 1.264 . S
C145 O153 1.249 . S
O146 C145 1.264 . S
O147 Mg140 1.986 . S
O147 C151 1.246 1_554 S
O148 Mg143 2.032 . S
O148 C151 1.259 . S
O149 Mg140 2.114 . S
O149 C152 1.252 1_554 S
O150 Mg140 2.251 1_556 S
O150 Mg143 2.079 . S
O150 C152 1.273 . S
C151 O147 1.246 1_556 S
C151 O148 1.259 . S
C152 O149 1.252 1_556 S
C152 O150 1.273 . S
O153 Mg140 2.010 . S
O153 C145 1.249 . S
Mg154 O155 2.028 . S
Mg154 O161 1.986 . S
Mg154 O163 2.114 . S
Mg154 O164 2.251 . S
Mg154 O167 2.010 . S
O155 Mg154 2.028 . S
O155 C158 1.250 . S
O156 Mg157 2.028 . S
O156 C158 1.248 . S
Mg157 O156 2.028 . S
Mg157 O162 2.032 . S
Mg157 O164 2.079 . S
C158 O155 1.250 . S
C158 O156 1.248 . S
C159 O160 1.264 . S
C159 O167 1.249 . S
O160 C159 1.264 . S
O161 Mg154 1.986 . S
O161 C165 1.246 . S
O162 Mg157 2.032 . S
O162 C165 1.259 . S
O163 Mg154 2.114 . S
O163 C166 1.252 . S
O164 Mg154 2.251 . S
O164 Mg157 2.079 . S
O164 C166 1.273 . S
C165 O161 1.246 . S
C165 O162 1.259 . S
C166 O163 1.252 . S
C166 O164 1.273 . S
O167 Mg154 2.010 . S
O167 C159 1.249 . S
Mg168 O169 2.028 . S
Mg168 O175 1.986 . S
Mg168 O177 2.114 . S
Mg168 O178 2.251 . S
Mg168 O181 2.010 . S
O169 Mg168 2.028 . S
O169 C172 1.250 . S
O170 Mg171 2.028 . S
O170 C172 1.248 . S
Mg171 O170 2.028 . S
Mg171 O176 2.032 . S
Mg171 O178 2.079 . S
C172 O169 1.250 . S
C172 O170 1.248 . S
C173 O174 1.264 1_556 S
C173 O181 1.249 . S
O174 C173 1.264 1_554 S
O175 Mg168 1.986 . S
O175 C179 1.246 . S
O176 Mg171 2.032 . S
O176 C179 1.259 . S
O177 Mg168 2.114 . S
O177 C180 1.252 . S
O178 Mg168 2.251 . S
O178 Mg171 2.079 . S
O178 C180 1.273 . S
C179 O175 1.246 . S
C179 O176 1.259 . S
C180 O177 1.252 . S
C180 O178 1.273 . S
O181 Mg168 2.010 . S
O181 C173 1.249 . S
Mg182 O183 2.028 . S
Mg182 O189 1.986 1_455 S
Mg182 O191 2.114 . S
Mg182 O192 2.251 . S
Mg182 O195 2.010 . S
O183 Mg182 2.028 . S
O183 C186 1.250 . S
O184 Mg185 2.028 . S
O184 C186 1.248 . S
Mg185 O184 2.028 . S
Mg185 O190 2.032 1_455 S
Mg185 O192 2.079 . S
C186 O183 1.250 . S
C186 O184 1.248 . S
C187 O188 1.264 . S
C187 O195 1.249 . S
O188 C187 1.264 . S
O189 Mg182 1.986 1_655 S
O189 C193 1.246 . S
O190 Mg185 2.032 1_655 S
O190 C193 1.259 . S
O191 Mg182 2.114 . S
O191 C194 1.252 . S
O192 Mg182 2.251 . S
O192 Mg185 2.079 . S
O192 C194 1.273 . S
C193 O189 1.246 . S
C193 O190 1.259 . S
C194 O191 1.252 . S
C194 O192 1.273 . S
O195 Mg182 2.010 . S
O195 C187 1.249 . S
Mg196 O197 2.028 . S
Mg196 O203 1.986 . S
Mg196 O205 2.114 . S
Mg196 O206 2.251 . S
Mg196 O209 2.010 . S
O197 Mg196 2.028 . S
O197 C200 1.250 . S
O198 Mg199 2.028 . S
O198 C200 1.248 . S
Mg199 O198 2.028 . S
Mg199 O204 2.032 . S
Mg199 O206 2.079 . S
C200 O197 1.250 . S
C200 O198 1.248 . S
C201 O202 1.264 . S
C201 O209 1.249 . S
O202 C201 1.264 . S
O203 Mg196 1.986 . S
O203 C207 1.246 . S
O204 Mg199 2.032 . S
O204 C207 1.259 . S
O205 Mg196 2.114 . S
O205 C208 1.252 . S
O206 Mg196 2.251 . S
O206 Mg199 2.079 . S
O206 C208 1.273 . S
C207 O203 1.246 . S
C207 O204 1.259 . S
C208 O205 1.252 . S
C208 O206 1.273 . S
O209 Mg196 2.010 . S
O209 C201 1.249 . S
Mg210 O211 2.028 . S
Mg210 O217 1.986 1_455 S
Mg210 O219 2.114 . S
Mg210 O220 2.251 . S
Mg210 O223 2.010 . S
O211 Mg210 2.028 . S
O211 C214 1.250 . S
O212 Mg213 2.028 . S
O212 C214 1.248 1_554 S
Mg213 O212 2.028 . S
Mg213 O218 2.032 1_454 S
Mg213 O220 2.079 1_554 S
C214 O211 1.250 . S
C214 O212 1.248 1_556 S
C215 O216 1.264 . S
C215 O223 1.249 . S
O216 C215 1.264 . S
O217 Mg210 1.986 1_655 S
O217 C221 1.246 . S
O218 Mg213 2.032 1_656 S
O218 C221 1.259 . S
O219 Mg210 2.114 . S
O219 C222 1.252 . S
O220 Mg210 2.251 . S
O220 Mg213 2.079 1_556 S
O220 C222 1.273 . S
C221 O217 1.246 . S
C221 O218 1.259 . S
C222 O219 1.252 . S
C222 O220 1.273 . S
O223 Mg210 2.010 . S
O223 C215 1.249 . S
C224 C225 1.369 . S
C224 C226 1.419 . S
C224 H228 0.930 . S
C225 C224 1.369 . S
C225 C234 1.429 . S
C226 C224 1.419 . S
C226 C227 1.363 . S
C226 H229 0.929 . S
C227 C226 1.363 . S
C227 C233 1.428 . S
H228 C224 0.930 . S
H229 C226 0.929 . S
S230 N231 1.615 . S
S230 N232 1.614 . S
N231 S230 1.615 . S
N231 C234 1.350 . S
N232 S230 1.614 . S
N232 C233 1.351 . S
C233 C227 1.428 . S
C233 N232 1.351 . S
C233 C234 1.434 . S
C234 C225 1.429 . S
C234 N231 1.350 . S
C234 C233 1.434 . S
C235 C236 1.369 . S
C235 C237 1.419 . S
C235 H239 0.930 . S
C236 C235 1.369 . S
C236 C245 1.429 . S
C237 C235 1.419 . S
C237 C238 1.363 . S
C237 H240 0.929 . S
C238 C237 1.363 . S
C238 C244 1.428 . S
H239 C235 0.930 . S
H240 C237 0.929 . S
S241 N242 1.613 . S
S241 N243 1.610 . S
N242 S241 1.613 . S
N242 C245 1.350 . S
N243 S241 1.610 . S
N243 C244 1.351 . S
C244 C238 1.428 . S
C244 N243 1.351 . S
C244 C245 1.434 . S
C245 C236 1.429 . S
C245 N242 1.350 . S
C245 C244 1.434 . S
C246 C247 1.369 . S
C246 C248 1.419 . S
C246 H250 0.930 . S
C247 C246 1.369 . S
C247 C256 1.429 . S
C248 C246 1.419 . S
C248 C249 1.363 . S
C248 H251 0.929 . S
C249 C248 1.363 . S
C249 C255 1.428 . S
H250 C246 0.930 . S
H251 C248 0.929 . S
S252 N253 1.613 . S
S252 N254 1.610 . S
N253 S252 1.613 . S
N253 C256 1.350 . S
N254 S252 1.610 . S
N254 C255 1.351 . S
C255 C249 1.428 . S
C255 N254 1.351 . S
C255 C256 1.434 . S
C256 C247 1.429 . S
C256 N253 1.350 . S
C256 C255 1.434 . S
C257 C258 1.369 1_554 S
C257 C259 1.419 1_554 S
C257 H261 0.930 . S
C258 C257 1.369 1_556 S
C258 C267 1.429 . S
C259 C257 1.419 1_556 S
C259 C260 1.363 . S
C259 H262 0.929 1_556 S
C260 C259 1.363 . S
C260 C266 1.428 . S
H261 C257 0.930 . S
H262 C259 0.929 1_554 S
S263 N264 1.613 . S
S263 N265 1.610 . S
N264 S263 1.613 . S
N264 C267 1.350 . S
N265 S263 1.610 . S
N265 C266 1.351 . S
C266 C260 1.428 . S
C266 N265 1.351 . S
C266 C267 1.434 . S
C267 C258 1.429 . S
C267 N264 1.350 . S
C267 C266 1.434 . S
C268 C269 1.369 . S
C268 C270 1.419 . S
C268 H272 0.930 . S
C269 C268 1.369 . S
C269 C278 1.429 1_556 S
C270 C268 1.419 . S
C270 C271 1.363 . S
C270 H273 0.929 . S
C271 C270 1.363 . S
C271 C277 1.428 1_556 S
H272 C268 0.930 . S
H273 C270 0.929 . S
S274 N275 1.613 . S
S274 N276 1.610 . S
N275 S274 1.613 . S
N275 C278 1.350 . S
N276 S274 1.610 . S
N276 C277 1.351 . S
C277 C271 1.428 1_554 S
C277 N276 1.351 . S
C277 C278 1.434 . S
C278 C269 1.429 1_554 S
C278 N275 1.350 . S
C278 C277 1.434 . S
C279 C280 1.369 . S
C279 C281 1.419 . S
C279 H283 0.930 . S
C280 C279 1.369 . S
C280 C289 1.429 . S
C281 C279 1.419 . S
C281 C282 1.363 . S
C281 H284 0.929 . S
C282 C281 1.363 . S
C282 C288 1.428 . S
H283 C279 0.930 . S
H284 C281 0.929 . S
S285 N286 1.613 . S
S285 N287 1.610 . S
N286 S285 1.613 . S
N286 C289 1.350 . S
N287 S285 1.610 . S
N287 C288 1.351 . S
C288 C282 1.428 . S
C288 N287 1.351 . S
C288 C289 1.434 . S
C289 C280 1.429 . S
C289 N286 1.350 . S
C289 C288 1.434 . S
C290 C291 1.369 . S
C290 C292 1.419 . S
C290 H294 0.930 . S
C291 C290 1.369 . S
C291 C300 1.429 . S
C292 C290 1.419 . S
C292 C293 1.363 . S
C292 H295 0.929 . S
C293 C292 1.363 . S
C293 C299 1.428 . S
H294 C290 0.930 . S
H295 C292 0.929 . S
S296 N297 1.613 . S
S296 N298 1.610 . S
N297 S296 1.613 . S
N297 C300 1.350 . S
N298 S296 1.610 . S
N298 C299 1.351 . S
C299 C293 1.428 . S
C299 N298 1.351 . S
C299 C300 1.434 . S
C300 C291 1.429 . S
C300 N297 1.350 . S
C300 C299 1.434 . S
C301 C302 1.369 . S
C301 C303 1.419 . S
C301 H305 0.930 . S
C302 C301 1.369 . S
C302 C311 1.429 . S
C303 C301 1.419 . S
C303 C304 1.363 . S
C303 H306 0.929 . S
C304 C303 1.363 . S
C304 C310 1.428 . S
H305 C301 0.930 . S
H306 C303 0.929 . S
S307 N308 1.613 . S
S307 N309 1.610 . S
N308 S307 1.613 . S
N308 C311 1.350 . S
N309 S307 1.610 . S
N309 C310 1.351 . S
C310 C304 1.428 . S
C310 N309 1.351 . S
C310 C311 1.434 . S
C311 C302 1.429 . S
C311 N308 1.350 . S
C311 C310 1.434 . S
C312 C313 1.369 . S
C312 C314 1.419 . S
C312 H316 0.930 . S
C313 C312 1.369 . S
C313 C322 1.429 . S
C314 C312 1.419 . S
C314 C315 1.363 . S
C314 H317 0.929 1_556 S
C315 C314 1.363 . S
C315 C321 1.428 . S
H316 C312 0.930 . S
H317 C314 0.929 1_554 S
S318 N319 1.613 . S
S318 N320 1.610 . S
N319 S318 1.613 . S
N319 C322 1.350 . S
N320 S318 1.610 . S
N320 C321 1.351 . S
C321 C315 1.428 . S
C321 N320 1.351 . S
C321 C322 1.434 . S
C322 C313 1.429 . S
C322 N319 1.350 . S
C322 C321 1.434 . S
C323 C324 1.369 . S
C323 C325 1.419 . S
C323 H327 0.930 . S
C324 C323 1.369 . S
C324 C333 1.429 . S
C325 C323 1.419 . S
C325 C326 1.363 . S
C325 H328 0.929 . S
C326 C325 1.363 . S
C326 C332 1.428 . S
H327 C323 0.930 . S
H328 C325 0.929 . S
S329 N330 1.613 . S
S329 N331 1.610 . S
N330 S329 1.613 . S
N330 C333 1.350 . S
N331 S329 1.610 . S
N331 C332 1.351 . S
C332 C326 1.428 . S
C332 N331 1.351 . S
C332 C333 1.434 . S
C333 C324 1.429 . S
C333 N330 1.350 . S
C333 C332 1.434 . S
C334 C335 1.369 . S
C334 C336 1.419 . S
C334 H338 0.930 . S
C335 C334 1.369 . S
C335 C344 1.429 . S
C336 C334 1.419 . S
C336 C337 1.363 . S
C336 H339 0.929 . S
C337 C336 1.363 . S
C337 C343 1.428 . S
H338 C334 0.930 . S
H339 C336 0.929 . S
S340 N341 1.613 . S
S340 N342 1.610 . S
N341 S340 1.613 . S
N341 C344 1.350 . S
N342 S340 1.610 . S
N342 C343 1.351 . S
C343 C337 1.428 . S
C343 N342 1.351 . S
C343 C344 1.434 . S
C344 C335 1.429 . S
C344 N341 1.350 . S
C344 C343 1.434 . S
C345 C346 1.369 . S
C345 C347 1.419 . S
C345 H349 0.930 . S
C346 C345 1.369 . S
C346 C355 1.429 . S
C347 C345 1.419 . S
C347 C348 1.363 . S
C347 H350 0.929 . S
C348 C347 1.363 . S
C348 C354 1.428 . S
H349 C345 0.930 . S
H350 C347 0.929 . S
S351 N352 1.613 . S
S351 N353 1.610 . S
N352 S351 1.613 . S
N352 C355 1.350 . S
N353 S351 1.610 . S
N353 C354 1.351 . S
C354 C348 1.428 . S
C354 N353 1.351 . S
C354 C355 1.434 . S
C355 C346 1.429 . S
C355 N352 1.350 . S
C355 C354 1.434 . S
C356 C357 1.369 . S
C356 C358 1.419 . S
C356 H360 0.930 . S
C357 C356 1.369 . S
C357 C366 1.429 . S
C358 C356 1.419 . S
C358 C359 1.363 . S
C358 H361 0.929 . S
C359 C358 1.363 . S
C359 C365 1.428 . S
H360 C356 0.930 . S
H361 C358 0.929 . S
S362 N363 1.613 . S
S362 N364 1.610 . S
N363 S362 1.613 . S
N363 C366 1.350 . S
N364 S362 1.610 . S
N364 C365 1.351 . S
C365 C359 1.428 . S
C365 N364 1.351 . S
C365 C366 1.434 . S
C366 C357 1.429 . S
C366 N363 1.350 . S
C366 C365 1.434 . S
C367 C368 1.369 . S
C367 C369 1.419 1_556 S
C367 H371 0.930 1_556 S
C368 C367 1.369 . S
C368 C377 1.429 . S
C369 C367 1.419 1_554 S
C369 C370 1.363 1_554 S
C369 H372 0.929 . S
C370 C369 1.363 1_556 S
C370 C376 1.428 . S
H371 C367 0.930 1_554 S
H372 C369 0.929 . S
S373 N374 1.613 . S
S373 N375 1.610 . S
N374 S373 1.613 . S
N374 C377 1.350 . S
N375 S373 1.610 . S
N375 C376 1.351 . S
C376 C370 1.428 . S
C376 N375 1.351 . S
C376 C377 1.434 . S
C377 C368 1.429 . S
C377 N374 1.350 . S
C377 C376 1.434 . S
C378 C379 1.369 . S
C378 C380 1.419 . S
C378 H382 0.930 . S
C379 C378 1.369 . S
C379 C388 1.429 . S
C380 C378 1.419 . S
C380 C381 1.363 . S
C380 H383 0.929 . S
C381 C380 1.363 . S
C381 C387 1.428 . S
H382 C378 0.930 . S
H383 C380 0.929 . S
S384 N385 1.613 . S
S384 N386 1.610 . S
N385 S384 1.613 . S
N385 C388 1.350 . S
N386 S384 1.610 . S
N386 C387 1.351 . S
C387 C381 1.428 . S
C387 N386 1.351 . S
C387 C388 1.434 . S
C388 C379 1.429 . S
C388 N385 1.350 . S
C388 C387 1.434 . S
C389 C390 1.369 . S
C389 C391 1.419 . S
C389 H393 0.930 . S
C390 C389 1.369 . S
C390 C399 1.429 . S
C391 C389 1.419 . S
C391 C392 1.363 . S
C391 H394 0.929 . S
C392 C391 1.363 . S
C392 C398 1.428 . S
H393 C389 0.930 . S
H394 C391 0.929 . S
S395 N396 1.613 . S
S395 N397 1.610 . S
N396 S395 1.613 . S
N396 C399 1.350 . S
N397 S395 1.610 . S
N397 C398 1.351 . S
C398 C392 1.428 . S
C398 N397 1.351 . S
C398 C399 1.434 . S
C399 C390 1.429 . S
C399 N396 1.350 . S
C399 C398 1.434 . S
C400 C401 1.369 . S
C400 C402 1.419 . S
C400 H404 0.930 . S
C401 C400 1.369 . S
C401 C410 1.429 . S
C402 C400 1.419 . S
C402 C403 1.363 . S
C402 H405 0.929 1_554 S
C403 C402 1.363 . S
C403 C409 1.428 . S
H404 C400 0.930 . S
H405 C402 0.929 1_556 S
S406 N407 1.613 . S
S406 N408 1.610 . S
N407 S406 1.613 . S
N407 C410 1.350 1_655 S
N408 S406 1.610 . S
N408 C409 1.351 1_655 S
C409 C403 1.428 . S
C409 N408 1.351 1_455 S
C409 C410 1.434 . S
C410 C401 1.429 . S
C410 N407 1.350 1_455 S
C410 C409 1.434 . S
C411 C412 1.369 . S
C411 C413 1.419 . S
C411 H415 0.930 . S
C412 C411 1.369 . S
C412 C421 1.429 . S
C413 C411 1.419 . S
C413 C414 1.363 . S
C413 H416 0.929 . S
C414 C413 1.363 . S
C414 C420 1.428 . S
H415 C411 0.930 . S
H416 C413 0.929 . S
S417 N418 1.613 . S
S417 N419 1.610 . S
N418 S417 1.613 . S
N418 C421 1.350 . S
N419 S417 1.610 . S
N419 C420 1.351 . S
C420 C414 1.428 . S
C420 N419 1.351 . S
C420 C421 1.434 . S
C421 C412 1.429 . S
C421 N418 1.350 . S
C421 C420 1.434 . S
C422 C423 1.369 . S
C422 C424 1.419 . S
C422 H426 0.930 . S
C423 C422 1.369 . S
C423 C432 1.429 . S
C424 C422 1.419 . S
C424 C425 1.363 . S
C424 H427 0.929 . S
C425 C424 1.363 . S
C425 C431 1.428 . S
H426 C422 0.930 . S
H427 C424 0.929 . S
S428 N429 1.613 . S
S428 N430 1.610 . S
N429 S428 1.613 . S
N429 C432 1.350 . S
N430 S428 1.610 . S
N430 C431 1.351 . S
C431 C425 1.428 . S
C431 N430 1.351 . S
C431 C432 1.434 . S
C432 C423 1.429 . S
C432 N429 1.350 . S
C432 C431 1.434 . S
C433 C434 1.369 . S
C433 C435 1.419 . S
C433 H437 0.930 . S
C434 C433 1.369 . S
C434 C443 1.429 . S
C435 C433 1.419 . S
C435 C436 1.363 . S
C435 H438 0.929 . S
C436 C435 1.363 . S
C436 C442 1.428 . S
H437 C433 0.930 . S
H438 C435 0.929 . S
S439 N440 1.613 . S
S439 N441 1.610 . S
N440 S439 1.613 . S
N440 C443 1.350 . S
N441 S439 1.610 . S
N441 C442 1.351 . S
C442 C436 1.428 . S
C442 N441 1.351 . S
C442 C443 1.434 . S
C443 C434 1.429 . S
C443 N440 1.350 . S
C443 C442 1.434 . S
C444 C445 1.369 . S
C444 C446 1.419 . S
C444 H448 0.930 . S
C445 C444 1.369 . S
C445 C454 1.429 . S
C446 C444 1.419 . S
C446 C447 1.363 . S
C446 H449 0.929 . S
C447 C446 1.363 . S
C447 C453 1.428 . S
H448 C444 0.930 . S
H449 C446 0.929 . S
S450 N451 1.613 . S
S450 N452 1.610 . S
N451 S450 1.613 . S
N451 C454 1.350 . S
N452 S450 1.610 . S
N452 C453 1.351 . S
C453 C447 1.428 . S
C453 N452 1.351 . S
C453 C454 1.434 . S
C454 C445 1.429 . S
C454 N451 1.350 . S
C454 C453 1.434 . S
C455 C456 1.369 . S
C455 C457 1.419 . S
C455 H459 0.930 . S
C456 C455 1.369 . S
C456 C465 1.429 . S
C457 C455 1.419 . S
C457 C458 1.363 . S
C457 H460 0.929 . S
C458 C457 1.363 . S
C458 C464 1.428 . S
H459 C455 0.930 . S
H460 C457 0.929 . S
S461 N462 1.613 . S
S461 N463 1.610 . S
N462 S461 1.613 . S
N462 C465 1.350 . S
N463 S461 1.610 . S
N463 C464 1.351 . S
C464 C458 1.428 . S
C464 N463 1.351 . S
C464 C465 1.434 . S
C465 C456 1.429 . S
C465 N462 1.350 . S
C465 C464 1.434 . S
C466 C467 1.369 . S
C466 C468 1.419 . S
C466 H470 0.930 . S
C467 C466 1.369 . S
C467 C476 1.429 1_565 S
C468 C466 1.419 . S
C468 C469 1.363 1_565 S
C468 H471 0.929 . S
C469 C468 1.363 1_545 S
C469 C475 1.428 . S
H470 C466 0.930 . S
H471 C468 0.929 . S
S472 N473 1.613 . S
S472 N474 1.610 . S
N473 S472 1.613 . S
N473 C476 1.350 . S
N474 S472 1.610 . S
N474 C475 1.351 . S
C475 C469 1.428 . S
C475 N474 1.351 . S
C475 C476 1.434 . S
C476 C467 1.429 1_545 S
C476 N473 1.350 . S
C476 C475 1.434 . S
C477 C478 1.369 . S
C477 C479 1.419 1_545 S
C477 H481 0.930 1_554 S
C478 C477 1.369 . S
C478 C487 1.429 . S
C479 C477 1.419 1_565 S
C479 C480 1.363 . S
C479 H482 0.929 . S
C480 C479 1.363 . S
C480 C486 1.428 . S
H481 C477 0.930 1_556 S
H482 C479 0.929 . S
S483 N484 1.613 . S
S483 N485 1.606 1_545 S
N484 S483 1.613 . S
N484 C487 1.350 1_655 S
N485 S483 1.606 1_565 S
N485 C486 1.351 1_655 S
C486 C480 1.428 . S
C486 N485 1.351 1_455 S
C486 C487 1.434 1_565 S
C487 C478 1.429 . S
C487 N484 1.350 1_455 S
C487 C486 1.434 1_545 S
C488 C489 1.369 1_655 S
C488 C490 1.419 . S
C488 H492 0.930 . S
C489 C488 1.369 1_455 S
C489 C498 1.429 . S
C490 C488 1.419 . S
C490 C491 1.363 1_655 S
C490 H493 0.929 . S
C491 C490 1.363 1_455 S
C491 C497 1.428 . S
H492 C488 0.930 . S
H493 C490 0.929 . S
S494 N495 1.613 . S
S494 N496 1.610 . S
N495 S494 1.613 . S
N495 C498 1.350 . S
N496 S494 1.610 . S
N496 C497 1.351 . S
C497 C491 1.428 . S
C497 N496 1.351 . S
C497 C498 1.434 . S
C498 C489 1.429 . S
C498 N495 1.350 . S
C498 C497 1.434 . S
C499 C500 1.369 . S
C499 C501 1.419 . S
C499 H503 0.930 . S
C500 C499 1.369 . S
C500 C509 1.429 . S
C501 C499 1.419 . S
C501 C502 1.363 . S
C501 H504 0.929 . S
C502 C501 1.363 . S
C502 C508 1.428 . S
H503 C499 0.930 . S
H504 C501 0.929 . S
S505 N506 1.613 . S
S505 N507 1.610 . S
N506 S505 1.613 . S
N506 C509 1.350 . S
N507 S505 1.610 . S
N507 C508 1.351 . S
C508 C502 1.428 . S
C508 N507 1.351 . S
C508 C509 1.434 . S
C509 C500 1.429 . S
C509 N506 1.350 . S
C509 C508 1.434 . S
C510 C511 1.369 . S
C510 C512 1.419 . S
C510 H514 0.930 . S
C511 C510 1.369 . S
C511 C520 1.429 . S
C512 C510 1.419 . S
C512 C513 1.363 . S
C512 H515 0.929 1_554 S
C513 C512 1.363 . S
C513 C519 1.428 . S
H514 C510 0.930 . S
H515 C512 0.929 1_556 S
S516 N517 1.613 . S
S516 N518 1.610 . S
N517 S516 1.613 . S
N517 C520 1.350 . S
N518 S516 1.610 . S
N518 C519 1.351 . S
C519 C513 1.428 . S
C519 N518 1.351 . S
C519 C520 1.434 . S
C520 C511 1.429 . S
C520 N517 1.350 . S
C520 C519 1.434 . S
C521 C522 1.369 . S
C521 C523 1.419 . S
C521 H525 0.930 . S
C522 C521 1.369 . S
C522 C531 1.429 . S
C523 C521 1.419 . S
C523 C524 1.363 . S
C523 H526 0.929 . S
C524 C523 1.363 . S
C524 C530 1.428 . S
H525 C521 0.930 . S
H526 C523 0.929 . S
S527 N528 1.613 . S
S527 N529 1.610 . S
N528 S527 1.613 . S
N528 C531 1.350 . S
N529 S527 1.610 . S
N529 C530 1.351 . S
C530 C524 1.428 . S
C530 N529 1.351 . S
C530 C531 1.434 . S
C531 C522 1.429 . S
C531 N528 1.350 . S
C531 C530 1.434 . S
C532 C533 1.369 . S
C532 C534 1.419 . S
C532 H536 0.930 . S
C533 C532 1.369 . S
C533 C542 1.429 . S
C534 C532 1.419 . S
C534 C535 1.363 . S
C534 H537 0.929 . S
C535 C534 1.363 . S
C535 C541 1.428 . S
H536 C532 0.930 . S
H537 C534 0.929 . S
S538 N539 1.613 . S
S538 N540 1.610 . S
N539 S538 1.613 . S
N539 C542 1.350 . S
N540 S538 1.610 . S
N540 C541 1.351 . S
C541 C535 1.428 . S
C541 N540 1.351 . S
C541 C542 1.434 . S
C542 C533 1.429 . S
C542 N539 1.350 . S
C542 C541 1.434 . S
C543 C544 1.369 . S
C543 C545 1.419 . S
C543 H547 0.930 . S
C544 C543 1.369 . S
C544 C553 1.429 . S
C545 C543 1.419 . S
C545 C546 1.363 . S
C545 H548 0.929 . S
C546 C545 1.363 . S
C546 C552 1.428 . S
H547 C543 0.930 . S
H548 C545 0.929 . S
S549 N550 1.613 . S
S549 N551 1.610 . S
N550 S549 1.613 . S
N550 C553 1.350 . S
N551 S549 1.610 . S
N551 C552 1.351 . S
C552 C546 1.428 . S
C552 N551 1.351 . S
C552 C553 1.434 . S
C553 C544 1.429 . S
C553 N550 1.350 . S
C553 C552 1.434 . S
C554 C555 1.369 . S
C554 C556 1.419 . S
C554 H558 0.930 . S
C555 C554 1.369 . S
C555 C564 1.429 1_565 S
C556 C554 1.419 . S
C556 C557 1.363 1_565 S
C556 H559 0.929 1_554 S
C557 C556 1.363 1_545 S
C557 C563 1.428 . S
H558 C554 0.930 . S
H559 C556 0.929 1_556 S
S560 N561 1.613 . S
S560 N562 1.610 . S
N561 S560 1.613 . S
N561 C564 1.350 . S
N562 S560 1.610 . S
N562 C563 1.351 . S
C563 C557 1.428 . S
C563 N562 1.351 . S
C563 C564 1.434 . S
C564 C555 1.429 1_545 S
C564 N561 1.350 . S
C564 C563 1.434 . S
C565 C566 1.369 1_565 S
C565 C567 1.419 . S
C565 H569 0.930 . S
C566 C565 1.369 1_545 S
C566 C575 1.429 . S
C567 C565 1.419 . S
C567 C568 1.363 . S
C567 H570 0.929 . S
C568 C567 1.363 . S
C568 C574 1.428 1_565 S
H569 C565 0.930 . S
H570 C567 0.929 . S
S571 N572 1.613 . S
S571 N573 1.610 . S
N572 S571 1.613 . S
N572 C575 1.350 . S
N573 S571 1.610 . S
N573 C574 1.351 . S
C574 C568 1.428 1_545 S
C574 N573 1.351 . S
C574 C575 1.434 . S
C575 C566 1.429 . S
C575 N572 1.350 . S
C575 C574 1.434 . S
C225 C137 1.457 . S
C227 C11 1.450 . S
C236 C207 1.452 . S
C238 C25 1.451 . S
C247 C39 1.453 . S
C249 C123 1.457 . S
C258 C53 1.450 . S
C260 C221 1.457 . S
C269 C67 1.453 . S
C271 C151 1.457 . S
C280 C193 1.458 . S
C282 C81 1.452 . S
C291 C165 1.457 . S
C293 C95 1.456 . S
C302 C109 1.449 . S
C304 C179 1.455 . S
C313 C68 1.476 . S
C315 C54 1.475 . S
C324 C180 1.475 . S
C326 C124 1.476 . S
C335 C96 1.477 . S
C337 C26 1.478 . S
C346 C138 1.475 . S
C348 C194 1.476 . S
C357 C12 1.475 . S
C359 C82 1.476 . S
C368 C222 1.478 . S
C370 C152 1.477 . S
C379 C110 1.475 . S
C381 C40 1.475 . S
C390 C166 1.476 . S
C392 C208 1.475 . S
C401 C4 0.838 . S
C403 C60 0.825 1_554 S
C412 C74 0.823 . S
C414 C18 0.835 . S
C423 C88 0.838 . S
C425 C32 0.824 . S
C434 C46 0.837 . S
C436 C102 0.824 . S
C445 C144 0.823 . S
C447 C116 0.836 . S
C456 C158 0.827 . S
C458 C130 0.832 . S
C467 C200 0.838 . S
C469 C172 0.825 . S
C478 C214 0.825 1_554 S
C480 C186 0.834 . S
C489 C61 1.348 . S
C491 C5 1.336 . S
C500 C75 1.339 . S
C502 C19 1.343 . S
C511 C89 1.349 . S
C513 C33 1.334 1_554 S
C522 C47 1.334 . S
C524 C103 1.345 . S
C533 C117 1.339 . S
C535 C145 1.343 . S
C544 C159 1.333 . S
C546 C131 1.346 . S
C555 C201 1.349 . S
C557 C173 1.335 1_554 S
C566 C215 1.332 . S
C568 C187 1.347 . S
