# Generated by pormake.
# Topology umw, (4)-cn, num edge types: 1
# Building blocks:
#     Node 0, Type 0, BuildingBlock: UXUYUI_clean_sbu_0, # of connection points: 4
#     Node 1, Type 0, BuildingBlock: UXUYUI_clean_sbu_0, # of connection points: 4
#     Node 2, Type 0, BuildingBlock: UXUYUI_clean_sbu_0, # of connection points: 4
#     Node 3, Type 0, BuildingBlock: UXUYUI_clean_sbu_0, # of connection points: 4
#     Node 4, Type 0, BuildingBlock: UXUYUI_clean_sbu_0, # of connection points: 4
#     Node 5, Type 0, BuildingBlock: UXUYUI_clean_sbu_0, # of connection points: 4
#     Node 6, Type 0, BuildingBlock: UXUYUI_clean_sbu_0, # of connection points: 4
#     Node 7, Type 0, BuildingBlock: UXUYUI_clean_sbu_0, # of connection points: 4
#     Edge 8, Type (0, 0), None
#     Edge 9, Type (0, 0), None
#     Edge 10, Type (0, 0), None
#     Edge 11, Type (0, 0), None
#     Edge 12, Type (0, 0), None
#     Edge 13, Type (0, 0), None
#     Edge 14, Type (0, 0), None
#     Edge 15, Type (0, 0), None
#     Edge 16, Type (0, 0), None
#     Edge 17, Type (0, 0), None
#     Edge 18, Type (0, 0), None
#     Edge 19, Type (0, 0), None
#     Edge 20, Type (0, 0), None
#     Edge 21, Type (0, 0), None
#     Edge 22, Type (0, 0), None
#     Edge 23, Type (0, 0), None
# Relax obj value: 0.239
# Max RMSD: 0.148
# Mean RMSD: 0.148
data_MOF--net-umw--node1-UXUYUI_clean_sbu_0--edge1-none
_symmetry_space_group_name_H-M    P1
_symmetry_Int_Tables_number       1
_symmetry_cell_setting            triclinic
loop_
_symmetry_equiv_pos_as_xyz
'x, y, z'
_cell_length_a     39.647797
_cell_length_b     39.645756
_cell_length_c     21.9133
_cell_angle_alpha  89.99911
_cell_angle_beta   90.000016
_cell_angle_gamma 89.997337
loop_
_atom_site_label
_atom_site_type_symbol
_atom_site_fract_x
_atom_site_fract_y
_atom_site_fract_z
_atom_type_partial_charge
Li0 Li 0.38244 0.13741 0.27086 0.0
Li1 Li 0.42271 0.17658 0.32737 0.0
Li2 Li 0.37035 0.19707 0.28779 0.0
Li3 Li 0.41486 0.18308 0.21679 0.0
C4 C 0.35343 0.16789 0.39336 0.0
N5 N 0.30502 0.18429 0.47926 0.0
C6 C 0.36149 0.18904 0.44228 0.0
C7 C 0.3208 0.15475 0.38864 0.0
C8 C 0.33666 0.19714 0.48507 0.0
C9 C 0.29668 0.16339 0.43242 0.0
C10 C 0.46439 0.13696 0.24415 0.0
C11 C 0.52201 0.15495 0.23075 0.0
N12 N 0.52904 0.12529 0.20223 0.0
C13 C 0.47216 0.10664 0.21485 0.0
C14 C 0.48948 0.16132 0.25234 0.0
C15 C 0.50502 0.10122 0.19396 0.0
C16 C 0.37689 0.07255 0.21814 0.0
N17 N 0.37019 0.09097 0.26896 0.0
C18 C 0.35509 0.04115 0.32409 0.0
C19 C 0.35917 0.07611 0.32118 0.0
C20 C 0.36312 0.02113 0.27314 0.0
C21 C 0.37356 0.03745 0.21922 0.0
H22 H 0.38636 0.085 0.17767 0.0
H23 H 0.35483 0.09122 0.36143 0.0
C24 C 0.45511 0.20723 0.42544 0.0
N25 N 0.45283 0.17828 0.39266 0.0
C26 C 0.47461 0.20819 0.47828 0.0
C27 C 0.49025 0.14999 0.46045 0.0
C28 C 0.46997 0.15001 0.40859 0.0
C29 C 0.49229 0.17919 0.49677 0.0
H30 H 0.44081 0.22917 0.41159 0.0
H31 H 0.46743 0.12735 0.38147 0.0
C32 C 0.33292 0.17163 0.1901 0.0
N33 N 0.26644 0.17335 0.15215 0.0
C34 C 0.32244 0.19538 0.14691 0.0
C35 C 0.3097 0.1483 0.21295 0.0
C36 C 0.28868 0.196 0.12864 0.0
C37 C 0.27618 0.14968 0.19345 0.0
C38 C 0.41594 0.25013 0.25746 0.0
C39 C 0.39279 0.25887 0.21215 0.0
C40 C 0.43895 0.27414 0.2786 0.0
C41 C 0.39313 0.29154 0.18832 0.0
C42 C 0.43852 0.30656 0.2536 0.0
N43 N 0.41581 0.31452 0.20934 0.0
C44 C 0.34944 0.25396 0.35174 0.0
C45 C 0.30248 0.22427 0.31217 0.0
C46 C 0.32832 0.27547 0.38448 0.0
N47 N 0.33646 0.2289 0.31635 0.0
C48 C 0.28032 0.24499 0.34521 0.0
C49 C 0.29331 0.27087 0.38226 0.0
H50 H 0.37638 0.25622 0.35743 0.0
H51 H 0.29252 0.20359 0.28577 0.0
C52 C 0.4439 0.16331 0.10459 0.0
N53 N 0.44178 0.18989 0.14373 0.0
C54 C 0.46767 0.16328 0.0573 0.0
C55 C 0.48558 0.21874 0.08908 0.0
C56 C 0.46199 0.21741 0.13656 0.0
C57 C 0.48915 0.19113 0.0495 0.0
H58 H 0.42815 0.14139 0.1119 0.0
H59 H 0.46103 0.23781 0.16899 0.0
O60 O 0.37719 0.16055 0.34993 0.0
O61 O 0.43211 0.14325 0.26288 0.0
O62 O 0.36593 0.17052 0.20836 0.0
O63 O 0.41597 0.21837 0.28179 0.0
H64 H 0.3865 0.19953 0.44672 0.0
H65 H 0.31399 0.13836 0.35126 0.0
H66 H 0.3425 0.21376 0.52276 0.0
H67 H 0.27129 0.15361 0.42899 0.0
H68 H 0.54163 0.17364 0.23642 0.0
H69 H 0.45295 0.08763 0.20788 0.0
H70 H 0.48375 0.18509 0.2743 0.0
H71 H 0.51139 0.07793 0.17098 0.0
H72 H 0.34658 0.02991 0.3664 0.0
H73 H 0.3807 0.02323 0.17908 0.0
H74 H 0.47501 0.23111 0.50513 0.0
H75 H 0.50402 0.12729 0.47202 0.0
H76 H 0.34017 0.21302 0.12722 0.0
H77 H 0.31737 0.12935 0.24543 0.0
H78 H 0.28021 0.21437 0.09552 0.0
H79 H 0.25793 0.13192 0.21114 0.0
H80 H 0.37472 0.24065 0.19592 0.0
H81 H 0.45698 0.26774 0.31384 0.0
H82 H 0.37533 0.29865 0.15318 0.0
H83 H 0.45623 0.32539 0.26939 0.0
H84 H 0.33939 0.29477 0.41318 0.0
H85 H 0.2534 0.24071 0.34219 0.0
H86 H 0.46947 0.14156 0.0275 0.0
H87 H 0.50187 0.24055 0.08496 0.0
Li88 Li 0.82811 0.42271 0.57742 0.0
Li89 Li 0.86728 0.38243 0.52089 0.0
Li90 Li 0.82162 0.41486 0.46683 0.0
Li91 Li 0.80763 0.37034 0.53782 0.0
C92 C 0.86774 0.46437 0.49413 0.0
N93 N 0.87942 0.52899 0.45208 0.0
C94 C 0.89804 0.47211 0.46475 0.0
C95 C 0.84341 0.48948 0.50234 0.0
C96 C 0.90346 0.50495 0.44379 0.0
C97 C 0.84978 0.522 0.48069 0.0
C98 C 0.8368 0.35341 0.64339 0.0
C99 C 0.84132 0.29666 0.68244 0.0
N100 N 0.82041 0.30499 0.72927 0.0
C101 C 0.81565 0.36147 0.6923 0.0
C102 C 0.84995 0.32079 0.63867 0.0
C103 C 0.80755 0.33662 0.73508 0.0
C104 C 0.79747 0.4551 0.6755 0.0
N105 N 0.82641 0.45282 0.6427 0.0
C106 C 0.85469 0.49025 0.71048 0.0
C107 C 0.85468 0.46996 0.65862 0.0
C108 C 0.8255 0.49228 0.74681 0.0
C109 C 0.7965 0.4746 0.72834 0.0
H110 H 0.77552 0.44079 0.66166 0.0
H111 H 0.87733 0.46743 0.63149 0.0
C112 C 0.93214 0.37684 0.46817 0.0
N113 N 0.91371 0.37018 0.519 0.0
C114 C 0.96724 0.3735 0.46925 0.0
C115 C 0.96353 0.35511 0.57417 0.0
C116 C 0.92858 0.35919 0.57124 0.0
C117 C 0.98355 0.3631 0.5232 0.0
H118 H 0.91969 0.38628 0.42768 0.0
H119 H 0.91346 0.35487 0.6115 0.0
C120 C 0.75456 0.41594 0.50749 0.0
N121 N 0.69019 0.41581 0.45936 0.0
C122 C 0.74583 0.39281 0.46215 0.0
C123 C 0.73054 0.43893 0.52865 0.0
C124 C 0.71317 0.39314 0.43831 0.0
C125 C 0.69813 0.4385 0.50365 0.0
C126 C 0.83307 0.33291 0.44014 0.0
C127 C 0.80932 0.32243 0.39694 0.0
C128 C 0.8564 0.30969 0.46298 0.0
C129 C 0.80871 0.28867 0.37867 0.0
C130 C 0.85502 0.27617 0.44349 0.0
N131 N 0.83135 0.26642 0.40219 0.0
C132 C 0.84135 0.44385 0.35457 0.0
C133 C 0.7873 0.46203 0.38666 0.0
C134 C 0.84138 0.46763 0.30729 0.0
N135 N 0.8148 0.44178 0.39377 0.0
C136 C 0.78597 0.48562 0.33918 0.0
C137 C 0.81356 0.48915 0.29954 0.0
H138 H 0.86326 0.42808 0.36183 0.0
H139 H 0.76693 0.46109 0.41915 0.0
C140 C 0.75073 0.34943 0.60177 0.0
N141 N 0.77579 0.33646 0.56637 0.0
C142 C 0.72922 0.32832 0.63449 0.0
C143 C 0.7597 0.28031 0.59523 0.0
C144 C 0.78042 0.30247 0.56219 0.0
C145 C 0.73382 0.2933 0.63227 0.0
H146 H 0.74848 0.37638 0.60745 0.0
H147 H 0.8011 0.2925 0.5358 0.0
O148 O 0.86144 0.4321 0.51293 0.0
O149 O 0.84414 0.37717 0.59996 0.0
O150 O 0.78632 0.41596 0.53183 0.0
O151 O 0.83417 0.36592 0.45839 0.0
H152 H 0.91703 0.45288 0.45775 0.0
H153 H 0.81965 0.48378 0.52438 0.0
H154 H 0.92674 0.51129 0.42075 0.0
H155 H 0.83111 0.54164 0.48638 0.0
H156 H 0.85111 0.27126 0.67901 0.0
H157 H 0.80515 0.38647 0.69674 0.0
H158 H 0.86635 0.31398 0.6013 0.0
H159 H 0.79093 0.34246 0.77277 0.0
H160 H 0.87739 0.50402 0.72204 0.0
H161 H 0.77359 0.47499 0.7552 0.0
H162 H 0.98145 0.38062 0.4291 0.0
H163 H 0.97477 0.34662 0.61649 0.0
H164 H 0.76406 0.37475 0.44589 0.0
H165 H 0.73693 0.45695 0.56392 0.0
H166 H 0.70607 0.37535 0.40315 0.0
H167 H 0.67929 0.4562 0.51946 0.0
H168 H 0.79168 0.34016 0.37725 0.0
H169 H 0.87535 0.31736 0.49547 0.0
H170 H 0.79034 0.28019 0.34555 0.0
H171 H 0.87279 0.25791 0.46118 0.0
H172 H 0.86309 0.4694 0.27744 0.0
H173 H 0.76418 0.50194 0.33511 0.0
H174 H 0.70992 0.33939 0.6632 0.0
H175 H 0.76398 0.25338 0.59221 0.0
Li176 Li 0.58196 0.8281 0.82735 0.0
Li177 Li 0.62223 0.86727 0.77085 0.0
Li178 Li 0.58981 0.8216 0.71676 0.0
Li179 Li 0.63433 0.80761 0.78779 0.0
C180 C 0.54027 0.86771 0.74418 0.0
N181 N 0.4756 0.87937 0.70238 0.0
C182 C 0.53247 0.89805 0.71497 0.0
C183 C 0.5152 0.84333 0.75234 0.0
C184 C 0.4996 0.90346 0.69413 0.0
C185 C 0.48266 0.8497 0.73081 0.0
C186 C 0.65124 0.83678 0.89335 0.0
C187 C 0.70799 0.84128 0.93241 0.0
N188 N 0.69965 0.82038 0.97925 0.0
C189 C 0.64317 0.81564 0.94228 0.0
C190 C 0.68387 0.84992 0.88863 0.0
C191 C 0.66801 0.80754 0.98507 0.0
C192 C 0.54955 0.79745 0.92541 0.0
N193 N 0.55184 0.8264 0.89263 0.0
C194 C 0.51442 0.85468 0.96043 0.0
C195 C 0.53471 0.85467 0.90856 0.0
C196 C 0.51238 0.82549 0.99674 0.0
C197 C 0.53005 0.79648 0.97825 0.0
H198 H 0.56385 0.7755 0.91156 0.0
H199 H 0.53725 0.87733 0.88145 0.0
C200 C 0.62777 0.93213 0.71813 0.0
N201 N 0.63448 0.9137 0.76895 0.0
C202 C 0.63111 0.96723 0.71921 0.0
C203 C 0.64958 0.96352 0.82408 0.0
C204 C 0.64551 0.92856 0.82116 0.0
C205 C 0.64155 0.98354 0.77314 0.0
H206 H 0.6183 0.91968 0.67767 0.0
H207 H 0.64986 0.91345 0.86141 0.0
C208 C 0.58873 0.75454 0.75746 0.0
N209 N 0.58885 0.69015 0.70936 0.0
C210 C 0.61189 0.74578 0.71219 0.0
C211 C 0.5657 0.73054 0.77858 0.0
C212 C 0.61155 0.71311 0.68837 0.0
C213 C 0.56612 0.69812 0.75359 0.0
C214 C 0.67175 0.83304 0.69009 0.0
C215 C 0.68223 0.80928 0.64691 0.0
C216 C 0.69498 0.85637 0.71292 0.0
C217 C 0.71599 0.80866 0.62864 0.0
C218 C 0.72849 0.85498 0.69343 0.0
N219 N 0.73824 0.8313 0.65214 0.0
C220 C 0.56074 0.84139 0.60462 0.0
C221 C 0.54272 0.78724 0.63647 0.0
C222 C 0.53697 0.84142 0.55734 0.0
N223 N 0.56289 0.81478 0.6437 0.0
C224 C 0.51914 0.78591 0.58899 0.0
C225 C 0.51553 0.81354 0.54947 0.0
H226 H 0.57646 0.86332 0.61197 0.0
H227 H 0.54372 0.76682 0.66886 0.0
C228 C 0.65523 0.75072 0.85175 0.0
N229 N 0.66821 0.77578 0.81634 0.0
C230 C 0.67635 0.7292 0.88448 0.0
C231 C 0.72435 0.75968 0.84521 0.0
C232 C 0.70219 0.7804 0.81216 0.0
C233 C 0.71136 0.73381 0.88226 0.0
H234 H 0.62829 0.74846 0.85743 0.0
H235 H 0.71216 0.80108 0.78575 0.0
O236 O 0.57257 0.86143 0.76285 0.0
O237 O 0.62748 0.84413 0.84992 0.0
O238 O 0.5887 0.7863 0.78178 0.0
O239 O 0.63874 0.83415 0.70834 0.0
H240 H 0.55166 0.91707 0.70801 0.0
H241 H 0.52096 0.81954 0.77424 0.0
H242 H 0.49321 0.92677 0.67123 0.0
H243 H 0.46305 0.83099 0.73646 0.0
H244 H 0.73338 0.85106 0.92897 0.0
H245 H 0.61816 0.80516 0.94672 0.0
H246 H 0.69068 0.8663 0.85124 0.0
H247 H 0.66216 0.79093 0.02277 0.0
H248 H 0.50066 0.87739 0.972 0.0
H249 H 0.52965 0.77356 0.0051 0.0
H250 H 0.62396 0.98145 0.67908 0.0
H251 H 0.6581 0.97476 0.86638 0.0
H252 H 0.62998 0.76399 0.69597 0.0
H253 H 0.54765 0.73696 0.81379 0.0
H254 H 0.62936 0.70599 0.65326 0.0
H255 H 0.5484 0.6793 0.76937 0.0
H256 H 0.66449 0.79164 0.62723 0.0
H257 H 0.68731 0.87532 0.7454 0.0
H258 H 0.72446 0.79028 0.59552 0.0
H259 H 0.74675 0.87275 0.71111 0.0
H260 H 0.53514 0.86316 0.52758 0.0
H261 H 0.50288 0.76408 0.58482 0.0
H262 H 0.66528 0.70991 0.91319 0.0
H263 H 0.75128 0.76396 0.84218 0.0
Li264 Li 0.13739 0.62224 0.02089 0.0
Li265 Li 0.17656 0.58197 0.07742 0.0
Li266 Li 0.19705 0.63433 0.03782 0.0
Li267 Li 0.18305 0.58981 0.96683 0.0
C268 C 0.16787 0.65126 0.14338 0.0
N269 N 0.18426 0.69968 0.22926 0.0
C270 C 0.18903 0.64321 0.19229 0.0
C271 C 0.15472 0.68389 0.13866 0.0
C272 C 0.19712 0.66805 0.23507 0.0
C273 C 0.16335 0.70801 0.18243 0.0
C274 C 0.13693 0.5403 0.99412 0.0
C275 C 0.15488 0.48267 0.98066 0.0
N276 N 0.12525 0.4757 0.95201 0.0
C277 C 0.10664 0.53258 0.96468 0.0
C278 C 0.16125 0.51518 1.00235 0.0
C279 C 0.10122 0.49975 0.9437 0.0
C280 C 0.07254 0.62783 0.96816 0.0
N281 N 0.09096 0.63449 0.01899 0.0
C282 C 0.04114 0.64956 0.07416 0.0
C283 C 0.07609 0.64548 0.07123 0.0
C284 C 0.02112 0.64157 0.02319 0.0
C285 C 0.03743 0.63117 0.96924 0.0
H286 H 0.08499 0.61839 0.92767 0.0
H287 H 0.09121 0.6498 0.1115 0.0
C288 C 0.20721 0.54958 0.17551 0.0
N289 N 0.17827 0.55186 0.14271 0.0
C290 C 0.20817 0.53008 0.22836 0.0
C291 C 0.14998 0.51442 0.2105 0.0
C292 C 0.15 0.53471 0.15863 0.0
C293 C 0.17917 0.5124 0.24683 0.0
H294 H 0.22915 0.56388 0.16168 0.0
H295 H 0.12735 0.53724 0.1315 0.0
C296 C 0.1716 0.67176 0.94013 0.0
N297 N 0.17332 0.73825 0.90218 0.0
C298 C 0.19535 0.68224 0.89693 0.0
C299 C 0.14827 0.69498 0.96298 0.0
C300 C 0.19596 0.716 0.87866 0.0
C301 C 0.14965 0.7285 0.94348 0.0
C302 C 0.25011 0.58873 0.00749 0.0
C303 C 0.25883 0.61186 0.96213 0.0
C304 C 0.27414 0.56575 0.02867 0.0
C305 C 0.2915 0.61152 0.93829 0.0
C306 C 0.30655 0.56618 0.00366 0.0
N307 N 0.31449 0.58887 0.95935 0.0
C308 C 0.25394 0.65524 0.10176 0.0
C309 C 0.22425 0.7022 0.06219 0.0
C310 C 0.27546 0.67635 0.13449 0.0
N311 N 0.22888 0.66821 0.06637 0.0
C312 C 0.24498 0.72436 0.09523 0.0
C313 C 0.27085 0.71137 0.13227 0.0
H314 H 0.2562 0.62829 0.10745 0.0
H315 H 0.20357 0.71217 0.03579 0.0
C316 C 0.16334 0.56083 0.85455 0.0
N317 N 0.18988 0.56289 0.89379 0.0
C318 C 0.16331 0.53706 0.80727 0.0
C319 C 0.21869 0.51903 0.83923 0.0
C320 C 0.21736 0.54262 0.88671 0.0
C321 C 0.19112 0.51552 0.79956 0.0
H322 H 0.14144 0.57662 0.86179 0.0
H323 H 0.23773 0.54353 0.91922 0.0
O324 O 0.16053 0.6275 0.09996 0.0
O325 O 0.14323 0.57257 0.01294 0.0
O326 O 0.1705 0.63875 0.95838 0.0
O327 O 0.21836 0.5887 0.03183 0.0
H328 H 0.19953 0.61821 0.19674 0.0
H329 H 0.13832 0.69069 0.10129 0.0
H330 H 0.21375 0.66221 0.27277 0.0
H331 H 0.15356 0.73341 0.179 0.0
H332 H 0.17355 0.46302 0.98637 0.0
H333 H 0.08766 0.55182 0.95768 0.0
H334 H 0.18501 0.52088 0.02442 0.0
H335 H 0.07795 0.49342 0.92062 0.0
H336 H 0.0299 0.65805 0.11648 0.0
H337 H 0.02322 0.62405 0.92908 0.0
H338 H 0.23108 0.52969 0.25522 0.0
H339 H 0.12728 0.50066 0.22205 0.0
H340 H 0.21299 0.66451 0.87724 0.0
H341 H 0.12933 0.6873 0.99547 0.0
H342 H 0.21433 0.72448 0.84554 0.0
H343 H 0.13188 0.74676 0.96118 0.0
H344 H 0.2406 0.62991 0.94586 0.0
H345 H 0.26775 0.54773 0.06395 0.0
H346 H 0.29859 0.62931 0.90311 0.0
H347 H 0.32539 0.54849 0.01949 0.0
H348 H 0.29475 0.66528 0.1632 0.0
H349 H 0.24069 0.75129 0.0922 0.0
H350 H 0.14161 0.53531 0.77739 0.0
H351 H 0.24047 0.50269 0.83519 0.0
Li352 Li 0.41486 0.82161 0.33381 0.0
Li353 Li 0.37034 0.80762 0.26283 0.0
Li354 Li 0.42271 0.8281 0.22322 0.0
Li355 Li 0.38244 0.86727 0.27976 0.0
C356 C 0.41593 0.75454 0.29317 0.0
N357 N 0.41579 0.69017 0.34132 0.0
C358 C 0.39281 0.74583 0.33853 0.0
C359 C 0.43891 0.73051 0.27199 0.0
C360 C 0.39314 0.71316 0.36238 0.0
C361 C 0.43847 0.6981 0.29701 0.0
C362 C 0.33292 0.83307 0.36052 0.0
C363 C 0.27619 0.85503 0.35716 0.0
N364 N 0.26643 0.83137 0.39847 0.0
C365 C 0.32244 0.80932 0.40372 0.0
C366 C 0.3097 0.8564 0.33766 0.0
C367 C 0.28868 0.80872 0.42199 0.0
C368 C 0.44384 0.84132 0.4461 0.0
N369 N 0.44179 0.81478 0.40686 0.0
C370 C 0.48564 0.78597 0.46141 0.0
C371 C 0.46205 0.7873 0.41393 0.0
C372 C 0.48915 0.81354 0.50109 0.0
C373 C 0.46761 0.84135 0.49338 0.0
H374 H 0.42805 0.86322 0.43886 0.0
H375 H 0.46114 0.76693 0.38142 0.0
C376 C 0.34943 0.75072 0.19889 0.0
N377 N 0.33646 0.77579 0.23428 0.0
C378 C 0.32831 0.72921 0.16616 0.0
C379 C 0.28032 0.75969 0.20542 0.0
C380 C 0.30248 0.78042 0.23846 0.0
C381 C 0.2933 0.73381 0.16839 0.0
H382 H 0.37637 0.74846 0.19321 0.0
H383 H 0.29251 0.8011 0.26486 0.0
C384 C 0.46437 0.86772 0.30653 0.0
N385 N 0.52898 0.8794 0.34865 0.0
C386 C 0.47209 0.89801 0.33597 0.0
C387 C 0.48949 0.8434 0.2983 0.0
C388 C 0.50492 0.90344 0.35696 0.0
C389 C 0.522 0.84977 0.31999 0.0
C390 C 0.35342 0.83679 0.15726 0.0
C391 C 0.36147 0.81563 0.10835 0.0
C392 C 0.3208 0.84995 0.16197 0.0
C393 C 0.33663 0.80754 0.06557 0.0
C394 C 0.29667 0.84131 0.1182 0.0
N395 N 0.305 0.8204 0.07138 0.0
C396 C 0.45509 0.79745 0.12514 0.0
C397 C 0.46996 0.85466 0.14202 0.0
C398 C 0.47459 0.79648 0.07229 0.0
N399 N 0.45281 0.82639 0.15793 0.0
C400 C 0.49025 0.85467 0.09015 0.0
C401 C 0.49227 0.82549 0.05382 0.0
H402 H 0.44079 0.7755 0.13898 0.0
H403 H 0.46743 0.87731 0.16915 0.0
C404 C 0.37686 0.93213 0.33248 0.0
N405 N 0.37019 0.91371 0.28165 0.0
C406 C 0.37352 0.96724 0.3314 0.0
C407 C 0.35512 0.96353 0.22649 0.0
C408 C 0.3592 0.92858 0.22941 0.0
C409 C 0.36312 0.98355 0.27745 0.0
H410 H 0.3863 0.91968 0.37297 0.0
H411 H 0.35488 0.91346 0.18915 0.0
O412 O 0.41597 0.7863 0.26882 0.0
O413 O 0.36593 0.83416 0.34226 0.0
O414 O 0.4321 0.86143 0.2877 0.0
O415 O 0.37718 0.84413 0.20069 0.0
H416 H 0.37476 0.76407 0.3548 0.0
H417 H 0.45692 0.73689 0.2367 0.0
H418 H 0.37536 0.70608 0.39756 0.0
H419 H 0.45616 0.67925 0.28119 0.0
H420 H 0.25793 0.8728 0.33946 0.0
H421 H 0.34016 0.79169 0.42342 0.0
H422 H 0.31738 0.87534 0.30517 0.0
H423 H 0.2802 0.79035 0.45512 0.0
H424 H 0.50198 0.76418 0.46545 0.0
H425 H 0.46936 0.86305 0.52326 0.0
H426 H 0.33938 0.70991 0.13746 0.0
H427 H 0.25339 0.76398 0.20845 0.0
H428 H 0.45286 0.917 0.34298 0.0
H429 H 0.4838 0.81965 0.27623 0.0
H430 H 0.51126 0.92671 0.38005 0.0
H431 H 0.54165 0.83111 0.31429 0.0
H432 H 0.38647 0.80513 0.10392 0.0
H433 H 0.31399 0.86635 0.19934 0.0
H434 H 0.34247 0.79091 0.02788 0.0
H435 H 0.27128 0.85111 0.12163 0.0
H436 H 0.47499 0.77357 0.04543 0.0
H437 H 0.50401 0.87737 0.07859 0.0
H438 H 0.38064 0.98145 0.37156 0.0
H439 H 0.34663 0.97478 0.18417 0.0
Li440 Li 0.18306 0.41485 0.58389 0.0
Li441 Li 0.19705 0.37034 0.51286 0.0
Li442 Li 0.17656 0.42271 0.4733 0.0
Li443 Li 0.1374 0.38243 0.52981 0.0
C444 C 0.25012 0.41594 0.54318 0.0
N445 N 0.3145 0.41583 0.59127 0.0
C446 C 0.25888 0.39278 0.58845 0.0
C447 C 0.27411 0.43898 0.52207 0.0
C448 C 0.29155 0.39313 0.61227 0.0
C449 C 0.30653 0.43856 0.54705 0.0
C450 C 0.17163 0.33291 0.61056 0.0
C451 C 0.1497 0.27616 0.60723 0.0
N452 N 0.17338 0.26642 0.64851 0.0
C453 C 0.1954 0.32243 0.65373 0.0
C454 C 0.1483 0.30968 0.58773 0.0
C455 C 0.19602 0.28867 0.67201 0.0
C456 C 0.16327 0.44393 0.69603 0.0
N457 N 0.18988 0.44178 0.65695 0.0
C458 C 0.21874 0.48553 0.71166 0.0
C459 C 0.21742 0.46194 0.66418 0.0
C460 C 0.19112 0.48914 0.75118 0.0
C461 C 0.16324 0.4677 0.74331 0.0
H462 H 0.14134 0.42821 0.68868 0.0
H463 H 0.23784 0.46095 0.6318 0.0
C464 C 0.25394 0.34944 0.44889 0.0
N465 N 0.22889 0.33646 0.4843 0.0
C466 C 0.27546 0.32833 0.41616 0.0
C467 C 0.245 0.28032 0.45544 0.0
C468 C 0.22427 0.30248 0.48849 0.0
C469 C 0.27086 0.29331 0.41839 0.0
H470 H 0.25619 0.37639 0.44321 0.0
H471 H 0.2036 0.2925 0.5149 0.0
C472 C 0.13695 0.4644 0.55647 0.0
N473 N 0.12529 0.52907 0.59826 0.0
C474 C 0.10661 0.4722 0.58567 0.0
C475 C 0.16133 0.48946 0.54831 0.0
C476 C 0.1012 0.50507 0.6065 0.0
C477 C 0.15496 0.52201 0.56983 0.0
C478 C 0.16788 0.35342 0.4073 0.0
C479 C 0.18902 0.36149 0.35837 0.0
C480 C 0.15475 0.32079 0.41203 0.0
C481 C 0.19712 0.33666 0.31558 0.0
C482 C 0.1634 0.29667 0.36825 0.0
N483 N 0.18428 0.30502 0.3214 0.0
C484 C 0.2072 0.45512 0.37524 0.0
C485 C 0.14998 0.46996 0.39208 0.0
C486 C 0.20817 0.47462 0.3224 0.0
N487 N 0.17826 0.45282 0.40802 0.0
C488 C 0.14997 0.49025 0.34022 0.0
C489 C 0.17917 0.49229 0.30391 0.0
H490 H 0.22915 0.44082 0.38909 0.0
H491 H 0.12733 0.46742 0.41919 0.0
C492 C 0.07254 0.37689 0.58252 0.0
N493 N 0.09097 0.37018 0.53171 0.0
C494 C 0.03744 0.37355 0.58144 0.0
C495 C 0.04115 0.35506 0.47658 0.0
C496 C 0.07611 0.35914 0.4795 0.0
C497 C 0.02113 0.36311 0.52752 0.0
H498 H 0.08499 0.38637 0.62298 0.0
H499 H 0.09122 0.35479 0.43925 0.0
O500 O 0.21836 0.41596 0.51887 0.0
O501 O 0.17051 0.36592 0.59231 0.0
O502 O 0.14323 0.43209 0.53781 0.0
O503 O 0.16053 0.37718 0.45073 0.0
H504 H 0.24067 0.37469 0.60467 0.0
H505 H 0.26769 0.45702 0.48685 0.0
H506 H 0.29867 0.37531 0.64738 0.0
H507 H 0.32535 0.45628 0.53127 0.0
H508 H 0.13193 0.2579 0.58954 0.0
H509 H 0.21303 0.34017 0.67342 0.0
H510 H 0.12935 0.31735 0.55526 0.0
H511 H 0.2144 0.2802 0.70512 0.0
H512 H 0.24058 0.50179 0.71583 0.0
H513 H 0.1415 0.46953 0.77306 0.0
H514 H 0.29475 0.3394 0.38744 0.0
H515 H 0.24072 0.25339 0.45847 0.0
H516 H 0.08759 0.453 0.59262 0.0
H517 H 0.18512 0.48371 0.52642 0.0
H518 H 0.07789 0.51146 0.6294 0.0
H519 H 0.17367 0.54162 0.56417 0.0
H520 H 0.19949 0.3865 0.35392 0.0
H521 H 0.13837 0.31397 0.44942 0.0
H522 H 0.21373 0.34251 0.27787 0.0
H523 H 0.15362 0.27127 0.37169 0.0
H524 H 0.23109 0.47502 0.29556 0.0
H525 H 0.12727 0.50401 0.32864 0.0
H526 H 0.02322 0.38071 0.62157 0.0
H527 H 0.02991 0.34654 0.43428 0.0
Li528 Li 0.63433 0.19706 0.76284 0.0
Li529 Li 0.58981 0.18307 0.83384 0.0
Li530 Li 0.62223 0.1374 0.77977 0.0
Li531 Li 0.58196 0.17658 0.72325 0.0
C532 C 0.67175 0.1716 0.86053 0.0
N533 N 0.73824 0.17332 0.89848 0.0
C534 C 0.68224 0.19536 0.90372 0.0
C535 C 0.69497 0.14827 0.83768 0.0
C536 C 0.71599 0.19596 0.922 0.0
C537 C 0.72849 0.14965 0.85718 0.0
C538 C 0.58874 0.25013 0.79317 0.0
C539 C 0.56618 0.30657 0.79703 0.0
N540 N 0.58888 0.31451 0.84131 0.0
C541 C 0.61188 0.25885 0.83851 0.0
C542 C 0.56575 0.27415 0.77202 0.0
C543 C 0.61155 0.29152 0.86235 0.0
C544 C 0.65524 0.25395 0.69889 0.0
N545 N 0.66821 0.22889 0.73429 0.0
C546 C 0.72436 0.24498 0.70543 0.0
C547 C 0.7022 0.22425 0.73847 0.0
C548 C 0.71137 0.27086 0.66839 0.0
C549 C 0.67636 0.27546 0.66617 0.0
H550 H 0.6283 0.25621 0.69321 0.0
H551 H 0.71216 0.20357 0.76487 0.0
C552 C 0.5608 0.16332 0.94607 0.0
N553 N 0.56289 0.18989 0.90689 0.0
C554 C 0.53703 0.16329 0.99335 0.0
C555 C 0.51907 0.21872 0.9615 0.0
C556 C 0.54266 0.21739 0.91402 0.0
C557 C 0.51552 0.19113 1.00112 0.0
H558 H 0.57656 0.14141 0.93879 0.0
H559 H 0.5436 0.23778 0.88155 0.0
C560 C 0.65125 0.16789 0.65727 0.0
N561 N 0.69967 0.18427 0.57138 0.0
C562 C 0.64319 0.18904 0.60836 0.0
C563 C 0.68387 0.15473 0.66198 0.0
C564 C 0.66803 0.19714 0.56557 0.0
C565 C 0.708 0.16337 0.61821 0.0
C566 C 0.54029 0.13695 0.80651 0.0
C567 C 0.53254 0.10665 0.83587 0.0
C568 C 0.51519 0.1613 0.79831 0.0
C569 C 0.4997 0.10122 0.8568 0.0
C570 C 0.48267 0.15492 0.81994 0.0
N571 N 0.47567 0.12528 0.84852 0.0
C572 C 0.62781 0.07254 0.83249 0.0
C573 C 0.64547 0.0761 0.72942 0.0
C574 C 0.63115 0.03743 0.8314 0.0
N575 N 0.63448 0.09096 0.78166 0.0
C576 C 0.64955 0.04114 0.72649 0.0
C577 C 0.64155 0.02112 0.77745 0.0
H578 H 0.61836 0.08499 0.87297 0.0
H579 H 0.64979 0.09122 0.68916 0.0
C580 C 0.54957 0.20723 0.62517 0.0
N581 N 0.55185 0.17828 0.65796 0.0
C582 C 0.53007 0.20819 0.57232 0.0
C583 C 0.51442 0.15 0.59017 0.0
C584 C 0.53471 0.15001 0.64204 0.0
C585 C 0.51239 0.17919 0.55385 0.0
H586 H 0.56387 0.22917 0.63901 0.0
H587 H 0.53725 0.12736 0.66916 0.0
O588 O 0.63874 0.17051 0.84227 0.0
O589 O 0.58871 0.21837 0.76883 0.0
O590 O 0.62749 0.16054 0.7007 0.0
O591 O 0.57257 0.14325 0.78773 0.0
H592 H 0.66451 0.21299 0.92342 0.0
H593 H 0.6873 0.12933 0.80519 0.0
H594 H 0.72447 0.21433 0.95512 0.0
H595 H 0.74674 0.13188 0.83948 0.0
H596 H 0.54849 0.32541 0.78122 0.0
H597 H 0.62994 0.24062 0.85476 0.0
H598 H 0.54772 0.26776 0.73676 0.0
H599 H 0.62934 0.29862 0.8975 0.0
H600 H 0.75128 0.24069 0.70846 0.0
H601 H 0.66529 0.29476 0.63746 0.0
H602 H 0.53525 0.14158 0.02319 0.0
H603 H 0.50276 0.24053 0.96559 0.0
H604 H 0.61819 0.19954 0.60392 0.0
H605 H 0.69068 0.13833 0.69936 0.0
H606 H 0.66219 0.21376 0.52788 0.0
H607 H 0.73339 0.15357 0.62164 0.0
H608 H 0.55177 0.08765 0.84285 0.0
H609 H 0.5209 0.18506 0.77629 0.0
H610 H 0.49335 0.07794 0.87982 0.0
H611 H 0.46303 0.17361 0.81425 0.0
H612 H 0.62402 0.02322 0.87155 0.0
H613 H 0.65804 0.0299 0.68417 0.0
H614 H 0.52967 0.23111 0.54547 0.0
H615 H 0.50066 0.1273 0.57861 0.0
Li616 Li 0.80762 0.63433 0.01285 0.0
Li617 Li 0.82161 0.58981 0.08387 0.0
Li618 Li 0.86727 0.62224 0.02979 0.0
Li619 Li 0.82811 0.58196 0.97328 0.0
C620 C 0.83305 0.67176 0.11054 0.0
N621 N 0.83131 0.73825 0.14849 0.0
C622 C 0.80929 0.68224 0.15373 0.0
C623 C 0.85638 0.69499 0.0877 0.0
C624 C 0.80867 0.716 0.172 0.0
C625 C 0.85499 0.72851 0.1072 0.0
C626 C 0.75456 0.58873 0.04318 0.0
C627 C 0.69814 0.56613 0.04705 0.0
N628 N 0.69018 0.58885 0.09129 0.0
C629 C 0.74581 0.61188 0.08847 0.0
C630 C 0.73055 0.56571 0.02205 0.0
C631 C 0.71314 0.61154 0.1123 0.0
C632 C 0.75073 0.65523 0.94889 0.0
N633 N 0.77578 0.66821 0.9843 0.0
C634 C 0.75968 0.72435 0.95544 0.0
C635 C 0.78041 0.70219 0.98848 0.0
C636 C 0.73381 0.71136 0.91839 0.0
C637 C 0.72921 0.67635 0.91616 0.0
H638 H 0.74848 0.62829 0.94321 0.0
H639 H 0.80108 0.71217 0.01489 0.0
C640 C 0.84138 0.56076 0.19605 0.0
N641 N 0.8148 0.56289 0.15693 0.0
C642 C 0.84142 0.53699 0.24333 0.0
C643 C 0.78594 0.51911 0.21161 0.0
C644 C 0.78727 0.5427 0.16412 0.0
C645 C 0.81356 0.51552 0.25116 0.0
H646 H 0.86331 0.57649 0.18872 0.0
H647 H 0.76686 0.54368 0.13171 0.0
C648 C 0.83679 0.65125 0.90729 0.0
N649 N 0.82038 0.69966 0.82139 0.0
C650 C 0.81565 0.64318 0.85836 0.0
C651 C 0.84992 0.68388 0.91201 0.0
C652 C 0.80754 0.66802 0.81557 0.0
C653 C 0.84128 0.708 0.86823 0.0
C654 C 0.86773 0.54028 0.05648 0.0
C655 C 0.89805 0.53249 0.08574 0.0
C656 C 0.84336 0.5152 0.04831 0.0
C657 C 0.90347 0.49964 0.1066 0.0
C658 C 0.84973 0.48266 0.06986 0.0
N659 N 0.87939 0.47562 0.09835 0.0
C660 C 0.93213 0.62778 0.08251 0.0
C661 C 0.92857 0.64552 0.97948 0.0
C662 C 0.96723 0.63112 0.08143 0.0
N663 N 0.9137 0.63449 0.03169 0.0
C664 C 0.96352 0.6496 0.97656 0.0
C665 C 0.98354 0.64156 0.0275 0.0
H666 H 0.91968 0.61831 0.12297 0.0
H667 H 0.91345 0.64987 0.93923 0.0
C668 C 0.79747 0.54956 0.87522 0.0
N669 N 0.82641 0.55185 0.908 0.0
C670 C 0.7965 0.53006 0.82238 0.0
C671 C 0.8547 0.51442 0.8402 0.0
C672 C 0.85468 0.53471 0.89207 0.0
C673 C 0.8255 0.51238 0.80389 0.0
H674 H 0.77552 0.56386 0.88907 0.0
H675 H 0.87734 0.53725 0.91918 0.0
O676 O 0.83416 0.63875 0.09229 0.0
O677 O 0.78632 0.58871 0.01886 0.0
O678 O 0.84414 0.62749 0.95072 0.0
O679 O 0.86144 0.57257 0.03778 0.0
H680 H 0.79166 0.6645 0.17342 0.0
H681 H 0.87533 0.68732 0.05523 0.0
H682 H 0.79029 0.72447 0.20512 0.0
H683 H 0.87275 0.74677 0.08951 0.0
H684 H 0.67931 0.54842 0.03126 0.0
H685 H 0.76402 0.62996 0.1047 0.0
H686 H 0.73696 0.54767 0.98682 0.0
H687 H 0.70603 0.62935 0.14743 0.0
H688 H 0.76395 0.75128 0.95846 0.0
H689 H 0.70992 0.66527 0.88745 0.0
H690 H 0.86315 0.53518 0.27311 0.0
H691 H 0.76412 0.50283 0.21575 0.0
H692 H 0.80517 0.61817 0.85392 0.0
H693 H 0.86631 0.6907 0.94939 0.0
H694 H 0.79093 0.66217 0.77787 0.0
H695 H 0.85105 0.7334 0.87166 0.0
H696 H 0.91707 0.5517 0.0927 0.0
H697 H 0.81958 0.52094 0.02637 0.0
H698 H 0.92677 0.49325 0.12954 0.0
H699 H 0.83103 0.46304 0.0642 0.0
H700 H 0.98145 0.62397 0.12156 0.0
H701 H 0.97476 0.65812 0.93426 0.0
H702 H 0.77358 0.52965 0.79553 0.0
H703 H 0.8774 0.50066 0.82863 0.0
loop_
_geom_bond_atom_site_label_1
_geom_bond_atom_site_label_2
_geom_bond_distance
_geom_bond_site_symmetry_2
_ccdc_geom_bond_type
Li0 N17 1.990 . S
Li0 O60 1.956 . S
Li0 O61 1.970 . S
Li0 O62 1.961 . S
Li1 N25 1.990 . S
Li1 O60 1.970 . S
Li1 O61 1.956 . S
Li1 O63 1.961 . S
Li2 N47 1.990 . S
Li2 O60 1.961 . S
Li2 O62 1.956 . S
Li2 O63 1.970 . S
Li3 N53 1.990 . S
Li3 O61 1.961 . S
Li3 O62 1.970 . S
Li3 O63 1.956 . S
C4 C6 1.348 . S
C4 C7 1.356 . S
C4 O60 1.325 . S
N5 C8 1.314 . S
N5 C9 1.279 . S
C6 C4 1.348 . S
C6 C8 1.353 . S
C6 H64 0.929 . S
C7 C4 1.356 . S
C7 C9 1.358 . S
C7 H65 0.930 . S
C8 N5 1.314 . S
C8 C6 1.353 . S
C8 H66 0.930 . S
C9 N5 1.279 . S
C9 C7 1.358 . S
C9 H67 0.930 . S
C10 C13 1.348 . S
C10 C14 1.356 . S
C10 O61 1.325 . S
C11 N12 1.279 . S
C11 C14 1.358 . S
C11 H68 0.930 . S
N12 C11 1.279 . S
N12 C15 1.314 . S
C13 C10 1.348 . S
C13 C15 1.353 . S
C13 H69 0.929 . S
C14 C10 1.356 . S
C14 C11 1.358 . S
C14 H70 0.930 . S
C15 N12 1.314 . S
C15 C13 1.353 . S
C15 H71 0.930 . S
C16 N17 1.314 . S
C16 C21 1.353 . S
C16 H22 0.930 . S
N17 Li0 1.990 . S
N17 C16 1.314 . S
N17 C19 1.279 . S
C18 C19 1.358 . S
C18 C20 1.356 . S
C18 H72 0.930 . S
C19 N17 1.279 . S
C19 C18 1.358 . S
C19 H23 0.930 . S
C20 C18 1.356 . S
C20 C21 1.348 . S
C21 C16 1.353 . S
C21 C20 1.348 . S
C21 H73 0.929 . S
H22 C16 0.930 . S
H23 C19 0.930 . S
C24 N25 1.314 . S
C24 C26 1.353 . S
C24 H30 0.930 . S
N25 Li1 1.990 . S
N25 C24 1.314 . S
N25 C28 1.279 . S
C26 C24 1.353 . S
C26 C29 1.348 . S
C26 H74 0.929 . S
C27 C28 1.358 . S
C27 C29 1.356 . S
C27 H75 0.930 . S
C28 N25 1.279 . S
C28 C27 1.358 . S
C28 H31 0.930 . S
C29 C26 1.348 . S
C29 C27 1.356 . S
H30 C24 0.930 . S
H31 C28 0.930 . S
C32 C34 1.348 . S
C32 C35 1.356 . S
C32 O62 1.325 . S
N33 C36 1.314 . S
N33 C37 1.279 . S
C34 C32 1.348 . S
C34 C36 1.353 . S
C34 H76 0.929 . S
C35 C32 1.356 . S
C35 C37 1.358 . S
C35 H77 0.930 . S
C36 N33 1.314 . S
C36 C34 1.353 . S
C36 H78 0.930 . S
C37 N33 1.279 . S
C37 C35 1.358 . S
C37 H79 0.930 . S
C38 C39 1.348 . S
C38 C40 1.356 . S
C38 O63 1.325 . S
C39 C38 1.348 . S
C39 C41 1.353 . S
C39 H80 0.929 . S
C40 C38 1.356 . S
C40 C42 1.358 . S
C40 H81 0.930 . S
C41 C39 1.353 . S
C41 N43 1.314 . S
C41 H82 0.930 . S
C42 C40 1.358 . S
C42 N43 1.279 . S
C42 H83 0.930 . S
N43 C41 1.314 . S
N43 C42 1.279 . S
C44 C46 1.353 . S
C44 N47 1.314 . S
C44 H50 0.930 . S
C45 N47 1.279 . S
C45 C48 1.358 . S
C45 H51 0.930 . S
C46 C44 1.353 . S
C46 C49 1.348 . S
C46 H84 0.929 . S
N47 Li2 1.990 . S
N47 C44 1.314 . S
N47 C45 1.279 . S
C48 C45 1.358 . S
C48 C49 1.356 . S
C48 H85 0.930 . S
C49 C46 1.348 . S
C49 C48 1.356 . S
H50 C44 0.930 . S
H51 C45 0.930 . S
C52 N53 1.314 . S
C52 C54 1.353 . S
C52 H58 0.930 . S
N53 Li3 1.990 . S
N53 C52 1.314 . S
N53 C56 1.279 . S
C54 C52 1.353 . S
C54 C57 1.348 . S
C54 H86 0.929 . S
C55 C56 1.358 . S
C55 C57 1.356 . S
C55 H87 0.930 . S
C56 N53 1.279 . S
C56 C55 1.358 . S
C56 H59 0.930 . S
C57 C54 1.348 . S
C57 C55 1.356 . S
H58 C52 0.930 . S
H59 C56 0.930 . S
O60 Li0 1.956 . S
O60 Li1 1.970 . S
O60 Li2 1.961 . S
O60 C4 1.325 . S
O61 Li0 1.970 . S
O61 Li1 1.956 . S
O61 Li3 1.961 . S
O61 C10 1.325 . S
O62 Li0 1.961 . S
O62 Li2 1.956 . S
O62 Li3 1.970 . S
O62 C32 1.325 . S
O63 Li1 1.961 . S
O63 Li2 1.970 . S
O63 Li3 1.956 . S
O63 C38 1.325 . S
H64 C6 0.929 . S
H65 C7 0.930 . S
H66 C8 0.930 . S
H67 C9 0.930 . S
H68 C11 0.930 . S
H69 C13 0.929 . S
H70 C14 0.930 . S
H71 C15 0.930 . S
H72 C18 0.930 . S
H73 C21 0.929 . S
H74 C26 0.929 . S
H75 C27 0.930 . S
H76 C34 0.929 . S
H77 C35 0.930 . S
H78 C36 0.930 . S
H79 C37 0.930 . S
H80 C39 0.929 . S
H81 C40 0.930 . S
H82 C41 0.930 . S
H83 C42 0.930 . S
H84 C46 0.929 . S
H85 C48 0.930 . S
H86 C54 0.929 . S
H87 C55 0.930 . S
Li88 N105 1.990 . S
Li88 O148 1.956 . S
Li88 O149 1.970 . S
Li88 O150 1.961 . S
Li89 N113 1.990 . S
Li89 O148 1.970 . S
Li89 O149 1.956 . S
Li89 O151 1.961 . S
Li90 N135 1.990 . S
Li90 O148 1.961 . S
Li90 O150 1.956 . S
Li90 O151 1.970 . S
Li91 N141 1.990 . S
Li91 O149 1.961 . S
Li91 O150 1.970 . S
Li91 O151 1.956 . S
C92 C94 1.348 . S
C92 C95 1.356 . S
C92 O148 1.325 . S
N93 C96 1.314 . S
N93 C97 1.279 . S
C94 C92 1.348 . S
C94 C96 1.353 . S
C94 H152 0.929 . S
C95 C92 1.356 . S
C95 C97 1.358 . S
C95 H153 0.930 . S
C96 N93 1.314 . S
C96 C94 1.353 . S
C96 H154 0.930 . S
C97 N93 1.279 . S
C97 C95 1.358 . S
C97 H155 0.930 . S
C98 C101 1.348 . S
C98 C102 1.356 . S
C98 O149 1.325 . S
C99 N100 1.279 . S
C99 C102 1.358 . S
C99 H156 0.930 . S
N100 C99 1.279 . S
N100 C103 1.314 . S
C101 C98 1.348 . S
C101 C103 1.353 . S
C101 H157 0.929 . S
C102 C98 1.356 . S
C102 C99 1.358 . S
C102 H158 0.930 . S
C103 N100 1.314 . S
C103 C101 1.353 . S
C103 H159 0.930 . S
C104 N105 1.314 . S
C104 C109 1.353 . S
C104 H110 0.930 . S
N105 Li88 1.990 . S
N105 C104 1.314 . S
N105 C107 1.279 . S
C106 C107 1.358 . S
C106 C108 1.356 . S
C106 H160 0.930 . S
C107 N105 1.279 . S
C107 C106 1.358 . S
C107 H111 0.930 . S
C108 C106 1.356 . S
C108 C109 1.348 . S
C109 C104 1.353 . S
C109 C108 1.348 . S
C109 H161 0.929 . S
H110 C104 0.930 . S
H111 C107 0.930 . S
C112 N113 1.314 . S
C112 C114 1.353 . S
C112 H118 0.930 . S
N113 Li89 1.990 . S
N113 C112 1.314 . S
N113 C116 1.279 . S
C114 C112 1.353 . S
C114 C117 1.348 . S
C114 H162 0.929 . S
C115 C116 1.358 . S
C115 C117 1.356 . S
C115 H163 0.930 . S
C116 N113 1.279 . S
C116 C115 1.358 . S
C116 H119 0.930 . S
C117 C114 1.348 . S
C117 C115 1.356 . S
H118 C112 0.930 . S
H119 C116 0.930 . S
C120 C122 1.348 . S
C120 C123 1.356 . S
C120 O150 1.325 . S
N121 C124 1.314 . S
N121 C125 1.279 . S
C122 C120 1.348 . S
C122 C124 1.353 . S
C122 H164 0.929 . S
C123 C120 1.356 . S
C123 C125 1.358 . S
C123 H165 0.930 . S
C124 N121 1.314 . S
C124 C122 1.353 . S
C124 H166 0.930 . S
C125 N121 1.279 . S
C125 C123 1.358 . S
C125 H167 0.930 . S
C126 C127 1.348 . S
C126 C128 1.356 . S
C126 O151 1.325 . S
C127 C126 1.348 . S
C127 C129 1.353 . S
C127 H168 0.929 . S
C128 C126 1.356 . S
C128 C130 1.358 . S
C128 H169 0.930 . S
C129 C127 1.353 . S
C129 N131 1.314 . S
C129 H170 0.930 . S
C130 C128 1.358 . S
C130 N131 1.279 . S
C130 H171 0.930 . S
N131 C129 1.314 . S
N131 C130 1.279 . S
C132 C134 1.353 . S
C132 N135 1.314 . S
C132 H138 0.930 . S
C133 N135 1.279 . S
C133 C136 1.358 . S
C133 H139 0.930 . S
C134 C132 1.353 . S
C134 C137 1.348 . S
C134 H172 0.929 . S
N135 Li90 1.990 . S
N135 C132 1.314 . S
N135 C133 1.279 . S
C136 C133 1.358 . S
C136 C137 1.356 . S
C136 H173 0.930 . S
C137 C134 1.348 . S
C137 C136 1.356 . S
H138 C132 0.930 . S
H139 C133 0.930 . S
C140 N141 1.314 . S
C140 C142 1.353 . S
C140 H146 0.930 . S
N141 Li91 1.990 . S
N141 C140 1.314 . S
N141 C144 1.279 . S
C142 C140 1.353 . S
C142 C145 1.348 . S
C142 H174 0.929 . S
C143 C144 1.358 . S
C143 C145 1.356 . S
C143 H175 0.930 . S
C144 N141 1.279 . S
C144 C143 1.358 . S
C144 H147 0.930 . S
C145 C142 1.348 . S
C145 C143 1.356 . S
H146 C140 0.930 . S
H147 C144 0.930 . S
O148 Li88 1.956 . S
O148 Li89 1.970 . S
O148 Li90 1.961 . S
O148 C92 1.325 . S
O149 Li88 1.970 . S
O149 Li89 1.956 . S
O149 Li91 1.961 . S
O149 C98 1.325 . S
O150 Li88 1.961 . S
O150 Li90 1.956 . S
O150 Li91 1.970 . S
O150 C120 1.325 . S
O151 Li89 1.961 . S
O151 Li90 1.970 . S
O151 Li91 1.956 . S
O151 C126 1.325 . S
H152 C94 0.929 . S
H153 C95 0.930 . S
H154 C96 0.930 . S
H155 C97 0.930 . S
H156 C99 0.930 . S
H157 C101 0.929 . S
H158 C102 0.930 . S
H159 C103 0.930 . S
H160 C106 0.930 . S
H161 C109 0.929 . S
H162 C114 0.929 . S
H163 C115 0.930 . S
H164 C122 0.929 . S
H165 C123 0.930 . S
H166 C124 0.930 . S
H167 C125 0.930 . S
H168 C127 0.929 . S
H169 C128 0.930 . S
H170 C129 0.930 . S
H171 C130 0.930 . S
H172 C134 0.929 . S
H173 C136 0.930 . S
H174 C142 0.929 . S
H175 C143 0.930 . S
Li176 N193 1.990 . S
Li176 O236 1.956 . S
Li176 O237 1.970 . S
Li176 O238 1.961 . S
Li177 N201 1.990 . S
Li177 O236 1.970 . S
Li177 O237 1.956 . S
Li177 O239 1.961 . S
Li178 N223 1.990 . S
Li178 O236 1.961 . S
Li178 O238 1.956 . S
Li178 O239 1.970 . S
Li179 N229 1.990 . S
Li179 O237 1.961 . S
Li179 O238 1.970 . S
Li179 O239 1.956 . S
C180 C182 1.348 . S
C180 C183 1.356 . S
C180 O236 1.325 . S
N181 C184 1.314 . S
N181 C185 1.279 . S
C182 C180 1.348 . S
C182 C184 1.353 . S
C182 H240 0.929 . S
C183 C180 1.356 . S
C183 C185 1.358 . S
C183 H241 0.930 . S
C184 N181 1.314 . S
C184 C182 1.353 . S
C184 H242 0.930 . S
C185 N181 1.279 . S
C185 C183 1.358 . S
C185 H243 0.930 . S
C186 C189 1.348 . S
C186 C190 1.356 . S
C186 O237 1.325 . S
C187 N188 1.279 1_556 S
C187 C190 1.358 . S
C187 H244 0.930 . S
N188 C187 1.279 1_554 S
N188 C191 1.314 . S
C189 C186 1.348 . S
C189 C191 1.353 1_556 S
C189 H245 0.929 . S
C190 C186 1.356 . S
C190 C187 1.358 . S
C190 H246 0.930 . S
C191 N188 1.314 . S
C191 C189 1.353 1_554 S
C191 H247 0.930 . S
C192 N193 1.314 . S
C192 C197 1.353 . S
C192 H198 0.930 . S
N193 Li176 1.990 . S
N193 C192 1.314 . S
N193 C195 1.279 . S
C194 C195 1.358 . S
C194 C196 1.356 1_556 S
C194 H248 0.930 . S
C195 N193 1.279 . S
C195 C194 1.358 . S
C195 H199 0.930 . S
C196 C194 1.356 1_554 S
C196 C197 1.348 1_554 S
C197 C192 1.353 . S
C197 C196 1.348 1_556 S
C197 H249 0.929 1_556 S
H198 C192 0.930 . S
H199 C195 0.930 . S
C200 N201 1.314 . S
C200 C202 1.353 . S
C200 H206 0.930 . S
N201 Li177 1.990 . S
N201 C200 1.314 . S
N201 C204 1.279 . S
C202 C200 1.353 . S
C202 C205 1.348 . S
C202 H250 0.929 . S
C203 C204 1.358 . S
C203 C205 1.356 . S
C203 H251 0.930 . S
C204 N201 1.279 . S
C204 C203 1.358 . S
C204 H207 0.930 . S
C205 C202 1.348 . S
C205 C203 1.356 . S
H206 C200 0.930 . S
H207 C204 0.930 . S
C208 C210 1.348 . S
C208 C211 1.356 . S
C208 O238 1.325 . S
N209 C212 1.314 . S
N209 C213 1.279 . S
C210 C208 1.348 . S
C210 C212 1.353 . S
C210 H252 0.929 . S
C211 C208 1.356 . S
C211 C213 1.358 . S
C211 H253 0.930 . S
C212 N209 1.314 . S
C212 C210 1.353 . S
C212 H254 0.930 . S
C213 N209 1.279 . S
C213 C211 1.358 . S
C213 H255 0.930 . S
C214 C215 1.348 . S
C214 C216 1.356 . S
C214 O239 1.325 . S
C215 C214 1.348 . S
C215 C217 1.353 . S
C215 H256 0.929 . S
C216 C214 1.356 . S
C216 C218 1.358 . S
C216 H257 0.930 . S
C217 C215 1.353 . S
C217 N219 1.314 . S
C217 H258 0.930 . S
C218 C216 1.358 . S
C218 N219 1.279 . S
C218 H259 0.930 . S
N219 C217 1.314 . S
N219 C218 1.279 . S
C220 C222 1.353 . S
C220 N223 1.314 . S
C220 H226 0.930 . S
C221 N223 1.279 . S
C221 C224 1.358 . S
C221 H227 0.930 . S
C222 C220 1.353 . S
C222 C225 1.348 . S
C222 H260 0.929 . S
N223 Li178 1.990 . S
N223 C220 1.314 . S
N223 C221 1.279 . S
C224 C221 1.358 . S
C224 C225 1.356 . S
C224 H261 0.930 . S
C225 C222 1.348 . S
C225 C224 1.356 . S
H226 C220 0.930 . S
H227 C221 0.930 . S
C228 N229 1.314 . S
C228 C230 1.353 . S
C228 H234 0.930 . S
N229 Li179 1.990 . S
N229 C228 1.314 . S
N229 C232 1.279 . S
C230 C228 1.353 . S
C230 C233 1.348 . S
C230 H262 0.929 . S
C231 C232 1.358 . S
C231 C233 1.356 . S
C231 H263 0.930 . S
C232 N229 1.279 . S
C232 C231 1.358 . S
C232 H235 0.930 . S
C233 C230 1.348 . S
C233 C231 1.356 . S
H234 C228 0.930 . S
H235 C232 0.930 . S
O236 Li176 1.956 . S
O236 Li177 1.970 . S
O236 Li178 1.961 . S
O236 C180 1.325 . S
O237 Li176 1.970 . S
O237 Li177 1.956 . S
O237 Li179 1.961 . S
O237 C186 1.325 . S
O238 Li176 1.961 . S
O238 Li178 1.956 . S
O238 Li179 1.970 . S
O238 C208 1.325 . S
O239 Li177 1.961 . S
O239 Li178 1.970 . S
O239 Li179 1.956 . S
O239 C214 1.325 . S
H240 C182 0.929 . S
H241 C183 0.930 . S
H242 C184 0.930 . S
H243 C185 0.930 . S
H244 C187 0.930 . S
H245 C189 0.929 . S
H246 C190 0.930 . S
H247 C191 0.930 . S
H248 C194 0.930 . S
H249 C197 0.929 1_554 S
H250 C202 0.929 . S
H251 C203 0.930 . S
H252 C210 0.929 . S
H253 C211 0.930 . S
H254 C212 0.930 . S
H255 C213 0.930 . S
H256 C215 0.929 . S
H257 C216 0.930 . S
H258 C217 0.930 . S
H259 C218 0.930 . S
H260 C222 0.929 . S
H261 C224 0.930 . S
H262 C230 0.929 . S
H263 C231 0.930 . S
Li264 N281 1.990 . S
Li264 O324 1.956 . S
Li264 O325 1.970 . S
Li264 O326 1.961 1_554 S
Li265 N289 1.990 . S
Li265 O324 1.970 . S
Li265 O325 1.956 . S
Li265 O327 1.961 . S
Li266 N311 1.990 . S
Li266 O324 1.961 . S
Li266 O326 1.956 1_554 S
Li266 O327 1.970 . S
Li267 N317 1.990 . S
Li267 O325 1.961 1_556 S
Li267 O326 1.970 . S
Li267 O327 1.956 1_556 S
C268 C270 1.348 . S
C268 C271 1.356 . S
C268 O324 1.325 . S
N269 C272 1.314 . S
N269 C273 1.279 . S
C270 C268 1.348 . S
C270 C272 1.353 . S
C270 H328 0.929 . S
C271 C268 1.356 . S
C271 C273 1.358 . S
C271 H329 0.930 . S
C272 N269 1.314 . S
C272 C270 1.353 . S
C272 H330 0.930 . S
C273 N269 1.279 . S
C273 C271 1.358 . S
C273 H331 0.930 . S
C274 C277 1.348 . S
C274 C278 1.356 1_554 S
C274 O325 1.325 . S
C275 N276 1.279 1_556 S
C275 C278 1.358 . S
C275 H332 0.930 . S
N276 C275 1.279 1_554 S
N276 C279 1.314 . S
C277 C274 1.348 . S
C277 C279 1.353 . S
C277 H333 0.929 . S
C278 C274 1.356 1_556 S
C278 C275 1.358 . S
C278 H334 0.930 . S
C279 N276 1.314 . S
C279 C277 1.353 . S
C279 H335 0.930 . S
C280 N281 1.314 1_556 S
C280 C285 1.353 . S
C280 H286 0.930 . S
N281 Li264 1.990 . S
N281 C280 1.314 1_554 S
N281 C283 1.279 . S
C282 C283 1.358 . S
C282 C284 1.356 . S
C282 H336 0.930 . S
C283 N281 1.279 . S
C283 C282 1.358 . S
C283 H287 0.930 . S
C284 C282 1.356 . S
C284 C285 1.348 1_554 S
C285 C280 1.353 . S
C285 C284 1.348 1_556 S
C285 H337 0.929 . S
H286 C280 0.930 . S
H287 C283 0.930 . S
C288 N289 1.314 . S
C288 C290 1.353 . S
C288 H294 0.930 . S
N289 Li265 1.990 . S
N289 C288 1.314 . S
N289 C292 1.279 . S
C290 C288 1.353 . S
C290 C293 1.348 . S
C290 H338 0.929 . S
C291 C292 1.358 . S
C291 C293 1.356 . S
C291 H339 0.930 . S
C292 N289 1.279 . S
C292 C291 1.358 . S
C292 H295 0.930 . S
C293 C290 1.348 . S
C293 C291 1.356 . S
H294 C288 0.930 . S
H295 C292 0.930 . S
C296 C298 1.348 . S
C296 C299 1.356 . S
C296 O326 1.325 . S
N297 C300 1.314 . S
N297 C301 1.279 . S
C298 C296 1.348 . S
C298 C300 1.353 . S
C298 H340 0.929 . S
C299 C296 1.356 . S
C299 C301 1.358 . S
C299 H341 0.930 . S
C300 N297 1.314 . S
C300 C298 1.353 . S
C300 H342 0.930 . S
C301 N297 1.279 . S
C301 C299 1.358 . S
C301 H343 0.930 . S
C302 C303 1.348 . S
C302 C304 1.356 . S
C302 O327 1.325 . S
C303 C302 1.348 . S
C303 C305 1.353 . S
C303 H344 0.929 . S
C304 C302 1.356 . S
C304 C306 1.358 . S
C304 H345 0.930 . S
C305 C303 1.353 . S
C305 N307 1.314 . S
C305 H346 0.930 . S
C306 C304 1.358 . S
C306 N307 1.279 . S
C306 H347 0.930 . S
N307 C305 1.314 . S
N307 C306 1.279 . S
C308 C310 1.353 . S
C308 N311 1.314 . S
C308 H314 0.930 . S
C309 N311 1.279 . S
C309 C312 1.358 . S
C309 H315 0.930 1_554 S
C310 C308 1.353 . S
C310 C313 1.348 . S
C310 H348 0.929 . S
N311 Li266 1.990 . S
N311 C308 1.314 . S
N311 C309 1.279 . S
C312 C309 1.358 . S
C312 C313 1.356 . S
C312 H349 0.930 1_554 S
C313 C310 1.348 . S
C313 C312 1.356 . S
H314 C308 0.930 . S
H315 C309 0.930 1_556 S
C316 N317 1.314 . S
C316 C318 1.353 . S
C316 H322 0.930 . S
N317 Li267 1.990 . S
N317 C316 1.314 . S
N317 C320 1.279 . S
C318 C316 1.353 . S
C318 C321 1.348 . S
C318 H350 0.929 . S
C319 C320 1.358 . S
C319 C321 1.356 . S
C319 H351 0.930 . S
C320 N317 1.279 . S
C320 C319 1.358 . S
C320 H323 0.930 . S
C321 C318 1.348 . S
C321 C319 1.356 . S
H322 C316 0.930 . S
H323 C320 0.930 . S
O324 Li264 1.956 . S
O324 Li265 1.970 . S
O324 Li266 1.961 . S
O324 C268 1.325 . S
O325 Li264 1.970 . S
O325 Li265 1.956 . S
O325 Li267 1.961 1_554 S
O325 C274 1.325 . S
O326 Li264 1.961 1_556 S
O326 Li266 1.956 1_556 S
O326 Li267 1.970 . S
O326 C296 1.325 . S
O327 Li265 1.961 . S
O327 Li266 1.970 . S
O327 Li267 1.956 1_554 S
O327 C302 1.325 . S
H328 C270 0.929 . S
H329 C271 0.930 . S
H330 C272 0.930 . S
H331 C273 0.930 . S
H332 C275 0.930 . S
H333 C277 0.929 . S
H334 C278 0.930 . S
H335 C279 0.930 . S
H336 C282 0.930 . S
H337 C285 0.929 . S
H338 C290 0.929 . S
H339 C291 0.930 . S
H340 C298 0.929 . S
H341 C299 0.930 . S
H342 C300 0.930 . S
H343 C301 0.930 . S
H344 C303 0.929 . S
H345 C304 0.930 . S
H346 C305 0.930 . S
H347 C306 0.930 . S
H348 C310 0.929 . S
H349 C312 0.930 1_556 S
H350 C318 0.929 . S
H351 C319 0.930 . S
Li352 N369 1.990 . S
Li352 O412 1.956 . S
Li352 O413 1.970 . S
Li352 O414 1.961 . S
Li353 N377 1.990 . S
Li353 O412 1.970 . S
Li353 O413 1.956 . S
Li353 O415 1.961 . S
Li354 N399 1.990 . S
Li354 O412 1.961 . S
Li354 O414 1.956 . S
Li354 O415 1.970 . S
Li355 N405 1.990 . S
Li355 O413 1.961 . S
Li355 O414 1.970 . S
Li355 O415 1.956 . S
C356 C358 1.348 . S
C356 C359 1.356 . S
C356 O412 1.325 . S
N357 C360 1.314 . S
N357 C361 1.279 . S
C358 C356 1.348 . S
C358 C360 1.353 . S
C358 H416 0.929 . S
C359 C356 1.356 . S
C359 C361 1.358 . S
C359 H417 0.930 . S
C360 N357 1.314 . S
C360 C358 1.353 . S
C360 H418 0.930 . S
C361 N357 1.279 . S
C361 C359 1.358 . S
C361 H419 0.930 . S
C362 C365 1.348 . S
C362 C366 1.356 . S
C362 O413 1.325 . S
C363 N364 1.279 . S
C363 C366 1.358 . S
C363 H420 0.930 . S
N364 C363 1.279 . S
N364 C367 1.314 . S
C365 C362 1.348 . S
C365 C367 1.353 . S
C365 H421 0.929 . S
C366 C362 1.356 . S
C366 C363 1.358 . S
C366 H422 0.930 . S
C367 N364 1.314 . S
C367 C365 1.353 . S
C367 H423 0.930 . S
C368 N369 1.314 . S
C368 C373 1.353 . S
C368 H374 0.930 . S
N369 Li352 1.990 . S
N369 C368 1.314 . S
N369 C371 1.279 . S
C370 C371 1.358 . S
C370 C372 1.356 . S
C370 H424 0.930 . S
C371 N369 1.279 . S
C371 C370 1.358 . S
C371 H375 0.930 . S
C372 C370 1.356 . S
C372 C373 1.348 . S
C373 C368 1.353 . S
C373 C372 1.348 . S
C373 H425 0.929 . S
H374 C368 0.930 . S
H375 C371 0.930 . S
C376 N377 1.314 . S
C376 C378 1.353 . S
C376 H382 0.930 . S
N377 Li353 1.990 . S
N377 C376 1.314 . S
N377 C380 1.279 . S
C378 C376 1.353 . S
C378 C381 1.348 . S
C378 H426 0.929 . S
C379 C380 1.358 . S
C379 C381 1.356 . S
C379 H427 0.930 . S
C380 N377 1.279 . S
C380 C379 1.358 . S
C380 H383 0.930 . S
C381 C378 1.348 . S
C381 C379 1.356 . S
H382 C376 0.930 . S
H383 C380 0.930 . S
C384 C386 1.348 . S
C384 C387 1.356 . S
C384 O414 1.325 . S
N385 C388 1.314 . S
N385 C389 1.279 . S
C386 C384 1.348 . S
C386 C388 1.353 . S
C386 H428 0.929 . S
C387 C384 1.356 . S
C387 C389 1.358 . S
C387 H429 0.930 . S
C388 N385 1.314 . S
C388 C386 1.353 . S
C388 H430 0.930 . S
C389 N385 1.279 . S
C389 C387 1.358 . S
C389 H431 0.930 . S
C390 C391 1.348 . S
C390 C392 1.356 . S
C390 O415 1.325 . S
C391 C390 1.348 . S
C391 C393 1.353 . S
C391 H432 0.929 . S
C392 C390 1.356 . S
C392 C394 1.358 . S
C392 H433 0.930 . S
C393 C391 1.353 . S
C393 N395 1.314 . S
C393 H434 0.930 . S
C394 C392 1.358 . S
C394 N395 1.279 . S
C394 H435 0.930 . S
N395 C393 1.314 . S
N395 C394 1.279 . S
C396 C398 1.353 . S
C396 N399 1.314 . S
C396 H402 0.930 . S
C397 N399 1.279 . S
C397 C400 1.358 . S
C397 H403 0.930 . S
C398 C396 1.353 . S
C398 C401 1.348 . S
C398 H436 0.929 . S
N399 Li354 1.990 . S
N399 C396 1.314 . S
N399 C397 1.279 . S
C400 C397 1.358 . S
C400 C401 1.356 . S
C400 H437 0.930 . S
C401 C398 1.348 . S
C401 C400 1.356 . S
H402 C396 0.930 . S
H403 C397 0.930 . S
C404 N405 1.314 . S
C404 C406 1.353 . S
C404 H410 0.930 . S
N405 Li355 1.990 . S
N405 C404 1.314 . S
N405 C408 1.279 . S
C406 C404 1.353 . S
C406 C409 1.348 . S
C406 H438 0.929 . S
C407 C408 1.358 . S
C407 C409 1.356 . S
C407 H439 0.930 . S
C408 N405 1.279 . S
C408 C407 1.358 . S
C408 H411 0.930 . S
C409 C406 1.348 . S
C409 C407 1.356 . S
H410 C404 0.930 . S
H411 C408 0.930 . S
O412 Li352 1.956 . S
O412 Li353 1.970 . S
O412 Li354 1.961 . S
O412 C356 1.325 . S
O413 Li352 1.970 . S
O413 Li353 1.956 . S
O413 Li355 1.961 . S
O413 C362 1.325 . S
O414 Li352 1.961 . S
O414 Li354 1.956 . S
O414 Li355 1.970 . S
O414 C384 1.325 . S
O415 Li353 1.961 . S
O415 Li354 1.970 . S
O415 Li355 1.956 . S
O415 C390 1.325 . S
H416 C358 0.929 . S
H417 C359 0.930 . S
H418 C360 0.930 . S
H419 C361 0.930 . S
H420 C363 0.930 . S
H421 C365 0.929 . S
H422 C366 0.930 . S
H423 C367 0.930 . S
H424 C370 0.930 . S
H425 C373 0.929 . S
H426 C378 0.929 . S
H427 C379 0.930 . S
H428 C386 0.929 . S
H429 C387 0.930 . S
H430 C388 0.930 . S
H431 C389 0.930 . S
H432 C391 0.929 . S
H433 C392 0.930 . S
H434 C393 0.930 . S
H435 C394 0.930 . S
H436 C398 0.929 . S
H437 C400 0.930 . S
H438 C406 0.929 . S
H439 C407 0.930 . S
Li440 N457 1.990 . S
Li440 O500 1.956 . S
Li440 O501 1.970 . S
Li440 O502 1.961 . S
Li441 N465 1.990 . S
Li441 O500 1.970 . S
Li441 O501 1.956 . S
Li441 O503 1.961 . S
Li442 N487 1.990 . S
Li442 O500 1.961 . S
Li442 O502 1.956 . S
Li442 O503 1.970 . S
Li443 N493 1.990 . S
Li443 O501 1.961 . S
Li443 O502 1.970 . S
Li443 O503 1.956 . S
C444 C446 1.348 . S
C444 C447 1.356 . S
C444 O500 1.325 . S
N445 C448 1.314 . S
N445 C449 1.279 . S
C446 C444 1.348 . S
C446 C448 1.353 . S
C446 H504 0.929 . S
C447 C444 1.356 . S
C447 C449 1.358 . S
C447 H505 0.930 . S
C448 N445 1.314 . S
C448 C446 1.353 . S
C448 H506 0.930 . S
C449 N445 1.279 . S
C449 C447 1.358 . S
C449 H507 0.930 . S
C450 C453 1.348 . S
C450 C454 1.356 . S
C450 O501 1.325 . S
C451 N452 1.279 . S
C451 C454 1.358 . S
C451 H508 0.930 . S
N452 C451 1.279 . S
N452 C455 1.314 . S
C453 C450 1.348 . S
C453 C455 1.353 . S
C453 H509 0.929 . S
C454 C450 1.356 . S
C454 C451 1.358 . S
C454 H510 0.930 . S
C455 N452 1.314 . S
C455 C453 1.353 . S
C455 H511 0.930 . S
C456 N457 1.314 . S
C456 C461 1.353 . S
C456 H462 0.930 . S
N457 Li440 1.990 . S
N457 C456 1.314 . S
N457 C459 1.279 . S
C458 C459 1.358 . S
C458 C460 1.356 . S
C458 H512 0.930 . S
C459 N457 1.279 . S
C459 C458 1.358 . S
C459 H463 0.930 . S
C460 C458 1.356 . S
C460 C461 1.348 . S
C461 C456 1.353 . S
C461 C460 1.348 . S
C461 H513 0.929 . S
H462 C456 0.930 . S
H463 C459 0.930 . S
C464 N465 1.314 . S
C464 C466 1.353 . S
C464 H470 0.930 . S
N465 Li441 1.990 . S
N465 C464 1.314 . S
N465 C468 1.279 . S
C466 C464 1.353 . S
C466 C469 1.348 . S
C466 H514 0.929 . S
C467 C468 1.358 . S
C467 C469 1.356 . S
C467 H515 0.930 . S
C468 N465 1.279 . S
C468 C467 1.358 . S
C468 H471 0.930 . S
C469 C466 1.348 . S
C469 C467 1.356 . S
H470 C464 0.930 . S
H471 C468 0.930 . S
C472 C474 1.348 . S
C472 C475 1.356 . S
C472 O502 1.325 . S
N473 C476 1.314 . S
N473 C477 1.279 . S
C474 C472 1.348 . S
C474 C476 1.353 . S
C474 H516 0.929 . S
C475 C472 1.356 . S
C475 C477 1.358 . S
C475 H517 0.930 . S
C476 N473 1.314 . S
C476 C474 1.353 . S
C476 H518 0.930 . S
C477 N473 1.279 . S
C477 C475 1.358 . S
C477 H519 0.930 . S
C478 C479 1.348 . S
C478 C480 1.356 . S
C478 O503 1.325 . S
C479 C478 1.348 . S
C479 C481 1.353 . S
C479 H520 0.929 . S
C480 C478 1.356 . S
C480 C482 1.358 . S
C480 H521 0.930 . S
C481 C479 1.353 . S
C481 N483 1.314 . S
C481 H522 0.930 . S
C482 C480 1.358 . S
C482 N483 1.279 . S
C482 H523 0.930 . S
N483 C481 1.314 . S
N483 C482 1.279 . S
C484 C486 1.353 . S
C484 N487 1.314 . S
C484 H490 0.930 . S
C485 N487 1.279 . S
C485 C488 1.358 . S
C485 H491 0.930 . S
C486 C484 1.353 . S
C486 C489 1.348 . S
C486 H524 0.929 . S
N487 Li442 1.990 . S
N487 C484 1.314 . S
N487 C485 1.279 . S
C488 C485 1.358 . S
C488 C489 1.356 . S
C488 H525 0.930 . S
C489 C486 1.348 . S
C489 C488 1.356 . S
H490 C484 0.930 . S
H491 C485 0.930 . S
C492 N493 1.314 . S
C492 C494 1.353 . S
C492 H498 0.930 . S
N493 Li443 1.990 . S
N493 C492 1.314 . S
N493 C496 1.279 . S
C494 C492 1.353 . S
C494 C497 1.348 . S
C494 H526 0.929 . S
C495 C496 1.358 . S
C495 C497 1.356 . S
C495 H527 0.930 . S
C496 N493 1.279 . S
C496 C495 1.358 . S
C496 H499 0.930 . S
C497 C494 1.348 . S
C497 C495 1.356 . S
H498 C492 0.930 . S
H499 C496 0.930 . S
O500 Li440 1.956 . S
O500 Li441 1.970 . S
O500 Li442 1.961 . S
O500 C444 1.325 . S
O501 Li440 1.970 . S
O501 Li441 1.956 . S
O501 Li443 1.961 . S
O501 C450 1.325 . S
O502 Li440 1.961 . S
O502 Li442 1.956 . S
O502 Li443 1.970 . S
O502 C472 1.325 . S
O503 Li441 1.961 . S
O503 Li442 1.970 . S
O503 Li443 1.956 . S
O503 C478 1.325 . S
H504 C446 0.929 . S
H505 C447 0.930 . S
H506 C448 0.930 . S
H507 C449 0.930 . S
H508 C451 0.930 . S
H509 C453 0.929 . S
H510 C454 0.930 . S
H511 C455 0.930 . S
H512 C458 0.930 . S
H513 C461 0.929 . S
H514 C466 0.929 . S
H515 C467 0.930 . S
H516 C474 0.929 . S
H517 C475 0.930 . S
H518 C476 0.930 . S
H519 C477 0.930 . S
H520 C479 0.929 . S
H521 C480 0.930 . S
H522 C481 0.930 . S
H523 C482 0.930 . S
H524 C486 0.929 . S
H525 C488 0.930 . S
H526 C494 0.929 . S
H527 C495 0.930 . S
Li528 N545 1.990 . S
Li528 O588 1.956 . S
Li528 O589 1.970 . S
Li528 O590 1.961 . S
Li529 N553 1.990 . S
Li529 O588 1.970 . S
Li529 O589 1.956 . S
Li529 O591 1.961 . S
Li530 N575 1.990 . S
Li530 O588 1.961 . S
Li530 O590 1.956 . S
Li530 O591 1.970 . S
Li531 N581 1.990 . S
Li531 O589 1.961 . S
Li531 O590 1.970 . S
Li531 O591 1.956 . S
C532 C534 1.348 . S
C532 C535 1.356 . S
C532 O588 1.325 . S
N533 C536 1.314 . S
N533 C537 1.279 . S
C534 C532 1.348 . S
C534 C536 1.353 . S
C534 H592 0.929 . S
C535 C532 1.356 . S
C535 C537 1.358 . S
C535 H593 0.930 . S
C536 N533 1.314 . S
C536 C534 1.353 . S
C536 H594 0.930 1_556 S
C537 N533 1.279 . S
C537 C535 1.358 . S
C537 H595 0.930 . S
C538 C541 1.348 . S
C538 C542 1.356 . S
C538 O589 1.325 . S
C539 N540 1.279 . S
C539 C542 1.358 . S
C539 H596 0.930 . S
N540 C539 1.279 . S
N540 C543 1.314 . S
C541 C538 1.348 . S
C541 C543 1.353 . S
C541 H597 0.929 . S
C542 C538 1.356 . S
C542 C539 1.358 . S
C542 H598 0.930 . S
C543 N540 1.314 . S
C543 C541 1.353 . S
C543 H599 0.930 . S
C544 N545 1.314 . S
C544 C549 1.353 . S
C544 H550 0.930 . S
N545 Li528 1.990 . S
N545 C544 1.314 . S
N545 C547 1.279 . S
C546 C547 1.358 . S
C546 C548 1.356 . S
C546 H600 0.930 . S
C547 N545 1.279 . S
C547 C546 1.358 . S
C547 H551 0.930 . S
C548 C546 1.356 . S
C548 C549 1.348 . S
C549 C544 1.353 . S
C549 C548 1.348 . S
C549 H601 0.929 . S
H550 C544 0.930 . S
H551 C547 0.930 . S
C552 N553 1.314 . S
C552 C554 1.353 . S
C552 H558 0.930 . S
N553 Li529 1.990 . S
N553 C552 1.314 . S
N553 C556 1.279 . S
C554 C552 1.353 . S
C554 C557 1.348 1_556 S
C554 H602 0.929 1_556 S
C555 C556 1.358 . S
C555 C557 1.356 1_556 S
C555 H603 0.930 . S
C556 N553 1.279 . S
C556 C555 1.358 . S
C556 H559 0.930 . S
C557 C554 1.348 1_554 S
C557 C555 1.356 1_554 S
H558 C552 0.930 . S
H559 C556 0.930 . S
C560 C562 1.348 . S
C560 C563 1.356 . S
C560 O590 1.325 . S
N561 C564 1.314 . S
N561 C565 1.279 . S
C562 C560 1.348 . S
C562 C564 1.353 . S
C562 H604 0.929 . S
C563 C560 1.356 . S
C563 C565 1.358 . S
C563 H605 0.930 . S
C564 N561 1.314 . S
C564 C562 1.353 . S
C564 H606 0.930 . S
C565 N561 1.279 . S
C565 C563 1.358 . S
C565 H607 0.930 . S
C566 C567 1.348 . S
C566 C568 1.356 . S
C566 O591 1.325 . S
C567 C566 1.348 . S
C567 C569 1.353 . S
C567 H608 0.929 . S
C568 C566 1.356 . S
C568 C570 1.358 . S
C568 H609 0.930 . S
C569 C567 1.353 . S
C569 N571 1.314 . S
C569 H610 0.930 . S
C570 C568 1.358 . S
C570 N571 1.279 . S
C570 H611 0.930 . S
N571 C569 1.314 . S
N571 C570 1.279 . S
C572 C574 1.353 . S
C572 N575 1.314 . S
C572 H578 0.930 . S
C573 N575 1.279 . S
C573 C576 1.358 . S
C573 H579 0.930 . S
C574 C572 1.353 . S
C574 C577 1.348 . S
C574 H612 0.929 . S
N575 Li530 1.990 . S
N575 C572 1.314 . S
N575 C573 1.279 . S
C576 C573 1.358 . S
C576 C577 1.356 . S
C576 H613 0.930 . S
C577 C574 1.348 . S
C577 C576 1.356 . S
H578 C572 0.930 . S
H579 C573 0.930 . S
C580 N581 1.314 . S
C580 C582 1.353 . S
C580 H586 0.930 . S
N581 Li531 1.990 . S
N581 C580 1.314 . S
N581 C584 1.279 . S
C582 C580 1.353 . S
C582 C585 1.348 . S
C582 H614 0.929 . S
C583 C584 1.358 . S
C583 C585 1.356 . S
C583 H615 0.930 . S
C584 N581 1.279 . S
C584 C583 1.358 . S
C584 H587 0.930 . S
C585 C582 1.348 . S
C585 C583 1.356 . S
H586 C580 0.930 . S
H587 C584 0.930 . S
O588 Li528 1.956 . S
O588 Li529 1.970 . S
O588 Li530 1.961 . S
O588 C532 1.325 . S
O589 Li528 1.970 . S
O589 Li529 1.956 . S
O589 Li531 1.961 . S
O589 C538 1.325 . S
O590 Li528 1.961 . S
O590 Li530 1.956 . S
O590 Li531 1.970 . S
O590 C560 1.325 . S
O591 Li529 1.961 . S
O591 Li530 1.970 . S
O591 Li531 1.956 . S
O591 C566 1.325 . S
H592 C534 0.929 . S
H593 C535 0.930 . S
H594 C536 0.930 1_554 S
H595 C537 0.930 . S
H596 C539 0.930 . S
H597 C541 0.929 . S
H598 C542 0.930 . S
H599 C543 0.930 . S
H600 C546 0.930 . S
H601 C549 0.929 . S
H602 C554 0.929 1_554 S
H603 C555 0.930 . S
H604 C562 0.929 . S
H605 C563 0.930 . S
H606 C564 0.930 . S
H607 C565 0.930 . S
H608 C567 0.929 . S
H609 C568 0.930 . S
H610 C569 0.930 . S
H611 C570 0.930 . S
H612 C574 0.929 . S
H613 C576 0.930 . S
H614 C582 0.929 . S
H615 C583 0.930 . S
Li616 N633 1.990 1_554 S
Li616 O676 1.956 . S
Li616 O677 1.970 . S
Li616 O678 1.961 1_554 S
Li617 N641 1.990 . S
Li617 O676 1.970 . S
Li617 O677 1.956 . S
Li617 O679 1.961 . S
Li618 N663 1.990 . S
Li618 O676 1.961 . S
Li618 O678 1.956 1_554 S
Li618 O679 1.970 . S
Li619 N669 1.990 . S
Li619 O677 1.961 1_556 S
Li619 O678 1.970 . S
Li619 O679 1.956 1_556 S
C620 C622 1.348 . S
C620 C623 1.356 . S
C620 O676 1.325 . S
N621 C624 1.314 . S
N621 C625 1.279 . S
C622 C620 1.348 . S
C622 C624 1.353 . S
C622 H680 0.929 . S
C623 C620 1.356 . S
C623 C625 1.358 . S
C623 H681 0.930 . S
C624 N621 1.314 . S
C624 C622 1.353 . S
C624 H682 0.930 . S
C625 N621 1.279 . S
C625 C623 1.358 . S
C625 H683 0.930 . S
C626 C629 1.348 . S
C626 C630 1.357 . S
C626 O677 1.325 . S
C627 N628 1.278 1_556 S
C627 C630 1.358 1_556 S
C627 H684 0.933 . S
N628 C627 1.278 1_554 S
N628 C631 1.314 . S
C629 C626 1.348 . S
C629 C631 1.353 . S
C629 H685 0.929 . S
C630 C626 1.357 . S
C630 C627 1.358 1_554 S
C630 H686 0.929 1_554 S
C631 N628 1.314 . S
C631 C629 1.353 . S
C631 H687 0.930 . S
C632 N633 1.314 . S
C632 C637 1.353 . S
C632 H638 0.930 . S
N633 Li616 1.990 1_556 S
N633 C632 1.314 . S
N633 C635 1.279 1_556 S
C634 C635 1.358 . S
C634 C636 1.356 1_554 S
C634 H688 0.930 . S
C635 N633 1.279 1_554 S
C635 C634 1.358 . S
C635 H639 0.930 . S
C636 C634 1.356 1_556 S
C636 C637 1.348 . S
C637 C632 1.353 . S
C637 C636 1.348 . S
C637 H689 0.929 . S
H638 C632 0.930 . S
H639 C635 0.930 . S
C640 N641 1.314 . S
C640 C642 1.353 . S
C640 H646 0.930 . S
N641 Li617 1.990 . S
N641 C640 1.314 . S
N641 C644 1.279 . S
C642 C640 1.353 . S
C642 C645 1.348 . S
C642 H690 0.929 . S
C643 C644 1.358 . S
C643 C645 1.356 . S
C643 H691 0.930 . S
C644 N641 1.279 . S
C644 C643 1.358 . S
C644 H647 0.930 . S
C645 C642 1.348 . S
C645 C643 1.356 . S
H646 C640 0.930 . S
H647 C644 0.930 . S
C648 C650 1.348 . S
C648 C651 1.356 . S
C648 O678 1.325 . S
N649 C652 1.314 . S
N649 C653 1.279 . S
C650 C648 1.348 . S
C650 C652 1.353 . S
C650 H692 0.929 . S
C651 C648 1.356 . S
C651 C653 1.358 . S
C651 H693 0.930 . S
C652 N649 1.314 . S
C652 C650 1.353 . S
C652 H694 0.930 . S
C653 N649 1.279 . S
C653 C651 1.358 . S
C653 H695 0.930 . S
C654 C655 1.348 . S
C654 C656 1.356 . S
C654 O679 1.325 . S
C655 C654 1.348 . S
C655 C657 1.353 . S
C655 H696 0.929 . S
C656 C654 1.356 . S
C656 C658 1.358 . S
C656 H697 0.930 . S
C657 C655 1.353 . S
C657 N659 1.314 . S
C657 H698 0.930 . S
C658 C656 1.358 . S
C658 N659 1.279 . S
C658 H699 0.930 . S
N659 C657 1.314 . S
N659 C658 1.279 . S
C660 C662 1.353 . S
C660 N663 1.314 . S
C660 H666 0.930 . S
C661 N663 1.279 1_556 S
C661 C664 1.358 . S
C661 H667 0.930 . S
C662 C660 1.353 . S
C662 C665 1.348 . S
C662 H700 0.929 . S
N663 Li618 1.990 . S
N663 C660 1.314 . S
N663 C661 1.279 1_554 S
C664 C661 1.358 . S
C664 C665 1.356 1_556 S
C664 H701 0.930 . S
C665 C662 1.348 . S
C665 C664 1.356 1_554 S
H666 C660 0.930 . S
H667 C661 0.930 . S
C668 N669 1.314 . S
C668 C670 1.353 . S
C668 H674 0.930 . S
N669 Li619 1.990 . S
N669 C668 1.314 . S
N669 C672 1.279 . S
C670 C668 1.353 . S
C670 C673 1.348 . S
C670 H702 0.929 . S
C671 C672 1.358 . S
C671 C673 1.356 . S
C671 H703 0.930 . S
C672 N669 1.279 . S
C672 C671 1.358 . S
C672 H675 0.930 . S
C673 C670 1.348 . S
C673 C671 1.356 . S
H674 C668 0.930 . S
H675 C672 0.930 . S
O676 Li616 1.956 . S
O676 Li617 1.970 . S
O676 Li618 1.961 . S
O676 C620 1.325 . S
O677 Li616 1.970 . S
O677 Li617 1.956 . S
O677 Li619 1.961 1_554 S
O677 C626 1.325 . S
O678 Li616 1.961 1_556 S
O678 Li618 1.956 1_556 S
O678 Li619 1.970 . S
O678 C648 1.325 . S
O679 Li617 1.961 . S
O679 Li618 1.970 . S
O679 Li619 1.956 1_554 S
O679 C654 1.325 . S
H680 C622 0.929 . S
H681 C623 0.930 . S
H682 C624 0.930 . S
H683 C625 0.930 . S
H684 C627 0.933 . S
H685 C629 0.929 . S
H686 C630 0.929 1_556 S
H687 C631 0.930 . S
H688 C634 0.930 . S
H689 C637 0.929 . S
H690 C642 0.929 . S
H691 C643 0.930 . S
H692 C650 0.929 . S
H693 C651 0.930 . S
H694 C652 0.930 . S
H695 C653 0.930 . S
H696 C655 0.929 . S
H697 C656 0.930 . S
H698 C657 0.930 . S
H699 C658 0.930 . S
H700 C662 0.929 . S
H701 C664 0.930 . S
H702 C670 0.929 . S
H703 C671 0.930 . S
C29 C585 0.752 . S
C108 C673 0.752 . S
C401 C196 0.752 . S
C489 C293 0.752 . S
C49 C469 3.316 . S
C145 C548 3.316 . S
C636 C233 3.316 . S
C313 C381 3.316 . S
C409 C20 1.529 1_565 S
C117 C497 1.529 1_655 S
C205 C577 1.529 1_565 S
C665 C284 1.529 1_655 S
C557 C57 2.523 . S
C645 C137 2.523 . S
C225 C372 2.523 . S
C321 C460 2.523 . S
