# Generated by pormake.
# Topology umz, (4)-cn, num edge types: 1
# Building blocks:
#     Node 0, Type 0, BuildingBlock: ICAMEG_clean_sbu_1, # of connection points: 4
#     Node 1, Type 0, BuildingBlock: ICAMEG_clean_sbu_1, # of connection points: 4
#     Node 2, Type 0, BuildingBlock: ICAMEG_clean_sbu_1, # of connection points: 4
#     Node 3, Type 0, BuildingBlock: ICAMEG_clean_sbu_1, # of connection points: 4
#     Node 4, Type 0, BuildingBlock: ICAMEG_clean_sbu_1, # of connection points: 4
#     Node 5, Type 0, BuildingBlock: ICAMEG_clean_sbu_1, # of connection points: 4
#     Node 6, Type 0, BuildingBlock: ICAMEG_clean_sbu_1, # of connection points: 4
#     Node 7, Type 0, BuildingBlock: ICAMEG_clean_sbu_1, # of connection points: 4
#     Node 8, Type 0, BuildingBlock: ICAMEG_clean_sbu_1, # of connection points: 4
#     Node 9, Type 0, BuildingBlock: ICAMEG_clean_sbu_1, # of connection points: 4
#     Node 10, Type 0, BuildingBlock: ICAMEG_clean_sbu_1, # of connection points: 4
#     Node 11, Type 0, BuildingBlock: ICAMEG_clean_sbu_1, # of connection points: 4
#     Node 12, Type 0, BuildingBlock: ICAMEG_clean_sbu_1, # of connection points: 4
#     Node 13, Type 0, BuildingBlock: ICAMEG_clean_sbu_1, # of connection points: 4
#     Node 14, Type 0, BuildingBlock: ICAMEG_clean_sbu_1, # of connection points: 4
#     Node 15, Type 0, BuildingBlock: ICAMEG_clean_sbu_1, # of connection points: 4
#     Edge 16, Type (0, 0), BuildingBlock: UVAHIK_clean_linker_0, # of connection points: 2
#     Edge 17, Type (0, 0), BuildingBlock: UVAHIK_clean_linker_0, # of connection points: 2
#     Edge 18, Type (0, 0), BuildingBlock: UVAHIK_clean_linker_0, # of connection points: 2
#     Edge 19, Type (0, 0), BuildingBlock: UVAHIK_clean_linker_0, # of connection points: 2
#     Edge 20, Type (0, 0), BuildingBlock: UVAHIK_clean_linker_0, # of connection points: 2
#     Edge 21, Type (0, 0), BuildingBlock: UVAHIK_clean_linker_0, # of connection points: 2
#     Edge 22, Type (0, 0), BuildingBlock: UVAHIK_clean_linker_0, # of connection points: 2
#     Edge 23, Type (0, 0), BuildingBlock: UVAHIK_clean_linker_0, # of connection points: 2
#     Edge 24, Type (0, 0), BuildingBlock: UVAHIK_clean_linker_0, # of connection points: 2
#     Edge 25, Type (0, 0), BuildingBlock: UVAHIK_clean_linker_0, # of connection points: 2
#     Edge 26, Type (0, 0), BuildingBlock: UVAHIK_clean_linker_0, # of connection points: 2
#     Edge 27, Type (0, 0), BuildingBlock: UVAHIK_clean_linker_0, # of connection points: 2
#     Edge 28, Type (0, 0), BuildingBlock: UVAHIK_clean_linker_0, # of connection points: 2
#     Edge 29, Type (0, 0), BuildingBlock: UVAHIK_clean_linker_0, # of connection points: 2
#     Edge 30, Type (0, 0), BuildingBlock: UVAHIK_clean_linker_0, # of connection points: 2
#     Edge 31, Type (0, 0), BuildingBlock: UVAHIK_clean_linker_0, # of connection points: 2
#     Edge 32, Type (0, 0), BuildingBlock: UVAHIK_clean_linker_0, # of connection points: 2
#     Edge 33, Type (0, 0), BuildingBlock: UVAHIK_clean_linker_0, # of connection points: 2
#     Edge 34, Type (0, 0), BuildingBlock: UVAHIK_clean_linker_0, # of connection points: 2
#     Edge 35, Type (0, 0), BuildingBlock: UVAHIK_clean_linker_0, # of connection points: 2
#     Edge 36, Type (0, 0), BuildingBlock: UVAHIK_clean_linker_0, # of connection points: 2
#     Edge 37, Type (0, 0), BuildingBlock: UVAHIK_clean_linker_0, # of connection points: 2
#     Edge 38, Type (0, 0), BuildingBlock: UVAHIK_clean_linker_0, # of connection points: 2
#     Edge 39, Type (0, 0), BuildingBlock: UVAHIK_clean_linker_0, # of connection points: 2
#     Edge 40, Type (0, 0), BuildingBlock: UVAHIK_clean_linker_0, # of connection points: 2
#     Edge 41, Type (0, 0), BuildingBlock: UVAHIK_clean_linker_0, # of connection points: 2
#     Edge 42, Type (0, 0), BuildingBlock: UVAHIK_clean_linker_0, # of connection points: 2
#     Edge 43, Type (0, 0), BuildingBlock: UVAHIK_clean_linker_0, # of connection points: 2
#     Edge 44, Type (0, 0), BuildingBlock: UVAHIK_clean_linker_0, # of connection points: 2
#     Edge 45, Type (0, 0), BuildingBlock: UVAHIK_clean_linker_0, # of connection points: 2
#     Edge 46, Type (0, 0), BuildingBlock: UVAHIK_clean_linker_0, # of connection points: 2
#     Edge 47, Type (0, 0), BuildingBlock: UVAHIK_clean_linker_0, # of connection points: 2
# Relax obj value: 0.213
# Max RMSD: 0.182
# Mean RMSD: 0.166
data_MOF--net-umz--node1-ICAMEG_clean_sbu_1--edge1-UVAHIK_clean_linker_0
_symmetry_space_group_name_H-M    P1
_symmetry_Int_Tables_number       1
_symmetry_cell_setting            triclinic
loop_
_symmetry_equiv_pos_as_xyz
'x, y, z'
_cell_length_a     76.734545
_cell_length_b     76.761395
_cell_length_c     30.867355
_cell_angle_alpha  89.572507
_cell_angle_beta   90.424634
_cell_angle_gamma 89.82226
loop_
_atom_site_label
_atom_site_type_symbol
_atom_site_fract_x
_atom_site_fract_y
_atom_site_fract_z
_atom_type_partial_charge
Co0 Co 0.99162 0.59297 1.00007 0.0
Co1 Co 0.00999 0.629 0.04966 0.0
O2 O 0.00189 0.61636 0.99845 0.0
C3 C 0.02146 0.58969 0.93964 0.0
O4 O 0.0305 0.59998 0.965 0.0
C5 C 0.98419 0.65502 0.01518 0.0
O6 O 0.97209 0.64297 0.01405 0.0
O7 O 0.98795 0.62383 0.08134 0.0
O8 O 0.97698 0.59973 0.05028 0.0
H9 H 0.02099 0.63722 0.20889 0.0
H10 H 0.99151 0.61387 0.91892 0.0
O11 O 0.00588 0.58561 0.94918 0.0
H12 H 0.92969 0.60173 0.94904 0.0
H13 H 0.96605 0.53885 0.934 0.0
H14 H 0.98247 0.56806 0.07003 0.0
H15 H 0.95284 0.59031 0.9974 0.0
H16 H 0.97881 0.5683 0.93264 0.0
O17 O 0.99971 0.65117 0.02662 0.0
H18 H 0.01101 0.62145 0.14403 0.0
H19 H 0.02631 0.6638 0.06368 0.0
H20 H 0.96959 0.53867 0.07288 0.0
H21 H 0.96881 0.62539 0.86938 0.0
H22 H 0.96131 0.52386 0.00451 0.0
H23 H 0.93764 0.61938 0.88441 0.0
O24 O 0.0102 0.58394 0.04048 0.0
H25 H 0.04525 0.6485 0.9218 0.0
H26 H 0.04787 0.6261 0.07182 0.0
H27 H 0.07518 0.6317 0.03258 0.0
H28 H 0.07398 0.64301 0.957 0.0
H29 H 0.01825 0.64254 0.96212 0.0
H30 H 0.0363 0.68009 0.12771 0.0
H31 H 0.03373 0.66677 0.20097 0.0
O32 O 0.02065 0.60752 0.07422 0.0
C33 C 0.97658 0.61176 0.07853 0.0
C34 C 0.0222 0.64316 0.17715 0.0
C35 C 0.03077 0.66722 0.13159 0.0
N36 N 0.0181 0.64167 0.10008 0.0
C37 C 0.0166 0.63428 0.14028 0.0
C38 C 0.02503 0.65796 0.09546 0.0
C39 C 0.02933 0.65974 0.17268 0.0
C40 C 0.97798 0.61113 0.92555 0.0
N41 N 0.9735 0.60146 0.96107 0.0
C42 C 0.96519 0.61772 0.89744 0.0
C43 C 0.9477 0.61435 0.90591 0.0
C44 C 0.94323 0.60447 0.94219 0.0
C45 C 0.95638 0.59811 0.96958 0.0
C46 C 0.96959 0.54518 0.96401 0.0
C47 C 0.97879 0.56174 0.04015 0.0
C48 C 0.97687 0.56183 0.96345 0.0
N49 N 0.98129 0.56993 0.00125 0.0
C50 C 0.97155 0.54508 0.04196 0.0
C51 C 0.96692 0.53678 0.00359 0.0
C52 C 0.02007 0.59114 0.06856 0.0
C53 C 0.04595 0.6436 0.95474 0.0
C54 C 0.04724 0.63091 0.03888 0.0
C55 C 0.06275 0.63412 0.01687 0.0
C56 C 0.06206 0.64049 0.97448 0.0
N57 N 0.03148 0.63397 0.01928 0.0
C58 C 0.03071 0.64027 0.97778 0.0
Co59 Co 0.89904 0.98879 0.5048 0.0
Co60 Co 0.86744 0.00774 0.56878 0.0
O61 O 0.87658 0.0006 0.51252 0.0
C62 C 0.90382 0.01943 0.44621 0.0
O63 O 0.90019 0.02977 0.47866 0.0
C64 C 0.83876 0.98546 0.5354 0.0
O65 O 0.85039 0.9737 0.52472 0.0
O66 O 0.87249 0.98434 0.59495 0.0
O67 O 0.89515 0.97415 0.55712 0.0
H68 H 0.86872 0.01341 0.73082 0.0
H69 H 0.87361 0.9907 0.43218 0.0
O70 O 0.90352 0.00297 0.45137 0.0
H71 H 0.88286 0.92797 0.45973 0.0
H72 H 0.94617 0.96037 0.41702 0.0
H73 H 0.92784 0.9776 0.56341 0.0
H74 H 0.89864 0.9499 0.50271 0.0
H75 H 0.91792 0.97501 0.42804 0.0
O76 O 0.84354 0.9998 0.5521 0.0
H77 H 0.88005 0.00478 0.65952 0.0
H78 H 0.83508 0.02592 0.59737 0.0
H79 H 0.95613 0.96284 0.55389 0.0
H80 H 0.85766 0.96921 0.38816 0.0
H81 H 0.96547 0.95413 0.48025 0.0
H82 H 0.86222 0.93759 0.40192 0.0
O83 O 0.91147 0.00634 0.54147 0.0
H84 H 0.84459 0.04882 0.45418 0.0
H85 H 0.87417 0.04432 0.59621 0.0
H86 H 0.86876 0.0733 0.56376 0.0
H87 H 0.85383 0.07569 0.49227 0.0
H88 H 0.85042 0.02007 0.48767 0.0
H89 H 0.82319 0.03464 0.66802 0.0
H90 H 0.84009 0.02844 0.73537 0.0
O91 O 0.89082 0.01608 0.58687 0.0
C92 C 0.88444 0.97309 0.5883 0.0
C93 C 0.86125 0.01622 0.70169 0.0
C94 C 0.83569 0.02811 0.66645 0.0
N95 N 0.85828 0.01491 0.62431 0.0
C96 C 0.86762 0.0114 0.66122 0.0
C97 C 0.84246 0.0231 0.62655 0.0
C98 C 0.84518 0.02464 0.70423 0.0
C99 C 0.87576 0.97696 0.43812 0.0
N100 N 0.88708 0.97156 0.46989 0.0
C101 C 0.86665 0.96486 0.4132 0.0
C102 C 0.8692 0.94712 0.42097 0.0
C103 C 0.88077 0.94171 0.45342 0.0
C104 C 0.88963 0.95419 0.47774 0.0
C105 C 0.94224 0.96408 0.44927 0.0
C106 C 0.93177 0.97377 0.53129 0.0
C107 C 0.92628 0.97243 0.4557 0.0
N108 N 0.92119 0.97708 0.49637 0.0
C109 C 0.94783 0.96545 0.52609 0.0
C110 C 0.95306 0.96058 0.48476 0.0
C111 C 0.90647 0.01538 0.57368 0.0
C112 C 0.85108 0.04795 0.48538 0.0
C113 C 0.86774 0.04525 0.565 0.0
C114 C 0.86466 0.0617 0.54685 0.0
C115 C 0.85628 0.06302 0.50675 0.0
N116 N 0.86258 0.03053 0.54386 0.0
C117 C 0.85437 0.03172 0.50454 0.0
Co118 Co 0.51962 0.89515 0.00355 0.0
Co119 Co 0.49722 0.86097 0.05141 0.0
O120 O 0.50816 0.87238 0.00164 0.0
C121 C 0.49207 0.89987 0.93612 0.0
O122 O 0.48136 0.89109 0.96099 0.0
C123 C 0.52376 0.83448 0.02699 0.0
O124 O 0.5354 0.84691 0.02344 0.0
O125 O 0.5176 0.86619 0.08998 0.0
O126 O 0.53186 0.88836 0.058 0.0
H127 H 0.47784 0.85627 0.20623 0.0
H128 H 0.52151 0.87355 0.92449 0.0
O129 O 0.5077 0.90253 0.9484 0.0
H130 H 0.58248 0.88189 0.97125 0.0
H131 H 0.5508 0.94669 0.9389 0.0
H132 H 0.52759 0.9205 0.07287 0.0
H133 H 0.55837 0.89521 0.01189 0.0
H134 H 0.53636 0.91804 0.93734 0.0
O135 O 0.50801 0.83816 0.0359 0.0
H136 H 0.49157 0.87045 0.14327 0.0
H137 H 0.4792 0.82697 0.06467 0.0
H138 H 0.54208 0.94911 0.07597 0.0
H139 H 0.54522 0.86013 0.88261 0.0
H140 H 0.55379 0.96239 0.00863 0.0
H141 H 0.57597 0.86423 0.90603 0.0
O142 O 0.50023 0.9057 0.03812 0.0
H143 H 0.46816 0.84003 0.91517 0.0
H144 H 0.4587 0.86533 0.05949 0.0
H145 H 0.43344 0.85975 0.01175 0.0
H146 H 0.4381 0.84699 0.93902 0.0
H147 H 0.49305 0.84598 0.96385 0.0
H148 H 0.46548 0.81223 0.12689 0.0
H149 H 0.46469 0.82693 0.19827 0.0
O150 O 0.4862 0.88318 0.06864 0.0
C151 C 0.52996 0.87728 0.0885 0.0
C152 C 0.47809 0.84973 0.17529 0.0
C153 C 0.47118 0.82501 0.13078 0.0
N154 N 0.48619 0.84956 0.10032 0.0
C155 C 0.48584 0.85771 0.1395 0.0
C156 C 0.47903 0.83339 0.0957 0.0
C157 C 0.47073 0.83326 0.17081 0.0
C158 C 0.53486 0.87549 0.93469 0.0
N159 N 0.53856 0.88518 0.97054 0.0
C160 C 0.54823 0.86782 0.91093 0.0
C161 C 0.56548 0.87011 0.92412 0.0
C162 C 0.56914 0.88 0.96073 0.0
C163 C 0.55543 0.88746 0.9837 0.0
C164 C 0.54575 0.94104 0.96847 0.0
C165 C 0.53273 0.92616 0.04346 0.0
C166 C 0.53751 0.92484 0.96776 0.0
N167 N 0.53118 0.91758 0.005 0.0
C168 C 0.54088 0.94238 0.0454 0.0
C169 C 0.54744 0.94983 0.0076 0.0
C170 C 0.48841 0.89943 0.06262 0.0
C171 C 0.46596 0.84557 0.94682 0.0
C172 C 0.46083 0.85985 0.02783 0.0
C173 C 0.44648 0.85667 0.00098 0.0
C174 C 0.4491 0.84949 0.96019 0.0
N175 N 0.47732 0.85596 0.01448 0.0
C176 C 0.47999 0.8489 0.97457 0.0
Co177 Co 0.59123 0.52071 0.49608 0.0
Co178 Co 0.63005 0.50677 0.54024 0.0
O179 O 0.61542 0.51294 0.49026 0.0
C180 C 0.58901 0.49288 0.42981 0.0
O181 O 0.59931 0.4832 0.4542 0.0
C182 C 0.65479 0.53222 0.50017 0.0
O183 O 0.64349 0.54489 0.50554 0.0
O184 O 0.62518 0.52964 0.56769 0.0
O185 O 0.5971 0.53387 0.54972 0.0
H186 H 0.64495 0.50228 0.69877 0.0
H187 H 0.60999 0.52649 0.41368 0.0
O188 O 0.58459 0.50804 0.44205 0.0
H189 H 0.5926 0.58501 0.46244 0.0
H190 H 0.53351 0.54324 0.44023 0.0
H191 H 0.56663 0.52373 0.56932 0.0
H192 H 0.58485 0.55892 0.50509 0.0
H193 H 0.56416 0.53388 0.43395 0.0
O194 O 0.65094 0.5166 0.51038 0.0
H195 H 0.62639 0.50951 0.63558 0.0
H196 H 0.6657 0.49156 0.55047 0.0
H197 H 0.53606 0.53313 0.57712 0.0
H198 H 0.6179 0.55223 0.36982 0.0
H199 H 0.51928 0.54296 0.51225 0.0
H200 H 0.60921 0.58175 0.3942 0.0
O201 O 0.58541 0.49973 0.5319 0.0
H202 H 0.64622 0.46726 0.41777 0.0
H203 H 0.62877 0.46983 0.57105 0.0
H204 H 0.63385 0.44127 0.53724 0.0
H205 H 0.64267 0.43987 0.46008 0.0
H206 H 0.64082 0.49555 0.45274 0.0
H207 H 0.68474 0.48426 0.61275 0.0
H208 H 0.67436 0.48954 0.68756 0.0
O209 O 0.60981 0.49657 0.57159 0.0
C210 C 0.6107 0.53764 0.57169 0.0
C211 C 0.64959 0.49984 0.66634 0.0
C212 C 0.67193 0.48975 0.61806 0.0
N213 N 0.64487 0.50079 0.58939 0.0
C214 C 0.63912 0.50386 0.63043 0.0
C215 C 0.6611 0.49393 0.58292 0.0
C216 C 0.6661 0.49272 0.66002 0.0
C217 C 0.60607 0.53928 0.42434 0.0
N218 N 0.59689 0.54118 0.46178 0.0
C219 C 0.61062 0.55382 0.39944 0.0
C220 C 0.60576 0.57038 0.41316 0.0
C221 C 0.59645 0.57221 0.45146 0.0
C222 C 0.59213 0.55739 0.47553 0.0
C223 C 0.54069 0.539 0.46874 0.0
C224 C 0.55945 0.52807 0.54098 0.0
C225 C 0.55803 0.53363 0.46537 0.0
N226 N 0.5672 0.52834 0.50128 0.0
C227 C 0.54213 0.53334 0.54558 0.0
C228 C 0.53272 0.53885 0.50916 0.0
C229 C 0.59379 0.49329 0.56415 0.0
C230 C 0.64243 0.46771 0.45145 0.0
C231 C 0.63253 0.46933 0.5374 0.0
C232 C 0.63544 0.45312 0.51847 0.0
C233 C 0.64041 0.45234 0.47519 0.0
N234 N 0.63454 0.48434 0.5139 0.0
C235 C 0.63943 0.48368 0.47147 0.0
Co236 Co 0.98619 0.90128 0.98718 0.0
Co237 Co 0.00365 0.86405 0.94178 0.0
O238 O 0.99605 0.87778 0.99139 0.0
C239 C 0.01625 0.90596 0.04739 0.0
O240 O 0.02598 0.89713 0.02042 0.0
C241 C 0.97773 0.83858 0.97693 0.0
O242 O 0.96506 0.84986 0.97047 0.0
O243 O 0.98144 0.86893 0.90942 0.0
O244 O 0.97166 0.89426 0.93672 0.0
H245 H 0.01384 0.85225 0.784 0.0
H246 H 0.98527 0.88133 0.06975 0.0
O247 O 0.00025 0.90876 0.03859 0.0
H248 H 0.92388 0.89489 0.03475 0.0
H249 H 0.96131 0.95687 0.04705 0.0
H250 H 0.97792 0.9255 0.91468 0.0
H251 H 0.94749 0.90512 0.98719 0.0
H252 H 0.9735 0.92714 0.05168 0.0
O253 O 0.99344 0.84258 0.96845 0.0
H254 H 0.00432 0.86957 0.84653 0.0
H255 H 0.01926 0.82862 0.93252 0.0
H256 H 0.96562 0.95515 0.90854 0.0
H257 H 0.96211 0.87101 0.11852 0.0
H258 H 0.95724 0.97104 0.97507 0.0
H259 H 0.93115 0.87773 0.10105 0.0
O260 O 0.00512 0.90922 0.94717 0.0
H261 H 0.03994 0.84737 0.07184 0.0
H262 H 0.04132 0.86583 0.91859 0.0
H263 H 0.06895 0.86087 0.95811 0.0
H264 H 0.06837 0.85155 0.03531 0.0
H265 H 0.01261 0.85263 0.03117 0.0
H266 H 0.0288 0.81081 0.87088 0.0
H267 H 0.02619 0.82263 0.79598 0.0
O268 O 0.01422 0.88488 0.91429 0.0
C269 C 0.97062 0.88161 0.91033 0.0
C270 C 0.01507 0.84696 0.81649 0.0
C271 C 0.02345 0.82369 0.86524 0.0
N272 N 0.01128 0.85015 0.89315 0.0
C273 C 0.00973 0.85672 0.85204 0.0
C274 C 0.01797 0.83383 0.90001 0.0
C275 C 0.02199 0.83034 0.82323 0.0
C276 C 0.97183 0.88437 0.06203 0.0
N277 N 0.96772 0.89376 0.02557 0.0
C278 C 0.95877 0.87846 0.08973 0.0
C279 C 0.9414 0.88223 0.07988 0.0
C280 C 0.93732 0.89184 0.04268 0.0
C281 C 0.95073 0.89752 0.01574 0.0
C282 C 0.96491 0.95007 0.01783 0.0
C283 C 0.97421 0.9323 0.94376 0.0
C284 C 0.97187 0.93326 0.02026 0.0
N285 N 0.97634 0.92456 0.98346 0.0
C286 C 0.9673 0.9491 0.94009 0.0
C287 C 0.96261 0.95801 0.97743 0.0
C288 C 0.01433 0.90134 0.91905 0.0
C289 C 0.04036 0.8514 0.03819 0.0
C290 C 0.04095 0.86187 0.9522 0.0
C291 C 0.05665 0.85902 0.97439 0.0
C292 C 0.05631 0.85377 0.01769 0.0
N293 N 0.02536 0.85951 0.97252 0.0
C294 C 0.02493 0.85435 0.01496 0.0
Co295 Co 0.58666 0.99269 0.49929 0.0
Co296 Co 0.62562 0.00241 0.44998 0.0
O297 O 0.61157 0.99827 0.50167 0.0
C298 C 0.58715 0.02252 0.56093 0.0
O299 O 0.59616 0.03169 0.53291 0.0
C300 C 0.6551 0.97807 0.46277 0.0
O301 O 0.6502 0.97092 0.42615 0.0
O302 O 0.61767 0.97995 0.42483 0.0
O303 O 0.59003 0.97776 0.44732 0.0
H304 H 0.63705 0.00373 0.28987 0.0
H305 H 0.60689 0.98706 0.58037 0.0
O306 O 0.58253 0.00704 0.55204 0.0
H307 H 0.58278 0.92951 0.54362 0.0
H308 H 0.52856 0.97729 0.56393 0.0
H309 H 0.56021 0.99029 0.4291 0.0
H310 H 0.57652 0.95514 0.49744 0.0
H311 H 0.56001 0.98374 0.56587 0.0
O312 O 0.64603 0.99037 0.47894 0.0
H313 H 0.61955 0.99885 0.3555 0.0
H314 H 0.66206 0.01464 0.43474 0.0
H315 H 0.52878 0.98376 0.42566 0.0
H316 H 0.61334 0.9618 0.62777 0.0
H317 H 0.51274 0.97721 0.49343 0.0
H318 H 0.60127 0.93277 0.60945 0.0
O319 O 0.5818 0.01329 0.46087 0.0
H320 H 0.64811 0.04085 0.56879 0.0
H321 H 0.62735 0.03911 0.41732 0.0
H322 H 0.63587 0.06721 0.44919 0.0
H323 H 0.64639 0.0682 0.52543 0.0
H324 H 0.63928 0.01304 0.53577 0.0
H325 H 0.68004 0.01965 0.36996 0.0
H326 H 0.66753 0.01421 0.29686 0.0
O327 O 0.60586 0.01451 0.42015 0.0
C328 C 0.6027 0.9728 0.42389 0.0
C329 C 0.64264 0.00618 0.32153 0.0
C330 C 0.66677 0.01511 0.36648 0.0
N331 N 0.63974 0.00652 0.39891 0.0
C332 C 0.63279 0.00345 0.35882 0.0
C333 C 0.65652 0.01226 0.40304 0.0
C334 C 0.65974 0.01205 0.32548 0.0
C335 C 0.60153 0.97448 0.57228 0.0
N336 N 0.59133 0.97259 0.53617 0.0
C337 C 0.60525 0.96022 0.5992 0.0
C338 C 0.59849 0.94393 0.58888 0.0
C339 C 0.58813 0.94209 0.55193 0.0
C340 C 0.58469 0.95664 0.52578 0.0
C341 C 0.5354 0.9801 0.53418 0.0
C342 C 0.55334 0.98735 0.45871 0.0
C343 C 0.55321 0.98381 0.53508 0.0
N344 N 0.56197 0.9873 0.4976 0.0
C345 C 0.53553 0.98371 0.45657 0.0
C346 C 0.52654 0.98005 0.49461 0.0
C347 C 0.59021 0.01898 0.42815 0.0
C348 C 0.64361 0.04058 0.5355 0.0
C349 C 0.63185 0.03943 0.45056 0.0
C350 C 0.6367 0.05538 0.4684 0.0
C351 C 0.64262 0.05592 0.51117 0.0
N352 N 0.63293 0.02443 0.47459 0.0
C353 C 0.63867 0.02486 0.51657 0.0
Co354 Co 0.52228 0.58902 0.0103 0.0
Co355 Co 0.50721 0.62764 0.96576 0.0
O356 O 0.51434 0.61319 0.01523 0.0
C357 C 0.49403 0.58776 0.07481 0.0
O358 O 0.48512 0.5984 0.04956 0.0
C359 C 0.53427 0.65208 1.0005 0.0
O360 O 0.54667 0.64086 0.99167 0.0
O361 O 0.52918 0.62208 0.93467 0.0
O362 O 0.53575 0.59494 0.95729 0.0
H363 H 0.49826 0.64146 0.80775 0.0
H364 H 0.52717 0.60799 0.09281 0.0
O365 O 0.50907 0.58249 0.0637 0.0
H366 H 0.58629 0.59123 0.04699 0.0
H367 H 0.54463 0.53168 0.06881 0.0
H368 H 0.52642 0.56427 0.93775 0.0
H369 H 0.56061 0.58313 0.00313 0.0
H370 H 0.5349 0.56225 0.07384 0.0
O371 O 0.51833 0.64839 0.99338 0.0
H372 H 0.50683 0.62315 0.87039 0.0
H373 H 0.49296 0.66371 0.95657 0.0
H374 H 0.53619 0.53377 0.93121 0.0
H375 H 0.55249 0.61624 0.13783 0.0
H376 H 0.54538 0.51726 0.99707 0.0
H377 H 0.5823 0.60786 0.11494 0.0
O378 O 0.50173 0.58275 0.97355 0.0
H379 H 0.47157 0.64552 0.09401 0.0
H380 H 0.4695 0.6273 0.94122 0.0
H381 H 0.44207 0.63331 0.97954 0.0
H382 H 0.443 0.64253 0.05648 0.0
H383 H 0.49868 0.63917 0.05461 0.0
H384 H 0.48437 0.6825 0.89483 0.0
H385 H 0.48693 0.67137 0.81978 0.0
O386 O 0.49571 0.60747 0.93711 0.0
C387 C 0.5382 0.60811 0.93269 0.0
C388 C 0.49703 0.64644 0.84031 0.0
C389 C 0.48926 0.66948 0.88917 0.0
N390 N 0.50027 0.64229 0.91711 0.0
C391 C 0.50182 0.63611 0.87591 0.0
C392 C 0.49418 0.65879 0.924 0.0
C393 C 0.49069 0.66322 0.84708 0.0
C394 C 0.5401 0.60419 0.08281 0.0
N395 N 0.5424 0.595 0.04555 0.0
C396 C 0.55438 0.60894 0.10836 0.0
C397 C 0.57111 0.60426 0.09547 0.0
C398 C 0.57336 0.59493 0.05734 0.0
C399 C 0.55877 0.59042 0.03259 0.0
C400 C 0.54069 0.53875 0.03987 0.0
C401 C 0.53049 0.55721 0.96653 0.0
C402 C 0.53512 0.55605 0.04253 0.0
N403 N 0.5302 0.56507 0.00608 0.0
C404 C 0.53597 0.53993 0.96263 0.0
C405 C 0.54111 0.53067 0.99961 0.0
C406 C 0.49371 0.59119 0.94366 0.0
C407 C 0.471 0.64156 0.06046 0.0
C408 C 0.47001 0.63119 0.97476 0.0
C409 C 0.45444 0.63465 0.99625 0.0
C410 C 0.45497 0.63985 0.03941 0.0
N411 N 0.48568 0.63288 0.99563 0.0
C412 C 0.48631 0.63802 0.03791 0.0
Co413 Co 0.9031 0.51924 0.49673 0.0
Co414 Co 0.86545 0.50641 0.44484 0.0
O415 O 0.87875 0.51163 0.49743 0.0
C416 C 0.9046 0.48915 0.55817 0.0
O417 O 0.89619 0.47977 0.52944 0.0
C418 C 0.83927 0.53197 0.47889 0.0
O419 O 0.85043 0.5448 0.47484 0.0
O420 O 0.87157 0.52941 0.41863 0.0
O421 O 0.89867 0.5339 0.44411 0.0
H422 H 0.85519 0.50364 0.284 0.0
H423 H 0.88194 0.52279 0.57611 0.0
O424 O 0.90818 0.50501 0.55 0.0
H425 H 0.90094 0.5824 0.53968 0.0
H426 H 0.9592 0.53948 0.56525 0.0
H427 H 0.92959 0.52427 0.42837 0.0
H428 H 0.90993 0.55752 0.4949 0.0
H429 H 0.92846 0.53018 0.56504 0.0
O430 O 0.84384 0.51635 0.47103 0.0
H431 H 0.872 0.50977 0.3505 0.0
H432 H 0.82992 0.49214 0.42777 0.0
H433 H 0.96029 0.53366 0.42706 0.0
H434 H 0.87277 0.54726 0.62209 0.0
H435 H 0.9753 0.54133 0.49586 0.0
H436 H 0.88226 0.57733 0.6039 0.0
O437 O 0.91002 0.49923 0.45901 0.0
H438 H 0.84564 0.46608 0.56346 0.0
H439 H 0.86676 0.46977 0.41318 0.0
H440 H 0.86036 0.44101 0.4453 0.0
H441 H 0.84968 0.43904 0.52094 0.0
H442 H 0.85235 0.49458 0.53017 0.0
H443 H 0.8126 0.48596 0.36211 0.0
H444 H 0.82525 0.49165 0.28955 0.0
O445 O 0.88627 0.49608 0.41719 0.0
C446 C 0.886 0.53765 0.41872 0.0
C447 C 0.84954 0.50107 0.31543 0.0
C448 C 0.82564 0.49116 0.35926 0.0
N449 N 0.852 0.50124 0.39301 0.0
C450 C 0.85902 0.50448 0.35321 0.0
C451 C 0.83549 0.49473 0.39634 0.0
C452 C 0.83274 0.49435 0.31856 0.0
C453 C 0.88619 0.53583 0.56811 0.0
N454 N 0.89647 0.53872 0.53284 0.0
C455 C 0.88093 0.54964 0.59421 0.0
C456 C 0.88624 0.56651 0.58397 0.0
C457 C 0.89671 0.56936 0.54793 0.0
C458 C 0.9017 0.55523 0.52256 0.0
C459 C 0.9528 0.53618 0.53505 0.0
C460 C 0.93601 0.52768 0.45843 0.0
C461 C 0.93541 0.53086 0.53475 0.0
N462 N 0.92721 0.52677 0.4967 0.0
C463 C 0.9534 0.53294 0.45749 0.0
C464 C 0.96182 0.53723 0.49611 0.0
C465 C 0.9022 0.49292 0.42603 0.0
C466 C 0.85024 0.46677 0.53043 0.0
C467 C 0.86218 0.46903 0.44616 0.0
C468 C 0.85853 0.4527 0.46414 0.0
C469 C 0.85253 0.4516 0.50658 0.0
N470 N 0.85986 0.48385 0.46973 0.0
C471 C 0.854 0.48288 0.51137 0.0
Co472 Co 0.0105 0.40637 1.00012 0.0
Co473 Co 0.99253 0.36886 0.95703 0.0
O474 O 0.00058 0.38297 0.00574 0.0
C475 C 0.98101 0.41038 0.06086 0.0
O476 O 0.972 0.39967 0.03656 0.0
C477 C 0.01886 0.34406 0.99438 0.0
O478 O 0.03117 0.35565 0.98859 0.0
O479 O 0.01445 0.37332 0.9244 0.0
O480 O 0.02496 0.39857 0.95054 0.0
H481 H 0.98135 0.35571 0.80003 0.0
H482 H 0.0115 0.38741 0.0842 0.0
O483 O 0.99644 0.41465 0.05041 0.0
H484 H 0.07286 0.40006 0.04991 0.0
H485 H 0.03536 0.46251 0.05675 0.0
H486 H 0.01881 0.42965 0.92616 0.0
H487 H 0.0492 0.40981 1.00083 0.0
H488 H 0.0232 0.4329 0.06312 0.0
O489 O 0.00307 0.34759 0.98463 0.0
H490 H 0.99118 0.37356 0.86156 0.0
H491 H 0.97693 0.33343 0.9498 0.0
H492 H 0.03107 0.45916 0.9183 0.0
H493 H 0.03471 0.37757 0.13446 0.0
H494 H 0.03942 0.47581 0.98393 0.0
H495 H 0.06566 0.38385 0.11736 0.0
O496 O 0.99154 0.41404 0.9592 0.0
H497 H 0.95729 0.35268 0.08777 0.0
H498 H 0.95469 0.37103 0.93442 0.0
H499 H 0.92738 0.36632 0.97435 0.0
H500 H 0.92857 0.35705 0.05159 0.0
H501 H 0.98429 0.35771 0.04672 0.0
H502 H 0.96707 0.31509 0.88917 0.0
H503 H 0.96919 0.32623 0.81364 0.0
O504 O 0.98171 0.38953 0.92846 0.0
C505 C 0.02554 0.38568 0.92475 0.0
C506 C 0.98032 0.35072 0.83279 0.0
C507 C 0.97232 0.32791 0.88282 0.0
N508 N 0.98456 0.35459 0.90925 0.0
C509 C 0.98583 0.36078 0.86778 0.0
C510 C 0.97797 0.33834 0.91701 0.0
C511 C 0.97351 0.33418 0.84045 0.0
C512 C 0.02493 0.39026 0.07664 0.0
N513 N 0.029 0.39915 0.03958 0.0
C514 C 0.03802 0.38463 0.10517 0.0
C515 C 0.05538 0.38814 0.09555 0.0
C516 C 0.05943 0.39722 0.05769 0.0
C517 C 0.04599 0.40264 0.02991 0.0
C518 C 0.03179 0.45538 0.02792 0.0
C519 C 0.02253 0.43676 0.95485 0.0
C520 C 0.02486 0.43863 0.03132 0.0
N521 N 0.0204 0.42952 0.99502 0.0
C522 C 0.02941 0.45349 0.95021 0.0
C523 C 0.03408 0.46283 0.98704 0.0
C524 C 0.98194 0.40604 0.93189 0.0
C525 C 0.9566 0.35667 0.05409 0.0
C526 C 0.95532 0.36708 0.96806 0.0
C527 C 0.93981 0.36438 0.99047 0.0
C528 C 0.94049 0.35916 0.0338 0.0
N529 N 0.97107 0.36462 0.98819 0.0
C530 C 0.97184 0.35947 0.03064 0.0
Co531 Co 0.09714 0.01233 0.48842 0.0
Co532 Co 0.13425 0.99564 0.44049 0.0
O533 O 0.12073 0.00252 0.49119 0.0
C534 C 0.09285 0.98169 0.54722 0.0
O535 O 0.10164 0.97215 0.51977 0.0
C536 C 0.16158 0.02082 0.47153 0.0
O537 O 0.15182 0.03418 0.46014 0.0
O538 O 0.12916 0.01827 0.41029 0.0
O539 O 0.10384 0.02747 0.43882 0.0
H540 H 0.14534 0.98797 0.28147 0.0
H541 H 0.1176 0.01241 0.57027 0.0
O542 O 0.08996 0.99771 0.53907 0.0
H543 H 0.10318 0.07403 0.54072 0.0
H544 H 0.04169 0.0362 0.55159 0.0
H545 H 0.07252 0.02124 0.41721 0.0
H546 H 0.09294 0.05095 0.49162 0.0
H547 H 0.07152 0.02418 0.55453 0.0
O548 O 0.15595 0.0053 0.46769 0.0
H549 H 0.12829 0.99643 0.34539 0.0
H550 H 0.16962 0.98015 0.42873 0.0
H551 H 0.04276 0.03339 0.41277 0.0
H552 H 0.12794 0.03503 0.62057 0.0
H553 H 0.02714 0.04095 0.48031 0.0
H554 H 0.12078 0.0661 0.60584 0.0
O555 O 0.08908 0.9938 0.4474 0.0
H556 H 0.15136 0.9574 0.56672 0.0
H557 H 0.13242 0.95838 0.41376 0.0
H558 H 0.13753 0.93018 0.4505 0.0
H559 H 0.1471 0.92957 0.52754 0.0
H560 H 0.14594 0.98531 0.5288 0.0
H561 H 0.18718 0.97166 0.36569 0.0
H562 H 0.17503 0.9755 0.29141 0.0
O563 O 0.11327 0.9855 0.41261 0.0
C564 C 0.11642 0.02897 0.41233 0.0
C565 C 0.15077 0.98621 0.31368 0.0
C566 C 0.17426 0.97708 0.36094 0.0
N567 N 0.14791 0.98875 0.39077 0.0
C568 C 0.14116 0.99095 0.35001 0.0
C569 C 0.16427 0.98196 0.39651 0.0
C570 C 0.16743 0.97923 0.31927 0.0
C571 C 0.11439 0.0259 0.56371 0.0
N572 N 0.10476 0.03037 0.52789 0.0
C573 C 0.1203 0.03865 0.59228 0.0
C574 C 0.11629 0.05608 0.58398 0.0
C575 C 0.10643 0.06054 0.54743 0.0
C576 C 0.10076 0.04744 0.51959 0.0
C577 C 0.04837 0.03297 0.52194 0.0
C578 C 0.06585 0.02459 0.44674 0.0
C579 C 0.06524 0.0261 0.52341 0.0
N580 N 0.07379 0.02208 0.48607 0.0
C581 C 0.04898 0.03142 0.44402 0.0
C582 C 0.04022 0.03564 0.48193 0.0
C583 C 0.09685 0.98512 0.41808 0.0
C584 C 0.14722 0.95749 0.53312 0.0
C585 C 0.13648 0.95823 0.44732 0.0
C586 C 0.13942 0.94221 0.46793 0.0
C587 C 0.1448 0.94188 0.51114 0.0
N588 N 0.13888 0.97348 0.46907 0.0
C589 C 0.14418 0.97326 0.51144 0.0
Co590 Co 0.47926 0.09993 0.99593 0.0
Co591 Co 0.49291 0.13792 0.9447 0.0
O592 O 0.48616 0.12453 0.99626 0.0
C593 C 0.5091 0.101 0.05866 0.0
O594 O 0.51665 0.11289 0.03455 0.0
C595 C 0.46682 0.16629 0.94219 0.0
O596 O 0.4625 0.16065 0.90352 0.0
O597 O 0.47276 0.12859 0.91077 0.0
O598 O 0.46379 0.10436 0.94518 0.0
H599 H 0.50498 0.14661 0.78618 0.0
H600 H 0.47636 0.12062 0.07628 0.0
O601 O 0.49442 0.09471 0.04755 0.0
H602 H 0.4168 0.10005 0.04497 0.0
H603 H 0.46138 0.043 0.0644 0.0
H604 H 0.47377 0.07372 0.9272 0.0
H605 H 0.44118 0.09214 0.9973 0.0
H606 H 0.46993 0.07395 0.06442 0.0
O607 O 0.47827 0.15808 0.96474 0.0
H608 H 0.49643 0.13 0.85129 0.0
H609 H 0.50418 0.1747 0.92932 0.0
H610 H 0.4651 0.04281 0.92569 0.0
H611 H 0.4524 0.12869 0.12512 0.0
H612 H 0.45885 0.02724 0.99465 0.0
H613 H 0.42236 0.1184 0.10953 0.0
O614 O 0.49888 0.09352 0.95644 0.0
H615 H 0.52189 0.16464 0.07458 0.0
H616 H 0.53114 0.14082 0.92859 0.0
H617 H 0.55633 0.15136 0.97084 0.0
H618 H 0.55178 0.16342 0.04436 0.0
H619 H 0.49709 0.15376 0.03142 0.0
H620 H 0.51275 0.19181 0.86503 0.0
H621 H 0.5132 0.17776 0.79281 0.0
O622 O 0.50744 0.11831 0.92396 0.0
C623 C 0.46257 0.1156 0.91477 0.0
C624 C 0.50484 0.15288 0.81747 0.0
C625 C 0.5092 0.17825 0.86171 0.0
N626 N 0.4998 0.15136 0.89407 0.0
C627 C 0.50001 0.14354 0.85446 0.0
C628 C 0.50432 0.1685 0.898 0.0
C629 C 0.50945 0.17036 0.82121 0.0
C630 C 0.46334 0.11602 0.06941 0.0
N631 N 0.46018 0.1059 0.03401 0.0
C632 C 0.44982 0.12067 0.09712 0.0
C633 C 0.43296 0.11491 0.08833 0.0
C634 C 0.42983 0.10462 0.0521 0.0
C635 C 0.44368 0.10025 0.02511 0.0
C636 C 0.46405 0.04965 0.03413 0.0
C637 C 0.47097 0.06706 0.95733 0.0
C638 C 0.46895 0.06716 0.03394 0.0
N639 N 0.47226 0.07566 0.99582 0.0
C640 C 0.46612 0.04955 0.95628 0.0
C641 C 0.46263 0.04082 0.99499 0.0
C642 C 0.50847 0.1019 0.92985 0.0
C643 C 0.52404 0.15946 0.04254 0.0
C644 C 0.52906 0.14596 0.96063 0.0
C645 C 0.54337 0.15197 0.98435 0.0
C646 C 0.5408 0.15875 0.02559 0.0
N647 N 0.51264 0.14674 0.97744 0.0
C648 C 0.51003 0.15336 0.01786 0.0
Co649 Co 0.41006 0.48344 0.51066 0.0
Co650 Co 0.3731 0.49902 0.45997 0.0
O651 O 0.38612 0.49239 0.51225 0.0
C652 C 0.41289 0.51241 0.5734 0.0
O653 O 0.405 0.52245 0.5447 0.0
C654 C 0.34708 0.47493 0.49911 0.0
O655 O 0.35908 0.46274 0.50214 0.0
O656 O 0.37769 0.47587 0.43363 0.0
O657 O 0.40491 0.47005 0.45681 0.0
H658 H 0.36275 0.50338 0.29929 0.0
H659 H 0.38915 0.47947 0.59048 0.0
O660 O 0.41581 0.49646 0.56491 0.0
H661 H 0.40454 0.41967 0.54734 0.0
H662 H 0.46507 0.45891 0.57731 0.0
H663 H 0.43632 0.47831 0.44184 0.0
H664 H 0.4146 0.44491 0.50453 0.0
H665 H 0.43482 0.46986 0.57792 0.0
O666 O 0.351 0.49012 0.48563 0.0
H667 H 0.3792 0.49562 0.36561 0.0
H668 H 0.33871 0.5162 0.44333 0.0
H669 H 0.46653 0.46731 0.43972 0.0
H670 H 0.37893 0.4546 0.63445 0.0
H671 H 0.48111 0.45752 0.50781 0.0
H672 H 0.38661 0.42444 0.61289 0.0
O673 O 0.41792 0.50368 0.47452 0.0
H674 H 0.35582 0.53932 0.57979 0.0
H675 H 0.37668 0.53585 0.42935 0.0
H676 H 0.37213 0.56463 0.46245 0.0
H677 H 0.3616 0.56649 0.53818 0.0
H678 H 0.36069 0.51079 0.54552 0.0
H679 H 0.32175 0.52405 0.37785 0.0
H680 H 0.33379 0.5177 0.30516 0.0
O681 O 0.39448 0.50826 0.43228 0.0
C682 C 0.39181 0.46707 0.43225 0.0
C683 C 0.35738 0.50626 0.33077 0.0
C684 C 0.33436 0.51784 0.37486 0.0
N685 N 0.35998 0.50554 0.40832 0.0
C686 C 0.36665 0.50192 0.36845 0.0
C687 C 0.34401 0.51332 0.41183 0.0
C688 C 0.34113 0.51428 0.33409 0.0
C689 C 0.39264 0.46639 0.58108 0.0
N690 N 0.40253 0.46365 0.54513 0.0
C691 C 0.38678 0.45236 0.60602 0.0
C692 C 0.39107 0.43544 0.59388 0.0
C693 C 0.40112 0.43275 0.55709 0.0
C694 C 0.40674 0.44709 0.53292 0.0
C695 C 0.45885 0.46311 0.54742 0.0
C696 C 0.44254 0.47398 0.47158 0.0
C697 C 0.44174 0.46937 0.54757 0.0
N698 N 0.43377 0.47461 0.50991 0.0
C699 C 0.45967 0.46781 0.47019 0.0
C700 C 0.46784 0.46233 0.50841 0.0
C701 C 0.41049 0.51059 0.44147 0.0
C702 C 0.36036 0.53868 0.54672 0.0
C703 C 0.37215 0.53654 0.46236 0.0
C704 C 0.36955 0.55288 0.4809 0.0
C705 C 0.36363 0.55392 0.52338 0.0
N706 N 0.36888 0.52166 0.48545 0.0
C707 C 0.36308 0.52257 0.52711 0.0
Co708 Co 0.01196 0.09975 0.00611 0.0
Co709 Co 0.99239 0.13266 0.06471 0.0
O710 O 0.00048 0.12251 0.01043 0.0
C711 C 0.98192 0.09509 0.94572 0.0
O712 O 0.9714 0.10003 0.97668 0.0
C713 C 0.01649 0.16055 0.03438 0.0
O714 O 0.02868 0.14878 0.02836 0.0
O715 O 0.01503 0.12728 0.09461 0.0
O716 O 0.02603 0.10443 0.05887 0.0
H717 H 0.98296 0.13394 0.22557 0.0
H718 H 0.01128 0.12398 0.93088 0.0
O719 O 0.9983 0.09454 0.95229 0.0
H720 H 0.07355 0.11404 0.96343 0.0
H721 H 0.04057 0.05058 0.92587 0.0
H722 H 0.02217 0.07198 0.06871 0.0
H723 H 0.05088 0.0994 0.00648 0.0
H724 H 0.02622 0.07922 0.93259 0.0
O725 O 0.00141 0.15602 0.04711 0.0
H726 H 0.99287 0.12132 0.15671 0.0
H727 H 0.97463 0.16596 0.08783 0.0
H728 H 0.03661 0.04334 0.0635 0.0
H729 H 0.03353 0.13877 0.88673 0.0
H730 H 0.04591 0.03246 0.99166 0.0
H731 H 0.06492 0.13387 0.90299 0.0
O732 O 0.99379 0.08822 0.04283 0.0
H733 H 0.95473 0.15502 0.94249 0.0
H734 H 0.955 0.12766 0.08754 0.0
H735 H 0.92696 0.13352 0.05056 0.0
H736 H 0.92672 0.14734 0.97752 0.0
H737 H 0.98248 0.14875 0.98051 0.0
H738 H 0.96468 0.17914 0.15597 0.0
H739 H 0.96877 0.16307 0.22547 0.0
O740 O 0.98293 0.10984 0.08358 0.0
C741 C 0.02648 0.11536 0.08965 0.0
C742 C 0.98107 0.14106 0.19548 0.0
C743 C 0.97084 0.16644 0.15643 0.0
N744 N 0.98426 0.14285 0.11827 0.0
C745 C 0.98662 0.13396 0.15638 0.0
C746 C 0.97655 0.15893 0.11796 0.0
C747 C 0.97313 0.15741 0.19541 0.0
C748 C 0.02492 0.12169 0.93796 0.0
N749 N 0.02977 0.1108 0.97116 0.0
C750 C 0.03745 0.13014 0.91293 0.0
C751 C 0.05506 0.1274 0.9221 0.0
C752 C 0.05992 0.11628 0.95603 0.0
C753 C 0.04702 0.10807 0.98039 0.0
C754 C 0.03658 0.05518 0.95735 0.0
C755 C 0.02624 0.06737 0.03736 0.0
C756 C 0.0284 0.07137 0.96135 0.0
N757 N 0.02342 0.0773 0.00104 0.0
C758 C 0.03438 0.05112 0.0346 0.0
C759 C 0.03958 0.04502 0.99428 0.0
C760 C 0.98391 0.09391 0.07275 0.0
C761 C 0.95467 0.14901 0.97432 0.0
C762 C 0.955 0.13357 0.05566 0.0
C763 C 0.93908 0.13692 0.03494 0.0
C764 C 0.93896 0.14468 0.99398 0.0
N765 N 0.97035 0.13785 0.03617 0.0
C766 C 0.97033 0.14547 0.99603 0.0
Co767 Co 0.40973 0.00879 0.496 0.0
Co768 Co 0.37497 0.99052 0.54924 0.0
O769 O 0.38688 0.99748 0.49603 0.0
C770 C 0.41449 0.97952 0.43458 0.0
O771 O 0.40686 0.96918 0.46266 0.0
C772 C 0.34705 0.0117 0.50712 0.0
O773 O 0.35828 0.02445 0.50247 0.0
O774 O 0.37744 0.01433 0.57347 0.0
O775 O 0.40357 0.02259 0.5484 0.0
H776 H 0.3663 0.98713 0.71036 0.0
H777 H 0.38766 0.00917 0.41686 0.0
O778 O 0.41654 0.99558 0.44306 0.0
H779 H 0.39736 0.07096 0.45194 0.0
H780 H 0.46144 0.03752 0.42608 0.0
H781 H 0.43573 0.01769 0.56377 0.0
H782 H 0.41051 0.0477 0.49704 0.0
H783 H 0.43248 0.02368 0.42703 0.0
O784 O 0.35195 0.99711 0.52297 0.0
H785 H 0.38146 0.99552 0.64326 0.0
H786 H 0.3423 0.97094 0.56765 0.0
H787 H 0.46465 0.03162 0.56434 0.0
H788 H 0.37438 0.03202 0.37058 0.0
H789 H 0.4777 0.04162 0.49512 0.0
H790 H 0.37917 0.06318 0.3881 0.0
O791 O 0.41989 0.98998 0.53384 0.0
H792 H 0.36047 0.94689 0.43409 0.0
H793 H 0.38261 0.95475 0.58305 0.0
H794 H 0.38056 0.92514 0.55295 0.0
H795 H 0.3694 0.92107 0.47798 0.0
H796 H 0.36288 0.97629 0.46535 0.0
H797 H 0.32662 0.96241 0.63392 0.0
H798 H 0.33865 0.97046 0.70594 0.0
O799 O 0.39744 0.98385 0.57761 0.0
C800 C 0.39049 0.02459 0.57321 0.0
C801 C 0.36095 0.98349 0.67918 0.0
C802 C 0.33867 0.96964 0.63627 0.0
N803 N 0.36287 0.9836 0.60158 0.0
C804 C 0.36952 0.98815 0.64107 0.0
C805 C 0.34759 0.97454 0.59885 0.0
C806 C 0.34543 0.97415 0.67667 0.0
C807 C 0.3899 0.0227 0.42452 0.0
N808 N 0.39988 0.02709 0.45958 0.0
C809 C 0.3823 0.03558 0.39827 0.0
C810 C 0.38498 0.05306 0.40815 0.0
C811 C 0.39517 0.05744 0.44397 0.0
C812 C 0.40254 0.0442 0.4695 0.0
C813 C 0.45589 0.03322 0.45645 0.0
C814 C 0.44128 0.02209 0.53354 0.0
C815 C 0.43951 0.02533 0.45718 0.0
N816 N 0.43239 0.01994 0.49544 0.0
C817 C 0.45768 0.02994 0.53406 0.0
C818 C 0.465 0.03553 0.4952 0.0
C819 C 0.41352 0.98306 0.56791 0.0
C820 C 0.3653 0.94849 0.46684 0.0
C821 C 0.3778 0.95309 0.55034 0.0
C822 C 0.37662 0.93629 0.53352 0.0
C823 C 0.37034 0.93401 0.49146 0.0
N824 N 0.3728 0.96722 0.526 0.0
C825 C 0.36663 0.96509 0.48476 0.0
Co826 Co 0.48306 0.41066 0.9932 0.0
Co827 Co 0.49697 0.37379 0.04703 0.0
O828 O 0.49163 0.38654 0.9933 0.0
C829 C 0.51222 0.41139 0.93031 0.0
O830 O 0.52124 0.40139 0.95694 0.0
C831 C 0.47389 0.34823 0.00298 0.0
O832 O 0.46261 0.36074 0.99472 0.0
O833 O 0.47325 0.37869 0.06958 0.0
O834 O 0.46885 0.40609 0.04617 0.0
H835 H 0.4972 0.36436 0.20834 0.0
H836 H 0.47974 0.38942 0.91386 0.0
O837 O 0.49683 0.41612 0.93991 0.0
H838 H 0.41964 0.40596 0.9518 0.0
H839 H 0.46015 0.46571 0.92322 0.0
H840 H 0.47768 0.43738 0.06076 0.0
H841 H 0.4445 0.41588 0.99616 0.0
H842 H 0.47057 0.43528 0.92429 0.0
O843 O 0.4884 0.35161 0.02123 0.0
H844 H 0.49111 0.3804 0.14038 0.0
H845 H 0.51364 0.33949 0.06755 0.0
H846 H 0.46719 0.46778 0.0612 0.0
H847 H 0.45526 0.37932 0.86837 0.0
H848 H 0.45834 0.48215 0.99206 0.0
H849 H 0.42495 0.38757 0.88732 0.0
O850 O 0.50304 0.41826 0.03038 0.0
H851 H 0.53987 0.35446 0.93492 0.0
H852 H 0.53309 0.37763 0.08245 0.0
H853 H 0.56257 0.37235 0.05403 0.0
H854 H 0.5661 0.36064 0.9798 0.0
H855 H 0.51062 0.36014 0.96444 0.0
H856 H 0.51985 0.32293 0.1347 0.0
H857 H 0.51167 0.3354 0.20577 0.0
O858 O 0.50573 0.39534 0.07531 0.0
C859 C 0.46494 0.39309 0.07017 0.0
C860 C 0.50089 0.35882 0.17759 0.0
C861 C 0.51358 0.33556 0.13626 0.0
N862 N 0.50215 0.36097 0.10004 0.0
C863 C 0.49751 0.36786 0.13899 0.0
C864 C 0.51 0.34498 0.09833 0.0
C865 C 0.50899 0.34256 0.17612 0.0
C866 C 0.46659 0.39317 0.92209 0.0
N867 N 0.46357 0.4033 0.95746 0.0
C868 C 0.45278 0.38737 0.89631 0.0
C869 C 0.43578 0.39198 0.907 0.0
C870 C 0.43279 0.40229 0.94318 0.0
C871 C 0.44692 0.40784 0.96823 0.0
C872 C 0.46394 0.45958 0.95356 0.0
C873 C 0.47377 0.44351 0.03057 0.0
C874 C 0.46989 0.44237 0.95437 0.0
N875 N 0.47463 0.43452 0.9926 0.0
C876 C 0.46788 0.46074 0.03101 0.0
C877 C 0.46292 0.4688 0.9922 0.0
C878 C 0.50879 0.41114 0.06516 0.0
C879 C 0.5385 0.35952 0.96736 0.0
C880 C 0.53451 0.37264 0.05001 0.0
C881 C 0.55124 0.36961 0.03416 0.0
C882 C 0.55321 0.36302 0.99253 0.0
N883 N 0.52015 0.36916 0.02513 0.0
C884 C 0.52197 0.36268 0.98431 0.0
Co885 Co 0.09543 0.47799 0.50564 0.0
Co886 Co 0.13485 0.48871 0.55315 0.0
O887 O 0.12026 0.48386 0.50237 0.0
C888 C 0.0953 0.50761 0.44248 0.0
O889 O 0.10501 0.51662 0.46938 0.0
C890 C 0.16376 0.46363 0.54284 0.0
O891 O 0.15879 0.4567 0.57972 0.0
O892 O 0.12701 0.46683 0.58185 0.0
O893 O 0.09957 0.46321 0.55807 0.0
H894 H 0.14794 0.49268 0.71258 0.0
H895 H 0.11492 0.47261 0.42427 0.0
O896 O 0.09052 0.49225 0.45246 0.0
H897 H 0.09208 0.41473 0.464 0.0
H898 H 0.03695 0.46152 0.44331 0.0
H899 H 0.06976 0.47525 0.57665 0.0
H900 H 0.08587 0.4403 0.50925 0.0
H901 H 0.06825 0.46855 0.44019 0.0
O902 O 0.15492 0.47605 0.52562 0.0
H903 H 0.1297 0.48689 0.64821 0.0
H904 H 0.17153 0.5008 0.56567 0.0
H905 H 0.03851 0.46813 0.58128 0.0
H906 H 0.12129 0.44742 0.37776 0.0
H907 H 0.02189 0.4612 0.51427 0.0
H908 H 0.10986 0.41821 0.39759 0.0
O909 O 0.09061 0.49857 0.54336 0.0
H910 H 0.15654 0.52494 0.42865 0.0
H911 H 0.13702 0.5259 0.58047 0.0
H912 H 0.14542 0.55337 0.54451 0.0
H913 H 0.15531 0.553 0.46808 0.0
H914 H 0.14786 0.49778 0.46573 0.0
H915 H 0.19025 0.50669 0.62914 0.0
H916 H 0.17845 0.50266 0.70326 0.0
O917 O 0.11543 0.50136 0.58158 0.0
C918 C 0.11233 0.45913 0.58281 0.0
C919 C 0.15322 0.49452 0.68045 0.0
C920 C 0.17696 0.50238 0.63363 0.0
N921 N 0.1495 0.49357 0.60322 0.0
C922 C 0.14294 0.49127 0.64388 0.0
C923 C 0.1663 0.49902 0.59782 0.0
C924 C 0.17034 0.50011 0.6752 0.0
C925 C 0.10984 0.45996 0.43301 0.0
N926 N 0.10003 0.45794 0.46946 0.0
C927 C 0.11352 0.44574 0.4066 0.0
C928 C 0.10711 0.42935 0.41776 0.0
C929 C 0.09715 0.42738 0.45503 0.0
C930 C 0.09374 0.4419 0.48066 0.0
C931 C 0.04405 0.4645 0.47274 0.0
C932 C 0.06264 0.47217 0.54736 0.0
C933 C 0.06177 0.46855 0.47116 0.0
N934 N 0.07085 0.47223 0.50823 0.0
C935 C 0.04494 0.46818 0.55018 0.0
C936 C 0.03561 0.46431 0.51257 0.0
C937 C 0.09946 0.50508 0.5745 0.0
C938 C 0.15232 0.52526 0.46201 0.0
C939 C 0.14125 0.52563 0.54716 0.0
C940 C 0.14603 0.54123 0.527 0.0
C941 C 0.15159 0.54101 0.48413 0.0
N942 N 0.14206 0.51023 0.52529 0.0
C943 C 0.14745 0.50992 0.48322 0.0
C944 C 0.96245 0.67943 0.00348 0.0
C945 C 0.97979 0.67368 0.00857 0.0
C946 C 0.95855 0.69733 0.00269 0.0
C947 C 0.97582 0.73821 0.04414 0.0
H948 H 0.95127 0.76213 0.95087 0.0
C949 C 0.98767 0.80967 0.00486 0.0
C950 C 0.97398 0.82041 0.99006 0.0
C951 C 0.98497 0.79198 0.01248 0.0
C952 C 0.9578 0.75561 0.97768 0.0
H953 H 0.00666 0.6823 0.01428 0.0
H954 H 0.99982 0.71313 0.01344 0.0
H955 H 0.95268 0.73019 0.95178 0.0
H956 H 0.94653 0.82107 0.97292 0.0
H957 H 0.94179 0.78988 0.98629 0.0
H958 H 0.98136 0.76341 0.06964 0.0
C959 C 0.98924 0.70388 0.01064 0.0
C960 C 0.95864 0.73735 0.97808 0.0
C961 C 0.99313 0.68617 0.01095 0.0
C962 C 0.95731 0.81313 0.98449 0.0
C963 C 0.95463 0.79528 0.99179 0.0
C964 C 0.97489 0.75634 0.04391 0.0
C965 C 0.97192 0.70966 0.00749 0.0
C966 C 0.96822 0.72856 0.01049 0.0
C967 C 0.96851 0.78448 0.00539 0.0
C968 C 0.96647 0.7653 0.00982 0.0
H969 H 0.95187 0.67015 0.00146 0.0
H970 H 0.94509 0.70151 0.99994 0.0
H971 H 0.98302 0.7317 0.06993 0.0
H972 H 0.00066 0.81485 0.00954 0.0
H973 H 0.99602 0.78403 0.0223 0.0
C974 C 0.68079 0.98582 0.50941 0.0
C975 C 0.67288 0.97447 0.47972 0.0
C976 C 0.69852 0.98415 0.51963 0.0
C977 C 0.73918 0.96701 0.47263 0.0
H978 H 0.75867 0.97926 0.58447 0.0
C979 C 0.81374 0.96719 0.50845 0.0
C980 C 0.81985 0.98203 0.53015 0.0
C981 C 0.79579 0.96412 0.5044 0.0
C982 C 0.75341 0.97584 0.55301 0.0
H983 H 0.6771 0.95174 0.43975 0.0
H984 H 0.70787 0.94859 0.45838 0.0
H985 H 0.72713 0.9772 0.57554 0.0
H986 H 0.81184 0.00525 0.56466 0.0
H987 H 0.78081 0.9999 0.55754 0.0
H988 H 0.7655 0.96588 0.45005 0.0
C989 C 0.70052 0.95907 0.47288 0.0
C990 C 0.73534 0.97469 0.54787 0.0
C991 C 0.68283 0.9608 0.46248 0.0
C992 C 0.80765 0.99367 0.54773 0.0
C993 C 0.78981 0.99054 0.544 0.0
C994 C 0.75727 0.96808 0.47785 0.0
C995 C 0.70871 0.97102 0.50063 0.0
C996 C 0.72796 0.97057 0.5074 0.0
C997 C 0.78365 0.97573 0.52237 0.0
C998 C 0.76457 0.97285 0.51788 0.0
H999 H 0.67354 0.99656 0.52311 0.0
H1000 H 0.70438 0.9937 0.54082 0.0
H1001 H 0.73399 0.96407 0.44081 0.0
H1002 H 0.82279 0.95797 0.49455 0.0
H1003 H 0.79142 0.95256 0.48764 0.0
C1004 C 0.51666 0.80298 0.03563 0.0
C1005 C 0.52894 0.81588 0.02523 0.0
C1006 C 0.52146 0.7855 0.03768 0.0
C1007 C 0.55144 0.75304 0.99791 0.0
H1008 H 0.5344 0.72653 0.0963 0.0
C1009 C 0.55478 0.67749 0.00504 0.0
C1010 C 0.53851 0.66999 0.01422 0.0
C1011 C 0.5576 0.69529 0.01224 0.0
C1012 C 0.53933 0.73374 0.0687 0.0
H1013 H 0.55586 0.82036 0.00737 0.0
H1014 H 0.56419 0.78939 0.01007 0.0
H1015 H 0.53183 0.75819 0.09575 0.0
H1016 H 0.51282 0.67496 0.04033 0.0
H1017 H 0.51773 0.7057 0.05312 0.0
H1018 H 0.55811 0.72845 0.96987 0.0
C1019 C 0.55087 0.79307 0.01713 0.0
C1020 C 0.53787 0.75185 0.06841 0.0
C1021 C 0.5461 0.81074 0.01558 0.0
C1022 C 0.52549 0.68036 0.03283 0.0
C1023 C 0.52835 0.69799 0.04043 0.0
C1024 C 0.55284 0.73483 0.9981 0.0
C1025 C 0.53863 0.78035 0.02902 0.0
C1026 C 0.5433 0.76163 0.03234 0.0
C1027 C 0.54429 0.70577 0.02938 0.0
C1028 C 0.54618 0.72497 0.03282 0.0
H1029 H 0.50331 0.80636 0.04305 0.0
H1030 H 0.51165 0.77594 0.04603 0.0
H1031 H 0.55571 0.76029 0.96968 0.0
H1032 H 0.56503 0.66983 0.99049 0.0
H1033 H 0.57003 0.70092 0.00364 0.0
C1034 C 0.68416 0.52214 0.477 0.0
C1035 C 0.67299 0.53598 0.48762 0.0
C1036 C 0.70191 0.52495 0.47106 0.0
C1037 C 0.73717 0.55436 0.50376 0.0
H1038 H 0.76335 0.52614 0.42323 0.0
C1039 C 0.81369 0.55257 0.48456 0.0
C1040 C 0.82046 0.5355 0.48549 0.0
C1041 C 0.7956 0.55541 0.48382 0.0
C1042 C 0.7562 0.53416 0.44577 0.0
H1043 H 0.67164 0.56382 0.49856 0.0
H1044 H 0.70286 0.56879 0.48773 0.0
H1045 H 0.73165 0.52665 0.41886 0.0
H1046 H 0.81347 0.50812 0.48937 0.0
H1047 H 0.78224 0.51311 0.48744 0.0
H1048 H 0.76198 0.56165 0.53082 0.0
C1049 C 0.69779 0.55571 0.48449 0.0
C1050 C 0.73805 0.53442 0.44337 0.0
C1051 C 0.6799 0.55289 0.4903 0.0
C1052 C 0.80879 0.52144 0.48803 0.0
C1053 C 0.79086 0.52426 0.48677 0.0
C1054 C 0.75543 0.55422 0.50586 0.0
C1055 C 0.70904 0.5417 0.47549 0.0
C1056 C 0.72827 0.54401 0.47331 0.0
C1057 C 0.78408 0.54121 0.4835 0.0
C1058 C 0.76504 0.54364 0.47779 0.0
H1059 H 0.67929 0.50894 0.47463 0.0
H1060 H 0.71016 0.51379 0.46481 0.0
H1061 H 0.73003 0.56182 0.52746 0.0
H1062 H 0.82231 0.56369 0.48265 0.0
H1063 H 0.79064 0.56861 0.48154 0.0
C1064 C 0.00991 0.31531 0.02455 0.0
C1065 C 0.02315 0.32608 0.00833 0.0
C1066 C 0.01309 0.29772 0.03296 0.0
C1067 C 0.03984 0.26147 0.99705 0.0
H1068 H 0.01799 0.23797 0.09402 0.0
C1069 C 0.03709 0.18553 0.02032 0.0
C1070 C 0.02032 0.17941 0.03045 0.0
C1071 C 0.04061 0.20348 0.02017 0.0
C1072 C 0.02422 0.24434 0.06681 0.0
H1073 H 0.05029 0.32697 0.98941 0.0
H1074 H 0.05583 0.29594 0.00387 0.0
H1075 H 0.01897 0.26969 0.09195 0.0
H1076 H 0.99401 0.18745 0.04681 0.0
H1077 H 0.00017 0.21835 0.04664 0.0
H1078 H 0.04451 0.23597 0.97129 0.0
C1079 C 0.043 0.30124 0.01005 0.0
C1080 C 0.02479 0.26249 0.06566 0.0
C1081 C 0.03986 0.31899 0.0021 0.0
C1082 C 0.00713 0.1916 0.03929 0.0
C1083 C 0.01067 0.20937 0.03949 0.0
C1084 C 0.03929 0.24322 0.99825 0.0
C1085 C 0.02956 0.29039 0.02508 0.0
C1086 C 0.03203 0.27128 0.03004 0.0
C1087 C 0.02748 0.21552 0.03062 0.0
C1088 C 0.03088 0.23453 0.0324 0.0
H1089 H 0.9969 0.32038 0.02975 0.0
H1090 H 0.00239 0.2897 0.04399 0.0
H1091 H 0.04544 0.26788 0.96908 0.0
H1092 H 0.04753 0.17649 0.01328 0.0
H1093 H 0.05368 0.2079 0.01299 0.0
C1094 C 0.31634 0.00103 0.50686 0.0
C1095 C 0.32816 0.0147 0.49975 0.0
C1096 C 0.29842 0.00405 0.50554 0.0
C1097 C 0.26401 0.03333 0.46569 0.0
H1098 H 0.23766 0.0122 0.559 0.0
C1099 C 0.18867 0.03916 0.47559 0.0
C1100 C 0.18014 0.02328 0.48353 0.0
C1101 C 0.20675 0.04051 0.48145 0.0
C1102 C 0.2448 0.01814 0.53263 0.0
H1103 H 0.33031 0.04216 0.48356 0.0
H1104 H 0.29877 0.04739 0.48076 0.0
H1105 H 0.2693 0.00975 0.55892 0.0
H1106 H 0.1838 0.99661 0.50575 0.0
H1107 H 0.21506 0.99894 0.5158 0.0
H1108 H 0.23938 0.04127 0.43873 0.0
C1109 C 0.30353 0.03435 0.48765 0.0
C1110 C 0.26293 0.01673 0.53258 0.0
C1111 C 0.32157 0.03134 0.48924 0.0
C1112 C 0.18993 0.00905 0.49928 0.0
C1113 C 0.2079 0.01042 0.50529 0.0
C1114 C 0.24579 0.03468 0.46562 0.0
C1115 C 0.2918 0.02079 0.49686 0.0
C1116 C 0.27271 0.02393 0.49859 0.0
C1117 C 0.2166 0.02605 0.49574 0.0
C1118 C 0.23596 0.02673 0.49859 0.0
H1119 H 0.3209 0.98799 0.51462 0.0
H1120 H 0.28971 0.99325 0.51178 0.0
H1121 H 0.27121 0.03899 0.43905 0.0
H1122 H 0.18151 0.05036 0.46333 0.0
H1123 H 0.21305 0.05279 0.47424 0.0
C1124 C 0.44885 0.19325 0.93048 0.0
C1125 C 0.46125 0.18396 0.95531 0.0
C1126 C 0.4457 0.2109 0.93829 0.0
C1127 C 0.45467 0.2467 0.0166 0.0
H1128 H 0.45388 0.27593 0.91349 0.0
C1129 C 0.4795 0.31659 0.01563 0.0
C1130 C 0.46931 0.32972 0.99584 0.0
C1131 C 0.475 0.29912 0.01167 0.0
C1132 C 0.45377 0.26794 0.94255 0.0
H1133 H 0.4794 0.18572 0.00931 0.0
H1134 H 0.47417 0.21643 0.02243 0.0
H1135 H 0.45191 0.24434 0.90643 0.0
H1136 H 0.44654 0.3347 0.95556 0.0
H1137 H 0.43892 0.30377 0.94757 0.0
H1138 H 0.45752 0.27031 0.05243 0.0
C1139 C 0.46664 0.21011 0.99728 0.0
C1140 C 0.4526 0.24982 0.93861 0.0
C1141 C 0.46971 0.19245 0.98965 0.0
C1142 C 0.45464 0.32489 0.9712 0.0
C1143 C 0.45027 0.30724 0.96664 0.0
C1144 C 0.45601 0.26475 0.02046 0.0
C1145 C 0.45493 0.21968 0.97098 0.0
C1146 C 0.45353 0.23894 0.97555 0.0
C1147 C 0.46032 0.29424 0.98738 0.0
C1148 C 0.45605 0.27551 0.98342 0.0
H1149 H 0.442 0.18705 0.90397 0.0
H1150 H 0.43635 0.21777 0.91796 0.0
H1151 H 0.45502 0.23878 0.04577 0.0
H1152 H 0.49087 0.31976 0.03493 0.0
H1153 H 0.48315 0.28937 0.02738 0.0
C1154 C 0.32286 0.45398 0.51722 0.0
C1155 C 0.32839 0.4708 0.50534 0.0
C1156 C 0.30503 0.45 0.5185 0.0
C1157 C 0.2635 0.46348 0.47002 0.0
H1158 H 0.2413 0.44517 0.57297 0.0
C1159 C 0.19029 0.47193 0.50089 0.0
C1160 C 0.18154 0.45983 0.52716 0.0
C1161 C 0.20812 0.4701 0.4932 0.0
C1162 C 0.24728 0.4499 0.54349 0.0
H1163 H 0.31941 0.49675 0.48711 0.0
H1164 H 0.28866 0.4897 0.48872 0.0
H1165 H 0.27299 0.4477 0.57096 0.0
H1166 H 0.1843 0.4356 0.56313 0.0
H1167 H 0.21527 0.43206 0.54839 0.0
H1168 H 0.23798 0.46579 0.44235 0.0
C1169 C 0.29805 0.47957 0.49668 0.0
C1170 C 0.26544 0.4514 0.54253 0.0
C1171 C 0.31573 0.48361 0.49603 0.0
C1172 C 0.19072 0.44523 0.54306 0.0
C1173 C 0.20853 0.44329 0.53493 0.0
C1174 C 0.2454 0.46177 0.47071 0.0
C1175 C 0.29252 0.4627 0.50727 0.0
C1176 C 0.27365 0.45868 0.50626 0.0
C1177 C 0.21759 0.45601 0.51113 0.0
C1178 C 0.23698 0.45545 0.50794 0.0
H1179 H 0.33227 0.44382 0.52462 0.0
H1180 H 0.30103 0.4369 0.52702 0.0
H1181 H 0.26958 0.46892 0.44139 0.0
H1182 H 0.18363 0.4834 0.48841 0.0
H1183 H 0.21462 0.4803 0.47516 0.0
C1184 C 0.04235 0.592 0.87773 0.0
C1185 C 0.0291 0.58291 0.89924 0.0
C1186 C 0.04906 0.58575 0.83871 0.0
C1187 C 0.06828 0.56555 0.77016 0.0
H1188 H 0.04009 0.53635 0.69568 0.0
C1189 C 0.09983 0.52134 0.64434 0.0
C1190 C 0.09087 0.51675 0.60618 0.0
C1191 C 0.09177 0.53117 0.67623 0.0
C1192 C 0.04813 0.54472 0.71553 0.0
H1193 H 0.01268 0.56001 0.89731 0.0
H1194 H 0.02501 0.54856 0.83111 0.0
H1195 H 0.02682 0.55059 0.75716 0.0
H1196 H 0.06637 0.51946 0.57135 0.0
H1197 H 0.05241 0.53737 0.62652 0.0
H1198 H 0.08936 0.56044 0.72737 0.0
C1199 C 0.0298 0.56091 0.84289 0.0
C1200 C 0.04056 0.55266 0.75154 0.0
C1201 C 0.02283 0.56737 0.88127 0.0
C1202 C 0.07366 0.52272 0.60034 0.0
C1203 C 0.06562 0.53288 0.63222 0.0
C1204 C 0.07574 0.55794 0.7337 0.0
C1205 C 0.04298 0.57002 0.82078 0.0
C1206 C 0.05063 0.56284 0.78009 0.0
C1207 C 0.07454 0.53711 0.67087 0.0
C1208 C 0.06593 0.54697 0.7065 0.0
H1209 H 0.04727 0.60414 0.89058 0.0
H1210 H 0.05891 0.5934 0.82249 0.0
H1211 H 0.07661 0.57314 0.79119 0.0
H1212 H 0.11306 0.51695 0.6504 0.0
H1213 H 0.09902 0.53365 0.70575 0.0
C1214 C 0.98161 0.06837 0.12278 0.0
C1215 C 0.97347 0.08171 0.09874 0.0
C1216 C 0.97264 0.05996 0.15633 0.0
C1217 C 0.93584 0.06872 0.23051 0.0
H1218 H 0.94442 0.02129 0.26886 0.0
C1219 C 0.91488 0.04402 0.39982 0.0
C1220 C 0.90954 0.02661 0.40395 0.0
C1221 C 0.92168 0.0502 0.36063 0.0
C1222 C 0.94167 0.03451 0.25837 0.0
H1223 H 0.94935 0.0958 0.08814 0.0
H1224 H 0.93343 0.08066 0.145 0.0
H1225 H 0.95737 0.0317 0.20175 0.0
H1226 H 0.90649 0.00222 0.3696 0.0
H1227 H 0.91778 0.0131 0.30124 0.0
H1228 H 0.91982 0.07144 0.28645 0.0
C1229 C 0.94687 0.07705 0.13942 0.0
C1230 C 0.94931 0.04056 0.22006 0.0
C1231 C 0.9559 0.08559 0.10646 0.0
C1232 C 0.91064 0.01568 0.36768 0.0
C1233 C 0.91726 0.02189 0.32848 0.0
C1234 C 0.92811 0.06265 0.26857 0.0
C1235 C 0.95533 0.06466 0.16608 0.0
C1236 C 0.94656 0.05778 0.20568 0.0
C1237 C 0.92313 0.03916 0.32453 0.0
C1238 C 0.931 0.0455 0.28324 0.0
H1239 H 0.99525 0.06537 0.11786 0.0
H1240 H 0.97964 0.05057 0.17624 0.0
H1241 H 0.93365 0.08217 0.22108 0.0
H1242 H 0.91431 0.05274 0.4272 0.0
H1243 H 0.92625 0.06352 0.35908 0.0
C1244 C 0.4965 0.91927 0.87162 0.0
C1245 C 0.48607 0.90719 0.89396 0.0
C1246 C 0.49078 0.92674 0.83264 0.0
C1247 C 0.46036 0.9216 0.74089 0.0
H1248 H 0.46263 0.97201 0.73342 0.0
C1249 C 0.43783 0.96257 0.5895 0.0
C1250 C 0.42517 0.97498 0.60055 0.0
C1251 C 0.44739 0.95389 0.62217 0.0
C1252 C 0.46209 0.95792 0.73487 0.0
H1253 H 0.46163 0.8931 0.89204 0.0
H1254 H 0.45166 0.90614 0.8235 0.0
H1255 H 0.47487 0.95697 0.79669 0.0
H1256 H 0.41307 0.98865 0.65367 0.0
H1257 H 0.42999 0.97398 0.71019 0.0
H1258 H 0.44724 0.92271 0.67917 0.0
C1259 C 0.46429 0.90979 0.83638 0.0
C1260 C 0.46912 0.9493 0.77099 0.0
C1261 C 0.46994 0.90243 0.87577 0.0
C1262 C 0.42269 0.97905 0.64434 0.0
C1263 C 0.43243 0.97073 0.67667 0.0
C1264 C 0.45353 0.93024 0.70434 0.0
C1265 C 0.47457 0.92219 0.81472 0.0
C1266 C 0.46807 0.93107 0.77479 0.0
C1267 C 0.4447 0.9579 0.66607 0.0
C1268 C 0.45404 0.94851 0.70144 0.0
H1269 H 0.50903 0.92323 0.88459 0.0
H1270 H 0.49905 0.93615 0.81652 0.0
H1271 H 0.45949 0.90754 0.74282 0.0
H1272 H 0.43987 0.95918 0.55591 0.0
H1273 H 0.45683 0.94405 0.61325 0.0
C1274 C 0.52604 0.4378 0.08677 0.0
C1275 C 0.51848 0.42165 0.09742 0.0
C1276 C 0.53477 0.44751 0.11862 0.0
C1277 C 0.53385 0.45722 0.2313 0.0
H1278 H 0.58408 0.46279 0.23485 0.0
C1279 C 0.56836 0.4952 0.36699 0.0
C1280 C 0.58211 0.48632 0.38806 0.0
C1281 C 0.56142 0.48901 0.32815 0.0
C1282 C 0.57004 0.46138 0.2341 0.0
H1283 H 0.51416 0.4032 0.15006 0.0
H1284 H 0.52881 0.42029 0.20499 0.0
H1285 H 0.57011 0.44946 0.17124 0.0
H1286 H 0.59968 0.46423 0.38412 0.0
H1287 H 0.58755 0.45344 0.3157 0.0
H1288 H 0.53363 0.46878 0.29415 0.0
C1289 C 0.5282 0.42529 0.17207 0.0
C1290 C 0.56208 0.45395 0.19766 0.0
C1291 C 0.51985 0.4155 0.14041 0.0
C1292 C 0.58903 0.4713 0.36882 0.0
C1293 C 0.58219 0.46521 0.32953 0.0
C1294 C 0.54173 0.46488 0.26728 0.0
C1295 C 0.53569 0.44135 0.16157 0.0
C1296 C 0.54396 0.45156 0.19642 0.0
C1297 C 0.56818 0.4739 0.30912 0.0
C1298 C 0.55993 0.46678 0.26942 0.0
H1299 H 0.52523 0.44288 0.05399 0.0
H1300 H 0.54048 0.45994 0.10999 0.0
H1301 H 0.51986 0.45532 0.2311 0.0
H1302 H 0.56272 0.50684 0.38081 0.0
H1303 H 0.55069 0.49602 0.31301 0.0
C1304 C 0.06841 0.97649 0.38253 0.0
C1305 C 0.08658 0.97457 0.38688 0.0
C1306 C 0.05933 0.96774 0.34961 0.0
C1307 C 0.06346 0.93138 0.27097 0.0
H1308 H 0.03083 0.95846 0.20142 0.0
C1309 C 0.04114 0.90998 0.09994 0.0
C1310 C 0.0236 0.91279 0.08848 0.0
C1311 C 0.04789 0.91665 0.13871 0.0
C1312 C 0.03973 0.95061 0.22081 0.0
H1313 H 0.10927 0.96144 0.36054 0.0
H1314 H 0.09358 0.9464 0.30404 0.0
H1315 H 0.04352 0.97112 0.2666 0.0
H1316 H 0.99933 0.92463 0.10925 0.0
H1317 H 0.01104 0.93607 0.17657 0.0
H1318 H 0.05989 0.91098 0.22482 0.0
C1319 C 0.08626 0.95449 0.32605 0.0
C1320 C 0.04696 0.95787 0.25829 0.0
C1321 C 0.09529 0.96326 0.35853 0.0
C1322 C 0.01294 0.92229 0.11682 0.0
C1323 C 0.01968 0.92895 0.15543 0.0
C1324 C 0.05624 0.92413 0.2335 0.0
C1325 C 0.06822 0.95678 0.32069 0.0
C1326 C 0.05911 0.94843 0.28349 0.0
C1327 C 0.03724 0.92628 0.16685 0.0
C1328 C 0.04444 0.93373 0.20765 0.0
H1329 H 0.06129 0.98514 0.40364 0.0
H1330 H 0.04539 0.96968 0.34652 0.0
H1331 H 0.07258 0.92365 0.29 0.0
H1332 H 0.0497 0.90272 0.0789 0.0
H1333 H 0.06154 0.91452 0.14627 0.0
C1334 C 0.5319 0.10132 0.87378 0.0
C1335 C 0.52038 0.09217 0.90093 0.0
C1336 C 0.54122 0.09272 0.84166 0.0
C1337 C 0.5383 0.05379 0.77355 0.0
H1338 H 0.58464 0.06745 0.73747 0.0
C1339 C 0.573 0.01947 0.6333 0.0
C1340 C 0.58172 0.03 0.60295 0.0
C1341 C 0.56701 0.02639 0.67213 0.0
C1342 C 0.57164 0.06359 0.74694 0.0
H1343 H 0.51042 0.0665 0.91682 0.0
H1344 H 0.52692 0.05142 0.86094 0.0
H1345 H 0.5721 0.08003 0.80274 0.0
H1346 H 0.59137 0.05605 0.59034 0.0
H1347 H 0.58072 0.06825 0.65831 0.0
H1348 H 0.53769 0.03756 0.71757 0.0
C1349 C 0.52848 0.06536 0.86421 0.0
C1350 C 0.56446 0.07076 0.78442 0.0
C1351 C 0.51914 0.07399 0.89653 0.0
C1352 C 0.58468 0.04758 0.61296 0.0
C1353 C 0.57865 0.05454 0.652 0.0
C1354 C 0.54547 0.04662 0.73618 0.0
C1355 C 0.53932 0.0747 0.83571 0.0
C1356 C 0.54763 0.06605 0.798 0.0
C1357 C 0.56954 0.04406 0.6818 0.0
C1358 C 0.56219 0.05151 0.72222 0.0
H1359 H 0.53326 0.11532 0.87612 0.0
H1360 H 0.54929 0.10038 0.82015 0.0
H1361 H 0.52518 0.05012 0.78245 0.0
H1362 H 0.57063 0.00581 0.62702 0.0
H1363 H 0.56036 0.01786 0.69465 0.0
C1364 C 0.41266 0.52681 0.37146 0.0
C1365 C 0.42066 0.52128 0.41037 0.0
C1366 C 0.42189 0.53612 0.34049 0.0
C1367 C 0.46653 0.54607 0.30357 0.0
H1368 H 0.44072 0.57797 0.22907 0.0
C1369 C 0.47515 0.59268 0.13932 0.0
C1370 C 0.48689 0.58208 0.11687 0.0
C1371 C 0.46871 0.58739 0.1796 0.0
C1372 C 0.44837 0.56941 0.24981 0.0
H1373 H 0.44481 0.52156 0.44727 0.0
H1374 H 0.46098 0.53849 0.39323 0.0
H1375 H 0.42706 0.5662 0.29303 0.0
H1376 H 0.50108 0.55765 0.1186 0.0
H1377 H 0.48905 0.54786 0.18716 0.0
H1378 H 0.48813 0.54993 0.26127 0.0
C1379 C 0.44751 0.53523 0.38658 0.0
C1380 C 0.44035 0.56236 0.28633 0.0
C1381 C 0.43823 0.52562 0.41769 0.0
C1382 C 0.49207 0.56611 0.13534 0.0
C1383 C 0.48529 0.5606 0.17503 0.0
C1384 C 0.47472 0.55345 0.26743 0.0
C1385 C 0.43942 0.54056 0.34747 0.0
C1386 C 0.44907 0.55009 0.31285 0.0
C1387 C 0.47349 0.57115 0.19785 0.0
C1388 C 0.46557 0.56482 0.23921 0.0
H1389 H 0.39921 0.52368 0.36419 0.0
H1390 H 0.41527 0.53946 0.31044 0.0
H1391 H 0.4737 0.53669 0.32314 0.0
H1392 H 0.47116 0.6052 0.12611 0.0
H1393 H 0.46001 0.59613 0.19637 0.0
C1394 C 0.95983 0.40749 0.87182 0.0
C1395 C 0.97124 0.41621 0.9002 0.0
C1396 C 0.9511 0.41648 0.83869 0.0
C1397 C 0.9547 0.45596 0.771 0.0
H1398 H 0.90804 0.4433 0.73395 0.0
C1399 C 0.9196 0.4917 0.63018 0.0
C1400 C 0.91055 0.4814 0.59996 0.0
C1401 C 0.92589 0.48448 0.66893 0.0
C1402 C 0.92113 0.44688 0.74367 0.0
H1403 H 0.98189 0.44148 0.91657 0.0
H1404 H 0.96642 0.45727 0.85881 0.0
H1405 H 0.92057 0.43003 0.79922 0.0
H1406 H 0.90074 0.45546 0.58739 0.0
H1407 H 0.91186 0.44278 0.65511 0.0
H1408 H 0.95534 0.47267 0.71525 0.0
C1409 C 0.96445 0.44336 0.86204 0.0
C1410 C 0.92831 0.4393 0.78115 0.0
C1411 C 0.97321 0.43433 0.8954 0.0
C1412 C 0.90767 0.46375 0.60989 0.0
C1413 C 0.91396 0.45652 0.64883 0.0
C1414 C 0.94751 0.46356 0.73359 0.0
C1415 C 0.95349 0.43448 0.83287 0.0
C1416 C 0.94527 0.4436 0.79506 0.0
C1417 C 0.9233 0.46677 0.67863 0.0
C1418 C 0.93069 0.45901 0.71922 0.0
H1419 H 0.95795 0.39354 0.87428 0.0
H1420 H 0.94297 0.40914 0.8166 0.0
H1421 H 0.96789 0.45937 0.78025 0.0
H1422 H 0.92198 0.50538 0.62386 0.0
H1423 H 0.93277 0.49282 0.69141 0.0
C1424 C 0.97956 0.43283 0.11887 0.0
C1425 C 0.97374 0.41695 0.1018 0.0
C1426 C 0.97302 0.43898 0.15803 0.0
C1427 C 0.93607 0.43248 0.23441 0.0
H1428 H 0.96339 0.46386 0.30536 0.0
C1429 C 0.92914 0.47664 0.40134 0.0
C1430 C 0.91173 0.48187 0.39468 0.0
C1431 C 0.93776 0.46663 0.37004 0.0
C1432 C 0.95565 0.45487 0.28646 0.0
H1433 H 0.95699 0.39475 0.11289 0.0
H1434 H 0.94618 0.40497 0.18224 0.0
H1435 H 0.97676 0.44982 0.24347 0.0
H1436 H 0.88989 0.48064 0.34942 0.0
H1437 H 0.90485 0.46419 0.29541 0.0
H1438 H 0.91523 0.43686 0.27836 0.0
C1439 C 0.95525 0.41312 0.16476 0.0
C1440 C 0.96324 0.44703 0.2503 0.0
C1441 C 0.96148 0.40719 0.12499 0.0
C1442 C 0.90323 0.47684 0.35621 0.0
C1443 C 0.91182 0.46713 0.32507 0.0
C1444 C 0.92864 0.43999 0.27096 0.0
C1445 C 0.9608 0.42921 0.18175 0.0
C1446 C 0.95339 0.43612 0.22296 0.0
C1447 C 0.92917 0.46178 0.33141 0.0
C1448 C 0.9381 0.45178 0.29666 0.0
H1449 H 0.98899 0.44066 0.10155 0.0
H1450 H 0.97736 0.45159 0.16915 0.0
H1451 H 0.9279 0.42431 0.21438 0.0
H1452 H 0.93609 0.48029 0.43054 0.0
H1453 H 0.95111 0.46267 0.37619 0.0
C1454 C 0.03681 0.90278 0.8609 0.0
C1455 C 0.02507 0.91152 0.88809 0.0
C1456 C 0.04556 0.91166 0.82811 0.0
C1457 C 0.04134 0.95019 0.75779 0.0
H1458 H 0.0885 0.93799 0.72489 0.0
C1459 C 0.07648 0.9846 0.61662 0.0
C1460 C 0.08613 0.97413 0.58819 0.0
C1461 C 0.06991 0.97773 0.65516 0.0
C1462 C 0.07527 0.94143 0.73343 0.0
H1463 H 0.01382 0.93673 0.90275 0.0
H1464 H 0.0293 0.95236 0.84529 0.0
H1465 H 0.07606 0.92549 0.79063 0.0
H1466 H 0.09661 0.9482 0.57842 0.0
H1467 H 0.08499 0.93612 0.64583 0.0
H1468 H 0.04046 0.96597 0.70035 0.0
C1469 C 0.03155 0.93851 0.84937 0.0
C1470 C 0.06815 0.93431 0.77119 0.0
C1471 C 0.02279 0.92959 0.88252 0.0
C1472 C 0.08921 0.95661 0.59952 0.0
C1473 C 0.08264 0.94973 0.63828 0.0
C1474 C 0.04847 0.95733 0.72008 0.0
C1475 C 0.04284 0.92956 0.82136 0.0
C1476 C 0.05101 0.93844 0.78358 0.0
C1477 C 0.07284 0.9602 0.66645 0.0
C1478 C 0.06546 0.9529 0.70719 0.0
H1479 H 0.03893 0.88887 0.86396 0.0
H1480 H 0.05395 0.90428 0.80689 0.0
H1481 H 0.02801 0.95343 0.7659 0.0
H1482 H 0.07392 0.99818 0.60919 0.0
H1483 H 0.06266 0.98623 0.67635 0.0
C1484 C 0.59014 0.03526 0.35766 0.0
C1485 C 0.58144 0.03068 0.39607 0.0
C1486 C 0.58188 0.04521 0.32559 0.0
C1487 C 0.53799 0.05819 0.28582 0.0
H1488 H 0.56544 0.08735 0.20941 0.0
C1489 C 0.52985 0.10481 0.12134 0.0
C1490 C 0.51731 0.0948 0.09955 0.0
C1491 C 0.53699 0.099 0.16085 0.0
C1492 C 0.55743 0.07953 0.23067 0.0
H1493 H 0.55724 0.03353 0.43115 0.0
H1494 H 0.5429 0.05147 0.37549 0.0
H1495 H 0.5788 0.07489 0.274 0.0
H1496 H 0.50269 0.07068 0.10158 0.0
H1497 H 0.5156 0.06021 0.16881 0.0
H1498 H 0.51645 0.06336 0.24336 0.0
C1499 C 0.55607 0.04695 0.36985 0.0
C1500 C 0.56521 0.0721 0.26755 0.0
C1501 C 0.56432 0.03676 0.40198 0.0
C1502 C 0.51222 0.07879 0.11775 0.0
C1503 C 0.51953 0.07286 0.15671 0.0
C1504 C 0.53013 0.06586 0.2493 0.0
C1505 C 0.56469 0.05116 0.33097 0.0
C1506 C 0.55575 0.0609 0.295 0.0
C1507 C 0.53194 0.0829 0.1791 0.0
C1508 C 0.53985 0.07625 0.22049 0.0
H1509 H 0.6033 0.03081 0.35161 0.0
H1510 H 0.58889 0.04774 0.29591 0.0
H1511 H 0.53024 0.04963 0.3059 0.0
H1512 H 0.53391 0.11728 0.10829 0.0
H1513 H 0.54631 0.10724 0.17725 0.0
C1514 C 0.42713 0.50859 0.64623 0.0
C1515 C 0.41899 0.51955 0.61539 0.0
C1516 C 0.43353 0.51529 0.68518 0.0
C1517 C 0.43074 0.55346 0.75802 0.0
H1518 H 0.47608 0.53743 0.79815 0.0
C1519 C 0.48243 0.56336 0.9109 0.0
C1520 C 0.4823 0.58167 0.9128 0.0
C1521 C 0.47313 0.55469 0.87831 0.0
C1522 C 0.46327 0.54184 0.78787 0.0
H1523 H 0.41093 0.54615 0.60183 0.0
H1524 H 0.4223 0.5579 0.66962 0.0
H1525 H 0.46305 0.52464 0.73365 0.0
H1526 H 0.47171 0.60511 0.88258 0.0
H1527 H 0.45564 0.59008 0.82637 0.0
H1528 H 0.43115 0.57091 0.81184 0.0
C1529 C 0.42355 0.54406 0.66386 0.0
C1530 C 0.45579 0.53452 0.75079 0.0
C1531 C 0.41713 0.53734 0.62483 0.0
C1532 C 0.47213 0.59101 0.88235 0.0
C1533 C 0.4628 0.58237 0.85009 0.0
C1534 C 0.43823 0.56079 0.79508 0.0
C1535 C 0.43197 0.53313 0.69438 0.0
C1536 C 0.43951 0.54038 0.73508 0.0
C1537 C 0.4634 0.56413 0.84714 0.0
C1538 C 0.45469 0.55523 0.81016 0.0
H1539 H 0.4287 0.49479 0.64022 0.0
H1540 H 0.43967 0.50645 0.70818 0.0
H1541 H 0.41805 0.55806 0.74735 0.0
H1542 H 0.49013 0.55574 0.93372 0.0
H1543 H 0.47372 0.5406 0.8772 0.0
C1544 C 0.91653 0.04325 0.60476 0.0
C1545 C 0.91921 0.02535 0.59908 0.0
C1546 C 0.92536 0.05217 0.63746 0.0
C1547 C 0.96057 0.04819 0.72144 0.0
H1548 H 0.93123 0.08098 0.78243 0.0
C1549 C 0.98633 0.08665 0.86842 0.0
C1550 C 0.97497 0.08916 0.90341 0.0
C1551 C 0.98019 0.08001 0.82918 0.0
C1552 C 0.93957 0.07177 0.76607 0.0
H1553 H 0.93353 0.00273 0.62175 0.0
H1554 H 0.94881 0.01814 0.67965 0.0
H1555 H 0.92035 0.06717 0.71721 0.0
H1556 H 0.94818 0.08687 0.92434 0.0
H1557 H 0.93749 0.07487 0.85619 0.0
H1558 H 0.97945 0.05216 0.77167 0.0
C1559 C 0.94024 0.0255 0.65829 0.0
C1560 C 0.93344 0.06404 0.72807 0.0
C1561 C 0.93157 0.01664 0.62502 0.0
C1562 C 0.95725 0.08517 0.89796 0.0
C1563 C 0.95112 0.07835 0.85875 0.0
C1564 C 0.96665 0.05583 0.75969 0.0
C1565 C 0.93677 0.04327 0.66591 0.0
C1566 C 0.94382 0.05211 0.70522 0.0
C1567 C 0.96255 0.07553 0.82394 0.0
C1568 C 0.95621 0.06768 0.78264 0.0
H1569 H 0.90698 0.05019 0.58513 0.0
H1570 H 0.9227 0.06592 0.64146 0.0
H1571 H 0.969 0.03919 0.70466 0.0
H1572 H 1.00005 0.08974 0.87136 0.0
H1573 H 0.98932 0.0784 0.80292 0.0
C1574 C 0.43167 0.98317 0.3665 0.0
C1575 C 0.4209 0.97276 0.39271 0.0
C1576 C 0.43783 0.97701 0.32698 0.0
C1577 C 0.42899 0.94509 0.24139 0.0
H1578 H 0.47806 0.9503 0.21511 0.0
C1579 C 0.46318 0.90448 0.11166 0.0
C1580 C 0.47767 0.91123 0.08951 0.0
C1581 C 0.4549 0.91412 0.1436 0.0
C1582 C 0.46425 0.94906 0.22137 0.0
H1583 H 0.40802 0.94773 0.39761 0.0
H1584 H 0.41874 0.93697 0.32822 0.0
H1585 H 0.46652 0.96243 0.28181 0.0
H1586 H 0.49405 0.93399 0.08185 0.0
H1587 H 0.47926 0.95108 0.13729 0.0
H1588 H 0.42666 0.93173 0.18108 0.0
C1589 C 0.42236 0.94995 0.33841 0.0
C1590 C 0.45766 0.95592 0.2598 0.0
C1591 C 0.41632 0.95605 0.37827 0.0
C1592 C 0.48294 0.92838 0.09823 0.0
C1593 C 0.47458 0.9381 0.13038 0.0
C1594 C 0.43554 0.93837 0.20277 0.0
C1595 C 0.43325 0.96034 0.31243 0.0
C1596 C 0.44002 0.95377 0.27059 0.0
C1597 C 0.46076 0.93087 0.15432 0.0
C1598 C 0.45333 0.93996 0.1926 0.0
H1599 H 0.43547 0.99611 0.37657 0.0
H1600 H 0.44606 0.98538 0.30756 0.0
H1601 H 0.41528 0.94351 0.24844 0.0
H1602 H 0.45868 0.89135 0.10585 0.0
H1603 H 0.44447 0.90799 0.16149 0.0
C1604 C 0.53335 0.4083 0.8691 0.0
C1605 C 0.51986 0.41756 0.88909 0.0
C1606 C 0.54033 0.41421 0.82984 0.0
C1607 C 0.56019 0.43418 0.76148 0.0
H1608 H 0.53263 0.4627 0.68247 0.0
C1609 C 0.59293 0.47821 0.63611 0.0
C1610 C 0.58463 0.48223 0.59646 0.0
C1611 C 0.58446 0.46859 0.668 0.0
C1612 C 0.5405 0.45453 0.70365 0.0
H1613 H 0.50321 0.44036 0.88399 0.0
H1614 H 0.51592 0.45117 0.81733 0.0
H1615 H 0.51867 0.44856 0.74362 0.0
H1616 H 0.56085 0.47888 0.55918 0.0
H1617 H 0.54616 0.46139 0.61452 0.0
H1618 H 0.58183 0.43943 0.72048 0.0
C1619 C 0.52074 0.43896 0.83054 0.0
C1620 C 0.53253 0.44664 0.7394 0.0
C1621 C 0.51353 0.43285 0.86918 0.0
C1622 C 0.56763 0.47605 0.58934 0.0
C1623 C 0.55917 0.46612 0.62126 0.0
C1624 C 0.56806 0.44176 0.72532 0.0
C1625 C 0.53425 0.42974 0.81013 0.0
C1626 C 0.54234 0.43672 0.76956 0.0
C1627 C 0.56747 0.46233 0.6612 0.0
C1628 C 0.55848 0.45249 0.69654 0.0
H1629 H 0.53835 0.39635 0.88346 0.0
H1630 H 0.55044 0.40649 0.81493 0.0
H1631 H 0.56833 0.4268 0.78379 0.0
H1632 H 0.60596 0.48282 0.64318 0.0
H1633 H 0.59119 0.46647 0.69853 0.0
C1634 C 0.09369 0.53222 0.38804 0.0
C1635 C 0.08947 0.51509 0.40032 0.0
C1636 C 0.08761 0.53916 0.34856 0.0
C1637 C 0.0528 0.53317 0.26648 0.0
H1638 H 0.08179 0.56294 0.19534 0.0
C1639 C 0.0275 0.56231 0.10418 0.0
C1640 C 0.03072 0.58022 0.09869 0.0
C1641 C 0.03609 0.55281 0.13702 0.0
C1642 C 0.07349 0.5547 0.21491 0.0
H1643 H 0.07587 0.49169 0.38006 0.0
H1644 H 0.06547 0.50371 0.31165 0.0
H1645 H 0.09384 0.54992 0.26148 0.0
H1646 H 0.04613 0.60191 0.12243 0.0
H1647 H 0.06087 0.58552 0.17895 0.0
H1648 H 0.03235 0.53821 0.22048 0.0
C1649 C 0.07322 0.51191 0.33268 0.0
C1650 C 0.0804 0.54729 0.2529 0.0
C1651 C 0.07928 0.50499 0.37194 0.0
C1652 C 0.04327 0.58816 0.12547 0.0
C1653 C 0.05186 0.5787 0.15794 0.0
C1654 C 0.04589 0.5406 0.22855 0.0
C1655 C 0.07717 0.52911 0.32059 0.0
C1656 C 0.07008 0.53658 0.27939 0.0
C1657 C 0.04816 0.561 0.16477 0.0
C1658 C 0.05608 0.55164 0.20256 0.0
H1659 H 0.10151 0.54034 0.40908 0.0
H1660 H 0.09077 0.55252 0.34039 0.0
H1661 H 0.04441 0.52516 0.28638 0.0
H1662 H 0.01789 0.55578 0.08425 0.0
H1663 H 0.03308 0.53913 0.14115 0.0
C1664 C 0.87889 0.5523 0.34752 0.0
C1665 C 0.88905 0.55136 0.38558 0.0
C1666 C 0.88385 0.56322 0.31322 0.0
C1667 C 0.9135 0.59941 0.28206 0.0
H1668 H 0.9189 0.57334 0.17599 0.0
C1669 C 0.96545 0.61579 0.15393 0.0
C1670 C 0.96246 0.61094 0.11077 0.0
C1671 C 0.95302 0.61216 0.18572 0.0
C1672 C 0.91716 0.58108 0.20483 0.0
H1673 H 0.91164 0.56217 0.41849 0.0
H1674 H 0.92004 0.58118 0.35933 0.0
H1675 H 0.90238 0.5609 0.23519 0.0
H1676 H 0.94351 0.60005 0.06629 0.0
H1677 H 0.92164 0.59436 0.12106 0.0
H1678 H 0.92869 0.61944 0.252 0.0
C1679 C 0.9083 0.57351 0.35579 0.0
C1680 C 0.90764 0.57388 0.23887 0.0
C1681 C 0.9035 0.56248 0.38972 0.0
C1682 C 0.94633 0.60361 0.09944 0.0
C1683 C 0.93381 0.60027 0.13095 0.0
C1684 C 0.92292 0.6067 0.24779 0.0
C1685 C 0.89889 0.57358 0.31664 0.0
C1686 C 0.90612 0.58274 0.27829 0.0
C1687 C 0.93725 0.60385 0.17479 0.0
C1688 C 0.92528 0.59741 0.20914 0.0
H1689 H 0.86765 0.54397 0.34328 0.0
H1690 H 0.87628 0.56311 0.28347 0.0
H1691 H 0.9124 0.6066 0.31198 0.0
H1692 H 0.97779 0.62142 0.16361 0.0
H1693 H 0.95623 0.615 0.21914 0.0
C1694 C 0.89962 0.94562 0.61121 0.0
C1695 C 0.88698 0.95848 0.61947 0.0
C1696 C 0.90389 0.9331 0.64248 0.0
C1697 C 0.9046 0.92817 0.76023 0.0
H1698 H 0.92211 0.88203 0.73353 0.0
C1699 C 0.94003 0.88886 0.89057 0.0
C1700 C 0.95641 0.88257 0.87806 0.0
C1701 C 0.92768 0.89386 0.8595 0.0
C1702 C 0.91724 0.89487 0.74149 0.0
H1703 H 0.86815 0.96752 0.66639 0.0
H1704 H 0.87553 0.94545 0.72106 0.0
H1705 H 0.90662 0.89893 0.67782 0.0
H1706 H 0.9723 0.8752 0.82351 0.0
H1707 H 0.95083 0.88428 0.76878 0.0
H1708 H 0.91569 0.92448 0.8232 0.0
C1709 C 0.88231 0.94529 0.69042 0.0
C1710 C 0.90836 0.90455 0.70962 0.0
C1711 C 0.87801 0.95788 0.659 0.0
C1712 C 0.95972 0.87997 0.83394 0.0
C1713 C 0.9474 0.88517 0.80266 0.0
C1714 C 0.9134 0.9185 0.79202 0.0
C1715 C 0.89564 0.93304 0.68292 0.0
C1716 C 0.90236 0.92152 0.7183 0.0
C1717 C 0.93155 0.89289 0.81518 0.0
C1718 C 0.92018 0.9019 0.78279 0.0
H1719 H 0.90679 0.94557 0.58114 0.0
H1720 H 0.91437 0.92406 0.63567 0.0
H1721 H 0.90047 0.94128 0.76793 0.0
H1722 H 0.93703 0.89065 0.92444 0.0
H1723 H 0.91543 0.89931 0.87024 0.0
C1724 C 0.55932 0.88401 0.11862 0.0
C1725 C 0.54206 0.87872 0.12559 0.0
C1726 C 0.56976 0.88938 0.15319 0.0
C1727 C 0.58174 0.9147 0.22059 0.0
H1728 H 0.57694 0.90002 0.34029 0.0
C1729 C 0.61158 0.95421 0.3609 0.0
C1730 C 0.59948 0.95834 0.3933 0.0
C1731 C 0.60778 0.94134 0.33036 0.0
C1732 C 0.57847 0.9042 0.30695 0.0
H1733 H 0.52256 0.87369 0.17437 0.0
H1734 H 0.54051 0.88361 0.23474 0.0
H1735 H 0.56485 0.88198 0.28258 0.0
H1736 H 0.57413 0.95174 0.41959 0.0
H1737 H 0.56768 0.92937 0.36683 0.0
H1738 H 0.595 0.93709 0.24498 0.0
C1739 C 0.5462 0.88331 0.20276 0.0
C1740 C 0.5715 0.89391 0.2739 0.0
C1741 C 0.53585 0.87763 0.16815 0.0
C1742 C 0.58381 0.94891 0.39529 0.0
C1743 C 0.58013 0.93596 0.36516 0.0
C1744 C 0.58883 0.92488 0.25355 0.0
C1745 C 0.56304 0.88993 0.19542 0.0
C1746 C 0.57264 0.89927 0.23033 0.0
C1747 C 0.59192 0.93223 0.33195 0.0
C1748 C 0.58686 0.91999 0.29712 0.0
H1749 H 0.56451 0.88472 0.08614 0.0
H1750 H 0.58283 0.89387 0.14646 0.0
H1751 H 0.58263 0.91949 0.1876 0.0
H1752 H 0.62376 0.96121 0.35836 0.0
H1753 H 0.61714 0.93868 0.30513 0.0
C1754 C 0.62279 0.55539 0.63333 0.0
C1755 C 0.60898 0.55134 0.60497 0.0
C1756 C 0.62025 0.5671 0.66735 0.0
C1757 C 0.58761 0.59867 0.71222 0.0
H1758 H 0.6047 0.5813 0.82276 0.0
C1759 C 0.55553 0.62045 0.87065 0.0
C1760 C 0.55181 0.60658 0.89911 0.0
C1761 C 0.56735 0.6182 0.83676 0.0
C1762 C 0.59981 0.58636 0.79216 0.0
H1763 H 0.58192 0.55714 0.58901 0.0
H1764 H 0.57743 0.57681 0.64825 0.0
H1765 H 0.61619 0.56927 0.75631 0.0
H1766 H 0.55826 0.5797 0.91524 0.0
H1767 H 0.57807 0.57565 0.856 0.0
H1768 H 0.57 0.61449 0.74798 0.0
C1769 C 0.59035 0.57139 0.64411 0.0
C1770 C 0.60663 0.57964 0.7539 0.0
C1771 C 0.59289 0.55985 0.61019 0.0
C1772 C 0.5607 0.5907 0.89399 0.0
C1773 C 0.57233 0.58842 0.86008 0.0
C1774 C 0.58056 0.60515 0.75046 0.0
C1775 C 0.60385 0.57493 0.67373 0.0
C1776 C 0.59997 0.58509 0.71345 0.0
C1777 C 0.57559 0.60201 0.83046 0.0
C1778 C 0.58596 0.59843 0.79089 0.0
H1779 H 0.63539 0.54917 0.63006 0.0
H1780 H 0.63101 0.56968 0.68924 0.0
H1781 H 0.58258 0.60358 0.6816 0.0
H1782 H 0.54903 0.63292 0.87391 0.0
H1783 H 0.56972 0.62904 0.81494 0.0
C1784 C 0.09448 0.43489 0.61353 0.0
C1785 C 0.10939 0.44545 0.61599 0.0
C1786 C 0.09038 0.42346 0.64722 0.0
C1787 C 0.09415 0.42136 0.76317 0.0
H1788 H 0.07213 0.37629 0.74972 0.0
C1789 C 0.05608 0.39223 0.90364 0.0
C1790 C 0.03961 0.38566 0.89256 0.0
C1791 C 0.06862 0.39497 0.87187 0.0
C1792 C 0.07821 0.38888 0.75405 0.0
H1793 H 0.1322 0.45159 0.65495 0.0
H1794 H 0.12475 0.43181 0.71443 0.0
H1795 H 0.0874 0.38953 0.6886 0.0
H1796 H 0.02363 0.37576 0.84024 0.0
H1797 H 0.04519 0.38124 0.78421 0.0
H1798 H 0.08408 0.4215 0.82724 0.0
C1799 C 0.11633 0.43239 0.68613 0.0
C1800 C 0.08704 0.39638 0.71914 0.0
C1801 C 0.12058 0.44369 0.65206 0.0
C1802 C 0.03625 0.38083 0.84959 0.0
C1803 C 0.04869 0.3839 0.81754 0.0
C1804 C 0.08519 0.41398 0.79784 0.0
C1805 C 0.10097 0.42248 0.68441 0.0
C1806 C 0.09467 0.41292 0.72305 0.0
C1807 C 0.06482 0.39157 0.82811 0.0
C1808 C 0.07667 0.39787 0.7934 0.0
H1809 H 0.08556 0.43586 0.58629 0.0
H1810 H 0.07835 0.41616 0.6452 0.0
H1811 H 0.09968 0.43424 0.76696 0.0
H1812 H 0.05912 0.3957 0.93674 0.0
H1813 H 0.08107 0.40038 0.88146 0.0
C1814 C 0.04038 0.12204 0.16187 0.0
C1815 C 0.04069 0.11325 0.12209 0.0
C1816 C 0.0527 0.11809 0.19424 0.0
C1817 C 0.09422 0.09362 0.21586 0.0
H1818 H 0.07293 0.08403 0.32686 0.0
C1819 C 0.11856 0.04112 0.33711 0.0
C1820 C 0.1153 0.04363 0.3813 0.0
C1821 C 0.11341 0.05379 0.30667 0.0
C1822 C 0.07927 0.08697 0.29646 0.0
H1823 H 0.05491 0.09414 0.08442 0.0
H1824 H 0.07596 0.0872 0.14043 0.0
H1825 H 0.05638 0.09942 0.27134 0.0
H1826 H 0.1061 0.06204 0.42883 0.0
H1827 H 0.09748 0.08421 0.37614 0.0
H1828 H 0.11686 0.08032 0.24063 0.0
C1829 C 0.06642 0.09727 0.14676 0.0
C1830 C 0.06975 0.09586 0.26454 0.0
C1831 C 0.05416 0.10117 0.11462 0.0
C1832 C 0.10837 0.05961 0.39487 0.0
C1833 C 0.10341 0.0723 0.36466 0.0
C1834 C 0.10375 0.08465 0.24783 0.0
C1835 C 0.0656 0.10532 0.18737 0.0
C1836 C 0.0769 0.09885 0.22342 0.0
C1837 C 0.10509 0.0692 0.32011 0.0
C1838 C 0.09621 0.08085 0.28812 0.0
H1839 H 0.03024 0.13146 0.16866 0.0
H1840 H 0.05184 0.12467 0.22506 0.0
H1841 H 0.10022 0.09596 0.18472 0.0
H1842 H 0.12384 0.02888 0.32583 0.0
H1843 H 0.11485 0.05096 0.27257 0.0
C1844 C 0.40432 0.05165 0.60188 0.0
C1845 C 0.39134 0.03883 0.60527 0.0
C1846 C 0.4068 0.06375 0.6348 0.0
C1847 C 0.40315 0.06611 0.75099 0.0
H1848 H 0.4175 0.11407 0.73399 0.0
C1849 C 0.43406 0.10322 0.89117 0.0
C1850 C 0.44924 0.1125 0.88098 0.0
C1851 C 0.42271 0.09776 0.8585 0.0
C1852 C 0.41357 0.10069 0.7393 0.0
H1853 H 0.37014 0.0293 0.64506 0.0
H1854 H 0.37474 0.05034 0.7031 0.0
H1855 H 0.40486 0.09791 0.67353 0.0
H1856 H 0.46394 0.1243 0.82886 0.0
H1857 H 0.44456 0.1142 0.7715 0.0
H1858 H 0.41276 0.06831 0.81563 0.0
C1859 C 0.38294 0.05097 0.67473 0.0
C1860 C 0.40625 0.09149 0.70474 0.0
C1861 C 0.3803 0.03896 0.64145 0.0
C1862 C 0.45232 0.11716 0.83766 0.0
C1863 C 0.44112 0.11143 0.80479 0.0
C1864 C 0.41061 0.07522 0.78535 0.0
C1865 C 0.39649 0.06321 0.67215 0.0
C1866 C 0.40136 0.07397 0.71001 0.0
C1867 C 0.42647 0.10116 0.81473 0.0
C1868 C 0.41632 0.0925 0.77972 0.0
H1869 H 0.41307 0.05199 0.57454 0.0
H1870 H 0.41748 0.07288 0.63209 0.0
H1871 H 0.39977 0.05255 0.75589 0.0
H1872 H 0.43117 0.09972 0.92438 0.0
H1873 H 0.41131 0.09034 0.86751 0.0
C1874 C 0.44667 0.38231 0.13227 0.0
C1875 C 0.45105 0.3956 0.10274 0.0
C1876 C 0.43513 0.38562 0.16622 0.0
C1877 C 0.40466 0.41966 0.20959 0.0
H1878 H 0.42065 0.4018 0.32069 0.0
C1879 C 0.38053 0.45025 0.36813 0.0
C1880 C 0.39384 0.45357 0.39851 0.0
C1881 C 0.38346 0.43894 0.33348 0.0
C1882 C 0.416 0.40695 0.28994 0.0
H1883 H 0.44593 0.42254 0.08452 0.0
H1884 H 0.42658 0.42841 0.14387 0.0
H1885 H 0.43305 0.39033 0.25471 0.0
H1886 H 0.42038 0.44684 0.41733 0.0
H1887 H 0.42561 0.42786 0.3569 0.0
H1888 H 0.38879 0.43739 0.24493 0.0
C1889 C 0.43162 0.41531 0.14068 0.0
C1890 C 0.42293 0.40014 0.2519 0.0
C1891 C 0.44296 0.41197 0.10667 0.0
C1892 C 0.40981 0.4447 0.39457 0.0
C1893 C 0.41276 0.43358 0.35992 0.0
C1894 C 0.39796 0.42669 0.24766 0.0
C1895 C 0.42784 0.40232 0.17157 0.0
C1896 C 0.41788 0.40691 0.21122 0.0
C1897 C 0.39978 0.4308 0.32834 0.0
C1898 C 0.40408 0.42091 0.28837 0.0
H1899 H 0.45254 0.3695 0.13002 0.0
H1900 H 0.43229 0.3752 0.18889 0.0
H1901 H 0.40005 0.42485 0.17885 0.0
H1902 H 0.36803 0.45676 0.37032 0.0
H1903 H 0.37305 0.43691 0.3102 0.0
loop_
_geom_bond_atom_site_label_1
_geom_bond_atom_site_label_2
_geom_bond_distance
_geom_bond_site_symmetry_2
_ccdc_geom_bond_type
Co0 O2 2.132 1_655 S
Co0 O8 2.074 . S
Co0 O11 2.093 1_654 S
Co0 O24 2.097 1_655 S
Co0 N41 2.151 1_554 S
Co0 N49 2.214 . S
Co1 O2 2.166 . S
Co1 O7 2.058 1_455 S
Co1 O17 2.057 1_455 S
Co1 O32 2.037 . S
Co1 N36 2.145 . S
Co1 N57 2.257 . S
O2 Co0 2.132 1_455 S
O2 Co1 2.166 . S
C3 O4 1.278 . S
C3 O11 1.224 . S
O4 C3 1.278 . S
C5 O6 1.245 1_554 S
C5 O17 1.232 . S
O6 C5 1.245 1_556 S
O7 Co1 2.058 1_655 S
O7 C33 1.269 . S
O8 Co0 2.074 . S
O8 C33 1.257 . S
H9 C34 0.930 . S
H10 C40 0.930 . S
O11 Co0 2.093 1_456 S
O11 C3 1.224 . S
H12 C44 0.929 . S
H13 C46 0.930 1_556 S
H14 C47 0.930 . S
H15 C45 0.929 1_554 S
H16 C48 0.928 . S
O17 Co1 2.057 1_655 S
O17 C5 1.232 . S
H18 C37 0.929 . S
H19 C38 0.929 . S
H20 C50 0.931 . S
H21 C42 0.929 . S
H22 C51 0.930 . S
H23 C43 0.931 . S
O24 Co0 2.097 1_455 S
O24 C52 1.214 . S
H25 C53 0.929 1_556 S
H26 C54 0.929 . S
H27 C55 0.930 . S
H28 C56 0.929 . S
H29 C58 0.930 1_556 S
H30 C35 0.930 . S
H31 C39 0.930 . S
O32 Co1 2.037 . S
O32 C52 1.234 . S
C33 O7 1.269 . S
C33 O8 1.257 . S
C34 H9 0.930 . S
C34 C37 1.388 . S
C34 C39 1.418 . S
C35 H30 0.930 . S
C35 C38 1.404 . S
C35 C39 1.353 . S
N36 Co1 2.145 . S
N36 C37 1.397 . S
N36 C38 1.334 . S
C37 H18 0.929 . S
C37 C34 1.388 . S
C37 N36 1.397 . S
C38 H19 0.929 . S
C38 C35 1.404 . S
C38 N36 1.334 . S
C39 H31 0.930 . S
C39 C34 1.418 . S
C39 C35 1.353 . S
C40 H10 0.930 . S
C40 N41 1.330 . S
C40 C42 1.446 . S
N41 Co0 2.151 1_556 S
N41 C40 1.330 . S
N41 C45 1.418 . S
C42 H21 0.929 . S
C42 C40 1.446 . S
C42 C43 1.332 . S
C43 H23 0.931 . S
C43 C42 1.332 . S
C43 C44 1.267 . S
C44 H12 0.929 . S
C44 C43 1.267 . S
C44 C45 1.251 . S
C45 H15 0.929 1_556 S
C45 N41 1.418 . S
C45 C44 1.251 . S
C46 H13 0.930 1_554 S
C46 C48 1.406 1_554 S
C46 C51 1.261 . S
C47 H14 0.930 . S
C47 N49 1.325 . S
C47 C50 1.357 . S
C48 H16 0.928 . S
C48 C46 1.406 1_556 S
C48 N49 1.261 1_556 S
N49 Co0 2.214 . S
N49 C47 1.325 . S
N49 C48 1.261 1_554 S
C50 H20 0.931 . S
C50 C47 1.357 . S
C50 C51 1.312 . S
C51 H22 0.930 . S
C51 C46 1.261 . S
C51 C50 1.312 . S
C52 O24 1.214 . S
C52 O32 1.234 . S
C53 H25 0.929 1_554 S
C53 C56 1.391 . S
C53 C58 1.391 . S
C54 H26 0.929 . S
C54 C55 1.390 . S
C54 N57 1.391 . S
C55 H27 0.930 . S
C55 C54 1.390 . S
C55 C56 1.392 . S
C56 H28 0.929 . S
C56 C53 1.391 . S
C56 C55 1.392 . S
N57 Co1 2.257 . S
N57 C54 1.391 . S
N57 C58 1.388 . S
C58 H29 0.930 1_554 S
C58 C53 1.391 . S
C58 N57 1.388 . S
Co59 O61 2.134 1_565 S
Co59 O67 2.074 . S
Co59 O70 2.093 1_565 S
Co59 O83 2.097 1_565 S
Co59 N100 2.151 . S
Co59 N108 2.214 . S
Co60 O61 2.165 . S
Co60 O66 2.058 1_545 S
Co60 O76 2.057 1_545 S
Co60 O91 2.037 . S
Co60 N95 2.145 . S
Co60 N116 2.257 . S
O61 Co59 2.134 1_545 S
O61 Co60 2.165 . S
C62 O63 1.278 . S
C62 O70 1.224 . S
O63 C62 1.278 . S
C64 O65 1.245 . S
C64 O76 1.232 . S
O65 C64 1.245 . S
O66 Co60 2.058 1_565 S
O66 C92 1.269 . S
O67 Co59 2.074 . S
O67 C92 1.257 . S
H68 C93 0.930 . S
H69 C99 0.930 . S
O70 Co59 2.093 1_545 S
O70 C62 1.224 . S
H71 C103 0.929 . S
H72 C105 0.930 . S
H73 C106 0.930 . S
H74 C104 0.929 . S
H75 C107 0.928 . S
O76 Co60 2.057 1_565 S
O76 C64 1.232 . S
H77 C96 0.929 . S
H78 C97 0.929 . S
H79 C109 0.931 . S
H80 C101 0.929 . S
H81 C110 0.930 . S
H82 C102 0.931 . S
O83 Co59 2.097 1_545 S
O83 C111 1.214 . S
H84 C112 0.929 . S
H85 C113 0.929 . S
H86 C114 0.930 . S
H87 C115 0.929 . S
H88 C117 0.930 . S
H89 C94 0.930 . S
H90 C98 0.930 . S
O91 Co60 2.037 . S
O91 C111 1.234 . S
C92 O66 1.269 . S
C92 O67 1.257 . S
C93 H68 0.930 . S
C93 C96 1.388 . S
C93 C98 1.418 . S
C94 H89 0.930 . S
C94 C97 1.404 . S
C94 C98 1.353 . S
N95 Co60 2.145 . S
N95 C96 1.397 . S
N95 C97 1.334 . S
C96 H77 0.929 . S
C96 C93 1.388 . S
C96 N95 1.397 . S
C97 H78 0.929 . S
C97 C94 1.404 . S
C97 N95 1.334 . S
C98 H90 0.930 . S
C98 C93 1.418 . S
C98 C94 1.353 . S
C99 H69 0.930 . S
C99 N100 1.330 . S
C99 C101 1.446 . S
N100 Co59 2.151 . S
N100 C99 1.330 . S
N100 C104 1.418 . S
C101 H80 0.929 . S
C101 C99 1.446 . S
C101 C102 1.332 . S
C102 H82 0.931 . S
C102 C101 1.332 . S
C102 C103 1.267 . S
C103 H71 0.929 . S
C103 C102 1.267 . S
C103 C104 1.251 . S
C104 H74 0.929 . S
C104 N100 1.418 . S
C104 C103 1.251 . S
C105 H72 0.930 . S
C105 C107 1.406 . S
C105 C110 1.261 . S
C106 H73 0.930 . S
C106 N108 1.325 . S
C106 C109 1.357 . S
C107 H75 0.928 . S
C107 C105 1.406 . S
C107 N108 1.261 . S
N108 Co59 2.214 . S
N108 C106 1.325 . S
N108 C107 1.261 . S
C109 H79 0.931 . S
C109 C106 1.357 . S
C109 C110 1.312 . S
C110 H81 0.930 . S
C110 C105 1.261 . S
C110 C109 1.312 . S
C111 O83 1.214 . S
C111 O91 1.234 . S
C112 H84 0.929 . S
C112 C115 1.391 . S
C112 C117 1.391 . S
C113 H85 0.929 . S
C113 C114 1.390 . S
C113 N116 1.391 . S
C114 H86 0.930 . S
C114 C113 1.390 . S
C114 C115 1.392 . S
C115 H87 0.929 . S
C115 C112 1.391 . S
C115 C114 1.392 . S
N116 Co60 2.257 . S
N116 C113 1.391 . S
N116 C117 1.388 . S
C117 H88 0.930 . S
C117 C112 1.391 . S
C117 N116 1.388 . S
Co118 O120 2.143 . S
Co118 O126 2.074 . S
Co118 O129 2.093 1_554 S
Co118 O142 2.097 . S
Co118 N159 2.151 1_554 S
Co118 N167 2.214 . S
Co119 O120 2.160 . S
Co119 O125 2.058 . S
Co119 O135 2.057 . S
Co119 O150 2.037 . S
Co119 N154 2.145 . S
Co119 N175 2.257 . S
O120 Co118 2.143 . S
O120 Co119 2.160 . S
C121 O122 1.278 . S
C121 O129 1.224 . S
O122 C121 1.278 . S
C123 O124 1.245 1_554 S
C123 O135 1.232 . S
O124 C123 1.245 1_556 S
O125 Co119 2.058 . S
O125 C151 1.269 . S
O126 Co118 2.074 . S
O126 C151 1.257 . S
H127 C152 0.930 . S
H128 C158 0.930 . S
O129 Co118 2.093 1_556 S
O129 C121 1.224 . S
H130 C162 0.929 . S
H131 C164 0.930 1_556 S
H132 C165 0.930 . S
H133 C163 0.929 1_554 S
H134 C166 0.922 1_556 S
O135 Co119 2.057 . S
O135 C123 1.232 . S
H136 C155 0.929 . S
H137 C156 0.929 . S
H138 C168 0.931 . S
H139 C160 0.929 . S
H140 C169 0.930 . S
H141 C161 0.931 . S
O142 Co118 2.097 . S
O142 C170 1.214 . S
H143 C171 0.929 1_556 S
H144 C172 0.929 . S
H145 C173 0.930 . S
H146 C174 0.929 . S
H147 C176 0.930 . S
H148 C153 0.930 . S
H149 C157 0.930 . S
O150 Co119 2.037 . S
O150 C170 1.234 . S
C151 O125 1.269 . S
C151 O126 1.257 . S
C152 H127 0.930 . S
C152 C155 1.388 . S
C152 C157 1.418 . S
C153 H148 0.930 . S
C153 C156 1.404 . S
C153 C157 1.353 . S
N154 Co119 2.145 . S
N154 C155 1.397 . S
N154 C156 1.334 . S
C155 H136 0.929 . S
C155 C152 1.388 . S
C155 N154 1.397 . S
C156 H137 0.929 . S
C156 C153 1.404 . S
C156 N154 1.334 . S
C157 H149 0.930 . S
C157 C152 1.418 . S
C157 C153 1.353 . S
C158 H128 0.930 . S
C158 N159 1.330 . S
C158 C160 1.446 . S
N159 Co118 2.151 1_556 S
N159 C158 1.330 . S
N159 C163 1.418 . S
C160 H139 0.929 . S
C160 C158 1.446 . S
C160 C161 1.332 . S
C161 H141 0.931 . S
C161 C160 1.332 . S
C161 C162 1.267 . S
C162 H130 0.929 . S
C162 C161 1.267 . S
C162 C163 1.251 . S
C163 H133 0.929 1_556 S
C163 N159 1.418 . S
C163 C162 1.251 . S
C164 H131 0.930 1_554 S
C164 C166 1.407 . S
C164 C169 1.261 . S
C165 H132 0.930 . S
C165 N167 1.325 . S
C165 C168 1.357 . S
C166 H134 0.922 1_554 S
C166 C164 1.407 . S
C166 N167 1.266 . S
N167 Co118 2.214 . S
N167 C165 1.325 . S
N167 C166 1.266 . S
C168 H138 0.931 . S
C168 C165 1.357 . S
C168 C169 1.312 . S
C169 H140 0.930 . S
C169 C164 1.261 . S
C169 C168 1.312 . S
C170 O142 1.214 . S
C170 O150 1.234 . S
C171 H143 0.929 1_554 S
C171 C174 1.391 . S
C171 C176 1.391 . S
C172 H144 0.929 . S
C172 C173 1.390 . S
C172 N175 1.391 . S
C173 H145 0.930 . S
C173 C172 1.390 . S
C173 C174 1.392 . S
C174 H146 0.929 . S
C174 C171 1.391 . S
C174 C173 1.392 . S
N175 Co119 2.257 . S
N175 C172 1.391 . S
N175 C176 1.388 . S
C176 H147 0.930 . S
C176 C171 1.391 . S
C176 N175 1.388 . S
Co177 O179 2.143 . S
Co177 O185 2.074 . S
Co177 O188 2.093 . S
Co177 O201 2.097 . S
Co177 N218 2.151 . S
Co177 N226 2.214 . S
Co178 O179 2.160 . S
Co178 O184 2.058 . S
Co178 O194 2.057 . S
Co178 O209 2.037 . S
Co178 N213 2.145 . S
Co178 N234 2.257 . S
O179 Co177 2.143 . S
O179 Co178 2.160 . S
C180 O181 1.278 . S
C180 O188 1.224 . S
O181 C180 1.278 . S
C182 O183 1.245 . S
C182 O194 1.232 . S
O183 C182 1.245 . S
O184 Co178 2.058 . S
O184 C210 1.269 . S
O185 Co177 2.074 . S
O185 C210 1.257 . S
H186 C211 0.930 . S
H187 C217 0.930 . S
O188 Co177 2.093 . S
O188 C180 1.224 . S
H189 C221 0.929 . S
H190 C223 0.930 . S
H191 C224 0.930 . S
H192 C222 0.929 . S
H193 C225 0.928 . S
O194 Co178 2.057 . S
O194 C182 1.232 . S
H195 C214 0.929 . S
H196 C215 0.929 . S
H197 C227 0.931 . S
H198 C219 0.929 . S
H199 C228 0.930 . S
H200 C220 0.931 . S
O201 Co177 2.097 . S
O201 C229 1.214 . S
H202 C230 0.929 . S
H203 C231 0.929 . S
H204 C232 0.930 . S
H205 C233 0.929 . S
H206 C235 0.930 . S
H207 C212 0.930 . S
H208 C216 0.930 . S
O209 Co178 2.037 . S
O209 C229 1.234 . S
C210 O184 1.269 . S
C210 O185 1.257 . S
C211 H186 0.930 . S
C211 C214 1.388 . S
C211 C216 1.418 . S
C212 H207 0.930 . S
C212 C215 1.404 . S
C212 C216 1.353 . S
N213 Co178 2.145 . S
N213 C214 1.397 . S
N213 C215 1.334 . S
C214 H195 0.929 . S
C214 C211 1.388 . S
C214 N213 1.397 . S
C215 H196 0.929 . S
C215 C212 1.404 . S
C215 N213 1.334 . S
C216 H208 0.930 . S
C216 C211 1.418 . S
C216 C212 1.353 . S
C217 H187 0.930 . S
C217 N218 1.330 . S
C217 C219 1.446 . S
N218 Co177 2.151 . S
N218 C217 1.330 . S
N218 C222 1.418 . S
C219 H198 0.929 . S
C219 C217 1.446 . S
C219 C220 1.332 . S
C220 H200 0.931 . S
C220 C219 1.332 . S
C220 C221 1.267 . S
C221 H189 0.929 . S
C221 C220 1.267 . S
C221 C222 1.251 . S
C222 H192 0.929 . S
C222 N218 1.418 . S
C222 C221 1.251 . S
C223 H190 0.930 . S
C223 C225 1.406 . S
C223 C228 1.261 . S
C224 H191 0.930 . S
C224 N226 1.325 . S
C224 C227 1.357 . S
C225 H193 0.928 . S
C225 C223 1.406 . S
C225 N226 1.261 . S
N226 Co177 2.214 . S
N226 C224 1.325 . S
N226 C225 1.261 . S
C227 H197 0.931 . S
C227 C224 1.357 . S
C227 C228 1.312 . S
C228 H199 0.930 . S
C228 C223 1.261 . S
C228 C227 1.312 . S
C229 O201 1.214 . S
C229 O209 1.234 . S
C230 H202 0.929 . S
C230 C233 1.391 . S
C230 C235 1.391 . S
C231 H203 0.929 . S
C231 C232 1.390 . S
C231 N234 1.391 . S
C232 H204 0.930 . S
C232 C231 1.390 . S
C232 C233 1.392 . S
C233 H205 0.929 . S
C233 C230 1.391 . S
C233 C232 1.392 . S
N234 Co178 2.257 . S
N234 C231 1.391 . S
N234 C235 1.388 . S
C235 H206 0.930 . S
C235 C230 1.391 . S
C235 N234 1.388 . S
Co236 O238 2.134 1_655 S
Co236 O244 2.074 . S
Co236 O247 2.093 1_656 S
Co236 O260 2.097 1_655 S
Co236 N277 2.151 1_556 S
Co236 N285 2.214 . S
Co237 O238 2.165 . S
Co237 O243 2.058 1_455 S
Co237 O253 2.057 1_455 S
Co237 O268 2.037 . S
Co237 N272 2.145 . S
Co237 N293 2.257 . S
O238 Co236 2.134 1_455 S
O238 Co237 2.165 . S
C239 O240 1.278 . S
C239 O247 1.224 . S
O240 C239 1.278 . S
C241 O242 1.252 . S
C241 O253 1.232 . S
O242 C241 1.252 . S
O243 Co237 2.058 1_655 S
O243 C269 1.269 . S
O244 Co236 2.074 . S
O244 C269 1.257 . S
H245 C270 0.930 . S
H246 C276 0.930 . S
O247 Co236 2.093 1_454 S
O247 C239 1.224 . S
H248 C280 0.929 . S
H249 C282 0.930 1_554 S
H250 C283 0.930 . S
H251 C281 0.929 1_556 S
H252 C284 0.928 1_554 S
O253 Co237 2.057 1_655 S
O253 C241 1.232 . S
H254 C273 0.929 . S
H255 C274 0.929 . S
H256 C286 0.931 . S
H257 C278 0.929 . S
H258 C287 0.930 . S
H259 C279 0.931 . S
O260 Co236 2.097 1_455 S
O260 C288 1.214 . S
H261 C289 0.929 1_554 S
H262 C290 0.929 . S
H263 C291 0.930 . S
H264 C292 0.929 . S
H265 C294 0.930 . S
H266 C271 0.930 . S
H267 C275 0.930 . S
O268 Co237 2.037 . S
O268 C288 1.234 . S
C269 O243 1.269 . S
C269 O244 1.257 . S
C270 H245 0.930 . S
C270 C273 1.388 . S
C270 C275 1.418 . S
C271 H266 0.930 . S
C271 C274 1.404 . S
C271 C275 1.353 . S
N272 Co237 2.145 . S
N272 C273 1.397 . S
N272 C274 1.334 . S
C273 H254 0.929 . S
C273 C270 1.388 . S
C273 N272 1.397 . S
C274 H255 0.929 . S
C274 C271 1.404 . S
C274 N272 1.334 . S
C275 H267 0.930 . S
C275 C270 1.418 . S
C275 C271 1.353 . S
C276 H246 0.930 . S
C276 N277 1.330 . S
C276 C278 1.446 . S
N277 Co236 2.151 1_554 S
N277 C276 1.330 . S
N277 C281 1.418 . S
C278 H257 0.929 . S
C278 C276 1.446 . S
C278 C279 1.332 . S
C279 H259 0.931 . S
C279 C278 1.332 . S
C279 C280 1.267 . S
C280 H248 0.929 . S
C280 C279 1.267 . S
C280 C281 1.251 . S
C281 H251 0.929 1_554 S
C281 N277 1.418 . S
C281 C280 1.251 . S
C282 H249 0.930 1_556 S
C282 C284 1.406 . S
C282 C287 1.261 . S
C283 H250 0.930 . S
C283 N285 1.325 . S
C283 C286 1.357 . S
C284 H252 0.928 1_556 S
C284 C282 1.406 . S
C284 N285 1.261 . S
N285 Co236 2.214 . S
N285 C283 1.325 . S
N285 C284 1.261 . S
C286 H256 0.931 . S
C286 C283 1.357 . S
C286 C287 1.312 . S
C287 H258 0.930 . S
C287 C282 1.261 . S
C287 C286 1.312 . S
C288 O260 1.214 . S
C288 O268 1.234 . S
C289 H261 0.929 1_556 S
C289 C292 1.391 . S
C289 C294 1.391 . S
C290 H262 0.929 . S
C290 C291 1.390 . S
C290 N293 1.391 . S
C291 H263 0.930 . S
C291 C290 1.390 . S
C291 C292 1.392 . S
C292 H264 0.929 . S
C292 C289 1.391 . S
C292 C291 1.392 . S
N293 Co237 2.257 . S
N293 C290 1.391 . S
N293 C294 1.388 . S
C294 H265 0.930 . S
C294 C289 1.391 . S
C294 N293 1.388 . S
Co295 O297 2.132 1_565 S
Co295 O303 2.074 . S
Co295 O306 2.093 1_565 S
Co295 O319 2.097 1_565 S
Co295 N336 2.151 . S
Co295 N344 2.214 . S
Co296 O297 2.166 . S
Co296 O302 2.058 1_545 S
Co296 O312 2.057 1_545 S
Co296 O327 2.037 . S
Co296 N331 2.145 . S
Co296 N352 2.257 . S
O297 Co295 2.132 1_545 S
O297 Co296 2.166 . S
C298 O299 1.278 . S
C298 O306 1.224 . S
O299 C298 1.278 . S
C300 O301 1.245 . S
C300 O312 1.232 . S
O301 C300 1.245 . S
O302 Co296 2.058 1_565 S
O302 C328 1.269 . S
O303 Co295 2.074 . S
O303 C328 1.257 . S
H304 C329 0.930 . S
H305 C335 0.930 . S
O306 Co295 2.093 1_545 S
O306 C298 1.224 . S
H307 C339 0.929 . S
H308 C341 0.930 . S
H309 C342 0.930 . S
H310 C340 0.929 . S
H311 C343 0.928 . S
O312 Co296 2.057 1_565 S
O312 C300 1.232 . S
H313 C332 0.929 . S
H314 C333 0.929 . S
H315 C345 0.931 . S
H316 C337 0.929 . S
H317 C346 0.930 . S
H318 C338 0.931 . S
O319 Co295 2.097 1_545 S
O319 C347 1.214 . S
H320 C348 0.929 . S
H321 C349 0.929 . S
H322 C350 0.930 . S
H323 C351 0.929 . S
H324 C353 0.930 . S
H325 C330 0.930 . S
H326 C334 0.930 . S
O327 Co296 2.037 . S
O327 C347 1.234 . S
C328 O302 1.269 . S
C328 O303 1.257 . S
C329 H304 0.930 . S
C329 C332 1.388 . S
C329 C334 1.418 . S
C330 H325 0.930 . S
C330 C333 1.404 . S
C330 C334 1.353 . S
N331 Co296 2.145 . S
N331 C332 1.397 . S
N331 C333 1.334 . S
C332 H313 0.929 . S
C332 C329 1.388 . S
C332 N331 1.397 . S
C333 H314 0.929 . S
C333 C330 1.404 . S
C333 N331 1.334 . S
C334 H326 0.930 . S
C334 C329 1.418 . S
C334 C330 1.353 . S
C335 H305 0.930 . S
C335 N336 1.330 . S
C335 C337 1.446 . S
N336 Co295 2.151 . S
N336 C335 1.330 . S
N336 C340 1.418 . S
C337 H316 0.929 . S
C337 C335 1.446 . S
C337 C338 1.332 . S
C338 H318 0.931 . S
C338 C337 1.332 . S
C338 C339 1.267 . S
C339 H307 0.929 . S
C339 C338 1.267 . S
C339 C340 1.251 . S
C340 H310 0.929 . S
C340 N336 1.418 . S
C340 C339 1.251 . S
C341 H308 0.930 . S
C341 C343 1.406 . S
C341 C346 1.261 . S
C342 H309 0.930 . S
C342 N344 1.325 . S
C342 C345 1.357 . S
C343 H311 0.928 . S
C343 C341 1.406 . S
C343 N344 1.261 . S
N344 Co295 2.214 . S
N344 C342 1.325 . S
N344 C343 1.261 . S
C345 H315 0.931 . S
C345 C342 1.357 . S
C345 C346 1.312 . S
C346 H317 0.930 . S
C346 C341 1.261 . S
C346 C345 1.312 . S
C347 O319 1.214 . S
C347 O327 1.234 . S
C348 H320 0.929 . S
C348 C351 1.391 . S
C348 C353 1.391 . S
C349 H321 0.929 . S
C349 C350 1.390 . S
C349 N352 1.391 . S
C350 H322 0.930 . S
C350 C349 1.390 . S
C350 C351 1.392 . S
C351 H323 0.929 . S
C351 C348 1.391 . S
C351 C350 1.392 . S
N352 Co296 2.257 . S
N352 C349 1.391 . S
N352 C353 1.388 . S
C353 H324 0.930 . S
C353 C348 1.391 . S
C353 N352 1.388 . S
Co354 O356 2.143 1_556 S
Co354 O362 2.074 . S
Co354 O365 2.093 1_556 S
Co354 O378 2.097 . S
Co354 N395 2.151 1_556 S
Co354 N403 2.214 . S
Co355 O356 2.159 1_556 S
Co355 O361 2.058 . S
Co355 O371 2.057 . S
Co355 O386 2.037 . S
Co355 N390 2.145 . S
Co355 N411 2.257 . S
O356 Co354 2.143 1_554 S
O356 Co355 2.159 1_554 S
C357 O358 1.278 . S
C357 O365 1.224 . S
O358 C357 1.278 . S
C359 O360 1.245 . S
C359 O371 1.232 1_554 S
O360 C359 1.245 . S
O361 Co355 2.058 . S
O361 C387 1.269 . S
O362 Co354 2.074 . S
O362 C387 1.257 . S
H363 C388 0.930 . S
H364 C394 0.930 . S
O365 Co354 2.093 1_554 S
O365 C357 1.224 . S
H366 C398 0.929 . S
H367 C400 0.930 . S
H368 C401 0.930 . S
H369 C399 0.929 . S
H370 C402 0.928 . S
O371 Co355 2.057 . S
O371 C359 1.232 1_556 S
H372 C391 0.929 . S
H373 C392 0.929 . S
H374 C404 0.931 . S
H375 C396 0.929 . S
H376 C405 0.930 . S
H377 C397 0.931 . S
O378 Co354 2.097 . S
O378 C406 1.214 . S
H379 C407 0.929 . S
H380 C408 0.929 . S
H381 C409 0.930 . S
H382 C410 0.929 . S
H383 C412 0.943 . S
H384 C389 0.930 . S
H385 C393 0.930 . S
O386 Co355 2.037 . S
O386 C406 1.234 . S
C387 O361 1.269 . S
C387 O362 1.257 . S
C388 H363 0.930 . S
C388 C391 1.388 . S
C388 C393 1.418 . S
C389 H384 0.930 . S
C389 C392 1.404 . S
C389 C393 1.353 . S
N390 Co355 2.145 . S
N390 C391 1.397 . S
N390 C392 1.334 . S
C391 H372 0.929 . S
C391 C388 1.388 . S
C391 N390 1.397 . S
C392 H373 0.929 . S
C392 C389 1.404 . S
C392 N390 1.334 . S
C393 H385 0.930 . S
C393 C388 1.418 . S
C393 C389 1.353 . S
C394 H364 0.930 . S
C394 N395 1.330 . S
C394 C396 1.446 . S
N395 Co354 2.151 1_554 S
N395 C394 1.330 . S
N395 C399 1.418 . S
C396 H375 0.929 . S
C396 C394 1.446 . S
C396 C397 1.332 . S
C397 H377 0.931 . S
C397 C396 1.332 . S
C397 C398 1.267 . S
C398 H366 0.929 . S
C398 C397 1.267 . S
C398 C399 1.251 . S
C399 H369 0.929 . S
C399 N395 1.418 . S
C399 C398 1.251 . S
C400 H367 0.930 . S
C400 C402 1.406 . S
C400 C405 1.261 1_554 S
C401 H368 0.930 . S
C401 N403 1.325 . S
C401 C404 1.357 . S
C402 H370 0.928 . S
C402 C400 1.406 . S
C402 N403 1.261 1_554 S
N403 Co354 2.214 . S
N403 C401 1.325 . S
N403 C402 1.261 1_556 S
C404 H374 0.931 . S
C404 C401 1.357 . S
C404 C405 1.312 . S
C405 H376 0.930 . S
C405 C400 1.261 1_556 S
C405 C404 1.312 . S
C406 O378 1.214 . S
C406 O386 1.234 . S
C407 H379 0.929 . S
C407 C410 1.391 1_554 S
C407 C412 1.398 . S
C408 H380 0.929 . S
C408 C409 1.390 . S
C408 N411 1.391 . S
C409 H381 0.930 . S
C409 C408 1.390 . S
C409 C410 1.392 . S
C410 H382 0.929 . S
C410 C407 1.391 1_556 S
C410 C409 1.392 . S
N411 Co355 2.257 . S
N411 C408 1.391 . S
N411 C412 1.369 1_556 S
C412 H383 0.943 . S
C412 C407 1.398 . S
C412 N411 1.369 1_554 S
Co413 O415 2.143 . S
Co413 O421 2.074 . S
Co413 O424 2.093 . S
Co413 O437 2.097 . S
Co413 N454 2.151 . S
Co413 N462 2.214 . S
Co414 O415 2.160 . S
Co414 O420 2.058 . S
Co414 O430 2.057 . S
Co414 O445 2.037 . S
Co414 N449 2.145 . S
Co414 N470 2.257 . S
O415 Co413 2.143 . S
O415 Co414 2.160 . S
C416 O417 1.278 . S
C416 O424 1.224 . S
O417 C416 1.278 . S
C418 O419 1.245 . S
C418 O430 1.232 . S
O419 C418 1.245 . S
O420 Co414 2.058 . S
O420 C446 1.269 . S
O421 Co413 2.074 . S
O421 C446 1.257 . S
H422 C447 0.930 . S
H423 C453 0.930 . S
O424 Co413 2.093 . S
O424 C416 1.224 . S
H425 C457 0.929 . S
H426 C459 0.930 . S
H427 C460 0.930 . S
H428 C458 0.929 . S
H429 C461 0.928 . S
O430 Co414 2.057 . S
O430 C418 1.232 . S
H431 C450 0.929 . S
H432 C451 0.929 . S
H433 C463 0.931 . S
H434 C455 0.929 . S
H435 C464 0.930 . S
H436 C456 0.931 . S
O437 Co413 2.097 . S
O437 C465 1.214 . S
H438 C466 0.929 . S
H439 C467 0.929 . S
H440 C468 0.930 . S
H441 C469 0.929 . S
H442 C471 0.930 . S
H443 C448 0.930 . S
H444 C452 0.930 . S
O445 Co414 2.037 . S
O445 C465 1.234 . S
C446 O420 1.269 . S
C446 O421 1.257 . S
C447 H422 0.930 . S
C447 C450 1.388 . S
C447 C452 1.418 . S
C448 H443 0.930 . S
C448 C451 1.404 . S
C448 C452 1.353 . S
N449 Co414 2.145 . S
N449 C450 1.397 . S
N449 C451 1.334 . S
C450 H431 0.929 . S
C450 C447 1.388 . S
C450 N449 1.397 . S
C451 H432 0.929 . S
C451 C448 1.404 . S
C451 N449 1.334 . S
C452 H444 0.930 . S
C452 C447 1.418 . S
C452 C448 1.353 . S
C453 H423 0.930 . S
C453 N454 1.330 . S
C453 C455 1.446 . S
N454 Co413 2.151 . S
N454 C453 1.330 . S
N454 C458 1.418 . S
C455 H434 0.929 . S
C455 C453 1.446 . S
C455 C456 1.332 . S
C456 H436 0.931 . S
C456 C455 1.332 . S
C456 C457 1.267 . S
C457 H425 0.929 . S
C457 C456 1.267 . S
C457 C458 1.251 . S
C458 H428 0.929 . S
C458 N454 1.418 . S
C458 C457 1.251 . S
C459 H426 0.930 . S
C459 C461 1.406 . S
C459 C464 1.261 . S
C460 H427 0.930 . S
C460 N462 1.325 . S
C460 C463 1.357 . S
C461 H429 0.928 . S
C461 C459 1.406 . S
C461 N462 1.261 . S
N462 Co413 2.214 . S
N462 C460 1.325 . S
N462 C461 1.261 . S
C463 H433 0.931 . S
C463 C460 1.357 . S
C463 C464 1.312 . S
C464 H435 0.930 . S
C464 C459 1.261 . S
C464 C463 1.312 . S
C465 O437 1.214 . S
C465 O445 1.234 . S
C466 H438 0.929 . S
C466 C469 1.391 . S
C466 C471 1.391 . S
C467 H439 0.929 . S
C467 C468 1.390 . S
C467 N470 1.391 . S
C468 H440 0.930 . S
C468 C467 1.390 . S
C468 C469 1.392 . S
C469 H441 0.929 . S
C469 C466 1.391 . S
C469 C468 1.392 . S
N470 Co414 2.257 . S
N470 C467 1.391 . S
N470 C471 1.388 . S
C471 H442 0.930 . S
C471 C466 1.391 . S
C471 N470 1.388 . S
Co472 O474 2.132 1_455 S
Co472 O480 2.074 . S
Co472 O483 2.093 1_456 S
Co472 O496 2.097 1_455 S
Co472 N513 2.151 1_556 S
Co472 N521 2.214 . S
Co473 O474 2.166 . S
Co473 O479 2.058 1_655 S
Co473 O489 2.057 1_655 S
Co473 O504 2.037 . S
Co473 N508 2.145 . S
Co473 N529 2.257 . S
O474 Co472 2.132 1_655 S
O474 Co473 2.166 . S
C475 O476 1.278 . S
C475 O483 1.224 . S
O476 C475 1.278 . S
C477 O478 1.245 1_556 S
C477 O489 1.232 . S
O478 C477 1.245 1_554 S
O479 Co473 2.058 1_455 S
O479 C505 1.269 . S
O480 Co472 2.074 . S
O480 C505 1.257 . S
H481 C506 0.930 . S
H482 C512 0.930 . S
O483 Co472 2.093 1_654 S
O483 C475 1.224 . S
H484 C516 0.929 . S
H485 C518 0.930 1_554 S
H486 C519 0.930 . S
H487 C517 0.929 1_556 S
H488 C520 0.928 . S
O489 Co473 2.057 1_455 S
O489 C477 1.232 . S
H490 C509 0.929 . S
H491 C510 0.929 . S
H492 C522 0.931 . S
H493 C514 0.929 . S
H494 C523 0.930 . S
H495 C515 0.931 . S
O496 Co472 2.097 1_655 S
O496 C524 1.214 . S
H497 C525 0.929 1_554 S
H498 C526 0.929 . S
H499 C527 0.930 . S
H500 C528 0.929 . S
H501 C530 0.930 1_554 S
H502 C507 0.930 . S
H503 C511 0.930 . S
O504 Co473 2.037 . S
O504 C524 1.234 . S
C505 O479 1.269 . S
C505 O480 1.257 . S
C506 H481 0.930 . S
C506 C509 1.388 . S
C506 C511 1.418 . S
C507 H502 0.930 . S
C507 C510 1.404 . S
C507 C511 1.353 . S
N508 Co473 2.145 . S
N508 C509 1.397 . S
N508 C510 1.334 . S
C509 H490 0.929 . S
C509 C506 1.388 . S
C509 N508 1.397 . S
C510 H491 0.929 . S
C510 C507 1.404 . S
C510 N508 1.334 . S
C511 H503 0.930 . S
C511 C506 1.418 . S
C511 C507 1.353 . S
C512 H482 0.930 . S
C512 N513 1.330 . S
C512 C514 1.446 . S
N513 Co472 2.151 1_554 S
N513 C512 1.330 . S
N513 C517 1.418 . S
C514 H493 0.929 . S
C514 C512 1.446 . S
C514 C515 1.332 . S
C515 H495 0.931 . S
C515 C514 1.332 . S
C515 C516 1.267 . S
C516 H484 0.929 . S
C516 C515 1.267 . S
C516 C517 1.251 . S
C517 H487 0.929 1_554 S
C517 N513 1.418 . S
C517 C516 1.251 . S
C518 H485 0.930 1_556 S
C518 C520 1.406 1_556 S
C518 C523 1.261 . S
C519 H486 0.930 . S
C519 N521 1.325 . S
C519 C522 1.357 . S
C520 H488 0.928 . S
C520 C518 1.406 1_554 S
C520 N521 1.261 1_554 S
N521 Co472 2.214 . S
N521 C519 1.325 . S
N521 C520 1.261 1_556 S
C522 H492 0.931 . S
C522 C519 1.357 . S
C522 C523 1.312 . S
C523 H494 0.930 . S
C523 C518 1.261 . S
C523 C522 1.312 . S
C524 O496 1.214 . S
C524 O504 1.234 . S
C525 H497 0.929 1_556 S
C525 C528 1.391 . S
C525 C530 1.391 . S
C526 H498 0.929 . S
C526 C527 1.390 . S
C526 N529 1.391 . S
C527 H499 0.930 . S
C527 C526 1.390 . S
C527 C528 1.392 . S
C528 H500 0.929 . S
C528 C525 1.391 . S
C528 C527 1.392 . S
N529 Co473 2.257 . S
N529 C526 1.391 . S
N529 C530 1.388 . S
C530 H501 0.930 1_556 S
C530 C525 1.391 . S
C530 N529 1.388 . S
Co531 O533 2.134 1_545 S
Co531 O539 2.074 . S
Co531 O542 2.093 1_545 S
Co531 O555 2.097 1_545 S
Co531 N572 2.151 . S
Co531 N580 2.214 . S
Co532 O533 2.165 . S
Co532 O538 2.058 1_565 S
Co532 O548 2.057 1_565 S
Co532 O563 2.037 . S
Co532 N567 2.145 . S
Co532 N588 2.257 . S
O533 Co531 2.134 1_565 S
O533 Co532 2.165 . S
C534 O535 1.278 . S
C534 O542 1.224 . S
O535 C534 1.278 . S
C536 O537 1.245 . S
C536 O548 1.232 . S
O537 C536 1.245 . S
O538 Co532 2.058 1_545 S
O538 C564 1.269 . S
O539 Co531 2.074 . S
O539 C564 1.257 . S
H540 C565 0.930 . S
H541 C571 0.930 . S
O542 Co531 2.093 1_565 S
O542 C534 1.224 . S
H543 C575 0.929 . S
H544 C577 0.930 . S
H545 C578 0.930 . S
H546 C576 0.929 . S
H547 C579 0.928 . S
O548 Co532 2.057 1_545 S
O548 C536 1.232 . S
H549 C568 0.929 . S
H550 C569 0.929 . S
H551 C581 0.931 . S
H552 C573 0.929 . S
H553 C582 0.930 . S
H554 C574 0.931 . S
O555 Co531 2.097 1_565 S
O555 C583 1.214 . S
H556 C584 0.929 . S
H557 C585 0.929 . S
H558 C586 0.930 . S
H559 C587 0.929 . S
H560 C589 0.930 . S
H561 C566 0.930 . S
H562 C570 0.930 . S
O563 Co532 2.037 . S
O563 C583 1.234 . S
C564 O538 1.269 . S
C564 O539 1.257 . S
C565 H540 0.930 . S
C565 C568 1.388 . S
C565 C570 1.418 . S
C566 H561 0.930 . S
C566 C569 1.404 . S
C566 C570 1.353 . S
N567 Co532 2.145 . S
N567 C568 1.397 . S
N567 C569 1.334 . S
C568 H549 0.929 . S
C568 C565 1.388 . S
C568 N567 1.397 . S
C569 H550 0.929 . S
C569 C566 1.404 . S
C569 N567 1.334 . S
C570 H562 0.930 . S
C570 C565 1.418 . S
C570 C566 1.353 . S
C571 H541 0.930 . S
C571 N572 1.330 . S
C571 C573 1.446 . S
N572 Co531 2.151 . S
N572 C571 1.330 . S
N572 C576 1.418 . S
C573 H552 0.929 . S
C573 C571 1.446 . S
C573 C574 1.332 . S
C574 H554 0.931 . S
C574 C573 1.332 . S
C574 C575 1.267 . S
C575 H543 0.929 . S
C575 C574 1.267 . S
C575 C576 1.251 . S
C576 H546 0.929 . S
C576 N572 1.418 . S
C576 C575 1.251 . S
C577 H544 0.930 . S
C577 C579 1.406 . S
C577 C582 1.261 . S
C578 H545 0.930 . S
C578 N580 1.325 . S
C578 C581 1.357 . S
C579 H547 0.928 . S
C579 C577 1.406 . S
C579 N580 1.261 . S
N580 Co531 2.214 . S
N580 C578 1.325 . S
N580 C579 1.261 . S
C581 H551 0.931 . S
C581 C578 1.357 . S
C581 C582 1.312 . S
C582 H553 0.930 . S
C582 C577 1.261 . S
C582 C581 1.312 . S
C583 O555 1.214 . S
C583 O563 1.234 . S
C584 H556 0.929 . S
C584 C587 1.391 . S
C584 C589 1.391 . S
C585 H557 0.929 . S
C585 C586 1.390 . S
C585 N588 1.391 . S
C586 H558 0.930 . S
C586 C585 1.390 . S
C586 C587 1.392 . S
C587 H559 0.929 . S
C587 C584 1.391 . S
C587 C586 1.392 . S
N588 Co532 2.257 . S
N588 C585 1.391 . S
N588 C589 1.388 . S
C589 H560 0.930 . S
C589 C584 1.391 . S
C589 N588 1.388 . S
Co590 O592 2.143 . S
Co590 O598 2.074 . S
Co590 O601 2.093 1_556 S
Co590 O614 2.097 . S
Co590 N631 2.151 1_556 S
Co590 N639 2.214 . S
Co591 O592 2.160 . S
Co591 O597 2.058 . S
Co591 O607 2.057 . S
Co591 O622 2.037 . S
Co591 N626 2.145 . S
Co591 N647 2.257 . S
O592 Co590 2.143 . S
O592 Co591 2.160 . S
C593 O594 1.278 . S
C593 O601 1.224 . S
O594 C593 1.278 . S
C595 O596 1.245 1_556 S
C595 O607 1.232 . S
O596 C595 1.245 1_554 S
O597 Co591 2.058 . S
O597 C623 1.269 . S
O598 Co590 2.074 . S
O598 C623 1.257 . S
H599 C624 0.930 . S
H600 C630 0.930 . S
O601 Co590 2.093 1_554 S
O601 C593 1.224 . S
H602 C634 0.929 . S
H603 C636 0.930 1_554 S
H604 C637 0.930 . S
H605 C635 0.929 1_556 S
H606 C638 0.922 1_554 S
O607 Co591 2.057 . S
O607 C595 1.232 . S
H608 C627 0.929 . S
H609 C628 0.929 . S
H610 C640 0.931 . S
H611 C632 0.929 . S
H612 C641 0.930 . S
H613 C633 0.931 . S
O614 Co590 2.097 . S
O614 C642 1.214 . S
H615 C643 0.929 1_554 S
H616 C644 0.929 . S
H617 C645 0.930 . S
H618 C646 0.929 . S
H619 C648 0.930 . S
H620 C625 0.930 . S
H621 C629 0.930 . S
O622 Co591 2.037 . S
O622 C642 1.234 . S
C623 O597 1.269 . S
C623 O598 1.257 . S
C624 H599 0.930 . S
C624 C627 1.388 . S
C624 C629 1.418 . S
C625 H620 0.930 . S
C625 C628 1.404 . S
C625 C629 1.353 . S
N626 Co591 2.145 . S
N626 C627 1.397 . S
N626 C628 1.334 . S
C627 H608 0.929 . S
C627 C624 1.388 . S
C627 N626 1.397 . S
C628 H609 0.929 . S
C628 C625 1.404 . S
C628 N626 1.334 . S
C629 H621 0.930 . S
C629 C624 1.418 . S
C629 C625 1.353 . S
C630 H600 0.930 . S
C630 N631 1.330 . S
C630 C632 1.446 . S
N631 Co590 2.151 1_554 S
N631 C630 1.330 . S
N631 C635 1.418 . S
C632 H611 0.929 . S
C632 C630 1.446 . S
C632 C633 1.332 . S
C633 H613 0.931 . S
C633 C632 1.332 . S
C633 C634 1.267 . S
C634 H602 0.929 . S
C634 C633 1.267 . S
C634 C635 1.251 . S
C635 H605 0.929 1_554 S
C635 N631 1.418 . S
C635 C634 1.251 . S
C636 H603 0.930 1_556 S
C636 C638 1.407 . S
C636 C641 1.261 . S
C637 H604 0.930 . S
C637 N639 1.325 . S
C637 C640 1.357 . S
C638 H606 0.922 1_556 S
C638 C636 1.407 . S
C638 N639 1.266 . S
N639 Co590 2.214 . S
N639 C637 1.325 . S
N639 C638 1.266 . S
C640 H610 0.931 . S
C640 C637 1.357 . S
C640 C641 1.312 . S
C641 H612 0.930 . S
C641 C636 1.261 . S
C641 C640 1.312 . S
C642 O614 1.214 . S
C642 O622 1.234 . S
C643 H615 0.929 1_556 S
C643 C646 1.391 . S
C643 C648 1.391 . S
C644 H616 0.929 . S
C644 C645 1.390 . S
C644 N647 1.391 . S
C645 H617 0.930 . S
C645 C644 1.390 . S
C645 C646 1.392 . S
C646 H618 0.929 . S
C646 C643 1.391 . S
C646 C645 1.392 . S
N647 Co591 2.257 . S
N647 C644 1.391 . S
N647 C648 1.388 . S
C648 H619 0.930 . S
C648 C643 1.391 . S
C648 N647 1.388 . S
Co649 O651 2.143 . S
Co649 O657 2.074 . S
Co649 O660 2.093 . S
Co649 O673 2.097 . S
Co649 N690 2.151 . S
Co649 N698 2.214 . S
Co650 O651 2.160 . S
Co650 O656 2.058 . S
Co650 O666 2.057 . S
Co650 O681 2.037 . S
Co650 N685 2.145 . S
Co650 N706 2.257 . S
O651 Co649 2.143 . S
O651 Co650 2.160 . S
C652 O653 1.278 . S
C652 O660 1.224 . S
O653 C652 1.278 . S
C654 O655 1.245 . S
C654 O666 1.232 . S
O655 C654 1.245 . S
O656 Co650 2.058 . S
O656 C682 1.269 . S
O657 Co649 2.074 . S
O657 C682 1.257 . S
H658 C683 0.930 . S
H659 C689 0.930 . S
O660 Co649 2.093 . S
O660 C652 1.224 . S
H661 C693 0.929 . S
H662 C695 0.930 . S
H663 C696 0.930 . S
H664 C694 0.929 . S
H665 C697 0.928 . S
O666 Co650 2.057 . S
O666 C654 1.232 . S
H667 C686 0.929 . S
H668 C687 0.929 . S
H669 C699 0.931 . S
H670 C691 0.929 . S
H671 C700 0.930 . S
H672 C692 0.931 . S
O673 Co649 2.097 . S
O673 C701 1.214 . S
H674 C702 0.929 . S
H675 C703 0.929 . S
H676 C704 0.930 . S
H677 C705 0.929 . S
H678 C707 0.930 . S
H679 C684 0.930 . S
H680 C688 0.930 . S
O681 Co650 2.037 . S
O681 C701 1.234 . S
C682 O656 1.269 . S
C682 O657 1.257 . S
C683 H658 0.930 . S
C683 C686 1.388 . S
C683 C688 1.418 . S
C684 H679 0.930 . S
C684 C687 1.404 . S
C684 C688 1.353 . S
N685 Co650 2.145 . S
N685 C686 1.397 . S
N685 C687 1.334 . S
C686 H667 0.929 . S
C686 C683 1.388 . S
C686 N685 1.397 . S
C687 H668 0.929 . S
C687 C684 1.404 . S
C687 N685 1.334 . S
C688 H680 0.930 . S
C688 C683 1.418 . S
C688 C684 1.353 . S
C689 H659 0.930 . S
C689 N690 1.330 . S
C689 C691 1.446 . S
N690 Co649 2.151 . S
N690 C689 1.330 . S
N690 C694 1.418 . S
C691 H670 0.929 . S
C691 C689 1.446 . S
C691 C692 1.332 . S
C692 H672 0.931 . S
C692 C691 1.332 . S
C692 C693 1.267 . S
C693 H661 0.929 . S
C693 C692 1.267 . S
C693 C694 1.251 . S
C694 H664 0.929 . S
C694 N690 1.418 . S
C694 C693 1.251 . S
C695 H662 0.930 . S
C695 C697 1.406 . S
C695 C700 1.261 . S
C696 H663 0.930 . S
C696 N698 1.325 . S
C696 C699 1.357 . S
C697 H665 0.928 . S
C697 C695 1.406 . S
C697 N698 1.261 . S
N698 Co649 2.214 . S
N698 C696 1.325 . S
N698 C697 1.261 . S
C699 H669 0.931 . S
C699 C696 1.357 . S
C699 C700 1.312 . S
C700 H671 0.930 . S
C700 C695 1.261 . S
C700 C699 1.312 . S
C701 O673 1.214 . S
C701 O681 1.234 . S
C702 H674 0.929 . S
C702 C705 1.391 . S
C702 C707 1.391 . S
C703 H675 0.929 . S
C703 C704 1.390 . S
C703 N706 1.391 . S
C704 H676 0.930 . S
C704 C703 1.390 . S
C704 C705 1.392 . S
C705 H677 0.929 . S
C705 C702 1.391 . S
C705 C704 1.392 . S
N706 Co650 2.257 . S
N706 C703 1.391 . S
N706 C707 1.388 . S
C707 H678 0.930 . S
C707 C702 1.391 . S
C707 N706 1.388 . S
Co708 O710 2.134 1_455 S
Co708 O716 2.074 . S
Co708 O719 2.093 1_454 S
Co708 O732 2.097 1_455 S
Co708 N749 2.151 1_554 S
Co708 N757 2.214 . S
Co709 O710 2.165 . S
Co709 O715 2.058 1_655 S
Co709 O725 2.057 1_655 S
Co709 O740 2.037 . S
Co709 N744 2.145 . S
Co709 N765 2.257 . S
O710 Co708 2.134 1_655 S
O710 Co709 2.165 . S
C711 O712 1.278 . S
C711 O719 1.224 . S
O712 C711 1.278 . S
C713 O714 1.252 . S
C713 O725 1.232 . S
O714 C713 1.252 . S
O715 Co709 2.058 1_455 S
O715 C741 1.269 . S
O716 Co708 2.074 . S
O716 C741 1.257 . S
H717 C742 0.930 . S
H718 C748 0.930 . S
O719 Co708 2.093 1_656 S
O719 C711 1.224 . S
H720 C752 0.929 . S
H721 C754 0.930 1_556 S
H722 C755 0.930 . S
H723 C753 0.929 1_554 S
H724 C756 0.928 1_556 S
O725 Co709 2.057 1_455 S
O725 C713 1.232 . S
H726 C745 0.929 . S
H727 C746 0.929 . S
H728 C758 0.931 . S
H729 C750 0.929 . S
H730 C759 0.930 . S
H731 C751 0.931 . S
O732 Co708 2.097 1_655 S
O732 C760 1.214 . S
H733 C761 0.929 1_556 S
H734 C762 0.929 . S
H735 C763 0.930 . S
H736 C764 0.929 . S
H737 C766 0.930 . S
H738 C743 0.930 . S
H739 C747 0.930 . S
O740 Co709 2.037 . S
O740 C760 1.234 . S
C741 O715 1.269 . S
C741 O716 1.257 . S
C742 H717 0.930 . S
C742 C745 1.388 . S
C742 C747 1.418 . S
C743 H738 0.930 . S
C743 C746 1.404 . S
C743 C747 1.353 . S
N744 Co709 2.145 . S
N744 C745 1.397 . S
N744 C746 1.334 . S
C745 H726 0.929 . S
C745 C742 1.388 . S
C745 N744 1.397 . S
C746 H727 0.929 . S
C746 C743 1.404 . S
C746 N744 1.334 . S
C747 H739 0.930 . S
C747 C742 1.418 . S
C747 C743 1.353 . S
C748 H718 0.930 . S
C748 N749 1.330 . S
C748 C750 1.446 . S
N749 Co708 2.151 1_556 S
N749 C748 1.330 . S
N749 C753 1.418 . S
C750 H729 0.929 . S
C750 C748 1.446 . S
C750 C751 1.332 . S
C751 H731 0.931 . S
C751 C750 1.332 . S
C751 C752 1.267 . S
C752 H720 0.929 . S
C752 C751 1.267 . S
C752 C753 1.251 . S
C753 H723 0.929 1_556 S
C753 N749 1.418 . S
C753 C752 1.251 . S
C754 H721 0.930 1_554 S
C754 C756 1.406 . S
C754 C759 1.261 . S
C755 H722 0.930 . S
C755 N757 1.325 . S
C755 C758 1.357 . S
C756 H724 0.928 1_554 S
C756 C754 1.406 . S
C756 N757 1.261 . S
N757 Co708 2.214 . S
N757 C755 1.325 . S
N757 C756 1.261 . S
C758 H728 0.931 . S
C758 C755 1.357 . S
C758 C759 1.312 . S
C759 H730 0.930 . S
C759 C754 1.261 . S
C759 C758 1.312 . S
C760 O732 1.214 . S
C760 O740 1.234 . S
C761 H733 0.929 1_554 S
C761 C764 1.391 . S
C761 C766 1.391 . S
C762 H734 0.929 . S
C762 C763 1.390 . S
C762 N765 1.391 . S
C763 H735 0.930 . S
C763 C762 1.390 . S
C763 C764 1.392 . S
C764 H736 0.929 . S
C764 C761 1.391 . S
C764 C763 1.392 . S
N765 Co709 2.257 . S
N765 C762 1.391 . S
N765 C766 1.388 . S
C766 H737 0.930 . S
C766 C761 1.391 . S
C766 N765 1.388 . S
Co767 O769 2.132 1_545 S
Co767 O775 2.074 . S
Co767 O778 2.093 1_545 S
Co767 O791 2.097 1_545 S
Co767 N808 2.151 . S
Co767 N816 2.214 . S
Co768 O769 2.166 . S
Co768 O774 2.058 1_565 S
Co768 O784 2.057 1_565 S
Co768 O799 2.037 . S
Co768 N803 2.145 . S
Co768 N824 2.257 . S
O769 Co767 2.132 1_565 S
O769 Co768 2.166 . S
C770 O771 1.278 . S
C770 O778 1.224 . S
O771 C770 1.278 . S
C772 O773 1.245 . S
C772 O784 1.232 . S
O773 C772 1.245 . S
O774 Co768 2.058 1_545 S
O774 C800 1.269 . S
O775 Co767 2.074 . S
O775 C800 1.257 . S
H776 C801 0.930 . S
H777 C807 0.930 . S
O778 Co767 2.093 1_565 S
O778 C770 1.224 . S
H779 C811 0.929 . S
H780 C813 0.930 . S
H781 C814 0.930 . S
H782 C812 0.929 . S
H783 C815 0.928 . S
O784 Co768 2.057 1_545 S
O784 C772 1.232 . S
H785 C804 0.929 . S
H786 C805 0.929 . S
H787 C817 0.931 . S
H788 C809 0.929 . S
H789 C818 0.930 . S
H790 C810 0.931 . S
O791 Co767 2.097 1_565 S
O791 C819 1.214 . S
H792 C820 0.929 . S
H793 C821 0.929 . S
H794 C822 0.930 . S
H795 C823 0.929 . S
H796 C825 0.930 . S
H797 C802 0.930 . S
H798 C806 0.930 . S
O799 Co768 2.037 . S
O799 C819 1.234 . S
C800 O774 1.269 . S
C800 O775 1.257 . S
C801 H776 0.930 . S
C801 C804 1.388 . S
C801 C806 1.418 . S
C802 H797 0.930 . S
C802 C805 1.404 . S
C802 C806 1.353 . S
N803 Co768 2.145 . S
N803 C804 1.397 . S
N803 C805 1.334 . S
C804 H785 0.929 . S
C804 C801 1.388 . S
C804 N803 1.397 . S
C805 H786 0.929 . S
C805 C802 1.404 . S
C805 N803 1.334 . S
C806 H798 0.930 . S
C806 C801 1.418 . S
C806 C802 1.353 . S
C807 H777 0.930 . S
C807 N808 1.330 . S
C807 C809 1.446 . S
N808 Co767 2.151 . S
N808 C807 1.330 . S
N808 C812 1.418 . S
C809 H788 0.929 . S
C809 C807 1.446 . S
C809 C810 1.332 . S
C810 H790 0.931 . S
C810 C809 1.332 . S
C810 C811 1.267 . S
C811 H779 0.929 . S
C811 C810 1.267 . S
C811 C812 1.251 . S
C812 H782 0.929 . S
C812 N808 1.418 . S
C812 C811 1.251 . S
C813 H780 0.930 . S
C813 C815 1.406 . S
C813 C818 1.261 . S
C814 H781 0.930 . S
C814 N816 1.325 . S
C814 C817 1.357 . S
C815 H783 0.928 . S
C815 C813 1.406 . S
C815 N816 1.261 . S
N816 Co767 2.214 . S
N816 C814 1.325 . S
N816 C815 1.261 . S
C817 H787 0.931 . S
C817 C814 1.357 . S
C817 C818 1.312 . S
C818 H789 0.930 . S
C818 C813 1.261 . S
C818 C817 1.312 . S
C819 O791 1.214 . S
C819 O799 1.234 . S
C820 H792 0.929 . S
C820 C823 1.391 . S
C820 C825 1.391 . S
C821 H793 0.929 . S
C821 C822 1.390 . S
C821 N824 1.391 . S
C822 H794 0.930 . S
C822 C821 1.390 . S
C822 C823 1.392 . S
C823 H795 0.929 . S
C823 C820 1.391 . S
C823 C822 1.392 . S
N824 Co768 2.257 . S
N824 C821 1.391 . S
N824 C825 1.388 . S
C825 H796 0.930 . S
C825 C820 1.391 . S
C825 N824 1.388 . S
Co826 O828 2.143 1_554 S
Co826 O834 2.074 . S
Co826 O837 2.093 1_554 S
Co826 O850 2.097 . S
Co826 N867 2.151 1_554 S
Co826 N875 2.214 . S
Co827 O828 2.159 1_554 S
Co827 O833 2.058 . S
Co827 O843 2.057 . S
Co827 O858 2.037 . S
Co827 N862 2.145 . S
Co827 N883 2.257 . S
O828 Co826 2.143 1_556 S
O828 Co827 2.159 1_556 S
C829 O830 1.278 . S
C829 O837 1.224 . S
O830 C829 1.278 . S
C831 O832 1.245 . S
C831 O843 1.232 1_556 S
O832 C831 1.245 . S
O833 Co827 2.058 . S
O833 C859 1.269 . S
O834 Co826 2.074 . S
O834 C859 1.257 . S
H835 C860 0.930 . S
H836 C866 0.930 . S
O837 Co826 2.093 1_556 S
O837 C829 1.224 . S
H838 C870 0.929 . S
H839 C872 0.930 . S
H840 C873 0.930 . S
H841 C871 0.929 . S
H842 C874 0.928 . S
O843 Co827 2.057 . S
O843 C831 1.232 1_554 S
H844 C863 0.929 . S
H845 C864 0.929 . S
H846 C876 0.931 . S
H847 C868 0.929 . S
H848 C877 0.930 . S
H849 C869 0.931 . S
O850 Co826 2.097 . S
O850 C878 1.214 . S
H851 C879 0.929 . S
H852 C880 0.929 . S
H853 C881 0.930 . S
H854 C882 0.929 . S
H855 C884 0.943 . S
H856 C861 0.930 . S
H857 C865 0.930 . S
O858 Co827 2.037 . S
O858 C878 1.234 . S
C859 O833 1.269 . S
C859 O834 1.257 . S
C860 H835 0.930 . S
C860 C863 1.388 . S
C860 C865 1.418 . S
C861 H856 0.930 . S
C861 C864 1.404 . S
C861 C865 1.353 . S
N862 Co827 2.145 . S
N862 C863 1.397 . S
N862 C864 1.334 . S
C863 H844 0.929 . S
C863 C860 1.388 . S
C863 N862 1.397 . S
C864 H845 0.929 . S
C864 C861 1.404 . S
C864 N862 1.334 . S
C865 H857 0.930 . S
C865 C860 1.418 . S
C865 C861 1.353 . S
C866 H836 0.930 . S
C866 N867 1.330 . S
C866 C868 1.446 . S
N867 Co826 2.151 1_556 S
N867 C866 1.330 . S
N867 C871 1.418 . S
C868 H847 0.929 . S
C868 C866 1.446 . S
C868 C869 1.332 . S
C869 H849 0.931 . S
C869 C868 1.332 . S
C869 C870 1.267 . S
C870 H838 0.929 . S
C870 C869 1.267 . S
C870 C871 1.251 . S
C871 H841 0.929 . S
C871 N867 1.418 . S
C871 C870 1.251 . S
C872 H839 0.930 . S
C872 C874 1.406 . S
C872 C877 1.261 1_556 S
C873 H840 0.930 . S
C873 N875 1.325 . S
C873 C876 1.357 . S
C874 H842 0.928 . S
C874 C872 1.406 . S
C874 N875 1.261 1_556 S
N875 Co826 2.214 . S
N875 C873 1.325 . S
N875 C874 1.261 1_554 S
C876 H846 0.931 . S
C876 C873 1.357 . S
C876 C877 1.312 . S
C877 H848 0.930 . S
C877 C872 1.261 1_554 S
C877 C876 1.312 . S
C878 O850 1.214 . S
C878 O858 1.234 . S
C879 H851 0.929 . S
C879 C882 1.391 1_556 S
C879 C884 1.398 . S
C880 H852 0.929 . S
C880 C881 1.390 . S
C880 N883 1.391 . S
C881 H853 0.930 . S
C881 C880 1.390 . S
C881 C882 1.392 . S
C882 H854 0.929 . S
C882 C879 1.391 1_554 S
C882 C881 1.392 . S
N883 Co827 2.257 . S
N883 C880 1.391 . S
N883 C884 1.369 1_554 S
C884 H855 0.943 . S
C884 C879 1.398 . S
C884 N883 1.369 1_556 S
Co885 O887 2.143 . S
Co885 O893 2.074 . S
Co885 O896 2.093 . S
Co885 O909 2.097 . S
Co885 N926 2.151 . S
Co885 N934 2.214 . S
Co886 O887 2.160 . S
Co886 O892 2.058 . S
Co886 O902 2.057 . S
Co886 O917 2.037 . S
Co886 N921 2.145 . S
Co886 N942 2.257 . S
O887 Co885 2.143 . S
O887 Co886 2.160 . S
C888 O889 1.278 . S
C888 O896 1.224 . S
O889 C888 1.278 . S
C890 O891 1.245 . S
C890 O902 1.232 . S
O891 C890 1.245 . S
O892 Co886 2.058 . S
O892 C918 1.269 . S
O893 Co885 2.074 . S
O893 C918 1.257 . S
H894 C919 0.930 . S
H895 C925 0.930 . S
O896 Co885 2.093 . S
O896 C888 1.224 . S
H897 C929 0.929 . S
H898 C931 0.930 . S
H899 C932 0.930 . S
H900 C930 0.929 . S
H901 C933 0.928 . S
O902 Co886 2.057 . S
O902 C890 1.232 . S
H903 C922 0.929 . S
H904 C923 0.929 . S
H905 C935 0.931 . S
H906 C927 0.929 . S
H907 C936 0.930 . S
H908 C928 0.931 . S
O909 Co885 2.097 . S
O909 C937 1.214 . S
H910 C938 0.929 . S
H911 C939 0.929 . S
H912 C940 0.930 . S
H913 C941 0.929 . S
H914 C943 0.930 . S
H915 C920 0.930 . S
H916 C924 0.930 . S
O917 Co886 2.037 . S
O917 C937 1.234 . S
C918 O892 1.269 . S
C918 O893 1.257 . S
C919 H894 0.930 . S
C919 C922 1.388 . S
C919 C924 1.418 . S
C920 H915 0.930 . S
C920 C923 1.404 . S
C920 C924 1.353 . S
N921 Co886 2.145 . S
N921 C922 1.397 . S
N921 C923 1.334 . S
C922 H903 0.929 . S
C922 C919 1.388 . S
C922 N921 1.397 . S
C923 H904 0.929 . S
C923 C920 1.404 . S
C923 N921 1.334 . S
C924 H916 0.930 . S
C924 C919 1.418 . S
C924 C920 1.353 . S
C925 H895 0.930 . S
C925 N926 1.330 . S
C925 C927 1.446 . S
N926 Co885 2.151 . S
N926 C925 1.330 . S
N926 C930 1.418 . S
C927 H906 0.929 . S
C927 C925 1.446 . S
C927 C928 1.332 . S
C928 H908 0.931 . S
C928 C927 1.332 . S
C928 C929 1.267 . S
C929 H897 0.929 . S
C929 C928 1.267 . S
C929 C930 1.251 . S
C930 H900 0.929 . S
C930 N926 1.418 . S
C930 C929 1.251 . S
C931 H898 0.930 . S
C931 C933 1.406 . S
C931 C936 1.261 . S
C932 H899 0.930 . S
C932 N934 1.325 . S
C932 C935 1.357 . S
C933 H901 0.928 . S
C933 C931 1.406 . S
C933 N934 1.261 . S
N934 Co885 2.214 . S
N934 C932 1.325 . S
N934 C933 1.261 . S
C935 H905 0.931 . S
C935 C932 1.357 . S
C935 C936 1.312 . S
C936 H907 0.930 . S
C936 C931 1.261 . S
C936 C935 1.312 . S
C937 O909 1.214 . S
C937 O917 1.234 . S
C938 H910 0.929 . S
C938 C941 1.391 . S
C938 C943 1.391 . S
C939 H911 0.929 . S
C939 C940 1.390 . S
C939 N942 1.391 . S
C940 H912 0.930 . S
C940 C939 1.390 . S
C940 C941 1.392 . S
C941 H913 0.929 . S
C941 C938 1.391 . S
C941 C940 1.392 . S
N942 Co886 2.257 . S
N942 C939 1.391 . S
N942 C943 1.388 . S
C943 H914 0.930 . S
C943 C938 1.391 . S
C943 N942 1.388 . S
C944 C945 1.349 1_556 S
C944 C946 1.327 . S
C944 H969 0.950 . S
C945 C944 1.349 1_554 S
C945 C961 1.349 . S
C946 C944 1.327 . S
C946 C965 1.429 . S
C946 H970 0.950 . S
C947 C964 1.574 . S
C947 C966 1.368 1_554 S
C947 H971 0.949 1_655 S
H948 C952 0.949 . S
C949 C950 1.349 1_554 S
C949 C951 1.327 . S
C949 H972 0.950 1_655 S
C950 C949 1.349 1_556 S
C950 C962 1.349 . S
C951 C949 1.327 . S
C951 C967 1.429 1_554 S
C951 H973 0.950 1_655 S
C952 H948 0.949 . S
C952 C960 1.574 . S
C952 C968 1.368 . S
H953 C961 0.950 1_455 S
H954 C959 0.950 1_455 S
H955 C960 0.949 . S
H956 C962 0.950 . S
H957 C963 0.950 . S
H958 C964 0.949 1_455 S
C959 H954 0.950 1_655 S
C959 C961 1.327 . S
C959 C965 1.429 1_554 S
C960 C952 1.574 . S
C960 H955 0.949 . S
C960 C966 1.368 . S
C961 C945 1.349 . S
C961 H953 0.950 1_655 S
C961 C959 1.327 . S
C962 C950 1.349 . S
C962 H956 0.950 . S
C962 C963 1.327 . S
C963 H957 0.950 . S
C963 C962 1.327 . S
C963 C967 1.429 . S
C964 C947 1.574 . S
C964 H958 0.949 1_655 S
C964 C968 1.368 1_554 S
C965 C946 1.429 . S
C965 C959 1.429 1_556 S
C965 C966 1.523 . S
C966 C947 1.368 1_556 S
C966 C960 1.368 . S
C966 C965 1.523 . S
C967 C951 1.429 1_556 S
C967 C963 1.429 . S
C967 C968 1.523 . S
C968 C952 1.368 . S
C968 C964 1.368 1_556 S
C968 C967 1.523 . S
H969 C944 0.950 . S
H970 C946 0.950 . S
H971 C947 0.949 1_455 S
H972 C949 0.950 1_455 S
H973 C951 0.950 1_455 S
C974 C975 1.344 1_545 S
C974 C976 1.327 . S
C974 H999 0.954 . S
C975 C974 1.344 1_565 S
C975 C991 1.349 . S
C976 C974 1.327 . S
C976 C995 1.421 1_545 S
C976 H1000 0.958 . S
C977 C994 1.574 . S
C977 C996 1.368 . S
C977 H1001 0.949 . S
H978 C982 0.951 . S
C979 C980 1.349 . S
C979 C981 1.327 . S
C979 H1002 0.950 . S
C980 C979 1.349 . S
C980 C992 1.349 . S
C981 C979 1.327 . S
C981 C997 1.429 . S
C981 H1003 0.950 . S
C982 H978 0.951 . S
C982 C990 1.574 . S
C982 C998 1.366 1_545 S
H983 C991 0.950 . S
H984 C989 0.950 . S
H985 C990 0.964 . S
H986 C992 0.950 1_545 S
H987 C993 0.911 1_545 S
H988 C994 0.949 . S
C989 H984 0.950 . S
C989 C991 1.327 . S
C989 C995 1.429 . S
C990 C982 1.574 . S
C990 H985 0.964 . S
C990 C996 1.353 1_545 S
C991 C975 1.349 . S
C991 H983 0.950 . S
C991 C989 1.327 . S
C992 C980 1.349 . S
C992 H986 0.950 1_565 S
C992 C993 1.330 . S
C993 H987 0.911 1_565 S
C993 C992 1.330 . S
C993 C997 1.467 . S
C994 C977 1.574 . S
C994 H988 0.949 . S
C994 C998 1.368 . S
C995 C976 1.421 1_565 S
C995 C989 1.429 . S
C995 C996 1.523 . S
C996 C977 1.368 . S
C996 C990 1.353 1_565 S
C996 C995 1.523 . S
C997 C981 1.429 . S
C997 C993 1.467 . S
C997 C998 1.523 . S
C998 C982 1.366 1_565 S
C998 C994 1.368 . S
C998 C997 1.523 . S
H999 C974 0.954 . S
H1000 C976 0.958 . S
H1001 C977 0.949 . S
H1002 C979 0.950 . S
H1003 C981 0.950 . S
C1004 C1005 1.349 . S
C1004 C1006 1.327 . S
C1004 H1029 0.950 . S
C1005 C1004 1.349 . S
C1005 C1021 1.349 1_554 S
C1006 C1004 1.327 . S
C1006 C1025 1.429 . S
C1006 H1030 0.950 . S
C1007 C1024 1.574 . S
C1007 C1026 1.368 1_556 S
C1007 H1031 0.949 . S
H1008 C1012 0.949 . S
C1009 C1010 1.349 1_556 S
C1009 C1011 1.327 . S
C1009 H1032 0.950 . S
C1010 C1009 1.349 1_554 S
C1010 C1022 1.349 . S
C1011 C1009 1.327 . S
C1011 C1027 1.429 1_556 S
C1011 H1033 0.950 . S
C1012 H1008 0.949 . S
C1012 C1020 1.574 . S
C1012 C1028 1.368 . S
H1013 C1021 0.950 . S
H1014 C1019 0.950 . S
H1015 C1020 0.949 . S
H1016 C1022 0.950 . S
H1017 C1023 0.950 . S
H1018 C1024 0.949 . S
C1019 H1014 0.950 . S
C1019 C1021 1.327 . S
C1019 C1025 1.429 1_556 S
C1020 C1012 1.574 . S
C1020 H1015 0.949 . S
C1020 C1026 1.368 . S
C1021 C1005 1.349 1_556 S
C1021 H1013 0.950 . S
C1021 C1019 1.327 . S
C1022 C1010 1.349 . S
C1022 H1016 0.950 . S
C1022 C1023 1.327 . S
C1023 H1017 0.950 . S
C1023 C1022 1.327 . S
C1023 C1027 1.429 . S
C1024 C1007 1.574 . S
C1024 H1018 0.949 . S
C1024 C1028 1.368 1_556 S
C1025 C1006 1.429 . S
C1025 C1019 1.429 1_554 S
C1025 C1026 1.523 . S
C1026 C1007 1.368 1_554 S
C1026 C1020 1.368 . S
C1026 C1025 1.523 . S
C1027 C1011 1.429 1_554 S
C1027 C1023 1.429 . S
C1027 C1028 1.523 . S
C1028 C1012 1.368 . S
C1028 C1024 1.368 1_554 S
C1028 C1027 1.523 . S
H1029 C1004 0.950 . S
H1030 C1006 0.950 . S
H1031 C1007 0.949 . S
H1032 C1009 0.950 . S
H1033 C1011 0.950 . S
C1034 C1035 1.349 . S
C1034 C1036 1.327 . S
C1034 H1059 0.950 . S
C1035 C1034 1.349 . S
C1035 C1051 1.349 . S
C1036 C1034 1.327 . S
C1036 C1055 1.429 . S
C1036 H1060 0.950 . S
C1037 C1054 1.574 . S
C1037 C1056 1.368 . S
C1037 H1061 0.949 . S
H1038 C1042 0.949 . S
C1039 C1040 1.349 . S
C1039 C1041 1.327 . S
C1039 H1062 0.950 . S
C1040 C1039 1.349 . S
C1040 C1052 1.349 . S
C1041 C1039 1.327 . S
C1041 C1057 1.429 . S
C1041 H1063 0.950 . S
C1042 H1038 0.949 . S
C1042 C1050 1.574 . S
C1042 C1058 1.368 . S
H1043 C1051 0.950 . S
H1044 C1049 0.950 . S
H1045 C1050 0.949 . S
H1046 C1052 0.950 . S
H1047 C1053 0.950 . S
H1048 C1054 0.949 . S
C1049 H1044 0.950 . S
C1049 C1051 1.327 . S
C1049 C1055 1.429 . S
C1050 C1042 1.574 . S
C1050 H1045 0.949 . S
C1050 C1056 1.368 . S
C1051 C1035 1.349 . S
C1051 H1043 0.950 . S
C1051 C1049 1.327 . S
C1052 C1040 1.349 . S
C1052 H1046 0.950 . S
C1052 C1053 1.327 . S
C1053 H1047 0.950 . S
C1053 C1052 1.327 . S
C1053 C1057 1.429 . S
C1054 C1037 1.574 . S
C1054 H1048 0.949 . S
C1054 C1058 1.368 . S
C1055 C1036 1.429 . S
C1055 C1049 1.429 . S
C1055 C1056 1.523 . S
C1056 C1037 1.368 . S
C1056 C1050 1.368 . S
C1056 C1055 1.523 . S
C1057 C1041 1.429 . S
C1057 C1053 1.429 . S
C1057 C1058 1.523 . S
C1058 C1042 1.368 . S
C1058 C1054 1.368 . S
C1058 C1057 1.523 . S
H1059 C1034 0.950 . S
H1060 C1036 0.950 . S
H1061 C1037 0.949 . S
H1062 C1039 0.950 . S
H1063 C1041 0.950 . S
C1064 C1065 1.349 1_554 S
C1064 C1066 1.327 . S
C1064 H1089 0.950 1_455 S
C1065 C1064 1.349 1_556 S
C1065 C1081 1.349 . S
C1066 C1064 1.327 . S
C1066 C1085 1.429 . S
C1066 H1090 0.950 1_455 S
C1067 C1084 1.574 . S
C1067 C1086 1.368 1_556 S
C1067 H1091 0.949 . S
H1068 C1072 0.949 1_655 S
C1069 C1070 1.349 1_556 S
C1069 C1071 1.327 . S
C1069 H1092 0.950 . S
C1070 C1069 1.349 1_554 S
C1070 C1082 1.349 . S
C1071 C1069 1.327 . S
C1071 C1087 1.429 1_556 S
C1071 H1093 0.950 . S
C1072 H1068 0.949 1_455 S
C1072 C1080 1.574 . S
C1072 C1088 1.368 . S
H1073 C1081 0.950 . S
H1074 C1079 0.950 . S
H1075 C1080 0.949 1_655 S
H1076 C1082 0.950 1_655 S
H1077 C1083 0.950 1_655 S
H1078 C1084 0.949 . S
C1079 H1074 0.950 . S
C1079 C1081 1.327 . S
C1079 C1085 1.429 1_556 S
C1080 C1072 1.574 . S
C1080 H1075 0.949 1_455 S
C1080 C1086 1.368 . S
C1081 C1065 1.349 . S
C1081 H1073 0.950 . S
C1081 C1079 1.327 . S
C1082 C1070 1.349 . S
C1082 H1076 0.950 1_455 S
C1082 C1083 1.327 . S
C1083 H1077 0.950 1_455 S
C1083 C1082 1.327 . S
C1083 C1087 1.429 . S
C1084 C1067 1.574 . S
C1084 H1078 0.949 . S
C1084 C1088 1.368 1_556 S
C1085 C1066 1.429 . S
C1085 C1079 1.429 1_554 S
C1085 C1086 1.523 . S
C1086 C1067 1.368 1_554 S
C1086 C1080 1.368 . S
C1086 C1085 1.523 . S
C1087 C1071 1.429 1_554 S
C1087 C1083 1.429 . S
C1087 C1088 1.523 . S
C1088 C1072 1.368 . S
C1088 C1084 1.368 1_554 S
C1088 C1087 1.523 . S
H1089 C1064 0.950 1_655 S
H1090 C1066 0.950 1_655 S
H1091 C1067 0.949 . S
H1092 C1069 0.950 . S
H1093 C1071 0.950 . S
C1094 C1095 1.349 1_565 S
C1094 C1096 1.327 . S
C1094 H1119 0.950 . S
C1095 C1094 1.349 1_545 S
C1095 C1111 1.349 . S
C1096 C1094 1.327 . S
C1096 C1115 1.429 1_565 S
C1096 H1120 0.950 . S
C1097 C1114 1.574 . S
C1097 C1116 1.368 . S
C1097 H1121 0.949 . S
H1098 C1102 0.949 . S
C1099 C1100 1.349 . S
C1099 C1101 1.327 . S
C1099 H1122 0.950 . S
C1100 C1099 1.349 . S
C1100 C1112 1.349 1_545 S
C1101 C1099 1.327 . S
C1101 C1117 1.429 . S
C1101 H1123 0.950 . S
C1102 H1098 0.949 . S
C1102 C1110 1.574 . S
C1102 C1118 1.368 1_565 S
H1103 C1111 0.950 . S
H1104 C1109 0.950 . S
H1105 C1110 0.949 . S
H1106 C1112 0.950 . S
H1107 C1113 0.950 . S
H1108 C1114 0.949 . S
C1109 H1104 0.950 . S
C1109 C1111 1.327 . S
C1109 C1115 1.429 . S
C1110 C1102 1.574 . S
C1110 H1105 0.949 . S
C1110 C1116 1.368 1_565 S
C1111 C1095 1.349 . S
C1111 H1103 0.950 . S
C1111 C1109 1.327 . S
C1112 C1100 1.349 1_565 S
C1112 H1106 0.950 . S
C1112 C1113 1.327 . S
C1113 H1107 0.950 . S
C1113 C1112 1.327 . S
C1113 C1117 1.429 1_565 S
C1114 C1097 1.574 . S
C1114 H1108 0.949 . S
C1114 C1118 1.368 . S
C1115 C1096 1.429 1_545 S
C1115 C1109 1.429 . S
C1115 C1116 1.523 . S
C1116 C1097 1.368 . S
C1116 C1110 1.368 1_545 S
C1116 C1115 1.523 . S
C1117 C1101 1.429 . S
C1117 C1113 1.429 1_545 S
C1117 C1118 1.523 . S
C1118 C1102 1.368 1_545 S
C1118 C1114 1.368 . S
C1118 C1117 1.523 . S
H1119 C1094 0.950 . S
H1120 C1096 0.950 . S
H1121 C1097 0.949 . S
H1122 C1099 0.950 . S
H1123 C1101 0.950 . S
C1124 C1125 1.349 . S
C1124 C1126 1.327 . S
C1124 H1149 0.950 . S
C1125 C1124 1.349 . S
C1125 C1141 1.349 1_556 S
C1126 C1124 1.327 . S
C1126 C1145 1.429 . S
C1126 H1150 0.950 . S
C1127 C1144 1.574 . S
C1127 C1146 1.368 1_554 S
C1127 H1151 0.949 . S
H1128 C1132 0.949 . S
C1129 C1130 1.349 1_554 S
C1129 C1131 1.327 . S
C1129 H1152 0.950 . S
C1130 C1129 1.349 1_556 S
C1130 C1142 1.349 . S
C1131 C1129 1.327 . S
C1131 C1147 1.429 1_554 S
C1131 H1153 0.950 . S
C1132 H1128 0.949 . S
C1132 C1140 1.574 . S
C1132 C1148 1.368 . S
H1133 C1141 0.950 . S
H1134 C1139 0.950 . S
H1135 C1140 0.949 . S
H1136 C1142 0.950 . S
H1137 C1143 0.950 . S
H1138 C1144 0.949 . S
C1139 H1134 0.950 . S
C1139 C1141 1.327 . S
C1139 C1145 1.429 1_554 S
C1140 C1132 1.574 . S
C1140 H1135 0.949 . S
C1140 C1146 1.368 . S
C1141 C1125 1.349 1_554 S
C1141 H1133 0.950 . S
C1141 C1139 1.327 . S
C1142 C1130 1.349 . S
C1142 H1136 0.950 . S
C1142 C1143 1.327 . S
C1143 H1137 0.950 . S
C1143 C1142 1.327 . S
C1143 C1147 1.429 . S
C1144 C1127 1.574 . S
C1144 H1138 0.949 . S
C1144 C1148 1.368 1_554 S
C1145 C1126 1.429 . S
C1145 C1139 1.429 1_556 S
C1145 C1146 1.523 . S
C1146 C1127 1.368 1_556 S
C1146 C1140 1.368 . S
C1146 C1145 1.523 . S
C1147 C1131 1.429 1_556 S
C1147 C1143 1.429 . S
C1147 C1148 1.523 . S
C1148 C1132 1.368 . S
C1148 C1144 1.368 1_556 S
C1148 C1147 1.523 . S
H1149 C1124 0.950 . S
H1150 C1126 0.950 . S
H1151 C1127 0.949 . S
H1152 C1129 0.950 . S
H1153 C1131 0.950 . S
C1154 C1155 1.349 . S
C1154 C1156 1.327 . S
C1154 H1179 0.950 . S
C1155 C1154 1.349 . S
C1155 C1171 1.349 . S
C1156 C1154 1.327 . S
C1156 C1175 1.429 . S
C1156 H1180 0.950 . S
C1157 C1174 1.574 . S
C1157 C1176 1.368 . S
C1157 H1181 0.949 . S
H1158 C1162 0.949 . S
C1159 C1160 1.349 . S
C1159 C1161 1.327 . S
C1159 H1182 0.950 . S
C1160 C1159 1.349 . S
C1160 C1172 1.349 . S
C1161 C1159 1.327 . S
C1161 C1177 1.429 . S
C1161 H1183 0.950 . S
C1162 H1158 0.949 . S
C1162 C1170 1.574 . S
C1162 C1178 1.368 . S
H1163 C1171 0.950 . S
H1164 C1169 0.950 . S
H1165 C1170 0.949 . S
H1166 C1172 0.950 . S
H1167 C1173 0.950 . S
H1168 C1174 0.949 . S
C1169 H1164 0.950 . S
C1169 C1171 1.327 . S
C1169 C1175 1.429 . S
C1170 C1162 1.574 . S
C1170 H1165 0.949 . S
C1170 C1176 1.368 . S
C1171 C1155 1.349 . S
C1171 H1163 0.950 . S
C1171 C1169 1.327 . S
C1172 C1160 1.349 . S
C1172 H1166 0.950 . S
C1172 C1173 1.327 . S
C1173 H1167 0.950 . S
C1173 C1172 1.327 . S
C1173 C1177 1.429 . S
C1174 C1157 1.574 . S
C1174 H1168 0.949 . S
C1174 C1178 1.368 . S
C1175 C1156 1.429 . S
C1175 C1169 1.429 . S
C1175 C1176 1.523 . S
C1176 C1157 1.368 . S
C1176 C1170 1.368 . S
C1176 C1175 1.523 . S
C1177 C1161 1.429 . S
C1177 C1173 1.429 . S
C1177 C1178 1.523 . S
C1178 C1162 1.368 . S
C1178 C1174 1.368 . S
C1178 C1177 1.523 . S
H1179 C1154 0.950 . S
H1180 C1156 0.950 . S
H1181 C1157 0.949 . S
H1182 C1159 0.950 . S
H1183 C1161 0.950 . S
C1184 C1185 1.349 . S
C1184 C1186 1.327 . S
C1184 H1209 0.950 . S
C1185 C1184 1.349 . S
C1185 C1201 1.349 . S
C1186 C1184 1.327 . S
C1186 C1205 1.429 . S
C1186 H1210 0.950 . S
C1187 C1204 1.574 . S
C1187 C1206 1.368 . S
C1187 H1211 0.949 . S
H1188 C1192 0.949 . S
C1189 C1190 1.349 . S
C1189 C1191 1.327 . S
C1189 H1212 0.950 . S
C1190 C1189 1.349 . S
C1190 C1202 1.349 . S
C1191 C1189 1.327 . S
C1191 C1207 1.429 . S
C1191 H1213 0.950 . S
C1192 H1188 0.949 . S
C1192 C1200 1.574 . S
C1192 C1208 1.368 . S
H1193 C1201 0.950 . S
H1194 C1199 0.950 . S
H1195 C1200 0.949 . S
H1196 C1202 0.950 . S
H1197 C1203 0.950 . S
H1198 C1204 0.949 . S
C1199 H1194 0.950 . S
C1199 C1201 1.327 . S
C1199 C1205 1.429 . S
C1200 C1192 1.574 . S
C1200 H1195 0.949 . S
C1200 C1206 1.368 . S
C1201 C1185 1.349 . S
C1201 H1193 0.950 . S
C1201 C1199 1.327 . S
C1202 C1190 1.349 . S
C1202 H1196 0.950 . S
C1202 C1203 1.327 . S
C1203 H1197 0.950 . S
C1203 C1202 1.327 . S
C1203 C1207 1.429 . S
C1204 C1187 1.574 . S
C1204 H1198 0.949 . S
C1204 C1208 1.368 . S
C1205 C1186 1.429 . S
C1205 C1199 1.429 . S
C1205 C1206 1.523 . S
C1206 C1187 1.368 . S
C1206 C1200 1.368 . S
C1206 C1205 1.523 . S
C1207 C1191 1.429 . S
C1207 C1203 1.429 . S
C1207 C1208 1.523 . S
C1208 C1192 1.368 . S
C1208 C1204 1.368 . S
C1208 C1207 1.523 . S
H1209 C1184 0.950 . S
H1210 C1186 0.950 . S
H1211 C1187 0.949 . S
H1212 C1189 0.950 . S
H1213 C1191 0.950 . S
C1214 C1215 1.349 . S
C1214 C1216 1.327 . S
C1214 H1239 0.950 . S
C1215 C1214 1.349 . S
C1215 C1231 1.349 . S
C1216 C1214 1.327 . S
C1216 C1235 1.429 . S
C1216 H1240 0.950 . S
C1217 C1234 1.574 . S
C1217 C1236 1.368 . S
C1217 H1241 0.949 . S
H1218 C1222 0.949 . S
C1219 C1220 1.349 . S
C1219 C1221 1.327 . S
C1219 H1242 0.950 . S
C1220 C1219 1.349 . S
C1220 C1232 1.349 . S
C1221 C1219 1.327 . S
C1221 C1237 1.429 . S
C1221 H1243 0.950 . S
C1222 H1218 0.949 . S
C1222 C1230 1.574 . S
C1222 C1238 1.368 . S
H1223 C1231 0.950 . S
H1224 C1229 0.950 . S
H1225 C1230 0.949 . S
H1226 C1232 0.950 . S
H1227 C1233 0.950 . S
H1228 C1234 0.949 . S
C1229 H1224 0.950 . S
C1229 C1231 1.327 . S
C1229 C1235 1.429 . S
C1230 C1222 1.574 . S
C1230 H1225 0.949 . S
C1230 C1236 1.368 . S
C1231 C1215 1.349 . S
C1231 H1223 0.950 . S
C1231 C1229 1.327 . S
C1232 C1220 1.349 . S
C1232 H1226 0.950 . S
C1232 C1233 1.327 . S
C1233 H1227 0.950 . S
C1233 C1232 1.327 . S
C1233 C1237 1.429 . S
C1234 C1217 1.574 . S
C1234 H1228 0.949 . S
C1234 C1238 1.368 . S
C1235 C1216 1.429 . S
C1235 C1229 1.429 . S
C1235 C1236 1.523 . S
C1236 C1217 1.368 . S
C1236 C1230 1.368 . S
C1236 C1235 1.523 . S
C1237 C1221 1.429 . S
C1237 C1233 1.429 . S
C1237 C1238 1.523 . S
C1238 C1222 1.368 . S
C1238 C1234 1.368 . S
C1238 C1237 1.523 . S
H1239 C1214 0.950 . S
H1240 C1216 0.950 . S
H1241 C1217 0.949 . S
H1242 C1219 0.950 . S
H1243 C1221 0.950 . S
C1244 C1245 1.349 . S
C1244 C1246 1.327 . S
C1244 H1269 0.950 . S
C1245 C1244 1.349 . S
C1245 C1261 1.349 . S
C1246 C1244 1.327 . S
C1246 C1265 1.429 . S
C1246 H1270 0.950 . S
C1247 C1264 1.574 . S
C1247 C1266 1.368 . S
C1247 H1271 0.949 . S
H1248 C1252 0.949 . S
C1249 C1250 1.349 . S
C1249 C1251 1.327 . S
C1249 H1272 0.950 . S
C1250 C1249 1.349 . S
C1250 C1262 1.349 . S
C1251 C1249 1.327 . S
C1251 C1267 1.429 . S
C1251 H1273 0.950 . S
C1252 H1248 0.949 . S
C1252 C1260 1.574 . S
C1252 C1268 1.368 . S
H1253 C1261 0.950 . S
H1254 C1259 0.950 . S
H1255 C1260 0.949 . S
H1256 C1262 0.950 . S
H1257 C1263 0.950 . S
H1258 C1264 0.949 . S
C1259 H1254 0.950 . S
C1259 C1261 1.327 . S
C1259 C1265 1.429 . S
C1260 C1252 1.574 . S
C1260 H1255 0.949 . S
C1260 C1266 1.368 . S
C1261 C1245 1.349 . S
C1261 H1253 0.950 . S
C1261 C1259 1.327 . S
C1262 C1250 1.349 . S
C1262 H1256 0.950 . S
C1262 C1263 1.327 . S
C1263 H1257 0.950 . S
C1263 C1262 1.327 . S
C1263 C1267 1.429 . S
C1264 C1247 1.574 . S
C1264 H1258 0.949 . S
C1264 C1268 1.368 . S
C1265 C1246 1.429 . S
C1265 C1259 1.429 . S
C1265 C1266 1.523 . S
C1266 C1247 1.368 . S
C1266 C1260 1.368 . S
C1266 C1265 1.523 . S
C1267 C1251 1.429 . S
C1267 C1263 1.429 . S
C1267 C1268 1.523 . S
C1268 C1252 1.368 . S
C1268 C1264 1.368 . S
C1268 C1267 1.523 . S
H1269 C1244 0.950 . S
H1270 C1246 0.950 . S
H1271 C1247 0.949 . S
H1272 C1249 0.950 . S
H1273 C1251 0.950 . S
C1274 C1275 1.349 . S
C1274 C1276 1.327 . S
C1274 H1299 0.950 . S
C1275 C1274 1.349 . S
C1275 C1291 1.349 . S
C1276 C1274 1.327 . S
C1276 C1295 1.429 . S
C1276 H1300 0.950 . S
C1277 C1294 1.574 . S
C1277 C1296 1.368 . S
C1277 H1301 0.949 . S
H1278 C1282 0.949 . S
C1279 C1280 1.349 . S
C1279 C1281 1.327 . S
C1279 H1302 0.950 . S
C1280 C1279 1.349 . S
C1280 C1292 1.349 . S
C1281 C1279 1.327 . S
C1281 C1297 1.429 . S
C1281 H1303 0.950 . S
C1282 H1278 0.949 . S
C1282 C1290 1.574 . S
C1282 C1298 1.368 . S
H1283 C1291 0.950 . S
H1284 C1289 0.950 . S
H1285 C1290 0.949 . S
H1286 C1292 0.950 . S
H1287 C1293 0.950 . S
H1288 C1294 0.949 . S
C1289 H1284 0.950 . S
C1289 C1291 1.327 . S
C1289 C1295 1.429 . S
C1290 C1282 1.574 . S
C1290 H1285 0.949 . S
C1290 C1296 1.368 . S
C1291 C1275 1.349 . S
C1291 H1283 0.950 . S
C1291 C1289 1.327 . S
C1292 C1280 1.349 . S
C1292 H1286 0.950 . S
C1292 C1293 1.327 . S
C1293 H1287 0.950 . S
C1293 C1292 1.327 . S
C1293 C1297 1.429 . S
C1294 C1277 1.574 . S
C1294 H1288 0.949 . S
C1294 C1298 1.368 . S
C1295 C1276 1.429 . S
C1295 C1289 1.429 . S
C1295 C1296 1.523 . S
C1296 C1277 1.368 . S
C1296 C1290 1.368 . S
C1296 C1295 1.523 . S
C1297 C1281 1.429 . S
C1297 C1293 1.429 . S
C1297 C1298 1.523 . S
C1298 C1282 1.368 . S
C1298 C1294 1.368 . S
C1298 C1297 1.523 . S
H1299 C1274 0.950 . S
H1300 C1276 0.950 . S
H1301 C1277 0.949 . S
H1302 C1279 0.950 . S
H1303 C1281 0.950 . S
C1304 C1305 1.349 . S
C1304 C1306 1.327 . S
C1304 H1329 0.950 . S
C1305 C1304 1.349 . S
C1305 C1321 1.349 . S
C1306 C1304 1.327 . S
C1306 C1325 1.429 . S
C1306 H1330 0.950 . S
C1307 C1324 1.574 . S
C1307 C1326 1.368 . S
C1307 H1331 0.949 . S
H1308 C1312 0.949 . S
C1309 C1310 1.349 . S
C1309 C1311 1.327 . S
C1309 H1332 0.950 . S
C1310 C1309 1.349 . S
C1310 C1322 1.349 . S
C1311 C1309 1.327 . S
C1311 C1327 1.429 . S
C1311 H1333 0.950 . S
C1312 H1308 0.949 . S
C1312 C1320 1.574 . S
C1312 C1328 1.368 . S
H1313 C1321 0.950 . S
H1314 C1319 0.950 . S
H1315 C1320 0.949 . S
H1316 C1322 0.950 . S
H1317 C1323 0.950 . S
H1318 C1324 0.949 . S
C1319 H1314 0.950 . S
C1319 C1321 1.327 . S
C1319 C1325 1.429 . S
C1320 C1312 1.574 . S
C1320 H1315 0.949 . S
C1320 C1326 1.368 . S
C1321 C1305 1.349 . S
C1321 H1313 0.950 . S
C1321 C1319 1.327 . S
C1322 C1310 1.349 . S
C1322 H1316 0.950 . S
C1322 C1323 1.327 . S
C1323 H1317 0.950 . S
C1323 C1322 1.327 . S
C1323 C1327 1.429 . S
C1324 C1307 1.574 . S
C1324 H1318 0.949 . S
C1324 C1328 1.368 . S
C1325 C1306 1.429 . S
C1325 C1319 1.429 . S
C1325 C1326 1.523 . S
C1326 C1307 1.368 . S
C1326 C1320 1.368 . S
C1326 C1325 1.523 . S
C1327 C1311 1.429 . S
C1327 C1323 1.429 . S
C1327 C1328 1.523 . S
C1328 C1312 1.368 . S
C1328 C1324 1.368 . S
C1328 C1327 1.523 . S
H1329 C1304 0.950 . S
H1330 C1306 0.950 . S
H1331 C1307 0.949 . S
H1332 C1309 0.950 . S
H1333 C1311 0.950 . S
C1334 C1335 1.349 . S
C1334 C1336 1.327 . S
C1334 H1359 0.950 . S
C1335 C1334 1.349 . S
C1335 C1351 1.349 . S
C1336 C1334 1.327 . S
C1336 C1355 1.429 . S
C1336 H1360 0.950 . S
C1337 C1354 1.574 . S
C1337 C1356 1.368 . S
C1337 H1361 0.949 . S
H1338 C1342 0.949 . S
C1339 C1340 1.349 . S
C1339 C1341 1.327 . S
C1339 H1362 0.950 . S
C1340 C1339 1.349 . S
C1340 C1352 1.349 . S
C1341 C1339 1.327 . S
C1341 C1357 1.429 . S
C1341 H1363 0.950 . S
C1342 H1338 0.949 . S
C1342 C1350 1.574 . S
C1342 C1358 1.368 . S
H1343 C1351 0.950 . S
H1344 C1349 0.950 . S
H1345 C1350 0.949 . S
H1346 C1352 0.950 . S
H1347 C1353 0.950 . S
H1348 C1354 0.949 . S
C1349 H1344 0.950 . S
C1349 C1351 1.327 . S
C1349 C1355 1.429 . S
C1350 C1342 1.574 . S
C1350 H1345 0.949 . S
C1350 C1356 1.368 . S
C1351 C1335 1.349 . S
C1351 H1343 0.950 . S
C1351 C1349 1.327 . S
C1352 C1340 1.349 . S
C1352 H1346 0.950 . S
C1352 C1353 1.327 . S
C1353 H1347 0.950 . S
C1353 C1352 1.327 . S
C1353 C1357 1.429 . S
C1354 C1337 1.574 . S
C1354 H1348 0.949 . S
C1354 C1358 1.368 . S
C1355 C1336 1.429 . S
C1355 C1349 1.429 . S
C1355 C1356 1.523 . S
C1356 C1337 1.368 . S
C1356 C1350 1.368 . S
C1356 C1355 1.523 . S
C1357 C1341 1.429 . S
C1357 C1353 1.429 . S
C1357 C1358 1.523 . S
C1358 C1342 1.368 . S
C1358 C1354 1.368 . S
C1358 C1357 1.523 . S
H1359 C1334 0.950 . S
H1360 C1336 0.950 . S
H1361 C1337 0.949 . S
H1362 C1339 0.950 . S
H1363 C1341 0.950 . S
C1364 C1365 1.349 . S
C1364 C1366 1.327 . S
C1364 H1389 0.950 . S
C1365 C1364 1.349 . S
C1365 C1381 1.349 . S
C1366 C1364 1.327 . S
C1366 C1385 1.429 . S
C1366 H1390 0.950 . S
C1367 C1384 1.574 . S
C1367 C1386 1.368 . S
C1367 H1391 0.949 . S
H1368 C1372 0.949 . S
C1369 C1370 1.349 . S
C1369 C1371 1.327 . S
C1369 H1392 0.950 . S
C1370 C1369 1.349 . S
C1370 C1382 1.349 . S
C1371 C1369 1.327 . S
C1371 C1387 1.429 . S
C1371 H1393 0.950 . S
C1372 H1368 0.949 . S
C1372 C1380 1.574 . S
C1372 C1388 1.368 . S
H1373 C1381 0.950 . S
H1374 C1379 0.950 . S
H1375 C1380 0.949 . S
H1376 C1382 0.950 . S
H1377 C1383 0.950 . S
H1378 C1384 0.949 . S
C1379 H1374 0.950 . S
C1379 C1381 1.327 . S
C1379 C1385 1.429 . S
C1380 C1372 1.574 . S
C1380 H1375 0.949 . S
C1380 C1386 1.368 . S
C1381 C1365 1.349 . S
C1381 H1373 0.950 . S
C1381 C1379 1.327 . S
C1382 C1370 1.349 . S
C1382 H1376 0.950 . S
C1382 C1383 1.327 . S
C1383 H1377 0.950 . S
C1383 C1382 1.327 . S
C1383 C1387 1.429 . S
C1384 C1367 1.574 . S
C1384 H1378 0.949 . S
C1384 C1388 1.368 . S
C1385 C1366 1.429 . S
C1385 C1379 1.429 . S
C1385 C1386 1.523 . S
C1386 C1367 1.368 . S
C1386 C1380 1.368 . S
C1386 C1385 1.523 . S
C1387 C1371 1.429 . S
C1387 C1383 1.429 . S
C1387 C1388 1.523 . S
C1388 C1372 1.368 . S
C1388 C1384 1.368 . S
C1388 C1387 1.523 . S
H1389 C1364 0.950 . S
H1390 C1366 0.950 . S
H1391 C1367 0.949 . S
H1392 C1369 0.950 . S
H1393 C1371 0.950 . S
C1394 C1395 1.349 . S
C1394 C1396 1.327 . S
C1394 H1419 0.950 . S
C1395 C1394 1.349 . S
C1395 C1411 1.349 . S
C1396 C1394 1.327 . S
C1396 C1415 1.429 . S
C1396 H1420 0.950 . S
C1397 C1414 1.574 . S
C1397 C1416 1.368 . S
C1397 H1421 0.949 . S
H1398 C1402 0.949 . S
C1399 C1400 1.349 . S
C1399 C1401 1.327 . S
C1399 H1422 0.950 . S
C1400 C1399 1.349 . S
C1400 C1412 1.349 . S
C1401 C1399 1.327 . S
C1401 C1417 1.429 . S
C1401 H1423 0.950 . S
C1402 H1398 0.949 . S
C1402 C1410 1.574 . S
C1402 C1418 1.368 . S
H1403 C1411 0.950 . S
H1404 C1409 0.950 . S
H1405 C1410 0.949 . S
H1406 C1412 0.950 . S
H1407 C1413 0.950 . S
H1408 C1414 0.949 . S
C1409 H1404 0.950 . S
C1409 C1411 1.327 . S
C1409 C1415 1.429 . S
C1410 C1402 1.574 . S
C1410 H1405 0.949 . S
C1410 C1416 1.368 . S
C1411 C1395 1.349 . S
C1411 H1403 0.950 . S
C1411 C1409 1.327 . S
C1412 C1400 1.349 . S
C1412 H1406 0.950 . S
C1412 C1413 1.327 . S
C1413 H1407 0.950 . S
C1413 C1412 1.327 . S
C1413 C1417 1.429 . S
C1414 C1397 1.574 . S
C1414 H1408 0.949 . S
C1414 C1418 1.368 . S
C1415 C1396 1.429 . S
C1415 C1409 1.429 . S
C1415 C1416 1.523 . S
C1416 C1397 1.368 . S
C1416 C1410 1.368 . S
C1416 C1415 1.523 . S
C1417 C1401 1.429 . S
C1417 C1413 1.429 . S
C1417 C1418 1.523 . S
C1418 C1402 1.368 . S
C1418 C1414 1.368 . S
C1418 C1417 1.523 . S
H1419 C1394 0.950 . S
H1420 C1396 0.950 . S
H1421 C1397 0.949 . S
H1422 C1399 0.950 . S
H1423 C1401 0.950 . S
C1424 C1425 1.349 . S
C1424 C1426 1.327 . S
C1424 H1449 0.950 . S
C1425 C1424 1.349 . S
C1425 C1441 1.349 . S
C1426 C1424 1.327 . S
C1426 C1445 1.429 . S
C1426 H1450 0.950 . S
C1427 C1444 1.574 . S
C1427 C1446 1.368 . S
C1427 H1451 0.949 . S
H1428 C1432 0.949 . S
C1429 C1430 1.349 . S
C1429 C1431 1.327 . S
C1429 H1452 0.950 . S
C1430 C1429 1.349 . S
C1430 C1442 1.349 . S
C1431 C1429 1.327 . S
C1431 C1447 1.429 . S
C1431 H1453 0.950 . S
C1432 H1428 0.949 . S
C1432 C1440 1.574 . S
C1432 C1448 1.368 . S
H1433 C1441 0.950 . S
H1434 C1439 0.950 . S
H1435 C1440 0.949 . S
H1436 C1442 0.950 . S
H1437 C1443 0.950 . S
H1438 C1444 0.949 . S
C1439 H1434 0.950 . S
C1439 C1441 1.327 . S
C1439 C1445 1.429 . S
C1440 C1432 1.574 . S
C1440 H1435 0.949 . S
C1440 C1446 1.368 . S
C1441 C1425 1.349 . S
C1441 H1433 0.950 . S
C1441 C1439 1.327 . S
C1442 C1430 1.349 . S
C1442 H1436 0.950 . S
C1442 C1443 1.327 . S
C1443 H1437 0.950 . S
C1443 C1442 1.327 . S
C1443 C1447 1.429 . S
C1444 C1427 1.574 . S
C1444 H1438 0.949 . S
C1444 C1448 1.368 . S
C1445 C1426 1.429 . S
C1445 C1439 1.429 . S
C1445 C1446 1.523 . S
C1446 C1427 1.368 . S
C1446 C1440 1.368 . S
C1446 C1445 1.523 . S
C1447 C1431 1.429 . S
C1447 C1443 1.429 . S
C1447 C1448 1.523 . S
C1448 C1432 1.368 . S
C1448 C1444 1.368 . S
C1448 C1447 1.523 . S
H1449 C1424 0.950 . S
H1450 C1426 0.950 . S
H1451 C1427 0.949 . S
H1452 C1429 0.950 . S
H1453 C1431 0.950 . S
C1454 C1455 1.349 . S
C1454 C1456 1.327 . S
C1454 H1479 0.950 . S
C1455 C1454 1.349 . S
C1455 C1471 1.349 . S
C1456 C1454 1.327 . S
C1456 C1475 1.429 . S
C1456 H1480 0.950 . S
C1457 C1474 1.574 . S
C1457 C1476 1.368 . S
C1457 H1481 0.949 . S
H1458 C1462 0.949 . S
C1459 C1460 1.349 . S
C1459 C1461 1.327 . S
C1459 H1482 0.950 . S
C1460 C1459 1.349 . S
C1460 C1472 1.349 . S
C1461 C1459 1.327 . S
C1461 C1477 1.429 . S
C1461 H1483 0.950 . S
C1462 H1458 0.949 . S
C1462 C1470 1.574 . S
C1462 C1478 1.368 . S
H1463 C1471 0.950 . S
H1464 C1469 0.950 . S
H1465 C1470 0.949 . S
H1466 C1472 0.950 . S
H1467 C1473 0.950 . S
H1468 C1474 0.949 . S
C1469 H1464 0.950 . S
C1469 C1471 1.327 . S
C1469 C1475 1.429 . S
C1470 C1462 1.574 . S
C1470 H1465 0.949 . S
C1470 C1476 1.368 . S
C1471 C1455 1.349 . S
C1471 H1463 0.950 . S
C1471 C1469 1.327 . S
C1472 C1460 1.349 . S
C1472 H1466 0.950 . S
C1472 C1473 1.327 . S
C1473 H1467 0.950 . S
C1473 C1472 1.327 . S
C1473 C1477 1.429 . S
C1474 C1457 1.574 . S
C1474 H1468 0.949 . S
C1474 C1478 1.368 . S
C1475 C1456 1.429 . S
C1475 C1469 1.429 . S
C1475 C1476 1.523 . S
C1476 C1457 1.368 . S
C1476 C1470 1.368 . S
C1476 C1475 1.523 . S
C1477 C1461 1.429 . S
C1477 C1473 1.429 . S
C1477 C1478 1.523 . S
C1478 C1462 1.368 . S
C1478 C1474 1.368 . S
C1478 C1477 1.523 . S
H1479 C1454 0.950 . S
H1480 C1456 0.950 . S
H1481 C1457 0.949 . S
H1482 C1459 0.950 . S
H1483 C1461 0.950 . S
C1484 C1485 1.349 . S
C1484 C1486 1.327 . S
C1484 H1509 0.950 . S
C1485 C1484 1.349 . S
C1485 C1501 1.349 . S
C1486 C1484 1.327 . S
C1486 C1505 1.429 . S
C1486 H1510 0.950 . S
C1487 C1504 1.574 . S
C1487 C1506 1.368 . S
C1487 H1511 0.949 . S
H1488 C1492 0.949 . S
C1489 C1490 1.349 . S
C1489 C1491 1.327 . S
C1489 H1512 0.950 . S
C1490 C1489 1.349 . S
C1490 C1502 1.349 . S
C1491 C1489 1.327 . S
C1491 C1507 1.429 . S
C1491 H1513 0.950 . S
C1492 H1488 0.949 . S
C1492 C1500 1.574 . S
C1492 C1508 1.368 . S
H1493 C1501 0.950 . S
H1494 C1499 0.950 . S
H1495 C1500 0.949 . S
H1496 C1502 0.950 . S
H1497 C1503 0.950 . S
H1498 C1504 0.949 . S
C1499 H1494 0.950 . S
C1499 C1501 1.327 . S
C1499 C1505 1.429 . S
C1500 C1492 1.574 . S
C1500 H1495 0.949 . S
C1500 C1506 1.368 . S
C1501 C1485 1.349 . S
C1501 H1493 0.950 . S
C1501 C1499 1.327 . S
C1502 C1490 1.349 . S
C1502 H1496 0.950 . S
C1502 C1503 1.327 . S
C1503 H1497 0.950 . S
C1503 C1502 1.327 . S
C1503 C1507 1.429 . S
C1504 C1487 1.574 . S
C1504 H1498 0.949 . S
C1504 C1508 1.368 . S
C1505 C1486 1.429 . S
C1505 C1499 1.429 . S
C1505 C1506 1.523 . S
C1506 C1487 1.368 . S
C1506 C1500 1.368 . S
C1506 C1505 1.523 . S
C1507 C1491 1.429 . S
C1507 C1503 1.429 . S
C1507 C1508 1.523 . S
C1508 C1492 1.368 . S
C1508 C1504 1.368 . S
C1508 C1507 1.523 . S
H1509 C1484 0.950 . S
H1510 C1486 0.950 . S
H1511 C1487 0.949 . S
H1512 C1489 0.950 . S
H1513 C1491 0.950 . S
C1514 C1515 1.349 . S
C1514 C1516 1.327 . S
C1514 H1539 0.950 . S
C1515 C1514 1.349 . S
C1515 C1531 1.349 . S
C1516 C1514 1.327 . S
C1516 C1535 1.429 . S
C1516 H1540 0.950 . S
C1517 C1534 1.574 . S
C1517 C1536 1.368 . S
C1517 H1541 0.949 . S
H1518 C1522 0.949 . S
C1519 C1520 1.349 . S
C1519 C1521 1.327 . S
C1519 H1542 0.950 . S
C1520 C1519 1.349 . S
C1520 C1532 1.349 . S
C1521 C1519 1.327 . S
C1521 C1537 1.429 . S
C1521 H1543 0.950 . S
C1522 H1518 0.949 . S
C1522 C1530 1.574 . S
C1522 C1538 1.368 . S
H1523 C1531 0.950 . S
H1524 C1529 0.950 . S
H1525 C1530 0.949 . S
H1526 C1532 0.950 . S
H1527 C1533 0.950 . S
H1528 C1534 0.949 . S
C1529 H1524 0.950 . S
C1529 C1531 1.327 . S
C1529 C1535 1.429 . S
C1530 C1522 1.574 . S
C1530 H1525 0.949 . S
C1530 C1536 1.368 . S
C1531 C1515 1.349 . S
C1531 H1523 0.950 . S
C1531 C1529 1.327 . S
C1532 C1520 1.349 . S
C1532 H1526 0.950 . S
C1532 C1533 1.327 . S
C1533 H1527 0.950 . S
C1533 C1532 1.327 . S
C1533 C1537 1.429 . S
C1534 C1517 1.574 . S
C1534 H1528 0.949 . S
C1534 C1538 1.368 . S
C1535 C1516 1.429 . S
C1535 C1529 1.429 . S
C1535 C1536 1.523 . S
C1536 C1517 1.368 . S
C1536 C1530 1.368 . S
C1536 C1535 1.523 . S
C1537 C1521 1.429 . S
C1537 C1533 1.429 . S
C1537 C1538 1.523 . S
C1538 C1522 1.368 . S
C1538 C1534 1.368 . S
C1538 C1537 1.523 . S
H1539 C1514 0.950 . S
H1540 C1516 0.950 . S
H1541 C1517 0.949 . S
H1542 C1519 0.950 . S
H1543 C1521 0.950 . S
C1544 C1545 1.349 . S
C1544 C1546 1.327 . S
C1544 H1569 0.950 . S
C1545 C1544 1.349 . S
C1545 C1561 1.349 . S
C1546 C1544 1.327 . S
C1546 C1565 1.429 . S
C1546 H1570 0.950 . S
C1547 C1564 1.574 . S
C1547 C1566 1.368 . S
C1547 H1571 0.949 . S
H1548 C1552 0.949 . S
C1549 C1550 1.349 . S
C1549 C1551 1.327 . S
C1549 H1572 0.950 . S
C1550 C1549 1.349 . S
C1550 C1562 1.349 . S
C1551 C1549 1.327 . S
C1551 C1567 1.429 . S
C1551 H1573 0.950 . S
C1552 H1548 0.949 . S
C1552 C1560 1.574 . S
C1552 C1568 1.368 . S
H1553 C1561 0.950 . S
H1554 C1559 0.950 . S
H1555 C1560 0.949 . S
H1556 C1562 0.950 . S
H1557 C1563 0.950 . S
H1558 C1564 0.949 . S
C1559 H1554 0.950 . S
C1559 C1561 1.327 . S
C1559 C1565 1.429 . S
C1560 C1552 1.574 . S
C1560 H1555 0.949 . S
C1560 C1566 1.368 . S
C1561 C1545 1.349 . S
C1561 H1553 0.950 . S
C1561 C1559 1.327 . S
C1562 C1550 1.349 . S
C1562 H1556 0.950 . S
C1562 C1563 1.327 . S
C1563 H1557 0.950 . S
C1563 C1562 1.327 . S
C1563 C1567 1.429 . S
C1564 C1547 1.574 . S
C1564 H1558 0.949 . S
C1564 C1568 1.368 . S
C1565 C1546 1.429 . S
C1565 C1559 1.429 . S
C1565 C1566 1.523 . S
C1566 C1547 1.368 . S
C1566 C1560 1.368 . S
C1566 C1565 1.523 . S
C1567 C1551 1.429 . S
C1567 C1563 1.429 . S
C1567 C1568 1.523 . S
C1568 C1552 1.368 . S
C1568 C1564 1.368 . S
C1568 C1567 1.523 . S
H1569 C1544 0.950 . S
H1570 C1546 0.950 . S
H1571 C1547 0.949 . S
H1572 C1549 0.950 . S
H1573 C1551 0.950 . S
C1574 C1575 1.349 . S
C1574 C1576 1.327 . S
C1574 H1599 0.950 . S
C1575 C1574 1.349 . S
C1575 C1591 1.349 . S
C1576 C1574 1.327 . S
C1576 C1595 1.429 . S
C1576 H1600 0.950 . S
C1577 C1594 1.574 . S
C1577 C1596 1.368 . S
C1577 H1601 0.949 . S
H1578 C1582 0.949 . S
C1579 C1580 1.349 . S
C1579 C1581 1.327 . S
C1579 H1602 0.950 . S
C1580 C1579 1.349 . S
C1580 C1592 1.349 . S
C1581 C1579 1.327 . S
C1581 C1597 1.429 . S
C1581 H1603 0.950 . S
C1582 H1578 0.949 . S
C1582 C1590 1.574 . S
C1582 C1598 1.368 . S
H1583 C1591 0.950 . S
H1584 C1589 0.950 . S
H1585 C1590 0.949 . S
H1586 C1592 0.950 . S
H1587 C1593 0.950 . S
H1588 C1594 0.949 . S
C1589 H1584 0.950 . S
C1589 C1591 1.327 . S
C1589 C1595 1.429 . S
C1590 C1582 1.574 . S
C1590 H1585 0.949 . S
C1590 C1596 1.368 . S
C1591 C1575 1.349 . S
C1591 H1583 0.950 . S
C1591 C1589 1.327 . S
C1592 C1580 1.349 . S
C1592 H1586 0.950 . S
C1592 C1593 1.327 . S
C1593 H1587 0.950 . S
C1593 C1592 1.327 . S
C1593 C1597 1.429 . S
C1594 C1577 1.574 . S
C1594 H1588 0.949 . S
C1594 C1598 1.368 . S
C1595 C1576 1.429 . S
C1595 C1589 1.429 . S
C1595 C1596 1.523 . S
C1596 C1577 1.368 . S
C1596 C1590 1.368 . S
C1596 C1595 1.523 . S
C1597 C1581 1.429 . S
C1597 C1593 1.429 . S
C1597 C1598 1.523 . S
C1598 C1582 1.368 . S
C1598 C1594 1.368 . S
C1598 C1597 1.523 . S
H1599 C1574 0.950 . S
H1600 C1576 0.950 . S
H1601 C1577 0.949 . S
H1602 C1579 0.950 . S
H1603 C1581 0.950 . S
C1604 C1605 1.349 . S
C1604 C1606 1.327 . S
C1604 H1629 0.950 . S
C1605 C1604 1.349 . S
C1605 C1621 1.349 . S
C1606 C1604 1.327 . S
C1606 C1625 1.429 . S
C1606 H1630 0.950 . S
C1607 C1624 1.574 . S
C1607 C1626 1.368 . S
C1607 H1631 0.949 . S
H1608 C1612 0.949 . S
C1609 C1610 1.349 . S
C1609 C1611 1.327 . S
C1609 H1632 0.950 . S
C1610 C1609 1.349 . S
C1610 C1622 1.349 . S
C1611 C1609 1.327 . S
C1611 C1627 1.429 . S
C1611 H1633 0.950 . S
C1612 H1608 0.949 . S
C1612 C1620 1.574 . S
C1612 C1628 1.368 . S
H1613 C1621 0.950 . S
H1614 C1619 0.950 . S
H1615 C1620 0.949 . S
H1616 C1622 0.950 . S
H1617 C1623 0.950 . S
H1618 C1624 0.949 . S
C1619 H1614 0.950 . S
C1619 C1621 1.327 . S
C1619 C1625 1.429 . S
C1620 C1612 1.574 . S
C1620 H1615 0.949 . S
C1620 C1626 1.368 . S
C1621 C1605 1.349 . S
C1621 H1613 0.950 . S
C1621 C1619 1.327 . S
C1622 C1610 1.349 . S
C1622 H1616 0.950 . S
C1622 C1623 1.327 . S
C1623 H1617 0.950 . S
C1623 C1622 1.327 . S
C1623 C1627 1.429 . S
C1624 C1607 1.574 . S
C1624 H1618 0.949 . S
C1624 C1628 1.368 . S
C1625 C1606 1.429 . S
C1625 C1619 1.429 . S
C1625 C1626 1.523 . S
C1626 C1607 1.368 . S
C1626 C1620 1.368 . S
C1626 C1625 1.523 . S
C1627 C1611 1.429 . S
C1627 C1623 1.429 . S
C1627 C1628 1.523 . S
C1628 C1612 1.368 . S
C1628 C1624 1.368 . S
C1628 C1627 1.523 . S
H1629 C1604 0.950 . S
H1630 C1606 0.950 . S
H1631 C1607 0.949 . S
H1632 C1609 0.950 . S
H1633 C1611 0.950 . S
C1634 C1635 1.349 . S
C1634 C1636 1.327 . S
C1634 H1659 0.950 . S
C1635 C1634 1.349 . S
C1635 C1651 1.349 . S
C1636 C1634 1.327 . S
C1636 C1655 1.429 . S
C1636 H1660 0.950 . S
C1637 C1654 1.574 . S
C1637 C1656 1.368 . S
C1637 H1661 0.949 . S
H1638 C1642 0.949 . S
C1639 C1640 1.349 . S
C1639 C1641 1.327 . S
C1639 H1662 0.950 . S
C1640 C1639 1.349 . S
C1640 C1652 1.349 . S
C1641 C1639 1.327 . S
C1641 C1657 1.429 . S
C1641 H1663 0.950 . S
C1642 H1638 0.949 . S
C1642 C1650 1.574 . S
C1642 C1658 1.368 . S
H1643 C1651 0.950 . S
H1644 C1649 0.950 . S
H1645 C1650 0.949 . S
H1646 C1652 0.950 . S
H1647 C1653 0.950 . S
H1648 C1654 0.949 . S
C1649 H1644 0.950 . S
C1649 C1651 1.327 . S
C1649 C1655 1.429 . S
C1650 C1642 1.574 . S
C1650 H1645 0.949 . S
C1650 C1656 1.368 . S
C1651 C1635 1.349 . S
C1651 H1643 0.950 . S
C1651 C1649 1.327 . S
C1652 C1640 1.349 . S
C1652 H1646 0.950 . S
C1652 C1653 1.327 . S
C1653 H1647 0.950 . S
C1653 C1652 1.327 . S
C1653 C1657 1.429 . S
C1654 C1637 1.574 . S
C1654 H1648 0.949 . S
C1654 C1658 1.368 . S
C1655 C1636 1.429 . S
C1655 C1649 1.429 . S
C1655 C1656 1.523 . S
C1656 C1637 1.368 . S
C1656 C1650 1.368 . S
C1656 C1655 1.523 . S
C1657 C1641 1.429 . S
C1657 C1653 1.429 . S
C1657 C1658 1.523 . S
C1658 C1642 1.368 . S
C1658 C1654 1.368 . S
C1658 C1657 1.523 . S
H1659 C1634 0.950 . S
H1660 C1636 0.950 . S
H1661 C1637 0.949 . S
H1662 C1639 0.950 . S
H1663 C1641 0.950 . S
C1664 C1665 1.349 . S
C1664 C1666 1.327 . S
C1664 H1689 0.950 . S
C1665 C1664 1.349 . S
C1665 C1681 1.349 . S
C1666 C1664 1.327 . S
C1666 C1685 1.429 . S
C1666 H1690 0.950 . S
C1667 C1684 1.574 . S
C1667 C1686 1.368 . S
C1667 H1691 0.949 . S
H1668 C1672 0.949 . S
C1669 C1670 1.349 . S
C1669 C1671 1.327 . S
C1669 H1692 0.950 . S
C1670 C1669 1.349 . S
C1670 C1682 1.349 . S
C1671 C1669 1.327 . S
C1671 C1687 1.429 . S
C1671 H1693 0.950 . S
C1672 H1668 0.949 . S
C1672 C1680 1.574 . S
C1672 C1688 1.368 . S
H1673 C1681 0.950 . S
H1674 C1679 0.950 . S
H1675 C1680 0.949 . S
H1676 C1682 0.950 . S
H1677 C1683 0.950 . S
H1678 C1684 0.949 . S
C1679 H1674 0.950 . S
C1679 C1681 1.327 . S
C1679 C1685 1.429 . S
C1680 C1672 1.574 . S
C1680 H1675 0.949 . S
C1680 C1686 1.368 . S
C1681 C1665 1.349 . S
C1681 H1673 0.950 . S
C1681 C1679 1.327 . S
C1682 C1670 1.349 . S
C1682 H1676 0.950 . S
C1682 C1683 1.327 . S
C1683 H1677 0.950 . S
C1683 C1682 1.327 . S
C1683 C1687 1.429 . S
C1684 C1667 1.574 . S
C1684 H1678 0.949 . S
C1684 C1688 1.368 . S
C1685 C1666 1.429 . S
C1685 C1679 1.429 . S
C1685 C1686 1.523 . S
C1686 C1667 1.368 . S
C1686 C1680 1.368 . S
C1686 C1685 1.523 . S
C1687 C1671 1.429 . S
C1687 C1683 1.429 . S
C1687 C1688 1.523 . S
C1688 C1672 1.368 . S
C1688 C1684 1.368 . S
C1688 C1687 1.523 . S
H1689 C1664 0.950 . S
H1690 C1666 0.950 . S
H1691 C1667 0.949 . S
H1692 C1669 0.950 . S
H1693 C1671 0.950 . S
C1694 C1695 1.349 . S
C1694 C1696 1.327 . S
C1694 H1719 0.950 . S
C1695 C1694 1.349 . S
C1695 C1711 1.349 . S
C1696 C1694 1.327 . S
C1696 C1715 1.429 . S
C1696 H1720 0.950 . S
C1697 C1714 1.574 . S
C1697 C1716 1.368 . S
C1697 H1721 0.949 . S
H1698 C1702 0.949 . S
C1699 C1700 1.349 . S
C1699 C1701 1.327 . S
C1699 H1722 0.950 . S
C1700 C1699 1.349 . S
C1700 C1712 1.349 . S
C1701 C1699 1.327 . S
C1701 C1717 1.429 . S
C1701 H1723 0.950 . S
C1702 H1698 0.949 . S
C1702 C1710 1.574 . S
C1702 C1718 1.368 . S
H1703 C1711 0.950 . S
H1704 C1709 0.950 . S
H1705 C1710 0.949 . S
H1706 C1712 0.950 . S
H1707 C1713 0.950 . S
H1708 C1714 0.949 . S
C1709 H1704 0.950 . S
C1709 C1711 1.327 . S
C1709 C1715 1.429 . S
C1710 C1702 1.574 . S
C1710 H1705 0.949 . S
C1710 C1716 1.368 . S
C1711 C1695 1.349 . S
C1711 H1703 0.950 . S
C1711 C1709 1.327 . S
C1712 C1700 1.349 . S
C1712 H1706 0.950 . S
C1712 C1713 1.327 . S
C1713 H1707 0.950 . S
C1713 C1712 1.327 . S
C1713 C1717 1.429 . S
C1714 C1697 1.574 . S
C1714 H1708 0.949 . S
C1714 C1718 1.368 . S
C1715 C1696 1.429 . S
C1715 C1709 1.429 . S
C1715 C1716 1.523 . S
C1716 C1697 1.368 . S
C1716 C1710 1.368 . S
C1716 C1715 1.523 . S
C1717 C1701 1.429 . S
C1717 C1713 1.429 . S
C1717 C1718 1.523 . S
C1718 C1702 1.368 . S
C1718 C1714 1.368 . S
C1718 C1717 1.523 . S
H1719 C1694 0.950 . S
H1720 C1696 0.950 . S
H1721 C1697 0.949 . S
H1722 C1699 0.950 . S
H1723 C1701 0.950 . S
C1724 C1725 1.349 . S
C1724 C1726 1.327 . S
C1724 H1749 0.950 . S
C1725 C1724 1.349 . S
C1725 C1741 1.349 . S
C1726 C1724 1.327 . S
C1726 C1745 1.429 . S
C1726 H1750 0.950 . S
C1727 C1744 1.574 . S
C1727 C1746 1.368 . S
C1727 H1751 0.949 . S
H1728 C1732 0.949 . S
C1729 C1730 1.349 . S
C1729 C1731 1.327 . S
C1729 H1752 0.950 . S
C1730 C1729 1.349 . S
C1730 C1742 1.349 . S
C1731 C1729 1.327 . S
C1731 C1747 1.429 . S
C1731 H1753 0.950 . S
C1732 H1728 0.949 . S
C1732 C1740 1.574 . S
C1732 C1748 1.368 . S
H1733 C1741 0.950 . S
H1734 C1739 0.950 . S
H1735 C1740 0.949 . S
H1736 C1742 0.950 . S
H1737 C1743 0.950 . S
H1738 C1744 0.949 . S
C1739 H1734 0.950 . S
C1739 C1741 1.327 . S
C1739 C1745 1.429 . S
C1740 C1732 1.574 . S
C1740 H1735 0.949 . S
C1740 C1746 1.368 . S
C1741 C1725 1.349 . S
C1741 H1733 0.950 . S
C1741 C1739 1.327 . S
C1742 C1730 1.349 . S
C1742 H1736 0.950 . S
C1742 C1743 1.327 . S
C1743 H1737 0.950 . S
C1743 C1742 1.327 . S
C1743 C1747 1.429 . S
C1744 C1727 1.574 . S
C1744 H1738 0.949 . S
C1744 C1748 1.368 . S
C1745 C1726 1.429 . S
C1745 C1739 1.429 . S
C1745 C1746 1.523 . S
C1746 C1727 1.368 . S
C1746 C1740 1.368 . S
C1746 C1745 1.523 . S
C1747 C1731 1.429 . S
C1747 C1743 1.429 . S
C1747 C1748 1.523 . S
C1748 C1732 1.368 . S
C1748 C1744 1.368 . S
C1748 C1747 1.523 . S
H1749 C1724 0.950 . S
H1750 C1726 0.950 . S
H1751 C1727 0.949 . S
H1752 C1729 0.950 . S
H1753 C1731 0.950 . S
C1754 C1755 1.349 . S
C1754 C1756 1.327 . S
C1754 H1779 0.950 . S
C1755 C1754 1.349 . S
C1755 C1771 1.349 . S
C1756 C1754 1.327 . S
C1756 C1775 1.429 . S
C1756 H1780 0.950 . S
C1757 C1774 1.574 . S
C1757 C1776 1.368 . S
C1757 H1781 0.949 . S
H1758 C1762 0.949 . S
C1759 C1760 1.349 . S
C1759 C1761 1.327 . S
C1759 H1782 0.950 . S
C1760 C1759 1.349 . S
C1760 C1772 1.349 . S
C1761 C1759 1.327 . S
C1761 C1777 1.429 . S
C1761 H1783 0.950 . S
C1762 H1758 0.949 . S
C1762 C1770 1.574 . S
C1762 C1778 1.368 . S
H1763 C1771 0.950 . S
H1764 C1769 0.950 . S
H1765 C1770 0.949 . S
H1766 C1772 0.950 . S
H1767 C1773 0.950 . S
H1768 C1774 0.949 . S
C1769 H1764 0.950 . S
C1769 C1771 1.327 . S
C1769 C1775 1.429 . S
C1770 C1762 1.574 . S
C1770 H1765 0.949 . S
C1770 C1776 1.368 . S
C1771 C1755 1.349 . S
C1771 H1763 0.950 . S
C1771 C1769 1.327 . S
C1772 C1760 1.349 . S
C1772 H1766 0.950 . S
C1772 C1773 1.327 . S
C1773 H1767 0.950 . S
C1773 C1772 1.327 . S
C1773 C1777 1.429 . S
C1774 C1757 1.574 . S
C1774 H1768 0.949 . S
C1774 C1778 1.368 . S
C1775 C1756 1.429 . S
C1775 C1769 1.429 . S
C1775 C1776 1.523 . S
C1776 C1757 1.368 . S
C1776 C1770 1.368 . S
C1776 C1775 1.523 . S
C1777 C1761 1.429 . S
C1777 C1773 1.429 . S
C1777 C1778 1.523 . S
C1778 C1762 1.368 . S
C1778 C1774 1.368 . S
C1778 C1777 1.523 . S
H1779 C1754 0.950 . S
H1780 C1756 0.950 . S
H1781 C1757 0.949 . S
H1782 C1759 0.950 . S
H1783 C1761 0.950 . S
C1784 C1785 1.349 . S
C1784 C1786 1.327 . S
C1784 H1809 0.950 . S
C1785 C1784 1.349 . S
C1785 C1801 1.349 . S
C1786 C1784 1.327 . S
C1786 C1805 1.429 . S
C1786 H1810 0.950 . S
C1787 C1804 1.574 . S
C1787 C1806 1.368 . S
C1787 H1811 0.949 . S
H1788 C1792 0.949 . S
C1789 C1790 1.349 . S
C1789 C1791 1.327 . S
C1789 H1812 0.950 . S
C1790 C1789 1.349 . S
C1790 C1802 1.349 . S
C1791 C1789 1.327 . S
C1791 C1807 1.429 . S
C1791 H1813 0.950 . S
C1792 H1788 0.949 . S
C1792 C1800 1.574 . S
C1792 C1808 1.368 . S
H1793 C1801 0.950 . S
H1794 C1799 0.950 . S
H1795 C1800 0.949 . S
H1796 C1802 0.950 . S
H1797 C1803 0.950 . S
H1798 C1804 0.949 . S
C1799 H1794 0.950 . S
C1799 C1801 1.327 . S
C1799 C1805 1.429 . S
C1800 C1792 1.574 . S
C1800 H1795 0.949 . S
C1800 C1806 1.368 . S
C1801 C1785 1.349 . S
C1801 H1793 0.950 . S
C1801 C1799 1.327 . S
C1802 C1790 1.349 . S
C1802 H1796 0.950 . S
C1802 C1803 1.327 . S
C1803 H1797 0.950 . S
C1803 C1802 1.327 . S
C1803 C1807 1.429 . S
C1804 C1787 1.574 . S
C1804 H1798 0.949 . S
C1804 C1808 1.368 . S
C1805 C1786 1.429 . S
C1805 C1799 1.429 . S
C1805 C1806 1.523 . S
C1806 C1787 1.368 . S
C1806 C1800 1.368 . S
C1806 C1805 1.523 . S
C1807 C1791 1.429 . S
C1807 C1803 1.429 . S
C1807 C1808 1.523 . S
C1808 C1792 1.368 . S
C1808 C1804 1.368 . S
C1808 C1807 1.523 . S
H1809 C1784 0.950 . S
H1810 C1786 0.950 . S
H1811 C1787 0.949 . S
H1812 C1789 0.950 . S
H1813 C1791 0.950 . S
C1814 C1815 1.349 . S
C1814 C1816 1.327 . S
C1814 H1839 0.950 . S
C1815 C1814 1.349 . S
C1815 C1831 1.349 . S
C1816 C1814 1.327 . S
C1816 C1835 1.429 . S
C1816 H1840 0.950 . S
C1817 C1834 1.574 . S
C1817 C1836 1.368 . S
C1817 H1841 0.949 . S
H1818 C1822 0.949 . S
C1819 C1820 1.349 . S
C1819 C1821 1.327 . S
C1819 H1842 0.950 . S
C1820 C1819 1.349 . S
C1820 C1832 1.349 . S
C1821 C1819 1.327 . S
C1821 C1837 1.429 . S
C1821 H1843 0.950 . S
C1822 H1818 0.949 . S
C1822 C1830 1.574 . S
C1822 C1838 1.368 . S
H1823 C1831 0.950 . S
H1824 C1829 0.950 . S
H1825 C1830 0.949 . S
H1826 C1832 0.950 . S
H1827 C1833 0.950 . S
H1828 C1834 0.949 . S
C1829 H1824 0.950 . S
C1829 C1831 1.327 . S
C1829 C1835 1.429 . S
C1830 C1822 1.574 . S
C1830 H1825 0.949 . S
C1830 C1836 1.368 . S
C1831 C1815 1.349 . S
C1831 H1823 0.950 . S
C1831 C1829 1.327 . S
C1832 C1820 1.349 . S
C1832 H1826 0.950 . S
C1832 C1833 1.327 . S
C1833 H1827 0.950 . S
C1833 C1832 1.327 . S
C1833 C1837 1.429 . S
C1834 C1817 1.574 . S
C1834 H1828 0.949 . S
C1834 C1838 1.368 . S
C1835 C1816 1.429 . S
C1835 C1829 1.429 . S
C1835 C1836 1.523 . S
C1836 C1817 1.368 . S
C1836 C1830 1.368 . S
C1836 C1835 1.523 . S
C1837 C1821 1.429 . S
C1837 C1833 1.429 . S
C1837 C1838 1.523 . S
C1838 C1822 1.368 . S
C1838 C1834 1.368 . S
C1838 C1837 1.523 . S
H1839 C1814 0.950 . S
H1840 C1816 0.950 . S
H1841 C1817 0.949 . S
H1842 C1819 0.950 . S
H1843 C1821 0.950 . S
C1844 C1845 1.349 . S
C1844 C1846 1.327 . S
C1844 H1869 0.950 . S
C1845 C1844 1.349 . S
C1845 C1861 1.349 . S
C1846 C1844 1.327 . S
C1846 C1865 1.429 . S
C1846 H1870 0.950 . S
C1847 C1864 1.574 . S
C1847 C1866 1.368 . S
C1847 H1871 0.949 . S
H1848 C1852 0.949 . S
C1849 C1850 1.349 . S
C1849 C1851 1.327 . S
C1849 H1872 0.950 . S
C1850 C1849 1.349 . S
C1850 C1862 1.349 . S
C1851 C1849 1.327 . S
C1851 C1867 1.429 . S
C1851 H1873 0.950 . S
C1852 H1848 0.949 . S
C1852 C1860 1.574 . S
C1852 C1868 1.368 . S
H1853 C1861 0.950 . S
H1854 C1859 0.950 . S
H1855 C1860 0.949 . S
H1856 C1862 0.950 . S
H1857 C1863 0.950 . S
H1858 C1864 0.949 . S
C1859 H1854 0.950 . S
C1859 C1861 1.327 . S
C1859 C1865 1.429 . S
C1860 C1852 1.574 . S
C1860 H1855 0.949 . S
C1860 C1866 1.368 . S
C1861 C1845 1.349 . S
C1861 H1853 0.950 . S
C1861 C1859 1.327 . S
C1862 C1850 1.349 . S
C1862 H1856 0.950 . S
C1862 C1863 1.327 . S
C1863 H1857 0.950 . S
C1863 C1862 1.327 . S
C1863 C1867 1.429 . S
C1864 C1847 1.574 . S
C1864 H1858 0.949 . S
C1864 C1868 1.368 . S
C1865 C1846 1.429 . S
C1865 C1859 1.429 . S
C1865 C1866 1.523 . S
C1866 C1847 1.368 . S
C1866 C1860 1.368 . S
C1866 C1865 1.523 . S
C1867 C1851 1.429 . S
C1867 C1863 1.429 . S
C1867 C1868 1.523 . S
C1868 C1852 1.368 . S
C1868 C1864 1.368 . S
C1868 C1867 1.523 . S
H1869 C1844 0.950 . S
H1870 C1846 0.950 . S
H1871 C1847 0.949 . S
H1872 C1849 0.950 . S
H1873 C1851 0.950 . S
C1874 C1875 1.349 . S
C1874 C1876 1.327 . S
C1874 H1899 0.950 . S
C1875 C1874 1.349 . S
C1875 C1891 1.349 . S
C1876 C1874 1.327 . S
C1876 C1895 1.429 . S
C1876 H1900 0.950 . S
C1877 C1894 1.574 . S
C1877 C1896 1.368 . S
C1877 H1901 0.949 . S
H1878 C1882 0.949 . S
C1879 C1880 1.349 . S
C1879 C1881 1.327 . S
C1879 H1902 0.950 . S
C1880 C1879 1.349 . S
C1880 C1892 1.349 . S
C1881 C1879 1.327 . S
C1881 C1897 1.429 . S
C1881 H1903 0.950 . S
C1882 H1878 0.949 . S
C1882 C1890 1.574 . S
C1882 C1898 1.368 . S
H1883 C1891 0.950 . S
H1884 C1889 0.950 . S
H1885 C1890 0.949 . S
H1886 C1892 0.950 . S
H1887 C1893 0.950 . S
H1888 C1894 0.949 . S
C1889 H1884 0.950 . S
C1889 C1891 1.327 . S
C1889 C1895 1.429 . S
C1890 C1882 1.574 . S
C1890 H1885 0.949 . S
C1890 C1896 1.368 . S
C1891 C1875 1.349 . S
C1891 H1883 0.950 . S
C1891 C1889 1.327 . S
C1892 C1880 1.349 . S
C1892 H1886 0.950 . S
C1892 C1893 1.327 . S
C1893 H1887 0.950 . S
C1893 C1892 1.327 . S
C1893 C1897 1.429 . S
C1894 C1877 1.574 . S
C1894 H1888 0.949 . S
C1894 C1898 1.368 . S
C1895 C1876 1.429 . S
C1895 C1889 1.429 . S
C1895 C1896 1.523 . S
C1896 C1877 1.368 . S
C1896 C1890 1.368 . S
C1896 C1895 1.523 . S
C1897 C1881 1.429 . S
C1897 C1893 1.429 . S
C1897 C1898 1.523 . S
C1898 C1882 1.368 . S
C1898 C1894 1.368 . S
C1898 C1897 1.523 . S
H1899 C1874 0.950 . S
H1900 C1876 0.950 . S
H1901 C1877 0.949 . S
H1902 C1879 0.950 . S
H1903 C1881 0.950 . S
C945 C5 1.294 . S
C950 C241 1.292 . S
C975 C300 1.294 . S
C980 C64 1.292 . S
C1005 C123 1.506 . S
C1010 C359 1.508 . S
C1035 C182 1.508 . S
C1040 C418 1.506 . S
C1065 C477 1.294 . S
C1070 C713 1.292 . S
C1095 C772 1.294 . S
C1100 C536 1.292 . S
C1125 C595 1.506 . S
C1130 C831 1.508 . S
C1155 C654 1.508 . S
C1160 C890 1.506 . S
C1185 C3 1.525 . S
C1190 C937 1.550 . S
C1215 C760 1.519 . S
C1220 C62 1.485 . S
C1245 C121 1.608 . S
C1250 C819 1.639 . S
C1275 C878 1.696 . S
C1280 C180 1.658 . S
C1305 C583 1.518 . S
C1310 C239 1.485 . S
C1335 C642 1.554 . S
C1340 C298 1.522 . S
C1365 C701 1.695 . S
C1370 C357 1.658 . S
C1395 C524 1.643 . S
C1400 C416 1.605 . S
C1425 C475 1.525 . S
C1430 C465 1.550 . S
C1455 C288 1.519 . S
C1460 C534 1.485 . S
C1485 C347 1.643 . S
C1490 C593 1.605 . S
C1515 C652 1.658 . S
C1520 C406 1.696 . S
C1545 C111 1.518 . S
C1550 C711 1.485 . S
C1575 C770 1.525 . S
C1580 C170 1.550 . S
C1605 C829 1.658 . S
C1610 C229 1.695 . S
C1635 C888 1.608 . S
C1640 C52 1.639 . S
C1665 C446 0.829 . S
C1670 C33 0.839 . S
C1695 C92 0.916 . S
C1700 C269 0.924 . S
C1725 C151 0.829 . S
C1730 C328 0.839 . S
C1755 C210 0.743 . S
C1760 C387 0.743 . S
C1785 C918 0.829 . S
C1790 C505 0.839 . S
C1815 C741 0.916 . S
C1820 C564 0.924 . S
C1845 C800 0.833 . S
C1850 C623 0.831 . S
C1875 C859 0.743 . S
C1880 C682 0.743 . S
