# Generated by pormake.
# Topology sxa, (6)-cn, num edge types: 1
# Building blocks:
#     Node 0, Type 0, BuildingBlock: MIDCAF_clean_sbu_0, # of connection points: 6
#     Node 1, Type 0, BuildingBlock: MIDCAF_clean_sbu_0, # of connection points: 6
#     Node 2, Type 0, BuildingBlock: MIDCAF_clean_sbu_0, # of connection points: 6
#     Node 3, Type 0, BuildingBlock: MIDCAF_clean_sbu_0, # of connection points: 6
#     Edge 4, Type (0, 0), BuildingBlock: XUDNAN_clean_linker_2, # of connection points: 2
#     Edge 5, Type (0, 0), BuildingBlock: XUDNAN_clean_linker_2, # of connection points: 2
#     Edge 6, Type (0, 0), BuildingBlock: XUDNAN_clean_linker_2, # of connection points: 2
#     Edge 7, Type (0, 0), BuildingBlock: XUDNAN_clean_linker_2, # of connection points: 2
#     Edge 8, Type (0, 0), BuildingBlock: XUDNAN_clean_linker_2, # of connection points: 2
#     Edge 9, Type (0, 0), BuildingBlock: XUDNAN_clean_linker_2, # of connection points: 2
#     Edge 10, Type (0, 0), BuildingBlock: XUDNAN_clean_linker_2, # of connection points: 2
#     Edge 11, Type (0, 0), BuildingBlock: XUDNAN_clean_linker_2, # of connection points: 2
#     Edge 12, Type (0, 0), BuildingBlock: XUDNAN_clean_linker_2, # of connection points: 2
#     Edge 13, Type (0, 0), BuildingBlock: XUDNAN_clean_linker_2, # of connection points: 2
#     Edge 14, Type (0, 0), BuildingBlock: XUDNAN_clean_linker_2, # of connection points: 2
#     Edge 15, Type (0, 0), BuildingBlock: XUDNAN_clean_linker_2, # of connection points: 2
# Relax obj value: 0.200
# Max RMSD: 0.180
# Mean RMSD: 0.180
data_MOF--net-sxa--node1-MIDCAF_clean_sbu_0--edge1-XUDNAN_clean_linker_2
_symmetry_space_group_name_H-M    P1
_symmetry_Int_Tables_number       1
_symmetry_cell_setting            triclinic
loop_
_symmetry_equiv_pos_as_xyz
'x, y, z'
_cell_length_a     22.660131
_cell_length_b     27.430836
_cell_length_c     18.912645
_cell_angle_alpha  90.788812
_cell_angle_beta   87.903957
_cell_angle_gamma 89.4183
loop_
_atom_site_label
_atom_site_type_symbol
_atom_site_fract_x
_atom_site_fract_y
_atom_site_fract_z
_atom_type_partial_charge
Zn0 Zn 0.96226 0.85694 0.28703 0.0
Zn1 Zn 0.02605 0.68929 0.30061 0.0
Zn2 Zn 0.97795 0.78823 0.21676 0.0
C3 C 0.08487 0.70923 0.18404 0.0
C4 C 0.94647 0.67657 0.18712 0.0
O5 O 0.91788 0.77573 0.3022 0.0
O6 O 0.95643 0.82339 0.38241 0.0
C7 C 0.01714 0.89675 0.17366 0.0
O8 O 0.04362 0.73957 0.19688 0.0
O9 O 0.09471 0.67613 0.22817 0.0
O10 O 0.94693 0.67137 0.25403 0.0
O11 O 0.96553 0.71675 0.16065 0.0
O12 O 0.02386 0.90209 0.23983 0.0
O13 O -0.00675 0.85695 0.15187 0.0
O14 O 0.92919 0.83419 0.14853 0.0
O15 O 0.88082 0.86295 0.24278 0.0
C16 C 0.88212 0.85363 0.177 0.0
O17 O 0.06043 0.79908 0.27197 0.0
O18 O 0.04615 0.74953 0.36263 0.0
C19 C 0.92149 0.78933 0.36653 0.0
C20 C 0.0747 0.78404 0.33323 0.0
Zn21 Zn 0.54293 0.17597 0.28124 0.0
Zn22 Zn 0.44145 0.35591 0.25952 0.0
Zn23 Zn 0.47388 0.28744 0.20284 0.0
C24 C 0.38738 0.34374 0.13068 0.0
C25 C 0.51215 0.3992 0.16476 0.0
O26 O 0.53829 0.30006 0.28374 0.0
O27 O 0.52369 0.23499 0.3508 0.0
C28 C 0.46737 0.1679 0.15322 0.0
O29 O 0.44099 0.32978 0.11863 0.0
O30 O 0.37 0.35206 0.194 0.0
O31 O 0.50277 0.40627 0.23068 0.0
O32 O 0.49812 0.35714 0.13894 0.0
O33 O 0.48281 0.14812 0.21054 0.0
O34 O 0.46893 0.21478 0.14616 0.0
O35 O 0.54073 0.23807 0.20268 0.0
O36 O 0.6179 0.19401 0.22114 0.0
C37 C 0.59546 0.23063 0.1915 0.0
O38 O 0.40139 0.275 0.28076 0.0
O39 O 0.42109 0.33337 0.35691 0.0
C40 C 0.54776 0.27639 0.34047 0.0
C41 C 0.3929 0.29517 0.34184 0.0
Zn42 Zn 0.92235 0.21918 0.74525 0.0
Zn43 Zn -0.01013 0.38255 0.69985 0.0
Zn44 Zn 0.96725 0.29049 0.78808 0.0
C45 C 0.0783 0.36964 0.78912 0.0
C46 C 0.9402 0.39856 0.84103 0.0
O47 O 0.89973 0.30243 0.70381 0.0
O48 O 0.90826 0.23288 0.64459 0.0
C49 C 0.9797 0.17411 0.84325 0.0
O50 O 0.04252 0.33506 0.80308 0.0
O51 O 0.06864 0.3984 0.73894 0.0
O52 O 0.92938 0.40979 0.77764 0.0
O53 O 0.96352 0.35686 0.85302 0.0
O54 O 0.96147 0.15926 0.7843 0.0
O55 O 0.97988 0.22071 0.8559 0.0
O56 O 0.9308 0.26149 0.87973 0.0
O57 O 0.85733 0.25082 0.81038 0.0
C58 C 0.87562 0.26398 0.8699 0.0
O59 O 0.04091 0.27386 0.72159 0.0
O60 O 0.00476 0.31976 0.63793 0.0
C61 C 0.8868 0.27573 0.64995 0.0
C62 C 0.04131 0.28729 0.65724 0.0
Zn63 Zn 0.52354 0.84962 0.70738 0.0
Zn64 Zn 0.45617 0.70936 0.70651 0.0
Zn65 Zn 0.48043 0.78468 0.77636 0.0
C66 C 0.37757 0.73065 0.81487 0.0
C67 C 0.50694 0.67068 0.82174 0.0
O68 O 0.55615 0.76025 0.71614 0.0
O69 O 0.5446 0.80614 0.62301 0.0
C70 C 0.44958 0.89853 0.79984 0.0
O71 O 0.42772 0.741 0.83882 0.0
O72 O 0.37403 0.71824 0.75082 0.0
O73 O 0.5077 0.65779 0.75675 0.0
O74 O 0.49044 0.71485 0.8384 0.0
O75 O 0.45828 0.90148 0.73313 0.0
O76 O 0.46326 0.85794 0.82923 0.0
O77 O 0.52427 0.83389 0.84588 0.0
O78 O 0.59495 0.85401 0.77028 0.0
C79 C 0.57692 0.84887 0.83364 0.0
O80 O 0.42268 0.79859 0.68545 0.0
O81 O 0.45183 0.7399 0.61009 0.0
C82 C 0.57026 0.77066 0.65225 0.0
C83 C 0.42163 0.77861 0.62344 0.0
H84 H 0.95837 0.49868 0.83865 0.0
H85 H 0.90526 0.38193 0.97851 0.0
H86 H 0.89507 0.441 0.07834 0.0
H87 H 0.04798 0.55938 0.96625 0.0
H88 H 0.03058 0.62016 0.93798 0.0
H89 H 0.02909 0.5698 0.8759 0.0
H90 H 0.92118 0.59161 0.84789 0.0
H91 H 0.92232 0.64212 0.90979 0.0
H92 H 0.86617 0.59633 0.91905 0.0
H93 H 0.89197 0.51275 0.16405 0.0
H94 H 0.90283 0.58919 0.2314 0.0
H95 H 0.96359 0.66139 0.0397 0.0
C96 C 0.94361 0.48576 0.89009 0.0
C97 C 0.9314 0.43544 0.90019 0.0
C98 C 0.91417 0.42002 0.96899 0.0
C99 C 0.90827 0.4535 0.02614 0.0
C100 C 0.92093 0.50262 0.01461 0.0
C101 C 0.93892 0.51872 0.94844 0.0
C102 C 0.95368 0.57298 0.95185 0.0
C103 C 0.01922 0.58105 0.93179 0.0
C104 C 0.91343 0.6025 0.90431 0.0
C105 C 0.94054 0.58502 0.02997 0.0
C106 C 0.92137 0.54378 0.06481 0.0
C107 C 0.90704 0.54513 0.13711 0.0
C108 C 0.91334 0.58915 0.17508 0.0
C109 C 0.93424 0.63213 0.14172 0.0
C110 C 0.94731 0.62976 0.06745 0.0
H111 H 0.51612 0.40792 0.01589 0.0
H112 H 0.54128 0.4902 0.21003 0.0
H113 H 0.54874 0.56567 0.14244 0.0
H114 H 0.61501 0.48503 0.90106 0.0
H115 H 0.56795 0.48068 0.82647 0.0
H116 H 0.57089 0.4315 0.8886 0.0
H117 H 0.45838 0.43732 0.90651 0.0
H118 H 0.4538 0.48802 0.84763 0.0
H119 H 0.42408 0.4938 0.93713 0.0
H120 H 0.54236 0.63431 0.05786 0.0
H121 H 0.52947 0.691 0.95965 0.0
H122 H 0.50894 0.56824 0.8157 0.0
C123 C 0.52376 0.44174 0.04404 0.0
C124 C 0.52709 0.44251 0.11917 0.0
C125 C 0.53808 0.48788 0.15309 0.0
C126 C 0.54232 0.53137 0.11498 0.0
C127 C 0.5361 0.52975 0.042 0.0
C128 C 0.5279 0.48614 0.00636 0.0
C129 C 0.52074 0.49567 0.92758 0.0
C130 C 0.57168 0.4718 0.88329 0.0
C131 C 0.46064 0.47766 0.90335 0.0
C132 C 0.5242 0.55133 0.92538 0.0
C133 C 0.53354 0.56993 0.99222 0.0
C134 C 0.53585 0.62008 0.00511 0.0
C135 C 0.52832 0.65217 0.94869 0.0
C136 C 0.51871 0.63463 0.87922 0.0
C137 C 0.51715 0.58316 0.86767 0.0
H138 H 0.45259 0.91041 0.94569 0.0
H139 H 0.42176 0.99063 0.75433 0.0
H140 H 0.41598 0.06746 0.82422 0.0
H141 H 0.35804 0.98707 0.06701 0.0
H142 H 0.40841 0.9822 0.13824 0.0
H143 H 0.40366 0.93328 0.07418 0.0
H144 H 0.51519 0.93861 0.05004 0.0
H145 H 0.52182 0.98919 0.11037 0.0
H146 H 0.54753 0.99469 0.01949 0.0
H147 H 0.42159 0.1377 0.9153 0.0
H148 H 0.43723 0.19289 0.0176 0.0
H149 H 0.46617 0.06706 0.14901 0.0
C150 C 0.44374 0.94396 0.91846 0.0
C151 C 0.43761 0.94395 0.84395 0.0
C152 C 0.42637 0.98915 0.81105 0.0
C153 C 0.42312 1.03321 0.85048 0.0
C154 C 0.43115 1.03205 0.92333 0.0
C155 C 0.44086 0.98843 0.95706 0.0
C156 C 0.45109 0.99733 0.03526 0.0
C157 C 0.40239 0.97356 0.08139 0.0
C158 C 0.51262 0.97892 0.05486 0.0
C159 C 0.44683 0.05268 0.04004 0.0
C160 C 0.43476 0.07214 0.97513 0.0
C161 C 0.4306 0.12263 0.96641 0.0
C162 C 0.43953 0.15386 0.02505 0.0
C163 C 0.45276 0.13485 0.0921 0.0
C164 C 0.45574 0.0833 0.09907 0.0
H165 H 0.96556 0.91655 0.04562 0.0
H166 H 0.08699 0.97622 0.19526 0.0
H167 H 0.09297 0.05214 0.12658 0.0
H168 H 0.02948 0.97073 0.88508 0.0
H169 H 0.95852 0.98332 0.84884 0.0
H170 H 0.96726 0.93277 0.9075 0.0
H171 H 0.88277 0.96804 0.99268 0.0
H172 H 0.87348 1.01639 0.93021 0.0
H173 H 0.88657 1.03057 0.02162 0.0
H174 H 0.07939 0.12551 0.04555 0.0
H175 H 0.05269 0.1862 0.95575 0.0
H176 H 0.94197 0.07894 0.85672 0.0
C177 C -0.00544 0.94508 0.06304 0.0
C178 C 0.02644 0.93971 0.12586 0.0
C179 C 0.06243 0.97889 0.14738 0.0
C180 C 0.06599 1.02242 0.10865 0.0
C181 C 0.03303 1.02698 0.04807 0.0
C182 C -0.00176 0.98918 0.02516 0.0
C183 C 0.9649 1.00433 0.96038 0.0
C184 C 0.98102 0.97079 0.89666 0.0
C185 C 0.89796 1.00485 0.97712 0.0
C186 C -0.01245 0.05591 0.94915 0.0
C187 C 0.02607 0.06865 0.00108 0.0
C188 C 0.04983 0.11553 0.00422 0.0
C189 C 0.03425 0.14998 0.95301 0.0
C190 C -0.00415 0.13756 0.89824 0.0
C191 C 0.97238 0.08962 0.89683 0.0
H192 H 0.30281 0.79278 0.64499 0.0
H193 H 0.44229 0.79564 0.48259 0.0
H194 H 0.36792 0.80941 0.39172 0.0
H195 H 0.20876 0.72189 0.54746 0.0
H196 H 0.14103 0.75047 0.58038 0.0
H197 H 0.20513 0.75088 0.6337 0.0
H198 H 0.19908 0.845 0.64331 0.0
H199 H 0.13471 0.84494 0.59001 0.0
H200 H 0.19806 0.88053 0.56387 0.0
H201 H 0.27678 0.81684 0.31697 0.0
H202 H 0.17888 0.80767 0.26455 0.0
H203 H 0.09864 0.79152 0.47436 0.0
C204 C 0.3177 0.79827 0.59062 0.0
C205 C 0.3785 0.7949 0.57101 0.0
C206 C 0.39612 0.79943 0.49886 0.0
C207 C 0.35409 0.80723 0.44695 0.0
C208 C 0.29427 0.80944 0.46769 0.0
C209 C 0.2761 0.80466 0.53789 0.0
C210 C 0.2092 0.80183 0.54527 0.0
C211 C 0.18993 0.75338 0.57864 0.0
C212 C 0.18377 0.84569 0.58816 0.0
C213 C 0.19258 0.80445 0.46826 0.0
C214 C 0.24211 0.81028 0.42445 0.0
C215 C 0.23778 0.81265 0.35101 0.0
C216 C 0.18183 0.80775 0.3216 0.0
C217 C 0.13092 0.79932 0.36525 0.0
C218 C 0.13662 0.79841 0.43963 0.0
H219 H 0.09962 0.34904 0.57054 0.0
H220 H 0.10002 0.19904 0.63917 0.0
H221 H 0.18929 0.18212 0.56163 0.0
H222 H 0.15226 0.32983 0.38983 0.0
H223 H 0.19743 0.38353 0.39041 0.0
H224 H 0.13114 0.38133 0.44572 0.0
H225 H 0.19194 0.40122 0.55589 0.0
H226 H 0.25844 0.40322 0.50104 0.0
H227 H 0.25424 0.363 0.57559 0.0
H228 H 0.27896 0.18301 0.47138 0.0
H229 H 0.36429 0.20372 0.39078 0.0
H230 H 0.30784 0.35504 0.39624 0.0
C231 C 0.11773 0.31232 0.56819 0.0
C232 C 0.09229 0.27495 0.60922 0.0
C233 C 0.11858 0.2279 0.60709 0.0
C234 C 0.16912 0.21807 0.56324 0.0
C235 C 0.19334 0.25606 0.52348 0.0
C236 C 0.1687 0.30241 0.52673 0.0
C237 C 0.20503 0.3382 0.48418 0.0
C238 C 0.16933 0.35945 0.42397 0.0
C239 C 0.22882 0.37879 0.53204 0.0
C240 C 0.25406 0.30496 0.45583 0.0
C241 C 0.24641 0.25745 0.47764 0.0
C242 C 0.28557 0.22023 0.45485 0.0
C243 C 0.33374 0.23217 0.40917 0.0
C244 C 0.34282 0.28101 0.38874 0.0
C245 C 0.30242 0.31755 0.41243 0.0
H246 H 0.84044 0.21998 0.54511 0.0
H247 H 0.8271 0.36423 0.6416 0.0
H248 H 0.74258 0.38331 0.5663 0.0
H249 H 0.7959 0.25377 0.36595 0.0
H250 H 0.75564 0.19803 0.35514 0.0
H251 H 0.81964 0.19909 0.40897 0.0
H252 H 0.75677 0.16555 0.51445 0.0
H253 H 0.6926 0.16484 0.46128 0.0
H254 H 0.69063 0.19791 0.54438 0.0
H255 H 0.65446 0.38416 0.48149 0.0
H256 H 0.57097 0.3648 0.40412 0.0
H257 H 0.63977 0.21791 0.37376 0.0
C258 C 0.82087 0.25611 0.5496 0.0
C259 C 0.84118 0.2908 0.59911 0.0
C260 C 0.81301 0.33718 0.60372 0.0
C261 C 0.76484 0.34829 0.56109 0.0
C262 C 0.7451 0.31261 0.51417 0.0
C263 C 0.77258 0.26744 0.5084 0.0
C264 C 0.74074 0.23375 0.45868 0.0
C265 C 0.78035 0.22038 0.39333 0.0
C266 C 0.71889 0.18782 0.49702 0.0
C267 C 0.68977 0.26625 0.43887 0.0
C268 C 0.69355 0.31209 0.46966 0.0
C269 C 0.65127 0.34828 0.45752 0.0
C270 C 0.604 0.33707 0.4136 0.0
C271 C 0.59851 0.28971 0.38408 0.0
C272 C 0.64234 0.25421 0.39666 0.0
H273 H 0.80787 0.76982 0.34415 0.0
H274 H 0.93761 0.77037 0.50677 0.0
H275 H 0.86025 0.74564 0.59508 0.0
H276 H 0.70311 0.82997 0.44396 0.0
H277 H 0.64056 0.79948 0.40799 0.0
H278 H 0.70788 0.80414 0.35571 0.0
H279 H 0.71128 0.71012 0.33923 0.0
H280 H 0.64382 0.70519 0.39215 0.0
H281 H 0.70888 0.67172 0.41586 0.0
H282 H 0.76763 0.73009 0.66656 0.0
H283 H 0.66739 0.74054 0.71988 0.0
H284 H 0.59757 0.75916 0.51149 0.0
C285 C 0.82034 0.76295 0.39791 0.0
C286 C 0.87853 0.77071 0.41892 0.0
C287 C 0.89313 0.76383 0.49003 0.0
C288 C 0.8497 0.74937 0.54007 0.0
C289 C 0.79215 0.74274 0.51782 0.0
C290 C 0.77736 0.75007 0.44846 0.0
C291 C 0.71125 0.75008 0.44022 0.0
C292 C 0.68947 0.79881 0.41028 0.0
C293 C 0.69273 0.70668 0.39414 0.0
C294 C 0.69079 0.74387 0.51639 0.0
C295 C 0.73806 0.73753 0.55986 0.0
C296 C 0.7303 0.73432 0.633 0.0
C297 C 0.67314 0.74007 0.66275 0.0
C298 C 0.62506 0.7505 0.61942 0.0
C299 C 0.63368 0.75063 0.54537 0.0
H300 H 0.37432 0.74134 0.95656 0.0
H301 H 0.26388 0.73603 0.77376 0.0
H302 H 0.17533 0.74619 0.8522 0.0
H303 H 0.29822 0.6685 0.05671 0.0
H304 H 0.30499 0.69929 0.14084 0.0
H305 H 0.3603 0.70745 0.07194 0.0
H306 H 0.3442 0.80109 0.07835 0.0
H307 H 0.28928 0.79345 0.14869 0.0
H308 H 0.27104 0.82631 0.07043 0.0
H309 H 0.10146 0.74047 0.94657 0.0
H310 H 0.04429 0.71758 0.0538 0.0
H311 H 0.20263 0.72151 0.17535 0.0
C312 C 0.33149 0.74354 0.93309 0.0
C313 C 0.32515 0.73732 0.85994 0.0
C314 C 0.26897 0.73994 0.83029 0.0
C315 C 0.21878 0.74672 0.87409 0.0
C316 C 0.22631 0.75109 0.94659 0.0
C317 C 0.28128 0.75001 0.97602 0.0
C318 C 0.27705 0.7468 0.05556 0.0
C319 C 0.31218 0.70288 0.08274 0.0
C320 C 0.29651 0.79477 0.09029 0.0
C321 C 0.21154 0.74 0.0652 0.0
C322 C 0.18294 0.7453 0.00223 0.0
C323 C 0.12302 0.73697 0.99639 0.0
C324 C 0.09136 0.72293 0.0568 0.0
C325 C 0.12036 0.71609 0.12077 0.0
C326 C 0.1807 0.72513 0.1257 0.0
H327 H 0.09519 0.3292 0.91685 0.0
H328 H 0.17764 0.42337 0.76005 0.0
H329 H 0.26605 0.42907 0.83285 0.0
H330 H 0.15047 0.39005 0.07111 0.0
H331 H 0.16041 0.33389 0.11786 0.0
H332 H 0.10351 0.33883 0.05423 0.0
H333 H 0.14679 0.2629 0.98676 0.0
H334 H 0.20403 0.25784 0.04986 0.0
H335 H 0.22327 0.2624 0.9569 0.0
H336 H 0.34776 0.41827 0.91785 0.0
H337 H 0.41408 0.39789 0.01484 0.0
H338 H 0.27471 0.31517 0.11761 0.0
C339 C 0.1317 0.35122 0.89778 0.0
C340 C 0.13002 0.37561 0.83273 0.0
C341 C 0.17832 0.40442 0.80988 0.0
C342 C 0.22857 0.40778 0.85071 0.0
C343 C 0.22905 0.38256 0.91418 0.0
C344 C 0.18158 0.35533 0.93793 0.0
C345 C 0.19308 0.33122 0.00744 0.0
C346 C 0.14927 0.34963 0.06613 0.0
C347 C 0.19172 0.27529 -0.00027 0.0
C348 C 0.25476 0.34899 0.01914 0.0
C349 C 0.27504 0.37808 0.96444 0.0
C350 C 0.33226 0.39612 0.96146 0.0
C351 C 0.36961 0.3842 0.01615 0.0
C352 C 0.34895 0.35543 0.07299 0.0
C353 C 0.29088 0.33789 0.07482 0.0
H354 H 0.71004 0.24979 0.21352 0.0
H355 H 0.56274 0.28953 0.08701 0.0
H356 H 0.62733 0.33937 0.01182 0.0
H357 H 0.811 0.36784 0.15378 0.0
H358 H 0.87484 0.3282 0.15409 0.0
H359 H 0.817 0.32274 0.22163 0.0
H360 H 0.80819 0.23126 0.19005 0.0
H361 H 0.86486 0.23648 0.12283 0.0
H362 H 0.79364 0.21325 0.10015 0.0
H363 H 0.70273 0.34798 0.9252 0.0
H364 H 0.77804 0.31603 0.84036 0.0
H365 H 0.88463 0.26851 0.01209 0.0
C366 C 0.69179 0.27103 0.17157 0.0
C367 C 0.63199 0.26677 0.15576 0.0
C368 C 0.60831 0.29396 0.10085 0.0
C369 C 0.64493 0.32244 0.05802 0.0
C370 C 0.70533 0.32246 0.07015 0.0
C371 C 0.72868 0.29851 0.12726 0.0
C372 C 0.79505 0.29266 0.11822 0.0
C373 C 0.82629 0.3301 0.16467 0.0
C374 C 0.81651 0.24029 0.13352 0.0
C375 C 0.80264 0.30562 0.0411 0.0
C376 C 0.75164 0.32694 0.0164 0.0
C377 C 0.74335 0.33288 0.94436 0.0
C378 C 0.78574 0.31366 0.89643 0.0
C379 C 0.83582 0.28902 0.92081 0.0
C380 C 0.84626 0.28754 0.99339 0.0
H381 H 0.8773 0.85521 0.03241 0.0
H382 H 0.77186 0.87875 0.22655 0.0
H383 H 0.6831 0.88984 0.15724 0.0
H384 H 0.79295 0.94223 0.92157 0.0
H385 H 0.79943 0.90281 0.84466 0.0
H386 H 0.85718 0.90329 0.90755 0.0
H387 H 0.84774 0.81031 0.9231 0.0
H388 H 0.79041 0.80903 0.85989 0.0
H389 H 0.77678 0.78503 0.94715 0.0
H390 H 0.60488 0.88318 0.07126 0.0
H391 H 0.54154 0.86784 0.97034 0.0
H392 H 0.69689 0.85464 0.83023 0.0
C393 C 0.83578 0.86397 0.06009 0.0
C394 C 0.83131 0.86628 0.13466 0.0
C395 C 0.77625 0.87723 0.16933 0.0
C396 C 0.7256 0.88364 0.13049 0.0
C397 C 0.7311 0.87986 0.05716 0.0
C398 C 0.78483 0.87114 0.02201 0.0
C399 C 0.77753 0.86498 0.94314 0.0
C400 C 0.80863 0.9058 0.90186 0.0
C401 C 0.79938 0.81433 0.91683 0.0
C402 C 0.71116 0.86985 0.9401 0.0
C403 C 0.68533 0.87845 0.00647 0.0
C404 C 0.6244 0.87839 0.01853 0.0
C405 C 0.58883 0.86961 0.961 0.0
C406 C 0.61439 0.86174 0.89243 0.0
C407 C 0.67626 0.86235 0.88181 0.0
loop_
_geom_bond_atom_site_label_1
_geom_bond_atom_site_label_2
_geom_bond_distance
_geom_bond_site_symmetry_2
_ccdc_geom_bond_type
Zn0 O6 1.920 . S
Zn0 O12 1.898 . S
Zn0 O15 1.905 . S
Zn1 O9 1.905 . S
Zn1 O10 1.898 . S
Zn1 O18 1.920 . S
Zn2 O5 2.080 1_455 S
Zn2 O8 2.114 . S
Zn2 O11 2.120 1_455 S
Zn2 O13 2.120 . S
Zn2 O14 2.114 1_455 S
Zn2 O17 2.080 . S
C3 O8 1.166 . S
C3 O9 1.182 . S
C4 O10 1.167 . S
C4 O11 1.299 1_455 S
O5 Zn2 2.080 1_655 S
O5 C19 1.305 . S
O6 Zn0 1.920 . S
O6 C19 1.234 . S
C7 O12 1.167 . S
C7 O13 1.299 1_655 S
O8 Zn2 2.114 . S
O8 C3 1.166 . S
O9 Zn1 1.905 . S
O9 C3 1.182 . S
O10 Zn1 1.898 . S
O10 C4 1.167 . S
O11 Zn2 2.120 1_655 S
O11 C4 1.299 1_655 S
O12 Zn0 1.898 . S
O12 C7 1.167 . S
O13 Zn2 2.120 . S
O13 C7 1.299 1_455 S
O14 Zn2 2.114 1_655 S
O14 C16 1.166 . S
O15 Zn0 1.905 . S
O15 C16 1.182 . S
C16 O14 1.166 . S
C16 O15 1.182 . S
O17 Zn2 2.080 . S
O17 C20 1.305 . S
O18 Zn1 1.920 . S
O18 C20 1.234 . S
C19 O5 1.305 . S
C19 O6 1.234 . S
C20 O17 1.305 . S
C20 O18 1.234 . S
Zn21 O27 1.920 . S
Zn21 O33 1.898 . S
Zn21 O36 1.905 . S
Zn22 O30 1.905 . S
Zn22 O31 1.898 . S
Zn22 O39 1.920 . S
Zn23 O26 2.080 . S
Zn23 O29 2.114 . S
Zn23 O32 2.120 . S
Zn23 O34 2.120 . S
Zn23 O35 2.114 . S
Zn23 O38 2.080 . S
C24 O29 1.166 . S
C24 O30 1.182 . S
C25 O31 1.167 . S
C25 O32 1.299 . S
O26 Zn23 2.080 . S
O26 C40 1.305 . S
O27 Zn21 1.920 . S
O27 C40 1.234 . S
C28 O33 1.167 . S
C28 O34 1.299 . S
O29 Zn23 2.114 . S
O29 C24 1.166 . S
O30 Zn22 1.905 . S
O30 C24 1.182 . S
O31 Zn22 1.898 . S
O31 C25 1.167 . S
O32 Zn23 2.120 . S
O32 C25 1.299 . S
O33 Zn21 1.898 . S
O33 C28 1.167 . S
O34 Zn23 2.120 . S
O34 C28 1.299 . S
O35 Zn23 2.114 . S
O35 C37 1.166 . S
O36 Zn21 1.905 . S
O36 C37 1.182 . S
C37 O35 1.166 . S
C37 O36 1.182 . S
O38 Zn23 2.080 . S
O38 C41 1.305 . S
O39 Zn22 1.920 . S
O39 C41 1.234 . S
C40 O26 1.305 . S
C40 O27 1.234 . S
C41 O38 1.305 . S
C41 O39 1.234 . S
Zn42 O48 1.920 . S
Zn42 O54 1.898 . S
Zn42 O57 1.905 . S
Zn43 O51 1.905 . S
Zn43 O52 1.898 . S
Zn43 O60 1.920 . S
Zn44 O47 2.080 1_455 S
Zn44 O50 2.114 . S
Zn44 O53 2.120 1_455 S
Zn44 O55 2.120 . S
Zn44 O56 2.114 1_455 S
Zn44 O59 2.080 . S
C45 O50 1.166 . S
C45 O51 1.182 . S
C46 O52 1.167 . S
C46 O53 1.299 1_455 S
O47 Zn44 2.080 1_655 S
O47 C61 1.305 . S
O48 Zn42 1.920 . S
O48 C61 1.234 . S
C49 O54 1.167 . S
C49 O55 1.299 1_655 S
O50 Zn44 2.114 . S
O50 C45 1.166 . S
O51 Zn43 1.905 . S
O51 C45 1.182 . S
O52 Zn43 1.898 . S
O52 C46 1.167 . S
O53 Zn44 2.120 1_655 S
O53 C46 1.299 1_655 S
O54 Zn42 1.898 . S
O54 C49 1.167 . S
O55 Zn44 2.120 . S
O55 C49 1.299 1_455 S
O56 Zn44 2.114 1_655 S
O56 C58 1.166 . S
O57 Zn42 1.905 . S
O57 C58 1.182 . S
C58 O56 1.166 . S
C58 O57 1.182 . S
O59 Zn44 2.080 . S
O59 C62 1.305 . S
O60 Zn43 1.920 . S
O60 C62 1.234 . S
C61 O47 1.305 . S
C61 O48 1.234 . S
C62 O59 1.305 . S
C62 O60 1.234 . S
Zn63 O69 1.920 . S
Zn63 O75 1.898 . S
Zn63 O78 1.905 . S
Zn64 O72 1.905 . S
Zn64 O73 1.898 . S
Zn64 O81 1.920 . S
Zn65 O68 2.080 . S
Zn65 O71 2.114 . S
Zn65 O74 2.120 . S
Zn65 O76 2.120 . S
Zn65 O77 2.114 . S
Zn65 O80 2.080 . S
C66 O71 1.166 . S
C66 O72 1.182 . S
C67 O73 1.167 . S
C67 O74 1.299 . S
O68 Zn65 2.080 . S
O68 C82 1.305 . S
O69 Zn63 1.920 . S
O69 C82 1.234 . S
C70 O75 1.167 . S
C70 O76 1.299 . S
O71 Zn65 2.114 . S
O71 C66 1.166 . S
O72 Zn64 1.905 . S
O72 C66 1.182 . S
O73 Zn64 1.898 . S
O73 C67 1.167 . S
O74 Zn65 2.120 . S
O74 C67 1.299 . S
O75 Zn63 1.898 . S
O75 C70 1.167 . S
O76 Zn65 2.120 . S
O76 C70 1.299 . S
O77 Zn65 2.114 . S
O77 C79 1.166 . S
O78 Zn63 1.905 . S
O78 C79 1.182 . S
C79 O77 1.166 . S
C79 O78 1.182 . S
O80 Zn65 2.080 . S
O80 C83 1.305 . S
O81 Zn64 1.920 . S
O81 C83 1.234 . S
C82 O68 1.305 . S
C82 O69 1.234 . S
C83 O80 1.305 . S
C83 O81 1.234 . S
H84 C96 0.930 . S
H85 C98 0.930 . S
H86 C99 0.930 . S
H87 C103 0.959 . S
H88 C103 0.959 . S
H89 C103 0.961 . S
H90 C104 0.960 . S
H91 C104 0.961 . S
H92 C104 0.959 . S
H93 C107 0.929 . S
H94 C108 0.931 . S
H95 C110 0.930 . S
C96 H84 0.930 . S
C96 C97 1.399 . S
C96 C101 1.399 . S
C97 C96 1.399 . S
C97 C98 1.376 . S
C98 H85 0.930 . S
C98 C97 1.376 . S
C98 C99 1.388 1_556 S
C99 H86 0.930 . S
C99 C98 1.388 1_554 S
C99 C100 1.390 . S
C100 C99 1.390 . S
C100 C101 1.394 1_554 S
C100 C106 1.465 . S
C101 C96 1.399 . S
C101 C100 1.394 1_556 S
C101 C102 1.516 . S
C102 C101 1.516 . S
C102 C103 1.502 1_655 S
C102 C104 1.561 . S
C102 C105 1.526 1_556 S
C103 H87 0.959 . S
C103 H88 0.959 . S
C103 H89 0.961 . S
C103 C102 1.502 1_455 S
C104 H90 0.960 . S
C104 H91 0.961 . S
C104 H92 0.959 . S
C104 C102 1.561 . S
C105 C102 1.526 1_554 S
C105 C106 1.396 . S
C105 C110 1.390 . S
C106 C100 1.465 . S
C106 C105 1.396 . S
C106 C107 1.399 . S
C107 H93 0.929 . S
C107 C106 1.399 . S
C107 C108 1.385 . S
C108 H94 0.931 . S
C108 C107 1.385 . S
C108 C109 1.389 . S
C109 C108 1.389 . S
C109 C110 1.387 . S
C110 H95 0.930 . S
C110 C105 1.390 . S
C110 C109 1.387 . S
H111 C123 0.930 . S
H112 C125 0.930 . S
H113 C126 0.930 . S
H114 C130 0.959 1_554 S
H115 C130 0.959 . S
H116 C130 0.961 . S
H117 C131 0.960 . S
H118 C131 0.961 . S
H119 C131 0.959 . S
H120 C134 0.929 1_554 S
H121 C135 0.931 . S
H122 C137 0.930 . S
C123 H111 0.930 . S
C123 C124 1.399 . S
C123 C128 1.399 . S
C124 C123 1.399 . S
C124 C125 1.376 . S
C125 H112 0.930 . S
C125 C124 1.376 . S
C125 C126 1.388 . S
C126 H113 0.930 . S
C126 C125 1.388 . S
C126 C127 1.390 . S
C127 C126 1.390 . S
C127 C128 1.394 . S
C127 C133 1.465 1_554 S
C128 C123 1.399 . S
C128 C127 1.394 . S
C128 C129 1.516 1_554 S
C129 C128 1.516 1_556 S
C129 C130 1.502 . S
C129 C131 1.561 . S
C129 C132 1.526 . S
C130 H114 0.959 1_556 S
C130 H115 0.959 . S
C130 H116 0.961 . S
C130 C129 1.502 . S
C131 H117 0.960 . S
C131 H118 0.961 . S
C131 H119 0.959 . S
C131 C129 1.561 . S
C132 C129 1.526 . S
C132 C133 1.396 . S
C132 C137 1.390 . S
C133 C127 1.465 1_556 S
C133 C132 1.396 . S
C133 C134 1.399 . S
C134 H120 0.929 1_556 S
C134 C133 1.399 . S
C134 C135 1.385 . S
C135 H121 0.931 . S
C135 C134 1.385 . S
C135 C136 1.389 . S
C136 C135 1.389 . S
C136 C137 1.387 . S
C137 H122 0.930 . S
C137 C132 1.390 . S
C137 C136 1.387 . S
H138 C150 0.930 . S
H139 C152 0.930 . S
H140 C153 0.930 1_545 S
H141 C157 0.959 . S
H142 C157 0.959 . S
H143 C157 0.961 . S
H144 C158 0.960 . S
H145 C158 0.961 . S
H146 C158 0.959 . S
H147 C161 0.929 . S
H148 C162 0.931 . S
H149 C164 0.930 . S
C150 H138 0.930 . S
C150 C151 1.399 . S
C150 C155 1.399 . S
C151 C150 1.399 . S
C151 C152 1.376 . S
C152 H139 0.930 . S
C152 C151 1.376 . S
C152 C153 1.388 . S
C153 H140 0.930 1_565 S
C153 C152 1.388 . S
C153 C154 1.390 . S
C154 C153 1.390 . S
C154 C155 1.394 . S
C154 C160 1.465 1_565 S
C155 C150 1.399 . S
C155 C154 1.394 . S
C155 C156 1.516 1_556 S
C156 C155 1.516 1_554 S
C156 C157 1.502 . S
C156 C158 1.561 . S
C156 C159 1.526 1_565 S
C157 H141 0.959 . S
C157 H142 0.959 . S
C157 H143 0.961 . S
C157 C156 1.502 . S
C158 H144 0.960 . S
C158 H145 0.961 . S
C158 H146 0.959 . S
C158 C156 1.561 . S
C159 C156 1.526 1_545 S
C159 C160 1.396 1_554 S
C159 C164 1.390 . S
C160 C154 1.465 1_545 S
C160 C159 1.396 1_556 S
C160 C161 1.399 . S
C161 H147 0.929 . S
C161 C160 1.399 . S
C161 C162 1.385 1_556 S
C162 H148 0.931 . S
C162 C161 1.385 1_554 S
C162 C163 1.389 . S
C163 C162 1.389 . S
C163 C164 1.387 . S
C164 H149 0.930 . S
C164 C159 1.390 . S
C164 C163 1.387 . S
H165 C177 0.930 . S
H166 C179 0.930 . S
H167 C180 0.930 . S
H168 C184 0.959 . S
H169 C184 0.959 . S
H170 C184 0.961 . S
H171 C185 0.960 1_554 S
H172 C185 0.961 1_545 S
H173 C185 0.959 1_544 S
H174 C188 0.929 . S
H175 C189 0.931 . S
H176 C191 0.930 . S
C177 H165 0.930 . S
C177 C178 1.399 1_655 S
C177 C182 1.399 . S
C178 C177 1.399 1_455 S
C178 C179 1.376 . S
C179 H166 0.930 . S
C179 C178 1.376 . S
C179 C180 1.388 . S
C180 H167 0.930 . S
C180 C179 1.388 . S
C180 C181 1.390 . S
C181 C180 1.390 . S
C181 C182 1.394 1_455 S
C181 C187 1.465 1_565 S
C182 C177 1.399 . S
C182 C181 1.394 1_655 S
C182 C183 1.516 1_554 S
C183 C182 1.516 1_556 S
C183 C184 1.502 . S
C183 C185 1.561 . S
C183 C186 1.526 1_565 S
C184 H168 0.959 . S
C184 H169 0.959 . S
C184 H170 0.961 . S
C184 C183 1.502 . S
C185 H171 0.960 1_556 S
C185 H172 0.961 1_565 S
C185 H173 0.959 1_566 S
C185 C183 1.561 . S
C186 C183 1.526 1_545 S
C186 C187 1.396 1_656 S
C186 C191 1.390 . S
C187 C181 1.465 1_545 S
C187 C186 1.396 1_454 S
C187 C188 1.399 . S
C188 H174 0.929 . S
C188 C187 1.399 . S
C188 C189 1.385 1_554 S
C189 H175 0.931 . S
C189 C188 1.385 1_556 S
C189 C190 1.389 . S
C190 C189 1.389 . S
C190 C191 1.387 1_455 S
C191 H176 0.930 . S
C191 C186 1.390 . S
C191 C190 1.387 1_655 S
H192 C204 0.930 . S
H193 C206 0.930 . S
H194 C207 0.930 . S
H195 C211 0.959 . S
H196 C211 0.959 . S
H197 C211 0.961 . S
H198 C212 0.960 . S
H199 C212 0.961 . S
H200 C212 0.959 . S
H201 C215 0.929 . S
H202 C216 0.931 . S
H203 C218 0.930 . S
C204 H192 0.930 . S
C204 C205 1.399 . S
C204 C209 1.399 . S
C205 C204 1.399 . S
C205 C206 1.376 . S
C206 H193 0.930 . S
C206 C205 1.376 . S
C206 C207 1.388 . S
C207 H194 0.930 . S
C207 C206 1.388 . S
C207 C208 1.390 . S
C208 C207 1.390 . S
C208 C209 1.394 . S
C208 C214 1.465 . S
C209 C204 1.399 . S
C209 C208 1.394 . S
C209 C210 1.516 . S
C210 C209 1.516 . S
C210 C211 1.502 . S
C210 C212 1.561 . S
C210 C213 1.526 . S
C211 H195 0.959 . S
C211 H196 0.959 . S
C211 H197 0.961 . S
C211 C210 1.502 . S
C212 H198 0.960 . S
C212 H199 0.961 . S
C212 H200 0.959 . S
C212 C210 1.561 . S
C213 C210 1.526 . S
C213 C214 1.396 . S
C213 C218 1.390 . S
C214 C208 1.465 . S
C214 C213 1.396 . S
C214 C215 1.399 . S
C215 H201 0.929 . S
C215 C214 1.399 . S
C215 C216 1.385 . S
C216 H202 0.931 . S
C216 C215 1.385 . S
C216 C217 1.389 . S
C217 C216 1.389 . S
C217 C218 1.387 . S
C218 H203 0.930 . S
C218 C213 1.390 . S
C218 C217 1.387 . S
H219 C231 0.930 . S
H220 C233 0.930 . S
H221 C234 0.930 . S
H222 C238 0.959 . S
H223 C238 0.959 . S
H224 C238 0.961 . S
H225 C239 0.960 . S
H226 C239 0.961 . S
H227 C239 0.959 . S
H228 C242 0.929 . S
H229 C243 0.931 . S
H230 C245 0.930 . S
C231 H219 0.930 . S
C231 C232 1.399 . S
C231 C236 1.399 . S
C232 C231 1.399 . S
C232 C233 1.376 . S
C233 H220 0.930 . S
C233 C232 1.376 . S
C233 C234 1.388 . S
C234 H221 0.930 . S
C234 C233 1.388 . S
C234 C235 1.390 . S
C235 C234 1.390 . S
C235 C236 1.394 . S
C235 C241 1.465 . S
C236 C231 1.399 . S
C236 C235 1.394 . S
C236 C237 1.516 . S
C237 C236 1.516 . S
C237 C238 1.502 . S
C237 C239 1.561 . S
C237 C240 1.526 . S
C238 H222 0.959 . S
C238 H223 0.959 . S
C238 H224 0.961 . S
C238 C237 1.502 . S
C239 H225 0.960 . S
C239 H226 0.961 . S
C239 H227 0.959 . S
C239 C237 1.561 . S
C240 C237 1.526 . S
C240 C241 1.396 . S
C240 C245 1.390 . S
C241 C235 1.465 . S
C241 C240 1.396 . S
C241 C242 1.399 . S
C242 H228 0.929 . S
C242 C241 1.399 . S
C242 C243 1.385 . S
C243 H229 0.931 . S
C243 C242 1.385 . S
C243 C244 1.389 . S
C244 C243 1.389 . S
C244 C245 1.387 . S
C245 H230 0.930 . S
C245 C240 1.390 . S
C245 C244 1.387 . S
H246 C258 0.930 . S
H247 C260 0.930 . S
H248 C261 0.930 . S
H249 C265 0.959 . S
H250 C265 0.959 . S
H251 C265 0.961 . S
H252 C266 0.960 . S
H253 C266 0.961 . S
H254 C266 0.959 . S
H255 C269 0.929 . S
H256 C270 0.931 . S
H257 C272 0.930 . S
C258 H246 0.930 . S
C258 C259 1.399 . S
C258 C263 1.399 . S
C259 C258 1.399 . S
C259 C260 1.376 . S
C260 H247 0.930 . S
C260 C259 1.376 . S
C260 C261 1.388 . S
C261 H248 0.930 . S
C261 C260 1.388 . S
C261 C262 1.390 . S
C262 C261 1.390 . S
C262 C263 1.394 . S
C262 C268 1.465 . S
C263 C258 1.399 . S
C263 C262 1.394 . S
C263 C264 1.516 . S
C264 C263 1.516 . S
C264 C265 1.502 . S
C264 C266 1.561 . S
C264 C267 1.526 . S
C265 H249 0.959 . S
C265 H250 0.959 . S
C265 H251 0.961 . S
C265 C264 1.502 . S
C266 H252 0.960 . S
C266 H253 0.961 . S
C266 H254 0.959 . S
C266 C264 1.561 . S
C267 C264 1.526 . S
C267 C268 1.396 . S
C267 C272 1.390 . S
C268 C262 1.465 . S
C268 C267 1.396 . S
C268 C269 1.399 . S
C269 H255 0.929 . S
C269 C268 1.399 . S
C269 C270 1.385 . S
C270 H256 0.931 . S
C270 C269 1.385 . S
C270 C271 1.389 . S
C271 C270 1.389 . S
C271 C272 1.387 . S
C272 H257 0.930 . S
C272 C267 1.390 . S
C272 C271 1.387 . S
H273 C285 0.930 . S
H274 C287 0.930 . S
H275 C288 0.930 . S
H276 C292 0.959 . S
H277 C292 0.959 . S
H278 C292 0.961 . S
H279 C293 0.960 . S
H280 C293 0.961 . S
H281 C293 0.959 . S
H282 C296 0.929 . S
H283 C297 0.931 . S
H284 C299 0.930 . S
C285 H273 0.930 . S
C285 C286 1.399 . S
C285 C290 1.399 . S
C286 C285 1.399 . S
C286 C287 1.376 . S
C287 H274 0.930 . S
C287 C286 1.376 . S
C287 C288 1.388 . S
C288 H275 0.930 . S
C288 C287 1.388 . S
C288 C289 1.390 . S
C289 C288 1.390 . S
C289 C290 1.394 . S
C289 C295 1.465 . S
C290 C285 1.399 . S
C290 C289 1.394 . S
C290 C291 1.516 . S
C291 C290 1.516 . S
C291 C292 1.502 . S
C291 C293 1.561 . S
C291 C294 1.526 . S
C292 H276 0.959 . S
C292 H277 0.959 . S
C292 H278 0.961 . S
C292 C291 1.502 . S
C293 H279 0.960 . S
C293 H280 0.961 . S
C293 H281 0.959 . S
C293 C291 1.561 . S
C294 C291 1.526 . S
C294 C295 1.396 . S
C294 C299 1.390 . S
C295 C289 1.465 . S
C295 C294 1.396 . S
C295 C296 1.399 . S
C296 H282 0.929 . S
C296 C295 1.399 . S
C296 C297 1.385 . S
C297 H283 0.931 . S
C297 C296 1.385 . S
C297 C298 1.389 . S
C298 C297 1.389 . S
C298 C299 1.387 . S
C299 H284 0.930 . S
C299 C294 1.390 . S
C299 C298 1.387 . S
H300 C312 0.930 1_554 S
H301 C314 0.930 . S
H302 C315 0.930 . S
H303 C319 0.959 . S
H304 C319 0.959 . S
H305 C319 0.961 . S
H306 C320 0.960 . S
H307 C320 0.961 . S
H308 C320 0.959 . S
H309 C323 0.929 . S
H310 C324 0.931 . S
H311 C326 0.930 . S
C312 H300 0.930 1_556 S
C312 C313 1.399 . S
C312 C317 1.395 1_556 S
C313 C312 1.399 . S
C313 C314 1.376 . S
C314 H301 0.930 . S
C314 C313 1.376 . S
C314 C315 1.388 . S
C315 H302 0.930 . S
C315 C314 1.388 . S
C315 C316 1.390 . S
C316 C315 1.390 . S
C316 C317 1.387 1_556 S
C316 C322 1.465 . S
C317 C312 1.395 1_554 S
C317 C316 1.387 1_554 S
C317 C318 1.527 . S
C318 C317 1.527 . S
C318 C319 1.502 . S
C318 C320 1.561 . S
C318 C321 1.526 . S
C319 H303 0.959 . S
C319 H304 0.959 . S
C319 H305 0.961 . S
C319 C318 1.502 . S
C320 H306 0.960 . S
C320 H307 0.961 . S
C320 H308 0.959 . S
C320 C318 1.561 . S
C321 C318 1.526 . S
C321 C322 1.396 1_554 S
C321 C326 1.390 . S
C322 C316 1.465 . S
C322 C321 1.396 1_556 S
C322 C323 1.399 . S
C323 H309 0.929 . S
C323 C322 1.399 . S
C323 C324 1.385 1_556 S
C324 H310 0.931 . S
C324 C323 1.385 1_554 S
C324 C325 1.389 . S
C325 C324 1.389 . S
C325 C326 1.387 . S
C326 H311 0.930 . S
C326 C321 1.390 . S
C326 C325 1.387 . S
H327 C339 0.930 . S
H328 C341 0.930 . S
H329 C342 0.930 . S
H330 C346 0.959 . S
H331 C346 0.959 . S
H332 C346 0.961 . S
H333 C347 0.960 1_556 S
H334 C347 0.961 . S
H335 C347 0.959 1_556 S
H336 C350 0.929 . S
H337 C351 0.931 . S
H338 C353 0.930 . S
C339 H327 0.930 . S
C339 C340 1.399 . S
C339 C344 1.399 . S
C340 C339 1.399 . S
C340 C341 1.376 . S
C341 H328 0.930 . S
C341 C340 1.376 . S
C341 C342 1.388 . S
C342 H329 0.930 . S
C342 C341 1.388 . S
C342 C343 1.390 . S
C343 C342 1.390 . S
C343 C344 1.394 . S
C343 C349 1.465 . S
C344 C339 1.399 . S
C344 C343 1.394 . S
C344 C345 1.516 1_556 S
C345 C344 1.516 1_554 S
C345 C346 1.502 . S
C345 C347 1.561 . S
C345 C348 1.526 . S
C346 H330 0.959 . S
C346 H331 0.959 . S
C346 H332 0.961 . S
C346 C345 1.502 . S
C347 H333 0.960 1_554 S
C347 H334 0.961 . S
C347 H335 0.959 1_554 S
C347 C345 1.561 . S
C348 C345 1.526 . S
C348 C349 1.396 1_554 S
C348 C353 1.390 . S
C349 C343 1.465 . S
C349 C348 1.396 1_556 S
C349 C350 1.399 . S
C350 H336 0.929 . S
C350 C349 1.399 . S
C350 C351 1.385 1_556 S
C351 H337 0.931 . S
C351 C350 1.385 1_554 S
C351 C352 1.389 . S
C352 C351 1.389 . S
C352 C353 1.387 . S
C353 H338 0.930 . S
C353 C348 1.390 . S
C353 C352 1.387 . S
H354 C366 0.930 . S
H355 C368 0.930 1_556 S
H356 C369 0.930 . S
H357 C373 0.959 . S
H358 C373 0.959 . S
H359 C373 0.961 . S
H360 C374 0.960 . S
H361 C374 0.961 . S
H362 C374 0.959 . S
H363 C377 0.929 . S
H364 C378 0.931 . S
H365 C380 0.930 1_554 S
C366 H354 0.930 . S
C366 C367 1.399 . S
C366 C371 1.399 . S
C367 C366 1.399 . S
C367 C368 1.376 . S
C368 H355 0.930 1_554 S
C368 C367 1.376 . S
C368 C369 1.388 1_554 S
C369 H356 0.930 . S
C369 C368 1.388 1_556 S
C369 C370 1.390 . S
C370 C369 1.390 . S
C370 C371 1.394 1_556 S
C370 C376 1.465 . S
C371 C366 1.399 . S
C371 C370 1.394 1_554 S
C371 C372 1.516 . S
C372 C371 1.516 . S
C372 C373 1.502 . S
C372 C374 1.561 . S
C372 C375 1.526 1_554 S
C373 H357 0.959 . S
C373 H358 0.959 . S
C373 H359 0.961 . S
C373 C372 1.502 . S
C374 H360 0.960 . S
C374 H361 0.961 . S
C374 H362 0.959 . S
C374 C372 1.561 . S
C375 C372 1.526 1_556 S
C375 C376 1.396 . S
C375 C380 1.390 . S
C376 C370 1.465 . S
C376 C375 1.396 . S
C376 C377 1.399 . S
C377 H363 0.929 . S
C377 C376 1.399 . S
C377 C378 1.385 . S
C378 H364 0.931 . S
C378 C377 1.385 . S
C378 C379 1.389 . S
C379 C378 1.389 . S
C379 C380 1.387 . S
C380 H365 0.930 1_556 S
C380 C375 1.390 . S
C380 C379 1.387 . S
H381 C393 0.930 . S
H382 C395 0.930 . S
H383 C396 0.930 . S
H384 C400 0.959 . S
H385 C400 0.959 1_556 S
H386 C400 0.961 . S
H387 C401 0.960 . S
H388 C401 0.961 . S
H389 C401 0.959 . S
H390 C404 0.929 . S
H391 C405 0.931 . S
H392 C407 0.930 . S
C393 H381 0.930 . S
C393 C394 1.399 . S
C393 C398 1.399 . S
C394 C393 1.399 . S
C394 C395 1.376 . S
C395 H382 0.930 . S
C395 C394 1.376 . S
C395 C396 1.388 . S
C396 H383 0.930 . S
C396 C395 1.388 . S
C396 C397 1.390 . S
C397 C396 1.390 . S
C397 C398 1.394 . S
C397 C403 1.465 1_554 S
C398 C393 1.399 . S
C398 C397 1.394 . S
C398 C399 1.516 1_554 S
C399 C398 1.516 1_556 S
C399 C400 1.502 1_556 S
C399 C401 1.561 . S
C399 C402 1.526 . S
C400 H384 0.959 . S
C400 H385 0.959 1_554 S
C400 H386 0.961 . S
C400 C399 1.502 1_554 S
C401 H387 0.960 . S
C401 H388 0.961 . S
C401 H389 0.959 . S
C401 C399 1.561 . S
C402 C399 1.526 . S
C402 C403 1.396 . S
C402 C407 1.390 . S
C403 C397 1.465 1_556 S
C403 C402 1.396 . S
C403 C404 1.399 . S
C404 H390 0.929 . S
C404 C403 1.399 . S
C404 C405 1.385 . S
C405 H391 0.931 . S
C405 C404 1.385 . S
C405 C406 1.389 . S
C406 C405 1.389 . S
C406 C407 1.387 . S
C407 H392 0.930 . S
C407 C402 1.390 . S
C407 C406 1.387 . S
C97 C46 1.839 1_655 S
C109 C4 1.835 1_655 S
C124 C25 1.778 . S
C136 C67 1.780 . S
C151 C70 1.798 . S
C163 C28 1.802 . S
C178 C7 1.848 1_455 S
C190 C49 1.851 1_455 S
C205 C83 1.699 . S
C217 C20 1.653 . S
C232 C62 1.670 . S
C244 C41 1.728 . S
C259 C61 1.670 . S
C271 C40 1.729 . S
C286 C19 1.709 . S
C298 C82 1.646 . S
C313 C66 0.759 . S
C325 C3 0.812 . S
C340 C45 0.545 . S
C352 C24 0.658 . S
C367 C37 0.781 . S
C379 C58 0.666 . S
C394 C16 0.809 . S
C406 C79 0.791 . S
