# Generated by pormake.
# Topology sml, (6)-cn, num edge types: 1
# Building blocks:
#     Node 0, Type 0, BuildingBlock: KUMJIN_clean_sbu_1, # of connection points: 6
#     Node 1, Type 0, BuildingBlock: KUMJIN_clean_sbu_1, # of connection points: 6
#     Node 2, Type 0, BuildingBlock: KUMJIN_clean_sbu_1, # of connection points: 6
#     Node 3, Type 0, BuildingBlock: KUMJIN_clean_sbu_1, # of connection points: 6
#     Node 4, Type 0, BuildingBlock: KUMJIN_clean_sbu_1, # of connection points: 6
#     Node 5, Type 0, BuildingBlock: KUMJIN_clean_sbu_1, # of connection points: 6
#     Edge 6, Type (0, 0), BuildingBlock: KIFKEQ_clean_linker_1, # of connection points: 2
#     Edge 7, Type (0, 0), BuildingBlock: KIFKEQ_clean_linker_1, # of connection points: 2
#     Edge 8, Type (0, 0), BuildingBlock: KIFKEQ_clean_linker_1, # of connection points: 2
#     Edge 9, Type (0, 0), BuildingBlock: KIFKEQ_clean_linker_1, # of connection points: 2
#     Edge 10, Type (0, 0), BuildingBlock: KIFKEQ_clean_linker_1, # of connection points: 2
#     Edge 11, Type (0, 0), BuildingBlock: KIFKEQ_clean_linker_1, # of connection points: 2
#     Edge 12, Type (0, 0), BuildingBlock: KIFKEQ_clean_linker_1, # of connection points: 2
#     Edge 13, Type (0, 0), BuildingBlock: KIFKEQ_clean_linker_1, # of connection points: 2
#     Edge 14, Type (0, 0), BuildingBlock: KIFKEQ_clean_linker_1, # of connection points: 2
#     Edge 15, Type (0, 0), BuildingBlock: KIFKEQ_clean_linker_1, # of connection points: 2
#     Edge 16, Type (0, 0), BuildingBlock: KIFKEQ_clean_linker_1, # of connection points: 2
#     Edge 17, Type (0, 0), BuildingBlock: KIFKEQ_clean_linker_1, # of connection points: 2
#     Edge 18, Type (0, 0), BuildingBlock: KIFKEQ_clean_linker_1, # of connection points: 2
#     Edge 19, Type (0, 0), BuildingBlock: KIFKEQ_clean_linker_1, # of connection points: 2
#     Edge 20, Type (0, 0), BuildingBlock: KIFKEQ_clean_linker_1, # of connection points: 2
#     Edge 21, Type (0, 0), BuildingBlock: KIFKEQ_clean_linker_1, # of connection points: 2
#     Edge 22, Type (0, 0), BuildingBlock: KIFKEQ_clean_linker_1, # of connection points: 2
#     Edge 23, Type (0, 0), BuildingBlock: KIFKEQ_clean_linker_1, # of connection points: 2
# Relax obj value: 0.062
# Max RMSD: 0.174
# Mean RMSD: 0.174
data_MOF--net-sml--node1-KUMJIN_clean_sbu_1--edge1-KIFKEQ_clean_linker_1
_symmetry_space_group_name_H-M    P1
_symmetry_Int_Tables_number       1
_symmetry_cell_setting            triclinic
loop_
_symmetry_equiv_pos_as_xyz
'x, y, z'
_cell_length_a     33.734625
_cell_length_b     33.723657
_cell_length_c     24.510923
_cell_angle_alpha  90.051545
_cell_angle_beta   89.905716
_cell_angle_gamma 119.81194
loop_
_atom_site_label
_atom_site_type_symbol
_atom_site_fract_x
_atom_site_fract_y
_atom_site_fract_z
_atom_type_partial_charge
Eu0 Eu 0.17322 0.42976 0.9443 0.0
C1 C 0.34935 0.44751 0.06796 0.0
N2 N 0.30771 0.40932 0.06244 0.0
C3 C 0.34306 0.36397 0.04603 0.0
C4 C 0.38977 0.44524 0.06214 0.0
C5 C 0.30391 0.36783 0.05218 0.0
C6 C 0.38617 0.40282 0.05097 0.0
C7 C 0.39442 0.52951 0.08291 0.0
C8 C 0.35164 0.4893 0.07823 0.0
C9 C 0.43469 0.52721 0.07756 0.0
C10 C 0.43238 0.48525 0.0672 0.0
Eu11 Eu 0.24414 0.41955 0.0742 0.0
N12 N 0.31207 0.49087 0.08132 0.0
C13 C 0.39547 0.57097 0.09237 0.0
C14 C 0.3129 0.53094 0.09211 0.0
C15 C 0.35455 0.57162 0.09725 0.0
H16 H 0.27062 0.33757 0.0497 0.0
H17 H 0.35505 0.60343 0.10526 0.0
H18 H 0.13064 0.49724 0.97766 0.0
H19 H 0.08466 0.24643 0.89641 0.0
H20 H 0.28171 0.53182 0.09718 0.0
H21 H 0.42766 0.6026 0.09621 0.0
H22 H 0.1509 0.32313 0.90576 0.0
H23 H 0.33996 0.33101 0.03777 0.0
H24 H 0.46785 0.55777 0.08106 0.0
H25 H 0.4638 0.48414 0.06289 0.0
H26 H 0.0551 0.49118 0.99075 0.0
H27 H 0.41644 0.3997 0.04619 0.0
H28 H 0.0068 0.23384 0.91168 0.0
N29 N 0.10287 0.427 0.95815 0.0
C30 C 0.06466 0.38574 0.9508 0.0
C31 C 0.05732 0.46127 0.97967 0.0
C32 C 0.0209 0.3807 0.95811 0.0
C33 C 0.09998 0.46457 0.97245 0.0
C34 C 0.01759 0.41917 0.97245 0.0
N35 N 0.11222 0.35391 0.93185 0.0
C36 C 0.11775 0.31828 0.91541 0.0
C37 C 0.03025 0.30475 0.93102 0.0
C38 C 0.06943 0.34815 0.93769 0.0
C39 C 0.03602 0.2677 0.91711 0.0
C40 C 0.07993 0.27462 0.90877 0.0
H41 H 0.98459 0.4167 0.97827 0.0
H42 H 0.94805 0.33298 0.95689 0.0
H43 H 0.9562 0.26658 0.93306 0.0
O44 O 0.18301 0.42561 0.8554 0.0
O45 O 0.13441 0.39702 0.02191 0.0
O46 O 0.1722 0.36203 0.05692 0.0
O47 O 0.16509 0.47496 0.8883 0.0
O48 O 0.21739 0.39709 0.93182 0.0
O49 O 0.21388 0.36131 0.01341 0.0
O50 O 0.23391 0.43064 0.16003 0.0
O51 O 0.28566 0.45867 0.9995 0.0
O52 O 0.24251 0.48801 0.96667 0.0
O53 O 0.25532 0.3819 0.13888 0.0
O54 O 0.20555 0.4582 0.08728 0.0
O55 O 0.20005 0.48876 1.00443 0.0
C56 C 0.1365 0.36787 0.05553 0.0
C57 C 0.17562 0.4774 0.79053 0.0
C58 C 0.17569 0.47291 0.69088 0.0
C59 C 0.17719 0.51529 0.68813 0.0
C60 C 0.17699 0.51963 0.78635 0.0
C61 C 0.17795 0.53842 0.73551 0.0
C62 C 0.17553 0.45424 0.74248 0.0
C63 C 0.22421 0.36837 0.96122 0.0
C64 C 0.17462 0.45869 0.84533 0.0
C65 C 0.98195 0.33751 0.95149 0.0
C66 C 0.98661 0.29967 0.93804 0.0
C67 C 0.2799 0.48556 0.96573 0.0
C68 C 0.2126 0.3683 0.22055 0.0
C69 C 0.18586 0.35543 0.31518 0.0
C70 C 0.15843 0.30861 0.30368 0.0
C71 C 0.18551 0.32128 0.21038 0.0
C72 C 0.21248 0.38527 0.27301 0.0
C73 C 0.15821 0.29179 0.25158 0.0
C74 C 0.1976 0.48644 0.05825 0.0
C75 C 0.24299 0.39964 0.17798 0.0
H76 H 0.17818 0.53081 0.6491 0.0
H77 H 0.17759 0.53841 0.82251 0.0
H78 H 0.17924 0.57108 0.73281 0.0
H79 H 0.17434 0.42159 0.74516 0.0
H80 H 0.13701 0.28499 0.33501 0.0
H81 H 0.18572 0.30725 0.17071 0.0
H82 H 0.23409 0.42142 0.28135 0.0
H83 H 0.13711 0.25564 0.24325 0.0
Eu84 Eu 0.84125 0.26161 0.42497 0.0
C85 C 0.6549 0.12113 0.30514 0.0
N86 N 0.69267 0.11713 0.31177 0.0
C87 C 0.64632 0.03816 0.33534 0.0
C88 C 0.61098 0.08376 0.31539 0.0
C89 C 0.68909 0.07627 0.3249 0.0
C90 C 0.60707 0.04203 0.33111 0.0
C91 C 0.62162 0.16784 0.28045 0.0
C92 C 0.66033 0.16274 0.28789 0.0
C93 C 0.57785 0.13108 0.29199 0.0
C94 C 0.57254 0.08912 0.30929 0.0
Eu95 Eu 0.76368 0.18233 0.29433 0.0
N96 N 0.70319 0.19761 0.27668 0.0
C97 C 0.62792 0.20941 0.26044 0.0
C98 C 0.70898 0.23698 0.25358 0.0
C99 C 0.67172 0.24386 0.24622 0.0
H100 H 0.71924 0.07303 0.32657 0.0
H101 H 0.67675 0.27549 0.22869 0.0
H102 H 0.8727 0.37029 0.38593 0.0
H103 H 0.94796 0.19233 0.49364 0.0
H104 H 0.74182 0.26283 0.2391 0.0
H105 H 0.5991 0.21471 0.2542 0.0
H106 H 0.87564 0.19228 0.47654 0.0
H107 H 0.64363 0.00583 0.34629 0.0
H108 H 0.5478 0.1345 0.28675 0.0
H109 H 0.53854 0.06089 0.3173 0.0
H110 H 0.94278 0.44085 0.36136 0.0
H111 H 0.57393 0.01247 0.3392 0.0
H112 H 0.02183 0.2602 0.46949 0.0
N113 N 0.90645 0.33212 0.40083 0.0
C114 C 0.94756 0.33438 0.40787 0.0
C115 C 0.94457 0.41092 0.37347 0.0
C116 C 0.98884 0.37484 0.39607 0.0
C117 C 0.90462 0.37027 0.38622 0.0
C118 C 0.98683 0.41307 0.37771 0.0
N119 N 0.90847 0.25851 0.44106 0.0
C120 C 0.90778 0.22176 0.46534 0.0
C121 C 0.99071 0.29856 0.43894 0.0
C122 C 0.94864 0.29683 0.42936 0.0
C123 C 0.99025 0.26025 0.46168 0.0
C124 C 0.94861 0.22181 0.47527 0.0
H125 H 0.01773 0.4448 0.36841 0.0
H126 H 0.06276 0.40707 0.3953 0.0
H127 H 0.06438 0.34023 0.43253 0.0
O128 O 0.82053 0.24038 0.51096 0.0
O129 O 0.87508 0.2347 0.3658 0.0
O130 O 0.83711 0.23701 0.29167 0.0
O131 O 0.85767 0.3125 0.48812 0.0
O132 O 0.80084 0.18521 0.43731 0.0
O133 O 0.79199 0.14951 0.353 0.0
O134 O 0.75006 0.17397 0.20626 0.0
O135 O 0.72747 0.17417 0.37508 0.0
O136 O 0.77081 0.24782 0.40183 0.0
O137 O 0.77928 0.13655 0.24706 0.0
O138 O 0.80367 0.25998 0.28265 0.0
O139 O 0.81279 0.29508 0.36731 0.0
C140 C 0.87033 0.23301 0.31265 0.0
C141 C 0.83763 0.29743 0.58368 0.0
C142 C 0.82993 0.28439 0.68233 0.0
C143 C 0.84053 0.32987 0.69004 0.0
C144 C 0.8478 0.3427 0.59281 0.0
C145 C 0.84905 0.35864 0.64556 0.0
C146 C 0.82787 0.26788 0.62881 0.0
C147 C 0.79215 0.14939 0.4071 0.0
C148 C 0.83853 0.28268 0.52697 0.0
C149 C 0.03079 0.37636 0.40438 0.0
C150 C 0.03173 0.33833 0.42575 0.0
C151 C 0.73447 0.20768 0.40794 0.0
C152 C 0.76682 0.12492 0.14875 0.0
C153 C 0.77176 0.12685 0.04874 0.0
C154 C 0.77125 0.08486 0.05017 0.0
C155 C 0.76643 0.08315 0.14865 0.0
C156 C 0.76943 0.14675 0.0986 0.0
C157 C 0.76846 0.06326 0.09965 0.0
C158 C 0.81125 0.29544 0.31338 0.0
C159 C 0.76569 0.14577 0.20141 0.0
H160 H 0.84196 0.3431 0.73074 0.0
H161 H 0.85496 0.36604 0.55907 0.0
H162 H 0.85696 0.39358 0.652 0.0
H163 H 0.82002 0.2329 0.62256 0.0
H164 H 0.77392 0.06898 0.01298 0.0
H165 H 0.7645 0.06577 0.18656 0.0
H166 H 0.76984 0.17909 0.09845 0.0
H167 H 0.76827 0.03107 0.10002 0.0
Eu168 Eu 0.57916 0.74015 0.60369 0.0
C169 C 0.55639 0.89426 0.73247 0.0
N170 N 0.59614 0.8943 0.72322 0.0
C171 C 0.63434 0.97447 0.70339 0.0
C172 C 0.554 0.93464 0.72652 0.0
C173 C 0.63496 0.93357 0.70947 0.0
C174 C 0.59364 0.97499 0.71175 0.0
C175 C 0.4758 0.85232 0.75582 0.0
C176 C 0.51768 0.85344 0.74681 0.0
C177 C 0.4733 0.89244 0.74972 0.0
C178 C 0.51228 0.93347 0.73516 0.0
Eu179 Eu 0.59432 0.82396 0.73412 0.0
N180 N 0.52088 0.81482 0.75131 0.0
C181 C 0.43765 0.81094 0.77099 0.0
C182 C 0.4843 0.77507 0.76891 0.0
C183 C 0.44208 0.77229 0.77814 0.0
H184 H 0.66665 0.9335 0.70439 0.0
H185 H 0.4131 0.74044 0.79145 0.0
H186 H 0.50724 0.63158 0.63901 0.0
H187 H 0.76161 0.82464 0.55262 0.0
H188 H 0.48744 0.74564 0.7774 0.0
H189 H 0.40489 0.80867 0.77829 0.0
H190 H 0.68795 0.82043 0.56836 0.0
H191 H 0.66527 0.00557 0.69251 0.0
H192 H 0.44138 0.89214 0.75635 0.0
H193 H 0.50979 0.96413 0.73067 0.0
H194 H 0.50804 0.55891 0.64771 0.0
H195 H 0.59322 0.00672 0.70689 0.0
H196 H 0.76809 0.75498 0.55949 0.0
N197 N 0.57694 0.66986 0.61534 0.0
C198 C 0.61625 0.66954 0.60405 0.0
C199 C 0.53871 0.58979 0.63559 0.0
C200 C 0.61822 0.62886 0.60852 0.0
C201 C 0.53843 0.63098 0.63102 0.0
C202 C 0.57874 0.58868 0.62421 0.0
N203 N 0.65275 0.74964 0.58814 0.0
C204 C 0.69009 0.79 0.57357 0.0
C205 C 0.6968 0.71128 0.58026 0.0
C206 C 0.65519 0.71048 0.59015 0.0
C207 C 0.7355 0.75296 0.56725 0.0
C208 C 0.73204 0.7924 0.56364 0.0
H209 H 0.57887 0.55673 0.62797 0.0
H210 H 0.66162 0.59865 0.601 0.0
H211 H 0.73034 0.67083 0.57619 0.0
O212 O 0.58196 0.75446 0.51538 0.0
O213 O 0.61724 0.73532 0.67705 0.0
O214 O 0.64965 0.80856 0.70814 0.0
O215 O 0.53186 0.68766 0.54802 0.0
O216 O 0.6142 0.81678 0.58855 0.0
O217 O 0.64975 0.85353 0.66905 0.0
O218 O 0.59182 0.81003 0.82292 0.0
O219 O 0.55527 0.82812 0.66073 0.0
O220 O 0.52384 0.75476 0.63097 0.0
O221 O 0.64301 0.87573 0.78895 0.0
O222 O 0.55864 0.74691 0.74852 0.0
O223 O 0.52292 0.71169 0.66747 0.0
C224 C 0.6453 0.76777 0.70998 0.0
C225 C 0.53023 0.69652 0.44994 0.0
C226 C 0.53386 0.7051 0.35076 0.0
C227 C 0.49712 0.66035 0.34589 0.0
C228 C 0.49313 0.65195 0.4439 0.0
C229 C 0.4767 0.63414 0.39222 0.0
C230 C 0.55019 0.72341 0.40299 0.0
C231 C 0.64311 0.85362 0.61596 0.0
C232 C 0.54871 0.7133 0.50509 0.0
C233 C 0.65951 0.62961 0.59796 0.0
C234 C 0.69865 0.67069 0.58391 0.0
C235 C 0.52741 0.7951 0.62819 0.0
C236 C 0.64702 0.86779 0.88659 0.0
C237 C 0.6466 0.86174 0.98628 0.0
C238 C 0.68895 0.90255 0.98773 0.0
C239 C 0.68907 0.90867 0.8897 0.0
C240 C 0.62587 0.84414 0.93515 0.0
C241 C 0.70983 0.92575 0.93987 0.0
C242 C 0.52837 0.71098 0.72073 0.0
C243 C 0.62653 0.85057 0.83227 0.0
H244 H 0.48397 0.64581 0.30606 0.0
H245 H 0.477 0.63051 0.47914 0.0
H246 H 0.44823 0.59972 0.38806 0.0
H247 H 0.57887 0.75781 0.40684 0.0
H248 H 0.70641 0.91641 0.02601 0.0
H249 H 0.7063 0.92746 0.85318 0.0
H250 H 0.59328 0.81276 0.93322 0.0
H251 H 0.74241 0.95709 0.94168 0.0
Eu252 Eu 0.74426 0.58205 0.10053 0.0
C253 C 0.9008 0.56179 0.97463 0.0
N254 N 0.89927 0.60085 0.98327 0.0
C255 C 0.97911 0.64134 1.0046 0.0
C256 C 0.94193 0.56103 0.98141 0.0
C257 C 0.93756 0.64044 0.99753 0.0
C258 C 0.98132 0.60146 0.99656 0.0
C259 C 0.86116 0.48078 0.95292 0.0
C260 C 0.86072 0.52202 0.96062 0.0
C261 C 0.90217 0.48004 0.95926 0.0
C262 C 0.94241 0.52002 0.97346 0.0
Eu263 Eu 0.82799 0.5962 0.96968 0.0
N264 N 0.8211 0.52339 0.95634 0.0
C265 C 0.82028 0.44137 0.9393 0.0
C266 C 0.78157 0.4854 0.94122 0.0
C267 C 0.78042 0.44379 0.93308 0.0
H268 H 0.93618 0.67155 1.00253 0.0
H269 H 0.74881 0.41367 0.92158 0.0
H270 H 0.63512 0.51289 0.06633 0.0
H271 H 0.83359 0.76426 0.15388 0.0
H272 H 0.75097 0.4869 0.93442 0.0
H273 H 0.8192 0.40904 0.93303 0.0
H274 H 0.82671 0.68942 0.13807 0.0
H275 H 0.00942 0.6728 0.01601 0.0
H276 H 0.90309 0.44864 0.95351 0.0
H277 H 0.9737 0.5188 0.97847 0.0
H278 H 0.56379 0.5163 0.05802 0.0
H279 H 0.01356 0.60226 1.00216 0.0
H280 H 0.76567 0.77366 0.14641 0.0
N281 N 0.67511 0.58232 0.09042 0.0
C282 C 0.67627 0.62235 0.10163 0.0
C283 C 0.59519 0.54637 0.07019 0.0
C284 C 0.63645 0.62589 0.09711 0.0
C285 C 0.63559 0.54459 0.07468 0.0
C286 C 0.59559 0.58717 0.08151 0.0
N287 N 0.7561 0.6564 0.11762 0.0
C288 C 0.797 0.69281 0.13258 0.0
C289 C 0.72019 0.70279 0.12534 0.0
C290 C 0.71785 0.66043 0.11545 0.0
C291 C 0.76245 0.74055 0.13862 0.0
C292 C 0.80092 0.73543 0.14258 0.0
H293 H 0.56427 0.5885 0.07771 0.0
H294 H 0.60853 0.67131 0.10407 0.0
H295 H 0.68171 0.73855 0.12884 0.0
O296 O 0.75826 0.58255 0.18896 0.0
O297 O 0.7393 0.61979 0.02676 0.0
O298 O 0.81219 0.65173 0.99367 0.0
O299 O 0.69176 0.53341 0.15482 0.0
O300 O 0.8209 0.61549 0.11488 0.0
O301 O 0.85473 0.65197 0.03399 0.0
O302 O 0.81388 0.59096 0.88104 0.0
O303 O 0.83095 0.55641 0.04306 0.0
O304 O 0.75767 0.52653 0.07131 0.0
O305 O 0.88002 0.64292 0.91321 0.0
O306 O 0.75114 0.56008 0.95421 0.0
O307 O 0.71439 0.52641 0.03579 0.0
C308 C 0.77125 0.64714 0.99268 0.0
C309 C 0.7001 0.52688 0.25183 0.0
C310 C 0.70542 0.52659 0.35154 0.0
C311 C 0.6662 0.48292 0.35222 0.0
C312 C 0.66081 0.48349 0.25411 0.0
C313 C 0.64414 0.46173 0.30394 0.0
C314 C 0.72255 0.54835 0.30075 0.0
C315 C 0.85704 0.64385 0.0861 0.0
C316 C 0.71736 0.54831 0.19798 0.0
C317 C 0.63876 0.66795 0.10737 0.0
C318 C 0.68048 0.70627 0.1214 0.0
C319 C 0.79747 0.52924 0.07545 0.0
C320 C 0.87188 0.64195 0.81482 0.0
C321 C 0.86307 0.6378 0.71558 0.0
C322 C 0.90853 0.6732 0.7104 0.0
C323 C 0.91717 0.67756 0.80832 0.0
C324 C 0.84456 0.62244 0.76808 0.0
C325 C 0.93522 0.69307 0.75649 0.0
C326 C 0.71459 0.53105 0.98217 0.0
C327 C 0.85482 0.62453 0.87033 0.0
H328 H 0.65283 0.46461 0.39017 0.0
H329 H 0.64312 0.46599 0.2172 0.0
H330 H 0.6141 0.42809 0.30513 0.0
H331 H 0.75274 0.58194 0.2993 0.0
H332 H 0.92333 0.68576 0.6705 0.0
H333 H 0.93901 0.69323 0.84335 0.0
H334 H 0.80964 0.59481 0.77232 0.0
H335 H 0.97018 0.72041 0.75201 0.0
Eu336 Eu 0.26977 0.84131 0.27021 0.0
C337 C 0.10931 0.66999 0.39806 0.0
N338 N 0.1128 0.71134 0.38856 0.0
C339 C 0.03311 0.67511 0.36692 0.0
C340 C 0.06723 0.62926 0.39144 0.0
C341 C 0.07553 0.71455 0.37388 0.0
C342 C 0.02893 0.63227 0.37562 0.0
C343 C 0.14581 0.62579 0.4217 0.0
C344 C 0.14829 0.66832 0.41297 0.0
C345 C 0.10388 0.58521 0.41537 0.0
C346 C 0.06473 0.58693 0.4003 0.0
Eu347 Eu 0.1856 0.77585 0.40126 0.0
N348 N 0.18885 0.70818 0.41716 0.0
C349 C 0.18563 0.62526 0.43629 0.0
C350 C 0.22734 0.7078 0.43327 0.0
C351 C 0.22646 0.66646 0.44247 0.0
H352 H 0.07842 0.74766 0.36838 0.0
H353 H 0.25725 0.66641 0.45472 0.0
H354 H 0.37868 0.87977 0.30404 0.0
H355 H 0.1817 0.93628 0.21822 0.0
H356 H 0.2587 0.73908 0.44002 0.0
H357 H 0.18513 0.5933 0.44335 0.0
H358 H 0.18844 0.86793 0.23092 0.0
H359 H 1.00363 0.67779 0.35507 0.0
H360 H 0.1014 0.55226 0.42185 0.0
H361 H 0.0327 0.55529 0.39536 0.0
H362 H 0.45003 0.95386 0.31479 0.0
H363 H 0.99602 0.60176 0.37011 0.0
H364 H 0.24928 0.01296 0.22992 0.0
N365 N 0.33899 0.91014 0.28167 0.0
C366 C 0.33796 0.94934 0.27231 0.0
C367 C 0.41875 0.95304 0.30291 0.0
C368 C 0.37776 0.99231 0.27832 0.0
C369 C 0.37837 0.91124 0.29696 0.0
C370 C 0.41848 0.99376 0.29349 0.0
N371 N 0.2583 0.90444 0.25487 0.0
C372 C 0.21783 0.90063 0.23878 0.0
C373 C 0.29435 0.98675 0.25046 0.0
C374 C 0.2965 0.94645 0.25886 0.0
C375 C 0.25235 0.98285 0.23665 0.0
C376 C 0.21407 0.93962 0.23032 0.0
H377 H 0.44977 0.02611 0.29841 0.0
H378 H 0.40582 0.06565 0.27429 0.0
H379 H 0.33294 0.06084 0.24971 0.0
O380 O 0.25612 0.82963 0.18203 0.0
O381 O 0.27741 0.88334 0.3451 0.0
O382 O 0.20428 0.84802 0.37719 0.0
O383 O 0.32227 0.84461 0.21531 0.0
O384 O 0.19318 0.7994 0.25583 0.0
O385 O 0.16077 0.80578 0.3359 0.0
O386 O 0.20037 0.78648 0.48975 0.0
O387 O 0.1815 0.73111 0.32913 0.0
O388 O 0.25473 0.77181 0.29885 0.0
O389 O 0.13475 0.77396 0.45728 0.0
O390 O 0.26259 0.81256 0.41608 0.0
O391 O 0.29881 0.81398 0.33434 0.0
C392 C 0.2463 0.88237 0.37792 0.0
C393 C 0.31308 0.83257 0.11732 0.0
C394 C 0.30255 0.82274 0.01873 0.0
C395 C 0.34484 0.82454 0.01421 0.0
C396 C 0.3555 0.83453 0.11173 0.0
C397 C 0.37119 0.83055 0.06048 0.0
C398 C 0.28661 0.82681 0.07037 0.0
C399 C 0.1576 0.7936 0.28438 0.0
C400 C 0.29675 0.83567 0.17227 0.0
C401 C 0.37559 0.03235 0.26986 0.0
C402 C 0.33403 0.02959 0.25599 0.0
C403 C 0.21435 0.73544 0.29664 0.0
C404 C 0.14377 0.78428 0.55524 0.0
C405 C 0.15096 0.78769 0.65466 0.0
C406 C 0.10818 0.7851 0.65861 0.0
C407 C 0.10114 0.78193 0.56055 0.0
C408 C 0.16904 0.78782 0.60266 0.0
C409 C 0.08365 0.78249 0.61185 0.0
C410 C 0.2985 0.81795 0.38809 0.0
C411 C 0.16013 0.78134 0.50014 0.0
H412 H 0.35748 0.82137 0.9747 0.0
H413 H 0.37654 0.83884 0.14705 0.0
H414 H 0.40384 0.83196 0.05664 0.0
H415 H 0.25377 0.82512 0.07386 0.0
H416 H 0.0938 0.78535 0.69809 0.0
H417 H 0.08099 0.77933 0.52496 0.0
H418 H 0.20184 0.78939 0.59933 0.0
H419 H 0.05075 0.78058 0.61541 0.0
Eu420 Eu 0.43566 0.16792 0.77042 0.0
C421 C 0.44321 0.33982 0.64359 0.0
N422 N 0.40639 0.2979 0.65301 0.0
C423 C 0.36052 0.33191 0.67418 0.0
C424 C 0.44008 0.37976 0.6499 0.0
C425 C 0.36525 0.29331 0.66743 0.0
C426 C 0.39811 0.37535 0.66551 0.0
C427 C 0.52344 0.38604 0.61964 0.0
C428 C 0.48447 0.3429 0.6286 0.0
C429 C 0.52036 0.42584 0.62576 0.0
C430 C 0.47882 0.42272 0.64083 0.0
Eu431 Eu 0.41772 0.23492 0.64091 0.0
N432 N 0.48685 0.30382 0.62456 0.0
C433 C 0.56449 0.38794 0.60515 0.0
C434 C 0.52643 0.30547 0.60879 0.0
C435 C 0.56589 0.34747 0.59939 0.0
H436 H 0.33586 0.25974 0.6729 0.0
H437 H 0.59731 0.34857 0.58739 0.0
H438 H 0.50251 0.12596 0.73231 0.0
H439 H 0.2528 0.07844 0.82193 0.0
H440 H 0.52788 0.27467 0.60275 0.0
H441 H 0.59517 0.42041 0.59794 0.0
H442 H 0.32929 0.14485 0.81236 0.0
H443 H 0.32785 0.32814 0.68582 0.0
H444 H 0.54996 0.45926 0.6191 0.0
H445 H 0.47706 0.45376 0.64552 0.0
H446 H 0.49641 0.05055 0.71697 0.0
H447 H 0.39434 0.40521 0.6708 0.0
H448 H 0.24016 1.00083 0.80437 0.0
N449 N 0.43271 0.09776 0.75423 0.0
C450 C 0.39163 0.0594 0.76215 0.0
C451 C 0.4667 0.05259 0.72955 0.0
C452 C 0.38652 0.01576 0.7534 0.0
C453 C 0.47004 0.09514 0.73811 0.0
C454 C 0.42478 0.01271 0.73726 0.0
N455 N 0.35985 0.10671 0.78343 0.0
C456 C 0.3244 0.11191 0.80147 0.0
C457 C 0.31086 0.02465 0.78349 0.0
C458 C 0.35414 0.06398 0.77666 0.0
C459 C 0.27393 0.03016 0.79877 0.0
C460 C 0.28087 0.07394 0.80836 0.0
H461 H 0.42226 0.97979 0.73029 0.0
H462 H 0.3389 0.94289 0.75367 0.0
H463 H 0.27275 0.95059 0.78023 0.0
O464 O 0.43177 0.17448 0.85958 0.0
O465 O 0.40386 0.12852 0.69315 0.0
O466 O 0.36446 0.16328 0.66563 0.0
O467 O 0.48282 0.16014 0.82414 0.0
O468 O 0.40333 0.21192 0.7864 0.0
O469 O 0.36391 0.20549 0.70728 0.0
O470 O 0.42158 0.22131 0.55292 0.0
O471 O 0.46019 0.27962 0.71199 0.0
O472 O 0.49173 0.2386 0.74728 0.0
O473 O 0.36969 0.23657 0.5837 0.0
O474 O 0.45994 0.20003 0.62632 0.0
O475 O 0.49345 0.19671 0.70826 0.0
C476 C 0.37266 0.1293 0.66234 0.0
C477 C 0.48279 0.16519 0.9231 0.0
C478 C 0.47963 0.16887 0.02257 0.0
C479 C 0.51385 0.15687 0.0264 0.0
C480 C 0.51736 0.1537 0.92815 0.0
C481 C 0.53277 0.14969 0.97946 0.0
C482 C 0.46434 0.17342 0.97069 0.0
C483 C 0.37381 0.21842 0.75841 0.0
C484 C 0.4652 0.1664 0.86825 0.0
C485 C 0.34346 0.97669 0.76021 0.0
C486 C 0.30576 0.98111 0.77518 0.0
C487 C 0.48844 0.27567 0.74553 0.0
C488 C 0.36674 0.22204 0.48672 0.0
C489 C 0.36903 0.21633 0.38716 0.0
C490 C 0.32607 0.21358 0.38436 0.0
C491 C 0.32403 0.21955 0.48224 0.0
C492 C 0.38913 0.22003 0.4389 0.0
C493 C 0.30389 0.21521 0.43148 0.0
C494 C 0.4905 0.19481 0.65436 0.0
C495 C 0.3868 0.2268 0.54168 0.0
H496 H 0.52623 0.15345 0.06589 0.0
H497 H 0.53221 0.14722 0.89241 0.0
H498 H 0.55928 0.14064 0.98287 0.0
H499 H 0.43761 0.18225 0.96758 0.0
H500 H 0.30918 0.20959 0.34554 0.0
H501 H 0.30585 0.22072 0.51813 0.0
H502 H 0.4222 0.22221 0.44182 0.0
H503 H 0.27084 0.21302 0.42864 0.0
H504 H 0.41303 0.29075 0.82634 0.0
H505 H 0.28346 0.19443 0.75485 0.0
H506 H 0.37618 0.3264 0.87665 0.0
H507 H 0.24618 0.22958 0.80656 0.0
H508 H 0.20266 0.27881 0.96956 0.0
H509 H 0.23783 0.24108 0.9187 0.0
H510 H 0.33066 0.36935 0.84154 0.0
H511 H 0.295 0.40656 0.89094 0.0
C512 C 0.37658 0.27714 0.8217 0.0
C513 C 0.35092 0.23992 0.78696 0.0
C514 C 0.35562 0.29754 0.85031 0.0
C515 C 0.30841 0.28039 0.84569 0.0
C516 C 0.2826 0.24302 0.81107 0.0
C517 C 0.30384 0.22321 0.78135 0.0
C518 C 0.23063 0.29872 0.94177 0.0
C519 C 0.24612 0.34537 0.93382 0.0
C520 C 0.25044 0.27721 0.91255 0.0
C521 C 0.28666 0.30241 0.87614 0.0
C522 C 0.30273 0.34926 0.86931 0.0
C523 C 0.2823 0.37042 0.89742 0.0
H524 H 0.06488 0.38208 0.07228 0.0
H525 H 0.11994 0.297 0.12489 0.0
H526 H 1.00162 0.34309 0.135 0.0
H527 H 0.05669 0.25882 0.19037 0.0
H528 H 0.95767 0.25099 0.33916 0.0
H529 H 0.02352 0.28009 0.27718 0.0
H530 H 0.93505 0.2621 0.14108 0.0
H531 H 0.87022 0.23447 0.20225 0.0
C532 C 0.06358 0.35495 0.09716 0.0
C533 C 0.09779 0.3428 0.09368 0.0
C534 C 0.02724 0.33266 0.13331 0.0
C535 C 0.02418 0.29784 0.16743 0.0
C536 C 0.05847 0.28579 0.16471 0.0
C537 C 0.09471 0.30775 0.12755 0.0
C538 C 0.95239 0.25323 0.29611 0.0
C539 C 0.90904 0.24218 0.27611 0.0
C540 C 0.98995 0.26939 0.26057 0.0
C541 C 0.98442 0.27423 0.20454 0.0
C542 C 0.94047 0.25971 0.18425 0.0
C543 C 0.90329 0.2438 0.21947 0.0
H544 H 0.77913 0.06697 0.36727 0.0
H545 H 0.77299 0.13334 0.51558 0.0
H546 H 0.74709 0.99425 0.41659 0.0
H547 H 0.74259 0.06165 0.56432 0.0
H548 H 0.72167 0.93164 0.64663 0.0
H549 H 0.76307 0.00296 0.59527 0.0
H550 H 0.66983 0.94194 0.46046 0.0
H551 H 0.62768 0.87133 0.51203 0.0
C552 C 0.77109 0.0662 0.41016 0.0
C553 C 0.77775 0.10595 0.43692 0.0
C554 C 0.75296 0.02463 0.43844 0.0
C555 C 0.74225 0.0223 0.49429 0.0
C556 C 0.75091 0.06241 0.52148 0.0
C557 C 0.76828 0.10359 0.49322 0.0
C558 C 0.70975 0.93355 0.60627 0.0
C559 C 0.67075 0.89606 0.58403 0.0
C560 C 0.73367 0.97427 0.5767 0.0
C561 C 0.71963 0.978 0.52386 0.0
C562 C 0.68177 0.93994 0.50082 0.0
C563 C 0.65752 0.89953 0.5306 0.0
H564 H 0.68328 0.81142 0.80611 0.0
H565 H 0.66674 0.69988 0.70376 0.0
H566 H 0.71955 0.78809 0.87596 0.0
H567 H 0.70434 0.67791 0.77229 0.0
H568 H 0.81053 0.67941 0.89309 0.0
H569 H 0.78597 0.71448 0.82308 0.0
H570 H 0.68307 0.70882 0.93272 0.0
H571 H 0.70639 0.67258 1.00171 0.0
C572 C 0.68813 0.78256 0.79804 0.0
C573 C 0.67203 0.75745 0.74944 0.0
C574 C 0.7088 0.76923 0.83796 0.0
C575 C 0.71486 0.73141 0.82918 0.0
C576 C 0.70049 0.70751 0.77973 0.0
C577 C 0.67883 0.72006 0.74056 0.0
C578 C 0.78312 0.68625 0.90245 0.0
C579 C 0.76038 0.67322 0.9529 0.0
C580 C 0.76905 0.70617 0.86242 0.0
C581 C 0.73286 0.71449 0.87281 0.0
C582 C 0.7114 0.7032 0.924 0.0
C583 C 0.72467 0.68229 0.9634 0.0
H584 H 0.09152 0.81811 0.29004 0.0
H585 H 0.12367 0.72126 0.21619 0.0
H586 H 0.01838 0.78294 0.24043 0.0
H587 H 0.05038 0.6855 0.16814 0.0
H588 H 0.88826 0.60649 0.15978 0.0
H589 H 0.96131 0.64364 0.20833 0.0
H590 H 0.9983 0.77051 0.12621 0.0
H591 H 0.92539 0.73287 0.07619 0.0
C592 C 0.08276 0.78925 0.26343 0.0
C593 C 0.11305 0.77243 0.25653 0.0
C594 C 0.04126 0.76938 0.23499 0.0
C595 C 0.02915 0.73179 0.20044 0.0
C596 C 0.05912 0.71452 0.19448 0.0
C597 C 0.10095 0.73502 0.22176 0.0
C598 C 0.91199 0.64235 0.1522 0.0
C599 C 0.90135 0.667 0.11453 0.0
C600 C 0.95369 0.66345 0.17978 0.0
C601 C 0.98502 0.70987 0.17116 0.0
C602 C 0.97435 0.73472 0.13375 0.0
C603 C 0.93297 0.71326 0.10507 0.0
H604 H 0.39218 0.06247 0.63737 0.0
H605 H 0.3007 0.11283 0.59486 0.0
H606 H 0.35736 0.00357 0.56837 0.0
H607 H 0.26544 0.05273 0.525 0.0
H608 H 0.19327 0.89722 0.45189 0.0
H609 H 0.22009 0.95809 0.521 0.0
H610 H 0.35814 0.01293 0.46203 0.0
H611 H 0.33212 0.95329 0.39375 0.0
C612 C 0.3643 0.06079 0.6137 0.0
C613 C 0.34925 0.09248 0.62164 0.0
C614 C 0.3445 0.02704 0.574 0.0
C615 C 0.30893 0.02383 0.54138 0.0
C616 C 0.29274 0.05451 0.54999 0.0
C617 C 0.31301 0.08889 0.58966 0.0
C618 C 0.22921 0.92265 0.45336 0.0
C619 C 0.26049 0.92029 0.41733 0.0
C620 C 0.24444 0.95745 0.49266 0.0
C621 C 0.29113 0.98986 0.49678 0.0
C622 C 0.322 0.98812 0.45988 0.0
C623 C 0.30691 0.95391 0.4206 0.0
H624 H 0.22814 0.43499 0.66082 0.0
H625 H 0.11997 0.45766 0.60408 0.0
H626 H 0.23227 0.40611 0.57031 0.0
H627 H 0.12363 0.42859 0.51436 0.0
H628 H 0.18009 0.43047 0.34577 0.0
H629 H 0.17754 0.45607 0.43829 0.0
H630 H 0.1903 0.3441 0.50394 0.0
H631 H 0.19381 0.31912 0.41134 0.0
C632 C 0.20474 0.43301 0.62932 0.0
C633 C 0.17417 0.44913 0.63922 0.0
C634 C 0.20715 0.41663 0.57748 0.0
C635 C 0.17892 0.41599 0.53478 0.0
C636 C 0.14679 0.4299 0.54581 0.0
C637 C 0.14448 0.44627 0.5973 0.0
C638 C 0.18283 0.41165 0.37997 0.0
C639 C 0.18676 0.37259 0.37131 0.0
C640 C 0.18091 0.42599 0.43299 0.0
C641 C 0.18317 0.40178 0.47856 0.0
C642 C 0.18853 0.36353 0.46982 0.0
C643 C 0.19013 0.34901 0.41679 0.0
H644 H 0.82374 0.21819 0.0234 0.0
H645 H 0.73009 0.08735 0.95211 0.0
H646 H 0.83637 0.2538 0.93377 0.0
H647 H 0.74468 0.12219 0.86225 0.0
H648 H 0.75117 0.2077 0.71276 0.0
H649 H 0.73426 0.16993 0.80182 0.0
H650 H 0.87423 0.25944 0.85128 0.0
H651 H 0.88996 0.29806 0.76329 0.0
C652 C 0.80557 0.19704 0.98872 0.0
C653 C 0.77624 0.14976 0.99508 0.0
C654 C 0.81338 0.21732 0.93699 0.0
C655 C 0.79222 0.19085 0.89016 0.0
C656 C 0.76158 0.14388 0.89701 0.0
C657 C 0.75357 0.12372 0.94868 0.0
C658 C 0.77834 0.21852 0.74251 0.0
C659 C 0.82183 0.2556 0.73131 0.0
C660 C 0.76875 0.19705 0.79368 0.0
C661 C 0.80266 0.21198 0.8345 0.0
C662 C 0.84681 0.24773 0.82179 0.0
C663 C 0.85612 0.26946 0.77105 0.0
H664 H 0.53564 0.78306 0.31789 0.0
H665 H 0.57666 0.68573 0.27003 0.0
H666 H 0.55865 0.81979 0.22864 0.0
H667 H 0.60233 0.72365 0.18191 0.0
H668 H 0.60299 0.76966 1.00934 0.0
H669 H 0.57561 0.73306 0.09792 0.0
H670 H 0.61809 0.86508 0.17074 0.0
H671 H 0.64218 0.90075 0.08201 0.0
C672 C 0.55072 0.77036 0.28855 0.0
C673 C 0.55449 0.73175 0.30053 0.0
C674 C 0.56396 0.79131 0.23732 0.0
C675 C 0.582 0.7745 0.19734 0.0
C676 C 0.58743 0.73687 0.2107 0.0
C677 C 0.5734 0.7155 0.26148 0.0
C678 C 0.60551 0.79063 0.0441 0.0
C679 C 0.62531 0.83822 0.03861 0.0
C680 C 0.59053 0.76979 0.09523 0.0
C681 C 0.59524 0.79608 0.14213 0.0
C682 C 0.61351 0.84345 0.13593 0.0
C683 C 0.62794 0.8641 0.08492 0.0
H684 H 0.78144 0.63061 0.68694 0.0
H685 H 0.88466 0.60028 0.63082 0.0
H686 H 0.74345 0.60756 0.59845 0.0
H687 H 0.84611 0.57543 0.54324 0.0
H688 H 0.79744 0.57582 0.37381 0.0
H689 H 0.83371 0.60325 0.46226 0.0
H690 H 0.70072 0.55003 0.53741 0.0
H691 H 0.66504 0.52594 0.44867 0.0
C692 C 0.79539 0.6181 0.65589 0.0
C693 C 0.83605 0.61746 0.6654 0.0
C694 C 0.77377 0.60499 0.60501 0.0
C695 C 0.79212 0.59051 0.56277 0.0
C696 C 0.8317 0.58787 0.57372 0.0
C697 C 0.85353 0.60151 0.6242 0.0
C698 C 0.77606 0.57092 0.40904 0.0
C699 C 0.72825 0.54799 0.40412 0.0
C700 C 0.79679 0.58592 0.46011 0.0
C701 C 0.77025 0.57799 0.50768 0.0
C702 C 0.72254 0.55692 0.50214 0.0
C703 C 0.70193 0.54249 0.45109 0.0
H704 H 0.11843 0.72857 0.73965 0.0
H705 H 0.2378 0.85165 0.68497 0.0
H706 H 0.15321 0.73657 0.82905 0.0
H707 H 0.27324 0.85959 0.77468 0.0
H708 H 0.29672 0.88755 0.95909 0.0
H709 H 0.26134 0.87789 0.86902 0.0
H710 H 0.21515 0.73324 0.87527 0.0
H711 H 0.25028 0.74328 0.96522 0.0
C712 C 0.15247 0.75704 0.74672 0.0
C713 C 0.17542 0.78956 0.70561 0.0
C714 C 0.17245 0.76158 0.79784 0.0
C715 C 0.21581 0.79897 0.80922 0.0
C716 C 0.23947 0.8308 0.76743 0.0
C717 C 0.21954 0.82599 0.71593 0.0
C718 C 0.27821 0.85369 0.94133 0.0
C719 C 0.27559 0.81602 0.96883 0.0
C720 C 0.25855 0.84819 0.88962 0.0
C721 C 0.2358 0.80485 0.86473 0.0
C722 C 0.23216 0.76701 0.89336 0.0
C723 C 0.25208 0.77262 0.9448 0.0
H724 H 0.41294 0.1678 0.36499 0.0
H725 H 0.37555 0.26104 0.29206 0.0
H726 H 0.4407 0.15828 0.27658 0.0
H727 H 0.40027 0.24946 0.20351 0.0
H728 H 0.4809 0.24669 0.05581 0.0
H729 H 0.45943 0.26194 0.14537 0.0
H730 H 0.41276 0.12195 0.19274 0.0
H731 H 0.43675 0.10804 0.1043 0.0
C732 C 0.41102 0.18656 0.33021 0.0
C733 C 0.39149 0.21471 0.33548 0.0
C734 C 0.42621 0.18055 0.27921 0.0
C735 C 0.42204 0.20241 0.23225 0.0
C736 C 0.40438 0.23214 0.23835 0.0
C737 C 0.38966 0.23843 0.28923 0.0
C738 C 0.46558 0.21924 0.08539 0.0
C739 C 0.46048 0.17628 0.07343 0.0
C740 C 0.45323 0.22783 0.1368 0.0
C741 C 0.43478 0.19335 0.17703 0.0
C742 C 0.42808 0.1498 0.16377 0.0
C743 C 0.44118 0.14154 0.11281 0.0
H744 H 0.16916 0.48068 0.16325 0.0
H745 H 0.21228 0.56965 0.02251 0.0
H746 H 0.16784 0.54037 0.21779 0.0
H747 H 0.21051 0.62942 0.07726 0.0
H748 H 0.27067 0.73838 0.2153 0.0
H749 H 0.25977 0.67723 0.15375 0.0
H750 H 0.12988 0.58716 0.22994 0.0
H751 H 0.14068 0.64862 0.29183 0.0
C752 C 0.17785 0.51284 0.1438 0.0
C753 C 0.19142 0.52074 0.08879 0.0
C754 C 0.17669 0.54687 0.17496 0.0
C755 C 0.18938 0.58963 0.15187 0.0
C756 C 0.20105 0.59689 0.09622 0.0
C757 C 0.20181 0.56263 0.06484 0.0
C758 C 0.23969 0.70561 0.21895 0.0
C759 C 0.20676 0.69819 0.25889 0.0
C760 C 0.23326 0.67071 0.18325 0.0
C761 C 0.19392 0.62748 0.18693 0.0
C762 C 0.16066 0.62012 0.22641 0.0
C763 C 0.16687 0.65528 0.26185 0.0
H764 H 0.74145 0.26687 0.48827 0.0
H765 H 0.64847 0.13428 0.42012 0.0
H766 H 0.6823 0.25881 0.55198 0.0
H767 H 0.58925 0.1265 0.48353 0.0
H768 H 0.57552 0.21305 0.68762 0.0
H769 H 0.63515 0.21201 0.63159 0.0
H770 H 0.54377 0.16608 0.49339 0.0
H771 H 0.48436 0.16683 0.54906 0.0
C772 C 0.70847 0.23592 0.48699 0.0
C773 C 0.69943 0.20148 0.44856 0.0
C774 C 0.67472 0.23118 0.5238 0.0
C775 C 0.63113 0.1921 0.52258 0.0
C776 C 0.62242 0.1572 0.48501 0.0
C777 C 0.65635 0.16169 0.44866 0.0
C778 C 0.56805 0.2022 0.64548 0.0
C779 C 0.52541 0.1904 0.62262 0.0
C780 C 0.60223 0.20187 0.61337 0.0
C781 C 0.59413 0.18913 0.5581 0.0
C782 C 0.55091 0.1757 0.53594 0.0
C783 C 0.517 0.17648 0.56777 0.0
H784 H 0.3664 0.49769 0.95949 0.0
H785 H 0.27723 0.5403 0.88577 0.0
H786 H 0.42745 0.54737 0.89708 0.0
H787 H 0.33819 0.58978 0.8236 0.0
H788 H 0.44306 0.64467 0.68869 0.0
H789 H 0.38339 0.58613 0.74595 0.0
H790 H 0.47634 0.63073 0.88266 0.0
H791 H 0.53611 0.6887 0.82542 0.0
C792 C 0.35984 0.51774 0.93022 0.0
C793 C 0.31713 0.51547 0.92812 0.0
C794 C 0.39481 0.54613 0.89442 0.0
C795 C 0.38756 0.57235 0.85535 0.0
C796 C 0.34463 0.56953 0.85276 0.0
C797 C 0.30985 0.5415 0.88881 0.0
C798 C 0.45102 0.64139 0.73065 0.0
C799 C 0.49419 0.67151 0.75265 0.0
C800 C 0.41673 0.60815 0.76355 0.0
C801 C 0.42508 0.60417 0.81891 0.0
C802 C 0.46894 0.63278 0.8401 0.0
C803 C 0.50309 0.66615 0.80735 0.0
H804 H 0.84589 0.3235 0.2121 0.0
H805 H 0.78974 0.35941 0.3495 0.0
H806 H 0.8468 0.38464 0.15871 0.0
H807 H 0.79126 0.42158 0.29597 0.0
H808 H 0.7376 0.47382 0.15318 0.0
H809 H 0.74705 0.42333 0.21613 0.0
H810 H 0.88151 0.46772 0.15003 0.0
H811 H 0.87203 0.51812 0.08672 0.0
C812 C 0.83435 0.345 0.23113 0.0
C813 C 0.81735 0.33655 0.28474 0.0
C814 C 0.83521 0.38027 0.20066 0.0
C815 C 0.8189 0.40779 0.22303 0.0
C816 C 0.8036 0.40055 0.27751 0.0
C817 C 0.80306 0.36531 0.30826 0.0
C818 C 0.76926 0.47296 0.15216 0.0
C819 C 0.80386 0.49958 0.11451 0.0
C820 C 0.77484 0.44436 0.18865 0.0
C821 C 0.81503 0.44157 0.18807 0.0
C822 C 0.84999 0.46887 0.15111 0.0
C823 C 0.84454 0.49771 0.11484 0.0
H824 H 0.36568 0.80032 0.35415 0.0
H825 H 0.31929 0.84408 0.49423 0.0
H826 H 0.42486 0.79896 0.41013 0.0
H827 H 0.37797 0.84219 0.55005 0.0
H828 H 0.474 0.73857 0.54708 0.0
H829 H 0.42318 0.74937 0.48621 0.0
H830 H 0.46184 0.8788 0.56333 0.0
H831 H 0.51281 0.86808 0.62439 0.0
C832 C 0.36845 0.81021 0.39664 0.0
C833 C 0.33756 0.82193 0.41988 0.0
C834 C 0.40211 0.80909 0.42876 0.0
C835 C 0.4058 0.82013 0.48456 0.0
C836 C 0.37618 0.83378 0.50713 0.0
C837 C 0.34236 0.83456 0.47519 0.0
C838 C 0.47173 0.76937 0.55111 0.0
C839 C 0.49712 0.80225 0.59099 0.0
C840 C 0.44292 0.77573 0.51585 0.0
C841 C 0.43859 0.81497 0.51992 0.0
C842 C 0.46424 0.84806 0.55951 0.0
C843 C 0.49345 0.84191 0.59446 0.0
H844 H 0.6464 0.44747 0.01662 0.0
H845 H 0.69441 0.53602 0.87554 0.0
H846 H 0.58789 0.38678 0.96063 0.0
H847 H 0.63619 0.47513 0.81963 0.0
H848 H 0.5434 0.27609 0.82699 0.0
H849 H 0.59306 0.33916 0.8863 0.0
H850 H 0.55176 0.42629 0.80483 0.0
H851 H 0.50163 0.36293 0.74522 0.0
C852 C 0.64404 0.45426 0.97392 0.0
C853 C 0.67531 0.49642 0.9504 0.0
C854 C 0.61075 0.41938 0.94179 0.0
C855 C 0.60781 0.4261 0.88567 0.0
C856 C 0.63751 0.46903 0.86279 0.0
C857 C 0.67101 0.50378 0.89479 0.0
C858 C 0.54488 0.30868 0.82146 0.0
C859 C 0.51892 0.31459 0.78081 0.0
C860 C 0.57302 0.34469 0.85592 0.0
C861 C 0.57613 0.38758 0.85038 0.0
C862 C 0.5502 0.39363 0.8098 0.0
C863 C 0.52157 0.35736 0.7756 0.0
loop_
_geom_bond_atom_site_label_1
_geom_bond_atom_site_label_2
_geom_bond_distance
_geom_bond_site_symmetry_2
_ccdc_geom_bond_type
Eu0 N29 2.600 . S
Eu0 N35 2.562 . S
Eu0 O44 2.462 . S
Eu0 O45 2.373 1_556 S
Eu0 O47 2.432 . S
Eu0 O48 2.291 . S
Eu0 O52 2.335 . S
Eu0 O55 2.372 . S
Eu0 C64 2.787 . S
C1 N2 1.365 . S
C1 C4 1.405 . S
C1 C8 1.448 . S
N2 C1 1.365 . S
N2 C5 1.319 . S
N2 Eu11 2.600 . S
C3 C5 1.397 . S
C3 C6 1.367 . S
C3 H23 0.931 . S
C4 C1 1.405 . S
C4 C6 1.403 . S
C4 C10 1.439 . S
C5 N2 1.319 . S
C5 C3 1.397 . S
C5 H16 0.930 . S
C6 C3 1.367 . S
C6 C4 1.403 . S
C6 H27 0.929 . S
C7 C8 1.430 . S
C7 C9 1.387 . S
C7 C13 1.404 . S
C8 C1 1.448 . S
C8 C7 1.430 . S
C8 N12 1.351 . S
C9 C7 1.387 . S
C9 C10 1.374 . S
C9 H24 0.931 . S
C10 C4 1.439 . S
C10 C9 1.374 . S
C10 H25 0.931 . S
Eu11 N2 2.600 . S
Eu11 N12 2.562 . S
Eu11 O46 2.335 . S
Eu11 O49 2.372 . S
Eu11 O50 2.462 . S
Eu11 O51 2.373 1_554 S
Eu11 O53 2.432 . S
Eu11 O54 2.291 . S
Eu11 C75 2.787 . S
N12 C8 1.351 . S
N12 Eu11 2.562 . S
N12 C14 1.325 . S
C13 C7 1.404 . S
C13 C15 1.366 . S
C13 H21 0.930 . S
C14 N12 1.325 . S
C14 C15 1.416 . S
C14 H20 0.929 . S
C15 C13 1.366 . S
C15 C14 1.416 . S
C15 H17 0.930 . S
H16 C5 0.930 . S
H17 C15 0.930 . S
H18 C33 0.930 . S
H19 C40 0.930 . S
H20 C14 0.929 . S
H21 C13 0.930 . S
H22 C36 0.929 . S
H23 C3 0.931 . S
H24 C9 0.931 . S
H25 C10 0.931 . S
H26 C31 0.931 . S
H27 C6 0.929 . S
H28 C39 0.930 1_655 S
N29 Eu0 2.600 . S
N29 C30 1.365 . S
N29 C33 1.319 . S
C30 N29 1.365 . S
C30 C32 1.405 . S
C30 C38 1.448 . S
C31 H26 0.931 . S
C31 C33 1.397 . S
C31 C34 1.367 . S
C32 C30 1.405 . S
C32 C34 1.403 . S
C32 C65 1.439 1_455 S
C33 H18 0.930 . S
C33 N29 1.319 . S
C33 C31 1.397 . S
C34 C31 1.367 . S
C34 C32 1.403 . S
C34 H41 0.929 1_455 S
N35 Eu0 2.562 . S
N35 C36 1.325 . S
N35 C38 1.351 . S
C36 H22 0.929 . S
C36 N35 1.325 . S
C36 C40 1.416 . S
C37 C38 1.430 . S
C37 C39 1.404 . S
C37 C66 1.387 1_455 S
C38 C30 1.448 . S
C38 N35 1.351 . S
C38 C37 1.430 . S
C39 H28 0.930 1_455 S
C39 C37 1.404 . S
C39 C40 1.366 . S
C40 H19 0.930 . S
C40 C36 1.416 . S
C40 C39 1.366 . S
H41 C34 0.929 1_655 S
H42 C65 0.931 . S
H43 C66 0.931 . S
O44 Eu0 2.462 . S
O44 C64 1.252 . S
O45 Eu0 2.373 1_554 S
O45 C56 1.249 . S
O46 Eu11 2.335 . S
O46 C56 1.264 . S
O47 Eu0 2.432 . S
O47 C64 1.268 . S
O48 Eu0 2.291 . S
O48 C63 1.255 . S
O49 Eu11 2.372 . S
O49 C63 1.257 1_554 S
O50 Eu11 2.462 . S
O50 C75 1.252 . S
O51 Eu11 2.373 1_556 S
O51 C67 1.249 . S
O52 Eu0 2.335 . S
O52 C67 1.264 . S
O53 Eu11 2.432 . S
O53 C75 1.268 . S
O54 Eu11 2.291 . S
O54 C74 1.255 . S
O55 Eu0 2.372 . S
O55 C74 1.257 1_556 S
C56 O45 1.249 . S
C56 O46 1.264 . S
C57 C60 1.382 . S
C57 C62 1.390 . S
C57 C64 1.506 . S
C58 C59 1.398 . S
C58 C62 1.392 . S
C59 C58 1.398 . S
C59 C61 1.372 . S
C59 H76 0.931 . S
C60 C57 1.382 . S
C60 C61 1.390 . S
C60 H77 0.931 . S
C61 C59 1.372 . S
C61 C60 1.390 . S
C61 H78 0.929 . S
C62 C57 1.390 . S
C62 C58 1.392 . S
C62 H79 0.930 . S
C63 O48 1.255 . S
C63 O49 1.257 1_556 S
C64 Eu0 2.787 . S
C64 O44 1.252 . S
C64 O47 1.268 . S
C64 C57 1.506 . S
C65 C32 1.439 1_655 S
C65 H42 0.931 . S
C65 C66 1.374 . S
C66 C37 1.387 1_655 S
C66 H43 0.931 . S
C66 C65 1.374 . S
C67 O51 1.249 . S
C67 O52 1.264 . S
C68 C71 1.382 . S
C68 C72 1.390 . S
C68 C75 1.506 . S
C69 C70 1.398 . S
C69 C72 1.392 . S
C70 C69 1.398 . S
C70 C73 1.372 . S
C70 H80 0.931 . S
C71 C68 1.382 . S
C71 C73 1.390 . S
C71 H81 0.931 . S
C72 C68 1.390 . S
C72 C69 1.392 . S
C72 H82 0.930 . S
C73 C70 1.372 . S
C73 C71 1.390 . S
C73 H83 0.929 . S
C74 O54 1.255 . S
C74 O55 1.257 1_554 S
C75 Eu11 2.787 . S
C75 O50 1.252 . S
C75 O53 1.268 . S
C75 C68 1.506 . S
H76 C59 0.931 . S
H77 C60 0.931 . S
H78 C61 0.929 . S
H79 C62 0.930 . S
H80 C70 0.931 . S
H81 C71 0.931 . S
H82 C72 0.930 . S
H83 C73 0.929 . S
Eu84 N113 2.600 . S
Eu84 N119 2.562 . S
Eu84 O128 2.462 . S
Eu84 O129 2.373 . S
Eu84 O131 2.432 . S
Eu84 O132 2.291 . S
Eu84 O136 2.335 . S
Eu84 O139 2.372 . S
Eu84 C148 2.787 . S
C85 N86 1.365 . S
C85 C88 1.405 . S
C85 C92 1.448 . S
N86 C85 1.365 . S
N86 C89 1.319 . S
N86 Eu95 2.600 . S
C87 C89 1.397 . S
C87 C90 1.367 . S
C87 H107 0.931 1_545 S
C88 C85 1.405 . S
C88 C90 1.403 . S
C88 C94 1.439 . S
C89 N86 1.319 . S
C89 C87 1.397 . S
C89 H100 0.930 . S
C90 C87 1.367 . S
C90 C88 1.403 . S
C90 H111 0.929 1_545 S
C91 C92 1.430 . S
C91 C93 1.387 . S
C91 C97 1.404 . S
C92 C85 1.448 . S
C92 C91 1.430 . S
C92 N96 1.351 . S
C93 C91 1.387 . S
C93 C94 1.374 . S
C93 H108 0.931 . S
C94 C88 1.439 . S
C94 C93 1.374 . S
C94 H109 0.931 . S
Eu95 N86 2.600 . S
Eu95 N96 2.562 . S
Eu95 O130 2.335 . S
Eu95 O133 2.372 . S
Eu95 O134 2.462 . S
Eu95 O135 2.373 . S
Eu95 O137 2.432 . S
Eu95 O138 2.291 . S
Eu95 C159 2.787 . S
N96 C92 1.351 . S
N96 Eu95 2.562 . S
N96 C98 1.325 . S
C97 C91 1.404 . S
C97 C99 1.366 . S
C97 H105 0.930 . S
C98 N96 1.325 . S
C98 C99 1.416 . S
C98 H104 0.929 . S
C99 C97 1.366 . S
C99 C98 1.416 . S
C99 H101 0.930 . S
H100 C89 0.930 . S
H101 C99 0.930 . S
H102 C117 0.930 . S
H103 C124 0.930 . S
H104 C98 0.929 . S
H105 C97 0.930 . S
H106 C120 0.929 . S
H107 C87 0.931 1_565 S
H108 C93 0.931 . S
H109 C94 0.931 . S
H110 C115 0.931 . S
H111 C90 0.929 1_565 S
H112 C123 0.930 1_455 S
N113 Eu84 2.600 . S
N113 C114 1.365 . S
N113 C117 1.319 . S
C114 N113 1.365 . S
C114 C116 1.405 . S
C114 C122 1.448 . S
C115 H110 0.931 . S
C115 C117 1.397 . S
C115 C118 1.367 . S
C116 C114 1.405 . S
C116 C118 1.403 . S
C116 C149 1.439 1_655 S
C117 H102 0.930 . S
C117 N113 1.319 . S
C117 C115 1.397 . S
C118 C115 1.367 . S
C118 C116 1.403 . S
C118 H125 0.929 1_655 S
N119 Eu84 2.562 . S
N119 C120 1.325 . S
N119 C122 1.351 . S
C120 H106 0.929 . S
C120 N119 1.325 . S
C120 C124 1.416 . S
C121 C122 1.430 . S
C121 C123 1.404 . S
C121 C150 1.387 1_655 S
C122 C114 1.448 . S
C122 N119 1.351 . S
C122 C121 1.430 . S
C123 H112 0.930 1_655 S
C123 C121 1.404 . S
C123 C124 1.366 . S
C124 H103 0.930 . S
C124 C120 1.416 . S
C124 C123 1.366 . S
H125 C118 0.929 1_455 S
H126 C149 0.931 . S
H127 C150 0.931 . S
O128 Eu84 2.462 . S
O128 C148 1.252 . S
O129 Eu84 2.373 . S
O129 C140 1.249 . S
O130 Eu95 2.335 . S
O130 C140 1.264 . S
O131 Eu84 2.432 . S
O131 C148 1.268 . S
O132 Eu84 2.291 . S
O132 C147 1.255 . S
O133 Eu95 2.372 . S
O133 C147 1.257 . S
O134 Eu95 2.462 . S
O134 C159 1.252 . S
O135 Eu95 2.373 . S
O135 C151 1.249 . S
O136 Eu84 2.335 . S
O136 C151 1.264 . S
O137 Eu95 2.432 . S
O137 C159 1.268 . S
O138 Eu95 2.291 . S
O138 C158 1.255 . S
O139 Eu84 2.372 . S
O139 C158 1.257 . S
C140 O129 1.249 . S
C140 O130 1.264 . S
C141 C144 1.382 . S
C141 C146 1.390 . S
C141 C148 1.506 . S
C142 C143 1.398 . S
C142 C146 1.392 . S
C143 C142 1.398 . S
C143 C145 1.372 . S
C143 H160 0.931 . S
C144 C141 1.382 . S
C144 C145 1.390 . S
C144 H161 0.931 . S
C145 C143 1.372 . S
C145 C144 1.390 . S
C145 H162 0.929 . S
C146 C141 1.390 . S
C146 C142 1.392 . S
C146 H163 0.930 . S
C147 O132 1.255 . S
C147 O133 1.257 . S
C148 Eu84 2.787 . S
C148 O128 1.252 . S
C148 O131 1.268 . S
C148 C141 1.506 . S
C149 C116 1.439 1_455 S
C149 H126 0.931 . S
C149 C150 1.374 . S
C150 C121 1.387 1_455 S
C150 H127 0.931 . S
C150 C149 1.374 . S
C151 O135 1.249 . S
C151 O136 1.264 . S
C152 C155 1.382 . S
C152 C156 1.390 . S
C152 C159 1.506 . S
C153 C154 1.398 . S
C153 C156 1.392 . S
C154 C153 1.398 . S
C154 C157 1.372 . S
C154 H164 0.931 1_554 S
C155 C152 1.382 . S
C155 C157 1.390 . S
C155 H165 0.931 . S
C156 C152 1.390 . S
C156 C153 1.392 . S
C156 H166 0.930 . S
C157 C154 1.372 . S
C157 C155 1.390 . S
C157 H167 0.929 . S
C158 O138 1.255 . S
C158 O139 1.257 . S
C159 Eu95 2.787 . S
C159 O134 1.252 . S
C159 O137 1.268 . S
C159 C152 1.506 . S
H160 C143 0.931 . S
H161 C144 0.931 . S
H162 C145 0.929 . S
H163 C146 0.930 . S
H164 C154 0.931 1_556 S
H165 C155 0.931 . S
H166 C156 0.930 . S
H167 C157 0.929 . S
Eu168 N197 2.600 . S
Eu168 N203 2.562 . S
Eu168 O212 2.462 . S
Eu168 O213 2.373 . S
Eu168 O215 2.432 . S
Eu168 O216 2.291 . S
Eu168 O220 2.335 . S
Eu168 O223 2.372 . S
Eu168 C232 2.787 . S
C169 N170 1.365 . S
C169 C172 1.405 . S
C169 C176 1.448 . S
N170 C169 1.365 . S
N170 C173 1.319 . S
N170 Eu179 2.600 . S
C171 C173 1.397 . S
C171 C174 1.367 . S
C171 H191 0.931 1_565 S
C172 C169 1.405 . S
C172 C174 1.403 . S
C172 C178 1.439 . S
C173 N170 1.319 . S
C173 C171 1.397 . S
C173 H184 0.930 . S
C174 C171 1.367 . S
C174 C172 1.403 . S
C174 H195 0.929 1_565 S
C175 C176 1.430 . S
C175 C177 1.387 . S
C175 C181 1.404 . S
C176 C169 1.448 . S
C176 C175 1.430 . S
C176 N180 1.351 . S
C177 C175 1.387 . S
C177 C178 1.374 . S
C177 H192 0.931 . S
C178 C172 1.439 . S
C178 C177 1.374 . S
C178 H193 0.931 . S
Eu179 N170 2.600 . S
Eu179 N180 2.562 . S
Eu179 O214 2.335 . S
Eu179 O217 2.372 . S
Eu179 O218 2.462 . S
Eu179 O219 2.373 . S
Eu179 O221 2.432 . S
Eu179 O222 2.291 . S
Eu179 C243 2.787 . S
N180 C176 1.351 . S
N180 Eu179 2.562 . S
N180 C182 1.325 . S
C181 C175 1.404 . S
C181 C183 1.366 . S
C181 H189 0.930 . S
C182 N180 1.325 . S
C182 C183 1.416 . S
C182 H188 0.929 . S
C183 C181 1.366 . S
C183 C182 1.416 . S
C183 H185 0.930 . S
H184 C173 0.930 . S
H185 C183 0.930 . S
H186 C201 0.930 . S
H187 C208 0.930 . S
H188 C182 0.929 . S
H189 C181 0.930 . S
H190 C204 0.929 . S
H191 C171 0.931 1_545 S
H192 C177 0.931 . S
H193 C178 0.931 . S
H194 C199 0.931 . S
H195 C174 0.929 1_545 S
H196 C207 0.930 . S
N197 Eu168 2.600 . S
N197 C198 1.365 . S
N197 C201 1.319 . S
C198 N197 1.365 . S
C198 C200 1.405 . S
C198 C206 1.448 . S
C199 H194 0.931 . S
C199 C201 1.397 . S
C199 C202 1.367 . S
C200 C198 1.405 . S
C200 C202 1.403 . S
C200 C233 1.439 . S
C201 H186 0.930 . S
C201 N197 1.319 . S
C201 C199 1.397 . S
C202 C199 1.367 . S
C202 C200 1.403 . S
C202 H209 0.929 . S
N203 Eu168 2.562 . S
N203 C204 1.325 . S
N203 C206 1.351 . S
C204 H190 0.929 . S
C204 N203 1.325 . S
C204 C208 1.416 . S
C205 C206 1.430 . S
C205 C207 1.404 . S
C205 C234 1.387 . S
C206 C198 1.448 . S
C206 N203 1.351 . S
C206 C205 1.430 . S
C207 H196 0.930 . S
C207 C205 1.404 . S
C207 C208 1.366 . S
C208 H187 0.930 . S
C208 C204 1.416 . S
C208 C207 1.366 . S
H209 C202 0.929 . S
H210 C233 0.931 . S
H211 C234 0.931 . S
O212 Eu168 2.462 . S
O212 C232 1.252 . S
O213 Eu168 2.373 . S
O213 C224 1.249 . S
O214 Eu179 2.335 . S
O214 C224 1.264 . S
O215 Eu168 2.432 . S
O215 C232 1.268 . S
O216 Eu168 2.291 . S
O216 C231 1.255 . S
O217 Eu179 2.372 . S
O217 C231 1.257 . S
O218 Eu179 2.462 . S
O218 C243 1.252 . S
O219 Eu179 2.373 . S
O219 C235 1.249 . S
O220 Eu168 2.335 . S
O220 C235 1.264 . S
O221 Eu179 2.432 . S
O221 C243 1.268 . S
O222 Eu179 2.291 . S
O222 C242 1.255 . S
O223 Eu168 2.372 . S
O223 C242 1.257 . S
C224 O213 1.249 . S
C224 O214 1.264 . S
C225 C228 1.382 . S
C225 C230 1.390 . S
C225 C232 1.506 . S
C226 C227 1.398 . S
C226 C230 1.392 . S
C227 C226 1.398 . S
C227 C229 1.372 . S
C227 H244 0.931 . S
C228 C225 1.382 . S
C228 C229 1.390 . S
C228 H245 0.931 . S
C229 C227 1.372 . S
C229 C228 1.390 . S
C229 H246 0.929 . S
C230 C225 1.390 . S
C230 C226 1.392 . S
C230 H247 0.930 . S
C231 O216 1.255 . S
C231 O217 1.257 . S
C232 Eu168 2.787 . S
C232 O212 1.252 . S
C232 O215 1.268 . S
C232 C225 1.506 . S
C233 C200 1.439 . S
C233 H210 0.931 . S
C233 C234 1.374 . S
C234 C205 1.387 . S
C234 H211 0.931 . S
C234 C233 1.374 . S
C235 O219 1.249 . S
C235 O220 1.264 . S
C236 C239 1.382 . S
C236 C240 1.390 . S
C236 C243 1.506 . S
C237 C238 1.398 1_556 S
C237 C240 1.392 . S
C238 C237 1.398 1_554 S
C238 C241 1.372 1_554 S
C238 H248 0.931 . S
C239 C236 1.382 . S
C239 C241 1.390 . S
C239 H249 0.931 . S
C240 C236 1.390 . S
C240 C237 1.392 . S
C240 H250 0.930 . S
C241 C238 1.372 1_556 S
C241 C239 1.390 . S
C241 H251 0.929 . S
C242 O222 1.255 . S
C242 O223 1.257 . S
C243 Eu179 2.787 . S
C243 O218 1.252 . S
C243 O221 1.268 . S
C243 C236 1.506 . S
H244 C227 0.931 . S
H245 C228 0.931 . S
H246 C229 0.929 . S
H247 C230 0.930 . S
H248 C238 0.931 . S
H249 C239 0.931 . S
H250 C240 0.930 . S
H251 C241 0.929 . S
Eu252 N281 2.600 . S
Eu252 N287 2.562 . S
Eu252 O296 2.462 . S
Eu252 O297 2.373 1_554 S
Eu252 O299 2.432 . S
Eu252 O300 2.291 . S
Eu252 O304 2.335 . S
Eu252 O307 2.372 . S
Eu252 C316 2.787 . S
C253 N254 1.365 . S
C253 C256 1.405 . S
C253 C260 1.448 . S
N254 C253 1.365 . S
N254 C257 1.319 . S
N254 Eu263 2.600 . S
C255 C257 1.397 . S
C255 C258 1.367 . S
C255 H275 0.931 1_655 S
C256 C253 1.405 . S
C256 C258 1.403 . S
C256 C262 1.439 . S
C257 N254 1.319 . S
C257 C255 1.397 . S
C257 H268 0.930 . S
C258 C255 1.367 . S
C258 C256 1.403 . S
C258 H279 0.929 1_655 S
C259 C260 1.430 . S
C259 C261 1.387 . S
C259 C265 1.404 . S
C260 C253 1.448 . S
C260 C259 1.430 . S
C260 N264 1.351 . S
C261 C259 1.387 . S
C261 C262 1.374 . S
C261 H276 0.931 . S
C262 C256 1.439 . S
C262 C261 1.374 . S
C262 H277 0.931 . S
Eu263 N254 2.600 . S
Eu263 N264 2.562 . S
Eu263 O298 2.335 . S
Eu263 O301 2.372 1_556 S
Eu263 O302 2.462 . S
Eu263 O303 2.373 1_556 S
Eu263 O305 2.432 . S
Eu263 O306 2.291 . S
Eu263 C327 2.787 . S
N264 C260 1.351 . S
N264 Eu263 2.562 . S
N264 C266 1.325 . S
C265 C259 1.404 . S
C265 C267 1.366 . S
C265 H273 0.930 . S
C266 N264 1.325 . S
C266 C267 1.416 . S
C266 H272 0.929 . S
C267 C265 1.366 . S
C267 C266 1.416 . S
C267 H269 0.930 . S
H268 C257 0.930 . S
H269 C267 0.930 . S
H270 C285 0.930 . S
H271 C292 0.930 . S
H272 C266 0.929 . S
H273 C265 0.930 . S
H274 C288 0.929 . S
H275 C255 0.931 1_455 S
H276 C261 0.931 . S
H277 C262 0.931 . S
H278 C283 0.931 . S
H279 C258 0.929 1_455 S
H280 C291 0.930 . S
N281 Eu252 2.600 . S
N281 C282 1.365 . S
N281 C285 1.319 . S
C282 N281 1.365 . S
C282 C284 1.405 . S
C282 C290 1.448 . S
C283 H278 0.931 . S
C283 C285 1.397 . S
C283 C286 1.367 . S
C284 C282 1.405 . S
C284 C286 1.403 . S
C284 C317 1.439 . S
C285 H270 0.930 . S
C285 N281 1.319 . S
C285 C283 1.397 . S
C286 C283 1.367 . S
C286 C284 1.403 . S
C286 H293 0.929 . S
N287 Eu252 2.562 . S
N287 C288 1.325 . S
N287 C290 1.351 . S
C288 H274 0.929 . S
C288 N287 1.325 . S
C288 C292 1.416 . S
C289 C290 1.430 . S
C289 C291 1.404 . S
C289 C318 1.387 . S
C290 C282 1.448 . S
C290 N287 1.351 . S
C290 C289 1.430 . S
C291 H280 0.930 . S
C291 C289 1.404 . S
C291 C292 1.366 . S
C292 H271 0.930 . S
C292 C288 1.416 . S
C292 C291 1.366 . S
H293 C286 0.929 . S
H294 C317 0.931 . S
H295 C318 0.931 . S
O296 Eu252 2.462 . S
O296 C316 1.252 . S
O297 Eu252 2.373 1_556 S
O297 C308 1.249 . S
O298 Eu263 2.335 . S
O298 C308 1.264 . S
O299 Eu252 2.432 . S
O299 C316 1.268 . S
O300 Eu252 2.291 . S
O300 C315 1.255 . S
O301 Eu263 2.372 1_554 S
O301 C315 1.257 . S
O302 Eu263 2.462 . S
O302 C327 1.252 . S
O303 Eu263 2.373 1_554 S
O303 C319 1.249 . S
O304 Eu252 2.335 . S
O304 C319 1.264 . S
O305 Eu263 2.432 . S
O305 C327 1.268 . S
O306 Eu263 2.291 . S
O306 C326 1.255 . S
O307 Eu252 2.372 . S
O307 C326 1.257 1_554 S
C308 O297 1.249 . S
C308 O298 1.264 . S
C309 C312 1.382 . S
C309 C314 1.390 . S
C309 C316 1.506 . S
C310 C311 1.398 . S
C310 C314 1.392 . S
C311 C310 1.398 . S
C311 C313 1.372 . S
C311 H328 0.931 . S
C312 C309 1.382 . S
C312 C313 1.390 . S
C312 H329 0.931 . S
C313 C311 1.372 . S
C313 C312 1.390 . S
C313 H330 0.929 . S
C314 C309 1.390 . S
C314 C310 1.392 . S
C314 H331 0.930 . S
C315 O300 1.255 . S
C315 O301 1.257 . S
C316 Eu252 2.787 . S
C316 O296 1.252 . S
C316 O299 1.268 . S
C316 C309 1.506 . S
C317 C284 1.439 . S
C317 H294 0.931 . S
C317 C318 1.374 . S
C318 C289 1.387 . S
C318 H295 0.931 . S
C318 C317 1.374 . S
C319 O303 1.249 . S
C319 O304 1.264 . S
C320 C323 1.382 . S
C320 C324 1.390 . S
C320 C327 1.506 . S
C321 C322 1.398 . S
C321 C324 1.392 . S
C322 C321 1.398 . S
C322 C325 1.372 . S
C322 H332 0.931 . S
C323 C320 1.382 . S
C323 C325 1.390 . S
C323 H333 0.931 . S
C324 C320 1.390 . S
C324 C321 1.392 . S
C324 H334 0.930 . S
C325 C322 1.372 . S
C325 C323 1.390 . S
C325 H335 0.929 . S
C326 O306 1.255 . S
C326 O307 1.257 1_556 S
C327 Eu263 2.787 . S
C327 O302 1.252 . S
C327 O305 1.268 . S
C327 C320 1.506 . S
H328 C311 0.931 . S
H329 C312 0.931 . S
H330 C313 0.929 . S
H331 C314 0.930 . S
H332 C322 0.931 . S
H333 C323 0.931 . S
H334 C324 0.930 . S
H335 C325 0.929 . S
Eu336 N365 2.600 . S
Eu336 N371 2.562 . S
Eu336 O380 2.462 . S
Eu336 O381 2.373 . S
Eu336 O383 2.432 . S
Eu336 O384 2.291 . S
Eu336 O388 2.335 . S
Eu336 O391 2.372 . S
Eu336 C400 2.787 . S
C337 N338 1.365 . S
C337 C340 1.405 . S
C337 C344 1.448 . S
N338 C337 1.365 . S
N338 C341 1.319 . S
N338 Eu347 2.600 . S
C339 C341 1.397 . S
C339 C342 1.367 . S
C339 H359 0.931 1_455 S
C340 C337 1.405 . S
C340 C342 1.403 . S
C340 C346 1.439 . S
C341 N338 1.319 . S
C341 C339 1.397 . S
C341 H352 0.930 . S
C342 C339 1.367 . S
C342 C340 1.403 . S
C342 H363 0.929 1_455 S
C343 C344 1.430 . S
C343 C345 1.387 . S
C343 C349 1.404 . S
C344 C337 1.448 . S
C344 C343 1.430 . S
C344 N348 1.351 . S
C345 C343 1.387 . S
C345 C346 1.374 . S
C345 H360 0.931 . S
C346 C340 1.439 . S
C346 C345 1.374 . S
C346 H361 0.931 . S
Eu347 N338 2.600 . S
Eu347 N348 2.562 . S
Eu347 O382 2.335 . S
Eu347 O385 2.372 . S
Eu347 O386 2.462 . S
Eu347 O387 2.373 . S
Eu347 O389 2.432 . S
Eu347 O390 2.291 . S
Eu347 C411 2.787 . S
N348 C344 1.351 . S
N348 Eu347 2.562 . S
N348 C350 1.325 . S
C349 C343 1.404 . S
C349 C351 1.366 . S
C349 H357 0.930 . S
C350 N348 1.325 . S
C350 C351 1.416 . S
C350 H356 0.929 . S
C351 C349 1.366 . S
C351 C350 1.416 . S
C351 H353 0.930 . S
H352 C341 0.930 . S
H353 C351 0.930 . S
H354 C369 0.930 . S
H355 C376 0.930 . S
H356 C350 0.929 . S
H357 C349 0.930 . S
H358 C372 0.929 . S
H359 C339 0.931 1_655 S
H360 C345 0.931 . S
H361 C346 0.931 . S
H362 C367 0.931 . S
H363 C342 0.929 1_655 S
H364 C375 0.930 1_545 S
N365 Eu336 2.600 . S
N365 C366 1.365 . S
N365 C369 1.319 . S
C366 N365 1.365 . S
C366 C368 1.405 . S
C366 C374 1.448 . S
C367 H362 0.931 . S
C367 C369 1.397 . S
C367 C370 1.367 . S
C368 C366 1.405 . S
C368 C370 1.403 . S
C368 C401 1.439 1_565 S
C369 H354 0.930 . S
C369 N365 1.319 . S
C369 C367 1.397 . S
C370 C367 1.367 . S
C370 C368 1.403 . S
C370 H377 0.929 1_565 S
N371 Eu336 2.562 . S
N371 C372 1.325 . S
N371 C374 1.351 . S
C372 H358 0.929 . S
C372 N371 1.325 . S
C372 C376 1.416 . S
C373 C374 1.430 . S
C373 C375 1.404 . S
C373 C402 1.387 1_565 S
C374 C366 1.448 . S
C374 N371 1.351 . S
C374 C373 1.430 . S
C375 H364 0.930 1_565 S
C375 C373 1.404 . S
C375 C376 1.366 . S
C376 H355 0.930 . S
C376 C372 1.416 . S
C376 C375 1.366 . S
H377 C370 0.929 1_545 S
H378 C401 0.931 . S
H379 C402 0.931 . S
O380 Eu336 2.462 . S
O380 C400 1.252 . S
O381 Eu336 2.373 . S
O381 C392 1.249 . S
O382 Eu347 2.335 . S
O382 C392 1.264 . S
O383 Eu336 2.432 . S
O383 C400 1.268 . S
O384 Eu336 2.291 . S
O384 C399 1.255 . S
O385 Eu347 2.372 . S
O385 C399 1.257 . S
O386 Eu347 2.462 . S
O386 C411 1.252 . S
O387 Eu347 2.373 . S
O387 C403 1.249 . S
O388 Eu336 2.335 . S
O388 C403 1.264 . S
O389 Eu347 2.432 . S
O389 C411 1.268 . S
O390 Eu347 2.291 . S
O390 C410 1.255 . S
O391 Eu336 2.372 . S
O391 C410 1.257 . S
C392 O381 1.249 . S
C392 O382 1.264 . S
C393 C396 1.382 . S
C393 C398 1.390 . S
C393 C400 1.506 . S
C394 C395 1.398 1_554 S
C394 C398 1.392 . S
C395 C394 1.398 1_556 S
C395 C397 1.372 1_556 S
C395 H412 0.931 . S
C396 C393 1.382 . S
C396 C397 1.390 . S
C396 H413 0.931 . S
C397 C395 1.372 1_554 S
C397 C396 1.390 . S
C397 H414 0.929 . S
C398 C393 1.390 . S
C398 C394 1.392 . S
C398 H415 0.930 . S
C399 O384 1.255 . S
C399 O385 1.257 . S
C400 Eu336 2.787 . S
C400 O380 1.252 . S
C400 O383 1.268 . S
C400 C393 1.506 . S
C401 C368 1.439 1_545 S
C401 H378 0.931 . S
C401 C402 1.374 . S
C402 C373 1.387 1_545 S
C402 H379 0.931 . S
C402 C401 1.374 . S
C403 O387 1.249 . S
C403 O388 1.264 . S
C404 C407 1.382 . S
C404 C408 1.390 . S
C404 C411 1.506 . S
C405 C406 1.398 . S
C405 C408 1.392 . S
C406 C405 1.398 . S
C406 C409 1.372 . S
C406 H416 0.931 . S
C407 C404 1.382 . S
C407 C409 1.390 . S
C407 H417 0.931 . S
C408 C404 1.390 . S
C408 C405 1.392 . S
C408 H418 0.930 . S
C409 C406 1.372 . S
C409 C407 1.390 . S
C409 H419 0.929 . S
C410 O390 1.255 . S
C410 O391 1.257 . S
C411 Eu347 2.787 . S
C411 O386 1.252 . S
C411 O389 1.268 . S
C411 C404 1.506 . S
H412 C395 0.931 . S
H413 C396 0.931 . S
H414 C397 0.929 . S
H415 C398 0.930 . S
H416 C406 0.931 . S
H417 C407 0.931 . S
H418 C408 0.930 . S
H419 C409 0.929 . S
Eu420 N449 2.600 . S
Eu420 N455 2.562 . S
Eu420 O464 2.462 . S
Eu420 O465 2.373 . S
Eu420 O467 2.432 . S
Eu420 O468 2.291 . S
Eu420 O472 2.335 . S
Eu420 O475 2.372 . S
Eu420 C484 2.787 . S
C421 N422 1.365 . S
C421 C424 1.405 . S
C421 C428 1.448 . S
N422 C421 1.365 . S
N422 C425 1.319 . S
N422 Eu431 2.600 . S
C423 C425 1.397 . S
C423 C426 1.367 . S
C423 H443 0.931 . S
C424 C421 1.405 . S
C424 C426 1.403 . S
C424 C430 1.439 . S
C425 N422 1.319 . S
C425 C423 1.397 . S
C425 H436 0.930 . S
C426 C423 1.367 . S
C426 C424 1.403 . S
C426 H447 0.929 . S
C427 C428 1.430 . S
C427 C429 1.387 . S
C427 C433 1.404 . S
C428 C421 1.448 . S
C428 C427 1.430 . S
C428 N432 1.351 . S
C429 C427 1.387 . S
C429 C430 1.374 . S
C429 H444 0.931 . S
C430 C424 1.439 . S
C430 C429 1.374 . S
C430 H445 0.931 . S
Eu431 N422 2.600 . S
Eu431 N432 2.562 . S
Eu431 O466 2.335 . S
Eu431 O469 2.372 . S
Eu431 O470 2.462 . S
Eu431 O471 2.373 . S
Eu431 O473 2.432 . S
Eu431 O474 2.291 . S
Eu431 C495 2.787 . S
N432 C428 1.351 . S
N432 Eu431 2.562 . S
N432 C434 1.325 . S
C433 C427 1.404 . S
C433 C435 1.366 . S
C433 H441 0.930 . S
C434 N432 1.325 . S
C434 C435 1.416 . S
C434 H440 0.929 . S
C435 C433 1.366 . S
C435 C434 1.416 . S
C435 H437 0.930 . S
H436 C425 0.930 . S
H437 C435 0.930 . S
H438 C453 0.930 . S
H439 C460 0.930 . S
H440 C434 0.929 . S
H441 C433 0.930 . S
H442 C456 0.929 . S
H443 C423 0.931 . S
H444 C429 0.931 . S
H445 C430 0.931 . S
H446 C451 0.931 . S
H447 C426 0.929 . S
H448 C459 0.930 1_565 S
N449 Eu420 2.600 . S
N449 C450 1.365 . S
N449 C453 1.319 . S
C450 N449 1.365 . S
C450 C452 1.405 . S
C450 C458 1.448 . S
C451 H446 0.931 . S
C451 C453 1.397 . S
C451 C454 1.367 . S
C452 C450 1.405 . S
C452 C454 1.403 . S
C452 C485 1.439 1_545 S
C453 H438 0.930 . S
C453 N449 1.319 . S
C453 C451 1.397 . S
C454 C451 1.367 . S
C454 C452 1.403 . S
C454 H461 0.929 1_545 S
N455 Eu420 2.562 . S
N455 C456 1.325 . S
N455 C458 1.351 . S
C456 H442 0.929 . S
C456 N455 1.325 . S
C456 C460 1.416 . S
C457 C458 1.430 . S
C457 C459 1.404 . S
C457 C486 1.387 1_545 S
C458 C450 1.448 . S
C458 N455 1.351 . S
C458 C457 1.430 . S
C459 H448 0.930 1_545 S
C459 C457 1.404 . S
C459 C460 1.366 . S
C460 H439 0.930 . S
C460 C456 1.416 . S
C460 C459 1.366 . S
H461 C454 0.929 1_565 S
H462 C485 0.931 . S
H463 C486 0.931 . S
O464 Eu420 2.462 . S
O464 C484 1.252 . S
O465 Eu420 2.373 . S
O465 C476 1.249 . S
O466 Eu431 2.335 . S
O466 C476 1.264 . S
O467 Eu420 2.432 . S
O467 C484 1.268 . S
O468 Eu420 2.291 . S
O468 C483 1.255 . S
O469 Eu431 2.372 . S
O469 C483 1.257 . S
O470 Eu431 2.462 . S
O470 C495 1.252 . S
O471 Eu431 2.373 . S
O471 C487 1.249 . S
O472 Eu420 2.335 . S
O472 C487 1.264 . S
O473 Eu431 2.432 . S
O473 C495 1.268 . S
O474 Eu431 2.291 . S
O474 C494 1.255 . S
O475 Eu420 2.372 . S
O475 C494 1.257 . S
C476 O465 1.249 . S
C476 O466 1.264 . S
C477 C480 1.382 . S
C477 C482 1.390 . S
C477 C484 1.506 . S
C478 C479 1.398 . S
C478 C482 1.392 1_554 S
C479 C478 1.398 . S
C479 C481 1.372 1_554 S
C479 H496 0.931 . S
C480 C477 1.382 . S
C480 C481 1.390 . S
C480 H497 0.931 . S
C481 C479 1.372 1_556 S
C481 C480 1.390 . S
C481 H498 0.929 . S
C482 C477 1.390 . S
C482 C478 1.392 1_556 S
C482 H499 0.930 . S
C483 O468 1.255 . S
C483 O469 1.257 . S
C484 Eu420 2.787 . S
C484 O464 1.252 . S
C484 O467 1.268 . S
C484 C477 1.506 . S
C485 C452 1.439 1_565 S
C485 H462 0.931 . S
C485 C486 1.374 . S
C486 C457 1.387 1_565 S
C486 H463 0.931 . S
C486 C485 1.374 . S
C487 O471 1.249 . S
C487 O472 1.264 . S
C488 C491 1.382 . S
C488 C492 1.390 . S
C488 C495 1.506 . S
C489 C490 1.398 . S
C489 C492 1.392 . S
C490 C489 1.398 . S
C490 C493 1.372 . S
C490 H500 0.931 . S
C491 C488 1.382 . S
C491 C493 1.390 . S
C491 H501 0.931 . S
C492 C488 1.390 . S
C492 C489 1.392 . S
C492 H502 0.930 . S
C493 C490 1.372 . S
C493 C491 1.390 . S
C493 H503 0.929 . S
C494 O474 1.255 . S
C494 O475 1.257 . S
C495 Eu431 2.787 . S
C495 O470 1.252 . S
C495 O473 1.268 . S
C495 C488 1.506 . S
H496 C479 0.931 . S
H497 C480 0.931 . S
H498 C481 0.929 . S
H499 C482 0.930 . S
H500 C490 0.931 . S
H501 C491 0.931 . S
H502 C492 0.930 . S
H503 C493 0.929 . S
H504 C512 0.950 . S
H505 C517 0.950 . S
H506 C514 0.950 . S
H507 C516 0.950 . S
H508 C518 0.950 . S
H509 C520 0.950 . S
H510 C522 0.950 . S
H511 C523 0.950 . S
C512 H504 0.950 . S
C512 C513 1.386 . S
C512 C514 1.391 . S
C513 C512 1.386 . S
C513 C517 1.393 . S
C514 H506 0.950 . S
C514 C512 1.391 . S
C514 C515 1.400 . S
C515 C514 1.400 . S
C515 C516 1.398 . S
C515 C521 1.491 . S
C516 H507 0.950 . S
C516 C515 1.398 . S
C516 C517 1.391 . S
C517 H505 0.950 . S
C517 C513 1.393 . S
C517 C516 1.391 . S
C518 H508 0.950 . S
C518 C519 1.386 . S
C518 C520 1.391 . S
C519 C518 1.386 . S
C519 C523 1.393 . S
C520 H509 0.950 . S
C520 C518 1.391 . S
C520 C521 1.400 . S
C521 C515 1.491 . S
C521 C520 1.400 . S
C521 C522 1.398 . S
C522 H510 0.950 . S
C522 C521 1.398 . S
C522 C523 1.391 . S
C523 H511 0.950 . S
C523 C519 1.393 . S
C523 C522 1.391 . S
H524 C532 0.950 . S
H525 C537 0.950 . S
H526 C534 0.950 1_655 S
H527 C536 0.950 . S
H528 C538 0.950 . S
H529 C540 0.950 1_455 S
H530 C542 0.950 . S
H531 C543 0.950 . S
C532 H524 0.950 . S
C532 C533 1.386 . S
C532 C534 1.391 . S
C533 C532 1.386 . S
C533 C537 1.393 . S
C534 H526 0.950 1_455 S
C534 C532 1.391 . S
C534 C535 1.400 . S
C535 C534 1.400 . S
C535 C536 1.398 . S
C535 C541 1.491 1_455 S
C536 H527 0.950 . S
C536 C535 1.398 . S
C536 C537 1.391 . S
C537 H525 0.950 . S
C537 C533 1.393 . S
C537 C536 1.391 . S
C538 H528 0.950 . S
C538 C539 1.386 . S
C538 C540 1.391 . S
C539 C538 1.386 . S
C539 C543 1.393 . S
C540 H529 0.950 1_655 S
C540 C538 1.391 . S
C540 C541 1.400 . S
C541 C535 1.491 1_655 S
C541 C540 1.400 . S
C541 C542 1.398 . S
C542 H530 0.950 . S
C542 C541 1.398 . S
C542 C543 1.391 . S
C543 H531 0.950 . S
C543 C539 1.393 . S
C543 C542 1.391 . S
H544 C552 0.950 . S
H545 C557 0.950 . S
H546 C554 0.950 1_565 S
H547 C556 0.950 . S
H548 C558 0.950 . S
H549 C560 0.950 1_545 S
H550 C562 0.950 . S
H551 C563 0.950 . S
C552 H544 0.950 . S
C552 C553 1.386 . S
C552 C554 1.391 . S
C553 C552 1.386 . S
C553 C557 1.393 . S
C554 H546 0.950 1_545 S
C554 C552 1.391 . S
C554 C555 1.400 . S
C555 C554 1.400 . S
C555 C556 1.398 . S
C555 C561 1.491 1_545 S
C556 H547 0.950 . S
C556 C555 1.398 . S
C556 C557 1.391 . S
C557 H545 0.950 . S
C557 C553 1.393 . S
C557 C556 1.391 . S
C558 H548 0.950 . S
C558 C559 1.386 . S
C558 C560 1.391 . S
C559 C558 1.386 . S
C559 C563 1.393 . S
C560 H549 0.950 1_565 S
C560 C558 1.391 . S
C560 C561 1.400 . S
C561 C555 1.491 1_565 S
C561 C560 1.400 . S
C561 C562 1.398 . S
C562 H550 0.950 . S
C562 C561 1.398 . S
C562 C563 1.391 . S
C563 H551 0.950 . S
C563 C559 1.393 . S
C563 C562 1.391 . S
H564 C572 0.950 . S
H565 C577 0.950 . S
H566 C574 0.950 . S
H567 C576 0.950 . S
H568 C578 0.950 . S
H569 C580 0.950 . S
H570 C582 0.950 . S
H571 C583 0.950 . S
C572 H564 0.950 . S
C572 C573 1.386 . S
C572 C574 1.391 . S
C573 C572 1.386 . S
C573 C577 1.393 . S
C574 H566 0.950 . S
C574 C572 1.391 . S
C574 C575 1.400 . S
C575 C574 1.400 . S
C575 C576 1.398 . S
C575 C581 1.491 . S
C576 H567 0.950 . S
C576 C575 1.398 . S
C576 C577 1.391 . S
C577 H565 0.950 . S
C577 C573 1.393 . S
C577 C576 1.391 . S
C578 H568 0.950 . S
C578 C579 1.386 . S
C578 C580 1.391 . S
C579 C578 1.386 . S
C579 C583 1.393 . S
C580 H569 0.950 . S
C580 C578 1.391 . S
C580 C581 1.400 . S
C581 C575 1.491 . S
C581 C580 1.400 . S
C581 C582 1.398 . S
C582 H570 0.950 . S
C582 C581 1.398 . S
C582 C583 1.391 . S
C583 H571 0.950 . S
C583 C579 1.393 . S
C583 C582 1.391 . S
H584 C592 0.950 . S
H585 C597 0.950 . S
H586 C594 0.950 . S
H587 C596 0.950 . S
H588 C598 0.950 . S
H589 C600 0.950 . S
H590 C602 0.950 . S
H591 C603 0.950 . S
C592 H584 0.950 . S
C592 C593 1.386 . S
C592 C594 1.391 . S
C593 C592 1.386 . S
C593 C597 1.393 . S
C594 H586 0.950 . S
C594 C592 1.391 . S
C594 C595 1.400 . S
C595 C594 1.400 . S
C595 C596 1.398 . S
C595 C601 1.491 1_455 S
C596 H587 0.950 . S
C596 C595 1.398 . S
C596 C597 1.391 . S
C597 H585 0.950 . S
C597 C593 1.393 . S
C597 C596 1.391 . S
C598 H588 0.950 . S
C598 C599 1.386 . S
C598 C600 1.391 . S
C599 C598 1.386 . S
C599 C603 1.393 . S
C600 H589 0.950 . S
C600 C598 1.391 . S
C600 C601 1.400 . S
C601 C595 1.491 1_655 S
C601 C600 1.400 . S
C601 C602 1.398 . S
C602 H590 0.950 . S
C602 C601 1.398 . S
C602 C603 1.391 . S
C603 H591 0.950 . S
C603 C599 1.393 . S
C603 C602 1.391 . S
H604 C612 0.950 . S
H605 C617 0.950 . S
H606 C614 0.950 . S
H607 C616 0.950 1_565 S
H608 C618 0.950 . S
H609 C620 0.950 . S
H610 C622 0.950 1_545 S
H611 C623 0.950 . S
C612 H604 0.950 . S
C612 C613 1.386 . S
C612 C614 1.391 . S
C613 C612 1.386 . S
C613 C617 1.393 . S
C614 H606 0.950 . S
C614 C612 1.391 . S
C614 C615 1.400 . S
C615 C614 1.400 . S
C615 C616 1.398 . S
C615 C621 1.491 1_545 S
C616 H607 0.950 1_545 S
C616 C615 1.398 . S
C616 C617 1.391 . S
C617 H605 0.950 . S
C617 C613 1.393 . S
C617 C616 1.391 . S
C618 H608 0.950 . S
C618 C619 1.386 . S
C618 C620 1.391 . S
C619 C618 1.386 . S
C619 C623 1.393 . S
C620 H609 0.950 . S
C620 C618 1.391 . S
C620 C621 1.400 . S
C621 C615 1.491 1_565 S
C621 C620 1.400 . S
C621 C622 1.398 . S
C622 H610 0.950 1_565 S
C622 C621 1.398 . S
C622 C623 1.391 . S
C623 H611 0.950 . S
C623 C619 1.393 . S
C623 C622 1.391 . S
H624 C632 0.950 . S
H625 C637 0.950 . S
H626 C634 0.950 . S
H627 C636 0.950 . S
H628 C638 0.950 . S
H629 C640 0.950 . S
H630 C642 0.950 . S
H631 C643 0.950 . S
C632 H624 0.950 . S
C632 C633 1.386 . S
C632 C634 1.391 . S
C633 C632 1.386 . S
C633 C637 1.393 . S
C634 H626 0.950 . S
C634 C632 1.391 . S
C634 C635 1.400 . S
C635 C634 1.400 . S
C635 C636 1.398 . S
C635 C641 1.491 . S
C636 H627 0.950 . S
C636 C635 1.398 . S
C636 C637 1.391 . S
C637 H625 0.950 . S
C637 C633 1.393 . S
C637 C636 1.391 . S
C638 H628 0.950 . S
C638 C639 1.386 . S
C638 C640 1.391 . S
C639 C638 1.386 . S
C639 C643 1.393 . S
C640 H629 0.950 . S
C640 C638 1.391 . S
C640 C641 1.400 . S
C641 C635 1.491 . S
C641 C640 1.400 . S
C641 C642 1.398 . S
C642 H630 0.950 . S
C642 C641 1.398 . S
C642 C643 1.391 . S
C643 H631 0.950 . S
C643 C639 1.393 . S
C643 C642 1.391 . S
H644 C652 0.950 . S
H645 C657 0.950 . S
H646 C654 0.950 . S
H647 C656 0.950 . S
H648 C658 0.950 . S
H649 C660 0.950 . S
H650 C662 0.950 . S
H651 C663 0.950 . S
C652 H644 0.950 . S
C652 C653 1.386 . S
C652 C654 1.391 . S
C653 C652 1.386 . S
C653 C657 1.393 . S
C654 H646 0.950 . S
C654 C652 1.391 . S
C654 C655 1.400 . S
C655 C654 1.400 . S
C655 C656 1.398 . S
C655 C661 1.491 . S
C656 H647 0.950 . S
C656 C655 1.398 . S
C656 C657 1.391 . S
C657 H645 0.950 . S
C657 C653 1.393 . S
C657 C656 1.391 . S
C658 H648 0.950 . S
C658 C659 1.386 . S
C658 C660 1.391 . S
C659 C658 1.386 . S
C659 C663 1.393 . S
C660 H649 0.950 . S
C660 C658 1.391 . S
C660 C661 1.400 . S
C661 C655 1.491 . S
C661 C660 1.400 . S
C661 C662 1.398 . S
C662 H650 0.950 . S
C662 C661 1.398 . S
C662 C663 1.391 . S
C663 H651 0.950 . S
C663 C659 1.393 . S
C663 C662 1.391 . S
H664 C672 0.950 . S
H665 C677 0.950 . S
H666 C674 0.950 . S
H667 C676 0.950 . S
H668 C678 0.950 . S
H669 C680 0.950 . S
H670 C682 0.950 . S
H671 C683 0.950 . S
C672 H664 0.950 . S
C672 C673 1.386 . S
C672 C674 1.391 . S
C673 C672 1.386 . S
C673 C677 1.393 . S
C674 H666 0.950 . S
C674 C672 1.391 . S
C674 C675 1.400 . S
C675 C674 1.400 . S
C675 C676 1.398 . S
C675 C681 1.491 . S
C676 H667 0.950 . S
C676 C675 1.398 . S
C676 C677 1.391 . S
C677 H665 0.950 . S
C677 C673 1.393 . S
C677 C676 1.391 . S
C678 H668 0.950 . S
C678 C679 1.386 . S
C678 C680 1.391 . S
C679 C678 1.386 . S
C679 C683 1.393 . S
C680 H669 0.950 . S
C680 C678 1.391 . S
C680 C681 1.400 . S
C681 C675 1.491 . S
C681 C680 1.400 . S
C681 C682 1.398 . S
C682 H670 0.950 . S
C682 C681 1.398 . S
C682 C683 1.391 . S
C683 H671 0.950 . S
C683 C679 1.393 . S
C683 C682 1.391 . S
H684 C692 0.950 . S
H685 C697 0.950 . S
H686 C694 0.950 . S
H687 C696 0.950 . S
H688 C698 0.950 . S
H689 C700 0.950 . S
H690 C702 0.950 . S
H691 C703 0.950 . S
C692 H684 0.950 . S
C692 C693 1.386 . S
C692 C694 1.391 . S
C693 C692 1.386 . S
C693 C697 1.393 . S
C694 H686 0.950 . S
C694 C692 1.391 . S
C694 C695 1.400 . S
C695 C694 1.400 . S
C695 C696 1.398 . S
C695 C701 1.491 . S
C696 H687 0.950 . S
C696 C695 1.398 . S
C696 C697 1.391 . S
C697 H685 0.950 . S
C697 C693 1.393 . S
C697 C696 1.391 . S
C698 H688 0.950 . S
C698 C699 1.386 . S
C698 C700 1.391 . S
C699 C698 1.386 . S
C699 C703 1.393 . S
C700 H689 0.950 . S
C700 C698 1.391 . S
C700 C701 1.400 . S
C701 C695 1.491 . S
C701 C700 1.400 . S
C701 C702 1.398 . S
C702 H690 0.950 . S
C702 C701 1.398 . S
C702 C703 1.391 . S
C703 H691 0.950 . S
C703 C699 1.393 . S
C703 C702 1.391 . S
H704 C712 0.950 . S
H705 C717 0.950 . S
H706 C714 0.950 . S
H707 C716 0.950 . S
H708 C718 0.950 . S
H709 C720 0.950 . S
H710 C722 0.950 . S
H711 C723 0.950 . S
C712 H704 0.950 . S
C712 C713 1.386 . S
C712 C714 1.391 . S
C713 C712 1.386 . S
C713 C717 1.393 . S
C714 H706 0.950 . S
C714 C712 1.391 . S
C714 C715 1.400 . S
C715 C714 1.400 . S
C715 C716 1.398 . S
C715 C721 1.491 . S
C716 H707 0.950 . S
C716 C715 1.398 . S
C716 C717 1.391 . S
C717 H705 0.950 . S
C717 C713 1.393 . S
C717 C716 1.391 . S
C718 H708 0.950 . S
C718 C719 1.386 . S
C718 C720 1.391 . S
C719 C718 1.386 . S
C719 C723 1.393 . S
C720 H709 0.950 . S
C720 C718 1.391 . S
C720 C721 1.400 . S
C721 C715 1.491 . S
C721 C720 1.400 . S
C721 C722 1.398 . S
C722 H710 0.950 . S
C722 C721 1.398 . S
C722 C723 1.391 . S
C723 H711 0.950 . S
C723 C719 1.393 . S
C723 C722 1.391 . S
H724 C732 0.950 . S
H725 C737 0.950 . S
H726 C734 0.950 . S
H727 C736 0.950 . S
H728 C738 0.950 . S
H729 C740 0.950 . S
H730 C742 0.950 . S
H731 C743 0.950 . S
C732 H724 0.950 . S
C732 C733 1.386 . S
C732 C734 1.391 . S
C733 C732 1.386 . S
C733 C737 1.393 . S
C734 H726 0.950 . S
C734 C732 1.391 . S
C734 C735 1.400 . S
C735 C734 1.400 . S
C735 C736 1.398 . S
C735 C741 1.491 . S
C736 H727 0.950 . S
C736 C735 1.398 . S
C736 C737 1.391 . S
C737 H725 0.950 . S
C737 C733 1.393 . S
C737 C736 1.391 . S
C738 H728 0.950 . S
C738 C739 1.386 . S
C738 C740 1.391 . S
C739 C738 1.386 . S
C739 C743 1.393 . S
C740 H729 0.950 . S
C740 C738 1.391 . S
C740 C741 1.400 . S
C741 C735 1.491 . S
C741 C740 1.400 . S
C741 C742 1.398 . S
C742 H730 0.950 . S
C742 C741 1.398 . S
C742 C743 1.391 . S
C743 H731 0.950 . S
C743 C739 1.393 . S
C743 C742 1.391 . S
H744 C752 0.950 . S
H745 C757 0.950 . S
H746 C754 0.950 . S
H747 C756 0.950 . S
H748 C758 0.950 . S
H749 C760 0.950 . S
H750 C762 0.950 . S
H751 C763 0.950 . S
C752 H744 0.950 . S
C752 C753 1.386 . S
C752 C754 1.391 . S
C753 C752 1.386 . S
C753 C757 1.393 . S
C754 H746 0.950 . S
C754 C752 1.391 . S
C754 C755 1.400 . S
C755 C754 1.400 . S
C755 C756 1.398 . S
C755 C761 1.491 . S
C756 H747 0.950 . S
C756 C755 1.398 . S
C756 C757 1.391 . S
C757 H745 0.950 . S
C757 C753 1.393 . S
C757 C756 1.391 . S
C758 H748 0.950 . S
C758 C759 1.386 . S
C758 C760 1.391 . S
C759 C758 1.386 . S
C759 C763 1.393 . S
C760 H749 0.950 . S
C760 C758 1.391 . S
C760 C761 1.400 . S
C761 C755 1.491 . S
C761 C760 1.400 . S
C761 C762 1.398 . S
C762 H750 0.950 . S
C762 C761 1.398 . S
C762 C763 1.391 . S
C763 H751 0.950 . S
C763 C759 1.393 . S
C763 C762 1.391 . S
H764 C772 0.950 . S
H765 C777 0.950 . S
H766 C774 0.950 . S
H767 C776 0.950 . S
H768 C778 0.950 . S
H769 C780 0.950 . S
H770 C782 0.950 . S
H771 C783 0.950 . S
C772 H764 0.950 . S
C772 C773 1.386 . S
C772 C774 1.391 . S
C773 C772 1.386 . S
C773 C777 1.393 . S
C774 H766 0.950 . S
C774 C772 1.391 . S
C774 C775 1.400 . S
C775 C774 1.400 . S
C775 C776 1.398 . S
C775 C781 1.491 . S
C776 H767 0.950 . S
C776 C775 1.398 . S
C776 C777 1.391 . S
C777 H765 0.950 . S
C777 C773 1.393 . S
C777 C776 1.391 . S
C778 H768 0.950 . S
C778 C779 1.386 . S
C778 C780 1.391 . S
C779 C778 1.386 . S
C779 C783 1.393 . S
C780 H769 0.950 . S
C780 C778 1.391 . S
C780 C781 1.400 . S
C781 C775 1.491 . S
C781 C780 1.400 . S
C781 C782 1.398 . S
C782 H770 0.950 . S
C782 C781 1.398 . S
C782 C783 1.391 . S
C783 H771 0.950 . S
C783 C779 1.393 . S
C783 C782 1.391 . S
H784 C792 0.950 . S
H785 C797 0.950 . S
H786 C794 0.950 . S
H787 C796 0.950 . S
H788 C798 0.950 . S
H789 C800 0.950 . S
H790 C802 0.950 . S
H791 C803 0.950 . S
C792 H784 0.950 . S
C792 C793 1.386 . S
C792 C794 1.391 . S
C793 C792 1.386 . S
C793 C797 1.393 . S
C794 H786 0.950 . S
C794 C792 1.391 . S
C794 C795 1.400 . S
C795 C794 1.400 . S
C795 C796 1.398 . S
C795 C801 1.491 . S
C796 H787 0.950 . S
C796 C795 1.398 . S
C796 C797 1.391 . S
C797 H785 0.950 . S
C797 C793 1.393 . S
C797 C796 1.391 . S
C798 H788 0.950 . S
C798 C799 1.386 . S
C798 C800 1.391 . S
C799 C798 1.386 . S
C799 C803 1.393 . S
C800 H789 0.950 . S
C800 C798 1.391 . S
C800 C801 1.400 . S
C801 C795 1.491 . S
C801 C800 1.400 . S
C801 C802 1.398 . S
C802 H790 0.950 . S
C802 C801 1.398 . S
C802 C803 1.391 . S
C803 H791 0.950 . S
C803 C799 1.393 . S
C803 C802 1.391 . S
H804 C812 0.950 . S
H805 C817 0.950 . S
H806 C814 0.950 . S
H807 C816 0.950 . S
H808 C818 0.950 . S
H809 C820 0.950 . S
H810 C822 0.950 . S
H811 C823 0.950 . S
C812 H804 0.950 . S
C812 C813 1.386 . S
C812 C814 1.391 . S
C813 C812 1.386 . S
C813 C817 1.393 . S
C814 H806 0.950 . S
C814 C812 1.391 . S
C814 C815 1.400 . S
C815 C814 1.400 . S
C815 C816 1.398 . S
C815 C821 1.491 . S
C816 H807 0.950 . S
C816 C815 1.398 . S
C816 C817 1.391 . S
C817 H805 0.950 . S
C817 C813 1.393 . S
C817 C816 1.391 . S
C818 H808 0.950 . S
C818 C819 1.386 . S
C818 C820 1.391 . S
C819 C818 1.386 . S
C819 C823 1.393 . S
C820 H809 0.950 . S
C820 C818 1.391 . S
C820 C821 1.400 . S
C821 C815 1.491 . S
C821 C820 1.400 . S
C821 C822 1.398 . S
C822 H810 0.950 . S
C822 C821 1.398 . S
C822 C823 1.391 . S
C823 H811 0.950 . S
C823 C819 1.393 . S
C823 C822 1.391 . S
H824 C832 0.950 . S
H825 C837 0.950 . S
H826 C834 0.950 . S
H827 C836 0.950 . S
H828 C838 0.950 . S
H829 C840 0.950 . S
H830 C842 0.950 . S
H831 C843 0.950 . S
C832 H824 0.950 . S
C832 C833 1.386 . S
C832 C834 1.391 . S
C833 C832 1.386 . S
C833 C837 1.393 . S
C834 H826 0.950 . S
C834 C832 1.391 . S
C834 C835 1.400 . S
C835 C834 1.400 . S
C835 C836 1.398 . S
C835 C841 1.491 . S
C836 H827 0.950 . S
C836 C835 1.398 . S
C836 C837 1.391 . S
C837 H825 0.950 . S
C837 C833 1.393 . S
C837 C836 1.391 . S
C838 H828 0.950 . S
C838 C839 1.386 . S
C838 C840 1.391 . S
C839 C838 1.386 . S
C839 C843 1.393 . S
C840 H829 0.950 . S
C840 C838 1.391 . S
C840 C841 1.400 . S
C841 C835 1.491 . S
C841 C840 1.400 . S
C841 C842 1.398 . S
C842 H830 0.950 . S
C842 C841 1.398 . S
C842 C843 1.391 . S
C843 H831 0.950 . S
C843 C839 1.393 . S
C843 C842 1.391 . S
H844 C852 0.950 . S
H845 C857 0.950 . S
H846 C854 0.950 . S
H847 C856 0.950 . S
H848 C858 0.950 . S
H849 C860 0.950 . S
H850 C862 0.950 . S
H851 C863 0.950 . S
C852 H844 0.950 . S
C852 C853 1.386 . S
C852 C854 1.391 . S
C853 C852 1.386 . S
C853 C857 1.393 . S
C854 H846 0.950 . S
C854 C852 1.391 . S
C854 C855 1.400 . S
C855 C854 1.400 . S
C855 C856 1.398 . S
C855 C861 1.491 . S
C856 H847 0.950 . S
C856 C855 1.398 . S
C856 C857 1.391 . S
C857 H845 0.950 . S
C857 C853 1.393 . S
C857 C856 1.391 . S
C858 H848 0.950 . S
C858 C859 1.386 . S
C858 C860 1.391 . S
C859 C858 1.386 . S
C859 C863 1.393 . S
C860 H849 0.950 . S
C860 C858 1.391 . S
C860 C861 1.400 . S
C861 C855 1.491 . S
C861 C860 1.400 . S
C861 C862 1.398 . S
C862 H850 0.950 . S
C862 C861 1.398 . S
C862 C863 1.391 . S
C863 H851 0.950 . S
C863 C859 1.393 . S
C863 C862 1.391 . S
C513 C483 1.364 . S
C519 C63 1.356 . S
C533 C56 1.333 . S
C539 C140 1.308 . S
C553 C147 1.366 . S
C559 C231 1.357 . S
C573 C224 1.306 . S
C579 C308 1.324 . S
C593 C399 1.362 . S
C599 C315 1.370 . S
C613 C476 1.315 . S
C619 C392 1.331 . S
C633 C58 1.113 . S
C639 C69 1.113 . S
C653 C153 1.090 1_556 S
C659 C142 1.090 . S
C673 C226 1.113 . S
C679 C237 1.113 1_554 S
C693 C321 1.093 . S
C699 C310 1.093 . S
C713 C405 1.133 . S
C719 C394 1.133 1_556 S
C733 C489 1.090 . S
C739 C478 1.090 . S
C753 C74 1.626 . S
C759 C403 1.623 . S
C773 C151 1.630 . S
C779 C494 1.618 . S
C793 C67 1.624 . S
C799 C242 1.624 . S
C813 C158 1.628 . S
C819 C319 1.623 . S
C833 C410 1.629 . S
C839 C235 1.624 . S
C853 C326 1.629 . S
C859 C487 1.625 . S
