# Generated by pormake.
# Topology zfh, (5)-cn, num edge types: 1
# Building blocks:
#     Node 0, Type 0, BuildingBlock: BEQFEK_clean_sbu_0, # of connection points: 5
#     Node 1, Type 0, BuildingBlock: BEQFEK_clean_sbu_0, # of connection points: 5
#     Node 2, Type 0, BuildingBlock: BEQFEK_clean_sbu_0, # of connection points: 5
#     Node 3, Type 0, BuildingBlock: BEQFEK_clean_sbu_0, # of connection points: 5
#     Node 4, Type 0, BuildingBlock: BEQFEK_clean_sbu_0, # of connection points: 5
#     Node 5, Type 0, BuildingBlock: BEQFEK_clean_sbu_0, # of connection points: 5
#     Node 6, Type 0, BuildingBlock: BEQFEK_clean_sbu_0, # of connection points: 5
#     Node 7, Type 0, BuildingBlock: BEQFEK_clean_sbu_0, # of connection points: 5
#     Node 8, Type 0, BuildingBlock: BEQFEK_clean_sbu_0, # of connection points: 5
#     Node 9, Type 0, BuildingBlock: BEQFEK_clean_sbu_0, # of connection points: 5
#     Node 10, Type 0, BuildingBlock: BEQFEK_clean_sbu_0, # of connection points: 5
#     Node 11, Type 0, BuildingBlock: BEQFEK_clean_sbu_0, # of connection points: 5
#     Node 12, Type 0, BuildingBlock: BEQFEK_clean_sbu_0, # of connection points: 5
#     Node 13, Type 0, BuildingBlock: BEQFEK_clean_sbu_0, # of connection points: 5
#     Node 14, Type 0, BuildingBlock: BEQFEK_clean_sbu_0, # of connection points: 5
#     Node 15, Type 0, BuildingBlock: BEQFEK_clean_sbu_0, # of connection points: 5
#     Edge 16, Type (0, 0), BuildingBlock: AJUNOK_clean_linker_0, # of connection points: 2
#     Edge 17, Type (0, 0), BuildingBlock: AJUNOK_clean_linker_0, # of connection points: 2
#     Edge 18, Type (0, 0), BuildingBlock: AJUNOK_clean_linker_0, # of connection points: 2
#     Edge 19, Type (0, 0), BuildingBlock: AJUNOK_clean_linker_0, # of connection points: 2
#     Edge 20, Type (0, 0), BuildingBlock: AJUNOK_clean_linker_0, # of connection points: 2
#     Edge 21, Type (0, 0), BuildingBlock: AJUNOK_clean_linker_0, # of connection points: 2
#     Edge 22, Type (0, 0), BuildingBlock: AJUNOK_clean_linker_0, # of connection points: 2
#     Edge 23, Type (0, 0), BuildingBlock: AJUNOK_clean_linker_0, # of connection points: 2
#     Edge 24, Type (0, 0), BuildingBlock: AJUNOK_clean_linker_0, # of connection points: 2
#     Edge 25, Type (0, 0), BuildingBlock: AJUNOK_clean_linker_0, # of connection points: 2
#     Edge 26, Type (0, 0), BuildingBlock: AJUNOK_clean_linker_0, # of connection points: 2
#     Edge 27, Type (0, 0), BuildingBlock: AJUNOK_clean_linker_0, # of connection points: 2
#     Edge 28, Type (0, 0), BuildingBlock: AJUNOK_clean_linker_0, # of connection points: 2
#     Edge 29, Type (0, 0), BuildingBlock: AJUNOK_clean_linker_0, # of connection points: 2
#     Edge 30, Type (0, 0), BuildingBlock: AJUNOK_clean_linker_0, # of connection points: 2
#     Edge 31, Type (0, 0), BuildingBlock: AJUNOK_clean_linker_0, # of connection points: 2
#     Edge 32, Type (0, 0), BuildingBlock: AJUNOK_clean_linker_0, # of connection points: 2
#     Edge 33, Type (0, 0), BuildingBlock: AJUNOK_clean_linker_0, # of connection points: 2
#     Edge 34, Type (0, 0), BuildingBlock: AJUNOK_clean_linker_0, # of connection points: 2
#     Edge 35, Type (0, 0), BuildingBlock: AJUNOK_clean_linker_0, # of connection points: 2
#     Edge 36, Type (0, 0), BuildingBlock: AJUNOK_clean_linker_0, # of connection points: 2
#     Edge 37, Type (0, 0), BuildingBlock: AJUNOK_clean_linker_0, # of connection points: 2
#     Edge 38, Type (0, 0), BuildingBlock: AJUNOK_clean_linker_0, # of connection points: 2
#     Edge 39, Type (0, 0), BuildingBlock: AJUNOK_clean_linker_0, # of connection points: 2
#     Edge 40, Type (0, 0), BuildingBlock: AJUNOK_clean_linker_0, # of connection points: 2
#     Edge 41, Type (0, 0), BuildingBlock: AJUNOK_clean_linker_0, # of connection points: 2
#     Edge 42, Type (0, 0), BuildingBlock: AJUNOK_clean_linker_0, # of connection points: 2
#     Edge 43, Type (0, 0), BuildingBlock: AJUNOK_clean_linker_0, # of connection points: 2
#     Edge 44, Type (0, 0), BuildingBlock: AJUNOK_clean_linker_0, # of connection points: 2
#     Edge 45, Type (0, 0), BuildingBlock: AJUNOK_clean_linker_0, # of connection points: 2
#     Edge 46, Type (0, 0), BuildingBlock: AJUNOK_clean_linker_0, # of connection points: 2
#     Edge 47, Type (0, 0), BuildingBlock: AJUNOK_clean_linker_0, # of connection points: 2
#     Edge 48, Type (0, 0), BuildingBlock: AJUNOK_clean_linker_0, # of connection points: 2
#     Edge 49, Type (0, 0), BuildingBlock: AJUNOK_clean_linker_0, # of connection points: 2
#     Edge 50, Type (0, 0), BuildingBlock: AJUNOK_clean_linker_0, # of connection points: 2
#     Edge 51, Type (0, 0), BuildingBlock: AJUNOK_clean_linker_0, # of connection points: 2
#     Edge 52, Type (0, 0), BuildingBlock: AJUNOK_clean_linker_0, # of connection points: 2
#     Edge 53, Type (0, 0), BuildingBlock: AJUNOK_clean_linker_0, # of connection points: 2
#     Edge 54, Type (0, 0), BuildingBlock: AJUNOK_clean_linker_0, # of connection points: 2
#     Edge 55, Type (0, 0), BuildingBlock: AJUNOK_clean_linker_0, # of connection points: 2
# Relax obj value: 0.226
# Max RMSD: 0.167
# Mean RMSD: 0.167
data_MOF--net-zfh--node1-BEQFEK_clean_sbu_0--edge1-AJUNOK_clean_linker_0
_symmetry_space_group_name_H-M    P1
_symmetry_Int_Tables_number       1
_symmetry_cell_setting            triclinic
loop_
_symmetry_equiv_pos_as_xyz
'x, y, z'
_cell_length_a     32.53166
_cell_length_b     32.523567
_cell_length_c     33.010754
_cell_angle_alpha  89.90572
_cell_angle_beta   89.990677
_cell_angle_gamma 89.929213
loop_
_atom_site_label
_atom_site_type_symbol
_atom_site_fract_x
_atom_site_fract_y
_atom_site_fract_z
_atom_type_partial_charge
Co0 Co 0.57283 0.19286 0.38472 0.0
Co1 Co 0.53769 0.25791 0.3235 0.0
C2 C 0.49015 0.18139 0.3496 0.0
O3 O 0.51669 0.16975 0.37566 0.0
O4 O 0.49592 0.21362 0.32847 0.0
C5 C 0.59544 0.1484 0.45899 0.0
O6 O 0.5601 0.16015 0.47439 0.0
C7 C 0.47424 0.31941 0.31555 0.0
C8 C 0.49932 0.36335 0.27106 0.0
C9 C 0.46748 0.35782 0.29853 0.0
N10 N 0.50873 0.30332 0.2995 0.0
N11 N 0.52294 0.32919 0.27195 0.0
C12 C 0.45253 0.30143 0.35148 0.0
H13 H 0.47355 0.2814 0.36913 0.0
H14 H 0.44009 0.32594 0.37139 0.0
H15 H 0.42648 0.28238 0.34067 0.0
C16 C 0.58924 0.26906 0.43277 0.0
N17 N 0.57291 0.24904 0.40073 0.0
N18 N 0.55875 0.27628 0.37466 0.0
C19 C 0.56555 0.31442 0.38948 0.0
C20 C 0.58466 0.31105 0.42683 0.0
C21 C 0.61342 0.24896 0.46591 0.0
H22 H 0.63461 0.22579 0.45291 0.0
H23 H 0.592 0.23341 0.48706 0.0
H24 H 0.63172 0.27169 0.48325 0.0
O25 O 0.60392 0.18763 0.33391 0.0
O26 O 0.5838 0.23482 0.28941 0.0
H27 H 0.56489 0.35204 0.33614 0.0
H28 H 0.56871 0.38097 0.38237 0.0
C29 C 0.55474 0.35362 0.36809 0.0
H30 H 0.52108 0.35811 0.36937 0.0
H31 H 0.55048 0.3251 0.25625 0.0
O32 O 0.60479 0.15871 0.42308 0.0
C33 C 0.60712 0.20466 0.29934 0.0
Co34 Co 0.34926 0.57258 0.39023 0.0
Co35 Co 0.28388 0.53615 0.32956 0.0
C36 C 0.36148 0.48981 0.35581 0.0
O37 O 0.37404 0.51724 0.38041 0.0
O38 O 0.32834 0.49467 0.33594 0.0
C39 C 0.39263 0.59574 0.46471 0.0
O40 O 0.38057 0.56041 0.4799 0.0
C41 C 0.21808 0.47585 0.33034 0.0
C42 C 0.18359 0.4871 0.27396 0.0
C43 C 0.18301 0.4641 0.30944 0.0
N44 N 0.23772 0.50526 0.30898 0.0
N45 N 0.21719 0.51146 0.27496 0.0
C46 C 0.23281 0.45958 0.37028 0.0
H47 H 0.26683 0.45886 0.37106 0.0
H48 H 0.22243 0.48024 0.39492 0.0
H49 H 0.2205 0.42829 0.37604 0.0
C50 C 0.27206 0.58882 0.43777 0.0
N51 N 0.29288 0.572 0.40639 0.0
N52 N 0.26615 0.56022 0.37886 0.0
C53 C 0.22795 0.57077 0.39088 0.0
C54 C 0.23028 0.58803 0.42909 0.0
C55 C 0.29157 0.61032 0.47286 0.0
H56 H 0.31496 0.63231 0.46169 0.0
H57 H 0.30673 0.58729 0.49262 0.0
H58 H 0.26859 0.62744 0.49111 0.0
O59 O 0.35292 0.60329 0.3386 0.0
O60 O 0.30673 0.58109 0.29393 0.0
H61 H 0.19891 0.57124 0.33238 0.0
H62 H 0.16704 0.59097 0.37227 0.0
C63 C 0.19046 0.56759 0.36469 0.0
H64 H 0.17604 0.53726 0.36925 0.0
H65 H 0.22532 0.5332 0.2531 0.0
O66 O 0.38304 0.60522 0.42861 0.0
C67 C 0.33612 0.60539 0.30376 0.0
Co68 Co 0.96165 0.34576 0.38423 0.0
Co69 Co 0.99744 0.28118 0.32342 0.0
C70 C 0.04484 0.3576 0.3519 0.0
O71 O 1.01797 0.36904 0.37764 0.0
O72 O 0.03898 0.32575 0.33033 0.0
C73 C 0.93943 0.38918 0.45802 0.0
O74 O 0.97601 0.37879 0.47144 0.0
C75 C 0.05792 0.21613 0.32574 0.0
C76 C 0.04734 0.1801 0.27024 0.0
C77 C 0.06992 0.18055 0.30594 0.0
N78 N 0.02871 0.23514 0.30361 0.0
N79 N 0.02286 0.21372 0.27012 0.0
C80 C 0.07369 0.23186 0.36544 0.0
H81 H 0.05184 0.2236 0.38991 0.0
H82 H 0.10423 0.21847 0.37266 0.0
H83 H 0.07604 0.26581 0.36469 0.0
C84 C 0.94439 0.26868 0.43161 0.0
N85 N 0.96083 0.28944 0.4 0.0
N86 N 0.97234 0.2628 0.37233 0.0
C87 C 0.96196 0.22456 0.38456 0.0
C88 C 0.94512 0.22684 0.42308 0.0
C89 C 0.92407 0.2884 0.46729 0.0
H90 H 0.90163 0.31171 0.45671 0.0
H91 H 0.94776 0.30382 0.48595 0.0
H92 H 0.90768 0.26559 0.48637 0.0
O93 O 0.9325 0.35112 0.33153 0.0
O94 O 0.95365 0.30437 0.28694 0.0
H95 H 0.96226 0.19532 0.32622 0.0
H96 H 0.94238 0.16351 0.36619 0.0
C97 C 0.96566 0.18699 0.3586 0.0
H98 H 0.99607 0.17279 0.36341 0.0
H99 H 1.00124 0.22118 0.24794 0.0
O100 O 0.92873 0.37907 0.42245 0.0
C101 C 0.93033 0.33464 0.29653 0.0
Co102 Co 0.1919 0.9639 0.38881 0.0
Co103 Co 0.25571 0.99975 0.3264 0.0
C104 C 0.17852 0.04602 0.35414 0.0
O105 O 0.16762 0.01973 0.38073 0.0
O106 O 0.21046 0.04017 0.33271 0.0
C107 C 0.14983 0.94066 0.46396 0.0
O108 O 0.16108 0.97652 0.47841 0.0
C109 C 0.31811 0.06314 0.32401 0.0
C110 C 0.35666 0.04751 0.27132 0.0
C111 C 0.35425 0.07379 0.30436 0.0
N112 N 0.30074 0.0312 0.30449 0.0
N113 N 0.32356 0.02247 0.2725 0.0
C114 C 0.30107 0.08173 0.36196 0.0
H115 H 0.26776 0.08769 0.35822 0.0
H116 H 0.30475 0.05974 0.38743 0.0
H117 H 0.31676 0.111 0.36955 0.0
C118 C 0.26976 0.94722 0.43464 0.0
N119 N 0.24848 0.96409 0.40359 0.0
N120 N 0.27475 0.97648 0.37584 0.0
C121 C 0.31325 0.96676 0.38773 0.0
C122 C 0.31138 0.94863 0.42564 0.0
C123 C 0.25081 0.92583 0.47013 0.0
H124 H 0.22734 0.90371 0.45948 0.0
H125 H 0.23588 0.94903 0.48975 0.0
H126 H 0.27404 0.90892 0.4883 0.0
O127 O 0.18669 0.93369 0.33699 0.0
O128 O 0.23294 0.95453 0.29169 0.0
H129 H 0.34424 0.96271 0.33049 0.0
H130 H 0.37778 0.95539 0.37366 0.0
C131 C 0.35079 0.97237 0.36203 0.0
H132 H 0.35937 1.00504 0.36186 0.0
H133 H 0.31765 0.99827 0.25262 0.0
O134 O 0.15907 0.93102 0.42783 0.0
C135 C 0.20311 0.93099 0.30201 0.0
Co136 Co 0.0704 0.8492 0.10403 0.0
Co137 Co 0.034 0.78479 0.16548 0.0
C138 C 0.98768 0.86211 0.14079 0.0
O139 O 1.01523 0.87396 0.11585 0.0
O140 O 0.99183 0.82879 0.16063 0.0
C141 C 0.09163 0.89122 0.02803 0.0
O142 O 0.05611 0.87869 0.01375 0.0
C143 C 0.97188 0.72229 0.17661 0.0
C144 C 0.99957 0.68014 0.22134 0.0
C145 C 0.96691 0.68406 0.19454 0.0
N146 N 1.00638 0.73963 0.1912 0.0
N147 N 0.02207 0.7149 0.219 0.0
C148 C 0.9484 0.7388 0.14107 0.0
H149 H 0.96716 0.76124 0.12383 0.0
H150 H 0.93865 0.71352 0.12068 0.0
H151 H 0.92035 0.75455 0.15226 0.0
C152 C 0.08618 0.77234 0.05668 0.0
N153 N 0.06917 0.7928 0.08816 0.0
N154 N 0.05416 0.76586 0.11406 0.0
C155 C 0.06078 0.72755 0.09948 0.0
C156 C 0.08092 0.73045 0.06262 0.0
C157 C 0.11214 0.79174 0.02451 0.0
H158 H 0.13234 0.81542 0.03803 0.0
H159 H 0.09181 0.80635 0.00175 0.0
H160 H 0.13164 0.7687 0.00885 0.0
O161 O 0.10335 0.85342 0.15344 0.0
O162 O 0.08104 0.80788 0.19862 0.0
H163 H 0.05955 0.68959 0.15257 0.0
H164 H 0.06212 0.66085 0.10612 0.0
C165 C 0.0491 0.68855 0.1207 0.0
H166 H 1.01535 0.68509 0.1196 0.0
H167 H 0.04992 0.7201 0.2338 0.0
O168 O 0.10145 0.88283 0.06432 0.0
C169 C 0.106 0.83641 0.18803 0.0
Co170 Co 0.68891 0.07175 0.10147 0.0
Co171 Co 0.75199 0.03319 0.16371 0.0
C172 C 0.67417 0.98896 0.13823 0.0
O173 O 0.66302 1.01701 0.11341 0.0
O174 O 0.70741 0.99208 0.15828 0.0
C175 C 0.64892 0.09573 0.02447 0.0
O176 O 0.6623 0.06108 0.00886 0.0
C177 C 0.81373 0.97002 0.17762 0.0
C178 C 0.85617 0.99965 0.22065 0.0
C179 C 0.85224 0.96586 0.1953 0.0
N180 N 0.79651 1.00529 0.19069 0.0
N181 N 0.82138 0.02207 0.21763 0.0
C182 C 0.79681 0.94491 0.14346 0.0
H183 H 0.77559 0.96356 0.12461 0.0
H184 H 0.82187 0.93247 0.12421 0.0
H185 H 0.77944 0.91859 0.15625 0.0
C186 C 0.76694 0.08566 0.0553 0.0
N187 N 0.7456 0.06915 0.08649 0.0
N188 N 0.77177 0.05244 0.11222 0.0
C189 C 0.81032 0.05702 0.09745 0.0
C190 C 0.80841 0.07818 0.06115 0.0
C191 C 0.74904 0.11266 0.02314 0.0
H192 H 0.72485 0.13265 0.03614 0.0
H193 H 0.73563 0.09297 -0.00075 0.0
H194 H 0.77286 0.13239 0.00896 0.0
O195 O 0.68465 0.10474 0.15068 0.0
O196 O 0.72908 0.08107 0.19623 0.0
H197 H 0.85017 0.05258 0.14891 0.0
H198 H 0.87695 0.05117 0.1012 0.0
C199 C 0.84871 0.04152 0.11728 0.0
H200 H 0.84868 1.00762 0.11657 0.0
H201 H 0.81634 0.05063 0.23112 0.0
O202 O 0.65615 0.10384 0.0614 0.0
C203 C 0.70128 0.10682 0.18542 0.0
Co204 Co 0.46453 0.68996 0.10375 0.0
Co205 Co 0.5016 0.75414 0.16466 0.0
C206 C 0.54767 0.67684 0.13933 0.0
O207 O 0.51976 0.66519 0.11476 0.0
O208 O 0.54392 0.71013 0.15922 0.0
C209 C 0.4429 0.6479 0.02826 0.0
O210 O 0.47835 0.6604 0.01374 0.0
C211 C 0.56362 0.81701 0.17487 0.0
C212 C 0.53618 0.85905 0.21972 0.0
C213 C 0.56857 0.8553 0.19257 0.0
N214 N 0.52938 0.79947 0.18991 0.0
N215 N 0.51385 0.82417 0.21776 0.0
C216 C 0.58687 0.80056 0.13921 0.0
H217 H 0.56794 0.77821 0.12209 0.0
H218 H 0.59658 0.82587 0.11876 0.0
H219 H 0.61492 0.78467 0.15025 0.0
C220 C 0.44818 0.76681 0.05635 0.0
N221 N 0.46542 0.74636 0.08777 0.0
N222 N 0.48062 0.77328 0.11349 0.0
C223 C 0.47382 0.8116 0.09884 0.0
C224 C 0.45343 0.80871 0.06212 0.0
C225 C 0.42214 0.74736 0.02433 0.0
H226 H 0.402 0.72368 0.03801 0.0
H227 H 0.44243 0.73274 0.00159 0.0
H228 H 0.40259 0.77038 0.00863 0.0
O229 O 0.43229 0.68527 0.15354 0.0
O230 O 0.45508 0.73057 0.19854 0.0
H231 H 0.47563 0.8495 0.15183 0.0
H232 H 0.47233 0.87827 0.10538 0.0
C233 C 0.48566 0.85061 0.11983 0.0
H234 H 0.51938 0.8542 0.11828 0.0
H235 H 0.48619 0.81882 0.23288 0.0
O236 O 0.4332 0.65641 0.06451 0.0
C237 C 0.4301 0.70196 0.18825 0.0
Co238 Co 0.84814 0.4702 0.09799 0.0
Co239 Co 0.7843 0.50542 0.16118 0.0
C240 C 0.86205 0.5513 0.13735 0.0
O241 O 0.87374 0.52424 0.11185 0.0
O242 O 0.82858 0.54725 0.15691 0.0
C243 C 0.90951 0.41908 0.06029 0.0
O244 O 0.92515 0.41787 0.09694 0.0
C245 C 0.72116 0.56715 0.17337 0.0
C246 C 0.67975 0.53865 0.21816 0.0
C247 C 0.68303 0.57165 0.19162 0.0
N248 N 0.73908 0.53264 0.18757 0.0
N249 N 0.71473 0.51645 0.21538 0.0
C250 C 0.73703 0.59121 0.13795 0.0
H251 H 0.76062 0.57346 0.12116 0.0
H252 H 0.71155 0.59966 0.11717 0.0
H253 H 0.75115 0.62006 0.14918 0.0
C254 C 0.77201 0.4588 0.05039 0.0
N255 N 0.79208 0.47392 0.08288 0.0
N256 N 0.7651 0.48708 0.10957 0.0
C257 C 0.7269 0.48055 0.09481 0.0
C258 C 0.73002 0.46266 0.05684 0.0
C259 C 0.79258 0.43587 0.01673 0.0
H260 H 0.80909 0.40896 0.02952 0.0
H261 H 0.81551 0.45617 0.00194 0.0
H262 H 0.77031 0.42477 0.99382 0.0
O263 O 0.85264 0.4348 0.14637 0.0
O264 O 0.80807 0.45725 0.19253 0.0
H265 H 0.69007 0.47864 0.14864 0.0
H266 H 0.6605 0.47599 0.10264 0.0
C267 C 0.68785 0.48984 0.11705 0.0
H268 H 0.68279 0.52344 0.11689 0.0
H269 H 0.72035 0.48848 0.2299 0.0
O270 O 0.87841 0.44184 0.05371 0.0
C271 C 0.83614 0.43198 0.18124 0.0
Co272 Co 0.46591 0.84881 0.60308 0.0
Co273 Co 0.50212 0.7847 0.66486 0.0
C274 C 0.5483 0.86209 0.63776 0.0
O275 O 0.52099 0.87399 0.61265 0.0
O276 O 0.54348 0.82931 0.65826 0.0
C277 C 0.44445 0.89064 0.52756 0.0
O278 O 0.4806 0.87899 0.51403 0.0
C279 C 0.56245 0.71956 0.66412 0.0
C280 C 0.55128 0.68427 0.72008 0.0
C281 C 0.57415 0.68419 0.68455 0.0
N282 N 0.53314 0.73895 0.68574 0.0
N283 N 0.52698 0.718 0.71953 0.0
C284 C 0.57841 0.73461 0.62419 0.0
H285 H 0.57965 0.76862 0.62381 0.0
H286 H 0.55728 0.72494 0.59965 0.0
H287 H 0.60945 0.7219 0.61791 0.0
C288 C 0.45044 0.77087 0.55651 0.0
N289 N 0.4668 0.79222 0.58772 0.0
N290 N 0.47814 0.76596 0.61591 0.0
C291 C 0.46761 0.72756 0.60451 0.0
C292 C 0.45101 0.72923 0.56592 0.0
C293 C 0.43005 0.7898 0.52048 0.0
H294 H 0.408 0.81369 0.53047 0.0
H295 H 0.45393 0.80414 0.50122 0.0
H296 H 0.41322 0.76668 0.50222 0.0
O297 O 0.43477 0.85313 0.65457 0.0
O298 O 0.45712 0.80754 0.69997 0.0
H299 H 0.4467 0.66726 0.6241 0.0
H300 H 0.50038 0.67592 0.62811 0.0
C301 C 0.47006 0.69065 0.63163 0.0
H302 H 0.4659 0.6999 0.66366 0.0
H303 H 0.50519 0.72581 0.74142 0.0
O304 O 0.43385 0.88173 0.56353 0.0
C305 C 0.43268 0.8367 0.68963 0.0
Co306 Co 0.69092 0.46412 0.60328 0.0
Co307 Co 0.75635 0.49921 0.66409 0.0
C308 C 0.68014 0.54713 0.63837 0.0
O309 O 0.6682 0.52047 0.61263 0.0
O310 O 0.71251 0.54132 0.65921 0.0
C311 C 0.64688 0.4423 0.52871 0.0
O312 O 0.65949 0.47739 0.51338 0.0
C313 C 0.81781 0.56257 0.67361 0.0
C314 C 0.86213 0.53567 0.71672 0.0
C315 C 0.85636 0.56863 0.69053 0.0
N316 N 0.80194 0.52741 0.68846 0.0
N317 N 0.82804 0.5121 0.71521 0.0
C318 C 0.79951 0.58562 0.63864 0.0
H319 H 0.78061 0.56483 0.61966 0.0
H320 H 0.82372 0.60006 0.6197 0.0
H321 H 0.7792 0.61024 0.65055 0.0
C322 C 0.76698 0.44636 0.55551 0.0
N323 N 0.74709 0.46354 0.58723 0.0
N324 N 0.77443 0.47834 0.61275 0.0
C325 C 0.81247 0.4715 0.59766 0.0
C326 C 0.80893 0.45104 0.5611 0.0
C327 C 0.74684 0.42149 0.52301 0.0
H328 H 0.72334 0.40099 0.5365 0.0
H329 H 0.73173 0.4425 0.50114 0.0
H330 H 0.76949 0.40242 0.50632 0.0
O331 O 0.68549 0.43288 0.65393 0.0
O332 O 0.73283 0.45308 0.69809 0.0
H333 H 0.85227 0.47263 0.64935 0.0
H334 H 0.87929 0.47229 0.60165 0.0
C335 C 0.85181 0.48397 0.61772 0.0
H336 H 0.85413 0.51785 0.61746 0.0
H337 H 0.82412 0.48394 0.72991 0.0
O338 O 0.65653 0.43278 0.56476 0.0
C339 C 0.70265 0.42978 0.68841 0.0
Co340 Co 0.07184 0.68913 0.60346 0.0
Co341 Co 0.03389 0.75402 0.6633 0.0
C342 C 0.98839 0.67649 0.6368 0.0
O343 O 1.01644 0.66423 0.61267 0.0
O344 O 0.99252 0.70962 0.65677 0.0
C345 C 0.09587 0.64635 0.52918 0.0
O346 O 0.061 0.65911 0.51351 0.0
C347 C 0.97238 0.81844 0.6657 0.0
C348 C 0.98611 0.85322 0.7213 0.0
C349 C 0.96112 0.85314 0.68723 0.0
N350 N 1.00327 0.79935 0.68539 0.0
N351 N 1.01095 0.81998 0.71902 0.0
C352 C 0.9546 0.80416 0.62632 0.0
H353 H 0.96819 0.7744 0.61696 0.0
H354 H 0.96045 0.82727 0.60229 0.0
H355 H 0.92078 0.80101 0.6294 0.0
C356 C 0.08949 0.7661 0.55631 0.0
N357 N 0.07146 0.74554 0.58722 0.0
N358 N 0.05735 0.77248 0.61354 0.0
C359 C 0.06653 0.8108 0.60052 0.0
C360 C 0.08663 0.80797 0.56367 0.0
C361 C 0.11387 0.74651 0.52311 0.0
H362 H 0.09257 0.73152 0.50155 0.0
H363 H 0.13244 0.76945 0.50623 0.0
H364 H 0.13483 0.72301 0.53599 0.0
O365 O 0.10217 0.68509 0.65485 0.0
O366 O 0.07902 0.73118 0.69905 0.0
H367 H 0.07746 0.87549 0.61362 0.0
H368 H 0.0261 0.85885 0.61913 0.0
C369 C 0.05834 0.84942 0.62391 0.0
H370 H 0.06379 0.84416 0.65664 0.0
H371 H 0.03408 0.81228 0.73959 0.0
O372 O 0.10473 0.65536 0.56552 0.0
C373 C 0.10371 0.70194 0.6896 0.0
Co374 Co 0.84555 0.07306 0.60302 0.0
Co375 Co 0.77938 0.04011 0.66469 0.0
C376 C 0.85568 0.99098 0.641 0.0
O377 O 0.86831 1.01655 0.61438 0.0
O378 O 0.82301 0.998 0.66091 0.0
C379 C 0.88825 0.09409 0.52696 0.0
O380 O 0.87427 0.05938 0.51208 0.0
C381 C 0.71803 0.97679 0.67488 0.0
C382 C 0.67358 1.00378 0.71772 0.0
C383 C 0.6795 0.97068 0.69184 0.0
N384 N 0.73376 1.0121 0.68941 0.0
N385 N 0.70759 0.02746 0.71603 0.0
C386 C 0.73649 0.95347 0.64024 0.0
H387 H 0.75537 0.97412 0.62104 0.0
H388 H 0.71237 0.93877 0.62144 0.0
H389 H 0.75684 0.92904 0.6525 0.0
C390 C 0.76912 0.09006 0.55469 0.0
N391 N 0.78909 0.07358 0.58681 0.0
N392 N 0.76166 0.05979 0.61286 0.0
C393 C 0.7236 0.06654 0.59778 0.0
C394 C 0.72711 0.08558 0.56042 0.0
C395 C 0.78906 0.11486 0.52193 0.0
H396 H 0.8132 0.13481 0.53501 0.0
H397 H 0.8031 0.09378 0.49952 0.0
H398 H 0.76641 0.13456 0.5059 0.0
O399 O 0.85058 0.10572 0.65306 0.0
O400 O 0.80283 0.0869 0.69757 0.0
H401 H 0.68509 0.06749 0.65039 0.0
H402 H 0.65686 0.06836 0.60352 0.0
C403 C 0.68432 0.05579 0.61894 0.0
H404 H 0.68074 0.02201 0.61923 0.0
H405 H 0.7114 0.05572 0.73047 0.0
O406 O 0.88017 0.1036 0.5634 0.0
C407 C 0.83303 0.10995 0.68726 0.0
Co408 Co 0.96374 0.18338 0.8886 0.0
Co409 Co 0.99941 0.25175 0.83136 0.0
C410 C 0.0452 0.17164 0.85182 0.0
O411 O 1.01793 0.1585 0.87632 0.0
O412 O 0.04106 0.20619 0.83398 0.0
C413 C 0.94249 0.13346 0.95928 0.0
O414 O 0.98038 0.13903 0.97186 0.0
C415 C 0.05956 0.3177 0.83273 0.0
C416 C 0.04462 0.35551 0.77924 0.0
C417 C 0.06976 0.35409 0.8132 0.0
N418 N 0.02907 0.29913 0.81206 0.0
N419 N 0.02059 0.32168 0.77978 0.0
C420 C 0.07861 0.30044 0.87042 0.0
H421 H 0.05907 0.30799 0.8969 0.0
H422 H 0.10976 0.31338 0.87539 0.0
H423 H 0.08053 0.26649 0.86838 0.0
C424 C 0.95418 0.25608 0.94339 0.0
N425 N 0.9669 0.23795 0.90877 0.0
N426 N 0.97718 0.26671 0.88267 0.0
C427 C 0.96907 0.3039 0.89898 0.0
C428 C 0.95563 0.2984 0.93842 0.0
C429 C 0.93732 0.23371 0.9793 0.0
H430 H 0.91185 0.21341 0.96957 0.0
H431 H 0.96203 0.21464 0.99275 0.0
H432 H 0.92553 0.25515 0.0027 0.0
O433 O 0.93167 0.18334 0.8377 0.0
O434 O 0.95368 0.23174 0.79529 0.0
H435 H 0.94716 0.36557 0.88706 0.0
H436 H 1.00104 0.35819 0.88113 0.0
C437 C 0.97082 0.3437 0.87623 0.0
H438 H 0.96615 0.33842 0.8434 0.0
H439 H 0.99757 0.31471 0.75889 0.0
O440 O 0.9311 0.14863 0.92568 0.0
C441 C 0.9292 0.20213 0.80389 0.0
Co442 Co 0.34377 0.96561 0.88833 0.0
Co443 Co 0.27987 1.00025 0.82534 0.0
C444 C 0.35537 0.0484 0.8526 0.0
O445 O 0.36679 0.02201 0.87899 0.0
O446 O 0.32356 0.04231 0.83103 0.0
C447 C 0.38744 0.94162 0.96352 0.0
O448 O 0.3758 0.97659 0.97978 0.0
C449 C 0.21738 0.06261 0.81352 0.0
C450 C 0.1761 0.03523 0.76803 0.0
C451 C 0.17956 0.06788 0.79486 0.0
N452 N 0.23494 0.02805 0.79921 0.0
N453 N 0.21073 1.01252 0.77099 0.0
C454 C 0.23324 0.08596 0.84933 0.0
H455 H 0.25482 0.06679 0.86726 0.0
H456 H 0.20758 0.09638 0.86897 0.0
H457 H 0.24989 0.11358 0.83838 0.0
C458 C 0.26647 0.94847 0.93441 0.0
N459 N 0.28715 0.9653 0.90297 0.0
N460 N 0.26045 0.97958 0.87642 0.0
C461 C 0.22203 0.97258 0.89048 0.0
C462 C 0.22463 0.95268 0.92751 0.0
C463 C 0.28597 0.92451 0.96804 0.0
H464 H 0.30926 0.90314 0.95551 0.0
H465 H 0.30134 0.94606 0.98911 0.0
H466 H 0.26293 0.90646 0.98531 0.0
O467 O 0.35014 0.93415 0.83799 0.0
O468 O 0.3041 0.95401 0.79227 0.0
H469 H 0.18433 0.97387 0.83724 0.0
H470 H 0.15541 0.97197 0.88383 0.0
C471 C 0.18324 0.98453 0.86905 0.0
H472 H 0.1801 1.01833 0.8698 0.0
H473 H 0.21618 0.9847 0.75623 0.0
O474 O 0.3773 0.93335 0.92733 0.0
C475 C 0.33379 0.9306 0.8032 0.0
Co476 Co 0.57151 0.34999 0.88836 0.0
Co477 Co 0.53419 0.28554 0.82789 0.0
C478 C 0.48927 0.36424 0.85339 0.0
O479 O 0.51676 0.37571 0.87843 0.0
O480 O 0.49331 0.33101 0.83346 0.0
C481 C 0.59683 0.39521 0.96102 0.0
O482 O 0.56167 0.38461 0.97757 0.0
C483 C 0.47169 0.22205 0.82682 0.0
C484 C 0.48734 0.18368 0.77403 0.0
C485 C 0.46141 0.1857 0.80739 0.0
N486 N 0.50313 0.2399 0.80685 0.0
N487 N 0.51187 0.21716 0.77483 0.0
C488 C 0.45317 0.2389 0.86488 0.0
H489 H 0.44829 0.27247 0.86175 0.0
H490 H 0.4747 0.234 0.89048 0.0
H491 H 0.42341 0.22383 0.8719 0.0
C492 C 0.58769 0.27322 0.93609 0.0
N493 N 0.57014 0.29395 0.905 0.0
N494 N 0.55741 0.26725 0.87786 0.0
C495 C 0.56761 0.22897 0.89015 0.0
C496 C 0.58644 0.23141 0.9277 0.0
C497 C 0.61028 0.29295 0.9704 0.0
H498 H 0.63291 0.31525 0.9583 0.0
H499 H 0.58807 0.30966 0.98979 0.0
H500 H 0.62672 0.26991 0.98923 0.0
O501 O 0.60238 0.35263 0.83731 0.0
O502 O 0.58007 0.30703 0.7923 0.0
H503 H 0.57153 0.19773 0.83305 0.0
H504 H 0.58039 0.16464 0.87629 0.0
C505 C 0.56254 0.19114 0.8648 0.0
H506 H 0.5301 0.18171 0.8653 0.0
H507 H 0.53572 0.22344 0.75461 0.0
O508 O 0.60523 0.38376 0.92528 0.0
C509 C 0.60496 0.3357 0.80271 0.0
Co510 Co 0.19048 0.57315 0.89003 0.0
Co511 Co 0.25426 0.53754 0.82754 0.0
C512 C 0.17841 0.49011 0.85545 0.0
O513 O 0.16725 0.5169 0.88144 0.0
O514 O 0.21022 0.49567 0.83367 0.0
C515 C 0.14679 0.59736 0.9648 0.0
O516 O 0.15831 0.56236 0.98118 0.0
C517 C 0.31688 0.47493 0.81702 0.0
C518 C 0.3587 0.50196 0.77171 0.0
C519 C 0.35499 0.46959 0.79893 0.0
N520 N 0.2994 0.50931 0.80205 0.0
N521 N 0.32398 0.52461 0.77394 0.0
C522 C 0.30062 0.45189 0.85292 0.0
H523 H 0.27891 0.47123 0.87045 0.0
H524 H 0.32607 0.44155 0.8729 0.0
H525 H 0.284 0.42423 0.84211 0.0
C526 C 0.26766 0.59037 0.93597 0.0
N527 N 0.24698 0.57327 0.90474 0.0
N528 N 0.27365 0.55863 0.87839 0.0
C529 C 0.31206 0.56574 0.89236 0.0
C530 C 0.30946 0.58601 0.9291 0.0
C531 C 0.24819 0.61473 0.96927 0.0
H532 H 0.23263 0.59345 0.99054 0.0
H533 H 0.27129 0.63278 0.9864 0.0
H534 H 0.22506 0.63613 0.95644 0.0
O535 O 0.18436 0.60435 0.83945 0.0
O536 O 0.23032 0.58387 0.79397 0.0
H537 H 0.34979 0.56411 0.83916 0.0
H538 H 0.37869 0.5665 0.88568 0.0
C539 C 0.35089 0.55371 0.87108 0.0
H540 H 0.35416 0.51993 0.87229 0.0
H541 H 0.31868 0.5523 0.75879 0.0
O542 O 0.15705 0.60566 0.92863 0.0
C543 C 0.20079 0.60761 0.80467 0.0
C544 C 0.40245 0.13199 0.29088 0.0
C545 C 0.38697 0.10252 0.31795 0.0
C546 C 0.43474 0.15823 0.30205 0.0
C547 C 0.45368 0.15536 0.34043 0.0
H548 H 0.38953 0.13474 0.26075 0.0
H549 H 0.44573 0.18016 0.27982 0.0
S550 S 0.42488 0.08268 0.42236 0.0
N551 N 0.39294 0.07195 0.38501 0.0
N552 N 0.45408 0.12058 0.40564 0.0
C553 C 0.43838 0.12601 0.36785 0.0
C554 C 0.40497 0.09977 0.35671 0.0
C555 C 0.43103 0.45872 0.34422 0.0
C556 C 0.38802 0.45408 0.34555 0.0
C557 C 0.45641 0.4276 0.32847 0.0
C558 C 0.43982 0.39041 0.31421 0.0
H559 H 0.4451 0.48722 0.35392 0.0
H560 H 0.48932 0.43263 0.32754 0.0
S561 S 0.32966 0.36174 0.31321 0.0
N562 N 0.33022 0.40861 0.3324 0.0
N563 N 0.37814 0.34994 0.30384 0.0
C564 C 0.39714 0.38477 0.31658 0.0
C565 C 0.3712 0.41665 0.33196 0.0
C566 C 0.10289 0.37919 0.30649 0.0
C567 C 0.08188 0.38336 0.3437 0.0
C568 C 0.13569 0.40515 0.29598 0.0
C569 C 0.14962 0.43576 0.32255 0.0
H570 H 0.09321 0.3564 0.28459 0.0
H571 H 0.15022 0.40127 0.26669 0.0
S572 S 0.10595 0.45951 0.42387 0.0
N573 N 0.07793 0.42071 0.40732 0.0
N574 N 0.13979 0.46898 0.38779 0.0
C575 C 0.12953 0.43988 0.36016 0.0
C576 C 0.09567 0.41383 0.37067 0.0
C577 C 0.15609 0.10178 0.3065 0.0
C578 C 0.15193 0.08207 0.34444 0.0
C579 C 0.12956 0.1336 0.29454 0.0
C580 C 0.09834 0.14779 0.3203 0.0
H581 H 0.17939 0.09186 0.2852 0.0
H582 H 0.13354 0.14724 0.26483 0.0
S583 S 0.07423 0.10729 0.42289 0.0
N584 N 0.11386 0.0795 0.40777 0.0
N585 N 0.06446 0.13962 0.38551 0.0
C586 C 0.09412 0.12895 0.35856 0.0
C587 C 0.12078 0.09607 0.37056 0.0
C588 C 0.88304 0.89674 0.18002 0.0
C589 C 0.88658 0.93978 0.18044 0.0
C590 C 0.91542 0.87185 0.16597 0.0
C591 C 0.95211 0.88911 0.15075 0.0
H592 H 0.85537 0.88222 0.19135 0.0
H593 H 0.91182 0.83876 0.16735 0.0
S594 S 0.97527 1.0006 0.14305 0.0
N595 N 0.9289 0.99877 0.16329 0.0
N596 N 0.98911 0.95229 0.13582 0.0
C597 C 0.9553 0.93225 0.14977 0.0
C598 C 0.92276 0.95748 0.16496 0.0
C599 C 0.63785 0.88453 0.17604 0.0
C600 C 0.59495 0.88921 0.17753 0.0
C601 C 0.66319 0.91649 0.16197 0.0
C602 C 0.64649 0.9539 0.1478 0.0
H603 H 0.65194 0.85629 0.18661 0.0
H604 H 0.69619 0.91201 0.16259 0.0
S605 S 0.53551 0.98006 0.1429 0.0
N606 N 0.53661 0.93324 0.1623 0.0
N607 N 0.58396 0.99283 0.13485 0.0
C608 C 0.60344 0.95824 0.14779 0.0
C609 C 0.57777 0.92606 0.16298 0.0
C610 C 0.62033 0.66634 0.16316 0.0
C611 C 0.58314 0.64948 0.14881 0.0
C612 C 0.65273 0.64106 0.17659 0.0
C613 C 0.6487 0.59806 0.1773 0.0
H614 H 0.62432 0.69938 0.16431 0.0
H615 H 0.6808 0.65528 0.18725 0.0
S616 S 0.55858 0.53823 0.14212 0.0
N617 N 0.54511 0.58668 0.13498 0.0
N618 N 0.60542 0.53953 0.16132 0.0
C619 C 0.61202 0.58076 0.16269 0.0
C620 C 0.57944 0.60636 0.14811 0.0
C621 C 0.89772 0.65475 0.17793 0.0
C622 C 0.94063 0.65019 0.17942 0.0
C623 C 0.87254 0.62304 0.16316 0.0
C624 C 0.88946 0.58609 0.14825 0.0
H625 H 0.8835 0.68274 0.18889 0.0
H626 H 0.83952 0.62739 0.16367 0.0
S627 S 1.00055 0.56031 0.14344 0.0
N628 N 0.99919 0.60667 0.16371 0.0
N629 N 0.95218 0.5476 0.13493 0.0
C630 C 0.93252 0.58183 0.14844 0.0
C631 C 0.95801 0.61371 0.16435 0.0
C632 C 0.57905 0.93211 0.64703 0.0
C633 C 0.5838 0.88906 0.64762 0.0
C634 C 0.60998 0.95819 0.6619 0.0
C635 C 0.64712 0.94227 0.67716 0.0
H636 H 0.55062 0.94575 0.63641 0.0
H637 H 0.60484 0.99111 0.6613 0.0
S638 S 0.67606 0.83225 0.68329 0.0
N639 N 0.62933 0.83192 0.66372 0.0
N640 N 0.68766 0.88111 0.69061 0.0
C641 C 0.65286 0.89951 0.67677 0.0
C642 C 0.62115 0.87288 0.66229 0.0
C643 C 0.65905 0.60404 0.68512 0.0
C644 C 0.65433 0.58381 0.64759 0.0
C645 C 0.63314 0.63653 0.69658 0.0
C646 C 0.60208 0.65087 0.67066 0.0
H647 H 0.68225 0.59399 0.7065 0.0
H648 H 0.63745 0.65055 0.72603 0.0
S649 S 0.57693 0.60925 0.56888 0.0
N650 N 0.61606 0.58097 0.58442 0.0
N651 N 0.56789 0.64233 0.60569 0.0
C652 C 0.59741 0.63154 0.63276 0.0
C653 C 0.62339 0.59798 0.6213 0.0
C654 C 0.92626 0.58072 0.66124 0.0
C655 C 0.88888 0.59684 0.67569 0.0
C656 C 0.95744 0.60658 0.64645 0.0
C657 C 0.95269 0.64962 0.64627 0.0
H658 H 0.93141 0.54779 0.66128 0.0
H659 H 0.98605 0.5928 0.63654 0.0
S660 S 0.85989 0.70696 0.67958 0.0
N661 N 0.84817 0.6582 0.68755 0.0
N662 N 0.90691 0.70699 0.66066 0.0
C663 C 0.91508 0.66601 0.66004 0.0
C664 C 0.88315 0.63959 0.6745 0.0
C665 C 0.9135 0.94115 0.62696 0.0
C666 C 0.88064 0.9539 0.65174 0.0
C667 C 0.93879 0.90787 0.63807 0.0
C668 C 0.93255 0.88635 0.67461 0.0
H669 H 0.92007 0.95723 0.59894 0.0
H670 H 0.96416 0.89979 0.61843 0.0
S671 S 0.85092 0.90623 0.75017 0.0
N672 N 0.84301 0.94101 0.71453 0.0
N673 N 0.89122 0.87938 0.73519 0.0
C674 C 0.89988 0.89839 0.6995 0.0
C675 C 0.8737 0.9318 0.68808 0.0
C676 C 0.14918 0.13702 0.81068 0.0
C677 C 0.14528 0.09401 0.80956 0.0
C678 C 0.11702 0.16195 0.82517 0.0
C679 C 0.08028 0.14468 0.84019 0.0
H680 H 0.17704 0.15148 0.79972 0.0
H681 H 0.12093 0.19502 0.82453 0.0
S682 S 0.05621 0.03319 0.84579 0.0
N683 N 0.10258 0.03504 0.82558 0.0
N684 N 0.04274 0.08145 0.85388 0.0
C685 C 0.07667 0.10152 0.84023 0.0
C686 C 0.10898 0.07632 0.82461 0.0
C687 C 0.3782 0.10404 0.80508 0.0
C688 C 0.38111 0.08514 0.84352 0.0
C689 C 0.40399 0.13673 0.79397 0.0
C690 C 0.43304 0.15267 0.8211 0.0
H691 H 0.35659 0.09275 0.78277 0.0
H692 H 0.40123 0.14958 0.76378 0.0
S693 S 0.45286 0.11502 0.92565 0.0
N694 N 0.41552 0.08524 0.90885 0.0
N695 N 0.46332 0.14715 0.88829 0.0
C696 C 0.43585 0.13471 0.85991 0.0
C697 C 0.41006 0.10087 0.87102 0.0
C698 C 0.41696 0.37486 0.82866 0.0
C699 C 0.454 0.39167 0.84341 0.0
C700 C 0.38481 0.40017 0.81472 0.0
C701 C 0.389 0.44315 0.81387 0.0
H702 H 0.41288 0.34183 0.82758 0.0
H703 H 0.35683 0.38601 0.80376 0.0
S704 S 0.47885 0.50286 0.8499 0.0
N705 N 0.49206 0.4544 0.85745 0.0
N706 N 0.43226 0.50162 0.8301 0.0
C707 C 0.42554 0.46041 0.82887 0.0
C708 C 0.45784 0.43478 0.84398 0.0
C709 C 0.1538 0.43486 0.80858 0.0
C710 C 0.15222 0.45357 0.84709 0.0
C711 C 0.12732 0.40251 0.7982 0.0
C712 C 0.09889 0.38674 0.82616 0.0
H713 H 0.17483 0.44608 0.78566 0.0
H714 H 0.12904 0.3898 0.76792 0.0
S715 S 0.08278 0.42393 0.93134 0.0
N716 N 0.1199 0.45342 0.91346 0.0
N717 N 0.07081 0.39215 0.89424 0.0
C718 C 0.09752 0.40446 0.86507 0.0
C719 C 0.12399 0.43796 0.87545 0.0
C720 C 0.6633 0.15421 0.28349 0.0
C721 C 0.63657 0.18577 0.27007 0.0
C722 C 0.68653 0.13059 0.25625 0.0
C723 C 0.68402 0.13744 0.21435 0.0
H724 H 0.66511 0.14629 0.31533 0.0
H725 H 0.70468 0.10532 0.26805 0.0
S726 S 0.62449 0.22073 0.16372 0.0
N727 N 0.61315 0.22569 0.21221 0.0
N728 N 0.65697 0.1818 0.161 0.0
C729 C 0.66004 0.17103 0.20071 0.0
C730 C 0.63634 0.19507 0.22851 0.0
C731 C 0.38541 0.66237 0.28705 0.0
C732 C 0.35426 0.63503 0.27413 0.0
C733 C 0.40797 0.68626 0.25947 0.0
C734 C 0.40046 0.68385 0.21769 0.0
H735 H 0.39379 0.66424 0.31875 0.0
H736 H 0.43298 0.70493 0.27086 0.0
S737 S 0.3179 0.62264 0.16834 0.0
N738 N 0.31402 0.61098 0.21688 0.0
N739 N 0.35597 0.65599 0.16505 0.0
C740 C 0.36731 0.65911 0.20457 0.0
C741 C 0.34434 0.63474 0.23271 0.0
C742 C 0.8508 0.40804 0.25212 0.0
C743 C 0.85405 0.40158 0.21019 0.0
C744 C 0.87406 0.38474 0.27966 0.0
C745 C 0.90162 0.35382 0.2666 0.0
H746 H 0.83183 0.43274 0.26376 0.0
H747 H 0.87143 0.39229 0.3115 0.0
S748 S 0.91655 0.32025 0.1602 0.0
N749 N 0.88314 0.35838 0.15713 0.0
N750 N 0.92713 0.31512 0.20886 0.0
C751 C 0.90292 0.34502 0.22494 0.0
C752 C 0.87914 0.36875 0.19681 0.0
C753 C 0.15257 0.875 0.28615 0.0
C754 C 0.1841 0.90168 0.27276 0.0
C755 C 0.12921 0.8516 0.2589 0.0
C756 C 0.1363 0.85391 0.21703 0.0
H757 H 0.14451 0.87331 0.31795 0.0
H758 H 0.10396 0.83344 0.27062 0.0
S759 S 0.21952 0.91333 0.16652 0.0
N760 N 0.22421 0.92489 0.21497 0.0
N761 N 0.18071 0.88081 0.16377 0.0
C762 C 0.16978 0.87792 0.20343 0.0
C763 C 0.19358 0.90177 0.23123 0.0
C764 C 0.35023 0.90755 0.73252 0.0
C765 C 0.35309 0.90107 0.77446 0.0
C766 C 0.37458 0.885 0.70538 0.0
C767 C 0.40282 0.85486 0.71894 0.0
H768 H 0.3307 0.93172 0.72061 0.0
H769 H 0.37227 0.89254 0.67349 0.0
S770 S 0.41699 0.82142 0.82556 0.0
N771 N 0.38261 0.8587 0.82809 0.0
N772 N 0.42842 0.81666 0.77707 0.0
C773 C 0.4037 0.84597 0.7606 0.0
C774 C 0.3789 0.86898 0.78831 0.0
C775 C 0.62935 0.3499 0.73186 0.0
C776 C 0.63548 0.35321 0.77379 0.0
C777 C 0.65299 0.37304 0.70453 0.0
C778 C 0.68387 0.40047 0.7179 0.0
H779 H 0.60463 0.33111 0.72007 0.0
H780 H 0.64565 0.37058 0.67262 0.0
S781 S 0.71671 0.41514 0.82449 0.0
N782 N 0.67842 0.382 0.82725 0.0
N783 N 0.72229 0.42565 0.77587 0.0
C784 C 0.69245 0.4016 0.75957 0.0
C785 C 0.66839 0.378 0.78746 0.0
C786 C 0.16195 0.65418 0.70633 0.0
C787 C 0.13316 0.68397 0.71947 0.0
C788 C 0.18577 0.63142 0.73383 0.0
C789 C 0.18184 0.63733 0.77574 0.0
H790 H 0.1651 0.64704 0.67445 0.0
H791 H 0.20573 0.60754 0.72214 0.0
S792 S 0.11622 0.71607 0.82595 0.0
N793 N 0.10591 0.72132 0.77725 0.0
N794 N 0.15077 0.67898 0.82899 0.0
C795 C 0.15551 0.66916 0.78923 0.0
C796 C 0.13123 0.69237 0.76115 0.0
C797 C 0.86954 0.15678 0.7862 0.0
C798 C 0.89949 0.18556 0.77359 0.0
C799 C 0.84602 0.13442 0.75823 0.0
C800 C 0.85151 0.1397 0.71636 0.0
H801 H 0.86534 0.15001 0.81807 0.0
H802 H 0.82513 0.11119 0.76959 0.0
S803 S 0.92086 0.2159 0.66727 0.0
N804 N 0.92961 0.22146 0.71621 0.0
N805 N 0.88539 0.17983 0.6636 0.0
C806 C 0.879 0.17069 0.70331 0.0
C807 C 0.90291 0.19354 0.73188 0.0
C808 C 0.63103 0.14194 0.52567 0.0
C809 C 0.62754 0.12995 0.48493 0.0
C810 C 0.66375 0.12804 0.54972 0.0
C811 C 0.69343 0.10081 0.53419 0.0
H812 H 0.60913 0.16328 0.5387 0.0
H813 H 0.66599 0.13886 0.58067 0.0
S814 S 0.69753 0.0593 0.42987 0.0
N815 N 0.65655 0.08935 0.43009 0.0
N816 N 0.71704 0.06192 0.47598 0.0
C817 C 0.69011 0.08833 0.49369 0.0
C818 C 0.65731 0.10308 0.46894 0.0
C819 C 0.39308 0.63463 0.52977 0.0
C820 C 0.41004 0.62782 0.49119 0.0
C821 C 0.40595 0.66787 0.55365 0.0
C822 C 0.43717 0.69452 0.54032 0.0
H823 H 0.36855 0.61516 0.54092 0.0
H824 H 0.39075 0.67318 0.58235 0.0
S825 S 0.4922 0.68912 0.44218 0.0
N826 N 0.45935 0.65045 0.44062 0.0
N827 N 0.48513 0.71155 0.48651 0.0
C828 C 0.45471 0.68767 0.50206 0.0
C829 C 0.44087 0.65455 0.4773 0.0
C830 C 0.87778 0.43315 0.4702 0.0
C831 C 0.90808 0.4064 0.48555 0.0
C832 C 0.84571 0.44745 0.49484 0.0
C833 C 0.84254 0.43493 0.53544 0.0
H834 H 0.87891 0.44313 0.43888 0.0
H835 H 0.82328 0.46846 0.48212 0.0
S836 S 0.91112 0.36174 0.58896 0.0
N837 N 0.93159 0.36639 0.54339 0.0
N838 N 0.87013 0.39174 0.58905 0.0
C839 C 0.87187 0.40731 0.55085 0.0
C840 C 0.90504 0.39351 0.52609 0.0
C841 C 0.103 0.88113 0.4757 0.0
C842 C 0.13258 0.90867 0.49079 0.0
C843 C 0.08835 0.84852 0.49951 0.0
C844 C 0.10339 0.84195 0.53886 0.0
H845 H 0.09103 0.8849 0.44529 0.0
H846 H 0.06507 0.82833 0.48712 0.0
S847 S 0.18473 0.90193 0.59047 0.0
N848 N 0.17799 0.92577 0.54676 0.0
N849 N 0.15228 0.86291 0.59041 0.0
C850 C 0.13401 0.86828 0.55376 0.0
C851 C 0.14807 0.90215 0.53002 0.0
C852 C 0.18565 0.95001 0.99265 0.0
C853 C 0.19033 0.93675 0.95247 0.0
C854 C 0.15293 0.93588 0.01659 0.0
C855 C 0.12343 0.90852 0.00092 0.0
H856 H 0.20743 0.97145 0.00562 0.0
H857 H 0.15075 0.9464 0.04764 0.0
S858 S 0.12421 0.86207 0.89835 0.0
N859 N 0.16491 0.89237 0.89896 0.0
N860 N 0.10222 0.86738 0.94314 0.0
C861 C 0.12793 0.89499 0.96073 0.0
C862 C 0.16177 0.90862 0.93675 0.0
C863 C 0.60167 0.15534 0.0136 0.0
C864 C 0.63205 0.12867 -0.00165 0.0
C865 C 0.58731 0.18878 0.99065 0.0
C866 C 0.60351 0.19717 0.95209 0.0
H867 H 0.58876 0.1502 0.04344 0.0
H868 H 0.56326 0.2081 0.00304 0.0
S869 S 0.68713 0.14007 0.90056 0.0
N870 N 0.6793 0.11434 0.94304 0.0
N871 N 0.65431 0.17884 0.9013 0.0
C872 C 0.635 0.1718 0.93716 0.0
C873 C 0.64868 0.13703 0.95989 0.0
C874 C 0.34876 0.58898 0.99394 0.0
C875 C 0.34378 0.60217 0.95375 0.0
C876 C 0.38165 0.60316 0.01752 0.0
C877 C 0.41099 0.6305 0.00146 0.0
H878 H 0.3271 0.56753 0.00718 0.0
H879 H 0.38409 0.5927 0.04861 0.0
S880 S 0.40942 0.67673 0.89868 0.0
N881 N 0.36875 0.64642 0.89977 0.0
N882 N 0.43175 0.67156 0.94332 0.0
C883 C 0.40619 0.64398 0.96127 0.0
C884 C 0.37217 0.63029 0.93763 0.0
C885 C 0.90205 0.38682 0.99169 0.0
C886 C 0.92403 0.39022 0.02838 0.0
C887 C 0.91247 0.35722 0.96259 0.0
C888 C 0.94562 0.33031 0.96876 0.0
H889 H 0.8759 0.40648 0.98565 0.0
H890 H 0.89389 0.35483 0.93547 0.0
S891 S 1.01449 0.32709 0.05801 0.0
N892 N 0.98151 0.36427 0.06832 0.0
N893 N 1.00124 0.30928 0.01306 0.0
C894 C 0.96842 0.33373 0.00464 0.0
C895 C 0.95771 0.36362 0.0345 0.0
C896 C 0.35257 0.95062 0.48922 0.0
C897 C 0.34592 0.93359 0.45072 0.0
C898 C 0.3853 0.93727 0.51355 0.0
C899 C 0.41301 0.90716 0.49973 0.0
H900 H 0.33219 0.9743 0.50065 0.0
H901 H 0.38894 0.95052 0.54343 0.0
S902 S 0.40672 0.85061 0.40247 0.0
N903 N 0.36721 0.88251 0.40137 0.0
N904 N 0.4307 0.8597 0.44561 0.0
C905 C 0.40672 0.89003 0.46117 0.0
C906 C 0.37257 0.9026 0.43705 0.0
C907 C 0.627 0.37434 0.43774 0.0
C908 C 0.5995 0.34482 0.45306 0.0
C909 C 0.64078 0.40695 0.46191 0.0
C910 C 0.62839 0.41048 0.50256 0.0
H911 H 0.6382 0.372 0.40692 0.0
H912 H 0.66239 0.42868 0.44906 0.0
S913 S 0.55674 0.34098 0.55697 0.0
N914 N 0.5598 0.32147 0.5109 0.0
N915 N 0.58697 0.38175 0.55701 0.0
C916 C 0.60114 0.38092 0.51829 0.0
C917 C 0.58652 0.34824 0.49342 0.0
C918 C 0.1691 0.63338 0.44106 0.0
C919 C 0.19589 0.6024 0.4548 0.0
C920 C 0.13549 0.64605 0.46454 0.0
C921 C 0.12841 0.62913 0.50312 0.0
H922 H 0.17446 0.64834 0.41221 0.0
H923 H 0.11584 0.67032 0.45304 0.0
S924 S 0.19022 0.54783 0.55321 0.0
N925 N 0.21305 0.55493 0.50905 0.0
N926 N 0.15112 0.58028 0.55423 0.0
C927 C 0.1554 0.59866 0.51747 0.0
C928 C 0.18896 0.58505 0.49313 0.0
C929 C 0.90123 0.16478 0.43646 0.0
C930 C 0.93166 0.19243 0.44949 0.0
C931 C 0.88883 0.13172 0.46094 0.0
C932 C 0.90544 0.126 0.49988 0.0
H933 H 0.88625 0.16916 0.40749 0.0
H934 H 0.86488 0.11151 0.44991 0.0
S935 S 0.98553 0.19027 0.5484 0.0
N936 N 0.97853 0.2116 0.50347 0.0
N937 N 0.9536 0.15087 0.55046 0.0
C938 C 0.93549 0.15375 0.51347 0.0
C939 C 0.94887 0.18672 0.48811 0.0
C940 C 0.84532 0.08083 0.99494 0.0
C941 C 0.84318 0.0923 0.03586 0.0
C942 C 0.87836 0.09329 0.97059 0.0
C943 C 0.9107 0.11692 0.98661 0.0
H944 H 0.82126 0.06218 0.9817 0.0
H945 H 0.87855 0.08452 0.93894 0.0
S946 S 0.9175 0.15782 0.09116 0.0
N947 N 0.87413 0.13151 0.09051 0.0
N948 N 0.93757 0.15274 0.04549 0.0
C949 C 0.90885 0.12856 0.02753 0.0
C950 C 0.87464 0.11692 0.05194 0.0
C951 C 0.39629 0.90544 0.02984 0.0
C952 C 0.40647 0.90899 0.98859 0.0
C953 C 0.41107 0.87259 0.05329 0.0
C954 C 0.43748 0.84279 0.03664 0.0
H955 H 0.37569 0.92745 0.04382 0.0
H956 H 0.40154 0.87032 0.08466 0.0
S957 S 0.47428 0.83861 0.93053 0.0
N958 N 0.44451 0.87977 0.93204 0.0
N959 N 0.47359 0.81907 0.97674 0.0
C960 C 0.44816 0.84613 0.9956 0.0
C961 C 0.43248 0.87906 0.97147 0.0
C962 C 0.66866 0.41723 0.04839 0.0
C963 C 0.69613 0.44609 0.03181 0.0
C964 C 0.63549 0.40216 0.0258 0.0
C965 C 0.62947 0.41448 0.98543 0.0
H966 H 0.67292 0.40616 0.07908 0.0
H967 H 0.61523 0.37973 0.03961 0.0
S968 S 0.69317 0.48883 0.9278 0.0
N969 N 0.71491 0.4868 0.97298 0.0
N970 N 0.65384 0.45679 0.9296 0.0
C971 C 0.65712 0.44279 0.96827 0.0
C972 C 0.69025 0.45891 0.99165 0.0
C973 C 0.12337 0.66667 0.05412 0.0
C974 C 0.09688 0.69636 0.03732 0.0
C975 C 0.1381 0.63373 0.03087 0.0
C976 C 0.12777 0.63002 0.98969 0.0
H977 H 0.133 0.66907 0.08544 0.0
H978 H 0.15876 0.6118 0.04494 0.0
S979 S 0.05977 0.70011 0.93131 0.0
N980 N 0.06057 0.71984 0.97738 0.0
N981 N 0.08956 0.65897 0.93304 0.0
C982 C 0.1017 0.65985 0.97242 0.0
C983 C 0.08608 0.69286 -0.00365 0.0
loop_
_geom_bond_atom_site_label_1
_geom_bond_atom_site_label_2
_geom_bond_distance
_geom_bond_site_symmetry_2
_ccdc_geom_bond_type
Co0 O3 1.970 . S
Co0 N17 1.989 . S
Co0 O25 1.967 . S
Co0 O32 1.920 . S
Co1 O4 1.966 . S
Co1 N10 2.022 . S
Co1 N18 1.993 . S
Co1 O26 1.941 . S
C2 O3 1.258 . S
C2 O4 1.263 . S
O3 Co0 1.970 . S
O3 C2 1.258 . S
O4 Co1 1.966 . S
O4 C2 1.263 . S
C5 O6 1.235 . S
C5 O32 1.289 . S
O6 C5 1.235 . S
C7 C9 1.400 . S
C7 N10 1.351 . S
C7 C12 1.501 . S
C8 C9 1.387 . S
C8 N11 1.341 . S
C9 C7 1.400 . S
C9 C8 1.387 . S
N10 Co1 2.022 . S
N10 C7 1.351 . S
N10 N11 1.365 . S
N11 C8 1.341 . S
N11 N10 1.365 . S
N11 H31 0.862 . S
C12 C7 1.501 . S
C12 H13 0.961 . S
C12 H14 0.961 . S
C12 H15 0.960 . S
H13 C12 0.961 . S
H14 C12 0.961 . S
H15 C12 0.960 . S
C16 N17 1.342 . S
C16 C20 1.401 . S
C16 C21 1.499 . S
N17 Co0 1.989 . S
N17 C16 1.342 . S
N17 N18 1.388 . S
N18 Co1 1.993 . S
N18 N17 1.388 . S
N18 C19 1.346 . S
C19 N18 1.346 . S
C19 C20 1.396 . S
C19 C29 1.510 . S
C20 C16 1.401 . S
C20 C19 1.396 . S
C21 C16 1.499 . S
C21 H22 0.959 . S
C21 H23 0.960 . S
C21 H24 0.961 . S
H22 C21 0.959 . S
H23 C21 0.960 . S
H24 C21 0.961 . S
O25 Co0 1.967 . S
O25 C33 1.258 . S
O26 Co1 1.941 . S
O26 C33 1.266 . S
H27 C29 0.959 . S
H28 C29 0.961 . S
C29 C19 1.510 . S
C29 H27 0.959 . S
C29 H28 0.961 . S
C29 H30 0.960 . S
H30 C29 0.960 . S
H31 N11 0.862 . S
O32 Co0 1.920 . S
O32 C5 1.289 . S
C33 O25 1.258 . S
C33 O26 1.266 . S
Co34 O37 1.970 . S
Co34 N51 1.989 . S
Co34 O59 1.967 . S
Co34 O66 1.920 . S
Co35 O38 1.966 . S
Co35 N44 2.022 . S
Co35 N52 1.993 . S
Co35 O60 1.941 . S
C36 O37 1.258 . S
C36 O38 1.263 . S
O37 Co34 1.970 . S
O37 C36 1.258 . S
O38 Co35 1.966 . S
O38 C36 1.263 . S
C39 O40 1.235 . S
C39 O66 1.289 . S
O40 C39 1.235 . S
C41 C43 1.400 . S
C41 N44 1.351 . S
C41 C46 1.501 . S
C42 C43 1.387 . S
C42 N45 1.341 . S
C43 C41 1.400 . S
C43 C42 1.387 . S
N44 Co35 2.022 . S
N44 C41 1.351 . S
N44 N45 1.365 . S
N45 C42 1.341 . S
N45 N44 1.365 . S
N45 H65 0.862 . S
C46 C41 1.501 . S
C46 H47 0.961 . S
C46 H48 0.961 . S
C46 H49 0.960 . S
H47 C46 0.961 . S
H48 C46 0.961 . S
H49 C46 0.960 . S
C50 N51 1.342 . S
C50 C54 1.401 . S
C50 C55 1.499 . S
N51 Co34 1.989 . S
N51 C50 1.342 . S
N51 N52 1.388 . S
N52 Co35 1.993 . S
N52 N51 1.388 . S
N52 C53 1.346 . S
C53 N52 1.346 . S
C53 C54 1.396 . S
C53 C63 1.510 . S
C54 C50 1.401 . S
C54 C53 1.396 . S
C55 C50 1.499 . S
C55 H56 0.959 . S
C55 H57 0.960 . S
C55 H58 0.961 . S
H56 C55 0.959 . S
H57 C55 0.960 . S
H58 C55 0.961 . S
O59 Co34 1.967 . S
O59 C67 1.258 . S
O60 Co35 1.941 . S
O60 C67 1.266 . S
H61 C63 0.959 . S
H62 C63 0.961 . S
C63 C53 1.510 . S
C63 H61 0.959 . S
C63 H62 0.961 . S
C63 H64 0.960 . S
H64 C63 0.960 . S
H65 N45 0.862 . S
O66 Co34 1.920 . S
O66 C39 1.289 . S
C67 O59 1.258 . S
C67 O60 1.266 . S
Co68 O71 1.970 . S
Co68 N85 1.989 . S
Co68 O93 1.967 . S
Co68 O100 1.920 . S
Co69 O72 1.966 1_655 S
Co69 N78 2.022 1_655 S
Co69 N86 1.993 . S
Co69 O94 1.941 . S
C70 O71 1.258 1_455 S
C70 O72 1.263 . S
O71 Co68 1.970 . S
O71 C70 1.258 1_655 S
O72 Co69 1.966 1_455 S
O72 C70 1.263 . S
C73 O74 1.235 . S
C73 O100 1.289 . S
O74 C73 1.235 . S
C75 C77 1.400 . S
C75 N78 1.351 . S
C75 C80 1.501 . S
C76 C77 1.387 . S
C76 N79 1.349 . S
C77 C75 1.400 . S
C77 C76 1.387 . S
N78 Co69 2.022 1_455 S
N78 C75 1.351 . S
N78 N79 1.371 . S
N79 C76 1.349 . S
N79 N78 1.371 . S
N79 H99 0.849 1_455 S
C80 C75 1.501 . S
C80 H81 0.961 . S
C80 H82 0.961 . S
C80 H83 0.960 . S
H81 C80 0.961 . S
H82 C80 0.961 . S
H83 C80 0.960 . S
C84 N85 1.342 . S
C84 C88 1.401 . S
C84 C89 1.499 . S
N85 Co68 1.989 . S
N85 C84 1.342 . S
N85 N86 1.388 . S
N86 Co69 1.993 . S
N86 N85 1.388 . S
N86 C87 1.346 . S
C87 N86 1.346 . S
C87 C88 1.396 . S
C87 C97 1.510 . S
C88 C84 1.401 . S
C88 C87 1.396 . S
C89 C84 1.499 . S
C89 H90 0.959 . S
C89 H91 0.960 . S
C89 H92 0.961 . S
H90 C89 0.959 . S
H91 C89 0.960 . S
H92 C89 0.961 . S
O93 Co68 1.967 . S
O93 C101 1.258 . S
O94 Co69 1.941 . S
O94 C101 1.266 . S
H95 C97 0.959 . S
H96 C97 0.961 . S
C97 C87 1.510 . S
C97 H95 0.959 . S
C97 H96 0.961 . S
C97 H98 0.960 . S
H98 C97 0.960 . S
H99 N79 0.849 1_655 S
O100 Co68 1.920 . S
O100 C73 1.289 . S
C101 O93 1.258 . S
C101 O94 1.266 . S
Co102 O105 1.970 . S
Co102 N119 1.989 . S
Co102 O127 1.967 . S
Co102 O134 1.920 . S
Co103 O106 1.966 1_565 S
Co103 N112 2.022 1_565 S
Co103 N120 1.993 . S
Co103 O128 1.941 . S
C104 O105 1.258 1_545 S
C104 O106 1.263 . S
O105 Co102 1.970 . S
O105 C104 1.258 1_565 S
O106 Co103 1.966 1_545 S
O106 C104 1.263 . S
C107 O108 1.235 . S
C107 O134 1.289 . S
O108 C107 1.235 . S
C109 C111 1.400 . S
C109 N112 1.351 . S
C109 C114 1.501 . S
C110 C111 1.387 . S
C110 N113 1.349 . S
C111 C109 1.400 . S
C111 C110 1.387 . S
N112 Co103 2.022 1_545 S
N112 C109 1.351 . S
N112 N113 1.371 . S
N113 C110 1.349 . S
N113 N112 1.371 . S
N113 H133 0.849 1_545 S
C114 C109 1.501 . S
C114 H115 0.961 . S
C114 H116 0.961 . S
C114 H117 0.960 . S
H115 C114 0.961 . S
H116 C114 0.961 . S
H117 C114 0.960 . S
C118 N119 1.342 . S
C118 C122 1.401 . S
C118 C123 1.499 . S
N119 Co102 1.989 . S
N119 C118 1.342 . S
N119 N120 1.388 . S
N120 Co103 1.993 . S
N120 N119 1.388 . S
N120 C121 1.346 . S
C121 N120 1.346 . S
C121 C122 1.396 . S
C121 C131 1.510 . S
C122 C118 1.401 . S
C122 C121 1.396 . S
C123 C118 1.499 . S
C123 H124 0.959 . S
C123 H125 0.960 . S
C123 H126 0.961 . S
H124 C123 0.959 . S
H125 C123 0.960 . S
H126 C123 0.961 . S
O127 Co102 1.967 . S
O127 C135 1.258 . S
O128 Co103 1.941 . S
O128 C135 1.266 . S
H129 C131 0.959 . S
H130 C131 0.961 . S
C131 C121 1.510 . S
C131 H129 0.959 . S
C131 H130 0.961 . S
C131 H132 0.960 . S
H132 C131 0.960 . S
H133 N113 0.849 1_565 S
O134 Co102 1.920 . S
O134 C107 1.289 . S
C135 O127 1.258 . S
C135 O128 1.266 . S
Co136 O139 1.970 . S
Co136 N153 1.989 . S
Co136 O161 1.967 . S
Co136 O168 1.920 . S
Co137 O140 1.966 1_455 S
Co137 N146 2.022 1_455 S
Co137 N154 1.993 . S
Co137 O162 1.941 . S
C138 O139 1.258 1_655 S
C138 O140 1.263 . S
O139 Co136 1.970 . S
O139 C138 1.258 1_455 S
O140 Co137 1.966 1_655 S
O140 C138 1.263 . S
C141 O142 1.235 . S
C141 O168 1.289 . S
O142 C141 1.235 . S
C143 C145 1.400 . S
C143 N146 1.351 . S
C143 C148 1.501 . S
C144 C145 1.387 . S
C144 N147 1.349 . S
C145 C143 1.400 . S
C145 C144 1.387 . S
N146 Co137 2.022 1_655 S
N146 C143 1.351 . S
N146 N147 1.371 . S
N147 C144 1.349 . S
N147 N146 1.371 . S
N147 H167 0.849 1_655 S
C148 C143 1.501 . S
C148 H149 0.961 . S
C148 H150 0.961 . S
C148 H151 0.960 . S
H149 C148 0.961 . S
H150 C148 0.961 . S
H151 C148 0.960 . S
C152 N153 1.342 . S
C152 C156 1.401 . S
C152 C157 1.499 . S
N153 Co136 1.989 . S
N153 C152 1.342 . S
N153 N154 1.388 . S
N154 Co137 1.993 . S
N154 N153 1.388 . S
N154 C155 1.346 . S
C155 N154 1.346 . S
C155 C156 1.396 . S
C155 C165 1.510 . S
C156 C152 1.401 . S
C156 C155 1.396 . S
C157 C152 1.499 . S
C157 H158 0.959 . S
C157 H159 0.960 . S
C157 H160 0.961 . S
H158 C157 0.959 . S
H159 C157 0.960 . S
H160 C157 0.961 . S
O161 Co136 1.967 . S
O161 C169 1.258 . S
O162 Co137 1.941 . S
O162 C169 1.266 . S
H163 C165 0.959 . S
H164 C165 0.961 . S
C165 C155 1.510 . S
C165 H163 0.959 . S
C165 H164 0.961 . S
C165 H166 0.960 . S
H166 C165 0.960 . S
H167 N147 0.849 1_455 S
O168 Co136 1.920 . S
O168 C141 1.289 . S
C169 O161 1.258 . S
C169 O162 1.266 . S
Co170 O173 1.970 . S
Co170 N187 1.989 . S
Co170 O195 1.967 . S
Co170 O202 1.920 . S
Co171 O174 1.966 1_545 S
Co171 N180 2.022 1_545 S
Co171 N188 1.993 . S
Co171 O196 1.941 . S
C172 O173 1.258 1_565 S
C172 O174 1.263 . S
O173 Co170 1.970 . S
O173 C172 1.258 1_545 S
O174 Co171 1.966 1_565 S
O174 C172 1.263 . S
C175 O176 1.235 . S
C175 O202 1.289 . S
O176 C175 1.235 . S
C177 C179 1.400 . S
C177 N180 1.351 . S
C177 C182 1.501 . S
C178 C179 1.387 . S
C178 N181 1.349 . S
C179 C177 1.400 . S
C179 C178 1.387 . S
N180 Co171 2.022 1_565 S
N180 C177 1.351 . S
N180 N181 1.371 . S
N181 C178 1.349 . S
N181 N180 1.371 . S
N181 H201 0.849 1_565 S
C182 C177 1.501 . S
C182 H183 0.961 . S
C182 H184 0.961 . S
C182 H185 0.960 . S
H183 C182 0.961 . S
H184 C182 0.961 . S
H185 C182 0.960 . S
C186 N187 1.342 . S
C186 C190 1.401 . S
C186 C191 1.499 . S
N187 Co170 1.989 . S
N187 C186 1.342 . S
N187 N188 1.388 . S
N188 Co171 1.993 . S
N188 N187 1.388 . S
N188 C189 1.346 . S
C189 N188 1.346 . S
C189 C190 1.396 . S
C189 C199 1.510 . S
C190 C186 1.401 . S
C190 C189 1.396 . S
C191 C186 1.499 . S
C191 H192 0.959 . S
C191 H193 0.960 . S
C191 H194 0.961 . S
H192 C191 0.959 . S
H193 C191 0.960 . S
H194 C191 0.961 . S
O195 Co170 1.967 . S
O195 C203 1.258 . S
O196 Co171 1.941 . S
O196 C203 1.266 . S
H197 C199 0.959 . S
H198 C199 0.961 . S
C199 C189 1.510 . S
C199 H197 0.959 . S
C199 H198 0.961 . S
C199 H200 0.960 . S
H200 C199 0.960 . S
H201 N181 0.849 1_545 S
O202 Co170 1.920 . S
O202 C175 1.289 . S
C203 O195 1.258 . S
C203 O196 1.266 . S
Co204 O207 1.970 . S
Co204 N221 1.989 . S
Co204 O229 1.967 . S
Co204 O236 1.920 . S
Co205 O208 1.966 . S
Co205 N214 2.022 . S
Co205 N222 1.993 . S
Co205 O230 1.941 . S
C206 O207 1.258 . S
C206 O208 1.263 . S
O207 Co204 1.970 . S
O207 C206 1.258 . S
O208 Co205 1.966 . S
O208 C206 1.263 . S
C209 O210 1.235 . S
C209 O236 1.289 . S
O210 C209 1.235 . S
C211 C213 1.400 . S
C211 N214 1.351 . S
C211 C216 1.501 . S
C212 C213 1.387 . S
C212 N215 1.341 . S
C213 C211 1.400 . S
C213 C212 1.387 . S
N214 Co205 2.022 . S
N214 C211 1.351 . S
N214 N215 1.365 . S
N215 C212 1.341 . S
N215 N214 1.365 . S
N215 H235 0.862 . S
C216 C211 1.501 . S
C216 H217 0.961 . S
C216 H218 0.961 . S
C216 H219 0.960 . S
H217 C216 0.961 . S
H218 C216 0.961 . S
H219 C216 0.960 . S
C220 N221 1.342 . S
C220 C224 1.401 . S
C220 C225 1.499 . S
N221 Co204 1.989 . S
N221 C220 1.342 . S
N221 N222 1.388 . S
N222 Co205 1.993 . S
N222 N221 1.388 . S
N222 C223 1.346 . S
C223 N222 1.346 . S
C223 C224 1.396 . S
C223 C233 1.510 . S
C224 C220 1.401 . S
C224 C223 1.396 . S
C225 C220 1.499 . S
C225 H226 0.959 . S
C225 H227 0.960 . S
C225 H228 0.961 . S
H226 C225 0.959 . S
H227 C225 0.960 . S
H228 C225 0.961 . S
O229 Co204 1.967 . S
O229 C237 1.258 . S
O230 Co205 1.941 . S
O230 C237 1.266 . S
H231 C233 0.959 . S
H232 C233 0.961 . S
C233 C223 1.510 . S
C233 H231 0.959 . S
C233 H232 0.961 . S
C233 H234 0.960 . S
H234 C233 0.960 . S
H235 N215 0.862 . S
O236 Co204 1.920 . S
O236 C209 1.289 . S
C237 O229 1.258 . S
C237 O230 1.266 . S
Co238 O241 1.970 . S
Co238 N255 1.989 . S
Co238 O263 1.967 . S
Co238 O270 1.920 . S
Co239 O242 1.966 . S
Co239 N248 2.022 . S
Co239 N256 1.993 . S
Co239 O264 1.941 . S
C240 O241 1.258 . S
C240 O242 1.263 . S
O241 Co238 1.970 . S
O241 C240 1.258 . S
O242 Co239 1.966 . S
O242 C240 1.263 . S
C243 O244 1.235 . S
C243 O270 1.289 . S
O244 C243 1.235 . S
C245 C247 1.400 . S
C245 N248 1.351 . S
C245 C250 1.501 . S
C246 C247 1.387 . S
C246 N249 1.341 . S
C247 C245 1.400 . S
C247 C246 1.387 . S
N248 Co239 2.022 . S
N248 C245 1.351 . S
N248 N249 1.365 . S
N249 C246 1.341 . S
N249 N248 1.365 . S
N249 H269 0.862 . S
C250 C245 1.501 . S
C250 H251 0.961 . S
C250 H252 0.961 . S
C250 H253 0.960 . S
H251 C250 0.961 . S
H252 C250 0.961 . S
H253 C250 0.960 . S
C254 N255 1.342 . S
C254 C258 1.401 . S
C254 C259 1.499 . S
N255 Co238 1.989 . S
N255 C254 1.342 . S
N255 N256 1.388 . S
N256 Co239 1.993 . S
N256 N255 1.388 . S
N256 C257 1.346 . S
C257 N256 1.346 . S
C257 C258 1.396 . S
C257 C267 1.510 . S
C258 C254 1.401 . S
C258 C257 1.396 . S
C259 C254 1.499 . S
C259 H260 0.959 . S
C259 H261 0.960 . S
C259 H262 0.961 . S
H260 C259 0.959 . S
H261 C259 0.960 . S
H262 C259 0.961 . S
O263 Co238 1.967 . S
O263 C271 1.258 . S
O264 Co239 1.941 . S
O264 C271 1.266 . S
H265 C267 0.959 . S
H266 C267 0.961 . S
C267 C257 1.510 . S
C267 H265 0.959 . S
C267 H266 0.961 . S
C267 H268 0.960 . S
H268 C267 0.960 . S
H269 N249 0.862 . S
O270 Co238 1.920 . S
O270 C243 1.289 . S
C271 O263 1.258 . S
C271 O264 1.266 . S
Co272 O275 1.970 . S
Co272 N289 1.989 . S
Co272 O297 1.967 . S
Co272 O304 1.920 . S
Co273 O276 1.966 . S
Co273 N282 2.022 . S
Co273 N290 1.993 . S
Co273 O298 1.941 . S
C274 O275 1.258 . S
C274 O276 1.263 . S
O275 Co272 1.970 . S
O275 C274 1.258 . S
O276 Co273 1.966 . S
O276 C274 1.263 . S
C277 O278 1.235 . S
C277 O304 1.289 . S
O278 C277 1.235 . S
C279 C281 1.400 . S
C279 N282 1.351 . S
C279 C284 1.501 . S
C280 C281 1.387 . S
C280 N283 1.341 . S
C281 C279 1.400 . S
C281 C280 1.387 . S
N282 Co273 2.022 . S
N282 C279 1.351 . S
N282 N283 1.365 . S
N283 C280 1.341 . S
N283 N282 1.365 . S
N283 H303 0.862 . S
C284 C279 1.501 . S
C284 H285 0.961 . S
C284 H286 0.961 . S
C284 H287 0.960 . S
H285 C284 0.961 . S
H286 C284 0.961 . S
H287 C284 0.960 . S
C288 N289 1.342 . S
C288 C292 1.401 . S
C288 C293 1.499 . S
N289 Co272 1.989 . S
N289 C288 1.342 . S
N289 N290 1.388 . S
N290 Co273 1.993 . S
N290 N289 1.388 . S
N290 C291 1.346 . S
C291 N290 1.346 . S
C291 C292 1.396 . S
C291 C301 1.510 . S
C292 C288 1.401 . S
C292 C291 1.396 . S
C293 C288 1.499 . S
C293 H294 0.959 . S
C293 H295 0.960 . S
C293 H296 0.961 . S
H294 C293 0.959 . S
H295 C293 0.960 . S
H296 C293 0.961 . S
O297 Co272 1.967 . S
O297 C305 1.258 . S
O298 Co273 1.941 . S
O298 C305 1.266 . S
H299 C301 0.959 . S
H300 C301 0.961 . S
C301 C291 1.510 . S
C301 H299 0.959 . S
C301 H300 0.961 . S
C301 H302 0.960 . S
H302 C301 0.960 . S
H303 N283 0.862 . S
O304 Co272 1.920 . S
O304 C277 1.289 . S
C305 O297 1.258 . S
C305 O298 1.266 . S
Co306 O309 1.970 . S
Co306 N323 1.989 . S
Co306 O331 1.967 . S
Co306 O338 1.920 . S
Co307 O310 1.966 . S
Co307 N316 2.022 . S
Co307 N324 1.993 . S
Co307 O332 1.941 . S
C308 O309 1.258 . S
C308 O310 1.263 . S
O309 Co306 1.970 . S
O309 C308 1.258 . S
O310 Co307 1.966 . S
O310 C308 1.263 . S
C311 O312 1.235 . S
C311 O338 1.289 . S
O312 C311 1.235 . S
C313 C315 1.400 . S
C313 N316 1.351 . S
C313 C318 1.501 . S
C314 C315 1.387 . S
C314 N317 1.341 . S
C315 C313 1.400 . S
C315 C314 1.387 . S
N316 Co307 2.022 . S
N316 C313 1.351 . S
N316 N317 1.365 . S
N317 C314 1.341 . S
N317 N316 1.365 . S
N317 H337 0.862 . S
C318 C313 1.501 . S
C318 H319 0.961 . S
C318 H320 0.961 . S
C318 H321 0.960 . S
H319 C318 0.961 . S
H320 C318 0.961 . S
H321 C318 0.960 . S
C322 N323 1.342 . S
C322 C326 1.401 . S
C322 C327 1.499 . S
N323 Co306 1.989 . S
N323 C322 1.342 . S
N323 N324 1.388 . S
N324 Co307 1.993 . S
N324 N323 1.388 . S
N324 C325 1.346 . S
C325 N324 1.346 . S
C325 C326 1.396 . S
C325 C335 1.510 . S
C326 C322 1.401 . S
C326 C325 1.396 . S
C327 C322 1.499 . S
C327 H328 0.959 . S
C327 H329 0.960 . S
C327 H330 0.961 . S
H328 C327 0.959 . S
H329 C327 0.960 . S
H330 C327 0.961 . S
O331 Co306 1.967 . S
O331 C339 1.258 . S
O332 Co307 1.941 . S
O332 C339 1.266 . S
H333 C335 0.959 . S
H334 C335 0.961 . S
C335 C325 1.510 . S
C335 H333 0.959 . S
C335 H334 0.961 . S
C335 H336 0.960 . S
H336 C335 0.960 . S
H337 N317 0.862 . S
O338 Co306 1.920 . S
O338 C311 1.289 . S
C339 O331 1.258 . S
C339 O332 1.266 . S
Co340 O343 1.970 . S
Co340 N357 1.989 . S
Co340 O365 1.967 . S
Co340 O372 1.920 . S
Co341 O344 1.966 1_455 S
Co341 N350 2.022 1_455 S
Co341 N358 1.993 . S
Co341 O366 1.941 . S
C342 O343 1.258 1_655 S
C342 O344 1.263 . S
O343 Co340 1.970 . S
O343 C342 1.258 1_455 S
O344 Co341 1.966 1_655 S
O344 C342 1.263 . S
C345 O346 1.235 . S
C345 O372 1.289 . S
O346 C345 1.235 . S
C347 C349 1.400 . S
C347 N350 1.351 . S
C347 C352 1.501 . S
C348 C349 1.387 . S
C348 N351 1.349 . S
C349 C347 1.400 . S
C349 C348 1.387 . S
N350 Co341 2.022 1_655 S
N350 C347 1.351 . S
N350 N351 1.371 . S
N351 C348 1.349 . S
N351 N350 1.371 . S
N351 H371 0.849 1_655 S
C352 C347 1.501 . S
C352 H353 0.961 . S
C352 H354 0.961 . S
C352 H355 0.960 . S
H353 C352 0.961 . S
H354 C352 0.961 . S
H355 C352 0.960 . S
C356 N357 1.342 . S
C356 C360 1.401 . S
C356 C361 1.499 . S
N357 Co340 1.989 . S
N357 C356 1.342 . S
N357 N358 1.388 . S
N358 Co341 1.993 . S
N358 N357 1.388 . S
N358 C359 1.346 . S
C359 N358 1.346 . S
C359 C360 1.396 . S
C359 C369 1.510 . S
C360 C356 1.401 . S
C360 C359 1.396 . S
C361 C356 1.499 . S
C361 H362 0.959 . S
C361 H363 0.960 . S
C361 H364 0.961 . S
H362 C361 0.959 . S
H363 C361 0.960 . S
H364 C361 0.961 . S
O365 Co340 1.967 . S
O365 C373 1.258 . S
O366 Co341 1.941 . S
O366 C373 1.266 . S
H367 C369 0.959 . S
H368 C369 0.961 . S
C369 C359 1.510 . S
C369 H367 0.959 . S
C369 H368 0.961 . S
C369 H370 0.960 . S
H370 C369 0.960 . S
H371 N351 0.849 1_455 S
O372 Co340 1.920 . S
O372 C345 1.289 . S
C373 O365 1.258 . S
C373 O366 1.266 . S
Co374 O377 1.970 . S
Co374 N391 1.989 . S
Co374 O399 1.967 . S
Co374 O406 1.920 . S
Co375 O378 1.966 1_545 S
Co375 N384 2.022 1_545 S
Co375 N392 1.993 . S
Co375 O400 1.941 . S
C376 O377 1.258 1_565 S
C376 O378 1.263 . S
O377 Co374 1.970 . S
O377 C376 1.258 1_545 S
O378 Co375 1.966 1_565 S
O378 C376 1.263 . S
C379 O380 1.235 . S
C379 O406 1.289 . S
O380 C379 1.235 . S
C381 C383 1.400 . S
C381 N384 1.351 . S
C381 C386 1.501 . S
C382 C383 1.387 . S
C382 N385 1.349 . S
C383 C381 1.400 . S
C383 C382 1.387 . S
N384 Co375 2.022 1_565 S
N384 C381 1.351 . S
N384 N385 1.371 . S
N385 C382 1.349 . S
N385 N384 1.371 . S
N385 H405 0.849 1_565 S
C386 C381 1.501 . S
C386 H387 0.961 . S
C386 H388 0.961 . S
C386 H389 0.960 . S
H387 C386 0.961 . S
H388 C386 0.961 . S
H389 C386 0.960 . S
C390 N391 1.342 . S
C390 C394 1.401 . S
C390 C395 1.499 . S
N391 Co374 1.989 . S
N391 C390 1.342 . S
N391 N392 1.388 . S
N392 Co375 1.993 . S
N392 N391 1.388 . S
N392 C393 1.346 . S
C393 N392 1.346 . S
C393 C394 1.396 . S
C393 C403 1.510 . S
C394 C390 1.401 . S
C394 C393 1.396 . S
C395 C390 1.499 . S
C395 H396 0.959 . S
C395 H397 0.960 . S
C395 H398 0.961 . S
H396 C395 0.959 . S
H397 C395 0.960 . S
H398 C395 0.961 . S
O399 Co374 1.967 . S
O399 C407 1.258 . S
O400 Co375 1.941 . S
O400 C407 1.266 . S
H401 C403 0.959 . S
H402 C403 0.961 . S
C403 C393 1.510 . S
C403 H401 0.959 . S
C403 H402 0.961 . S
C403 H404 0.960 . S
H404 C403 0.960 . S
H405 N385 0.849 1_545 S
O406 Co374 1.920 . S
O406 C379 1.289 . S
C407 O399 1.258 . S
C407 O400 1.266 . S
Co408 O411 1.970 . S
Co408 N425 1.989 . S
Co408 O433 1.967 . S
Co408 O440 1.920 . S
Co409 O412 1.966 1_655 S
Co409 N418 2.022 1_655 S
Co409 N426 1.993 . S
Co409 O434 1.941 . S
C410 O411 1.258 1_455 S
C410 O412 1.263 . S
O411 Co408 1.970 . S
O411 C410 1.258 1_655 S
O412 Co409 1.966 1_455 S
O412 C410 1.263 . S
C413 O414 1.235 . S
C413 O440 1.289 . S
O414 C413 1.235 . S
C415 C417 1.400 . S
C415 N418 1.351 . S
C415 C420 1.501 . S
C416 C417 1.387 . S
C416 N419 1.349 . S
C417 C415 1.400 . S
C417 C416 1.387 . S
N418 Co409 2.022 1_455 S
N418 C415 1.351 . S
N418 N419 1.371 . S
N419 C416 1.349 . S
N419 N418 1.371 . S
N419 H439 0.849 1_455 S
C420 C415 1.501 . S
C420 H421 0.961 . S
C420 H422 0.961 . S
C420 H423 0.960 . S
H421 C420 0.961 . S
H422 C420 0.961 . S
H423 C420 0.960 . S
C424 N425 1.342 . S
C424 C428 1.401 . S
C424 C429 1.499 . S
N425 Co408 1.989 . S
N425 C424 1.342 . S
N425 N426 1.388 . S
N426 Co409 1.993 . S
N426 N425 1.388 . S
N426 C427 1.346 . S
C427 N426 1.346 . S
C427 C428 1.396 . S
C427 C437 1.510 . S
C428 C424 1.401 . S
C428 C427 1.396 . S
C429 C424 1.499 . S
C429 H430 0.959 . S
C429 H431 0.960 . S
C429 H432 0.961 . S
H430 C429 0.959 . S
H431 C429 0.960 . S
H432 C429 0.961 . S
O433 Co408 1.967 . S
O433 C441 1.258 . S
O434 Co409 1.941 . S
O434 C441 1.266 . S
H435 C437 0.959 . S
H436 C437 0.961 . S
C437 C427 1.510 . S
C437 H435 0.959 . S
C437 H436 0.961 . S
C437 H438 0.960 . S
H438 C437 0.960 . S
H439 N419 0.849 1_655 S
O440 Co408 1.920 . S
O440 C413 1.289 . S
C441 O433 1.258 . S
C441 O434 1.266 . S
Co442 O445 1.970 . S
Co442 N459 1.989 . S
Co442 O467 1.967 . S
Co442 O474 1.920 . S
Co443 O446 1.966 1_565 S
Co443 N452 2.022 1_565 S
Co443 N460 1.993 . S
Co443 O468 1.941 . S
C444 O445 1.258 1_545 S
C444 O446 1.263 . S
O445 Co442 1.970 . S
O445 C444 1.258 1_565 S
O446 Co443 1.966 1_545 S
O446 C444 1.263 . S
C447 O448 1.235 . S
C447 O474 1.289 . S
O448 C447 1.235 . S
C449 C451 1.400 . S
C449 N452 1.351 . S
C449 C454 1.501 . S
C450 C451 1.387 . S
C450 N453 1.349 . S
C451 C449 1.400 . S
C451 C450 1.387 . S
N452 Co443 2.022 1_545 S
N452 C449 1.351 . S
N452 N453 1.371 . S
N453 C450 1.349 . S
N453 N452 1.371 . S
N453 H473 0.849 1_545 S
C454 C449 1.501 . S
C454 H455 0.961 . S
C454 H456 0.961 . S
C454 H457 0.960 . S
H455 C454 0.961 . S
H456 C454 0.961 . S
H457 C454 0.960 . S
C458 N459 1.342 . S
C458 C462 1.401 . S
C458 C463 1.499 . S
N459 Co442 1.989 . S
N459 C458 1.342 . S
N459 N460 1.388 . S
N460 Co443 1.993 . S
N460 N459 1.388 . S
N460 C461 1.346 . S
C461 N460 1.346 . S
C461 C462 1.396 . S
C461 C471 1.510 . S
C462 C458 1.401 . S
C462 C461 1.396 . S
C463 C458 1.499 . S
C463 H464 0.959 . S
C463 H465 0.960 . S
C463 H466 0.961 . S
H464 C463 0.959 . S
H465 C463 0.960 . S
H466 C463 0.961 . S
O467 Co442 1.967 . S
O467 C475 1.258 . S
O468 Co443 1.941 . S
O468 C475 1.266 . S
H469 C471 0.959 . S
H470 C471 0.961 . S
C471 C461 1.510 . S
C471 H469 0.959 . S
C471 H470 0.961 . S
C471 H472 0.960 . S
H472 C471 0.960 . S
H473 N453 0.849 1_565 S
O474 Co442 1.920 . S
O474 C447 1.289 . S
C475 O467 1.258 . S
C475 O468 1.266 . S
Co476 O479 1.970 . S
Co476 N493 1.989 . S
Co476 O501 1.967 . S
Co476 O508 1.920 . S
Co477 O480 1.966 . S
Co477 N486 2.022 . S
Co477 N494 1.993 . S
Co477 O502 1.941 . S
C478 O479 1.258 . S
C478 O480 1.263 . S
O479 Co476 1.970 . S
O479 C478 1.258 . S
O480 Co477 1.966 . S
O480 C478 1.263 . S
C481 O482 1.235 . S
C481 O508 1.289 . S
O482 C481 1.235 . S
C483 C485 1.400 . S
C483 N486 1.351 . S
C483 C488 1.501 . S
C484 C485 1.387 . S
C484 N487 1.341 . S
C485 C483 1.400 . S
C485 C484 1.387 . S
N486 Co477 2.022 . S
N486 C483 1.351 . S
N486 N487 1.365 . S
N487 C484 1.341 . S
N487 N486 1.365 . S
N487 H507 0.862 . S
C488 C483 1.501 . S
C488 H489 0.961 . S
C488 H490 0.961 . S
C488 H491 0.960 . S
H489 C488 0.961 . S
H490 C488 0.961 . S
H491 C488 0.960 . S
C492 N493 1.342 . S
C492 C496 1.401 . S
C492 C497 1.499 . S
N493 Co476 1.989 . S
N493 C492 1.342 . S
N493 N494 1.388 . S
N494 Co477 1.993 . S
N494 N493 1.388 . S
N494 C495 1.346 . S
C495 N494 1.346 . S
C495 C496 1.396 . S
C495 C505 1.510 . S
C496 C492 1.401 . S
C496 C495 1.396 . S
C497 C492 1.499 . S
C497 H498 0.959 . S
C497 H499 0.960 . S
C497 H500 0.961 . S
H498 C497 0.959 . S
H499 C497 0.960 . S
H500 C497 0.961 . S
O501 Co476 1.967 . S
O501 C509 1.258 . S
O502 Co477 1.941 . S
O502 C509 1.266 . S
H503 C505 0.959 . S
H504 C505 0.961 . S
C505 C495 1.510 . S
C505 H503 0.959 . S
C505 H504 0.961 . S
C505 H506 0.960 . S
H506 C505 0.960 . S
H507 N487 0.862 . S
O508 Co476 1.920 . S
O508 C481 1.289 . S
C509 O501 1.258 . S
C509 O502 1.266 . S
Co510 O513 1.970 . S
Co510 N527 1.989 . S
Co510 O535 1.967 . S
Co510 O542 1.920 . S
Co511 O514 1.966 . S
Co511 N520 2.022 . S
Co511 N528 1.993 . S
Co511 O536 1.941 . S
C512 O513 1.258 . S
C512 O514 1.263 . S
O513 Co510 1.970 . S
O513 C512 1.258 . S
O514 Co511 1.966 . S
O514 C512 1.263 . S
C515 O516 1.235 . S
C515 O542 1.289 . S
O516 C515 1.235 . S
C517 C519 1.400 . S
C517 N520 1.351 . S
C517 C522 1.501 . S
C518 C519 1.387 . S
C518 N521 1.341 . S
C519 C517 1.400 . S
C519 C518 1.387 . S
N520 Co511 2.022 . S
N520 C517 1.351 . S
N520 N521 1.365 . S
N521 C518 1.341 . S
N521 N520 1.365 . S
N521 H541 0.862 . S
C522 C517 1.501 . S
C522 H523 0.961 . S
C522 H524 0.961 . S
C522 H525 0.960 . S
H523 C522 0.961 . S
H524 C522 0.961 . S
H525 C522 0.960 . S
C526 N527 1.342 . S
C526 C530 1.401 . S
C526 C531 1.499 . S
N527 Co510 1.989 . S
N527 C526 1.342 . S
N527 N528 1.388 . S
N528 Co511 1.993 . S
N528 N527 1.388 . S
N528 C529 1.346 . S
C529 N528 1.346 . S
C529 C530 1.396 . S
C529 C539 1.510 . S
C530 C526 1.401 . S
C530 C529 1.396 . S
C531 C526 1.499 . S
C531 H532 0.959 . S
C531 H533 0.960 . S
C531 H534 0.961 . S
H532 C531 0.959 . S
H533 C531 0.960 . S
H534 C531 0.961 . S
O535 Co510 1.967 . S
O535 C543 1.258 . S
O536 Co511 1.941 . S
O536 C543 1.266 . S
H537 C539 0.959 . S
H538 C539 0.961 . S
C539 C529 1.510 . S
C539 H537 0.959 . S
C539 H538 0.961 . S
C539 H540 0.960 . S
H540 C539 0.960 . S
H541 N521 0.862 . S
O542 Co510 1.920 . S
O542 C515 1.289 . S
C543 O535 1.258 . S
C543 O536 1.266 . S
C544 C545 1.369 . S
C544 C546 1.419 . S
C544 H548 0.930 . S
C545 C544 1.369 . S
C545 C554 1.429 . S
C546 C544 1.419 . S
C546 C547 1.363 . S
C546 H549 0.929 . S
C547 C546 1.363 . S
C547 C553 1.428 . S
H548 C544 0.930 . S
H549 C546 0.929 . S
S550 N551 1.613 . S
S550 N552 1.610 . S
N551 S550 1.613 . S
N551 C554 1.350 . S
N552 S550 1.610 . S
N552 C553 1.351 . S
C553 C547 1.428 . S
C553 N552 1.351 . S
C553 C554 1.434 . S
C554 C545 1.429 . S
C554 N551 1.350 . S
C554 C553 1.434 . S
C555 C556 1.369 . S
C555 C557 1.419 . S
C555 H559 0.930 . S
C556 C555 1.369 . S
C556 C565 1.429 . S
C557 C555 1.419 . S
C557 C558 1.363 . S
C557 H560 0.929 . S
C558 C557 1.363 . S
C558 C564 1.428 . S
H559 C555 0.930 . S
H560 C557 0.929 . S
S561 N562 1.613 . S
S561 N563 1.610 . S
N562 S561 1.613 . S
N562 C565 1.350 . S
N563 S561 1.610 . S
N563 C564 1.351 . S
C564 C558 1.428 . S
C564 N563 1.351 . S
C564 C565 1.434 . S
C565 C556 1.429 . S
C565 N562 1.350 . S
C565 C564 1.434 . S
C566 C567 1.369 . S
C566 C568 1.419 . S
C566 H570 0.930 . S
C567 C566 1.369 . S
C567 C576 1.429 . S
C568 C566 1.419 . S
C568 C569 1.363 . S
C568 H571 0.929 . S
C569 C568 1.363 . S
C569 C575 1.428 . S
H570 C566 0.930 . S
H571 C568 0.929 . S
S572 N573 1.613 . S
S572 N574 1.610 . S
N573 S572 1.613 . S
N573 C576 1.350 . S
N574 S572 1.610 . S
N574 C575 1.351 . S
C575 C569 1.428 . S
C575 N574 1.351 . S
C575 C576 1.434 . S
C576 C567 1.429 . S
C576 N573 1.350 . S
C576 C575 1.434 . S
C577 C578 1.369 . S
C577 C579 1.419 . S
C577 H581 0.930 . S
C578 C577 1.369 . S
C578 C587 1.429 . S
C579 C577 1.419 . S
C579 C580 1.363 . S
C579 H582 0.929 . S
C580 C579 1.363 . S
C580 C586 1.428 . S
H581 C577 0.930 . S
H582 C579 0.929 . S
S583 N584 1.613 . S
S583 N585 1.610 . S
N584 S583 1.613 . S
N584 C587 1.350 . S
N585 S583 1.610 . S
N585 C586 1.351 . S
C586 C580 1.428 . S
C586 N585 1.351 . S
C586 C587 1.434 . S
C587 C578 1.429 . S
C587 N584 1.350 . S
C587 C586 1.434 . S
C588 C589 1.369 . S
C588 C590 1.419 . S
C588 H592 0.930 . S
C589 C588 1.369 . S
C589 C598 1.429 . S
C590 C588 1.419 . S
C590 C591 1.363 . S
C590 H593 0.929 . S
C591 C590 1.363 . S
C591 C597 1.428 . S
H592 C588 0.930 . S
H593 C590 0.929 . S
S594 N595 1.613 . S
S594 N596 1.610 . S
N595 S594 1.613 . S
N595 C598 1.350 . S
N596 S594 1.610 . S
N596 C597 1.351 . S
C597 C591 1.428 . S
C597 N596 1.351 . S
C597 C598 1.434 . S
C598 C589 1.429 . S
C598 N595 1.350 . S
C598 C597 1.434 . S
C599 C600 1.369 . S
C599 C601 1.419 . S
C599 H603 0.930 . S
C600 C599 1.369 . S
C600 C609 1.429 . S
C601 C599 1.419 . S
C601 C602 1.363 . S
C601 H604 0.929 . S
C602 C601 1.363 . S
C602 C608 1.428 . S
H603 C599 0.930 . S
H604 C601 0.929 . S
S605 N606 1.613 . S
S605 N607 1.610 . S
N606 S605 1.613 . S
N606 C609 1.350 . S
N607 S605 1.610 . S
N607 C608 1.351 . S
C608 C602 1.428 . S
C608 N607 1.351 . S
C608 C609 1.434 . S
C609 C600 1.429 . S
C609 N606 1.350 . S
C609 C608 1.434 . S
C610 C611 1.369 . S
C610 C612 1.419 . S
C610 H614 0.930 . S
C611 C610 1.369 . S
C611 C620 1.429 . S
C612 C610 1.419 . S
C612 C613 1.363 . S
C612 H615 0.929 . S
C613 C612 1.363 . S
C613 C619 1.428 . S
H614 C610 0.930 . S
H615 C612 0.929 . S
S616 N617 1.613 . S
S616 N618 1.610 . S
N617 S616 1.613 . S
N617 C620 1.350 . S
N618 S616 1.610 . S
N618 C619 1.351 . S
C619 C613 1.428 . S
C619 N618 1.351 . S
C619 C620 1.434 . S
C620 C611 1.429 . S
C620 N617 1.350 . S
C620 C619 1.434 . S
C621 C622 1.369 . S
C621 C623 1.419 . S
C621 H625 0.930 . S
C622 C621 1.369 . S
C622 C631 1.429 . S
C623 C621 1.419 . S
C623 C624 1.363 . S
C623 H626 0.929 . S
C624 C623 1.363 . S
C624 C630 1.428 . S
H625 C621 0.930 . S
H626 C623 0.929 . S
S627 N628 1.613 . S
S627 N629 1.610 . S
N628 S627 1.613 . S
N628 C631 1.350 . S
N629 S627 1.610 . S
N629 C630 1.351 . S
C630 C624 1.428 . S
C630 N629 1.351 . S
C630 C631 1.434 . S
C631 C622 1.429 . S
C631 N628 1.350 . S
C631 C630 1.434 . S
C632 C633 1.369 . S
C632 C634 1.419 . S
C632 H636 0.930 . S
C633 C632 1.369 . S
C633 C642 1.429 . S
C634 C632 1.419 . S
C634 C635 1.363 . S
C634 H637 0.929 . S
C635 C634 1.363 . S
C635 C641 1.428 . S
H636 C632 0.930 . S
H637 C634 0.929 . S
S638 N639 1.613 . S
S638 N640 1.610 . S
N639 S638 1.613 . S
N639 C642 1.350 . S
N640 S638 1.610 . S
N640 C641 1.351 . S
C641 C635 1.428 . S
C641 N640 1.351 . S
C641 C642 1.434 . S
C642 C633 1.429 . S
C642 N639 1.350 . S
C642 C641 1.434 . S
C643 C644 1.369 . S
C643 C645 1.419 . S
C643 H647 0.930 . S
C644 C643 1.369 . S
C644 C653 1.429 . S
C645 C643 1.419 . S
C645 C646 1.363 . S
C645 H648 0.929 . S
C646 C645 1.363 . S
C646 C652 1.428 . S
H647 C643 0.930 . S
H648 C645 0.929 . S
S649 N650 1.613 . S
S649 N651 1.610 . S
N650 S649 1.613 . S
N650 C653 1.350 . S
N651 S649 1.610 . S
N651 C652 1.351 . S
C652 C646 1.428 . S
C652 N651 1.351 . S
C652 C653 1.434 . S
C653 C644 1.429 . S
C653 N650 1.350 . S
C653 C652 1.434 . S
C654 C655 1.369 . S
C654 C656 1.419 . S
C654 H658 0.930 . S
C655 C654 1.369 . S
C655 C664 1.429 . S
C656 C654 1.419 . S
C656 C657 1.363 . S
C656 H659 0.929 . S
C657 C656 1.363 . S
C657 C663 1.428 . S
H658 C654 0.930 . S
H659 C656 0.929 . S
S660 N661 1.613 . S
S660 N662 1.610 . S
N661 S660 1.613 . S
N661 C664 1.350 . S
N662 S660 1.610 . S
N662 C663 1.351 . S
C663 C657 1.428 . S
C663 N662 1.351 . S
C663 C664 1.434 . S
C664 C655 1.429 . S
C664 N661 1.350 . S
C664 C663 1.434 . S
C665 C666 1.369 . S
C665 C667 1.419 . S
C665 H669 0.930 . S
C666 C665 1.369 . S
C666 C675 1.429 . S
C667 C665 1.419 . S
C667 C668 1.363 . S
C667 H670 0.929 . S
C668 C667 1.363 . S
C668 C674 1.428 . S
H669 C665 0.930 . S
H670 C667 0.929 . S
S671 N672 1.613 . S
S671 N673 1.610 . S
N672 S671 1.613 . S
N672 C675 1.350 . S
N673 S671 1.610 . S
N673 C674 1.351 . S
C674 C668 1.428 . S
C674 N673 1.351 . S
C674 C675 1.434 . S
C675 C666 1.429 . S
C675 N672 1.350 . S
C675 C674 1.434 . S
C676 C677 1.369 . S
C676 C678 1.419 . S
C676 H680 0.930 . S
C677 C676 1.369 . S
C677 C686 1.429 . S
C678 C676 1.419 . S
C678 C679 1.363 . S
C678 H681 0.929 . S
C679 C678 1.363 . S
C679 C685 1.428 . S
H680 C676 0.930 . S
H681 C678 0.929 . S
S682 N683 1.613 . S
S682 N684 1.610 . S
N683 S682 1.613 . S
N683 C686 1.350 . S
N684 S682 1.610 . S
N684 C685 1.351 . S
C685 C679 1.428 . S
C685 N684 1.351 . S
C685 C686 1.434 . S
C686 C677 1.429 . S
C686 N683 1.350 . S
C686 C685 1.434 . S
C687 C688 1.369 . S
C687 C689 1.419 . S
C687 H691 0.930 . S
C688 C687 1.369 . S
C688 C697 1.429 . S
C689 C687 1.419 . S
C689 C690 1.363 . S
C689 H692 0.929 . S
C690 C689 1.363 . S
C690 C696 1.428 . S
H691 C687 0.930 . S
H692 C689 0.929 . S
S693 N694 1.613 . S
S693 N695 1.610 . S
N694 S693 1.613 . S
N694 C697 1.350 . S
N695 S693 1.610 . S
N695 C696 1.351 . S
C696 C690 1.428 . S
C696 N695 1.351 . S
C696 C697 1.434 . S
C697 C688 1.429 . S
C697 N694 1.350 . S
C697 C696 1.434 . S
C698 C699 1.369 . S
C698 C700 1.419 . S
C698 H702 0.930 . S
C699 C698 1.369 . S
C699 C708 1.429 . S
C700 C698 1.419 . S
C700 C701 1.363 . S
C700 H703 0.929 . S
C701 C700 1.363 . S
C701 C707 1.428 . S
H702 C698 0.930 . S
H703 C700 0.929 . S
S704 N705 1.613 . S
S704 N706 1.610 . S
N705 S704 1.613 . S
N705 C708 1.350 . S
N706 S704 1.610 . S
N706 C707 1.351 . S
C707 C701 1.428 . S
C707 N706 1.351 . S
C707 C708 1.434 . S
C708 C699 1.429 . S
C708 N705 1.350 . S
C708 C707 1.434 . S
C709 C710 1.369 . S
C709 C711 1.419 . S
C709 H713 0.930 . S
C710 C709 1.369 . S
C710 C719 1.429 . S
C711 C709 1.419 . S
C711 C712 1.363 . S
C711 H714 0.929 . S
C712 C711 1.363 . S
C712 C718 1.428 . S
H713 C709 0.930 . S
H714 C711 0.929 . S
S715 N716 1.613 . S
S715 N717 1.610 . S
N716 S715 1.613 . S
N716 C719 1.350 . S
N717 S715 1.610 . S
N717 C718 1.351 . S
C718 C712 1.428 . S
C718 N717 1.351 . S
C718 C719 1.434 . S
C719 C710 1.429 . S
C719 N716 1.350 . S
C719 C718 1.434 . S
C720 C721 1.369 . S
C720 C722 1.419 . S
C720 H724 0.930 . S
C721 C720 1.369 . S
C721 C730 1.429 . S
C722 C720 1.419 . S
C722 C723 1.363 . S
C722 H725 0.929 . S
C723 C722 1.363 . S
C723 C729 1.428 . S
H724 C720 0.930 . S
H725 C722 0.929 . S
S726 N727 1.613 . S
S726 N728 1.610 . S
N727 S726 1.613 . S
N727 C730 1.350 . S
N728 S726 1.610 . S
N728 C729 1.351 . S
C729 C723 1.428 . S
C729 N728 1.351 . S
C729 C730 1.434 . S
C730 C721 1.429 . S
C730 N727 1.350 . S
C730 C729 1.434 . S
C731 C732 1.369 . S
C731 C733 1.419 . S
C731 H735 0.930 . S
C732 C731 1.369 . S
C732 C741 1.429 . S
C733 C731 1.419 . S
C733 C734 1.363 . S
C733 H736 0.929 . S
C734 C733 1.363 . S
C734 C740 1.428 . S
H735 C731 0.930 . S
H736 C733 0.929 . S
S737 N738 1.613 . S
S737 N739 1.610 . S
N738 S737 1.613 . S
N738 C741 1.350 . S
N739 S737 1.610 . S
N739 C740 1.351 . S
C740 C734 1.428 . S
C740 N739 1.351 . S
C740 C741 1.434 . S
C741 C732 1.429 . S
C741 N738 1.350 . S
C741 C740 1.434 . S
C742 C743 1.369 . S
C742 C744 1.419 . S
C742 H746 0.930 . S
C743 C742 1.369 . S
C743 C752 1.429 . S
C744 C742 1.419 . S
C744 C745 1.363 . S
C744 H747 0.929 . S
C745 C744 1.363 . S
C745 C751 1.428 . S
H746 C742 0.930 . S
H747 C744 0.929 . S
S748 N749 1.613 . S
S748 N750 1.610 . S
N749 S748 1.613 . S
N749 C752 1.350 . S
N750 S748 1.610 . S
N750 C751 1.351 . S
C751 C745 1.428 . S
C751 N750 1.351 . S
C751 C752 1.434 . S
C752 C743 1.429 . S
C752 N749 1.350 . S
C752 C751 1.434 . S
C753 C754 1.369 . S
C753 C755 1.419 . S
C753 H757 0.930 . S
C754 C753 1.369 . S
C754 C763 1.429 . S
C755 C753 1.419 . S
C755 C756 1.363 . S
C755 H758 0.929 . S
C756 C755 1.363 . S
C756 C762 1.428 . S
H757 C753 0.930 . S
H758 C755 0.929 . S
S759 N760 1.613 . S
S759 N761 1.610 . S
N760 S759 1.613 . S
N760 C763 1.350 . S
N761 S759 1.610 . S
N761 C762 1.351 . S
C762 C756 1.428 . S
C762 N761 1.351 . S
C762 C763 1.434 . S
C763 C754 1.429 . S
C763 N760 1.350 . S
C763 C762 1.434 . S
C764 C765 1.369 . S
C764 C766 1.419 . S
C764 H768 0.930 . S
C765 C764 1.369 . S
C765 C774 1.429 . S
C766 C764 1.419 . S
C766 C767 1.363 . S
C766 H769 0.929 . S
C767 C766 1.363 . S
C767 C773 1.428 . S
H768 C764 0.930 . S
H769 C766 0.929 . S
S770 N771 1.613 . S
S770 N772 1.610 . S
N771 S770 1.613 . S
N771 C774 1.350 . S
N772 S770 1.610 . S
N772 C773 1.351 . S
C773 C767 1.428 . S
C773 N772 1.351 . S
C773 C774 1.434 . S
C774 C765 1.429 . S
C774 N771 1.350 . S
C774 C773 1.434 . S
C775 C776 1.369 . S
C775 C777 1.419 . S
C775 H779 0.930 . S
C776 C775 1.369 . S
C776 C785 1.429 . S
C777 C775 1.419 . S
C777 C778 1.363 . S
C777 H780 0.929 . S
C778 C777 1.363 . S
C778 C784 1.428 . S
H779 C775 0.930 . S
H780 C777 0.929 . S
S781 N782 1.613 . S
S781 N783 1.610 . S
N782 S781 1.613 . S
N782 C785 1.350 . S
N783 S781 1.610 . S
N783 C784 1.351 . S
C784 C778 1.428 . S
C784 N783 1.351 . S
C784 C785 1.434 . S
C785 C776 1.429 . S
C785 N782 1.350 . S
C785 C784 1.434 . S
C786 C787 1.369 . S
C786 C788 1.419 . S
C786 H790 0.930 . S
C787 C786 1.369 . S
C787 C796 1.429 . S
C788 C786 1.419 . S
C788 C789 1.363 . S
C788 H791 0.929 . S
C789 C788 1.363 . S
C789 C795 1.428 . S
H790 C786 0.930 . S
H791 C788 0.929 . S
S792 N793 1.613 . S
S792 N794 1.610 . S
N793 S792 1.613 . S
N793 C796 1.350 . S
N794 S792 1.610 . S
N794 C795 1.351 . S
C795 C789 1.428 . S
C795 N794 1.351 . S
C795 C796 1.434 . S
C796 C787 1.429 . S
C796 N793 1.350 . S
C796 C795 1.434 . S
C797 C798 1.369 . S
C797 C799 1.419 . S
C797 H801 0.930 . S
C798 C797 1.369 . S
C798 C807 1.429 . S
C799 C797 1.419 . S
C799 C800 1.363 . S
C799 H802 0.929 . S
C800 C799 1.363 . S
C800 C806 1.428 . S
H801 C797 0.930 . S
H802 C799 0.929 . S
S803 N804 1.613 . S
S803 N805 1.610 . S
N804 S803 1.613 . S
N804 C807 1.350 . S
N805 S803 1.610 . S
N805 C806 1.351 . S
C806 C800 1.428 . S
C806 N805 1.351 . S
C806 C807 1.434 . S
C807 C798 1.429 . S
C807 N804 1.350 . S
C807 C806 1.434 . S
C808 C809 1.369 . S
C808 C810 1.419 . S
C808 H812 0.930 . S
C809 C808 1.369 . S
C809 C818 1.429 . S
C810 C808 1.419 . S
C810 C811 1.363 . S
C810 H813 0.929 . S
C811 C810 1.363 . S
C811 C817 1.428 . S
H812 C808 0.930 . S
H813 C810 0.929 . S
S814 N815 1.613 . S
S814 N816 1.610 . S
N815 S814 1.613 . S
N815 C818 1.350 . S
N816 S814 1.610 . S
N816 C817 1.351 . S
C817 C811 1.428 . S
C817 N816 1.351 . S
C817 C818 1.434 . S
C818 C809 1.429 . S
C818 N815 1.350 . S
C818 C817 1.434 . S
C819 C820 1.369 . S
C819 C821 1.419 . S
C819 H823 0.930 . S
C820 C819 1.369 . S
C820 C829 1.429 . S
C821 C819 1.419 . S
C821 C822 1.363 . S
C821 H824 0.929 . S
C822 C821 1.363 . S
C822 C828 1.428 . S
H823 C819 0.930 . S
H824 C821 0.929 . S
S825 N826 1.613 . S
S825 N827 1.610 . S
N826 S825 1.613 . S
N826 C829 1.350 . S
N827 S825 1.610 . S
N827 C828 1.351 . S
C828 C822 1.428 . S
C828 N827 1.351 . S
C828 C829 1.434 . S
C829 C820 1.429 . S
C829 N826 1.350 . S
C829 C828 1.434 . S
C830 C831 1.369 . S
C830 C832 1.419 . S
C830 H834 0.930 . S
C831 C830 1.369 . S
C831 C840 1.429 . S
C832 C830 1.419 . S
C832 C833 1.363 . S
C832 H835 0.929 . S
C833 C832 1.363 . S
C833 C839 1.428 . S
H834 C830 0.930 . S
H835 C832 0.929 . S
S836 N837 1.613 . S
S836 N838 1.610 . S
N837 S836 1.613 . S
N837 C840 1.350 . S
N838 S836 1.610 . S
N838 C839 1.351 . S
C839 C833 1.428 . S
C839 N838 1.351 . S
C839 C840 1.434 . S
C840 C831 1.429 . S
C840 N837 1.350 . S
C840 C839 1.434 . S
C841 C842 1.369 . S
C841 C843 1.419 . S
C841 H845 0.930 . S
C842 C841 1.369 . S
C842 C851 1.429 . S
C843 C841 1.419 . S
C843 C844 1.363 . S
C843 H846 0.929 . S
C844 C843 1.363 . S
C844 C850 1.428 . S
H845 C841 0.930 . S
H846 C843 0.929 . S
S847 N848 1.613 . S
S847 N849 1.610 . S
N848 S847 1.613 . S
N848 C851 1.350 . S
N849 S847 1.610 . S
N849 C850 1.351 . S
C850 C844 1.428 . S
C850 N849 1.351 . S
C850 C851 1.434 . S
C851 C842 1.429 . S
C851 N848 1.350 . S
C851 C850 1.434 . S
C852 C853 1.369 . S
C852 C854 1.419 1_556 S
C852 H856 0.930 . S
C853 C852 1.369 . S
C853 C862 1.429 . S
C854 C852 1.419 1_554 S
C854 C855 1.363 . S
C854 H857 0.929 . S
C855 C854 1.363 . S
C855 C861 1.428 1_554 S
H856 C852 0.930 . S
H857 C854 0.929 . S
S858 N859 1.613 . S
S858 N860 1.610 . S
N859 S858 1.613 . S
N859 C862 1.350 . S
N860 S858 1.610 . S
N860 C861 1.351 . S
C861 C855 1.428 1_556 S
C861 N860 1.351 . S
C861 C862 1.434 . S
C862 C853 1.429 . S
C862 N859 1.350 . S
C862 C861 1.434 . S
C863 C864 1.369 . S
C863 C865 1.419 1_554 S
C863 H867 0.930 . S
C864 C863 1.369 . S
C864 C873 1.429 1_554 S
C865 C863 1.419 1_556 S
C865 C866 1.363 . S
C865 H868 0.929 . S
C866 C865 1.363 . S
C866 C872 1.428 . S
H867 C863 0.930 . S
H868 C865 0.929 . S
S869 N870 1.613 . S
S869 N871 1.610 . S
N870 S869 1.613 . S
N870 C873 1.350 . S
N871 S869 1.610 . S
N871 C872 1.351 . S
C872 C866 1.428 . S
C872 N871 1.351 . S
C872 C873 1.434 . S
C873 C864 1.429 1_556 S
C873 N870 1.350 . S
C873 C872 1.434 . S
C874 C875 1.369 . S
C874 C876 1.419 1_556 S
C874 H878 0.930 . S
C875 C874 1.369 . S
C875 C884 1.429 . S
C876 C874 1.419 1_554 S
C876 C877 1.363 . S
C876 H879 0.929 . S
C877 C876 1.363 . S
C877 C883 1.428 . S
H878 C874 0.930 . S
H879 C876 0.929 . S
S880 N881 1.613 . S
S880 N882 1.610 1_556 S
N881 S880 1.613 . S
N881 C884 1.350 . S
N882 S880 1.610 1_554 S
N882 C883 1.351 . S
C883 C877 1.428 . S
C883 N882 1.351 . S
C883 C884 1.434 1_554 S
C884 C875 1.429 . S
C884 N881 1.350 . S
C884 C883 1.434 1_556 S
C885 C886 1.369 . S
C885 C887 1.419 1_554 S
C885 H889 0.930 . S
C886 C885 1.369 . S
C886 C895 1.429 . S
C887 C885 1.419 1_556 S
C887 C888 1.363 . S
C887 H890 0.929 . S
C888 C887 1.363 . S
C888 C894 1.428 . S
H889 C885 0.930 . S
H890 C887 0.929 . S
S891 N892 1.613 1_556 S
S891 N893 1.610 . S
N892 S891 1.613 1_554 S
N892 C895 1.350 . S
N893 S891 1.610 . S
N893 C894 1.351 . S
C894 C888 1.428 . S
C894 N893 1.351 . S
C894 C895 1.434 1_556 S
C895 C886 1.429 . S
C895 N892 1.350 . S
C895 C894 1.434 1_554 S
C896 C897 1.369 . S
C896 C898 1.419 . S
C896 H900 0.930 . S
C897 C896 1.369 . S
C897 C906 1.429 . S
C898 C896 1.419 . S
C898 C899 1.363 . S
C898 H901 0.929 . S
C899 C898 1.363 . S
C899 C905 1.428 . S
H900 C896 0.930 . S
H901 C898 0.929 . S
S902 N903 1.613 . S
S902 N904 1.610 . S
N903 S902 1.613 . S
N903 C906 1.350 . S
N904 S902 1.610 . S
N904 C905 1.351 . S
C905 C899 1.428 . S
C905 N904 1.351 . S
C905 C906 1.434 . S
C906 C897 1.429 . S
C906 N903 1.350 . S
C906 C905 1.434 . S
C907 C908 1.369 . S
C907 C909 1.419 . S
C907 H911 0.930 . S
C908 C907 1.369 . S
C908 C917 1.429 . S
C909 C907 1.419 . S
C909 C910 1.363 . S
C909 H912 0.929 . S
C910 C909 1.363 . S
C910 C916 1.428 . S
H911 C907 0.930 . S
H912 C909 0.929 . S
S913 N914 1.613 . S
S913 N915 1.610 . S
N914 S913 1.613 . S
N914 C917 1.350 . S
N915 S913 1.610 . S
N915 C916 1.351 . S
C916 C910 1.428 . S
C916 N915 1.351 . S
C916 C917 1.434 . S
C917 C908 1.429 . S
C917 N914 1.350 . S
C917 C916 1.434 . S
C918 C919 1.369 . S
C918 C920 1.419 . S
C918 H922 0.930 . S
C919 C918 1.369 . S
C919 C928 1.429 . S
C920 C918 1.419 . S
C920 C921 1.363 . S
C920 H923 0.929 . S
C921 C920 1.363 . S
C921 C927 1.428 . S
H922 C918 0.930 . S
H923 C920 0.929 . S
S924 N925 1.613 . S
S924 N926 1.610 . S
N925 S924 1.613 . S
N925 C928 1.350 . S
N926 S924 1.610 . S
N926 C927 1.351 . S
C927 C921 1.428 . S
C927 N926 1.351 . S
C927 C928 1.434 . S
C928 C919 1.429 . S
C928 N925 1.350 . S
C928 C927 1.434 . S
C929 C930 1.369 . S
C929 C931 1.419 . S
C929 H933 0.930 . S
C930 C929 1.369 . S
C930 C939 1.429 . S
C931 C929 1.419 . S
C931 C932 1.363 . S
C931 H934 0.929 . S
C932 C931 1.363 . S
C932 C938 1.428 . S
H933 C929 0.930 . S
H934 C931 0.929 . S
S935 N936 1.613 . S
S935 N937 1.610 . S
N936 S935 1.613 . S
N936 C939 1.350 . S
N937 S935 1.610 . S
N937 C938 1.351 . S
C938 C932 1.428 . S
C938 N937 1.351 . S
C938 C939 1.434 . S
C939 C930 1.429 . S
C939 N936 1.350 . S
C939 C938 1.434 . S
C940 C941 1.369 . S
C940 C942 1.419 1_554 S
C940 H944 0.930 . S
C941 C940 1.369 . S
C941 C950 1.429 . S
C942 C940 1.419 1_556 S
C942 C943 1.363 . S
C942 H945 0.929 . S
C943 C942 1.363 . S
C943 C949 1.428 1_556 S
H944 C940 0.930 . S
H945 C942 0.929 . S
S946 N947 1.613 . S
S946 N948 1.607 1_554 S
N947 S946 1.613 . S
N947 C950 1.350 . S
N948 S946 1.607 1_556 S
N948 C949 1.351 1_556 S
C949 C943 1.428 1_554 S
C949 N948 1.351 1_554 S
C949 C950 1.434 . S
C950 C941 1.429 . S
C950 N947 1.350 . S
C950 C949 1.434 . S
C951 C952 1.369 1_554 S
C951 C953 1.419 . S
C951 H955 0.930 . S
C952 C951 1.369 1_556 S
C952 C961 1.429 . S
C953 C951 1.419 . S
C953 C954 1.363 . S
C953 H956 0.929 . S
C954 C953 1.363 . S
C954 C960 1.428 . S
H955 C951 0.930 . S
H956 C953 0.929 . S
S957 N958 1.613 . S
S957 N959 1.610 1_556 S
N958 S957 1.613 . S
N958 C961 1.350 . S
N959 S957 1.610 1_554 S
N959 C960 1.351 . S
C960 C954 1.428 . S
C960 N959 1.351 . S
C960 C961 1.434 1_554 S
C961 C952 1.429 . S
C961 N958 1.350 . S
C961 C960 1.434 1_556 S
C962 C963 1.369 . S
C962 C964 1.419 . S
C962 H966 0.930 . S
C963 C962 1.369 . S
C963 C972 1.429 . S
C964 C962 1.419 . S
C964 C965 1.363 1_554 S
C964 H967 0.929 . S
C965 C964 1.363 1_556 S
C965 C971 1.428 . S
H966 C962 0.930 . S
H967 C964 0.929 . S
S968 N969 1.613 1_556 S
S968 N970 1.610 . S
N969 S968 1.613 1_554 S
N969 C972 1.350 . S
N970 S968 1.610 . S
N970 C971 1.351 . S
C971 C965 1.428 . S
C971 N970 1.351 . S
C971 C972 1.434 1_556 S
C972 C963 1.429 . S
C972 N969 1.350 . S
C972 C971 1.434 1_554 S
C973 C974 1.369 . S
C973 C975 1.419 . S
C973 H977 0.930 . S
C974 C973 1.369 . S
C974 C983 1.429 . S
C975 C973 1.419 . S
C975 C976 1.363 1_554 S
C975 H978 0.929 . S
C976 C975 1.363 1_556 S
C976 C982 1.428 . S
H977 C973 0.930 . S
H978 C975 0.929 . S
S979 N980 1.636 . S
S979 N981 1.610 . S
N980 S979 1.636 . S
N980 C983 1.346 1_556 S
N981 S979 1.610 . S
N981 C982 1.351 . S
C982 C976 1.428 . S
C982 N981 1.351 . S
C982 C983 1.434 1_556 S
C983 C974 1.429 . S
C983 N980 1.346 1_554 S
C983 C982 1.434 1_554 S
C545 C111 1.732 . S
C547 C2 1.750 . S
C556 C36 1.750 . S
C558 C9 1.732 . S
C567 C70 1.751 . S
C569 C43 1.730 . S
C578 C104 1.751 . S
C580 C77 1.728 . S
C589 C179 1.728 . S
C591 C138 1.748 . S
C600 C213 1.727 . S
C602 C172 1.750 . S
C611 C206 1.747 . S
C613 C247 1.729 . S
C622 C145 1.728 . S
C624 C240 1.751 . S
C633 C274 1.749 . S
C635 C383 1.733 . S
C644 C308 1.751 . S
C646 C281 1.728 . S
C655 C315 1.732 . S
C657 C342 1.750 . S
C666 C376 1.747 . S
C668 C349 1.730 . S
C677 C451 1.727 . S
C679 C410 1.749 . S
C688 C444 1.750 . S
C690 C485 1.732 . S
C699 C478 1.749 . S
C701 C519 1.728 . S
C710 C512 1.752 . S
C712 C417 1.729 . S
C721 C33 1.988 . S
C723 C203 1.987 . S
C732 C67 1.991 . S
C734 C237 1.985 . S
C743 C271 1.988 . S
C745 C101 1.988 . S
C754 C135 1.991 . S
C756 C169 1.985 . S
C765 C475 1.985 . S
C767 C305 1.990 . S
C776 C509 1.985 . S
C778 C339 1.990 . S
C787 C373 1.989 . S
C789 C543 1.987 . S
C798 C441 1.990 . S
C800 C407 1.987 . S
C809 C5 1.225 . S
C811 C394 1.255 . S
C820 C39 1.221 . S
C822 C292 1.258 . S
C831 C73 1.212 . S
C833 C326 1.261 . S
C842 C107 1.217 . S
C844 C360 1.259 . S
C853 C462 1.260 . S
C855 C141 1.218 . S
C864 C175 1.213 . S
C866 C496 1.261 . S
C875 C530 1.262 . S
C877 C209 1.214 . S
C886 C243 1.218 . S
C888 C428 1.259 . S
C897 C122 1.262 . S
C899 C277 1.214 . S
C908 C20 1.253 . S
C910 C311 1.224 . S
C919 C54 1.254 . S
C921 C345 1.224 . S
C930 C88 1.253 . S
C932 C379 1.224 . S
C941 C190 1.261 . S
C943 C413 1.215 . S
C952 C447 1.217 . S
C954 C224 1.258 . S
C963 C258 1.255 . S
C965 C481 1.221 . S
C974 C156 1.254 . S
C976 C515 1.222 . S
