# Generated by pormake.
# Topology smw, (6)-cn, num edge types: 1
# Building blocks:
#     Node 0, Type 0, BuildingBlock: IZENUY_clean_sbu_0, # of connection points: 6
#     Node 1, Type 0, BuildingBlock: IZENUY_clean_sbu_0, # of connection points: 6
#     Node 2, Type 0, BuildingBlock: IZENUY_clean_sbu_0, # of connection points: 6
#     Node 3, Type 0, BuildingBlock: IZENUY_clean_sbu_0, # of connection points: 6
#     Node 4, Type 0, BuildingBlock: IZENUY_clean_sbu_0, # of connection points: 6
#     Node 5, Type 0, BuildingBlock: IZENUY_clean_sbu_0, # of connection points: 6
#     Node 6, Type 0, BuildingBlock: IZENUY_clean_sbu_0, # of connection points: 6
#     Node 7, Type 0, BuildingBlock: IZENUY_clean_sbu_0, # of connection points: 6
#     Node 8, Type 0, BuildingBlock: IZENUY_clean_sbu_0, # of connection points: 6
#     Node 9, Type 0, BuildingBlock: IZENUY_clean_sbu_0, # of connection points: 6
#     Node 10, Type 0, BuildingBlock: IZENUY_clean_sbu_0, # of connection points: 6
#     Node 11, Type 0, BuildingBlock: IZENUY_clean_sbu_0, # of connection points: 6
#     Edge 12, Type (0, 0), BuildingBlock: OJICUG_clean_linker_0, # of connection points: 2
#     Edge 13, Type (0, 0), BuildingBlock: OJICUG_clean_linker_0, # of connection points: 2
#     Edge 14, Type (0, 0), BuildingBlock: OJICUG_clean_linker_0, # of connection points: 2
#     Edge 15, Type (0, 0), BuildingBlock: OJICUG_clean_linker_0, # of connection points: 2
#     Edge 16, Type (0, 0), BuildingBlock: OJICUG_clean_linker_0, # of connection points: 2
#     Edge 17, Type (0, 0), BuildingBlock: OJICUG_clean_linker_0, # of connection points: 2
#     Edge 18, Type (0, 0), BuildingBlock: OJICUG_clean_linker_0, # of connection points: 2
#     Edge 19, Type (0, 0), BuildingBlock: OJICUG_clean_linker_0, # of connection points: 2
#     Edge 20, Type (0, 0), BuildingBlock: OJICUG_clean_linker_0, # of connection points: 2
#     Edge 21, Type (0, 0), BuildingBlock: OJICUG_clean_linker_0, # of connection points: 2
#     Edge 22, Type (0, 0), BuildingBlock: OJICUG_clean_linker_0, # of connection points: 2
#     Edge 23, Type (0, 0), BuildingBlock: OJICUG_clean_linker_0, # of connection points: 2
#     Edge 24, Type (0, 0), BuildingBlock: OJICUG_clean_linker_0, # of connection points: 2
#     Edge 25, Type (0, 0), BuildingBlock: OJICUG_clean_linker_0, # of connection points: 2
#     Edge 26, Type (0, 0), BuildingBlock: OJICUG_clean_linker_0, # of connection points: 2
#     Edge 27, Type (0, 0), BuildingBlock: OJICUG_clean_linker_0, # of connection points: 2
#     Edge 28, Type (0, 0), BuildingBlock: OJICUG_clean_linker_0, # of connection points: 2
#     Edge 29, Type (0, 0), BuildingBlock: OJICUG_clean_linker_0, # of connection points: 2
#     Edge 30, Type (0, 0), BuildingBlock: OJICUG_clean_linker_0, # of connection points: 2
#     Edge 31, Type (0, 0), BuildingBlock: OJICUG_clean_linker_0, # of connection points: 2
#     Edge 32, Type (0, 0), BuildingBlock: OJICUG_clean_linker_0, # of connection points: 2
#     Edge 33, Type (0, 0), BuildingBlock: OJICUG_clean_linker_0, # of connection points: 2
#     Edge 34, Type (0, 0), BuildingBlock: OJICUG_clean_linker_0, # of connection points: 2
#     Edge 35, Type (0, 0), BuildingBlock: OJICUG_clean_linker_0, # of connection points: 2
#     Edge 36, Type (0, 0), BuildingBlock: OJICUG_clean_linker_0, # of connection points: 2
#     Edge 37, Type (0, 0), BuildingBlock: OJICUG_clean_linker_0, # of connection points: 2
#     Edge 38, Type (0, 0), BuildingBlock: OJICUG_clean_linker_0, # of connection points: 2
#     Edge 39, Type (0, 0), BuildingBlock: OJICUG_clean_linker_0, # of connection points: 2
#     Edge 40, Type (0, 0), BuildingBlock: OJICUG_clean_linker_0, # of connection points: 2
#     Edge 41, Type (0, 0), BuildingBlock: OJICUG_clean_linker_0, # of connection points: 2
#     Edge 42, Type (0, 0), BuildingBlock: OJICUG_clean_linker_0, # of connection points: 2
#     Edge 43, Type (0, 0), BuildingBlock: OJICUG_clean_linker_0, # of connection points: 2
#     Edge 44, Type (0, 0), BuildingBlock: OJICUG_clean_linker_0, # of connection points: 2
#     Edge 45, Type (0, 0), BuildingBlock: OJICUG_clean_linker_0, # of connection points: 2
#     Edge 46, Type (0, 0), BuildingBlock: OJICUG_clean_linker_0, # of connection points: 2
#     Edge 47, Type (0, 0), BuildingBlock: OJICUG_clean_linker_0, # of connection points: 2
# Relax obj value: 0.143
# Max RMSD: 0.113
# Mean RMSD: 0.113
data_MOF--net-smw--node1-IZENUY_clean_sbu_0--edge1-OJICUG_clean_linker_0
_symmetry_space_group_name_H-M    P1
_symmetry_Int_Tables_number       1
_symmetry_cell_setting            triclinic
loop_
_symmetry_equiv_pos_as_xyz
'x, y, z'
_cell_length_a     41.287539
_cell_length_b     41.200239
_cell_length_c     15.129238
_cell_angle_alpha  89.97613
_cell_angle_beta   90.099995
_cell_angle_gamma 119.94824
loop_
_atom_site_label
_atom_site_type_symbol
_atom_site_fract_x
_atom_site_fract_y
_atom_site_fract_z
_atom_type_partial_charge
Fe0 Fe 0.52375 0.18547 0.00462 0.0
Fe1 Fe 0.48962 0.10095 0.98599 0.0
O2 O 0.48366 0.14031 0.9972 0.0
Fe3 Fe 0.43766 0.13381 0.00076 0.0
O4 O 0.44639 0.16399 0.90509 0.0
O5 O 0.50268 0.20887 0.94379 0.0
O6 O 0.54213 0.18066 0.89897 0.0
C7 C 0.54821 0.15428 0.88197 0.0
C8 C 0.47822 0.19229 0.12592 0.0
O9 O 0.53432 0.12538 0.92948 0.0
C10 C 0.42691 0.07321 0.09721 0.0
O11 O 0.55152 0.16957 0.06803 0.0
O12 O 0.51256 0.10961 0.09262 0.0
O13 O 0.44971 0.17303 0.07776 0.0
O14 O 0.50896 0.19409 0.10957 0.0
C15 C 0.43413 0.08369 0.86674 0.0
O16 O 0.44601 0.06817 0.03978 0.0
O17 O 0.42539 0.10308 0.09748 0.0
C18 C 0.54177 0.1399 0.11248 0.0
O19 O 0.46726 0.09077 0.87911 0.0
O20 O 0.41772 0.09349 0.92288 0.0
C21 C 0.47385 0.19672 0.89529 0.0
Fe22 Fe 0.36304 0.51386 -0.00168 0.0
Fe23 Fe 0.41065 0.47618 0.99542 0.0
O24 O 0.36611 0.47248 0.99744 0.0
Fe25 Fe 0.32498 0.42754 -0.00207 0.0
O26 O 0.29691 0.44223 0.93244 0.0
O27 O 0.33659 0.50067 0.89585 0.0
O28 O 0.40514 0.54178 0.93172 0.0
C29 C 0.42258 0.53192 0.87961 0.0
C30 C 0.30474 0.46544 0.11415 0.0
O31 O 0.42227 0.50138 0.89124 0.0
C32 C 0.37465 0.419 0.11293 0.0
O33 O 0.38947 0.52987 0.10147 0.0
O34 O 0.43426 0.51971 0.0581 0.0
O35 O 0.3089 0.43735 0.1017 0.0
O36 O 0.32039 0.49371 0.06408 0.0
C37 C 0.36861 0.41597 0.8806 0.0
O38 O 0.40164 0.45151 0.09922 0.0
O39 O 0.34589 0.40472 0.06379 0.0
C40 C 0.42187 0.53437 0.11153 0.0
O41 O 0.39579 0.43328 0.93262 0.0
O42 O 0.33791 0.41486 0.89354 0.0
C43 C 0.3064 0.47036 0.88279 0.0
Fe44 Fe 0.9215 0.31537 -0.00032 0.0
Fe45 Fe 0.87266 0.35295 0.00066 0.0
O46 O 0.91707 0.35619 -0.00234 0.0
Fe47 Fe 0.95785 0.40085 0.99216 0.0
O48 O 0.96907 0.38943 0.88637 0.0
O49 O 0.96334 0.33555 0.92761 0.0
O50 O 0.89344 0.29675 0.89982 0.0
C51 C 0.86161 0.29327 0.8862 0.0
C52 C 0.98026 0.36152 0.10618 0.0
O53 O 0.8493 0.30986 0.93455 0.0
C54 C 0.91804 0.41445 0.11458 0.0
O55 O 0.88052 0.28795 0.07046 0.0
O56 O 0.8607 0.32711 0.10334 0.0
O57 O 0.98835 0.38719 0.05022 0.0
O58 O 0.94966 0.33106 0.1007 0.0
C59 C 0.90779 0.41085 0.88355 0.0
O60 O 0.88883 0.39564 0.06793 0.0
O61 O 0.94796 0.41441 0.0977 0.0
C62 C 0.86117 0.29722 0.1178 0.0
O63 O 0.88058 0.37853 0.89723 0.0
O64 O 0.93628 0.42394 0.93276 0.0
C65 C 0.97425 0.36224 0.87255 0.0
Fe66 Fe 0.5771 0.9447 0.01203 0.0
Fe67 Fe 0.62884 0.91163 -0.0003 0.0
O68 O 0.58294 0.90531 0.0006 0.0
Fe69 Fe 0.54295 0.86021 0.99055 0.0
O70 O 0.51585 0.87651 0.92676 0.0
O71 O 0.55484 0.93664 0.9048 0.0
O72 O 0.62108 0.97743 0.95926 0.0
C73 C 0.64031 0.97231 0.90226 0.0
C74 C 0.51733 0.89076 0.11331 0.0
O75 O 0.64195 0.94246 0.90278 0.0
C76 C 0.59123 0.8485 0.10332 0.0
O77 O 0.59882 0.95448 0.11974 0.0
O78 O 0.64851 0.95197 0.07704 0.0
O79 O 0.52338 0.86433 0.0957 0.0
O80 O 0.53201 0.92013 0.0672 0.0
C81 C 0.58992 0.8539 0.87222 0.0
O82 O 0.61876 0.88137 0.09583 0.0
O83 O 0.56344 0.83647 0.05158 0.0
C84 C 0.63195 0.9617 0.13269 0.0
O85 O 0.61746 0.87238 0.92351 0.0
O86 O 0.55899 0.85229 0.88573 0.0
C87 C 0.52584 0.90646 0.88356 0.0
Fe88 Fe 0.65617 0.56745 0.00285 0.0
Fe89 Fe 0.74119 0.61812 0.9957 0.0
O90 O 0.70114 0.57249 -0.00236 0.0
Fe91 Fe 0.70528 0.53174 0.99448 0.0
O92 O 0.66257 0.5042 0.9294 0.0
O93 O 0.64375 0.54421 0.89613 0.0
O94 O 0.66864 0.61114 0.94737 0.0
C95 C 0.69389 0.63015 0.89235 0.0
C96 C 0.64733 0.50821 0.11107 0.0
O97 O 0.72488 0.63099 0.89576 0.0
C98 C 0.76526 0.58097 0.10568 0.0
O99 O 0.66672 0.59028 0.10945 0.0
O100 O 0.72051 0.63894 0.06914 0.0
O101 O 0.68019 0.51426 0.09945 0.0
O102 O 0.6341 0.52277 0.05996 0.0
C103 C 0.75967 0.57665 0.87501 0.0
O104 O 0.76054 0.60878 0.09471 0.0
O105 O 0.74872 0.55223 0.05728 0.0
C106 C 0.69325 0.62321 0.12254 0.0
O107 O 0.76869 0.60513 0.92313 0.0
O108 O 0.73043 0.5458 0.8905 0.0
C109 C 0.64436 0.51436 0.88024 0.0
Fe110 Fe 0.10951 0.64484 0.99475 0.0
Fe111 Fe 0.14621 0.7304 0.00052 0.0
O112 O 0.15026 0.68942 -0.00029 0.0
Fe113 Fe 0.19467 0.69272 0.00445 0.0
O114 O 0.18726 0.66774 0.9 0.0
O115 O 0.13109 0.62225 0.93344 0.0
O116 O 0.09706 0.65588 0.88992 0.0
C117 C 0.09015 0.68208 0.87875 0.0
C118 C 0.14969 0.63103 0.11608 0.0
O119 O 0.10381 0.7102 0.93005 0.0
C120 C 0.20518 0.74775 0.12217 0.0
O121 O 0.07959 0.65856 0.05482 0.0
O122 O 0.11844 0.71545 0.10197 0.0
O123 O 0.17864 0.64962 0.06916 0.0
O124 O 0.11988 0.63124 0.09965 0.0
C125 C 0.20648 0.75272 0.89057 0.0
O126 O 0.18756 0.75787 0.07083 0.0
O127 O 0.20539 0.71764 0.10871 0.0
C128 C 0.08805 0.68485 0.10924 0.0
O129 O 0.17399 0.7481 0.90007 0.0
O130 O 0.21842 0.73647 0.94127 0.0
C131 C 0.15978 0.63557 0.88485 0.0
Fe132 Fe 0.92254 0.61861 0.4973 0.0
Fe133 Fe 0.87362 0.53249 0.49026 0.0
O134 O 0.91811 0.5734 0.49673 0.0
Fe135 Fe 0.95867 0.56924 0.50271 0.0
O136 O 0.96989 0.59151 0.60928 0.0
O137 O 0.96416 0.63983 0.5701 0.0
O138 O 0.89403 0.60796 0.59666 0.0
C139 C 0.86157 0.57996 0.60569 0.0
C140 C 0.98143 0.63172 0.39103 0.0
O141 O 0.84968 0.55208 0.5541 0.0
C142 C 0.91905 0.51637 0.37824 0.0
O143 O 0.88184 0.60563 0.42571 0.0
O144 O 0.8635 0.54758 0.38663 0.0
O145 O 0.98936 0.61357 0.44581 0.0
O146 O 0.95106 0.63198 0.39709 0.0
C147 C 0.90767 0.50912 0.60942 0.0
O148 O 0.8899 0.50589 0.42454 0.0
O149 O 0.94903 0.54614 0.39629 0.0
C150 C 0.86405 0.57812 0.37403 0.0
O151 O 0.8804 0.5141 0.59416 0.0
O152 O 0.93641 0.52441 0.56115 0.0
C153 C 0.97521 0.62387 0.62417 0.0
Fe154 Fe 0.32792 0.91121 0.49878 0.0
Fe155 Fe 0.36291 0.86006 0.50755 0.0
O156 O 0.36765 0.9051 0.49832 0.0
Fe157 Fe 0.41269 0.94466 0.48804 0.0
O158 O 0.40095 0.97719 0.54081 0.0
O159 O 0.34508 0.94185 0.59607 0.0
O160 O 0.30019 0.87179 0.5744 0.0
C161 C 0.30927 0.85316 0.62532 0.0
C162 C 0.37491 0.96149 0.36662 0.0
O163 O 0.33861 0.85162 0.61187 0.0
C164 C 0.41953 0.89115 0.38652 0.0
O165 O 0.30818 0.88118 0.40227 0.0
O166 O 0.31896 0.8363 0.44547 0.0
O167 O 0.401 0.95455 0.38021 0.0
O168 O 0.34851 0.95165 0.42187 0.0
C169 C 0.42564 0.90627 0.61623 0.0
O170 O 0.38703 0.86469 0.40284 0.0
O171 O 0.43372 0.9204 0.43313 0.0
C172 C 0.30302 0.84836 0.39423 0.0
O173 O 0.40608 0.87641 0.57232 0.0
O174 O 0.42654 0.93641 0.59544 0.0
C175 C 0.37628 0.97188 0.59706 0.0
Fe176 Fe 0.52466 0.35208 0.50347 0.0
Fe177 Fe 0.49069 0.40283 0.49366 0.0
O178 O 0.48442 0.35715 0.49924 0.0
Fe179 Fe 0.43847 0.31743 0.50004 0.0
O180 O 0.44676 0.29984 0.60352 0.0
O181 O 0.50329 0.31031 0.57303 0.0
O182 O 0.54116 0.37952 0.60471 0.0
C183 C 0.54745 0.41269 0.61118 0.0
C184 C 0.47991 0.29522 0.38905 0.0
O185 O 0.53467 0.42564 0.55428 0.0
C186 C 0.42745 0.36243 0.38483 0.0
O187 O 0.55378 0.3931 0.43323 0.0
O188 O 0.51471 0.41137 0.38886 0.0
O189 O 0.451 0.28782 0.43364 0.0
O190 O 0.51098 0.32426 0.40385 0.0
C191 C 0.43373 0.37091 0.61213 0.0
O192 O 0.44802 0.38989 0.43329 0.0
O193 O 0.42574 0.33123 0.39588 0.0
C194 C 0.54453 0.41033 0.37838 0.0
O195 O 0.46687 0.39651 0.59723 0.0
O196 O 0.41846 0.34071 0.5674 0.0
C197 C 0.47421 0.29525 0.62028 0.0
Fe198 Fe 0.14514 0.42727 0.49916 0.0
Fe199 Fe 0.19377 0.51338 0.49352 0.0
O200 O 0.14927 0.47235 0.49839 0.0
Fe201 Fe 0.10855 0.47627 0.50203 0.0
O202 O 0.09574 0.45293 0.60711 0.0
O203 O 0.10261 0.40532 0.56834 0.0
O204 O 0.17258 0.43787 0.60061 0.0
C205 C 0.2049 0.46601 0.61092 0.0
C206 C 0.0873 0.41447 0.38843 0.0
O207 O 0.21721 0.49367 0.55868 0.0
C208 C 0.14908 0.52984 0.38 0.0
O209 O 0.18673 0.44069 0.43059 0.0
O210 O 0.20461 0.49849 0.39054 0.0
O211 O 0.07878 0.4325 0.44204 0.0
O212 O 0.1176 0.41411 0.39689 0.0
C213 C 0.15898 0.53646 0.61114 0.0
O214 O 0.17803 0.54019 0.42702 0.0
O215 O 0.11911 0.50004 0.39683 0.0
C216 C 0.20472 0.4682 0.37914 0.0
O217 O 0.18638 0.53163 0.59672 0.0
O218 O 0.1301 0.52064 0.56297 0.0
C219 C 0.08899 0.41992 0.61906 0.0
Fe220 Fe 0.70375 0.18572 0.49539 0.0
Fe221 Fe 0.65404 0.10095 0.51008 0.0
O222 O 0.69916 0.14064 0.50151 0.0
Fe223 Fe 0.73885 0.13438 0.49961 0.0
O224 O 0.75918 0.16395 0.5966 0.0
O225 O 0.74706 0.20877 0.56052 0.0
O226 O 0.67888 0.17975 0.59902 0.0
C227 C 0.64621 0.15336 0.61281 0.0
C228 C 0.75803 0.19425 0.37764 0.0
O229 O 0.63246 0.1246 0.56484 0.0
C230 C 0.6904 0.07407 0.40068 0.0
O231 O 0.66106 0.16989 0.42799 0.0
O232 O 0.64074 0.10998 0.40269 0.0
O233 O 0.76651 0.17409 0.4247 0.0
O234 O 0.72893 0.19594 0.39257 0.0
C235 C 0.69154 0.08357 0.63117 0.0
O236 O 0.66587 0.06865 0.4572 0.0
O237 O 0.72149 0.10417 0.40156 0.0
C238 C 0.64171 0.14026 0.38276 0.0
O239 O 0.66538 0.09048 0.61774 0.0
O240 O 0.71809 0.09366 0.57605 0.0
C241 C 0.7636 0.1963 0.60865 0.0
Fe242 Fe 0.62877 0.72891 0.49583 0.0
Fe243 Fe 0.54254 0.69281 0.49521 0.0
O244 O 0.58325 0.68869 0.49734 0.0
Fe245 Fe 0.57818 0.64354 0.50115 0.0
O246 O 0.60127 0.65368 0.6074 0.0
O247 O 0.6496 0.70809 0.56871 0.0
O248 O 0.61956 0.74824 0.59524 0.0
C249 C 0.59193 0.75316 0.6063 0.0
C250 C 0.64098 0.68193 0.39129 0.0
O251 O 0.56307 0.73634 0.55838 0.0
C252 C 0.52464 0.6319 0.3798 0.0
O253 O 0.61566 0.75642 0.42364 0.0
O254 O 0.55633 0.71815 0.3914 0.0
O255 O 0.62159 0.65614 0.4449 0.0
O256 O 0.6418 0.71295 0.39561 0.0
C257 C 0.52003 0.63471 0.61176 0.0
O258 O 0.51474 0.65005 0.42987 0.0
O259 O 0.55459 0.63142 0.39464 0.0
C260 C 0.58721 0.7473 0.37552 0.0
O261 O 0.52561 0.6675 0.60012 0.0
O262 O 0.53381 0.62133 0.55899 0.0
C263 C 0.63402 0.68039 0.62107 0.0
C264 C 0.44393 0.21488 0.22376 0.0
C265 C 0.47748 0.21703 0.19617 0.0
H266 H 0.41822 0.23783 0.30713 0.0
C267 C 0.51133 0.24458 0.23377 0.0
H268 H 0.41741 0.194 0.19608 0.0
C269 C 0.51183 0.26979 0.29575 0.0
C270 C 0.47847 0.26796 0.32309 0.0
H271 H 0.53778 0.24726 0.21425 0.0
H272 H 0.53855 0.29071 0.32252 0.0
C273 C 0.4444 0.23996 0.28723 0.0
C274 C 0.24997 0.49723 0.25476 0.0
C275 C 0.22939 0.4664 0.3104 0.0
H276 H 0.28967 0.52114 0.15084 0.0
C277 C 0.23361 0.43466 0.30112 0.0
H278 H 0.24752 0.52215 0.25978 0.0
C279 C 0.25813 0.43401 0.23784 0.0
C280 C 0.27881 0.46508 0.18262 0.0
H281 H 0.21821 0.41041 0.34312 0.0
H282 H 0.26086 0.40928 0.23226 0.0
C283 C 0.27431 0.49661 0.19205 0.0
C284 C 0.83931 0.24069 0.21621 0.0
C285 C 0.83549 0.27084 0.18524 0.0
H286 H 0.81794 0.19278 0.30189 0.0
C287 C 0.80592 0.27509 0.21734 0.0
H288 H 0.8618 0.23664 0.19266 0.0
C289 C 0.78063 0.24978 0.27825 0.0
C290 C 0.78445 0.21976 0.30997 0.0
H291 H 0.80193 0.29779 0.19461 0.0
H292 H 0.75827 0.25415 0.30131 0.0
C293 C 0.81419 0.21555 0.27861 0.0
C294 C 0.55881 0.76215 0.24635 0.0
C295 C 0.58925 0.77287 0.3038 0.0
H296 H 0.53563 0.7773 0.13869 0.0
C297 C 0.62105 0.80857 0.29339 0.0
H298 H 0.53392 0.73487 0.25206 0.0
C299 C 0.62204 0.83319 0.22803 0.0
C300 C 0.59134 0.82253 0.17134 0.0
H301 H 0.64502 0.81778 0.33657 0.0
H302 H 0.64673 0.86061 0.22243 0.0
C303 C 0.55986 0.78659 0.18104 0.0
C304 C 0.79769 0.55098 0.18011 0.0
C305 C 0.79179 0.58172 0.17302 0.0
H306 H 0.82505 0.52592 0.24772 0.0
C307 C 0.81102 0.61215 0.23098 0.0
H308 H 0.78357 0.52705 0.13649 0.0
C309 C 0.83513 0.61146 0.29542 0.0
C310 C 0.84037 0.58029 0.30317 0.0
H311 H 0.80717 0.63626 0.22723 0.0
H312 H 0.84919 0.63507 0.33997 0.0
C313 C 0.8216 0.55029 0.24413 0.0
C314 C 0.27131 0.78611 0.31771 0.0
C315 C 0.27683 0.82255 0.3262 0.0
H316 H 0.24448 0.73412 0.24774 0.0
C317 C 0.25764 0.83388 0.26835 0.0
H318 H 0.28551 0.77629 0.36104 0.0
C319 C 0.23387 0.80946 0.20297 0.0
C320 C 0.22889 0.77323 0.1938 0.0
H321 H 0.2612 0.86171 0.27299 0.0
H322 H 0.21981 0.81919 0.15889 0.0
C323 C 0.24771 0.76182 0.25248 0.0
C324 C 0.5626 0.78661 0.67935 0.0
C325 C 0.59307 0.78035 0.67283 0.0
H326 H 0.53796 0.81467 0.74551 0.0
C327 C 0.62362 0.79999 0.73031 0.0
H328 H 0.53859 0.77228 0.63611 0.0
C329 C 0.62324 0.82472 0.79379 0.0
C330 C 0.59227 0.83022 0.80113 0.0
H331 H 0.64757 0.79595 0.72702 0.0
H332 H 0.64686 0.83892 0.83816 0.0
C333 C 0.56222 0.81111 0.74234 0.0
C334 C 0.77524 0.54758 0.74835 0.0
C335 C 0.78551 0.57846 0.80422 0.0
H336 H 0.79087 0.52383 0.64292 0.0
C337 C 0.82108 0.61039 0.79344 0.0
H338 H 0.74812 0.52253 0.75442 0.0
C339 C 0.8459 0.61113 0.72913 0.0
C340 C 0.83564 0.58003 0.67385 0.0
H341 H 0.83 0.63469 0.83542 0.0
H342 H 0.87314 0.636 0.72302 0.0
C343 C 0.79989 0.54836 0.68416 0.0
C344 C 0.24701 0.82427 0.70376 0.0
C345 C 0.28324 0.8293 0.69596 0.0
H346 H 0.19414 0.79602 0.77073 0.0
C347 C 0.29394 0.80963 0.75387 0.0
H348 H 0.23778 0.83888 0.66006 0.0
C349 C 0.26903 0.78514 0.81671 0.0
C350 C 0.23259 0.7795 0.82382 0.0
H351 H 0.32157 0.81279 0.75019 0.0
H352 H 0.27844 0.77037 0.85941 0.0
C353 C 0.22192 0.79958 0.76697 0.0
C354 C 0.50633 0.27704 0.733 0.0
C355 C 0.47275 0.27071 0.69396 0.0
H356 H 0.53288 0.25911 0.82663 0.0
C357 C 0.43892 0.24012 0.72325 0.0
H358 H 0.53288 0.30046 0.71238 0.0
C359 C 0.43896 0.21579 0.78852 0.0
C360 C 0.47275 0.22213 0.82693 0.0
H361 H 0.41262 0.23443 0.69412 0.0
H362 H 0.41259 0.1921 0.80892 0.0
C363 C 0.50631 0.25332 0.79887 0.0
C364 C 0.22001 0.43556 0.73702 0.0
C365 C 0.23042 0.46638 0.6808 0.0
H366 H 0.23582 0.41249 0.84463 0.0
C367 C 0.26604 0.49823 0.69151 0.0
H368 H 0.19284 0.41061 0.73067 0.0
C369 C 0.29058 0.49936 0.75654 0.0
C370 C 0.28028 0.46866 0.8129 0.0
H371 H 0.27512 0.52259 0.64964 0.0
H372 H 0.31769 0.52443 0.76255 0.0
C373 C 0.24471 0.43667 0.80227 0.0
C374 C 0.80857 0.27368 0.77977 0.0
C375 C 0.83719 0.26835 0.81447 0.0
H376 H 0.76343 0.25555 0.68769 0.0
C377 C 0.8417 0.23906 0.78046 0.0
H378 H 0.80441 0.29607 0.80402 0.0
C379 C 0.81766 0.2153 0.71422 0.0
C380 C 0.7892 0.22089 0.67928 0.0
H381 H 0.86341 0.23415 0.80592 0.0
H382 H 0.8216 0.1928 0.68979 0.0
C383 C 0.78513 0.25051 0.71266 0.0
C384 C 0.39136 0.98045 0.21143 0.0
C385 C 0.37962 0.98673 0.29299 0.0
H386 H 0.41411 1.00221 0.08503 0.0
C387 C 0.37851 1.01996 0.30645 0.0
H388 H 0.39235 0.955 0.19965 0.0
C389 C 0.3919 0.04786 0.24092 0.0
C390 C 0.40614 0.04249 0.16133 0.0
H391 H 0.36986 0.02543 0.36962 0.0
H392 H 0.39306 0.07423 0.25447 0.0
C393 C 0.40406 1.00776 0.1461 0.0
C394 C 0.39817 0.3531 0.2335 0.0
C395 C 0.40453 0.36851 0.31888 0.0
H396 H 0.38298 0.35723 0.09931 0.0
C397 C 0.39452 0.39584 0.33763 0.0
H398 H 0.40591 0.33227 0.21718 0.0
C399 C 0.38209 0.41023 0.27097 0.0
C400 C 0.37857 0.39709 0.18442 0.0
H401 H 0.39869 0.40798 0.40311 0.0
H402 H 0.37719 0.43314 0.28609 0.0
C403 C 0.38519 0.36739 0.16633 0.0
C404 C 1.02206 0.37282 0.33434 0.0
C405 C 0.0606 0.39384 0.31628 0.0
H406 H 0.96628 0.34478 0.28132 0.0
C407 C 0.07248 0.40003 0.22798 0.0
H408 H 1.01221 0.368 0.40204 0.0
C409 C 0.04618 0.38778 0.15915 0.0
C410 C 1.00759 0.3681 0.17732 0.0
H411 H 0.10195 0.41665 0.21237 0.0
H412 H 0.056 0.3949 0.0917 0.0
C413 C 0.9958 0.35949 0.26542 0.0
C414 C 0.63525 0.98061 0.28828 0.0
C415 C 0.65259 0.98726 0.2058 0.0
H416 H 0.63453 1.00222 0.41517 0.0
C417 C 0.68608 1.0211 0.19106 0.0
H418 H 0.60946 0.95472 0.30102 0.0
C419 C 0.70034 0.04917 0.25634 0.0
C420 C 0.68128 0.04336 0.33689 0.0
H421 H 0.69965 0.02686 0.12716 0.0
H422 H 0.72476 0.07597 0.24182 0.0
C423 C 0.64963 1.00809 0.35332 0.0
C424 C 0.68546 0.67635 0.17687 0.0
C425 C 0.68897 0.64468 0.19438 0.0
H426 H 0.66721 0.71358 0.2266 0.0
C427 C 0.68239 0.6298 0.27965 0.0
H428 H 0.69013 0.68794 0.11076 0.0
C429 C 0.6701 0.64464 0.34535 0.0
C430 C 0.66309 0.6741 0.32669 0.0
H431 H 0.68501 0.60546 0.29438 0.0
H432 H 0.66388 0.63136 0.40975 0.0
C433 C 0.67242 0.69099 0.24286 0.0
C434 C 0.99658 0.64813 0.23158 0.0
C435 C 1.00854 0.6523 0.3198 0.0
H436 H 1.01279 0.65494 0.09505 0.0
C437 C 0.04714 0.67171 0.33809 0.0
H438 H 0.96703 0.63286 0.21572 0.0
C439 C 0.07331 0.68536 0.26925 0.0
C440 C 0.06129 0.67869 0.18097 0.0
H441 H 0.05704 0.67508 0.40568 0.0
H442 H 0.10283 0.69871 0.285 0.0
C443 C 1.02273 0.66065 0.16272 0.0
C444 C 0.68795 0.02505 0.69162 0.0
C445 C 0.68695 0.05835 0.70495 0.0
H446 H 0.67357 0.97088 0.74417 0.0
C447 C 0.67557 0.06483 0.7868 0.0
H448 H 0.69631 1.0194 0.62828 0.0
C449 C 0.66318 0.0377 0.85258 0.0
C450 C 0.66101 1.00291 0.83762 0.0
H451 H 0.67467 0.09033 0.79854 0.0
H452 H 0.65343 0.04343 0.91387 0.0
C453 C 0.67485 0.99731 0.75764 0.0
C454 C 0.70244 0.66113 0.74335 0.0
C455 C 0.68543 0.6516 0.82694 0.0
H456 H 0.69928 0.67854 0.61087 0.0
C457 C 0.65542 0.65776 0.84466 0.0
H458 H 0.72547 0.65658 0.72784 0.0
C459 C 0.64027 0.66944 0.77831 0.0
C460 C 0.65538 0.67628 0.69336 0.0
H461 H 0.64203 0.65137 0.90885 0.0
H462 H 0.61561 0.67149 0.79234 0.0
C463 C 0.68749 0.67361 0.67672 0.0
C464 C 0.99627 0.62474 0.77652 0.0
C465 C 0.99997 0.64441 0.69819 0.0
H466 H 1.02223 0.62226 0.89628 0.0
C467 C 1.03113 0.68038 0.68662 0.0
H468 H 0.97238 0.59705 0.78681 0.0
C469 C 0.06005 0.69481 0.74946 0.0
C470 C 0.05759 0.67327 0.82365 0.0
H471 H 0.03456 0.69579 0.62603 0.0
H472 H 0.08529 0.72119 0.73683 0.0
C473 C 1.02477 0.6391 0.83879 0.0
C474 C 0.36589 0.99668 0.74117 0.0
C475 C 0.38531 1.00254 0.66109 0.0
H476 H 0.36607 1.01873 0.87041 0.0
C477 C 0.41711 0.03779 0.64548 0.0
H478 H 0.34136 0.96989 0.7551 0.0
C479 C 0.43119 0.06516 0.71084 0.0
C480 C 0.41351 0.05844 0.79297 0.0
H481 H 0.4325 0.0437 0.58406 0.0
H482 H 0.45711 0.09102 0.69873 0.0
C483 C 0.3799 0.02462 0.80683 0.0
C484 C 0.39999 0.42703 0.73771 0.0
C485 C 0.37591 0.40108 0.79994 0.0
H486 H 0.43724 0.43765 0.62993 0.0
C487 C 0.3676 0.36365 0.79485 0.0
H488 H 0.40713 0.45612 0.74135 0.0
C489 C 0.38479 0.35285 0.7303 0.0
C490 C 0.41114 0.37971 0.67239 0.0
H491 H 0.34979 0.34348 0.84392 0.0
H492 H 0.37935 0.32426 0.72929 0.0
C493 C 0.41757 0.41653 0.67486 0.0
C494 C 1.03066 0.36253 0.81147 0.0
C495 C 0.99891 0.36622 0.79881 0.0
H496 H 0.08526 0.37719 0.76236 0.0
C497 C 0.99475 0.38158 0.71992 0.0
H498 H 0.03447 0.3511 0.87256 0.0
C499 C 1.02339 0.3964 0.65827 0.0
C500 C 0.05668 0.39613 0.67446 0.0
H501 H 0.97042 0.38458 0.70888 0.0
H502 H 1.02049 0.41025 0.60034 0.0
C503 C 0.05965 0.37755 0.74909 0.0
C504 C 0.59643 0.17385 0.21505 0.0
C505 C 0.56714 0.1399 0.18204 0.0
H506 H 0.64284 0.20061 0.30414 0.0
C507 C 0.56284 0.10604 0.21498 0.0
H508 H 0.60051 0.20043 0.19123 0.0
C509 C 0.58739 0.10615 0.27899 0.0
C510 C 0.61651 0.14011 0.31251 0.0
H511 H 0.54069 0.07938 0.19078 0.0
H512 H 0.58323 0.07955 0.30292 0.0
C513 C 0.6207 0.17395 0.27986 0.0
C514 C 0.48294 0.56249 0.19162 0.0
C515 C 0.44762 0.55947 0.1808 0.0
H516 H 0.53482 0.58762 0.26189 0.0
C517 C 0.43794 0.58075 0.23568 0.0
H518 H 0.49141 0.54645 0.15071 0.0
C519 C 0.46313 0.60457 0.29971 0.0
C520 C 0.49841 0.60744 0.31046 0.0
H521 H 0.41104 0.57911 0.22903 0.0
H522 H 0.4548 0.62058 0.3411 0.0
C523 C 0.50798 0.58615 0.25552 0.0
C524 C 0.95269 0.49484 0.27748 0.0
C525 C 0.91897 0.49093 0.30931 0.0
H526 H 0.97886 0.47337 0.19217 0.0
C527 C 0.88498 0.46158 0.27689 0.0
H528 H 0.97934 0.51704 0.30148 0.0
C529 C 0.88468 0.43668 0.21386 0.0
C530 C 0.91837 0.44034 0.18267 0.0
H531 H 0.85852 0.45787 0.30003 0.0
H532 H 0.85803 0.41443 0.18999 0.0
C533 C 0.95239 0.46963 0.2153 0.0
C534 C 0.43736 0.8547 0.28043 0.0
C535 C 0.44318 0.88883 0.31592 0.0
H536 H 0.45695 0.8281 0.18886 0.0
C537 C 0.47361 0.92242 0.28549 0.0
H538 H 0.41424 0.82835 0.30303 0.0
C539 C 0.49754 0.92226 0.22154 0.0
C540 C 0.49208 0.88851 0.18548 0.0
H541 H 0.479 0.94928 0.31078 0.0
H542 H 0.52056 0.94897 0.20016 0.0
C543 C 0.46193 0.85453 0.21595 0.0
C544 C 0.63308 0.46386 0.24037 0.0
C545 C 0.62171 0.48165 0.17858 0.0
H546 H 0.61747 0.42698 0.35234 0.0
C547 C 0.58457 0.47445 0.1816 0.0
H548 H 0.6614 0.46874 0.23979 0.0
C549 C 0.55968 0.45083 0.24515 0.0
C550 C 0.57099 0.43354 0.30809 0.0
H551 H 0.57447 0.48737 0.13505 0.0
H552 H 0.53153 0.44645 0.24526 0.0
C553 C 0.60788 0.43992 0.30459 0.0
C554 C 0.11542 0.55102 0.27878 0.0
C555 C 0.14921 0.55525 0.31124 0.0
H556 H 0.08907 0.57204 0.19266 0.0
C557 C 0.18317 0.58469 0.27934 0.0
H558 H 0.08879 0.52872 0.30245 0.0
C559 C 0.18333 0.60938 0.21596 0.0
C560 C 0.14954 0.60535 0.18412 0.0
H561 H 0.20965 0.58859 0.30309 0.0
H562 H 0.20993 0.63176 0.19237 0.0
C563 C 0.11558 0.576 0.21633 0.0
C564 C 0.47137 0.87283 0.78153 0.0
C565 C 0.50072 0.90676 0.81424 0.0
H566 H 0.42466 0.84611 0.69378 0.0
C567 C 0.50503 0.94069 0.78188 0.0
H568 H 0.46731 0.84621 0.80498 0.0
C569 C 0.48029 0.94063 0.7186 0.0
C570 C 0.45106 0.90664 0.68563 0.0
H571 H 0.52727 0.96731 0.80605 0.0
H572 H 0.48435 0.96722 0.69488 0.0
C573 C 0.44692 0.87278 0.71774 0.0
C574 C 0.61609 0.45262 0.80156 0.0
C575 C 0.62004 0.48847 0.81065 0.0
H576 H 0.58985 0.40031 0.73189 0.0
C577 C 0.60003 0.49896 0.75373 0.0
H578 H 0.6311 0.44362 0.84458 0.0
C579 C 0.57655 0.47419 0.6893 0.0
C580 C 0.57245 0.43829 0.6803 0.0
H581 H 0.60243 0.52631 0.7589 0.0
H582 H 0.56146 0.48325 0.64671 0.0
C583 C 0.59241 0.42771 0.7372 0.0
C584 C 0.19453 0.59114 0.71574 0.0
C585 C 0.16049 0.56231 0.68159 0.0
H586 H 0.22127 0.63775 0.80577 0.0
C587 C 0.1269 0.55849 0.71408 0.0
H588 H 0.22088 0.59492 0.69171 0.0
C589 C 0.12712 0.58249 0.7793 0.0
C590 C 0.16094 0.61146 0.81338 0.0
H591 H 0.10017 0.53657 0.68962 0.0
H592 H 0.10055 0.57839 0.80279 0.0
C593 C 0.19476 0.6158 0.78047 0.0
C594 C 0.58988 0.12233 0.70673 0.0
C595 C 0.62192 0.15563 0.68117 0.0
H596 H 0.54162 0.09632 0.78835 0.0
C597 C 0.6291 0.18969 0.71975 0.0
H598 H 0.58341 0.09556 0.67866 0.0
C599 C 0.60445 0.1901 0.78323 0.0
C600 C 0.5729 0.15639 0.80942 0.0
H601 H 0.65349 0.21579 0.70077 0.0
H602 H 0.61056 0.2164 0.81343 0.0
C603 C 0.56583 0.12272 0.76987 0.0
C604 C 0.47361 0.61913 0.73603 0.0
C605 C 0.49486 0.60937 0.68141 0.0
H606 H 0.43372 0.60211 0.84133 0.0
C607 C 0.49184 0.57397 0.69256 0.0
H608 H 0.47527 0.64608 0.72914 0.0
C609 C 0.46823 0.54893 0.75605 0.0
C610 C 0.44691 0.55846 0.8107 0.0
H611 H 0.50789 0.56538 0.65215 0.0
H612 H 0.46693 0.52211 0.76244 0.0
C613 C 0.44977 0.59385 0.80003 0.0
C614 C 0.94004 0.4889 0.71599 0.0
C615 C 0.90629 0.48381 0.68087 0.0
H616 H 0.96678 0.47009 0.80668 0.0
C617 C 0.8724 0.45415 0.71289 0.0
H618 H 0.96665 0.51156 0.69321 0.0
C619 C 0.87249 0.42974 0.77781 0.0
C620 C 0.90645 0.43517 0.81298 0.0
H621 H 0.84596 0.44946 0.68674 0.0
H622 H 0.84609 0.40698 0.80119 0.0
C623 C 0.94012 0.46513 0.78138 0.0
loop_
_geom_bond_atom_site_label_1
_geom_bond_atom_site_label_2
_geom_bond_distance
_geom_bond_site_symmetry_2
_ccdc_geom_bond_type
Fe0 O2 1.918 . S
Fe0 O5 1.997 1_554 S
Fe0 O6 2.002 1_554 S
Fe0 O11 1.976 . S
Fe0 O14 1.996 . S
Fe1 O2 1.918 . S
Fe1 O9 1.997 1_554 S
Fe1 O12 1.996 . S
Fe1 O16 1.976 . S
Fe1 O19 2.002 1_554 S
O2 Fe0 1.918 . S
O2 Fe1 1.918 . S
O2 Fe3 1.918 . S
Fe3 O2 1.918 . S
Fe3 O4 2.002 1_554 S
Fe3 O13 1.976 . S
Fe3 O17 1.996 . S
Fe3 O20 1.997 1_554 S
O4 Fe3 2.002 1_556 S
O4 C21 1.295 . S
O5 Fe0 1.997 1_556 S
O5 C21 1.235 . S
O6 Fe0 2.002 1_556 S
O6 C7 1.295 . S
C7 O6 1.295 . S
C7 O9 1.235 . S
C8 O13 1.287 . S
C8 O14 1.255 . S
O9 Fe1 1.997 1_556 S
O9 C7 1.235 . S
C10 O16 1.287 . S
C10 O17 1.255 . S
O11 Fe0 1.976 . S
O11 C18 1.287 . S
O12 Fe1 1.996 . S
O12 C18 1.255 . S
O13 Fe3 1.976 . S
O13 C8 1.287 . S
O14 Fe0 1.996 . S
O14 C8 1.255 . S
C15 O19 1.295 . S
C15 O20 1.235 . S
O16 Fe1 1.976 . S
O16 C10 1.287 . S
O17 Fe3 1.996 . S
O17 C10 1.255 . S
C18 O11 1.287 . S
C18 O12 1.255 . S
O19 Fe1 2.002 1_556 S
O19 C15 1.295 . S
O20 Fe3 1.997 1_556 S
O20 C15 1.235 . S
C21 O4 1.295 . S
C21 O5 1.235 . S
Fe22 O24 1.918 . S
Fe22 O27 1.997 1_554 S
Fe22 O28 2.002 1_554 S
Fe22 O33 1.976 . S
Fe22 O36 1.996 . S
Fe23 O24 1.918 . S
Fe23 O31 1.997 1_554 S
Fe23 O34 1.996 . S
Fe23 O38 1.976 . S
Fe23 O41 2.002 1_554 S
O24 Fe22 1.918 . S
O24 Fe23 1.918 . S
O24 Fe25 1.918 . S
Fe25 O24 1.918 . S
Fe25 O26 2.002 1_554 S
Fe25 O35 1.976 . S
Fe25 O39 1.996 . S
Fe25 O42 1.997 1_554 S
O26 Fe25 2.002 1_556 S
O26 C43 1.295 . S
O27 Fe22 1.997 1_556 S
O27 C43 1.235 . S
O28 Fe22 2.002 1_556 S
O28 C29 1.295 . S
C29 O28 1.295 . S
C29 O31 1.235 . S
C30 O35 1.287 . S
C30 O36 1.255 . S
O31 Fe23 1.997 1_556 S
O31 C29 1.235 . S
C32 O38 1.287 . S
C32 O39 1.255 . S
O33 Fe22 1.976 . S
O33 C40 1.287 . S
O34 Fe23 1.996 . S
O34 C40 1.255 . S
O35 Fe25 1.976 . S
O35 C30 1.287 . S
O36 Fe22 1.996 . S
O36 C30 1.255 . S
C37 O41 1.295 . S
C37 O42 1.235 . S
O38 Fe23 1.976 . S
O38 C32 1.287 . S
O39 Fe25 1.996 . S
O39 C32 1.255 . S
C40 O33 1.287 . S
C40 O34 1.255 . S
O41 Fe23 2.002 1_556 S
O41 C37 1.295 . S
O42 Fe25 1.997 1_556 S
O42 C37 1.235 . S
C43 O26 1.295 . S
C43 O27 1.235 . S
Fe44 O46 1.918 . S
Fe44 O49 1.997 1_554 S
Fe44 O50 2.002 1_554 S
Fe44 O55 1.976 . S
Fe44 O58 1.996 . S
Fe45 O46 1.918 . S
Fe45 O53 1.997 1_554 S
Fe45 O56 1.996 . S
Fe45 O60 1.976 . S
Fe45 O63 2.002 1_554 S
O46 Fe44 1.918 . S
O46 Fe45 1.918 . S
O46 Fe47 1.918 . S
Fe47 O46 1.918 . S
Fe47 O48 2.002 1_554 S
Fe47 O57 1.976 . S
Fe47 O61 1.996 . S
Fe47 O64 1.997 1_554 S
O48 Fe47 2.002 1_556 S
O48 C65 1.295 . S
O49 Fe44 1.997 1_556 S
O49 C65 1.235 . S
O50 Fe44 2.002 1_556 S
O50 C51 1.295 . S
C51 O50 1.295 . S
C51 O53 1.235 . S
C52 O57 1.287 . S
C52 O58 1.255 . S
O53 Fe45 1.997 1_556 S
O53 C51 1.235 . S
C54 O60 1.287 . S
C54 O61 1.255 . S
O55 Fe44 1.976 . S
O55 C62 1.287 . S
O56 Fe45 1.996 . S
O56 C62 1.255 . S
O57 Fe47 1.976 . S
O57 C52 1.287 . S
O58 Fe44 1.996 . S
O58 C52 1.255 . S
C59 O63 1.295 . S
C59 O64 1.235 . S
O60 Fe45 1.976 . S
O60 C54 1.287 . S
O61 Fe47 1.996 . S
O61 C54 1.255 . S
C62 O55 1.287 . S
C62 O56 1.255 . S
O63 Fe45 2.002 1_556 S
O63 C59 1.295 . S
O64 Fe47 1.997 1_556 S
O64 C59 1.235 . S
C65 O48 1.295 . S
C65 O49 1.235 . S
Fe66 O68 1.918 . S
Fe66 O71 1.997 1_554 S
Fe66 O72 2.002 1_554 S
Fe66 O77 1.976 . S
Fe66 O80 1.996 . S
Fe67 O68 1.918 . S
Fe67 O75 1.997 1_554 S
Fe67 O78 1.996 . S
Fe67 O82 1.976 . S
Fe67 O85 2.002 1_554 S
O68 Fe66 1.918 . S
O68 Fe67 1.918 . S
O68 Fe69 1.918 . S
Fe69 O68 1.918 . S
Fe69 O70 2.002 1_554 S
Fe69 O79 1.976 . S
Fe69 O83 1.996 . S
Fe69 O86 1.997 1_554 S
O70 Fe69 2.002 1_556 S
O70 C87 1.295 . S
O71 Fe66 1.997 1_556 S
O71 C87 1.235 . S
O72 Fe66 2.002 1_556 S
O72 C73 1.295 . S
C73 O72 1.295 . S
C73 O75 1.235 . S
C74 O79 1.287 . S
C74 O80 1.255 . S
O75 Fe67 1.997 1_556 S
O75 C73 1.235 . S
C76 O82 1.287 . S
C76 O83 1.255 . S
O77 Fe66 1.976 . S
O77 C84 1.287 . S
O78 Fe67 1.996 . S
O78 C84 1.255 . S
O79 Fe69 1.976 . S
O79 C74 1.287 . S
O80 Fe66 1.996 . S
O80 C74 1.255 . S
C81 O85 1.295 . S
C81 O86 1.235 . S
O82 Fe67 1.976 . S
O82 C76 1.287 . S
O83 Fe69 1.996 . S
O83 C76 1.255 . S
C84 O77 1.287 . S
C84 O78 1.255 . S
O85 Fe67 2.002 1_556 S
O85 C81 1.295 . S
O86 Fe69 1.997 1_556 S
O86 C81 1.235 . S
C87 O70 1.295 . S
C87 O71 1.235 . S
Fe88 O90 1.918 . S
Fe88 O93 1.997 1_554 S
Fe88 O94 2.002 1_554 S
Fe88 O99 1.976 . S
Fe88 O102 1.996 . S
Fe89 O90 1.918 . S
Fe89 O97 1.997 1_554 S
Fe89 O100 1.996 . S
Fe89 O104 1.976 . S
Fe89 O107 2.002 1_554 S
O90 Fe88 1.918 . S
O90 Fe89 1.918 . S
O90 Fe91 1.918 . S
Fe91 O90 1.918 . S
Fe91 O92 2.002 1_554 S
Fe91 O101 1.976 . S
Fe91 O105 1.996 . S
Fe91 O108 1.997 1_554 S
O92 Fe91 2.002 1_556 S
O92 C109 1.295 . S
O93 Fe88 1.997 1_556 S
O93 C109 1.235 . S
O94 Fe88 2.002 1_556 S
O94 C95 1.295 . S
C95 O94 1.295 . S
C95 O97 1.235 . S
C96 O101 1.287 . S
C96 O102 1.255 . S
O97 Fe89 1.997 1_556 S
O97 C95 1.235 . S
C98 O104 1.287 . S
C98 O105 1.255 . S
O99 Fe88 1.976 . S
O99 C106 1.287 . S
O100 Fe89 1.996 . S
O100 C106 1.255 . S
O101 Fe91 1.976 . S
O101 C96 1.287 . S
O102 Fe88 1.996 . S
O102 C96 1.255 . S
C103 O107 1.295 . S
C103 O108 1.235 . S
O104 Fe89 1.976 . S
O104 C98 1.287 . S
O105 Fe91 1.996 . S
O105 C98 1.255 . S
C106 O99 1.287 . S
C106 O100 1.255 . S
O107 Fe89 2.002 1_556 S
O107 C103 1.295 . S
O108 Fe91 1.997 1_556 S
O108 C103 1.235 . S
C109 O92 1.295 . S
C109 O93 1.235 . S
Fe110 O112 1.918 . S
Fe110 O115 1.997 1_554 S
Fe110 O116 2.002 1_554 S
Fe110 O121 1.976 . S
Fe110 O124 1.996 . S
Fe111 O112 1.918 . S
Fe111 O119 1.997 1_554 S
Fe111 O122 1.996 . S
Fe111 O126 1.976 . S
Fe111 O129 2.002 1_554 S
O112 Fe110 1.918 . S
O112 Fe111 1.918 . S
O112 Fe113 1.918 . S
Fe113 O112 1.918 . S
Fe113 O114 2.002 1_554 S
Fe113 O123 1.976 . S
Fe113 O127 1.996 . S
Fe113 O130 1.997 1_554 S
O114 Fe113 2.002 1_556 S
O114 C131 1.295 . S
O115 Fe110 1.997 1_556 S
O115 C131 1.235 . S
O116 Fe110 2.002 1_556 S
O116 C117 1.295 . S
C117 O116 1.295 . S
C117 O119 1.235 . S
C118 O123 1.287 . S
C118 O124 1.255 . S
O119 Fe111 1.997 1_556 S
O119 C117 1.235 . S
C120 O126 1.287 . S
C120 O127 1.255 . S
O121 Fe110 1.976 . S
O121 C128 1.287 . S
O122 Fe111 1.996 . S
O122 C128 1.255 . S
O123 Fe113 1.976 . S
O123 C118 1.287 . S
O124 Fe110 1.996 . S
O124 C118 1.255 . S
C125 O129 1.295 . S
C125 O130 1.235 . S
O126 Fe111 1.976 . S
O126 C120 1.287 . S
O127 Fe113 1.996 . S
O127 C120 1.255 . S
C128 O121 1.287 . S
C128 O122 1.255 . S
O129 Fe111 2.002 1_556 S
O129 C125 1.295 . S
O130 Fe113 1.997 1_556 S
O130 C125 1.235 . S
C131 O114 1.295 . S
C131 O115 1.235 . S
Fe132 O134 1.918 . S
Fe132 O137 1.997 . S
Fe132 O138 2.002 . S
Fe132 O143 1.976 . S
Fe132 O146 1.996 . S
Fe133 O134 1.918 . S
Fe133 O141 1.997 . S
Fe133 O144 1.996 . S
Fe133 O148 1.976 . S
Fe133 O151 2.002 . S
O134 Fe132 1.918 . S
O134 Fe133 1.918 . S
O134 Fe135 1.918 . S
Fe135 O134 1.918 . S
Fe135 O136 2.002 . S
Fe135 O145 1.976 . S
Fe135 O149 1.996 . S
Fe135 O152 1.997 . S
O136 Fe135 2.002 . S
O136 C153 1.295 . S
O137 Fe132 1.997 . S
O137 C153 1.235 . S
O138 Fe132 2.002 . S
O138 C139 1.295 . S
C139 O138 1.295 . S
C139 O141 1.235 . S
C140 O145 1.287 . S
C140 O146 1.255 . S
O141 Fe133 1.997 . S
O141 C139 1.235 . S
C142 O148 1.287 . S
C142 O149 1.255 . S
O143 Fe132 1.976 . S
O143 C150 1.287 . S
O144 Fe133 1.996 . S
O144 C150 1.255 . S
O145 Fe135 1.976 . S
O145 C140 1.287 . S
O146 Fe132 1.996 . S
O146 C140 1.255 . S
C147 O151 1.295 . S
C147 O152 1.235 . S
O148 Fe133 1.976 . S
O148 C142 1.287 . S
O149 Fe135 1.996 . S
O149 C142 1.255 . S
C150 O143 1.287 . S
C150 O144 1.255 . S
O151 Fe133 2.002 . S
O151 C147 1.295 . S
O152 Fe135 1.997 . S
O152 C147 1.235 . S
C153 O136 1.295 . S
C153 O137 1.235 . S
Fe154 O156 1.918 . S
Fe154 O159 1.997 . S
Fe154 O160 2.002 . S
Fe154 O165 1.976 . S
Fe154 O168 1.996 . S
Fe155 O156 1.918 . S
Fe155 O163 1.997 . S
Fe155 O166 1.996 . S
Fe155 O170 1.976 . S
Fe155 O173 2.002 . S
O156 Fe154 1.918 . S
O156 Fe155 1.918 . S
O156 Fe157 1.918 . S
Fe157 O156 1.918 . S
Fe157 O158 2.002 . S
Fe157 O167 1.976 . S
Fe157 O171 1.996 . S
Fe157 O174 1.997 . S
O158 Fe157 2.002 . S
O158 C175 1.295 . S
O159 Fe154 1.997 . S
O159 C175 1.235 . S
O160 Fe154 2.002 . S
O160 C161 1.295 . S
C161 O160 1.295 . S
C161 O163 1.235 . S
C162 O167 1.287 . S
C162 O168 1.255 . S
O163 Fe155 1.997 . S
O163 C161 1.235 . S
C164 O170 1.287 . S
C164 O171 1.255 . S
O165 Fe154 1.976 . S
O165 C172 1.287 . S
O166 Fe155 1.996 . S
O166 C172 1.255 . S
O167 Fe157 1.976 . S
O167 C162 1.287 . S
O168 Fe154 1.996 . S
O168 C162 1.255 . S
C169 O173 1.295 . S
C169 O174 1.235 . S
O170 Fe155 1.976 . S
O170 C164 1.287 . S
O171 Fe157 1.996 . S
O171 C164 1.255 . S
C172 O165 1.287 . S
C172 O166 1.255 . S
O173 Fe155 2.002 . S
O173 C169 1.295 . S
O174 Fe157 1.997 . S
O174 C169 1.235 . S
C175 O158 1.295 . S
C175 O159 1.235 . S
Fe176 O178 1.918 . S
Fe176 O181 1.997 . S
Fe176 O182 2.002 . S
Fe176 O187 1.976 . S
Fe176 O190 1.996 . S
Fe177 O178 1.918 . S
Fe177 O185 1.997 . S
Fe177 O188 1.996 . S
Fe177 O192 1.976 . S
Fe177 O195 2.002 . S
O178 Fe176 1.918 . S
O178 Fe177 1.918 . S
O178 Fe179 1.918 . S
Fe179 O178 1.918 . S
Fe179 O180 2.002 . S
Fe179 O189 1.976 . S
Fe179 O193 1.996 . S
Fe179 O196 1.997 . S
O180 Fe179 2.002 . S
O180 C197 1.295 . S
O181 Fe176 1.997 . S
O181 C197 1.235 . S
O182 Fe176 2.002 . S
O182 C183 1.295 . S
C183 O182 1.295 . S
C183 O185 1.235 . S
C184 O189 1.287 . S
C184 O190 1.255 . S
O185 Fe177 1.997 . S
O185 C183 1.235 . S
C186 O192 1.287 . S
C186 O193 1.255 . S
O187 Fe176 1.976 . S
O187 C194 1.287 . S
O188 Fe177 1.996 . S
O188 C194 1.255 . S
O189 Fe179 1.976 . S
O189 C184 1.287 . S
O190 Fe176 1.996 . S
O190 C184 1.255 . S
C191 O195 1.295 . S
C191 O196 1.235 . S
O192 Fe177 1.976 . S
O192 C186 1.287 . S
O193 Fe179 1.996 . S
O193 C186 1.255 . S
C194 O187 1.287 . S
C194 O188 1.255 . S
O195 Fe177 2.002 . S
O195 C191 1.295 . S
O196 Fe179 1.997 . S
O196 C191 1.235 . S
C197 O180 1.295 . S
C197 O181 1.235 . S
Fe198 O200 1.918 . S
Fe198 O203 1.997 . S
Fe198 O204 2.002 . S
Fe198 O209 1.976 . S
Fe198 O212 1.996 . S
Fe199 O200 1.918 . S
Fe199 O207 1.997 . S
Fe199 O210 1.996 . S
Fe199 O214 1.976 . S
Fe199 O217 2.002 . S
O200 Fe198 1.918 . S
O200 Fe199 1.918 . S
O200 Fe201 1.918 . S
Fe201 O200 1.918 . S
Fe201 O202 2.002 . S
Fe201 O211 1.976 . S
Fe201 O215 1.996 . S
Fe201 O218 1.997 . S
O202 Fe201 2.002 . S
O202 C219 1.295 . S
O203 Fe198 1.997 . S
O203 C219 1.235 . S
O204 Fe198 2.002 . S
O204 C205 1.295 . S
C205 O204 1.295 . S
C205 O207 1.235 . S
C206 O211 1.287 . S
C206 O212 1.255 . S
O207 Fe199 1.997 . S
O207 C205 1.235 . S
C208 O214 1.287 . S
C208 O215 1.255 . S
O209 Fe198 1.976 . S
O209 C216 1.287 . S
O210 Fe199 1.996 . S
O210 C216 1.255 . S
O211 Fe201 1.976 . S
O211 C206 1.287 . S
O212 Fe198 1.996 . S
O212 C206 1.255 . S
C213 O217 1.295 . S
C213 O218 1.235 . S
O214 Fe199 1.976 . S
O214 C208 1.287 . S
O215 Fe201 1.996 . S
O215 C208 1.255 . S
C216 O209 1.287 . S
C216 O210 1.255 . S
O217 Fe199 2.002 . S
O217 C213 1.295 . S
O218 Fe201 1.997 . S
O218 C213 1.235 . S
C219 O202 1.295 . S
C219 O203 1.235 . S
Fe220 O222 1.918 . S
Fe220 O225 1.997 . S
Fe220 O226 2.002 . S
Fe220 O231 1.976 . S
Fe220 O234 1.996 . S
Fe221 O222 1.918 . S
Fe221 O229 1.997 . S
Fe221 O232 1.996 . S
Fe221 O236 1.976 . S
Fe221 O239 2.002 . S
O222 Fe220 1.918 . S
O222 Fe221 1.918 . S
O222 Fe223 1.918 . S
Fe223 O222 1.918 . S
Fe223 O224 2.002 . S
Fe223 O233 1.976 . S
Fe223 O237 1.996 . S
Fe223 O240 1.997 . S
O224 Fe223 2.002 . S
O224 C241 1.295 . S
O225 Fe220 1.997 . S
O225 C241 1.235 . S
O226 Fe220 2.002 . S
O226 C227 1.295 . S
C227 O226 1.295 . S
C227 O229 1.235 . S
C228 O233 1.287 . S
C228 O234 1.255 . S
O229 Fe221 1.997 . S
O229 C227 1.235 . S
C230 O236 1.287 . S
C230 O237 1.255 . S
O231 Fe220 1.976 . S
O231 C238 1.287 . S
O232 Fe221 1.996 . S
O232 C238 1.255 . S
O233 Fe223 1.976 . S
O233 C228 1.287 . S
O234 Fe220 1.996 . S
O234 C228 1.255 . S
C235 O239 1.295 . S
C235 O240 1.235 . S
O236 Fe221 1.976 . S
O236 C230 1.287 . S
O237 Fe223 1.996 . S
O237 C230 1.255 . S
C238 O231 1.287 . S
C238 O232 1.255 . S
O239 Fe221 2.002 . S
O239 C235 1.295 . S
O240 Fe223 1.997 . S
O240 C235 1.235 . S
C241 O224 1.295 . S
C241 O225 1.235 . S
Fe242 O244 1.918 . S
Fe242 O247 1.997 . S
Fe242 O248 2.002 . S
Fe242 O253 1.976 . S
Fe242 O256 1.996 . S
Fe243 O244 1.918 . S
Fe243 O251 1.997 . S
Fe243 O254 1.996 . S
Fe243 O258 1.976 . S
Fe243 O261 2.002 . S
O244 Fe242 1.918 . S
O244 Fe243 1.918 . S
O244 Fe245 1.918 . S
Fe245 O244 1.918 . S
Fe245 O246 2.002 . S
Fe245 O255 1.976 . S
Fe245 O259 1.996 . S
Fe245 O262 1.997 . S
O246 Fe245 2.002 . S
O246 C263 1.295 . S
O247 Fe242 1.997 . S
O247 C263 1.235 . S
O248 Fe242 2.002 . S
O248 C249 1.295 . S
C249 O248 1.295 . S
C249 O251 1.235 . S
C250 O255 1.287 . S
C250 O256 1.255 . S
O251 Fe243 1.997 . S
O251 C249 1.235 . S
C252 O258 1.287 . S
C252 O259 1.255 . S
O253 Fe242 1.976 . S
O253 C260 1.287 . S
O254 Fe243 1.996 . S
O254 C260 1.255 . S
O255 Fe245 1.976 . S
O255 C250 1.287 . S
O256 Fe242 1.996 . S
O256 C250 1.255 . S
C257 O261 1.295 . S
C257 O262 1.235 . S
O258 Fe243 1.976 . S
O258 C252 1.287 . S
O259 Fe245 1.996 . S
O259 C252 1.255 . S
C260 O253 1.287 . S
C260 O254 1.255 . S
O261 Fe243 2.002 . S
O261 C257 1.295 . S
O262 Fe245 1.997 . S
O262 C257 1.235 . S
C263 O246 1.295 . S
C263 O247 1.235 . S
C264 C265 1.387 . S
C264 H268 0.950 . S
C264 C273 1.390 . S
C265 C264 1.387 . S
C265 C267 1.387 . S
H266 C273 0.950 . S
C267 C265 1.387 . S
C267 C269 1.390 . S
C267 H271 0.950 . S
H268 C264 0.950 . S
C269 C267 1.390 . S
C269 C270 1.387 . S
C269 H272 0.950 . S
C270 C269 1.387 . S
C270 C273 1.387 . S
H271 C267 0.950 . S
H272 C269 0.950 . S
C273 C264 1.390 . S
C273 H266 0.950 . S
C273 C270 1.387 . S
C274 C275 1.387 . S
C274 H278 0.950 . S
C274 C283 1.390 . S
C275 C274 1.387 . S
C275 C277 1.387 . S
H276 C283 0.950 . S
C277 C275 1.387 . S
C277 C279 1.390 . S
C277 H281 0.950 . S
H278 C274 0.950 . S
C279 C277 1.390 . S
C279 C280 1.387 . S
C279 H282 0.950 . S
C280 C279 1.387 . S
C280 C283 1.387 . S
H281 C277 0.950 . S
H282 C279 0.950 . S
C283 C274 1.390 . S
C283 H276 0.950 . S
C283 C280 1.387 . S
C284 C285 1.387 . S
C284 H288 0.950 . S
C284 C293 1.390 . S
C285 C284 1.387 . S
C285 C287 1.387 . S
H286 C293 0.950 . S
C287 C285 1.387 . S
C287 C289 1.390 . S
C287 H291 0.950 . S
H288 C284 0.950 . S
C289 C287 1.390 . S
C289 C290 1.387 . S
C289 H292 0.950 . S
C290 C289 1.387 . S
C290 C293 1.387 . S
H291 C287 0.950 . S
H292 C289 0.950 . S
C293 C284 1.390 . S
C293 H286 0.950 . S
C293 C290 1.387 . S
C294 C295 1.387 . S
C294 H298 0.950 . S
C294 C303 1.390 . S
C295 C294 1.387 . S
C295 C297 1.387 . S
H296 C303 0.950 . S
C297 C295 1.387 . S
C297 C299 1.390 . S
C297 H301 0.950 . S
H298 C294 0.950 . S
C299 C297 1.390 . S
C299 C300 1.387 . S
C299 H302 0.950 . S
C300 C299 1.387 . S
C300 C303 1.387 . S
H301 C297 0.950 . S
H302 C299 0.950 . S
C303 C294 1.390 . S
C303 H296 0.950 . S
C303 C300 1.387 . S
C304 C305 1.387 . S
C304 H308 0.950 . S
C304 C313 1.390 . S
C305 C304 1.387 . S
C305 C307 1.387 . S
H306 C313 0.950 . S
C307 C305 1.387 . S
C307 C309 1.390 . S
C307 H311 0.950 . S
H308 C304 0.950 . S
C309 C307 1.390 . S
C309 C310 1.387 . S
C309 H312 0.950 . S
C310 C309 1.387 . S
C310 C313 1.387 . S
H311 C307 0.950 . S
H312 C309 0.950 . S
C313 C304 1.390 . S
C313 H306 0.950 . S
C313 C310 1.387 . S
C314 C315 1.387 . S
C314 H318 0.950 . S
C314 C323 1.390 . S
C315 C314 1.387 . S
C315 C317 1.387 . S
H316 C323 0.950 . S
C317 C315 1.387 . S
C317 C319 1.390 . S
C317 H321 0.950 . S
H318 C314 0.950 . S
C319 C317 1.390 . S
C319 C320 1.387 . S
C319 H322 0.950 . S
C320 C319 1.387 . S
C320 C323 1.387 . S
H321 C317 0.950 . S
H322 C319 0.950 . S
C323 C314 1.390 . S
C323 H316 0.950 . S
C323 C320 1.387 . S
C324 C325 1.387 . S
C324 H328 0.950 . S
C324 C333 1.390 . S
C325 C324 1.387 . S
C325 C327 1.387 . S
H326 C333 0.950 . S
C327 C325 1.387 . S
C327 C329 1.390 . S
C327 H331 0.950 . S
H328 C324 0.950 . S
C329 C327 1.390 . S
C329 C330 1.387 . S
C329 H332 0.950 . S
C330 C329 1.387 . S
C330 C333 1.387 . S
H331 C327 0.950 . S
H332 C329 0.950 . S
C333 C324 1.390 . S
C333 H326 0.950 . S
C333 C330 1.387 . S
C334 C335 1.387 . S
C334 H338 0.950 . S
C334 C343 1.390 . S
C335 C334 1.387 . S
C335 C337 1.387 . S
H336 C343 0.950 . S
C337 C335 1.387 . S
C337 C339 1.390 . S
C337 H341 0.950 . S
H338 C334 0.950 . S
C339 C337 1.390 . S
C339 C340 1.387 . S
C339 H342 0.950 . S
C340 C339 1.387 . S
C340 C343 1.387 . S
H341 C337 0.950 . S
H342 C339 0.950 . S
C343 C334 1.390 . S
C343 H336 0.950 . S
C343 C340 1.387 . S
C344 C345 1.387 . S
C344 H348 0.950 . S
C344 C353 1.390 . S
C345 C344 1.387 . S
C345 C347 1.387 . S
H346 C353 0.950 . S
C347 C345 1.387 . S
C347 C349 1.390 . S
C347 H351 0.950 . S
H348 C344 0.950 . S
C349 C347 1.390 . S
C349 C350 1.387 . S
C349 H352 0.950 . S
C350 C349 1.387 . S
C350 C353 1.387 . S
H351 C347 0.950 . S
H352 C349 0.950 . S
C353 C344 1.390 . S
C353 H346 0.950 . S
C353 C350 1.387 . S
C354 C355 1.387 . S
C354 H358 0.950 . S
C354 C363 1.390 . S
C355 C354 1.387 . S
C355 C357 1.387 . S
H356 C363 0.950 . S
C357 C355 1.387 . S
C357 C359 1.390 . S
C357 H361 0.950 . S
H358 C354 0.950 . S
C359 C357 1.390 . S
C359 C360 1.387 . S
C359 H362 0.950 . S
C360 C359 1.387 . S
C360 C363 1.387 . S
H361 C357 0.950 . S
H362 C359 0.950 . S
C363 C354 1.390 . S
C363 H356 0.950 . S
C363 C360 1.387 . S
C364 C365 1.387 . S
C364 H368 0.950 . S
C364 C373 1.390 . S
C365 C364 1.387 . S
C365 C367 1.387 . S
H366 C373 0.950 . S
C367 C365 1.387 . S
C367 C369 1.390 . S
C367 H371 0.950 . S
H368 C364 0.950 . S
C369 C367 1.390 . S
C369 C370 1.387 . S
C369 H372 0.950 . S
C370 C369 1.387 . S
C370 C373 1.387 . S
H371 C367 0.950 . S
H372 C369 0.950 . S
C373 C364 1.390 . S
C373 H366 0.950 . S
C373 C370 1.387 . S
C374 C375 1.387 . S
C374 H378 0.950 . S
C374 C383 1.390 . S
C375 C374 1.387 . S
C375 C377 1.387 . S
H376 C383 0.950 . S
C377 C375 1.387 . S
C377 C379 1.390 . S
C377 H381 0.950 . S
H378 C374 0.950 . S
C379 C377 1.390 . S
C379 C380 1.387 . S
C379 H382 0.950 . S
C380 C379 1.387 . S
C380 C383 1.387 . S
H381 C377 0.950 . S
H382 C379 0.950 . S
C383 C374 1.390 . S
C383 H376 0.950 . S
C383 C380 1.387 . S
C384 C385 1.387 . S
C384 H388 0.950 . S
C384 C393 1.390 1_565 S
C385 C384 1.387 . S
C385 C387 1.387 . S
H386 C393 0.950 . S
C387 C385 1.387 . S
C387 C389 1.390 1_565 S
C387 H391 0.950 . S
H388 C384 0.950 . S
C389 C387 1.390 1_545 S
C389 C390 1.387 . S
C389 H392 0.950 . S
C390 C389 1.387 . S
C390 C393 1.387 . S
H391 C387 0.950 . S
H392 C389 0.950 . S
C393 C384 1.390 1_545 S
C393 H386 0.950 . S
C393 C390 1.387 . S
C394 C395 1.387 . S
C394 H398 0.950 . S
C394 C403 1.390 . S
C395 C394 1.387 . S
C395 C397 1.387 . S
H396 C403 0.950 . S
C397 C395 1.387 . S
C397 C399 1.390 . S
C397 H401 0.950 . S
H398 C394 0.950 . S
C399 C397 1.390 . S
C399 C400 1.387 . S
C399 H402 0.950 . S
C400 C399 1.387 . S
C400 C403 1.387 . S
H401 C397 0.950 . S
H402 C399 0.950 . S
C403 C394 1.390 . S
C403 H396 0.950 . S
C403 C400 1.387 . S
C404 C405 1.387 . S
C404 H408 0.950 . S
C404 C413 1.390 1_455 S
C405 C404 1.387 . S
C405 C407 1.387 . S
H406 C413 0.950 . S
C407 C405 1.387 . S
C407 C409 1.390 1_455 S
C407 H411 0.950 . S
H408 C404 0.950 . S
C409 C407 1.390 1_655 S
C409 C410 1.387 . S
C409 H412 0.950 . S
C410 C409 1.387 . S
C410 C413 1.387 . S
H411 C407 0.950 . S
H412 C409 0.950 . S
C413 C404 1.390 1_655 S
C413 H406 0.950 . S
C413 C410 1.387 . S
C414 C415 1.387 . S
C414 H418 0.950 . S
C414 C423 1.390 1_565 S
C415 C414 1.387 . S
C415 C417 1.387 . S
H416 C423 0.950 . S
C417 C415 1.387 . S
C417 C419 1.390 1_565 S
C417 H421 0.950 . S
H418 C414 0.950 . S
C419 C417 1.390 1_545 S
C419 C420 1.387 . S
C419 H422 0.950 . S
C420 C419 1.387 . S
C420 C423 1.387 . S
H421 C417 0.950 . S
H422 C419 0.950 . S
C423 C414 1.390 1_545 S
C423 H416 0.950 . S
C423 C420 1.387 . S
C424 C425 1.387 . S
C424 H428 0.950 . S
C424 C433 1.390 . S
C425 C424 1.387 . S
C425 C427 1.387 . S
H426 C433 0.950 . S
C427 C425 1.387 . S
C427 C429 1.390 . S
C427 H431 0.950 . S
H428 C424 0.950 . S
C429 C427 1.390 . S
C429 C430 1.387 . S
C429 H432 0.950 . S
C430 C429 1.387 . S
C430 C433 1.387 . S
H431 C427 0.950 . S
H432 C429 0.950 . S
C433 C424 1.390 . S
C433 H426 0.950 . S
C433 C430 1.387 . S
C434 C435 1.387 . S
C434 H438 0.950 . S
C434 C443 1.377 1_655 S
C435 C434 1.387 . S
C435 C437 1.393 . S
H436 C443 0.945 . S
C437 C435 1.393 . S
C437 C439 1.377 1_655 S
C437 H441 0.945 . S
H438 C434 0.950 . S
C439 C437 1.377 1_455 S
C439 C440 1.387 . S
C439 H442 0.950 . S
C440 C439 1.387 . S
C440 C443 1.393 . S
H441 C437 0.945 . S
H442 C439 0.950 . S
C443 C434 1.377 1_455 S
C443 H436 0.945 . S
C443 C440 1.393 . S
C444 C445 1.387 . S
C444 H448 0.950 . S
C444 C453 1.390 1_545 S
C445 C444 1.387 . S
C445 C447 1.387 . S
H446 C453 0.950 . S
C447 C445 1.387 . S
C447 C449 1.390 1_545 S
C447 H451 0.950 . S
H448 C444 0.950 . S
C449 C447 1.390 1_565 S
C449 C450 1.387 . S
C449 H452 0.950 . S
C450 C449 1.387 . S
C450 C453 1.387 . S
H451 C447 0.950 . S
H452 C449 0.950 . S
C453 C444 1.390 1_565 S
C453 H446 0.950 . S
C453 C450 1.387 . S
C454 C455 1.387 . S
C454 H458 0.950 . S
C454 C463 1.390 . S
C455 C454 1.387 . S
C455 C457 1.387 . S
H456 C463 0.950 . S
C457 C455 1.387 . S
C457 C459 1.390 . S
C457 H461 0.950 . S
H458 C454 0.950 . S
C459 C457 1.390 . S
C459 C460 1.387 . S
C459 H462 0.950 . S
C460 C459 1.387 . S
C460 C463 1.387 . S
H461 C457 0.950 . S
H462 C459 0.950 . S
C463 C454 1.390 . S
C463 H456 0.950 . S
C463 C460 1.387 . S
C464 C465 1.387 . S
C464 H468 0.950 . S
C464 C473 1.390 . S
C465 C464 1.387 . S
C465 C467 1.387 1_655 S
H466 C473 0.950 . S
C467 C465 1.387 1_455 S
C467 C469 1.390 . S
C467 H471 0.950 . S
H468 C464 0.950 . S
C469 C467 1.390 . S
C469 C470 1.387 . S
C469 H472 0.950 . S
C470 C469 1.387 . S
C470 C473 1.387 1_455 S
H471 C467 0.950 . S
H472 C469 0.950 . S
C473 C464 1.390 . S
C473 H466 0.950 . S
C473 C470 1.387 1_655 S
C474 C475 1.387 . S
C474 H478 0.950 . S
C474 C483 1.390 1_565 S
C475 C474 1.387 . S
C475 C477 1.387 . S
H476 C483 0.950 . S
C477 C475 1.387 . S
C477 C479 1.390 1_565 S
C477 H481 0.950 . S
H478 C474 0.950 . S
C479 C477 1.390 1_545 S
C479 C480 1.387 . S
C479 H482 0.950 . S
C480 C479 1.387 . S
C480 C483 1.387 . S
H481 C477 0.950 . S
H482 C479 0.950 . S
C483 C474 1.390 1_545 S
C483 H476 0.950 . S
C483 C480 1.387 . S
C484 C485 1.387 . S
C484 H488 0.950 . S
C484 C493 1.390 . S
C485 C484 1.387 . S
C485 C487 1.387 . S
H486 C493 0.950 . S
C487 C485 1.387 . S
C487 C489 1.390 . S
C487 H491 0.950 . S
H488 C484 0.950 . S
C489 C487 1.390 . S
C489 C490 1.387 . S
C489 H492 0.950 . S
C490 C489 1.387 . S
C490 C493 1.387 . S
H491 C487 0.950 . S
H492 C489 0.950 . S
C493 C484 1.390 . S
C493 H486 0.950 . S
C493 C490 1.387 . S
C494 C495 1.387 . S
C494 H498 0.950 . S
C494 C503 1.390 1_655 S
C495 C494 1.387 . S
C495 C497 1.387 . S
H496 C503 0.950 . S
C497 C495 1.387 . S
C497 C499 1.390 1_655 S
C497 H501 0.950 . S
H498 C494 0.950 . S
C499 C497 1.390 1_455 S
C499 C500 1.387 . S
C499 H502 0.950 . S
C500 C499 1.387 . S
C500 C503 1.387 . S
H501 C497 0.950 . S
H502 C499 0.950 . S
C503 C494 1.390 1_455 S
C503 H496 0.950 . S
C503 C500 1.387 . S
C504 C505 1.387 . S
C504 H508 0.950 . S
C504 C513 1.390 . S
C505 C504 1.387 . S
C505 C507 1.387 . S
H506 C513 0.950 . S
C507 C505 1.387 . S
C507 C509 1.390 . S
C507 H511 0.950 . S
H508 C504 0.950 . S
C509 C507 1.390 . S
C509 C510 1.387 . S
C509 H512 0.950 . S
C510 C509 1.387 . S
C510 C513 1.387 . S
H511 C507 0.950 . S
H512 C509 0.950 . S
C513 C504 1.390 . S
C513 H506 0.950 . S
C513 C510 1.387 . S
C514 C515 1.387 . S
C514 H518 0.950 . S
C514 C523 1.390 . S
C515 C514 1.387 . S
C515 C517 1.387 . S
H516 C523 0.950 . S
C517 C515 1.387 . S
C517 C519 1.390 . S
C517 H521 0.950 . S
H518 C514 0.950 . S
C519 C517 1.390 . S
C519 C520 1.387 . S
C519 H522 0.950 . S
C520 C519 1.387 . S
C520 C523 1.387 . S
H521 C517 0.950 . S
H522 C519 0.950 . S
C523 C514 1.390 . S
C523 H516 0.950 . S
C523 C520 1.387 . S
C524 C525 1.387 . S
C524 H528 0.950 . S
C524 C533 1.390 . S
C525 C524 1.387 . S
C525 C527 1.387 . S
H526 C533 0.950 . S
C527 C525 1.387 . S
C527 C529 1.390 . S
C527 H531 0.950 . S
H528 C524 0.950 . S
C529 C527 1.390 . S
C529 C530 1.387 . S
C529 H532 0.950 . S
C530 C529 1.387 . S
C530 C533 1.387 . S
H531 C527 0.950 . S
H532 C529 0.950 . S
C533 C524 1.390 . S
C533 H526 0.950 . S
C533 C530 1.387 . S
C534 C535 1.387 . S
C534 H538 0.950 . S
C534 C543 1.390 . S
C535 C534 1.387 . S
C535 C537 1.387 . S
H536 C543 0.950 . S
C537 C535 1.387 . S
C537 C539 1.390 . S
C537 H541 0.950 . S
H538 C534 0.950 . S
C539 C537 1.390 . S
C539 C540 1.387 . S
C539 H542 0.950 . S
C540 C539 1.387 . S
C540 C543 1.387 . S
H541 C537 0.950 . S
H542 C539 0.950 . S
C543 C534 1.390 . S
C543 H536 0.950 . S
C543 C540 1.387 . S
C544 C545 1.387 . S
C544 H548 0.950 . S
C544 C553 1.390 . S
C545 C544 1.387 . S
C545 C547 1.387 . S
H546 C553 0.950 . S
C547 C545 1.387 . S
C547 C549 1.390 . S
C547 H551 0.950 . S
H548 C544 0.950 . S
C549 C547 1.390 . S
C549 C550 1.387 . S
C549 H552 0.950 . S
C550 C549 1.387 . S
C550 C553 1.387 . S
H551 C547 0.950 . S
H552 C549 0.950 . S
C553 C544 1.390 . S
C553 H546 0.950 . S
C553 C550 1.387 . S
C554 C555 1.387 . S
C554 H558 0.950 . S
C554 C563 1.390 . S
C555 C554 1.387 . S
C555 C557 1.387 . S
H556 C563 0.950 . S
C557 C555 1.387 . S
C557 C559 1.390 . S
C557 H561 0.950 . S
H558 C554 0.950 . S
C559 C557 1.390 . S
C559 C560 1.387 . S
C559 H562 0.950 . S
C560 C559 1.387 . S
C560 C563 1.387 . S
H561 C557 0.950 . S
H562 C559 0.950 . S
C563 C554 1.390 . S
C563 H556 0.950 . S
C563 C560 1.387 . S
C564 C565 1.387 . S
C564 H568 0.950 . S
C564 C573 1.390 . S
C565 C564 1.387 . S
C565 C567 1.387 . S
H566 C573 0.950 . S
C567 C565 1.387 . S
C567 C569 1.390 . S
C567 H571 0.950 . S
H568 C564 0.950 . S
C569 C567 1.390 . S
C569 C570 1.387 . S
C569 H572 0.950 . S
C570 C569 1.387 . S
C570 C573 1.387 . S
H571 C567 0.950 . S
H572 C569 0.950 . S
C573 C564 1.390 . S
C573 H566 0.950 . S
C573 C570 1.387 . S
C574 C575 1.387 . S
C574 H578 0.950 . S
C574 C583 1.390 . S
C575 C574 1.387 . S
C575 C577 1.387 . S
H576 C583 0.950 . S
C577 C575 1.387 . S
C577 C579 1.390 . S
C577 H581 0.950 . S
H578 C574 0.950 . S
C579 C577 1.390 . S
C579 C580 1.387 . S
C579 H582 0.950 . S
C580 C579 1.387 . S
C580 C583 1.387 . S
H581 C577 0.950 . S
H582 C579 0.950 . S
C583 C574 1.390 . S
C583 H576 0.950 . S
C583 C580 1.387 . S
C584 C585 1.387 . S
C584 H588 0.950 . S
C584 C593 1.390 . S
C585 C584 1.387 . S
C585 C587 1.387 . S
H586 C593 0.950 . S
C587 C585 1.387 . S
C587 C589 1.390 . S
C587 H591 0.950 . S
H588 C584 0.950 . S
C589 C587 1.390 . S
C589 C590 1.387 . S
C589 H592 0.950 . S
C590 C589 1.387 . S
C590 C593 1.387 . S
H591 C587 0.950 . S
H592 C589 0.950 . S
C593 C584 1.390 . S
C593 H586 0.950 . S
C593 C590 1.387 . S
C594 C595 1.387 . S
C594 H598 0.950 . S
C594 C603 1.390 . S
C595 C594 1.387 . S
C595 C597 1.387 . S
H596 C603 0.950 . S
C597 C595 1.387 . S
C597 C599 1.390 . S
C597 H601 0.950 . S
H598 C594 0.950 . S
C599 C597 1.390 . S
C599 C600 1.387 . S
C599 H602 0.950 . S
C600 C599 1.387 . S
C600 C603 1.387 . S
H601 C597 0.950 . S
H602 C599 0.950 . S
C603 C594 1.390 . S
C603 H596 0.950 . S
C603 C600 1.387 . S
C604 C605 1.387 . S
C604 H608 0.950 . S
C604 C613 1.390 . S
C605 C604 1.387 . S
C605 C607 1.387 . S
H606 C613 0.950 . S
C607 C605 1.387 . S
C607 C609 1.390 . S
C607 H611 0.950 . S
H608 C604 0.950 . S
C609 C607 1.390 . S
C609 C610 1.387 . S
C609 H612 0.950 . S
C610 C609 1.387 . S
C610 C613 1.387 . S
H611 C607 0.950 . S
H612 C609 0.950 . S
C613 C604 1.390 . S
C613 H606 0.950 . S
C613 C610 1.387 . S
C614 C615 1.387 . S
C614 H618 0.950 . S
C614 C623 1.390 . S
C615 C614 1.387 . S
C615 C617 1.387 . S
H616 C623 0.950 . S
C617 C615 1.387 . S
C617 C619 1.390 . S
C617 H621 0.950 . S
H618 C614 0.950 . S
C619 C617 1.390 . S
C619 C620 1.387 . S
C619 H622 0.950 . S
C620 C619 1.387 . S
C620 C623 1.387 . S
H621 C617 0.950 . S
H622 C619 0.950 . S
C623 C614 1.390 . S
C623 H616 0.950 . S
C623 C620 1.387 . S
C265 C8 1.258 . S
C270 C184 1.259 . S
C275 C216 1.258 . S
C280 C30 1.258 . S
C285 C62 1.258 . S
C290 C228 1.259 . S
C295 C260 1.259 . S
C300 C76 1.258 . S
C305 C98 1.258 . S
C310 C150 1.258 . S
C315 C172 1.259 . S
C320 C120 1.258 . S
C325 C249 1.349 . S
C330 C81 1.349 . S
C335 C103 1.349 . S
C340 C139 1.349 . S
C345 C161 1.350 . S
C350 C125 1.350 . S
C355 C197 1.349 . S
C360 C21 1.349 . S
C365 C205 1.350 . S
C370 C43 1.350 . S
C375 C51 1.349 . S
C380 C241 1.350 . S
C385 C162 1.345 . S
C390 C10 1.345 . S
C395 C186 1.344 . S
C400 C32 1.345 . S
C405 C206 1.345 . S
C410 C52 1.345 . S
C415 C84 1.344 . S
C420 C230 1.344 . S
C425 C106 1.346 . S
C430 C250 1.344 . S
C435 C140 1.344 . S
C440 C128 1.345 . S
C445 C235 1.413 . S
C450 C73 1.413 . S
C455 C95 1.415 . S
C460 C263 1.413 . S
C465 C153 1.415 . S
C470 C117 1.414 . S
C475 C175 1.413 . S
C480 C15 1.413 . S
C485 C37 1.415 . S
C490 C191 1.414 . S
C495 C65 1.413 . S
C500 C219 1.414 . S
C505 C18 1.512 . S
C510 C238 1.512 . S
C515 C40 1.512 . S
C520 C252 1.513 . S
C525 C142 1.513 . S
C530 C54 1.512 . S
C535 C164 1.512 . S
C540 C74 1.512 . S
C545 C96 1.513 . S
C550 C194 1.512 . S
C555 C208 1.513 . S
C560 C118 1.512 . S
C565 C87 1.608 . S
C570 C169 1.608 . S
C575 C109 1.608 . S
C580 C183 1.608 . S
C585 C213 1.608 . S
C590 C131 1.608 . S
C595 C227 1.607 . S
C600 C7 1.607 . S
C605 C257 1.608 . S
C610 C29 1.608 . S
C615 C147 1.607 . S
C620 C59 1.607 . S
