# Generated by pormake.
# Topology yfb, (5)-cn, num edge types: 1
# Building blocks:
#     Node 0, Type 0, BuildingBlock: XOMCOT_clean_sbu_0, # of connection points: 5
#     Node 1, Type 0, BuildingBlock: XOMCOT_clean_sbu_0, # of connection points: 5
#     Node 2, Type 0, BuildingBlock: XOMCOT_clean_sbu_0, # of connection points: 5
#     Node 3, Type 0, BuildingBlock: XOMCOT_clean_sbu_0, # of connection points: 5
#     Node 4, Type 0, BuildingBlock: XOMCOT_clean_sbu_0, # of connection points: 5
#     Node 5, Type 0, BuildingBlock: XOMCOT_clean_sbu_0, # of connection points: 5
#     Node 6, Type 0, BuildingBlock: XOMCOT_clean_sbu_0, # of connection points: 5
#     Node 7, Type 0, BuildingBlock: XOMCOT_clean_sbu_0, # of connection points: 5
#     Node 8, Type 0, BuildingBlock: XOMCOT_clean_sbu_0, # of connection points: 5
#     Node 9, Type 0, BuildingBlock: XOMCOT_clean_sbu_0, # of connection points: 5
#     Node 10, Type 0, BuildingBlock: XOMCOT_clean_sbu_0, # of connection points: 5
#     Node 11, Type 0, BuildingBlock: XOMCOT_clean_sbu_0, # of connection points: 5
#     Node 12, Type 0, BuildingBlock: XOMCOT_clean_sbu_0, # of connection points: 5
#     Node 13, Type 0, BuildingBlock: XOMCOT_clean_sbu_0, # of connection points: 5
#     Node 14, Type 0, BuildingBlock: XOMCOT_clean_sbu_0, # of connection points: 5
#     Node 15, Type 0, BuildingBlock: XOMCOT_clean_sbu_0, # of connection points: 5
#     Edge 16, Type (0, 0), BuildingBlock: MIFKUJ_clean_linker_0, # of connection points: 2
#     Edge 17, Type (0, 0), BuildingBlock: MIFKUJ_clean_linker_0, # of connection points: 2
#     Edge 18, Type (0, 0), BuildingBlock: MIFKUJ_clean_linker_0, # of connection points: 2
#     Edge 19, Type (0, 0), BuildingBlock: MIFKUJ_clean_linker_0, # of connection points: 2
#     Edge 20, Type (0, 0), BuildingBlock: MIFKUJ_clean_linker_0, # of connection points: 2
#     Edge 21, Type (0, 0), BuildingBlock: MIFKUJ_clean_linker_0, # of connection points: 2
#     Edge 22, Type (0, 0), BuildingBlock: MIFKUJ_clean_linker_0, # of connection points: 2
#     Edge 23, Type (0, 0), BuildingBlock: MIFKUJ_clean_linker_0, # of connection points: 2
#     Edge 24, Type (0, 0), BuildingBlock: MIFKUJ_clean_linker_0, # of connection points: 2
#     Edge 25, Type (0, 0), BuildingBlock: MIFKUJ_clean_linker_0, # of connection points: 2
#     Edge 26, Type (0, 0), BuildingBlock: MIFKUJ_clean_linker_0, # of connection points: 2
#     Edge 27, Type (0, 0), BuildingBlock: MIFKUJ_clean_linker_0, # of connection points: 2
#     Edge 28, Type (0, 0), BuildingBlock: MIFKUJ_clean_linker_0, # of connection points: 2
#     Edge 29, Type (0, 0), BuildingBlock: MIFKUJ_clean_linker_0, # of connection points: 2
#     Edge 30, Type (0, 0), BuildingBlock: MIFKUJ_clean_linker_0, # of connection points: 2
#     Edge 31, Type (0, 0), BuildingBlock: MIFKUJ_clean_linker_0, # of connection points: 2
#     Edge 32, Type (0, 0), BuildingBlock: MIFKUJ_clean_linker_0, # of connection points: 2
#     Edge 33, Type (0, 0), BuildingBlock: MIFKUJ_clean_linker_0, # of connection points: 2
#     Edge 34, Type (0, 0), BuildingBlock: MIFKUJ_clean_linker_0, # of connection points: 2
#     Edge 35, Type (0, 0), BuildingBlock: MIFKUJ_clean_linker_0, # of connection points: 2
#     Edge 36, Type (0, 0), BuildingBlock: MIFKUJ_clean_linker_0, # of connection points: 2
#     Edge 37, Type (0, 0), BuildingBlock: MIFKUJ_clean_linker_0, # of connection points: 2
#     Edge 38, Type (0, 0), BuildingBlock: MIFKUJ_clean_linker_0, # of connection points: 2
#     Edge 39, Type (0, 0), BuildingBlock: MIFKUJ_clean_linker_0, # of connection points: 2
#     Edge 40, Type (0, 0), BuildingBlock: MIFKUJ_clean_linker_0, # of connection points: 2
#     Edge 41, Type (0, 0), BuildingBlock: MIFKUJ_clean_linker_0, # of connection points: 2
#     Edge 42, Type (0, 0), BuildingBlock: MIFKUJ_clean_linker_0, # of connection points: 2
#     Edge 43, Type (0, 0), BuildingBlock: MIFKUJ_clean_linker_0, # of connection points: 2
#     Edge 44, Type (0, 0), BuildingBlock: MIFKUJ_clean_linker_0, # of connection points: 2
#     Edge 45, Type (0, 0), BuildingBlock: MIFKUJ_clean_linker_0, # of connection points: 2
#     Edge 46, Type (0, 0), BuildingBlock: MIFKUJ_clean_linker_0, # of connection points: 2
#     Edge 47, Type (0, 0), BuildingBlock: MIFKUJ_clean_linker_0, # of connection points: 2
#     Edge 48, Type (0, 0), BuildingBlock: MIFKUJ_clean_linker_0, # of connection points: 2
#     Edge 49, Type (0, 0), BuildingBlock: MIFKUJ_clean_linker_0, # of connection points: 2
#     Edge 50, Type (0, 0), BuildingBlock: MIFKUJ_clean_linker_0, # of connection points: 2
#     Edge 51, Type (0, 0), BuildingBlock: MIFKUJ_clean_linker_0, # of connection points: 2
#     Edge 52, Type (0, 0), BuildingBlock: MIFKUJ_clean_linker_0, # of connection points: 2
#     Edge 53, Type (0, 0), BuildingBlock: MIFKUJ_clean_linker_0, # of connection points: 2
#     Edge 54, Type (0, 0), BuildingBlock: MIFKUJ_clean_linker_0, # of connection points: 2
#     Edge 55, Type (0, 0), BuildingBlock: MIFKUJ_clean_linker_0, # of connection points: 2
# Relax obj value: 0.747
# Max RMSD: 0.295
# Mean RMSD: 0.295
data_MOF--net-yfb--node1-XOMCOT_clean_sbu_0--edge1-MIFKUJ_clean_linker_0
_symmetry_space_group_name_H-M    P1
_symmetry_Int_Tables_number       1
_symmetry_cell_setting            triclinic
loop_
_symmetry_equiv_pos_as_xyz
'x, y, z'
_cell_length_a     53.237191
_cell_length_b     53.239289
_cell_length_c     55.612624
_cell_angle_alpha  89.993196
_cell_angle_beta   89.999764
_cell_angle_gamma 89.992192
loop_
_atom_site_label
_atom_site_type_symbol
_atom_site_fract_x
_atom_site_fract_y
_atom_site_fract_z
_atom_type_partial_charge
Co0 Co 0.65829 0.06472 0.09669 0.0
C1 C 0.61942 0.02896 0.08052 0.0
C2 C 0.61931 0.03268 0.11875 0.0
C3 C 0.59766 0.02037 0.11183 0.0
N4 N 0.63329 0.03791 0.0991 0.0
N5 N 0.59771 0.01823 0.08769 0.0
H6 H 0.62313 0.03327 0.0619 0.0
H7 H 0.62305 0.03971 0.13662 0.0
C8 C 0.67484 0.03988 0.14214 0.0
O9 O 0.6722 0.01821 0.13111 0.0
N10 N 0.68194 0.09208 0.09385 0.0
C11 C 0.69418 0.09857 0.07356 0.0
C12 C 0.70655 0.12085 0.07745 0.0
C13 C 0.68708 0.1104 0.10991 0.0
N14 N 0.70215 0.12813 0.10026 0.0
C15 C 0.68106 0.02905 0.06459 0.0
C16 C 0.72895 0.03378 0.08325 0.0
C17 C 0.72584 0.02245 0.0607 0.0
C18 C 0.70138 0.01893 0.05206 0.0
C19 C 0.70809 0.0435 0.0953 0.0
N20 N 0.68453 0.0419 0.08555 0.0
H21 H 0.66301 0.02852 0.05607 0.0
H22 H 0.71137 0.05461 0.11125 0.0
H23 H 0.69335 0.08826 0.05682 0.0
H24 H 0.67892 0.11147 0.12771 0.0
O25 O 0.64466 0.07409 0.06598 0.0
O26 O 0.6314 0.08885 0.10107 0.0
O27 O 0.66891 0.06021 0.13131 0.0
C28 C 0.62934 0.08863 0.0777 0.0
H29 H 0.58222 0.01526 0.1235 0.0
H30 H 0.71735 0.13135 0.06436 0.0
H31 H 0.74751 0.03733 0.09046 0.0
H32 H 0.6981 0.01017 0.03476 0.0
Co33 Co 0.41633 0.6541 0.10396 0.0
C34 C 0.4537 0.6195 0.08338 0.0
C35 C 0.45263 0.61604 0.12162 0.0
C36 C 0.4665 0.5963 0.11236 0.0
N37 N 0.44485 0.63095 0.10341 0.0
N38 N 0.46675 0.59841 0.08824 0.0
H39 H 0.44839 0.62461 0.06535 0.0
H40 H 0.44653 0.61777 0.14008 0.0
C41 C 0.44444 0.67008 0.14802 0.0
O42 O 0.46525 0.66786 0.13548 0.0
N43 N 0.38753 0.67615 0.10364 0.0
C44 C 0.37984 0.68918 0.08421 0.0
C45 C 0.35718 0.70024 0.08928 0.0
C46 C 0.36947 0.67949 0.12043 0.0
N47 N 0.35073 0.69416 0.11196 0.0
C48 C 0.44533 0.68045 0.06847 0.0
C49 C 0.44659 0.7259 0.09232 0.0
C50 C 0.45455 0.72501 0.06828 0.0
C51 C 0.45451 0.70165 0.05664 0.0
C52 C 0.43694 0.70439 0.10327 0.0
N53 N 0.43645 0.68185 0.09145 0.0
H54 H 0.44318 0.6636 0.05811 0.0
H55 H 0.42807 0.70654 0.12057 0.0
H56 H 0.38963 0.68982 0.06718 0.0
H57 H 0.36943 0.67047 0.13787 0.0
O58 O 0.40509 0.64015 0.07393 0.0
O59 O 0.39447 0.62554 0.10985 0.0
O60 O 0.42337 0.66432 0.13842 0.0
C61 C 0.39305 0.62351 0.08652 0.0
H62 H 0.47352 0.58032 0.12235 0.0
H63 H 0.34592 0.71142 0.07709 0.0
H64 H 0.44627 0.7434 0.10222 0.0
H65 H 0.45952 0.69994 0.03785 0.0
Co66 Co 0.84833 0.42556 0.09973 0.0
C67 C 0.89144 0.45518 0.08236 0.0
C68 C 0.88864 0.45812 0.12056 0.0
C69 C 0.91073 0.4695 0.11324 0.0
N70 N 0.8761 0.44964 0.10103 0.0
N71 N 0.91245 0.4673 0.08919 0.0
H72 H 0.88826 0.4491 0.06408 0.0
H73 H 0.88334 0.45464 0.139 0.0
C74 C 0.8325 0.45406 0.14347 0.0
O75 O 0.83628 0.47498 0.13145 0.0
N76 N 0.8218 0.40083 0.09778 0.0
C77 C 0.80751 0.39662 0.07821 0.0
C78 C 0.79224 0.3764 0.08259 0.0
C79 C 0.81541 0.38277 0.11371 0.0
N80 N 0.79716 0.36763 0.10488 0.0
C81 C 0.83099 0.46359 0.06678 0.0
C82 C 0.78185 0.46285 0.08263 0.0
C83 C 0.78725 0.47404 0.06034 0.0
C84 C 0.81251 0.47585 0.0534 0.0
C85 C 0.80101 0.45149 0.09583 0.0
N86 N 0.82505 0.45073 0.08722 0.0
H87 H 0.84953 0.46274 0.05932 0.0
H88 H 0.79588 0.44089 0.11166 0.0
H89 H 0.80862 0.40719 0.06163 0.0
H90 H 0.82426 0.38051 0.13109 0.0
O91 O 0.86066 0.41301 0.06967 0.0
O92 O 0.87241 0.399 0.10565 0.0
O93 O 0.83799 0.43293 0.13391 0.0
C94 C 0.87417 0.39755 0.08231 0.0
H95 H 0.92523 0.47707 0.12481 0.0
H96 H 0.77932 0.36809 0.06985 0.0
H97 H 0.76274 0.46055 0.08887 0.0
H98 H 0.81785 0.48487 0.03672 0.0
Co99 Co 0.06254 0.85807 0.10342 0.0
C100 C 0.02174 0.8924 0.08898 0.0
C101 C 0.02661 0.89206 0.1271 0.0
C102 C 0.01175 0.91237 0.12101 0.0
N103 N 0.03287 0.87931 0.10696 0.0
N104 N 0.0087 0.91239 0.09699 0.0
H105 H 0.02618 0.89011 0.07019 0.0
H106 H 0.03465 0.88868 0.14466 0.0
C107 C 0.0378 0.83479 0.14587 0.0
O108 O 0.01675 0.83584 0.13357 0.0
N109 N 0.09256 0.83802 0.09938 0.0
C110 C 0.10073 0.82903 0.07813 0.0
C111 C 0.12144 0.81428 0.08208 0.0
C112 C 0.10862 0.82889 0.11605 0.0
N113 N 0.12634 0.8141 0.10587 0.0
C114 C 0.0316 0.83366 0.06771 0.0
C115 C 0.04129 0.78559 0.0839 0.0
C116 C 0.0306 0.7887 0.06104 0.0
C117 C 0.02451 0.81313 0.05363 0.0
C118 C 0.04761 0.80657 0.09759 0.0
N119 N 0.04352 0.83039 0.08921 0.0
H120 H 0.02955 0.85196 0.05999 0.0
H121 H 0.05832 0.80348 0.11381 0.0
H122 H 0.09181 0.83248 0.06097 0.0
H123 H 0.10694 0.83229 0.13517 0.0
O124 O 0.07099 0.87588 0.07446 0.0
O125 O 0.08325 0.88686 0.11116 0.0
O126 O 0.05796 0.84386 0.13689 0.0
C127 C 0.08337 0.89135 0.08812 0.0
H128 H 0.00559 0.92716 0.13299 0.0
H129 H 0.13209 0.80436 0.06848 0.0
H130 H 0.04701 0.76728 0.09035 0.0
H131 H 0.01602 0.81657 0.03624 0.0
Co132 Co 0.65484 0.43163 0.39469 0.0
C133 C 0.61774 0.46846 0.41255 0.0
C134 C 0.614 0.46244 0.37473 0.0
C135 C 0.59336 0.4757 0.38266 0.0
N136 N 0.6296 0.45812 0.39343 0.0
N137 N 0.59574 0.47933 0.40652 0.0
H138 H 0.62307 0.46522 0.43099 0.0
H139 H 0.6161 0.45437 0.35701 0.0
C140 C 0.66799 0.45751 0.34874 0.0
O141 O 0.66458 0.47896 0.35997 0.0
N142 N 0.679 0.40452 0.39626 0.0
C143 C 0.69678 0.40127 0.41325 0.0
C144 C 0.70901 0.37899 0.40901 0.0
C145 C 0.68012 0.38379 0.38231 0.0
N146 N 0.69846 0.36801 0.38966 0.0
C147 C 0.67945 0.46444 0.42802 0.0
C148 C 0.72508 0.46511 0.40448 0.0
C149 C 0.72426 0.47203 0.4288 0.0
C150 C 0.70073 0.47314 0.44005 0.0
C151 C 0.70351 0.45591 0.39331 0.0
N152 N 0.68109 0.45479 0.40532 0.0
H153 H 0.66252 0.46254 0.4383 0.0
H154 H 0.70587 0.44687 0.37612 0.0
H155 H 0.70019 0.41384 0.42816 0.0
H156 H 0.6675 0.3801 0.36746 0.0
O157 O 0.64248 0.42159 0.42568 0.0
O158 O 0.62802 0.40731 0.39086 0.0
O159 O 0.66388 0.43683 0.35976 0.0
C160 C 0.62681 0.40718 0.41428 0.0
H161 H 0.57704 0.4806 0.37204 0.0
H162 H 0.72374 0.37086 0.41996 0.0
H163 H 0.74275 0.46426 0.39485 0.0
H164 H 0.69899 0.47791 0.4589 0.0
Co165 Co 0.071 0.65779 0.39366 0.0
C166 C 0.03785 0.62052 0.41675 0.0
C167 C 0.03885 0.61519 0.3787 0.0
C168 C 0.02713 0.59472 0.38905 0.0
N169 N 0.04528 0.63172 0.39605 0.0
N170 N 0.02689 0.59798 0.41307 0.0
H171 H 0.04254 0.62737 0.43442 0.0
H172 H 0.0445 0.61652 0.36008 0.0
C173 C 0.04294 0.66709 0.3477 0.0
O174 O 0.0218 0.66455 0.35968 0.0
N175 N 0.09729 0.68285 0.39193 0.0
C176 C 0.10021 0.70266 0.40682 0.0
C177 C 0.12212 0.71485 0.40105 0.0
C178 C 0.11793 0.68275 0.37781 0.0
N179 N 0.13318 0.70228 0.38293 0.0
C180 C 0.03866 0.68382 0.42645 0.0
C181 C 0.03416 0.72719 0.39955 0.0
C182 C 0.02759 0.72791 0.42397 0.0
C183 C 0.02874 0.70541 0.43706 0.0
C184 C 0.0447 0.70543 0.38984 0.0
N185 N 0.04745 0.68413 0.40341 0.0
H186 H 0.04185 0.66787 0.43784 0.0
H187 H 0.05317 0.70692 0.3723 0.0
H188 H 0.08778 0.70748 0.42148 0.0
H189 H 0.12206 0.66837 0.36463 0.0
O190 O 0.08343 0.64843 0.42487 0.0
O191 O 0.09588 0.63151 0.39041 0.0
O192 O 0.06389 0.66366 0.35842 0.0
C193 C 0.09758 0.63226 0.41376 0.0
H194 H 0.02152 0.57772 0.37982 0.0
H195 H 0.13005 0.73093 0.41025 0.0
H196 H 0.03341 0.74394 0.38854 0.0
H197 H 0.02454 0.70489 0.4561 0.0
Co198 Co 0.83794 0.06613 0.40303 0.0
C199 C 0.87828 0.03273 0.42082 0.0
C200 C 0.88096 0.03801 0.38281 0.0
C201 C 0.90225 0.02565 0.39063 0.0
N202 N 0.8656 0.04211 0.40172 0.0
N203 N 0.90052 0.02244 0.41461 0.0
H204 H 0.873 0.03596 0.43927 0.0
H205 H 0.878 0.04528 0.36489 0.0
C206 C 0.8266 0.03955 0.35667 0.0
O207 O 0.83097 0.01806 0.36754 0.0
N208 N 0.81108 0.09049 0.40485 0.0
C209 C 0.7945 0.09263 0.42307 0.0
C210 C 0.77808 0.11176 0.4179 0.0
C211 C 0.80497 0.10878 0.38908 0.0
N212 N 0.78468 0.12189 0.39662 0.0
C213 C 0.81698 0.03176 0.43703 0.0
C214 C 0.77156 0.02559 0.41387 0.0
C215 C 0.77331 0.01899 0.43826 0.0
C216 C 0.79689 0.02101 0.44937 0.0
C217 C 0.79191 0.03703 0.40242 0.0
N218 N 0.81422 0.04063 0.41416 0.0
H219 H 0.83364 0.03574 0.44718 0.0
H220 H 0.78849 0.04545 0.3851 0.0
H221 H 0.79443 0.08118 0.43912 0.0
H222 H 0.8151 0.11244 0.37257 0.0
O223 O 0.84976 0.07771 0.43377 0.0
O224 O 0.86209 0.09295 0.39859 0.0
O225 O 0.8292 0.06017 0.36816 0.0
C226 C 0.86369 0.09349 0.42196 0.0
H227 H 0.91834 0.02076 0.37969 0.0
H228 H 0.76293 0.11831 0.42927 0.0
H229 H 0.75397 0.02408 0.40422 0.0
H230 H 0.79942 0.0169 0.46827 0.0
Co231 Co 0.43588 0.84333 0.40558 0.0
C232 C 0.46995 0.88416 0.42034 0.0
C233 C 0.46624 0.88329 0.38213 0.0
C234 C 0.47869 0.90508 0.38858 0.0
N235 N 0.46107 0.86982 0.40212 0.0
N236 N 0.48096 0.9055 0.41271 0.0
H237 H 0.46582 0.88077 0.43907 0.0
H238 H 0.45952 0.87888 0.36429 0.0
C239 C 0.45942 0.82681 0.35931 0.0
O240 O 0.48152 0.82974 0.36946 0.0
N241 N 0.41018 0.81805 0.40956 0.0
C242 C 0.40627 0.80425 0.42952 0.0
C243 C 0.38598 0.78881 0.4257 0.0
C244 C 0.39202 0.81118 0.39397 0.0
N245 N 0.37712 0.79311 0.40336 0.0
C246 C 0.4752 0.82344 0.43575 0.0
C247 C 0.47057 0.7747 0.41937 0.0
C248 C 0.48334 0.77907 0.44106 0.0
C249 C 0.48707 0.80404 0.44821 0.0
C250 C 0.45961 0.79474 0.40705 0.0
N251 N 0.46081 0.81866 0.41596 0.0
H252 H 0.47579 0.84178 0.4436 0.0
H253 H 0.44769 0.79047 0.39187 0.0
H254 H 0.41734 0.80549 0.44579 0.0
H255 H 0.38973 0.81926 0.37625 0.0
O256 O 0.4268 0.85653 0.43654 0.0
O257 O 0.40998 0.86859 0.40189 0.0
O258 O 0.43952 0.83278 0.37083 0.0
C259 C 0.41084 0.87076 0.42523 0.0
H260 H 0.48421 0.92009 0.37657 0.0
H261 H 0.37787 0.77595 0.43862 0.0
H262 H 0.46674 0.75582 0.41314 0.0
H263 H 0.49721 0.80847 0.46455 0.0
Co264 Co 0.33984 0.9381 0.90248 0.0
C265 C 0.37788 0.97326 0.92145 0.0
C266 C 0.38067 0.96975 0.88327 0.0
C267 C 0.4017 0.98214 0.8916 0.0
N268 N 0.36543 0.96436 0.90197 0.0
N269 N 0.39998 0.98414 0.9157 0.0
H270 H 0.37277 0.96894 0.93976 0.0
H271 H 0.37811 0.96291 0.86513 0.0
C272 C 0.32666 0.96408 0.85634 0.0
O273 O 0.32929 0.98568 0.8675 0.0
N274 N 0.31525 0.91143 0.90355 0.0
C275 C 0.29836 0.9077 0.92127 0.0
C276 C 0.28413 0.88701 0.91573 0.0
C277 C 0.31163 0.89251 0.88778 0.0
N278 N 0.29252 0.8775 0.89478 0.0
C279 C 0.31529 0.97149 0.93551 0.0
C280 C 0.26944 0.97074 0.91226 0.0
C281 C 0.27037 0.97838 0.93634 0.0
C282 C 0.29391 0.98018 0.94748 0.0
C283 C 0.29115 0.96191 0.90108 0.0
N284 N 0.31365 0.96138 0.913 0.0
H285 H 0.33242 0.97019 0.94562 0.0
H286 H 0.2889 0.95257 0.88401 0.0
H287 H 0.2966 0.91918 0.93722 0.0
H288 H 0.32271 0.88974 0.87167 0.0
O289 O 0.35178 0.92724 0.93345 0.0
O290 O 0.36625 0.91353 0.8984 0.0
O291 O 0.33131 0.94361 0.86748 0.0
C292 C 0.36727 0.91279 0.92179 0.0
H293 H 0.41783 0.98748 0.88092 0.0
H294 H 0.26926 0.87902 0.9266 0.0
H295 H 0.25166 0.96916 0.9029 0.0
H296 H 0.29552 0.98561 0.96618 0.0
Co297 Co 0.57397 0.34801 0.8987 0.0
C298 C 0.54246 0.38843 0.91895 0.0
C299 C 0.53864 0.38758 0.88075 0.0
C300 C 0.52665 0.40882 0.88945 0.0
N301 N 0.54816 0.37434 0.89939 0.0
N302 N 0.52943 0.40934 0.91351 0.0
H303 H 0.54929 0.38464 0.93686 0.0
H304 H 0.54191 0.38346 0.86199 0.0
C305 C 0.54499 0.33252 0.855 0.0
O306 O 0.52421 0.33493 0.86755 0.0
N307 N 0.60042 0.32304 0.89858 0.0
C308 C 0.60525 0.30623 0.91613 0.0
C309 C 0.62658 0.29306 0.91021 0.0
C310 C 0.61937 0.32049 0.88261 0.0
N311 N 0.63542 0.30208 0.88923 0.0
C312 C 0.53865 0.3271 0.93233 0.0
C313 C 0.54087 0.27875 0.91444 0.0
C314 C 0.53102 0.28269 0.93755 0.0
C315 C 0.52822 0.30748 0.94554 0.0
C316 C 0.55043 0.29908 0.90142 0.0
N317 N 0.55063 0.32274 0.91105 0.0
H318 H 0.53909 0.34525 0.94059 0.0
H319 H 0.56036 0.29518 0.88489 0.0
H320 H 0.59437 0.30415 0.93244 0.0
H321 H 0.62171 0.33223 0.86687 0.0
O322 O 0.58673 0.36011 0.92881 0.0
O323 O 0.59888 0.37382 0.89289 0.0
O324 O 0.56607 0.33859 0.86434 0.0
C325 C 0.60067 0.37525 0.91623 0.0
H326 H 0.51842 0.4237 0.87877 0.0
H327 H 0.63565 0.27881 0.92106 0.0
H328 H 0.54363 0.25998 0.90745 0.0
H329 H 0.52018 0.31154 0.96301 0.0
Co330 Co 0.16285 0.57156 0.89838 0.0
C331 C 0.12234 0.54103 0.91943 0.0
C332 C 0.11927 0.54154 0.88114 0.0
C333 C 0.09798 0.53033 0.89054 0.0
N334 N 0.13491 0.54782 0.89931 0.0
N335 N 0.09996 0.5304 0.91466 0.0
H336 H 0.12813 0.54582 0.93743 0.0
H337 H 0.12193 0.54668 0.86251 0.0
C338 C 0.1727 0.54316 0.85262 0.0
O339 O 0.16833 0.52203 0.8641 0.0
N340 N 0.18985 0.59574 0.89801 0.0
C341 C 0.20807 0.59824 0.91465 0.0
C342 C 0.22244 0.61882 0.90892 0.0
C343 C 0.19298 0.6151 0.88266 0.0
N344 N 0.21288 0.62944 0.88889 0.0
C345 C 0.18402 0.53721 0.9323 0.0
C346 C 0.22856 0.52914 0.90807 0.0
C347 C 0.2268 0.52179 0.93225 0.0
C348 C 0.20369 0.52502 0.94396 0.0
C349 C 0.20856 0.54182 0.89723 0.0
N350 N 0.18666 0.54615 0.90946 0.0
H351 H 0.16778 0.5418 0.94282 0.0
H352 H 0.21187 0.55029 0.8799 0.0
H353 H 0.21027 0.58645 0.93035 0.0
H354 H 0.18054 0.619 0.86773 0.0
O355 O 0.15255 0.58453 0.92913 0.0
O356 O 0.13883 0.59849 0.89389 0.0
O357 O 0.17015 0.56413 0.86352 0.0
C358 C 0.13814 0.59985 0.91726 0.0
H359 H 0.08146 0.52465 0.88057 0.0
H360 H 0.23784 0.62626 0.91945 0.0
H361 H 0.24591 0.52698 0.89813 0.0
H362 H 0.20137 0.52054 0.96281 0.0
Co363 Co 0.9314 0.15201 0.89859 0.0
C364 C 0.96824 0.11444 0.91473 0.0
C365 C 0.95793 0.10873 0.878 0.0
C366 C 0.96995 0.08742 0.88624 0.0
N367 N 0.95681 0.12581 0.89591 0.0
N368 N 0.97625 0.09108 0.90944 0.0
H369 H 0.96722 0.12113 0.93296 0.0
H370 H 0.94806 0.11036 0.86108 0.0
C371 C 0.95574 0.16378 0.85153 0.0
O372 O 0.97742 0.15854 0.86167 0.0
N373 N 0.9057 0.17745 0.90189 0.0
C374 C 0.90267 0.19217 0.92139 0.0
C375 C 0.88408 0.20935 0.91675 0.0
C376 C 0.88855 0.18555 0.88573 0.0
N377 N 0.87523 0.20522 0.89439 0.0
C378 C 0.96576 0.17591 0.93129 0.0
C379 C 0.96802 0.22075 0.90643 0.0
C380 C 0.97578 0.22018 0.93046 0.0
C381 C 0.97596 0.19708 0.94247 0.0
C382 C 0.95758 0.19936 0.8961 0.0
N383 N 0.95592 0.17726 0.90863 0.0
H384 H 0.96291 0.15957 0.94225 0.0
H385 H 0.94803 0.20185 0.8792 0.0
H386 H 0.91354 0.19073 0.93776 0.0
H387 H 0.88619 0.1776 0.86796 0.0
O388 O 0.92236 0.13871 0.92971 0.0
O389 O 0.90581 0.12648 0.89497 0.0
O390 O 0.93544 0.16135 0.86358 0.0
C391 C 0.90714 0.12389 0.91821 0.0
H392 H 0.97175 0.06983 0.87664 0.0
H393 H 0.87729 0.2236 0.92903 0.0
H394 H 0.96739 0.23828 0.89655 0.0
H395 H 0.98113 0.19592 0.96128 0.0
Co396 Co 0.3463 0.57135 0.60263 0.0
C397 C 0.38586 0.53955 0.58128 0.0
C398 C 0.39072 0.54337 0.61925 0.0
C399 C 0.41245 0.53343 0.6096 0.0
N400 N 0.37379 0.54709 0.6015 0.0
N401 N 0.40932 0.53119 0.58567 0.0
H402 H 0.37935 0.54338 0.5633 0.0
H403 H 0.38859 0.54995 0.63752 0.0
C404 C 0.33701 0.54269 0.648 0.0
O405 O 0.34117 0.52184 0.63598 0.0
N406 N 0.31987 0.5962 0.60329 0.0
C407 C 0.30247 0.59983 0.58605 0.0
C408 C 0.28768 0.61986 0.59245 0.0
C409 C 0.31581 0.61438 0.61975 0.0
N410 N 0.29609 0.62906 0.61358 0.0
C411 C 0.32309 0.53793 0.56896 0.0
C412 C 0.27791 0.53491 0.59316 0.0
C413 C 0.27854 0.52915 0.56857 0.0
C414 C 0.30189 0.529 0.55696 0.0
C415 C 0.29947 0.54405 0.60442 0.0
N416 N 0.32153 0.54666 0.59199 0.0
H417 H 0.3397 0.54087 0.55845 0.0
H418 H 0.29721 0.55215 0.62205 0.0
H419 H 0.30098 0.589 0.56966 0.0
H420 H 0.3273 0.61706 0.6356 0.0
O421 O 0.35648 0.58386 0.57175 0.0
O422 O 0.37099 0.59764 0.60681 0.0
O423 O 0.33943 0.5639 0.63753 0.0
C424 C 0.37151 0.59875 0.58341 0.0
H425 H 0.42979 0.52992 0.61919 0.0
H426 H 0.27265 0.62781 0.58178 0.0
H427 H 0.26031 0.53509 0.60294 0.0
H428 H 0.30338 0.52507 0.53791 0.0
Co429 Co 0.93094 0.34632 0.60583 0.0
C430 C 0.96372 0.38527 0.58506 0.0
C431 C 0.96177 0.389 0.62325 0.0
C432 C 0.97323 0.41016 0.6139 0.0
N433 N 0.95608 0.37307 0.60515 0.0
N434 N 0.97405 0.40787 0.58979 0.0
H435 H 0.95958 0.37907 0.56705 0.0
H436 H 0.95578 0.38675 0.64169 0.0
C437 C 0.95769 0.33552 0.65221 0.0
O438 O 0.97922 0.33888 0.64109 0.0
N439 N 0.90545 0.32045 0.60574 0.0
C440 C 0.90171 0.30387 0.58779 0.0
C441 C 0.88283 0.28773 0.59432 0.0
C442 C 0.88833 0.31462 0.62278 0.0
N443 N 0.87444 0.29447 0.61625 0.0
C444 C 0.96436 0.32213 0.57282 0.0
C445 C 0.96535 0.27684 0.59696 0.0
C446 C 0.97112 0.27719 0.57237 0.0
C447 C 0.97237 0.30055 0.5608 0.0
C448 C 0.95686 0.2987 0.60814 0.0
N449 N 0.95521 0.32086 0.59572 0.0
H450 H 0.96238 0.33897 0.5624 0.0
H451 H 0.9484 0.29667 0.62563 0.0
H452 H 0.91214 0.30345 0.57111 0.0
H453 H 0.88619 0.32469 0.63956 0.0
O454 O 0.91934 0.35668 0.57465 0.0
O455 O 0.9052 0.37177 0.60929 0.0
O456 O 0.9371 0.33917 0.64096 0.0
C457 C 0.90439 0.372 0.58587 0.0
H458 H 0.97828 0.4269 0.62384 0.0
H459 H 0.8754 0.27251 0.58354 0.0
H460 H 0.96455 0.25931 0.60681 0.0
H461 H 0.97649 0.30192 0.54178 0.0
Co462 Co 0.15464 0.92951 0.60349 0.0
C463 C 0.11448 0.96249 0.58495 0.0
C464 C 0.11011 0.95558 0.62256 0.0
C465 C 0.08844 0.96661 0.61406 0.0
N466 N 0.12675 0.95326 0.60438 0.0
N467 N 0.09111 0.97068 0.59027 0.0
H468 H 0.12101 0.96027 0.56672 0.0
H469 H 0.11242 0.94754 0.64027 0.0
C470 C 0.1629 0.95416 0.65121 0.0
O471 O 0.15787 0.97576 0.64084 0.0
N472 N 0.18157 0.90523 0.6019 0.0
C473 C 0.19814 0.90339 0.58367 0.0
C474 C 0.21238 0.88222 0.5869 0.0
C475 C 0.18581 0.88499 0.61598 0.0
N476 N 0.20454 0.87055 0.60707 0.0
C477 C 0.178 0.96537 0.57245 0.0
C478 C 0.2223 0.9681 0.59805 0.0
C479 C 0.22268 0.97413 0.57348 0.0
C480 C 0.19962 0.97448 0.56121 0.0
C481 C 0.20064 0.95791 0.60821 0.0
N482 N 0.17901 0.95552 0.5951 0.0
H483 H 0.16151 0.96301 0.56154 0.0
H484 H 0.20267 0.949 0.62548 0.0
H485 H 0.19916 0.91604 0.5685 0.0
H486 H 0.17458 0.88023 0.63156 0.0
O487 O 0.14503 0.91969 0.57153 0.0
O488 O 0.13025 0.90244 0.60497 0.0
O489 O 0.16134 0.93382 0.63905 0.0
C490 C 0.13039 0.90323 0.58153 0.0
H491 H 0.07144 0.96965 0.62431 0.0
H492 H 0.22697 0.87553 0.57494 0.0
H493 H 0.23928 0.96842 0.60873 0.0
H494 H 0.19854 0.97888 0.54225 0.0
Co495 Co 0.57518 0.15656 0.60457 0.0
C496 C 0.54109 0.11929 0.58244 0.0
C497 C 0.54135 0.11586 0.62073 0.0
C498 C 0.5287 0.09554 0.61118 0.0
N499 N 0.54884 0.13111 0.6027 0.0
N500 N 0.52866 0.09775 0.58704 0.0
H501 H 0.54704 0.12438 0.56457 0.0
H502 H 0.5466 0.11806 0.63938 0.0
C503 C 0.54471 0.16981 0.64824 0.0
O504 O 0.52417 0.16708 0.6354 0.0
N505 N 0.60188 0.18105 0.60618 0.0
C506 C 0.6071 0.19884 0.58966 0.0
C507 C 0.62737 0.21258 0.59745 0.0
C508 C 0.61943 0.18374 0.62351 0.0
N509 N 0.63507 0.20306 0.61865 0.0
C510 C 0.54561 0.18055 0.56826 0.0
C511 C 0.54049 0.22605 0.59154 0.0
C512 C 0.53455 0.22462 0.56699 0.0
C513 C 0.53622 0.20114 0.55571 0.0
C514 C 0.55022 0.20503 0.60337 0.0
N515 N 0.55311 0.18261 0.59164 0.0
H516 H 0.54934 0.16382 0.55816 0.0
H517 H 0.55773 0.20774 0.62119 0.0
H518 H 0.59706 0.20147 0.57295 0.0
H519 H 0.62088 0.17171 0.63914 0.0
O520 O 0.58891 0.14433 0.57481 0.0
O521 O 0.59914 0.12995 0.61094 0.0
O522 O 0.56612 0.16527 0.63882 0.0
C523 C 0.60178 0.12855 0.58768 0.0
H524 H 0.5215 0.07964 0.62116 0.0
H525 H 0.63647 0.22773 0.5878 0.0
H526 H 0.53945 0.2437 0.60117 0.0
H527 H 0.53266 0.19902 0.53665 0.0
H528 H 0.69332 0.08147 0.16524 0.0
H529 H 0.71968 0.0826 0.20124 0.0
H530 H 0.71279 0.00221 0.20826 0.0
H531 H 0.68696 0.00085 0.17198 0.0
H532 H 0.71496 0.07056 0.24726 0.0
H533 H 0.7673 0.977 0.22748 0.0
H534 H 0.77961 0.95136 0.19245 0.0
H535 H 0.77847 0.01696 0.14754 0.0
H536 H 0.76657 0.04305 0.18236 0.0
H537 H 0.80715 0.99983 0.33149 0.0
H538 H 0.78208 0.00139 0.2947 0.0
H539 H 0.7933 0.08152 0.29061 0.0
H540 H 0.81775 0.08023 0.32777 0.0
H541 H 0.79005 0.01534 0.24939 0.0
H542 H 0.7413 0.10952 0.26765 0.0
H543 H 0.73135 0.13713 0.30202 0.0
H544 H 0.72766 0.07303 0.34874 0.0
H545 H 0.73719 0.04502 0.3146 0.0
C546 C 0.69717 0.06404 0.17458 0.0
C547 C 0.68817 0.04102 0.16558 0.0
C548 C 0.71227 0.06473 0.1952 0.0
C549 C 0.71866 0.04245 0.20726 0.0
C550 C 0.70862 0.01961 0.19899 0.0
C551 C 0.69372 0.01887 0.17828 0.0
C552 C 0.73653 0.04291 0.22791 0.0
C553 C 0.73152 0.05869 0.24759 0.0
C554 C 0.75816 0.02738 0.22848 0.0
C555 C 0.76578 0.01192 0.2075 0.0
C556 C 0.7698 0.98596 0.21016 0.0
C557 C 0.77669 0.97135 0.19033 0.0
C558 C 0.77974 0.98251 0.16777 0.0
C559 C 0.77602 0.00833 0.16501 0.0
C560 C 0.76918 0.02303 0.18478 0.0
C561 C 0.80452 0.01777 0.32265 0.0
C562 C 0.81429 0.03993 0.33273 0.0
C563 C 0.79015 0.01863 0.30159 0.0
C564 C 0.78532 0.04164 0.29011 0.0
C565 C 0.79622 0.06362 0.29942 0.0
C566 C 0.81036 0.06281 0.32061 0.0
C567 C 0.76824 0.04262 0.2689 0.0
C568 C 0.77346 0.02718 0.24906 0.0
C569 C 0.747 0.0587 0.26809 0.0
C570 C 0.74017 0.07521 0.28859 0.0
C571 C 0.73818 0.10131 0.28522 0.0
C572 C 0.73266 0.11703 0.30467 0.0
C573 C 0.72896 0.10685 0.32755 0.0
C574 C 0.73059 0.0809 0.33102 0.0
C575 C 0.73605 0.06509 0.31162 0.0
H576 H 0.72476 0.11906 0.34258 0.0
H577 H 0.78504 0.97115 0.15245 0.0
H578 H 0.49733 0.80722 0.33175 0.0
H579 H 0.49349 0.78112 0.29584 0.0
H580 H 0.41288 0.78892 0.29831 0.0
H581 H 0.41654 0.81468 0.33453 0.0
H582 H 0.42479 0.7415 0.29084 0.0
H583 H 0.44883 0.81945 0.25541 0.0
H584 H 0.47435 0.85761 0.2496 0.0
H585 H 0.53866 0.81229 0.23257 0.0
H586 H 0.5136 0.77382 0.2386 0.0
H587 H 0.40458 0.68835 0.17401 0.0
H588 H 0.40602 0.71493 0.20981 0.0
H589 H 0.48686 0.70938 0.21075 0.0
H590 H 0.48559 0.68325 0.17466 0.0
H591 H 0.47315 0.7566 0.21601 0.0
H592 H 0.44811 0.67833 0.25297 0.0
H593 H 0.42142 0.64087 0.25832 0.0
H594 H 0.35738 0.688 0.2713 0.0
H595 H 0.38368 0.72574 0.266 0.0
C596 C 0.47878 0.80367 0.32453 0.0
C597 C 0.45726 0.81317 0.33606 0.0
C598 C 0.4766 0.78874 0.3039 0.0
C599 C 0.45289 0.78314 0.29416 0.0
C600 C 0.43139 0.79292 0.30544 0.0
C601 C 0.43354 0.8078 0.3261 0.0
C602 C 0.45051 0.76639 0.27276 0.0
C603 C 0.4351 0.74503 0.27435 0.0
C604 C 0.46424 0.77065 0.25132 0.0
C605 C 0.47939 0.79374 0.24769 0.0
C606 C 0.46846 0.81761 0.25062 0.0
C607 C 0.48284 0.8393 0.24725 0.0
C608 C 0.50812 0.83737 0.24078 0.0
C609 C 0.51908 0.81375 0.23761 0.0
C610 C 0.50479 0.792 0.24098 0.0
C611 C 0.42266 0.69243 0.18204 0.0
C612 C 0.44499 0.68359 0.17142 0.0
C613 C 0.42345 0.70766 0.20258 0.0
C614 C 0.44655 0.71411 0.21318 0.0
C615 C 0.4688 0.70477 0.20293 0.0
C616 C 0.46804 0.68969 0.18232 0.0
C617 C 0.44772 0.73151 0.2342 0.0
C618 C 0.46286 0.75307 0.2325 0.0
C619 C 0.43359 0.72752 0.25546 0.0
C620 C 0.41782 0.70484 0.25885 0.0
C621 C 0.42831 0.68069 0.25684 0.0
C622 C 0.41327 0.65942 0.25994 0.0
C623 C 0.38772 0.66205 0.26515 0.0
C624 C 0.37718 0.68598 0.26733 0.0
C625 C 0.39216 0.70732 0.26434 0.0
H626 H 0.3761 0.64556 0.26751 0.0
H627 H 0.51922 0.85419 0.23817 0.0
H628 H 0.68463 0.49768 0.32243 0.0
H629 H 0.71194 0.49692 0.28719 0.0
H630 H 0.70993 0.41593 0.2871 0.0
H631 H 0.68293 0.41648 0.32264 0.0
H632 H 0.757 0.43236 0.28338 0.0
H633 H 0.67906 0.45076 0.24397 0.0
H634 H 0.6396 0.4738 0.23674 0.0
H635 H 0.68129 0.54131 0.22286 0.0
H636 H 0.72101 0.51874 0.23033 0.0
H637 H 0.81512 0.41404 0.16953 0.0
H638 H 0.78719 0.41494 0.2043 0.0
H639 H 0.78889 0.49595 0.20389 0.0
H640 H 0.81651 0.49523 0.16875 0.0
H641 H 0.74194 0.47957 0.20786 0.0
H642 H 0.81987 0.46121 0.24736 0.0
H643 H 0.85933 0.43819 0.25466 0.0
H644 H 0.81767 0.37066 0.26846 0.0
H645 H 0.77795 0.3932 0.26092 0.0
C646 C 0.68965 0.47968 0.31473 0.0
C647 C 0.68156 0.45714 0.32542 0.0
C648 C 0.70527 0.47929 0.2945 0.0
C649 C 0.71296 0.45636 0.28439 0.0
C650 C 0.70431 0.43384 0.29461 0.0
C651 C 0.68873 0.43421 0.31486 0.0
C652 C 0.73102 0.45586 0.26398 0.0
C653 C 0.75352 0.44237 0.26672 0.0
C654 C 0.72686 0.4695 0.24249 0.0
C655 C 0.703 0.4831 0.23794 0.0
C656 C 0.67981 0.47056 0.23956 0.0
C657 C 0.6574 0.48353 0.23539 0.0
C658 C 0.65793 0.50902 0.2294 0.0
C659 C 0.6809 0.52157 0.22752 0.0
C660 C 0.70337 0.5087 0.2317 0.0
C661 C 0.80989 0.43208 0.17702 0.0
C662 C 0.81813 0.45459 0.16633 0.0
C663 C 0.7939 0.43255 0.19696 0.0
C664 C 0.78602 0.45551 0.20685 0.0
C665 C 0.79467 0.478 0.19656 0.0
C666 C 0.81059 0.47755 0.17654 0.0
C667 C 0.76792 0.45606 0.22725 0.0
C668 C 0.74542 0.46956 0.22452 0.0
C669 C 0.77208 0.44243 0.24876 0.0
C670 C 0.79594 0.42885 0.25335 0.0
C671 C 0.81913 0.4414 0.25177 0.0
C672 C 0.84155 0.42845 0.25598 0.0
C673 C 0.84102 0.40296 0.26196 0.0
C674 C 0.81806 0.39039 0.2638 0.0
C675 C 0.79559 0.40325 0.25958 0.0
H676 H 0.85839 0.39297 0.26522 0.0
H677 H 0.64056 0.51902 0.22617 0.0
H678 H 0.08275 0.67449 0.31724 0.0
H679 H 0.08425 0.70212 0.28206 0.0
H680 H 0.00514 0.71735 0.2898 0.0
H681 H 0.00338 0.68971 0.32485 0.0
H682 H 0.05868 0.7053 0.23746 0.0
H683 H 0.99858 0.78145 0.28481 0.0
H684 H 0.98854 0.79475 0.32622 0.0
H685 H 0.05906 0.76536 0.351 0.0
H686 H 0.06973 0.75236 0.3097 0.0
H687 H 0.0057 0.79753 0.15944 0.0
H688 H 0.00996 0.76872 0.19345 0.0
H689 H 0.07692 0.80746 0.21623 0.0
H690 H 0.07329 0.83602 0.18164 0.0
H691 H 0.03541 0.79396 0.25413 0.0
H692 H 0.09204 0.76158 0.19491 0.0
H693 H 0.10457 0.74854 0.15412 0.0
H694 H 0.04775 0.69131 0.15452 0.0
H695 H 0.03442 0.70447 0.19511 0.0
C696 C 0.06554 0.68329 0.31117 0.0
C697 C 0.04296 0.67998 0.324 0.0
C698 C 0.06645 0.69906 0.29103 0.0
C699 C 0.0449 0.71205 0.28352 0.0
C700 C 0.02206 0.70769 0.29545 0.0
C701 C 0.02107 0.69177 0.31544 0.0
C702 C 0.04658 0.73161 0.2645 0.0
C703 C 0.05363 0.72466 0.2411 0.0
C704 C 0.04067 0.75705 0.26941 0.0
C705 C 0.03482 0.76571 0.29417 0.0
C706 C 0.01202 0.778 0.29906 0.0
C707 C 0.00621 0.78546 0.32252 0.0
C708 C 0.02311 0.78083 0.34124 0.0
C709 C 0.04594 0.76888 0.33651 0.0
C710 C 0.05187 0.76145 0.31307 0.0
C711 C 0.02119 0.80017 0.17181 0.0
C712 C 0.03913 0.81913 0.16789 0.0
C713 C 0.02364 0.78361 0.19118 0.0
C714 C 0.04377 0.78596 0.20727 0.0
C715 C 0.06124 0.8054 0.20398 0.0
C716 C 0.05915 0.82165 0.18424 0.0
C717 C 0.04676 0.76746 0.227 0.0
C718 C 0.04056 0.77461 0.25053 0.0
C719 C 0.05399 0.74235 0.22231 0.0
C720 C 0.062 0.73425 0.19795 0.0
C721 C 0.08196 0.74645 0.18618 0.0
C722 C 0.08924 0.73901 0.1631 0.0
C723 C 0.07691 0.71915 0.1517 0.0
C724 C 0.05726 0.70671 0.16336 0.0
C725 C 0.04982 0.71418 0.1864 0.0
H726 H 0.08264 0.71335 0.13388 0.0
H727 H 0.01854 0.78653 0.3594 0.0
H728 H 0.30542 0.00295 0.83125 0.0
H729 H 0.27783 1.00012 0.79622 0.0
H730 H 0.28917 0.91998 0.79366 0.0
H731 H 0.31686 0.9226 0.82868 0.0
H732 H 0.28778 0.94135 0.74804 0.0
H733 H 0.23876 0.94132 0.81997 0.0
H734 H 0.22535 0.9571 0.8596 0.0
H735 H 0.20113 0.02624 0.82728 0.0
H736 H 0.2149 0.01105 0.78747 0.0
H737 H 0.18292 0.91367 0.67491 0.0
H738 H 0.20991 0.91427 0.71044 0.0
H739 H 0.20009 0.99444 0.71628 0.0
H740 H 0.17281 0.99401 0.6809 0.0
H741 H 0.20049 0.97151 0.76063 0.0
H742 H 0.25095 0.97094 0.68844 0.0
H743 H 0.26361 0.95388 0.64904 0.0
H744 H 0.28419 0.88409 0.68236 0.0
H745 H 0.27129 0.90063 0.72195 0.0
C746 C 0.30244 0.98476 0.82302 0.0
C747 C 0.31324 0.96298 0.83294 0.0
C748 C 0.28655 0.98316 0.80304 0.0
C749 C 0.28113 0.95978 0.79254 0.0
C750 C 0.29302 0.9382 0.8015 0.0
C751 C 0.30884 0.93975 0.82156 0.0
C752 C 0.26183 0.9577 0.7733 0.0
C753 C 0.26864 0.94768 0.75088 0.0
C754 C 0.23686 0.96611 0.77693 0.0
C755 C 0.2281 0.97514 0.80076 0.0
C756 C 0.23075 0.95996 0.82132 0.0
C757 C 0.22307 0.96879 0.84383 0.0
C758 C 0.21244 0.99268 0.84597 0.0
C759 C 0.2094 0.00775 0.82559 0.0
C760 C 0.21714 0.99904 0.80305 0.0
C761 C 0.18608 0.93139 0.68398 0.0
C762 C 0.17584 0.95384 0.67488 0.0
C763 C 0.20166 0.93171 0.70424 0.0
C764 C 0.20741 0.95447 0.71576 0.0
C765 C 0.19602 0.97667 0.70761 0.0
C766 C 0.18044 0.97639 0.68734 0.0
C767 C 0.22649 0.95541 0.7353 0.0
C768 C 0.21964 0.96518 0.7578 0.0
C769 C 0.25136 0.94662 0.73178 0.0
C770 C 0.25997 0.93695 0.70813 0.0
C771 C 0.2581 0.95193 0.68736 0.0
C772 C 0.2653 0.94235 0.66499 0.0
C773 C 0.27465 0.91789 0.66319 0.0
C774 C 0.27693 0.90302 0.68379 0.0
C775 C 0.2697 0.9125 0.7062 0.0
H776 H 0.28016 0.91049 0.64585 0.0
H777 H 0.20652 0.99949 0.86341 0.0
H778 H 0.50397 0.31744 0.82895 0.0
H779 H 0.5034 0.29021 0.79355 0.0
H780 H 0.58439 0.28812 0.79362 0.0
H781 H 0.58515 0.31579 0.82864 0.0
H782 H 0.56796 0.28999 0.74883 0.0
H783 H 0.54927 0.24043 0.81817 0.0
H784 H 0.52674 0.22905 0.85535 0.0
H785 H 0.45809 0.22126 0.8155 0.0
H786 H 0.48014 0.23303 0.77812 0.0
H787 H 0.58397 0.18153 0.67797 0.0
H788 H 0.58319 0.20842 0.71349 0.0
H789 H 0.50279 0.21562 0.70721 0.0
H790 H 0.50331 0.18846 0.67168 0.0
H791 H 0.5187 0.21106 0.75482 0.0
H792 H 0.53978 0.26049 0.68475 0.0
H793 H 0.56468 0.26876 0.6482 0.0
H794 H 0.63179 0.27411 0.69073 0.0
H795 H 0.60732 0.26546 0.72752 0.0
C796 C 0.52168 0.31148 0.82125 0.0
C797 C 0.54459 0.31872 0.83177 0.0
C798 C 0.52133 0.29577 0.80106 0.0
C799 C 0.54385 0.28664 0.79116 0.0
C800 C 0.56676 0.2948 0.80094 0.0
C801 C 0.56714 0.31065 0.82102 0.0
C802 C 0.54353 0.26781 0.7713 0.0
C803 C 0.55736 0.27265 0.75028 0.0
C804 C 0.52958 0.24518 0.77299 0.0
C805 C 0.5163 0.23787 0.79539 0.0
C806 C 0.52933 0.23647 0.81736 0.0
C807 C 0.51665 0.22993 0.83847 0.0
C808 C 0.49099 0.22449 0.83779 0.0
C809 C 0.47796 0.22552 0.816 0.0
C810 C 0.49054 0.23212 0.79484 0.0
C811 C 0.56602 0.18846 0.6843 0.0
C812 C 0.5437 0.18297 0.67178 0.0
C813 C 0.56564 0.20395 0.7046 0.0
C814 C 0.54299 0.21442 0.71275 0.0
C815 C 0.5205 0.20785 0.70116 0.0
C816 C 0.52085 0.19232 0.68082 0.0
C817 C 0.543 0.23334 0.73245 0.0
C818 C 0.52916 0.22848 0.7534 0.0
C819 C 0.5572 0.25579 0.73083 0.0
C820 C 0.57174 0.26217 0.70887 0.0
C821 C 0.55986 0.26338 0.6863 0.0
C822 C 0.57389 0.26812 0.66554 0.0
C823 C 0.59981 0.27192 0.66714 0.0
C824 C 0.61171 0.27115 0.68952 0.0
C825 C 0.59776 0.26637 0.71034 0.0
H826 H 0.61066 0.2755 0.65104 0.0
H827 H 0.48121 0.21943 0.85415 0.0
H828 H 0.31903 0.50134 0.67188 0.0
H829 H 0.2912 0.50098 0.7069 0.0
H830 H 0.29754 0.58152 0.71244 0.0
H831 H 0.32501 0.58214 0.67731 0.0
H832 H 0.29391 0.51697 0.75406 0.0
H833 H 0.23992 0.60559 0.7253 0.0
H834 H 0.23254 0.63015 0.68832 0.0
H835 H 0.24017 0.56334 0.64573 0.0
H836 H 0.24711 0.5383 0.68244 0.0
H837 H 0.18952 0.58335 0.82646 0.0
H838 H 0.21687 0.58257 0.79126 0.0
H839 H 0.21289 0.50167 0.78987 0.0
H840 H 0.18585 0.50222 0.82542 0.0
H841 H 0.21515 0.56619 0.74578 0.0
H842 H 0.2708 0.47823 0.77664 0.0
H843 H 0.28104 0.45606 0.81437 0.0
H844 H 0.27253 0.52477 0.85397 0.0
H845 H 0.26271 0.54742 0.81646 0.0
C846 C 0.31488 0.51894 0.68079 0.0
C847 C 0.32404 0.54179 0.67159 0.0
C848 C 0.29895 0.51869 0.70082 0.0
C849 C 0.29187 0.54127 0.71197 0.0
C850 C 0.30236 0.56392 0.70383 0.0
C851 C 0.31817 0.56421 0.68378 0.0
C852 C 0.27235 0.54132 0.73107 0.0
C853 C 0.27653 0.52743 0.75212 0.0
C854 C 0.24994 0.5555 0.72876 0.0
C855 C 0.24425 0.57011 0.70665 0.0
C856 C 0.23978 0.5961 0.70807 0.0
C857 C 0.23572 0.61012 0.68715 0.0
C858 C 0.23597 0.59834 0.66469 0.0
C859 C 0.24003 0.57246 0.66312 0.0
C860 C 0.24401 0.55834 0.68399 0.0
C861 C 0.19411 0.56536 0.81849 0.0
C862 C 0.18568 0.5428 0.82899 0.0
C863 C 0.20975 0.56497 0.79829 0.0
C864 C 0.21734 0.54206 0.78817 0.0
C865 C 0.20767 0.51958 0.79765 0.0
C866 C 0.19209 0.51992 0.81793 0.0
C867 C 0.23662 0.54167 0.76878 0.0
C868 C 0.23243 0.55558 0.74768 0.0
C869 C 0.2592 0.52776 0.77116 0.0
C870 C 0.26573 0.51443 0.79376 0.0
C871 C 0.27124 0.48862 0.79338 0.0
C872 C 0.27697 0.47597 0.81474 0.0
C873 C 0.27735 0.48898 0.83656 0.0
C874 C 0.27215 0.5147 0.83707 0.0
C875 C 0.2665 0.52744 0.81577 0.0
H876 H 0.28172 0.47914 0.85307 0.0
H877 H 0.23299 0.60926 0.64852 0.0
H878 H 0.9957 0.18138 0.82554 0.0
H879 H 0.99463 0.21035 0.79152 0.0
H880 H 0.91367 0.20729 0.79123 0.0
H881 H 0.91453 0.1788 0.82569 0.0
H882 H 0.97712 0.20953 0.74641 0.0
H883 H 0.89025 0.26461 0.77703 0.0
H884 H 0.86625 0.27255 0.81425 0.0
H885 H 0.9334 0.26363 0.85615 0.0
H886 H 0.95787 0.25604 0.81918 0.0
H887 H 0.91623 0.32001 0.67734 0.0
H888 H 0.91499 0.29105 0.71133 0.0
H889 H 0.99595 0.29068 0.71392 0.0
H890 H 0.99741 0.31928 0.67955 0.0
H891 H 0.93065 0.28961 0.75705 0.0
H892 H 0.01648 0.23155 0.72445 0.0
H893 H 0.03818 0.22166 0.6864 0.0
H894 H 0.96991 0.23453 0.64717 0.0
H895 H 0.94773 0.24413 0.68498 0.0
C896 C 0.97765 0.18657 0.81807 0.0
C897 C 0.95519 0.17794 0.82855 0.0
C898 C 0.97708 0.20317 0.79858 0.0
C899 C 0.95407 0.21145 0.78912 0.0
C900 C 0.93165 0.20164 0.79856 0.0
C901 C 0.93219 0.1852 0.81819 0.0
C902 C 0.95367 0.2312 0.77017 0.0
C903 C 0.96722 0.22716 0.74887 0.0
C904 C 0.94012 0.25394 0.77305 0.0
C905 C 0.92584 0.25958 0.79533 0.0
C906 C 0.89992 0.26454 0.79417 0.0
C907 C 0.88623 0.26893 0.81522 0.0
C908 C 0.89829 0.26855 0.83754 0.0
C909 C 0.92409 0.26389 0.83885 0.0
C910 C 0.93787 0.25956 0.81786 0.0
C911 C 0.93382 0.31412 0.68533 0.0
C912 C 0.95696 0.32178 0.67546 0.0
C913 C 0.93304 0.29754 0.70484 0.0
C914 C 0.95536 0.28825 0.7149 0.0
C915 C 0.97847 0.29719 0.70614 0.0
C916 C 0.97928 0.31369 0.68655 0.0
C917 C 0.95449 0.2681 0.73346 0.0
C918 C 0.94062 0.27202 0.75461 0.0
C919 C 0.96747 0.24509 0.73034 0.0
C920 C 0.98054 0.23883 0.70754 0.0
C921 C 0.00608 0.23216 0.70771 0.0
C922 C 0.01847 0.22662 0.68618 0.0
C923 C 0.00546 0.22756 0.66437 0.0
C924 C 0.98 0.23392 0.66405 0.0
C925 C 0.96752 0.23942 0.68553 0.0
H926 H 0.01509 0.22331 0.64772 0.0
H927 H 0.88766 0.27192 0.8538 0.0
H928 H 0.45042 0.9797 0.90908 0.0
H929 H 0.48326 0.98623 0.93914 0.0
H930 H 0.42736 0.00895 0.99086 0.0
H931 H 0.39439 0.00283 0.96067 0.0
H932 H 0.46971 0.03794 0.99414 0.0
H933 H 0.44881 0.9515 0.9914 0.0
H934 H 0.44108 0.9108 0.97204 0.0
H935 H 0.51847 0.90644 0.95078 0.0
H936 H 0.52649 0.94787 0.96916 0.0
H937 H 0.54773 0.02315 0.09709 0.0
H938 H 0.51308 0.0169 0.0688 0.0
H939 H 0.56574 0.99363 0.01426 0.0
H940 H 0.6004 0.99932 0.04265 0.0
H941 H 0.52363 0.96467 0.0137 0.0
H942 H 0.54308 0.0533 0.01631 0.0
H943 H 0.54904 0.094 0.03656 0.0
H944 H 0.47238 0.09291 0.06041 0.0
H945 H 0.46607 0.05184 0.04075 0.0
C946 C 0.44511 0.98659 0.92666 0.0
C947 C 0.4197 0.99064 0.93248 0.0
C948 C 0.46392 0.99012 0.94393 0.0
C949 C 0.45777 0.99776 0.96739 0.0
C950 C 0.43257 0.00296 0.97293 0.0
C951 C 0.41373 0.99931 0.9557 0.0
C952 C 0.47745 0.99909 0.98641 0.0
C953 C 0.48131 0.02184 0.9986 0.0
C954 C 0.49272 0.97811 0.99218 0.0
C955 C 0.48818 0.95299 0.98141 0.0
C956 C 0.46416 0.94203 0.98237 0.0
C957 C 0.45971 0.91879 0.97156 0.0
C958 C 0.47926 0.90594 0.96021 0.0
C959 C 0.50332 0.91642 0.95957 0.0
C960 C 0.50781 0.93985 0.9701 0.0
C961 C 0.55192 0.01621 0.07926 0.0
C962 C 0.57691 0.01185 0.07211 0.0
C963 C 0.53208 0.0129 0.06299 0.0
C964 C 0.53681 0.0052 0.03924 0.0
C965 C 0.5616 0.99973 0.03241 0.0
C966 C 0.58142 0.0031 0.04863 0.0
C967 C 0.51615 0.00363 0.0212 0.0
C968 C 0.51206 0.98077 0.00922 0.0
C969 C 0.50051 0.02445 0.01581 0.0
C970 C 0.50419 0.04933 0.0273 0.0
C971 C 0.52754 0.06163 0.02603 0.0
C972 C 0.53098 0.08479 0.03738 0.0
C973 C 0.51114 0.09602 0.04982 0.0
C974 C 0.48775 0.08416 0.05082 0.0
C975 C 0.48424 0.06093 0.03959 0.0
H976 H 0.51387 0.11389 0.05871 0.0
H977 H 0.47577 0.88786 0.95195 0.0
H978 H 0.48818 0.4393 0.91327 0.0
H979 H 0.47749 0.47198 0.9428 0.0
H980 H 0.5473 0.45805 0.97993 0.0
H981 H 0.55767 0.42542 0.95088 0.0
H982 H 0.51148 0.4615 0.01143 0.0
H983 H 0.53701 0.51109 0.9434 0.0
H984 H 0.53608 0.52536 0.90122 0.0
H985 H 0.45888 0.54725 0.90914 0.0
H986 H 0.45927 0.53281 0.9513 0.0
H987 H 0.50819 0.56885 0.08883 0.0
H988 H 0.52011 0.53717 0.05877 0.0
H989 H 0.45216 0.55292 0.01916 0.0
H990 H 0.44065 0.58456 0.04871 0.0
H991 H 0.48729 0.54828 0.98894 0.0
H992 H 0.46284 0.4999 0.05819 0.0
H993 H 0.46424 0.48517 0.10014 0.0
H994 H 0.54047 0.46088 0.09033 0.0
H995 H 0.53954 0.4757 0.04832 0.0
C996 C 0.50124 0.44343 0.92766 0.0
C997 C 0.5236 0.42959 0.92989 0.0
C998 C 0.49518 0.4621 0.94452 0.0
C999 C 0.51162 0.46763 0.96366 0.0
C1000 C 0.53415 0.45407 0.96556 0.0
C1001 C 0.54005 0.43533 0.94892 0.0
C1002 C 0.50539 0.48713 0.98205 0.0
C1003 C 0.50651 0.48058 0.00651 0.0
C1004 C 0.49835 0.51191 0.97574 0.0
C1005 C 0.4981 0.52063 0.95042 0.0
C1006 C 0.51978 0.51877 0.93609 0.0
C1007 C 0.51936 0.52692 0.91219 0.0
C1008 C 0.49742 0.53714 0.90248 0.0
C1009 C 0.47586 0.53929 0.91667 0.0
C1010 C 0.47617 0.53115 0.94057 0.0
C1011 C 0.49585 0.56536 0.07372 0.0
C1012 C 0.47365 0.57933 0.07102 0.0
C1013 C 0.50258 0.54721 0.05657 0.0
C1014 C 0.48686 0.54222 0.03674 0.0
C1015 C 0.46465 0.55622 0.03419 0.0
C1016 C 0.45812 0.57447 0.05109 0.0
C1017 C 0.49339 0.52271 0.01843 0.0
C1018 C 0.49229 0.52922 0.99394 0.0
C1019 C 0.50053 0.4979 0.02476 0.0
C1020 C 0.50113 0.48909 0.0501 0.0
C1021 C 0.4799 0.49151 0.06497 0.0
C1022 C 0.48062 0.48314 0.08878 0.0
C1023 C 0.50245 0.47213 0.09792 0.0
C1024 C 0.52358 0.46944 0.08324 0.0
C1025 C 0.52295 0.47781 0.05941 0.0
H1026 H 0.50298 0.46566 0.11636 0.0
H1027 H 0.49713 0.54344 0.88398 0.0
H1028 H 0.08872 0.55715 0.95451 0.0
H1029 H 0.05741 0.54709 0.98503 0.0
H1030 H 0.036 0.48105 0.94496 0.0
H1031 H 0.06719 0.49156 0.91393 0.0
H1032 H 0.99584 0.50389 0.96156 0.0
H1033 H 0.07444 0.47852 0.99668 0.0
H1034 H 0.11832 0.48461 0.00966 0.0
H1035 H 0.09512 0.54348 0.05755 0.0
H1036 H 0.05113 0.53795 0.04462 0.0
H1037 H 0.93036 0.43963 0.0523 0.0
H1038 H 0.96343 0.45149 0.02395 0.0
H1039 H 0.97545 0.5204 0.0629 0.0
H1040 H 0.94238 0.5084 0.09169 0.0
H1041 H 0.02001 0.49791 0.04756 0.0
H1042 H 0.94063 0.52058 0.01439 0.0
H1043 H 0.89706 0.51496 1.00049 0.0
H1044 H 0.92191 0.46194 0.94743 0.0
H1045 H 0.96546 0.46623 0.96179 0.0
C1046 C 0.07748 0.54038 0.95229 0.0
C1047 C 0.08066 0.52486 0.93205 0.0
C1048 C 0.05958 0.53462 0.96978 0.0
C1049 C 0.04472 0.51295 0.96768 0.0
C1050 C 0.04736 0.49778 0.9471 0.0
C1051 C 0.06512 0.50375 0.92938 0.0
C1052 C 0.02632 0.50629 0.98684 0.0
C1053 C 0.00121 0.50216 0.9803 0.0
C1054 C 0.03314 0.50488 0.01146 0.0
C1055 C 0.05953 0.50796 0.01953 0.0
C1056 C 0.07872 0.49285 0.00989 0.0
C1057 C 0.10361 0.4962 0.01724 0.0
C1058 C 0.10951 0.51446 0.03438 0.0
C1059 C 0.09052 0.52935 0.04426 0.0
C1060 C 0.06561 0.5261 0.03695 0.0
C1061 C 0.93997 0.45736 0.05479 0.0
C1062 C 0.93345 0.47339 0.0739 0.0
C1063 C 0.95884 0.46407 0.03859 0.0
C1064 C 0.97138 0.4871 0.04091 0.0
C1065 C 0.96583 0.50263 0.06066 0.0
C1066 C 0.94701 0.49579 0.07707 0.0
C1067 C 0.98964 0.49507 0.02217 0.0
C1068 C 0.01466 0.49955 0.02879 0.0
C1069 C 0.98275 0.4967 0.99758 0.0
C1070 C 0.95636 0.4935 0.98941 0.0
C1071 C 0.93678 0.50734 1.00007 0.0
C1072 C 0.91204 0.50438 0.99212 0.0
C1073 C 0.90668 0.48796 0.97321 0.0
C1074 C 0.92605 0.47449 0.96222 0.0
C1075 C 0.95075 0.47708 0.97034 0.0
H1076 H 0.88754 0.48578 0.96699 0.0
H1077 H 0.1288 0.51704 0.04003 0.0
H1078 H 0.00552 0.09724 0.94855 0.0
H1079 H 0.01099 0.06757 0.9819 0.0
H1080 H 0.96548 0.01324 0.94435 0.0
H1081 H 0.95996 0.04288 0.91107 0.0
H1082 H 0.94987 0.02086 0.99088 0.0
H1083 H 0.02708 0.0045 0.94957 0.0
H1084 H 0.0678 0.01438 0.93075 0.0
H1085 H 0.09544 0.04259 0.99805 0.0
H1086 H 0.05465 0.03337 0.0172 0.0
H1087 H 0.97997 0.90885 0.05741 0.0
H1088 H 0.97214 0.94203 0.02765 0.0
H1089 H 0.0129 0.9947 0.07176 0.0
H1090 H 0.02019 0.9616 0.10179 0.0
H1091 H 0.03081 0.9901 0.02378 0.0
H1092 H 0.95439 0.00523 0.06546 0.0
H1093 H 0.91331 0.99685 0.08422 0.0
H1094 H 0.88416 0.97159 0.01643 0.0
H1095 H 0.92522 0.97936 0.99733 0.0
C1096 C 0.99711 0.07878 0.94728 0.0
C1097 C 0.98252 0.0723 0.92713 0.0
C1098 C 1.00024 0.06185 0.9663 0.0
C1099 C 0.98868 0.03816 0.9656 0.0
C1100 C 0.9746 0.03141 0.94524 0.0
C1101 C 0.97169 0.04824 0.92611 0.0
C1102 C 0.99007 0.02099 0.98666 0.0
C1103 C 0.96755 0.01379 0.99786 0.0
C1104 C 0.01321 0.01261 0.99631 0.0
C1105 C 0.03763 0.01858 0.98475 0.0
C1106 C 0.0417 0.01313 0.9603 0.0
C1107 C 0.06482 0.01855 0.94959 0.0
C1108 C 0.08414 0.02921 0.96317 0.0
C1109 C 0.08041 0.03442 0.98753 0.0
C1110 C 0.05728 0.02912 0.99832 0.0
C1111 C 0.98657 0.92772 0.06099 0.0
C1112 C 0.00043 0.93278 0.08193 0.0
C1113 C 0.98212 0.94663 0.04404 0.0
C1114 C 0.99189 0.97085 0.04751 0.0
C1115 C 0.00508 0.97617 0.0688 0.0
C1116 C 0.00907 0.95736 0.08601 0.0
C1117 C 0.99059 0.98965 0.0278 0.0
C1118 C 0.01313 0.9972 0.01684 0.0
C1119 C 0.96748 0.99835 0.01837 0.0
C1120 C 0.94307 0.99252 0.03003 0.0
C1121 C 0.93938 0.99747 0.05463 0.0
C1122 C 0.91604 0.99293 0.06531 0.0
C1123 C 0.89617 0.98358 0.05156 0.0
C1124 C 0.8996 0.97873 0.02709 0.0
C1125 C 0.92291 0.9832 0.01633 0.0
H1126 H 0.87809 0.98019 0.05984 0.0
H1127 H 0.102 0.03338 0.95481 0.0
H1128 H 0.45881 0.54356 0.58742 0.0
H1129 H 0.49024 0.53699 0.55582 0.0
H1130 H 0.43399 0.50202 0.51117 0.0
H1131 H 0.40257 0.50851 0.54277 0.0
H1132 H 0.4763 0.47457 0.5118 0.0
H1133 H 0.45734 0.56059 0.48957 0.0
H1134 H 0.45227 0.60663 0.49141 0.0
H1135 H 0.5235 0.61339 0.52695 0.0
H1136 H 0.52948 0.56744 0.52435 0.0
H1137 H 0.54524 0.47368 0.40222 0.0
H1138 H 0.51345 0.48379 0.43253 0.0
H1139 H 0.57118 0.51273 0.47934 0.0
H1140 H 0.60305 0.50284 0.44895 0.0
H1141 H 0.52841 0.54304 0.47757 0.0
H1142 H 0.54911 0.45591 0.48842 0.0
H1143 H 0.55501 0.4126 0.47405 0.0
H1144 H 0.47686 0.40817 0.45545 0.0
H1145 H 0.47062 0.45183 0.4691 0.0
C1146 C 0.45323 0.53426 0.57097 0.0
C1147 C 0.42825 0.52634 0.56765 0.0
C1148 C 0.47111 0.53084 0.55277 0.0
C1149 C 0.46445 0.51923 0.53098 0.0
C1150 C 0.43958 0.5111 0.52776 0.0
C1151 C 0.42165 0.5148 0.54581 0.0
C1152 C 0.48366 0.51439 0.51208 0.0
C1153 C 0.48749 0.48961 0.50415 0.0
C1154 C 0.49861 0.53382 0.50228 0.0
C1155 C 0.49365 0.56065 0.50712 0.0
C1156 C 0.47167 0.57188 0.4982 0.0
C1157 C 0.46874 0.59795 0.49917 0.0
C1158 C 0.48747 0.61289 0.5094 0.0
C1159 C 0.50904 0.60178 0.51898 0.0
C1160 C 0.51228 0.57575 0.51766 0.0
C1161 C 0.55112 0.48261 0.41877 0.0
C1162 C 0.57667 0.48748 0.42322 0.0
C1163 C 0.53296 0.48814 0.43618 0.0
C1164 C 0.54 0.4987 0.45831 0.0
C1165 C 0.56536 0.50446 0.46243 0.0
C1166 C 0.58353 0.49875 0.44512 0.0
C1167 C 0.521 0.50334 0.47736 0.0
C1168 C 0.51732 0.52801 0.48538 0.0
C1169 C 0.50596 0.48382 0.48694 0.0
C1170 C 0.50946 0.45726 0.47955 0.0
C1171 C 0.5332 0.44578 0.48112 0.0
C1172 C 0.53661 0.42115 0.47308 0.0
C1173 C 0.51634 0.40763 0.46377 0.0
C1174 C 0.49256 0.41869 0.46262 0.0
C1175 C 0.48909 0.44339 0.47048 0.0
H1176 H 0.51903 0.38859 0.45746 0.0
H1177 H 0.48536 0.63308 0.50976 0.0
H1178 H 0.95081 0.41606 0.54706 0.0
H1179 H 0.96032 0.44852 0.5176 0.0
H1180 H 0.01903 0.47708 0.56352 0.0
H1181 H 0.00938 0.44442 0.59338 0.0
H1182 H 0.99233 0.51485 0.54486 0.0
H1183 H 0.03248 0.44157 0.51279 0.0
H1184 H 0.03508 0.39747 0.49948 0.0
H1185 H 0.97855 0.4113 0.44602 0.0
H1186 H 0.97536 0.45543 0.45923 0.0
H1187 H 0.05001 0.59131 0.45618 0.0
H1188 H 0.04077 0.55949 0.48637 0.0
H1189 H 0.98198 0.52963 0.44131 0.0
H1190 H 0.99131 0.56161 0.41077 0.0
H1191 H 0.0093 0.49254 0.45977 0.0
H1192 H 0.969 0.5658 0.49205 0.0
H1193 H 0.96643 0.60989 0.50542 0.0
H1194 H 0.02339 0.59609 0.55847 0.0
H1195 H 0.02654 0.55198 0.5452 0.0
C1196 C 0.96603 0.42894 0.55081 0.0
C1197 C 0.9797 0.42731 0.57244 0.0
C1198 C 0.9714 0.44762 0.53392 0.0
C1199 C 0.99075 0.46501 0.53803 0.0
C1200 C 0.0041 0.46381 0.55984 0.0
C1201 C 0.9986 0.44515 0.57689 0.0
C1202 C 0.99676 0.48451 0.51962 0.0
C1203 C 0.99642 0.50993 0.52634 0.0
C1204 C 0.00151 0.47823 0.49526 0.0
C1205 C 0.00354 0.45175 0.48714 0.0
C1206 C 0.02048 0.43517 0.4983 0.0
C1207 C 0.02208 0.41017 0.49076 0.0
C1208 C 0.00695 0.40158 0.47195 0.0
C1209 C 0.99024 0.41798 0.4606 0.0
C1210 C 0.98855 0.443 0.46809 0.0
C1211 C 0.0348 0.57831 0.45279 0.0
C1212 C 0.02109 0.57931 0.43114 0.0
C1213 C 0.02958 0.56 0.47011 0.0
C1214 C 0.01037 0.54235 0.4664 0.0
C1215 C 0.99684 0.54308 0.44468 0.0
C1216 C 0.00216 0.56135 0.42723 0.0
C1217 C 0.00478 0.52289 0.48498 0.0
C1218 C 0.00522 0.49747 0.47829 0.0
C1219 C 1.00014 0.52917 0.50936 0.0
C1220 C 0.99816 0.55564 0.51748 0.0
C1221 C 0.9811 0.57221 0.50646 0.0
C1222 C 0.97952 0.5972 0.51403 0.0
C1223 C 0.99478 0.6058 0.53274 0.0
C1224 C 0.0116 0.58941 0.54396 0.0
C1225 C 0.01327 0.56441 0.53644 0.0
H1226 H 0.99354 0.62516 0.53857 0.0
H1227 H 0.00821 0.38221 0.46615 0.0
H1228 H 0.9512 0.02472 0.4083 0.0
H1229 H 0.98355 0.01431 0.43784 0.0
H1230 H 0.92627 0.99139 0.48811 0.0
H1231 H 0.89384 0.00177 0.45862 0.0
H1232 H 0.95882 0.02132 0.50957 0.0
H1233 H 0.96486 0.9482 0.46003 0.0
H1234 H 0.96965 0.92413 0.42243 0.0
H1235 H 0.04223 0.95722 0.41099 0.0
H1236 H 0.03773 0.98175 0.44838 0.0
H1237 H 0.04055 0.96443 0.59522 0.0
H1238 H 0.00827 0.97279 0.56515 0.0
H1239 H 0.06494 0.99896 0.51575 0.0
H1240 H 0.0974 0.99094 0.54591 0.0
H1241 H 0.03274 0.96703 0.49391 0.0
H1242 H 0.02591 0.04029 0.54389 0.0
H1243 H 0.02085 0.06351 0.58195 0.0
H1244 H 0.94903 0.02871 0.59313 0.0
H1245 H 0.95382 0.00502 0.55527 0.0
C1246 C 0.94547 0.01702 0.42544 0.0
C1247 C 0.91986 0.01416 0.43108 0.0
C1248 C 0.96403 0.0111 0.44238 0.0
C1249 C 0.95741 0.00195 0.46524 0.0
C1250 C 0.93189 0.99854 0.47068 0.0
C1251 C 0.91335 0.00451 0.4538 0.0
C1252 C 0.97696 0.99707 0.48387 0.0
C1253 C 0.97476 0.0091 0.50626 0.0
C1254 C 0.99812 0.98162 0.47944 0.0
C1255 C 0.00083 0.96702 0.45687 0.0
C1256 C 0.98174 0.95052 0.44938 0.0
C1257 C 0.98442 0.93676 0.42813 0.0
C1258 C 0.00619 0.9392 0.41429 0.0
C1259 C 0.02535 0.95538 0.42171 0.0
C1260 C 0.02276 0.9692 0.44294 0.0
C1261 C 0.0462 0.97241 0.57818 0.0
C1262 C 0.07169 0.9771 0.57311 0.0
C1263 C 0.02766 0.97708 0.56091 0.0
C1264 C 0.03412 0.98666 0.5382 0.0
C1265 C 0.05949 0.9915 0.53311 0.0
C1266 C 0.07804 0.98688 0.55038 0.0
C1267 C 0.0145 0.99117 0.51961 0.0
C1268 C 0.01672 0.97913 0.49724 0.0
C1269 C 0.99326 0.00647 0.5241 0.0
C1270 C 0.99034 0.0207 0.54686 0.0
C1271 C 0.00913 0.03743 0.55456 0.0
C1272 C 0.00629 0.05071 0.57608 0.0
C1273 C 0.98466 0.04754 0.58998 0.0
C1274 C 0.96579 0.03112 0.58236 0.0
C1275 C 0.96855 0.01779 0.56086 0.0
H1276 H 0.9825 0.05784 0.60663 0.0
H1277 H 0.00824 0.92852 0.39785 0.0
H1278 H 0.47919 0.9557 0.40303 0.0
H1279 H 0.48752 0.99 0.43135 0.0
H1280 H 0.50811 0.93605 0.48574 0.0
H1281 H 0.50013 0.90186 0.45754 0.0
H1282 H 0.47448 0.96929 0.50281 0.0
H1283 H 0.55211 0.97259 0.45909 0.0
H1284 H 0.57937 0.97611 0.42341 0.0
H1285 H 0.54823 0.04867 0.40766 0.0
H1286 H 0.52053 0.04544 0.4431 0.0
H1287 H 0.52873 0.04697 0.59218 0.0
H1288 H 0.51962 0.01576 0.56117 0.0
H1289 H 0.50357 0.07505 0.51058 0.0
H1290 H 0.51287 0.10635 0.54156 0.0
H1291 H 0.53237 0.04103 0.49013 0.0
H1292 H 0.45616 0.03845 0.5351 0.0
H1293 H 0.42945 0.03508 0.57117 0.0
H1294 H 0.45821 0.96109 0.58486 0.0
H1295 H 0.48535 0.96414 0.54903 0.0
C1296 C 0.48601 0.95117 0.42083 0.0
C1297 C 0.4888 0.92598 0.42806 0.0
C1298 C 0.49067 0.97081 0.43706 0.0
C1299 C 0.49833 0.96562 0.46076 0.0
C1300 C 0.50198 0.94054 0.46767 0.0
C1301 C 0.49739 0.921 0.45151 0.0
C1302 C 0.50143 0.98607 0.4788 0.0
C1303 C 0.4874 0.98481 0.50016 0.0
C1304 C 0.51763 0.00678 0.47505 0.0
C1305 C 0.53398 0.00861 0.45354 0.0
C1306 C 0.55084 0.98916 0.44785 0.0
C1307 C 0.56645 0.99114 0.42772 0.0
C1308 C 0.56546 0.01256 0.41322 0.0
C1309 C 0.54893 0.03207 0.41887 0.0
C1310 C 0.53328 0.03018 0.43898 0.0
C1311 C 0.52281 0.05338 0.57461 0.0
C1312 C 0.5214 0.07919 0.5694 0.0
C1313 C 0.51763 0.03549 0.55684 0.0
C1314 C 0.5106 0.04299 0.53353 0.0
C1315 C 0.50896 0.06875 0.52837 0.0
C1316 C 0.51427 0.08663 0.5461 0.0
C1317 C 0.50582 0.02398 0.51438 0.0
C1318 C 0.51936 0.02559 0.49274 0.0
C1319 C 0.48923 0.00352 0.51789 0.0
C1320 C 0.47296 0.00162 0.53948 0.0
C1321 C 0.45694 0.02153 0.5459 0.0
C1322 C 0.44169 0.01967 0.56629 0.0
C1323 C 0.44217 0.99791 0.58033 0.0
C1324 C 0.45787 0.97794 0.57398 0.0
C1325 C 0.47317 0.97972 0.55362 0.0
H1326 H 0.43035 0.9965 0.5961 0.0
H1327 H 0.57757 0.01407 0.39766 0.0
H1328 H 0.51472 0.23404 0.92948 0.0
H1329 H 0.52173 0.19777 0.956 0.0
H1330 H 0.55049 0.24706 0.01091 0.0
H1331 H 0.54427 0.28293 0.98485 0.0
H1332 H 0.58462 0.20911 0.98969 0.0
H1333 H 0.5026 0.22123 0.02494 0.0
H1334 H 0.45639 0.22381 0.02482 0.0
H1335 H 0.45177 0.14772 0.99962 0.0
H1336 H 0.49801 0.14482 0.99915 0.0
H1337 H 0.59546 0.12223 0.0964 0.0
H1338 H 0.56928 0.15198 0.07376 0.0
H1339 H 0.59625 0.12051 0.00715 0.0
H1340 H 0.6222 0.09083 0.02942 0.0
H1341 H 0.53171 0.14839 0.03456 0.0
H1342 H 0.61576 0.17054 0.97417 0.0
H1343 H 0.66203 0.1674 0.97478 0.0
H1344 H 0.66185 0.17628 0.0515 0.0
H1345 H 0.61573 0.17983 0.05131 0.0
C1346 C 0.52196 0.23719 0.94742 0.0
C1347 C 0.52903 0.26147 0.95489 0.0
C1348 C 0.52574 0.21649 0.96259 0.0
C1349 C 0.5366 0.21988 0.98534 0.0
C1350 C 0.54189 0.24417 0.99346 0.0
C1351 C 0.53812 0.26473 0.97847 0.0
C1352 C 0.54681 0.19839 0.99894 0.0
C1353 C 0.573 0.19577 0.99939 0.0
C1354 C 0.53159 0.1811 0.01158 0.0
C1355 C 0.50381 0.18296 0.0116 0.0
C1356 C 0.49177 0.20517 0.019 0.0
C1357 C 0.46555 0.20666 0.01914 0.0
C1358 C 0.45115 0.18599 0.0121 0.0
C1359 C 0.46294 0.16375 0.00498 0.0
C1360 C 0.48916 0.16218 0.00477 0.0
C1361 C 0.59545 0.12141 0.07694 0.0
C1362 C 0.6112 0.10455 0.06467 0.0
C1363 C 0.58038 0.13825 0.06407 0.0
C1364 C 0.58108 0.1385 0.03885 0.0
C1365 C 0.59561 0.12066 0.02663 0.0
C1366 C 0.61052 0.10381 0.03941 0.0
C1367 C 0.56941 0.15929 0.02527 0.0
C1368 C 0.54317 0.16167 0.02469 0.0
C1369 C 0.58449 0.17655 0.01246 0.0
C1370 C 0.61231 0.17517 0.01273 0.0
C1371 C 0.62565 0.17193 0.99115 0.0
C1372 C 0.65184 0.17006 0.99143 0.0
C1373 C 0.66489 0.17153 0.01319 0.0
C1374 C 0.65177 0.17503 0.03468 0.0
C1375 C 0.62559 0.17695 0.0345 0.0
H1376 H 0.68517 0.17002 0.01339 0.0
H1377 H 0.43085 0.18717 0.01225 0.0
H1378 H 0.23127 0.49048 0.97164 0.0
H1379 H 0.26409 0.49314 0.00228 0.0
H1380 H 0.30745 0.54152 0.95611 0.0
H1381 H 0.27444 0.54046 0.92618 0.0
H1382 H 0.33667 0.5076 0.98841 0.0
H1383 H 0.26836 0.57011 0.98695 0.0
H1384 H 0.22323 0.58061 0.98692 0.0
H1385 H 0.21373 0.54136 0.05378 0.0
H1386 H 0.25877 0.53019 0.0539 0.0
H1387 H 0.39632 0.61019 0.03963 0.0
H1388 H 0.37254 0.57809 0.0185 0.0
H1389 H 0.33538 0.55768 0.08464 0.0
H1390 H 0.35934 0.59018 0.1061 0.0
H1391 H 0.30228 0.56584 0.04987 0.0
H1392 H 0.37384 0.51471 0.05687 0.0
H1393 H 0.41782 0.50061 0.0561 0.0
H1394 H 0.42188 0.51596 0.9804 0.0
H1395 H 0.37782 0.53033 0.98071 0.0
C1396 C 0.24799 0.50131 0.96775 0.0
C1397 C 0.24969 0.5159 0.94665 0.0
C1398 C 0.26685 0.50253 0.9852 0.0
C1399 C 0.28793 0.51782 0.98151 0.0
C1400 C 0.29129 0.52958 0.95922 0.0
C1401 C 0.27226 0.52884 0.942 0.0
C1402 C 0.30363 0.52593 0.00196 0.0
C1403 C 0.3293 0.52021 0.002 0.0
C1404 C 0.29367 0.54178 0.02 0.0
C1405 C 0.2668 0.54907 0.02029 0.0
C1406 C 0.2566 0.56358 0.00155 0.0
C1407 C 0.23105 0.56965 0.00151 0.0
C1408 C 0.2156 0.5616 0.02031 0.0
C1409 C 0.22571 0.54753 0.03921 0.0
C1410 C 0.25123 0.54131 0.03926 0.0
C1411 C 0.38326 0.59875 0.04979 0.0
C1412 C 0.37947 0.60288 0.07448 0.0
C1413 C 0.3699 0.58014 0.03772 0.0
C1414 C 0.35241 0.5652 0.05002 0.0
C1415 C 0.34895 0.56886 0.07484 0.0
C1416 C 0.36255 0.58745 0.08705 0.0
C1417 C 0.33581 0.54818 0.0361 0.0
C1418 C 0.30981 0.55248 0.03702 0.0
C1419 C 0.34555 0.53095 0.01905 0.0
C1420 C 0.37248 0.52364 0.01885 0.0
C1421 C 0.38416 0.51536 0.0401 0.0
C1422 C 0.40911 0.50722 0.03971 0.0
C1423 C 0.42262 0.50727 0.01817 0.0
C1424 C 0.41132 0.51579 0.99703 0.0
C1425 C 0.38633 0.52388 0.9973 0.0
H1426 H 0.44185 0.50073 0.01783 0.0
H1427 H 0.19583 0.56632 0.02026 0.0
H1428 H 0.00979 0.23362 0.96569 0.0
H1429 H 0.00596 0.2693 0.99353 0.0
H1430 H 0.93976 0.29413 0.95544 0.0
H1431 H 0.94388 0.25958 0.92768 0.0
H1432 H 0.96262 0.3328 0.96988 0.0
H1433 H 0.93922 0.25249 0.00661 0.0
H1434 H 0.94815 0.20963 0.02121 0.0
H1435 H 0.00518 0.23859 0.06826 0.0
H1436 H 0.99674 0.28161 0.0537 0.0
H1437 H 0.86494 0.37376 0.04061 0.0
H1438 H 0.89347 0.3471 0.01774 0.0
H1439 H 0.94985 0.35522 0.07298 0.0
H1440 H 0.92054 0.38115 0.09667 0.0
H1441 H 0.94722 0.30699 0.05432 0.0
H1442 H 0.95089 0.39178 0.02147 0.0
H1443 H 0.92898 0.42956 0.00635 0.0
H1444 H 0.89702 0.38668 0.94877 0.0
H1445 H 0.91795 0.34854 0.96372 0.0
C1446 C 0.99488 0.24718 0.96299 0.0
C1447 C 0.97724 0.24385 0.94442 0.0
C1448 C 0.99263 0.26745 0.97893 0.0
C1449 C 0.97235 0.28425 0.97683 0.0
C1450 C 0.95571 0.28166 0.95742 0.0
C1451 C 0.95816 0.2618 0.94141 0.0
C1452 C 0.96621 0.30294 0.99576 0.0
C1453 C 0.95954 0.32727 0.98843 0.0
C1454 C 0.96256 0.2959 0.0201 0.0
C1455 C 0.96762 0.27014 0.02885 0.0
C1456 C 0.95377 0.24966 0.01996 0.0
C1457 C 0.95873 0.22536 0.02823 0.0
C1458 C 0.97729 0.22138 0.04559 0.0
C1459 C 0.99087 0.2417 0.05476 0.0
C1460 C 0.98603 0.26603 0.0465 0.0
C1461 C 0.88333 0.36964 0.04798 0.0
C1462 C 0.89075 0.37957 0.0702 0.0
C1463 C 0.89966 0.35457 0.03486 0.0
C1464 C 0.92408 0.34994 0.04328 0.0
C1465 C 0.93119 0.35891 0.06604 0.0
C1466 C 0.9145 0.37359 0.07954 0.0
C1467 C 0.94194 0.33602 0.02785 0.0
C1468 C 0.9512 0.31289 0.03603 0.0
C1469 C 0.94675 0.34365 0.00387 0.0
C1470 C 0.93609 0.36723 0.99374 0.0
C1471 C 0.93932 0.39042 0.0055 0.0
C1472 C 0.927 0.41188 0.99702 0.0
C1473 C 0.91168 0.41048 0.97668 0.0
C1474 C 0.90891 0.38773 0.96452 0.0
C1475 C 0.92101 0.36619 0.97297 0.0
H1476 H 0.90178 0.42696 0.97043 0.0
H1477 H 0.9811 0.20256 0.05198 0.0
H1478 H 0.23143 0.94552 0.93431 0.0
H1479 H 0.19711 0.9409 0.96272 0.0
H1480 H 0.22253 0.0063 0.00139 0.0
H1481 H 0.25728 0.01133 0.97259 0.0
H1482 H 0.20797 0.93303 0.0123 0.0
H1483 H 0.16077 0.02955 0.02631 0.0
H1484 H 0.15294 0.06889 0.00408 0.0
H1485 H 0.15637 0.02881 0.93718 0.0
H1486 H 0.16363 0.98918 0.959 0.0
H1487 H 0.12424 0.91517 0.10711 0.0
H1488 H 0.15389 0.94195 0.08515 0.0
H1489 H 0.10548 0.94012 0.02299 0.0
H1490 H 0.07596 0.91331 0.04471 0.0
H1491 H 0.1332 0.98632 0.02788 0.0
H1492 H 0.14435 0.8953 0.02678 0.0
H1493 H 0.14867 0.85447 0.04736 0.0
H1494 H 0.2147 0.88104 0.0837 0.0
H1495 H 0.21046 0.92222 0.06362 0.0
C1496 C 0.22937 0.95952 0.9483 0.0
C1497 C 0.24709 0.97891 0.95108 0.0
C1498 C 0.20984 0.95665 0.9647 0.0
C1499 C 0.20742 0.97315 0.98417 0.0
C1500 C 0.22413 0.9934 0.9864 0.0
C1501 C 0.24394 0.99621 0.97 0.0
C1502 C 0.1888 0.96739 0.0031 0.0
C1503 C 0.19184 0.9449 0.01594 0.0
C1504 C 0.16769 0.9828 0.0077 0.0
C1505 C 0.16325 0.00648 0.99431 0.0
C1506 C 0.15986 0.02914 0.00686 0.0
C1507 C 0.15548 0.05148 0.99433 0.0
C1508 C 0.15436 0.05138 0.96923 0.0
C1509 C 0.15747 0.0289 0.95661 0.0
C1510 C 0.16174 0.00649 0.96906 0.0
C1511 C 0.11957 0.92119 0.08905 0.0
C1512 C 0.09815 0.91183 0.07738 0.0
C1513 C 0.13645 0.93652 0.07657 0.0
C1514 C 0.13193 0.94276 0.05241 0.0
C1515 C 0.10926 0.93555 0.04163 0.0
C1516 C 0.09256 0.92002 0.05397 0.0
C1517 C 0.15252 0.95207 0.03697 0.0
C1518 C 0.1498 0.97497 0.02473 0.0
C1519 C 0.17382 0.93689 0.03253 0.0
C1520 C 0.17694 0.91188 0.04392 0.0
C1521 C 0.15972 0.89246 0.03925 0.0
C1522 C 0.16213 0.86927 0.05083 0.0
C1523 C 0.18189 0.86519 0.0669 0.0
C1524 C 0.19936 0.88425 0.0713 0.0
C1525 C 0.19696 0.90752 0.05983 0.0
H1526 H 0.1837 0.84724 0.07589 0.0
H1527 H 0.15093 0.06869 0.95956 0.0
H1528 H 0.62298 0.4026 0.46269 0.0
H1529 H 0.59566 0.37468 0.48532 0.0
H1530 H 0.56193 0.34876 0.41928 0.0
H1531 H 0.58992 0.37644 0.39625 0.0
H1532 H 0.54632 0.36908 0.49091 0.0
H1533 H 0.55125 0.28325 0.42746 0.0
H1534 H 0.57788 0.26717 0.39454 0.0
H1535 H 0.64117 0.30741 0.42286 0.0
H1536 H 0.6153 0.32272 0.45656 0.0
H1537 H 0.50523 0.23132 0.52652 0.0
H1538 H 0.50868 0.26555 0.49731 0.0
H1539 H 0.55943 0.30465 0.54467 0.0
H1540 H 0.55733 0.27032 0.57321 0.0
H1541 H 0.55616 0.27765 0.47689 0.0
H1542 H 0.55127 0.36775 0.53623 0.0
H1543 H 0.52671 0.3841 0.57038 0.0
H1544 H 0.46547 0.33526 0.55203 0.0
H1545 H 0.48947 0.3189 0.51752 0.0
C1546 C 0.60968 0.39109 0.45291 0.0
C1547 C 0.60883 0.39143 0.42766 0.0
C1548 C 0.59393 0.37526 0.46592 0.0
C1549 C 0.57688 0.35953 0.454 0.0
C1550 C 0.57514 0.36061 0.4288 0.0
C1551 C 0.59113 0.37637 0.41569 0.0
C1552 C 0.56264 0.34075 0.46814 0.0
C1553 C 0.54824 0.3491 0.48771 0.0
C1554 C 0.56499 0.31464 0.46379 0.0
C1555 C 0.58115 0.30453 0.44427 0.0
C1556 C 0.5709 0.28848 0.42678 0.0
C1557 C 0.58591 0.27942 0.40804 0.0
C1558 C 0.6112 0.2863 0.4066 0.0
C1559 C 0.6216 0.30205 0.42403 0.0
C1560 C 0.60679 0.31084 0.443 0.0
C1561 C 0.51692 0.24733 0.53088 0.0
C1562 C 0.53125 0.24775 0.55219 0.0
C1563 C 0.51872 0.26692 0.5142 0.0
C1564 C 0.53431 0.28756 0.51885 0.0
C1565 C 0.54704 0.289 0.54087 0.0
C1566 C 0.54563 0.2693 0.55732 0.0
C1567 C 0.54013 0.30607 0.49983 0.0
C1568 C 0.55328 0.29765 0.47947 0.0
C1569 C 0.53692 0.33211 0.50363 0.0
C1570 C 0.52229 0.34196 0.52434 0.0
C1571 C 0.53252 0.36058 0.53938 0.0
C1572 C 0.51869 0.36984 0.55883 0.0
C1573 C 0.49457 0.36068 0.56341 0.0
C1574 C 0.4842 0.34228 0.54851 0.0
C1575 C 0.49793 0.33297 0.52902 0.0
H1576 H 0.48391 0.36788 0.57848 0.0
H1577 H 0.62275 0.27939 0.39201 0.0
H1578 H 0.10729 0.63367 0.46159 0.0
H1579 H 0.13707 0.60805 0.48408 0.0
H1580 H 0.15607 0.56742 0.41953 0.0
H1581 H 0.12624 0.59334 0.39658 0.0
H1582 H 0.14896 0.53753 0.46708 0.0
H1583 H 0.19617 0.60355 0.43003 0.0
H1584 H 0.20349 0.64721 0.41699 0.0
H1585 H 0.2021 0.6718 0.49051 0.0
H1586 H 0.19441 0.62829 0.50397 0.0
H1587 H 0.26633 0.50088 0.52858 0.0
H1588 H 0.23346 0.51084 0.49911 0.0
H1589 H 0.20562 0.56927 0.54568 0.0
H1590 H 0.23835 0.56009 0.57466 0.0
H1591 H 0.2208 0.58591 0.50008 0.0
H1592 H 0.17084 0.51979 0.53642 0.0
H1593 H 0.16221 0.47623 0.54902 0.0
H1594 H 0.1694 0.45128 0.47593 0.0
H1595 H 0.17843 0.49467 0.46293 0.0
C1596 C 0.11762 0.61918 0.45214 0.0
C1597 C 0.11466 0.61567 0.42728 0.0
C1598 C 0.13453 0.60451 0.46504 0.0
C1599 C 0.14869 0.58595 0.4534 0.0
C1600 C 0.14516 0.58163 0.42876 0.0
C1601 C 0.12831 0.59654 0.41571 0.0
C1602 C 0.16858 0.5729 0.46699 0.0
C1603 C 0.16504 0.54781 0.4739 0.0
C1604 C 0.18933 0.58652 0.4759 0.0
C1605 C 0.19452 0.61267 0.46799 0.0
C1606 C 0.19725 0.61829 0.44341 0.0
C1607 C 0.20148 0.64301 0.43594 0.0
C1608 C 0.20318 0.66228 0.4529 0.0
C1609 C 0.20076 0.65685 0.47738 0.0
C1610 C 0.1965 0.63215 0.48495 0.0
C1611 C 0.25281 0.51543 0.53277 0.0
C1612 C 0.25514 0.52975 0.55396 0.0
C1613 C 0.23402 0.52103 0.51596 0.0
C1614 C 0.21736 0.54097 0.52017 0.0
C1615 C 0.21841 0.55387 0.54209 0.0
C1616 C 0.23703 0.54833 0.55882 0.0
C1617 C 0.20085 0.55067 0.50093 0.0
C1618 C 0.20509 0.5753 0.4929 0.0
C1619 C 0.18099 0.53648 0.49091 0.0
C1620 C 0.17565 0.51041 0.49875 0.0
C1621 C 0.17086 0.50497 0.52307 0.0
C1622 C 0.16582 0.48033 0.53028 0.0
C1623 C 0.16535 0.46098 0.5133 0.0
C1624 C 0.16984 0.46627 0.48907 0.0
C1625 C 0.1749 0.49088 0.48177 0.0
H1626 H 0.16143 0.44192 0.51892 0.0
H1627 H 0.20641 0.68142 0.44708 0.0
H1628 H 0.86489 0.10233 0.46994 0.0
H1629 H 0.89062 0.13273 0.49153 0.0
H1630 H 0.92616 0.15477 0.42514 0.0
H1631 H 0.90004 0.12435 0.4031 0.0
H1632 H 0.95924 0.14729 0.47135 0.0
H1633 H 0.88915 0.19275 0.43842 0.0
H1634 H 0.84441 0.19872 0.42846 0.0
H1635 H 0.82542 0.19613 0.50346 0.0
H1636 H 0.87002 0.18965 0.51384 0.0
H1637 H 0.99792 0.26412 0.53158 0.0
H1638 H 0.98669 0.23105 0.50279 0.0
H1639 H 0.92936 0.20447 0.55126 0.0
H1640 H 0.93955 0.23755 0.57943 0.0
H1641 H 0.91088 0.21764 0.50717 0.0
H1642 H 0.97962 0.16929 0.54012 0.0
H1643 H 0.0238 0.1612 0.55092 0.0
H1644 H 0.04537 0.16872 0.47687 0.0
H1645 H 0.00131 0.1772 0.46566 0.0
C1646 C 0.87828 0.11347 0.45988 0.0
C1647 C 0.8803 0.11114 0.4348 0.0
C1648 C 0.89303 0.13074 0.47227 0.0
C1649 C 0.91022 0.14589 0.45988 0.0
C1650 C 0.91304 0.14308 0.43495 0.0
C1651 C 0.898 0.1259 0.42242 0.0
C1652 C 0.92341 0.16596 0.47314 0.0
C1653 C 0.94893 0.16306 0.47879 0.0
C1654 C 0.90972 0.1862 0.48301 0.0
C1655 C 0.88291 0.19051 0.47689 0.0
C1656 C 0.87541 0.19324 0.45278 0.0
C1657 C 0.85008 0.19675 0.44706 0.0
C1658 C 0.83208 0.19776 0.46531 0.0
C1659 C 0.83939 0.19532 0.48933 0.0
C1660 C 0.86469 0.19176 0.49515 0.0
C1661 C 0.98326 0.25091 0.5363 0.0
C1662 C 0.96958 0.25373 0.55784 0.0
C1663 C 0.97697 0.23196 0.51987 0.0
C1664 C 0.95702 0.21553 0.52483 0.0
C1665 C 0.94474 0.21707 0.54706 0.0
C1666 C 0.9509 0.23592 0.56336 0.0
C1667 C 0.94666 0.19868 0.50612 0.0
C1668 C 0.9215 0.20225 0.4994 0.0
C1669 C 0.96075 0.17916 0.49536 0.0
C1670 C 0.98723 0.17422 0.5021 0.0
C1671 C 0.99382 0.1695 0.52617 0.0
C1672 C 0.01883 0.16477 0.53236 0.0
C1673 C 0.0374 0.16454 0.5146 0.0
C1674 C 0.03098 0.16897 0.49061 0.0
C1675 C 0.00599 0.17372 0.48433 0.0
H1676 H 0.05675 0.16086 0.51943 0.0
H1677 H 0.81248 0.20047 0.46084 0.0
H1678 H 0.40897 0.8773 0.47359 0.0
H1679 H 0.37905 0.90234 0.49648 0.0
H1680 H 0.34508 0.92823 0.4306 0.0
H1681 H 0.3751 0.90292 0.40731 0.0
H1682 H 0.35142 0.96641 0.47048 0.0
H1683 H 0.317 0.88449 0.45357 0.0
H1684 H 0.31817 0.83823 0.45159 0.0
H1685 H 0.32967 0.83454 0.52794 0.0
H1686 H 0.32912 0.88081 0.53029 0.0
H1687 H 0.23459 0.99852 0.53076 0.0
H1688 H 0.2691 0.98777 0.50372 0.0
H1689 H 0.301 0.93991 0.55831 0.0
H1690 H 0.26603 0.94852 0.58442 0.0
H1691 H 0.29361 0.91432 0.51955 0.0
H1692 H 0.33009 0.99489 0.53751 0.0
H1693 H 0.33106 0.04107 0.54079 0.0
H1694 H 0.31706 0.04767 0.46501 0.0
H1695 H 0.31569 0.0015 0.46133 0.0
C1696 C 0.39535 0.88851 0.46388 0.0
C1697 C 0.39416 0.8879 0.43864 0.0
C1698 C 0.37834 0.90288 0.47701 0.0
C1699 C 0.35984 0.91696 0.46519 0.0
C1700 C 0.35933 0.9175 0.43997 0.0
C1701 C 0.37634 0.90294 0.42675 0.0
C1702 C 0.33971 0.92887 0.47948 0.0
C1703 C 0.33845 0.95516 0.48098 0.0
C1704 C 0.32321 0.91403 0.4934 0.0
C1705 C 0.32327 0.88615 0.49205 0.0
C1706 C 0.32002 0.87383 0.4699 0.0
C1707 C 0.32054 0.8476 0.46872 0.0
C1708 C 0.32405 0.83346 0.48962 0.0
C1709 C 0.32699 0.84552 0.51176 0.0
C1710 C 0.32658 0.87175 0.51302 0.0
C1711 C 0.24902 0.98586 0.53716 0.0
C1712 C 0.24688 0.97408 0.5598 0.0
C1713 C 0.26897 0.97999 0.52171 0.0
C1714 C 0.28749 0.96276 0.52887 0.0
C1715 C 0.28678 0.95305 0.55228 0.0
C1716 C 0.26671 0.95842 0.56745 0.0
C1717 C 0.30567 0.95207 0.5114 0.0
C1718 C 0.30641 0.92581 0.50908 0.0
C1719 C 0.32175 0.967 0.49701 0.0
C1720 C 0.32249 0.99474 0.4992 0.0
C1721 C 0.32698 0.00619 0.52159 0.0
C1722 C 0.32766 0.03236 0.52351 0.0
C1723 C 0.32404 0.04729 0.50314 0.0
C1724 C 0.31981 0.03608 0.48079 0.0
C1725 C 0.3191 0.00991 0.47877 0.0
H1726 H 0.32458 0.06755 0.50466 0.0
H1727 H 0.32444 0.81316 0.48867 0.0
H1728 H 0.48689 0.73298 0.03014 0.0
H1729 H 0.48625 0.76852 0.00217 0.0
H1730 H 0.43165 0.80592 0.04681 0.0
H1731 H 0.43097 0.77041 0.0739 0.0
H1732 H 0.4418 0.7816 0.97831 0.0
H1733 H 0.43932 0.8686 0.04257 0.0
H1734 H 0.46129 0.88363 0.07882 0.0
H1735 H 0.52477 0.83719 0.06176 0.0
H1736 H 0.50339 0.82216 0.02519 0.0
H1737 H 0.36868 0.90365 0.96979 0.0
H1738 H 0.39626 0.87489 0.99131 0.0
H1739 H 0.43408 0.85651 0.92498 0.0
H1740 H 0.40589 0.88492 0.90308 0.0
H1741 H 0.44607 0.87232 0.99805 0.0
H1742 H 0.45026 0.79345 0.92836 0.0
H1743 H 0.42651 0.7776 0.89337 0.0
H1744 H 0.35807 0.80651 0.92346 0.0
H1745 H 0.38137 0.82219 0.95875 0.0
C1746 C 0.47492 0.74887 0.03416 0.0
C1747 C 0.45878 0.74852 0.05427 0.0
C1748 C 0.47477 0.76924 0.01824 0.0
C1749 C 0.459 0.78985 0.02251 0.0
C1750 C 0.4443 0.79037 0.0434 0.0
C1751 C 0.44407 0.76994 0.05903 0.0
C1752 C 0.45471 0.80917 0.00384 0.0
C1753 C 0.44353 0.8015 0.9822 0.0
C1754 C 0.45661 0.83506 0.00917 0.0
C1755 C 0.46965 0.84415 0.03113 0.0
C1756 C 0.45803 0.8617 0.04644 0.0
C1757 C 0.47037 0.8702 0.06708 0.0
C1758 C 0.49439 0.86134 0.07261 0.0
C1759 C 0.50613 0.84398 0.05749 0.0
C1760 C 0.49388 0.83543 0.03682 0.0
C1761 C 0.3829 0.89357 0.95975 0.0
C1762 C 0.38497 0.89631 0.93472 0.0
C1763 C 0.39875 0.87723 0.9721 0.0
C1764 C 0.41712 0.86345 0.95973 0.0
C1765 C 0.41983 0.86677 0.93481 0.0
C1766 C 0.40375 0.88297 0.92236 0.0
C1767 C 0.43223 0.84469 0.97307 0.0
C1768 C 0.44532 0.8525 0.99367 0.0
C1769 C 0.43191 0.81891 0.96691 0.0
C1770 C 0.41763 0.80929 0.94597 0.0
C1771 C 0.43014 0.79636 0.9275 0.0
C1772 C 0.41676 0.78741 0.90764 0.0
C1773 C 0.39081 0.79114 0.90615 0.0
C1774 C 0.37818 0.80372 0.92459 0.0
C1775 C 0.39147 0.81266 0.94451 0.0
H1776 H 0.38049 0.78423 0.89074 0.0
H1777 H 0.50391 0.86795 0.0886 0.0
H1778 H 0.78863 0.46834 0.01126 0.0
H1779 H 0.75304 0.46473 0.98441 0.0
H1780 H 0.70287 0.48452 0.04214 0.0
H1781 H 0.73867 0.48994 0.06917 0.0
H1782 H 0.70062 0.43288 0.02189 0.0
H1783 H 0.69883 0.51941 0.99781 0.0
H1784 H 0.71701 0.55886 0.98246 0.0
H1785 H 0.7363 0.52234 0.91615 0.0
H1786 H 0.71857 0.48255 0.93123 0.0
H1787 H 0.59432 0.39476 0.96064 0.0
H1788 H 0.62265 0.4225 0.98251 0.0
H1789 H 0.67269 0.42422 0.92145 0.0
H1790 H 0.64354 0.39721 0.89895 0.0
H1791 H 0.67299 0.46884 0.94393 0.0
H1792 H 0.68305 0.38329 0.96683 0.0
H1793 H 0.66979 0.34113 0.98007 0.0
H1794 H 0.64184 0.37211 0.04615 0.0
H1795 H 0.65457 0.41456 0.03312 0.0
C1796 C 0.77031 0.47332 0.0182 0.0
C1797 C 0.76666 0.47895 0.04275 0.0
C1798 C 0.74987 0.47109 0.00267 0.0
C1799 C 0.72541 0.47415 0.01138 0.0
C1800 C 0.72171 0.48205 0.03516 0.0
C1801 C 0.74221 0.48484 0.05064 0.0
C1802 C 0.70425 0.46391 0.99733 0.0
C1803 C 0.69405 0.44109 0.00516 0.0
C1804 C 0.6969 0.47399 0.9749 0.0
C1805 C 0.70753 0.49792 0.96575 0.0
C1806 C 0.70715 0.51971 0.98004 0.0
C1807 C 0.71733 0.54216 0.97137 0.0
C1808 C 0.72785 0.54309 0.94837 0.0
C1809 C 0.72815 0.52159 0.93397 0.0
C1810 C 0.71801 0.49909 0.94256 0.0
C1811 C 0.61121 0.4013 0.95176 0.0
C1812 C 0.61701 0.39359 0.92828 0.0
C1813 C 0.62737 0.41716 0.96426 0.0
C1814 C 0.65005 0.42496 0.95381 0.0
C1815 C 0.65531 0.41834 0.92987 0.0
C1816 C 0.63877 0.40284 0.9171 0.0
C1817 C 0.66909 0.43797 0.96872 0.0
C1818 C 0.67916 0.46096 0.96092 0.0
C1819 C 0.6771 0.42766 0.99091 0.0
C1820 C 0.66951 0.40214 0.99888 0.0
C1821 C 0.6739 0.38115 0.98411 0.0
C1822 C 0.66651 0.35719 0.99158 0.0
C1823 C 0.65493 0.35395 0.01391 0.0
C1824 C 0.65077 0.37466 0.02884 0.0
C1825 C 0.65807 0.39867 0.02142 0.0
H1826 H 0.64922 0.33539 0.01967 0.0
H1827 H 0.73572 0.56049 0.94168 0.0
H1828 H 0.0398 0.78997 0.01251 0.0
H1829 H 0.04845 0.75457 0.98626 0.0
H1830 H 0.03162 0.70325 0.04396 0.0
H1831 H 0.02147 0.73862 0.07028 0.0
H1832 H 0.08228 0.70178 0.02437 0.0
H1833 H 0.9963 0.69946 0.99818 0.0
H1834 H 0.95711 0.71752 0.9821 0.0
H1835 H 0.99528 0.73832 0.91707 0.0
H1836 H 0.03482 0.72072 0.93289 0.0
H1837 H 0.12017 0.59467 0.9625 0.0
H1838 H 0.09387 0.62397 0.98488 0.0
H1839 H 0.09239 0.67389 0.92371 0.0
H1840 H 0.1179 0.64384 0.90076 0.0
H1841 H 0.04818 0.67465 0.9455 0.0
H1842 H 0.13327 0.68371 0.97045 0.0
H1843 H 0.17488 0.66986 0.98469 0.0
H1844 H 0.14172 0.64208 0.04988 0.0
H1845 H 0.09983 0.65554 0.03587 0.0
C1846 C 0.03674 0.77125 0.01949 0.0
C1847 C 0.03016 0.76729 0.04376 0.0
C1848 C 0.04189 0.75097 0.00439 0.0
C1849 C 0.0408 0.72638 0.01325 0.0
C1850 C 0.03261 0.72217 0.03687 0.0
C1851 C 0.02701 0.74244 0.05191 0.0
C1852 C 0.05192 0.70569 0.99909 0.0
C1853 C 0.07452 0.69538 0.00739 0.0
C1854 C 0.04237 0.69841 0.97642 0.0
C1855 C 0.01859 0.70893 0.96682 0.0
C1856 C 0.9964 0.70808 0.98053 0.0
C1857 C 0.97411 0.71819 0.97144 0.0
C1858 C 0.97371 0.72911 0.9486 0.0
C1859 C 0.99561 0.72987 0.93477 0.0
C1860 C 0.01796 0.7198 0.94378 0.0
C1861 C 0.11411 0.61182 0.95377 0.0
C1862 C 0.1213 0.61722 0.93004 0.0
C1863 C 0.09909 0.62856 0.96657 0.0
C1864 C 0.09161 0.65139 0.95616 0.0
C1865 C 0.098 0.65641 0.93212 0.0
C1866 C 0.11265 0.63934 0.91908 0.0
C1867 C 0.07846 0.67051 0.97093 0.0
C1868 C 0.05572 0.68073 0.96266 0.0
C1869 C 0.08822 0.67836 0.9934 0.0
C1870 C 0.11339 0.6704 0.00201 0.0
C1871 C 0.13484 0.67451 0.98775 0.0
C1872 C 0.15847 0.66675 0.99579 0.0
C1873 C 0.16093 0.65502 0.01815 0.0
C1874 C 0.13977 0.65113 0.03255 0.0
C1875 C 0.11608 0.65884 0.02458 0.0
H1876 H 0.17924 0.649 0.02434 0.0
H1877 H 0.95643 0.73693 0.94159 0.0
H1878 H 0.72898 0.03532 0.0136 0.0
H1879 H 0.76617 0.0375 0.98877 0.0
H1880 H 0.81031 0.00501 0.04599 0.0
H1881 H 0.77267 0.0033 0.07146 0.0
H1882 H 0.83246 0.04422 0.03144 0.0
H1883 H 0.80275 0.97443 0.98924 0.0
H1884 H 0.77267 0.94618 0.96916 0.0
H1885 H 0.7585 0.00224 0.91534 0.0
H1886 H 0.78818 0.03101 0.93526 0.0
H1887 H 0.92543 0.09212 0.95203 0.0
H1888 H 0.90235 0.0598 0.97429 0.0
H1889 H 0.83465 0.07977 0.93589 0.0
H1890 H 0.85831 0.11058 0.91235 0.0
H1891 H 0.83436 0.03205 0.94306 0.0
H1892 H 0.8551 0.1044 0.99753 0.0
H1893 H 0.88633 0.13072 0.01862 0.0
H1894 H 0.91967 0.06473 0.04959 0.0
H1895 H 0.88869 0.0381 0.0286 0.0
C1896 C 0.74634 0.02774 0.02071 0.0
C1897 C 0.74778 0.01897 0.04451 0.0
C1898 C 0.76773 0.02894 0.00637 0.0
C1899 C 0.79113 0.02103 0.01525 0.0
C1900 C 0.79247 0.01112 0.03866 0.0
C1901 C 0.77098 0.01016 0.0532 0.0
C1902 C 0.81422 0.02668 1.00115 0.0
C1903 C 0.83318 0.0409 0.01221 0.0
C1904 C 0.81556 0.02218 0.97608 0.0
C1905 C 0.79775 0.00492 0.96381 0.0
C1906 C 0.79314 0.98081 0.97319 0.0
C1907 C 0.77615 0.96469 0.96182 0.0
C1908 C 0.76369 0.97241 0.94099 0.0
C1909 C 0.76821 0.99626 0.93146 0.0
C1910 C 0.78517 0.01247 0.94275 0.0
C1911 C 0.90563 0.08938 0.94833 0.0
C1912 C 0.89339 0.104 0.93089 0.0
C1913 C 0.89244 0.07099 0.96109 0.0
C1914 C 0.86651 0.06777 0.95737 0.0
C1915 C 0.85459 0.08186 0.93922 0.0
C1916 C 0.86801 0.09959 0.92588 0.0
C1917 C 0.85113 0.0512 0.97314 0.0
C1918 C 0.83387 0.0347 0.9624 0.0
C1919 C 0.85156 0.05322 0.99855 0.0
C1920 C 0.86976 0.06933 0.01142 0.0
C1921 C 0.86911 0.09558 0.00885 0.0
C1922 C 0.88676 0.11052 0.02076 0.0
C1923 C 0.90499 0.09941 0.0354 0.0
C1924 C 0.90556 0.07332 0.03825 0.0
C1925 C 0.88795 0.05831 0.02638 0.0
H1926 H 0.91867 0.11101 0.04457 0.0
H1927 H 0.75053 0.95991 0.93222 0.0
H1928 H 0.49727 0.73013 0.43128 0.0
H1929 H 0.49016 0.69408 0.45769 0.0
H1930 H 0.47214 0.74408 0.51612 0.0
H1931 H 0.47822 0.77993 0.49005 0.0
H1932 H 0.49337 0.69721 0.5315 0.0
H1933 H 0.4281 0.73136 0.47872 0.0
H1934 H 0.41224 0.74338 0.43872 0.0
H1935 H 0.42109 0.66749 0.4141 0.0
H1936 H 0.43787 0.65517 0.4538 0.0
H1937 H 0.39466 0.64158 0.59918 0.0
H1938 H 0.42348 0.66838 0.57631 0.0
H1939 H 0.41819 0.61754 0.516 0.0
H1940 H 0.38889 0.59152 0.53833 0.0
H1941 H 0.41436 0.66044 0.49994 0.0
H1942 H 0.47064 0.6238 0.55611 0.0
H1943 H 0.48852 0.61173 0.59519 0.0
H1944 H 0.49745 0.68943 0.61396 0.0
H1945 H 0.47942 0.70207 0.57498 0.0
C1946 C 0.49245 0.7335 0.44991 0.0
C1947 C 0.48766 0.75802 0.45823 0.0
C1948 C 0.48866 0.71286 0.46504 0.0
C1949 C 0.48017 0.71649 0.48869 0.0
C1950 C 0.4787 0.7409 0.49793 0.0
C1951 C 0.48225 0.76149 0.48283 0.0
C1952 C 0.46746 0.69599 0.50188 0.0
C1953 C 0.47612 0.689 0.52474 0.0
C1954 C 0.44518 0.68514 0.49274 0.0
C1955 C 0.43454 0.69243 0.4691 0.0
C1956 C 0.42685 0.71728 0.46472 0.0
C1957 C 0.41768 0.72415 0.44211 0.0
C1958 C 0.41562 0.70623 0.42388 0.0
C1959 C 0.42274 0.68137 0.42823 0.0
C1960 C 0.43215 0.67444 0.45075 0.0
C1961 C 0.39987 0.63616 0.58107 0.0
C1962 C 0.38948 0.61467 0.5704 0.0
C1963 C 0.4165 0.65132 0.56809 0.0
C1964 C 0.42354 0.64475 0.54452 0.0
C1965 C 0.41335 0.62298 0.53415 0.0
C1966 C 0.39643 0.60817 0.54689 0.0
C1967 C 0.44007 0.66131 0.52995 0.0
C1968 C 0.43192 0.6679 0.50678 0.0
C1969 C 0.46287 0.67152 0.53888 0.0
C1970 C 0.47361 0.66392 0.56248 0.0
C1971 C 0.47637 0.63838 0.5685 0.0
C1972 C 0.48653 0.63141 0.59069 0.0
C1973 C 0.49412 0.6498 0.60705 0.0
C1974 C 0.49158 0.6752 0.60125 0.0
C1975 C 0.48142 0.68228 0.57907 0.0
H1976 H 0.50197 0.64437 0.62424 0.0
H1977 H 0.40846 0.7116 0.4064 0.0
H1978 H 0.7355 0.50077 0.46887 0.0
H1979 H 0.76818 0.49162 0.49867 0.0
H1980 H 0.79838 0.43428 0.4522 0.0
H1981 H 0.76558 0.44222 0.42315 0.0
H1982 H 0.78423 0.41612 0.49576 0.0
H1983 H 0.83124 0.48651 0.46414 0.0
H1984 H 0.83802 0.53093 0.45341 0.0
H1985 H 0.82674 0.5525 0.52702 0.0
H1986 H 0.81955 0.5082 0.53814 0.0
H1987 H 0.89864 0.374 0.5375 0.0
H1988 H 0.86909 0.39947 0.51464 0.0
H1989 H 0.84268 0.43385 0.58012 0.0
H1990 H 0.87232 0.40804 0.60346 0.0
H1991 H 0.85114 0.46732 0.53391 0.0
H1992 H 0.80663 0.39576 0.56553 0.0
H1993 H 0.80198 0.35087 0.57552 0.0
H1994 H 0.8091 0.3316 0.50086 0.0
H1995 H 0.81428 0.37637 0.49048 0.0
C1996 C 0.74939 0.48653 0.4648 0.0
C1997 C 0.74757 0.47207 0.44363 0.0
C1998 C 0.76814 0.48146 0.4818 0.0
C1999 C 0.78546 0.46206 0.47772 0.0
C2000 C 0.78506 0.44924 0.45573 0.0
C2001 C 0.76635 0.4541 0.43892 0.0
C2002 C 0.80186 0.45256 0.49719 0.0
C2003 C 0.79887 0.42737 0.50404 0.0
C2004 C 0.82032 0.46748 0.50862 0.0
C2005 C 0.82452 0.49409 0.50191 0.0
C2006 C 0.82993 0.50075 0.47799 0.0
C2007 C 0.83392 0.5259 0.47185 0.0
C2008 C 0.83272 0.54454 0.4895 0.0
C2009 C 0.8276 0.53805 0.51335 0.0
C2010 C 0.82358 0.51293 0.51959 0.0
C2011 C 0.88674 0.38709 0.54712 0.0
C2012 C 0.88753 0.38879 0.57231 0.0
C2013 C 0.86999 0.40173 0.53399 0.0
C2014 C 0.8538 0.41843 0.54576 0.0
C2015 C 0.8552 0.4211 0.57081 0.0
C2016 C 0.87194 0.40623 0.58406 0.0
C2017 C 0.83386 0.43083 0.53169 0.0
C2018 C 0.8361 0.45639 0.52594 0.0
C2019 C 0.81458 0.41634 0.52116 0.0
C2020 C 0.81104 0.38941 0.52726 0.0
C2021 C 0.80741 0.38194 0.55127 0.0
C2022 C 0.80465 0.35652 0.557 0.0
C2023 C 0.80529 0.33839 0.53884 0.0
C2024 C 0.80863 0.34566 0.51491 0.0
C2025 C 0.81145 0.37106 0.50909 0.0
H2026 H 0.80316 0.31872 0.54332 0.0
H2027 H 0.83583 0.564 0.48471 0.0
H2028 H 0.05191 0.77209 0.41405 0.0
H2029 H 0.05866 0.80659 0.44152 0.0
H2030 H 0.00689 0.77375 0.49203 0.0
H2031 H 0.99871 0.73932 0.46391 0.0
H2032 H 0.01416 0.83274 0.49189 0.0
H2033 H 0.058 0.75218 0.50093 0.0
H2034 H 0.07962 0.71571 0.48296 0.0
H2035 H 0.13439 0.76477 0.4513 0.0
H2036 H 0.113 0.80153 0.46892 0.0
H2037 H 0.08821 0.87686 0.5946 0.0
H2038 H 0.06224 0.84998 0.56849 0.0
H2039 H 0.11183 0.86527 0.50894 0.0
H2040 H 0.13738 0.89227 0.53455 0.0
H2041 H 0.10155 0.81346 0.51726 0.0
H2042 H 0.06069 0.89329 0.50865 0.0
H2043 H 0.03919 0.93136 0.52304 0.0
H2044 H 0.97891 0.88638 0.55088 0.0
H2045 H 0.00048 0.84787 0.53727 0.0
C2046 C 0.04073 0.77262 0.4303 0.0
C2047 C 0.02518 0.75235 0.43692 0.0
C2048 C 0.04476 0.79251 0.44609 0.0
C2049 C 0.03365 0.79241 0.46893 0.0
C2050 C 0.0157 0.77405 0.47448 0.0
C2051 C 0.01136 0.7542 0.45849 0.0
C2052 C 0.04543 0.80738 0.48825 0.0
C2053 C 0.03304 0.82834 0.49789 0.0
C2054 C 0.0702 0.80172 0.49569 0.0
C2055 C 0.0839 0.77957 0.48621 0.0
C2056 C 0.07469 0.75516 0.49015 0.0
C2057 C 0.0869 0.73445 0.48004 0.0
C2058 C 0.10846 0.73791 0.46611 0.0
C2059 C 0.11783 0.76209 0.46225 0.0
C2060 C 0.1057 0.78287 0.47233 0.0
C2061 C 0.0935 0.8744 0.57594 0.0
C2062 C 0.1148 0.88655 0.56657 0.0
C2063 C 0.07863 0.85922 0.56107 0.0
C2064 C 0.08516 0.85577 0.53683 0.0
C2065 C 0.10651 0.86775 0.5276 0.0
C2066 C 0.12105 0.88317 0.54225 0.0
C2067 C 0.07044 0.83907 0.52096 0.0
C2068 C 0.08242 0.81767 0.51183 0.0
C2069 C 0.04542 0.84452 0.51404 0.0
C2070 C 0.03241 0.86763 0.52226 0.0
C2071 C 0.04302 0.89145 0.51813 0.0
C2072 C 0.03078 0.91314 0.52608 0.0
C2073 C 0.00769 0.91132 0.53787 0.0
C2074 C 0.99682 0.88777 0.54177 0.0
C2075 C 0.00908 0.86599 0.53398 0.0
H2076 H 0.99819 0.92814 0.54393 0.0
H2077 H 0.1179 0.72186 0.45829 0.0
H2078 H 0.60152 0.1154 0.5406 0.0
H2079 H 0.62738 0.084 0.52062 0.0
H2080 H 0.66319 0.06615 0.58809 0.0
H2081 H 0.63708 0.0978 0.60841 0.0
H2082 H 0.69704 0.0741 0.55224 0.0
H2083 H 0.62559 0.02379 0.56343 0.0
H2084 H 0.58117 0.0108 0.56385 0.0
H2085 H 0.57783 0.01798 0.48704 0.0
H2086 H 0.62202 0.03158 0.48613 0.0
H2087 H 0.76768 0.99094 0.47987 0.0
H2088 H 0.73493 0.99687 0.51014 0.0
H2089 H 0.69325 0.04327 0.46082 0.0
H2090 H 0.72634 0.03934 0.4313 0.0
H2091 H 0.66323 0.01053 0.49548 0.0
H2092 H 0.7305 0.07413 0.48922 0.0
H2093 H 0.7755 0.08511 0.48812 0.0
H2094 H 0.78612 0.05055 0.55717 0.0
H2095 H 0.74121 0.0389 0.55839 0.0
C2096 C 0.61482 0.10476 0.55127 0.0
C2097 C 0.61742 0.10916 0.57605 0.0
C2098 C 0.62941 0.08661 0.53985 0.0
C2099 C 0.64695 0.07248 0.55292 0.0
C2100 C 0.64959 0.07673 0.57773 0.0
C2101 C 0.63474 0.09481 0.58927 0.0
C2102 C 0.66376 0.0549 0.53996 0.0
C2103 C 0.68967 0.05966 0.54042 0.0
C2104 C 0.65415 0.0362 0.52433 0.0
C2105 C 0.62722 0.02879 0.52473 0.0
C2106 C 0.61533 0.0229 0.54663 0.0
C2107 C 0.59018 0.01538 0.54696 0.0
C2108 C 0.57672 0.01347 0.52549 0.0
C2109 C 0.58829 0.01938 0.50366 0.0
C2110 C 0.61341 0.027 0.50323 0.0
C2111 C 0.75143 0.00216 0.47524 0.0
C2112 C 0.75028 0.01526 0.45322 0.0
C2113 C 0.73256 0.00519 0.4925 0.0
C2114 C 0.7119 0.02071 0.48771 0.0
C2115 C 0.70906 0.03112 0.46476 0.0
C2116 C 0.72816 0.02869 0.44776 0.0
C2117 C 0.69608 0.03036 0.50746 0.0
C2118 C 0.67048 0.02432 0.50805 0.0
C2119 C 0.70588 0.0478 0.52417 0.0
C2120 C 0.73265 0.05539 0.52377 0.0
C2121 C 0.74249 0.06871 0.50408 0.0
C2122 C 0.76796 0.07506 0.50343 0.0
C2123 C 0.78368 0.06847 0.52254 0.0
C2124 C 0.77393 0.05559 0.54236 0.0
C2125 C 0.74848 0.04909 0.54303 0.0
H2126 H 0.8034 0.0734 0.52201 0.0
H2127 H 0.5574 0.00725 0.52579 0.0
H2128 H 0.81886 0.33603 0.13739 0.0
H2129 H 0.80263 0.29509 0.15034 0.0
H2130 H 0.7357 0.3072 0.10811 0.0
H2131 H 0.75118 0.3483 0.09622 0.0
H2132 H 0.7234 0.28294 0.14674 0.0
H2133 H 0.78928 0.27482 0.0864 0.0
H2134 H 0.83237 0.28004 0.07084 0.0
H2135 H 0.8614 0.23784 0.1305 0.0
H2136 H 0.81846 0.23264 0.14655 0.0
H2137 H 0.69251 0.17357 0.08216 0.0
H2138 H 0.70821 0.21399 0.09688 0.0
H2139 H 0.74558 0.1762 0.15543 0.0
H2140 H 0.72882 0.13557 0.14099 0.0
H2141 H 0.77603 0.21053 0.12193 0.0
H2142 H 0.70534 0.21 0.17442 0.0
H2143 H 0.66086 0.20411 0.18539 0.0
H2144 H 0.63939 0.26218 0.13591 0.0
H2145 H 0.6837 0.26817 0.12434 0.0
C2146 C 0.80043 0.33021 0.13139 0.0
C2147 C 0.78653 0.34523 0.11537 0.0
C2148 C 0.79125 0.3067 0.13864 0.0
C2149 C 0.76816 0.29776 0.1298 0.0
C2150 C 0.75362 0.31351 0.11511 0.0
C2151 C 0.76265 0.33695 0.10806 0.0
C2152 C 0.75977 0.2714 0.13378 0.0
C2153 C 0.73499 0.26711 0.14148 0.0
C2154 C 0.77501 0.25057 0.12748 0.0
C2155 C 0.80076 0.25365 0.11783 0.0
C2156 C 0.80489 0.26682 0.09627 0.0
C2157 C 0.82927 0.26975 0.08736 0.0
C2158 C 0.84962 0.25936 0.09972 0.0
C2159 C 0.84563 0.24594 0.12098 0.0
C2160 C 0.82128 0.243 0.13 0.0
C2161 C 0.70362 0.17406 0.09843 0.0
C2162 C 0.70942 0.15173 0.11055 0.0
C2163 C 0.71256 0.19703 0.10683 0.0
C2164 C 0.72795 0.19803 0.12727 0.0
C2165 C 0.73357 0.17576 0.13971 0.0
C2166 C 0.724 0.15271 0.13157 0.0
C2167 C 0.73949 0.22234 0.13399 0.0
C2168 C 0.76479 0.22627 0.12812 0.0
C2169 C 0.72459 0.24286 0.14148 0.0
C2170 C 0.69788 0.23945 0.14844 0.0
C2171 C 0.69112 0.22139 0.16573 0.0
C2172 C 0.66594 0.21806 0.17209 0.0
C2173 C 0.64731 0.23275 0.16134 0.0
C2174 C 0.65384 0.25083 0.14423 0.0
C2175 C 0.679 0.25423 0.1378 0.0
H2176 H 0.62782 0.23014 0.16628 0.0
H2177 H 0.86848 0.26164 0.09278 0.0
H2178 H 0.14259 0.7681 0.09345 0.0
H2179 H 0.17911 0.74604 0.10913 0.0
H2180 H 0.1915 0.80573 0.16027 0.0
H2181 H 0.15472 0.82823 0.14411 0.0
H2182 H 0.23379 0.79472 0.13604 0.0
H2183 H 0.17622 0.7473 0.18137 0.0
H2184 H 0.13734 0.72382 0.18988 0.0
H2185 H 0.15773 0.6684 0.13731 0.0
H2186 H 0.19675 0.69157 0.12842 0.0
H2187 H 0.34386 0.71987 0.1533 0.0
H2188 H 0.30384 0.7383 0.16714 0.0
H2189 H 0.26519 0.70153 0.10873 0.0
H2190 H 0.30502 0.68366 0.09491 0.0
H2191 H 0.23659 0.70298 0.1517 0.0
H2192 H 0.28731 0.75853 0.10029 0.0
H2193 H 0.32571 0.78274 0.09134 0.0
H2194 H 0.31707 0.82373 0.15734 0.0
H2195 H 0.27879 0.79947 0.1668 0.0
C2196 C 0.15294 0.77643 0.10819 0.0
C2197 C 0.146 0.79997 0.11742 0.0
C2198 C 0.17366 0.76366 0.11737 0.0
C2199 C 0.18796 0.77406 0.1361 0.0
C2200 C 0.18064 0.79727 0.14593 0.0
C2201 C 0.15963 0.81004 0.13679 0.0
C2202 C 0.21181 0.76157 0.14327 0.0
C2203 C 0.23438 0.77484 0.14031 0.0
C2204 C 0.21267 0.7356 0.14872 0.0
C2205 C 0.18944 0.72124 0.1542 0.0
C2206 C 0.1724 0.73014 0.17156 0.0
C2207 C 0.15033 0.71687 0.17647 0.0
C2208 C 0.14502 0.69467 0.16409 0.0
C2209 C 0.16188 0.6856 0.1469 0.0
C2210 C 0.18404 0.69874 0.14199 0.0
C2211 C 0.32661 0.71522 0.14401 0.0
C2212 C 0.32727 0.70046 0.12311 0.0
C2213 C 0.30385 0.72576 0.1518 0.0
C2214 C 0.28156 0.72136 0.13887 0.0
C2215 C 0.28209 0.70507 0.11905 0.0
C2216 C 0.30477 0.69494 0.11112 0.0
C2217 C 0.25832 0.73599 0.14356 0.0
C2218 C 0.23593 0.72308 0.14853 0.0
C2219 C 0.25759 0.76234 0.14018 0.0
C2220 C 0.28044 0.777 0.13439 0.0
C2221 C 0.29373 0.77258 0.11296 0.0
C2222 C 0.31544 0.78632 0.10779 0.0
C2223 C 0.32387 0.8047 0.1238 0.0
C2224 C 0.31056 0.80944 0.14498 0.0
C2225 C 0.28886 0.7957 0.15026 0.0
H2226 H 0.34068 0.81533 0.11976 0.0
H2227 H 0.12786 0.6845 0.16784 0.0
H2228 H 0.66547 0.3313 0.37827 0.0
H2229 H 0.67578 0.28706 0.37008 0.0
H2230 H 0.75476 0.30478 0.37386 0.0
H2231 H 0.74442 0.34875 0.38239 0.0
H2232 H 0.74203 0.26914 0.33677 0.0
H2233 H 0.72806 0.28543 0.42209 0.0
H2234 H 0.70317 0.29905 0.45715 0.0
H2235 H 0.64613 0.245 0.43978 0.0
H2236 H 0.67049 0.23139 0.40433 0.0
H2237 H 0.80861 0.16188 0.37752 0.0
H2238 H 0.78944 0.20222 0.36685 0.0
H2239 H 0.71592 0.17129 0.38098 0.0
H2240 H 0.73531 0.13139 0.39257 0.0
H2241 H 0.71993 0.21206 0.404 0.0
H2242 H 0.7361 0.19013 0.32306 0.0
H2243 H 0.76038 0.17519 0.28814 0.0
H2244 H 0.81088 0.23761 0.2953 0.0
H2245 H 0.78715 0.25275 0.33051 0.0
C2246 C 0.68497 0.32576 0.37669 0.0
C2247 C 0.70421 0.34326 0.38096 0.0
C2248 C 0.69085 0.30056 0.37211 0.0
C2249 C 0.71605 0.29267 0.37142 0.0
C2250 C 0.73522 0.3105 0.3742 0.0
C2251 C 0.72934 0.33552 0.37918 0.0
C2252 C 0.72264 0.26562 0.37055 0.0
C2253 C 0.73724 0.25655 0.35141 0.0
C2254 C 0.71576 0.24912 0.38934 0.0
C2255 C 0.70094 0.25761 0.41041 0.0
C2256 C 0.71008 0.27665 0.4256 0.0
C2257 C 0.69611 0.28431 0.44558 0.0
C2258 C 0.67311 0.27286 0.45072 0.0
C2259 C 0.66399 0.25379 0.43582 0.0
C2260 C 0.67783 0.24614 0.41575 0.0
C2261 C 0.78834 0.16361 0.37769 0.0
C2262 C 0.77338 0.14371 0.38594 0.0
C2263 C 0.77734 0.18663 0.37154 0.0
C2264 C 0.75114 0.18989 0.37302 0.0
C2265 C 0.73614 0.16938 0.37983 0.0
C2266 C 0.74718 0.14659 0.3864 0.0
C2267 C 0.73971 0.21528 0.37027 0.0
C2268 C 0.72429 0.22422 0.38891 0.0
C2269 C 0.74558 0.23145 0.35082 0.0
C2270 C 0.7599 0.2225 0.32956 0.0
C2271 C 0.75248 0.20059 0.31731 0.0
C2272 C 0.76614 0.19209 0.29744 0.0
C2273 C 0.78718 0.20542 0.28953 0.0
C2274 C 0.79458 0.22731 0.30145 0.0
C2275 C 0.78101 0.23587 0.32135 0.0
H2276 H 0.79773 0.19882 0.27414 0.0
H2277 H 0.6623 0.27882 0.46618 0.0
H2278 H 0.36133 0.74536 0.40918 0.0
H2279 H 0.32122 0.72764 0.39594 0.0
H2280 H 0.3029 0.79756 0.3609 0.0
H2281 H 0.34308 0.81538 0.37419 0.0
H2282 H 0.26713 0.78112 0.39423 0.0
H2283 H 0.31325 0.74704 0.32735 0.0
H2284 H 0.34803 0.7235 0.30862 0.0
H2285 H 0.32517 0.65663 0.34581 0.0
H2286 H 0.29048 0.67984 0.36504 0.0
H2287 H 0.14834 0.74393 0.36037 0.0
H2288 H 0.19198 0.75688 0.35374 0.0
H2289 H 0.2176 0.68566 0.3816 0.0
H2290 H 0.17369 0.6724 0.38708 0.0
H2291 H 0.25028 0.7031 0.34809 0.0
H2292 H 0.21164 0.7345 0.4194 0.0
H2293 H 0.17873 0.75515 0.44343 0.0
H2294 H 0.1895 0.82358 0.40382 0.0
H2295 H 0.2225 0.80322 0.37944 0.0
C2296 C 0.34886 0.75681 0.39838 0.0
C2297 C 0.35516 0.7818 0.39286 0.0
C2298 C 0.32609 0.74661 0.39064 0.0
C2299 C 0.30915 0.76125 0.37735 0.0
C2300 C 0.31581 0.78592 0.37103 0.0
C2301 C 0.33875 0.79604 0.37854 0.0
C2302 C 0.28343 0.75182 0.37258 0.0
C2303 C 0.2634 0.76442 0.38362 0.0
C2304 C 0.27876 0.72936 0.35971 0.0
C2305 C 0.29935 0.71525 0.34778 0.0
C2306 C 0.31573 0.72736 0.33166 0.0
C2307 C 0.33542 0.71406 0.32093 0.0
C2308 C 0.33884 0.6886 0.32608 0.0
C2309 C 0.3225 0.67635 0.34185 0.0
C2310 C 0.3028 0.68956 0.35264 0.0
C2311 C 0.16337 0.73081 0.36417 0.0
C2312 C 0.15794 0.70725 0.37409 0.0
C2313 C 0.18823 0.73819 0.36056 0.0
C2314 C 0.20809 0.72245 0.36767 0.0
C2315 C 0.20262 0.69811 0.37597 0.0
C2316 C 0.17763 0.69053 0.37908 0.0
C2317 C 0.23401 0.73267 0.36947 0.0
C2318 C 0.25402 0.72011 0.35822 0.0
C2319 C 0.23894 0.75483 0.38274 0.0
C2320 C 0.21932 0.76728 0.39745 0.0
C2321 C 0.20688 0.75392 0.41573 0.0
C2322 C 0.18822 0.76557 0.42942 0.0
C2323 C 0.18191 0.79065 0.42508 0.0
C2324 C 0.19437 0.80415 0.40712 0.0
C2325 C 0.21309 0.79257 0.39339 0.0
H2326 H 0.16742 0.79964 0.43569 0.0
H2327 H 0.35414 0.67835 0.31784 0.0
H2328 H 0.32077 0.83842 0.88002 0.0
H2329 H 0.30528 0.79656 0.86918 0.0
H2330 H 0.22894 0.82359 0.87416 0.0
H2331 H 0.24461 0.86495 0.88618 0.0
H2332 H 0.23213 0.78423 0.89886 0.0
H2333 H 0.25787 0.8037 0.81914 0.0
H2334 H 0.2861 0.81814 0.78683 0.0
H2335 H 0.33779 0.75866 0.80328 0.0
H2336 H 0.31004 0.74405 0.83592 0.0
H2337 H 0.18241 0.66543 0.87072 0.0
H2338 H 0.19443 0.70873 0.8611 0.0
H2339 H 0.27194 0.69087 0.8758 0.0
H2340 H 0.25998 0.64758 0.88539 0.0
H2341 H 0.26448 0.72605 0.83644 0.0
H2342 H 0.23981 0.71162 0.91988 0.0
H2343 H 0.21017 0.69687 0.95092 0.0
H2344 H 0.15423 0.74821 0.92486 0.0
H2345 H 0.18344 0.76298 0.8934 0.0
C2346 C 0.30075 0.83544 0.87813 0.0
C2347 C 0.28381 0.85469 0.88389 0.0
C2348 C 0.29185 0.81157 0.87188 0.0
C2349 C 0.26585 0.80682 0.8707 0.0
C2350 C 0.24903 0.82665 0.87505 0.0
C2351 C 0.25793 0.85027 0.8818 0.0
C2352 C 0.25618 0.78076 0.86776 0.0
C2353 C 0.23883 0.77181 0.88479 0.0
C2354 C 0.26516 0.76419 0.84974 0.0
C2355 C 0.28193 0.77289 0.83012 0.0
C2356 C 0.27534 0.79381 0.816 0.0
C2357 C 0.29125 0.802 0.7976 0.0
C2358 C 0.31375 0.78936 0.79304 0.0
C2359 C 0.32036 0.76845 0.80684 0.0
C2360 C 0.30453 0.76018 0.82528 0.0
C2361 C 0.20208 0.67056 0.87116 0.0
C2362 C 0.22027 0.65329 0.87904 0.0
C2363 C 0.20891 0.69528 0.86574 0.0
C2364 C 0.23403 0.70299 0.86794 0.0
C2365 C 0.25247 0.68526 0.87396 0.0
C2366 C 0.24561 0.66065 0.87962 0.0
C2367 C 0.24065 0.72998 0.86745 0.0
C2368 C 0.25751 0.73889 0.85004 0.0
C2369 C 0.23105 0.7467 0.88491 0.0
C2370 C 0.2137 0.7382 0.90414 0.0
C2371 C 0.22113 0.71964 0.92068 0.0
C2372 C 0.20442 0.71129 0.93835 0.0
C2373 C 0.18031 0.72155 0.93982 0.0
C2374 C 0.1729 0.74025 0.92367 0.0
C2375 C 0.18952 0.74862 0.90592 0.0
H2376 H 0.16741 0.71506 0.95352 0.0
H2377 H 0.32603 0.79573 0.77879 0.0
H2378 H 0.83731 0.1859 0.86777 0.0
H2379 H 0.7986 0.20778 0.85623 0.0
H2380 H 0.82876 0.27711 0.8843 0.0
H2381 H 0.86694 0.25501 0.89646 0.0
H2382 H 0.78643 0.27039 0.90332 0.0
H2383 H 0.81411 0.26914 0.82325 0.0
H2384 H 0.83117 0.25348 0.78486 0.0
H2385 H 0.76864 0.20313 0.77773 0.0
H2386 H 0.7513 0.21825 0.81622 0.0
H2387 H 0.67238 0.33369 0.8756 0.0
H2388 H 0.71584 0.32175 0.86573 0.0
H2389 H 0.69528 0.24353 0.86951 0.0
H2390 H 0.65213 0.25548 0.88009 0.0
H2391 H 0.73421 0.2611 0.82997 0.0
H2392 H 0.71358 0.26126 0.91712 0.0
H2393 H 0.69664 0.28307 0.95275 0.0
H2394 H 0.74928 0.34322 0.94239 0.0
H2395 H 0.76622 0.32191 0.90642 0.0
C2396 C 0.83584 0.20593 0.87085 0.0
C2397 C 0.85489 0.21874 0.88327 0.0
C2398 C 0.81375 0.2185 0.8642 0.0
C2399 C 0.81059 0.24418 0.86947 0.0
C2400 C 0.83053 0.25729 0.88025 0.0
C2401 C 0.85234 0.24467 0.8872 0.0
C2402 C 0.78555 0.25646 0.86683 0.0
C2403 C 0.77539 0.26874 0.887 0.0
C2404 C 0.77084 0.25444 0.84565 0.0
C2405 C 0.7815 0.24469 0.8228 0.0
C2406 C 0.80412 0.25452 0.81366 0.0
C2407 C 0.81381 0.24579 0.79183 0.0
C2408 C 0.80103 0.22728 0.77891 0.0
C2409 C 0.77853 0.21745 0.78778 0.0
C2410 C 0.76874 0.22612 0.80959 0.0
C2411 C 0.67706 0.31401 0.87353 0.0
C2412 C 0.6591 0.29544 0.87859 0.0
C2413 C 0.70179 0.30722 0.86791 0.0
C2414 C 0.70868 0.28176 0.8668 0.0
C2415 C 0.69026 0.26325 0.87002 0.0
C2416 C 0.66573 0.27004 0.87618 0.0
C2417 C 0.7355 0.27435 0.86646 0.0
C2418 C 0.74575 0.26296 0.84594 0.0
C2419 C 0.75069 0.27776 0.88701 0.0
C2420 C 0.74097 0.29015 0.90899 0.0
C2421 C 0.72141 0.27922 0.92236 0.0
C2422 C 0.71182 0.29147 0.94261 0.0
C2423 C 0.72183 0.31455 0.9498 0.0
C2424 C 0.74152 0.32537 0.93678 0.0
C2425 C 0.75112 0.31321 0.91647 0.0
H2426 H 0.71439 0.32402 0.96548 0.0
H2427 H 0.80853 0.2206 0.76199 0.0
H2428 H 0.32401 0.66303 0.63827 0.0
H2429 H 0.31047 0.70501 0.65096 0.0
H2430 H 0.23543 0.68888 0.62596 0.0
H2431 H 0.24871 0.6469 0.61407 0.0
H2432 H 0.29619 0.73987 0.62161 0.0
H2433 H 0.19204 0.72337 0.652 0.0
H2434 H 0.16854 0.69298 0.67675 0.0
H2435 H 0.23601 0.67399 0.71493 0.0
H2436 H 0.25989 0.70447 0.69064 0.0
H2437 H 0.21775 0.83141 0.5793 0.0
H2438 H 0.23532 0.79148 0.59233 0.0
H2439 H 0.22806 0.81429 0.66644 0.0
H2440 H 0.21002 0.85473 0.65325 0.0
H2441 H 0.21537 0.7642 0.65952 0.0
H2442 H 0.28479 0.8167 0.64208 0.0
H2443 H 0.30909 0.84768 0.61875 0.0
H2444 H 0.3143 0.79585 0.55981 0.0
H2445 H 0.28971 0.76467 0.58264 0.0
C2446 C 0.30446 0.6682 0.63624 0.0
C2447 C 0.28747 0.65181 0.62492 0.0
C2448 C 0.29677 0.69224 0.64336 0.0
C2449 C 0.2719 0.70018 0.63949 0.0
C2450 C 0.25461 0.68319 0.62953 0.0
C2451 C 0.26228 0.65926 0.62244 0.0
C2452 C 0.26466 0.72698 0.64256 0.0
C2453 C 0.27875 0.74522 0.63029 0.0
C2454 C 0.24221 0.73421 0.65438 0.0
C2455 C 0.22779 0.7162 0.6694 0.0
C2456 C 0.20185 0.71288 0.6658 0.0
C2457 C 0.18846 0.69557 0.67972 0.0
C2458 C 0.20078 0.68154 0.69738 0.0
C2459 C 0.2265 0.68484 0.70121 0.0
C2460 C 0.23998 0.70209 0.68734 0.0
C2461 C 0.21993 0.828 0.59838 0.0
C2462 C 0.21295 0.84633 0.61527 0.0
C2463 C 0.22995 0.80515 0.60582 0.0
C2464 C 0.23357 0.80014 0.63033 0.0
C2465 C 0.2256 0.8179 0.64742 0.0
C2466 C 0.21531 0.84089 0.63991 0.0
C2467 C 0.24624 0.77644 0.63746 0.0
C2468 C 0.23318 0.75889 0.65154 0.0
C2469 C 0.26994 0.7699 0.62774 0.0
C2470 C 0.28534 0.78833 0.6141 0.0
C2471 C 0.29105 0.81192 0.62412 0.0
C2472 C 0.30487 0.82953 0.61097 0.0
C2473 C 0.31323 0.82374 0.58781 0.0
C2474 C 0.30785 0.80029 0.57778 0.0
C2475 C 0.29401 0.78262 0.59084 0.0
H2476 H 0.32388 0.83742 0.57764 0.0
H2477 H 0.19039 0.66811 0.70809 0.0
H2478 H 0.83651 0.31789 0.63961 0.0
H2479 H 0.79697 0.29839 0.65256 0.0
H2480 H 0.82638 0.22543 0.63372 0.0
H2481 H 0.86544 0.24504 0.62025 0.0
H2482 H 0.78527 0.23242 0.61124 0.0
H2483 H 0.8093 0.24008 0.69243 0.0
H2484 H 0.82483 0.25907 0.73001 0.0
H2485 H 0.76324 0.31114 0.72969 0.0
H2486 H 0.74748 0.29266 0.69192 0.0
H2487 H 0.67094 0.17217 0.63586 0.0
H2488 H 0.71345 0.18474 0.64813 0.0
H2489 H 0.69256 0.26267 0.64135 0.0
H2490 H 0.65026 0.25007 0.62861 0.0
H2491 H 0.73022 0.24844 0.68158 0.0
H2492 H 0.71277 0.24208 0.59464 0.0
H2493 H 0.697 0.21866 0.55948 0.0
H2494 H 0.74892 0.15885 0.57422 0.0
H2495 H 0.76466 0.18179 0.60976 0.0
C2496 C 0.8347 0.29764 0.63898 0.0
C2497 C 0.85378 0.28294 0.6287 0.0
C2498 C 0.81216 0.28647 0.64643 0.0
C2499 C 0.80859 0.26039 0.64402 0.0
C2500 C 0.82855 0.24558 0.63558 0.0
C2501 C 0.85084 0.25675 0.62788 0.0
C2502 C 0.78313 0.24915 0.64657 0.0
C2503 C 0.77358 0.23553 0.62695 0.0
C2504 C 0.76755 0.25334 0.66685 0.0
C2505 C 0.77733 0.26512 0.68917 0.0
C2506 C 0.79922 0.25578 0.70019 0.0
C2507 C 0.80802 0.2664 0.72159 0.0
C2508 C 0.79506 0.28633 0.73221 0.0
C2509 C 0.77328 0.29571 0.72143 0.0
C2510 C 0.76438 0.28515 0.70004 0.0
C2511 C 0.67523 0.19193 0.63786 0.0
C2512 C 0.65757 0.21021 0.63114 0.0
C2513 C 0.69944 0.1991 0.64486 0.0
C2514 C 0.70609 0.22462 0.64559 0.0
C2515 C 0.68772 0.2429 0.64107 0.0
C2516 C 0.6637 0.23573 0.63364 0.0
C2517 C 0.73285 0.2321 0.64631 0.0
C2518 C 0.74238 0.24511 0.66627 0.0
C2519 C 0.74876 0.22699 0.62659 0.0
C2520 C 0.73966 0.21349 0.60497 0.0
C2521 C 0.72066 0.22385 0.59048 0.0
C2522 C 0.71175 0.21068 0.57048 0.0
C2523 C 0.7219 0.18724 0.56466 0.0
C2524 C 0.74104 0.17698 0.57878 0.0
C2525 C 0.74996 0.19005 0.59885 0.0
H2526 H 0.71498 0.17707 0.54917 0.0
H2527 H 0.80186 0.29446 0.74882 0.0
loop_
_geom_bond_atom_site_label_1
_geom_bond_atom_site_label_2
_geom_bond_distance
_geom_bond_site_symmetry_2
_ccdc_geom_bond_type
Co0 N4 2.148 . S
Co0 N10 2.128 . S
Co0 N20 2.194 . S
Co0 O25 2.351 . S
Co0 O26 2.155 . S
Co0 O27 2.096 . S
C1 N4 1.301 . S
C1 N5 1.328 . S
C1 H6 0.930 . S
C2 C3 1.333 . S
C2 N4 1.317 . S
C2 H7 0.930 . S
C3 C2 1.333 . S
C3 N5 1.350 . S
C3 H29 0.931 . S
N4 Co0 2.148 . S
N4 C1 1.301 . S
N4 C2 1.317 . S
N5 C1 1.328 . S
N5 C3 1.350 . S
H6 C1 0.930 . S
H7 C2 0.930 . S
C8 O9 1.224 . S
C8 O27 1.247 . S
O9 C8 1.224 . S
N10 Co0 2.128 . S
N10 C11 1.355 . S
N10 C13 1.311 . S
C11 N10 1.355 . S
C11 C12 1.363 . S
C11 H23 0.929 . S
C12 C11 1.363 . S
C12 N14 1.375 . S
C12 H30 0.931 . S
C13 N10 1.311 . S
C13 N14 1.347 . S
C13 H24 0.929 . S
N14 C12 1.375 . S
N14 C13 1.347 . S
C15 C18 1.365 . S
C15 N20 1.328 . S
C15 H21 0.929 . S
C16 C17 1.362 . S
C16 C19 1.378 . S
C16 H31 0.929 . S
C17 C16 1.362 . S
C17 C18 1.366 . S
C18 C15 1.365 . S
C18 C17 1.366 . S
C18 H32 0.930 . S
C19 C16 1.378 . S
C19 N20 1.315 . S
C19 H22 0.930 . S
N20 Co0 2.194 . S
N20 C15 1.328 . S
N20 C19 1.315 . S
H21 C15 0.929 . S
H22 C19 0.930 . S
H23 C11 0.929 . S
H24 C13 0.929 . S
O25 Co0 2.351 . S
O25 C28 1.244 . S
O26 Co0 2.155 . S
O26 C28 1.240 . S
O27 Co0 2.096 . S
O27 C8 1.247 . S
C28 O25 1.244 . S
C28 O26 1.240 . S
H29 C3 0.931 . S
H30 C12 0.931 . S
H31 C16 0.929 . S
H32 C18 0.930 . S
Co33 N37 2.148 . S
Co33 N43 2.128 . S
Co33 N53 2.194 . S
Co33 O58 2.351 . S
Co33 O59 2.155 . S
Co33 O60 2.096 . S
C34 N37 1.301 . S
C34 N38 1.328 . S
C34 H39 0.930 . S
C35 C36 1.333 . S
C35 N37 1.317 . S
C35 H40 0.930 . S
C36 C35 1.333 . S
C36 N38 1.350 . S
C36 H62 0.931 . S
N37 Co33 2.148 . S
N37 C34 1.301 . S
N37 C35 1.317 . S
N38 C34 1.328 . S
N38 C36 1.350 . S
H39 C34 0.930 . S
H40 C35 0.930 . S
C41 O42 1.224 . S
C41 O60 1.247 . S
O42 C41 1.224 . S
N43 Co33 2.128 . S
N43 C44 1.355 . S
N43 C46 1.311 . S
C44 N43 1.355 . S
C44 C45 1.363 . S
C44 H56 0.929 . S
C45 C44 1.363 . S
C45 N47 1.375 . S
C45 H63 0.931 . S
C46 N43 1.311 . S
C46 N47 1.347 . S
C46 H57 0.929 . S
N47 C45 1.375 . S
N47 C46 1.347 . S
C48 C51 1.365 . S
C48 N53 1.328 . S
C48 H54 0.929 . S
C49 C50 1.362 . S
C49 C52 1.378 . S
C49 H64 0.929 . S
C50 C49 1.362 . S
C50 C51 1.366 . S
C51 C48 1.365 . S
C51 C50 1.366 . S
C51 H65 0.930 . S
C52 C49 1.378 . S
C52 N53 1.315 . S
C52 H55 0.930 . S
N53 Co33 2.194 . S
N53 C48 1.328 . S
N53 C52 1.315 . S
H54 C48 0.929 . S
H55 C52 0.930 . S
H56 C44 0.929 . S
H57 C46 0.929 . S
O58 Co33 2.351 . S
O58 C61 1.244 . S
O59 Co33 2.155 . S
O59 C61 1.240 . S
O60 Co33 2.096 . S
O60 C41 1.247 . S
C61 O58 1.244 . S
C61 O59 1.240 . S
H62 C36 0.931 . S
H63 C45 0.931 . S
H64 C49 0.929 . S
H65 C51 0.930 . S
Co66 N70 2.148 . S
Co66 N76 2.128 . S
Co66 N86 2.194 . S
Co66 O91 2.351 . S
Co66 O92 2.155 . S
Co66 O93 2.096 . S
C67 N70 1.301 . S
C67 N71 1.328 . S
C67 H72 0.930 . S
C68 C69 1.333 . S
C68 N70 1.317 . S
C68 H73 0.930 . S
C69 C68 1.333 . S
C69 N71 1.350 . S
C69 H95 0.931 . S
N70 Co66 2.148 . S
N70 C67 1.301 . S
N70 C68 1.317 . S
N71 C67 1.328 . S
N71 C69 1.350 . S
H72 C67 0.930 . S
H73 C68 0.930 . S
C74 O75 1.224 . S
C74 O93 1.247 . S
O75 C74 1.224 . S
N76 Co66 2.128 . S
N76 C77 1.355 . S
N76 C79 1.311 . S
C77 N76 1.355 . S
C77 C78 1.363 . S
C77 H89 0.929 . S
C78 C77 1.363 . S
C78 N80 1.375 . S
C78 H96 0.931 . S
C79 N76 1.311 . S
C79 N80 1.347 . S
C79 H90 0.929 . S
N80 C78 1.375 . S
N80 C79 1.347 . S
C81 C84 1.365 . S
C81 N86 1.328 . S
C81 H87 0.929 . S
C82 C83 1.362 . S
C82 C85 1.378 . S
C82 H97 0.929 . S
C83 C82 1.362 . S
C83 C84 1.366 . S
C84 C81 1.365 . S
C84 C83 1.366 . S
C84 H98 0.930 . S
C85 C82 1.378 . S
C85 N86 1.315 . S
C85 H88 0.930 . S
N86 Co66 2.194 . S
N86 C81 1.328 . S
N86 C85 1.315 . S
H87 C81 0.929 . S
H88 C85 0.930 . S
H89 C77 0.929 . S
H90 C79 0.929 . S
O91 Co66 2.351 . S
O91 C94 1.244 . S
O92 Co66 2.155 . S
O92 C94 1.240 . S
O93 Co66 2.096 . S
O93 C74 1.247 . S
C94 O91 1.244 . S
C94 O92 1.240 . S
H95 C69 0.931 . S
H96 C78 0.931 . S
H97 C82 0.929 . S
H98 C84 0.930 . S
Co99 N103 2.148 . S
Co99 N109 2.128 . S
Co99 N119 2.194 . S
Co99 O124 2.351 . S
Co99 O125 2.155 . S
Co99 O126 2.096 . S
C100 N103 1.301 . S
C100 N104 1.328 . S
C100 H105 0.930 . S
C101 C102 1.333 . S
C101 N103 1.317 . S
C101 H106 0.930 . S
C102 C101 1.333 . S
C102 N104 1.350 . S
C102 H128 0.931 . S
N103 Co99 2.148 . S
N103 C100 1.301 . S
N103 C101 1.317 . S
N104 C100 1.328 . S
N104 C102 1.350 . S
H105 C100 0.930 . S
H106 C101 0.930 . S
C107 O108 1.224 . S
C107 O126 1.247 . S
O108 C107 1.224 . S
N109 Co99 2.128 . S
N109 C110 1.355 . S
N109 C112 1.311 . S
C110 N109 1.355 . S
C110 C111 1.363 . S
C110 H122 0.929 . S
C111 C110 1.363 . S
C111 N113 1.375 . S
C111 H129 0.931 . S
C112 N109 1.311 . S
C112 N113 1.347 . S
C112 H123 0.929 . S
N113 C111 1.375 . S
N113 C112 1.347 . S
C114 C117 1.365 . S
C114 N119 1.328 . S
C114 H120 0.929 . S
C115 C116 1.362 . S
C115 C118 1.378 . S
C115 H130 0.929 . S
C116 C115 1.362 . S
C116 C117 1.366 . S
C117 C114 1.365 . S
C117 C116 1.366 . S
C117 H131 0.930 . S
C118 C115 1.378 . S
C118 N119 1.315 . S
C118 H121 0.930 . S
N119 Co99 2.194 . S
N119 C114 1.328 . S
N119 C118 1.315 . S
H120 C114 0.929 . S
H121 C118 0.930 . S
H122 C110 0.929 . S
H123 C112 0.929 . S
O124 Co99 2.351 . S
O124 C127 1.244 . S
O125 Co99 2.155 . S
O125 C127 1.240 . S
O126 Co99 2.096 . S
O126 C107 1.247 . S
C127 O124 1.244 . S
C127 O125 1.240 . S
H128 C102 0.931 . S
H129 C111 0.931 . S
H130 C115 0.929 . S
H131 C117 0.930 . S
Co132 N136 2.148 . S
Co132 N142 2.128 . S
Co132 N152 2.194 . S
Co132 O157 2.351 . S
Co132 O158 2.155 . S
Co132 O159 2.096 . S
C133 N136 1.301 . S
C133 N137 1.328 . S
C133 H138 0.930 . S
C134 C135 1.333 . S
C134 N136 1.317 . S
C134 H139 0.930 . S
C135 C134 1.333 . S
C135 N137 1.350 . S
C135 H161 0.931 . S
N136 Co132 2.148 . S
N136 C133 1.301 . S
N136 C134 1.317 . S
N137 C133 1.328 . S
N137 C135 1.350 . S
H138 C133 0.930 . S
H139 C134 0.930 . S
C140 O141 1.224 . S
C140 O159 1.247 . S
O141 C140 1.224 . S
N142 Co132 2.128 . S
N142 C143 1.355 . S
N142 C145 1.311 . S
C143 N142 1.355 . S
C143 C144 1.363 . S
C143 H155 0.929 . S
C144 C143 1.363 . S
C144 N146 1.375 . S
C144 H162 0.931 . S
C145 N142 1.311 . S
C145 N146 1.347 . S
C145 H156 0.929 . S
N146 C144 1.375 . S
N146 C145 1.347 . S
C147 C150 1.365 . S
C147 N152 1.328 . S
C147 H153 0.929 . S
C148 C149 1.362 . S
C148 C151 1.378 . S
C148 H163 0.929 . S
C149 C148 1.362 . S
C149 C150 1.366 . S
C150 C147 1.365 . S
C150 C149 1.366 . S
C150 H164 0.930 . S
C151 C148 1.378 . S
C151 N152 1.315 . S
C151 H154 0.930 . S
N152 Co132 2.194 . S
N152 C147 1.328 . S
N152 C151 1.315 . S
H153 C147 0.929 . S
H154 C151 0.930 . S
H155 C143 0.929 . S
H156 C145 0.929 . S
O157 Co132 2.351 . S
O157 C160 1.244 . S
O158 Co132 2.155 . S
O158 C160 1.240 . S
O159 Co132 2.096 . S
O159 C140 1.247 . S
C160 O157 1.244 . S
C160 O158 1.240 . S
H161 C135 0.931 . S
H162 C144 0.931 . S
H163 C148 0.929 . S
H164 C150 0.930 . S
Co165 N169 2.148 . S
Co165 N175 2.128 . S
Co165 N185 2.194 . S
Co165 O190 2.351 . S
Co165 O191 2.155 . S
Co165 O192 2.096 . S
C166 N169 1.301 . S
C166 N170 1.328 . S
C166 H171 0.930 . S
C167 C168 1.333 . S
C167 N169 1.317 . S
C167 H172 0.930 . S
C168 C167 1.333 . S
C168 N170 1.350 . S
C168 H194 0.931 . S
N169 Co165 2.148 . S
N169 C166 1.301 . S
N169 C167 1.317 . S
N170 C166 1.328 . S
N170 C168 1.350 . S
H171 C166 0.930 . S
H172 C167 0.930 . S
C173 O174 1.224 . S
C173 O192 1.247 . S
O174 C173 1.224 . S
N175 Co165 2.128 . S
N175 C176 1.355 . S
N175 C178 1.311 . S
C176 N175 1.355 . S
C176 C177 1.363 . S
C176 H188 0.929 . S
C177 C176 1.363 . S
C177 N179 1.375 . S
C177 H195 0.931 . S
C178 N175 1.311 . S
C178 N179 1.347 . S
C178 H189 0.929 . S
N179 C177 1.375 . S
N179 C178 1.347 . S
C180 C183 1.365 . S
C180 N185 1.328 . S
C180 H186 0.929 . S
C181 C182 1.362 . S
C181 C184 1.378 . S
C181 H196 0.929 . S
C182 C181 1.362 . S
C182 C183 1.366 . S
C183 C180 1.365 . S
C183 C182 1.366 . S
C183 H197 0.930 . S
C184 C181 1.378 . S
C184 N185 1.315 . S
C184 H187 0.930 . S
N185 Co165 2.194 . S
N185 C180 1.328 . S
N185 C184 1.315 . S
H186 C180 0.929 . S
H187 C184 0.930 . S
H188 C176 0.929 . S
H189 C178 0.929 . S
O190 Co165 2.351 . S
O190 C193 1.244 . S
O191 Co165 2.155 . S
O191 C193 1.240 . S
O192 Co165 2.096 . S
O192 C173 1.247 . S
C193 O190 1.244 . S
C193 O191 1.240 . S
H194 C168 0.931 . S
H195 C177 0.931 . S
H196 C181 0.929 . S
H197 C183 0.930 . S
Co198 N202 2.148 . S
Co198 N208 2.128 . S
Co198 N218 2.194 . S
Co198 O223 2.351 . S
Co198 O224 2.155 . S
Co198 O225 2.096 . S
C199 N202 1.301 . S
C199 N203 1.328 . S
C199 H204 0.930 . S
C200 C201 1.333 . S
C200 N202 1.317 . S
C200 H205 0.930 . S
C201 C200 1.333 . S
C201 N203 1.350 . S
C201 H227 0.931 . S
N202 Co198 2.148 . S
N202 C199 1.301 . S
N202 C200 1.317 . S
N203 C199 1.328 . S
N203 C201 1.350 . S
H204 C199 0.930 . S
H205 C200 0.930 . S
C206 O207 1.224 . S
C206 O225 1.247 . S
O207 C206 1.224 . S
N208 Co198 2.128 . S
N208 C209 1.355 . S
N208 C211 1.311 . S
C209 N208 1.355 . S
C209 C210 1.363 . S
C209 H221 0.929 . S
C210 C209 1.363 . S
C210 N212 1.375 . S
C210 H228 0.931 . S
C211 N208 1.311 . S
C211 N212 1.347 . S
C211 H222 0.929 . S
N212 C210 1.375 . S
N212 C211 1.347 . S
C213 C216 1.365 . S
C213 N218 1.328 . S
C213 H219 0.929 . S
C214 C215 1.362 . S
C214 C217 1.378 . S
C214 H229 0.929 . S
C215 C214 1.362 . S
C215 C216 1.366 . S
C216 C213 1.365 . S
C216 C215 1.366 . S
C216 H230 0.930 . S
C217 C214 1.378 . S
C217 N218 1.315 . S
C217 H220 0.930 . S
N218 Co198 2.194 . S
N218 C213 1.328 . S
N218 C217 1.315 . S
H219 C213 0.929 . S
H220 C217 0.930 . S
H221 C209 0.929 . S
H222 C211 0.929 . S
O223 Co198 2.351 . S
O223 C226 1.244 . S
O224 Co198 2.155 . S
O224 C226 1.240 . S
O225 Co198 2.096 . S
O225 C206 1.247 . S
C226 O223 1.244 . S
C226 O224 1.240 . S
H227 C201 0.931 . S
H228 C210 0.931 . S
H229 C214 0.929 . S
H230 C216 0.930 . S
Co231 N235 2.148 . S
Co231 N241 2.128 . S
Co231 N251 2.194 . S
Co231 O256 2.351 . S
Co231 O257 2.155 . S
Co231 O258 2.096 . S
C232 N235 1.301 . S
C232 N236 1.328 . S
C232 H237 0.930 . S
C233 C234 1.333 . S
C233 N235 1.317 . S
C233 H238 0.930 . S
C234 C233 1.333 . S
C234 N236 1.350 . S
C234 H260 0.931 . S
N235 Co231 2.148 . S
N235 C232 1.301 . S
N235 C233 1.317 . S
N236 C232 1.328 . S
N236 C234 1.350 . S
H237 C232 0.930 . S
H238 C233 0.930 . S
C239 O240 1.224 . S
C239 O258 1.247 . S
O240 C239 1.224 . S
N241 Co231 2.128 . S
N241 C242 1.355 . S
N241 C244 1.311 . S
C242 N241 1.355 . S
C242 C243 1.363 . S
C242 H254 0.929 . S
C243 C242 1.363 . S
C243 N245 1.375 . S
C243 H261 0.931 . S
C244 N241 1.311 . S
C244 N245 1.347 . S
C244 H255 0.929 . S
N245 C243 1.375 . S
N245 C244 1.347 . S
C246 C249 1.365 . S
C246 N251 1.328 . S
C246 H252 0.929 . S
C247 C248 1.362 . S
C247 C250 1.378 . S
C247 H262 0.929 . S
C248 C247 1.362 . S
C248 C249 1.366 . S
C249 C246 1.365 . S
C249 C248 1.366 . S
C249 H263 0.930 . S
C250 C247 1.378 . S
C250 N251 1.315 . S
C250 H253 0.930 . S
N251 Co231 2.194 . S
N251 C246 1.328 . S
N251 C250 1.315 . S
H252 C246 0.929 . S
H253 C250 0.930 . S
H254 C242 0.929 . S
H255 C244 0.929 . S
O256 Co231 2.351 . S
O256 C259 1.244 . S
O257 Co231 2.155 . S
O257 C259 1.240 . S
O258 Co231 2.096 . S
O258 C239 1.247 . S
C259 O256 1.244 . S
C259 O257 1.240 . S
H260 C234 0.931 . S
H261 C243 0.931 . S
H262 C247 0.929 . S
H263 C249 0.930 . S
Co264 N268 2.148 . S
Co264 N274 2.128 . S
Co264 N284 2.194 . S
Co264 O289 2.351 . S
Co264 O290 2.155 . S
Co264 O291 2.096 . S
C265 N268 1.301 . S
C265 N269 1.328 . S
C265 H270 0.930 . S
C266 C267 1.333 . S
C266 N268 1.317 . S
C266 H271 0.930 . S
C267 C266 1.333 . S
C267 N269 1.350 . S
C267 H293 0.931 . S
N268 Co264 2.148 . S
N268 C265 1.301 . S
N268 C266 1.317 . S
N269 C265 1.328 . S
N269 C267 1.350 . S
H270 C265 0.930 . S
H271 C266 0.930 . S
C272 O273 1.224 . S
C272 O291 1.247 . S
O273 C272 1.224 . S
N274 Co264 2.128 . S
N274 C275 1.355 . S
N274 C277 1.311 . S
C275 N274 1.355 . S
C275 C276 1.363 . S
C275 H287 0.929 . S
C276 C275 1.363 . S
C276 N278 1.375 . S
C276 H294 0.931 . S
C277 N274 1.311 . S
C277 N278 1.347 . S
C277 H288 0.929 . S
N278 C276 1.375 . S
N278 C277 1.347 . S
C279 C282 1.365 . S
C279 N284 1.328 . S
C279 H285 0.929 . S
C280 C281 1.362 . S
C280 C283 1.378 . S
C280 H295 0.929 . S
C281 C280 1.362 . S
C281 C282 1.366 . S
C282 C279 1.365 . S
C282 C281 1.366 . S
C282 H296 0.930 . S
C283 C280 1.378 . S
C283 N284 1.315 . S
C283 H286 0.930 . S
N284 Co264 2.194 . S
N284 C279 1.328 . S
N284 C283 1.315 . S
H285 C279 0.929 . S
H286 C283 0.930 . S
H287 C275 0.929 . S
H288 C277 0.929 . S
O289 Co264 2.351 . S
O289 C292 1.244 . S
O290 Co264 2.155 . S
O290 C292 1.240 . S
O291 Co264 2.096 . S
O291 C272 1.247 . S
C292 O289 1.244 . S
C292 O290 1.240 . S
H293 C267 0.931 . S
H294 C276 0.931 . S
H295 C280 0.929 . S
H296 C282 0.930 . S
Co297 N301 2.148 . S
Co297 N307 2.128 . S
Co297 N317 2.194 . S
Co297 O322 2.351 . S
Co297 O323 2.155 . S
Co297 O324 2.096 . S
C298 N301 1.301 . S
C298 N302 1.328 . S
C298 H303 0.930 . S
C299 C300 1.333 . S
C299 N301 1.317 . S
C299 H304 0.930 . S
C300 C299 1.333 . S
C300 N302 1.350 . S
C300 H326 0.931 . S
N301 Co297 2.148 . S
N301 C298 1.301 . S
N301 C299 1.317 . S
N302 C298 1.328 . S
N302 C300 1.350 . S
H303 C298 0.930 . S
H304 C299 0.930 . S
C305 O306 1.224 . S
C305 O324 1.247 . S
O306 C305 1.224 . S
N307 Co297 2.128 . S
N307 C308 1.355 . S
N307 C310 1.311 . S
C308 N307 1.355 . S
C308 C309 1.363 . S
C308 H320 0.929 . S
C309 C308 1.363 . S
C309 N311 1.375 . S
C309 H327 0.931 . S
C310 N307 1.311 . S
C310 N311 1.347 . S
C310 H321 0.929 . S
N311 C309 1.375 . S
N311 C310 1.347 . S
C312 C315 1.365 . S
C312 N317 1.328 . S
C312 H318 0.929 . S
C313 C314 1.362 . S
C313 C316 1.378 . S
C313 H328 0.929 . S
C314 C313 1.362 . S
C314 C315 1.366 . S
C315 C312 1.365 . S
C315 C314 1.366 . S
C315 H329 0.930 . S
C316 C313 1.378 . S
C316 N317 1.315 . S
C316 H319 0.930 . S
N317 Co297 2.194 . S
N317 C312 1.328 . S
N317 C316 1.315 . S
H318 C312 0.929 . S
H319 C316 0.930 . S
H320 C308 0.929 . S
H321 C310 0.929 . S
O322 Co297 2.351 . S
O322 C325 1.244 . S
O323 Co297 2.155 . S
O323 C325 1.240 . S
O324 Co297 2.096 . S
O324 C305 1.247 . S
C325 O322 1.244 . S
C325 O323 1.240 . S
H326 C300 0.931 . S
H327 C309 0.931 . S
H328 C313 0.929 . S
H329 C315 0.930 . S
Co330 N334 2.148 . S
Co330 N340 2.128 . S
Co330 N350 2.194 . S
Co330 O355 2.351 . S
Co330 O356 2.155 . S
Co330 O357 2.096 . S
C331 N334 1.301 . S
C331 N335 1.328 . S
C331 H336 0.930 . S
C332 C333 1.333 . S
C332 N334 1.317 . S
C332 H337 0.930 . S
C333 C332 1.333 . S
C333 N335 1.350 . S
C333 H359 0.931 . S
N334 Co330 2.148 . S
N334 C331 1.301 . S
N334 C332 1.317 . S
N335 C331 1.328 . S
N335 C333 1.350 . S
H336 C331 0.930 . S
H337 C332 0.930 . S
C338 O339 1.224 . S
C338 O357 1.247 . S
O339 C338 1.224 . S
N340 Co330 2.128 . S
N340 C341 1.355 . S
N340 C343 1.311 . S
C341 N340 1.355 . S
C341 C342 1.363 . S
C341 H353 0.929 . S
C342 C341 1.363 . S
C342 N344 1.375 . S
C342 H360 0.931 . S
C343 N340 1.311 . S
C343 N344 1.347 . S
C343 H354 0.929 . S
N344 C342 1.375 . S
N344 C343 1.347 . S
C345 C348 1.365 . S
C345 N350 1.328 . S
C345 H351 0.929 . S
C346 C347 1.362 . S
C346 C349 1.378 . S
C346 H361 0.929 . S
C347 C346 1.362 . S
C347 C348 1.366 . S
C348 C345 1.365 . S
C348 C347 1.366 . S
C348 H362 0.930 . S
C349 C346 1.378 . S
C349 N350 1.315 . S
C349 H352 0.930 . S
N350 Co330 2.194 . S
N350 C345 1.328 . S
N350 C349 1.315 . S
H351 C345 0.929 . S
H352 C349 0.930 . S
H353 C341 0.929 . S
H354 C343 0.929 . S
O355 Co330 2.351 . S
O355 C358 1.244 . S
O356 Co330 2.155 . S
O356 C358 1.240 . S
O357 Co330 2.096 . S
O357 C338 1.247 . S
C358 O355 1.244 . S
C358 O356 1.240 . S
H359 C333 0.931 . S
H360 C342 0.931 . S
H361 C346 0.929 . S
H362 C348 0.930 . S
Co363 N367 2.148 . S
Co363 N373 2.128 . S
Co363 N383 2.194 . S
Co363 O388 2.351 . S
Co363 O389 2.155 . S
Co363 O390 2.096 . S
C364 N367 1.301 . S
C364 N368 1.328 . S
C364 H369 0.930 . S
C365 C366 1.333 . S
C365 N367 1.317 . S
C365 H370 0.930 . S
C366 C365 1.333 . S
C366 N368 1.350 . S
C366 H392 0.931 . S
N367 Co363 2.148 . S
N367 C364 1.301 . S
N367 C365 1.317 . S
N368 C364 1.328 . S
N368 C366 1.350 . S
H369 C364 0.930 . S
H370 C365 0.930 . S
C371 O372 1.224 . S
C371 O390 1.247 . S
O372 C371 1.224 . S
N373 Co363 2.128 . S
N373 C374 1.355 . S
N373 C376 1.311 . S
C374 N373 1.355 . S
C374 C375 1.363 . S
C374 H386 0.929 . S
C375 C374 1.363 . S
C375 N377 1.375 . S
C375 H393 0.931 . S
C376 N373 1.311 . S
C376 N377 1.347 . S
C376 H387 0.929 . S
N377 C375 1.375 . S
N377 C376 1.347 . S
C378 C381 1.365 . S
C378 N383 1.328 . S
C378 H384 0.929 . S
C379 C380 1.362 . S
C379 C382 1.378 . S
C379 H394 0.929 . S
C380 C379 1.362 . S
C380 C381 1.366 . S
C381 C378 1.365 . S
C381 C380 1.366 . S
C381 H395 0.930 . S
C382 C379 1.378 . S
C382 N383 1.315 . S
C382 H385 0.930 . S
N383 Co363 2.194 . S
N383 C378 1.328 . S
N383 C382 1.315 . S
H384 C378 0.929 . S
H385 C382 0.930 . S
H386 C374 0.929 . S
H387 C376 0.929 . S
O388 Co363 2.351 . S
O388 C391 1.244 . S
O389 Co363 2.155 . S
O389 C391 1.240 . S
O390 Co363 2.096 . S
O390 C371 1.247 . S
C391 O388 1.244 . S
C391 O389 1.240 . S
H392 C366 0.931 . S
H393 C375 0.931 . S
H394 C379 0.929 . S
H395 C381 0.930 . S
Co396 N400 2.148 . S
Co396 N406 2.128 . S
Co396 N416 2.194 . S
Co396 O421 2.351 . S
Co396 O422 2.155 . S
Co396 O423 2.096 . S
C397 N400 1.301 . S
C397 N401 1.328 . S
C397 H402 0.930 . S
C398 C399 1.333 . S
C398 N400 1.317 . S
C398 H403 0.930 . S
C399 C398 1.333 . S
C399 N401 1.350 . S
C399 H425 0.931 . S
N400 Co396 2.148 . S
N400 C397 1.301 . S
N400 C398 1.317 . S
N401 C397 1.328 . S
N401 C399 1.350 . S
H402 C397 0.930 . S
H403 C398 0.930 . S
C404 O405 1.224 . S
C404 O423 1.247 . S
O405 C404 1.224 . S
N406 Co396 2.128 . S
N406 C407 1.355 . S
N406 C409 1.311 . S
C407 N406 1.355 . S
C407 C408 1.363 . S
C407 H419 0.929 . S
C408 C407 1.363 . S
C408 N410 1.375 . S
C408 H426 0.931 . S
C409 N406 1.311 . S
C409 N410 1.347 . S
C409 H420 0.929 . S
N410 C408 1.375 . S
N410 C409 1.347 . S
C411 C414 1.365 . S
C411 N416 1.328 . S
C411 H417 0.929 . S
C412 C413 1.362 . S
C412 C415 1.378 . S
C412 H427 0.929 . S
C413 C412 1.362 . S
C413 C414 1.366 . S
C414 C411 1.365 . S
C414 C413 1.366 . S
C414 H428 0.930 . S
C415 C412 1.378 . S
C415 N416 1.315 . S
C415 H418 0.930 . S
N416 Co396 2.194 . S
N416 C411 1.328 . S
N416 C415 1.315 . S
H417 C411 0.929 . S
H418 C415 0.930 . S
H419 C407 0.929 . S
H420 C409 0.929 . S
O421 Co396 2.351 . S
O421 C424 1.244 . S
O422 Co396 2.155 . S
O422 C424 1.240 . S
O423 Co396 2.096 . S
O423 C404 1.247 . S
C424 O421 1.244 . S
C424 O422 1.240 . S
H425 C399 0.931 . S
H426 C408 0.931 . S
H427 C412 0.929 . S
H428 C414 0.930 . S
Co429 N433 2.148 . S
Co429 N439 2.128 . S
Co429 N449 2.194 . S
Co429 O454 2.351 . S
Co429 O455 2.155 . S
Co429 O456 2.096 . S
C430 N433 1.301 . S
C430 N434 1.328 . S
C430 H435 0.930 . S
C431 C432 1.333 . S
C431 N433 1.317 . S
C431 H436 0.930 . S
C432 C431 1.333 . S
C432 N434 1.350 . S
C432 H458 0.931 . S
N433 Co429 2.148 . S
N433 C430 1.301 . S
N433 C431 1.317 . S
N434 C430 1.328 . S
N434 C432 1.350 . S
H435 C430 0.930 . S
H436 C431 0.930 . S
C437 O438 1.224 . S
C437 O456 1.247 . S
O438 C437 1.224 . S
N439 Co429 2.128 . S
N439 C440 1.355 . S
N439 C442 1.311 . S
C440 N439 1.355 . S
C440 C441 1.363 . S
C440 H452 0.929 . S
C441 C440 1.363 . S
C441 N443 1.375 . S
C441 H459 0.931 . S
C442 N439 1.311 . S
C442 N443 1.347 . S
C442 H453 0.929 . S
N443 C441 1.375 . S
N443 C442 1.347 . S
C444 C447 1.365 . S
C444 N449 1.328 . S
C444 H450 0.929 . S
C445 C446 1.362 . S
C445 C448 1.378 . S
C445 H460 0.929 . S
C446 C445 1.362 . S
C446 C447 1.366 . S
C447 C444 1.365 . S
C447 C446 1.366 . S
C447 H461 0.930 . S
C448 C445 1.378 . S
C448 N449 1.315 . S
C448 H451 0.930 . S
N449 Co429 2.194 . S
N449 C444 1.328 . S
N449 C448 1.315 . S
H450 C444 0.929 . S
H451 C448 0.930 . S
H452 C440 0.929 . S
H453 C442 0.929 . S
O454 Co429 2.351 . S
O454 C457 1.244 . S
O455 Co429 2.155 . S
O455 C457 1.240 . S
O456 Co429 2.096 . S
O456 C437 1.247 . S
C457 O454 1.244 . S
C457 O455 1.240 . S
H458 C432 0.931 . S
H459 C441 0.931 . S
H460 C445 0.929 . S
H461 C447 0.930 . S
Co462 N466 2.148 . S
Co462 N472 2.128 . S
Co462 N482 2.194 . S
Co462 O487 2.351 . S
Co462 O488 2.155 . S
Co462 O489 2.096 . S
C463 N466 1.301 . S
C463 N467 1.328 . S
C463 H468 0.930 . S
C464 C465 1.333 . S
C464 N466 1.317 . S
C464 H469 0.930 . S
C465 C464 1.333 . S
C465 N467 1.350 . S
C465 H491 0.931 . S
N466 Co462 2.148 . S
N466 C463 1.301 . S
N466 C464 1.317 . S
N467 C463 1.328 . S
N467 C465 1.350 . S
H468 C463 0.930 . S
H469 C464 0.930 . S
C470 O471 1.224 . S
C470 O489 1.247 . S
O471 C470 1.224 . S
N472 Co462 2.128 . S
N472 C473 1.355 . S
N472 C475 1.311 . S
C473 N472 1.355 . S
C473 C474 1.363 . S
C473 H485 0.929 . S
C474 C473 1.363 . S
C474 N476 1.375 . S
C474 H492 0.931 . S
C475 N472 1.311 . S
C475 N476 1.347 . S
C475 H486 0.929 . S
N476 C474 1.375 . S
N476 C475 1.347 . S
C477 C480 1.365 . S
C477 N482 1.328 . S
C477 H483 0.929 . S
C478 C479 1.362 . S
C478 C481 1.378 . S
C478 H493 0.929 . S
C479 C478 1.362 . S
C479 C480 1.366 . S
C480 C477 1.365 . S
C480 C479 1.366 . S
C480 H494 0.930 . S
C481 C478 1.378 . S
C481 N482 1.315 . S
C481 H484 0.930 . S
N482 Co462 2.194 . S
N482 C477 1.328 . S
N482 C481 1.315 . S
H483 C477 0.929 . S
H484 C481 0.930 . S
H485 C473 0.929 . S
H486 C475 0.929 . S
O487 Co462 2.351 . S
O487 C490 1.244 . S
O488 Co462 2.155 . S
O488 C490 1.240 . S
O489 Co462 2.096 . S
O489 C470 1.247 . S
C490 O487 1.244 . S
C490 O488 1.240 . S
H491 C465 0.931 . S
H492 C474 0.931 . S
H493 C478 0.929 . S
H494 C480 0.930 . S
Co495 N499 2.148 . S
Co495 N505 2.128 . S
Co495 N515 2.194 . S
Co495 O520 2.351 . S
Co495 O521 2.155 . S
Co495 O522 2.096 . S
C496 N499 1.301 . S
C496 N500 1.328 . S
C496 H501 0.930 . S
C497 C498 1.333 . S
C497 N499 1.317 . S
C497 H502 0.930 . S
C498 C497 1.333 . S
C498 N500 1.350 . S
C498 H524 0.931 . S
N499 Co495 2.148 . S
N499 C496 1.301 . S
N499 C497 1.317 . S
N500 C496 1.328 . S
N500 C498 1.350 . S
H501 C496 0.930 . S
H502 C497 0.930 . S
C503 O504 1.224 . S
C503 O522 1.247 . S
O504 C503 1.224 . S
N505 Co495 2.128 . S
N505 C506 1.355 . S
N505 C508 1.311 . S
C506 N505 1.355 . S
C506 C507 1.363 . S
C506 H518 0.929 . S
C507 C506 1.363 . S
C507 N509 1.375 . S
C507 H525 0.931 . S
C508 N505 1.311 . S
C508 N509 1.347 . S
C508 H519 0.929 . S
N509 C507 1.375 . S
N509 C508 1.347 . S
C510 C513 1.365 . S
C510 N515 1.328 . S
C510 H516 0.929 . S
C511 C512 1.362 . S
C511 C514 1.378 . S
C511 H526 0.929 . S
C512 C511 1.362 . S
C512 C513 1.366 . S
C513 C510 1.365 . S
C513 C512 1.366 . S
C513 H527 0.930 . S
C514 C511 1.378 . S
C514 N515 1.315 . S
C514 H517 0.930 . S
N515 Co495 2.194 . S
N515 C510 1.328 . S
N515 C514 1.315 . S
H516 C510 0.929 . S
H517 C514 0.930 . S
H518 C506 0.929 . S
H519 C508 0.929 . S
O520 Co495 2.351 . S
O520 C523 1.244 . S
O521 Co495 2.155 . S
O521 C523 1.240 . S
O522 Co495 2.096 . S
O522 C503 1.247 . S
C523 O520 1.244 . S
C523 O521 1.240 . S
H524 C498 0.931 . S
H525 C507 0.931 . S
H526 C511 0.929 . S
H527 C513 0.930 . S
H528 C546 0.951 . S
H529 C548 0.951 . S
H530 C550 0.950 . S
H531 C551 0.950 . S
H532 C553 0.950 . S
H533 C556 0.950 . S
H534 C557 0.950 1_565 S
H535 C559 0.950 . S
H536 C560 0.950 . S
H537 C561 0.951 . S
H538 C563 0.951 . S
H539 C565 0.950 . S
H540 C566 0.950 . S
H541 C568 0.950 . S
H542 C571 0.950 . S
H543 C572 0.950 . S
H544 C574 0.950 . S
H545 C575 0.950 . S
C546 H528 0.951 . S
C546 C547 1.366 . S
C546 C548 1.388 . S
C547 C546 1.366 . S
C547 C551 1.385 . S
C548 H529 0.951 . S
C548 C546 1.388 . S
C548 C549 1.366 . S
C549 C548 1.366 . S
C549 C550 1.414 . S
C549 C552 1.499 . S
C550 H530 0.950 . S
C550 C549 1.414 . S
C550 C551 1.374 . S
C551 H531 0.950 . S
C551 C547 1.385 . S
C551 C550 1.374 . S
C552 C549 1.499 . S
C552 C553 1.373 . S
C552 C554 1.389 . S
C553 H532 0.950 . S
C553 C552 1.373 . S
C553 C569 1.377 . S
C554 C552 1.389 . S
C554 C555 1.524 . S
C554 C568 1.377 . S
C555 C554 1.524 . S
C555 C556 1.397 . S
C555 C560 1.363 . S
C556 H533 0.950 . S
C556 C555 1.397 . S
C556 C557 1.334 . S
C557 H534 0.950 1_545 S
C557 C556 1.334 . S
C557 C558 1.287 . S
C558 C557 1.287 . S
C558 C559 1.524 . S
C558 H577 0.913 1_545 S
C559 H535 0.950 . S
C559 C558 1.524 . S
C559 C560 1.415 . S
C560 H536 0.950 . S
C560 C555 1.363 . S
C560 C559 1.415 . S
C561 H537 0.951 . S
C561 C562 1.366 . S
C561 C563 1.388 . S
C562 C561 1.366 . S
C562 C566 1.385 . S
C563 H538 0.951 . S
C563 C561 1.388 . S
C563 C564 1.366 . S
C564 C563 1.366 . S
C564 C565 1.414 . S
C564 C567 1.499 . S
C565 H539 0.950 . S
C565 C564 1.414 . S
C565 C566 1.374 . S
C566 H540 0.950 . S
C566 C562 1.385 . S
C566 C565 1.374 . S
C567 C564 1.499 . S
C567 C568 1.373 . S
C567 C569 1.389 . S
C568 H541 0.950 . S
C568 C554 1.377 . S
C568 C567 1.373 . S
C569 C553 1.377 . S
C569 C567 1.389 . S
C569 C570 1.524 . S
C570 C569 1.524 . S
C570 C571 1.397 . S
C570 C575 1.363 . S
C571 H542 0.950 . S
C571 C570 1.397 . S
C571 C572 1.334 . S
C572 H543 0.950 . S
C572 C571 1.334 . S
C572 C573 1.287 . S
C573 C572 1.287 . S
C573 C574 1.524 . S
C573 H576 0.999 . S
C574 H544 0.950 . S
C574 C573 1.524 . S
C574 C575 1.415 . S
C575 H545 0.950 . S
C575 C570 1.363 . S
C575 C574 1.415 . S
H576 C573 0.999 . S
H577 C558 0.913 1_565 S
H578 C596 0.951 . S
H579 C598 0.951 . S
H580 C600 0.950 . S
H581 C601 0.950 . S
H582 C603 0.950 . S
H583 C606 0.950 . S
H584 C607 0.950 . S
H585 C609 0.950 . S
H586 C610 0.950 . S
H587 C611 0.951 . S
H588 C613 0.951 . S
H589 C615 0.950 . S
H590 C616 0.950 . S
H591 C618 0.950 . S
H592 C621 0.950 . S
H593 C622 0.950 . S
H594 C624 0.950 . S
H595 C625 0.950 . S
C596 H578 0.951 . S
C596 C597 1.366 . S
C596 C598 1.388 . S
C597 C596 1.366 . S
C597 C601 1.385 . S
C598 H579 0.951 . S
C598 C596 1.388 . S
C598 C599 1.366 . S
C599 C598 1.366 . S
C599 C600 1.414 . S
C599 C602 1.499 . S
C600 H580 0.950 . S
C600 C599 1.414 . S
C600 C601 1.374 . S
C601 H581 0.950 . S
C601 C597 1.385 . S
C601 C600 1.374 . S
C602 C599 1.499 . S
C602 C603 1.373 . S
C602 C604 1.389 . S
C603 H582 0.950 . S
C603 C602 1.373 . S
C603 C619 1.377 . S
C604 C602 1.389 . S
C604 C605 1.524 . S
C604 C618 1.377 . S
C605 C604 1.524 . S
C605 C606 1.397 . S
C605 C610 1.363 . S
C606 H583 0.950 . S
C606 C605 1.397 . S
C606 C607 1.334 . S
C607 H584 0.950 . S
C607 C606 1.334 . S
C607 C608 1.287 . S
C608 C607 1.287 . S
C608 C609 1.524 . S
C608 H627 0.913 . S
C609 H585 0.950 . S
C609 C608 1.524 . S
C609 C610 1.415 . S
C610 H586 0.950 . S
C610 C605 1.363 . S
C610 C609 1.415 . S
C611 H587 0.951 . S
C611 C612 1.366 . S
C611 C613 1.388 . S
C612 C611 1.366 . S
C612 C616 1.385 . S
C613 H588 0.951 . S
C613 C611 1.388 . S
C613 C614 1.366 . S
C614 C613 1.366 . S
C614 C615 1.414 . S
C614 C617 1.499 . S
C615 H589 0.950 . S
C615 C614 1.414 . S
C615 C616 1.374 . S
C616 H590 0.950 . S
C616 C612 1.385 . S
C616 C615 1.374 . S
C617 C614 1.499 . S
C617 C618 1.373 . S
C617 C619 1.389 . S
C618 H591 0.950 . S
C618 C604 1.377 . S
C618 C617 1.373 . S
C619 C603 1.377 . S
C619 C617 1.389 . S
C619 C620 1.524 . S
C620 C619 1.524 . S
C620 C621 1.397 . S
C620 C625 1.363 . S
C621 H592 0.950 . S
C621 C620 1.397 . S
C621 C622 1.334 . S
C622 H593 0.950 . S
C622 C621 1.334 . S
C622 C623 1.287 . S
C623 C622 1.287 . S
C623 C624 1.524 . S
C623 H626 0.999 . S
C624 H594 0.950 . S
C624 C623 1.524 . S
C624 C625 1.415 . S
C625 H595 0.950 . S
C625 C620 1.363 . S
C625 C624 1.415 . S
H626 C623 0.999 . S
H627 C608 0.913 . S
H628 C646 0.951 . S
H629 C648 0.951 . S
H630 C650 0.950 . S
H631 C651 0.950 . S
H632 C653 0.950 . S
H633 C656 0.950 . S
H634 C657 0.950 . S
H635 C659 0.950 . S
H636 C660 0.950 . S
H637 C661 0.951 . S
H638 C663 0.951 . S
H639 C665 0.950 . S
H640 C666 0.950 . S
H641 C668 0.950 . S
H642 C671 0.950 . S
H643 C672 0.950 . S
H644 C674 0.950 . S
H645 C675 0.950 . S
C646 H628 0.951 . S
C646 C647 1.366 . S
C646 C648 1.388 . S
C647 C646 1.366 . S
C647 C651 1.385 . S
C648 H629 0.951 . S
C648 C646 1.388 . S
C648 C649 1.366 . S
C649 C648 1.366 . S
C649 C650 1.414 . S
C649 C652 1.499 . S
C650 H630 0.950 . S
C650 C649 1.414 . S
C650 C651 1.374 . S
C651 H631 0.950 . S
C651 C647 1.385 . S
C651 C650 1.374 . S
C652 C649 1.499 . S
C652 C653 1.373 . S
C652 C654 1.389 . S
C653 H632 0.950 . S
C653 C652 1.373 . S
C653 C669 1.377 . S
C654 C652 1.389 . S
C654 C655 1.524 . S
C654 C668 1.377 . S
C655 C654 1.524 . S
C655 C656 1.397 . S
C655 C660 1.363 . S
C656 H633 0.950 . S
C656 C655 1.397 . S
C656 C657 1.334 . S
C657 H634 0.950 . S
C657 C656 1.334 . S
C657 C658 1.287 . S
C658 C657 1.287 . S
C658 C659 1.524 . S
C658 H677 0.913 . S
C659 H635 0.950 . S
C659 C658 1.524 . S
C659 C660 1.415 . S
C660 H636 0.950 . S
C660 C655 1.363 . S
C660 C659 1.415 . S
C661 H637 0.951 . S
C661 C662 1.366 . S
C661 C663 1.388 . S
C662 C661 1.366 . S
C662 C666 1.385 . S
C663 H638 0.951 . S
C663 C661 1.388 . S
C663 C664 1.366 . S
C664 C663 1.366 . S
C664 C665 1.414 . S
C664 C667 1.499 . S
C665 H639 0.950 . S
C665 C664 1.414 . S
C665 C666 1.374 . S
C666 H640 0.950 . S
C666 C662 1.385 . S
C666 C665 1.374 . S
C667 C664 1.499 . S
C667 C668 1.373 . S
C667 C669 1.389 . S
C668 H641 0.950 . S
C668 C654 1.377 . S
C668 C667 1.373 . S
C669 C653 1.377 . S
C669 C667 1.389 . S
C669 C670 1.524 . S
C670 C669 1.524 . S
C670 C671 1.397 . S
C670 C675 1.363 . S
C671 H642 0.950 . S
C671 C670 1.397 . S
C671 C672 1.334 . S
C672 H643 0.950 . S
C672 C671 1.334 . S
C672 C673 1.287 . S
C673 C672 1.287 . S
C673 C674 1.524 . S
C673 H676 0.999 . S
C674 H644 0.950 . S
C674 C673 1.524 . S
C674 C675 1.415 . S
C675 H645 0.950 . S
C675 C670 1.363 . S
C675 C674 1.415 . S
H676 C673 0.999 . S
H677 C658 0.913 . S
H678 C696 0.951 . S
H679 C698 0.951 . S
H680 C700 0.950 . S
H681 C701 0.950 . S
H682 C703 0.950 . S
H683 C706 0.950 . S
H684 C707 0.950 . S
H685 C709 0.950 . S
H686 C710 0.950 . S
H687 C711 0.951 . S
H688 C713 0.951 . S
H689 C715 0.950 . S
H690 C716 0.950 . S
H691 C718 0.950 . S
H692 C721 0.950 . S
H693 C722 0.950 . S
H694 C724 0.950 . S
H695 C725 0.950 . S
C696 H678 0.951 . S
C696 C697 1.366 . S
C696 C698 1.388 . S
C697 C696 1.366 . S
C697 C701 1.385 . S
C698 H679 0.951 . S
C698 C696 1.388 . S
C698 C699 1.366 . S
C699 C698 1.366 . S
C699 C700 1.414 . S
C699 C702 1.499 . S
C700 H680 0.950 . S
C700 C699 1.414 . S
C700 C701 1.374 . S
C701 H681 0.950 . S
C701 C697 1.385 . S
C701 C700 1.374 . S
C702 C699 1.499 . S
C702 C703 1.373 . S
C702 C704 1.389 . S
C703 H682 0.950 . S
C703 C702 1.373 . S
C703 C719 1.377 . S
C704 C702 1.389 . S
C704 C705 1.524 . S
C704 C718 1.377 . S
C705 C704 1.524 . S
C705 C706 1.397 . S
C705 C710 1.363 . S
C706 H683 0.950 . S
C706 C705 1.397 . S
C706 C707 1.334 . S
C707 H684 0.950 . S
C707 C706 1.334 . S
C707 C708 1.287 . S
C708 C707 1.287 . S
C708 C709 1.524 . S
C708 H727 0.913 . S
C709 H685 0.950 . S
C709 C708 1.524 . S
C709 C710 1.415 . S
C710 H686 0.950 . S
C710 C705 1.363 . S
C710 C709 1.415 . S
C711 H687 0.951 . S
C711 C712 1.366 . S
C711 C713 1.388 . S
C712 C711 1.366 . S
C712 C716 1.385 . S
C713 H688 0.951 . S
C713 C711 1.388 . S
C713 C714 1.366 . S
C714 C713 1.366 . S
C714 C715 1.414 . S
C714 C717 1.499 . S
C715 H689 0.950 . S
C715 C714 1.414 . S
C715 C716 1.374 . S
C716 H690 0.950 . S
C716 C712 1.385 . S
C716 C715 1.374 . S
C717 C714 1.499 . S
C717 C718 1.373 . S
C717 C719 1.389 . S
C718 H691 0.950 . S
C718 C704 1.377 . S
C718 C717 1.373 . S
C719 C703 1.377 . S
C719 C717 1.389 . S
C719 C720 1.524 . S
C720 C719 1.524 . S
C720 C721 1.397 . S
C720 C725 1.363 . S
C721 H692 0.950 . S
C721 C720 1.397 . S
C721 C722 1.334 . S
C722 H693 0.950 . S
C722 C721 1.334 . S
C722 C723 1.287 . S
C723 C722 1.287 . S
C723 C724 1.524 . S
C723 H726 0.999 . S
C724 H694 0.950 . S
C724 C723 1.524 . S
C724 C725 1.415 . S
C725 H695 0.950 . S
C725 C720 1.363 . S
C725 C724 1.415 . S
H726 C723 0.999 . S
H727 C708 0.913 . S
H728 C746 0.951 . S
H729 C748 0.951 . S
H730 C750 0.950 . S
H731 C751 0.950 . S
H732 C753 0.950 . S
H733 C756 0.950 . S
H734 C757 0.950 . S
H735 C759 0.950 . S
H736 C760 0.950 . S
H737 C761 0.951 . S
H738 C763 0.951 . S
H739 C765 0.950 . S
H740 C766 0.950 . S
H741 C768 0.950 . S
H742 C771 0.950 . S
H743 C772 0.950 . S
H744 C774 0.950 . S
H745 C775 0.950 . S
C746 H728 0.951 . S
C746 C747 1.366 . S
C746 C748 1.388 . S
C747 C746 1.366 . S
C747 C751 1.385 . S
C748 H729 0.951 . S
C748 C746 1.388 . S
C748 C749 1.366 . S
C749 C748 1.366 . S
C749 C750 1.414 . S
C749 C752 1.499 . S
C750 H730 0.950 . S
C750 C749 1.414 . S
C750 C751 1.374 . S
C751 H731 0.950 . S
C751 C747 1.385 . S
C751 C750 1.374 . S
C752 C749 1.499 . S
C752 C753 1.373 . S
C752 C754 1.389 . S
C753 H732 0.950 . S
C753 C752 1.373 . S
C753 C769 1.377 . S
C754 C752 1.389 . S
C754 C755 1.524 . S
C754 C768 1.377 . S
C755 C754 1.524 . S
C755 C756 1.397 . S
C755 C760 1.363 . S
C756 H733 0.950 . S
C756 C755 1.397 . S
C756 C757 1.334 . S
C757 H734 0.950 . S
C757 C756 1.334 . S
C757 C758 1.287 . S
C758 C757 1.287 . S
C758 C759 1.524 . S
C758 H777 0.913 . S
C759 H735 0.950 . S
C759 C758 1.524 . S
C759 C760 1.415 . S
C760 H736 0.950 . S
C760 C755 1.363 . S
C760 C759 1.415 . S
C761 H737 0.951 . S
C761 C762 1.366 . S
C761 C763 1.388 . S
C762 C761 1.366 . S
C762 C766 1.385 . S
C763 H738 0.951 . S
C763 C761 1.388 . S
C763 C764 1.366 . S
C764 C763 1.366 . S
C764 C765 1.414 . S
C764 C767 1.499 . S
C765 H739 0.950 . S
C765 C764 1.414 . S
C765 C766 1.374 . S
C766 H740 0.950 . S
C766 C762 1.385 . S
C766 C765 1.374 . S
C767 C764 1.499 . S
C767 C768 1.373 . S
C767 C769 1.389 . S
C768 H741 0.950 . S
C768 C754 1.377 . S
C768 C767 1.373 . S
C769 C753 1.377 . S
C769 C767 1.389 . S
C769 C770 1.524 . S
C770 C769 1.524 . S
C770 C771 1.397 . S
C770 C775 1.363 . S
C771 H742 0.950 . S
C771 C770 1.397 . S
C771 C772 1.334 . S
C772 H743 0.950 . S
C772 C771 1.334 . S
C772 C773 1.287 . S
C773 C772 1.287 . S
C773 C774 1.524 . S
C773 H776 0.999 . S
C774 H744 0.950 . S
C774 C773 1.524 . S
C774 C775 1.415 . S
C775 H745 0.950 . S
C775 C770 1.363 . S
C775 C774 1.415 . S
H776 C773 0.999 . S
H777 C758 0.913 . S
H778 C796 0.951 . S
H779 C798 0.951 . S
H780 C800 0.950 . S
H781 C801 0.950 . S
H782 C803 0.950 . S
H783 C806 0.950 . S
H784 C807 0.950 . S
H785 C809 0.950 . S
H786 C810 0.950 . S
H787 C811 0.951 . S
H788 C813 0.951 . S
H789 C815 0.950 . S
H790 C816 0.950 . S
H791 C818 0.950 . S
H792 C821 0.950 . S
H793 C822 0.950 . S
H794 C824 0.950 . S
H795 C825 0.950 . S
C796 H778 0.951 . S
C796 C797 1.366 . S
C796 C798 1.388 . S
C797 C796 1.366 . S
C797 C801 1.385 . S
C798 H779 0.951 . S
C798 C796 1.388 . S
C798 C799 1.366 . S
C799 C798 1.366 . S
C799 C800 1.414 . S
C799 C802 1.499 . S
C800 H780 0.950 . S
C800 C799 1.414 . S
C800 C801 1.374 . S
C801 H781 0.950 . S
C801 C797 1.385 . S
C801 C800 1.374 . S
C802 C799 1.499 . S
C802 C803 1.373 . S
C802 C804 1.389 . S
C803 H782 0.950 . S
C803 C802 1.373 . S
C803 C819 1.377 . S
C804 C802 1.389 . S
C804 C805 1.524 . S
C804 C818 1.377 . S
C805 C804 1.524 . S
C805 C806 1.397 . S
C805 C810 1.363 . S
C806 H783 0.950 . S
C806 C805 1.397 . S
C806 C807 1.334 . S
C807 H784 0.950 . S
C807 C806 1.334 . S
C807 C808 1.287 . S
C808 C807 1.287 . S
C808 C809 1.524 . S
C808 H827 0.913 . S
C809 H785 0.950 . S
C809 C808 1.524 . S
C809 C810 1.415 . S
C810 H786 0.950 . S
C810 C805 1.363 . S
C810 C809 1.415 . S
C811 H787 0.951 . S
C811 C812 1.366 . S
C811 C813 1.388 . S
C812 C811 1.366 . S
C812 C816 1.385 . S
C813 H788 0.951 . S
C813 C811 1.388 . S
C813 C814 1.366 . S
C814 C813 1.366 . S
C814 C815 1.414 . S
C814 C817 1.499 . S
C815 H789 0.950 . S
C815 C814 1.414 . S
C815 C816 1.374 . S
C816 H790 0.950 . S
C816 C812 1.385 . S
C816 C815 1.374 . S
C817 C814 1.499 . S
C817 C818 1.373 . S
C817 C819 1.389 . S
C818 H791 0.950 . S
C818 C804 1.377 . S
C818 C817 1.373 . S
C819 C803 1.377 . S
C819 C817 1.389 . S
C819 C820 1.524 . S
C820 C819 1.524 . S
C820 C821 1.397 . S
C820 C825 1.363 . S
C821 H792 0.950 . S
C821 C820 1.397 . S
C821 C822 1.334 . S
C822 H793 0.950 . S
C822 C821 1.334 . S
C822 C823 1.287 . S
C823 C822 1.287 . S
C823 C824 1.524 . S
C823 H826 0.999 . S
C824 H794 0.950 . S
C824 C823 1.524 . S
C824 C825 1.415 . S
C825 H795 0.950 . S
C825 C820 1.363 . S
C825 C824 1.415 . S
H826 C823 0.999 . S
H827 C808 0.913 . S
H828 C846 0.951 . S
H829 C848 0.951 . S
H830 C850 0.950 . S
H831 C851 0.950 . S
H832 C853 0.950 . S
H833 C856 0.950 . S
H834 C857 0.950 . S
H835 C859 0.950 . S
H836 C860 0.950 . S
H837 C861 0.951 . S
H838 C863 0.951 . S
H839 C865 0.950 . S
H840 C866 0.950 . S
H841 C868 0.950 . S
H842 C871 0.950 . S
H843 C872 0.950 . S
H844 C874 0.950 . S
H845 C875 0.950 . S
C846 H828 0.951 . S
C846 C847 1.366 . S
C846 C848 1.388 . S
C847 C846 1.366 . S
C847 C851 1.385 . S
C848 H829 0.951 . S
C848 C846 1.388 . S
C848 C849 1.366 . S
C849 C848 1.366 . S
C849 C850 1.414 . S
C849 C852 1.499 . S
C850 H830 0.950 . S
C850 C849 1.414 . S
C850 C851 1.374 . S
C851 H831 0.950 . S
C851 C847 1.385 . S
C851 C850 1.374 . S
C852 C849 1.499 . S
C852 C853 1.373 . S
C852 C854 1.389 . S
C853 H832 0.950 . S
C853 C852 1.373 . S
C853 C869 1.377 . S
C854 C852 1.389 . S
C854 C855 1.524 . S
C854 C868 1.377 . S
C855 C854 1.524 . S
C855 C856 1.397 . S
C855 C860 1.363 . S
C856 H833 0.950 . S
C856 C855 1.397 . S
C856 C857 1.334 . S
C857 H834 0.950 . S
C857 C856 1.334 . S
C857 C858 1.287 . S
C858 C857 1.287 . S
C858 C859 1.524 . S
C858 H877 0.913 . S
C859 H835 0.950 . S
C859 C858 1.524 . S
C859 C860 1.415 . S
C860 H836 0.950 . S
C860 C855 1.363 . S
C860 C859 1.415 . S
C861 H837 0.951 . S
C861 C862 1.366 . S
C861 C863 1.388 . S
C862 C861 1.366 . S
C862 C866 1.385 . S
C863 H838 0.951 . S
C863 C861 1.388 . S
C863 C864 1.366 . S
C864 C863 1.366 . S
C864 C865 1.414 . S
C864 C867 1.499 . S
C865 H839 0.950 . S
C865 C864 1.414 . S
C865 C866 1.374 . S
C866 H840 0.950 . S
C866 C862 1.385 . S
C866 C865 1.374 . S
C867 C864 1.499 . S
C867 C868 1.373 . S
C867 C869 1.389 . S
C868 H841 0.950 . S
C868 C854 1.377 . S
C868 C867 1.373 . S
C869 C853 1.377 . S
C869 C867 1.389 . S
C869 C870 1.524 . S
C870 C869 1.524 . S
C870 C871 1.397 . S
C870 C875 1.363 . S
C871 H842 0.950 . S
C871 C870 1.397 . S
C871 C872 1.334 . S
C872 H843 0.950 . S
C872 C871 1.334 . S
C872 C873 1.287 . S
C873 C872 1.287 . S
C873 C874 1.524 . S
C873 H876 0.999 . S
C874 H844 0.950 . S
C874 C873 1.524 . S
C874 C875 1.415 . S
C875 H845 0.950 . S
C875 C870 1.363 . S
C875 C874 1.415 . S
H876 C873 0.999 . S
H877 C858 0.913 . S
H878 C896 0.951 . S
H879 C898 0.951 . S
H880 C900 0.950 . S
H881 C901 0.950 . S
H882 C903 0.950 . S
H883 C906 0.950 . S
H884 C907 0.950 . S
H885 C909 0.950 . S
H886 C910 0.950 . S
H887 C911 0.951 . S
H888 C913 0.951 . S
H889 C915 0.950 . S
H890 C916 0.950 . S
H891 C918 0.950 . S
H892 C921 0.950 . S
H893 C922 0.950 1_455 S
H894 C924 0.950 . S
H895 C925 0.950 . S
C896 H878 0.951 . S
C896 C897 1.366 . S
C896 C898 1.388 . S
C897 C896 1.366 . S
C897 C901 1.385 . S
C898 H879 0.951 . S
C898 C896 1.388 . S
C898 C899 1.366 . S
C899 C898 1.366 . S
C899 C900 1.414 . S
C899 C902 1.499 . S
C900 H880 0.950 . S
C900 C899 1.414 . S
C900 C901 1.374 . S
C901 H881 0.950 . S
C901 C897 1.385 . S
C901 C900 1.374 . S
C902 C899 1.499 . S
C902 C903 1.373 . S
C902 C904 1.389 . S
C903 H882 0.950 . S
C903 C902 1.373 . S
C903 C919 1.377 . S
C904 C902 1.389 . S
C904 C905 1.524 . S
C904 C918 1.377 . S
C905 C904 1.524 . S
C905 C906 1.397 . S
C905 C910 1.363 . S
C906 H883 0.950 . S
C906 C905 1.397 . S
C906 C907 1.334 . S
C907 H884 0.950 . S
C907 C906 1.334 . S
C907 C908 1.287 . S
C908 C907 1.287 . S
C908 C909 1.524 . S
C908 H927 0.913 . S
C909 H885 0.950 . S
C909 C908 1.524 . S
C909 C910 1.415 . S
C910 H886 0.950 . S
C910 C905 1.363 . S
C910 C909 1.415 . S
C911 H887 0.951 . S
C911 C912 1.366 . S
C911 C913 1.388 . S
C912 C911 1.366 . S
C912 C916 1.385 . S
C913 H888 0.951 . S
C913 C911 1.388 . S
C913 C914 1.366 . S
C914 C913 1.366 . S
C914 C915 1.414 . S
C914 C917 1.499 . S
C915 H889 0.950 . S
C915 C914 1.414 . S
C915 C916 1.374 . S
C916 H890 0.950 . S
C916 C912 1.385 . S
C916 C915 1.374 . S
C917 C914 1.499 . S
C917 C918 1.373 . S
C917 C919 1.389 . S
C918 H891 0.950 . S
C918 C904 1.377 . S
C918 C917 1.373 . S
C919 C903 1.377 . S
C919 C917 1.389 . S
C919 C920 1.524 . S
C920 C919 1.524 . S
C920 C921 1.397 . S
C920 C925 1.363 . S
C921 H892 0.950 . S
C921 C920 1.397 . S
C921 C922 1.334 . S
C922 H893 0.950 1_655 S
C922 C921 1.334 . S
C922 C923 1.291 . S
C923 C922 1.291 . S
C923 C924 1.542 . S
C923 H926 0.978 1_655 S
C924 H894 0.950 . S
C924 C923 1.542 . S
C924 C925 1.415 . S
C925 H895 0.950 . S
C925 C920 1.363 . S
C925 C924 1.415 . S
H926 C923 0.978 1_455 S
H927 C908 0.913 . S
H928 C946 0.951 . S
H929 C948 0.951 . S
H930 C950 0.950 . S
H931 C951 0.950 . S
H932 C953 0.950 . S
H933 C956 0.950 . S
H934 C957 0.950 . S
H935 C959 0.950 . S
H936 C960 0.950 . S
H937 C961 0.951 . S
H938 C963 0.951 . S
H939 C965 0.950 . S
H940 C966 0.950 . S
H941 C968 0.950 . S
H942 C971 0.950 . S
H943 C972 0.950 . S
H944 C974 0.950 . S
H945 C975 0.950 . S
C946 H928 0.951 . S
C946 C947 1.366 . S
C946 C948 1.388 . S
C947 C946 1.366 . S
C947 C951 1.385 . S
C948 H929 0.951 . S
C948 C946 1.388 . S
C948 C949 1.366 . S
C949 C948 1.366 . S
C949 C950 1.414 . S
C949 C952 1.499 . S
C950 H930 0.950 . S
C950 C949 1.414 . S
C950 C951 1.374 . S
C951 H931 0.950 . S
C951 C947 1.385 . S
C951 C950 1.374 . S
C952 C949 1.499 . S
C952 C953 1.373 1_566 S
C952 C954 1.389 . S
C953 H932 0.950 . S
C953 C952 1.373 1_544 S
C953 C969 1.377 . S
C954 C952 1.389 . S
C954 C955 1.524 . S
C954 C968 1.377 . S
C955 C954 1.524 . S
C955 C956 1.397 . S
C955 C960 1.363 . S
C956 H933 0.950 . S
C956 C955 1.397 . S
C956 C957 1.334 . S
C957 H934 0.950 . S
C957 C956 1.334 . S
C957 C958 1.287 . S
C958 C957 1.287 . S
C958 C959 1.524 . S
C958 H977 0.913 . S
C959 H935 0.950 . S
C959 C958 1.524 . S
C959 C960 1.415 . S
C960 H936 0.950 . S
C960 C955 1.363 . S
C960 C959 1.415 . S
C961 H937 0.951 . S
C961 C962 1.366 . S
C961 C963 1.388 . S
C962 C961 1.366 . S
C962 C966 1.385 . S
C963 H938 0.951 . S
C963 C961 1.388 . S
C963 C964 1.366 . S
C964 C963 1.366 . S
C964 C965 1.414 . S
C964 C967 1.499 . S
C965 H939 0.950 . S
C965 C964 1.414 . S
C965 C966 1.374 . S
C966 H940 0.950 . S
C966 C962 1.385 . S
C966 C965 1.374 . S
C967 C964 1.499 . S
C967 C968 1.373 1_544 S
C967 C969 1.389 . S
C968 H941 0.950 . S
C968 C954 1.377 . S
C968 C967 1.373 1_566 S
C969 C953 1.377 . S
C969 C967 1.389 . S
C969 C970 1.524 . S
C970 C969 1.524 . S
C970 C971 1.397 . S
C970 C975 1.363 . S
C971 H942 0.950 . S
C971 C970 1.397 . S
C971 C972 1.334 . S
C972 H943 0.950 . S
C972 C971 1.334 . S
C972 C973 1.287 . S
C973 C972 1.287 . S
C973 C974 1.524 . S
C973 H976 0.999 . S
C974 H944 0.950 . S
C974 C973 1.524 . S
C974 C975 1.415 . S
C975 H945 0.950 . S
C975 C970 1.363 . S
C975 C974 1.415 . S
H976 C973 0.999 . S
H977 C958 0.913 . S
H978 C996 0.951 . S
H979 C998 0.951 . S
H980 C1000 0.950 . S
H981 C1001 0.950 . S
H982 C1003 0.950 . S
H983 C1006 0.950 . S
H984 C1007 0.950 . S
H985 C1009 0.950 . S
H986 C1010 0.950 . S
H987 C1011 0.951 . S
H988 C1013 0.951 . S
H989 C1015 0.950 . S
H990 C1016 0.950 . S
H991 C1018 0.950 . S
H992 C1021 0.950 . S
H993 C1022 0.950 . S
H994 C1024 0.950 . S
H995 C1025 0.950 . S
C996 H978 0.951 . S
C996 C997 1.366 . S
C996 C998 1.388 . S
C997 C996 1.366 . S
C997 C1001 1.385 . S
C998 H979 0.951 . S
C998 C996 1.388 . S
C998 C999 1.366 . S
C999 C998 1.366 . S
C999 C1000 1.414 . S
C999 C1002 1.499 . S
C1000 H980 0.950 . S
C1000 C999 1.414 . S
C1000 C1001 1.374 . S
C1001 H981 0.950 . S
C1001 C997 1.385 . S
C1001 C1000 1.374 . S
C1002 C999 1.499 . S
C1002 C1003 1.373 1_556 S
C1002 C1004 1.389 . S
C1003 H982 0.950 . S
C1003 C1002 1.373 1_554 S
C1003 C1019 1.377 . S
C1004 C1002 1.389 . S
C1004 C1005 1.524 . S
C1004 C1018 1.377 . S
C1005 C1004 1.524 . S
C1005 C1006 1.397 . S
C1005 C1010 1.363 . S
C1006 H983 0.950 . S
C1006 C1005 1.397 . S
C1006 C1007 1.334 . S
C1007 H984 0.950 . S
C1007 C1006 1.334 . S
C1007 C1008 1.287 . S
C1008 C1007 1.287 . S
C1008 C1009 1.524 . S
C1008 H1027 0.913 . S
C1009 H985 0.950 . S
C1009 C1008 1.524 . S
C1009 C1010 1.415 . S
C1010 H986 0.950 . S
C1010 C1005 1.363 . S
C1010 C1009 1.415 . S
C1011 H987 0.951 . S
C1011 C1012 1.366 . S
C1011 C1013 1.388 . S
C1012 C1011 1.366 . S
C1012 C1016 1.385 . S
C1013 H988 0.951 . S
C1013 C1011 1.388 . S
C1013 C1014 1.366 . S
C1014 C1013 1.366 . S
C1014 C1015 1.414 . S
C1014 C1017 1.499 . S
C1015 H989 0.950 . S
C1015 C1014 1.414 . S
C1015 C1016 1.374 . S
C1016 H990 0.950 . S
C1016 C1012 1.385 . S
C1016 C1015 1.374 . S
C1017 C1014 1.499 . S
C1017 C1018 1.373 1_554 S
C1017 C1019 1.389 . S
C1018 H991 0.950 . S
C1018 C1004 1.377 . S
C1018 C1017 1.373 1_556 S
C1019 C1003 1.377 . S
C1019 C1017 1.389 . S
C1019 C1020 1.524 . S
C1020 C1019 1.524 . S
C1020 C1021 1.397 . S
C1020 C1025 1.363 . S
C1021 H992 0.950 . S
C1021 C1020 1.397 . S
C1021 C1022 1.334 . S
C1022 H993 0.950 . S
C1022 C1021 1.334 . S
C1022 C1023 1.287 . S
C1023 C1022 1.287 . S
C1023 C1024 1.524 . S
C1023 H1026 0.999 . S
C1024 H994 0.950 . S
C1024 C1023 1.524 . S
C1024 C1025 1.415 . S
C1025 H995 0.950 . S
C1025 C1020 1.363 . S
C1025 C1024 1.415 . S
H1026 C1023 0.999 . S
H1027 C1008 0.913 . S
H1028 C1046 0.951 . S
H1029 C1048 0.951 . S
H1030 C1050 0.950 . S
H1031 C1051 0.950 . S
H1032 C1053 0.950 . S
H1033 C1056 0.950 . S
H1034 C1057 0.950 . S
H1035 C1059 0.950 . S
H1036 C1060 0.950 . S
H1037 C1061 0.951 . S
H1038 C1063 0.951 . S
H1039 C1065 0.950 . S
H1040 C1066 0.950 . S
H1041 C1068 0.950 . S
H1042 C1071 0.950 . S
H1043 C1072 0.950 . S
H1044 C1074 0.950 . S
H1045 C1075 0.950 . S
C1046 H1028 0.951 . S
C1046 C1047 1.366 . S
C1046 C1048 1.388 . S
C1047 C1046 1.366 . S
C1047 C1051 1.385 . S
C1048 H1029 0.951 . S
C1048 C1046 1.388 . S
C1048 C1049 1.366 . S
C1049 C1048 1.366 . S
C1049 C1050 1.414 . S
C1049 C1052 1.499 . S
C1050 H1030 0.950 . S
C1050 C1049 1.414 . S
C1050 C1051 1.374 . S
C1051 H1031 0.950 . S
C1051 C1047 1.385 . S
C1051 C1050 1.374 . S
C1052 C1049 1.499 . S
C1052 C1053 1.373 . S
C1052 C1054 1.389 1_556 S
C1053 H1032 0.950 . S
C1053 C1052 1.373 . S
C1053 C1069 1.377 1_455 S
C1054 C1052 1.389 1_554 S
C1054 C1055 1.524 . S
C1054 C1068 1.377 1_455 S
C1055 C1054 1.524 . S
C1055 C1056 1.397 . S
C1055 C1060 1.363 . S
C1056 H1033 0.950 . S
C1056 C1055 1.397 . S
C1056 C1057 1.334 . S
C1057 H1034 0.950 . S
C1057 C1056 1.334 . S
C1057 C1058 1.287 . S
C1058 C1057 1.287 . S
C1058 C1059 1.524 . S
C1058 H1077 0.913 . S
C1059 H1035 0.950 . S
C1059 C1058 1.524 . S
C1059 C1060 1.415 . S
C1060 H1036 0.950 . S
C1060 C1055 1.363 . S
C1060 C1059 1.415 . S
C1061 H1037 0.951 . S
C1061 C1062 1.366 . S
C1061 C1063 1.388 . S
C1062 C1061 1.366 . S
C1062 C1066 1.385 . S
C1063 H1038 0.951 . S
C1063 C1061 1.388 . S
C1063 C1064 1.366 . S
C1064 C1063 1.366 . S
C1064 C1065 1.414 . S
C1064 C1067 1.499 . S
C1065 H1039 0.950 . S
C1065 C1064 1.414 . S
C1065 C1066 1.374 . S
C1066 H1040 0.950 . S
C1066 C1062 1.385 . S
C1066 C1065 1.374 . S
C1067 C1064 1.499 . S
C1067 C1068 1.373 . S
C1067 C1069 1.389 1_554 S
C1068 H1041 0.950 . S
C1068 C1054 1.377 1_655 S
C1068 C1067 1.373 . S
C1069 C1053 1.377 1_655 S
C1069 C1067 1.389 1_556 S
C1069 C1070 1.524 . S
C1070 C1069 1.524 . S
C1070 C1071 1.397 . S
C1070 C1075 1.363 . S
C1071 H1042 0.950 . S
C1071 C1070 1.397 . S
C1071 C1072 1.334 . S
C1072 H1043 0.950 . S
C1072 C1071 1.334 . S
C1072 C1073 1.287 . S
C1073 C1072 1.287 . S
C1073 C1074 1.524 . S
C1073 H1076 0.999 . S
C1074 H1044 0.950 . S
C1074 C1073 1.524 . S
C1074 C1075 1.415 . S
C1075 H1045 0.950 . S
C1075 C1070 1.363 . S
C1075 C1074 1.415 . S
H1076 C1073 0.999 . S
H1077 C1058 0.913 . S
H1078 C1096 0.951 . S
H1079 C1098 0.951 . S
H1080 C1100 0.950 . S
H1081 C1101 0.950 . S
H1082 C1103 0.950 . S
H1083 C1106 0.950 . S
H1084 C1107 0.950 . S
H1085 C1109 0.950 . S
H1086 C1110 0.950 . S
H1087 C1111 0.951 . S
H1088 C1113 0.951 . S
H1089 C1115 0.950 . S
H1090 C1116 0.950 . S
H1091 C1118 0.950 . S
H1092 C1121 0.950 . S
H1093 C1122 0.950 . S
H1094 C1124 0.950 . S
H1095 C1125 0.950 . S
C1096 H1078 0.951 . S
C1096 C1097 1.366 1_455 S
C1096 C1098 1.388 . S
C1097 C1096 1.366 1_655 S
C1097 C1101 1.385 . S
C1098 H1079 0.951 . S
C1098 C1096 1.388 . S
C1098 C1099 1.366 1_455 S
C1099 C1098 1.366 1_655 S
C1099 C1100 1.414 . S
C1099 C1102 1.499 . S
C1100 H1080 0.950 . S
C1100 C1099 1.414 . S
C1100 C1101 1.374 . S
C1101 H1081 0.950 . S
C1101 C1097 1.385 . S
C1101 C1100 1.374 . S
C1102 C1099 1.499 . S
C1102 C1103 1.369 1_556 S
C1102 C1104 1.389 1_655 S
C1103 H1082 0.950 . S
C1103 C1102 1.369 1_554 S
C1103 C1119 1.381 1_545 S
C1104 C1102 1.389 1_455 S
C1104 C1105 1.524 . S
C1104 C1118 1.381 1_545 S
C1105 C1104 1.524 . S
C1105 C1106 1.397 . S
C1105 C1110 1.363 . S
C1106 H1083 0.950 . S
C1106 C1105 1.397 . S
C1106 C1107 1.334 . S
C1107 H1084 0.950 . S
C1107 C1106 1.334 . S
C1107 C1108 1.287 . S
C1108 C1107 1.287 . S
C1108 C1109 1.524 . S
C1108 H1127 0.913 . S
C1109 H1085 0.950 . S
C1109 C1108 1.524 . S
C1109 C1110 1.415 . S
C1110 H1086 0.950 . S
C1110 C1105 1.363 . S
C1110 C1109 1.415 . S
C1111 H1087 0.951 . S
C1111 C1112 1.366 1_655 S
C1111 C1113 1.388 . S
C1112 C1111 1.366 1_455 S
C1112 C1116 1.385 . S
C1113 H1088 0.951 . S
C1113 C1111 1.388 . S
C1113 C1114 1.366 1_655 S
C1114 C1113 1.366 1_455 S
C1114 C1115 1.414 . S
C1114 C1117 1.499 . S
C1115 H1089 0.950 . S
C1115 C1114 1.414 . S
C1115 C1116 1.374 . S
C1116 H1090 0.950 . S
C1116 C1112 1.385 . S
C1116 C1115 1.374 . S
C1117 C1114 1.499 . S
C1117 C1118 1.369 1_554 S
C1117 C1119 1.389 1_455 S
C1118 H1091 0.950 . S
C1118 C1104 1.381 1_565 S
C1118 C1117 1.369 1_556 S
C1119 C1103 1.381 1_565 S
C1119 C1117 1.389 1_655 S
C1119 C1120 1.524 . S
C1120 C1119 1.524 . S
C1120 C1121 1.397 . S
C1120 C1125 1.363 . S
C1121 H1092 0.950 . S
C1121 C1120 1.397 . S
C1121 C1122 1.334 . S
C1122 H1093 0.950 . S
C1122 C1121 1.334 . S
C1122 C1123 1.287 . S
C1123 C1122 1.287 . S
C1123 C1124 1.524 . S
C1123 H1126 0.999 . S
C1124 H1094 0.950 . S
C1124 C1123 1.524 . S
C1124 C1125 1.415 . S
C1125 H1095 0.950 . S
C1125 C1120 1.363 . S
C1125 C1124 1.415 . S
H1126 C1123 0.999 . S
H1127 C1108 0.913 . S
H1128 C1146 0.951 . S
H1129 C1148 0.951 . S
H1130 C1150 0.950 . S
H1131 C1151 0.950 . S
H1132 C1153 0.950 . S
H1133 C1156 0.950 . S
H1134 C1157 0.950 . S
H1135 C1159 0.950 . S
H1136 C1160 0.950 . S
H1137 C1161 0.951 . S
H1138 C1163 0.951 . S
H1139 C1165 0.950 . S
H1140 C1166 0.950 . S
H1141 C1168 0.950 . S
H1142 C1171 0.950 . S
H1143 C1172 0.950 . S
H1144 C1174 0.950 . S
H1145 C1175 0.950 . S
C1146 H1128 0.951 . S
C1146 C1147 1.366 . S
C1146 C1148 1.388 . S
C1147 C1146 1.366 . S
C1147 C1151 1.385 . S
C1148 H1129 0.951 . S
C1148 C1146 1.388 . S
C1148 C1149 1.366 . S
C1149 C1148 1.366 . S
C1149 C1150 1.414 . S
C1149 C1152 1.499 . S
C1150 H1130 0.950 . S
C1150 C1149 1.414 . S
C1150 C1151 1.374 . S
C1151 H1131 0.950 . S
C1151 C1147 1.385 . S
C1151 C1150 1.374 . S
C1152 C1149 1.499 . S
C1152 C1153 1.373 . S
C1152 C1154 1.389 . S
C1153 H1132 0.950 . S
C1153 C1152 1.373 . S
C1153 C1169 1.377 . S
C1154 C1152 1.389 . S
C1154 C1155 1.524 . S
C1154 C1168 1.377 . S
C1155 C1154 1.524 . S
C1155 C1156 1.397 . S
C1155 C1160 1.363 . S
C1156 H1133 0.950 . S
C1156 C1155 1.397 . S
C1156 C1157 1.334 . S
C1157 H1134 0.950 . S
C1157 C1156 1.334 . S
C1157 C1158 1.287 . S
C1158 C1157 1.287 . S
C1158 C1159 1.524 . S
C1158 H1177 0.913 . S
C1159 H1135 0.950 . S
C1159 C1158 1.524 . S
C1159 C1160 1.415 . S
C1160 H1136 0.950 . S
C1160 C1155 1.363 . S
C1160 C1159 1.415 . S
C1161 H1137 0.951 . S
C1161 C1162 1.366 . S
C1161 C1163 1.388 . S
C1162 C1161 1.366 . S
C1162 C1166 1.385 . S
C1163 H1138 0.951 . S
C1163 C1161 1.388 . S
C1163 C1164 1.366 . S
C1164 C1163 1.366 . S
C1164 C1165 1.414 . S
C1164 C1167 1.499 . S
C1165 H1139 0.950 . S
C1165 C1164 1.414 . S
C1165 C1166 1.374 . S
C1166 H1140 0.950 . S
C1166 C1162 1.385 . S
C1166 C1165 1.374 . S
C1167 C1164 1.499 . S
C1167 C1168 1.373 . S
C1167 C1169 1.389 . S
C1168 H1141 0.950 . S
C1168 C1154 1.377 . S
C1168 C1167 1.373 . S
C1169 C1153 1.377 . S
C1169 C1167 1.389 . S
C1169 C1170 1.524 . S
C1170 C1169 1.524 . S
C1170 C1171 1.397 . S
C1170 C1175 1.363 . S
C1171 H1142 0.950 . S
C1171 C1170 1.397 . S
C1171 C1172 1.334 . S
C1172 H1143 0.950 . S
C1172 C1171 1.334 . S
C1172 C1173 1.287 . S
C1173 C1172 1.287 . S
C1173 C1174 1.524 . S
C1173 H1176 0.999 . S
C1174 H1144 0.950 . S
C1174 C1173 1.524 . S
C1174 C1175 1.415 . S
C1175 H1145 0.950 . S
C1175 C1170 1.363 . S
C1175 C1174 1.415 . S
H1176 C1173 0.999 . S
H1177 C1158 0.913 . S
H1178 C1196 0.951 . S
H1179 C1198 0.951 . S
H1180 C1200 0.950 . S
H1181 C1201 0.950 . S
H1182 C1203 0.950 . S
H1183 C1206 0.950 . S
H1184 C1207 0.950 . S
H1185 C1209 0.950 . S
H1186 C1210 0.950 . S
H1187 C1211 0.951 . S
H1188 C1213 0.951 . S
H1189 C1215 0.950 . S
H1190 C1216 0.950 . S
H1191 C1218 0.950 . S
H1192 C1221 0.950 . S
H1193 C1222 0.950 . S
H1194 C1224 0.950 . S
H1195 C1225 0.950 . S
C1196 H1178 0.951 . S
C1196 C1197 1.366 . S
C1196 C1198 1.388 . S
C1197 C1196 1.366 . S
C1197 C1201 1.385 1_655 S
C1198 H1179 0.951 . S
C1198 C1196 1.388 . S
C1198 C1199 1.366 . S
C1199 C1198 1.366 . S
C1199 C1200 1.414 1_655 S
C1199 C1202 1.499 . S
C1200 H1180 0.950 . S
C1200 C1199 1.414 1_455 S
C1200 C1201 1.374 . S
C1201 H1181 0.950 . S
C1201 C1197 1.385 1_455 S
C1201 C1200 1.374 . S
C1202 C1199 1.499 . S
C1202 C1203 1.373 1_655 S
C1202 C1204 1.389 . S
C1203 H1182 0.950 . S
C1203 C1202 1.373 1_455 S
C1203 C1219 1.377 . S
C1204 C1202 1.389 . S
C1204 C1205 1.524 . S
C1204 C1218 1.377 . S
C1205 C1204 1.524 . S
C1205 C1206 1.397 1_655 S
C1205 C1210 1.363 . S
C1206 H1183 0.950 . S
C1206 C1205 1.397 1_455 S
C1206 C1207 1.334 . S
C1207 H1184 0.950 . S
C1207 C1206 1.334 . S
C1207 C1208 1.287 1_455 S
C1208 C1207 1.287 1_655 S
C1208 C1209 1.524 . S
C1208 H1227 0.913 . S
C1209 H1185 0.950 . S
C1209 C1208 1.524 . S
C1209 C1210 1.415 . S
C1210 H1186 0.950 . S
C1210 C1205 1.363 . S
C1210 C1209 1.415 . S
C1211 H1187 0.951 . S
C1211 C1212 1.366 . S
C1211 C1213 1.388 . S
C1212 C1211 1.366 . S
C1212 C1216 1.385 1_455 S
C1213 H1188 0.951 . S
C1213 C1211 1.388 . S
C1213 C1214 1.366 . S
C1214 C1213 1.366 . S
C1214 C1215 1.414 1_455 S
C1214 C1217 1.499 . S
C1215 H1189 0.950 . S
C1215 C1214 1.414 1_655 S
C1215 C1216 1.374 . S
C1216 H1190 0.950 . S
C1216 C1212 1.385 1_655 S
C1216 C1215 1.374 . S
C1217 C1214 1.499 . S
C1217 C1218 1.373 1_455 S
C1217 C1219 1.389 . S
C1218 H1191 0.950 . S
C1218 C1204 1.377 . S
C1218 C1217 1.373 1_655 S
C1219 C1203 1.377 . S
C1219 C1217 1.389 . S
C1219 C1220 1.524 . S
C1220 C1219 1.524 . S
C1220 C1221 1.397 1_455 S
C1220 C1225 1.363 . S
C1221 H1192 0.950 . S
C1221 C1220 1.397 1_655 S
C1221 C1222 1.334 . S
C1222 H1193 0.950 . S
C1222 C1221 1.334 . S
C1222 C1223 1.287 1_655 S
C1223 C1222 1.287 1_455 S
C1223 C1224 1.524 . S
C1223 H1226 0.999 . S
C1224 H1194 0.950 . S
C1224 C1223 1.524 . S
C1224 C1225 1.415 . S
C1225 H1195 0.950 . S
C1225 C1220 1.363 . S
C1225 C1224 1.415 . S
H1226 C1223 0.999 . S
H1227 C1208 0.913 . S
H1228 C1246 0.951 . S
H1229 C1248 0.951 . S
H1230 C1250 0.950 . S
H1231 C1251 0.950 1_565 S
H1232 C1253 0.950 . S
H1233 C1256 0.950 . S
H1234 C1257 0.950 . S
H1235 C1259 0.950 . S
H1236 C1260 0.950 . S
H1237 C1261 0.951 . S
H1238 C1263 0.951 . S
H1239 C1265 0.950 . S
H1240 C1266 0.950 1_545 S
H1241 C1268 0.950 . S
H1242 C1271 0.950 . S
H1243 C1272 0.950 . S
H1244 C1274 0.950 . S
H1245 C1275 0.950 . S
C1246 H1228 0.951 . S
C1246 C1247 1.366 . S
C1246 C1248 1.388 . S
C1247 C1246 1.366 . S
C1247 C1251 1.385 . S
C1248 H1229 0.951 . S
C1248 C1246 1.388 . S
C1248 C1249 1.366 . S
C1249 C1248 1.366 . S
C1249 C1250 1.414 1_545 S
C1249 C1252 1.499 . S
C1250 H1230 0.950 . S
C1250 C1249 1.414 1_565 S
C1250 C1251 1.374 1_565 S
C1251 H1231 0.950 1_545 S
C1251 C1247 1.385 . S
C1251 C1250 1.374 1_545 S
C1252 C1249 1.499 . S
C1252 C1253 1.373 . S
C1252 C1254 1.389 1_645 S
C1253 H1232 0.950 . S
C1253 C1252 1.373 . S
C1253 C1269 1.377 . S
C1254 C1252 1.389 1_465 S
C1254 C1255 1.524 . S
C1254 C1268 1.377 . S
C1255 C1254 1.524 . S
C1255 C1256 1.397 1_455 S
C1255 C1260 1.363 1_565 S
C1256 H1233 0.950 . S
C1256 C1255 1.397 1_655 S
C1256 C1257 1.334 . S
C1257 H1234 0.950 . S
C1257 C1256 1.334 . S
C1257 C1258 1.287 1_655 S
C1258 C1257 1.287 1_455 S
C1258 C1259 1.524 1_565 S
C1258 H1277 0.913 . S
C1259 H1235 0.950 . S
C1259 C1258 1.524 1_545 S
C1259 C1260 1.415 . S
C1260 H1236 0.950 . S
C1260 C1255 1.363 1_545 S
C1260 C1259 1.415 . S
C1261 H1237 0.951 . S
C1261 C1262 1.366 . S
C1261 C1263 1.388 . S
C1262 C1261 1.366 . S
C1262 C1266 1.385 . S
C1263 H1238 0.951 . S
C1263 C1261 1.388 . S
C1263 C1264 1.366 . S
C1264 C1263 1.366 . S
C1264 C1265 1.414 1_565 S
C1264 C1267 1.499 . S
C1265 H1239 0.950 . S
C1265 C1264 1.414 1_545 S
C1265 C1266 1.374 1_545 S
C1266 H1240 0.950 1_565 S
C1266 C1262 1.385 . S
C1266 C1265 1.374 1_565 S
C1267 C1264 1.499 . S
C1267 C1268 1.373 . S
C1267 C1269 1.389 1_465 S
C1268 H1241 0.950 . S
C1268 C1254 1.377 . S
C1268 C1267 1.373 . S
C1269 C1253 1.377 . S
C1269 C1267 1.389 1_645 S
C1269 C1270 1.524 . S
C1270 C1269 1.524 . S
C1270 C1271 1.397 1_655 S
C1270 C1275 1.363 1_545 S
C1271 H1242 0.950 . S
C1271 C1270 1.397 1_455 S
C1271 C1272 1.334 . S
C1272 H1243 0.950 . S
C1272 C1271 1.334 . S
C1272 C1273 1.287 1_455 S
C1273 C1272 1.287 1_655 S
C1273 C1274 1.524 1_545 S
C1273 H1276 0.999 . S
C1274 H1244 0.950 . S
C1274 C1273 1.524 1_565 S
C1274 C1275 1.415 . S
C1275 H1245 0.950 . S
C1275 C1270 1.363 1_565 S
C1275 C1274 1.415 . S
H1276 C1273 0.999 . S
H1277 C1258 0.913 . S
H1278 C1296 0.951 . S
H1279 C1298 0.951 . S
H1280 C1300 0.950 . S
H1281 C1301 0.950 . S
H1282 C1303 0.950 . S
H1283 C1306 0.950 . S
H1284 C1307 0.950 . S
H1285 C1309 0.950 . S
H1286 C1310 0.950 . S
H1287 C1311 0.951 . S
H1288 C1313 0.951 . S
H1289 C1315 0.950 . S
H1290 C1316 0.950 . S
H1291 C1318 0.950 . S
H1292 C1321 0.950 . S
H1293 C1322 0.950 . S
H1294 C1324 0.950 . S
H1295 C1325 0.950 . S
C1296 H1278 0.951 . S
C1296 C1297 1.366 . S
C1296 C1298 1.388 . S
C1297 C1296 1.366 . S
C1297 C1301 1.385 . S
C1298 H1279 0.951 . S
C1298 C1296 1.388 . S
C1298 C1299 1.366 . S
C1299 C1298 1.366 . S
C1299 C1300 1.414 . S
C1299 C1302 1.499 . S
C1300 H1280 0.950 . S
C1300 C1299 1.414 . S
C1300 C1301 1.374 . S
C1301 H1281 0.950 . S
C1301 C1297 1.385 . S
C1301 C1300 1.374 . S
C1302 C1299 1.499 . S
C1302 C1303 1.373 . S
C1302 C1304 1.420 . S
C1303 H1282 0.950 . S
C1303 C1302 1.373 . S
C1303 C1319 1.345 1_565 S
C1304 C1302 1.420 . S
C1304 C1305 1.524 . S
C1304 C1318 1.345 1_565 S
C1305 C1304 1.524 . S
C1305 C1306 1.429 . S
C1305 C1310 1.330 1_565 S
C1306 H1283 0.950 . S
C1306 C1305 1.429 . S
C1306 C1307 1.334 . S
C1307 H1284 0.950 . S
C1307 C1306 1.334 . S
C1307 C1308 1.287 . S
C1308 C1307 1.287 . S
C1308 C1309 1.524 1_565 S
C1308 H1327 0.913 . S
C1309 H1285 0.950 . S
C1309 C1308 1.524 1_545 S
C1309 C1310 1.415 . S
C1310 H1286 0.950 . S
C1310 C1305 1.330 1_545 S
C1310 C1309 1.415 . S
C1311 H1287 0.951 . S
C1311 C1312 1.366 . S
C1311 C1313 1.388 . S
C1312 C1311 1.366 . S
C1312 C1316 1.385 . S
C1313 H1288 0.951 . S
C1313 C1311 1.388 . S
C1313 C1314 1.366 . S
C1314 C1313 1.366 . S
C1314 C1315 1.414 . S
C1314 C1317 1.499 . S
C1315 H1289 0.950 . S
C1315 C1314 1.414 . S
C1315 C1316 1.374 . S
C1316 H1290 0.950 . S
C1316 C1312 1.385 . S
C1316 C1315 1.374 . S
C1317 C1314 1.499 . S
C1317 C1318 1.373 . S
C1317 C1319 1.420 . S
C1318 H1291 0.950 . S
C1318 C1304 1.345 1_545 S
C1318 C1317 1.373 . S
C1319 C1303 1.345 1_545 S
C1319 C1317 1.420 . S
C1319 C1320 1.524 . S
C1320 C1319 1.524 . S
C1320 C1321 1.429 . S
C1320 C1325 1.330 1_545 S
C1321 H1292 0.950 . S
C1321 C1320 1.429 . S
C1321 C1322 1.334 . S
C1322 H1293 0.950 . S
C1322 C1321 1.334 . S
C1322 C1323 1.287 . S
C1323 C1322 1.287 . S
C1323 C1324 1.524 1_545 S
C1323 H1326 0.999 . S
C1324 H1294 0.950 . S
C1324 C1323 1.524 1_565 S
C1324 C1325 1.415 . S
C1325 H1295 0.950 . S
C1325 C1320 1.330 1_565 S
C1325 C1324 1.415 . S
H1326 C1323 0.999 . S
H1327 C1308 0.913 . S
H1328 C1346 0.951 . S
H1329 C1348 0.951 . S
H1330 C1350 0.950 . S
H1331 C1351 0.950 . S
H1332 C1353 0.950 . S
H1333 C1356 0.950 . S
H1334 C1357 0.950 . S
H1335 C1359 0.950 . S
H1336 C1360 0.950 . S
H1337 C1361 0.951 . S
H1338 C1363 0.951 . S
H1339 C1365 0.950 . S
H1340 C1366 0.950 . S
H1341 C1368 0.950 . S
H1342 C1371 0.950 1_554 S
H1343 C1372 0.950 . S
H1344 C1374 0.950 . S
H1345 C1375 0.950 . S
C1346 H1328 0.951 . S
C1346 C1347 1.366 . S
C1346 C1348 1.388 . S
C1347 C1346 1.366 . S
C1347 C1351 1.385 . S
C1348 H1329 0.951 . S
C1348 C1346 1.388 . S
C1348 C1349 1.366 . S
C1349 C1348 1.366 . S
C1349 C1350 1.414 . S
C1349 C1352 1.492 1_556 S
C1350 H1330 0.950 . S
C1350 C1349 1.414 . S
C1350 C1351 1.374 . S
C1351 H1331 0.950 . S
C1351 C1347 1.385 . S
C1351 C1350 1.374 . S
C1352 C1349 1.492 1_554 S
C1352 C1353 1.371 1_554 S
C1352 C1354 1.397 . S
C1353 H1332 0.950 . S
C1353 C1352 1.371 1_556 S
C1353 C1369 1.377 1_556 S
C1354 C1352 1.397 . S
C1354 C1355 1.524 . S
C1354 C1368 1.377 . S
C1355 C1354 1.524 . S
C1355 C1356 1.397 . S
C1355 C1360 1.363 . S
C1356 H1333 0.950 . S
C1356 C1355 1.397 . S
C1356 C1357 1.334 . S
C1357 H1334 0.950 . S
C1357 C1356 1.334 . S
C1357 C1358 1.287 . S
C1358 C1357 1.287 . S
C1358 C1359 1.524 . S
C1358 H1377 0.913 . S
C1359 H1335 0.950 . S
C1359 C1358 1.524 . S
C1359 C1360 1.415 . S
C1360 H1336 0.950 . S
C1360 C1355 1.363 . S
C1360 C1359 1.415 . S
C1361 H1337 0.951 . S
C1361 C1362 1.366 . S
C1361 C1363 1.388 . S
C1362 C1361 1.366 . S
C1362 C1366 1.385 . S
C1363 H1338 0.951 . S
C1363 C1361 1.388 . S
C1363 C1364 1.366 . S
C1364 C1363 1.366 . S
C1364 C1365 1.414 . S
C1364 C1367 1.499 . S
C1365 H1339 0.950 . S
C1365 C1364 1.414 . S
C1365 C1366 1.374 . S
C1366 H1340 0.950 . S
C1366 C1362 1.385 . S
C1366 C1365 1.374 . S
C1367 C1364 1.499 . S
C1367 C1368 1.373 . S
C1367 C1369 1.389 . S
C1368 H1341 0.950 . S
C1368 C1354 1.377 . S
C1368 C1367 1.373 . S
C1369 C1353 1.377 1_554 S
C1369 C1367 1.389 . S
C1369 C1370 1.524 . S
C1370 C1369 1.524 . S
C1370 C1371 1.397 1_554 S
C1370 C1375 1.363 1_554 S
C1371 H1342 0.950 1_556 S
C1371 C1370 1.397 1_556 S
C1371 C1372 1.334 . S
C1372 H1343 0.950 . S
C1372 C1371 1.334 . S
C1372 C1373 1.287 . S
C1373 C1372 1.287 . S
C1373 C1374 1.524 . S
C1373 H1376 0.999 . S
C1374 H1344 0.950 . S
C1374 C1373 1.524 . S
C1374 C1375 1.415 . S
C1375 H1345 0.950 . S
C1375 C1370 1.363 1_556 S
C1375 C1374 1.415 . S
H1376 C1373 0.999 . S
H1377 C1358 0.913 . S
H1378 C1396 0.951 . S
H1379 C1398 0.951 1_554 S
H1380 C1400 0.950 . S
H1381 C1401 0.950 . S
H1382 C1403 0.950 . S
H1383 C1406 0.950 . S
H1384 C1407 0.950 . S
H1385 C1409 0.950 . S
H1386 C1410 0.950 . S
H1387 C1411 0.951 . S
H1388 C1413 0.951 . S
H1389 C1415 0.950 . S
H1390 C1416 0.950 . S
H1391 C1418 0.950 . S
H1392 C1421 0.950 . S
H1393 C1422 0.950 . S
H1394 C1424 0.950 . S
H1395 C1425 0.950 . S
C1396 H1378 0.951 . S
C1396 C1397 1.366 . S
C1396 C1398 1.388 . S
C1397 C1396 1.366 . S
C1397 C1401 1.385 . S
C1398 H1379 0.951 1_556 S
C1398 C1396 1.388 . S
C1398 C1399 1.366 . S
C1399 C1398 1.366 . S
C1399 C1400 1.414 . S
C1399 C1402 1.499 . S
C1400 H1380 0.950 . S
C1400 C1399 1.414 . S
C1400 C1401 1.374 . S
C1401 H1381 0.950 . S
C1401 C1397 1.385 . S
C1401 C1400 1.374 . S
C1402 C1399 1.499 . S
C1402 C1403 1.373 . S
C1402 C1404 1.389 1_556 S
C1403 H1382 0.950 . S
C1403 C1402 1.373 . S
C1403 C1419 1.377 1_556 S
C1404 C1402 1.389 1_554 S
C1404 C1405 1.524 . S
C1404 C1418 1.377 . S
C1405 C1404 1.524 . S
C1405 C1406 1.397 1_554 S
C1405 C1410 1.363 . S
C1406 H1383 0.950 . S
C1406 C1405 1.397 1_556 S
C1406 C1407 1.334 . S
C1407 H1384 0.950 . S
C1407 C1406 1.334 . S
C1407 C1408 1.287 1_556 S
C1408 C1407 1.287 1_554 S
C1408 C1409 1.524 . S
C1408 H1427 0.913 . S
C1409 H1385 0.950 . S
C1409 C1408 1.524 . S
C1409 C1410 1.415 . S
C1410 H1386 0.950 . S
C1410 C1405 1.363 . S
C1410 C1409 1.415 . S
C1411 H1387 0.951 . S
C1411 C1412 1.366 . S
C1411 C1413 1.388 . S
C1412 C1411 1.366 . S
C1412 C1416 1.385 . S
C1413 H1388 0.951 . S
C1413 C1411 1.388 . S
C1413 C1414 1.366 . S
C1414 C1413 1.366 . S
C1414 C1415 1.414 . S
C1414 C1417 1.499 . S
C1415 H1389 0.950 . S
C1415 C1414 1.414 . S
C1415 C1416 1.374 . S
C1416 H1390 0.950 . S
C1416 C1412 1.385 . S
C1416 C1415 1.374 . S
C1417 C1414 1.499 . S
C1417 C1418 1.373 . S
C1417 C1419 1.389 . S
C1418 H1391 0.950 . S
C1418 C1404 1.377 . S
C1418 C1417 1.373 . S
C1419 C1403 1.377 1_554 S
C1419 C1417 1.389 . S
C1419 C1420 1.524 . S
C1420 C1419 1.524 . S
C1420 C1421 1.397 . S
C1420 C1425 1.363 1_554 S
C1421 H1392 0.950 . S
C1421 C1420 1.397 . S
C1421 C1422 1.334 . S
C1422 H1393 0.950 . S
C1422 C1421 1.334 . S
C1422 C1423 1.287 . S
C1423 C1422 1.287 . S
C1423 C1424 1.524 1_554 S
C1423 H1426 0.999 . S
C1424 H1394 0.950 . S
C1424 C1423 1.524 1_556 S
C1424 C1425 1.415 . S
C1425 H1395 0.950 . S
C1425 C1420 1.363 1_556 S
C1425 C1424 1.415 . S
H1426 C1423 0.999 . S
H1427 C1408 0.913 . S
H1428 C1446 0.951 . S
H1429 C1448 0.951 . S
H1430 C1450 0.950 . S
H1431 C1451 0.950 . S
H1432 C1453 0.950 . S
H1433 C1456 0.950 . S
H1434 C1457 0.950 . S
H1435 C1459 0.950 . S
H1436 C1460 0.950 . S
H1437 C1461 0.951 . S
H1438 C1463 0.951 . S
H1439 C1465 0.950 . S
H1440 C1466 0.950 . S
H1441 C1468 0.950 . S
H1442 C1471 0.950 . S
H1443 C1472 0.950 . S
H1444 C1474 0.950 . S
H1445 C1475 0.950 . S
C1446 H1428 0.951 . S
C1446 C1447 1.366 . S
C1446 C1448 1.388 . S
C1447 C1446 1.366 . S
C1447 C1451 1.385 . S
C1448 H1429 0.951 . S
C1448 C1446 1.388 . S
C1448 C1449 1.366 . S
C1449 C1448 1.366 . S
C1449 C1450 1.414 . S
C1449 C1452 1.511 . S
C1450 H1430 0.950 . S
C1450 C1449 1.414 . S
C1450 C1451 1.374 . S
C1451 H1431 0.950 . S
C1451 C1447 1.385 . S
C1451 C1450 1.374 . S
C1452 C1449 1.511 . S
C1452 C1453 1.380 . S
C1452 C1454 1.371 1_556 S
C1453 H1432 0.950 . S
C1453 C1452 1.380 . S
C1453 C1469 1.377 1_556 S
C1454 C1452 1.371 1_554 S
C1454 C1455 1.524 . S
C1454 C1468 1.377 . S
C1455 C1454 1.524 . S
C1455 C1456 1.397 . S
C1455 C1460 1.363 . S
C1456 H1433 0.950 . S
C1456 C1455 1.397 . S
C1456 C1457 1.334 . S
C1457 H1434 0.950 . S
C1457 C1456 1.334 . S
C1457 C1458 1.287 . S
C1458 C1457 1.287 . S
C1458 C1459 1.524 . S
C1458 H1477 0.913 . S
C1459 H1435 0.950 . S
C1459 C1458 1.524 . S
C1459 C1460 1.415 . S
C1460 H1436 0.950 . S
C1460 C1455 1.363 . S
C1460 C1459 1.415 . S
C1461 H1437 0.951 . S
C1461 C1462 1.366 . S
C1461 C1463 1.388 . S
C1462 C1461 1.366 . S
C1462 C1466 1.385 . S
C1463 H1438 0.951 . S
C1463 C1461 1.388 . S
C1463 C1464 1.366 . S
C1464 C1463 1.366 . S
C1464 C1465 1.414 . S
C1464 C1467 1.499 . S
C1465 H1439 0.950 . S
C1465 C1464 1.414 . S
C1465 C1466 1.374 . S
C1466 H1440 0.950 . S
C1466 C1462 1.385 . S
C1466 C1465 1.374 . S
C1467 C1464 1.499 . S
C1467 C1468 1.373 . S
C1467 C1469 1.389 . S
C1468 H1441 0.950 . S
C1468 C1454 1.377 . S
C1468 C1467 1.373 . S
C1469 C1453 1.377 1_554 S
C1469 C1467 1.389 . S
C1469 C1470 1.524 1_554 S
C1470 C1469 1.524 1_556 S
C1470 C1471 1.397 1_556 S
C1470 C1475 1.363 . S
C1471 H1442 0.950 . S
C1471 C1470 1.397 1_554 S
C1471 C1472 1.334 1_554 S
C1472 H1443 0.950 . S
C1472 C1471 1.334 1_556 S
C1472 C1473 1.287 . S
C1473 C1472 1.287 . S
C1473 C1474 1.524 . S
C1473 H1476 0.999 . S
C1474 H1444 0.950 . S
C1474 C1473 1.524 . S
C1474 C1475 1.415 . S
C1475 H1445 0.950 . S
C1475 C1470 1.363 . S
C1475 C1474 1.415 . S
H1476 C1473 0.999 . S
H1477 C1458 0.913 . S
H1478 C1496 0.951 . S
H1479 C1498 0.951 . S
H1480 C1500 0.950 1_554 S
H1481 C1501 0.950 . S
H1482 C1503 0.950 . S
H1483 C1506 0.950 . S
H1484 C1507 0.956 . S
H1485 C1509 0.950 1_545 S
H1486 C1510 0.950 . S
H1487 C1511 0.951 . S
H1488 C1513 0.951 . S
H1489 C1515 0.950 . S
H1490 C1516 0.950 . S
H1491 C1518 0.950 . S
H1492 C1521 0.950 . S
H1493 C1522 0.950 . S
H1494 C1524 0.950 . S
H1495 C1525 0.950 . S
C1496 H1478 0.951 . S
C1496 C1497 1.366 . S
C1496 C1498 1.388 . S
C1497 C1496 1.366 . S
C1497 C1501 1.385 . S
C1498 H1479 0.951 . S
C1498 C1496 1.388 . S
C1498 C1499 1.366 . S
C1499 C1498 1.366 . S
C1499 C1500 1.414 . S
C1499 C1502 1.493 1_556 S
C1500 H1480 0.950 1_556 S
C1500 C1499 1.414 . S
C1500 C1501 1.374 . S
C1501 H1481 0.950 . S
C1501 C1497 1.385 . S
C1501 C1500 1.374 . S
C1502 C1499 1.493 1_554 S
C1502 C1503 1.377 . S
C1502 C1504 1.391 . S
C1503 H1482 0.950 . S
C1503 C1502 1.377 . S
C1503 C1519 1.377 . S
C1504 C1502 1.391 . S
C1504 C1505 1.524 1_554 S
C1504 C1518 1.377 . S
C1505 C1504 1.524 1_556 S
C1505 C1506 1.397 1_556 S
C1505 C1510 1.363 . S
C1506 H1483 0.950 . S
C1506 C1505 1.397 1_554 S
C1506 C1507 1.334 1_564 S
C1507 H1484 0.956 . S
C1507 C1506 1.334 1_546 S
C1507 C1508 1.287 . S
C1508 C1507 1.287 . S
C1508 C1509 1.524 1_545 S
C1508 H1527 0.913 . S
C1509 H1485 0.950 1_565 S
C1509 C1508 1.524 1_565 S
C1509 C1510 1.415 . S
C1510 H1486 0.950 . S
C1510 C1505 1.363 . S
C1510 C1509 1.415 . S
C1511 H1487 0.951 . S
C1511 C1512 1.366 . S
C1511 C1513 1.388 . S
C1512 C1511 1.366 . S
C1512 C1516 1.385 . S
C1513 H1488 0.951 . S
C1513 C1511 1.388 . S
C1513 C1514 1.366 . S
C1514 C1513 1.366 . S
C1514 C1515 1.414 . S
C1514 C1517 1.499 . S
C1515 H1489 0.950 . S
C1515 C1514 1.414 . S
C1515 C1516 1.374 . S
C1516 H1490 0.950 . S
C1516 C1512 1.385 . S
C1516 C1515 1.374 . S
C1517 C1514 1.499 . S
C1517 C1518 1.373 . S
C1517 C1519 1.389 . S
C1518 H1491 0.950 . S
C1518 C1504 1.377 . S
C1518 C1517 1.373 . S
C1519 C1503 1.377 . S
C1519 C1517 1.389 . S
C1519 C1520 1.524 . S
C1520 C1519 1.524 . S
C1520 C1521 1.397 . S
C1520 C1525 1.363 . S
C1521 H1492 0.950 . S
C1521 C1520 1.397 . S
C1521 C1522 1.334 . S
C1522 H1493 0.950 . S
C1522 C1521 1.334 . S
C1522 C1523 1.287 . S
C1523 C1522 1.287 . S
C1523 C1524 1.524 . S
C1523 H1526 0.999 . S
C1524 H1494 0.950 . S
C1524 C1523 1.524 . S
C1524 C1525 1.415 . S
C1525 H1495 0.950 . S
C1525 C1520 1.363 . S
C1525 C1524 1.415 . S
H1526 C1523 0.999 . S
H1527 C1508 0.913 . S
H1528 C1546 0.951 . S
H1529 C1548 0.951 . S
H1530 C1550 0.950 . S
H1531 C1551 0.950 . S
H1532 C1553 0.950 . S
H1533 C1556 0.950 . S
H1534 C1557 0.950 . S
H1535 C1559 0.950 . S
H1536 C1560 0.950 . S
H1537 C1561 0.951 . S
H1538 C1563 0.951 . S
H1539 C1565 0.950 . S
H1540 C1566 0.950 . S
H1541 C1568 0.950 . S
H1542 C1571 0.950 . S
H1543 C1572 0.950 . S
H1544 C1574 0.950 . S
H1545 C1575 0.950 . S
C1546 H1528 0.951 . S
C1546 C1547 1.366 . S
C1546 C1548 1.388 . S
C1547 C1546 1.366 . S
C1547 C1551 1.385 . S
C1548 H1529 0.951 . S
C1548 C1546 1.388 . S
C1548 C1549 1.366 . S
C1549 C1548 1.366 . S
C1549 C1550 1.414 . S
C1549 C1552 1.499 . S
C1550 H1530 0.950 . S
C1550 C1549 1.414 . S
C1550 C1551 1.374 . S
C1551 H1531 0.950 . S
C1551 C1547 1.385 . S
C1551 C1550 1.374 . S
C1552 C1549 1.499 . S
C1552 C1553 1.373 . S
C1552 C1554 1.389 . S
C1553 H1532 0.950 . S
C1553 C1552 1.373 . S
C1553 C1569 1.377 . S
C1554 C1552 1.389 . S
C1554 C1555 1.524 . S
C1554 C1568 1.377 . S
C1555 C1554 1.524 . S
C1555 C1556 1.397 . S
C1555 C1560 1.363 . S
C1556 H1533 0.950 . S
C1556 C1555 1.397 . S
C1556 C1557 1.334 . S
C1557 H1534 0.950 . S
C1557 C1556 1.334 . S
C1557 C1558 1.287 . S
C1558 C1557 1.287 . S
C1558 C1559 1.524 . S
C1558 H1577 0.913 . S
C1559 H1535 0.950 . S
C1559 C1558 1.524 . S
C1559 C1560 1.415 . S
C1560 H1536 0.950 . S
C1560 C1555 1.363 . S
C1560 C1559 1.415 . S
C1561 H1537 0.951 . S
C1561 C1562 1.366 . S
C1561 C1563 1.388 . S
C1562 C1561 1.366 . S
C1562 C1566 1.385 . S
C1563 H1538 0.951 . S
C1563 C1561 1.388 . S
C1563 C1564 1.366 . S
C1564 C1563 1.366 . S
C1564 C1565 1.414 . S
C1564 C1567 1.499 . S
C1565 H1539 0.950 . S
C1565 C1564 1.414 . S
C1565 C1566 1.374 . S
C1566 H1540 0.950 . S
C1566 C1562 1.385 . S
C1566 C1565 1.374 . S
C1567 C1564 1.499 . S
C1567 C1568 1.373 . S
C1567 C1569 1.389 . S
C1568 H1541 0.950 . S
C1568 C1554 1.377 . S
C1568 C1567 1.373 . S
C1569 C1553 1.377 . S
C1569 C1567 1.389 . S
C1569 C1570 1.524 . S
C1570 C1569 1.524 . S
C1570 C1571 1.397 . S
C1570 C1575 1.363 . S
C1571 H1542 0.950 . S
C1571 C1570 1.397 . S
C1571 C1572 1.334 . S
C1572 H1543 0.950 . S
C1572 C1571 1.334 . S
C1572 C1573 1.287 . S
C1573 C1572 1.287 . S
C1573 C1574 1.524 . S
C1573 H1576 0.999 . S
C1574 H1544 0.950 . S
C1574 C1573 1.524 . S
C1574 C1575 1.415 . S
C1575 H1545 0.950 . S
C1575 C1570 1.363 . S
C1575 C1574 1.415 . S
H1576 C1573 0.999 . S
H1577 C1558 0.913 . S
H1578 C1596 0.951 . S
H1579 C1598 0.951 . S
H1580 C1600 0.950 . S
H1581 C1601 0.950 . S
H1582 C1603 0.950 . S
H1583 C1606 0.950 . S
H1584 C1607 0.950 . S
H1585 C1609 0.950 . S
H1586 C1610 0.950 . S
H1587 C1611 0.951 . S
H1588 C1613 0.951 . S
H1589 C1615 0.950 . S
H1590 C1616 0.950 . S
H1591 C1618 0.950 . S
H1592 C1621 0.950 . S
H1593 C1622 0.950 . S
H1594 C1624 0.950 . S
H1595 C1625 0.950 . S
C1596 H1578 0.951 . S
C1596 C1597 1.366 . S
C1596 C1598 1.388 . S
C1597 C1596 1.366 . S
C1597 C1601 1.385 . S
C1598 H1579 0.951 . S
C1598 C1596 1.388 . S
C1598 C1599 1.366 . S
C1599 C1598 1.366 . S
C1599 C1600 1.414 . S
C1599 C1602 1.499 . S
C1600 H1580 0.950 . S
C1600 C1599 1.414 . S
C1600 C1601 1.374 . S
C1601 H1581 0.950 . S
C1601 C1597 1.385 . S
C1601 C1600 1.374 . S
C1602 C1599 1.499 . S
C1602 C1603 1.373 . S
C1602 C1604 1.389 . S
C1603 H1582 0.950 . S
C1603 C1602 1.373 . S
C1603 C1619 1.377 . S
C1604 C1602 1.389 . S
C1604 C1605 1.524 . S
C1604 C1618 1.377 . S
C1605 C1604 1.524 . S
C1605 C1606 1.397 . S
C1605 C1610 1.363 . S
C1606 H1583 0.950 . S
C1606 C1605 1.397 . S
C1606 C1607 1.334 . S
C1607 H1584 0.950 . S
C1607 C1606 1.334 . S
C1607 C1608 1.287 . S
C1608 C1607 1.287 . S
C1608 C1609 1.524 . S
C1608 H1627 0.913 . S
C1609 H1585 0.950 . S
C1609 C1608 1.524 . S
C1609 C1610 1.415 . S
C1610 H1586 0.950 . S
C1610 C1605 1.363 . S
C1610 C1609 1.415 . S
C1611 H1587 0.951 . S
C1611 C1612 1.366 . S
C1611 C1613 1.388 . S
C1612 C1611 1.366 . S
C1612 C1616 1.385 . S
C1613 H1588 0.951 . S
C1613 C1611 1.388 . S
C1613 C1614 1.366 . S
C1614 C1613 1.366 . S
C1614 C1615 1.414 . S
C1614 C1617 1.499 . S
C1615 H1589 0.950 . S
C1615 C1614 1.414 . S
C1615 C1616 1.374 . S
C1616 H1590 0.950 . S
C1616 C1612 1.385 . S
C1616 C1615 1.374 . S
C1617 C1614 1.499 . S
C1617 C1618 1.373 . S
C1617 C1619 1.389 . S
C1618 H1591 0.950 . S
C1618 C1604 1.377 . S
C1618 C1617 1.373 . S
C1619 C1603 1.377 . S
C1619 C1617 1.389 . S
C1619 C1620 1.524 . S
C1620 C1619 1.524 . S
C1620 C1621 1.397 . S
C1620 C1625 1.363 . S
C1621 H1592 0.950 . S
C1621 C1620 1.397 . S
C1621 C1622 1.334 . S
C1622 H1593 0.950 . S
C1622 C1621 1.334 . S
C1622 C1623 1.287 . S
C1623 C1622 1.287 . S
C1623 C1624 1.524 . S
C1623 H1626 0.999 . S
C1624 H1594 0.950 . S
C1624 C1623 1.524 . S
C1624 C1625 1.415 . S
C1625 H1595 0.950 . S
C1625 C1620 1.363 . S
C1625 C1624 1.415 . S
H1626 C1623 0.999 . S
H1627 C1608 0.913 . S
H1628 C1646 0.951 . S
H1629 C1648 0.951 . S
H1630 C1650 0.950 . S
H1631 C1651 0.950 . S
H1632 C1653 0.950 . S
H1633 C1656 0.950 . S
H1634 C1657 0.950 . S
H1635 C1659 0.950 . S
H1636 C1660 0.950 . S
H1637 C1661 0.951 . S
H1638 C1663 0.951 . S
H1639 C1665 0.950 . S
H1640 C1666 0.950 . S
H1641 C1668 0.950 . S
H1642 C1671 0.950 . S
H1643 C1672 0.950 . S
H1644 C1674 0.950 1_455 S
H1645 C1675 0.950 . S
C1646 H1628 0.951 . S
C1646 C1647 1.366 . S
C1646 C1648 1.388 . S
C1647 C1646 1.366 . S
C1647 C1651 1.385 . S
C1648 H1629 0.951 . S
C1648 C1646 1.388 . S
C1648 C1649 1.366 . S
C1649 C1648 1.366 . S
C1649 C1650 1.414 . S
C1649 C1652 1.499 . S
C1650 H1630 0.950 . S
C1650 C1649 1.414 . S
C1650 C1651 1.374 . S
C1651 H1631 0.950 . S
C1651 C1647 1.385 . S
C1651 C1650 1.374 . S
C1652 C1649 1.499 . S
C1652 C1653 1.373 . S
C1652 C1654 1.389 . S
C1653 H1632 0.950 . S
C1653 C1652 1.373 . S
C1653 C1669 1.377 . S
C1654 C1652 1.389 . S
C1654 C1655 1.524 . S
C1654 C1668 1.377 . S
C1655 C1654 1.524 . S
C1655 C1656 1.397 . S
C1655 C1660 1.363 . S
C1656 H1633 0.950 . S
C1656 C1655 1.397 . S
C1656 C1657 1.334 . S
C1657 H1634 0.950 . S
C1657 C1656 1.334 . S
C1657 C1658 1.287 . S
C1658 C1657 1.287 . S
C1658 C1659 1.524 . S
C1658 H1677 0.913 . S
C1659 H1635 0.950 . S
C1659 C1658 1.524 . S
C1659 C1660 1.415 . S
C1660 H1636 0.950 . S
C1660 C1655 1.363 . S
C1660 C1659 1.415 . S
C1661 H1637 0.951 . S
C1661 C1662 1.366 . S
C1661 C1663 1.388 . S
C1662 C1661 1.366 . S
C1662 C1666 1.385 . S
C1663 H1638 0.951 . S
C1663 C1661 1.388 . S
C1663 C1664 1.366 . S
C1664 C1663 1.366 . S
C1664 C1665 1.414 . S
C1664 C1667 1.499 . S
C1665 H1639 0.950 . S
C1665 C1664 1.414 . S
C1665 C1666 1.374 . S
C1666 H1640 0.950 . S
C1666 C1662 1.385 . S
C1666 C1665 1.374 . S
C1667 C1664 1.499 . S
C1667 C1668 1.373 . S
C1667 C1669 1.389 . S
C1668 H1641 0.950 . S
C1668 C1654 1.377 . S
C1668 C1667 1.373 . S
C1669 C1653 1.377 . S
C1669 C1667 1.389 . S
C1669 C1670 1.524 . S
C1670 C1669 1.524 . S
C1670 C1671 1.397 . S
C1670 C1675 1.363 . S
C1671 H1642 0.950 . S
C1671 C1670 1.397 . S
C1671 C1672 1.334 . S
C1672 H1643 0.950 . S
C1672 C1671 1.334 . S
C1672 C1673 1.287 . S
C1673 C1672 1.287 . S
C1673 C1674 1.524 . S
C1673 H1676 0.999 . S
C1674 H1644 0.950 1_655 S
C1674 C1673 1.524 . S
C1674 C1675 1.415 . S
C1675 H1645 0.950 . S
C1675 C1670 1.363 . S
C1675 C1674 1.415 . S
H1676 C1673 0.999 . S
H1677 C1658 0.913 . S
H1678 C1696 0.951 . S
H1679 C1698 0.951 . S
H1680 C1700 0.950 . S
H1681 C1701 0.950 . S
H1682 C1703 0.950 . S
H1683 C1706 0.950 . S
H1684 C1707 0.950 . S
H1685 C1709 0.950 . S
H1686 C1710 0.950 . S
H1687 C1711 0.951 . S
H1688 C1713 0.951 . S
H1689 C1715 0.950 . S
H1690 C1716 0.950 . S
H1691 C1718 0.950 . S
H1692 C1721 0.950 . S
H1693 C1722 0.950 . S
H1694 C1724 0.950 . S
H1695 C1725 0.950 . S
C1696 H1678 0.951 . S
C1696 C1697 1.366 . S
C1696 C1698 1.388 . S
C1697 C1696 1.366 . S
C1697 C1701 1.385 . S
C1698 H1679 0.951 . S
C1698 C1696 1.388 . S
C1698 C1699 1.366 . S
C1699 C1698 1.366 . S
C1699 C1700 1.414 . S
C1699 C1702 1.499 . S
C1700 H1680 0.950 . S
C1700 C1699 1.414 . S
C1700 C1701 1.374 . S
C1701 H1681 0.950 . S
C1701 C1697 1.385 . S
C1701 C1700 1.374 . S
C1702 C1699 1.499 . S
C1702 C1703 1.373 . S
C1702 C1704 1.389 . S
C1703 H1682 0.950 . S
C1703 C1702 1.373 . S
C1703 C1719 1.377 . S
C1704 C1702 1.389 . S
C1704 C1705 1.524 . S
C1704 C1718 1.377 . S
C1705 C1704 1.524 . S
C1705 C1706 1.397 . S
C1705 C1710 1.363 . S
C1706 H1683 0.950 . S
C1706 C1705 1.397 . S
C1706 C1707 1.334 . S
C1707 H1684 0.950 . S
C1707 C1706 1.334 . S
C1707 C1708 1.287 . S
C1708 C1707 1.287 . S
C1708 C1709 1.524 . S
C1708 H1727 0.913 . S
C1709 H1685 0.950 . S
C1709 C1708 1.524 . S
C1709 C1710 1.415 . S
C1710 H1686 0.950 . S
C1710 C1705 1.363 . S
C1710 C1709 1.415 . S
C1711 H1687 0.951 . S
C1711 C1712 1.366 . S
C1711 C1713 1.388 . S
C1712 C1711 1.366 . S
C1712 C1716 1.385 . S
C1713 H1688 0.951 . S
C1713 C1711 1.388 . S
C1713 C1714 1.366 . S
C1714 C1713 1.366 . S
C1714 C1715 1.414 . S
C1714 C1717 1.499 . S
C1715 H1689 0.950 . S
C1715 C1714 1.414 . S
C1715 C1716 1.374 . S
C1716 H1690 0.950 . S
C1716 C1712 1.385 . S
C1716 C1715 1.374 . S
C1717 C1714 1.499 . S
C1717 C1718 1.373 . S
C1717 C1719 1.389 . S
C1718 H1691 0.950 . S
C1718 C1704 1.377 . S
C1718 C1717 1.373 . S
C1719 C1703 1.377 . S
C1719 C1717 1.389 . S
C1719 C1720 1.524 . S
C1720 C1719 1.524 . S
C1720 C1721 1.397 . S
C1720 C1725 1.363 . S
C1721 H1692 0.950 . S
C1721 C1720 1.397 . S
C1721 C1722 1.334 1_565 S
C1722 H1693 0.950 . S
C1722 C1721 1.334 1_545 S
C1722 C1723 1.287 . S
C1723 C1722 1.287 . S
C1723 C1724 1.524 1_545 S
C1723 H1726 0.999 . S
C1724 H1694 0.950 . S
C1724 C1723 1.524 1_565 S
C1724 C1725 1.415 . S
C1725 H1695 0.950 . S
C1725 C1720 1.363 . S
C1725 C1724 1.415 . S
H1726 C1723 0.999 . S
H1727 C1708 0.913 . S
H1728 C1746 0.951 . S
H1729 C1748 0.951 . S
H1730 C1750 0.950 . S
H1731 C1751 0.950 . S
H1732 C1753 0.950 . S
H1733 C1756 0.950 . S
H1734 C1757 0.950 . S
H1735 C1759 0.950 . S
H1736 C1760 0.950 . S
H1737 C1761 0.951 . S
H1738 C1763 0.951 . S
H1739 C1765 0.950 . S
H1740 C1766 0.950 . S
H1741 C1768 0.950 . S
H1742 C1771 0.950 . S
H1743 C1772 0.950 . S
H1744 C1774 0.950 . S
H1745 C1775 0.950 . S
C1746 H1728 0.951 . S
C1746 C1747 1.366 . S
C1746 C1748 1.388 . S
C1747 C1746 1.366 . S
C1747 C1751 1.385 . S
C1748 H1729 0.951 . S
C1748 C1746 1.388 . S
C1748 C1749 1.366 . S
C1749 C1748 1.366 . S
C1749 C1750 1.414 . S
C1749 C1752 1.499 . S
C1750 H1730 0.950 . S
C1750 C1749 1.414 . S
C1750 C1751 1.374 . S
C1751 H1731 0.950 . S
C1751 C1747 1.385 . S
C1751 C1750 1.374 . S
C1752 C1749 1.499 . S
C1752 C1753 1.373 1_554 S
C1752 C1754 1.389 . S
C1753 H1732 0.950 . S
C1753 C1752 1.373 1_556 S
C1753 C1769 1.377 . S
C1754 C1752 1.389 . S
C1754 C1755 1.524 . S
C1754 C1768 1.377 1_554 S
C1755 C1754 1.524 . S
C1755 C1756 1.397 . S
C1755 C1760 1.363 . S
C1756 H1733 0.950 . S
C1756 C1755 1.397 . S
C1756 C1757 1.334 . S
C1757 H1734 0.950 . S
C1757 C1756 1.334 . S
C1757 C1758 1.287 . S
C1758 C1757 1.287 . S
C1758 C1759 1.524 . S
C1758 H1777 0.913 . S
C1759 H1735 0.950 . S
C1759 C1758 1.524 . S
C1759 C1760 1.415 . S
C1760 H1736 0.950 . S
C1760 C1755 1.363 . S
C1760 C1759 1.415 . S
C1761 H1737 0.951 . S
C1761 C1762 1.366 . S
C1761 C1763 1.388 . S
C1762 C1761 1.366 . S
C1762 C1766 1.385 . S
C1763 H1738 0.951 . S
C1763 C1761 1.388 . S
C1763 C1764 1.366 . S
C1764 C1763 1.366 . S
C1764 C1765 1.414 . S
C1764 C1767 1.499 . S
C1765 H1739 0.950 . S
C1765 C1764 1.414 . S
C1765 C1766 1.374 . S
C1766 H1740 0.950 . S
C1766 C1762 1.385 . S
C1766 C1765 1.374 . S
C1767 C1764 1.499 . S
C1767 C1768 1.373 . S
C1767 C1769 1.389 . S
C1768 H1741 0.950 . S
C1768 C1754 1.377 1_556 S
C1768 C1767 1.373 . S
C1769 C1753 1.377 . S
C1769 C1767 1.389 . S
C1769 C1770 1.524 . S
C1770 C1769 1.524 . S
C1770 C1771 1.397 . S
C1770 C1775 1.363 . S
C1771 H1742 0.950 . S
C1771 C1770 1.397 . S
C1771 C1772 1.334 . S
C1772 H1743 0.950 . S
C1772 C1771 1.334 . S
C1772 C1773 1.287 . S
C1773 C1772 1.287 . S
C1773 C1774 1.524 . S
C1773 H1776 0.999 . S
C1774 H1744 0.950 . S
C1774 C1773 1.524 . S
C1774 C1775 1.415 . S
C1775 H1745 0.950 . S
C1775 C1770 1.363 . S
C1775 C1774 1.415 . S
H1776 C1773 0.999 . S
H1777 C1758 0.913 . S
H1778 C1796 0.951 . S
H1779 C1798 0.951 1_556 S
H1780 C1800 0.950 . S
H1781 C1801 0.950 . S
H1782 C1803 0.950 . S
H1783 C1806 0.950 . S
H1784 C1807 0.950 . S
H1785 C1809 0.950 . S
H1786 C1810 0.950 . S
H1787 C1811 0.951 . S
H1788 C1813 0.951 . S
H1789 C1815 0.950 . S
H1790 C1816 0.950 . S
H1791 C1818 0.950 . S
H1792 C1821 0.950 . S
H1793 C1822 0.950 . S
H1794 C1824 0.950 . S
H1795 C1825 0.950 . S
C1796 H1778 0.951 . S
C1796 C1797 1.366 . S
C1796 C1798 1.388 . S
C1797 C1796 1.366 . S
C1797 C1801 1.385 . S
C1798 H1779 0.951 1_554 S
C1798 C1796 1.388 . S
C1798 C1799 1.366 . S
C1799 C1798 1.366 . S
C1799 C1800 1.414 . S
C1799 C1802 1.499 . S
C1800 H1780 0.950 . S
C1800 C1799 1.414 . S
C1800 C1801 1.374 . S
C1801 H1781 0.950 . S
C1801 C1797 1.385 . S
C1801 C1800 1.374 . S
C1802 C1799 1.499 . S
C1802 C1803 1.373 . S
C1802 C1804 1.389 1_554 S
C1803 H1782 0.950 . S
C1803 C1802 1.373 . S
C1803 C1819 1.377 1_554 S
C1804 C1802 1.389 1_556 S
C1804 C1805 1.524 . S
C1804 C1818 1.377 . S
C1805 C1804 1.524 . S
C1805 C1806 1.397 . S
C1805 C1810 1.363 . S
C1806 H1783 0.950 . S
C1806 C1805 1.397 . S
C1806 C1807 1.334 . S
C1807 H1784 0.950 . S
C1807 C1806 1.334 . S
C1807 C1808 1.287 . S
C1808 C1807 1.287 . S
C1808 C1809 1.524 . S
C1808 H1827 0.913 . S
C1809 H1785 0.950 . S
C1809 C1808 1.524 . S
C1809 C1810 1.415 . S
C1810 H1786 0.950 . S
C1810 C1805 1.363 . S
C1810 C1809 1.415 . S
C1811 H1787 0.951 . S
C1811 C1812 1.366 . S
C1811 C1813 1.388 . S
C1812 C1811 1.366 . S
C1812 C1816 1.385 . S
C1813 H1788 0.951 . S
C1813 C1811 1.388 . S
C1813 C1814 1.366 . S
C1814 C1813 1.366 . S
C1814 C1815 1.414 . S
C1814 C1817 1.499 . S
C1815 H1789 0.950 . S
C1815 C1814 1.414 . S
C1815 C1816 1.374 . S
C1816 H1790 0.950 . S
C1816 C1812 1.385 . S
C1816 C1815 1.374 . S
C1817 C1814 1.499 . S
C1817 C1818 1.373 . S
C1817 C1819 1.389 . S
C1818 H1791 0.950 . S
C1818 C1804 1.377 . S
C1818 C1817 1.373 . S
C1819 C1803 1.377 1_556 S
C1819 C1817 1.389 . S
C1819 C1820 1.524 1_556 S
C1820 C1819 1.524 1_554 S
C1820 C1821 1.396 1_554 S
C1820 C1825 1.364 . S
C1821 H1792 0.950 . S
C1821 C1820 1.396 1_556 S
C1821 C1822 1.334 . S
C1822 H1793 0.950 . S
C1822 C1821 1.334 . S
C1822 C1823 1.287 1_556 S
C1823 C1822 1.287 1_554 S
C1823 C1824 1.524 . S
C1823 H1826 0.999 . S
C1824 H1794 0.950 . S
C1824 C1823 1.524 . S
C1824 C1825 1.415 . S
C1825 H1795 0.950 . S
C1825 C1820 1.364 . S
C1825 C1824 1.415 . S
H1826 C1823 0.999 . S
H1827 C1808 0.913 . S
H1828 C1846 0.951 . S
H1829 C1848 0.951 1_556 S
H1830 C1850 0.950 . S
H1831 C1851 0.950 . S
H1832 C1853 0.950 . S
H1833 C1856 0.950 . S
H1834 C1857 0.950 1_655 S
H1835 C1859 0.950 . S
H1836 C1860 0.950 . S
H1837 C1861 0.951 . S
H1838 C1863 0.951 . S
H1839 C1865 0.950 . S
H1840 C1866 0.950 . S
H1841 C1868 0.950 . S
H1842 C1871 0.950 . S
H1843 C1872 0.950 1_556 S
H1844 C1874 0.950 . S
H1845 C1875 0.950 . S
C1846 H1828 0.951 . S
C1846 C1847 1.366 . S
C1846 C1848 1.388 . S
C1847 C1846 1.366 . S
C1847 C1851 1.385 . S
C1848 H1829 0.951 1_554 S
C1848 C1846 1.388 . S
C1848 C1849 1.366 . S
C1849 C1848 1.366 . S
C1849 C1850 1.414 . S
C1849 C1852 1.518 . S
C1850 H1830 0.950 . S
C1850 C1849 1.414 . S
C1850 C1851 1.374 . S
C1851 H1831 0.950 . S
C1851 C1847 1.385 . S
C1851 C1850 1.374 . S
C1852 C1849 1.518 . S
C1852 C1853 1.384 . S
C1852 C1854 1.359 1_554 S
C1853 H1832 0.950 . S
C1853 C1852 1.384 . S
C1853 C1869 1.377 1_554 S
C1854 C1852 1.359 1_556 S
C1854 C1855 1.524 . S
C1854 C1868 1.377 . S
C1855 C1854 1.524 . S
C1855 C1856 1.397 . S
C1855 C1860 1.363 . S
C1856 H1833 0.950 . S
C1856 C1855 1.397 . S
C1856 C1857 1.334 . S
C1857 H1834 0.950 1_455 S
C1857 C1856 1.334 . S
C1857 C1858 1.287 . S
C1858 C1857 1.287 . S
C1858 C1859 1.524 . S
C1858 H1877 0.913 . S
C1859 H1835 0.950 . S
C1859 C1858 1.524 . S
C1859 C1860 1.415 . S
C1860 H1836 0.950 . S
C1860 C1855 1.363 . S
C1860 C1859 1.415 . S
C1861 H1837 0.951 . S
C1861 C1862 1.366 . S
C1861 C1863 1.388 . S
C1862 C1861 1.366 . S
C1862 C1866 1.385 . S
C1863 H1838 0.951 . S
C1863 C1861 1.388 . S
C1863 C1864 1.366 . S
C1864 C1863 1.366 . S
C1864 C1865 1.414 . S
C1864 C1867 1.499 . S
C1865 H1839 0.950 . S
C1865 C1864 1.414 . S
C1865 C1866 1.374 . S
C1866 H1840 0.950 . S
C1866 C1862 1.385 . S
C1866 C1865 1.374 . S
C1867 C1864 1.499 . S
C1867 C1868 1.373 . S
C1867 C1869 1.389 . S
C1868 H1841 0.950 . S
C1868 C1854 1.377 . S
C1868 C1867 1.373 . S
C1869 C1853 1.377 1_556 S
C1869 C1867 1.389 . S
C1869 C1870 1.524 1_556 S
C1870 C1869 1.524 1_554 S
C1870 C1871 1.397 1_554 S
C1870 C1875 1.363 . S
C1871 H1842 0.950 . S
C1871 C1870 1.397 1_556 S
C1871 C1872 1.334 1_556 S
C1872 H1843 0.950 1_554 S
C1872 C1871 1.334 1_554 S
C1872 C1873 1.287 . S
C1873 C1872 1.287 . S
C1873 C1874 1.524 . S
C1873 H1876 0.999 . S
C1874 H1844 0.950 . S
C1874 C1873 1.524 . S
C1874 C1875 1.415 . S
C1875 H1845 0.950 . S
C1875 C1870 1.363 . S
C1875 C1874 1.415 . S
H1876 C1873 0.999 . S
H1877 C1858 0.913 . S
H1878 C1896 0.951 . S
H1879 C1898 0.951 . S
H1880 C1900 0.950 . S
H1881 C1901 0.950 . S
H1882 C1903 0.950 . S
H1883 C1906 0.950 . S
H1884 C1907 0.950 . S
H1885 C1909 0.950 . S
H1886 C1910 0.950 . S
H1887 C1911 0.951 . S
H1888 C1913 0.951 . S
H1889 C1915 0.950 . S
H1890 C1916 0.950 . S
H1891 C1918 0.950 . S
H1892 C1921 0.950 1_556 S
H1893 C1922 0.950 . S
H1894 C1924 0.950 . S
H1895 C1925 0.950 . S
C1896 H1878 0.951 . S
C1896 C1897 1.366 . S
C1896 C1898 1.388 . S
C1897 C1896 1.366 . S
C1897 C1901 1.385 . S
C1898 H1879 0.951 . S
C1898 C1896 1.388 . S
C1898 C1899 1.366 . S
C1899 C1898 1.366 . S
C1899 C1900 1.414 . S
C1899 C1902 1.501 1_554 S
C1900 H1880 0.950 . S
C1900 C1899 1.414 . S
C1900 C1901 1.374 . S
C1901 H1881 0.950 . S
C1901 C1897 1.385 . S
C1901 C1900 1.374 . S
C1902 C1899 1.501 1_556 S
C1902 C1903 1.374 1_556 S
C1902 C1904 1.387 . S
C1903 H1882 0.950 . S
C1903 C1902 1.374 1_554 S
C1903 C1919 1.377 1_554 S
C1904 C1902 1.387 . S
C1904 C1905 1.524 . S
C1904 C1918 1.377 . S
C1905 C1904 1.524 . S
C1905 C1906 1.397 . S
C1905 C1910 1.363 . S
C1906 H1883 0.950 . S
C1906 C1905 1.397 . S
C1906 C1907 1.334 . S
C1907 H1884 0.950 . S
C1907 C1906 1.334 . S
C1907 C1908 1.287 . S
C1908 C1907 1.287 . S
C1908 C1909 1.524 . S
C1908 H1927 0.913 . S
C1909 H1885 0.950 . S
C1909 C1908 1.524 . S
C1909 C1910 1.415 . S
C1910 H1886 0.950 . S
C1910 C1905 1.363 . S
C1910 C1909 1.415 . S
C1911 H1887 0.951 . S
C1911 C1912 1.366 . S
C1911 C1913 1.388 . S
C1912 C1911 1.366 . S
C1912 C1916 1.385 . S
C1913 H1888 0.951 . S
C1913 C1911 1.388 . S
C1913 C1914 1.366 . S
C1914 C1913 1.366 . S
C1914 C1915 1.414 . S
C1914 C1917 1.499 . S
C1915 H1889 0.950 . S
C1915 C1914 1.414 . S
C1915 C1916 1.374 . S
C1916 H1890 0.950 . S
C1916 C1912 1.385 . S
C1916 C1915 1.374 . S
C1917 C1914 1.499 . S
C1917 C1918 1.373 . S
C1917 C1919 1.389 . S
C1918 H1891 0.950 . S
C1918 C1904 1.377 . S
C1918 C1917 1.373 . S
C1919 C1903 1.377 1_556 S
C1919 C1917 1.389 . S
C1919 C1920 1.524 1_556 S
C1920 C1919 1.524 1_554 S
C1920 C1921 1.397 . S
C1920 C1925 1.363 . S
C1921 H1892 0.950 1_554 S
C1921 C1920 1.397 . S
C1921 C1922 1.334 . S
C1922 H1893 0.950 . S
C1922 C1921 1.334 . S
C1922 C1923 1.287 . S
C1923 C1922 1.287 . S
C1923 C1924 1.524 . S
C1923 H1926 0.999 . S
C1924 H1894 0.950 . S
C1924 C1923 1.524 . S
C1924 C1925 1.415 . S
C1925 H1895 0.950 . S
C1925 C1920 1.363 . S
C1925 C1924 1.415 . S
H1926 C1923 0.999 . S
H1927 C1908 0.913 . S
H1928 C1946 0.951 . S
H1929 C1948 0.951 . S
H1930 C1950 0.950 . S
H1931 C1951 0.950 . S
H1932 C1953 0.950 . S
H1933 C1956 0.950 . S
H1934 C1957 0.950 . S
H1935 C1959 0.950 . S
H1936 C1960 0.950 . S
H1937 C1961 0.951 . S
H1938 C1963 0.951 . S
H1939 C1965 0.950 . S
H1940 C1966 0.950 . S
H1941 C1968 0.950 . S
H1942 C1971 0.950 . S
H1943 C1972 0.950 . S
H1944 C1974 0.950 . S
H1945 C1975 0.950 . S
C1946 H1928 0.951 . S
C1946 C1947 1.366 . S
C1946 C1948 1.388 . S
C1947 C1946 1.366 . S
C1947 C1951 1.385 . S
C1948 H1929 0.951 . S
C1948 C1946 1.388 . S
C1948 C1949 1.366 . S
C1949 C1948 1.366 . S
C1949 C1950 1.414 . S
C1949 C1952 1.499 . S
C1950 H1930 0.950 . S
C1950 C1949 1.414 . S
C1950 C1951 1.374 . S
C1951 H1931 0.950 . S
C1951 C1947 1.385 . S
C1951 C1950 1.374 . S
C1952 C1949 1.499 . S
C1952 C1953 1.373 . S
C1952 C1954 1.389 . S
C1953 H1932 0.950 . S
C1953 C1952 1.373 . S
C1953 C1969 1.377 . S
C1954 C1952 1.389 . S
C1954 C1955 1.524 . S
C1954 C1968 1.377 . S
C1955 C1954 1.524 . S
C1955 C1956 1.397 . S
C1955 C1960 1.363 . S
C1956 H1933 0.950 . S
C1956 C1955 1.397 . S
C1956 C1957 1.334 . S
C1957 H1934 0.950 . S
C1957 C1956 1.334 . S
C1957 C1958 1.287 . S
C1958 C1957 1.287 . S
C1958 C1959 1.524 . S
C1958 H1977 0.913 . S
C1959 H1935 0.950 . S
C1959 C1958 1.524 . S
C1959 C1960 1.415 . S
C1960 H1936 0.950 . S
C1960 C1955 1.363 . S
C1960 C1959 1.415 . S
C1961 H1937 0.951 . S
C1961 C1962 1.366 . S
C1961 C1963 1.388 . S
C1962 C1961 1.366 . S
C1962 C1966 1.385 . S
C1963 H1938 0.951 . S
C1963 C1961 1.388 . S
C1963 C1964 1.366 . S
C1964 C1963 1.366 . S
C1964 C1965 1.414 . S
C1964 C1967 1.499 . S
C1965 H1939 0.950 . S
C1965 C1964 1.414 . S
C1965 C1966 1.374 . S
C1966 H1940 0.950 . S
C1966 C1962 1.385 . S
C1966 C1965 1.374 . S
C1967 C1964 1.499 . S
C1967 C1968 1.373 . S
C1967 C1969 1.389 . S
C1968 H1941 0.950 . S
C1968 C1954 1.377 . S
C1968 C1967 1.373 . S
C1969 C1953 1.377 . S
C1969 C1967 1.389 . S
C1969 C1970 1.524 . S
C1970 C1969 1.524 . S
C1970 C1971 1.397 . S
C1970 C1975 1.363 . S
C1971 H1942 0.950 . S
C1971 C1970 1.397 . S
C1971 C1972 1.334 . S
C1972 H1943 0.950 . S
C1972 C1971 1.334 . S
C1972 C1973 1.287 . S
C1973 C1972 1.287 . S
C1973 C1974 1.524 . S
C1973 H1976 0.999 . S
C1974 H1944 0.950 . S
C1974 C1973 1.524 . S
C1974 C1975 1.415 . S
C1975 H1945 0.950 . S
C1975 C1970 1.363 . S
C1975 C1974 1.415 . S
H1976 C1973 0.999 . S
H1977 C1958 0.913 . S
H1978 C1996 0.951 . S
H1979 C1998 0.951 . S
H1980 C2000 0.950 . S
H1981 C2001 0.950 . S
H1982 C2003 0.950 . S
H1983 C2006 0.950 . S
H1984 C2007 0.950 . S
H1985 C2009 0.950 . S
H1986 C2010 0.950 . S
H1987 C2011 0.951 . S
H1988 C2013 0.951 . S
H1989 C2015 0.950 . S
H1990 C2016 0.950 . S
H1991 C2018 0.950 . S
H1992 C2021 0.950 . S
H1993 C2022 0.950 . S
H1994 C2024 0.950 . S
H1995 C2025 0.950 . S
C1996 H1978 0.951 . S
C1996 C1997 1.366 . S
C1996 C1998 1.388 . S
C1997 C1996 1.366 . S
C1997 C2001 1.385 . S
C1998 H1979 0.951 . S
C1998 C1996 1.388 . S
C1998 C1999 1.366 . S
C1999 C1998 1.366 . S
C1999 C2000 1.414 . S
C1999 C2002 1.499 . S
C2000 H1980 0.950 . S
C2000 C1999 1.414 . S
C2000 C2001 1.374 . S
C2001 H1981 0.950 . S
C2001 C1997 1.385 . S
C2001 C2000 1.374 . S
C2002 C1999 1.499 . S
C2002 C2003 1.373 . S
C2002 C2004 1.389 . S
C2003 H1982 0.950 . S
C2003 C2002 1.373 . S
C2003 C2019 1.377 . S
C2004 C2002 1.389 . S
C2004 C2005 1.524 . S
C2004 C2018 1.377 . S
C2005 C2004 1.524 . S
C2005 C2006 1.397 . S
C2005 C2010 1.363 . S
C2006 H1983 0.950 . S
C2006 C2005 1.397 . S
C2006 C2007 1.334 . S
C2007 H1984 0.950 . S
C2007 C2006 1.334 . S
C2007 C2008 1.287 . S
C2008 C2007 1.287 . S
C2008 C2009 1.524 . S
C2008 H2027 0.913 . S
C2009 H1985 0.950 . S
C2009 C2008 1.524 . S
C2009 C2010 1.415 . S
C2010 H1986 0.950 . S
C2010 C2005 1.363 . S
C2010 C2009 1.415 . S
C2011 H1987 0.951 . S
C2011 C2012 1.366 . S
C2011 C2013 1.388 . S
C2012 C2011 1.366 . S
C2012 C2016 1.385 . S
C2013 H1988 0.951 . S
C2013 C2011 1.388 . S
C2013 C2014 1.366 . S
C2014 C2013 1.366 . S
C2014 C2015 1.414 . S
C2014 C2017 1.499 . S
C2015 H1989 0.950 . S
C2015 C2014 1.414 . S
C2015 C2016 1.374 . S
C2016 H1990 0.950 . S
C2016 C2012 1.385 . S
C2016 C2015 1.374 . S
C2017 C2014 1.499 . S
C2017 C2018 1.373 . S
C2017 C2019 1.389 . S
C2018 H1991 0.950 . S
C2018 C2004 1.377 . S
C2018 C2017 1.373 . S
C2019 C2003 1.377 . S
C2019 C2017 1.389 . S
C2019 C2020 1.524 . S
C2020 C2019 1.524 . S
C2020 C2021 1.397 . S
C2020 C2025 1.363 . S
C2021 H1992 0.950 . S
C2021 C2020 1.397 . S
C2021 C2022 1.334 . S
C2022 H1993 0.950 . S
C2022 C2021 1.334 . S
C2022 C2023 1.287 . S
C2023 C2022 1.287 . S
C2023 C2024 1.524 . S
C2023 H2026 0.999 . S
C2024 H1994 0.950 . S
C2024 C2023 1.524 . S
C2024 C2025 1.415 . S
C2025 H1995 0.950 . S
C2025 C2020 1.363 . S
C2025 C2024 1.415 . S
H2026 C2023 0.999 . S
H2027 C2008 0.913 . S
H2028 C2046 0.951 . S
H2029 C2048 0.951 . S
H2030 C2050 0.950 . S
H2031 C2051 0.950 . S
H2032 C2053 0.950 . S
H2033 C2056 0.950 . S
H2034 C2057 0.950 . S
H2035 C2059 0.950 . S
H2036 C2060 0.950 . S
H2037 C2061 0.951 . S
H2038 C2063 0.951 . S
H2039 C2065 0.950 . S
H2040 C2066 0.950 . S
H2041 C2068 0.950 . S
H2042 C2071 0.950 . S
H2043 C2072 0.950 . S
H2044 C2074 0.950 . S
H2045 C2075 0.950 . S
C2046 H2028 0.951 . S
C2046 C2047 1.366 . S
C2046 C2048 1.388 . S
C2047 C2046 1.366 . S
C2047 C2051 1.385 . S
C2048 H2029 0.951 . S
C2048 C2046 1.388 . S
C2048 C2049 1.366 . S
C2049 C2048 1.366 . S
C2049 C2050 1.414 . S
C2049 C2052 1.499 . S
C2050 H2030 0.950 . S
C2050 C2049 1.414 . S
C2050 C2051 1.374 . S
C2051 H2031 0.950 . S
C2051 C2047 1.385 . S
C2051 C2050 1.374 . S
C2052 C2049 1.499 . S
C2052 C2053 1.373 . S
C2052 C2054 1.389 . S
C2053 H2032 0.950 . S
C2053 C2052 1.373 . S
C2053 C2069 1.377 . S
C2054 C2052 1.389 . S
C2054 C2055 1.524 . S
C2054 C2068 1.377 . S
C2055 C2054 1.524 . S
C2055 C2056 1.397 . S
C2055 C2060 1.363 . S
C2056 H2033 0.950 . S
C2056 C2055 1.397 . S
C2056 C2057 1.334 . S
C2057 H2034 0.950 . S
C2057 C2056 1.334 . S
C2057 C2058 1.287 . S
C2058 C2057 1.287 . S
C2058 C2059 1.524 . S
C2058 H2077 0.913 . S
C2059 H2035 0.950 . S
C2059 C2058 1.524 . S
C2059 C2060 1.415 . S
C2060 H2036 0.950 . S
C2060 C2055 1.363 . S
C2060 C2059 1.415 . S
C2061 H2037 0.951 . S
C2061 C2062 1.366 . S
C2061 C2063 1.388 . S
C2062 C2061 1.366 . S
C2062 C2066 1.385 . S
C2063 H2038 0.951 . S
C2063 C2061 1.388 . S
C2063 C2064 1.366 . S
C2064 C2063 1.366 . S
C2064 C2065 1.414 . S
C2064 C2067 1.499 . S
C2065 H2039 0.950 . S
C2065 C2064 1.414 . S
C2065 C2066 1.374 . S
C2066 H2040 0.950 . S
C2066 C2062 1.385 . S
C2066 C2065 1.374 . S
C2067 C2064 1.499 . S
C2067 C2068 1.373 . S
C2067 C2069 1.389 . S
C2068 H2041 0.950 . S
C2068 C2054 1.377 . S
C2068 C2067 1.373 . S
C2069 C2053 1.377 . S
C2069 C2067 1.389 . S
C2069 C2070 1.524 . S
C2070 C2069 1.524 . S
C2070 C2071 1.397 . S
C2070 C2075 1.363 . S
C2071 H2042 0.950 . S
C2071 C2070 1.397 . S
C2071 C2072 1.334 . S
C2072 H2043 0.950 . S
C2072 C2071 1.334 . S
C2072 C2073 1.287 . S
C2073 C2072 1.287 . S
C2073 C2074 1.524 . S
C2073 H2076 0.999 . S
C2074 H2044 0.950 . S
C2074 C2073 1.524 . S
C2074 C2075 1.415 . S
C2075 H2045 0.950 . S
C2075 C2070 1.363 . S
C2075 C2074 1.415 . S
H2076 C2073 0.999 . S
H2077 C2058 0.913 . S
H2078 C2096 0.951 . S
H2079 C2098 0.951 . S
H2080 C2100 0.950 . S
H2081 C2101 0.950 . S
H2082 C2103 0.950 . S
H2083 C2106 0.950 . S
H2084 C2107 0.950 . S
H2085 C2109 0.950 . S
H2086 C2110 0.950 . S
H2087 C2111 0.951 . S
H2088 C2113 0.951 . S
H2089 C2115 0.950 . S
H2090 C2116 0.950 . S
H2091 C2118 0.950 . S
H2092 C2121 0.950 . S
H2093 C2122 0.950 . S
H2094 C2124 0.950 . S
H2095 C2125 0.950 . S
C2096 H2078 0.951 . S
C2096 C2097 1.366 . S
C2096 C2098 1.388 . S
C2097 C2096 1.366 . S
C2097 C2101 1.385 . S
C2098 H2079 0.951 . S
C2098 C2096 1.388 . S
C2098 C2099 1.366 . S
C2099 C2098 1.366 . S
C2099 C2100 1.414 . S
C2099 C2102 1.499 . S
C2100 H2080 0.950 . S
C2100 C2099 1.414 . S
C2100 C2101 1.374 . S
C2101 H2081 0.950 . S
C2101 C2097 1.385 . S
C2101 C2100 1.374 . S
C2102 C2099 1.499 . S
C2102 C2103 1.373 . S
C2102 C2104 1.389 . S
C2103 H2082 0.950 . S
C2103 C2102 1.373 . S
C2103 C2119 1.377 . S
C2104 C2102 1.389 . S
C2104 C2105 1.524 . S
C2104 C2118 1.377 . S
C2105 C2104 1.524 . S
C2105 C2106 1.397 . S
C2105 C2110 1.363 . S
C2106 H2083 0.950 . S
C2106 C2105 1.397 . S
C2106 C2107 1.334 . S
C2107 H2084 0.950 . S
C2107 C2106 1.334 . S
C2107 C2108 1.287 . S
C2108 C2107 1.287 . S
C2108 C2109 1.524 . S
C2108 H2127 0.913 . S
C2109 H2085 0.950 . S
C2109 C2108 1.524 . S
C2109 C2110 1.415 . S
C2110 H2086 0.950 . S
C2110 C2105 1.363 . S
C2110 C2109 1.415 . S
C2111 H2087 0.951 . S
C2111 C2112 1.366 . S
C2111 C2113 1.388 . S
C2112 C2111 1.366 . S
C2112 C2116 1.385 . S
C2113 H2088 0.951 . S
C2113 C2111 1.388 . S
C2113 C2114 1.366 . S
C2114 C2113 1.366 . S
C2114 C2115 1.414 . S
C2114 C2117 1.499 . S
C2115 H2089 0.950 . S
C2115 C2114 1.414 . S
C2115 C2116 1.374 . S
C2116 H2090 0.950 . S
C2116 C2112 1.385 . S
C2116 C2115 1.374 . S
C2117 C2114 1.499 . S
C2117 C2118 1.373 . S
C2117 C2119 1.389 . S
C2118 H2091 0.950 . S
C2118 C2104 1.377 . S
C2118 C2117 1.373 . S
C2119 C2103 1.377 . S
C2119 C2117 1.389 . S
C2119 C2120 1.524 . S
C2120 C2119 1.524 . S
C2120 C2121 1.397 . S
C2120 C2125 1.363 . S
C2121 H2092 0.950 . S
C2121 C2120 1.397 . S
C2121 C2122 1.334 . S
C2122 H2093 0.950 . S
C2122 C2121 1.334 . S
C2122 C2123 1.287 . S
C2123 C2122 1.287 . S
C2123 C2124 1.524 . S
C2123 H2126 0.999 . S
C2124 H2094 0.950 . S
C2124 C2123 1.524 . S
C2124 C2125 1.415 . S
C2125 H2095 0.950 . S
C2125 C2120 1.363 . S
C2125 C2124 1.415 . S
H2126 C2123 0.999 . S
H2127 C2108 0.913 . S
H2128 C2146 0.951 . S
H2129 C2148 0.951 . S
H2130 C2150 0.950 . S
H2131 C2151 0.950 . S
H2132 C2153 0.950 . S
H2133 C2156 0.950 . S
H2134 C2157 0.950 . S
H2135 C2159 0.950 . S
H2136 C2160 0.950 . S
H2137 C2161 0.951 . S
H2138 C2163 0.951 . S
H2139 C2165 0.950 . S
H2140 C2166 0.950 . S
H2141 C2168 0.950 . S
H2142 C2171 0.950 . S
H2143 C2172 0.950 . S
H2144 C2174 0.950 . S
H2145 C2175 0.950 . S
C2146 H2128 0.951 . S
C2146 C2147 1.366 . S
C2146 C2148 1.388 . S
C2147 C2146 1.366 . S
C2147 C2151 1.385 . S
C2148 H2129 0.951 . S
C2148 C2146 1.388 . S
C2148 C2149 1.366 . S
C2149 C2148 1.366 . S
C2149 C2150 1.414 . S
C2149 C2152 1.499 . S
C2150 H2130 0.950 . S
C2150 C2149 1.414 . S
C2150 C2151 1.374 . S
C2151 H2131 0.950 . S
C2151 C2147 1.385 . S
C2151 C2150 1.374 . S
C2152 C2149 1.499 . S
C2152 C2153 1.373 . S
C2152 C2154 1.389 . S
C2153 H2132 0.950 . S
C2153 C2152 1.373 . S
C2153 C2169 1.377 . S
C2154 C2152 1.389 . S
C2154 C2155 1.524 . S
C2154 C2168 1.377 . S
C2155 C2154 1.524 . S
C2155 C2156 1.397 . S
C2155 C2160 1.363 . S
C2156 H2133 0.950 . S
C2156 C2155 1.397 . S
C2156 C2157 1.334 . S
C2157 H2134 0.950 . S
C2157 C2156 1.334 . S
C2157 C2158 1.287 . S
C2158 C2157 1.287 . S
C2158 C2159 1.524 . S
C2158 H2177 0.913 . S
C2159 H2135 0.950 . S
C2159 C2158 1.524 . S
C2159 C2160 1.415 . S
C2160 H2136 0.950 . S
C2160 C2155 1.363 . S
C2160 C2159 1.415 . S
C2161 H2137 0.951 . S
C2161 C2162 1.366 . S
C2161 C2163 1.388 . S
C2162 C2161 1.366 . S
C2162 C2166 1.385 . S
C2163 H2138 0.951 . S
C2163 C2161 1.388 . S
C2163 C2164 1.366 . S
C2164 C2163 1.366 . S
C2164 C2165 1.414 . S
C2164 C2167 1.499 . S
C2165 H2139 0.950 . S
C2165 C2164 1.414 . S
C2165 C2166 1.374 . S
C2166 H2140 0.950 . S
C2166 C2162 1.385 . S
C2166 C2165 1.374 . S
C2167 C2164 1.499 . S
C2167 C2168 1.373 . S
C2167 C2169 1.389 . S
C2168 H2141 0.950 . S
C2168 C2154 1.377 . S
C2168 C2167 1.373 . S
C2169 C2153 1.377 . S
C2169 C2167 1.389 . S
C2169 C2170 1.524 . S
C2170 C2169 1.524 . S
C2170 C2171 1.397 . S
C2170 C2175 1.363 . S
C2171 H2142 0.950 . S
C2171 C2170 1.397 . S
C2171 C2172 1.334 . S
C2172 H2143 0.950 . S
C2172 C2171 1.334 . S
C2172 C2173 1.287 . S
C2173 C2172 1.287 . S
C2173 C2174 1.524 . S
C2173 H2176 0.999 . S
C2174 H2144 0.950 . S
C2174 C2173 1.524 . S
C2174 C2175 1.415 . S
C2175 H2145 0.950 . S
C2175 C2170 1.363 . S
C2175 C2174 1.415 . S
H2176 C2173 0.999 . S
H2177 C2158 0.913 . S
H2178 C2196 0.951 . S
H2179 C2198 0.951 . S
H2180 C2200 0.950 . S
H2181 C2201 0.950 . S
H2182 C2203 0.950 . S
H2183 C2206 0.950 . S
H2184 C2207 0.950 . S
H2185 C2209 0.950 . S
H2186 C2210 0.950 . S
H2187 C2211 0.951 . S
H2188 C2213 0.951 . S
H2189 C2215 0.950 . S
H2190 C2216 0.950 . S
H2191 C2218 0.950 . S
H2192 C2221 0.950 . S
H2193 C2222 0.950 . S
H2194 C2224 0.950 . S
H2195 C2225 0.950 . S
C2196 H2178 0.951 . S
C2196 C2197 1.366 . S
C2196 C2198 1.388 . S
C2197 C2196 1.366 . S
C2197 C2201 1.385 . S
C2198 H2179 0.951 . S
C2198 C2196 1.388 . S
C2198 C2199 1.366 . S
C2199 C2198 1.366 . S
C2199 C2200 1.414 . S
C2199 C2202 1.499 . S
C2200 H2180 0.950 . S
C2200 C2199 1.414 . S
C2200 C2201 1.374 . S
C2201 H2181 0.950 . S
C2201 C2197 1.385 . S
C2201 C2200 1.374 . S
C2202 C2199 1.499 . S
C2202 C2203 1.373 . S
C2202 C2204 1.389 . S
C2203 H2182 0.950 . S
C2203 C2202 1.373 . S
C2203 C2219 1.377 . S
C2204 C2202 1.389 . S
C2204 C2205 1.524 . S
C2204 C2218 1.377 . S
C2205 C2204 1.524 . S
C2205 C2206 1.397 . S
C2205 C2210 1.363 . S
C2206 H2183 0.950 . S
C2206 C2205 1.397 . S
C2206 C2207 1.334 . S
C2207 H2184 0.950 . S
C2207 C2206 1.334 . S
C2207 C2208 1.287 . S
C2208 C2207 1.287 . S
C2208 C2209 1.524 . S
C2208 H2227 0.913 . S
C2209 H2185 0.950 . S
C2209 C2208 1.524 . S
C2209 C2210 1.415 . S
C2210 H2186 0.950 . S
C2210 C2205 1.363 . S
C2210 C2209 1.415 . S
C2211 H2187 0.951 . S
C2211 C2212 1.366 . S
C2211 C2213 1.388 . S
C2212 C2211 1.366 . S
C2212 C2216 1.385 . S
C2213 H2188 0.951 . S
C2213 C2211 1.388 . S
C2213 C2214 1.366 . S
C2214 C2213 1.366 . S
C2214 C2215 1.414 . S
C2214 C2217 1.499 . S
C2215 H2189 0.950 . S
C2215 C2214 1.414 . S
C2215 C2216 1.374 . S
C2216 H2190 0.950 . S
C2216 C2212 1.385 . S
C2216 C2215 1.374 . S
C2217 C2214 1.499 . S
C2217 C2218 1.373 . S
C2217 C2219 1.389 . S
C2218 H2191 0.950 . S
C2218 C2204 1.377 . S
C2218 C2217 1.373 . S
C2219 C2203 1.377 . S
C2219 C2217 1.389 . S
C2219 C2220 1.524 . S
C2220 C2219 1.524 . S
C2220 C2221 1.397 . S
C2220 C2225 1.363 . S
C2221 H2192 0.950 . S
C2221 C2220 1.397 . S
C2221 C2222 1.334 . S
C2222 H2193 0.950 . S
C2222 C2221 1.334 . S
C2222 C2223 1.287 . S
C2223 C2222 1.287 . S
C2223 C2224 1.524 . S
C2223 H2226 0.999 . S
C2224 H2194 0.950 . S
C2224 C2223 1.524 . S
C2224 C2225 1.415 . S
C2225 H2195 0.950 . S
C2225 C2220 1.363 . S
C2225 C2224 1.415 . S
H2226 C2223 0.999 . S
H2227 C2208 0.913 . S
H2228 C2246 0.951 . S
H2229 C2248 0.951 . S
H2230 C2250 0.950 . S
H2231 C2251 0.950 . S
H2232 C2253 0.950 . S
H2233 C2256 0.950 . S
H2234 C2257 0.950 . S
H2235 C2259 0.950 . S
H2236 C2260 0.950 . S
H2237 C2261 0.951 . S
H2238 C2263 0.951 . S
H2239 C2265 0.950 . S
H2240 C2266 0.950 . S
H2241 C2268 0.950 . S
H2242 C2271 0.950 . S
H2243 C2272 0.950 . S
H2244 C2274 0.950 . S
H2245 C2275 0.950 . S
C2246 H2228 0.951 . S
C2246 C2247 1.366 . S
C2246 C2248 1.388 . S
C2247 C2246 1.366 . S
C2247 C2251 1.385 . S
C2248 H2229 0.951 . S
C2248 C2246 1.388 . S
C2248 C2249 1.366 . S
C2249 C2248 1.366 . S
C2249 C2250 1.414 . S
C2249 C2252 1.499 . S
C2250 H2230 0.950 . S
C2250 C2249 1.414 . S
C2250 C2251 1.374 . S
C2251 H2231 0.950 . S
C2251 C2247 1.385 . S
C2251 C2250 1.374 . S
C2252 C2249 1.499 . S
C2252 C2253 1.373 . S
C2252 C2254 1.389 . S
C2253 H2232 0.950 . S
C2253 C2252 1.373 . S
C2253 C2269 1.377 . S
C2254 C2252 1.389 . S
C2254 C2255 1.524 . S
C2254 C2268 1.377 . S
C2255 C2254 1.524 . S
C2255 C2256 1.397 . S
C2255 C2260 1.363 . S
C2256 H2233 0.950 . S
C2256 C2255 1.397 . S
C2256 C2257 1.334 . S
C2257 H2234 0.950 . S
C2257 C2256 1.334 . S
C2257 C2258 1.287 . S
C2258 C2257 1.287 . S
C2258 C2259 1.524 . S
C2258 H2277 0.913 . S
C2259 H2235 0.950 . S
C2259 C2258 1.524 . S
C2259 C2260 1.415 . S
C2260 H2236 0.950 . S
C2260 C2255 1.363 . S
C2260 C2259 1.415 . S
C2261 H2237 0.951 . S
C2261 C2262 1.366 . S
C2261 C2263 1.388 . S
C2262 C2261 1.366 . S
C2262 C2266 1.385 . S
C2263 H2238 0.951 . S
C2263 C2261 1.388 . S
C2263 C2264 1.366 . S
C2264 C2263 1.366 . S
C2264 C2265 1.414 . S
C2264 C2267 1.499 . S
C2265 H2239 0.950 . S
C2265 C2264 1.414 . S
C2265 C2266 1.374 . S
C2266 H2240 0.950 . S
C2266 C2262 1.385 . S
C2266 C2265 1.374 . S
C2267 C2264 1.499 . S
C2267 C2268 1.373 . S
C2267 C2269 1.389 . S
C2268 H2241 0.950 . S
C2268 C2254 1.377 . S
C2268 C2267 1.373 . S
C2269 C2253 1.377 . S
C2269 C2267 1.389 . S
C2269 C2270 1.524 . S
C2270 C2269 1.524 . S
C2270 C2271 1.397 . S
C2270 C2275 1.363 . S
C2271 H2242 0.950 . S
C2271 C2270 1.397 . S
C2271 C2272 1.334 . S
C2272 H2243 0.950 . S
C2272 C2271 1.334 . S
C2272 C2273 1.287 . S
C2273 C2272 1.287 . S
C2273 C2274 1.524 . S
C2273 H2276 0.999 . S
C2274 H2244 0.950 . S
C2274 C2273 1.524 . S
C2274 C2275 1.415 . S
C2275 H2245 0.950 . S
C2275 C2270 1.363 . S
C2275 C2274 1.415 . S
H2276 C2273 0.999 . S
H2277 C2258 0.913 . S
H2278 C2296 0.951 . S
H2279 C2298 0.951 . S
H2280 C2300 0.950 . S
H2281 C2301 0.950 . S
H2282 C2303 0.950 . S
H2283 C2306 0.950 . S
H2284 C2307 0.950 . S
H2285 C2309 0.950 . S
H2286 C2310 0.950 . S
H2287 C2311 0.951 . S
H2288 C2313 0.951 . S
H2289 C2315 0.950 . S
H2290 C2316 0.950 . S
H2291 C2318 0.950 . S
H2292 C2321 0.950 . S
H2293 C2322 0.950 . S
H2294 C2324 0.950 . S
H2295 C2325 0.950 . S
C2296 H2278 0.951 . S
C2296 C2297 1.366 . S
C2296 C2298 1.388 . S
C2297 C2296 1.366 . S
C2297 C2301 1.385 . S
C2298 H2279 0.951 . S
C2298 C2296 1.388 . S
C2298 C2299 1.366 . S
C2299 C2298 1.366 . S
C2299 C2300 1.414 . S
C2299 C2302 1.499 . S
C2300 H2280 0.950 . S
C2300 C2299 1.414 . S
C2300 C2301 1.374 . S
C2301 H2281 0.950 . S
C2301 C2297 1.385 . S
C2301 C2300 1.374 . S
C2302 C2299 1.499 . S
C2302 C2303 1.373 . S
C2302 C2304 1.389 . S
C2303 H2282 0.950 . S
C2303 C2302 1.373 . S
C2303 C2319 1.377 . S
C2304 C2302 1.389 . S
C2304 C2305 1.524 . S
C2304 C2318 1.377 . S
C2305 C2304 1.524 . S
C2305 C2306 1.397 . S
C2305 C2310 1.363 . S
C2306 H2283 0.950 . S
C2306 C2305 1.397 . S
C2306 C2307 1.334 . S
C2307 H2284 0.950 . S
C2307 C2306 1.334 . S
C2307 C2308 1.287 . S
C2308 C2307 1.287 . S
C2308 C2309 1.524 . S
C2308 H2327 0.913 . S
C2309 H2285 0.950 . S
C2309 C2308 1.524 . S
C2309 C2310 1.415 . S
C2310 H2286 0.950 . S
C2310 C2305 1.363 . S
C2310 C2309 1.415 . S
C2311 H2287 0.951 . S
C2311 C2312 1.366 . S
C2311 C2313 1.388 . S
C2312 C2311 1.366 . S
C2312 C2316 1.385 . S
C2313 H2288 0.951 . S
C2313 C2311 1.388 . S
C2313 C2314 1.366 . S
C2314 C2313 1.366 . S
C2314 C2315 1.414 . S
C2314 C2317 1.499 . S
C2315 H2289 0.950 . S
C2315 C2314 1.414 . S
C2315 C2316 1.374 . S
C2316 H2290 0.950 . S
C2316 C2312 1.385 . S
C2316 C2315 1.374 . S
C2317 C2314 1.499 . S
C2317 C2318 1.373 . S
C2317 C2319 1.389 . S
C2318 H2291 0.950 . S
C2318 C2304 1.377 . S
C2318 C2317 1.373 . S
C2319 C2303 1.377 . S
C2319 C2317 1.389 . S
C2319 C2320 1.524 . S
C2320 C2319 1.524 . S
C2320 C2321 1.397 . S
C2320 C2325 1.363 . S
C2321 H2292 0.950 . S
C2321 C2320 1.397 . S
C2321 C2322 1.334 . S
C2322 H2293 0.950 . S
C2322 C2321 1.334 . S
C2322 C2323 1.287 . S
C2323 C2322 1.287 . S
C2323 C2324 1.524 . S
C2323 H2326 0.999 . S
C2324 H2294 0.950 . S
C2324 C2323 1.524 . S
C2324 C2325 1.415 . S
C2325 H2295 0.950 . S
C2325 C2320 1.363 . S
C2325 C2324 1.415 . S
H2326 C2323 0.999 . S
H2327 C2308 0.913 . S
H2328 C2346 0.951 . S
H2329 C2348 0.951 . S
H2330 C2350 0.950 . S
H2331 C2351 0.950 . S
H2332 C2353 0.950 . S
H2333 C2356 0.950 . S
H2334 C2357 0.950 . S
H2335 C2359 0.950 . S
H2336 C2360 0.950 . S
H2337 C2361 0.951 . S
H2338 C2363 0.951 . S
H2339 C2365 0.950 . S
H2340 C2366 0.950 . S
H2341 C2368 0.950 . S
H2342 C2371 0.950 . S
H2343 C2372 0.950 . S
H2344 C2374 0.950 . S
H2345 C2375 0.950 . S
C2346 H2328 0.951 . S
C2346 C2347 1.366 . S
C2346 C2348 1.388 . S
C2347 C2346 1.366 . S
C2347 C2351 1.385 . S
C2348 H2329 0.951 . S
C2348 C2346 1.388 . S
C2348 C2349 1.366 . S
C2349 C2348 1.366 . S
C2349 C2350 1.414 . S
C2349 C2352 1.499 . S
C2350 H2330 0.950 . S
C2350 C2349 1.414 . S
C2350 C2351 1.374 . S
C2351 H2331 0.950 . S
C2351 C2347 1.385 . S
C2351 C2350 1.374 . S
C2352 C2349 1.499 . S
C2352 C2353 1.373 . S
C2352 C2354 1.389 . S
C2353 H2332 0.950 . S
C2353 C2352 1.373 . S
C2353 C2369 1.377 . S
C2354 C2352 1.389 . S
C2354 C2355 1.524 . S
C2354 C2368 1.377 . S
C2355 C2354 1.524 . S
C2355 C2356 1.397 . S
C2355 C2360 1.363 . S
C2356 H2333 0.950 . S
C2356 C2355 1.397 . S
C2356 C2357 1.334 . S
C2357 H2334 0.950 . S
C2357 C2356 1.334 . S
C2357 C2358 1.287 . S
C2358 C2357 1.287 . S
C2358 C2359 1.524 . S
C2358 H2377 0.913 . S
C2359 H2335 0.950 . S
C2359 C2358 1.524 . S
C2359 C2360 1.415 . S
C2360 H2336 0.950 . S
C2360 C2355 1.363 . S
C2360 C2359 1.415 . S
C2361 H2337 0.951 . S
C2361 C2362 1.366 . S
C2361 C2363 1.388 . S
C2362 C2361 1.366 . S
C2362 C2366 1.385 . S
C2363 H2338 0.951 . S
C2363 C2361 1.388 . S
C2363 C2364 1.366 . S
C2364 C2363 1.366 . S
C2364 C2365 1.414 . S
C2364 C2367 1.499 . S
C2365 H2339 0.950 . S
C2365 C2364 1.414 . S
C2365 C2366 1.374 . S
C2366 H2340 0.950 . S
C2366 C2362 1.385 . S
C2366 C2365 1.374 . S
C2367 C2364 1.499 . S
C2367 C2368 1.373 . S
C2367 C2369 1.389 . S
C2368 H2341 0.950 . S
C2368 C2354 1.377 . S
C2368 C2367 1.373 . S
C2369 C2353 1.377 . S
C2369 C2367 1.389 . S
C2369 C2370 1.524 . S
C2370 C2369 1.524 . S
C2370 C2371 1.397 . S
C2370 C2375 1.363 . S
C2371 H2342 0.950 . S
C2371 C2370 1.397 . S
C2371 C2372 1.334 . S
C2372 H2343 0.950 . S
C2372 C2371 1.334 . S
C2372 C2373 1.287 . S
C2373 C2372 1.287 . S
C2373 C2374 1.524 . S
C2373 H2376 0.999 . S
C2374 H2344 0.950 . S
C2374 C2373 1.524 . S
C2374 C2375 1.415 . S
C2375 H2345 0.950 . S
C2375 C2370 1.363 . S
C2375 C2374 1.415 . S
H2376 C2373 0.999 . S
H2377 C2358 0.913 . S
H2378 C2396 0.951 . S
H2379 C2398 0.951 . S
H2380 C2400 0.950 . S
H2381 C2401 0.950 . S
H2382 C2403 0.950 . S
H2383 C2406 0.950 . S
H2384 C2407 0.950 . S
H2385 C2409 0.950 . S
H2386 C2410 0.950 . S
H2387 C2411 0.951 . S
H2388 C2413 0.951 . S
H2389 C2415 0.950 . S
H2390 C2416 0.950 . S
H2391 C2418 0.950 . S
H2392 C2421 0.950 . S
H2393 C2422 0.950 . S
H2394 C2424 0.950 . S
H2395 C2425 0.950 . S
C2396 H2378 0.951 . S
C2396 C2397 1.366 . S
C2396 C2398 1.388 . S
C2397 C2396 1.366 . S
C2397 C2401 1.385 . S
C2398 H2379 0.951 . S
C2398 C2396 1.388 . S
C2398 C2399 1.366 . S
C2399 C2398 1.366 . S
C2399 C2400 1.414 . S
C2399 C2402 1.499 . S
C2400 H2380 0.950 . S
C2400 C2399 1.414 . S
C2400 C2401 1.374 . S
C2401 H2381 0.950 . S
C2401 C2397 1.385 . S
C2401 C2400 1.374 . S
C2402 C2399 1.499 . S
C2402 C2403 1.373 . S
C2402 C2404 1.389 . S
C2403 H2382 0.950 . S
C2403 C2402 1.373 . S
C2403 C2419 1.377 . S
C2404 C2402 1.389 . S
C2404 C2405 1.524 . S
C2404 C2418 1.377 . S
C2405 C2404 1.524 . S
C2405 C2406 1.397 . S
C2405 C2410 1.363 . S
C2406 H2383 0.950 . S
C2406 C2405 1.397 . S
C2406 C2407 1.334 . S
C2407 H2384 0.950 . S
C2407 C2406 1.334 . S
C2407 C2408 1.287 . S
C2408 C2407 1.287 . S
C2408 C2409 1.524 . S
C2408 H2427 0.913 . S
C2409 H2385 0.950 . S
C2409 C2408 1.524 . S
C2409 C2410 1.415 . S
C2410 H2386 0.950 . S
C2410 C2405 1.363 . S
C2410 C2409 1.415 . S
C2411 H2387 0.951 . S
C2411 C2412 1.366 . S
C2411 C2413 1.388 . S
C2412 C2411 1.366 . S
C2412 C2416 1.385 . S
C2413 H2388 0.951 . S
C2413 C2411 1.388 . S
C2413 C2414 1.366 . S
C2414 C2413 1.366 . S
C2414 C2415 1.414 . S
C2414 C2417 1.499 . S
C2415 H2389 0.950 . S
C2415 C2414 1.414 . S
C2415 C2416 1.374 . S
C2416 H2390 0.950 . S
C2416 C2412 1.385 . S
C2416 C2415 1.374 . S
C2417 C2414 1.499 . S
C2417 C2418 1.373 . S
C2417 C2419 1.389 . S
C2418 H2391 0.950 . S
C2418 C2404 1.377 . S
C2418 C2417 1.373 . S
C2419 C2403 1.377 . S
C2419 C2417 1.389 . S
C2419 C2420 1.524 . S
C2420 C2419 1.524 . S
C2420 C2421 1.397 . S
C2420 C2425 1.363 . S
C2421 H2392 0.950 . S
C2421 C2420 1.397 . S
C2421 C2422 1.334 . S
C2422 H2393 0.950 . S
C2422 C2421 1.334 . S
C2422 C2423 1.287 . S
C2423 C2422 1.287 . S
C2423 C2424 1.524 . S
C2423 H2426 0.999 . S
C2424 H2394 0.950 . S
C2424 C2423 1.524 . S
C2424 C2425 1.415 . S
C2425 H2395 0.950 . S
C2425 C2420 1.363 . S
C2425 C2424 1.415 . S
H2426 C2423 0.999 . S
H2427 C2408 0.913 . S
H2428 C2446 0.951 . S
H2429 C2448 0.951 . S
H2430 C2450 0.950 . S
H2431 C2451 0.950 . S
H2432 C2453 0.950 . S
H2433 C2456 0.950 . S
H2434 C2457 0.950 . S
H2435 C2459 0.950 . S
H2436 C2460 0.950 . S
H2437 C2461 0.951 . S
H2438 C2463 0.951 . S
H2439 C2465 0.950 . S
H2440 C2466 0.950 . S
H2441 C2468 0.950 . S
H2442 C2471 0.950 . S
H2443 C2472 0.950 . S
H2444 C2474 0.950 . S
H2445 C2475 0.950 . S
C2446 H2428 0.951 . S
C2446 C2447 1.366 . S
C2446 C2448 1.388 . S
C2447 C2446 1.366 . S
C2447 C2451 1.385 . S
C2448 H2429 0.951 . S
C2448 C2446 1.388 . S
C2448 C2449 1.366 . S
C2449 C2448 1.366 . S
C2449 C2450 1.414 . S
C2449 C2452 1.499 . S
C2450 H2430 0.950 . S
C2450 C2449 1.414 . S
C2450 C2451 1.374 . S
C2451 H2431 0.950 . S
C2451 C2447 1.385 . S
C2451 C2450 1.374 . S
C2452 C2449 1.499 . S
C2452 C2453 1.373 . S
C2452 C2454 1.389 . S
C2453 H2432 0.950 . S
C2453 C2452 1.373 . S
C2453 C2469 1.377 . S
C2454 C2452 1.389 . S
C2454 C2455 1.524 . S
C2454 C2468 1.377 . S
C2455 C2454 1.524 . S
C2455 C2456 1.397 . S
C2455 C2460 1.363 . S
C2456 H2433 0.950 . S
C2456 C2455 1.397 . S
C2456 C2457 1.334 . S
C2457 H2434 0.950 . S
C2457 C2456 1.334 . S
C2457 C2458 1.287 . S
C2458 C2457 1.287 . S
C2458 C2459 1.524 . S
C2458 H2477 0.913 . S
C2459 H2435 0.950 . S
C2459 C2458 1.524 . S
C2459 C2460 1.415 . S
C2460 H2436 0.950 . S
C2460 C2455 1.363 . S
C2460 C2459 1.415 . S
C2461 H2437 0.951 . S
C2461 C2462 1.366 . S
C2461 C2463 1.388 . S
C2462 C2461 1.366 . S
C2462 C2466 1.385 . S
C2463 H2438 0.951 . S
C2463 C2461 1.388 . S
C2463 C2464 1.366 . S
C2464 C2463 1.366 . S
C2464 C2465 1.414 . S
C2464 C2467 1.499 . S
C2465 H2439 0.950 . S
C2465 C2464 1.414 . S
C2465 C2466 1.374 . S
C2466 H2440 0.950 . S
C2466 C2462 1.385 . S
C2466 C2465 1.374 . S
C2467 C2464 1.499 . S
C2467 C2468 1.373 . S
C2467 C2469 1.389 . S
C2468 H2441 0.950 . S
C2468 C2454 1.377 . S
C2468 C2467 1.373 . S
C2469 C2453 1.377 . S
C2469 C2467 1.389 . S
C2469 C2470 1.524 . S
C2470 C2469 1.524 . S
C2470 C2471 1.397 . S
C2470 C2475 1.363 . S
C2471 H2442 0.950 . S
C2471 C2470 1.397 . S
C2471 C2472 1.334 . S
C2472 H2443 0.950 . S
C2472 C2471 1.334 . S
C2472 C2473 1.287 . S
C2473 C2472 1.287 . S
C2473 C2474 1.524 . S
C2473 H2476 0.999 . S
C2474 H2444 0.950 . S
C2474 C2473 1.524 . S
C2474 C2475 1.415 . S
C2475 H2445 0.950 . S
C2475 C2470 1.363 . S
C2475 C2474 1.415 . S
H2476 C2473 0.999 . S
H2477 C2458 0.913 . S
H2478 C2496 0.951 . S
H2479 C2498 0.951 . S
H2480 C2500 0.950 . S
H2481 C2501 0.950 . S
H2482 C2503 0.950 . S
H2483 C2506 0.950 . S
H2484 C2507 0.950 . S
H2485 C2509 0.950 . S
H2486 C2510 0.950 . S
H2487 C2511 0.951 . S
H2488 C2513 0.951 . S
H2489 C2515 0.950 . S
H2490 C2516 0.950 . S
H2491 C2518 0.950 . S
H2492 C2521 0.950 . S
H2493 C2522 0.950 . S
H2494 C2524 0.950 . S
H2495 C2525 0.950 . S
C2496 H2478 0.951 . S
C2496 C2497 1.366 . S
C2496 C2498 1.388 . S
C2497 C2496 1.366 . S
C2497 C2501 1.385 . S
C2498 H2479 0.951 . S
C2498 C2496 1.388 . S
C2498 C2499 1.366 . S
C2499 C2498 1.366 . S
C2499 C2500 1.414 . S
C2499 C2502 1.499 . S
C2500 H2480 0.950 . S
C2500 C2499 1.414 . S
C2500 C2501 1.374 . S
C2501 H2481 0.950 . S
C2501 C2497 1.385 . S
C2501 C2500 1.374 . S
C2502 C2499 1.499 . S
C2502 C2503 1.373 . S
C2502 C2504 1.389 . S
C2503 H2482 0.950 . S
C2503 C2502 1.373 . S
C2503 C2519 1.377 . S
C2504 C2502 1.389 . S
C2504 C2505 1.524 . S
C2504 C2518 1.377 . S
C2505 C2504 1.524 . S
C2505 C2506 1.397 . S
C2505 C2510 1.363 . S
C2506 H2483 0.950 . S
C2506 C2505 1.397 . S
C2506 C2507 1.334 . S
C2507 H2484 0.950 . S
C2507 C2506 1.334 . S
C2507 C2508 1.287 . S
C2508 C2507 1.287 . S
C2508 C2509 1.524 . S
C2508 H2527 0.913 . S
C2509 H2485 0.950 . S
C2509 C2508 1.524 . S
C2509 C2510 1.415 . S
C2510 H2486 0.950 . S
C2510 C2505 1.363 . S
C2510 C2509 1.415 . S
C2511 H2487 0.951 . S
C2511 C2512 1.366 . S
C2511 C2513 1.388 . S
C2512 C2511 1.366 . S
C2512 C2516 1.385 . S
C2513 H2488 0.951 . S
C2513 C2511 1.388 . S
C2513 C2514 1.366 . S
C2514 C2513 1.366 . S
C2514 C2515 1.414 . S
C2514 C2517 1.499 . S
C2515 H2489 0.950 . S
C2515 C2514 1.414 . S
C2515 C2516 1.374 . S
C2516 H2490 0.950 . S
C2516 C2512 1.385 . S
C2516 C2515 1.374 . S
C2517 C2514 1.499 . S
C2517 C2518 1.373 . S
C2517 C2519 1.389 . S
C2518 H2491 0.950 . S
C2518 C2504 1.377 . S
C2518 C2517 1.373 . S
C2519 C2503 1.377 . S
C2519 C2517 1.389 . S
C2519 C2520 1.524 . S
C2520 C2519 1.524 . S
C2520 C2521 1.397 . S
C2520 C2525 1.363 . S
C2521 H2492 0.950 . S
C2521 C2520 1.397 . S
C2521 C2522 1.334 . S
C2522 H2493 0.950 . S
C2522 C2521 1.334 . S
C2522 C2523 1.287 . S
C2523 C2522 1.287 . S
C2523 C2524 1.524 . S
C2523 H2526 0.999 . S
C2524 H2494 0.950 . S
C2524 C2523 1.524 . S
C2524 C2525 1.415 . S
C2525 H2495 0.950 . S
C2525 C2520 1.363 . S
C2525 C2524 1.415 . S
H2526 C2523 0.999 . S
H2527 C2508 0.913 . S
C547 C8 1.451 . S
C562 C206 1.452 . S
C597 C239 1.451 . S
C612 C41 1.450 . S
C647 C140 1.451 . S
C662 C74 1.451 . S
C697 C173 1.452 . S
C712 C107 1.452 . S
C747 C272 1.452 . S
C762 C470 1.452 . S
C797 C305 1.452 . S
C812 C503 1.452 . S
C847 C404 1.452 . S
C862 C338 1.452 . S
C897 C371 1.452 . S
C912 C437 1.451 . S
C947 N269 2.061 . S
C962 N5 2.061 . S
C997 N302 2.061 . S
C1012 N38 2.061 . S
C1047 N335 2.060 . S
C1062 N71 2.060 . S
C1097 N368 2.060 . S
C1112 N104 2.060 . S
C1147 N401 2.060 . S
C1162 N137 2.060 . S
C1197 N434 2.060 . S
C1212 N170 2.060 . S
C1247 N203 2.060 . S
C1262 N467 2.060 . S
C1297 N236 2.060 . S
C1312 N500 2.060 . S
C1347 C314 0.432 . S
C1362 C28 0.388 . S
C1397 C347 0.435 . S
C1412 C61 0.384 . S
C1447 C380 0.434 . S
C1462 C94 0.386 . S
C1497 C281 0.431 . S
C1512 C127 0.388 . S
C1547 C160 0.387 . S
C1562 C512 0.432 . S
C1597 C193 0.388 . S
C1612 C413 0.431 . S
C1647 C226 0.387 . S
C1662 C446 0.432 . S
C1697 C259 0.388 . S
C1712 C479 0.431 . S
C1747 C50 0.432 . S
C1762 C292 0.386 . S
C1797 C83 0.431 . S
C1812 C325 0.388 . S
C1847 C116 0.431 . S
C1862 C358 0.388 . S
C1897 C17 0.433 . S
C1912 C391 0.387 . S
C1947 C248 0.433 . S
C1962 C424 0.385 . S
C1997 C149 0.431 . S
C2012 C457 0.387 . S
C2047 C182 0.435 . S
C2062 C490 0.384 . S
C2097 C523 0.384 . S
C2112 C215 0.435 . S
C2147 N80 0.563 . S
C2162 N14 0.560 . S
C2197 N113 0.559 . S
C2212 N47 0.560 . S
C2247 N146 0.563 . S
C2262 N212 0.559 . S
C2297 N245 0.559 . S
C2312 N179 0.561 . S
C2347 N278 0.558 . S
C2362 N344 0.563 . S
C2397 N377 0.559 . S
C2412 N311 0.563 . S
C2447 N410 0.559 . S
C2462 N476 0.561 . S
C2497 N443 0.559 . S
C2512 N509 0.563 . S
