# Generated by pormake.
# Topology sod, (4)-cn, num edge types: 1
# Building blocks:
#     Node 0, Type 0, BuildingBlock: ICAMEG_clean_sbu_1, # of connection points: 4
#     Node 1, Type 0, BuildingBlock: ICAMEG_clean_sbu_1, # of connection points: 4
#     Node 2, Type 0, BuildingBlock: ICAMEG_clean_sbu_1, # of connection points: 4
#     Node 3, Type 0, BuildingBlock: ICAMEG_clean_sbu_1, # of connection points: 4
#     Node 4, Type 0, BuildingBlock: ICAMEG_clean_sbu_1, # of connection points: 4
#     Node 5, Type 0, BuildingBlock: ICAMEG_clean_sbu_1, # of connection points: 4
#     Node 6, Type 0, BuildingBlock: ICAMEG_clean_sbu_1, # of connection points: 4
#     Node 7, Type 0, BuildingBlock: ICAMEG_clean_sbu_1, # of connection points: 4
#     Node 8, Type 0, BuildingBlock: ICAMEG_clean_sbu_1, # of connection points: 4
#     Node 9, Type 0, BuildingBlock: ICAMEG_clean_sbu_1, # of connection points: 4
#     Node 10, Type 0, BuildingBlock: ICAMEG_clean_sbu_1, # of connection points: 4
#     Node 11, Type 0, BuildingBlock: ICAMEG_clean_sbu_1, # of connection points: 4
#     Edge 12, Type (0, 0), BuildingBlock: CIFDUS_clean_linker_0, # of connection points: 2
#     Edge 13, Type (0, 0), BuildingBlock: CIFDUS_clean_linker_0, # of connection points: 2
#     Edge 14, Type (0, 0), BuildingBlock: CIFDUS_clean_linker_0, # of connection points: 2
#     Edge 15, Type (0, 0), BuildingBlock: CIFDUS_clean_linker_0, # of connection points: 2
#     Edge 16, Type (0, 0), BuildingBlock: CIFDUS_clean_linker_0, # of connection points: 2
#     Edge 17, Type (0, 0), BuildingBlock: CIFDUS_clean_linker_0, # of connection points: 2
#     Edge 18, Type (0, 0), BuildingBlock: CIFDUS_clean_linker_0, # of connection points: 2
#     Edge 19, Type (0, 0), BuildingBlock: CIFDUS_clean_linker_0, # of connection points: 2
#     Edge 20, Type (0, 0), BuildingBlock: CIFDUS_clean_linker_0, # of connection points: 2
#     Edge 21, Type (0, 0), BuildingBlock: CIFDUS_clean_linker_0, # of connection points: 2
#     Edge 22, Type (0, 0), BuildingBlock: CIFDUS_clean_linker_0, # of connection points: 2
#     Edge 23, Type (0, 0), BuildingBlock: CIFDUS_clean_linker_0, # of connection points: 2
#     Edge 24, Type (0, 0), BuildingBlock: CIFDUS_clean_linker_0, # of connection points: 2
#     Edge 25, Type (0, 0), BuildingBlock: CIFDUS_clean_linker_0, # of connection points: 2
#     Edge 26, Type (0, 0), BuildingBlock: CIFDUS_clean_linker_0, # of connection points: 2
#     Edge 27, Type (0, 0), BuildingBlock: CIFDUS_clean_linker_0, # of connection points: 2
#     Edge 28, Type (0, 0), BuildingBlock: CIFDUS_clean_linker_0, # of connection points: 2
#     Edge 29, Type (0, 0), BuildingBlock: CIFDUS_clean_linker_0, # of connection points: 2
#     Edge 30, Type (0, 0), BuildingBlock: CIFDUS_clean_linker_0, # of connection points: 2
#     Edge 31, Type (0, 0), BuildingBlock: CIFDUS_clean_linker_0, # of connection points: 2
#     Edge 32, Type (0, 0), BuildingBlock: CIFDUS_clean_linker_0, # of connection points: 2
#     Edge 33, Type (0, 0), BuildingBlock: CIFDUS_clean_linker_0, # of connection points: 2
#     Edge 34, Type (0, 0), BuildingBlock: CIFDUS_clean_linker_0, # of connection points: 2
#     Edge 35, Type (0, 0), BuildingBlock: CIFDUS_clean_linker_0, # of connection points: 2
# Relax obj value: 0.210
# Max RMSD: 0.237
# Mean RMSD: 0.235
data_MOF--net-sod--node1-ICAMEG_clean_sbu_1--edge1-CIFDUS_clean_linker_0
_symmetry_space_group_name_H-M    P1
_symmetry_Int_Tables_number       1
_symmetry_cell_setting            triclinic
loop_
_symmetry_equiv_pos_as_xyz
'x, y, z'
_cell_length_a     37.439761
_cell_length_b     40.98789
_cell_length_c     39.146711
_cell_angle_alpha  90.194733
_cell_angle_beta   89.93062
_cell_angle_gamma 90.134798
loop_
_atom_site_label
_atom_site_type_symbol
_atom_site_fract_x
_atom_site_fract_y
_atom_site_fract_z
_atom_type_partial_charge
Co0 Co 0.0089 0.24014 0.55179 0.0
Co1 Co 0.99651 0.24391 0.46615 0.0
O2 O 0.00405 0.26632 0.51013 0.0
C3 C 0.98014 0.30576 0.57452 0.0
O4 O 0.97731 0.31578 0.54286 0.0
C5 C 0.03295 0.30806 0.45015 0.0
O6 O 0.04482 0.31091 0.4815 0.0
O7 O 0.04389 0.22224 0.47239 0.0
O8 O 0.03207 0.20388 0.5252 0.0
H9 H 1.00032 0.14635 0.38803 0.0
H10 H 0.04348 0.30664 0.54709 0.0
O11 O 0.98754 0.276 0.58094 0.0
H12 H 0.13901 0.23216 0.58317 0.0
H13 H 0.03172 0.21974 0.67683 0.0
H14 H 0.99562 0.17037 0.5671 0.0
H15 H 0.07834 0.21135 0.57282 0.0
H16 H 0.02867 0.25312 0.62469 0.0
O17 O 0.01829 0.28154 0.44028 0.0
H18 H 0.00728 0.17579 0.4426 0.0
H19 H 0.97206 0.26346 0.39638 0.0
H20 H 0.99871 0.13603 0.61858 0.0
H21 H 0.10341 0.32844 0.55765 0.0
H22 H 0.01686 0.1607 0.67396 0.0
H23 H 0.15194 0.29118 0.57583 0.0
O24 O 0.96043 0.22127 0.54248 0.0
H25 H 0.9095 0.33748 0.47176 0.0
H26 H 0.92386 0.2205 0.44588 0.0
H27 H 0.8645 0.24566 0.44077 0.0
H28 H 0.857 0.30464 0.45356 0.0
H29 H 0.96816 0.31127 0.47707 0.0
H30 H 0.96519 0.23518 0.34114 0.0
H31 H 0.97919 0.1761 0.33673 0.0
O32 O 0.97267 0.20603 0.48903 0.0
C33 C 0.05056 0.2036 0.49777 0.0
C34 C 0.99425 0.17212 0.38958 0.0
C35 C 0.97461 0.22197 0.36325 0.0
N36 N 0.99049 0.22143 0.4227 0.0
C37 C 0.99819 0.18893 0.42044 0.0
C38 C 0.97886 0.23795 0.39455 0.0
C39 C 0.9824 0.18882 0.36081 0.0
C40 C 0.06385 0.29019 0.55557 0.0
N41 N 0.05666 0.25779 0.56008 0.0
C42 C 0.09806 0.30272 0.56128 0.0
C43 C 0.12528 0.28181 0.57141 0.0
C44 C 0.11804 0.24874 0.57558 0.0
C45 C 0.08349 0.23712 0.56968 0.0
C46 C 0.02376 0.2087 0.65285 0.0
C47 C 0.00366 0.18128 0.59105 0.0
C48 C 0.02181 0.22752 0.62324 0.0
N49 N 0.01201 0.21372 0.59279 0.0
C50 C 0.0053 0.16172 0.62015 0.0
C51 C 0.01545 0.17558 0.65122 0.0
C52 C 0.95334 0.20442 0.51577 0.0
C53 C 0.91243 0.31178 0.46598 0.0
C54 C 0.92091 0.24614 0.45169 0.0
C55 C 0.88717 0.26027 0.44865 0.0
C56 C 0.88298 0.29335 0.45581 0.0
N57 N 0.94981 0.26438 0.46152 0.0
C58 C 0.94575 0.29678 0.46881 0.0
Co59 Co 0.73231 0.05314 0.51626 0.0
Co60 Co 0.73272 0.97203 0.49763 0.0
O61 O 0.75913 0.01271 0.50703 0.0
C62 C 0.79801 0.07486 0.47749 0.0
O63 O 0.79957 0.04748 0.4601 0.0
C64 C 0.79691 0.95022 0.5384 0.0
O65 O 0.79688 0.97681 0.55715 0.0
O66 O 0.7091 0.97618 0.54334 0.0
O67 O 0.69228 0.02821 0.53794 0.0
H68 H 0.62246 0.90191 0.49622 0.0
H69 H 0.80657 0.04462 0.54094 0.0
O70 O 0.77178 0.08064 0.49719 0.0
H71 H 0.73685 0.07328 0.64354 0.0
H72 H 0.71639 0.1708 0.55142 0.0
H73 H 0.6565 0.07189 0.50774 0.0
H74 H 0.7079 0.06984 0.58726 0.0
H75 H 0.75043 0.12024 0.54187 0.0
O76 O 0.77225 0.94502 0.51681 0.0
H77 H 0.65706 0.95229 0.50607 0.0
H78 H 0.7516 0.90531 0.47174 0.0
H79 H 0.62136 0.12186 0.51731 0.0
H80 H 0.83689 0.04858 0.59656 0.0
H81 H 0.6513 0.17181 0.53931 0.0
H82 H 0.80196 0.0628 0.64848 0.0
O83 O 0.70891 0.0487 0.47041 0.0
H84 H 0.83797 0.97675 0.41796 0.0
H85 H 0.7087 0.95595 0.42638 0.0
H86 H 0.73808 0.95293 0.3702 0.0
H87 H 0.80333 0.9632 0.36571 0.0
H88 H 0.80721 0.9803 0.47349 0.0
H89 H 0.71809 0.85436 0.46189 0.0
H90 H 0.65298 0.85247 0.47396 0.0
O91 O 0.69255 0.99651 0.47599 0.0
C92 C 0.69046 1.0007 0.55292 0.0
C93 C 0.65081 0.90244 0.49081 0.0
C94 C 0.70449 0.87574 0.4716 0.0
N95 N 0.70634 0.93186 0.48942 0.0
C96 C 0.67056 0.93093 0.49629 0.0
C97 C 0.72337 0.90466 0.4774 0.0
C98 C 0.66795 0.8747 0.47835 0.0
C99 C 0.79114 0.05101 0.56329 0.0
N100 N 0.75527 0.05663 0.56074 0.0
C101 C 0.80849 0.05314 0.59478 0.0
C102 C 0.78888 0.06107 0.6239 0.0
C103 C 0.75236 0.06688 0.62116 0.0
C104 C 0.73596 0.06458 0.58921 0.0
C105 C 0.70304 0.1492 0.54181 0.0
C106 C 0.66975 0.09347 0.51741 0.0
C107 C 0.72223 0.12051 0.53617 0.0
N108 N 0.70552 0.09302 0.5243 0.0
C109 C 0.64969 0.12172 0.52274 0.0
C110 C 0.66651 0.14974 0.53505 0.0
C111 C 0.69049 0.02393 0.4609 0.0
C112 C 0.80951 0.97233 0.41954 0.0
C113 C 0.73682 0.96116 0.4246 0.0
C114 C 0.75346 0.95908 0.39273 0.0
C115 C 0.79006 0.96477 0.39024 0.0
N116 N 0.75596 0.96884 0.45323 0.0
C117 C 0.79192 0.97425 0.45096 0.0
Co118 Co 0.00792 0.78387 0.47141 0.0
Co119 Co 0.99849 0.78336 0.5576 0.0
O120 O 0.00486 0.75935 0.51439 0.0
C121 C 0.98144 0.71634 0.45179 0.0
O122 O 0.98066 0.70677 0.48371 0.0
C123 C 0.03121 0.71843 0.57689 0.0
O124 O 0.03371 0.7091 0.54489 0.0
O125 O 0.04492 0.80603 0.54844 0.0
O126 O 0.03072 0.82196 0.49543 0.0
H127 H 1.00111 0.88447 0.63067 0.0
H128 H 0.0452 0.71923 0.48045 0.0
O129 O 0.98685 0.74629 0.44449 0.0
H130 H 0.13638 0.79361 0.43421 0.0
H131 H 0.02609 0.7995 0.34481 0.0
H132 H 0.99196 0.85248 0.45326 0.0
H133 H 0.07553 0.81327 0.44556 0.0
H134 H 0.02593 0.76838 0.39854 0.0
O135 O 0.02317 0.74785 0.58434 0.0
H136 H 0.00622 0.85302 0.57715 0.0
H137 H 0.98107 0.76554 0.62987 0.0
H138 H 0.99219 0.88459 0.40014 0.0
H139 H 0.10541 0.69859 0.46924 0.0
H140 H 0.00932 0.85809 0.34539 0.0
H141 H 0.15172 0.73579 0.44584 0.0
O142 O 0.95931 0.80177 0.48132 0.0
H143 H 0.91045 0.68939 0.55739 0.0
H144 H 0.92756 0.80623 0.5823 0.0
H145 H 0.86876 0.78116 0.59192 0.0
H146 H 0.85985 0.7222 0.57975 0.0
H147 H 0.96839 0.71545 0.54759 0.0
H148 H 0.97615 0.79596 0.68404 0.0
H149 H 0.98599 0.85591 0.68467 0.0
O150 O 0.97226 0.81938 0.53388 0.0
C151 C 0.05013 0.82386 0.52212 0.0
C152 C 0.99675 0.85836 0.63074 0.0
C153 C 0.9828 0.80869 0.66069 0.0
N154 N 0.99399 0.80748 0.60025 0.0
C155 C 0.99959 0.84042 0.60046 0.0
C156 C 0.98584 0.79155 0.62993 0.0
C157 C 0.98829 0.84232 0.66102 0.0
C158 C 0.06456 0.73557 0.46971 0.0
N159 N 0.05596 0.76722 0.46263 0.0
C160 C 0.09896 0.72374 0.46364 0.0
C161 C 0.12494 0.74461 0.45057 0.0
C162 C 0.11633 0.777 0.44398 0.0
C163 C 0.08165 0.78794 0.45036 0.0
C164 C 0.01856 0.81132 0.3685 0.0
C165 C 0.9996 0.84078 0.4296 0.0
C166 C 0.01823 0.79377 0.39902 0.0
N167 N 0.009 0.80859 0.42912 0.0
C168 C 0.99961 0.85908 0.39957 0.0
C169 C 0.00919 0.8442 0.36885 0.0
C170 C 0.95235 0.81943 0.50749 0.0
C171 C 0.91408 0.71502 0.56321 0.0
C172 C 0.92421 0.78052 0.57707 0.0
C173 C 0.89069 0.76647 0.58253 0.0
C174 C 0.88569 0.73343 0.57567 0.0
N175 N 0.9523 0.76223 0.5654 0.0
C176 C 0.94721 0.72995 0.55799 0.0
Co177 Co 0.27587 0.972 0.50957 0.0
Co178 Co 0.27716 0.05437 0.49716 0.0
O179 O 0.24999 0.01347 0.50356 0.0
C180 C 0.20371 0.95208 0.48092 0.0
O181 O 0.19218 0.98225 0.4797 0.0
C182 C 0.20622 0.07545 0.5275 0.0
O183 O 0.19434 0.04538 0.5292 0.0
O184 O 0.30043 0.04665 0.54227 0.0
O185 O 0.3164 0.99481 0.53321 0.0
H186 H 0.38921 0.12202 0.50152 0.0
H187 H 0.2033 0.98488 0.54037 0.0
O188 O 0.23636 0.94602 0.48746 0.0
H189 H 0.27488 0.939 0.63369 0.0
H190 H 0.28943 0.85136 0.53138 0.0
H191 H 0.35156 0.95308 0.4997 0.0
H192 H 0.30101 0.94622 0.57674 0.0
H193 H 0.25638 0.90311 0.52764 0.0
O194 O 0.23865 0.08124 0.51964 0.0
H195 H 0.35349 0.07165 0.50617 0.0
H196 H 0.25967 0.12358 0.47899 0.0
H197 H 0.3857 0.90191 0.50368 0.0
H198 H 0.17588 0.97742 0.59651 0.0
H199 H 0.35463 0.85054 0.51958 0.0
H200 H 0.21164 0.95436 0.64398 0.0
O201 O 0.29887 0.97928 0.46419 0.0
H202 H 0.17594 0.05107 0.41173 0.0
H203 H 0.30249 0.07888 0.42948 0.0
H204 H 0.27591 0.08635 0.3728 0.0
H205 H 0.21199 0.07268 0.36354 0.0
H206 H 0.20378 0.04335 0.46763 0.0
H207 H 0.29434 0.17455 0.47453 0.0
H208 H 0.35964 0.17396 0.48561 0.0
O209 O 0.31675 0.03067 0.47308 0.0
C210 C 0.31864 0.02141 0.55007 0.0
C211 C 0.36079 0.12257 0.49652 0.0
C212 C 0.30754 0.15206 0.48145 0.0
N213 N 0.30454 0.09452 0.49265 0.0
C214 C 0.34042 0.09408 0.49901 0.0
C215 C 0.28801 0.12311 0.4842 0.0
C216 C 0.34418 0.15171 0.48764 0.0
C217 C 0.21913 0.97439 0.56024 0.0
N218 N 0.2538 0.96556 0.55446 0.0
C219 C 0.20339 0.9704 0.59234 0.0
C220 C 0.22346 0.95754 0.61896 0.0
C221 C 0.2589 0.94894 0.6132 0.0
C222 C 0.27365 0.95323 0.58075 0.0
C223 C 0.30329 0.87358 0.52445 0.0
C224 C 0.33785 0.93091 0.50688 0.0
C225 C 0.28467 0.90297 0.52209 0.0
N226 N 0.30203 0.93124 0.51362 0.0
C227 C 0.35732 0.90197 0.50898 0.0
C228 C 0.33987 0.87315 0.51786 0.0
C229 C 0.31788 1.00405 0.45618 0.0
C230 C 0.20376 0.05736 0.41547 0.0
C231 C 0.2748 0.07267 0.42591 0.0
C232 C 0.25981 0.07707 0.39361 0.0
C233 C 0.22399 0.06941 0.38843 0.0
N234 N 0.2548 0.06114 0.45258 0.0
C235 C 0.21973 0.05324 0.44739 0.0
Co236 Co 0.49864 0.96936 0.26379 0.0
Co237 Co 0.51532 0.05175 0.26102 0.0
O238 O 0.50661 1.00968 0.23741 0.0
C239 C 0.5309 0.94566 0.19697 0.0
O240 O 0.53268 0.97509 0.18399 0.0
C241 C 0.48053 0.07009 0.19352 0.0
O242 O 0.4726 0.03967 0.18639 0.0
O243 O 0.4682 0.04716 0.28511 0.0
O244 O 0.47283 0.99446 0.29992 0.0
H245 H 0.51563 0.12595 0.36358 0.0
H246 H 0.4699 0.9788 0.19219 0.0
O247 O 0.52321 0.94146 0.22838 0.0
H248 H 0.36846 0.93745 0.25908 0.0
H249 H 0.47273 0.84967 0.28146 0.0
H250 H 0.50341 0.95387 0.3376 0.0
H251 H 0.42681 0.94575 0.28611 0.0
H252 H 0.47992 0.89976 0.24754 0.0
O253 O 0.49316 0.07764 0.22273 0.0
H254 H 0.50666 0.07408 0.33275 0.0
H255 H 0.54108 0.11805 0.24027 0.0
H256 H 0.49588 0.90442 0.37248 0.0
H257 H 0.41255 0.9701 0.16397 0.0
H258 H 0.48047 0.8518 0.34443 0.0
H259 H 0.36092 0.94932 0.19736 0.0
O260 O 0.54506 0.97653 0.28814 0.0
H261 H 0.60023 0.04207 0.16133 0.0
H262 H 0.58883 0.07144 0.28288 0.0
H263 H 0.6477 0.07458 0.2552 0.0
H264 H 0.65373 0.06006 0.19382 0.0
H265 H 0.54216 0.03867 0.1902 0.0
H266 H 0.54987 0.17053 0.26998 0.0
H267 H 0.53732 0.17469 0.33216 0.0
O268 O 0.53923 0.02959 0.30002 0.0
C269 C 0.45857 0.02255 0.30308 0.0
C270 C 0.52112 0.12447 0.33647 0.0
C271 C 0.54026 0.14951 0.28394 0.0
N272 N 0.52303 0.09301 0.28462 0.0
C273 C 0.51609 0.09514 0.31884 0.0
C274 C 0.53493 0.11977 0.26717 0.0
C275 C 0.53327 0.15181 0.31883 0.0
C276 C 0.44832 0.96933 0.20707 0.0
N277 N 0.45262 0.96247 0.24096 0.0
C278 C 0.41548 0.96463 0.19085 0.0
C279 C 0.38653 0.95305 0.20957 0.0
C280 C 0.39075 0.94644 0.24416 0.0
C281 C 0.42401 0.9514 0.25944 0.0
C282 C 0.47947 0.87244 0.29398 0.0
C283 C 0.49651 0.93115 0.32516 0.0
C284 C 0.48381 0.9009 0.27488 0.0
N285 N 0.49204 0.92985 0.29053 0.0
C286 C 0.49237 0.90318 0.34507 0.0
C287 C 0.48377 0.87367 0.32931 0.0
C288 C 0.55369 1.00201 0.30516 0.0
C289 C 0.59795 0.04862 0.18805 0.0
C290 C 0.59112 0.06476 0.25635 0.0
C291 C 0.6246 0.06676 0.24071 0.0
C292 C 0.62796 0.05865 0.20629 0.0
N293 N 0.56164 0.05514 0.2383 0.0
C294 C 0.56492 0.04691 0.20458 0.0
Co295 Co 0.99435 0.5527 0.25504 0.0
Co296 Co 0.00895 0.46997 0.25366 0.0
O297 O 1.00185 0.51098 0.2793 0.0
C298 C 0.02986 0.57149 0.32216 0.0
O299 O 0.03768 0.5411 0.32915 0.0
C300 C 0.97535 0.44834 0.32052 0.0
O301 O 0.97421 0.47803 0.33311 0.0
O302 O 0.96295 0.47734 0.22886 0.0
O303 O 0.96981 0.53015 0.21643 0.0
H304 H 0.01071 0.40234 0.14628 0.0
H305 H 0.96725 0.54164 0.32605 0.0
O306 O 0.01718 0.57893 0.29301 0.0
H307 H 0.86276 0.57862 0.26069 0.0
H308 H 0.9635 0.67199 0.24406 0.0
H309 H 0.00344 0.57322 0.18293 0.0
H310 H 0.92144 0.57356 0.23297 0.0
H311 H 0.97058 0.61998 0.27465 0.0
O312 O 0.98332 0.4434 0.28927 0.0
H313 H 0.00425 0.45277 0.18012 0.0
H314 H 0.0259 0.40054 0.27136 0.0
H315 H 0.99616 0.62459 0.15123 0.0
H316 H 0.90938 0.54698 0.35497 0.0
H317 H 0.97613 0.6745 0.18181 0.0
H318 H 0.85641 0.56553 0.3223 0.0
O319 O 0.04132 0.54672 0.231 0.0
H320 H 0.09415 0.47091 0.35421 0.0
H321 H 0.08038 0.44507 0.23216 0.0
H322 H 0.13835 0.4364 0.2597 0.0
H323 H 0.14562 0.44903 0.32139 0.0
H324 H 0.03722 0.47998 0.32547 0.0
H325 H 0.03202 0.3495 0.23851 0.0
H326 H 0.02464 0.35019 0.17547 0.0
O327 O 0.03564 0.49372 0.21728 0.0
C328 C 0.95491 0.50263 0.21152 0.0
C329 C 0.01405 0.40173 0.17373 0.0
C330 C 0.02592 0.37207 0.22549 0.0
N331 N 0.01475 0.42974 0.22772 0.0
C332 C 0.01052 0.43025 0.19305 0.0
C333 C 0.02219 0.40105 0.24399 0.0
C334 C 0.02182 0.37248 0.19013 0.0
C335 C 0.94471 0.55006 0.31157 0.0
N336 N 0.94818 0.55749 0.27772 0.0
C337 C 0.9118 0.55289 0.32814 0.0
C338 C 0.88209 0.56323 0.3098 0.0
C339 C 0.88563 0.57054 0.27525 0.0
C340 C 0.91898 0.56743 0.25958 0.0
C341 C 0.97241 0.65045 0.23046 0.0
C342 C 0.99474 0.59479 0.19648 0.0
C343 C 0.97679 0.62098 0.24774 0.0
N344 N 0.98782 0.59359 0.23075 0.0
C345 C 0.99066 0.62384 0.17836 0.0
C346 C 0.97944 0.65183 0.19554 0.0
C347 C 0.05039 0.52155 0.21351 0.0
C348 C 0.09133 0.46512 0.32735 0.0
C349 C 0.0831 0.45107 0.25879 0.0
C350 C 0.11613 0.44588 0.27437 0.0
C351 C 0.12019 0.45292 0.30894 0.0
N352 N 0.05459 0.46279 0.27696 0.0
C353 C 0.05873 0.47002 0.31083 0.0
Co354 Co 0.49422 0.04722 0.74876 0.0
Co355 Co 0.51028 0.9649 0.74642 0.0
O356 O 0.50248 1.00549 0.77264 0.0
C357 C 0.52779 0.06655 0.81667 0.0
O358 O 0.53468 0.03618 0.82464 0.0
C359 C 0.47786 0.9422 0.8134 0.0
O360 O 0.47602 0.97184 0.82601 0.0
O361 O 0.46378 0.97169 0.72215 0.0
O362 O 0.47045 0.02452 0.70985 0.0
H363 H 0.51214 0.8983 0.63834 0.0
H364 H 0.46637 0.03469 0.81937 0.0
O365 O 0.51635 0.0736 0.78694 0.0
H366 H 0.3621 0.0711 0.7534 0.0
H367 H 0.46108 0.16605 0.73848 0.0
H368 H 0.50348 0.06842 0.67686 0.0
H369 H 0.42117 0.06733 0.7263 0.0
H370 H 0.46897 0.11395 0.76872 0.0
O371 O 0.48579 0.93747 0.7821 0.0
H372 H 0.50485 0.94826 0.67279 0.0
H373 H 0.52929 0.89572 0.76317 0.0
H374 H 0.4954 0.11988 0.64552 0.0
H375 H 0.4081 0.03875 0.84768 0.0
H376 H 0.47413 0.16922 0.67634 0.0
H377 H 0.35521 0.057 0.8147 0.0
O378 O 0.54144 0.04217 0.72507 0.0
H379 H 0.59669 0.96704 0.84596 0.0
H380 H 0.58209 0.94183 0.72384 0.0
H381 H 0.6406 0.9342 0.75068 0.0
H382 H 0.6483 0.94652 0.81239 0.0
H383 H 0.53914 0.97504 0.81794 0.0
H384 H 0.5363 0.84514 0.72971 0.0
H385 H 0.52794 0.84623 0.66679 0.0
O386 O 0.53602 0.98952 0.70997 0.0
C387 C 0.45551 0.99702 0.70495 0.0
C388 C 0.51592 0.89752 0.66573 0.0
C389 C 0.5294 0.86767 0.71701 0.0
N390 N 0.51672 0.92505 0.71999 0.0
C391 C 0.51192 0.92578 0.68539 0.0
C392 C 0.52517 0.8964 0.73586 0.0
C393 C 0.52474 0.86831 0.68171 0.0
C394 C 0.44392 0.04305 0.80477 0.0
N395 N 0.44771 0.05107 0.77109 0.0
C396 C 0.41075 0.04513 0.82099 0.0
C397 C 0.38109 0.0553 0.80248 0.0
C398 C 0.38494 0.06317 0.76811 0.0
C399 C 0.41854 0.06081 0.75279 0.0
C400 C 0.47052 0.14476 0.72478 0.0
C401 C 0.49423 0.08974 0.69053 0.0
C402 C 0.47536 0.11525 0.74185 0.0
N403 N 0.48705 0.08816 0.72472 0.0
C404 C 0.4897 0.11884 0.6726 0.0
C405 C 0.47779 0.14651 0.68992 0.0
C406 C 0.55072 0.01746 0.70698 0.0
C407 C 0.59367 0.96135 0.8191 0.0
C408 C 0.58495 0.94758 0.75053 0.0
C409 C 0.61831 0.94304 0.76569 0.0
C410 C 0.62262 0.94992 0.80027 0.0
N411 N 0.55636 0.95847 0.76913 0.0
C412 C 0.56074 0.96563 0.803 0.0
Co413 Co 0.99635 0.47033 0.76951 0.0
Co414 Co 0.01405 0.55237 0.77011 0.0
O415 O 0.00552 0.51139 0.74475 0.0
C416 C 0.03259 0.44999 0.7034 0.0
O417 O 0.04152 0.48016 0.69631 0.0
C418 C 0.97934 0.57293 0.70349 0.0
O419 O 0.97051 0.54279 0.69595 0.0
O420 O 0.96662 0.5471 0.79339 0.0
O421 O 0.97189 0.49438 0.80724 0.0
H422 H 0.01355 0.62205 0.87604 0.0
H423 H 0.97078 0.47942 0.69766 0.0
O424 O 0.01901 0.44306 0.73237 0.0
H425 H 0.864 0.44761 0.76313 0.0
H426 H 0.96168 0.35197 0.78228 0.0
H427 H 0.0035 0.45094 0.84212 0.0
H428 H 0.92238 0.45222 0.79138 0.0
H429 H 0.9711 0.40321 0.75077 0.0
O430 O 0.99236 0.57975 0.73274 0.0
H431 H 0.0049 0.57155 0.84272 0.0
H432 H 0.03994 0.61952 0.75267 0.0
H433 H 0.99392 0.40035 0.87471 0.0
H434 H 0.91323 0.47439 0.66822 0.0
H435 H 0.97292 0.35034 0.84478 0.0
H436 H 0.85909 0.4585 0.70094 0.0
O437 O 0.04316 0.47552 0.79386 0.0
H438 H 0.09965 0.54865 0.6705 0.0
H439 H 0.08746 0.57045 0.79367 0.0
H440 H 0.14653 0.57513 0.76666 0.0
H441 H 0.15297 0.56443 0.70447 0.0
H442 H 0.04138 0.54354 0.69872 0.0
H443 H 0.04846 0.67067 0.78492 0.0
H444 H 0.03541 0.67213 0.84714 0.0
O445 O 0.03755 0.52822 0.8081 0.0
C446 C 0.95723 0.52217 0.81093 0.0
C447 C 0.01927 0.62175 0.84893 0.0
C448 C 0.03878 0.64905 0.79779 0.0
N449 N 0.02163 0.59257 0.79567 0.0
C450 C 0.01442 0.5932 0.8299 0.0
C451 C 0.03363 0.62006 0.77959 0.0
C452 C 0.03151 0.64984 0.8327 0.0
C453 C 0.94773 0.47214 0.71219 0.0
N454 N 0.95037 0.46605 0.7464 0.0
C455 C 0.915 0.46949 0.69532 0.0
C456 C 0.88464 0.46064 0.71368 0.0
C457 C 0.88736 0.45459 0.74855 0.0
C458 C 0.92056 0.45747 0.76452 0.0
C459 C 0.97096 0.37356 0.79561 0.0
C460 C 0.99435 0.42933 0.82886 0.0
C461 C 0.97662 0.4026 0.77783 0.0
N462 N 0.98812 0.43006 0.79448 0.0
C463 C 0.98898 0.40072 0.84748 0.0
C464 C 0.97722 0.37268 0.83067 0.0
C465 C 0.0521 0.5004 0.81184 0.0
C466 C 0.09721 0.55345 0.69761 0.0
C467 C 0.08995 0.56526 0.76681 0.0
C468 C 0.12353 0.56819 0.75154 0.0
C469 C 0.12712 0.56224 0.71667 0.0
N470 N 0.0606 0.55672 0.748 0.0
C471 C 0.06408 0.55075 0.71379 0.0
Co472 Co 0.23159 0.54981 0.02176 0.0
Co473 Co 0.23214 0.46808 1.00583 0.0
O474 O 0.2584 0.50912 0.01365 0.0
C475 C 0.29661 0.57161 0.98171 0.0
O476 O 0.29656 0.54536 0.96245 0.0
C477 C 0.30303 0.44724 0.03596 0.0
O478 O 0.3145 0.47741 0.03875 0.0
O479 O 0.2078 0.47435 0.05095 0.0
O480 O 0.1907 0.52582 0.04295 0.0
H481 H 0.12093 0.39919 1.00567 0.0
H482 H 0.30522 0.54163 0.04781 0.0
O483 O 0.27171 0.57659 1.0031 0.0
H484 H 0.23372 0.57178 0.1488 0.0
H485 H 0.21613 0.66818 0.05431 0.0
H486 H 0.15622 0.56914 0.01099 0.0
H487 H 0.20593 0.56806 0.092 0.0
H488 H 0.2498 0.61714 0.04657 0.0
O489 O 0.27061 0.44129 0.02819 0.0
H490 H 0.15585 0.44984 0.01254 0.0
H491 H 0.2511 0.39937 0.98634 0.0
H492 H 0.12147 0.6196 0.01872 0.0
H493 H 0.3344 0.54558 0.10403 0.0
H494 H 0.15141 0.66962 0.04054 0.0
H495 H 0.29856 0.56061 0.15512 0.0
O496 O 0.20914 0.5444 0.97574 0.0
H497 H 0.33518 0.47443 0.92233 0.0
H498 H 0.2089 0.44409 0.9371 0.0
H499 H 0.23703 0.43753 0.88089 0.0
H500 H 0.30086 0.45239 0.87314 0.0
H501 H 0.30578 0.48151 0.97765 0.0
H502 H 0.21726 0.34813 0.97974 0.0
H503 H 0.15165 0.34785 0.98918 0.0
O504 O 0.19292 0.49203 0.98172 0.0
C505 C 0.18884 0.49905 0.0592 0.0
C506 C 0.1495 0.39903 1.00138 0.0
C507 C 0.20357 0.37036 0.98691 0.0
N508 N 0.20547 0.42771 0.99967 0.0
C509 C 0.16942 0.42767 1.00514 0.0
C510 C 0.22262 0.39945 0.9909 0.0
C511 C 0.16675 0.37022 0.99218 0.0
C512 C 0.28937 0.54803 0.06987 0.0
N513 N 0.25362 0.55392 0.0666 0.0
C514 C 0.30608 0.55031 0.10167 0.0
C515 C 0.28597 0.55874 0.13032 0.0
C516 C 0.24959 0.56494 0.1268 0.0
C517 C 0.23384 0.56247 0.09458 0.0
C518 C 0.20277 0.64655 0.04479 0.0
C519 C 0.16947 0.59073 0.02061 0.0
C520 C 0.22176 0.61757 0.04019 0.0
N521 N 0.20503 0.59005 0.02843 0.0
C522 C 0.14964 0.61927 0.02488 0.0
C523 C 0.16646 0.64733 0.03709 0.0
C524 C 0.19103 0.51938 0.96631 0.0
C525 C 0.30745 0.46751 0.92543 0.0
C526 C 0.23652 0.45085 0.9342 0.0
C527 C 0.25241 0.44695 0.90216 0.0
C528 C 0.28818 0.45526 0.89783 0.0
N529 N 0.25561 0.46247 0.96146 0.0
C530 C 0.29061 0.47111 0.95707 0.0
Co531 Co 0.51042 0.28108 0.95925 0.0
Co532 Co 0.50092 0.28229 0.04539 0.0
O533 O 0.50434 0.25741 1.00252 0.0
C534 C 0.4781 0.21557 0.9404 0.0
O535 O 0.47529 0.20683 0.97249 0.0
C536 C 0.5284 0.21537 0.06507 0.0
O537 O 0.5296 0.20574 0.03312 0.0
O538 O 0.54934 0.30077 0.03549 0.0
O539 O 0.53623 0.31772 0.98285 0.0
H540 H 0.51525 0.38386 0.11642 0.0
H541 H 0.54108 0.21361 0.9691 0.0
O542 O 0.48624 0.2449 0.93264 0.0
H543 H 0.64027 0.28034 0.92528 0.0
H544 H 0.53288 0.29286 0.83282 0.0
H545 H 0.50162 0.35041 0.93947 0.0
H546 H 0.58117 0.30473 0.9347 0.0
H547 H 0.52829 0.26287 0.88709 0.0
O548 O 0.52236 0.24523 0.07245 0.0
H549 H 0.51609 0.35127 0.0634 0.0
H550 H 0.48285 0.2672 0.11823 0.0
H551 H 0.50639 0.38143 0.88584 0.0
H552 H 0.59933 0.18823 0.95953 0.0
H553 H 0.52211 0.35263 0.83197 0.0
H554 H 0.64971 0.22157 0.93742 0.0
O555 O 0.46367 0.30314 0.96832 0.0
H556 H 0.40453 0.1956 0.04793 0.0
H557 H 0.43283 0.31106 0.07068 0.0
H558 H 0.37213 0.29071 0.08175 0.0
H559 H 0.35757 0.2325 0.07059 0.0
H560 H 0.46457 0.21694 0.03694 0.0
H561 H 0.48207 0.29881 0.17187 0.0
H562 H 0.49817 0.35763 0.17118 0.0
O563 O 0.47779 0.31983 0.02122 0.0
C564 C 0.55612 0.3183 0.00928 0.0
C565 C 0.50812 0.35826 0.11704 0.0
C566 C 0.48957 0.31052 0.14817 0.0
N567 N 0.49945 0.30737 0.08761 0.0
C568 C 0.50848 0.33968 0.08707 0.0
C569 C 0.49025 0.2927 0.11771 0.0
C570 C 0.49857 0.34352 0.14776 0.0
C571 C 0.56219 0.22833 0.95886 0.0
N572 N 0.55684 0.26053 0.95153 0.0
C573 C 0.59548 0.21379 0.95375 0.0
C574 C 0.62375 0.2325 0.94143 0.0
C575 C 0.61845 0.26544 0.93459 0.0
C576 C 0.58477 0.2791 0.93995 0.0
C577 C 0.52597 0.30569 0.85612 0.0
C578 C 0.50852 0.3377 0.9162 0.0
C579 C 0.52311 0.2888 0.88692 0.0
N580 N 0.51464 0.30486 0.91653 0.0
C581 C 0.51116 0.3554 0.88588 0.0
C582 C 0.51996 0.33922 0.85566 0.0
C583 C 0.45825 0.32114 0.99458 0.0
C584 C 0.41063 0.22093 0.05331 0.0
C585 C 0.42704 0.28559 0.06604 0.0
C586 C 0.39245 0.27424 0.07228 0.0
C587 C 0.38428 0.24163 0.06595 0.0
N588 N 0.45306 0.26505 0.05413 0.0
C589 C 0.44492 0.23317 0.04735 0.0
Co590 Co 0.77524 0.47261 0.01892 0.0
Co591 Co 0.77434 0.55428 1.00305 0.0
O592 O 0.74833 0.51318 0.01099 0.0
C593 C 0.71086 0.45031 0.97811 0.0
O594 O 0.71137 0.47627 0.9586 0.0
C595 C 0.70377 0.57492 0.03434 0.0
O596 O 0.69246 0.54473 0.03721 0.0
O597 O 0.79899 0.5485 0.04794 0.0
O598 O 0.81594 0.49684 0.04033 0.0
H599 H 0.88503 0.62386 1.00202 0.0
H600 H 0.70139 0.48032 0.04477 0.0
O601 O 0.73526 0.44569 1.00003 0.0
H602 H 0.77265 0.45125 0.14591 0.0
H603 H 0.79087 0.35439 0.05108 0.0
H604 H 0.85074 0.45346 0.00833 0.0
H605 H 0.80071 0.45496 0.08918 0.0
H606 H 0.75708 0.40532 0.04339 0.0
O607 O 0.73592 0.58098 0.02571 0.0
H608 H 0.85053 0.57306 0.00927 0.0
H609 H 0.75479 0.62265 0.98347 0.0
H610 H 0.8856 0.40311 0.016 0.0
H611 H 0.67194 0.47635 0.10091 0.0
H612 H 0.85568 0.35308 0.03753 0.0
H613 H 0.70765 0.46187 0.15207 0.0
O614 O 0.79793 0.47788 0.97295 0.0
H615 H 0.67065 0.54714 0.92062 0.0
H616 H 0.79712 0.57742 0.93399 0.0
H617 H 0.76854 0.58335 0.878 0.0
H618 H 0.70462 0.5685 0.87096 0.0
H619 H 0.70048 0.54069 0.97572 0.0
H620 H 0.78821 0.67405 0.97648 0.0
H621 H 0.85385 0.67485 0.98553 0.0
O622 O 0.81359 0.53042 0.97875 0.0
C623 C 0.81801 0.52392 0.0562 0.0
C624 C 0.85645 0.6238 0.99791 0.0
C625 C 0.8021 0.65198 0.98365 0.0
N626 N 0.80069 0.59475 0.99663 0.0
C627 C 0.83677 0.59507 1.00188 0.0
C628 C 0.78329 0.62281 0.98785 0.0
C629 C 0.83893 0.65241 0.9887 0.0
C630 C 0.71719 0.47415 0.06688 0.0
N631 N 0.75301 0.46857 0.06369 0.0
C632 C 0.70032 0.47187 0.09862 0.0
C633 C 0.72036 0.46375 0.12731 0.0
C634 C 0.75682 0.45785 0.12388 0.0
C635 C 0.77272 0.46032 0.0917 0.0
C636 C 0.80422 0.37603 0.04169 0.0
C637 C 0.83749 0.43186 0.01782 0.0
C638 C 0.78517 0.40494 0.03712 0.0
N639 N 0.80189 0.43247 0.02552 0.0
C640 C 0.85739 0.40338 0.02206 0.0
C641 C 0.84058 0.37532 0.03411 0.0
C642 C 0.81586 0.50294 0.96348 0.0
C643 C 0.69841 0.55405 0.92341 0.0
C644 C 0.76945 0.57069 0.93139 0.0
C645 C 0.75332 0.57423 0.89948 0.0
C646 C 0.71749 0.56592 0.89555 0.0
N647 N 0.75055 0.55943 0.95889 0.0
C648 C 0.7155 0.55081 0.95491 0.0
Co649 Co 0.50621 0.74023 0.04969 0.0
Co650 Co 0.49529 0.74123 0.96373 0.0
O651 O 0.50204 0.76509 1.00698 0.0
C652 C 0.47126 0.80428 0.06774 0.0
O653 O 0.45826 0.80704 0.03682 0.0
C654 C 0.53366 0.80398 0.94632 0.0
O655 O 0.54499 0.80741 0.9778 0.0
O656 O 0.54211 0.71914 0.97182 0.0
O657 O 0.52889 0.7026 0.02492 0.0
H658 H 0.49875 0.64069 0.88991 0.0
H659 H 0.5388 0.8066 0.04503 0.0
O660 O 0.48594 0.77771 0.077 0.0
H661 H 0.63667 0.7342 0.08068 0.0
H662 H 0.53001 0.7236 0.17522 0.0
H663 H 0.49068 0.67152 0.06792 0.0
H664 H 0.57631 0.71216 0.07085 0.0
H665 H 0.52761 0.7551 0.12179 0.0
O666 O 0.51855 0.7775 0.93696 0.0
H667 H 0.50498 0.67206 0.94337 0.0
H668 H 0.47347 0.75861 0.89254 0.0
H669 H 0.49307 0.639 0.1207 0.0
H670 H 0.59856 0.82971 0.05505 0.0
H671 H 0.51281 0.66504 0.17489 0.0
H672 H 0.64813 0.79344 0.07294 0.0
O673 O 0.45764 0.72151 0.0407 0.0
H674 H 0.41031 0.8365 0.96136 0.0
H675 H 0.42266 0.71802 0.9433 0.0
H676 H 0.36407 0.74388 0.93503 0.0
H677 H 0.3576 0.80361 0.94383 0.0
H678 H 0.46812 0.8096 0.97012 0.0
H679 H 0.46736 0.72833 0.83838 0.0
H680 H 0.47986 0.66885 0.83685 0.0
O681 O 0.47003 0.70469 0.98769 0.0
C682 C 0.54787 0.70114 0.99787 0.0
C683 C 0.49332 0.66661 0.89021 0.0
C684 C 0.47577 0.7158 0.86128 0.0
N685 N 0.48995 0.71723 0.92111 0.0
C686 C 0.49685 0.68452 0.92043 0.0
C687 C 0.47957 0.7329 0.89199 0.0
C688 C 0.48273 0.68242 0.86045 0.0
C689 C 0.55999 0.79063 0.05307 0.0
N690 N 0.55379 0.75805 0.05747 0.0
C691 C 0.5939 0.80387 0.0586 0.0
C692 C 0.6217 0.78352 0.06862 0.0
C693 C 0.61529 0.7503 0.07297 0.0
C694 C 0.58101 0.73794 0.06725 0.0
C695 C 0.52127 0.71199 0.1518 0.0
C696 C 0.49933 0.68306 0.09136 0.0
C697 C 0.51963 0.72979 0.12148 0.0
N698 N 0.50884 0.71527 0.09172 0.0
C699 C 0.50061 0.6645 0.12119 0.0
C700 C 0.51166 0.67913 0.15158 0.0
C701 C 0.45061 0.70393 0.01445 0.0
C702 C 0.4128 0.81047 0.9573 0.0
C703 C 0.42013 0.74397 0.94751 0.0
C704 C 0.38684 0.75851 0.94262 0.0
C705 C 0.38323 0.79201 0.94753 0.0
N706 N 0.44915 0.76222 0.957 0.0
C707 C 0.44566 0.79507 0.962 0.0
H708 H 1.00213 0.31175 0.38734 0.0
H709 H 0.05043 0.37166 0.46555 0.0
H710 H 0.0336 0.42077 0.43407 0.0
H711 H 0.00467 0.44669 0.3842 0.0
H712 H 0.95606 0.38587 0.30698 0.0
H713 H 0.97214 0.33709 0.33907 0.0
C714 C 0.00902 0.33543 0.3977 0.0
C715 C 0.02749 0.33776 0.42896 0.0
C716 C 0.99836 0.3635 0.38002 0.0
C717 C 0.03646 0.36894 0.44149 0.0
C718 C 0.02649 0.3971 0.42367 0.0
C719 C 0.99676 0.42279 0.37492 0.0
C720 C 0.97858 0.41992 0.34353 0.0
C721 C 0.00702 0.39469 0.39309 0.0
C722 C 0.96954 0.38872 0.33129 0.0
C723 C 0.97911 0.36082 0.34942 0.0
H724 H 0.65233 0.97432 0.43219 0.0
H725 H 0.66965 0.07832 0.4248 0.0
H726 H 0.62822 0.0804 0.37642 0.0
H727 H 0.58769 0.05257 0.33672 0.0
H728 H 0.57733 0.94763 0.33923 0.0
H729 H 0.61666 0.94594 0.38913 0.0
C730 C 0.64798 0.99748 0.41967 0.0
C731 C 0.66485 0.02611 0.43194 0.0
C732 C 0.62561 0.99821 0.39098 0.0
C733 C 0.6574 0.0559 0.41588 0.0
C734 C 0.63377 0.05705 0.38816 0.0
C735 C 0.59454 0.02915 0.34748 0.0
C736 C 0.57972 1.00017 0.33377 0.0
C737 C 0.61797 0.02831 0.37541 0.0
C738 C 0.58848 0.97024 0.34892 0.0
C739 C 0.61084 0.96931 0.37755 0.0
H740 H 0.01081 0.63553 0.31735 0.0
H741 H 0.04038 0.56221 0.39087 0.0
H742 H 0.02574 0.59971 0.43749 0.0
H743 H 1.00283 0.65292 0.45746 0.0
H744 H 0.97207 0.72539 0.38342 0.0
H745 H 0.98751 0.68806 0.33698 0.0
C746 C 0.01401 0.62758 0.34351 0.0
C747 C 0.02644 0.59582 0.35037 0.0
C748 C 0.00454 0.64892 0.37019 0.0
C749 C 0.03104 0.58645 0.38463 0.0
C750 C 0.02229 0.60781 0.41138 0.0
C751 C 0.99887 0.66035 0.43117 0.0
C752 C 0.98586 0.69187 0.42401 0.0
C753 C 0.00846 0.63893 0.40448 0.0
C754 C 0.98173 0.70125 0.38973 0.0
C755 C 0.99083 0.68 0.36313 0.0
H756 H 0.35577 0.0539 0.42708 0.0
H757 H 0.33859 0.9498 0.42023 0.0
H758 H 0.38056 0.94695 0.37249 0.0
H759 H 0.42224 0.97367 0.33403 0.0
H760 H 0.43429 0.07839 0.3353 0.0
H761 H 0.39315 0.0815 0.3841 0.0
C762 C 0.36037 0.03063 0.41476 0.0
C763 C 0.34341 1.00212 0.42711 0.0
C764 C 0.3834 0.02936 0.38642 0.0
C765 C 0.35093 0.97212 0.41127 0.0
C766 C 0.37491 0.9705 0.38394 0.0
C767 C 0.41538 0.99737 0.34412 0.0
C768 C 0.43122 0.0258 0.3305 0.0
C769 C 0.39116 0.99896 0.37134 0.0
C770 C 0.42236 0.05614 0.34493 0.0
C771 C 0.39898 0.05787 0.37294 0.0
H772 H 1.00017 0.6365 0.70961 0.0
H773 H 0.96913 0.56449 0.63456 0.0
H774 H 0.98513 0.60218 0.58872 0.0
H775 H 0.00931 0.65525 0.56988 0.0
H776 H 0.04074 0.72669 0.64535 0.0
H777 H 0.02456 0.68899 0.69107 0.0
C778 C 0.9969 0.62889 0.68328 0.0
C779 C 0.98365 0.59745 0.67575 0.0
C780 C 0.00704 0.65036 0.65705 0.0
C781 C 0.97907 0.5885 0.6413 0.0
C782 C 0.98859 0.60995 0.615 0.0
C783 C 0.01334 0.66233 0.59632 0.0
C784 C 0.0268 0.69363 0.60414 0.0
C785 C 0.00313 0.64077 0.62256 0.0
C786 C 0.03086 0.70266 0.6386 0.0
C787 C 0.02129 0.68121 0.66476 0.0
H788 H 0.42347 0.04777 0.673 0.0
H789 H 0.42948 0.94258 0.67157 0.0
H790 H 0.38944 0.94132 0.62202 0.0
H791 H 0.35437 0.97043 0.57882 0.0
H792 H 0.34205 0.07499 0.58592 0.0
H793 H 0.38386 0.07622 0.63386 0.0
C794 C 0.4155 0.02438 0.66264 0.0
C795 C 0.42926 0.99522 0.67652 0.0
C796 C 0.39174 0.02385 0.63504 0.0
C797 C 0.41913 0.96534 0.66175 0.0
C798 C 0.39636 0.96466 0.63333 0.0
C799 C 0.3599 0.99348 0.59127 0.0
C800 C 0.34433 0.02255 0.57899 0.0
C801 C 0.38261 0.99381 0.61978 0.0
C802 C 0.35325 0.05224 0.59488 0.0
C803 C 0.37713 0.05293 0.62233 0.0
H804 H 1.00194 0.36899 0.56869 0.0
H805 H 0.9725 0.29622 0.64305 0.0
H806 H 0.98912 0.33342 0.68933 0.0
H807 H 0.0129 0.38606 0.70864 0.0
H808 H 0.0422 0.45919 0.63458 0.0
H809 H 0.02609 0.42188 0.58824 0.0
C810 C 0.9985 0.36148 0.59503 0.0
C811 C 0.98538 0.32999 0.60236 0.0
C812 C 0.00897 0.38274 0.62156 0.0
C813 C 0.98209 0.32041 0.63667 0.0
C814 C 0.9919 0.34157 0.66315 0.0
C815 C 0.01582 0.39396 0.68241 0.0
C816 C 0.02855 0.42564 0.67531 0.0
C817 C 0.00566 0.37267 0.65589 0.0
C818 C 0.03268 0.435 0.64099 0.0
C819 C 0.02308 0.41376 0.6144 0.0
H820 H 0.58604 0.96844 0.67475 0.0
H821 H 0.57547 0.0733 0.67573 0.0
H822 H 0.61605 0.07675 0.62666 0.0
H823 H 0.65238 0.04967 0.58293 0.0
H824 H 0.66927 0.94551 0.5873 0.0
H825 H 0.62724 0.94199 0.63513 0.0
C826 C 0.59311 0.99222 0.66503 0.0
C827 C 0.57782 0.02063 0.67938 0.0
C828 C 0.61711 0.99402 0.63762 0.0
C829 C 0.58694 0.05108 0.66551 0.0
C830 C 0.61 0.05301 0.63735 0.0
C831 C 0.64783 0.02619 0.59474 0.0
C832 C 0.66471 0.9979 0.58173 0.0
C833 C 0.62505 0.02459 0.62316 0.0
C834 C 0.65702 0.96767 0.59682 0.0
C835 C 0.63305 0.96568 0.62421 0.0
H836 H 0.38804 0.31641 0.00966 0.0
H837 H 0.47032 0.38491 0.98192 0.0
H838 H 0.4302 0.43053 0.99438 0.0
H839 H 0.3725 0.45092 0.01573 0.0
H840 H 0.29068 0.38232 0.04535 0.0
H841 H 0.33008 0.33682 0.03086 0.0
C842 C 0.39675 0.34136 1.00566 0.0
C843 C 0.43159 0.34742 0.99394 0.0
C844 C 0.37401 0.36742 0.01432 0.0
C845 C 0.44313 0.37976 0.98977 0.0
C846 C 0.42042 0.40581 0.99749 0.0
C847 C 0.36352 0.42603 0.01961 0.0
C848 C 0.32887 0.42007 0.03215 0.0
C849 C 0.38603 0.39995 0.01044 0.0
C850 C 0.31737 0.3876 0.03615 0.0
C851 C 0.33975 0.36156 0.02753 0.0
H852 H 0.31252 0.61645 0.03063 0.0
H853 H 0.35102 0.57734 0.9349 0.0
H854 H 0.40239 0.61444 0.93738 0.0
H855 H 0.4357 0.65781 0.96645 0.0
H856 H 0.3974 0.6967 0.06243 0.0
H857 H 0.3463 0.65932 0.06015 0.0
C858 C 0.33186 0.61616 0.01002 0.0
C859 C 0.32756 0.59435 0.98228 0.0
C860 C 0.36136 0.63728 0.01182 0.0
C861 C 0.35349 0.59394 0.95636 0.0
C862 C 0.38287 0.61511 0.95783 0.0
C863 C 0.41627 0.65826 0.987 0.0
C864 C 0.4204 0.68031 0.01458 0.0
C865 C 0.387 0.63686 0.98543 0.0
C866 C 0.39497 0.6801 0.04096 0.0
C867 C 0.3657 0.65879 0.03958 0.0
H868 H 0.57211 0.36365 0.96088 0.0
H869 H 0.60892 0.32566 0.05743 0.0
H870 H 0.66011 0.36286 0.05562 0.0
H871 H 0.69427 0.40558 0.02662 0.0
H872 H 0.65732 0.44411 0.93045 0.0
H873 H 0.60602 0.40687 0.93215 0.0
C874 C 0.59125 0.36337 0.98164 0.0
C875 C 0.58662 0.34163 0.00928 0.0
C876 C 0.62059 0.38475 0.98039 0.0
C877 C 0.61171 0.34201 0.0359 0.0
C878 C 0.64104 0.36323 0.03482 0.0
C879 C 0.67528 0.40573 1.00575 0.0
C880 C 0.67999 0.42744 0.97814 0.0
C881 C 0.6458 0.38455 1.00711 0.0
C882 C 0.65453 0.42761 0.95185 0.0
C883 C 0.62519 0.40635 0.95287 0.0
H884 H 0.63357 0.5712 0.01667 0.0
H885 H 0.71657 0.63981 0.04349 0.0
H886 H 0.67693 0.68529 0.03014 0.0
H887 H 0.6185 0.70571 0.01062 0.0
H888 H 0.53494 0.6373 0.98605 0.0
H889 H 0.57522 0.59161 0.99733 0.0
C890 C 0.64276 0.5961 0.02021 0.0
C891 C 0.67784 0.60206 0.03155 0.0
C892 C 0.62007 0.62217 0.01175 0.0
C893 C 0.68957 0.63453 0.03516 0.0
C894 C 0.66705 0.66057 0.0272 0.0
C895 C 0.60953 0.68076 1.00703 0.0
C896 C 0.5743 0.67472 0.99652 0.0
C897 C 0.63238 0.65469 0.0151 0.0
C898 C 0.56242 0.64239 0.99294 0.0
C899 C 0.58523 0.61632 1.0 0.0
H900 H 0.50537 0.8064 0.88232 0.0
H901 H 0.55016 0.86788 0.96113 0.0
H902 H 0.53376 0.91637 0.92848 0.0
H903 H 0.50581 0.94135 0.87766 0.0
H904 H 0.46094 0.87913 0.79958 0.0
H905 H 0.47695 0.83087 0.83259 0.0
C906 C 0.51164 0.83031 0.8925 0.0
C907 C 0.52892 0.83326 0.92433 0.0
C908 C 0.50127 0.85805 0.87408 0.0
C909 C 0.53712 0.86468 0.93667 0.0
C910 C 0.52737 0.89249 0.91816 0.0
C911 C 0.49875 0.91725 0.86832 0.0
C912 C 0.48157 0.91385 0.83648 0.0
C913 C 0.50898 0.88949 0.88704 0.0
C914 C 0.47365 0.8824 0.82422 0.0
C915 C 0.48315 0.8548 0.8429 0.0
H916 H 0.15626 0.4694 0.93427 0.0
H917 H 0.16684 0.57436 0.93371 0.0
H918 H 0.12418 0.57726 0.8865 0.0
H919 H 0.08394 0.55011 0.8465 0.0
H920 H 0.07936 0.44489 0.84165 0.0
H921 H 0.12057 0.44191 0.89019 0.0
C922 C 0.15015 0.49295 0.92343 0.0
C923 C 0.16543 0.52163 0.93737 0.0
C924 C 0.12681 0.49431 0.89543 0.0
C925 C 0.15586 0.5519 0.92345 0.0
C926 C 0.13147 0.55355 0.89645 0.0
C927 C 0.09247 0.52637 0.85522 0.0
C928 C 0.07877 0.4977 0.83985 0.0
C929 C 0.11692 0.5249 0.88224 0.0
C930 C 0.08962 0.46732 0.85262 0.0
C931 C 0.11309 0.46565 0.88044 0.0
H932 H 0.5111 0.1309 0.80949 0.0
H933 H 0.53463 0.05855 0.88601 0.0
H934 H 0.51882 0.09745 0.93102 0.0
H935 H 0.4967 0.15169 0.94862 0.0
H936 H 0.47186 0.22314 0.87153 0.0
H937 H 0.4883 0.18435 0.82675 0.0
C938 C 0.51269 0.12345 0.83595 0.0
C939 C 0.52378 0.09157 0.84413 0.0
C940 C 0.50249 0.1456 0.86165 0.0
C941 C 0.52636 0.08286 0.87878 0.0
C942 C 0.51693 0.10503 0.90458 0.0
C943 C 0.49418 0.15857 0.92201 0.0
C944 C 0.48258 0.19024 0.9135 0.0
C945 C 0.50439 0.1363 0.89631 0.0
C946 C 0.48037 0.19891 0.87884 0.0
C947 C 0.49008 0.17682 0.85321 0.0
H948 H 0.92476 0.47237 0.84465 0.0
H949 H 0.92905 0.57761 0.84052 0.0
H950 H 0.88684 0.5805 0.88838 0.0
H951 H 0.85052 0.55298 0.93177 0.0
H952 H 0.84067 0.44795 0.93082 0.0
H953 H 0.884 0.44513 0.88402 0.0
C954 C 0.91598 0.49609 0.85339 0.0
C955 C 0.9299 0.52481 0.83844 0.0
C956 C 0.89103 0.49752 0.88007 0.0
C957 C 0.91866 0.55516 0.85118 0.0
C958 C 0.89462 0.55678 0.87863 0.0
C959 C 0.85696 0.52941 0.92095 0.0
C960 C 0.8417 0.50069 0.93467 0.0
C961 C 0.88076 0.52809 0.89326 0.0
C962 C 0.85163 0.47043 0.92074 0.0
C963 C 0.87642 0.46883 0.89398 0.0
H964 H 0.49917 0.13428 0.19885 0.0
H965 H 0.47048 0.06063 0.1247 0.0
H966 H 0.48508 0.09827 0.0784 0.0
H967 H 0.50764 0.15172 0.0589 0.0
H968 H 0.53731 0.22461 0.13354 0.0
H969 H 0.52203 0.18711 0.17967 0.0
C970 C 0.49614 0.12629 0.17262 0.0
C971 C 0.48398 0.09441 0.16548 0.0
C972 C 0.50554 0.14774 0.14612 0.0
C973 C 0.47961 0.08497 0.13115 0.0
C974 C 0.48833 0.10641 0.10458 0.0
C975 C 0.5114 0.15921 0.08525 0.0
C976 C 0.52408 0.19088 0.09268 0.0
C977 C 0.50187 0.13768 0.11176 0.0
C978 C 0.52793 0.20035 0.12704 0.0
C979 C 0.51892 0.17899 0.15346 0.0
H980 H 0.92125 0.55293 0.18003 0.0
H981 H 0.93113 0.44801 0.17732 0.0
H982 H 0.89197 0.44607 0.12727 0.0
H983 H 0.85647 0.47435 0.08411 0.0
H984 H 0.83928 0.57827 0.09236 0.0
H985 H 0.88086 0.58055 0.14056 0.0
C986 C 0.91432 0.52946 0.16921 0.0
C987 C 0.92896 0.50057 0.18288 0.0
C988 C 0.89094 0.52848 0.14127 0.0
C989 C 0.92011 0.47057 0.16765 0.0
C990 C 0.89786 0.46949 0.13893 0.0
C991 C 0.86087 0.49749 0.09684 0.0
C992 C 0.84397 0.52606 0.08487 0.0
C993 C 0.88323 0.49832 0.12555 0.0
C994 C 0.85153 0.55589 0.10108 0.0
C995 C 0.87523 0.55717 0.1287 0.0
H996 H 0.5045 0.80825 0.12956 0.0
H997 H 0.4528 0.86763 0.05347 0.0
H998 H 0.46988 0.9169 0.08493 0.0
H999 H 0.49981 0.94322 0.13418 0.0
H1000 H 0.5503 0.88322 0.21034 0.0
H1001 H 0.53438 0.83413 0.1781 0.0
C1002 C 0.49672 0.83187 0.1198 0.0
C1003 C 0.47726 0.83399 0.08907 0.0
C1004 C 0.50719 0.86011 0.13768 0.0
C1005 C 0.46751 0.86506 0.07711 0.0
C1006 C 0.47758 0.89333 0.09495 0.0
C1007 C 0.5081 0.91943 0.14323 0.0
C1008 C 0.52694 0.9169 0.17425 0.0
C1009 C 0.49777 0.89118 0.12508 0.0
C1010 C 0.53637 0.88583 0.18626 0.0
C1011 C 0.52692 0.85775 0.16802 0.0
H1012 H 0.14999 0.54897 0.08659 0.0
H1013 H 0.16855 0.44542 0.09652 0.0
H1014 H 0.12724 0.44379 0.14499 0.0
H1015 H 0.08639 0.47167 0.18371 0.0
H1016 H 0.07421 0.57625 0.17934 0.0
H1017 H 0.11398 0.5778 0.12952 0.0
C1018 C 0.14594 0.52608 0.09975 0.0
C1019 C 0.16312 0.49739 0.08813 0.0
C1020 C 0.12366 0.52564 0.1286 0.0
C1021 C 0.15606 0.46786 0.10493 0.0
C1022 C 0.13253 0.46697 0.13271 0.0
C1023 C 0.09293 0.49502 0.17266 0.0
C1024 C 0.07739 0.52387 0.18571 0.0
C1025 C 0.11643 0.49575 0.14482 0.0
C1026 C 0.08588 0.55372 0.17015 0.0
C1027 C 0.10846 0.55455 0.14154 0.0
H1028 H 0.81335 0.90484 0.49026 0.0
H1029 H 0.8506 0.94508 0.5859 0.0
H1030 H 0.90213 0.90832 0.58424 0.0
H1031 H 0.93619 0.86515 0.55563 0.0
H1032 H 0.89921 0.8255 0.45954 0.0
H1033 H 0.84767 0.8621 0.46138 0.0
C1034 C 0.83243 0.90545 0.51103 0.0
C1035 C 0.82777 0.9275 0.53847 0.0
C1036 C 0.86206 0.88456 0.50967 0.0
C1037 C 0.85337 0.9283 0.56463 0.0
C1038 C 0.88284 0.90731 0.56363 0.0
C1039 C 0.91694 0.86436 0.53498 0.0
C1040 C 0.92162 0.84236 0.50746 0.0
C1041 C 0.88743 0.88541 0.53625 0.0
C1042 C 0.89638 0.84208 0.48097 0.0
C1043 C 0.86685 0.86296 0.48208 0.0
H1044 H 0.93935 0.15858 0.46729 0.0
H1045 H 0.89858 0.19771 0.5622 0.0
H1046 H 0.84663 0.16144 0.55796 0.0
H1047 H 0.81277 0.11952 0.52693 0.0
H1048 H 0.85397 0.07999 0.43246 0.0
H1049 H 0.90608 0.11606 0.43685 0.0
C1050 C 0.91921 0.15929 0.4872 0.0
C1051 C 0.92288 0.18109 0.51504 0.0
C1052 C 0.88946 0.13856 0.48448 0.0
C1053 C 0.89654 0.18124 0.54059 0.0
C1054 C 0.86676 0.16061 0.53806 0.0
C1055 C 0.83284 0.11898 0.50699 0.0
C1056 C 0.82911 0.09736 0.47903 0.0
C1057 C 0.86284 0.13941 0.50997 0.0
C1058 C 0.856 0.0965 0.45404 0.0
C1059 C 0.88581 0.11707 0.45662 0.0
H1060 H 0.11996 0.82018 0.50552 0.0
H1061 H 0.03777 0.88741 0.53626 0.0
H1062 H 0.07733 0.93361 0.52418 0.0
H1063 H 0.13456 0.95488 0.50242 0.0
H1064 H 0.216 0.88748 0.46933 0.0
H1065 H 0.17716 0.84144 0.48344 0.0
C1066 C 0.11113 0.84497 0.51018 0.0
C1067 C 0.07652 0.8505 0.52271 0.0
C1068 C 0.13349 0.87137 0.50166 0.0
C1069 C 0.06482 0.88265 0.52782 0.0
C1070 C 0.0872 0.90904 0.5203 0.0
C1071 C 0.14356 0.93015 0.49769 0.0
C1072 C 0.17799 0.92469 0.48436 0.0
C1073 C 0.12136 0.90372 0.50658 0.0
C1074 C 0.1895 0.89239 0.47921 0.0
C1075 C 0.16745 0.86602 0.4876 0.0
H1076 H 0.12137 0.20762 0.51021 0.0
H1077 H 0.03753 0.1404 0.48295 0.0
H1078 H 0.07781 0.09427 0.49162 0.0
H1079 H 0.13609 0.07295 0.50969 0.0
H1080 H 0.21979 0.14004 0.5386 0.0
H1081 H 0.1802 0.18622 0.52771 0.0
C1082 C 0.11237 0.18286 0.50538 0.0
C1083 C 0.07703 0.17732 0.49485 0.0
C1084 C 0.13531 0.15643 0.51183 0.0
C1085 C 0.06509 0.14519 0.48977 0.0
C1086 C 0.08791 0.11882 0.49536 0.0
C1087 C 0.1455 0.09764 0.51415 0.0
C1088 C 0.1807 0.10298 0.52548 0.0
C1089 C 0.12287 0.12411 0.50705 0.0
C1090 C 0.19269 0.13523 0.53028 0.0
C1091 C 0.17018 0.16167 0.52375 0.0
loop_
_geom_bond_atom_site_label_1
_geom_bond_atom_site_label_2
_geom_bond_distance
_geom_bond_site_symmetry_2
_ccdc_geom_bond_type
Co0 O2 2.143 . S
Co0 O8 2.074 . S
Co0 O11 2.093 1_455 S
Co0 O24 2.097 1_455 S
Co0 N41 2.151 . S
Co0 N49 2.214 . S
Co1 O2 2.160 1_655 S
Co1 O7 2.058 1_655 S
Co1 O17 2.057 1_655 S
Co1 O32 2.037 . S
Co1 N36 2.145 . S
Co1 N57 2.257 . S
O2 Co0 2.143 . S
O2 Co1 2.160 1_455 S
C3 O4 1.278 . S
C3 O11 1.224 . S
O4 C3 1.278 . S
C5 O6 1.245 . S
C5 O17 1.232 . S
O6 C5 1.245 . S
O7 Co1 2.058 1_455 S
O7 C33 1.269 . S
O8 Co0 2.074 . S
O8 C33 1.257 . S
H9 C34 0.930 . S
H10 C40 0.930 . S
O11 Co0 2.093 1_655 S
O11 C3 1.224 . S
H12 C44 0.929 . S
H13 C46 0.930 . S
H14 C47 0.930 . S
H15 C45 0.929 . S
H16 C48 0.928 . S
O17 Co1 2.057 1_455 S
O17 C5 1.232 . S
H18 C37 0.929 . S
H19 C38 0.929 . S
H20 C50 0.931 . S
H21 C42 0.929 . S
H22 C51 0.930 . S
H23 C43 0.931 . S
O24 Co0 2.097 1_655 S
O24 C52 1.214 . S
H25 C53 0.929 . S
H26 C54 0.929 . S
H27 C55 0.930 . S
H28 C56 0.929 . S
H29 C58 0.930 . S
H30 C35 0.930 . S
H31 C39 0.930 . S
O32 Co1 2.037 . S
O32 C52 1.234 . S
C33 O7 1.269 . S
C33 O8 1.257 . S
C34 H9 0.930 . S
C34 C37 1.388 . S
C34 C39 1.418 . S
C35 H30 0.930 . S
C35 C38 1.404 . S
C35 C39 1.353 . S
N36 Co1 2.145 . S
N36 C37 1.397 . S
N36 C38 1.334 . S
C37 H18 0.929 . S
C37 C34 1.388 . S
C37 N36 1.397 . S
C38 H19 0.929 . S
C38 C35 1.404 . S
C38 N36 1.334 . S
C39 H31 0.930 . S
C39 C34 1.418 . S
C39 C35 1.353 . S
C40 H10 0.930 . S
C40 N41 1.330 . S
C40 C42 1.446 . S
N41 Co0 2.151 . S
N41 C40 1.330 . S
N41 C45 1.418 . S
C42 H21 0.929 . S
C42 C40 1.446 . S
C42 C43 1.332 . S
C43 H23 0.931 . S
C43 C42 1.332 . S
C43 C44 1.267 . S
C44 H12 0.929 . S
C44 C43 1.267 . S
C44 C45 1.251 . S
C45 H15 0.929 . S
C45 N41 1.418 . S
C45 C44 1.251 . S
C46 H13 0.930 . S
C46 C48 1.406 . S
C46 C51 1.261 . S
C47 H14 0.930 . S
C47 N49 1.325 . S
C47 C50 1.357 . S
C48 H16 0.928 . S
C48 C46 1.406 . S
C48 N49 1.261 . S
N49 Co0 2.214 . S
N49 C47 1.325 . S
N49 C48 1.261 . S
C50 H20 0.931 . S
C50 C47 1.357 . S
C50 C51 1.312 . S
C51 H22 0.930 . S
C51 C46 1.261 . S
C51 C50 1.312 . S
C52 O24 1.214 . S
C52 O32 1.234 . S
C53 H25 0.929 . S
C53 C56 1.391 . S
C53 C58 1.391 . S
C54 H26 0.929 . S
C54 C55 1.390 . S
C54 N57 1.391 . S
C55 H27 0.930 . S
C55 C54 1.390 . S
C55 C56 1.392 . S
C56 H28 0.929 . S
C56 C53 1.391 . S
C56 C55 1.392 . S
N57 Co1 2.257 . S
N57 C54 1.391 . S
N57 C58 1.388 . S
C58 H29 0.930 . S
C58 C53 1.391 . S
C58 N57 1.388 . S
Co59 O61 2.143 . S
Co59 O67 2.074 . S
Co59 O70 2.093 . S
Co59 O83 2.097 . S
Co59 N100 2.151 . S
Co59 N108 2.214 . S
Co60 O61 2.160 1_565 S
Co60 O66 2.058 . S
Co60 O76 2.057 . S
Co60 O91 2.037 . S
Co60 N95 2.145 . S
Co60 N116 2.257 . S
O61 Co59 2.143 . S
O61 Co60 2.160 1_545 S
C62 O63 1.278 . S
C62 O70 1.224 . S
O63 C62 1.278 . S
C64 O65 1.245 . S
C64 O76 1.232 . S
O65 C64 1.245 . S
O66 Co60 2.058 . S
O66 C92 1.269 . S
O67 Co59 2.074 . S
O67 C92 1.257 1_545 S
H68 C93 0.930 . S
H69 C99 0.930 . S
O70 Co59 2.093 . S
O70 C62 1.224 . S
H71 C103 0.929 . S
H72 C105 0.930 . S
H73 C106 0.930 . S
H74 C104 0.929 . S
H75 C107 0.928 . S
O76 Co60 2.057 . S
O76 C64 1.232 . S
H77 C96 0.929 . S
H78 C97 0.929 . S
H79 C109 0.931 . S
H80 C101 0.929 . S
H81 C110 0.930 . S
H82 C102 0.931 . S
O83 Co59 2.097 . S
O83 C111 1.214 . S
H84 C112 0.929 . S
H85 C113 0.929 . S
H86 C114 0.930 . S
H87 C115 0.929 . S
H88 C117 0.930 . S
H89 C94 0.930 . S
H90 C98 0.930 . S
O91 Co60 2.037 . S
O91 C111 1.234 1_565 S
C92 O66 1.269 . S
C92 O67 1.257 1_565 S
C93 H68 0.930 . S
C93 C96 1.388 . S
C93 C98 1.418 . S
C94 H89 0.930 . S
C94 C97 1.404 . S
C94 C98 1.353 . S
N95 Co60 2.145 . S
N95 C96 1.397 . S
N95 C97 1.334 . S
C96 H77 0.929 . S
C96 C93 1.388 . S
C96 N95 1.397 . S
C97 H78 0.929 . S
C97 C94 1.404 . S
C97 N95 1.334 . S
C98 H90 0.930 . S
C98 C93 1.418 . S
C98 C94 1.353 . S
C99 H69 0.930 . S
C99 N100 1.330 . S
C99 C101 1.446 . S
N100 Co59 2.151 . S
N100 C99 1.330 . S
N100 C104 1.418 . S
C101 H80 0.929 . S
C101 C99 1.446 . S
C101 C102 1.332 . S
C102 H82 0.931 . S
C102 C101 1.332 . S
C102 C103 1.267 . S
C103 H71 0.929 . S
C103 C102 1.267 . S
C103 C104 1.251 . S
C104 H74 0.929 . S
C104 N100 1.418 . S
C104 C103 1.251 . S
C105 H72 0.930 . S
C105 C107 1.406 . S
C105 C110 1.261 . S
C106 H73 0.930 . S
C106 N108 1.325 . S
C106 C109 1.357 . S
C107 H75 0.928 . S
C107 C105 1.406 . S
C107 N108 1.261 . S
N108 Co59 2.214 . S
N108 C106 1.325 . S
N108 C107 1.261 . S
C109 H79 0.931 . S
C109 C106 1.357 . S
C109 C110 1.312 . S
C110 H81 0.930 . S
C110 C105 1.261 . S
C110 C109 1.312 . S
C111 O83 1.214 . S
C111 O91 1.234 1_545 S
C112 H84 0.929 . S
C112 C115 1.391 . S
C112 C117 1.391 . S
C113 H85 0.929 . S
C113 C114 1.390 . S
C113 N116 1.391 . S
C114 H86 0.930 . S
C114 C113 1.390 . S
C114 C115 1.392 . S
C115 H87 0.929 . S
C115 C112 1.391 . S
C115 C114 1.392 . S
N116 Co60 2.257 . S
N116 C113 1.391 . S
N116 C117 1.388 . S
C117 H88 0.930 . S
C117 C112 1.391 . S
C117 N116 1.388 . S
Co118 O120 2.143 . S
Co118 O126 2.074 . S
Co118 O129 2.093 1_455 S
Co118 O142 2.097 1_455 S
Co118 N159 2.151 . S
Co118 N167 2.214 . S
Co119 O120 2.160 1_655 S
Co119 O125 2.058 1_655 S
Co119 O135 2.057 1_655 S
Co119 O150 2.037 . S
Co119 N154 2.145 . S
Co119 N175 2.257 . S
O120 Co118 2.143 . S
O120 Co119 2.160 1_455 S
C121 O122 1.278 . S
C121 O129 1.224 . S
O122 C121 1.278 . S
C123 O124 1.245 . S
C123 O135 1.232 . S
O124 C123 1.245 . S
O125 Co119 2.058 1_455 S
O125 C151 1.269 . S
O126 Co118 2.074 . S
O126 C151 1.257 . S
H127 C152 0.930 . S
H128 C158 0.930 . S
O129 Co118 2.093 1_655 S
O129 C121 1.224 . S
H130 C162 0.929 . S
H131 C164 0.930 . S
H132 C165 0.930 . S
H133 C163 0.929 . S
H134 C166 0.928 . S
O135 Co119 2.057 1_455 S
O135 C123 1.232 . S
H136 C155 0.929 . S
H137 C156 0.929 . S
H138 C168 0.931 . S
H139 C160 0.929 . S
H140 C169 0.930 . S
H141 C161 0.931 . S
O142 Co118 2.097 1_655 S
O142 C170 1.214 . S
H143 C171 0.929 . S
H144 C172 0.929 . S
H145 C173 0.930 . S
H146 C174 0.929 . S
H147 C176 0.930 . S
H148 C153 0.930 . S
H149 C157 0.930 . S
O150 Co119 2.037 . S
O150 C170 1.234 . S
C151 O125 1.269 . S
C151 O126 1.257 . S
C152 H127 0.930 . S
C152 C155 1.388 . S
C152 C157 1.418 . S
C153 H148 0.930 . S
C153 C156 1.404 . S
C153 C157 1.353 . S
N154 Co119 2.145 . S
N154 C155 1.397 . S
N154 C156 1.334 . S
C155 H136 0.929 . S
C155 C152 1.388 . S
C155 N154 1.397 . S
C156 H137 0.929 . S
C156 C153 1.404 . S
C156 N154 1.334 . S
C157 H149 0.930 . S
C157 C152 1.418 . S
C157 C153 1.353 . S
C158 H128 0.930 . S
C158 N159 1.330 . S
C158 C160 1.446 . S
N159 Co118 2.151 . S
N159 C158 1.330 . S
N159 C163 1.418 . S
C160 H139 0.929 . S
C160 C158 1.446 . S
C160 C161 1.332 . S
C161 H141 0.931 . S
C161 C160 1.332 . S
C161 C162 1.267 . S
C162 H130 0.929 . S
C162 C161 1.267 . S
C162 C163 1.251 . S
C163 H133 0.929 . S
C163 N159 1.418 . S
C163 C162 1.251 . S
C164 H131 0.930 . S
C164 C166 1.406 . S
C164 C169 1.261 . S
C165 H132 0.930 . S
C165 N167 1.325 . S
C165 C168 1.357 . S
C166 H134 0.928 . S
C166 C164 1.406 . S
C166 N167 1.261 . S
N167 Co118 2.214 . S
N167 C165 1.325 . S
N167 C166 1.261 . S
C168 H138 0.931 . S
C168 C165 1.357 . S
C168 C169 1.312 . S
C169 H140 0.930 . S
C169 C164 1.261 . S
C169 C168 1.312 . S
C170 O142 1.214 . S
C170 O150 1.234 . S
C171 H143 0.929 . S
C171 C174 1.391 . S
C171 C176 1.391 . S
C172 H144 0.929 . S
C172 C173 1.390 . S
C172 N175 1.391 . S
C173 H145 0.930 . S
C173 C172 1.390 . S
C173 C174 1.392 . S
C174 H146 0.929 . S
C174 C171 1.391 . S
C174 C173 1.392 . S
N175 Co119 2.257 . S
N175 C172 1.391 . S
N175 C176 1.388 . S
C176 H147 0.930 . S
C176 C171 1.391 . S
C176 N175 1.388 . S
Co177 O179 2.155 . S
Co177 O185 2.074 . S
Co177 O188 2.093 . S
Co177 O201 2.097 . S
Co177 N218 2.151 . S
Co177 N226 2.214 . S
Co178 O179 2.148 1_545 S
Co178 O184 2.058 . S
Co178 O194 2.057 . S
Co178 O209 2.037 . S
Co178 N213 2.145 . S
Co178 N234 2.257 . S
O179 Co177 2.155 . S
O179 Co178 2.148 1_565 S
C180 O181 1.278 . S
C180 O188 1.224 . S
O181 C180 1.278 . S
C182 O183 1.245 . S
C182 O194 1.232 . S
O183 C182 1.245 . S
O184 Co178 2.058 . S
O184 C210 1.269 . S
O185 Co177 2.074 . S
O185 C210 1.257 1_565 S
H186 C211 0.930 . S
H187 C217 0.930 . S
O188 Co177 2.093 . S
O188 C180 1.224 . S
H189 C221 0.929 . S
H190 C223 0.930 . S
H191 C224 0.930 . S
H192 C222 0.929 . S
H193 C225 0.928 . S
O194 Co178 2.057 . S
O194 C182 1.232 . S
H195 C214 0.929 . S
H196 C215 0.929 . S
H197 C227 0.931 . S
H198 C219 0.929 . S
H199 C228 0.930 . S
H200 C220 0.931 . S
O201 Co177 2.097 . S
O201 C229 1.214 . S
H202 C230 0.929 . S
H203 C231 0.929 . S
H204 C232 0.930 . S
H205 C233 0.929 . S
H206 C235 0.930 . S
H207 C212 0.930 . S
H208 C216 0.930 . S
O209 Co178 2.037 . S
O209 C229 1.234 1_545 S
C210 O184 1.269 . S
C210 O185 1.257 1_545 S
C211 H186 0.930 . S
C211 C214 1.388 . S
C211 C216 1.418 . S
C212 H207 0.930 . S
C212 C215 1.404 . S
C212 C216 1.353 . S
N213 Co178 2.145 . S
N213 C214 1.397 . S
N213 C215 1.334 . S
C214 H195 0.929 . S
C214 C211 1.388 . S
C214 N213 1.397 . S
C215 H196 0.929 . S
C215 C212 1.404 . S
C215 N213 1.334 . S
C216 H208 0.930 . S
C216 C211 1.418 . S
C216 C212 1.353 . S
C217 H187 0.930 . S
C217 N218 1.330 . S
C217 C219 1.446 . S
N218 Co177 2.151 . S
N218 C217 1.330 . S
N218 C222 1.418 . S
C219 H198 0.929 . S
C219 C217 1.446 . S
C219 C220 1.332 . S
C220 H200 0.931 . S
C220 C219 1.332 . S
C220 C221 1.267 . S
C221 H189 0.929 . S
C221 C220 1.267 . S
C221 C222 1.251 . S
C222 H192 0.929 . S
C222 N218 1.418 . S
C222 C221 1.251 . S
C223 H190 0.930 . S
C223 C225 1.406 . S
C223 C228 1.261 . S
C224 H191 0.930 . S
C224 N226 1.325 . S
C224 C227 1.357 . S
C225 H193 0.928 . S
C225 C223 1.406 . S
C225 N226 1.261 . S
N226 Co177 2.214 . S
N226 C224 1.325 . S
N226 C225 1.261 . S
C227 H197 0.931 . S
C227 C224 1.357 . S
C227 C228 1.312 . S
C228 H199 0.930 . S
C228 C223 1.261 . S
C228 C227 1.312 . S
C229 O201 1.214 . S
C229 O209 1.234 1_565 S
C230 H202 0.929 . S
C230 C233 1.391 . S
C230 C235 1.391 . S
C231 H203 0.929 . S
C231 C232 1.390 . S
C231 N234 1.391 . S
C232 H204 0.930 . S
C232 C231 1.390 . S
C232 C233 1.392 . S
C233 H205 0.929 . S
C233 C230 1.391 . S
C233 C232 1.392 . S
N234 Co178 2.257 . S
N234 C231 1.391 . S
N234 C235 1.388 . S
C235 H206 0.930 . S
C235 C230 1.391 . S
C235 N234 1.388 . S
Co236 O238 2.162 . S
Co236 O244 2.074 . S
Co236 O247 2.093 . S
Co236 O260 2.097 . S
Co236 N277 2.151 . S
Co236 N285 2.214 . S
Co237 O238 2.141 1_545 S
Co237 O243 2.058 . S
Co237 O253 2.057 . S
Co237 O268 2.037 . S
Co237 N272 2.145 . S
Co237 N293 2.257 . S
O238 Co236 2.162 . S
O238 Co237 2.141 1_565 S
C239 O240 1.278 . S
C239 O247 1.224 . S
O240 C239 1.278 . S
C241 O242 1.245 . S
C241 O253 1.232 . S
O242 C241 1.245 . S
O243 Co237 2.058 . S
O243 C269 1.269 . S
O244 Co236 2.074 . S
O244 C269 1.257 1_565 S
H245 C270 0.930 . S
H246 C276 0.930 . S
O247 Co236 2.093 . S
O247 C239 1.224 . S
H248 C280 0.929 . S
H249 C282 0.930 . S
H250 C283 0.930 . S
H251 C281 0.929 . S
H252 C284 0.928 . S
O253 Co237 2.057 . S
O253 C241 1.232 . S
H254 C273 0.929 . S
H255 C274 0.929 . S
H256 C286 0.931 . S
H257 C278 0.929 . S
H258 C287 0.930 . S
H259 C279 0.931 . S
O260 Co236 2.097 . S
O260 C288 1.214 . S
H261 C289 0.929 . S
H262 C290 0.929 . S
H263 C291 0.930 . S
H264 C292 0.929 . S
H265 C294 0.930 . S
H266 C271 0.930 . S
H267 C275 0.930 . S
O268 Co237 2.037 . S
O268 C288 1.234 1_545 S
C269 O243 1.269 . S
C269 O244 1.257 1_545 S
C270 H245 0.930 . S
C270 C273 1.388 . S
C270 C275 1.418 . S
C271 H266 0.930 . S
C271 C274 1.404 . S
C271 C275 1.353 . S
N272 Co237 2.145 . S
N272 C273 1.397 . S
N272 C274 1.334 . S
C273 H254 0.929 . S
C273 C270 1.388 . S
C273 N272 1.397 . S
C274 H255 0.929 . S
C274 C271 1.404 . S
C274 N272 1.334 . S
C275 H267 0.930 . S
C275 C270 1.418 . S
C275 C271 1.353 . S
C276 H246 0.930 . S
C276 N277 1.330 . S
C276 C278 1.446 . S
N277 Co236 2.151 . S
N277 C276 1.330 . S
N277 C281 1.418 . S
C278 H257 0.929 . S
C278 C276 1.446 . S
C278 C279 1.332 . S
C279 H259 0.931 . S
C279 C278 1.332 . S
C279 C280 1.267 . S
C280 H248 0.929 . S
C280 C279 1.267 . S
C280 C281 1.251 . S
C281 H251 0.929 . S
C281 N277 1.418 . S
C281 C280 1.251 . S
C282 H249 0.930 . S
C282 C284 1.406 . S
C282 C287 1.261 . S
C283 H250 0.930 . S
C283 N285 1.325 . S
C283 C286 1.357 . S
C284 H252 0.928 . S
C284 C282 1.406 . S
C284 N285 1.261 . S
N285 Co236 2.214 . S
N285 C283 1.325 . S
N285 C284 1.261 . S
C286 H256 0.931 . S
C286 C283 1.357 . S
C286 C287 1.312 . S
C287 H258 0.930 . S
C287 C282 1.261 . S
C287 C286 1.312 . S
C288 O260 1.214 . S
C288 O268 1.234 1_565 S
C289 H261 0.929 . S
C289 C292 1.391 . S
C289 C294 1.391 . S
C290 H262 0.929 . S
C290 C291 1.390 . S
C290 N293 1.391 . S
C291 H263 0.930 . S
C291 C290 1.390 . S
C291 C292 1.392 . S
C292 H264 0.929 . S
C292 C289 1.391 . S
C292 C291 1.392 . S
N293 Co237 2.257 . S
N293 C290 1.391 . S
N293 C294 1.388 . S
C294 H265 0.930 . S
C294 C289 1.391 . S
C294 N293 1.388 . S
Co295 O297 2.143 . S
Co295 O303 2.074 . S
Co295 O306 2.093 1_655 S
Co295 O319 2.097 1_655 S
Co295 N336 2.151 . S
Co295 N344 2.214 . S
Co296 O297 2.160 1_455 S
Co296 O302 2.058 1_455 S
Co296 O312 2.057 1_455 S
Co296 O327 2.037 . S
Co296 N331 2.145 . S
Co296 N352 2.257 . S
O297 Co295 2.143 . S
O297 Co296 2.160 1_655 S
C298 O299 1.278 . S
C298 O306 1.224 . S
O299 C298 1.278 . S
C300 O301 1.245 . S
C300 O312 1.232 . S
O301 C300 1.245 . S
O302 Co296 2.058 1_655 S
O302 C328 1.269 . S
O303 Co295 2.074 . S
O303 C328 1.257 . S
H304 C329 0.930 . S
H305 C335 0.930 . S
O306 Co295 2.093 1_455 S
O306 C298 1.224 . S
H307 C339 0.929 . S
H308 C341 0.930 . S
H309 C342 0.930 . S
H310 C340 0.929 . S
H311 C343 0.928 . S
O312 Co296 2.057 1_655 S
O312 C300 1.232 . S
H313 C332 0.929 . S
H314 C333 0.929 . S
H315 C345 0.931 . S
H316 C337 0.929 . S
H317 C346 0.930 . S
H318 C338 0.931 . S
O319 Co295 2.097 1_455 S
O319 C347 1.214 . S
H320 C348 0.929 . S
H321 C349 0.929 . S
H322 C350 0.930 . S
H323 C351 0.929 . S
H324 C353 0.930 . S
H325 C330 0.930 . S
H326 C334 0.930 . S
O327 Co296 2.037 . S
O327 C347 1.234 . S
C328 O302 1.269 . S
C328 O303 1.257 . S
C329 H304 0.930 . S
C329 C332 1.388 . S
C329 C334 1.418 . S
C330 H325 0.930 . S
C330 C333 1.404 . S
C330 C334 1.353 . S
N331 Co296 2.145 . S
N331 C332 1.397 . S
N331 C333 1.334 . S
C332 H313 0.929 . S
C332 C329 1.388 . S
C332 N331 1.397 . S
C333 H314 0.929 . S
C333 C330 1.404 . S
C333 N331 1.334 . S
C334 H326 0.930 . S
C334 C329 1.418 . S
C334 C330 1.353 . S
C335 H305 0.930 . S
C335 N336 1.330 . S
C335 C337 1.446 . S
N336 Co295 2.151 . S
N336 C335 1.330 . S
N336 C340 1.418 . S
C337 H316 0.929 . S
C337 C335 1.446 . S
C337 C338 1.332 . S
C338 H318 0.931 . S
C338 C337 1.332 . S
C338 C339 1.267 . S
C339 H307 0.929 . S
C339 C338 1.267 . S
C339 C340 1.251 . S
C340 H310 0.929 . S
C340 N336 1.418 . S
C340 C339 1.251 . S
C341 H308 0.930 . S
C341 C343 1.406 . S
C341 C346 1.261 . S
C342 H309 0.930 . S
C342 N344 1.325 . S
C342 C345 1.357 . S
C343 H311 0.928 . S
C343 C341 1.406 . S
C343 N344 1.261 . S
N344 Co295 2.214 . S
N344 C342 1.325 . S
N344 C343 1.261 . S
C345 H315 0.931 . S
C345 C342 1.357 . S
C345 C346 1.312 . S
C346 H317 0.930 . S
C346 C341 1.261 . S
C346 C345 1.312 . S
C347 O319 1.214 . S
C347 O327 1.234 . S
C348 H320 0.929 . S
C348 C351 1.391 . S
C348 C353 1.391 . S
C349 H321 0.929 . S
C349 C350 1.390 . S
C349 N352 1.391 . S
C350 H322 0.930 . S
C350 C349 1.390 . S
C350 C351 1.392 . S
C351 H323 0.929 . S
C351 C348 1.391 . S
C351 C350 1.392 . S
N352 Co296 2.257 . S
N352 C349 1.391 . S
N352 C353 1.388 . S
C353 H324 0.930 . S
C353 C348 1.391 . S
C353 N352 1.388 . S
Co354 O356 2.143 . S
Co354 O362 2.074 . S
Co354 O365 2.093 . S
Co354 O378 2.097 . S
Co354 N395 2.151 . S
Co354 N403 2.214 . S
Co355 O356 2.160 1_565 S
Co355 O361 2.058 . S
Co355 O371 2.057 . S
Co355 O386 2.037 . S
Co355 N390 2.145 . S
Co355 N411 2.257 . S
O356 Co354 2.143 . S
O356 Co355 2.160 1_545 S
C357 O358 1.278 . S
C357 O365 1.224 . S
O358 C357 1.278 . S
C359 O360 1.245 . S
C359 O371 1.232 . S
O360 C359 1.245 . S
O361 Co355 2.058 . S
O361 C387 1.269 . S
O362 Co354 2.074 . S
O362 C387 1.257 1_545 S
H363 C388 0.930 . S
H364 C394 0.930 . S
O365 Co354 2.093 . S
O365 C357 1.224 . S
H366 C398 0.929 . S
H367 C400 0.930 . S
H368 C401 0.930 . S
H369 C399 0.929 . S
H370 C402 0.928 . S
O371 Co355 2.057 . S
O371 C359 1.232 . S
H372 C391 0.929 . S
H373 C392 0.929 . S
H374 C404 0.931 . S
H375 C396 0.929 . S
H376 C405 0.930 . S
H377 C397 0.931 . S
O378 Co354 2.097 . S
O378 C406 1.214 . S
H379 C407 0.929 . S
H380 C408 0.929 . S
H381 C409 0.930 . S
H382 C410 0.929 . S
H383 C412 0.930 . S
H384 C389 0.930 . S
H385 C393 0.930 . S
O386 Co355 2.037 . S
O386 C406 1.234 1_565 S
C387 O361 1.269 . S
C387 O362 1.257 1_565 S
C388 H363 0.930 . S
C388 C391 1.388 . S
C388 C393 1.418 . S
C389 H384 0.930 . S
C389 C392 1.404 . S
C389 C393 1.353 . S
N390 Co355 2.145 . S
N390 C391 1.397 . S
N390 C392 1.334 . S
C391 H372 0.929 . S
C391 C388 1.388 . S
C391 N390 1.397 . S
C392 H373 0.929 . S
C392 C389 1.404 . S
C392 N390 1.334 . S
C393 H385 0.930 . S
C393 C388 1.418 . S
C393 C389 1.353 . S
C394 H364 0.930 . S
C394 N395 1.330 . S
C394 C396 1.446 . S
N395 Co354 2.151 . S
N395 C394 1.330 . S
N395 C399 1.418 . S
C396 H375 0.929 . S
C396 C394 1.446 . S
C396 C397 1.332 . S
C397 H377 0.931 . S
C397 C396 1.332 . S
C397 C398 1.267 . S
C398 H366 0.929 . S
C398 C397 1.267 . S
C398 C399 1.251 . S
C399 H369 0.929 . S
C399 N395 1.418 . S
C399 C398 1.251 . S
C400 H367 0.930 . S
C400 C402 1.406 . S
C400 C405 1.261 . S
C401 H368 0.930 . S
C401 N403 1.325 . S
C401 C404 1.357 . S
C402 H370 0.928 . S
C402 C400 1.406 . S
C402 N403 1.261 . S
N403 Co354 2.214 . S
N403 C401 1.325 . S
N403 C402 1.261 . S
C404 H374 0.931 . S
C404 C401 1.357 . S
C404 C405 1.312 . S
C405 H376 0.930 . S
C405 C400 1.261 . S
C405 C404 1.312 . S
C406 O378 1.214 . S
C406 O386 1.234 1_545 S
C407 H379 0.929 . S
C407 C410 1.391 . S
C407 C412 1.391 . S
C408 H380 0.929 . S
C408 C409 1.390 . S
C408 N411 1.391 . S
C409 H381 0.930 . S
C409 C408 1.390 . S
C409 C410 1.392 . S
C410 H382 0.929 . S
C410 C407 1.391 . S
C410 C409 1.392 . S
N411 Co355 2.257 . S
N411 C408 1.391 . S
N411 C412 1.388 . S
C412 H383 0.930 . S
C412 C407 1.391 . S
C412 N411 1.388 . S
Co413 O415 2.143 . S
Co413 O421 2.074 . S
Co413 O424 2.093 1_655 S
Co413 O437 2.097 1_655 S
Co413 N454 2.151 . S
Co413 N462 2.214 . S
Co414 O415 2.160 1_455 S
Co414 O420 2.058 1_455 S
Co414 O430 2.057 1_455 S
Co414 O445 2.037 . S
Co414 N449 2.145 . S
Co414 N470 2.257 . S
O415 Co413 2.143 . S
O415 Co414 2.160 1_655 S
C416 O417 1.278 . S
C416 O424 1.224 . S
O417 C416 1.278 . S
C418 O419 1.245 . S
C418 O430 1.232 . S
O419 C418 1.245 . S
O420 Co414 2.058 1_655 S
O420 C446 1.269 . S
O421 Co413 2.074 . S
O421 C446 1.257 . S
H422 C447 0.930 . S
H423 C453 0.930 . S
O424 Co413 2.093 1_455 S
O424 C416 1.224 . S
H425 C457 0.929 . S
H426 C459 0.930 . S
H427 C460 0.930 . S
H428 C458 0.929 . S
H429 C461 0.928 . S
O430 Co414 2.057 1_655 S
O430 C418 1.232 . S
H431 C450 0.929 . S
H432 C451 0.929 . S
H433 C463 0.931 . S
H434 C455 0.929 . S
H435 C464 0.930 . S
H436 C456 0.931 . S
O437 Co413 2.097 1_455 S
O437 C465 1.214 . S
H438 C466 0.929 . S
H439 C467 0.929 . S
H440 C468 0.930 . S
H441 C469 0.929 . S
H442 C471 0.930 . S
H443 C448 0.930 . S
H444 C452 0.930 . S
O445 Co414 2.037 . S
O445 C465 1.234 . S
C446 O420 1.269 . S
C446 O421 1.257 . S
C447 H422 0.930 . S
C447 C450 1.388 . S
C447 C452 1.418 . S
C448 H443 0.930 . S
C448 C451 1.404 . S
C448 C452 1.353 . S
N449 Co414 2.145 . S
N449 C450 1.397 . S
N449 C451 1.334 . S
C450 H431 0.929 . S
C450 C447 1.388 . S
C450 N449 1.397 . S
C451 H432 0.929 . S
C451 C448 1.404 . S
C451 N449 1.334 . S
C452 H444 0.930 . S
C452 C447 1.418 . S
C452 C448 1.353 . S
C453 H423 0.930 . S
C453 N454 1.330 . S
C453 C455 1.446 . S
N454 Co413 2.151 . S
N454 C453 1.330 . S
N454 C458 1.418 . S
C455 H434 0.929 . S
C455 C453 1.446 . S
C455 C456 1.332 . S
C456 H436 0.931 . S
C456 C455 1.332 . S
C456 C457 1.267 . S
C457 H425 0.929 . S
C457 C456 1.267 . S
C457 C458 1.251 . S
C458 H428 0.929 . S
C458 N454 1.418 . S
C458 C457 1.251 . S
C459 H426 0.930 . S
C459 C461 1.406 . S
C459 C464 1.261 . S
C460 H427 0.930 . S
C460 N462 1.325 . S
C460 C463 1.357 . S
C461 H429 0.928 . S
C461 C459 1.406 . S
C461 N462 1.261 . S
N462 Co413 2.214 . S
N462 C460 1.325 . S
N462 C461 1.261 . S
C463 H433 0.931 . S
C463 C460 1.357 . S
C463 C464 1.312 . S
C464 H435 0.930 . S
C464 C459 1.261 . S
C464 C463 1.312 . S
C465 O437 1.214 . S
C465 O445 1.234 . S
C466 H438 0.929 . S
C466 C469 1.391 . S
C466 C471 1.391 . S
C467 H439 0.929 . S
C467 C468 1.390 . S
C467 N470 1.391 . S
C468 H440 0.930 . S
C468 C467 1.390 . S
C468 C469 1.392 . S
C469 H441 0.929 . S
C469 C466 1.391 . S
C469 C468 1.392 . S
N470 Co414 2.257 . S
N470 C467 1.391 . S
N470 C471 1.388 . S
C471 H442 0.930 . S
C471 C466 1.391 . S
C471 N470 1.388 . S
Co472 O474 2.143 . S
Co472 O480 2.074 . S
Co472 O483 2.093 1_554 S
Co472 O496 2.097 1_554 S
Co472 N513 2.151 . S
Co472 N521 2.214 . S
Co473 O474 2.160 1_556 S
Co473 O479 2.058 1_556 S
Co473 O489 2.057 1_556 S
Co473 O504 2.037 . S
Co473 N508 2.145 . S
Co473 N529 2.257 . S
O474 Co472 2.143 . S
O474 Co473 2.160 1_554 S
C475 O476 1.278 . S
C475 O483 1.224 . S
O476 C475 1.278 . S
C477 O478 1.245 . S
C477 O489 1.232 . S
O478 C477 1.245 . S
O479 Co473 2.058 1_554 S
O479 C505 1.269 . S
O480 Co472 2.074 . S
O480 C505 1.257 . S
H481 C506 0.930 . S
H482 C512 0.930 . S
O483 Co472 2.093 1_556 S
O483 C475 1.224 . S
H484 C516 0.929 . S
H485 C518 0.930 . S
H486 C519 0.930 . S
H487 C517 0.929 . S
H488 C520 0.928 . S
O489 Co473 2.057 1_554 S
O489 C477 1.232 . S
H490 C509 0.929 . S
H491 C510 0.929 . S
H492 C522 0.931 . S
H493 C514 0.929 . S
H494 C523 0.930 . S
H495 C515 0.931 . S
O496 Co472 2.097 1_556 S
O496 C524 1.214 . S
H497 C525 0.929 . S
H498 C526 0.929 . S
H499 C527 0.930 . S
H500 C528 0.929 . S
H501 C530 0.930 . S
H502 C507 0.930 . S
H503 C511 0.930 . S
O504 Co473 2.037 . S
O504 C524 1.234 . S
C505 O479 1.269 . S
C505 O480 1.257 . S
C506 H481 0.930 . S
C506 C509 1.388 . S
C506 C511 1.418 . S
C507 H502 0.930 . S
C507 C510 1.404 . S
C507 C511 1.353 . S
N508 Co473 2.145 . S
N508 C509 1.397 . S
N508 C510 1.334 . S
C509 H490 0.929 . S
C509 C506 1.388 . S
C509 N508 1.397 . S
C510 H491 0.929 . S
C510 C507 1.404 . S
C510 N508 1.334 . S
C511 H503 0.930 . S
C511 C506 1.418 . S
C511 C507 1.353 . S
C512 H482 0.930 . S
C512 N513 1.330 . S
C512 C514 1.446 . S
N513 Co472 2.151 . S
N513 C512 1.330 . S
N513 C517 1.418 . S
C514 H493 0.929 . S
C514 C512 1.446 . S
C514 C515 1.332 . S
C515 H495 0.931 . S
C515 C514 1.332 . S
C515 C516 1.267 . S
C516 H484 0.929 . S
C516 C515 1.267 . S
C516 C517 1.251 . S
C517 H487 0.929 . S
C517 N513 1.418 . S
C517 C516 1.251 . S
C518 H485 0.930 . S
C518 C520 1.406 . S
C518 C523 1.261 . S
C519 H486 0.930 . S
C519 N521 1.325 . S
C519 C522 1.357 . S
C520 H488 0.928 . S
C520 C518 1.406 . S
C520 N521 1.261 . S
N521 Co472 2.214 . S
N521 C519 1.325 . S
N521 C520 1.261 . S
C522 H492 0.931 . S
C522 C519 1.357 . S
C522 C523 1.312 . S
C523 H494 0.930 . S
C523 C518 1.261 . S
C523 C522 1.312 . S
C524 O496 1.214 . S
C524 O504 1.234 . S
C525 H497 0.929 . S
C525 C528 1.391 . S
C525 C530 1.391 . S
C526 H498 0.929 . S
C526 C527 1.390 . S
C526 N529 1.391 . S
C527 H499 0.930 . S
C527 C526 1.390 . S
C527 C528 1.392 . S
C528 H500 0.929 . S
C528 C525 1.391 . S
C528 C527 1.392 . S
N529 Co473 2.257 . S
N529 C526 1.391 . S
N529 C530 1.388 . S
C530 H501 0.930 . S
C530 C525 1.391 . S
C530 N529 1.388 . S
Co531 O533 2.170 . S
Co531 O539 2.074 . S
Co531 O542 2.093 . S
Co531 O555 2.097 . S
Co531 N572 2.151 . S
Co531 N580 2.214 . S
Co532 O533 2.133 1_554 S
Co532 O538 2.058 . S
Co532 O548 2.057 . S
Co532 O563 2.037 . S
Co532 N567 2.145 . S
Co532 N588 2.257 . S
O533 Co531 2.170 . S
O533 Co532 2.133 1_556 S
C534 O535 1.278 . S
C534 O542 1.224 . S
O535 C534 1.278 . S
C536 O537 1.245 . S
C536 O548 1.232 . S
O537 C536 1.245 . S
O538 Co532 2.058 . S
O538 C564 1.269 . S
O539 Co531 2.074 . S
O539 C564 1.257 1_556 S
H540 C565 0.930 . S
H541 C571 0.930 . S
O542 Co531 2.093 . S
O542 C534 1.224 . S
H543 C575 0.929 . S
H544 C577 0.930 . S
H545 C578 0.930 . S
H546 C576 0.929 . S
H547 C579 0.928 . S
O548 Co532 2.057 . S
O548 C536 1.232 . S
H549 C568 0.929 . S
H550 C569 0.929 . S
H551 C581 0.931 . S
H552 C573 0.929 . S
H553 C582 0.930 . S
H554 C574 0.931 . S
O555 Co531 2.097 . S
O555 C583 1.214 . S
H556 C584 0.929 . S
H557 C585 0.929 . S
H558 C586 0.930 . S
H559 C587 0.929 . S
H560 C589 0.930 . S
H561 C566 0.930 . S
H562 C570 0.930 . S
O563 Co532 2.037 . S
O563 C583 1.234 1_554 S
C564 O538 1.269 . S
C564 O539 1.257 1_554 S
C565 H540 0.930 . S
C565 C568 1.388 . S
C565 C570 1.418 . S
C566 H561 0.930 . S
C566 C569 1.404 . S
C566 C570 1.353 . S
N567 Co532 2.145 . S
N567 C568 1.397 . S
N567 C569 1.334 . S
C568 H549 0.929 . S
C568 C565 1.388 . S
C568 N567 1.397 . S
C569 H550 0.929 . S
C569 C566 1.404 . S
C569 N567 1.334 . S
C570 H562 0.930 . S
C570 C565 1.418 . S
C570 C566 1.353 . S
C571 H541 0.930 . S
C571 N572 1.330 . S
C571 C573 1.446 . S
N572 Co531 2.151 . S
N572 C571 1.330 . S
N572 C576 1.418 . S
C573 H552 0.929 . S
C573 C571 1.446 . S
C573 C574 1.332 . S
C574 H554 0.931 . S
C574 C573 1.332 . S
C574 C575 1.267 . S
C575 H543 0.929 . S
C575 C574 1.267 . S
C575 C576 1.251 . S
C576 H546 0.929 . S
C576 N572 1.418 . S
C576 C575 1.251 . S
C577 H544 0.930 . S
C577 C579 1.406 . S
C577 C582 1.261 . S
C578 H545 0.930 . S
C578 N580 1.325 . S
C578 C581 1.357 . S
C579 H547 0.928 . S
C579 C577 1.406 . S
C579 N580 1.261 . S
N580 Co531 2.214 . S
N580 C578 1.325 . S
N580 C579 1.261 . S
C581 H551 0.931 . S
C581 C578 1.357 . S
C581 C582 1.312 . S
C582 H553 0.930 . S
C582 C577 1.261 . S
C582 C581 1.312 . S
C583 O555 1.214 . S
C583 O563 1.234 1_556 S
C584 H556 0.929 . S
C584 C587 1.391 . S
C584 C589 1.391 . S
C585 H557 0.929 . S
C585 C586 1.390 . S
C585 N588 1.391 . S
C586 H558 0.930 . S
C586 C585 1.390 . S
C586 C587 1.392 . S
C587 H559 0.929 . S
C587 C584 1.391 . S
C587 C586 1.392 . S
N588 Co532 2.257 . S
N588 C585 1.391 . S
N588 C589 1.388 . S
C589 H560 0.930 . S
C589 C584 1.391 . S
C589 N588 1.388 . S
Co590 O592 2.143 . S
Co590 O598 2.074 . S
Co590 O601 2.093 1_554 S
Co590 O614 2.097 1_554 S
Co590 N631 2.151 . S
Co590 N639 2.214 . S
Co591 O592 2.160 1_556 S
Co591 O597 2.058 1_556 S
Co591 O607 2.057 1_556 S
Co591 O622 2.037 . S
Co591 N626 2.145 . S
Co591 N647 2.257 . S
O592 Co590 2.143 . S
O592 Co591 2.160 1_554 S
C593 O594 1.278 . S
C593 O601 1.224 . S
O594 C593 1.278 . S
C595 O596 1.245 . S
C595 O607 1.232 . S
O596 C595 1.245 . S
O597 Co591 2.058 1_554 S
O597 C623 1.269 . S
O598 Co590 2.074 . S
O598 C623 1.257 . S
H599 C624 0.930 . S
H600 C630 0.930 . S
O601 Co590 2.093 1_556 S
O601 C593 1.224 . S
H602 C634 0.929 . S
H603 C636 0.930 . S
H604 C637 0.930 . S
H605 C635 0.929 . S
H606 C638 0.928 . S
O607 Co591 2.057 1_554 S
O607 C595 1.232 . S
H608 C627 0.929 . S
H609 C628 0.929 . S
H610 C640 0.931 . S
H611 C632 0.929 . S
H612 C641 0.930 . S
H613 C633 0.931 . S
O614 Co590 2.097 1_556 S
O614 C642 1.214 . S
H615 C643 0.929 . S
H616 C644 0.929 . S
H617 C645 0.930 . S
H618 C646 0.929 . S
H619 C648 0.930 . S
H620 C625 0.930 . S
H621 C629 0.930 . S
O622 Co591 2.037 . S
O622 C642 1.234 . S
C623 O597 1.269 . S
C623 O598 1.257 . S
C624 H599 0.930 . S
C624 C627 1.388 . S
C624 C629 1.418 . S
C625 H620 0.930 . S
C625 C628 1.404 . S
C625 C629 1.353 . S
N626 Co591 2.145 . S
N626 C627 1.397 . S
N626 C628 1.334 . S
C627 H608 0.929 . S
C627 C624 1.388 . S
C627 N626 1.397 . S
C628 H609 0.929 . S
C628 C625 1.404 . S
C628 N626 1.334 . S
C629 H621 0.930 . S
C629 C624 1.418 . S
C629 C625 1.353 . S
C630 H600 0.930 . S
C630 N631 1.330 . S
C630 C632 1.446 . S
N631 Co590 2.151 . S
N631 C630 1.330 . S
N631 C635 1.418 . S
C632 H611 0.929 . S
C632 C630 1.446 . S
C632 C633 1.332 . S
C633 H613 0.931 . S
C633 C632 1.332 . S
C633 C634 1.267 . S
C634 H602 0.929 . S
C634 C633 1.267 . S
C634 C635 1.251 . S
C635 H605 0.929 . S
C635 N631 1.418 . S
C635 C634 1.251 . S
C636 H603 0.930 . S
C636 C638 1.406 . S
C636 C641 1.261 . S
C637 H604 0.930 . S
C637 N639 1.325 . S
C637 C640 1.357 . S
C638 H606 0.928 . S
C638 C636 1.406 . S
C638 N639 1.261 . S
N639 Co590 2.214 . S
N639 C637 1.325 . S
N639 C638 1.261 . S
C640 H610 0.931 . S
C640 C637 1.357 . S
C640 C641 1.312 . S
C641 H612 0.930 . S
C641 C636 1.261 . S
C641 C640 1.312 . S
C642 O614 1.214 . S
C642 O622 1.234 . S
C643 H615 0.929 . S
C643 C646 1.391 . S
C643 C648 1.391 . S
C644 H616 0.929 . S
C644 C645 1.390 . S
C644 N647 1.391 . S
C645 H617 0.930 . S
C645 C644 1.390 . S
C645 C646 1.392 . S
C646 H618 0.929 . S
C646 C643 1.391 . S
C646 C645 1.392 . S
N647 Co591 2.257 . S
N647 C644 1.391 . S
N647 C648 1.388 . S
C648 H619 0.930 . S
C648 C643 1.391 . S
C648 N647 1.388 . S
Co649 O651 2.143 . S
Co649 O657 2.074 . S
Co649 O660 2.093 . S
Co649 O673 2.097 . S
Co649 N690 2.151 . S
Co649 N698 2.214 . S
Co650 O651 2.160 1_556 S
Co650 O656 2.058 . S
Co650 O666 2.057 . S
Co650 O681 2.037 . S
Co650 N685 2.145 . S
Co650 N706 2.257 . S
O651 Co649 2.143 . S
O651 Co650 2.160 1_554 S
C652 O653 1.278 . S
C652 O660 1.224 . S
O653 C652 1.278 . S
C654 O655 1.245 . S
C654 O666 1.232 . S
O655 C654 1.245 . S
O656 Co650 2.058 . S
O656 C682 1.269 . S
O657 Co649 2.074 . S
O657 C682 1.257 1_554 S
H658 C683 0.930 . S
H659 C689 0.930 . S
O660 Co649 2.093 . S
O660 C652 1.224 . S
H661 C693 0.929 . S
H662 C695 0.930 . S
H663 C696 0.930 . S
H664 C694 0.929 . S
H665 C697 0.928 . S
O666 Co650 2.057 . S
O666 C654 1.232 . S
H667 C686 0.929 . S
H668 C687 0.929 . S
H669 C699 0.931 . S
H670 C691 0.929 . S
H671 C700 0.930 . S
H672 C692 0.931 . S
O673 Co649 2.097 . S
O673 C701 1.214 . S
H674 C702 0.929 . S
H675 C703 0.929 . S
H676 C704 0.930 . S
H677 C705 0.929 . S
H678 C707 0.930 . S
H679 C684 0.930 . S
H680 C688 0.930 . S
O681 Co650 2.037 . S
O681 C701 1.234 1_556 S
C682 O656 1.269 . S
C682 O657 1.257 1_556 S
C683 H658 0.930 . S
C683 C686 1.388 . S
C683 C688 1.418 . S
C684 H679 0.930 . S
C684 C687 1.404 . S
C684 C688 1.353 . S
N685 Co650 2.145 . S
N685 C686 1.397 . S
N685 C687 1.334 . S
C686 H667 0.929 . S
C686 C683 1.388 . S
C686 N685 1.397 . S
C687 H668 0.929 . S
C687 C684 1.404 . S
C687 N685 1.334 . S
C688 H680 0.930 . S
C688 C683 1.418 . S
C688 C684 1.353 . S
C689 H659 0.930 . S
C689 N690 1.330 . S
C689 C691 1.446 . S
N690 Co649 2.151 . S
N690 C689 1.330 . S
N690 C694 1.418 . S
C691 H670 0.929 . S
C691 C689 1.446 . S
C691 C692 1.332 . S
C692 H672 0.931 . S
C692 C691 1.332 . S
C692 C693 1.267 . S
C693 H661 0.929 . S
C693 C692 1.267 . S
C693 C694 1.251 . S
C694 H664 0.929 . S
C694 N690 1.418 . S
C694 C693 1.251 . S
C695 H662 0.930 . S
C695 C697 1.406 . S
C695 C700 1.261 . S
C696 H663 0.930 . S
C696 N698 1.325 . S
C696 C699 1.357 . S
C697 H665 0.928 . S
C697 C695 1.406 . S
C697 N698 1.261 . S
N698 Co649 2.214 . S
N698 C696 1.325 . S
N698 C697 1.261 . S
C699 H669 0.931 . S
C699 C696 1.357 . S
C699 C700 1.312 . S
C700 H671 0.930 . S
C700 C695 1.261 . S
C700 C699 1.312 . S
C701 O673 1.214 . S
C701 O681 1.234 1_554 S
C702 H674 0.929 . S
C702 C705 1.391 . S
C702 C707 1.391 . S
C703 H675 0.929 . S
C703 C704 1.390 . S
C703 N706 1.391 . S
C704 H676 0.930 . S
C704 C703 1.390 . S
C704 C705 1.392 . S
C705 H677 0.929 . S
C705 C702 1.391 . S
C705 C704 1.392 . S
N706 Co650 2.257 . S
N706 C703 1.391 . S
N706 C707 1.388 . S
C707 H678 0.930 . S
C707 C702 1.391 . S
C707 N706 1.388 . S
H708 C714 0.930 . S
H709 C717 0.930 . S
H710 C718 0.930 1_655 S
H711 C719 0.930 . S
H712 C722 0.930 . S
H713 C723 0.930 1_455 S
C714 H708 0.930 . S
C714 C715 1.355 . S
C714 C716 1.415 . S
C715 C714 1.355 . S
C715 C717 1.419 . S
C716 C714 1.415 . S
C716 C721 1.425 1_455 S
C716 C723 1.409 1_455 S
C717 H709 0.930 . S
C717 C715 1.419 . S
C717 C718 1.362 . S
C718 H710 0.930 1_455 S
C718 C717 1.362 . S
C718 C721 1.409 1_455 S
C719 H711 0.930 . S
C719 C720 1.355 . S
C719 C721 1.415 . S
C720 C719 1.355 . S
C720 C722 1.419 . S
C721 C716 1.425 1_655 S
C721 C718 1.409 1_655 S
C721 C719 1.415 . S
C722 H712 0.930 . S
C722 C720 1.419 . S
C722 C723 1.362 . S
C723 H713 0.930 1_655 S
C723 C716 1.409 1_655 S
C723 C722 1.362 . S
H724 C730 0.925 1_565 S
H725 C733 0.930 . S
H726 C734 0.930 . S
H727 C735 0.930 1_545 S
H728 C738 0.930 . S
H729 C739 0.930 . S
C730 H724 0.925 1_545 S
C730 C731 1.355 . S
C730 C732 1.415 1_545 S
C731 C730 1.355 . S
C731 C733 1.419 . S
C732 C730 1.415 1_565 S
C732 C737 1.425 1_565 S
C732 C739 1.409 . S
C733 H725 0.930 . S
C733 C731 1.419 . S
C733 C734 1.362 . S
C734 H726 0.930 . S
C734 C733 1.362 . S
C734 C737 1.409 . S
C735 H727 0.930 1_565 S
C735 C736 1.355 . S
C735 C737 1.415 1_565 S
C736 C735 1.355 . S
C736 C738 1.419 . S
C737 C732 1.425 1_545 S
C737 C734 1.409 . S
C737 C735 1.415 1_545 S
C738 H728 0.930 . S
C738 C736 1.419 . S
C738 C739 1.362 . S
C739 H729 0.930 . S
C739 C732 1.409 . S
C739 C738 1.362 . S
H740 C746 0.930 . S
H741 C749 0.930 . S
H742 C750 0.930 . S
H743 C751 0.930 . S
H744 C754 0.930 . S
H745 C755 0.930 . S
C746 H740 0.930 . S
C746 C747 1.355 1_655 S
C746 C748 1.415 . S
C747 C746 1.355 1_455 S
C747 C749 1.419 . S
C748 C746 1.415 . S
C748 C753 1.425 1_655 S
C748 C755 1.409 . S
C749 H741 0.930 . S
C749 C747 1.419 . S
C749 C750 1.362 . S
C750 H742 0.930 . S
C750 C749 1.362 . S
C750 C753 1.409 . S
C751 H743 0.930 . S
C751 C752 1.355 1_455 S
C751 C753 1.415 . S
C752 C751 1.355 1_655 S
C752 C754 1.419 . S
C753 C748 1.425 1_455 S
C753 C750 1.409 . S
C753 C751 1.415 . S
C754 H744 0.930 . S
C754 C752 1.419 . S
C754 C755 1.362 . S
C755 H745 0.930 . S
C755 C748 1.409 . S
C755 C754 1.362 . S
H756 C762 0.930 . S
H757 C765 0.930 . S
H758 C766 0.930 . S
H759 C767 0.930 . S
H760 C770 0.930 . S
H761 C771 0.930 . S
C762 H756 0.930 . S
C762 C763 1.355 . S
C762 C764 1.415 . S
C763 C762 1.355 . S
C763 C765 1.419 1_565 S
C764 C762 1.415 . S
C764 C769 1.425 1_565 S
C764 C771 1.409 . S
C765 H757 0.930 . S
C765 C763 1.419 1_545 S
C765 C766 1.362 . S
C766 H758 0.930 . S
C766 C765 1.362 . S
C766 C769 1.409 . S
C767 H759 0.930 . S
C767 C768 1.355 . S
C767 C769 1.415 . S
C768 C767 1.355 . S
C768 C770 1.419 1_545 S
C769 C764 1.425 1_545 S
C769 C766 1.409 . S
C769 C767 1.415 . S
C770 H760 0.930 . S
C770 C768 1.419 1_565 S
C770 C771 1.362 . S
C771 H761 0.930 . S
C771 C764 1.409 . S
C771 C770 1.362 . S
H772 C778 0.930 . S
H773 C781 0.930 . S
H774 C782 0.930 . S
H775 C783 0.930 . S
H776 C786 0.930 . S
H777 C787 0.930 . S
C778 H772 0.930 . S
C778 C779 1.355 1_455 S
C778 C780 1.415 . S
C779 C778 1.355 1_655 S
C779 C781 1.419 . S
C780 C778 1.415 . S
C780 C785 1.425 1_455 S
C780 C787 1.409 . S
C781 H773 0.930 . S
C781 C779 1.419 . S
C781 C782 1.362 . S
C782 H774 0.930 . S
C782 C781 1.362 . S
C782 C785 1.409 . S
C783 H775 0.930 . S
C783 C784 1.355 1_655 S
C783 C785 1.415 . S
C784 C783 1.355 1_455 S
C784 C786 1.419 . S
C785 C780 1.425 1_655 S
C785 C782 1.409 . S
C785 C783 1.415 . S
C786 H776 0.930 . S
C786 C784 1.419 . S
C786 C787 1.362 . S
C787 H777 0.930 . S
C787 C780 1.409 . S
C787 C786 1.362 . S
H788 C794 0.930 . S
H789 C797 0.930 . S
H790 C798 0.930 . S
H791 C799 0.930 . S
H792 C802 0.930 . S
H793 C803 0.930 . S
C794 H788 0.930 . S
C794 C795 1.355 1_545 S
C794 C796 1.415 . S
C795 C794 1.355 1_565 S
C795 C797 1.419 . S
C796 C794 1.415 . S
C796 C801 1.425 1_545 S
C796 C803 1.409 . S
C797 H789 0.930 . S
C797 C795 1.419 . S
C797 C798 1.362 . S
C798 H790 0.930 . S
C798 C797 1.362 . S
C798 C801 1.409 . S
C799 H791 0.930 . S
C799 C800 1.355 1_565 S
C799 C801 1.415 . S
C800 C799 1.355 1_545 S
C800 C802 1.419 . S
C801 C796 1.425 1_565 S
C801 C798 1.409 . S
C801 C799 1.415 . S
C802 H792 0.930 . S
C802 C800 1.419 . S
C802 C803 1.362 . S
C803 H793 0.930 . S
C803 C796 1.409 . S
C803 C802 1.362 . S
H804 C810 0.930 . S
H805 C813 0.930 . S
H806 C814 0.930 . S
H807 C815 0.930 . S
H808 C818 0.930 . S
H809 C819 0.930 . S
C810 H804 0.930 . S
C810 C811 1.355 . S
C810 C812 1.415 . S
C811 C810 1.355 . S
C811 C813 1.419 1_655 S
C812 C810 1.415 . S
C812 C817 1.425 1_655 S
C812 C819 1.409 . S
C813 H805 0.930 . S
C813 C811 1.419 1_455 S
C813 C814 1.362 . S
C814 H806 0.930 . S
C814 C813 1.362 . S
C814 C817 1.409 . S
C815 H807 0.930 . S
C815 C816 1.355 . S
C815 C817 1.415 . S
C816 C815 1.355 . S
C816 C818 1.419 1_455 S
C817 C812 1.425 1_455 S
C817 C814 1.409 . S
C817 C815 1.415 . S
C818 H808 0.930 . S
C818 C816 1.419 1_655 S
C818 C819 1.362 . S
C819 H809 0.930 . S
C819 C812 1.409 . S
C819 C818 1.362 . S
H820 C826 0.930 . S
H821 C829 0.930 . S
H822 C830 0.930 . S
H823 C831 0.930 . S
H824 C834 0.930 . S
H825 C835 0.930 . S
C826 H820 0.930 . S
C826 C827 1.355 1_565 S
C826 C828 1.415 . S
C827 C826 1.355 1_545 S
C827 C829 1.419 . S
C828 C826 1.415 . S
C828 C833 1.425 1_565 S
C828 C835 1.409 . S
C829 H821 0.930 . S
C829 C827 1.419 . S
C829 C830 1.362 . S
C830 H822 0.930 . S
C830 C829 1.362 . S
C830 C833 1.409 . S
C831 H823 0.930 . S
C831 C832 1.355 1_545 S
C831 C833 1.415 . S
C832 C831 1.355 1_565 S
C832 C834 1.419 . S
C833 C828 1.425 1_545 S
C833 C830 1.409 . S
C833 C831 1.415 . S
C834 H824 0.930 . S
C834 C832 1.419 . S
C834 C835 1.362 . S
C835 H825 0.930 . S
C835 C828 1.409 . S
C835 C834 1.362 . S
H836 C842 0.930 . S
H837 C845 0.930 . S
H838 C846 0.929 1_554 S
H839 C847 0.930 . S
H840 C850 0.930 . S
H841 C851 0.930 . S
C842 H836 0.930 . S
C842 C843 1.355 . S
C842 C844 1.421 . S
C843 C842 1.355 . S
C843 C845 1.419 . S
C844 C842 1.421 . S
C844 C849 1.422 1_556 S
C844 C851 1.406 1_556 S
C845 H837 0.930 . S
C845 C843 1.419 . S
C845 C846 1.366 . S
C846 H838 0.929 1_556 S
C846 C845 1.366 . S
C846 C849 1.407 1_556 S
C847 H839 0.930 . S
C847 C848 1.355 . S
C847 C849 1.415 . S
C848 C847 1.355 . S
C848 C850 1.419 . S
C849 C844 1.422 1_554 S
C849 C846 1.407 1_554 S
C849 C847 1.415 . S
C850 H840 0.930 . S
C850 C848 1.419 . S
C850 C851 1.362 . S
C851 H841 0.930 . S
C851 C844 1.406 1_554 S
C851 C850 1.362 . S
H852 C858 0.930 . S
H853 C861 0.930 . S
H854 C862 0.930 . S
H855 C863 0.930 . S
H856 C866 0.930 . S
H857 C867 0.930 . S
C858 H852 0.930 . S
C858 C859 1.355 1_554 S
C858 C860 1.415 . S
C859 C858 1.355 1_556 S
C859 C861 1.419 . S
C860 C858 1.415 . S
C860 C865 1.425 1_554 S
C860 C867 1.409 . S
C861 H853 0.930 . S
C861 C859 1.419 . S
C861 C862 1.362 . S
C862 H854 0.930 . S
C862 C861 1.362 . S
C862 C865 1.409 . S
C863 H855 0.930 . S
C863 C864 1.355 1_556 S
C863 C865 1.415 . S
C864 C863 1.355 1_554 S
C864 C866 1.419 . S
C865 C860 1.425 1_556 S
C865 C862 1.409 . S
C865 C863 1.415 . S
C866 H856 0.930 . S
C866 C864 1.419 . S
C866 C867 1.362 . S
C867 H857 0.930 . S
C867 C860 1.409 . S
C867 C866 1.362 . S
H868 C874 0.930 1_556 S
H869 C877 0.930 . S
H870 C878 0.930 . S
H871 C879 0.934 . S
H872 C882 0.930 . S
H873 C883 0.930 . S
C874 H868 0.930 1_554 S
C874 C875 1.355 . S
C874 C876 1.415 1_554 S
C875 C874 1.355 . S
C875 C877 1.419 . S
C876 C874 1.415 1_556 S
C876 C881 1.425 1_556 S
C876 C883 1.409 . S
C877 H869 0.930 . S
C877 C875 1.419 . S
C877 C878 1.362 . S
C878 H870 0.930 . S
C878 C877 1.362 . S
C878 C881 1.409 . S
C879 H871 0.934 . S
C879 C880 1.355 . S
C879 C881 1.415 1_556 S
C880 C879 1.355 . S
C880 C882 1.419 . S
C881 C876 1.425 1_554 S
C881 C878 1.409 . S
C881 C879 1.415 1_554 S
C882 H872 0.930 . S
C882 C880 1.419 . S
C882 C883 1.362 . S
C883 H873 0.930 . S
C883 C876 1.409 . S
C883 C882 1.362 . S
H884 C890 0.930 . S
H885 C893 0.930 . S
H886 C894 0.930 . S
H887 C895 0.930 . S
H888 C898 0.930 . S
H889 C899 0.930 . S
C890 H884 0.930 . S
C890 C891 1.355 . S
C890 C892 1.415 . S
C891 C890 1.355 . S
C891 C893 1.419 1_554 S
C892 C890 1.415 . S
C892 C897 1.425 1_554 S
C892 C899 1.409 . S
C893 H885 0.930 . S
C893 C891 1.419 1_556 S
C893 C894 1.362 . S
C894 H886 0.930 . S
C894 C893 1.362 . S
C894 C897 1.409 . S
C895 H887 0.930 . S
C895 C896 1.355 . S
C895 C897 1.415 . S
C896 C895 1.355 . S
C896 C898 1.419 1_556 S
C897 C892 1.425 1_556 S
C897 C894 1.409 . S
C897 C895 1.415 . S
C898 H888 0.930 . S
C898 C896 1.419 1_554 S
C898 C899 1.362 . S
C899 H889 0.930 . S
C899 C892 1.409 . S
C899 C898 1.362 . S
H900 C906 0.930 . S
H901 C909 0.930 . S
H902 C910 0.930 . S
H903 C911 0.930 . S
H904 C914 0.930 . S
H905 C915 0.930 . S
C906 H900 0.930 . S
C906 C907 1.355 . S
C906 C908 1.415 . S
C907 C906 1.355 . S
C907 C909 1.419 . S
C908 C906 1.415 . S
C908 C913 1.425 . S
C908 C915 1.409 . S
C909 H901 0.930 . S
C909 C907 1.419 . S
C909 C910 1.362 . S
C910 H902 0.930 . S
C910 C909 1.362 . S
C910 C913 1.409 . S
C911 H903 0.930 . S
C911 C912 1.355 . S
C911 C913 1.415 . S
C912 C911 1.355 . S
C912 C914 1.419 . S
C913 C908 1.425 . S
C913 C910 1.409 . S
C913 C911 1.415 . S
C914 H904 0.930 . S
C914 C912 1.419 . S
C914 C915 1.362 . S
C915 H905 0.930 . S
C915 C908 1.409 . S
C915 C914 1.362 . S
H916 C922 0.930 . S
H917 C925 0.930 . S
H918 C926 0.930 . S
H919 C927 0.930 . S
H920 C930 0.930 . S
H921 C931 0.930 . S
C922 H916 0.930 . S
C922 C923 1.355 . S
C922 C924 1.415 . S
C923 C922 1.355 . S
C923 C925 1.419 . S
C924 C922 1.415 . S
C924 C929 1.425 . S
C924 C931 1.409 . S
C925 H917 0.930 . S
C925 C923 1.419 . S
C925 C926 1.362 . S
C926 H918 0.930 . S
C926 C925 1.362 . S
C926 C929 1.409 . S
C927 H919 0.930 . S
C927 C928 1.355 . S
C927 C929 1.415 . S
C928 C927 1.355 . S
C928 C930 1.419 . S
C929 C924 1.425 . S
C929 C926 1.409 . S
C929 C927 1.415 . S
C930 H920 0.930 . S
C930 C928 1.419 . S
C930 C931 1.362 . S
C931 H921 0.930 . S
C931 C924 1.409 . S
C931 C930 1.362 . S
H932 C938 0.930 . S
H933 C941 0.930 . S
H934 C942 0.930 . S
H935 C943 0.930 . S
H936 C946 0.930 . S
H937 C947 0.930 . S
C938 H932 0.930 . S
C938 C939 1.355 . S
C938 C940 1.415 . S
C939 C938 1.355 . S
C939 C941 1.419 . S
C940 C938 1.415 . S
C940 C945 1.425 . S
C940 C947 1.409 . S
C941 H933 0.930 . S
C941 C939 1.419 . S
C941 C942 1.362 . S
C942 H934 0.930 . S
C942 C941 1.362 . S
C942 C945 1.409 . S
C943 H935 0.930 . S
C943 C944 1.355 . S
C943 C945 1.415 . S
C944 C943 1.355 . S
C944 C946 1.419 . S
C945 C940 1.425 . S
C945 C942 1.409 . S
C945 C943 1.415 . S
C946 H936 0.930 . S
C946 C944 1.419 . S
C946 C947 1.362 . S
C947 H937 0.930 . S
C947 C940 1.409 . S
C947 C946 1.362 . S
H948 C954 0.930 . S
H949 C957 0.930 . S
H950 C958 0.930 . S
H951 C959 0.930 . S
H952 C962 0.930 . S
H953 C963 0.930 . S
C954 H948 0.930 . S
C954 C955 1.355 . S
C954 C956 1.415 . S
C955 C954 1.355 . S
C955 C957 1.419 . S
C956 C954 1.415 . S
C956 C961 1.425 . S
C956 C963 1.409 . S
C957 H949 0.930 . S
C957 C955 1.419 . S
C957 C958 1.362 . S
C958 H950 0.930 . S
C958 C957 1.362 . S
C958 C961 1.409 . S
C959 H951 0.930 . S
C959 C960 1.355 . S
C959 C961 1.415 . S
C960 C959 1.355 . S
C960 C962 1.419 . S
C961 C956 1.425 . S
C961 C958 1.409 . S
C961 C959 1.415 . S
C962 H952 0.930 . S
C962 C960 1.419 . S
C962 C963 1.362 . S
C963 H953 0.930 . S
C963 C956 1.409 . S
C963 C962 1.362 . S
H964 C970 0.930 . S
H965 C973 0.930 . S
H966 C974 0.930 . S
H967 C975 0.930 . S
H968 C978 0.930 . S
H969 C979 0.930 . S
C970 H964 0.930 . S
C970 C971 1.355 . S
C970 C972 1.415 . S
C971 C970 1.355 . S
C971 C973 1.419 . S
C972 C970 1.415 . S
C972 C977 1.425 . S
C972 C979 1.409 . S
C973 H965 0.930 . S
C973 C971 1.419 . S
C973 C974 1.362 . S
C974 H966 0.930 . S
C974 C973 1.362 . S
C974 C977 1.409 . S
C975 H967 0.930 . S
C975 C976 1.355 . S
C975 C977 1.415 . S
C976 C975 1.355 . S
C976 C978 1.419 . S
C977 C972 1.425 . S
C977 C974 1.409 . S
C977 C975 1.415 . S
C978 H968 0.930 . S
C978 C976 1.419 . S
C978 C979 1.362 . S
C979 H969 0.930 . S
C979 C972 1.409 . S
C979 C978 1.362 . S
H980 C986 0.930 . S
H981 C989 0.930 . S
H982 C990 0.930 . S
H983 C991 0.930 . S
H984 C994 0.930 . S
H985 C995 0.930 . S
C986 H980 0.930 . S
C986 C987 1.355 . S
C986 C988 1.415 . S
C987 C986 1.355 . S
C987 C989 1.419 . S
C988 C986 1.415 . S
C988 C993 1.425 . S
C988 C995 1.409 . S
C989 H981 0.930 . S
C989 C987 1.419 . S
C989 C990 1.362 . S
C990 H982 0.930 . S
C990 C989 1.362 . S
C990 C993 1.409 . S
C991 H983 0.930 . S
C991 C992 1.355 . S
C991 C993 1.415 . S
C992 C991 1.355 . S
C992 C994 1.419 . S
C993 C988 1.425 . S
C993 C990 1.409 . S
C993 C991 1.415 . S
C994 H984 0.930 . S
C994 C992 1.419 . S
C994 C995 1.362 . S
C995 H985 0.930 . S
C995 C988 1.409 . S
C995 C994 1.362 . S
H996 C1002 0.930 . S
H997 C1005 0.930 . S
H998 C1006 0.930 . S
H999 C1007 0.930 . S
H1000 C1010 0.930 . S
H1001 C1011 0.930 . S
C1002 H996 0.930 . S
C1002 C1003 1.355 . S
C1002 C1004 1.415 . S
C1003 C1002 1.355 . S
C1003 C1005 1.419 . S
C1004 C1002 1.415 . S
C1004 C1009 1.425 . S
C1004 C1011 1.409 . S
C1005 H997 0.930 . S
C1005 C1003 1.419 . S
C1005 C1006 1.362 . S
C1006 H998 0.930 . S
C1006 C1005 1.362 . S
C1006 C1009 1.409 . S
C1007 H999 0.930 . S
C1007 C1008 1.355 . S
C1007 C1009 1.415 . S
C1008 C1007 1.355 . S
C1008 C1010 1.419 . S
C1009 C1004 1.425 . S
C1009 C1006 1.409 . S
C1009 C1007 1.415 . S
C1010 H1000 0.930 . S
C1010 C1008 1.419 . S
C1010 C1011 1.362 . S
C1011 H1001 0.930 . S
C1011 C1004 1.409 . S
C1011 C1010 1.362 . S
H1012 C1018 0.930 . S
H1013 C1021 0.930 . S
H1014 C1022 0.930 . S
H1015 C1023 0.930 . S
H1016 C1026 0.930 . S
H1017 C1027 0.930 . S
C1018 H1012 0.930 . S
C1018 C1019 1.355 . S
C1018 C1020 1.415 . S
C1019 C1018 1.355 . S
C1019 C1021 1.419 . S
C1020 C1018 1.415 . S
C1020 C1025 1.425 . S
C1020 C1027 1.409 . S
C1021 H1013 0.930 . S
C1021 C1019 1.419 . S
C1021 C1022 1.362 . S
C1022 H1014 0.930 . S
C1022 C1021 1.362 . S
C1022 C1025 1.409 . S
C1023 H1015 0.930 . S
C1023 C1024 1.355 . S
C1023 C1025 1.415 . S
C1024 C1023 1.355 . S
C1024 C1026 1.419 . S
C1025 C1020 1.425 . S
C1025 C1022 1.409 . S
C1025 C1023 1.415 . S
C1026 H1016 0.930 . S
C1026 C1024 1.419 . S
C1026 C1027 1.362 . S
C1027 H1017 0.930 . S
C1027 C1020 1.409 . S
C1027 C1026 1.362 . S
H1028 C1034 0.930 . S
H1029 C1037 0.930 . S
H1030 C1038 0.930 . S
H1031 C1039 0.930 . S
H1032 C1042 0.930 . S
H1033 C1043 0.930 . S
C1034 H1028 0.930 . S
C1034 C1035 1.355 . S
C1034 C1036 1.415 . S
C1035 C1034 1.355 . S
C1035 C1037 1.419 . S
C1036 C1034 1.415 . S
C1036 C1041 1.425 . S
C1036 C1043 1.409 . S
C1037 H1029 0.930 . S
C1037 C1035 1.419 . S
C1037 C1038 1.362 . S
C1038 H1030 0.930 . S
C1038 C1037 1.362 . S
C1038 C1041 1.409 . S
C1039 H1031 0.930 . S
C1039 C1040 1.355 . S
C1039 C1041 1.415 . S
C1040 C1039 1.355 . S
C1040 C1042 1.419 . S
C1041 C1036 1.425 . S
C1041 C1038 1.409 . S
C1041 C1039 1.415 . S
C1042 H1032 0.930 . S
C1042 C1040 1.419 . S
C1042 C1043 1.362 . S
C1043 H1033 0.930 . S
C1043 C1036 1.409 . S
C1043 C1042 1.362 . S
H1044 C1050 0.930 . S
H1045 C1053 0.930 . S
H1046 C1054 0.930 . S
H1047 C1055 0.930 . S
H1048 C1058 0.930 . S
H1049 C1059 0.930 . S
C1050 H1044 0.930 . S
C1050 C1051 1.355 . S
C1050 C1052 1.415 . S
C1051 C1050 1.355 . S
C1051 C1053 1.419 . S
C1052 C1050 1.415 . S
C1052 C1057 1.425 . S
C1052 C1059 1.409 . S
C1053 H1045 0.930 . S
C1053 C1051 1.419 . S
C1053 C1054 1.362 . S
C1054 H1046 0.930 . S
C1054 C1053 1.362 . S
C1054 C1057 1.409 . S
C1055 H1047 0.930 . S
C1055 C1056 1.355 . S
C1055 C1057 1.415 . S
C1056 C1055 1.355 . S
C1056 C1058 1.419 . S
C1057 C1052 1.425 . S
C1057 C1054 1.409 . S
C1057 C1055 1.415 . S
C1058 H1048 0.930 . S
C1058 C1056 1.419 . S
C1058 C1059 1.362 . S
C1059 H1049 0.930 . S
C1059 C1052 1.409 . S
C1059 C1058 1.362 . S
H1060 C1066 0.930 . S
H1061 C1069 0.930 . S
H1062 C1070 0.930 . S
H1063 C1071 0.930 . S
H1064 C1074 0.930 . S
H1065 C1075 0.930 . S
C1066 H1060 0.930 . S
C1066 C1067 1.355 . S
C1066 C1068 1.415 . S
C1067 C1066 1.355 . S
C1067 C1069 1.419 . S
C1068 C1066 1.415 . S
C1068 C1073 1.425 . S
C1068 C1075 1.409 . S
C1069 H1061 0.930 . S
C1069 C1067 1.419 . S
C1069 C1070 1.362 . S
C1070 H1062 0.930 . S
C1070 C1069 1.362 . S
C1070 C1073 1.409 . S
C1071 H1063 0.930 . S
C1071 C1072 1.355 . S
C1071 C1073 1.415 . S
C1072 C1071 1.355 . S
C1072 C1074 1.419 . S
C1073 C1068 1.425 . S
C1073 C1070 1.409 . S
C1073 C1071 1.415 . S
C1074 H1064 0.930 . S
C1074 C1072 1.419 . S
C1074 C1075 1.362 . S
C1075 H1065 0.930 . S
C1075 C1068 1.409 . S
C1075 C1074 1.362 . S
H1076 C1082 0.930 . S
H1077 C1085 0.930 . S
H1078 C1086 0.930 . S
H1079 C1087 0.930 . S
H1080 C1090 0.930 . S
H1081 C1091 0.930 . S
C1082 H1076 0.930 . S
C1082 C1083 1.355 . S
C1082 C1084 1.415 . S
C1083 C1082 1.355 . S
C1083 C1085 1.419 . S
C1084 C1082 1.415 . S
C1084 C1089 1.425 . S
C1084 C1091 1.409 . S
C1085 H1077 0.930 . S
C1085 C1083 1.419 . S
C1085 C1086 1.362 . S
C1086 H1078 0.930 . S
C1086 C1085 1.362 . S
C1086 C1089 1.409 . S
C1087 H1079 0.930 . S
C1087 C1088 1.355 . S
C1087 C1089 1.415 . S
C1088 C1087 1.355 . S
C1088 C1090 1.419 . S
C1089 C1084 1.425 . S
C1089 C1086 1.409 . S
C1089 C1087 1.415 . S
C1090 H1080 0.930 . S
C1090 C1088 1.419 . S
C1090 C1091 1.362 . S
C1091 H1081 0.930 . S
C1091 C1084 1.409 . S
C1091 C1090 1.362 . S
C715 C5 1.627 . S
C720 C300 1.631 . S
C731 C111 1.631 . S
C736 C288 1.619 . S
C747 C298 1.649 . S
C752 C121 1.647 . S
C763 C229 1.590 . S
C768 C269 1.588 . S
C779 C418 1.645 . S
C784 C123 1.647 . S
C795 C387 1.638 . S
C800 C210 1.637 . S
C811 C3 1.605 . S
C816 C416 1.615 . S
C827 C406 1.637 . S
C832 C92 1.637 . S
C843 C583 1.612 . S
C848 C477 1.617 . S
C859 C475 1.632 . S
C864 C701 1.626 . S
C875 C564 1.599 . S
C880 C593 1.622 . S
C891 C595 1.587 . S
C896 C682 1.573 . S
C907 C654 1.637 . S
C912 C359 1.640 . S
C923 C524 1.619 . S
C928 C465 1.604 . S
C939 C357 1.649 . S
C944 C534 1.641 . S
C955 C446 1.607 . S
C960 C642 1.599 . S
C971 C241 1.646 . S
C976 C536 1.648 . S
C987 C328 1.622 . S
C992 C623 1.621 . S
C1003 C652 1.615 . S
C1008 C239 1.608 . S
C1019 C505 1.585 . S
C1024 C347 1.585 . S
C1035 C64 1.635 . S
C1040 C170 1.628 . S
C1051 C52 1.612 . S
C1056 C62 1.634 . S
C1067 C151 1.571 . S
C1072 C180 1.593 . S
C1083 C33 1.600 . S
C1088 C182 1.613 . S
