# Generated by pormake.
# Topology wjg, (4)-cn, num edge types: 1
# Building blocks:
#     Node 0, Type 0, BuildingBlock: QUQFOY_clean_sbu_1, # of connection points: 4
#     Node 1, Type 0, BuildingBlock: QUQFOY_clean_sbu_1, # of connection points: 4
#     Node 2, Type 0, BuildingBlock: QUQFOY_clean_sbu_1, # of connection points: 4
#     Node 3, Type 0, BuildingBlock: QUQFOY_clean_sbu_1, # of connection points: 4
#     Node 4, Type 0, BuildingBlock: QUQFOY_clean_sbu_1, # of connection points: 4
#     Node 5, Type 0, BuildingBlock: QUQFOY_clean_sbu_1, # of connection points: 4
#     Node 6, Type 0, BuildingBlock: QUQFOY_clean_sbu_1, # of connection points: 4
#     Node 7, Type 0, BuildingBlock: QUQFOY_clean_sbu_1, # of connection points: 4
#     Node 8, Type 0, BuildingBlock: QUQFOY_clean_sbu_1, # of connection points: 4
#     Node 9, Type 0, BuildingBlock: QUQFOY_clean_sbu_1, # of connection points: 4
#     Node 10, Type 0, BuildingBlock: QUQFOY_clean_sbu_1, # of connection points: 4
#     Node 11, Type 0, BuildingBlock: QUQFOY_clean_sbu_1, # of connection points: 4
#     Edge 12, Type (0, 0), BuildingBlock: XUDNAN_clean_linker_2, # of connection points: 2
#     Edge 13, Type (0, 0), BuildingBlock: XUDNAN_clean_linker_2, # of connection points: 2
#     Edge 14, Type (0, 0), BuildingBlock: XUDNAN_clean_linker_2, # of connection points: 2
#     Edge 15, Type (0, 0), BuildingBlock: XUDNAN_clean_linker_2, # of connection points: 2
#     Edge 16, Type (0, 0), BuildingBlock: XUDNAN_clean_linker_2, # of connection points: 2
#     Edge 17, Type (0, 0), BuildingBlock: XUDNAN_clean_linker_2, # of connection points: 2
#     Edge 18, Type (0, 0), BuildingBlock: XUDNAN_clean_linker_2, # of connection points: 2
#     Edge 19, Type (0, 0), BuildingBlock: XUDNAN_clean_linker_2, # of connection points: 2
#     Edge 20, Type (0, 0), BuildingBlock: XUDNAN_clean_linker_2, # of connection points: 2
#     Edge 21, Type (0, 0), BuildingBlock: XUDNAN_clean_linker_2, # of connection points: 2
#     Edge 22, Type (0, 0), BuildingBlock: XUDNAN_clean_linker_2, # of connection points: 2
#     Edge 23, Type (0, 0), BuildingBlock: XUDNAN_clean_linker_2, # of connection points: 2
#     Edge 24, Type (0, 0), BuildingBlock: XUDNAN_clean_linker_2, # of connection points: 2
#     Edge 25, Type (0, 0), BuildingBlock: XUDNAN_clean_linker_2, # of connection points: 2
#     Edge 26, Type (0, 0), BuildingBlock: XUDNAN_clean_linker_2, # of connection points: 2
#     Edge 27, Type (0, 0), BuildingBlock: XUDNAN_clean_linker_2, # of connection points: 2
#     Edge 28, Type (0, 0), BuildingBlock: XUDNAN_clean_linker_2, # of connection points: 2
#     Edge 29, Type (0, 0), BuildingBlock: XUDNAN_clean_linker_2, # of connection points: 2
#     Edge 30, Type (0, 0), BuildingBlock: XUDNAN_clean_linker_2, # of connection points: 2
#     Edge 31, Type (0, 0), BuildingBlock: XUDNAN_clean_linker_2, # of connection points: 2
#     Edge 32, Type (0, 0), BuildingBlock: XUDNAN_clean_linker_2, # of connection points: 2
#     Edge 33, Type (0, 0), BuildingBlock: XUDNAN_clean_linker_2, # of connection points: 2
#     Edge 34, Type (0, 0), BuildingBlock: XUDNAN_clean_linker_2, # of connection points: 2
#     Edge 35, Type (0, 0), BuildingBlock: XUDNAN_clean_linker_2, # of connection points: 2
# Relax obj value: 0.296
# Max RMSD: 0.132
# Mean RMSD: 0.130
data_MOF--net-wjg--node1-QUQFOY_clean_sbu_1--edge1-XUDNAN_clean_linker_2
_symmetry_space_group_name_H-M    P1
_symmetry_Int_Tables_number       1
_symmetry_cell_setting            triclinic
loop_
_symmetry_equiv_pos_as_xyz
'x, y, z'
_cell_length_a     34.734638
_cell_length_b     34.665454
_cell_length_c     39.751062
_cell_angle_alpha  90.144809
_cell_angle_beta   89.863899
_cell_angle_gamma 119.93197
loop_
_atom_site_label
_atom_site_type_symbol
_atom_site_fract_x
_atom_site_fract_y
_atom_site_fract_z
_atom_type_partial_charge
O0 O 0.10768 0.31844 0.35139 0.0
Cd1 Cd 0.08973 0.36657 0.35482 0.0
Cd2 Cd 0.17615 0.42155 0.34177 0.0
O3 O 0.17326 0.36264 0.32858 0.0
O4 O 0.0337 0.35033 0.329 0.0
O5 O 0.10096 0.40264 0.31328 0.0
C6 C 0.05902 0.37918 0.30677 0.0
C7 C 0.22816 0.48971 0.31812 0.0
C8 C 0.14386 0.32428 0.33877 0.0
C9 C 0.1417 0.41867 0.41273 0.0
O10 O 0.17366 0.42968 0.39237 0.0
O11 O 0.10166 0.39532 0.40268 0.0
O12 O 0.23998 0.46474 0.33351 0.0
O13 O 0.18632 0.47459 0.31359 0.0
O14 O 0.82133 0.11404 0.68317 0.0
Cd15 Cd 0.76307 0.11569 0.68392 0.0
Cd16 Cd 0.8161 0.19535 0.66358 0.0
O17 O 0.85402 0.16859 0.64645 0.0
O18 O 0.71131 0.05798 0.66773 0.0
O19 O 0.74418 0.11983 0.63742 0.0
C20 C 0.71561 0.07787 0.63928 0.0
C21 C 0.79909 0.24639 0.64044 0.0
C22 C 0.85375 0.13738 0.66358 0.0
C23 C 0.7892 0.18415 0.73522 0.0
O24 O 0.82004 0.20531 0.7141 0.0
O25 O 0.75589 0.14676 0.72699 0.0
O26 O 0.83967 0.25747 0.64718 0.0
O27 O 0.76932 0.20479 0.64215 0.0
O28 O 0.63185 0.79131 0.06224 0.0
Cd29 Cd 0.62167 0.79255 1.01152 0.0
Cd30 Cd 0.68297 0.76384 1.01584 0.0
O31 O 0.66981 0.75617 0.06694 0.0
O32 O 0.5921 0.82889 1.01494 0.0
O33 O 0.5568 0.76028 0.99582 0.0
C34 C 0.5561 0.79596 1.00383 0.0
C35 C 0.66764 0.71021 0.97485 0.0
C36 C 0.65022 0.77506 0.08038 0.0
C37 C 0.71577 0.8542 0.99051 0.0
O38 O 0.72742 0.82888 1.00468 0.0
O39 O 0.67495 0.84019 0.98441 0.0
O40 O 0.70011 0.72179 0.99576 0.0
O41 O 0.64233 0.7275 0.97842 0.0
O42 O 0.83812 0.66351 0.32923 0.0
Cd43 Cd 0.86559 0.62485 0.34161 0.0
Cd44 Cd 0.78614 0.56275 0.32387 0.0
O45 O 0.7913 0.61332 0.29402 0.0
O46 O 0.92875 0.65077 0.32691 0.0
O47 O 0.87215 0.5921 0.30253 0.0
C48 C 0.91406 0.62145 0.30299 0.0
C49 C 0.73412 0.4885 0.31156 0.0
C50 C 0.80758 0.65165 0.30741 0.0
C51 C 0.80762 0.58443 0.39761 0.0
O52 O 0.77965 0.57199 0.37386 0.0
O53 O 0.84879 0.60135 0.39076 0.0
O54 O 0.72299 0.51842 0.31528 0.0
O55 O 0.77591 0.50124 0.31178 0.0
O56 O 0.17357 0.85851 0.67269 0.0
Cd57 Cd 0.23941 0.88218 0.6818 0.0
Cd58 Cd 0.213 0.7928 0.68337 0.0
O59 O 0.15906 0.79057 0.65985 0.0
O60 O 0.27508 0.94152 0.65994 0.0
O61 O 0.27416 0.88025 0.64208 0.0
C62 C 0.28674 0.92191 0.6378 0.0
C63 C 0.22128 0.72956 0.67902 0.0
C64 C 0.14664 0.81932 0.66268 0.0
C65 C 0.23533 0.84609 0.74892 0.0
O66 O 0.21861 0.80949 0.73316 0.0
O67 O 0.25128 0.88275 0.73304 0.0
O68 O 0.186 0.72756 0.69089 0.0
O69 O 0.25146 0.76725 0.66717 0.0
O70 O 0.37875 0.22186 0.06734 0.0
Cd71 Cd 0.39588 0.21923 1.0185 0.0
Cd72 Cd 0.3297 0.2388 1.01224 0.0
O73 O 0.33242 0.2478 0.06398 0.0
O74 O 0.43854 0.19833 0.02862 0.0
O75 O 0.45981 0.26284 1.00449 0.0
C76 C 0.47019 0.23504 1.01714 0.0
C77 C 0.34653 0.28833 0.96791 0.0
C78 C 0.35384 0.23409 0.08149 0.0
C79 C 0.30806 0.14767 0.99304 0.0
O80 O 0.29244 0.17279 1.00051 0.0
O81 O 0.34978 0.16268 0.99357 0.0
O82 O 0.30991 0.27377 0.98471 0.0
O83 O 0.37515 0.27738 0.9782 0.0
O84 O 0.6786 0.84537 0.37963 0.0
Cd85 Cd 0.66024 0.89271 0.37402 0.0
Cd86 Cd 0.57825 0.81928 0.35621 0.0
O87 O 0.60968 0.78955 0.37952 0.0
O88 O 0.69066 0.94243 0.40699 0.0
O89 O 0.61814 0.8943 0.40779 0.0
C90 C 0.6524 0.92782 0.42137 0.0
C91 C 0.50256 0.76663 0.34686 0.0
C92 C 0.65118 0.80393 0.38151 0.0
C93 C 0.64064 0.88513 0.30241 0.0
O94 O 0.60622 0.84952 0.3114 0.0
O95 O 0.66703 0.91217 0.32429 0.0
O96 O 0.53433 0.7627 0.33431 0.0
O97 O 0.51308 0.80091 0.3655 0.0
O98 O 0.80518 0.67135 0.70704 0.0
Cd99 Cd 0.73902 0.62327 0.70396 0.0
Cd100 Cd 0.77787 0.57517 0.6997 0.0
O101 O 0.82329 0.62497 0.72971 0.0
O102 O 0.7027 0.64047 0.73266 0.0
O103 O 0.71516 0.58514 0.74485 0.0
C104 C 0.69925 0.61044 0.7537 0.0
C105 C 0.77134 0.50458 0.69865 0.0
C106 C 0.83384 0.66436 0.72126 0.0
C107 C 0.74679 0.5987 0.63706 0.0
O108 O 0.7769 0.59424 0.65133 0.0
O109 O 0.71815 0.60235 0.65478 0.0
O110 O 0.80792 0.53992 0.69118 0.0
O111 O 0.73895 0.50941 0.70954 0.0
O112 O 0.17155 0.75465 0.98684 0.0
Cd113 Cd 0.19658 0.77153 0.03464 0.0
Cd114 Cd 0.10342 0.73813 0.0412 0.0
O115 O 0.09844 0.71963 0.99119 0.0
O116 O 0.25888 0.8099 1.01923 0.0
O117 O 0.23972 0.7506 0.04995 0.0
C118 C 0.27013 0.78414 0.03373 0.0
C119 C 0.07291 0.69551 0.08942 0.0
C120 C 0.13345 0.73457 0.97332 0.0
C121 C 0.16317 0.83436 0.05223 0.0
O122 O 0.12388 0.80436 0.04507 0.0
O123 O 0.19384 0.82475 0.05542 0.0
O124 O 0.04862 0.70306 0.06883 0.0
O125 O 0.11391 0.70957 0.08119 0.0
O126 O 0.27446 0.11258 0.38227 0.0
Cd127 Cd 0.31088 0.08251 0.37102 0.0
Cd128 Cd 0.37905 0.16738 0.36476 0.0
O129 O 0.33263 0.18012 0.38681 0.0
O130 O 0.29373 0.02938 0.40018 0.0
O131 O 0.35806 0.09256 0.4043 0.0
C132 C 0.33094 0.05321 0.41586 0.0
C133 C 0.45413 0.22395 0.36598 0.0
C134 C 0.29082 0.15385 0.3882 0.0
C135 C 0.3388 0.11 0.30184 0.0
O136 O 0.36446 0.14678 0.31604 0.0
O137 O 0.31455 0.0755 0.31934 0.0
O138 O 0.4235 0.2298 0.35338 0.0
O139 O 0.44208 0.18644 0.38054 0.0
O140 O 0.18675 0.29253 0.69759 0.0
Cd141 Cd 0.24354 0.35408 0.69946 0.0
Cd142 Cd 0.18454 0.37322 0.71118 0.0
O143 O 0.15292 0.31234 0.73467 0.0
O144 O 0.29591 0.35132 0.71807 0.0
O145 O 0.25835 0.37687 0.74662 0.0
C146 C 0.28893 0.36604 0.74607 0.0
C147 C 0.20211 0.44423 0.72743 0.0
C148 C 0.15433 0.28203 0.71752 0.0
C149 C 0.21568 0.38578 0.64291 0.0
O150 O 0.18031 0.36839 0.66018 0.0
O151 O 0.25192 0.39296 0.65657 0.0
O152 O 0.1612 0.41365 0.72283 0.0
O153 O 0.23221 0.43272 0.72692 0.0
O154 O 0.8095 0.22097 0.9918 0.0
Cd155 Cd 0.8025 0.21839 0.04281 0.0
Cd156 Cd 0.88695 0.26081 0.03841 0.0
O157 O 0.87645 0.27956 0.9909 0.0
O158 O 0.73754 0.19464 0.0467 0.0
O159 O 0.78711 0.26244 0.06322 0.0
C160 C 0.7461 0.23306 0.05768 0.0
C161 C 0.92283 0.30631 0.08447 0.0
C162 C 0.8413 0.25171 0.97546 0.0
C163 C 0.84326 0.16457 0.05337 0.0
O164 O 0.87702 0.19684 0.03964 0.0
O165 O 0.81178 0.17 0.06415 0.0
O166 O 0.94509 0.30417 0.0591 0.0
O167 O 0.8799 0.28434 0.08285 0.0
H168 H 0.31501 0.52198 0.30324 0.0
H169 H 0.21694 0.5623 0.32043 0.0
H170 H 0.27705 0.6408 0.32552 0.0
H171 H 0.38866 0.58736 0.36161 0.0
H172 H 0.43848 0.60155 0.33819 0.0
H173 H 0.38818 0.55042 0.32938 0.0
H174 H 0.39187 0.57249 0.26672 0.0
H175 H 0.44301 0.62335 0.27506 0.0
H176 H 0.39698 0.62538 0.25607 0.0
H177 H 0.34905 0.71231 0.33999 0.0
H178 H 0.42595 0.77172 0.35363 0.0
H179 H 0.4748 0.68318 0.3245 0.0
C180 C 0.30617 0.54761 0.30667 0.0
C181 C 0.26156 0.53637 0.31122 0.0
C182 C 0.25102 0.57049 0.31628 0.0
C183 C 0.28496 0.61508 0.31948 0.0
C184 C 0.32897 0.62481 0.31675 0.0
C185 C 0.33946 0.59207 0.30944 0.0
C186 C 0.38901 0.61012 0.31004 0.0
C187 C 0.40178 0.58593 0.33637 0.0
C188 C 0.40623 0.60771 0.27488 0.0
C189 C 0.40476 0.65764 0.3203 0.0
C190 C 0.36991 0.66581 0.32406 0.0
C191 C 0.37667 0.70658 0.33628 0.0
C192 C 0.42027 0.73994 0.34425 0.0
C193 C 0.45625 0.73214 0.33979 0.0
C194 C 0.44808 0.69046 0.32762 0.0
H195 H 0.85322 0.33683 0.64306 0.0
H196 H 0.71472 0.23354 0.63673 0.0
H197 H 0.69204 0.28882 0.65041 0.0
H198 H 0.84324 0.38951 0.7126 0.0
H199 H 0.8818 0.44559 0.69947 0.0
H200 H 0.88778 0.40005 0.68397 0.0
H201 H 0.88407 0.42225 0.62237 0.0
H202 H 0.87952 0.4688 0.63762 0.0
H203 H 0.83819 0.42912 0.6093 0.0
H204 H 0.68479 0.35322 0.67311 0.0
H205 H 0.69363 0.42461 0.69389 0.0
H206 H 0.83675 0.48507 0.68487 0.0
C207 C 0.81811 0.32606 0.64328 0.0
C208 C 0.78579 0.28081 0.63872 0.0
C209 C 0.74015 0.26806 0.63984 0.0
C210 C 0.72691 0.29918 0.64787 0.0
C211 C 0.75969 0.34299 0.65429 0.0
C212 C 0.80435 0.35666 0.65121 0.0
C213 C 0.83305 0.40507 0.66103 0.0
C214 C 0.86323 0.41032 0.69105 0.0
C215 C 0.8603 0.43296 0.63078 0.0
C216 C 0.79761 0.41618 0.67092 0.0
C217 C 0.75549 0.37999 0.66697 0.0
C218 C 0.71761 0.38197 0.67583 0.0
C219 C 0.72296 0.42247 0.68797 0.0
C220 C 0.76583 0.46035 0.691 0.0
C221 C 0.80351 0.45674 0.68276 0.0
H222 H 0.46896 0.73045 1.0142 0.0
H223 H 0.55301 0.8708 0.99162 0.0
H224 H 0.48872 0.88204 0.99726 0.0
H225 H 0.36778 0.71625 0.97182 0.0
H226 H 0.33108 0.67925 1.00375 0.0
H227 H 0.38285 0.68103 0.99489 0.0
H228 H 0.40454 0.69776 0.05772 0.0
H229 H 0.35322 0.69681 0.06667 0.0
H230 H 0.40548 0.74514 0.0774 0.0
H231 H 0.41828 0.87994 1.00806 0.0
H232 H 0.34233 0.86378 1.02042 0.0
H233 H 0.30175 0.72504 0.03819 0.0
C234 C 0.47335 0.76318 1.00958 0.0
C235 C 0.51575 0.79974 1.00213 0.0
C236 C 0.52072 0.84239 0.99717 0.0
C237 C 0.48446 0.84913 1.00039 0.0
C238 C 0.44345 0.81291 1.00883 0.0
C239 C 0.43736 0.77067 1.01313 0.0
C240 C 0.3898 0.7382 0.02355 0.0
C241 C 0.3665 0.70151 0.99691 0.0
C242 C 0.38819 0.71831 0.05841 0.0
C243 C 0.37048 0.76901 0.02461 0.0
C244 C 0.40224 0.81188 1.01591 0.0
C245 C 0.39299 0.8465 1.01478 0.0
C246 C 0.34976 0.83697 1.02194 0.0
C247 C 0.31623 0.79322 0.03034 0.0
C248 C 0.32689 0.75887 0.03222 0.0
H249 H 0.48501 0.30528 0.33781 0.0
H250 H 0.52948 0.21928 0.3808 0.0
H251 H 0.60723 0.27475 0.36558 0.0
H252 H 0.55974 0.34365 0.26756 0.0
H253 H 0.56758 0.39909 0.26932 0.0
H254 H 0.51602 0.35242 0.28339 0.0
H255 H 0.52498 0.38983 0.34171 0.0
H256 H 0.57591 0.43696 0.32752 0.0
H257 H 0.57551 0.40789 0.36517 0.0
H258 H 0.68089 0.34198 0.34581 0.0
H259 H 0.74253 0.41647 0.32963 0.0
H260 H 0.64662 0.4546 0.29853 0.0
C261 C 0.51097 0.29795 0.34424 0.0
C262 C 0.50121 0.25799 0.36057 0.0
C263 C 0.53629 0.24988 0.36848 0.0
C264 C 0.58042 0.28097 0.35964 0.0
C265 C 0.58862 0.31967 0.34277 0.0
C266 C 0.5547 0.32819 0.33548 0.0
C267 C 0.57163 0.37252 0.31827 0.0
C268 C 0.5526 0.36653 0.28252 0.0
C269 C 0.56143 0.40363 0.33944 0.0
C270 C 0.62071 0.38833 0.31746 0.0
C271 C 0.63011 0.35738 0.33128 0.0
C272 C 0.67378 0.36621 0.3347 0.0
C273 C 0.70858 0.40843 0.32514 0.0
C274 C 0.69928 0.44115 0.31267 0.0
C275 C 0.65477 0.43014 0.3077 0.0
H276 H 0.15789 0.64381 0.69166 0.0
H277 H 0.29971 0.72834 0.67606 0.0
H278 H 0.31106 0.66542 0.69129 0.0
H279 H 0.16372 0.58537 0.76268 0.0
H280 H 0.11698 0.53264 0.75049 0.0
H281 H 0.11984 0.58374 0.73748 0.0
H282 H 0.11226 0.5595 0.67495 0.0
H283 H 0.10823 0.50788 0.68784 0.0
H284 H 0.14997 0.54299 0.65779 0.0
H285 H 0.30661 0.5937 0.71096 0.0
H286 H 0.28612 0.5164 0.72481 0.0
H287 H 0.14692 0.47948 0.72675 0.0
C288 C 0.19134 0.64902 0.69102 0.0
C289 C 0.22798 0.69092 0.68267 0.0
C290 C 0.27116 0.69637 0.6821 0.0
C291 C 0.27793 0.66098 0.69105 0.0
C292 C 0.24112 0.62048 0.70025 0.0
C293 C 0.1986 0.61416 0.69965 0.0
C294 C 0.16446 0.56728 0.70984 0.0
C295 C 0.13981 0.56729 0.74203 0.0
C296 C 0.13182 0.54298 0.68088 0.0
C297 C 0.19435 0.54799 0.71628 0.0
C298 C 0.2385 0.5793 0.71104 0.0
C299 C 0.27214 0.56892 0.71504 0.0
C300 C 0.26016 0.52496 0.72321 0.0
C301 C 0.21489 0.49183 0.72697 0.0
C302 C 0.18181 0.50402 0.72435 0.0
H303 H 0.65715 0.17516 0.05944 0.0
H304 H 0.75433 0.31603 0.05636 0.0
H305 H 0.69414 0.33301 0.04549 0.0
H306 H 0.59217 0.17415 0.99338 0.0
H307 H 0.53968 0.13429 1.01171 0.0
H308 H 0.58944 0.13358 0.02304 0.0
H309 H 0.57572 0.14164 0.08615 0.0
H310 H 0.52524 0.1412 0.07512 0.0
H311 H 0.56724 0.18663 0.09943 0.0
H312 H 0.62308 0.33307 0.02831 0.0
H313 H 0.54675 0.31684 1.01448 0.0
H314 H 0.49815 0.17607 0.0297 0.0
C315 C 0.66571 0.20969 0.05737 0.0
C316 C 0.71033 0.2443 0.05885 0.0
C317 C 0.72024 0.28904 0.05573 0.0
C318 C 0.68632 0.29895 0.04925 0.0
C319 C 0.64278 0.26375 0.04641 0.0
C320 C 0.63241 0.22009 0.05113 0.0
C321 C 0.58349 0.18806 0.0459 0.0
C322 C 0.57578 0.15563 1.01678 0.0
C323 C 0.56164 0.16292 0.0786 0.0
C324 C 0.56793 0.22032 0.03684 0.0
C325 C 0.60243 0.26386 0.03708 0.0
C326 C 0.59577 0.29912 0.02844 0.0
C327 C 0.55247 0.2896 1.0203 0.0
C328 C 0.51661 0.24525 1.02108 0.0
C329 C 0.52484 0.21036 0.02903 0.0
H330 H 0.22671 0.33419 0.33566 0.0
H331 H 0.08833 0.23564 0.35276 0.0
H332 H 0.11089 0.18135 0.37036 0.0
H333 H 0.26344 0.25825 0.30537 0.0
H334 H 0.31624 0.28886 0.32639 0.0
H335 H 0.28793 0.31734 0.31208 0.0
H336 H 0.29191 0.34726 0.37261 0.0
H337 H 0.31895 0.3177 0.38732 0.0
H338 H 0.26824 0.30849 0.40698 0.0
H339 H 0.14967 0.13884 0.38807 0.0
H340 H 0.20082 0.11024 0.39999 0.0
H341 H 0.31309 0.23955 0.37506 0.0
C342 C 0.20091 0.30084 0.34218 0.0
C343 C 0.15568 0.28902 0.34249 0.0
C344 C 0.12317 0.24529 0.35203 0.0
C345 C 0.13569 0.21436 0.36229 0.0
C346 C 0.1808 0.22788 0.36313 0.0
C347 C 0.21282 0.26998 0.353 0.0
C348 C 0.25913 0.2771 0.35741 0.0
C349 C 0.28308 0.28588 0.32329 0.0
C350 C 0.28612 0.31488 0.38258 0.0
C351 C 0.24828 0.23242 0.37163 0.0
C352 C 0.20298 0.20434 0.37469 0.0
C353 C 0.18521 0.16064 0.38592 0.0
C354 C 0.21451 0.14479 0.39289 0.0
C355 C 0.26098 0.17278 0.38889 0.0
C356 C 0.27787 0.21751 0.37912 0.0
H357 H 0.92977 0.18071 0.62584 0.0
H358 H 0.87195 0.0918 0.71093 0.0
H359 H 0.94622 0.10805 0.72865 0.0
H360 H 0.02899 0.15894 0.61402 0.0
H361 H 0.06444 0.21645 0.60255 0.0
H362 H 0.00648 0.18803 0.59115 0.0
H363 H -0.00216 0.24991 0.62079 0.0
H364 H 0.05521 0.27789 0.63268 0.0
H365 H 0.01292 0.26204 0.66452 0.0
H366 H 0.0246 0.15238 0.74736 0.0
H367 H 0.10196 0.21185 0.75921 0.0
H368 H 0.11064 0.26569 0.65965 0.0
C369 C 0.93258 0.16293 0.64719 0.0
C370 C 0.89511 0.13537 0.6671 0.0
C371 C 0.90011 0.11308 0.69516 0.0
C372 C 0.9423 0.12209 0.7055 0.0
C373 C 0.97903 0.15225 0.68688 0.0
C374 C 0.9745 0.17105 0.6575 0.0
C375 C 0.01927 0.20638 0.64433 0.0
C376 C 0.03045 0.19154 0.61104 0.0
C377 C 0.02139 0.25168 0.6404 0.0
C378 C 0.04901 0.20731 0.67246 0.0
C379 C 0.02538 0.17555 0.69667 0.0
C380 C 0.04409 0.17587 0.72789 0.0
C381 C 0.08782 0.2097 0.73455 0.0
C382 C 0.11221 0.24187 0.70981 0.0
C383 C 0.09299 0.2399 0.67824 0.0
H384 H 0.76375 0.09282 0.03972 0.0
H385 H 0.90334 0.1346 0.0506 0.0
H386 H 0.88791 0.06008 0.03089 0.0
H387 H 0.71695 0.97818 0.06347 0.0
H388 H 0.67382 0.95965 0.03218 0.0
H389 H 0.69676 0.01449 0.04998 0.0
H390 H 0.71531 0.04772 0.98974 0.0
H391 H 0.69376 0.99298 0.97188 0.0
H392 H 0.7499 0.03582 0.96275 0.0
H393 H 0.85458 0.97853 1.0114 0.0
H394 H 0.80726 0.8993 0.99519 0.0
H395 H 0.69313 0.91846 0.99004 0.0
C396 C 0.79098 0.08601 0.03891 0.0
C397 C 0.83453 0.1189 0.04758 0.0
C398 C 0.86956 0.10934 0.04473 0.0
C399 C 0.86113 0.06735 0.03328 0.0
C400 C 0.8178 0.0361 0.02392 0.0
C401 C 0.78347 0.04525 0.02652 0.0
C402 C 0.74031 0.00747 1.01345 0.0
C403 C 0.70489 0.98884 0.04144 0.0
C404 C 0.72388 0.02188 0.98263 0.0
C405 C 0.75523 0.97489 1.00373 0.0
C406 C 0.79991 0.99161 1.01003 0.0
C407 C 0.81976 0.96544 1.00582 0.0
C408 C 0.79274 0.92061 0.99635 0.0
C409 C 0.74664 0.9028 0.99075 0.0
C410 C 0.72841 0.9311 0.99316 0.0
H411 H 0.73726 0.81959 0.38404 0.0
H412 H 0.60124 0.71661 0.36355 0.0
H413 H 0.62846 0.67088 0.33677 0.0
H414 H 0.78574 0.8103 0.30981 0.0
H415 H 0.8358 0.81665 0.32852 0.0
H416 H 0.80665 0.84145 0.34832 0.0
H417 H 0.79987 0.7995 0.40389 0.0
H418 H 0.83063 0.77606 0.38469 0.0
H419 H 0.77684 0.73999 0.40297 0.0
H420 H 0.66975 0.64108 0.30527 0.0
H421 H 0.72168 0.61663 0.28673 0.0
H422 H 0.83116 0.73515 0.33133 0.0
C423 C 0.71315 0.78687 0.37485 0.0
C424 C 0.66711 0.77205 0.37564 0.0
C425 C 0.63668 0.72892 0.36332 0.0
C426 C 0.65179 0.70282 0.3476 0.0
C427 C 0.69736 0.71974 0.34514 0.0
C428 C 0.7276 0.75979 0.35966 0.0
C429 C 0.77477 0.76912 0.35454 0.0
C430 C 0.80235 0.81193 0.33408 0.0
C431 C 0.79682 0.77127 0.38854 0.0
C432 C 0.76613 0.7283 0.33449 0.0
C433 C 0.72128 0.70093 0.32867 0.0
C434 C 0.70493 0.66178 0.31014 0.0
C435 C 0.73491 0.64851 0.29929 0.0
C436 C 0.78056 0.67377 0.30781 0.0
C437 C 0.79652 0.71517 0.32437 0.0
H438 H 0.07956 0.73466 0.67153 0.0
H439 H 0.10616 0.86995 0.65783 0.0
H440 H 0.02829 0.84588 0.67336 0.0
H441 H 0.96319 0.67592 0.64358 0.0
H442 H 0.94808 0.6338 0.67539 0.0
H443 H 0.00335 0.66121 0.65803 0.0
H444 H 0.03513 0.6831 0.71845 0.0
H445 H 0.97998 0.65733 0.7359 0.0
H446 H 0.01874 0.7151 0.74452 0.0
H447 H 0.94785 0.80664 0.69367 0.0
H448 H 0.87107 0.75472 0.71296 0.0
H449 H 0.90286 0.6487 0.71875 0.0
C450 C 0.06875 0.75903 0.67052 0.0
C451 C 0.09871 0.80405 0.663 0.0
C452 C 0.08348 0.83512 0.6631 0.0
C453 C 0.03948 0.82183 0.67214 0.0
C454 C 0.01156 0.77758 0.68134 0.0
C455 C 0.02559 0.74665 0.68026 0.0
C456 C 0.99064 0.70199 0.6936 0.0
C457 C 0.9754 0.66612 0.666 0.0
C458 C 0.00713 0.68863 0.72498 0.0
C459 C 0.95464 0.71252 0.70249 0.0
C460 C 0.96696 0.7561 0.69505 0.0
C461 C 0.93795 0.77252 0.69976 0.0
C462 C 0.89464 0.74298 0.71102 0.0
C463 C 0.88124 0.69792 0.71787 0.0
C464 C 0.91228 0.68318 0.71456 0.0
H465 H 0.33044 0.08333 1.00108 0.0
H466 H 0.21715 0.1025 0.98729 0.0
H467 H 0.16673 0.02403 1.0031 0.0
H468 H 0.27701 0.96627 0.97277 0.0
H469 H 0.30581 0.95301 1.00428 0.0
H470 H 0.33126 0.00828 0.98692 0.0
H471 H 0.34063 0.04005 0.04737 0.0
H472 H 0.31361 0.98482 0.06483 0.0
H473 H 0.29236 0.02174 0.0738 0.0
H474 H 0.12944 0.94502 0.02545 0.0
H475 H 0.10787 0.86938 0.04547 0.0
H476 H 0.24696 0.90576 0.04805 0.0
C477 C 0.29495 0.07076 1.00011 0.0
C478 C 0.27773 0.09902 0.9927 0.0
C479 C 0.23107 0.08134 0.99259 0.0
C480 C 0.20222 0.03693 1.00183 0.0
C481 C 0.22063 0.01087 1.01115 0.0
C482 C 0.26589 0.02696 1.00978 0.0
C483 C 0.27773 0.99333 0.02289 0.0
C484 C 0.2992 0.97938 0.99505 0.0
C485 C 0.30785 0.01107 0.05407 0.0
C486 C 0.23208 0.95582 0.03207 0.0
C487 C 0.1995 0.96639 0.0251 0.0
C488 C 0.15468 0.93634 0.0309 0.0
C489 C 0.14279 0.89363 0.04261 0.0
C490 C 0.17569 0.88162 0.04853 0.0
C491 C 0.22094 0.91385 0.04424 0.0
H492 H 0.89468 0.28495 0.14973 0.0
H493 H 0.00476 0.38047 0.08893 0.0
H494 H 0.04769 0.41583 0.14054 0.0
H495 H 0.91053 0.35907 0.22299 0.0
H496 H 0.89715 0.31516 0.25293 0.0
H497 H 0.8722 0.30208 0.21172 0.0
H498 H 0.90157 0.24737 0.20207 0.0
H499 H 0.92661 0.26031 0.24312 0.0
H500 H 0.96015 0.26709 0.20652 0.0
H501 H 0.08115 0.43646 0.19796 0.0
H502 H 0.10503 0.4379 0.25646 0.0
H503 H 0.97487 0.32649 0.28059 0.0
C504 C 0.92728 0.3142 0.1474 0.0
C505 C 0.94615 0.3306 0.11538 0.0
C506 C 0.98955 0.36778 0.11323 0.0
C507 C 0.01409 0.38813 0.14241 0.0
C508 C 0.99497 0.37062 0.17362 0.0
C509 C 0.95261 0.33435 0.17634 0.0
C510 C 0.94189 0.31887 0.21262 0.0
C511 C 0.90314 0.32412 0.22584 0.0
C512 C 0.93199 0.27056 0.21628 0.0
C513 C 0.98519 0.3514 0.22972 0.0
C514 C 0.01499 0.38149 0.20682 0.0
C515 C 0.05794 0.41336 0.21617 0.0
C516 C 0.07119 0.4139 0.24955 0.0
C517 C 0.04183 0.38245 0.27329 0.0
C518 C -0.00207 0.3514 0.26326 0.0
H519 H 0.74539 0.098 0.57485 0.0
H520 H 0.63617 -0.00074 0.63459 0.0
H521 H 0.60327 0.95362 0.58331 0.0
H522 H 0.68414 0.08523 0.49587 0.0
H523 H 0.72972 0.09128 0.47026 0.0
H524 H 0.74048 0.11904 0.5104 0.0
H525 H 0.78514 0.08117 0.52893 0.0
H526 H 0.77442 0.05322 0.48899 0.0
H527 H 0.75913 0.02135 0.52736 0.0
H528 H 0.58493 0.91686 0.52557 0.0
H529 H 0.58624 0.88898 0.46847 0.0
H530 H 0.71106 0.00939 0.44818 0.0
C531 C 0.71383 0.0674 0.57699 0.0
C532 C 0.69275 0.05256 0.60855 0.0
C533 C 0.65248 0.01148 0.61055 0.0
C534 C 0.63357 0.98545 0.58155 0.0
C535 C 0.6557 0.00069 0.55086 0.0
C536 C 0.69518 0.04062 0.54852 0.0
C537 C 0.71515 0.04727 0.51361 0.0
C538 C 0.71749 0.08813 0.49653 0.0
C539 C 0.76116 0.05095 0.51482 0.0
C540 C 0.68118 0.00453 0.49671 0.0
C541 C 0.64662 0.97851 0.51834 0.0
C542 C 0.61176 0.9371 0.50844 0.0
C543 C 0.61272 0.92158 0.4759 0.0
C544 C 0.64875 0.94698 0.45385 0.0
C545 C 0.68303 0.98923 0.46441 0.0
H546 H 0.64323 0.71627 0.91068 0.0
H547 H 0.68328 0.64048 0.97348 0.0
H548 H 0.6839 0.5979 0.92362 0.0
H549 H 0.57627 0.62715 0.84766 0.0
H550 H 0.59675 0.66605 0.81319 0.0
H551 H 0.59083 0.68429 0.85443 0.0
H552 H 0.67362 0.7461 0.85327 0.0
H553 H 0.67977 0.72807 0.81218 0.0
H554 H 0.71574 0.73111 0.84594 0.0
H555 H 0.68749 0.56893 0.86644 0.0
H556 H 0.70076 0.56072 0.80655 0.0
H557 H 0.66325 0.65893 0.78019 0.0
C558 C 0.65056 0.6896 0.91402 0.0
C559 C 0.66223 0.68086 0.94599 0.0
C560 C 0.67363 0.64716 0.94926 0.0
C561 C 0.6739 0.62274 0.9211 0.0
C562 C 0.66323 0.63281 0.88973 0.0
C563 C 0.65204 0.66566 0.886 0.0
C564 C 0.64794 0.67419 0.8491 0.0
C565 C 0.60009 0.66219 0.8406 0.0
C566 C 0.68125 0.72273 0.83958 0.0
C567 C 0.65984 0.64198 0.83265 0.0
C568 C 0.66744 0.61764 0.85654 0.0
C569 C 0.68114 0.58745 0.84752 0.0
C570 C 0.68851 0.58295 0.81335 0.0
C571 C 0.68292 0.60903 0.78854 0.0
C572 C 0.66734 0.6381 0.79842 0.0
H573 H 0.98604 0.65181 0.111 0.0
H574 H 0.12068 0.69652 0.14441 0.0
H575 H 0.0935 0.67515 0.20264 0.0
H576 H 0.95303 0.69099 0.17859 0.0
H577 H 0.89715 0.64461 0.18122 0.0
H578 H 0.92619 0.65829 0.14167 0.0
H579 H 0.91338 0.57818 0.13689 0.0
H580 H 0.88398 0.56411 0.17643 0.0
H581 H 0.93085 0.55583 0.17067 0.0
H582 H 0.05347 0.66075 0.25834 0.0
H583 H 0.00235 0.64713 0.30616 0.0
H584 H 0.89296 0.60593 0.23645 0.0
C585 C 0.00966 0.65603 0.13041 0.0
C586 C 0.05552 0.67576 0.12306 0.0
C587 C 0.08536 0.68112 0.14929 0.0
C588 C 0.07024 0.66918 0.18252 0.0
C589 C 0.025 0.65103 0.18908 0.0
C590 C 0.995 0.64359 0.16363 0.0
C591 C 0.94844 0.62552 0.17758 0.0
C592 C 0.93016 0.65673 0.16927 0.0
C593 C 0.91733 0.57809 0.16462 0.0
C594 C 0.95719 0.62555 0.21494 0.0
C595 C 0.00159 0.64043 0.22109 0.0
C596 C 0.01843 0.64784 0.25379 0.0
C597 C 0.98925 0.64012 0.2808 0.0
C598 C 0.94362 0.62445 0.275 0.0
C599 C 0.92741 0.61643 0.24164 0.0
H600 H 0.28663 0.96913 0.44329 0.0
H601 H 0.39413 0.10329 0.46256 0.0
H602 H 0.40085 0.08163 0.52038 0.0
H603 H 0.2345 0.95125 0.51985 0.0
H604 H 0.21951 0.89367 0.52414 0.0
H605 H 0.22707 0.91783 0.48299 0.0
H606 H 0.28559 0.89469 0.46886 0.0
H607 H 0.27803 0.87016 0.51002 0.0
H608 H 0.33269 0.9117 0.49623 0.0
H609 H 0.38637 0.04938 0.57877 0.0
H610 H 0.35682 0.00643 0.63149 0.0
H611 H 0.26374 0.89142 0.57372 0.0
C612 C 0.31242 0.99362 0.45937 0.0
C613 C 0.33992 0.03793 0.44829 0.0
C614 C 0.37292 0.06907 0.47028 0.0
C615 C 0.37694 0.05709 0.50326 0.0
C616 C 0.3484 0.01353 0.51375 0.0
C617 C 0.31741 0.98198 0.49222 0.0
C618 C 0.28917 0.93812 0.51027 0.0
C619 C 0.23965 0.92445 0.50925 0.0
C620 C 0.29684 0.9015 0.49546 0.0
C621 C 0.30776 0.95048 0.54563 0.0
C622 C 0.34196 0.99417 0.54712 0.0
C623 C 0.36067 0.01473 0.57775 0.0
C624 C 0.34373 0.99019 0.60755 0.0
C625 C 0.30908 0.94535 0.60648 0.0
C626 C 0.29152 0.92511 0.57506 0.0
H627 H 0.29351 0.31798 0.9404 0.0
H628 H 0.4129 0.31089 0.92145 0.0
H629 H 0.41624 0.33855 0.86371 0.0
H630 H 0.24414 0.27801 0.86372 0.0
H631 H 0.22062 0.31379 0.85939 0.0
H632 H 0.23123 0.29988 0.90056 0.0
H633 H 0.27982 0.38363 0.915 0.0
H634 H 0.26908 0.39787 0.87385 0.0
H635 H 0.32547 0.4192 0.88781 0.0
H636 H 0.39955 0.3553 0.80532 0.0
H637 H 0.36702 0.36472 0.75274 0.0
H638 H 0.26082 0.36442 0.81052 0.0
C639 C 0.32112 0.32346 0.92447 0.0
C640 C 0.35305 0.31238 0.9356 0.0
C641 C 0.38823 0.31945 0.91369 0.0
C642 C 0.39038 0.33511 0.88077 0.0
C643 C 0.3575 0.34426 0.87021 0.0
C644 C 0.32395 0.33941 0.89164 0.0
C645 C 0.29101 0.34864 0.87356 0.0
C646 C 0.244 0.30764 0.87436 0.0
C647 C 0.29139 0.38979 0.88844 0.0
C648 C 0.31026 0.35775 0.83831 0.0
C649 C 0.34875 0.3553 0.83686 0.0
C650 C 0.37005 0.35837 0.80633 0.0
C651 C 0.35131 0.36362 0.77657 0.0
C652 C 0.31184 0.36608 0.77755 0.0
C653 C 0.29169 0.36389 0.80899 0.0
H654 H 0.09639 0.36835 0.46791 0.0
H655 H 0.21561 0.48934 0.43811 0.0
H656 H 0.24737 0.49528 0.49448 0.0
H657 H 0.09658 0.40271 0.55838 0.0
H658 H 0.07671 0.34673 0.57307 0.0
H659 H 0.06076 0.35599 0.53209 0.0
H660 H 0.09088 0.30778 0.50575 0.0
H661 H 0.10804 0.29951 0.54649 0.0
H662 H 0.14795 0.32279 0.51277 0.0
H663 H 0.2715 0.48143 0.55047 0.0
H664 H 0.28031 0.45556 0.60658 0.0
H665 H 0.14495 0.34547 0.60079 0.0
C666 C 0.12823 0.39715 0.4738 0.0
C667 C 0.15339 0.42853 0.44871 0.0
C668 C 0.19566 0.46503 0.45704 0.0
C669 C 0.21414 0.46859 0.48894 0.0
C670 C 0.18976 0.43568 0.51249 0.0
C671 C 0.14722 0.40131 0.50572 0.0
C672 C 0.1292 0.3691 0.535 0.0
C673 C 0.0884 0.36863 0.55056 0.0
C674 C 0.1184 0.32203 0.52434 0.0
C675 C 0.16866 0.39012 0.55863 0.0
C676 C 0.20337 0.42836 0.54517 0.0
C677 C 0.24423 0.45198 0.56162 0.0
C678 C 0.24919 0.43684 0.59322 0.0
C679 C 0.21333 0.39878 0.60798 0.0
C680 C 0.17283 0.37501 0.5902 0.0
H681 H 0.78488 0.18268 0.93552 0.0
H682 H 0.8886 0.32142 0.93177 0.0
H683 H 0.88027 0.32045 0.86977 0.0
H684 H 0.81919 0.1492 0.86292 0.0
H685 H 0.7637 0.10948 0.84948 0.0
H686 H 0.77518 0.1225 0.89345 0.0
H687 H 0.71361 0.14383 0.89631 0.0
H688 H 0.70209 0.13115 0.85223 0.0
H689 H 0.71561 0.1853 0.86795 0.0
H690 H 0.8621 0.3035 0.80868 0.0
H691 H 0.84158 0.27095 0.75209 0.0
H692 H 0.75119 0.14178 0.79539 0.0
C693 C 0.80549 0.21315 0.92177 0.0
C694 C 0.8371 0.25241 0.93848 0.0
C695 C 0.86412 0.29114 0.91947 0.0
C696 C 0.85938 0.29089 0.88434 0.0
C697 C 0.82776 0.25157 0.86876 0.0
C698 C 0.80159 0.21329 0.88684 0.0
C699 C 0.77251 0.17447 0.86392 0.0
C700 C 0.78332 0.1367 0.86767 0.0
C701 C 0.72302 0.15771 0.8705 0.0
C702 C 0.78673 0.19672 0.82988 0.0
C703 C 0.81814 0.24135 0.83338 0.0
C704 C 0.83751 0.26868 0.80568 0.0
C705 C 0.82559 0.24974 0.7736 0.0
C706 C 0.79481 0.20369 0.76928 0.0
C707 C 0.77432 0.1771 0.79786 0.0
H708 H 0.58777 0.85764 0.24703 0.0
H709 H 0.72403 0.91076 0.27947 0.0
H710 H 0.74102 0.88488 0.2264 0.0
H711 H 0.5732 0.76121 0.21284 0.0
H712 H 0.54037 0.75922 0.17714 0.0
H713 H 0.54001 0.78785 0.21486 0.0
H714 H 0.56493 0.8608 0.18162 0.0
H715 H 0.56332 0.83186 0.14349 0.0
H716 H 0.61333 0.88228 0.15495 0.0
H717 H 0.7392 0.84157 0.17388 0.0
H718 H 0.72391 0.80146 0.11947 0.0
H719 H 0.58946 0.77896 0.12133 0.0
C720 C 0.62171 0.86577 0.24221 0.0
C721 C 0.65473 0.88671 0.26714 0.0
C722 C 0.69851 0.89577 0.26037 0.0
C723 C 0.70824 0.88044 0.23053 0.0
C724 C 0.67399 0.85693 0.20756 0.0
C725 C 0.63202 0.85115 0.21251 0.0
C726 C 0.60065 0.82374 0.18456 0.0
C727 C 0.56125 0.78046 0.19819 0.0
C728 C 0.58464 0.85132 0.16498 0.0
C729 C 0.63121 0.81415 0.16345 0.0
C730 C 0.67323 0.833 0.17728 0.0
C731 C 0.70657 0.82722 0.16261 0.0
C732 C 0.69739 0.80371 0.13204 0.0
C733 C 0.65542 0.78682 0.11643 0.0
C734 C 0.62173 0.7912 0.13289 0.0
H735 H 0.85522 0.61387 0.45733 0.0
H736 H 0.72135 0.5503 0.41657 0.0
H737 H 0.69182 0.55186 0.47229 0.0
H738 H 0.82415 0.55438 0.53646 0.0
H739 H 0.86401 0.60149 0.56063 0.0
H740 H 0.87495 0.59611 0.51709 0.0
H741 H 0.88572 0.67442 0.50526 0.0
H742 H 0.87409 0.67967 0.54869 0.0
H743 H 0.8419 0.68588 0.51586 0.0
H744 H 0.67599 0.56161 0.53241 0.0
H745 H 0.67535 0.57099 0.59432 0.0
H746 H 0.81821 0.62585 0.59618 0.0
C747 C 0.81972 0.60001 0.46019 0.0
C748 C 0.79086 0.58222 0.43236 0.0
C749 C 0.74446 0.56435 0.43732 0.0
C750 C 0.72716 0.5652 0.46893 0.0
C751 C 0.75646 0.58375 0.49564 0.0
C752 C 0.80166 0.60025 0.4918 0.0
C753 C 0.82552 0.61696 0.52504 0.0
C754 C 0.84849 0.59065 0.53541 0.0
C755 C 0.85877 0.66722 0.52361 0.0
C756 C 0.78665 0.60689 0.54794 0.0
C757 C 0.74714 0.58834 0.53048 0.0
C758 C 0.70674 0.57608 0.54646 0.0
C759 C 0.70662 0.58176 0.5815 0.0
C760 C 0.74658 0.59894 0.59994 0.0
C761 C 0.78704 0.61241 0.58271 0.0
H762 H 0.18165 0.72223 0.92463 0.0
H763 H 0.08742 0.76768 0.94127 0.0
H764 H 0.1087 0.8073 0.8868 0.0
H765 H 0.2655 0.81716 0.88956 0.0
H766 H 0.282 0.79111 0.85777 0.0
H767 H 0.25615 0.76166 0.89597 0.0
H768 H 0.19419 0.69602 0.86223 0.0
H769 H 0.22109 0.72424 0.82388 0.0
H770 H 0.16348 0.70711 0.83095 0.0
H771 H 0.14963 0.85205 0.83519 0.0
H772 H 0.19017 0.88004 0.78139 0.0
H773 H 0.25336 0.80075 0.79633 0.0
C774 C 0.16394 0.73867 0.91595 0.0
C775 C 0.13238 0.74134 0.93683 0.0
C776 C 0.11077 0.76423 0.92522 0.0
C777 C 0.12332 0.78757 0.89462 0.0
C778 C 0.15675 0.78673 0.87568 0.0
C779 C 0.17533 0.76124 0.88515 0.0
C780 C 0.21031 0.76564 0.86016 0.0
C781 C 0.25619 0.78504 0.87688 0.0
C782 C 0.19643 0.72059 0.84329 0.0
C783 C 0.20926 0.79839 0.83555 0.0
C784 C 0.17886 0.81093 0.84532 0.0
C785 C 0.17309 0.842 0.82707 0.0
C786 C 0.19693 0.85846 0.79692 0.0
C787 C 0.22543 0.84315 0.78514 0.0
C788 C 0.23248 0.81368 0.80519 0.0
H789 H 0.40161 0.15427 0.25433 0.0
H790 H 0.25933 0.07558 0.26923 0.0
H791 H 0.24728 0.10408 0.21549 0.0
H792 H 0.40488 0.2482 0.22377 0.0
H793 H 0.44759 0.26171 0.19268 0.0
H794 H 0.44547 0.23088 0.22967 0.0
H795 H 0.44104 0.16662 0.19326 0.0
H796 H 0.44541 0.19825 0.15615 0.0
H797 H 0.39951 0.14233 0.16075 0.0
H798 H 0.25191 0.15004 0.16376 0.0
H799 H 0.272 0.19427 0.11121 0.0
H800 H 0.4112 0.2414 0.13066 0.0
C801 C 0.36791 0.14145 0.24546 0.0
C802 C 0.33136 0.11218 0.26557 0.0
C803 C 0.28772 0.09703 0.25372 0.0
C804 C 0.28064 0.11376 0.22356 0.0
C805 C 0.31759 0.14504 0.20548 0.0
C806 C 0.36034 0.15746 0.21543 0.0
C807 C 0.39452 0.19195 0.192 0.0
C808 C 0.42489 0.23576 0.21066 0.0
C809 C 0.4217 0.17369 0.17449 0.0
C810 C 0.36444 0.19758 0.1675 0.0
C811 C 0.32019 0.17081 0.17588 0.0
C812 C 0.28645 0.17083 0.15686 0.0
C813 C 0.29818 0.19673 0.1274 0.0
C814 C 0.34316 0.22169 0.11718 0.0
C815 C 0.37661 0.2232 0.1382 0.0
loop_
_geom_bond_atom_site_label_1
_geom_bond_atom_site_label_2
_geom_bond_distance
_geom_bond_site_symmetry_2
_ccdc_geom_bond_type
O0 Cd1 2.223 . S
O0 C8 1.315 . S
Cd1 O0 2.223 . S
Cd1 O4 2.297 . S
Cd1 O5 2.439 . S
Cd1 O11 2.240 . S
Cd2 O3 2.240 . S
Cd2 O10 2.223 . S
Cd2 O12 2.297 . S
Cd2 O13 2.439 . S
O3 Cd2 2.240 . S
O3 C8 1.279 . S
O4 Cd1 2.297 . S
O4 C6 1.247 . S
O5 Cd1 2.439 . S
O5 C6 1.208 . S
C6 O4 1.247 . S
C6 O5 1.208 . S
C7 O12 1.247 . S
C7 O13 1.208 . S
C8 O0 1.315 . S
C8 O3 1.279 . S
C9 O10 1.315 . S
C9 O11 1.279 . S
O10 Cd2 2.223 . S
O10 C9 1.315 . S
O11 Cd1 2.240 . S
O11 C9 1.279 . S
O12 Cd2 2.297 . S
O12 C7 1.247 . S
O13 Cd2 2.439 . S
O13 C7 1.208 . S
O14 Cd15 2.223 . S
O14 C22 1.315 . S
Cd15 O14 2.223 . S
Cd15 O18 2.297 . S
Cd15 O19 2.439 . S
Cd15 O25 2.240 . S
Cd16 O17 2.240 . S
Cd16 O24 2.223 . S
Cd16 O26 2.297 . S
Cd16 O27 2.439 . S
O17 Cd16 2.240 . S
O17 C22 1.279 . S
O18 Cd15 2.297 . S
O18 C20 1.247 . S
O19 Cd15 2.439 . S
O19 C20 1.208 . S
C20 O18 1.247 . S
C20 O19 1.208 . S
C21 O26 1.247 . S
C21 O27 1.208 . S
C22 O14 1.315 . S
C22 O17 1.279 . S
C23 O24 1.315 . S
C23 O25 1.279 . S
O24 Cd16 2.223 . S
O24 C23 1.315 . S
O25 Cd15 2.240 . S
O25 C23 1.279 . S
O26 Cd16 2.297 . S
O26 C21 1.247 . S
O27 Cd16 2.439 . S
O27 C21 1.208 . S
O28 Cd29 2.223 . S
O28 C36 1.315 . S
Cd29 O28 2.223 . S
Cd29 O32 2.297 . S
Cd29 O33 2.439 1_554 S
Cd29 O39 2.240 1_554 S
Cd30 O31 2.240 . S
Cd30 O38 2.223 . S
Cd30 O40 2.297 1_554 S
Cd30 O41 2.439 1_554 S
O31 Cd30 2.240 . S
O31 C36 1.279 . S
O32 Cd29 2.297 . S
O32 C34 1.247 . S
O33 Cd29 2.439 1_556 S
O33 C34 1.208 1_556 S
C34 O32 1.247 . S
C34 O33 1.208 1_554 S
C35 O40 1.247 . S
C35 O41 1.208 . S
C36 O28 1.315 . S
C36 O31 1.279 . S
C37 O38 1.310 1_556 S
C37 O39 1.286 . S
O38 Cd30 2.223 . S
O38 C37 1.310 1_554 S
O39 Cd29 2.240 1_556 S
O39 C37 1.286 . S
O40 Cd30 2.297 1_556 S
O40 C35 1.247 . S
O41 Cd30 2.439 1_556 S
O41 C35 1.208 . S
O42 Cd43 2.223 . S
O42 C50 1.315 . S
Cd43 O42 2.223 . S
Cd43 O46 2.297 . S
Cd43 O47 2.439 . S
Cd43 O53 2.240 . S
Cd44 O45 2.240 . S
Cd44 O52 2.223 . S
Cd44 O54 2.297 . S
Cd44 O55 2.439 . S
O45 Cd44 2.240 . S
O45 C50 1.279 . S
O46 Cd43 2.297 . S
O46 C48 1.247 . S
O47 Cd43 2.439 . S
O47 C48 1.208 . S
C48 O46 1.247 . S
C48 O47 1.208 . S
C49 O54 1.247 . S
C49 O55 1.208 . S
C50 O42 1.315 . S
C50 O45 1.279 . S
C51 O52 1.315 . S
C51 O53 1.279 . S
O52 Cd44 2.223 . S
O52 C51 1.315 . S
O53 Cd43 2.240 . S
O53 C51 1.279 . S
O54 Cd44 2.297 . S
O54 C49 1.247 . S
O55 Cd44 2.439 . S
O55 C49 1.208 . S
O56 Cd57 2.223 . S
O56 C64 1.315 . S
Cd57 O56 2.223 . S
Cd57 O60 2.297 . S
Cd57 O61 2.439 . S
Cd57 O67 2.240 . S
Cd58 O59 2.240 . S
Cd58 O66 2.223 . S
Cd58 O68 2.297 . S
Cd58 O69 2.439 . S
O59 Cd58 2.240 . S
O59 C64 1.279 . S
O60 Cd57 2.297 . S
O60 C62 1.247 . S
O61 Cd57 2.439 . S
O61 C62 1.208 . S
C62 O60 1.247 . S
C62 O61 1.208 . S
C63 O68 1.247 . S
C63 O69 1.208 . S
C64 O56 1.315 . S
C64 O59 1.279 . S
C65 O66 1.315 . S
C65 O67 1.279 . S
O66 Cd58 2.223 . S
O66 C65 1.315 . S
O67 Cd57 2.240 . S
O67 C65 1.279 . S
O68 Cd58 2.297 . S
O68 C63 1.247 . S
O69 Cd58 2.439 . S
O69 C63 1.208 . S
O70 Cd71 2.223 . S
O70 C78 1.315 . S
Cd71 O70 2.223 . S
Cd71 O74 2.297 . S
Cd71 O75 2.439 1_554 S
Cd71 O81 2.240 1_554 S
Cd72 O73 2.240 . S
Cd72 O80 2.223 . S
Cd72 O82 2.297 1_554 S
Cd72 O83 2.439 1_554 S
O73 Cd72 2.240 . S
O73 C78 1.279 . S
O74 Cd71 2.297 . S
O74 C76 1.247 . S
O75 Cd71 2.439 1_556 S
O75 C76 1.208 1_556 S
C76 O74 1.247 . S
C76 O75 1.208 1_554 S
C77 O82 1.247 . S
C77 O83 1.208 . S
C78 O70 1.315 . S
C78 O73 1.279 . S
C79 O80 1.310 1_556 S
C79 O81 1.286 . S
O80 Cd72 2.223 . S
O80 C79 1.310 1_554 S
O81 Cd71 2.240 1_556 S
O81 C79 1.286 . S
O82 Cd72 2.297 1_556 S
O82 C77 1.247 . S
O83 Cd72 2.439 1_556 S
O83 C77 1.208 . S
O84 Cd85 2.223 . S
O84 C92 1.315 . S
Cd85 O84 2.223 . S
Cd85 O88 2.297 . S
Cd85 O89 2.439 . S
Cd85 O95 2.240 . S
Cd86 O87 2.240 . S
Cd86 O94 2.223 . S
Cd86 O96 2.297 . S
Cd86 O97 2.439 . S
O87 Cd86 2.240 . S
O87 C92 1.279 . S
O88 Cd85 2.297 . S
O88 C90 1.247 . S
O89 Cd85 2.439 . S
O89 C90 1.208 . S
C90 O88 1.247 . S
C90 O89 1.208 . S
C91 O96 1.247 . S
C91 O97 1.208 . S
C92 O84 1.315 . S
C92 O87 1.279 . S
C93 O94 1.315 . S
C93 O95 1.279 . S
O94 Cd86 2.223 . S
O94 C93 1.315 . S
O95 Cd85 2.240 . S
O95 C93 1.279 . S
O96 Cd86 2.297 . S
O96 C91 1.247 . S
O97 Cd86 2.439 . S
O97 C91 1.208 . S
O98 Cd99 2.223 . S
O98 C106 1.315 . S
Cd99 O98 2.223 . S
Cd99 O102 2.297 . S
Cd99 O103 2.439 . S
Cd99 O109 2.240 . S
Cd100 O101 2.240 . S
Cd100 O108 2.223 . S
Cd100 O110 2.297 . S
Cd100 O111 2.439 . S
O101 Cd100 2.240 . S
O101 C106 1.279 . S
O102 Cd99 2.297 . S
O102 C104 1.247 . S
O103 Cd99 2.439 . S
O103 C104 1.208 . S
C104 O102 1.247 . S
C104 O103 1.208 . S
C105 O110 1.247 . S
C105 O111 1.208 . S
C106 O98 1.315 . S
C106 O101 1.279 . S
C107 O108 1.315 . S
C107 O109 1.279 . S
O108 Cd100 2.223 . S
O108 C107 1.315 . S
O109 Cd99 2.240 . S
O109 C107 1.279 . S
O110 Cd100 2.297 . S
O110 C105 1.247 . S
O111 Cd100 2.439 . S
O111 C105 1.208 . S
O112 Cd113 2.223 . S
O112 C120 1.315 . S
Cd113 O112 2.223 . S
Cd113 O116 2.297 . S
Cd113 O117 2.439 1_556 S
Cd113 O123 2.240 1_556 S
Cd114 O115 2.240 . S
Cd114 O122 2.223 . S
Cd114 O124 2.297 1_556 S
Cd114 O125 2.439 1_556 S
O115 Cd114 2.240 . S
O115 C120 1.279 . S
O116 Cd113 2.297 . S
O116 C118 1.247 . S
O117 Cd113 2.439 1_554 S
O117 C118 1.208 1_554 S
C118 O116 1.247 . S
C118 O117 1.208 1_556 S
C119 O124 1.247 . S
C119 O125 1.208 . S
C120 O112 1.315 . S
C120 O115 1.279 . S
C121 O122 1.310 1_554 S
C121 O123 1.286 . S
O122 Cd114 2.223 . S
O122 C121 1.310 1_556 S
O123 Cd113 2.240 1_554 S
O123 C121 1.286 . S
O124 Cd114 2.297 1_554 S
O124 C119 1.247 . S
O125 Cd114 2.439 1_554 S
O125 C119 1.208 . S
O126 Cd127 2.223 . S
O126 C134 1.315 . S
Cd127 O126 2.223 . S
Cd127 O130 2.297 . S
Cd127 O131 2.439 . S
Cd127 O137 2.240 . S
Cd128 O129 2.240 . S
Cd128 O136 2.223 . S
Cd128 O138 2.297 . S
Cd128 O139 2.439 . S
O129 Cd128 2.240 . S
O129 C134 1.279 . S
O130 Cd127 2.297 . S
O130 C132 1.247 . S
O131 Cd127 2.439 . S
O131 C132 1.208 . S
C132 O130 1.247 . S
C132 O131 1.208 . S
C133 O138 1.247 . S
C133 O139 1.208 . S
C134 O126 1.315 . S
C134 O129 1.279 . S
C135 O136 1.315 . S
C135 O137 1.279 . S
O136 Cd128 2.223 . S
O136 C135 1.315 . S
O137 Cd127 2.240 . S
O137 C135 1.279 . S
O138 Cd128 2.297 . S
O138 C133 1.247 . S
O139 Cd128 2.439 . S
O139 C133 1.208 . S
O140 Cd141 2.223 . S
O140 C148 1.315 . S
Cd141 O140 2.223 . S
Cd141 O144 2.297 . S
Cd141 O145 2.439 . S
Cd141 O151 2.240 . S
Cd142 O143 2.240 . S
Cd142 O150 2.223 . S
Cd142 O152 2.297 . S
Cd142 O153 2.439 . S
O143 Cd142 2.240 . S
O143 C148 1.279 . S
O144 Cd141 2.297 . S
O144 C146 1.247 . S
O145 Cd141 2.439 . S
O145 C146 1.208 . S
C146 O144 1.247 . S
C146 O145 1.208 . S
C147 O152 1.247 . S
C147 O153 1.208 . S
C148 O140 1.315 . S
C148 O143 1.279 . S
C149 O150 1.315 . S
C149 O151 1.279 . S
O150 Cd142 2.223 . S
O150 C149 1.315 . S
O151 Cd141 2.240 . S
O151 C149 1.279 . S
O152 Cd142 2.297 . S
O152 C147 1.247 . S
O153 Cd142 2.439 . S
O153 C147 1.208 . S
O154 Cd155 2.223 . S
O154 C162 1.315 . S
Cd155 O154 2.223 . S
Cd155 O158 2.297 . S
Cd155 O159 2.439 1_556 S
Cd155 O165 2.240 1_556 S
Cd156 O157 2.240 . S
Cd156 O164 2.223 . S
Cd156 O166 2.297 1_556 S
Cd156 O167 2.439 1_556 S
O157 Cd156 2.240 . S
O157 C162 1.279 . S
O158 Cd155 2.297 . S
O158 C160 1.247 . S
O159 Cd155 2.439 1_554 S
O159 C160 1.208 1_554 S
C160 O158 1.247 . S
C160 O159 1.208 1_556 S
C161 O166 1.247 . S
C161 O167 1.208 . S
C162 O154 1.315 . S
C162 O157 1.279 . S
C163 O164 1.310 1_554 S
C163 O165 1.286 . S
O164 Cd156 2.223 . S
O164 C163 1.310 1_556 S
O165 Cd155 2.240 1_554 S
O165 C163 1.286 . S
O166 Cd156 2.297 1_554 S
O166 C161 1.247 . S
O167 Cd156 2.439 1_554 S
O167 C161 1.208 . S
H168 C180 0.930 . S
H169 C182 0.930 . S
H170 C183 0.930 . S
H171 C187 0.959 . S
H172 C187 0.959 . S
H173 C187 0.961 . S
H174 C188 0.960 . S
H175 C188 0.961 . S
H176 C188 0.959 . S
H177 C191 0.929 . S
H178 C192 0.931 . S
H179 C194 0.930 . S
C180 H168 0.930 . S
C180 C181 1.399 . S
C180 C185 1.399 . S
C181 C180 1.399 . S
C181 C182 1.376 . S
C182 H169 0.930 . S
C182 C181 1.376 . S
C182 C183 1.388 . S
C183 H170 0.930 . S
C183 C182 1.388 . S
C183 C184 1.390 . S
C184 C183 1.390 . S
C184 C185 1.394 . S
C184 C190 1.465 . S
C185 C180 1.399 . S
C185 C184 1.394 . S
C185 C186 1.516 . S
C186 C185 1.516 . S
C186 C187 1.502 . S
C186 C188 1.561 . S
C186 C189 1.526 . S
C187 H171 0.959 . S
C187 H172 0.959 . S
C187 H173 0.961 . S
C187 C186 1.502 . S
C188 H174 0.960 . S
C188 H175 0.961 . S
C188 H176 0.959 . S
C188 C186 1.561 . S
C189 C186 1.526 . S
C189 C190 1.396 . S
C189 C194 1.390 . S
C190 C184 1.465 . S
C190 C189 1.396 . S
C190 C191 1.399 . S
C191 H177 0.929 . S
C191 C190 1.399 . S
C191 C192 1.385 . S
C192 H178 0.931 . S
C192 C191 1.385 . S
C192 C193 1.389 . S
C193 C192 1.389 . S
C193 C194 1.387 . S
C194 H179 0.930 . S
C194 C189 1.390 . S
C194 C193 1.387 . S
H195 C207 0.930 . S
H196 C209 0.930 . S
H197 C210 0.930 . S
H198 C214 0.959 . S
H199 C214 0.959 . S
H200 C214 0.961 . S
H201 C215 0.960 . S
H202 C215 0.961 . S
H203 C215 0.959 . S
H204 C218 0.929 . S
H205 C219 0.931 . S
H206 C221 0.930 . S
C207 H195 0.930 . S
C207 C208 1.399 . S
C207 C212 1.399 . S
C208 C207 1.399 . S
C208 C209 1.376 . S
C209 H196 0.930 . S
C209 C208 1.376 . S
C209 C210 1.388 . S
C210 H197 0.930 . S
C210 C209 1.388 . S
C210 C211 1.390 . S
C211 C210 1.390 . S
C211 C212 1.394 . S
C211 C217 1.465 . S
C212 C207 1.399 . S
C212 C211 1.394 . S
C212 C213 1.516 . S
C213 C212 1.516 . S
C213 C214 1.502 . S
C213 C215 1.561 . S
C213 C216 1.526 . S
C214 H198 0.959 . S
C214 H199 0.959 . S
C214 H200 0.961 . S
C214 C213 1.502 . S
C215 H201 0.960 . S
C215 H202 0.961 . S
C215 H203 0.959 . S
C215 C213 1.561 . S
C216 C213 1.526 . S
C216 C217 1.396 . S
C216 C221 1.390 . S
C217 C211 1.465 . S
C217 C216 1.396 . S
C217 C218 1.399 . S
C218 H204 0.929 . S
C218 C217 1.399 . S
C218 C219 1.385 . S
C219 H205 0.931 . S
C219 C218 1.385 . S
C219 C220 1.389 . S
C220 C219 1.389 . S
C220 C221 1.387 . S
C221 H206 0.930 . S
C221 C216 1.390 . S
C221 C220 1.387 . S
H222 C234 0.930 . S
H223 C236 0.930 . S
H224 C237 0.930 . S
H225 C241 0.959 . S
H226 C241 0.959 . S
H227 C241 0.961 . S
H228 C242 0.960 . S
H229 C242 0.961 . S
H230 C242 0.959 . S
H231 C245 0.929 . S
H232 C246 0.931 . S
H233 C248 0.930 . S
C234 H222 0.930 . S
C234 C235 1.399 1_556 S
C234 C239 1.401 . S
C235 C234 1.399 1_554 S
C235 C236 1.376 . S
C236 H223 0.930 . S
C236 C235 1.376 . S
C236 C237 1.388 . S
C237 H224 0.930 . S
C237 C236 1.388 . S
C237 C238 1.390 . S
C238 C237 1.390 . S
C238 C239 1.389 1_554 S
C238 C244 1.465 . S
C239 C234 1.401 . S
C239 C238 1.389 1_556 S
C239 C240 1.519 . S
C240 C239 1.519 . S
C240 C241 1.502 . S
C240 C242 1.561 1_556 S
C240 C243 1.526 . S
C241 H225 0.959 . S
C241 H226 0.959 . S
C241 H227 0.961 . S
C241 C240 1.502 . S
C242 H228 0.960 . S
C242 H229 0.961 . S
C242 H230 0.959 . S
C242 C240 1.561 1_554 S
C243 C240 1.526 . S
C243 C244 1.396 1_556 S
C243 C248 1.390 . S
C244 C238 1.465 . S
C244 C243 1.396 1_554 S
C244 C245 1.399 . S
C245 H231 0.929 . S
C245 C244 1.399 . S
C245 C246 1.385 . S
C246 H232 0.931 . S
C246 C245 1.385 . S
C246 C247 1.394 . S
C247 C246 1.394 . S
C247 C248 1.384 1_554 S
C248 H233 0.930 . S
C248 C243 1.390 . S
C248 C247 1.384 1_556 S
H249 C261 0.930 . S
H250 C263 0.930 . S
H251 C264 0.930 . S
H252 C268 0.959 . S
H253 C268 0.959 . S
H254 C268 0.961 . S
H255 C269 0.960 . S
H256 C269 0.961 . S
H257 C269 0.959 . S
H258 C272 0.929 . S
H259 C273 0.931 . S
H260 C275 0.930 . S
C261 H249 0.930 . S
C261 C262 1.399 . S
C261 C266 1.399 . S
C262 C261 1.399 . S
C262 C263 1.376 . S
C263 H250 0.930 . S
C263 C262 1.376 . S
C263 C264 1.388 . S
C264 H251 0.930 . S
C264 C263 1.388 . S
C264 C265 1.390 . S
C265 C264 1.390 . S
C265 C266 1.394 . S
C265 C271 1.465 . S
C266 C261 1.399 . S
C266 C265 1.394 . S
C266 C267 1.516 . S
C267 C266 1.516 . S
C267 C268 1.502 . S
C267 C269 1.561 . S
C267 C270 1.526 . S
C268 H252 0.959 . S
C268 H253 0.959 . S
C268 H254 0.961 . S
C268 C267 1.502 . S
C269 H255 0.960 . S
C269 H256 0.961 . S
C269 H257 0.959 . S
C269 C267 1.561 . S
C270 C267 1.526 . S
C270 C271 1.396 . S
C270 C275 1.390 . S
C271 C265 1.465 . S
C271 C270 1.396 . S
C271 C272 1.399 . S
C272 H258 0.929 . S
C272 C271 1.399 . S
C272 C273 1.385 . S
C273 H259 0.931 . S
C273 C272 1.385 . S
C273 C274 1.389 . S
C274 C273 1.389 . S
C274 C275 1.387 . S
C275 H260 0.930 . S
C275 C270 1.390 . S
C275 C274 1.387 . S
H276 C288 0.930 . S
H277 C290 0.930 . S
H278 C291 0.930 . S
H279 C295 0.959 . S
H280 C295 0.959 . S
H281 C295 0.961 . S
H282 C296 0.960 . S
H283 C296 0.961 . S
H284 C296 0.959 . S
H285 C299 0.929 . S
H286 C300 0.931 . S
H287 C302 0.930 . S
C288 H276 0.930 . S
C288 C289 1.399 . S
C288 C293 1.399 . S
C289 C288 1.399 . S
C289 C290 1.376 . S
C290 H277 0.930 . S
C290 C289 1.376 . S
C290 C291 1.388 . S
C291 H278 0.930 . S
C291 C290 1.388 . S
C291 C292 1.390 . S
C292 C291 1.390 . S
C292 C293 1.394 . S
C292 C298 1.465 . S
C293 C288 1.399 . S
C293 C292 1.394 . S
C293 C294 1.516 . S
C294 C293 1.516 . S
C294 C295 1.502 . S
C294 C296 1.561 . S
C294 C297 1.526 . S
C295 H279 0.959 . S
C295 H280 0.959 . S
C295 H281 0.961 . S
C295 C294 1.502 . S
C296 H282 0.960 . S
C296 H283 0.961 . S
C296 H284 0.959 . S
C296 C294 1.561 . S
C297 C294 1.526 . S
C297 C298 1.396 . S
C297 C302 1.390 . S
C298 C292 1.465 . S
C298 C297 1.396 . S
C298 C299 1.399 . S
C299 H285 0.929 . S
C299 C298 1.399 . S
C299 C300 1.385 . S
C300 H286 0.931 . S
C300 C299 1.385 . S
C300 C301 1.389 . S
C301 C300 1.389 . S
C301 C302 1.387 . S
C302 H287 0.930 . S
C302 C297 1.390 . S
C302 C301 1.387 . S
H303 C315 0.930 . S
H304 C317 0.931 . S
H305 C318 0.930 . S
H306 C322 0.959 . S
H307 C322 0.959 . S
H308 C322 0.961 . S
H309 C323 0.960 . S
H310 C323 0.961 . S
H311 C323 0.959 . S
H312 C326 0.931 . S
H313 C327 0.931 . S
H314 C329 0.930 . S
C315 H303 0.930 . S
C315 C316 1.401 . S
C315 C320 1.399 . S
C316 C315 1.401 . S
C316 C317 1.376 1_554 S
C317 H304 0.931 . S
C317 C316 1.376 1_556 S
C317 C318 1.388 . S
C318 H305 0.930 . S
C318 C317 1.388 . S
C318 C319 1.390 1_556 S
C319 C318 1.390 1_554 S
C319 C320 1.394 . S
C319 C325 1.465 . S
C320 C315 1.399 . S
C320 C319 1.394 . S
C320 C321 1.516 . S
C321 C320 1.516 . S
C321 C322 1.502 1_554 S
C321 C323 1.561 . S
C321 C324 1.526 . S
C322 H306 0.959 . S
C322 H307 0.959 . S
C322 H308 0.961 . S
C322 C321 1.502 1_556 S
C323 H309 0.960 . S
C323 H310 0.961 . S
C323 H311 0.959 . S
C323 C321 1.561 . S
C324 C321 1.526 . S
C324 C325 1.396 . S
C324 C329 1.390 . S
C325 C319 1.465 . S
C325 C324 1.396 . S
C325 C326 1.397 1_554 S
C326 H312 0.931 . S
C326 C325 1.397 1_556 S
C326 C327 1.386 . S
C327 H313 0.931 . S
C327 C326 1.386 . S
C327 C328 1.388 1_556 S
C328 C327 1.388 1_554 S
C328 C329 1.390 . S
C329 H314 0.930 . S
C329 C324 1.390 . S
C329 C328 1.390 . S
H330 C342 0.930 . S
H331 C344 0.930 . S
H332 C345 0.930 . S
H333 C349 0.959 . S
H334 C349 0.959 . S
H335 C349 0.961 . S
H336 C350 0.960 . S
H337 C350 0.961 . S
H338 C350 0.959 . S
H339 C353 0.929 . S
H340 C354 0.931 . S
H341 C356 0.930 . S
C342 H330 0.930 . S
C342 C343 1.399 . S
C342 C347 1.399 . S
C343 C342 1.399 . S
C343 C344 1.376 . S
C344 H331 0.930 . S
C344 C343 1.376 . S
C344 C345 1.388 . S
C345 H332 0.930 . S
C345 C344 1.388 . S
C345 C346 1.390 . S
C346 C345 1.390 . S
C346 C347 1.394 . S
C346 C352 1.465 . S
C347 C342 1.399 . S
C347 C346 1.394 . S
C347 C348 1.516 . S
C348 C347 1.516 . S
C348 C349 1.502 . S
C348 C350 1.561 . S
C348 C351 1.526 . S
C349 H333 0.959 . S
C349 H334 0.959 . S
C349 H335 0.961 . S
C349 C348 1.502 . S
C350 H336 0.960 . S
C350 H337 0.961 . S
C350 H338 0.959 . S
C350 C348 1.561 . S
C351 C348 1.526 . S
C351 C352 1.396 . S
C351 C356 1.390 . S
C352 C346 1.465 . S
C352 C351 1.396 . S
C352 C353 1.399 . S
C353 H339 0.929 . S
C353 C352 1.399 . S
C353 C354 1.385 . S
C354 H340 0.931 . S
C354 C353 1.385 . S
C354 C355 1.389 . S
C355 C354 1.389 . S
C355 C356 1.387 . S
C356 H341 0.930 . S
C356 C351 1.390 . S
C356 C355 1.387 . S
H357 C369 0.930 . S
H358 C371 0.930 . S
H359 C372 0.930 . S
H360 C376 0.960 . S
H361 C376 0.959 1_455 S
H362 C376 0.961 . S
H363 C377 0.960 . S
H364 C377 0.961 1_455 S
H365 C377 0.959 . S
H366 C380 0.929 . S
H367 C381 0.931 . S
H368 C383 0.930 . S
C369 H357 0.930 . S
C369 C370 1.399 . S
C369 C374 1.399 . S
C370 C369 1.399 . S
C370 C371 1.376 . S
C371 H358 0.930 . S
C371 C370 1.376 . S
C371 C372 1.388 . S
C372 H359 0.930 . S
C372 C371 1.388 . S
C372 C373 1.390 . S
C373 C372 1.390 . S
C373 C374 1.394 . S
C373 C379 1.465 1_655 S
C374 C369 1.399 . S
C374 C373 1.394 . S
C374 C375 1.516 . S
C375 C374 1.516 . S
C375 C376 1.502 . S
C375 C377 1.561 . S
C375 C378 1.526 1_655 S
C376 H360 0.960 . S
C376 H361 0.959 1_655 S
C376 H362 0.961 . S
C376 C375 1.502 . S
C377 H363 0.960 . S
C377 H364 0.961 1_655 S
C377 H365 0.959 . S
C377 C375 1.561 . S
C378 C375 1.526 1_455 S
C378 C379 1.396 . S
C378 C383 1.390 . S
C379 C373 1.465 1_455 S
C379 C378 1.396 . S
C379 C380 1.399 . S
C380 H366 0.929 . S
C380 C379 1.399 . S
C380 C381 1.385 . S
C381 H367 0.931 . S
C381 C380 1.385 . S
C381 C382 1.389 . S
C382 C381 1.389 . S
C382 C383 1.387 . S
C383 H368 0.930 . S
C383 C378 1.390 . S
C383 C382 1.387 . S
H384 C396 0.930 . S
H385 C398 0.930 . S
H386 C399 0.930 . S
H387 C403 0.959 . S
H388 C403 0.959 . S
H389 C403 0.961 1_545 S
H390 C404 0.945 1_545 S
H391 C404 0.971 . S
H392 C404 0.970 . S
H393 C407 0.929 . S
H394 C408 0.931 . S
H395 C410 0.930 . S
C396 H384 0.930 . S
C396 C397 1.399 1_556 S
C396 C401 1.399 . S
C397 C396 1.399 1_554 S
C397 C398 1.376 . S
C398 H385 0.930 . S
C398 C397 1.376 . S
C398 C399 1.388 . S
C399 H386 0.930 . S
C399 C398 1.388 . S
C399 C400 1.390 . S
C400 C399 1.390 . S
C400 C401 1.394 1_554 S
C400 C406 1.465 1_545 S
C401 C396 1.399 . S
C401 C400 1.394 1_556 S
C401 C402 1.511 1_545 S
C402 C401 1.511 1_565 S
C402 C403 1.498 . S
C402 C404 1.558 . S
C402 C405 1.533 . S
C403 H387 0.959 . S
C403 H388 0.959 . S
C403 H389 0.961 1_565 S
C403 C402 1.498 . S
C404 H390 0.945 1_565 S
C404 H391 0.971 . S
C404 H392 0.970 . S
C404 C402 1.558 . S
C405 C402 1.533 . S
C405 C406 1.396 1_556 S
C405 C410 1.390 . S
C406 C400 1.465 1_565 S
C406 C405 1.396 1_554 S
C406 C407 1.399 . S
C407 H393 0.929 . S
C407 C406 1.399 . S
C407 C408 1.385 . S
C408 H394 0.931 . S
C408 C407 1.385 . S
C408 C409 1.389 . S
C409 C408 1.389 . S
C409 C410 1.387 1_554 S
C410 H395 0.930 . S
C410 C405 1.390 . S
C410 C409 1.387 1_556 S
H411 C423 0.930 . S
H412 C425 0.930 . S
H413 C426 0.930 . S
H414 C430 0.959 . S
H415 C430 0.959 . S
H416 C430 0.961 . S
H417 C431 0.960 . S
H418 C431 0.961 . S
H419 C431 0.959 . S
H420 C434 0.929 . S
H421 C435 0.931 . S
H422 C437 0.930 . S
C423 H411 0.930 . S
C423 C424 1.399 . S
C423 C428 1.399 . S
C424 C423 1.399 . S
C424 C425 1.376 . S
C425 H412 0.930 . S
C425 C424 1.376 . S
C425 C426 1.388 . S
C426 H413 0.930 . S
C426 C425 1.388 . S
C426 C427 1.390 . S
C427 C426 1.390 . S
C427 C428 1.394 . S
C427 C433 1.465 . S
C428 C423 1.399 . S
C428 C427 1.394 . S
C428 C429 1.516 . S
C429 C428 1.516 . S
C429 C430 1.502 . S
C429 C431 1.561 . S
C429 C432 1.526 . S
C430 H414 0.959 . S
C430 H415 0.959 . S
C430 H416 0.961 . S
C430 C429 1.502 . S
C431 H417 0.960 . S
C431 H418 0.961 . S
C431 H419 0.959 . S
C431 C429 1.561 . S
C432 C429 1.526 . S
C432 C433 1.396 . S
C432 C437 1.390 . S
C433 C427 1.465 . S
C433 C432 1.396 . S
C433 C434 1.399 . S
C434 H420 0.929 . S
C434 C433 1.399 . S
C434 C435 1.385 . S
C435 H421 0.931 . S
C435 C434 1.385 . S
C435 C436 1.389 . S
C436 C435 1.389 . S
C436 C437 1.387 . S
C437 H422 0.930 . S
C437 C432 1.390 . S
C437 C436 1.387 . S
H438 C450 0.930 . S
H439 C452 0.930 . S
H440 C453 0.930 . S
H441 C457 0.959 . S
H442 C457 0.959 . S
H443 C457 0.961 1_455 S
H444 C458 0.960 1_455 S
H445 C458 0.961 . S
H446 C458 0.959 . S
H447 C461 0.929 . S
H448 C462 0.931 . S
H449 C464 0.930 . S
C450 H438 0.930 . S
C450 C451 1.399 . S
C450 C455 1.399 . S
C451 C450 1.399 . S
C451 C452 1.376 . S
C452 H439 0.930 . S
C452 C451 1.376 . S
C452 C453 1.388 . S
C453 H440 0.930 . S
C453 C452 1.388 . S
C453 C454 1.390 . S
C454 C453 1.390 . S
C454 C455 1.394 . S
C454 C460 1.465 1_455 S
C455 C450 1.399 . S
C455 C454 1.394 . S
C455 C456 1.516 1_455 S
C456 C455 1.516 1_655 S
C456 C457 1.502 . S
C456 C458 1.561 . S
C456 C459 1.526 . S
C457 H441 0.959 . S
C457 H442 0.959 . S
C457 H443 0.961 1_655 S
C457 C456 1.502 . S
C458 H444 0.960 1_655 S
C458 H445 0.961 . S
C458 H446 0.959 . S
C458 C456 1.561 . S
C459 C456 1.526 . S
C459 C460 1.396 . S
C459 C464 1.390 . S
C460 C454 1.465 1_655 S
C460 C459 1.396 . S
C460 C461 1.399 . S
C461 H447 0.929 . S
C461 C460 1.399 . S
C461 C462 1.385 . S
C462 H448 0.931 . S
C462 C461 1.385 . S
C462 C463 1.389 . S
C463 C462 1.389 . S
C463 C464 1.387 . S
C464 H449 0.930 . S
C464 C459 1.390 . S
C464 C463 1.387 . S
H465 C477 0.930 . S
H466 C479 0.930 . S
H467 C480 0.930 . S
H468 C484 0.959 . S
H469 C484 0.959 . S
H470 C484 0.961 1_545 S
H471 C485 0.947 1_545 S
H472 C485 0.976 . S
H473 C485 0.951 . S
H474 C488 0.929 . S
H475 C489 0.931 . S
H476 C491 0.930 . S
C477 H465 0.930 . S
C477 C478 1.399 1_554 S
C477 C482 1.399 . S
C478 C477 1.399 1_556 S
C478 C479 1.376 . S
C479 H466 0.930 . S
C479 C478 1.376 . S
C479 C480 1.388 . S
C480 H467 0.930 . S
C480 C479 1.388 . S
C480 C481 1.390 . S
C481 C480 1.390 . S
C481 C482 1.394 1_556 S
C481 C487 1.465 1_545 S
C482 C477 1.399 . S
C482 C481 1.394 1_554 S
C482 C483 1.509 1_545 S
C483 C482 1.509 1_565 S
C483 C484 1.506 . S
C483 C485 1.564 . S
C483 C486 1.531 . S
C484 H468 0.959 . S
C484 H469 0.959 . S
C484 H470 0.961 1_565 S
C484 C483 1.506 . S
C485 H471 0.947 1_565 S
C485 H472 0.976 . S
C485 H473 0.951 . S
C485 C483 1.564 . S
C486 C483 1.531 . S
C486 C487 1.396 1_554 S
C486 C491 1.390 . S
C487 C481 1.465 1_565 S
C487 C486 1.396 1_556 S
C487 C488 1.399 . S
C488 H474 0.929 . S
C488 C487 1.399 . S
C488 C489 1.385 . S
C489 H475 0.931 . S
C489 C488 1.385 . S
C489 C490 1.389 . S
C490 C489 1.389 . S
C490 C491 1.387 1_556 S
C491 H476 0.930 . S
C491 C486 1.390 . S
C491 C490 1.387 1_554 S
H492 C504 0.930 . S
H493 C506 0.930 . S
H494 C507 0.930 . S
H495 C511 0.959 . S
H496 C511 0.959 . S
H497 C511 0.961 . S
H498 C512 0.960 . S
H499 C512 0.961 . S
H500 C512 0.959 . S
H501 C515 0.929 . S
H502 C516 0.931 . S
H503 C518 0.923 1_655 S
C504 H492 0.930 . S
C504 C505 1.399 . S
C504 C509 1.399 . S
C505 C504 1.399 . S
C505 C506 1.376 1_655 S
C506 H493 0.930 . S
C506 C505 1.376 1_455 S
C506 C507 1.388 . S
C507 H494 0.930 . S
C507 C506 1.388 . S
C507 C508 1.390 . S
C508 C507 1.390 . S
C508 C509 1.394 1_455 S
C508 C514 1.465 . S
C509 C504 1.399 . S
C509 C508 1.394 1_655 S
C509 C510 1.516 . S
C510 C509 1.516 . S
C510 C511 1.502 . S
C510 C512 1.561 . S
C510 C513 1.526 . S
C511 H495 0.959 . S
C511 H496 0.959 . S
C511 H497 0.961 . S
C511 C510 1.502 . S
C512 H498 0.960 . S
C512 H499 0.961 . S
C512 H500 0.959 . S
C512 C510 1.561 . S
C513 C510 1.526 . S
C513 C514 1.396 1_655 S
C513 C518 1.388 1_655 S
C514 C508 1.465 . S
C514 C513 1.396 1_455 S
C514 C515 1.399 . S
C515 H501 0.929 . S
C515 C514 1.399 . S
C515 C516 1.385 . S
C516 H502 0.931 . S
C516 C515 1.385 . S
C516 C517 1.389 . S
C517 C516 1.389 . S
C517 C518 1.395 . S
C518 H503 0.923 1_455 S
C518 C513 1.388 1_455 S
C518 C517 1.395 . S
H519 C531 0.930 . S
H520 C533 0.930 1_565 S
H521 C534 0.930 . S
H522 C538 0.959 . S
H523 C538 0.959 . S
H524 C538 0.961 . S
H525 C539 0.960 . S
H526 C539 0.961 . S
H527 C539 0.959 . S
H528 C542 0.929 . S
H529 C543 0.931 . S
H530 C545 0.930 1_545 S
C531 H519 0.930 . S
C531 C532 1.399 . S
C531 C536 1.399 . S
C532 C531 1.399 . S
C532 C533 1.376 . S
C533 H520 0.930 1_545 S
C533 C532 1.376 . S
C533 C534 1.388 1_545 S
C534 H521 0.930 . S
C534 C533 1.388 1_565 S
C534 C535 1.390 . S
C535 C534 1.390 . S
C535 C536 1.394 1_565 S
C535 C541 1.465 . S
C536 C531 1.399 . S
C536 C535 1.394 1_545 S
C536 C537 1.516 . S
C537 C536 1.516 . S
C537 C538 1.502 . S
C537 C539 1.561 . S
C537 C540 1.526 . S
C538 H522 0.959 . S
C538 H523 0.959 . S
C538 H524 0.961 . S
C538 C537 1.502 . S
C539 H525 0.960 . S
C539 H526 0.961 . S
C539 H527 0.959 . S
C539 C537 1.561 . S
C540 C537 1.526 . S
C540 C541 1.396 1_545 S
C540 C545 1.390 1_545 S
C541 C535 1.465 . S
C541 C540 1.396 1_565 S
C541 C542 1.399 . S
C542 H528 0.929 . S
C542 C541 1.399 . S
C542 C543 1.385 . S
C543 H529 0.931 . S
C543 C542 1.385 . S
C543 C544 1.389 . S
C544 C543 1.389 . S
C544 C545 1.387 . S
C545 H530 0.930 1_565 S
C545 C540 1.390 1_565 S
C545 C544 1.387 . S
H546 C558 0.930 . S
H547 C560 0.930 . S
H548 C561 0.930 . S
H549 C565 0.959 . S
H550 C565 0.959 . S
H551 C565 0.961 . S
H552 C566 0.960 . S
H553 C566 0.961 . S
H554 C566 0.959 . S
H555 C569 0.929 . S
H556 C570 0.931 . S
H557 C572 0.930 . S
C558 H546 0.930 . S
C558 C559 1.399 . S
C558 C563 1.399 . S
C559 C558 1.399 . S
C559 C560 1.376 . S
C560 H547 0.930 . S
C560 C559 1.376 . S
C560 C561 1.388 . S
C561 H548 0.930 . S
C561 C560 1.388 . S
C561 C562 1.390 . S
C562 C561 1.390 . S
C562 C563 1.394 . S
C562 C568 1.465 . S
C563 C558 1.399 . S
C563 C562 1.394 . S
C563 C564 1.516 . S
C564 C563 1.516 . S
C564 C565 1.502 . S
C564 C566 1.561 . S
C564 C567 1.526 . S
C565 H549 0.959 . S
C565 H550 0.959 . S
C565 H551 0.961 . S
C565 C564 1.502 . S
C566 H552 0.960 . S
C566 H553 0.961 . S
C566 H554 0.959 . S
C566 C564 1.561 . S
C567 C564 1.526 . S
C567 C568 1.396 . S
C567 C572 1.390 . S
C568 C562 1.465 . S
C568 C567 1.396 . S
C568 C569 1.399 . S
C569 H555 0.929 . S
C569 C568 1.399 . S
C569 C570 1.385 . S
C570 H556 0.931 . S
C570 C569 1.385 . S
C570 C571 1.389 . S
C571 C570 1.389 . S
C571 C572 1.387 . S
C572 H557 0.930 . S
C572 C567 1.390 . S
C572 C571 1.387 . S
H573 C585 0.930 1_655 S
H574 C587 0.930 . S
H575 C588 0.930 . S
H576 C592 0.959 . S
H577 C592 0.959 . S
H578 C592 0.961 . S
H579 C593 0.960 . S
H580 C593 0.961 . S
H581 C593 0.959 1_455 S
H582 C596 0.929 . S
H583 C597 0.930 . S
H584 C599 0.930 . S
C585 H573 0.930 1_455 S
C585 C586 1.399 . S
C585 C590 1.399 . S
C586 C585 1.399 . S
C586 C587 1.376 . S
C587 H574 0.930 . S
C587 C586 1.376 . S
C587 C588 1.388 . S
C588 H575 0.930 . S
C588 C587 1.388 . S
C588 C589 1.390 . S
C589 C588 1.390 . S
C589 C590 1.394 . S
C589 C595 1.465 . S
C590 C585 1.399 . S
C590 C589 1.394 . S
C590 C591 1.516 1_455 S
C591 C590 1.516 1_655 S
C591 C592 1.502 . S
C591 C593 1.561 . S
C591 C594 1.526 . S
C592 H576 0.959 . S
C592 H577 0.959 . S
C592 H578 0.961 . S
C592 C591 1.502 . S
C593 H579 0.960 . S
C593 H580 0.961 . S
C593 H581 0.959 1_655 S
C593 C591 1.561 . S
C594 C591 1.526 . S
C594 C595 1.396 1_655 S
C594 C599 1.390 . S
C595 C589 1.465 . S
C595 C594 1.396 1_455 S
C595 C596 1.399 . S
C596 H582 0.929 . S
C596 C595 1.399 . S
C596 C597 1.390 . S
C597 H583 0.930 . S
C597 C596 1.390 . S
C597 C598 1.385 1_455 S
C598 C597 1.385 1_655 S
C598 C599 1.387 . S
C599 H584 0.930 . S
C599 C594 1.390 . S
C599 C598 1.387 . S
H600 C612 0.932 . S
H601 C614 0.930 . S
H602 C615 0.930 . S
H603 C619 0.959 . S
H604 C619 0.959 . S
H605 C619 0.961 . S
H606 C620 0.960 . S
H607 C620 0.961 . S
H608 C620 0.959 . S
H609 C623 0.929 . S
H610 C624 0.931 . S
H611 C626 0.930 . S
C612 H600 0.932 . S
C612 C613 1.396 1_565 S
C612 C617 1.400 . S
C613 C612 1.396 1_545 S
C613 C614 1.376 . S
C614 H601 0.930 . S
C614 C613 1.376 . S
C614 C615 1.388 . S
C615 H602 0.930 . S
C615 C614 1.388 . S
C615 C616 1.390 . S
C616 C615 1.390 . S
C616 C617 1.394 1_545 S
C616 C622 1.465 . S
C617 C612 1.400 . S
C617 C616 1.394 1_565 S
C617 C618 1.516 . S
C618 C617 1.516 . S
C618 C619 1.502 . S
C618 C620 1.561 . S
C618 C621 1.526 . S
C619 H603 0.959 . S
C619 H604 0.959 . S
C619 H605 0.961 . S
C619 C618 1.502 . S
C620 H606 0.960 . S
C620 H607 0.961 . S
C620 H608 0.959 . S
C620 C618 1.561 . S
C621 C618 1.526 . S
C621 C622 1.396 1_565 S
C621 C626 1.390 . S
C622 C616 1.465 . S
C622 C621 1.396 1_545 S
C622 C623 1.399 . S
C623 H609 0.929 . S
C623 C622 1.399 . S
C623 C624 1.385 . S
C624 H610 0.931 . S
C624 C623 1.385 . S
C624 C625 1.389 1_545 S
C625 C624 1.389 1_565 S
C625 C626 1.387 . S
C626 H611 0.930 . S
C626 C621 1.390 . S
C626 C625 1.387 . S
H627 C639 0.930 . S
H628 C641 0.930 . S
H629 C642 0.930 . S
H630 C646 0.959 . S
H631 C646 0.959 . S
H632 C646 0.961 . S
H633 C647 0.960 . S
H634 C647 0.961 . S
H635 C647 0.959 . S
H636 C650 0.929 . S
H637 C651 0.931 . S
H638 C653 0.930 . S
C639 H627 0.930 . S
C639 C640 1.399 . S
C639 C644 1.399 . S
C640 C639 1.399 . S
C640 C641 1.376 . S
C641 H628 0.930 . S
C641 C640 1.376 . S
C641 C642 1.388 . S
C642 H629 0.930 . S
C642 C641 1.388 . S
C642 C643 1.390 . S
C643 C642 1.390 . S
C643 C644 1.394 . S
C643 C649 1.465 . S
C644 C639 1.399 . S
C644 C643 1.394 . S
C644 C645 1.516 . S
C645 C644 1.516 . S
C645 C646 1.502 . S
C645 C647 1.561 . S
C645 C648 1.526 . S
C646 H630 0.959 . S
C646 H631 0.959 . S
C646 H632 0.961 . S
C646 C645 1.502 . S
C647 H633 0.960 . S
C647 H634 0.961 . S
C647 H635 0.959 . S
C647 C645 1.561 . S
C648 C645 1.526 . S
C648 C649 1.396 . S
C648 C653 1.390 . S
C649 C643 1.465 . S
C649 C648 1.396 . S
C649 C650 1.399 . S
C650 H636 0.929 . S
C650 C649 1.399 . S
C650 C651 1.385 . S
C651 H637 0.931 . S
C651 C650 1.385 . S
C651 C652 1.389 . S
C652 C651 1.389 . S
C652 C653 1.387 . S
C653 H638 0.930 . S
C653 C648 1.390 . S
C653 C652 1.387 . S
H654 C666 0.930 . S
H655 C668 0.930 . S
H656 C669 0.930 . S
H657 C673 0.959 . S
H658 C673 0.959 . S
H659 C673 0.961 . S
H660 C674 0.960 . S
H661 C674 0.961 . S
H662 C674 0.959 . S
H663 C677 0.929 . S
H664 C678 0.931 . S
H665 C680 0.930 . S
C666 H654 0.930 . S
C666 C667 1.399 . S
C666 C671 1.399 . S
C667 C666 1.399 . S
C667 C668 1.376 . S
C668 H655 0.930 . S
C668 C667 1.376 . S
C668 C669 1.388 . S
C669 H656 0.930 . S
C669 C668 1.388 . S
C669 C670 1.390 . S
C670 C669 1.390 . S
C670 C671 1.394 . S
C670 C676 1.465 . S
C671 C666 1.399 . S
C671 C670 1.394 . S
C671 C672 1.516 . S
C672 C671 1.516 . S
C672 C673 1.502 . S
C672 C674 1.561 . S
C672 C675 1.526 . S
C673 H657 0.959 . S
C673 H658 0.959 . S
C673 H659 0.961 . S
C673 C672 1.502 . S
C674 H660 0.960 . S
C674 H661 0.961 . S
C674 H662 0.959 . S
C674 C672 1.561 . S
C675 C672 1.526 . S
C675 C676 1.396 . S
C675 C680 1.390 . S
C676 C670 1.465 . S
C676 C675 1.396 . S
C676 C677 1.399 . S
C677 H663 0.929 . S
C677 C676 1.399 . S
C677 C678 1.385 . S
C678 H664 0.931 . S
C678 C677 1.385 . S
C678 C679 1.389 . S
C679 C678 1.389 . S
C679 C680 1.387 . S
C680 H665 0.930 . S
C680 C675 1.390 . S
C680 C679 1.387 . S
H681 C693 0.930 . S
H682 C695 0.930 . S
H683 C696 0.930 . S
H684 C700 0.959 . S
H685 C700 0.959 . S
H686 C700 0.961 . S
H687 C701 0.960 . S
H688 C701 0.961 . S
H689 C701 0.959 . S
H690 C704 0.929 . S
H691 C705 0.931 . S
H692 C707 0.930 . S
C693 H681 0.930 . S
C693 C694 1.399 . S
C693 C698 1.399 . S
C694 C693 1.399 . S
C694 C695 1.376 . S
C695 H682 0.930 . S
C695 C694 1.376 . S
C695 C696 1.388 . S
C696 H683 0.930 . S
C696 C695 1.388 . S
C696 C697 1.390 . S
C697 C696 1.390 . S
C697 C698 1.394 . S
C697 C703 1.465 . S
C698 C693 1.399 . S
C698 C697 1.394 . S
C698 C699 1.516 . S
C699 C698 1.516 . S
C699 C700 1.502 . S
C699 C701 1.561 . S
C699 C702 1.526 . S
C700 H684 0.959 . S
C700 H685 0.959 . S
C700 H686 0.961 . S
C700 C699 1.502 . S
C701 H687 0.960 . S
C701 H688 0.961 . S
C701 H689 0.959 . S
C701 C699 1.561 . S
C702 C699 1.526 . S
C702 C703 1.396 . S
C702 C707 1.390 . S
C703 C697 1.465 . S
C703 C702 1.396 . S
C703 C704 1.399 . S
C704 H690 0.929 . S
C704 C703 1.399 . S
C704 C705 1.385 . S
C705 H691 0.931 . S
C705 C704 1.385 . S
C705 C706 1.389 . S
C706 C705 1.389 . S
C706 C707 1.387 . S
C707 H692 0.930 . S
C707 C702 1.390 . S
C707 C706 1.387 . S
H708 C720 0.930 . S
H709 C722 0.930 . S
H710 C723 0.930 . S
H711 C727 0.959 . S
H712 C727 0.959 . S
H713 C727 0.961 . S
H714 C728 0.960 . S
H715 C728 0.961 . S
H716 C728 0.959 . S
H717 C731 0.929 . S
H718 C732 0.931 . S
H719 C734 0.930 . S
C720 H708 0.930 . S
C720 C721 1.399 . S
C720 C725 1.399 . S
C721 C720 1.399 . S
C721 C722 1.376 . S
C722 H709 0.930 . S
C722 C721 1.376 . S
C722 C723 1.388 . S
C723 H710 0.930 . S
C723 C722 1.388 . S
C723 C724 1.390 . S
C724 C723 1.390 . S
C724 C725 1.394 . S
C724 C730 1.465 . S
C725 C720 1.399 . S
C725 C724 1.394 . S
C725 C726 1.516 . S
C726 C725 1.516 . S
C726 C727 1.502 . S
C726 C728 1.561 . S
C726 C729 1.526 . S
C727 H711 0.959 . S
C727 H712 0.959 . S
C727 H713 0.961 . S
C727 C726 1.502 . S
C728 H714 0.960 . S
C728 H715 0.961 . S
C728 H716 0.959 . S
C728 C726 1.561 . S
C729 C726 1.526 . S
C729 C730 1.396 . S
C729 C734 1.390 . S
C730 C724 1.465 . S
C730 C729 1.396 . S
C730 C731 1.399 . S
C731 H717 0.929 . S
C731 C730 1.399 . S
C731 C732 1.385 . S
C732 H718 0.931 . S
C732 C731 1.385 . S
C732 C733 1.389 . S
C733 C732 1.389 . S
C733 C734 1.387 . S
C734 H719 0.930 . S
C734 C729 1.390 . S
C734 C733 1.387 . S
H735 C747 0.930 . S
H736 C749 0.930 . S
H737 C750 0.930 . S
H738 C754 0.959 . S
H739 C754 0.959 . S
H740 C754 0.961 . S
H741 C755 0.960 . S
H742 C755 0.961 . S
H743 C755 0.959 . S
H744 C758 0.929 . S
H745 C759 0.931 . S
H746 C761 0.930 . S
C747 H735 0.930 . S
C747 C748 1.399 . S
C747 C752 1.399 . S
C748 C747 1.399 . S
C748 C749 1.376 . S
C749 H736 0.930 . S
C749 C748 1.376 . S
C749 C750 1.388 . S
C750 H737 0.930 . S
C750 C749 1.388 . S
C750 C751 1.390 . S
C751 C750 1.390 . S
C751 C752 1.394 . S
C751 C757 1.465 . S
C752 C747 1.399 . S
C752 C751 1.394 . S
C752 C753 1.516 . S
C753 C752 1.516 . S
C753 C754 1.502 . S
C753 C755 1.561 . S
C753 C756 1.526 . S
C754 H738 0.959 . S
C754 H739 0.959 . S
C754 H740 0.961 . S
C754 C753 1.502 . S
C755 H741 0.960 . S
C755 H742 0.961 . S
C755 H743 0.959 . S
C755 C753 1.561 . S
C756 C753 1.526 . S
C756 C757 1.396 . S
C756 C761 1.390 . S
C757 C751 1.465 . S
C757 C756 1.396 . S
C757 C758 1.399 . S
C758 H744 0.929 . S
C758 C757 1.399 . S
C758 C759 1.385 . S
C759 H745 0.931 . S
C759 C758 1.385 . S
C759 C760 1.389 . S
C760 C759 1.389 . S
C760 C761 1.387 . S
C761 H746 0.930 . S
C761 C756 1.390 . S
C761 C760 1.387 . S
H762 C774 0.930 . S
H763 C776 0.930 . S
H764 C777 0.930 . S
H765 C781 0.959 . S
H766 C781 0.959 . S
H767 C781 0.961 . S
H768 C782 0.960 . S
H769 C782 0.961 . S
H770 C782 0.959 . S
H771 C785 0.929 . S
H772 C786 0.931 . S
H773 C788 0.930 . S
C774 H762 0.930 . S
C774 C775 1.399 . S
C774 C779 1.399 . S
C775 C774 1.399 . S
C775 C776 1.376 . S
C776 H763 0.930 . S
C776 C775 1.376 . S
C776 C777 1.388 . S
C777 H764 0.930 . S
C777 C776 1.388 . S
C777 C778 1.390 . S
C778 C777 1.390 . S
C778 C779 1.394 . S
C778 C784 1.465 . S
C779 C774 1.399 . S
C779 C778 1.394 . S
C779 C780 1.516 . S
C780 C779 1.516 . S
C780 C781 1.502 . S
C780 C782 1.561 . S
C780 C783 1.526 . S
C781 H765 0.959 . S
C781 H766 0.959 . S
C781 H767 0.961 . S
C781 C780 1.502 . S
C782 H768 0.960 . S
C782 H769 0.961 . S
C782 H770 0.959 . S
C782 C780 1.561 . S
C783 C780 1.526 . S
C783 C784 1.396 . S
C783 C788 1.390 . S
C784 C778 1.465 . S
C784 C783 1.396 . S
C784 C785 1.399 . S
C785 H771 0.929 . S
C785 C784 1.399 . S
C785 C786 1.385 . S
C786 H772 0.931 . S
C786 C785 1.385 . S
C786 C787 1.389 . S
C787 C786 1.389 . S
C787 C788 1.387 . S
C788 H773 0.930 . S
C788 C783 1.390 . S
C788 C787 1.387 . S
H789 C801 0.930 . S
H790 C803 0.930 . S
H791 C804 0.930 . S
H792 C808 0.959 . S
H793 C808 0.959 . S
H794 C808 0.961 . S
H795 C809 0.960 . S
H796 C809 0.961 . S
H797 C809 0.959 . S
H798 C812 0.929 . S
H799 C813 0.931 . S
H800 C815 0.930 . S
C801 H789 0.930 . S
C801 C802 1.399 . S
C801 C806 1.399 . S
C802 C801 1.399 . S
C802 C803 1.376 . S
C803 H790 0.930 . S
C803 C802 1.376 . S
C803 C804 1.388 . S
C804 H791 0.930 . S
C804 C803 1.388 . S
C804 C805 1.390 . S
C805 C804 1.390 . S
C805 C806 1.394 . S
C805 C811 1.465 . S
C806 C801 1.399 . S
C806 C805 1.394 . S
C806 C807 1.516 . S
C807 C806 1.516 . S
C807 C808 1.502 . S
C807 C809 1.561 . S
C807 C810 1.526 . S
C808 H792 0.959 . S
C808 H793 0.959 . S
C808 H794 0.961 . S
C808 C807 1.502 . S
C809 H795 0.960 . S
C809 H796 0.961 . S
C809 H797 0.959 . S
C809 C807 1.561 . S
C810 C807 1.526 . S
C810 C811 1.396 . S
C810 C815 1.390 . S
C811 C805 1.465 . S
C811 C810 1.396 . S
C811 C812 1.399 . S
C812 H798 0.929 . S
C812 C811 1.399 . S
C812 C813 1.385 . S
C813 H799 0.931 . S
C813 C812 1.385 . S
C813 C814 1.389 . S
C814 C813 1.389 . S
C814 C815 1.387 . S
C815 H800 0.930 . S
C815 C810 1.390 . S
C815 C814 1.387 . S
C181 C7 1.683 . S
C193 C91 1.685 . S
C208 C21 1.693 . S
C220 C105 1.679 . S
C235 C34 1.536 . S
C247 C118 1.535 1_554 S
C262 C133 1.640 . S
C274 C49 1.637 . S
C289 C63 1.701 . S
C301 C147 1.696 . S
C316 C160 1.622 1_554 S
C328 C76 1.625 . S
C343 C8 1.498 . S
C355 C134 1.483 . S
C370 C22 1.500 . S
C382 C148 1.484 . S
C397 C163 1.420 . S
C409 C37 1.423 1_554 S
C424 C92 1.491 . S
C436 C50 1.485 . S
C451 C64 1.495 . S
C463 C106 1.505 . S
C478 C79 1.420 . S
C490 C121 1.423 1_556 S
C505 C161 1.511 . S
C517 C6 1.513 . S
C532 C20 1.669 . S
C544 C90 1.671 . S
C559 C35 1.516 . S
C571 C104 1.518 . S
C586 C119 1.515 . S
C598 C48 1.503 . S
C613 C132 1.685 . S
C625 C62 1.683 . S
C640 C77 1.515 . S
C652 C146 1.503 . S
C667 C9 0.881 . S
C679 C149 1.002 . S
C694 C162 1.096 . S
C706 C23 1.067 . S
C721 C93 1.179 . S
C733 C36 1.066 . S
C748 C51 0.918 . S
C760 C107 0.932 . S
C775 C120 1.116 . S
C787 C65 1.182 . S
C802 C135 1.164 . S
C814 C78 1.053 . S
