# Generated by pormake.
# Topology snk, (6)-cn, num edge types: 1
# Building blocks:
#     Node 0, Type 0, BuildingBlock: BETFAJ_clean_sbu_0, # of connection points: 6
#     Node 1, Type 0, BuildingBlock: BETFAJ_clean_sbu_0, # of connection points: 6
#     Node 2, Type 0, BuildingBlock: BETFAJ_clean_sbu_0, # of connection points: 6
#     Node 3, Type 0, BuildingBlock: BETFAJ_clean_sbu_0, # of connection points: 6
#     Node 4, Type 0, BuildingBlock: BETFAJ_clean_sbu_0, # of connection points: 6
#     Node 5, Type 0, BuildingBlock: BETFAJ_clean_sbu_0, # of connection points: 6
#     Node 6, Type 0, BuildingBlock: BETFAJ_clean_sbu_0, # of connection points: 6
#     Node 7, Type 0, BuildingBlock: BETFAJ_clean_sbu_0, # of connection points: 6
#     Edge 8, Type (0, 0), None
#     Edge 9, Type (0, 0), None
#     Edge 10, Type (0, 0), None
#     Edge 11, Type (0, 0), None
#     Edge 12, Type (0, 0), None
#     Edge 13, Type (0, 0), None
#     Edge 14, Type (0, 0), None
#     Edge 15, Type (0, 0), None
#     Edge 16, Type (0, 0), None
#     Edge 17, Type (0, 0), None
#     Edge 18, Type (0, 0), None
#     Edge 19, Type (0, 0), None
#     Edge 20, Type (0, 0), None
#     Edge 21, Type (0, 0), None
#     Edge 22, Type (0, 0), None
#     Edge 23, Type (0, 0), None
#     Edge 24, Type (0, 0), None
#     Edge 25, Type (0, 0), None
#     Edge 26, Type (0, 0), None
#     Edge 27, Type (0, 0), None
#     Edge 28, Type (0, 0), None
#     Edge 29, Type (0, 0), None
#     Edge 30, Type (0, 0), None
#     Edge 31, Type (0, 0), None
# Relax obj value: 0.225
# Max RMSD: 0.303
# Mean RMSD: 0.255
data_MOF--net-snk--node1-BETFAJ_clean_sbu_0--edge1-none
_symmetry_space_group_name_H-M    P1
_symmetry_Int_Tables_number       1
_symmetry_cell_setting            triclinic
loop_
_symmetry_equiv_pos_as_xyz
'x, y, z'
_cell_length_a     15.571828
_cell_length_b     15.575679
_cell_length_c     15.842501
_cell_angle_alpha  84.731393
_cell_angle_beta   95.601089
_cell_angle_gamma 89.0091
loop_
_atom_site_label
_atom_site_type_symbol
_atom_site_fract_x
_atom_site_fract_y
_atom_site_fract_z
_atom_type_partial_charge
Sm0 Sm 0.95494 0.87644 0.49011 0.0
Sm1 Sm 0.94199 0.0084 0.60477 0.0
C2 C 0.94561 0.80121 0.34921 0.0
C3 C 0.93363 0.8404 0.26117 0.0
C4 C 0.87548 0.91001 0.23472 0.0
C5 C 0.86623 0.94498 0.14946 0.0
C6 C 0.9149 0.91008 0.09 0.0
C7 C -0.02882 0.84017 0.11781 0.0
C8 C -0.01591 0.80927 0.20301 0.0
C9 C 0.07747 0.84327 0.62861 0.0
C10 C 0.04695 0.06244 0.44228 0.0
C11 C 0.90641 0.06823 0.74545 0.0
C12 C 0.90669 0.0209 0.83072 0.0
C13 C -0.01794 -0.02016 0.87165 0.0
C14 C -0.01534 0.94607 0.95612 0.0
C15 C 0.90998 0.94575 0.99955 0.0
C16 C 0.83167 -0.02338 0.9548 0.0
C17 C 0.82993 0.01225 0.87036 0.0
C18 C 0.82802 0.04592 0.46198 0.0
C19 C 0.87444 0.81785 0.66531 0.0
O20 O 0.88005 0.80708 0.39398 0.0
O21 O 0.01966 0.81571 0.39111 0.0
O22 O 0.0549 0.91808 0.59321 0.0
O23 O 0.03989 0.78539 0.58536 0.0
O24 O 0.01595 -0.00948 0.416 0.0
O25 O 0.03425 0.08498 0.51938 0.0
O26 O -0.01911 0.08172 0.7146 0.0
O27 O 0.84603 0.04602 0.68908 0.0
O28 O 0.84467 -0.02973 0.49911 0.0
O29 O 0.8689 0.10226 0.50432 0.0
O30 O 0.91015 0.88805 0.68818 0.0
O31 O 0.87267 0.79917 0.58534 0.0
H32 H 0.83625 0.93595 0.27926 0.0
H33 H 0.82104 -0.00165 0.13031 0.0
H34 H 0.00386 0.80839 0.07278 0.0
H35 H 0.03158 0.75858 0.22366 0.0
H36 H 0.03994 -0.02446 0.83961 0.0
H37 H 0.04632 0.92254 0.98784 0.0
H38 H 0.77201 -0.02694 0.98467 0.0
H39 H 0.76872 0.03417 0.83648 0.0
Sm40 Sm 0.14711 0.69816 0.85419 0.0
Sm41 Sm 0.27028 0.69869 0.74469 0.0
C42 C 0.08829 0.69046 0.99922 0.0
C43 C 0.13986 0.693 0.08145 0.0
C44 C 0.16098 0.61686 0.1335 0.0
C45 C 0.19129 0.62004 0.21804 0.0
C46 C 0.20191 0.70008 0.2519 0.0
C47 C 0.19974 0.77487 0.19388 0.0
C48 C 0.16875 0.77117 0.10929 0.0
C49 C 0.09991 0.82092 0.72083 0.0
C50 C 0.32966 0.7896 0.91192 0.0
C51 C 0.32813 0.70783 0.59908 0.0
C52 C 0.2761 0.70801 0.51671 0.0
C53 C 0.25943 0.7851 0.46506 0.0
C54 C 0.23069 0.78388 0.37998 0.0
C55 C 0.2142 0.70494 0.34568 0.0
C56 C 0.21054 0.6305 0.40337 0.0
C57 C 0.24267 0.63182 0.48807 0.0
C58 C 0.3173 0.57562 0.87795 0.0
C59 C 0.08802 0.60662 0.68747 0.0
O60 O 0.09788 0.62078 0.96029 0.0
O61 O 0.08043 0.76198 0.94866 0.0
O62 O 0.17638 0.80736 0.75667 0.0
O63 O 0.04713 0.77255 0.76059 0.0
O64 O 0.25622 0.76038 0.93361 0.0
O65 O 0.35255 0.78065 0.83517 0.0
O66 O 0.32045 0.77684 0.6395 0.0
O67 O 0.33455 0.63541 0.64833 0.0
O68 O 0.24089 0.58949 0.84199 0.0
O69 O 0.37021 0.62366 0.83795 0.0
O70 O 0.16112 0.63644 0.6655 0.0
O71 O 0.06531 0.61532 0.76431 0.0
H72 H 0.14982 0.5546 0.11089 0.0
H73 H 0.20332 0.55901 0.2557 0.0
H74 H 0.21637 0.83777 0.21233 0.0
H75 H 0.16178 0.83059 0.06776 0.0
H76 H 0.27371 0.84641 0.48824 0.0
H77 H 0.22512 0.84545 0.34271 0.0
H78 H 0.18765 0.5696 0.38421 0.0
H79 H 0.24619 0.57207 0.52918 0.0
Sm80 Sm 0.48686 0.88148 0.11561 0.0
Sm81 Sm 0.43187 0.01552 0.98016 0.0
C82 C 0.51039 0.81791 0.27452 0.0
C83 C 0.48646 0.86017 0.3496 0.0
C84 C 0.48995 -0.04996 0.35408 0.0
C85 C 0.46887 -0.01274 0.42753 0.0
C86 C 0.44777 0.9347 0.49899 0.0
C87 C 0.44318 0.84697 0.49227 0.0
C88 C 0.46051 0.81005 0.41892 0.0
C89 C 0.38861 0.8232 0.97938 0.0
C90 C 0.33494 0.02442 0.14652 0.0
C91 C 0.39129 0.06888 0.8201 0.0
C92 C 0.40832 0.02453 0.7434 0.0
C93 C 0.33991 -0.0082 0.69295 0.0
C94 C 0.35248 -0.03535 0.61316 0.0
C95 C 0.43449 -0.03328 0.58289 0.0
C96 C 0.50501 -0.01264 0.63874 0.0
C97 C 0.49219 0.01338 0.71937 0.0
C98 C 0.53362 0.07634 0.11351 0.0
C99 C 0.59269 0.87707 0.95519 0.0
O100 O 0.57224 0.85344 0.23415 0.0
O101 O 0.44612 0.79397 0.22303 0.0
O102 O 0.37288 0.89012 1.0153 0.0
O103 O 0.45166 0.77784 1.02289 0.0
O104 O 0.39585 -0.03115 0.17868 0.0
O105 O 0.32533 0.04872 0.06383 0.0
O106 O 0.3342 0.03404 0.86734 0.0
O107 O 0.45747 0.09884 0.86493 0.0
O108 O 0.54753 0.00726 0.07996 0.0
O109 O 0.47083 0.12178 0.06912 0.0
O110 O 0.53159 0.93258 0.9212 0.0
O111 O 0.59874 0.85086 1.0375 0.0
H112 H 0.50921 -0.00896 0.30118 0.0
H113 H 0.46867 0.05634 0.42787 0.0
H114 H 0.43402 0.80591 0.54767 0.0
H115 H 0.46202 0.74149 0.42017 0.0
H116 H 0.27563 -0.00954 0.71348 0.0
H117 H 0.2968 0.94594 0.57388 0.0
H118 H 0.56991 -0.01621 0.62005 0.0
H119 H 0.54792 0.02751 0.7615 0.0
Sm120 Sm 0.14008 0.21581 0.23539 0.0
Sm121 Sm 0.2773 0.17992 0.36358 0.0
C122 C 0.07093 0.22582 0.07706 0.0
C123 C 0.11596 0.21215 0.99983 0.0
C124 C 0.19171 0.25542 0.98327 0.0
C125 C 0.22787 0.25026 0.90592 0.0
C126 C 0.19196 0.19849 0.84305 0.0
C127 C 0.12228 0.14774 0.86593 0.0
C128 C 0.08469 0.15477 0.9422 0.0
C129 C 0.08491 0.12242 0.37762 0.0
C130 C 0.28803 0.07091 0.20612 0.0
C131 C 0.34689 0.1696 0.52163 0.0
C132 C 0.30187 0.18333 0.59874 0.0
C133 C 0.22482 0.14191 0.61432 0.0
C134 C 0.18814 0.14776 0.69136 0.0
C135 C 0.2258 0.19721 0.75539 0.0
C136 C 0.2974 0.2456 0.73372 0.0
C137 C 0.33457 0.23902 0.6573 0.0
C138 C 0.33189 0.27373 0.22141 0.0
C139 C 0.12955 0.32484 0.39305 0.0
O140 O 0.09256 0.2936 0.11674 0.0
O141 O 0.0618 0.15762 0.12985 0.0
O142 O 0.15394 0.10718 0.34394 0.0
O143 O 0.03806 0.18076 0.32901 0.0
O144 O 0.23133 0.12986 0.17241 0.0
O145 O 0.3129 0.06576 0.2888 0.0
O146 O 0.32511 0.10188 0.48193 0.0
O147 O 0.35604 0.23785 0.46892 0.0
O148 O 0.26309 0.28879 0.2555 0.0
O149 O 0.37895 0.21531 0.26969 0.0
O150 O 0.18629 0.2659 0.42672 0.0
O151 O 0.10456 0.32995 0.31037 0.0
H152 H 0.21987 0.29835 1.02761 0.0
H153 H 0.28159 0.29073 0.89608 0.0
H154 H 0.09523 0.10311 0.82468 0.0
H155 H 0.03003 0.11627 0.95583 0.0
H156 H 0.19566 0.10038 0.56917 0.0
H157 H 0.13221 0.11013 0.69996 0.0
H158 H 0.32682 0.28757 0.77619 0.0
H159 H 0.39023 0.27637 0.64449 0.0
Sm160 Sm 0.641 0.19852 0.35944 0.0
Sm161 Sm 0.77725 0.19764 0.2403 0.0
C162 C 0.57435 0.16732 0.5038 0.0
C163 C 0.61275 0.18178 0.58853 0.0
C164 C 0.70155 0.19187 0.60405 0.0
C165 C 0.73857 0.20419 0.68511 0.0
C166 C 0.68895 0.19755 0.75514 0.0
C167 C 0.59907 0.18899 0.73724 0.0
C168 C 0.56161 0.18418 0.65466 0.0
C169 C 0.60942 0.3277 0.23005 0.0
C170 C 0.82679 0.28646 0.41683 0.0
C171 C 0.84481 0.22863 0.09641 0.0
C172 C 0.80625 0.21519 1.01151 0.0
C173 C 0.71723 0.20685 0.99585 0.0
C174 C 0.67993 0.19547 0.91469 0.0
C175 C 0.72963 0.20125 0.84471 0.0
C176 C 0.81971 0.20814 0.86274 0.0
C177 C 0.85737 0.21189 0.94541 0.0
C178 C 0.80809 0.06828 0.36972 0.0
C179 C 0.59146 0.1094 0.18311 0.0
O180 O 0.61408 0.10772 0.46791 0.0
O181 O 0.55377 0.23695 0.45278 0.0
O182 O 0.68384 0.30251 0.266 0.0
O183 O 0.54983 0.28915 0.27047 0.0
O184 O 0.74463 0.27924 0.4278 0.0
O185 O 0.8583 0.2604 0.34848 0.0
O186 O 0.80584 0.28852 0.1326 0.0
O187 O 0.86421 0.15847 0.14702 0.0
O188 O 0.73397 0.09355 0.33325 0.0
O189 O 0.86797 0.10668 0.32965 0.0
O190 O 0.67334 0.11772 0.17133 0.0
O191 O 0.56018 0.13488 0.25183 0.0
H192 H 0.74314 0.18808 0.55429 0.0
H193 H 0.80648 0.2165 0.6906 0.0
H194 H 0.55545 0.18658 0.78526 0.0
H195 H 0.49322 0.17635 0.64318 0.0
H196 H 0.67576 0.21103 1.04571 0.0
H197 H 0.61181 0.18434 0.90915 0.0
H198 H 0.86336 0.20985 0.81474 0.0
H199 H 0.92601 0.21801 0.95694 0.0
Sm200 Sm 0.64534 0.72868 0.73366 0.0
Sm201 Sm 0.77319 0.66633 0.86654 0.0
C202 C 0.59572 0.7666 0.57522 0.0
C203 C 0.63795 0.74465 0.50014 0.0
C204 C 0.66972 0.80979 0.44596 0.0
C205 C 0.69871 0.79091 0.3689 0.0
C206 C 0.69734 0.70598 0.34349 0.0
C207 C 0.67561 0.6401 0.40437 0.0
C208 C 0.6449 0.65921 0.48049 0.0
C209 C 0.57872 0.6346 0.86684 0.0
C210 C 0.77749 0.56469 0.70388 0.0
C211 C 0.82283 0.62652 1.02481 0.0
C212 C 0.78012 0.64795 0.0998 0.0
C213 C 0.74827 0.58258 0.15372 0.0
C214 C 0.71832 0.60131 0.23046 0.0
C215 C 0.71915 0.68628 0.25584 0.0
C216 C 0.74077 0.75227 0.19503 0.0
C217 C 0.77211 0.73334 0.11921 0.0
C218 C 0.83934 0.76115 0.73343 0.0
C219 C 0.64075 0.8304 0.89619 0.0
O220 O 0.6328 0.82433 0.62071 0.0
O221 O 0.55957 0.70411 0.61963 0.0
O222 O 0.64455 0.61434 0.83148 0.0
O223 O 0.53667 0.69922 0.82223 0.0
O224 O 0.72412 0.62791 0.6713 0.0
O225 O 0.80202 0.55582 0.78638 0.0
O226 O 0.78555 0.56953 0.97859 0.0
O227 O 0.85907 0.68942 0.981 0.0
O228 O 0.77365 0.78112 0.76915 0.0
O229 O 0.88143 0.6962 0.77745 0.0
O230 O 0.69434 0.76731 0.92884 0.0
O231 O 0.61627 0.83926 0.81364 0.0
H232 H 0.66805 0.87626 0.46101 0.0
H233 H 0.71964 0.84501 0.32956 0.0
H234 H 0.68152 0.57299 0.39488 0.0
H235 H 0.62605 0.60673 0.52372 0.0
H236 H 0.75051 0.51612 0.13869 0.0
H237 H 0.69732 0.54715 0.2697 0.0
H238 H 0.73432 0.81937 0.20432 0.0
H239 H 0.79062 0.78597 0.07599 0.0
Sm240 Sm 0.47459 0.38854 0.99517 0.0
Sm241 Sm 0.46153 0.5202 0.10935 0.0
C242 C 0.50908 0.32873 0.85412 0.0
C243 C 0.50747 0.37574 0.76853 0.0
C244 C 0.43143 0.41587 0.72789 0.0
C245 C 0.42799 0.44948 0.64323 0.0
C246 C 0.50239 0.45039 0.59932 0.0
C247 C 0.58119 0.42047 0.64376 0.0
C248 C 0.58379 0.38505 0.72829 0.0
C249 C 0.58873 0.35045 0.13789 0.0
C250 C 0.54316 0.5782 0.93475 0.0
C251 C 0.46919 0.59594 0.24994 0.0
C252 C 0.48006 0.55654 0.33793 0.0
C253 C 0.53771 0.48658 0.36445 0.0
C254 C 0.54631 0.45132 0.44957 0.0
C255 C 0.49699 0.48579 0.50875 0.0
C256 C 0.44025 0.5553 0.48066 0.0
C257 C 0.42875 0.58729 0.39569 0.0
C258 C 0.33982 0.55363 0.97027 0.0
C259 C 0.36962 0.33407 0.15701 0.0
O260 O 0.43524 0.31472 0.88604 0.0
O261 O 0.56982 0.35171 0.90972 0.0
O262 O 0.57215 0.42628 0.10119 0.0
O263 O 0.54774 0.29431 0.09537 0.0
O264 O 0.50667 0.50852 0.91166 0.0
O265 O 0.54509 0.59668 1.01479 0.0
O266 O 0.53539 0.58999 0.206 0.0
O267 O 0.39562 0.5814 0.20722 0.0
O268 O 0.36157 0.47881 1.00618 0.0
O269 O 0.37778 0.61148 1.01323 0.0
O270 O 0.40098 0.40576 0.18354 0.0
O271 O 0.38199 0.31189 0.07978 0.0
H272 H 0.37366 0.41941 0.76027 0.0
H273 H 0.36598 0.47247 0.61179 0.0
H274 H 0.64065 0.42467 0.61358 0.0
H275 H 0.64538 0.36387 0.76184 0.0
H276 H 0.57724 0.46066 0.32011 0.0
H277 H 0.59161 0.39807 0.46886 0.0
H278 H 0.40618 0.58604 0.52529 0.0
H279 H 0.38178 0.63851 0.37508 0.0
Sm280 Sm -0.01315 0.38064 0.61965 0.0
Sm281 Sm 0.93094 0.5142 0.48416 0.0
C282 C 0.02888 0.32839 0.77989 0.0
C283 C 0.01175 0.37271 0.85666 0.0
C284 C 0.07985 0.40664 0.90665 0.0
C285 C 0.06733 0.43333 0.98669 0.0
C286 C -0.01438 0.42981 1.01749 0.0
C287 C 0.91521 0.40818 0.96204 0.0
C288 C 0.92798 0.38255 0.88126 0.0
C289 C 0.88446 0.31915 0.48685 0.0
C290 C 0.8254 0.51806 0.64481 0.0
C291 C 0.90693 0.57762 0.32532 0.0
C292 C 0.93174 0.53546 0.25051 0.0
C293 C 0.92841 0.44563 0.24579 0.0
C294 C 0.95038 0.40864 0.17254 0.0
C295 C -0.02767 0.46139 0.10155 0.0
C296 C -0.02284 0.54901 0.10869 0.0
C297 C -0.04144 0.58568 0.18171 0.0
C298 C 0.02912 0.5728 0.62019 0.0
C299 C 0.0829 0.37142 0.45279 0.0
O300 O 0.08516 0.36388 0.73208 0.0
O301 O -0.03708 0.29737 0.73559 0.0
O302 O 0.87081 0.38834 0.52022 0.0
O303 O 0.94756 0.27393 0.53104 0.0
O304 O 0.88663 0.46271 0.67874 0.0
O305 O 0.81918 0.54436 0.56253 0.0
O306 O 0.84537 0.54143 0.36562 0.0
O307 O -0.0293 0.60251 0.37684 0.0
O308 O 0.04524 0.50626 0.58388 0.0
O309 O -0.0343 0.61789 0.57699 0.0
O310 O 0.02192 0.42701 0.42083 0.0
O311 O 0.09285 0.3472 0.53549 0.0
H312 H 0.14392 0.40912 0.88566 0.0
H313 H 0.12274 0.45311 1.02576 0.0
H314 H 0.8504 0.41082 0.98111 0.0
H315 H 0.8723 0.36804 0.83929 0.0
H316 H 0.90849 0.40449 0.29828 0.0
H317 H 0.95063 0.33961 0.17198 0.0
H318 H -0.01372 0.59024 0.0535 0.0
H319 H 0.95624 0.6541 0.18028 0.0
loop_
_geom_bond_atom_site_label_1
_geom_bond_atom_site_label_2
_geom_bond_distance
_geom_bond_site_symmetry_2
_ccdc_geom_bond_type
Sm0 C2 2.846 1_655 S
Sm0 O20 2.543 . S
Sm0 O21 2.450 1_655 S
Sm0 O22 2.681 1_655 S
Sm0 O23 2.464 1_655 S
Sm0 O24 2.396 1_665 S
Sm0 O28 2.386 1_565 S
Sm0 O31 2.408 . S
Sm1 C11 2.846 1_455 S
Sm1 O22 2.386 1_545 S
Sm1 O25 2.408 . S
Sm1 O26 2.543 . S
Sm1 O27 2.450 1_455 S
Sm1 O28 2.681 1_455 S
Sm1 O29 2.464 1_455 S
Sm1 O30 2.396 1_445 S
C2 Sm0 2.846 1_455 S
C2 C3 1.506 . S
C2 O20 1.261 1_455 S
C2 O21 1.242 . S
C3 C2 1.506 . S
C3 C4 1.358 . S
C3 C8 1.382 . S
C4 C3 1.358 . S
C4 C5 1.385 . S
C4 H32 0.930 1_465 S
C5 C4 1.385 . S
C5 C6 1.395 . S
C5 H33 0.929 1_565 S
C6 C5 1.395 . S
C6 C7 1.335 . S
C7 C6 1.335 . S
C7 C8 1.398 . S
C7 H34 0.930 . S
C8 C3 1.382 . S
C8 C7 1.398 . S
C8 H35 0.929 . S
C9 O22 1.271 . S
C9 O23 1.251 . S
C10 O24 1.252 . S
C10 O25 1.272 . S
C11 Sm1 2.846 1_655 S
C11 C12 1.506 . S
C11 O26 1.261 1_655 S
C11 O27 1.242 . S
C12 C11 1.506 . S
C12 C13 1.358 . S
C12 C17 1.382 . S
C13 C12 1.358 . S
C13 C14 1.385 . S
C13 H36 0.930 1_645 S
C14 C13 1.385 . S
C14 C15 1.395 . S
C14 H37 0.929 1_545 S
C15 C14 1.395 . S
C15 C16 1.335 . S
C16 C15 1.335 . S
C16 C17 1.398 . S
C16 H38 0.930 . S
C17 C12 1.382 . S
C17 C16 1.398 . S
C17 H39 0.929 . S
C18 O28 1.271 . S
C18 O29 1.251 . S
C19 O30 1.252 . S
C19 O31 1.272 . S
O20 Sm0 2.543 . S
O20 C2 1.261 1_655 S
O21 Sm0 2.450 1_455 S
O21 C2 1.242 . S
O22 Sm0 2.681 1_455 S
O22 Sm1 2.386 1_565 S
O22 C9 1.271 . S
O23 Sm0 2.464 1_455 S
O23 C9 1.251 . S
O24 Sm0 2.396 1_445 S
O24 C10 1.252 . S
O25 Sm1 2.408 . S
O25 C10 1.272 . S
O26 Sm1 2.543 . S
O26 C11 1.261 1_455 S
O27 Sm1 2.450 1_655 S
O27 C11 1.242 . S
O28 Sm0 2.386 1_545 S
O28 Sm1 2.681 1_655 S
O28 C18 1.271 . S
O29 Sm1 2.464 1_655 S
O29 C18 1.251 . S
O30 Sm1 2.396 1_665 S
O30 C19 1.252 . S
O31 Sm0 2.408 . S
O31 C19 1.272 . S
H32 C4 0.930 1_645 S
H33 C5 0.929 1_545 S
H34 C7 0.930 . S
H35 C8 0.929 . S
H36 C13 0.930 1_465 S
H37 C14 0.929 1_565 S
H38 C16 0.930 . S
H39 C17 0.929 . S
Sm40 C42 2.846 . S
Sm40 O60 2.543 . S
Sm40 O61 2.450 . S
Sm40 O62 2.681 . S
Sm40 O63 2.464 . S
Sm40 O64 2.396 . S
Sm40 O68 2.386 . S
Sm40 O71 2.408 . S
Sm41 C51 2.846 . S
Sm41 O62 2.386 . S
Sm41 O65 2.408 . S
Sm41 O66 2.543 . S
Sm41 O67 2.450 . S
Sm41 O68 2.681 . S
Sm41 O69 2.464 . S
Sm41 O70 2.396 . S
C42 Sm40 2.846 . S
C42 C43 1.506 1_556 S
C42 O60 1.261 . S
C42 O61 1.242 . S
C43 C42 1.506 1_554 S
C43 C44 1.358 . S
C43 C48 1.382 . S
C44 C43 1.358 . S
C44 C45 1.385 . S
C44 H72 0.930 . S
C45 C44 1.385 . S
C45 C46 1.395 . S
C45 H73 0.929 . S
C46 C45 1.395 . S
C46 C47 1.335 . S
C47 C46 1.335 . S
C47 C48 1.398 . S
C47 H74 0.930 . S
C48 C43 1.382 . S
C48 C47 1.398 . S
C48 H75 0.929 . S
C49 O62 1.271 . S
C49 O63 1.251 . S
C50 O64 1.252 . S
C50 O65 1.272 . S
C51 Sm41 2.846 . S
C51 C52 1.506 . S
C51 O66 1.261 . S
C51 O67 1.242 . S
C52 C51 1.506 . S
C52 C53 1.358 . S
C52 C57 1.382 . S
C53 C52 1.358 . S
C53 C54 1.385 . S
C53 H76 0.930 . S
C54 C53 1.385 . S
C54 C55 1.395 . S
C54 H77 0.929 . S
C55 C54 1.395 . S
C55 C56 1.335 . S
C56 C55 1.335 . S
C56 C57 1.398 . S
C56 H78 0.930 . S
C57 C52 1.382 . S
C57 C56 1.398 . S
C57 H79 0.929 . S
C58 O68 1.271 . S
C58 O69 1.251 . S
C59 O70 1.252 . S
C59 O71 1.272 . S
O60 Sm40 2.543 . S
O60 C42 1.261 . S
O61 Sm40 2.450 . S
O61 C42 1.242 . S
O62 Sm40 2.681 . S
O62 Sm41 2.386 . S
O62 C49 1.271 . S
O63 Sm40 2.464 . S
O63 C49 1.251 . S
O64 Sm40 2.396 . S
O64 C50 1.252 . S
O65 Sm41 2.408 . S
O65 C50 1.272 . S
O66 Sm41 2.543 . S
O66 C51 1.261 . S
O67 Sm41 2.450 . S
O67 C51 1.242 . S
O68 Sm40 2.386 . S
O68 Sm41 2.681 . S
O68 C58 1.271 . S
O69 Sm41 2.464 . S
O69 C58 1.251 . S
O70 Sm41 2.396 . S
O70 C59 1.252 . S
O71 Sm40 2.408 . S
O71 C59 1.272 . S
H72 C44 0.930 . S
H73 C45 0.929 . S
H74 C47 0.930 . S
H75 C48 0.929 . S
H76 C53 0.930 . S
H77 C54 0.929 . S
H78 C56 0.930 . S
H79 C57 0.929 . S
Sm80 C82 2.846 . S
Sm80 O100 2.543 . S
Sm80 O101 2.450 . S
Sm80 O102 2.681 1_554 S
Sm80 O103 2.464 . S
Sm80 O104 2.396 . S
Sm80 O108 2.386 1_565 S
Sm80 O111 2.408 . S
Sm81 C91 2.846 . S
Sm81 O102 2.386 1_545 S
Sm81 O105 2.408 . S
Sm81 O106 2.543 . S
Sm81 O107 2.450 . S
Sm81 O108 2.681 1_556 S
Sm81 O109 2.464 . S
Sm81 O110 2.399 . S
C82 Sm80 2.846 . S
C82 C83 1.506 . S
C82 O100 1.261 . S
C82 O101 1.242 . S
C83 C82 1.506 . S
C83 C84 1.358 . S
C83 C88 1.382 . S
C84 C83 1.358 . S
C84 C85 1.385 . S
C84 H112 0.930 . S
C85 C84 1.385 . S
C85 C86 1.395 . S
C85 H113 0.929 . S
C86 C85 1.395 . S
C86 C87 1.335 . S
C87 C86 1.335 . S
C87 C88 1.398 . S
C87 H114 0.930 . S
C88 C83 1.382 . S
C88 C87 1.398 . S
C88 H115 0.929 . S
C89 O102 1.271 . S
C89 O103 1.251 1_556 S
C90 O104 1.252 1_545 S
C90 O105 1.272 1_554 S
C91 Sm81 2.846 . S
C91 C92 1.506 . S
C91 O106 1.261 . S
C91 O107 1.242 . S
C92 C91 1.506 . S
C92 C93 1.358 . S
C92 C97 1.382 . S
C93 C92 1.358 . S
C93 C94 1.385 . S
C93 H116 0.930 . S
C94 C93 1.385 . S
C94 C95 1.395 . S
C94 H117 0.929 . S
C95 C94 1.395 . S
C95 C96 1.335 . S
C96 C95 1.335 . S
C96 C97 1.398 . S
C96 H118 0.930 . S
C97 C92 1.382 . S
C97 C96 1.398 . S
C97 H119 0.929 . S
C98 O108 1.271 . S
C98 O109 1.251 1_554 S
C99 O110 1.246 1_565 S
C99 O111 1.272 1_556 S
O100 Sm80 2.543 . S
O100 C82 1.261 . S
O101 Sm80 2.450 . S
O101 C82 1.242 . S
O102 Sm80 2.681 1_556 S
O102 Sm81 2.386 1_565 S
O102 C89 1.271 . S
O103 Sm80 2.464 . S
O103 C89 1.251 1_554 S
O104 Sm80 2.396 . S
O104 C90 1.252 1_565 S
O105 Sm81 2.408 . S
O105 C90 1.272 1_556 S
O106 Sm81 2.543 . S
O106 C91 1.261 . S
O107 Sm81 2.450 . S
O107 C91 1.242 . S
O108 Sm80 2.386 1_545 S
O108 Sm81 2.681 1_554 S
O108 C98 1.271 . S
O109 Sm81 2.464 . S
O109 C98 1.251 1_556 S
O110 Sm81 2.399 . S
O110 C99 1.246 1_545 S
O111 Sm80 2.408 . S
O111 C99 1.272 1_554 S
H112 C84 0.930 . S
H113 C85 0.929 . S
H114 C87 0.930 . S
H115 C88 0.929 . S
H116 C93 0.930 . S
H117 C94 0.929 . S
H118 C96 0.930 . S
H119 C97 0.929 . S
Sm120 C122 2.846 . S
Sm120 O140 2.543 . S
Sm120 O141 2.450 . S
Sm120 O142 2.681 . S
Sm120 O143 2.464 . S
Sm120 O144 2.396 . S
Sm120 O148 2.386 . S
Sm120 O151 2.408 . S
Sm121 C131 2.846 . S
Sm121 O142 2.386 . S
Sm121 O145 2.408 . S
Sm121 O146 2.543 . S
Sm121 O147 2.450 . S
Sm121 O148 2.681 . S
Sm121 O149 2.464 . S
Sm121 O150 2.396 . S
C122 Sm120 2.846 . S
C122 C123 1.506 1_554 S
C122 O140 1.261 . S
C122 O141 1.242 . S
C123 C122 1.506 1_556 S
C123 C124 1.358 . S
C123 C128 1.382 . S
C124 C123 1.358 . S
C124 C125 1.385 . S
C124 H152 0.930 . S
C125 C124 1.385 . S
C125 C126 1.395 . S
C125 H153 0.929 . S
C126 C125 1.395 . S
C126 C127 1.335 . S
C127 C126 1.335 . S
C127 C128 1.398 . S
C127 H154 0.930 1_455 S
C128 C123 1.382 . S
C128 C127 1.398 . S
C128 H155 0.929 1_455 S
C129 O142 1.271 . S
C129 O143 1.251 . S
C130 O144 1.252 . S
C130 O145 1.272 . S
C131 Sm121 2.846 . S
C131 C132 1.506 . S
C131 O146 1.261 . S
C131 O147 1.242 . S
C132 C131 1.506 . S
C132 C133 1.358 . S
C132 C137 1.382 . S
C133 C132 1.358 . S
C133 C134 1.385 . S
C133 H156 0.930 . S
C134 C133 1.385 . S
C134 C135 1.395 . S
C134 H157 0.929 . S
C135 C134 1.395 . S
C135 C136 1.335 . S
C136 C135 1.335 . S
C136 C137 1.398 . S
C136 H158 0.930 . S
C137 C132 1.382 . S
C137 C136 1.398 . S
C137 H159 0.929 . S
C138 O148 1.271 . S
C138 O149 1.251 . S
C139 O150 1.252 . S
C139 O151 1.272 . S
O140 Sm120 2.543 . S
O140 C122 1.261 . S
O141 Sm120 2.450 . S
O141 C122 1.242 . S
O142 Sm120 2.681 . S
O142 Sm121 2.386 . S
O142 C129 1.271 . S
O143 Sm120 2.464 . S
O143 C129 1.251 . S
O144 Sm120 2.396 . S
O144 C130 1.252 . S
O145 Sm121 2.408 . S
O145 C130 1.272 . S
O146 Sm121 2.543 . S
O146 C131 1.261 . S
O147 Sm121 2.450 . S
O147 C131 1.242 . S
O148 Sm120 2.386 . S
O148 Sm121 2.681 . S
O148 C138 1.271 . S
O149 Sm121 2.464 . S
O149 C138 1.251 . S
O150 Sm121 2.396 . S
O150 C139 1.252 . S
O151 Sm120 2.408 . S
O151 C139 1.272 . S
H152 C124 0.930 . S
H153 C125 0.929 . S
H154 C127 0.930 1_655 S
H155 C128 0.929 1_655 S
H156 C133 0.930 . S
H157 C134 0.929 . S
H158 C136 0.930 . S
H159 C137 0.929 . S
Sm160 C162 2.846 . S
Sm160 O180 2.543 . S
Sm160 O181 2.450 . S
Sm160 O182 2.681 . S
Sm160 O183 2.464 . S
Sm160 O184 2.396 . S
Sm160 O188 2.386 . S
Sm160 O191 2.408 . S
Sm161 C171 2.846 . S
Sm161 O182 2.386 . S
Sm161 O185 2.408 . S
Sm161 O186 2.543 . S
Sm161 O187 2.450 . S
Sm161 O188 2.681 . S
Sm161 O189 2.464 . S
Sm161 O190 2.396 . S
C162 Sm160 2.846 . S
C162 C163 1.506 . S
C162 O180 1.261 . S
C162 O181 1.242 . S
C163 C162 1.506 . S
C163 C164 1.358 . S
C163 C168 1.382 . S
C164 C163 1.358 . S
C164 C165 1.385 . S
C164 H192 0.930 . S
C165 C164 1.385 . S
C165 C166 1.395 . S
C165 H193 0.929 . S
C166 C165 1.395 . S
C166 C167 1.335 . S
C167 C166 1.335 . S
C167 C168 1.398 . S
C167 H194 0.930 . S
C168 C163 1.382 . S
C168 C167 1.398 . S
C168 H195 0.929 . S
C169 O182 1.271 . S
C169 O183 1.251 . S
C170 O184 1.252 . S
C170 O185 1.272 . S
C171 Sm161 2.846 . S
C171 C172 1.506 1_554 S
C171 O186 1.261 . S
C171 O187 1.242 . S
C172 C171 1.506 1_556 S
C172 C173 1.358 . S
C172 C177 1.382 . S
C173 C172 1.358 . S
C173 C174 1.385 . S
C173 H196 0.930 . S
C174 C173 1.385 . S
C174 C175 1.395 . S
C174 H197 0.929 . S
C175 C174 1.395 . S
C175 C176 1.335 . S
C176 C175 1.335 . S
C176 C177 1.398 . S
C176 H198 0.930 . S
C177 C172 1.382 . S
C177 C176 1.398 . S
C177 H199 0.929 . S
C178 O188 1.271 . S
C178 O189 1.251 . S
C179 O190 1.252 . S
C179 O191 1.272 . S
O180 Sm160 2.543 . S
O180 C162 1.261 . S
O181 Sm160 2.450 . S
O181 C162 1.242 . S
O182 Sm160 2.681 . S
O182 Sm161 2.386 . S
O182 C169 1.271 . S
O183 Sm160 2.464 . S
O183 C169 1.251 . S
O184 Sm160 2.396 . S
O184 C170 1.252 . S
O185 Sm161 2.408 . S
O185 C170 1.272 . S
O186 Sm161 2.543 . S
O186 C171 1.261 . S
O187 Sm161 2.450 . S
O187 C171 1.242 . S
O188 Sm160 2.386 . S
O188 Sm161 2.681 . S
O188 C178 1.271 . S
O189 Sm161 2.464 . S
O189 C178 1.251 . S
O190 Sm161 2.396 . S
O190 C179 1.252 . S
O191 Sm160 2.408 . S
O191 C179 1.272 . S
H192 C164 0.930 . S
H193 C165 0.929 . S
H194 C167 0.930 . S
H195 C168 0.929 . S
H196 C173 0.930 . S
H197 C174 0.929 . S
H198 C176 0.930 . S
H199 C177 0.929 . S
Sm200 C202 2.846 . S
Sm200 O220 2.543 . S
Sm200 O221 2.450 . S
Sm200 O222 2.681 . S
Sm200 O223 2.464 . S
Sm200 O224 2.396 . S
Sm200 O228 2.386 . S
Sm200 O231 2.408 . S
Sm201 C211 2.846 . S
Sm201 O222 2.386 . S
Sm201 O225 2.408 . S
Sm201 O226 2.543 . S
Sm201 O227 2.450 . S
Sm201 O228 2.681 . S
Sm201 O229 2.464 . S
Sm201 O230 2.396 . S
C202 Sm200 2.846 . S
C202 C203 1.506 . S
C202 O220 1.261 . S
C202 O221 1.242 . S
C203 C202 1.506 . S
C203 C204 1.358 . S
C203 C208 1.382 . S
C204 C203 1.358 . S
C204 C205 1.385 . S
C204 H232 0.930 . S
C205 C204 1.385 . S
C205 C206 1.395 . S
C205 H233 0.929 . S
C206 C205 1.395 . S
C206 C207 1.335 . S
C207 C206 1.335 . S
C207 C208 1.398 . S
C207 H234 0.930 . S
C208 C203 1.382 . S
C208 C207 1.398 . S
C208 H235 0.929 . S
C209 O222 1.271 . S
C209 O223 1.251 . S
C210 O224 1.252 . S
C210 O225 1.272 . S
C211 Sm201 2.846 . S
C211 C212 1.506 1_556 S
C211 O226 1.261 . S
C211 O227 1.242 . S
C212 C211 1.506 1_554 S
C212 C213 1.358 . S
C212 C217 1.382 . S
C213 C212 1.358 . S
C213 C214 1.385 . S
C213 H236 0.930 . S
C214 C213 1.385 . S
C214 C215 1.395 . S
C214 H237 0.929 . S
C215 C214 1.395 . S
C215 C216 1.335 . S
C216 C215 1.335 . S
C216 C217 1.398 . S
C216 H238 0.930 1_655 S
C217 C212 1.382 . S
C217 C216 1.398 . S
C217 H239 0.929 1_655 S
C218 O228 1.271 . S
C218 O229 1.251 . S
C219 O230 1.252 . S
C219 O231 1.272 . S
O220 Sm200 2.543 . S
O220 C202 1.261 . S
O221 Sm200 2.450 . S
O221 C202 1.242 . S
O222 Sm200 2.681 . S
O222 Sm201 2.386 . S
O222 C209 1.271 . S
O223 Sm200 2.464 . S
O223 C209 1.251 . S
O224 Sm200 2.396 . S
O224 C210 1.252 . S
O225 Sm201 2.408 . S
O225 C210 1.272 . S
O226 Sm201 2.543 . S
O226 C211 1.261 . S
O227 Sm201 2.450 . S
O227 C211 1.242 . S
O228 Sm200 2.386 . S
O228 Sm201 2.681 . S
O228 C218 1.271 . S
O229 Sm201 2.464 . S
O229 C218 1.251 . S
O230 Sm201 2.396 . S
O230 C219 1.252 . S
O231 Sm200 2.408 . S
O231 C219 1.272 . S
H232 C204 0.930 . S
H233 C205 0.929 . S
H234 C207 0.930 . S
H235 C208 0.929 . S
H236 C213 0.930 . S
H237 C214 0.929 . S
H238 C216 0.930 1_455 S
H239 C217 0.929 1_455 S
Sm240 C242 2.846 . S
Sm240 O260 2.543 . S
Sm240 O261 2.450 . S
Sm240 O262 2.681 1_556 S
Sm240 O263 2.464 1_556 S
Sm240 O264 2.396 . S
Sm240 O268 2.386 . S
Sm240 O271 2.408 1_556 S
Sm241 C251 2.846 . S
Sm241 O262 2.386 . S
Sm241 O265 2.408 1_554 S
Sm241 O266 2.543 . S
Sm241 O267 2.450 . S
Sm241 O268 2.681 1_554 S
Sm241 O269 2.464 1_554 S
Sm241 O270 2.396 . S
C242 Sm240 2.846 . S
C242 C243 1.506 . S
C242 O260 1.261 . S
C242 O261 1.242 . S
C243 C242 1.506 . S
C243 C244 1.358 . S
C243 C248 1.382 . S
C244 C243 1.358 . S
C244 C245 1.385 . S
C244 H272 0.930 . S
C245 C244 1.385 . S
C245 C246 1.395 . S
C245 H273 0.929 . S
C246 C245 1.395 . S
C246 C247 1.335 . S
C247 C246 1.335 . S
C247 C248 1.398 . S
C247 H274 0.930 . S
C248 C243 1.382 . S
C248 C247 1.398 . S
C248 H275 0.929 . S
C249 O262 1.271 . S
C249 O263 1.251 . S
C250 O264 1.252 . S
C250 O265 1.272 . S
C251 Sm241 2.846 . S
C251 C252 1.506 . S
C251 O266 1.261 . S
C251 O267 1.242 . S
C252 C251 1.506 . S
C252 C253 1.358 . S
C252 C257 1.382 . S
C253 C252 1.358 . S
C253 C254 1.385 . S
C253 H276 0.930 . S
C254 C253 1.385 . S
C254 C255 1.395 . S
C254 H277 0.929 . S
C255 C254 1.395 . S
C255 C256 1.335 . S
C256 C255 1.335 . S
C256 C257 1.398 . S
C256 H278 0.930 . S
C257 C252 1.382 . S
C257 C256 1.398 . S
C257 H279 0.929 . S
C258 O268 1.271 . S
C258 O269 1.251 . S
C259 O270 1.252 . S
C259 O271 1.272 . S
O260 Sm240 2.543 . S
O260 C242 1.261 . S
O261 Sm240 2.450 . S
O261 C242 1.242 . S
O262 Sm240 2.681 1_554 S
O262 Sm241 2.386 . S
O262 C249 1.271 . S
O263 Sm240 2.464 1_554 S
O263 C249 1.251 . S
O264 Sm240 2.396 . S
O264 C250 1.252 . S
O265 Sm241 2.408 1_556 S
O265 C250 1.272 . S
O266 Sm241 2.543 . S
O266 C251 1.261 . S
O267 Sm241 2.450 . S
O267 C251 1.242 . S
O268 Sm240 2.386 . S
O268 Sm241 2.681 1_556 S
O268 C258 1.271 . S
O269 Sm241 2.464 1_556 S
O269 C258 1.251 . S
O270 Sm241 2.396 . S
O270 C259 1.252 . S
O271 Sm240 2.408 1_554 S
O271 C259 1.272 . S
H272 C244 0.930 . S
H273 C245 0.929 . S
H274 C247 0.930 . S
H275 C248 0.929 . S
H276 C253 0.930 . S
H277 C254 0.929 . S
H278 C256 0.930 . S
H279 C257 0.929 . S
Sm280 C282 2.846 1_455 S
Sm280 O300 2.543 . S
Sm280 O301 2.450 1_455 S
Sm280 O302 2.681 1_455 S
Sm280 O303 2.464 1_455 S
Sm280 O304 2.396 1_455 S
Sm280 O308 2.386 . S
Sm280 O311 2.408 . S
Sm281 C291 2.846 1_655 S
Sm281 O302 2.386 . S
Sm281 O305 2.408 . S
Sm281 O306 2.543 . S
Sm281 O307 2.450 1_655 S
Sm281 O308 2.681 1_655 S
Sm281 O309 2.464 1_655 S
Sm281 O310 2.396 1_655 S
C282 Sm280 2.846 1_655 S
C282 C283 1.506 . S
C282 O300 1.261 1_655 S
C282 O301 1.242 . S
C283 C282 1.506 . S
C283 C284 1.358 . S
C283 C288 1.382 . S
C284 C283 1.358 . S
C284 C285 1.385 . S
C284 H312 0.930 1_655 S
C285 C284 1.385 . S
C285 C286 1.395 . S
C285 H313 0.929 . S
C286 C285 1.395 . S
C286 C287 1.335 . S
C287 C286 1.335 . S
C287 C288 1.398 . S
C287 H314 0.930 . S
C288 C283 1.382 . S
C288 C287 1.398 . S
C288 H315 0.929 . S
C289 O302 1.271 . S
C289 O303 1.251 . S
C290 O304 1.252 . S
C290 O305 1.272 . S
C291 Sm281 2.846 1_455 S
C291 C292 1.506 . S
C291 O306 1.261 1_455 S
C291 O307 1.242 . S
C292 C291 1.506 . S
C292 C293 1.358 . S
C292 C297 1.382 . S
C293 C292 1.358 . S
C293 C294 1.385 . S
C293 H316 0.930 1_455 S
C294 C293 1.385 . S
C294 C295 1.395 . S
C294 H317 0.929 . S
C295 C294 1.395 . S
C295 C296 1.335 . S
C296 C295 1.335 . S
C296 C297 1.398 . S
C296 H318 0.930 . S
C297 C292 1.382 . S
C297 C296 1.398 . S
C297 H319 0.929 . S
C298 O308 1.271 . S
C298 O309 1.251 . S
C299 O310 1.252 . S
C299 O311 1.272 . S
O300 Sm280 2.543 . S
O300 C282 1.261 1_455 S
O301 Sm280 2.450 1_655 S
O301 C282 1.242 . S
O302 Sm280 2.681 1_655 S
O302 Sm281 2.386 . S
O302 C289 1.271 . S
O303 Sm280 2.464 1_655 S
O303 C289 1.251 . S
O304 Sm280 2.396 1_655 S
O304 C290 1.252 . S
O305 Sm281 2.408 . S
O305 C290 1.272 . S
O306 Sm281 2.543 . S
O306 C291 1.261 1_655 S
O307 Sm281 2.450 1_455 S
O307 C291 1.242 . S
O308 Sm280 2.386 . S
O308 Sm281 2.681 1_455 S
O308 C298 1.271 . S
O309 Sm281 2.464 1_455 S
O309 C298 1.251 . S
O310 Sm281 2.396 1_455 S
O310 C299 1.252 . S
O311 Sm280 2.408 . S
O311 C299 1.272 . S
H312 C284 0.930 1_455 S
H313 C285 0.929 . S
H314 C287 0.930 . S
H315 C288 0.929 . S
H316 C293 0.930 1_655 S
H317 C294 0.929 . S
H318 C296 0.930 . S
H319 C297 0.929 . S
C10 C129 2.281 . S
C9 C49 2.053 . S
C50 C89 2.281 . S
C90 C130 2.616 . S
C19 C218 2.281 . S
C18 C178 2.053 . S
C179 C98 2.281 . S
C219 C99 2.616 . S
C250 C209 2.281 . S
C169 C249 2.053 . S
C289 C170 2.281 . S
C210 C290 2.616 . S
C138 C259 2.282 . S
C258 C58 2.053 . S
C59 C298 2.281 . S
C139 C299 2.616 . S
C15 C6 3.932 1_646 S
C55 C46 3.932 . S
C95 C86 5.403 1_545 S
C126 C135 5.402 . S
C175 C166 3.932 . S
C206 C215 5.403 . S
C246 C255 3.932 . S
C286 C295 5.403 1_656 S
