# Generated by pormake.
# Topology whh, (6)-cn, num edge types: 1
# Building blocks:
#     Node 0, Type 0, BuildingBlock: OJICUG_clean_sbu_0, # of connection points: 6
#     Node 1, Type 0, BuildingBlock: OJICUG_clean_sbu_0, # of connection points: 6
#     Node 2, Type 0, BuildingBlock: OJICUG_clean_sbu_0, # of connection points: 6
#     Node 3, Type 0, BuildingBlock: OJICUG_clean_sbu_0, # of connection points: 6
#     Node 4, Type 0, BuildingBlock: OJICUG_clean_sbu_0, # of connection points: 6
#     Node 5, Type 0, BuildingBlock: OJICUG_clean_sbu_0, # of connection points: 6
#     Node 6, Type 0, BuildingBlock: OJICUG_clean_sbu_0, # of connection points: 6
#     Node 7, Type 0, BuildingBlock: OJICUG_clean_sbu_0, # of connection points: 6
#     Node 8, Type 0, BuildingBlock: OJICUG_clean_sbu_0, # of connection points: 6
#     Node 9, Type 0, BuildingBlock: OJICUG_clean_sbu_0, # of connection points: 6
#     Node 10, Type 0, BuildingBlock: OJICUG_clean_sbu_0, # of connection points: 6
#     Node 11, Type 0, BuildingBlock: OJICUG_clean_sbu_0, # of connection points: 6
#     Node 12, Type 0, BuildingBlock: OJICUG_clean_sbu_0, # of connection points: 6
#     Node 13, Type 0, BuildingBlock: OJICUG_clean_sbu_0, # of connection points: 6
#     Node 14, Type 0, BuildingBlock: OJICUG_clean_sbu_0, # of connection points: 6
#     Node 15, Type 0, BuildingBlock: OJICUG_clean_sbu_0, # of connection points: 6
#     Edge 16, Type (0, 0), BuildingBlock: XUDNAN_clean_linker_2, # of connection points: 2
#     Edge 17, Type (0, 0), BuildingBlock: XUDNAN_clean_linker_2, # of connection points: 2
#     Edge 18, Type (0, 0), BuildingBlock: XUDNAN_clean_linker_2, # of connection points: 2
#     Edge 19, Type (0, 0), BuildingBlock: XUDNAN_clean_linker_2, # of connection points: 2
#     Edge 20, Type (0, 0), BuildingBlock: XUDNAN_clean_linker_2, # of connection points: 2
#     Edge 21, Type (0, 0), BuildingBlock: XUDNAN_clean_linker_2, # of connection points: 2
#     Edge 22, Type (0, 0), BuildingBlock: XUDNAN_clean_linker_2, # of connection points: 2
#     Edge 23, Type (0, 0), BuildingBlock: XUDNAN_clean_linker_2, # of connection points: 2
#     Edge 24, Type (0, 0), BuildingBlock: XUDNAN_clean_linker_2, # of connection points: 2
#     Edge 25, Type (0, 0), BuildingBlock: XUDNAN_clean_linker_2, # of connection points: 2
#     Edge 26, Type (0, 0), BuildingBlock: XUDNAN_clean_linker_2, # of connection points: 2
#     Edge 27, Type (0, 0), BuildingBlock: XUDNAN_clean_linker_2, # of connection points: 2
#     Edge 28, Type (0, 0), BuildingBlock: XUDNAN_clean_linker_2, # of connection points: 2
#     Edge 29, Type (0, 0), BuildingBlock: XUDNAN_clean_linker_2, # of connection points: 2
#     Edge 30, Type (0, 0), BuildingBlock: XUDNAN_clean_linker_2, # of connection points: 2
#     Edge 31, Type (0, 0), BuildingBlock: XUDNAN_clean_linker_2, # of connection points: 2
#     Edge 32, Type (0, 0), BuildingBlock: XUDNAN_clean_linker_2, # of connection points: 2
#     Edge 33, Type (0, 0), BuildingBlock: XUDNAN_clean_linker_2, # of connection points: 2
#     Edge 34, Type (0, 0), BuildingBlock: XUDNAN_clean_linker_2, # of connection points: 2
#     Edge 35, Type (0, 0), BuildingBlock: XUDNAN_clean_linker_2, # of connection points: 2
#     Edge 36, Type (0, 0), BuildingBlock: XUDNAN_clean_linker_2, # of connection points: 2
#     Edge 37, Type (0, 0), BuildingBlock: XUDNAN_clean_linker_2, # of connection points: 2
#     Edge 38, Type (0, 0), BuildingBlock: XUDNAN_clean_linker_2, # of connection points: 2
#     Edge 39, Type (0, 0), BuildingBlock: XUDNAN_clean_linker_2, # of connection points: 2
#     Edge 40, Type (0, 0), BuildingBlock: XUDNAN_clean_linker_2, # of connection points: 2
#     Edge 41, Type (0, 0), BuildingBlock: XUDNAN_clean_linker_2, # of connection points: 2
#     Edge 42, Type (0, 0), BuildingBlock: XUDNAN_clean_linker_2, # of connection points: 2
#     Edge 43, Type (0, 0), BuildingBlock: XUDNAN_clean_linker_2, # of connection points: 2
#     Edge 44, Type (0, 0), BuildingBlock: XUDNAN_clean_linker_2, # of connection points: 2
#     Edge 45, Type (0, 0), BuildingBlock: XUDNAN_clean_linker_2, # of connection points: 2
#     Edge 46, Type (0, 0), BuildingBlock: XUDNAN_clean_linker_2, # of connection points: 2
#     Edge 47, Type (0, 0), BuildingBlock: XUDNAN_clean_linker_2, # of connection points: 2
#     Edge 48, Type (0, 0), BuildingBlock: XUDNAN_clean_linker_2, # of connection points: 2
#     Edge 49, Type (0, 0), BuildingBlock: XUDNAN_clean_linker_2, # of connection points: 2
#     Edge 50, Type (0, 0), BuildingBlock: XUDNAN_clean_linker_2, # of connection points: 2
#     Edge 51, Type (0, 0), BuildingBlock: XUDNAN_clean_linker_2, # of connection points: 2
#     Edge 52, Type (0, 0), BuildingBlock: XUDNAN_clean_linker_2, # of connection points: 2
#     Edge 53, Type (0, 0), BuildingBlock: XUDNAN_clean_linker_2, # of connection points: 2
#     Edge 54, Type (0, 0), BuildingBlock: XUDNAN_clean_linker_2, # of connection points: 2
#     Edge 55, Type (0, 0), BuildingBlock: XUDNAN_clean_linker_2, # of connection points: 2
#     Edge 56, Type (0, 0), BuildingBlock: XUDNAN_clean_linker_2, # of connection points: 2
#     Edge 57, Type (0, 0), BuildingBlock: XUDNAN_clean_linker_2, # of connection points: 2
#     Edge 58, Type (0, 0), BuildingBlock: XUDNAN_clean_linker_2, # of connection points: 2
#     Edge 59, Type (0, 0), BuildingBlock: XUDNAN_clean_linker_2, # of connection points: 2
#     Edge 60, Type (0, 0), BuildingBlock: XUDNAN_clean_linker_2, # of connection points: 2
#     Edge 61, Type (0, 0), BuildingBlock: XUDNAN_clean_linker_2, # of connection points: 2
#     Edge 62, Type (0, 0), BuildingBlock: XUDNAN_clean_linker_2, # of connection points: 2
#     Edge 63, Type (0, 0), BuildingBlock: XUDNAN_clean_linker_2, # of connection points: 2
# Relax obj value: 0.385
# Max RMSD: 0.252
# Mean RMSD: 0.252
data_MOF--net-whh--node1-OJICUG_clean_sbu_0--edge1-XUDNAN_clean_linker_2
_symmetry_space_group_name_H-M    P1
_symmetry_Int_Tables_number       1
_symmetry_cell_setting            triclinic
loop_
_symmetry_equiv_pos_as_xyz
'x, y, z'
_cell_length_a     35.595925
_cell_length_b     35.571834
_cell_length_c     44.41441
_cell_angle_alpha  90.094093
_cell_angle_beta   89.984892
_cell_angle_gamma 90.012771
loop_
_atom_site_label
_atom_site_type_symbol
_atom_site_fract_x
_atom_site_fract_y
_atom_site_fract_z
_atom_type_partial_charge
Sc0 Sc 0.04842 0.67573 0.06335 0.0
Sc1 Sc 0.10301 0.62366 0.11569 0.0
Sc2 Sc 0.02632 0.67702 0.14023 0.0
O3 O 0.05922 0.65872 0.10632 0.0
C4 C 0.02173 0.74953 0.09814 0.0
C5 C 0.13697 0.68548 0.06977 0.0
C6 C 0.10814 0.68461 0.16727 0.0
C7 C 0.07592 0.5911 0.05305 0.0
C8 C 0.96861 0.64959 0.08966 0.0
C9 C 0.04343 0.59265 0.16271 0.0
O10 O 0.03151 0.7328 0.07416 0.0
O11 O 0.13993 0.65908 0.08908 0.0
O12 O 0.07486 0.6971 0.16404 0.0
O13 O 0.06204 0.62199 0.04422 0.0
O14 O 0.97689 0.65705 0.117 0.0
O15 O 0.07055 0.58602 0.14471 0.0
O16 O 0.99103 0.65567 0.06767 0.0
O17 O 0.0903 0.58693 0.07892 0.0
O18 O 0.02727 0.6244 0.16367 0.0
O19 O 0.10576 0.69552 0.05807 0.0
O20 O 0.01966 0.73287 0.12322 0.0
O21 O 0.12086 0.65605 0.1536 0.0
Sc22 Sc 0.84475 0.05673 0.0671 0.0
Sc23 Sc 0.8913 0.10915 0.12144 0.0
Sc24 Sc 0.83314 0.03416 0.14258 0.0
O25 O 0.85594 0.06687 0.11077 0.0
C26 C 0.76844 0.0244 0.09485 0.0
C27 C 0.83272 0.14282 0.07243 0.0
C28 C 0.82447 0.11738 0.16817 0.0
C29 C 0.92805 0.08553 0.0619 0.0
C30 C 0.87314 0.97971 0.09474 0.0
C31 C 0.91425 0.04974 0.1721 0.0
O32 O 0.79057 0.03073 0.07313 0.0
O33 O 0.86268 0.14534 0.08843 0.0
O34 O 0.81299 0.08343 0.16597 0.0
O35 O 0.89582 0.08136 0.0504 0.0
O36 O 0.85497 0.98523 0.11928 0.0
O37 O 0.92238 0.07809 0.15584 0.0
O38 O 0.87325 1.00288 0.07262 0.0
O39 O 0.9328 0.08983 0.08989 0.0
O40 O 0.88319 0.03257 0.16953 0.0
O41 O 0.8183 0.11139 0.06448 0.0
O42 O 0.77855 0.02883 0.12195 0.0
O43 O 0.85311 0.13031 0.15456 0.0
Sc44 Sc 0.45344 0.85028 0.06352 0.0
Sc45 Sc 0.40427 0.89277 0.12199 0.0
Sc46 Sc 0.48454 0.83931 0.13729 0.0
O47 O 0.44714 0.85967 0.10813 0.0
C48 C 0.49068 0.77485 0.08853 0.0
C49 C 0.36889 0.83575 0.07257 0.0
C50 C 0.40348 0.82519 0.16691 0.0
C51 C 0.43136 0.93199 0.0652 0.0
C52 C 0.53298 0.87949 0.08522 0.0
C53 C 0.46688 0.91746 0.17015 0.0
O54 O 0.482 0.79677 0.06711 0.0
O55 O 0.36682 0.86529 0.08915 0.0
O56 O 0.4387 0.81838 0.16464 0.0
O57 O 0.42397 0.90101 0.05275 0.0
O58 O 0.5303 0.86217 0.11044 0.0
O59 O 0.43512 0.92227 0.15751 0.0
O60 O 0.50681 0.8796 0.06543 0.0
O61 O 0.42455 0.93631 0.09288 0.0
O62 O 0.4877 0.88965 0.16385 0.0
O63 O 0.39992 0.82238 0.0629 0.0
O64 O 0.48828 0.78494 0.11587 0.0
O65 O 0.38618 0.851 0.15289 0.0
Sc66 Sc 0.66634 0.4595 0.05977 0.0
Sc67 Sc 0.61777 0.40628 0.1112 0.0
Sc68 Sc 0.6671 0.48673 0.13457 0.0
O69 O 0.65147 0.45062 0.10277 0.0
C70 C 0.73517 0.50054 0.09105 0.0
C71 C 0.68539 0.37615 0.06788 0.0
C72 C 0.67776 0.40488 0.16331 0.0
C73 C 0.58861 0.43276 0.05094 0.0
C74 C 0.6305 0.53598 0.08107 0.0
C75 C 0.58624 0.46411 0.16073 0.0
O76 O 0.71513 0.49308 0.06829 0.0
O77 O 0.65285 0.37145 0.08016 0.0
O78 O 0.68529 0.44008 0.16206 0.0
O79 O 0.6218 0.4246 0.04435 0.0
O80 O 0.6458 0.53283 0.10715 0.0
O81 O 0.58238 0.43429 0.14501 0.0
O82 O 0.63264 0.51043 0.06067 0.0
O83 O 0.57816 0.42729 0.07777 0.0
O84 O 0.61433 0.48575 0.15781 0.0
O85 O 0.69839 0.40876 0.06169 0.0
O86 O 0.72387 0.49392 0.11763 0.0
O87 O 0.65463 0.38785 0.14619 0.0
Sc88 Sc 0.03066 0.82998 0.36113 0.0
Sc89 Sc 0.108 0.88564 0.38209 0.0
Sc90 Sc 0.05866 0.83524 0.43634 0.0
O91 O 0.06577 0.84996 0.39285 0.0
C92 C 0.97819 0.86266 0.41377 0.0
C93 C 0.04679 0.91167 0.3334 0.0
C94 C 0.08454 0.92023 0.44273 0.0
C95 C 0.11296 0.82105 0.33344 0.0
C96 C 0.02603 0.76044 0.40577 0.0
C97 C 0.14499 0.82745 0.42943 0.0
O98 O 0.98316 0.85028 0.38697 0.0
O99 O 0.0765 0.91787 0.3486 0.0
O100 O 0.07999 0.88769 0.4538 0.0
O101 O 0.07845 0.81124 0.33511 0.0
O102 O 0.03629 0.77977 0.42828 0.0
O103 O 0.146 0.85764 0.4138 0.0
O104 O 0.02529 0.77403 0.37943 0.0
O105 O 0.12771 0.84778 0.34829 0.0
O106 O 0.1144 0.81155 0.43721 0.0
O107 O 0.02817 0.88155 0.33629 0.0
O108 O 1.00285 0.85971 0.43464 0.0
O109 O 0.08968 0.9257 0.41488 0.0
Sc110 Sc 0.67041 0.04376 0.43692 0.0
Sc111 Sc 0.6291 0.10576 0.38499 0.0
Sc112 Sc 0.6848 0.03042 0.36 0.0
O113 O 0.66152 0.06012 0.39388 0.0
C114 C 0.74786 0.01504 0.40828 0.0
C115 C 0.68724 0.13126 0.43737 0.0
C116 C 0.69617 0.11432 0.33844 0.0
C117 C 0.58802 0.07761 0.44305 0.0
C118 C 0.64408 0.96998 0.40244 0.0
C119 C 0.60367 0.05057 0.33212 0.0
O120 O 0.72545 0.02032 0.43 0.0
O121 O 0.66113 0.13797 0.41821 0.0
O122 O 0.70754 0.08044 0.33982 0.0
O123 O 0.61768 0.0634 0.45376 0.0
O124 O 0.66159 0.97953 0.37852 0.0
O125 O 0.59564 0.07709 0.35043 0.0
O126 O 0.64366 0.98995 0.42648 0.0
O127 O 0.58638 0.09069 0.41662 0.0
O128 O 0.63503 0.03362 0.33286 0.0
O129 O 0.69591 0.098 0.44594 0.0
O130 O 0.73837 0.02112 0.38125 0.0
O131 O 0.66715 0.12653 0.35175 0.0
Sc132 Sc 0.48906 0.66078 0.35718 0.0
Sc133 Sc 0.4068 0.6164 0.3827 0.0
Sc134 Sc 0.46504 0.66682 0.43292 0.0
O135 O 0.45365 0.64784 0.39079 0.0
C136 C 0.54259 0.63219 0.41072 0.0
C137 C 0.46469 0.57845 0.33586 0.0
C138 C 0.42812 0.5865 0.44576 0.0
C139 C 0.40742 0.67412 0.3293 0.0
C140 C 0.49886 0.73539 0.39552 0.0
C141 C 0.37867 0.68314 0.42745 0.0
O142 O 0.53663 0.64126 0.38328 0.0
O143 O 0.43404 0.57727 0.35083 0.0
O144 O 0.44095 0.6182 0.45386 0.0
O145 O 0.44271 0.68024 0.33032 0.0
O146 O 0.4908 0.71994 0.42039 0.0
O147 O 0.37296 0.6531 0.4121 0.0
O148 O 0.49675 0.71791 0.37076 0.0
O149 O 0.39014 0.65136 0.34627 0.0
O150 O 0.41148 0.69442 0.43464 0.0
O151 O 0.48686 0.60622 0.33731 0.0
O152 O 0.51899 0.63861 0.43182 0.0
O153 O 0.41976 0.57866 0.41873 0.0
Sc154 Sc 0.83918 0.47555 0.35974 0.0
Sc155 Sc 0.88923 0.39282 0.37402 0.0
Sc156 Sc 0.85111 0.44466 0.43308 0.0
O157 O 0.85894 0.43762 0.38849 0.0
C158 C 0.8826 0.52335 0.41056 0.0
C159 C 0.91359 0.45309 0.32401 0.0
C160 C 0.93257 0.42033 0.42851 0.0
C161 C 0.81783 0.39421 0.33276 0.0
C162 C 0.77662 0.48492 0.4095 0.0
C163 C 0.83558 0.36022 0.42662 0.0
O164 O 0.86551 0.52078 0.38522 0.0
O165 O 0.91707 0.42085 0.33611 0.0
O166 O 0.9021 0.4144 0.44232 0.0
O167 O 0.814 0.42997 0.33467 0.0
O168 O 0.79807 0.47462 0.43078 0.0
O169 O 0.86489 0.35752 0.40992 0.0
O170 O 0.78648 0.48264 0.3822 0.0
O171 O 0.8438 0.37556 0.34566 0.0
O172 O 0.82153 0.3918 0.43433 0.0
O173 O 0.88794 0.47566 0.33186 0.0
O174 O 0.88161 0.49745 0.43058 0.0
O175 O 0.93514 0.4126 0.40079 0.0
Sc176 Sc 0.97459 0.33057 0.85705 0.0
Sc177 Sc 0.89826 0.38683 0.8786 0.0
Sc178 Sc 0.94705 0.33567 0.93168 0.0
O179 O 0.93984 0.35005 0.88838 0.0
C180 C 0.98411 0.26292 0.90228 0.0
C181 C 0.89104 0.32086 0.83119 0.0
C182 C 0.86237 0.32589 0.92432 0.0
C183 C 0.95755 0.41165 0.82839 0.0
C184 C 0.02584 0.36655 0.90924 0.0
C185 C 0.92857 0.41711 0.93741 0.0
O186 O 0.98041 0.27481 0.87558 0.0
O187 O 0.87637 0.34831 0.84556 0.0
O188 O 0.89297 0.30861 0.93025 0.0
O189 O 0.97643 0.3818 0.8318 0.0
O190 O 1.00086 0.36445 0.93005 0.0
O191 O 0.92288 0.42636 0.91029 0.0
O192 O 0.02181 0.35189 0.88299 0.0
O193 O 0.92799 0.41811 0.84364 0.0
O194 O 0.91804 0.38512 0.94589 0.0
O195 O 0.9258 0.31153 0.8326 0.0
O196 O 0.97546 0.28297 0.9248 0.0
O197 O 0.86164 0.35846 0.9118 0.0
Sc198 Sc 0.17115 0.95657 0.92184 0.0
Sc199 Sc 0.11352 0.90437 0.87422 0.0
Sc200 Sc 0.16437 0.98025 0.84651 0.0
O201 O 0.1505 0.94675 0.88031 0.0
C202 C 0.14202 0.03586 0.9007 0.0
C203 C 0.08787 0.94092 0.93282 0.0
C204 C 0.08121 0.96365 0.82611 0.0
C205 C 0.17677 0.87059 0.91811 0.0
C206 C 0.24039 0.98534 0.88218 0.0
C207 C 0.16783 0.89556 0.82011 0.0
O208 O 0.14538 0.01131 0.92148 0.0
O209 O 0.07816 0.93158 0.90641 0.0
O210 O 0.10846 0.98579 0.83048 0.0
O211 O 0.19545 0.90099 0.92116 0.0
O212 O 0.22292 0.97984 0.8577 0.0
O213 O 0.14875 0.87968 0.84071 0.0
O214 O 0.22455 0.98121 0.90764 0.0
O215 O 0.14301 0.87011 0.90804 0.0
O216 O 0.17362 0.93107 0.81839 0.0
O217 O 0.12076 0.93405 0.94233 0.0
O218 O 0.15293 0.0302 0.87357 0.0
O219 O 0.07969 0.93147 0.8387 0.0
Sc220 Sc 0.53289 0.1766 0.84186 0.0
Sc221 Sc 0.60174 0.11885 0.87331 0.0
Sc222 Sc 0.54 0.17048 0.91894 0.0
O223 O 0.55848 0.15517 0.87781 0.0
C224 C 0.51716 0.24479 0.88377 0.0
C225 C 0.61874 0.17855 0.82241 0.0
C226 C 0.62697 0.18408 0.92087 0.0
C227 C 0.54742 0.09143 0.82048 0.0
C228 C 0.46844 0.14234 0.88446 0.0
C229 C 0.57187 0.08956 0.93387 0.0
O230 O 0.53044 0.2328 0.85918 0.0
O231 O 0.62822 0.15088 0.83861 0.0
O232 O 0.59388 0.19685 0.92615 0.0
O233 O 0.53236 0.1237 0.81914 0.0
O234 O 0.48772 0.1414 0.90882 0.0
O235 O 0.58054 0.08143 0.90707 0.0
O236 O 0.47888 0.16053 0.86097 0.0
O237 O 0.57312 0.0836 0.83959 0.0
O238 O 0.56133 0.12204 0.94165 0.0
O239 O 0.58562 0.19204 0.82156 0.0
O240 O 0.51438 0.22367 0.90658 0.0
O241 O 0.63312 0.15367 0.90586 0.0
Sc242 Sc 0.3206 0.52936 0.85061 0.0
Sc243 Sc 0.37772 0.60475 0.87327 0.0
Sc244 Sc 0.33429 0.54725 0.92704 0.0
O245 O 0.34405 0.56057 0.88353 0.0
C246 C 0.25685 0.51745 0.89922 0.0
C247 C 0.31001 0.61272 0.82729 0.0
C248 C 0.31945 0.63484 0.9239 0.0
C249 C 0.4024 0.54624 0.82258 0.0
C250 C 0.36089 0.47149 0.89532 0.0
C251 C 0.41749 0.57852 0.93243 0.0
O252 O 0.2668 0.52139 0.87203 0.0
O253 O 0.33982 0.62486 0.83953 0.0
O254 O 0.30953 0.60236 0.9335 0.0
O255 O 0.37048 0.53032 0.8232 0.0
O256 O 0.36075 0.49283 0.91862 0.0
O257 O 0.41992 0.58951 0.90542 0.0
O258 O 0.34366 0.47935 0.87086 0.0
O259 O 0.41065 0.57343 0.84012 0.0
O260 O 0.38693 0.56722 0.94373 0.0
O261 O 0.29808 0.57908 0.8297 0.0
O262 O 0.27905 0.52409 0.92081 0.0
O263 O 0.34648 0.63966 0.9052 0.0
Sc264 Sc 0.95523 0.17554 0.56036 0.0
Sc265 Sc 0.89624 0.12734 0.60995 0.0
Sc266 Sc 0.97664 0.17196 0.63602 0.0
O267 O 0.94231 0.15923 0.6025 0.0
C268 C 0.03178 0.14337 0.58357 0.0
C269 C 0.93236 0.09344 0.55389 0.0
C270 C 0.95331 0.0925 0.65893 0.0
C271 C 0.8699 0.19005 0.56194 0.0
C272 C 0.98653 0.24529 0.59833 0.0
C273 C 0.89258 0.18369 0.66239 0.0
O274 O 0.00737 0.14561 0.56268 0.0
O275 O 0.91982 0.08677 0.58002 0.0
O276 O 0.97852 0.11593 0.65193 0.0
O277 O 0.90247 0.20426 0.55818 0.0
O278 O 0.97879 0.22981 0.62327 0.0
O279 O 0.87493 0.16714 0.64136 0.0
O280 O 0.98346 0.22789 0.57334 0.0
O281 O 0.86496 0.15804 0.5747 0.0
O282 O 0.92847 0.1849 0.66451 0.0
O283 O 0.9287 0.12579 0.54231 0.0
O284 O 0.02654 0.15725 0.60985 0.0
O285 O 0.92036 0.09412 0.64754 0.0
Sc286 Sc 0.33408 0.95136 0.55688 0.0
Sc287 Sc 0.38152 0.89922 0.61044 0.0
Sc288 Sc 0.32919 0.97848 0.63169 0.0
O289 O 0.34715 0.94283 0.60038 0.0
C290 C 0.3682 0.02843 0.58011 0.0
C291 C 0.41374 0.92815 0.55192 0.0
C292 C 0.40942 0.95767 0.6603 0.0
C293 C 0.31887 0.86718 0.56358 0.0
C294 C 0.26253 0.99077 0.5859 0.0
C295 C 0.31523 0.89556 0.65766 0.0
O296 O 0.36549 1.00366 0.55917 0.0
O297 O 0.42268 0.92157 0.57895 0.0
O298 O 0.38039 0.9778 0.65693 0.0
O299 O 0.30448 0.89909 0.5571 0.0
O300 O 0.27397 0.98649 0.61268 0.0
O301 O 0.34202 0.87955 0.64349 0.0
O302 O 0.28272 0.98217 0.56344 0.0
O303 O 0.3504 0.86394 0.57759 0.0
O304 O 0.30753 0.93072 0.65607 0.0
O305 O 0.38145 0.91888 0.54351 0.0
O306 O 0.35294 0.02487 0.60615 0.0
O307 O 0.41447 0.92765 0.64522 0.0
Sc308 Sc 0.549 0.33701 0.56692 0.0
Sc309 Sc 0.60465 0.38046 0.62023 0.0
Sc310 Sc 0.53334 0.31864 0.64248 0.0
O311 O 0.56279 0.34424 0.61043 0.0
C312 C 0.47421 0.36054 0.59963 0.0
C313 C 0.56623 0.41952 0.56813 0.0
C314 C 0.54885 0.39789 0.675 0.0
C315 C 0.63456 0.32779 0.56603 0.0
C316 C 0.52083 0.25804 0.59204 0.0
C317 C 0.61996 0.31044 0.66168 0.0
O318 O 0.49589 0.36429 0.57679 0.0
O319 O 0.57606 0.42321 0.59523 0.0
O320 O 0.53063 0.36762 0.67106 0.0
O321 O 0.6033 0.3115 0.56043 0.0
O322 O 0.52966 0.26527 0.61912 0.0
O323 O 0.63176 0.33929 0.64767 0.0
O324 O 0.52304 0.28268 0.57156 0.0
O325 O 0.63701 0.35796 0.58188 0.0
O326 O 0.58554 0.29995 0.66275 0.0
O327 O 0.57384 0.38949 0.55436 0.0
O328 O 0.48174 0.33931 0.62219 0.0
O329 O 0.57755 0.40604 0.6592 0.0
Sc330 Sc 0.17705 0.54251 0.5697 0.0
Sc331 Sc 0.12028 0.60002 0.61409 0.0
Sc332 Sc 0.17838 0.53248 0.64671 0.0
O333 O 0.15865 0.55866 0.61057 0.0
C334 C 0.14869 0.46906 0.60118 0.0
C335 C 0.09498 0.56842 0.55364 0.0
C336 C 0.09276 0.54488 0.66662 0.0
C337 C 0.18489 0.62879 0.56783 0.0
C338 C 0.24943 0.52011 0.60752 0.0
C339 C 0.17759 0.61892 0.6661 0.0
O340 O 0.14877 0.48932 0.57736 0.0
O341 O 0.08539 0.57443 0.58063 0.0
O342 O 0.12459 0.52901 0.66766 0.0
O343 O 0.20215 0.59739 0.56492 0.0
O344 O 0.23549 0.53278 0.63165 0.0
O345 O 0.15154 0.62869 0.64827 0.0
O346 O 0.23002 0.51761 0.5837 0.0
O347 O 0.15259 0.63209 0.58057 0.0
O348 O 0.1902 0.58546 0.66829 0.0
O349 O 0.1289 0.56378 0.54602 0.0
O350 O 0.1655 0.47864 0.62559 0.0
O351 O 0.08579 0.57172 0.64837 0.0
H352 H 0.78221 0.535 0.13256 0.0
H353 H 0.77092 0.5098 0.03721 0.0
H354 H 0.82805 0.54622 0.02664 0.0
H355 H 0.81402 0.62925 0.12396 0.0
H356 H 0.84733 0.62751 0.15448 0.0
H357 H 0.80621 0.59802 0.15528 0.0
H358 H 0.84824 0.53922 0.16148 0.0
H359 H 0.88961 0.56838 0.16062 0.0
H360 H 0.88484 0.53003 0.13437 0.0
H361 H 0.88498 0.58708 0.02563 0.0
H362 H 0.94075 0.62645 0.035 0.0
H363 H 0.91576 0.62569 0.13082 0.0
C364 C 0.79202 0.53672 0.10953 0.0
C365 C 0.77182 0.5195 0.08576 0.0
C366 C 0.78563 0.52276 0.05588 0.0
C367 C 0.81812 0.54347 0.04956 0.0
C368 C 0.83678 0.5608 0.07332 0.0
C369 C 0.82457 0.55739 0.10274 0.0
C370 C 0.84994 0.57916 0.12398 0.0
C371 C 0.82806 0.61034 0.14038 0.0
C372 C 0.86929 0.5526 0.14644 0.0
C373 C 0.87794 0.59552 0.10179 0.0
C374 C 0.86979 0.58456 0.07271 0.0
C375 C 0.89171 0.59586 0.04834 0.0
C376 C 0.92329 0.61842 0.05389 0.0
C377 C 0.93275 0.6295 0.08362 0.0
C378 C 0.90931 0.61811 0.10777 0.0
H379 H 0.97963 0.78676 0.05525 0.0
H380 H 0.03697 0.80188 0.14059 0.0
H381 H 0.01007 0.86537 0.14519 0.0
H382 H 0.98528 0.88812 0.03029 0.0
H383 H 0.93878 0.88751 0.01425 0.0
H384 H 0.96689 0.84532 0.01436 0.0
H385 H 0.91422 0.80939 0.042 0.0
H386 H 0.88552 0.85102 0.04197 0.0
H387 H 0.89604 0.8277 0.07697 0.0
H388 H 0.97066 0.92141 0.14518 0.0
H389 H 0.92259 0.97027 0.1393 0.0
H390 H 0.88937 0.9224 0.0534 0.0
C391 C 0.98755 0.80412 0.07426 0.0
C392 C 0.01075 0.78964 0.09743 0.0
C393 C 0.01947 0.81254 0.12255 0.0
C394 C 1.00439 0.84867 0.12532 0.0
C395 C 0.98055 0.86166 0.10277 0.0
C396 C 0.97233 0.84043 0.07752 0.0
C397 C 0.94294 0.86009 0.05821 0.0
C398 C 0.95945 0.87092 0.02745 0.0
C399 C 0.9076 0.83558 0.05459 0.0
C400 C 0.93491 0.89479 0.07722 0.0
C401 C 0.95737 0.895 0.10265 0.0
C402 C 0.95343 0.92197 0.1251 0.0
C403 C 0.92576 0.94941 0.12167 0.0
C404 C 0.90222 0.95003 0.09597 0.0
C405 C 0.90727 0.92274 0.0731 0.0
H406 H 0.58773 0.89796 0.12611 0.0
H407 H 0.55472 0.91551 0.03305 0.0
H408 H 0.6095 0.95736 0.02593 0.0
H409 H 0.61894 0.99319 0.1397 0.0
H410 H 0.65671 0.97848 0.16402 0.0
H411 H 0.61471 0.95042 0.1611 0.0
H412 H 0.65531 0.89259 0.14647 0.0
H413 H 0.6972 0.92075 0.14903 0.0
H414 H 0.68669 0.89579 0.11469 0.0
H415 H 0.67002 0.99539 0.02879 0.0
H416 H 0.73017 0.02648 0.04124 0.0
H417 H 0.72146 0.98582 0.13306 0.0
C418 C 0.59209 0.9102 0.10407 0.0
C419 C 0.56703 0.90289 0.08001 0.0
C420 C 0.57363 0.92025 0.05177 0.0
C421 C 0.60463 0.94421 0.04754 0.0
C422 C 0.62864 0.95081 0.07184 0.0
C423 C 0.62258 0.93437 0.09956 0.0
C424 C 0.65224 0.94609 0.12217 0.0
C425 C 0.63461 0.96838 0.14829 0.0
C426 C 0.67416 0.91176 0.13375 0.0
C427 C 0.67664 0.97105 0.10268 0.0
C428 C 0.66251 0.97356 0.07375 0.0
C429 C 0.68114 0.99381 0.05143 0.0
C430 C 0.71532 0.01138 0.05873 0.0
C431 C 0.73054 0.00884 0.08819 0.0
C432 C 0.71043 0.98882 0.11047 0.0
H433 H 0.52484 0.72519 0.12715 0.0
H434 H 0.49333 0.73922 0.03343 0.0
H435 H 0.5241 0.67882 0.02104 0.0
H436 H 0.61506 0.68853 0.11357 0.0
H437 H 0.61404 0.6559 0.14457 0.0
H438 H 0.58696 0.69856 0.1464 0.0
H439 H 0.52635 0.65994 0.15606 0.0
H440 H 0.55336 0.61716 0.15456 0.0
H441 H 0.5134 0.62312 0.13011 0.0
H442 H 0.56104 0.61701 0.01879 0.0
H443 H 0.60028 0.56051 0.02721 0.0
H444 H 0.60827 0.58908 0.12207 0.0
C445 C 0.52383 0.71541 0.10407 0.0
C446 C 0.50643 0.73707 0.08132 0.0
C447 C 0.50636 0.72323 0.05133 0.0
C448 C 0.52378 0.68889 0.04404 0.0
C449 C 0.54128 0.66865 0.06696 0.0
C450 C 0.54127 0.68142 0.09638 0.0
C451 C 0.56324 0.65534 0.11671 0.0
C452 C 0.59681 0.67581 0.13115 0.0
C453 C 0.53755 0.63786 0.14078 0.0
C454 C 0.57611 0.62617 0.09412 0.0
C455 C 0.56299 0.634 0.06555 0.0
C456 C 0.5715 0.61075 0.0411 0.0
C457 C 0.59382 0.57867 0.04609 0.0
C458 C 0.60775 0.57033 0.07524 0.0
C459 C 0.59856 0.59464 0.09941 0.0
H460 H 0.9257 0.88653 0.37279 0.0
H461 H 0.9534 0.89121 0.46799 0.0
H462 H 0.89936 0.93352 0.47656 0.0
H463 H 0.89877 0.98343 0.36599 0.0
H464 H 0.86181 0.97359 0.33937 0.0
H465 H 0.90234 0.94336 0.34129 0.0
H466 H 0.85868 0.8859 0.34986 0.0
H467 H 0.8182 0.91612 0.34807 0.0
H468 H 0.82555 0.88674 0.38057 0.0
H469 H 0.84149 0.97479 0.47465 0.0
H470 H 0.78361 0.01003 0.46282 0.0
H471 H 0.7956 0.97985 0.36853 0.0
C472 C 0.92026 0.89593 0.39558 0.0
C473 C 0.94372 0.88505 0.41978 0.0
C474 C 0.93573 0.89876 0.4491 0.0
C475 C 0.90519 0.92299 0.45417 0.0
C476 C 0.88306 0.93351 0.42968 0.0
C477 C 0.89021 0.92034 0.40099 0.0
C478 C 0.86247 0.93606 0.37843 0.0
C479 C 0.88254 0.96057 0.35488 0.0
C480 C 0.83989 0.90431 0.36336 0.0
C481 C 0.83802 0.95963 0.399 0.0
C482 C 0.85046 0.95795 0.42845 0.0
C483 C 0.83162 0.97643 0.45165 0.0
C484 C 0.79876 0.99642 0.44468 0.0
C485 C 0.78505 0.99792 0.41471 0.0
C486 C 0.80551 0.97976 0.39158 0.0
H487 H 0.62452 0.91371 0.44372 0.0
H488 H 0.60325 0.95455 0.35317 0.0
H489 H 0.55919 0.90283 0.34444 0.0
H490 H 0.62486 0.81663 0.42365 0.0
H491 H 0.60185 0.80029 0.45733 0.0
H492 H 0.62928 0.84281 0.45826 0.0
H493 H 0.5718 0.87933 0.47887 0.0
H494 H 0.54413 0.83688 0.47787 0.0
H495 H 0.52815 0.87827 0.45833 0.0
H496 H 0.52071 0.84629 0.34335 0.0
H497 H 0.49196 0.78393 0.34892 0.0
H498 H 0.53719 0.77565 0.43951 0.0
C499 C 0.61023 0.91179 0.42225 0.0
C500 C 0.61759 0.93807 0.39906 0.0
C501 C 0.59857 0.93451 0.37114 0.0
C502 C 0.57313 0.90539 0.366 0.0
C503 C 0.56684 0.87967 0.38893 0.0
C504 C 0.58484 0.88217 0.41645 0.0
C505 C 0.57458 0.84868 0.43613 0.0
C506 C 0.60974 0.82575 0.44431 0.0
C507 C 0.5534 0.86157 0.46448 0.0
C508 C 0.54884 0.82686 0.41498 0.0
C509 C 0.54448 0.84584 0.38811 0.0
C510 C 0.52365 0.83117 0.36434 0.0
C511 C 0.50751 0.79562 0.36771 0.0
C512 C 0.51228 0.77486 0.39462 0.0
C513 C 0.5326 0.79109 0.41885 0.0
H514 H 0.59733 0.6094 0.37125 0.0
H515 H 0.56632 0.6052 0.46578 0.0
H516 H 0.62196 0.56561 0.47607 0.0
H517 H 0.62819 0.51493 0.36516 0.0
H518 H 0.66636 0.52559 0.33989 0.0
H519 H 0.6251 0.55485 0.34031 0.0
H520 H 0.66575 0.61367 0.3506 0.0
H521 H 0.70735 0.58493 0.34984 0.0
H522 H 0.69752 0.61392 0.38221 0.0
H523 H 0.6821 0.52602 0.47564 0.0
H524 H 0.74086 0.49134 0.46452 0.0
H525 H 0.72968 0.52069 0.37008 0.0
C526 C 0.60226 0.60058 0.39424 0.0
C527 C 0.5774 0.61078 0.41772 0.0
C528 C 0.585 0.5981 0.44738 0.0
C529 C 0.61649 0.57545 0.45345 0.0
C530 C 0.6401 0.56561 0.42963 0.0
C531 C 0.63331 0.57793 0.40064 0.0
C532 C 0.66251 0.56329 0.37885 0.0
C533 C 0.64446 0.53815 0.35464 0.0
C534 C 0.68459 0.5959 0.36455 0.0
C535 C 0.68689 0.54072 0.40003 0.0
C536 C 0.67373 0.5424 0.42927 0.0
C537 C 0.69253 0.52444 0.45278 0.0
C538 C 0.72587 0.50475 0.44625 0.0
C539 C 0.73995 0.50301 0.41641 0.0
C540 C 0.7197 0.52101 0.39311 0.0
H541 H 0.9834 0.71696 0.36747 0.0
H542 H 0.03443 0.71659 0.45622 0.0
H543 H 0.00468 0.65526 0.46686 0.0
H544 H 0.89611 0.68008 0.38979 0.0
H545 H 0.88913 0.65202 0.35643 0.0
H546 H 0.91716 0.69407 0.35462 0.0
H547 H 0.97301 0.65577 0.33319 0.0
H548 H 0.94511 0.61357 0.33483 0.0
H549 H 0.98997 0.61537 0.35354 0.0
H550 H 0.96617 0.59507 0.46882 0.0
H551 H 0.92361 0.54097 0.46125 0.0
H552 H 0.89696 0.58184 0.3717 0.0
C553 C 0.98897 0.70371 0.38894 0.0
C554 C 0.0115 0.72168 0.41093 0.0
C555 C 0.01738 0.70349 0.43895 0.0
C556 C 1.00057 0.6686 0.44523 0.0
C557 C 0.97779 0.65217 0.42333 0.0
C558 C 0.97216 0.66906 0.39567 0.0
C559 C 0.94507 0.64645 0.37652 0.0
C560 C 0.90979 0.66954 0.36891 0.0
C561 C 0.96447 0.63194 0.34782 0.0
C562 C 0.93593 0.61451 0.39783 0.0
C563 C 0.95524 0.6181 0.42465 0.0
C564 C 0.95099 0.59202 0.44784 0.0
C565 C 0.92659 0.5614 0.44338 0.0
C566 C 0.9066 0.55704 0.41597 0.0
C567 C 0.91148 0.58423 0.39303 0.0
H568 H 0.07637 0.39142 0.86717 0.0
H569 H 0.05166 0.39602 0.96283 0.0
H570 H 0.10511 0.43952 0.97019 0.0
H571 H 0.17583 0.39119 0.8731 0.0
H572 H 0.1828 0.4203 0.84039 0.0
H573 H 0.14192 0.39071 0.84294 0.0
H574 H 0.0987 0.44876 0.83516 0.0
H575 H 0.13975 0.47818 0.83212 0.0
H576 H 0.10388 0.48901 0.85946 0.0
H577 H 0.16318 0.4807 0.967 0.0
H578 H 0.2217 0.51429 0.95417 0.0
H579 H 0.20739 0.483 0.86033 0.0
C580 C 0.08228 0.40118 0.88979 0.0
C581 C 0.05971 0.39011 0.91448 0.0
C582 C 0.06836 0.40413 0.94356 0.0
C583 C 0.09868 0.42889 0.94793 0.0
C584 C 0.12006 0.43942 0.92299 0.0
C585 C 0.11223 0.42591 0.89451 0.0
C586 C 0.13963 0.44106 0.87143 0.0
C587 C 0.16133 0.4089 0.85608 0.0
C588 C 0.11929 0.46573 0.84817 0.0
C589 C 0.16494 0.4644 0.89147 0.0
C590 C 0.15296 0.46344 0.92108 0.0
C591 C 0.17267 0.48179 0.94387 0.0
C592 C 0.20592 0.50082 0.93632 0.0
C593 C 0.21925 0.50143 0.9062 0.0
C594 C 0.19788 0.48352 0.88349 0.0
H595 H 0.01882 0.21682 0.86077 0.0
H596 H 0.99246 0.22584 0.95601 0.0
H597 H 0.03025 0.16912 0.96602 0.0
H598 H 0.01784 0.11344 0.85767 0.0
H599 H 0.05634 0.11117 0.83143 0.0
H600 H 0.02497 0.15092 0.83098 0.0
H601 H 0.08127 0.19612 0.83769 0.0
H602 H 0.11304 0.15676 0.83808 0.0
H603 H 0.11287 0.18967 0.86899 0.0
H604 H 0.07444 0.11372 0.96622 0.0
H605 H 0.11752 0.06093 0.95592 0.0
H606 H 0.11561 0.08856 0.86067 0.0
C607 C 0.02037 0.20655 0.88367 0.0
C608 C 1.00257 0.22599 0.90758 0.0
C609 C 0.00577 0.21161 0.93726 0.0
C610 C 0.02729 0.1794 0.94322 0.0
C611 C 0.04547 0.16176 0.91929 0.0
C612 C 0.04184 0.1745 0.89005 0.0
C613 C 0.06497 0.15087 0.8685 0.0
C614 C 0.0395 0.1304 0.8458 0.0
C615 C 0.09481 0.1748 0.85238 0.0
C616 C 0.08288 0.12346 0.89028 0.0
C617 C 0.07113 0.13007 0.91945 0.0
C618 C 0.08384 0.10831 0.94344 0.0
C619 C 0.10855 0.07849 0.93736 0.0
C620 C 0.12041 0.07063 0.9075 0.0
C621 C 0.10762 0.09393 0.88381 0.0
H622 H 0.28276 0.02237 0.92596 0.0
H623 H 0.28594 0.98393 0.83305 0.0
H624 H 0.34504 0.01796 0.82528 0.0
H625 H 0.31609 0.11322 0.9134 0.0
H626 H 0.34557 0.11653 0.94629 0.0
H627 H 0.30524 0.08597 0.94648 0.0
H628 H 0.34744 0.02959 0.96059 0.0
H629 H 0.38815 0.05977 0.9606 0.0
H630 H 0.38736 0.0182 0.93734 0.0
H631 H 0.39767 0.06191 0.82469 0.0
H632 H 0.4478 0.10795 0.83291 0.0
H633 H 0.41616 0.11705 0.92714 0.0
C634 C 0.29647 0.02027 0.90426 0.0
C635 C 0.27936 1.00046 0.88007 0.0
C636 C 0.29809 0.99895 0.85191 0.0
C637 C 0.33181 0.01823 0.84722 0.0
C638 C 0.34704 0.03866 0.87099 0.0
C639 C 0.33066 0.03929 0.89917 0.0
C640 C 0.35297 0.06465 0.92036 0.0
C641 C 0.3285 0.09701 0.93233 0.0
C642 C 0.37 0.04169 0.94627 0.0
C643 C 0.38343 0.07912 0.89923 0.0
C644 C 0.37911 0.06358 0.87091 0.0
C645 C 0.40177 0.07389 0.84684 0.0
C646 C 0.42999 0.10048 0.85175 0.0
C647 C 0.43594 0.11645 0.88065 0.0
C648 C 0.4124 0.10533 0.90484 0.0
H649 H 0.46796 0.27608 0.92517 0.0
H650 H 0.53139 0.30135 0.84408 0.0
H651 H 0.50127 0.36343 0.84147 0.0
H652 H 0.38356 0.31682 0.90199 0.0
H653 H 0.37049 0.33621 0.93802 0.0
H654 H 0.40003 0.2952 0.93623 0.0
H655 H 0.45064 0.32903 0.96821 0.0
H656 H 0.42108 0.37011 0.97034 0.0
H657 H 0.46835 0.37405 0.95615 0.0
H658 H 0.46071 0.41882 0.84383 0.0
H659 H 0.41252 0.46708 0.85199 0.0
H660 H 0.37455 0.40934 0.93243 0.0
C661 C 0.47619 0.29508 0.90732 0.0
C662 C 0.50219 0.28376 0.88484 0.0
C663 C 0.51161 0.30921 0.86153 0.0
C664 C 0.49472 0.34465 0.85989 0.0
C665 C 0.46857 0.35451 0.88183 0.0
C666 C 0.45948 0.3308 0.9053 0.0
C667 C 0.42861 0.34787 0.92476 0.0
C668 C 0.3936 0.32251 0.92526 0.0
C669 C 0.44304 0.35573 0.95677 0.0
C670 C 0.42106 0.38428 0.90791 0.0
C671 C 0.44479 0.38735 0.88335 0.0
C672 C 0.44225 0.41695 0.86311 0.0
C673 C 0.4146 0.4441 0.86787 0.0
C674 C 0.38978 0.44184 0.89274 0.0
C675 C 0.39338 0.41183 0.91339 0.0
H676 H 0.08628 0.12178 0.62413 0.0
H677 H 0.05443 0.11231 0.52996 0.0
H678 H 0.10785 0.06973 0.5211 0.0
H679 H 0.18636 0.12169 0.61255 0.0
H680 H 0.19596 0.09407 0.64566 0.0
H681 H 0.15515 0.12391 0.64449 0.0
H682 H 0.11284 0.06667 0.65684 0.0
H683 H 0.15353 0.03659 0.65784 0.0
H684 H 0.11483 0.02549 0.63321 0.0
H685 H 0.16502 0.02851 0.52224 0.0
H686 H 0.22351 0.99379 0.53278 0.0
H687 H 0.21786 0.02906 0.62636 0.0
C688 C 0.09077 0.11121 0.60153 0.0
C689 C 0.06618 0.12083 0.57771 0.0
C690 C 0.07293 0.10579 0.54859 0.0
C691 C 0.10314 0.08134 0.54333 0.0
C692 C 0.12645 0.0721 0.56738 0.0
C693 C 0.12076 0.08668 0.59587 0.0
C694 C 0.15006 0.07229 0.61779 0.0
C695 C 0.17326 0.10494 0.63088 0.0
C696 C 0.13172 0.04886 0.6429 0.0
C697 C 0.17349 0.04784 0.59704 0.0
C698 C 0.1592 0.04793 0.56812 0.0
C699 C 0.17647 0.0282 0.54481 0.0
C700 C 0.20972 0.00854 0.55105 0.0
C701 C 0.22541 0.0086 0.58041 0.0
C702 C 0.20653 0.0281 0.60374 0.0
H703 H 0.49425 0.20316 0.6304 0.0
H704 H 0.50886 0.22914 0.53563 0.0
H705 H 0.47398 0.1717 0.522 0.0
H706 H 0.50138 0.09963 0.62116 0.0
H707 H 0.46622 0.08995 0.64921 0.0
H708 H 0.49561 0.13104 0.65274 0.0
H709 H 0.43752 0.17425 0.65546 0.0
H710 H 0.4074 0.13378 0.65292 0.0
H711 H 0.40237 0.17166 0.6263 0.0
H712 H 0.43332 0.11341 0.51858 0.0
H713 H 0.39089 0.05907 0.52616 0.0
H714 H 0.40176 0.0724 0.62292 0.0
C715 C 0.49088 0.19638 0.60678 0.0
C716 C 0.5044 0.22082 0.58413 0.0
C717 C 0.49881 0.21101 0.55346 0.0
C718 C 0.47903 0.17836 0.54544 0.0
C719 C 0.46501 0.15559 0.5683 0.0
C720 C 0.47103 0.16394 0.59835 0.0
C721 C 0.45151 0.13572 0.61853 0.0
C722 C 0.48042 0.11275 0.63648 0.0
C723 C 0.42301 0.15502 0.63952 0.0
C724 C 0.4321 0.11144 0.5952 0.0
C725 C 0.44079 0.12281 0.56633 0.0
C726 C 0.42627 0.10434 0.54113 0.0
C727 C 0.40219 0.07351 0.54563 0.0
C728 C 0.39254 0.06173 0.57508 0.0
C729 C 0.40793 0.08106 0.60008 0.0
H730 H 0.28729 0.47913 0.5637 0.0
H731 H 0.29906 0.52459 0.65414 0.0
H732 H 0.35891 0.49117 0.65986 0.0
H733 H 0.32177 0.38943 0.57843 0.0
H734 H 0.34791 0.38379 0.54394 0.0
H735 H 0.30756 0.41428 0.54496 0.0
H736 H 0.34815 0.46924 0.52545 0.0
H737 H 0.38923 0.43954 0.52464 0.0
H738 H 0.38969 0.48272 0.54592 0.0
H739 H 0.41168 0.4472 0.65918 0.0
H740 H 0.46014 0.39942 0.65013 0.0
H741 H 0.41945 0.38403 0.5588 0.0
C742 C 0.30291 0.48277 0.58442 0.0
C743 C 0.28816 0.50446 0.60853 0.0
C744 C 0.30944 0.50813 0.63536 0.0
C745 C 0.34359 0.48925 0.63886 0.0
C746 C 0.3566 0.46714 0.6152 0.0
C747 C 0.33749 0.46426 0.58825 0.0
C748 C 0.35765 0.43742 0.56693 0.0
C749 C 0.33219 0.40427 0.55805 0.0
C750 C 0.37203 0.45846 0.53904 0.0
C751 C 0.39005 0.42459 0.58669 0.0
C752 C 0.38864 0.44228 0.61441 0.0
C753 C 0.41347 0.43352 0.63747 0.0
C754 C 0.44066 0.40604 0.63217 0.0
C755 C 0.44332 0.38779 0.60388 0.0
C756 C 0.41801 0.39759 0.58061 0.0
H757 H 0.13118 0.41258 0.55939 0.0
H758 H 0.10375 0.45535 0.6483 0.0
H759 H 0.0548 0.40738 0.65372 0.0
H760 H 0.03499 0.38233 0.53723 0.0
H761 H 0.05196 0.34033 0.51918 0.0
H762 H 0.08145 0.38152 0.52098 0.0
H763 H 0.13308 0.34013 0.54638 0.0
H764 H 0.10232 0.29995 0.54529 0.0
H765 H 0.12193 0.31537 0.58063 0.0
H766 H 0.00992 0.35576 0.65086 0.0
H767 H 0.97627 0.29636 0.64293 0.0
H768 H 0.03355 0.28126 0.55736 0.0
C769 C 0.11474 0.4117 0.57988 0.0
C770 C 0.12143 0.43767 0.60353 0.0
C771 C 0.09954 0.43552 0.63011 0.0
C772 C 0.07131 0.4086 0.63329 0.0
C773 C 0.0654 0.38339 0.60984 0.0
C774 C 0.08675 0.38402 0.58383 0.0
C775 C 0.0764 0.35098 0.56358 0.0
C776 C 0.06028 0.36465 0.53344 0.0
C777 C 0.11046 0.32507 0.55869 0.0
C778 C 0.04624 0.33187 0.58249 0.0
C779 C 0.04004 0.35175 0.60876 0.0
C780 C 0.01444 0.33985 0.63039 0.0
C781 C 0.99544 0.306 0.62564 0.0
C782 C 1.00223 0.28398 0.59957 0.0
C783 C 0.02736 0.29764 0.57732 0.0
H784 H 0.11629 0.75914 0.17391 0.0
H785 H 0.15424 0.65219 0.20844 0.0
H786 H 0.18262 0.68407 0.25213 0.0
H787 H 0.19893 0.81916 0.21434 0.0
H788 H 0.16556 0.85671 0.21962 0.0
H789 H 0.16461 0.82893 0.18559 0.0
H790 H 0.09443 0.8142 0.19508 0.0
H791 H 0.09524 0.84114 0.22894 0.0
H792 H 0.08066 0.79258 0.23015 0.0
H793 H 0.18092 0.71988 0.29813 0.0
H794 H 0.15414 0.75739 0.33977 0.0
H795 H 0.12103 0.84359 0.27684 0.0
C796 C 0.13225 0.74302 0.19014 0.0
C797 C 0.13284 0.70365 0.18856 0.0
C798 C 0.15367 0.68261 0.20961 0.0
C799 C 0.17015 0.70057 0.2343 0.0
C800 C 0.16633 0.7395 0.23688 0.0
C801 C 0.1491 0.76078 0.21465 0.0
C802 C 0.14169 0.80048 0.22519 0.0
C803 C 0.16936 0.82794 0.21032 0.0
C804 C 0.10059 0.81269 0.21956 0.0
C805 C 0.15043 0.79598 0.25826 0.0
C806 C 0.16679 0.76138 0.26431 0.0
C807 C 0.16985 0.74765 0.29368 0.0
C808 C 0.15426 0.76877 0.31715 0.0
C809 C 0.13612 0.80299 0.31084 0.0
C810 C 0.13582 0.81767 0.2816 0.0
H811 H 0.6707 0.12551 0.2832 0.0
H812 H 0.76095 0.15451 0.3438 0.0
H813 H 0.79603 0.1833 0.30171 0.0
H814 H 0.71969 0.08633 0.23483 0.0
H815 H 0.69663 0.10047 0.20049 0.0
H816 H 0.67104 0.10064 0.23499 0.0
H817 H 0.65465 0.1709 0.22749 0.0
H818 H 0.68044 0.17088 0.19251 0.0
H819 H 0.69158 0.20472 0.2214 0.0
H820 H 0.82853 0.18913 0.25429 0.0
H821 H 0.85802 0.16354 0.20855 0.0
H822 H 0.74986 0.12441 0.17723 0.0
C823 C 0.69698 0.13991 0.28748 0.0
C824 C 0.71333 0.13866 0.31616 0.0
C825 C 0.74817 0.15599 0.3217 0.0
C826 C 0.76791 0.17271 0.29798 0.0
C827 C 0.7524 0.17127 0.26907 0.0
C828 C 0.71736 0.15542 0.26378 0.0
C829 C 0.7113 0.1474 0.23068 0.0
C830 C 0.69905 0.10629 0.22498 0.0
C831 C 0.68281 0.17514 0.21723 0.0
C832 C 0.75032 0.15537 0.219 0.0
C833 C 0.77261 0.17212 0.24085 0.0
C834 C 0.81115 0.17707 0.23678 0.0
C835 C 0.82774 0.16229 0.21082 0.0
C836 C 0.80585 0.14188 0.18994 0.0
C837 C 0.76666 0.14021 0.19315 0.0
H838 H 0.40445 0.84107 0.22513 0.0
H839 H 0.35777 0.76471 0.15939 0.0
H840 H 0.3331 0.72451 0.20032 0.0
H841 H 0.44457 0.78179 0.26561 0.0
H842 H 0.43646 0.80109 0.30263 0.0
H843 H 0.43511 0.83125 0.27061 0.0
H844 H 0.36781 0.85262 0.28474 0.0
H845 H 0.36907 0.82235 0.31728 0.0
H846 H 0.3314 0.81812 0.29038 0.0
H847 H 0.33267 0.68444 0.24472 0.0
H848 H 0.35874 0.64773 0.28708 0.0
H849 H 0.40783 0.74879 0.32425 0.0
C850 C 0.38742 0.81671 0.21978 0.0
C851 C 0.38263 0.80539 0.18986 0.0
C852 C 0.36119 0.77339 0.18263 0.0
C853 C 0.34681 0.75083 0.20569 0.0
C854 C 0.35403 0.76125 0.23549 0.0
C855 C 0.37336 0.794 0.24257 0.0
C856 C 0.38531 0.79488 0.27515 0.0
C857 C 0.42784 0.80262 0.27864 0.0
C858 C 0.36198 0.82369 0.29293 0.0
C859 C 0.37493 0.75535 0.284 0.0
C860 C 0.35471 0.73717 0.2616 0.0
C861 C 0.3473 0.69865 0.26281 0.0
C862 C 0.3624 0.67797 0.28668 0.0
C863 C 0.38531 0.69597 0.3082 0.0
C864 C 0.39014 0.73503 0.30773 0.0
H865 H 0.66245 0.41998 0.22048 0.0
H866 H 0.72479 0.34415 0.16309 0.0
H867 H 0.75563 0.31657 0.20796 0.0
H868 H 0.72877 0.44775 0.26221 0.0
H869 H 0.70484 0.45008 0.29798 0.0
H870 H 0.6784 0.45304 0.26395 0.0
H871 H 0.63763 0.39665 0.28087 0.0
H872 H 0.66441 0.39334 0.31524 0.0
H873 H 0.65967 0.35285 0.29108 0.0
H874 H 0.7922 0.3123 0.25457 0.0
H875 H 0.83203 0.3335 0.29675 0.0
H876 H 0.74496 0.41078 0.32494 0.0
C877 C 0.68165 0.39658 0.21777 0.0
C878 C 0.692 0.38417 0.189 0.0
C879 C 0.71694 0.35376 0.18538 0.0
C880 C 0.73408 0.33775 0.2107 0.0
C881 C 0.72488 0.35198 0.23912 0.0
C882 C 0.69849 0.3803 0.24277 0.0
C883 C 0.69856 0.39595 0.27435 0.0
C884 C 0.70299 0.43919 0.27458 0.0
C885 C 0.66296 0.38395 0.29139 0.0
C886 C 0.73274 0.37611 0.28657 0.0
C887 C 0.7463 0.34926 0.26667 0.0
C888 C 0.78123 0.3322 0.27079 0.0
C889 C 0.80377 0.3445 0.2947 0.0
C890 C 0.79132 0.37399 0.31352 0.0
C891 C 0.7547 0.38813 0.31059 0.0
H892 H 0.89728 0.16378 0.72005 0.0
H893 H 0.83991 0.23918 0.65938 0.0
H894 H 0.81308 0.27356 0.70286 0.0
H895 H 0.82217 0.17335 0.78645 0.0
H896 H 0.8601 0.17 0.81318 0.0
H897 H 0.86154 0.14292 0.77881 0.0
H898 H 0.92657 0.17154 0.76623 0.0
H899 H 0.92533 0.19833 0.80017 0.0
H900 H 0.93159 0.22199 0.76462 0.0
H901 H 0.81156 0.31057 0.74938 0.0
H902 H 0.83686 0.3462 0.79262 0.0
H903 H 0.89309 0.24617 0.82442 0.0
C904 C 0.8777 0.18659 0.71627 0.0
C905 C 0.87064 0.19943 0.68701 0.0
C906 C 0.84532 0.22923 0.68201 0.0
C907 C 0.82972 0.24852 0.70654 0.0
C908 C 0.83904 0.23672 0.7356 0.0
C909 C 0.86172 0.20561 0.74051 0.0
C910 C 0.87375 0.20275 0.773 0.0
C911 C 0.85314 0.17034 0.78879 0.0
C912 C 0.91681 0.19851 0.77612 0.0
C913 C 0.8598 0.24023 0.78436 0.0
C914 C 0.83778 0.25845 0.76316 0.0
C915 C 0.82756 0.29615 0.76656 0.0
C916 C 0.84213 0.31627 0.79107 0.0
C917 C 0.86709 0.29859 0.81126 0.0
C918 C 0.87391 0.25984 0.809 0.0
H919 H 0.2405 0.90063 0.66218 0.0
H920 H 0.33649 0.83996 0.69655 0.0
H921 H 0.29726 0.81383 0.73737 0.0
H922 H 0.21274 0.9364 0.72169 0.0
H923 H 0.16244 0.93281 0.71761 0.0
H924 H 0.1915 0.93246 0.68492 0.0
H925 H 0.16304 0.86874 0.66832 0.0
H926 H 0.13329 0.86904 0.70122 0.0
H927 H 0.1634 0.82935 0.6938 0.0
H928 H 0.25688 0.814 0.78202 0.0
H929 H 0.22025 0.84009 0.82455 0.0
H930 H 0.15008 0.90098 0.76209 0.0
C931 C 0.25255 0.88045 0.67765 0.0
C932 C 0.29114 0.87248 0.67683 0.0
C933 C 0.3067 0.84617 0.69703 0.0
C934 C 0.28452 0.83104 0.72009 0.0
C935 C 0.24687 0.84194 0.72196 0.0
C936 C 0.2307 0.86532 0.70061 0.0
C937 C 0.1927 0.87949 0.71061 0.0
C938 C 0.18979 0.9228 0.70864 0.0
C939 C 0.16125 0.8605 0.69241 0.0
C940 C 0.1928 0.86564 0.74268 0.0
C941 C 0.223 0.84205 0.74836 0.0
C942 C 0.23239 0.83116 0.77764 0.0
C943 C 0.2117 0.8462 0.80166 0.0
C944 C 0.18273 0.87224 0.79597 0.0
C945 C 0.17199 0.88056 0.76638 0.0
H946 H 0.6396 0.2508 0.81714 0.0
H947 H 0.65786 0.13991 0.78044 0.0
H948 H 0.68714 0.1675 0.73544 0.0
H949 H 0.60563 0.29135 0.76583 0.0
H950 H 0.62843 0.33667 0.76519 0.0
H951 H 0.62817 0.31003 0.79908 0.0
H952 H 0.70067 0.31257 0.80145 0.0
H953 H 0.70116 0.33987 0.76725 0.0
H954 H 0.72824 0.2972 0.76971 0.0
H955 H 0.68236 0.20271 0.68977 0.0
H956 H 0.65216 0.2424 0.65129 0.0
H957 H 0.64421 0.33366 0.71505 0.0
C958 C 0.65205 0.23274 0.80023 0.0
C959 C 0.64651 0.19374 0.80159 0.0
C960 C 0.66224 0.17003 0.77951 0.0
C961 C 0.67917 0.18554 0.75401 0.0
C962 C 0.68101 0.22463 0.75157 0.0
C963 C 0.66964 0.24806 0.77493 0.0
C964 C 0.66741 0.28855 0.76472 0.0
C965 C 0.63018 0.30763 0.77421 0.0
C966 C 0.7014 0.31084 0.77646 0.0
C967 C 0.67035 0.28284 0.73106 0.0
C968 C 0.68066 0.24622 0.72396 0.0
C969 C 0.67619 0.23182 0.69484 0.0
C970 C 0.65869 0.25428 0.67316 0.0
C971 C 0.64665 0.29075 0.68072 0.0
C972 C 0.65457 0.30599 0.70913 0.0
H973 H 0.24927 0.64089 0.6711 0.0
H974 H 0.13862 0.65655 0.70868 0.0
H975 H 0.16631 0.68301 0.75478 0.0
H976 H 0.28896 0.60277 0.7205 0.0
H977 H 0.33459 0.62472 0.72268 0.0
H978 H 0.30837 0.62755 0.68862 0.0
H979 H 0.31174 0.70005 0.68978 0.0
H980 H 0.33896 0.69752 0.72399 0.0
H981 H 0.29673 0.72541 0.72281 0.0
H982 H 0.20134 0.67448 0.80006 0.0
H983 H 0.24109 0.64237 0.83748 0.0
H984 H 0.33236 0.63799 0.77359 0.0
C985 C 0.23129 0.65242 0.68847 0.0
C986 C 0.19232 0.64684 0.68699 0.0
C987 C 0.16869 0.66113 0.70968 0.0
C988 C 0.18429 0.67636 0.73586 0.0
C989 C 0.22338 0.67777 0.7384 0.0
C990 C 0.24674 0.66804 0.71456 0.0
C991 C 0.28716 0.66442 0.72475 0.0
C992 C 0.30572 0.62766 0.71353 0.0
C993 C 0.30998 0.69891 0.71475 0.0
C994 C 0.28141 0.66483 0.75847 0.0
C995 C 0.24487 0.67488 0.76596 0.0
C996 C 0.2304 0.66849 0.79477 0.0
C997 C 0.25285 0.64981 0.81578 0.0
C998 C 0.28942 0.6384 0.80793 0.0
C999 C 0.30459 0.64773 0.77978 0.0
H1000 H 0.18531 0.71573 0.11046 0.0
H1001 H 0.16456 0.70685 0.01456 0.0
H1002 H 0.22196 0.74468 0.00462 0.0
H1003 H 0.21575 0.8126 0.10824 0.0
H1004 H 0.25012 0.80677 0.13766 0.0
H1005 H 0.20873 0.77766 0.13706 0.0
H1006 H 0.25029 0.7179 0.13739 0.0
H1007 H 0.29172 0.7469 0.13824 0.0
H1008 H 0.28608 0.71215 0.10901 0.0
H1009 H 0.28419 0.77991 0.00537 0.0
H1010 H 0.3422 0.81608 0.01692 0.0
H1011 H 0.31765 0.80791 0.11224 0.0
C1012 C 0.19309 0.72152 0.08733 0.0
C1013 C 0.17104 0.70788 0.06319 0.0
C1014 C 0.18134 0.71682 0.03329 0.0
C1015 C 0.21383 0.73818 0.02746 0.0
C1016 C 0.23507 0.75115 0.05178 0.0
C1017 C 0.22471 0.74368 0.08116 0.0
C1018 C 0.25114 0.76246 0.10335 0.0
C1019 C 0.23017 0.7916 0.12271 0.0
C1020 C 0.27098 0.73309 0.12315 0.0
C1021 C 0.27843 0.78122 0.08189 0.0
C1022 C 0.26902 0.77394 0.05223 0.0
C1023 C 0.29148 0.78636 0.02846 0.0
C1024 C 0.3243 0.80679 0.03519 0.0
C1025 C 0.33379 0.81535 0.06537 0.0
C1026 C 0.31043 0.80251 0.08893 0.0
H1027 H 0.75928 0.16323 0.08179 0.0
H1028 H 0.86453 0.20306 0.04466 0.0
H1029 H 0.8354 0.26486 0.03414 0.0
H1030 H 0.69499 0.21811 0.03187 0.0
H1031 H 0.66252 0.22773 0.06206 0.0
H1032 H 0.68958 0.18489 0.06219 0.0
H1033 H 0.7152 0.20148 0.11522 0.0
H1034 H 0.68837 0.24435 0.11518 0.0
H1035 H 0.73845 0.24594 0.12102 0.0
H1036 H 0.7966 0.32331 0.03091 0.0
H1037 H 0.75314 0.37607 0.03865 0.0
H1038 H 0.67321 0.3006 0.0812 0.0
C1039 C 0.77575 0.18472 0.07067 0.0
C1040 C 0.81394 0.17825 0.0634 0.0
C1041 C 0.83514 0.20738 0.04999 0.0
C1042 C 0.81878 0.24249 0.04389 0.0
C1043 C 0.78127 0.24831 0.0518 0.0
C1044 C 0.76002 0.22034 0.06509 0.0
C1045 C 0.72162 0.23527 0.07426 0.0
C1046 C 0.69033 0.21531 0.05654 0.0
C1047 C 0.71558 0.23154 0.10844 0.0
C1048 C 0.72501 0.27622 0.06488 0.0
C1049 C 0.75936 0.28279 0.05134 0.0
C1050 C 0.7696 0.31845 0.04143 0.0
C1051 C 0.74456 0.34836 0.046 0.0
C1052 C 0.70953 0.34285 0.06069 0.0
C1053 C 0.69955 0.30595 0.06979 0.0
H1054 H 0.30246 0.66915 0.42007 0.0
H1055 H 0.38091 0.75271 0.45393 0.0
H1056 H 0.32847 0.79607 0.46343 0.0
H1057 H 0.24378 0.72967 0.38135 0.0
H1058 H 0.20028 0.70669 0.39096 0.0
H1059 H 0.24328 0.68018 0.39005 0.0
H1060 H 0.23207 0.65891 0.44503 0.0
H1061 H 0.18905 0.68563 0.44645 0.0
H1062 H 0.22529 0.6937 0.47406 0.0
H1063 H 0.26965 0.83424 0.46135 0.0
H1064 H 0.207 0.86217 0.45226 0.0
H1065 H 0.16498 0.75347 0.42374 0.0
C1066 C 0.30859 0.69628 0.43 0.0
C1067 C 0.3461 0.70735 0.43606 0.0
C1068 C 0.35264 0.74329 0.44899 0.0
C1069 C 0.32295 0.76826 0.45456 0.0
C1070 C 0.28657 0.75688 0.44758 0.0
C1071 C 0.27911 0.72152 0.4361 0.0
C1072 C 0.23749 0.71703 0.42943 0.0
C1073 C 0.23084 0.70786 0.39597 0.0
C1074 C 0.21993 0.68704 0.44997 0.0
C1075 C 0.22318 0.75601 0.43742 0.0
C1076 C 0.25198 0.77849 0.448 0.0
C1077 C 0.24665 0.81667 0.45383 0.0
C1078 C 0.21107 0.83234 0.44852 0.0
C1079 C 0.18113 0.80981 0.43787 0.0
C1080 C 0.18716 0.77103 0.43277 0.0
H1081 H 0.76099 0.3418 0.42513 0.0
H1082 H 0.87014 0.29894 0.45103 0.0
H1083 H 0.84111 0.23818 0.46512 0.0
H1084 H 0.70207 0.2872 0.48086 0.0
H1085 H 0.66598 0.27985 0.45312 0.0
H1086 H 0.69428 0.32188 0.45198 0.0
H1087 H 0.71203 0.30584 0.39647 0.0
H1088 H 0.68447 0.26356 0.39827 0.0
H1089 H 0.73347 0.26107 0.38822 0.0
H1090 H 0.80113 0.1804 0.47223 0.0
H1091 H 0.75626 0.12828 0.46506 0.0
H1092 H 0.67378 0.20715 0.43063 0.0
C1093 C 0.77848 0.31994 0.43467 0.0
C1094 C 0.81768 0.32517 0.43755 0.0
C1095 C 0.84002 0.29552 0.44892 0.0
C1096 C 0.82371 0.26104 0.45715 0.0
C1097 C 0.78503 0.25643 0.45354 0.0
C1098 C 0.76273 0.285 0.44228 0.0
C1099 C 0.72311 0.27111 0.43628 0.0
C1100 C 0.69469 0.29123 0.45678 0.0
C1101 C 0.71268 0.27566 0.40283 0.0
C1102 C 0.72693 0.23002 0.44489 0.0
C1103 C 0.76249 0.22242 0.45574 0.0
C1104 C 0.77315 0.1861 0.46389 0.0
C1105 C 0.74732 0.15662 0.45981 0.0
C1106 C 0.71135 0.16338 0.44716 0.0
C1107 C 0.7009 0.20088 0.44044 0.0
H1108 H 0.70239 0.17063 0.91049 0.0
H1109 H 0.62644 0.25067 0.95243 0.0
H1110 H 0.67982 0.29294 0.96257 0.0
H1111 H 0.78385 0.18919 0.96156 0.0
H1112 H 0.81723 0.18376 0.93134 0.0
H1113 H 0.7738 0.15769 0.93075 0.0
H1114 H 0.75864 0.18506 0.87805 0.0
H1115 H 0.80178 0.21139 0.87859 0.0
H1116 H 0.75772 0.23533 0.87302 0.0
H1117 H 0.73966 0.33066 0.96142 0.0
H1118 H 0.80222 0.35874 0.95191 0.0
H1119 H 0.84037 0.25344 0.91345 0.0
C1120 C 0.69699 0.19661 0.92246 0.0
C1121 C 0.65993 0.2071 0.93063 0.0
C1122 C 0.65436 0.24173 0.94592 0.0
C1123 C 0.6846 0.26603 0.95183 0.0
C1124 C 0.72049 0.25531 0.94266 0.0
C1125 C 0.72692 0.22117 0.92869 0.0
C1126 C 0.76786 0.21732 0.91956 0.0
C1127 C 0.7868 0.18507 0.93684 0.0
C1128 C 0.7717 0.21197 0.88528 0.0
C1129 C 0.78311 0.25517 0.92953 0.0
C1130 C 0.75534 0.27663 0.94294 0.0
C1131 C 0.76178 0.31383 0.95153 0.0
C1132 C 0.79731 0.3296 0.94596 0.0
C1133 C 0.82617 0.30805 0.93241 0.0
C1134 C 0.81906 0.27019 0.92457 0.0
H1135 H 0.3323 0.70948 0.91014 0.0
H1136 H 0.25277 0.63598 0.95521 0.0
H1137 H 0.20961 0.68953 0.96201 0.0
H1138 H 0.31356 0.79436 0.95625 0.0
H1139 H 0.31832 0.82535 0.92444 0.0
H1140 H 0.34455 0.78204 0.92572 0.0
H1141 H 0.31652 0.76265 0.87418 0.0
H1142 H 0.28999 0.80567 0.87282 0.0
H1143 H 0.26622 0.7611 0.86958 0.0
H1144 H 0.17136 0.749 0.95765 0.0
H1145 H 0.14363 0.8113 0.94668 0.0
H1146 H 0.24903 0.84742 0.90732 0.0
C1147 C 0.30622 0.7047 0.9221 0.0
C1148 C 0.29618 0.66824 0.93219 0.0
C1149 C 0.26145 0.66347 0.9474 0.0
C1150 C 0.2366 0.69378 0.95131 0.0
C1151 C 0.24695 0.72899 0.94031 0.0
C1152 C 0.28121 0.73475 0.92645 0.0
C1153 C 0.2848 0.77498 0.9154 0.0
C1154 C 0.31722 0.79538 0.93142 0.0
C1155 C 0.28966 0.77615 0.88096 0.0
C1156 C 0.24699 0.79081 0.9248 0.0
C1157 C 0.22545 0.76373 0.93894 0.0
C1158 C 0.18826 0.77064 0.94719 0.0
C1159 C 0.1727 0.80605 0.94081 0.0
C1160 C 0.19439 0.83436 0.9267 0.0
C1161 C 0.23215 0.82665 0.91893 0.0
H1162 H 0.79432 0.1729 0.56804 0.0
H1163 H 0.87 0.2591 0.53465 0.0
H1164 H 0.81618 0.30072 0.52532 0.0
H1165 H 0.71371 0.19694 0.51487 0.0
H1166 H 0.67974 0.18625 0.54366 0.0
H1167 H 0.72379 0.16123 0.54247 0.0
H1168 H 0.73575 0.18115 0.59815 0.0
H1169 H 0.69235 0.20696 0.59874 0.0
H1170 H 0.73579 0.23044 0.60773 0.0
H1171 H 0.75656 0.33721 0.52854 0.0
H1172 H 0.69414 0.36392 0.54056 0.0
H1173 H 0.65542 0.25392 0.56854 0.0
C1174 C 0.79953 0.20012 0.558 0.0
C1175 C 0.83666 0.21258 0.55228 0.0
C1176 C 0.84204 0.24869 0.53941 0.0
C1177 C 0.81154 0.27264 0.53391 0.0
C1178 C 0.77554 0.26003 0.5408 0.0
C1179 C 0.76923 0.22435 0.55203 0.0
C1180 C 0.72798 0.21885 0.55958 0.0
C1181 C 0.71027 0.18903 0.53892 0.0
C1182 C 0.72269 0.20877 0.59303 0.0
C1183 C 0.71262 0.25767 0.55258 0.0
C1184 C 0.7405 0.28087 0.54144 0.0
C1185 C 0.73425 0.31907 0.53647 0.0
C1186 C 0.69879 0.33404 0.54341 0.0
C1187 C 0.66986 0.31081 0.55484 0.0
C1188 C 0.67671 0.272 0.55886 0.0
H1189 H 0.33445 0.7934 0.57843 0.0
H1190 H 0.25477 0.86267 0.52946 0.0
H1191 H 0.21578 0.80685 0.51962 0.0
H1192 H 0.32307 0.70747 0.53015 0.0
H1193 H 0.32732 0.67645 0.56204 0.0
H1194 H 0.35178 0.72084 0.56185 0.0
H1195 H 0.32001 0.7389 0.61239 0.0
H1196 H 0.29544 0.69474 0.61275 0.0
H1197 H 0.26948 0.73813 0.61512 0.0
H1198 H 0.18065 0.74621 0.52165 0.0
H1199 H 0.15331 0.68415 0.53406 0.0
H1200 H 0.2565 0.65263 0.57911 0.0
C1201 C 0.3093 0.79673 0.565 0.0
C1202 C 0.29782 0.83264 0.5548 0.0
C1203 C 0.26432 0.83565 0.53765 0.0
C1204 C 0.24196 0.80401 0.53179 0.0
C1205 C 0.25359 0.76929 0.54281 0.0
C1206 C 0.28668 0.76532 0.55878 0.0
C1207 C 0.29129 0.72531 0.57001 0.0
C1208 C 0.32539 0.7064 0.55512 0.0
C1209 C 0.29421 0.72423 0.6046 0.0
C1210 C 0.25483 0.70791 0.55909 0.0
C1211 C 0.23366 0.73371 0.54317 0.0
C1212 C 0.1973 0.7255 0.53347 0.0
C1213 C 0.18197 0.69028 0.54064 0.0
C1214 C 0.20311 0.66354 0.55698 0.0
C1215 C 0.24026 0.67222 0.56576 0.0
H1216 H 0.95983 0.48715 0.92785 0.0
H1217 H 0.95976 0.39257 0.98967 0.0
H1218 H 0.00898 0.42278 0.01964 0.0
H1219 H 0.06206 0.51011 0.93442 0.0
H1220 H 0.05347 0.56004 0.93392 0.0
H1221 H 0.02261 0.52861 0.91378 0.0
H1222 H 0.96509 0.55515 0.94297 0.0
H1223 H 0.9957 0.58705 0.96252 0.0
H1224 H 0.96596 0.55558 0.98357 0.0
H1225 H 0.05466 0.46325 0.04477 0.0
H1226 H 0.08299 0.5177 0.07009 0.0
H1227 H 0.05187 0.58843 0.99443 0.0
C1228 C 0.97052 0.47271 0.9475 0.0
C1229 C 0.95618 0.43736 0.95615 0.0
C1230 C 0.9703 0.41965 0.98242 0.0
C1231 C 0.9987 0.4363 -0.00055 0.0
C1232 C 0.01276 0.47075 0.99006 0.0
C1233 C 0.99867 0.48923 0.96513 0.0
C1234 C 0.01489 0.52843 0.9627 0.0
C1235 C 0.03974 0.53199 0.93453 0.0
C1236 C 0.98355 0.55829 0.96298 0.0
C1237 C 0.03837 0.5297 0.99115 0.0
C1238 C 0.0381 0.49547 0.00575 0.0
C1239 C 0.05544 0.49019 0.0335 0.0
C1240 C 0.07155 0.52134 0.04769 0.0
C1241 C 0.06928 0.55742 0.03438 0.0
C1242 C 0.05412 0.56118 0.00511 0.0
H1243 H 0.07752 0.94848 0.99373 0.0
H1244 H 0.04809 0.99735 0.90744 0.0
H1245 H 0.01407 0.0483 0.93325 0.0
H1246 H 0.9886 0.96381 0.0267 0.0
H1247 H 0.00655 0.97345 0.06385 0.0
H1248 H 0.03273 0.94387 0.03861 0.0
H1249 H 0.09062 0.98749 0.04505 0.0
H1250 H 0.06417 0.01778 0.0698 0.0
H1251 H 0.08637 0.03688 0.03669 0.0
H1252 H 0.97989 0.09065 0.96705 0.0
H1253 H 0.9378 0.1154 0.0065 0.0
H1254 H 0.98768 0.03966 0.07149 0.0
C1255 C 0.06402 0.9701 0.98043 0.0
C1256 C 0.06518 0.96907 0.94872 0.0
C1257 C 0.04694 0.99741 0.93182 0.0
C1258 C 0.02809 0.02677 0.94626 0.0
C1259 C 0.02766 0.02727 0.97757 0.0
C1260 C 0.04439 0.99931 0.99452 0.0
C1261 C 0.03551 1.00396 0.02766 0.0
C1262 C 0.01459 0.96924 0.0399 0.0
C1263 C 0.07131 0.01201 0.04587 0.0
C1264 C 0.01025 0.03821 0.02649 0.0
C1265 C 0.00706 0.05178 -0.00257 0.0
C1266 C 0.98251 0.08076 0.98998 0.0
C1267 C 0.95889 0.09476 0.01249 0.0
C1268 C 0.96021 0.07977 0.04192 0.0
C1269 C 0.98727 0.0524 0.04936 0.0
H1270 H 0.53725 0.0225 0.92712 0.0
H1271 H 0.59528 0.09293 0.9917 0.0
H1272 H 0.57113 0.0539 0.03327 0.0
H1273 H 0.45758 0.01923 0.96337 0.0
H1274 H 0.44412 0.97129 0.95581 0.0
H1275 H 0.47494 0.99539 0.93032 0.0
H1276 H 0.52575 0.94378 0.93621 0.0
H1277 H 0.49451 0.91837 0.96083 0.0
H1278 H 0.54119 0.93033 0.97332 0.0
H1279 H 0.52907 0.0189 0.06714 0.0
H1280 H 0.47841 0.98303 0.09179 0.0
H1281 H 0.44581 0.93654 0.00518 0.0
C1282 C 0.5466 0.02811 0.9499 0.0
C1283 C 0.56836 0.06006 0.95648 0.0
C1284 C 0.57891 0.06806 0.98649 0.0
C1285 C 0.5653 0.04614 0.01016 0.0
C1286 C 0.54125 0.01654 0.00322 0.0
C1287 C 0.53266 0.00683 0.97379 0.0
C1288 C 0.50175 0.97771 0.97257 0.0
C1289 C 0.46762 0.99178 0.95446 0.0
C1290 C 0.51671 0.94032 0.96 0.0
C1291 C 0.49268 0.97454 0.00567 0.0
C1292 C 0.51613 0.99666 0.023 0.0
C1293 C 0.51104 1.00077 0.05392 0.0
C1294 C 0.48181 0.98083 0.06761 0.0
C1295 C 0.45813 0.95722 0.05028 0.0
C1296 C 0.4636 0.95432 0.01894 0.0
H1297 H 0.52016 0.46768 0.06009 0.0
H1298 H 0.61266 0.45822 0.99663 0.0
H1299 H 0.58409 0.50661 0.96493 0.0
H1300 H 0.45069 0.47339 0.00505 0.0
H1301 H 0.42131 0.50596 0.02541 0.0
H1302 H 0.45212 0.475 0.04562 0.0
H1303 H 0.48238 0.53279 0.0721 0.0
H1304 H 0.45175 0.56378 0.0514 0.0
H1305 H 0.50188 0.57011 0.04963 0.0
H1306 H 0.54442 0.55118 0.93775 0.0
H1307 H 0.49021 0.57996 0.91232 0.0
H1308 H 0.42225 0.5607 0.99207 0.0
C1309 C 0.53446 0.47604 0.03965 0.0
C1310 C 0.56879 0.45938 0.03109 0.0
C1311 C 0.58639 0.47066 0.00387 0.0
C1312 C 0.57069 0.49855 0.98581 0.0
C1313 C 0.53726 0.51493 0.9951 0.0
C1314 C 0.51893 0.50372 0.02105 0.0
C1315 C 0.48078 0.52214 0.02354 0.0
C1316 C 0.44939 0.49236 0.02496 0.0
C1317 C 0.47912 0.54878 0.05079 0.0
C1318 C 0.47998 0.54384 0.99421 0.0
C1319 C 0.5134 0.54035 0.97869 0.0
C1320 C 0.51821 0.55469 0.94977 0.0
C1321 C 0.48726 0.5711 0.93552 0.0
C1322 C 0.45196 0.57229 0.95012 0.0
C1323 C 0.44896 0.56034 0.98038 0.0
H1324 H 0.95103 0.08201 0.4948 0.0
H1325 H 0.97952 0.04894 0.58601 0.0
H1326 H 0.03154 0.01028 0.56672 0.0
H1327 H 0.96414 0.99261 0.46323 0.0
H1328 H 0.98279 0.00957 0.42806 0.0
H1329 H 0.95132 0.03855 0.44957 0.0
H1330 H 1.00131 0.09182 0.44962 0.0
H1331 H 0.03335 0.06243 0.42873 0.0
H1332 H 0.04765 0.08254 0.46421 0.0
H1333 H 0.07571 0.97094 0.53825 0.0
H1334 H 0.10328 0.92632 0.50185 0.0
H1335 H 0.04713 0.98423 0.42879 0.0
C1336 C 0.9684 0.0667 0.5106 0.0
C1337 C 0.96118 0.06812 0.54175 0.0
C1338 C 0.9842 0.04763 0.56193 0.0
C1339 C 0.01419 0.0261 0.55127 0.0
C1340 C 0.02069 0.02529 0.5204 0.0
C1341 C 0.99816 0.04454 0.50029 0.0
C1342 C 0.00842 0.03525 0.4681 0.0
C1343 C 0.97468 0.01796 0.45127 0.0
C1344 C 0.02359 0.07009 0.4517 0.0
C1345 C 0.03921 0.00667 0.47333 0.0
C1346 C 0.04653 1.00217 0.50369 0.0
C1347 C 0.0708 0.97455 0.51438 0.0
C1348 C 0.08635 0.94943 0.49361 0.0
C1349 C 0.07753 0.95232 0.46266 0.0
C1350 C 0.05515 0.98227 0.45227 0.0
H1351 H 0.481 0.96327 0.56479 0.0
H1352 H 0.39097 0.95843 0.49884 0.0
H1353 H 0.4199 0.00999 0.47078 0.0
H1354 H 0.49969 0.06737 0.55941 0.0
H1355 H 0.54968 0.06051 0.56205 0.0
H1356 H 0.51805 0.02868 0.58094 0.0
H1357 H 0.54871 0.97209 0.55308 0.0
H1358 H 0.5805 1.00381 0.53475 0.0
H1359 H 0.55156 0.97275 0.51254 0.0
H1360 H 0.46013 0.05624 0.44675 0.0
H1361 H 0.51582 0.08372 0.4226 0.0
H1362 H 0.58175 0.05842 0.50228 0.0
C1363 C 0.46722 0.97344 0.54466 0.0
C1364 C 0.43355 0.95708 0.53429 0.0
C1365 C 0.41673 0.97059 0.50744 0.0
C1366 C 0.43259 1.00034 0.49151 0.0
C1367 C 0.46542 0.0163 0.50252 0.0
C1368 C 0.48302 1.00293 0.52813 0.0
C1369 C 0.52127 0.02073 0.53209 0.0
C1370 C 0.52221 0.04581 0.5603 0.0
C1371 C 0.55232 0.99056 0.53314 0.0
C1372 C 0.52325 0.04409 0.50363 0.0
C1373 C 0.48999 0.04251 0.48768 0.0
C1374 C 0.48621 0.0583 0.45915 0.0
C1375 C 0.51803 0.0739 0.44561 0.0
C1376 C 0.55315 0.07274 0.46045 0.0
C1377 C 0.55518 0.05973 0.49046 0.0
H1378 H 0.54331 0.42263 0.50984 0.0
H1379 H 0.52424 0.47238 0.59786 0.0
H1380 H 0.4734 0.51126 0.57662 0.0
H1381 H 0.53489 0.50351 0.46901 0.0
H1382 H 0.51184 0.48206 0.43719 0.0
H1383 H 0.54198 0.45439 0.46071 0.0
H1384 H 0.48712 0.40744 0.46944 0.0
H1385 H 0.45647 0.4358 0.44648 0.0
H1386 H 0.44321 0.42425 0.48453 0.0
H1387 H 0.43281 0.55092 0.54509 0.0
H1388 H 0.40984 0.59256 0.50481 0.0
H1389 H 0.45278 0.51546 0.43753 0.0
C1390 C 0.5282 0.44148 0.52471 0.0
C1391 C 0.53784 0.4448 0.55536 0.0
C1392 C 0.51763 0.46984 0.57415 0.0
C1393 C 0.48829 0.49151 0.56243 0.0
C1394 C 0.47947 0.48749 0.53204 0.0
C1395 C 0.49893 0.46319 0.51341 0.0
C1396 C 0.48712 0.4673 0.48094 0.0
C1397 C 0.52095 0.47745 0.46081 0.0
C1398 C 0.46729 0.43156 0.46969 0.0
C1399 C 0.45978 0.49956 0.48387 0.0
C1400 C 0.45499 0.5101 0.51367 0.0
C1401 C 0.43549 0.54248 0.52177 0.0
C1402 C 0.42249 0.56587 0.49881 0.0
C1403 C 0.42932 0.55669 0.46831 0.0
C1404 C 0.44618 0.52221 0.46073 0.0
H1405 H 0.02882 0.5323 0.56152 0.0
H1406 H 0.09913 0.58534 0.49417 0.0
H1407 H 0.06078 0.55686 0.45389 0.0
H1408 H 0.02619 0.44943 0.52862 0.0
H1409 H 0.97838 0.43615 0.53689 0.0
H1410 H 1.00265 0.46856 0.56112 0.0
H1411 H 0.9517 0.51915 0.554 0.0
H1412 H 0.92536 0.487 0.53075 0.0
H1413 H 0.93768 0.53287 0.51663 0.0
H1414 H 0.02437 0.513 0.42202 0.0
H1415 H 0.98541 0.46293 0.39964 0.0
H1416 H 0.94035 0.43674 0.48806 0.0
C1417 C 0.03479 0.53946 0.53831 0.0
C1418 C 0.06648 0.56105 0.53072 0.0
C1419 C 0.07465 0.56888 0.50019 0.0
C1420 C 0.0531 0.55285 0.47724 0.0
C1421 C 0.02369 0.52922 0.4854 0.0
C1422 C 0.01389 0.5232 0.51518 0.0
C1423 C 0.98449 0.49279 0.51803 0.0
C1424 C 0.99878 0.45978 0.5373 0.0
C1425 C 0.94761 0.50892 0.53058 0.0
C1426 C 0.98055 0.48159 0.4854 0.0
C1427 C 1.00312 0.50312 0.46692 0.0
C1428 C 0.00603 0.49635 0.43614 0.0
C1429 C 0.98426 0.46749 0.42374 0.0
C1430 C 0.96002 0.44593 0.4422 0.0
C1431 C 0.9586 0.45286 0.47343 0.0
H1432 H 0.9099 0.51907 0.29293 0.0
H1433 H 0.975 0.41616 0.29843 0.0
H1434 H 0.01558 0.43904 0.25668 0.0
H1435 H 0.91161 0.52827 0.21263 0.0
H1436 H 0.91446 0.57883 0.21441 0.0
H1437 H 0.8914 0.55325 0.24405 0.0
H1438 H 0.93522 0.58515 0.28298 0.0
H1439 H 0.95893 0.61029 0.25345 0.0
H1440 H 0.98544 0.58106 0.27885 0.0
H1441 H 0.04963 0.47587 0.2131 0.0
H1442 H 0.07258 0.52148 0.17488 0.0
H1443 H 0.98264 0.59774 0.19991 0.0
C1444 C 0.93261 0.50102 0.28557 0.0
C1445 C 0.93911 0.46565 0.2992 0.0
C1446 C 0.96934 0.44334 0.28848 0.0
C1447 C 0.99251 0.45614 0.26472 0.0
C1448 C 0.98502 0.49124 0.25181 0.0
C1449 C 0.95562 0.51316 0.26206 0.0
C1450 C 0.95291 0.54982 0.24507 0.0
C1451 C 0.91538 0.55267 0.22803 0.0
C1452 C 0.95849 0.58356 0.26636 0.0
C1453 C 0.98552 0.54553 0.22359 0.0
C1454 C 1.00391 0.51168 0.22751 0.0
C1455 C 0.03524 0.50237 0.20996 0.0
C1456 C 0.04807 0.52841 0.18821 0.0
C1457 C 0.02962 0.56341 0.18422 0.0
C1458 C 0.99774 0.57147 0.20216 0.0
H1459 H 0.98362 0.90669 0.29833 0.0
H1460 H 0.07907 0.97939 0.31599 0.0
H1461 H 0.05667 0.02302 0.2763 0.0
H1462 H 0.98277 0.91794 0.21834 0.0
H1463 H 0.93226 0.91669 0.21582 0.0
H1464 H 0.95583 0.89204 0.24573 0.0
H1465 H 0.91614 0.92816 0.28511 0.0
H1466 H 0.89244 0.95316 0.25549 0.0
H1467 H 0.91607 0.97885 0.28494 0.0
H1468 H 0.02273 0.05852 0.23279 0.0
H1469 H 0.98058 0.0822 0.19251 0.0
H1470 H 0.90886 0.98475 0.20479 0.0
C1471 C 0.99999 0.93178 0.29409 0.0
C1472 C 0.03328 0.93942 0.31051 0.0
C1473 C 0.0535 0.97279 0.3039 0.0
C1474 C 0.04099 0.99772 0.28129 0.0
C1475 C 0.0082 0.98898 0.2654 0.0
C1476 C 0.98804 0.95673 0.2717 0.0
C1477 C 0.95383 0.95322 0.25165 0.0
C1478 C 0.95635 0.91788 0.23171 0.0
C1479 C 0.91748 0.95338 0.27042 0.0
C1480 C 0.95752 0.98864 0.23308 0.0
C1481 C 0.98906 0.009 0.24106 0.0
C1482 C 0.99796 0.0427 0.22652 0.0
C1483 C 0.97388 0.05593 0.20356 0.0
C1484 C 0.94114 0.0356 0.19538 0.0
C1485 C 0.93337 1.00136 0.21041 0.0
H1486 H 0.60887 0.98789 0.29675 0.0
H1487 H 0.53573 0.08288 0.31481 0.0
H1488 H 0.49197 0.06003 0.27517 0.0
H1489 H 0.59783 0.98525 0.21711 0.0
H1490 H 0.59908 0.93461 0.21559 0.0
H1491 H 0.62342 0.95915 0.24518 0.0
H1492 H 0.58656 0.92021 0.28488 0.0
H1493 H 0.56202 0.89597 0.25519 0.0
H1494 H 0.53594 0.92024 0.28407 0.0
H1495 H 0.45638 0.02526 0.23173 0.0
H1496 H 0.43323 0.98291 0.1913 0.0
H1497 H 0.53145 0.91228 0.20347 0.0
C1498 C 0.58375 1.00421 0.29251 0.0
C1499 C 0.57602 0.03748 0.30897 0.0
C1500 C 0.54243 0.05737 0.30261 0.0
C1501 C 0.51743 0.04458 0.28006 0.0
C1502 C 0.52628 0.01174 0.26415 0.0
C1503 C 0.5587 0.99188 0.27036 0.0
C1504 C 0.56221 0.95732 0.25066 0.0
C1505 C 0.59773 0.95924 0.23097 0.0
C1506 C 0.56163 0.92132 0.26984 0.0
C1507 C 0.52695 0.96084 0.2319 0.0
C1508 C 0.50631 0.99222 0.2399 0.0
C1509 C 0.47247 1.00068 0.22541 0.0
C1510 C 0.45952 0.97645 0.20239 0.0
C1511 C 0.48039 0.94412 0.19393 0.0
C1512 C 0.51461 0.93666 0.20907 0.0
H1513 H 0.53482 0.55958 0.31694 0.0
H1514 H 0.41759 0.5326 0.30206 0.0
H1515 H 0.43547 0.49542 0.25681 0.0
H1516 H 0.5578 0.57713 0.24404 0.0
H1517 H 0.60436 0.55729 0.24538 0.0
H1518 H 0.5832 0.5754 0.27915 0.0
H1519 H 0.59182 0.51097 0.30604 0.0
H1520 H 0.6148 0.49373 0.27261 0.0
H1521 H 0.57512 0.46882 0.28799 0.0
H1522 H 0.46777 0.46607 0.2089 0.0
H1523 H 0.50971 0.44851 0.16618 0.0
H1524 H 0.60378 0.49889 0.21323 0.0
C1525 C 0.51286 0.54499 0.30473 0.0
C1526 C 0.47474 0.54888 0.31329 0.0
C1527 C 0.44701 0.52956 0.29637 0.0
C1528 C 0.45697 0.50859 0.27044 0.0
C1529 C 0.49482 0.50688 0.26188 0.0
C1530 C 0.52228 0.52424 0.279 0.0
C1531 C 0.56057 0.521 0.26438 0.0
C1532 C 0.57743 0.56002 0.25785 0.0
C1533 C 0.58715 0.49722 0.2839 0.0
C1534 C 0.55041 0.50054 0.23565 0.0
C1535 C 0.51262 0.49172 0.23462 0.0
C1536 C 0.49739 0.47283 0.20973 0.0
C1537 C 0.52136 0.46297 0.18551 0.0
C1538 C 0.55995 0.47278 0.18604 0.0
C1539 C 0.57431 0.4915 0.21172 0.0
H1540 H 0.09628 0.48086 0.69999 0.0
H1541 H 0.02447 0.57723 0.68358 0.0
H1542 H 0.98083 0.55444 0.72338 0.0
H1543 H 0.02269 0.41373 0.71334 0.0
H1544 H 0.04928 0.3893 0.74176 0.0
H1545 H 0.07328 0.41309 0.71163 0.0
H1546 H 0.11174 0.45172 0.7504 0.0
H1547 H 0.08807 0.42786 0.78061 0.0
H1548 H 0.08742 0.4785 0.77886 0.0
H1549 H 0.94622 0.52014 0.7679 0.0
H1550 H 0.92416 0.47805 0.80887 0.0
H1551 H 0.02092 0.4062 0.7939 0.0
C1552 C 0.07129 0.49733 0.70437 0.0
C1553 C 0.06398 0.53102 0.68847 0.0
C1554 C 0.03073 0.55128 0.69526 0.0
C1555 C 0.00586 0.53857 0.71795 0.0
C1556 C 0.01454 0.50545 0.73349 0.0
C1557 C 0.04647 0.48512 0.72661 0.0
C1558 C 0.05034 0.45067 0.74622 0.0
C1559 C 0.04878 0.41457 0.7271 0.0
C1560 C 0.08652 0.45233 0.76514 0.0
C1561 C 0.0158 0.4547 0.76572 0.0
C1562 C 0.99523 0.4863 0.75823 0.0
C1563 C 0.96221 0.49533 0.77373 0.0
C1564 C 0.94992 0.4713 0.79708 0.0
C1565 C 0.97063 0.43862 0.8048 0.0
C1566 C 1.00412 0.43075 0.78879 0.0
H1567 H 0.01414 0.097 0.69525 0.0
H1568 H 0.91587 0.02759 0.67929 0.0
H1569 H 0.93593 0.98571 0.72142 0.0
H1570 H 0.07828 0.02459 0.71219 0.0
H1571 H 0.10231 0.05215 0.7403 0.0
H1572 H 0.07957 0.0751 0.70922 0.0
H1573 H 0.04 0.11563 0.74623 0.0
H1574 H 0.06344 0.09322 0.77723 0.0
H1575 H 0.01286 0.0927 0.77515 0.0
H1576 H 0.97133 0.95021 0.76667 0.0
H1577 H 0.01429 0.92877 0.80754 0.0
H1578 H 0.08443 0.02655 0.79171 0.0
C1579 C 0.99654 0.07293 0.70013 0.0
C1580 C 0.96349 0.06553 0.68345 0.0
C1581 C 0.94145 0.03385 0.6915 0.0
C1582 C 0.95268 0.00996 0.71544 0.0
C1583 C 0.98571 0.01844 0.73132 0.0
C1584 C 0.00692 0.04956 0.72378 0.0
C1585 C 0.04086 0.05402 0.74374 0.0
C1586 C 0.07739 0.05127 0.72526 0.0
C1587 C 0.03913 0.09107 0.76165 0.0
C1588 C 0.03596 0.02048 0.76401 0.0
C1589 C 1.00437 0.99976 0.75677 0.0
C1590 C 0.99587 0.96666 0.77247 0.0
C1591 C 0.02038 0.95467 0.79574 0.0
C1592 C 0.0528 0.97595 0.80328 0.0
C1593 C 0.05993 0.00943 0.78711 0.0
H1594 H 0.40916 0.02381 0.69146 0.0
H1595 H 0.47262 0.92031 0.68208 0.0
H1596 H 0.51572 0.94176 0.7227 0.0
H1597 H 0.48683 0.08512 0.70536 0.0
H1598 H 0.46087 0.11344 0.73182 0.0
H1599 H 0.43653 0.08956 0.70189 0.0
H1600 H 0.39338 0.05693 0.74107 0.0
H1601 H 0.41776 0.08082 0.77099 0.0
H1602 H 0.41426 0.03026 0.77123 0.0
H1603 H 0.5516 0.9765 0.76673 0.0
H1604 H 0.57589 0.02033 0.80599 0.0
H1605 H 0.48619 0.09834 0.7843 0.0
C1606 C 0.43209 0.0054 0.69771 0.0
C1607 C 0.43727 0.97018 0.68345 0.0
C1608 C 0.46797 0.94743 0.69254 0.0
C1609 C 0.49254 0.95938 0.71569 0.0
C1610 C 0.48609 0.99416 0.72952 0.0
C1611 C 0.45652 0.01674 0.72057 0.0
C1612 C 0.45478 0.0527 0.7386 0.0
C1613 C 0.46008 0.08722 0.71819 0.0
C1614 C 0.41786 0.05529 0.75654 0.0
C1615 C 0.48804 0.0472 0.75921 0.0
C1616 C 0.50599 0.01341 0.75398 0.0
C1617 C 0.53761 1.00303 0.77083 0.0
C1618 C 0.5512 0.02802 0.79318 0.0
C1619 C 0.53323 0.06302 0.79838 0.0
C1620 C 0.50104 0.07208 0.78112 0.0
H1621 H 0.39889 0.47968 0.79161 0.0
H1622 H 0.47099 0.57658 0.80539 0.0
H1623 H 0.51739 0.5492 0.76982 0.0
H1624 H 0.47313 0.41051 0.7874 0.0
H1625 H 0.4486 0.38303 0.75954 0.0
H1626 H 0.4225 0.41075 0.78631 0.0
H1627 H 0.38851 0.44365 0.74188 0.0
H1628 H 0.41544 0.41695 0.71501 0.0
H1629 H 0.41585 0.46761 0.71366 0.0
H1630 H 0.55546 0.51042 0.73087 0.0
H1631 H 0.58112 0.46466 0.6941 0.0
H1632 H 0.48358 0.39348 0.7079 0.0
C1633 C 0.42433 0.49544 0.7872 0.0
C1634 C 0.43099 0.53062 0.80126 0.0
C1635 C 0.46505 0.54972 0.79492 0.0
C1636 C 0.4916 0.53432 0.77473 0.0
C1637 C 0.48392 0.49959 0.76125 0.0
C1638 C 0.4511 0.48039 0.76748 0.0
C1639 C 0.44918 0.44353 0.7504 0.0
C1640 C 0.4483 0.40998 0.77222 0.0
C1641 C 0.41524 0.44291 0.72896 0.0
C1642 C 0.48587 0.44497 0.73319 0.0
C1643 C 0.50567 0.47742 0.73965 0.0
C1644 C 0.54015 0.48488 0.72585 0.0
C1645 C 0.55456 0.45865 0.70496 0.0
C1646 C 0.53465 0.42516 0.69804 0.0
C1647 C 0.49989 0.4185 0.71265 0.0
loop_
_geom_bond_atom_site_label_1
_geom_bond_atom_site_label_2
_geom_bond_distance
_geom_bond_site_symmetry_2
_ccdc_geom_bond_type
Sc0 O3 2.025 . S
Sc0 O10 2.105 . S
Sc0 O13 2.105 . S
Sc0 O16 2.105 1_455 S
Sc0 O19 2.105 . S
Sc1 O3 2.025 . S
Sc1 O11 2.105 . S
Sc1 O15 2.105 . S
Sc1 O17 2.105 . S
Sc1 O21 2.105 . S
Sc2 O3 2.025 1_655 S
Sc2 O12 2.105 1_655 S
Sc2 O14 2.105 . S
Sc2 O18 2.105 . S
Sc2 O20 2.105 . S
O3 Sc0 2.025 . S
O3 Sc1 2.025 . S
O3 Sc2 2.025 1_455 S
C4 O10 1.268 . S
C4 O20 1.268 1_455 S
C5 O11 1.268 . S
C5 O19 1.268 . S
C6 O12 1.268 . S
C6 O21 1.268 . S
C7 O13 1.268 . S
C7 O17 1.268 . S
C8 O14 1.268 . S
C8 O16 1.268 . S
C9 O15 1.268 . S
C9 O18 1.268 1_455 S
O10 Sc0 2.105 . S
O10 C4 1.268 . S
O11 Sc1 2.105 . S
O11 C5 1.268 . S
O12 Sc2 2.105 1_455 S
O12 C6 1.268 . S
O13 Sc0 2.105 . S
O13 C7 1.268 . S
O14 Sc2 2.105 . S
O14 C8 1.268 . S
O15 Sc1 2.105 . S
O15 C9 1.268 . S
O16 Sc0 2.105 1_655 S
O16 C8 1.268 . S
O17 Sc1 2.105 . S
O17 C7 1.268 . S
O18 Sc2 2.105 . S
O18 C9 1.268 1_655 S
O19 Sc0 2.105 . S
O19 C5 1.268 . S
O20 Sc2 2.105 . S
O20 C4 1.268 1_655 S
O21 Sc1 2.105 . S
O21 C6 1.268 . S
Sc22 O25 2.025 . S
Sc22 O32 2.105 . S
Sc22 O35 2.105 . S
Sc22 O38 2.105 1_545 S
Sc22 O41 2.105 . S
Sc23 O25 2.025 . S
Sc23 O33 2.105 . S
Sc23 O37 2.105 . S
Sc23 O39 2.105 . S
Sc23 O43 2.105 . S
Sc24 O25 2.025 1_565 S
Sc24 O34 2.105 1_565 S
Sc24 O36 2.105 . S
Sc24 O40 2.105 . S
Sc24 O42 2.105 . S
O25 Sc22 2.025 . S
O25 Sc23 2.025 . S
O25 Sc24 2.025 1_545 S
C26 O32 1.268 . S
C26 O42 1.268 1_545 S
C27 O33 1.268 . S
C27 O41 1.268 . S
C28 O34 1.268 . S
C28 O43 1.268 . S
C29 O35 1.268 . S
C29 O39 1.268 . S
C30 O36 1.268 . S
C30 O38 1.268 . S
C31 O37 1.268 . S
C31 O40 1.268 1_545 S
O32 Sc22 2.105 . S
O32 C26 1.268 . S
O33 Sc23 2.105 . S
O33 C27 1.268 . S
O34 Sc24 2.105 1_545 S
O34 C28 1.268 . S
O35 Sc22 2.105 . S
O35 C29 1.268 . S
O36 Sc24 2.105 . S
O36 C30 1.268 . S
O37 Sc23 2.105 . S
O37 C31 1.268 . S
O38 Sc22 2.105 1_565 S
O38 C30 1.268 . S
O39 Sc23 2.105 . S
O39 C29 1.268 . S
O40 Sc24 2.105 . S
O40 C31 1.268 1_565 S
O41 Sc22 2.105 . S
O41 C27 1.268 . S
O42 Sc24 2.105 . S
O42 C26 1.268 1_565 S
O43 Sc23 2.105 . S
O43 C28 1.268 . S
Sc44 O47 2.025 . S
Sc44 O54 2.105 . S
Sc44 O57 2.105 . S
Sc44 O60 2.105 . S
Sc44 O63 2.105 . S
Sc45 O47 2.025 . S
Sc45 O55 2.105 . S
Sc45 O59 2.105 . S
Sc45 O61 2.105 . S
Sc45 O65 2.105 . S
Sc46 O47 2.025 . S
Sc46 O56 2.105 . S
Sc46 O58 2.105 . S
Sc46 O62 2.105 . S
Sc46 O64 2.105 . S
O47 Sc44 2.025 . S
O47 Sc45 2.025 . S
O47 Sc46 2.025 . S
C48 O54 1.268 . S
C48 O64 1.268 . S
C49 O55 1.268 . S
C49 O63 1.268 . S
C50 O56 1.268 . S
C50 O65 1.268 . S
C51 O57 1.268 . S
C51 O61 1.268 . S
C52 O58 1.268 . S
C52 O60 1.268 . S
C53 O59 1.268 . S
C53 O62 1.268 . S
O54 Sc44 2.105 . S
O54 C48 1.268 . S
O55 Sc45 2.105 . S
O55 C49 1.268 . S
O56 Sc46 2.105 . S
O56 C50 1.268 . S
O57 Sc44 2.105 . S
O57 C51 1.268 . S
O58 Sc46 2.105 . S
O58 C52 1.268 . S
O59 Sc45 2.105 . S
O59 C53 1.268 . S
O60 Sc44 2.105 . S
O60 C52 1.268 . S
O61 Sc45 2.105 . S
O61 C51 1.268 . S
O62 Sc46 2.105 . S
O62 C53 1.268 . S
O63 Sc44 2.105 . S
O63 C49 1.268 . S
O64 Sc46 2.105 . S
O64 C48 1.268 . S
O65 Sc45 2.105 . S
O65 C50 1.268 . S
Sc66 O69 2.025 . S
Sc66 O76 2.105 . S
Sc66 O79 2.105 . S
Sc66 O82 2.105 . S
Sc66 O85 2.105 . S
Sc67 O69 2.025 . S
Sc67 O77 2.105 . S
Sc67 O81 2.105 . S
Sc67 O83 2.105 . S
Sc67 O87 2.105 . S
Sc68 O69 2.025 . S
Sc68 O78 2.105 . S
Sc68 O80 2.105 . S
Sc68 O84 2.105 . S
Sc68 O86 2.105 . S
O69 Sc66 2.025 . S
O69 Sc67 2.025 . S
O69 Sc68 2.025 . S
C70 O76 1.268 . S
C70 O86 1.268 . S
C71 O77 1.268 . S
C71 O85 1.268 . S
C72 O78 1.268 . S
C72 O87 1.268 . S
C73 O79 1.268 . S
C73 O83 1.268 . S
C74 O80 1.268 . S
C74 O82 1.268 . S
C75 O81 1.268 . S
C75 O84 1.268 . S
O76 Sc66 2.105 . S
O76 C70 1.268 . S
O77 Sc67 2.105 . S
O77 C71 1.268 . S
O78 Sc68 2.105 . S
O78 C72 1.268 . S
O79 Sc66 2.105 . S
O79 C73 1.268 . S
O80 Sc68 2.105 . S
O80 C74 1.268 . S
O81 Sc67 2.105 . S
O81 C75 1.268 . S
O82 Sc66 2.105 . S
O82 C74 1.268 . S
O83 Sc67 2.105 . S
O83 C73 1.268 . S
O84 Sc68 2.105 . S
O84 C75 1.268 . S
O85 Sc66 2.105 . S
O85 C71 1.268 . S
O86 Sc68 2.105 . S
O86 C70 1.268 . S
O87 Sc67 2.105 . S
O87 C72 1.268 . S
Sc88 O91 2.025 1_655 S
Sc88 O98 2.105 . S
Sc88 O101 2.105 1_655 S
Sc88 O104 2.105 . S
Sc88 O107 2.105 . S
Sc89 O91 2.025 . S
Sc89 O99 2.105 . S
Sc89 O103 2.105 . S
Sc89 O105 2.105 . S
Sc89 O109 2.105 . S
Sc90 O91 2.025 . S
Sc90 O100 2.105 . S
Sc90 O102 2.105 . S
Sc90 O106 2.105 . S
Sc90 O108 2.105 1_455 S
O91 Sc88 2.025 1_455 S
O91 Sc89 2.025 . S
O91 Sc90 2.025 . S
C92 O98 1.268 . S
C92 O108 1.268 . S
C93 O99 1.268 . S
C93 O107 1.268 1_455 S
C94 O100 1.268 . S
C94 O109 1.268 . S
C95 O101 1.268 . S
C95 O105 1.268 . S
C96 O102 1.268 . S
C96 O104 1.268 1_455 S
C97 O103 1.268 . S
C97 O106 1.268 . S
O98 Sc88 2.105 . S
O98 C92 1.268 . S
O99 Sc89 2.105 . S
O99 C93 1.268 . S
O100 Sc90 2.105 . S
O100 C94 1.268 . S
O101 Sc88 2.105 1_455 S
O101 C95 1.268 . S
O102 Sc90 2.105 . S
O102 C96 1.268 . S
O103 Sc89 2.105 . S
O103 C97 1.268 . S
O104 Sc88 2.105 . S
O104 C96 1.268 1_655 S
O105 Sc89 2.105 . S
O105 C95 1.268 . S
O106 Sc90 2.105 . S
O106 C97 1.268 . S
O107 Sc88 2.105 . S
O107 C93 1.268 1_655 S
O108 Sc90 2.105 1_655 S
O108 C92 1.268 . S
O109 Sc89 2.105 . S
O109 C94 1.268 . S
Sc110 O113 2.025 . S
Sc110 O120 2.105 . S
Sc110 O123 2.105 . S
Sc110 O126 2.105 1_545 S
Sc110 O129 2.105 . S
Sc111 O113 2.025 . S
Sc111 O121 2.105 . S
Sc111 O125 2.105 . S
Sc111 O127 2.105 . S
Sc111 O131 2.105 . S
Sc112 O113 2.025 1_565 S
Sc112 O122 2.105 1_565 S
Sc112 O124 2.105 . S
Sc112 O128 2.105 . S
Sc112 O130 2.105 . S
O113 Sc110 2.025 . S
O113 Sc111 2.025 . S
O113 Sc112 2.025 1_545 S
C114 O120 1.268 . S
C114 O130 1.268 1_545 S
C115 O121 1.268 . S
C115 O129 1.268 . S
C116 O122 1.268 . S
C116 O131 1.268 . S
C117 O123 1.268 . S
C117 O127 1.268 . S
C118 O124 1.268 . S
C118 O126 1.268 . S
C119 O125 1.268 . S
C119 O128 1.268 1_545 S
O120 Sc110 2.105 . S
O120 C114 1.268 . S
O121 Sc111 2.105 . S
O121 C115 1.268 . S
O122 Sc112 2.105 1_545 S
O122 C116 1.268 . S
O123 Sc110 2.105 . S
O123 C117 1.268 . S
O124 Sc112 2.105 . S
O124 C118 1.268 . S
O125 Sc111 2.105 . S
O125 C119 1.268 . S
O126 Sc110 2.105 1_565 S
O126 C118 1.268 . S
O127 Sc111 2.105 . S
O127 C117 1.268 . S
O128 Sc112 2.105 . S
O128 C119 1.268 1_565 S
O129 Sc110 2.105 . S
O129 C115 1.268 . S
O130 Sc112 2.105 . S
O130 C114 1.268 1_565 S
O131 Sc111 2.105 . S
O131 C116 1.268 . S
Sc132 O135 2.025 . S
Sc132 O142 2.105 . S
Sc132 O145 2.105 . S
Sc132 O148 2.105 . S
Sc132 O151 2.105 . S
Sc133 O135 2.025 . S
Sc133 O143 2.105 . S
Sc133 O147 2.105 . S
Sc133 O149 2.105 . S
Sc133 O153 2.105 . S
Sc134 O135 2.025 . S
Sc134 O144 2.105 . S
Sc134 O146 2.105 . S
Sc134 O150 2.105 . S
Sc134 O152 2.105 . S
O135 Sc132 2.025 . S
O135 Sc133 2.025 . S
O135 Sc134 2.025 . S
C136 O142 1.268 . S
C136 O152 1.268 . S
C137 O143 1.268 . S
C137 O151 1.268 . S
C138 O144 1.268 . S
C138 O153 1.268 . S
C139 O145 1.268 . S
C139 O149 1.268 . S
C140 O146 1.268 . S
C140 O148 1.268 . S
C141 O147 1.268 . S
C141 O150 1.268 . S
O142 Sc132 2.105 . S
O142 C136 1.268 . S
O143 Sc133 2.105 . S
O143 C137 1.268 . S
O144 Sc134 2.105 . S
O144 C138 1.268 . S
O145 Sc132 2.105 . S
O145 C139 1.268 . S
O146 Sc134 2.105 . S
O146 C140 1.268 . S
O147 Sc133 2.105 . S
O147 C141 1.268 . S
O148 Sc132 2.105 . S
O148 C140 1.268 . S
O149 Sc133 2.105 . S
O149 C139 1.268 . S
O150 Sc134 2.105 . S
O150 C141 1.268 . S
O151 Sc132 2.105 . S
O151 C137 1.268 . S
O152 Sc134 2.105 . S
O152 C136 1.268 . S
O153 Sc133 2.105 . S
O153 C138 1.268 . S
Sc154 O157 2.025 . S
Sc154 O164 2.105 . S
Sc154 O167 2.105 . S
Sc154 O170 2.105 . S
Sc154 O173 2.105 . S
Sc155 O157 2.025 . S
Sc155 O165 2.105 . S
Sc155 O169 2.105 . S
Sc155 O171 2.105 . S
Sc155 O175 2.105 . S
Sc156 O157 2.025 . S
Sc156 O166 2.105 . S
Sc156 O168 2.105 . S
Sc156 O172 2.105 . S
Sc156 O174 2.105 . S
O157 Sc154 2.025 . S
O157 Sc155 2.025 . S
O157 Sc156 2.025 . S
C158 O164 1.268 . S
C158 O174 1.268 . S
C159 O165 1.268 . S
C159 O173 1.268 . S
C160 O166 1.268 . S
C160 O175 1.268 . S
C161 O167 1.268 . S
C161 O171 1.268 . S
C162 O168 1.268 . S
C162 O170 1.268 . S
C163 O169 1.268 . S
C163 O172 1.268 . S
O164 Sc154 2.105 . S
O164 C158 1.268 . S
O165 Sc155 2.105 . S
O165 C159 1.268 . S
O166 Sc156 2.105 . S
O166 C160 1.268 . S
O167 Sc154 2.105 . S
O167 C161 1.268 . S
O168 Sc156 2.105 . S
O168 C162 1.268 . S
O169 Sc155 2.105 . S
O169 C163 1.268 . S
O170 Sc154 2.105 . S
O170 C162 1.268 . S
O171 Sc155 2.105 . S
O171 C161 1.268 . S
O172 Sc156 2.105 . S
O172 C163 1.268 . S
O173 Sc154 2.105 . S
O173 C159 1.268 . S
O174 Sc156 2.105 . S
O174 C158 1.268 . S
O175 Sc155 2.105 . S
O175 C160 1.268 . S
Sc176 O179 2.025 1_455 S
Sc176 O186 2.105 . S
Sc176 O189 2.105 . S
Sc176 O192 2.105 . S
Sc176 O195 2.105 1_455 S
Sc177 O179 2.025 . S
Sc177 O187 2.105 . S
Sc177 O191 2.105 . S
Sc177 O193 2.105 . S
Sc177 O197 2.105 . S
Sc178 O179 2.025 . S
Sc178 O188 2.105 . S
Sc178 O190 2.105 1_655 S
Sc178 O194 2.105 . S
Sc178 O196 2.105 . S
O179 Sc176 2.025 1_655 S
O179 Sc177 2.025 . S
O179 Sc178 2.025 . S
C180 O186 1.268 1_655 S
C180 O196 1.268 . S
C181 O187 1.268 . S
C181 O195 1.268 . S
C182 O188 1.268 . S
C182 O197 1.268 . S
C183 O189 1.268 1_655 S
C183 O193 1.268 . S
C184 O190 1.268 . S
C184 O192 1.268 . S
C185 O191 1.268 . S
C185 O194 1.268 . S
O186 Sc176 2.105 . S
O186 C180 1.268 1_455 S
O187 Sc177 2.105 . S
O187 C181 1.268 . S
O188 Sc178 2.105 . S
O188 C182 1.268 . S
O189 Sc176 2.105 . S
O189 C183 1.268 1_455 S
O190 Sc178 2.105 1_455 S
O190 C184 1.268 . S
O191 Sc177 2.105 . S
O191 C185 1.268 . S
O192 Sc176 2.105 . S
O192 C184 1.268 . S
O193 Sc177 2.105 . S
O193 C183 1.268 . S
O194 Sc178 2.105 . S
O194 C185 1.268 . S
O195 Sc176 2.105 1_655 S
O195 C181 1.268 . S
O196 Sc178 2.105 . S
O196 C180 1.268 . S
O197 Sc177 2.105 . S
O197 C182 1.268 . S
Sc198 O201 2.025 . S
Sc198 O208 2.105 1_565 S
Sc198 O211 2.105 . S
Sc198 O214 2.105 . S
Sc198 O217 2.105 . S
Sc199 O201 2.025 . S
Sc199 O209 2.105 . S
Sc199 O213 2.105 . S
Sc199 O215 2.105 . S
Sc199 O219 2.105 . S
Sc200 O201 2.025 1_545 S
Sc200 O210 2.105 . S
Sc200 O212 2.105 . S
Sc200 O216 2.105 1_545 S
Sc200 O218 2.105 . S
O201 Sc198 2.025 . S
O201 Sc199 2.025 . S
O201 Sc200 2.025 1_565 S
C202 O208 1.268 . S
C202 O218 1.268 . S
C203 O209 1.268 . S
C203 O217 1.268 . S
C204 O210 1.268 1_565 S
C204 O219 1.268 . S
C205 O211 1.268 . S
C205 O215 1.268 . S
C206 O212 1.268 1_565 S
C206 O214 1.268 . S
C207 O213 1.268 . S
C207 O216 1.268 . S
O208 Sc198 2.105 1_545 S
O208 C202 1.268 . S
O209 Sc199 2.105 . S
O209 C203 1.268 . S
O210 Sc200 2.105 . S
O210 C204 1.268 1_545 S
O211 Sc198 2.105 . S
O211 C205 1.268 . S
O212 Sc200 2.105 . S
O212 C206 1.268 1_545 S
O213 Sc199 2.105 . S
O213 C207 1.268 . S
O214 Sc198 2.105 . S
O214 C206 1.268 . S
O215 Sc199 2.105 . S
O215 C205 1.268 . S
O216 Sc200 2.105 1_565 S
O216 C207 1.268 . S
O217 Sc198 2.105 . S
O217 C203 1.268 . S
O218 Sc200 2.105 . S
O218 C202 1.268 . S
O219 Sc199 2.105 . S
O219 C204 1.268 . S
Sc220 O223 2.025 . S
Sc220 O230 2.105 . S
Sc220 O233 2.105 . S
Sc220 O236 2.105 . S
Sc220 O239 2.105 . S
Sc221 O223 2.025 . S
Sc221 O231 2.105 . S
Sc221 O235 2.105 . S
Sc221 O237 2.105 . S
Sc221 O241 2.105 . S
Sc222 O223 2.025 . S
Sc222 O232 2.105 . S
Sc222 O234 2.105 . S
Sc222 O238 2.105 . S
Sc222 O240 2.105 . S
O223 Sc220 2.025 . S
O223 Sc221 2.025 . S
O223 Sc222 2.025 . S
C224 O230 1.268 . S
C224 O240 1.268 . S
C225 O231 1.268 . S
C225 O239 1.268 . S
C226 O232 1.268 . S
C226 O241 1.268 . S
C227 O233 1.268 . S
C227 O237 1.268 . S
C228 O234 1.268 . S
C228 O236 1.268 . S
C229 O235 1.268 . S
C229 O238 1.268 . S
O230 Sc220 2.105 . S
O230 C224 1.268 . S
O231 Sc221 2.105 . S
O231 C225 1.268 . S
O232 Sc222 2.105 . S
O232 C226 1.268 . S
O233 Sc220 2.105 . S
O233 C227 1.268 . S
O234 Sc222 2.105 . S
O234 C228 1.268 . S
O235 Sc221 2.105 . S
O235 C229 1.268 . S
O236 Sc220 2.105 . S
O236 C228 1.268 . S
O237 Sc221 2.105 . S
O237 C227 1.268 . S
O238 Sc222 2.105 . S
O238 C229 1.268 . S
O239 Sc220 2.105 . S
O239 C225 1.268 . S
O240 Sc222 2.105 . S
O240 C224 1.268 . S
O241 Sc221 2.105 . S
O241 C226 1.268 . S
Sc242 O245 2.025 . S
Sc242 O252 2.105 . S
Sc242 O255 2.105 . S
Sc242 O258 2.105 . S
Sc242 O261 2.105 . S
Sc243 O245 2.025 . S
Sc243 O253 2.105 . S
Sc243 O257 2.105 . S
Sc243 O259 2.105 . S
Sc243 O263 2.105 . S
Sc244 O245 2.025 . S
Sc244 O254 2.105 . S
Sc244 O256 2.105 . S
Sc244 O260 2.105 . S
Sc244 O262 2.105 . S
O245 Sc242 2.025 . S
O245 Sc243 2.025 . S
O245 Sc244 2.025 . S
C246 O252 1.268 . S
C246 O262 1.268 . S
C247 O253 1.268 . S
C247 O261 1.268 . S
C248 O254 1.268 . S
C248 O263 1.268 . S
C249 O255 1.268 . S
C249 O259 1.268 . S
C250 O256 1.268 . S
C250 O258 1.268 . S
C251 O257 1.268 . S
C251 O260 1.268 . S
O252 Sc242 2.105 . S
O252 C246 1.268 . S
O253 Sc243 2.105 . S
O253 C247 1.268 . S
O254 Sc244 2.105 . S
O254 C248 1.268 . S
O255 Sc242 2.105 . S
O255 C249 1.268 . S
O256 Sc244 2.105 . S
O256 C250 1.268 . S
O257 Sc243 2.105 . S
O257 C251 1.268 . S
O258 Sc242 2.105 . S
O258 C250 1.268 . S
O259 Sc243 2.105 . S
O259 C249 1.268 . S
O260 Sc244 2.105 . S
O260 C251 1.268 . S
O261 Sc242 2.105 . S
O261 C247 1.268 . S
O262 Sc244 2.105 . S
O262 C246 1.268 . S
O263 Sc243 2.105 . S
O263 C248 1.268 . S
Sc264 O267 2.025 . S
Sc264 O274 2.105 1_655 S
Sc264 O277 2.105 . S
Sc264 O280 2.105 . S
Sc264 O283 2.105 . S
Sc265 O267 2.025 . S
Sc265 O275 2.105 . S
Sc265 O279 2.105 . S
Sc265 O281 2.105 . S
Sc265 O285 2.105 . S
Sc266 O267 2.025 1_455 S
Sc266 O276 2.105 . S
Sc266 O278 2.105 . S
Sc266 O282 2.105 1_455 S
Sc266 O284 2.105 . S
O267 Sc264 2.025 . S
O267 Sc265 2.025 . S
O267 Sc266 2.025 1_655 S
C268 O274 1.268 . S
C268 O284 1.268 . S
C269 O275 1.268 . S
C269 O283 1.268 . S
C270 O276 1.268 1_655 S
C270 O285 1.268 . S
C271 O277 1.268 . S
C271 O281 1.268 . S
C272 O278 1.268 1_655 S
C272 O280 1.268 . S
C273 O279 1.268 . S
C273 O282 1.268 . S
O274 Sc264 2.105 1_455 S
O274 C268 1.268 . S
O275 Sc265 2.105 . S
O275 C269 1.268 . S
O276 Sc266 2.105 . S
O276 C270 1.268 1_455 S
O277 Sc264 2.105 . S
O277 C271 1.268 . S
O278 Sc266 2.105 . S
O278 C272 1.268 1_455 S
O279 Sc265 2.105 . S
O279 C273 1.268 . S
O280 Sc264 2.105 . S
O280 C272 1.268 . S
O281 Sc265 2.105 . S
O281 C271 1.268 . S
O282 Sc266 2.105 1_655 S
O282 C273 1.268 . S
O283 Sc264 2.105 . S
O283 C269 1.268 . S
O284 Sc266 2.105 . S
O284 C268 1.268 . S
O285 Sc265 2.105 . S
O285 C270 1.268 . S
Sc286 O289 2.025 . S
Sc286 O296 2.105 1_565 S
Sc286 O299 2.105 . S
Sc286 O302 2.105 . S
Sc286 O305 2.105 . S
Sc287 O289 2.025 . S
Sc287 O297 2.105 . S
Sc287 O301 2.105 . S
Sc287 O303 2.105 . S
Sc287 O307 2.105 . S
Sc288 O289 2.025 1_545 S
Sc288 O298 2.105 . S
Sc288 O300 2.105 . S
Sc288 O304 2.105 1_545 S
Sc288 O306 2.105 . S
O289 Sc286 2.025 . S
O289 Sc287 2.025 . S
O289 Sc288 2.025 1_565 S
C290 O296 1.268 . S
C290 O306 1.268 . S
C291 O297 1.268 . S
C291 O305 1.268 . S
C292 O298 1.268 1_565 S
C292 O307 1.268 . S
C293 O299 1.268 . S
C293 O303 1.268 . S
C294 O300 1.268 1_565 S
C294 O302 1.268 . S
C295 O301 1.268 . S
C295 O304 1.268 . S
O296 Sc286 2.105 1_545 S
O296 C290 1.268 . S
O297 Sc287 2.105 . S
O297 C291 1.268 . S
O298 Sc288 2.105 . S
O298 C292 1.268 1_545 S
O299 Sc286 2.105 . S
O299 C293 1.268 . S
O300 Sc288 2.105 . S
O300 C294 1.268 1_545 S
O301 Sc287 2.105 . S
O301 C295 1.268 . S
O302 Sc286 2.105 . S
O302 C294 1.268 . S
O303 Sc287 2.105 . S
O303 C293 1.268 . S
O304 Sc288 2.105 1_565 S
O304 C295 1.268 . S
O305 Sc286 2.105 . S
O305 C291 1.268 . S
O306 Sc288 2.105 . S
O306 C290 1.268 . S
O307 Sc287 2.105 . S
O307 C292 1.268 . S
Sc308 O311 2.025 . S
Sc308 O318 2.105 . S
Sc308 O321 2.105 . S
Sc308 O324 2.105 . S
Sc308 O327 2.105 . S
Sc309 O311 2.025 . S
Sc309 O319 2.105 . S
Sc309 O323 2.105 . S
Sc309 O325 2.105 . S
Sc309 O329 2.105 . S
Sc310 O311 2.025 . S
Sc310 O320 2.105 . S
Sc310 O322 2.105 . S
Sc310 O326 2.105 . S
Sc310 O328 2.105 . S
O311 Sc308 2.025 . S
O311 Sc309 2.025 . S
O311 Sc310 2.025 . S
C312 O318 1.268 . S
C312 O328 1.268 . S
C313 O319 1.268 . S
C313 O327 1.268 . S
C314 O320 1.268 . S
C314 O329 1.268 . S
C315 O321 1.268 . S
C315 O325 1.268 . S
C316 O322 1.268 . S
C316 O324 1.268 . S
C317 O323 1.268 . S
C317 O326 1.268 . S
O318 Sc308 2.105 . S
O318 C312 1.268 . S
O319 Sc309 2.105 . S
O319 C313 1.268 . S
O320 Sc310 2.105 . S
O320 C314 1.268 . S
O321 Sc308 2.105 . S
O321 C315 1.268 . S
O322 Sc310 2.105 . S
O322 C316 1.268 . S
O323 Sc309 2.105 . S
O323 C317 1.268 . S
O324 Sc308 2.105 . S
O324 C316 1.268 . S
O325 Sc309 2.105 . S
O325 C315 1.268 . S
O326 Sc310 2.105 . S
O326 C317 1.268 . S
O327 Sc308 2.105 . S
O327 C313 1.268 . S
O328 Sc310 2.105 . S
O328 C312 1.268 . S
O329 Sc309 2.105 . S
O329 C314 1.268 . S
Sc330 O333 2.025 . S
Sc330 O340 2.105 . S
Sc330 O343 2.105 . S
Sc330 O346 2.105 . S
Sc330 O349 2.105 . S
Sc331 O333 2.025 . S
Sc331 O341 2.105 . S
Sc331 O345 2.105 . S
Sc331 O347 2.105 . S
Sc331 O351 2.105 . S
Sc332 O333 2.025 . S
Sc332 O342 2.105 . S
Sc332 O344 2.105 . S
Sc332 O348 2.105 . S
Sc332 O350 2.105 . S
O333 Sc330 2.025 . S
O333 Sc331 2.025 . S
O333 Sc332 2.025 . S
C334 O340 1.268 . S
C334 O350 1.268 . S
C335 O341 1.268 . S
C335 O349 1.268 . S
C336 O342 1.268 . S
C336 O351 1.268 . S
C337 O343 1.268 . S
C337 O347 1.268 . S
C338 O344 1.268 . S
C338 O346 1.268 . S
C339 O345 1.268 . S
C339 O348 1.268 . S
O340 Sc330 2.105 . S
O340 C334 1.268 . S
O341 Sc331 2.105 . S
O341 C335 1.268 . S
O342 Sc332 2.105 . S
O342 C336 1.268 . S
O343 Sc330 2.105 . S
O343 C337 1.268 . S
O344 Sc332 2.105 . S
O344 C338 1.268 . S
O345 Sc331 2.105 . S
O345 C339 1.268 . S
O346 Sc330 2.105 . S
O346 C338 1.268 . S
O347 Sc331 2.105 . S
O347 C337 1.268 . S
O348 Sc332 2.105 . S
O348 C339 1.268 . S
O349 Sc330 2.105 . S
O349 C335 1.268 . S
O350 Sc332 2.105 . S
O350 C334 1.268 . S
O351 Sc331 2.105 . S
O351 C336 1.268 . S
H352 C364 0.930 . S
H353 C366 0.930 . S
H354 C367 0.930 . S
H355 C371 0.959 . S
H356 C371 0.959 . S
H357 C371 0.961 . S
H358 C372 0.960 . S
H359 C372 0.961 . S
H360 C372 0.959 . S
H361 C375 0.929 . S
H362 C376 0.931 . S
H363 C378 0.930 . S
C364 H352 0.930 . S
C364 C365 1.399 . S
C364 C369 1.399 . S
C365 C364 1.399 . S
C365 C366 1.376 . S
C366 H353 0.930 . S
C366 C365 1.376 . S
C366 C367 1.388 . S
C367 H354 0.930 . S
C367 C366 1.388 . S
C367 C368 1.390 . S
C368 C367 1.390 . S
C368 C369 1.394 . S
C368 C374 1.465 . S
C369 C364 1.399 . S
C369 C368 1.394 . S
C369 C370 1.516 . S
C370 C369 1.516 . S
C370 C371 1.502 . S
C370 C372 1.561 . S
C370 C373 1.526 . S
C371 H355 0.959 . S
C371 H356 0.959 . S
C371 H357 0.961 . S
C371 C370 1.502 . S
C372 H358 0.960 . S
C372 H359 0.961 . S
C372 H360 0.959 . S
C372 C370 1.561 . S
C373 C370 1.526 . S
C373 C374 1.396 . S
C373 C378 1.390 . S
C374 C368 1.465 . S
C374 C373 1.396 . S
C374 C375 1.399 . S
C375 H361 0.929 . S
C375 C374 1.399 . S
C375 C376 1.385 . S
C376 H362 0.931 . S
C376 C375 1.385 . S
C376 C377 1.389 . S
C377 C376 1.389 . S
C377 C378 1.387 . S
C378 H363 0.930 . S
C378 C373 1.390 . S
C378 C377 1.387 . S
H379 C391 0.930 . S
H380 C393 0.930 . S
H381 C394 0.930 . S
H382 C398 0.959 . S
H383 C398 0.959 . S
H384 C398 0.961 . S
H385 C399 0.960 . S
H386 C399 0.961 . S
H387 C399 0.959 . S
H388 C402 0.929 . S
H389 C403 0.931 . S
H390 C405 0.930 . S
C391 H379 0.930 . S
C391 C392 1.399 . S
C391 C396 1.399 . S
C392 C391 1.399 . S
C392 C393 1.376 . S
C393 H380 0.930 . S
C393 C392 1.376 . S
C393 C394 1.388 . S
C394 H381 0.930 . S
C394 C393 1.388 . S
C394 C395 1.390 . S
C395 C394 1.390 . S
C395 C396 1.394 . S
C395 C401 1.465 . S
C396 C391 1.399 . S
C396 C395 1.394 . S
C396 C397 1.516 . S
C397 C396 1.516 . S
C397 C398 1.502 . S
C397 C399 1.561 . S
C397 C400 1.526 . S
C398 H382 0.959 . S
C398 H383 0.959 . S
C398 H384 0.961 . S
C398 C397 1.502 . S
C399 H385 0.960 . S
C399 H386 0.961 . S
C399 H387 0.959 . S
C399 C397 1.561 . S
C400 C397 1.526 . S
C400 C401 1.396 . S
C400 C405 1.390 . S
C401 C395 1.465 . S
C401 C400 1.396 . S
C401 C402 1.399 . S
C402 H388 0.929 . S
C402 C401 1.399 . S
C402 C403 1.385 . S
C403 H389 0.931 . S
C403 C402 1.385 . S
C403 C404 1.389 . S
C404 C403 1.389 . S
C404 C405 1.387 . S
C405 H390 0.930 . S
C405 C400 1.390 . S
C405 C404 1.387 . S
H406 C418 0.930 . S
H407 C420 0.930 . S
H408 C421 0.930 . S
H409 C425 0.959 . S
H410 C425 0.959 . S
H411 C425 0.961 . S
H412 C426 0.960 . S
H413 C426 0.961 . S
H414 C426 0.959 . S
H415 C429 0.929 . S
H416 C430 0.931 . S
H417 C432 0.930 . S
C418 H406 0.930 . S
C418 C419 1.399 . S
C418 C423 1.399 . S
C419 C418 1.399 . S
C419 C420 1.376 . S
C420 H407 0.930 . S
C420 C419 1.376 . S
C420 C421 1.388 . S
C421 H408 0.930 . S
C421 C420 1.388 . S
C421 C422 1.390 . S
C422 C421 1.390 . S
C422 C423 1.394 . S
C422 C428 1.465 . S
C423 C418 1.399 . S
C423 C422 1.394 . S
C423 C424 1.516 . S
C424 C423 1.516 . S
C424 C425 1.502 . S
C424 C426 1.561 . S
C424 C427 1.526 . S
C425 H409 0.959 . S
C425 H410 0.959 . S
C425 H411 0.961 . S
C425 C424 1.502 . S
C426 H412 0.960 . S
C426 H413 0.961 . S
C426 H414 0.959 . S
C426 C424 1.561 . S
C427 C424 1.526 . S
C427 C428 1.396 . S
C427 C432 1.390 . S
C428 C422 1.465 . S
C428 C427 1.396 . S
C428 C429 1.399 . S
C429 H415 0.929 . S
C429 C428 1.399 . S
C429 C430 1.385 . S
C430 H416 0.931 . S
C430 C429 1.385 . S
C430 C431 1.389 . S
C431 C430 1.389 . S
C431 C432 1.387 . S
C432 H417 0.930 . S
C432 C427 1.390 . S
C432 C431 1.387 . S
H433 C445 0.930 . S
H434 C447 0.930 . S
H435 C448 0.930 . S
H436 C452 0.959 . S
H437 C452 0.959 . S
H438 C452 0.961 . S
H439 C453 0.960 . S
H440 C453 0.961 . S
H441 C453 0.959 . S
H442 C456 0.929 . S
H443 C457 0.931 . S
H444 C459 0.930 . S
C445 H433 0.930 . S
C445 C446 1.399 . S
C445 C450 1.399 . S
C446 C445 1.399 . S
C446 C447 1.376 . S
C447 H434 0.930 . S
C447 C446 1.376 . S
C447 C448 1.388 . S
C448 H435 0.930 . S
C448 C447 1.388 . S
C448 C449 1.390 . S
C449 C448 1.390 . S
C449 C450 1.394 . S
C449 C455 1.465 . S
C450 C445 1.399 . S
C450 C449 1.394 . S
C450 C451 1.516 . S
C451 C450 1.516 . S
C451 C452 1.502 . S
C451 C453 1.561 . S
C451 C454 1.526 . S
C452 H436 0.959 . S
C452 H437 0.959 . S
C452 H438 0.961 . S
C452 C451 1.502 . S
C453 H439 0.960 . S
C453 H440 0.961 . S
C453 H441 0.959 . S
C453 C451 1.561 . S
C454 C451 1.526 . S
C454 C455 1.396 . S
C454 C459 1.390 . S
C455 C449 1.465 . S
C455 C454 1.396 . S
C455 C456 1.399 . S
C456 H442 0.929 . S
C456 C455 1.399 . S
C456 C457 1.385 . S
C457 H443 0.931 . S
C457 C456 1.385 . S
C457 C458 1.389 . S
C458 C457 1.389 . S
C458 C459 1.387 . S
C459 H444 0.930 . S
C459 C454 1.390 . S
C459 C458 1.387 . S
H460 C472 0.930 . S
H461 C474 0.930 . S
H462 C475 0.930 . S
H463 C479 0.959 . S
H464 C479 0.959 . S
H465 C479 0.961 . S
H466 C480 0.960 . S
H467 C480 0.961 . S
H468 C480 0.959 . S
H469 C483 0.929 . S
H470 C484 0.931 . S
H471 C486 0.930 . S
C472 H460 0.930 . S
C472 C473 1.399 . S
C472 C477 1.399 . S
C473 C472 1.399 . S
C473 C474 1.376 . S
C474 H461 0.930 . S
C474 C473 1.376 . S
C474 C475 1.388 . S
C475 H462 0.930 . S
C475 C474 1.388 . S
C475 C476 1.390 . S
C476 C475 1.390 . S
C476 C477 1.394 . S
C476 C482 1.465 . S
C477 C472 1.399 . S
C477 C476 1.394 . S
C477 C478 1.516 . S
C478 C477 1.516 . S
C478 C479 1.502 . S
C478 C480 1.561 . S
C478 C481 1.526 . S
C479 H463 0.959 . S
C479 H464 0.959 . S
C479 H465 0.961 . S
C479 C478 1.502 . S
C480 H466 0.960 . S
C480 H467 0.961 . S
C480 H468 0.959 . S
C480 C478 1.561 . S
C481 C478 1.526 . S
C481 C482 1.396 . S
C481 C486 1.390 . S
C482 C476 1.465 . S
C482 C481 1.396 . S
C482 C483 1.399 . S
C483 H469 0.929 . S
C483 C482 1.399 . S
C483 C484 1.385 . S
C484 H470 0.931 . S
C484 C483 1.385 . S
C484 C485 1.389 . S
C485 C484 1.389 . S
C485 C486 1.387 . S
C486 H471 0.930 . S
C486 C481 1.390 . S
C486 C485 1.387 . S
H487 C499 0.930 . S
H488 C501 0.930 . S
H489 C502 0.930 . S
H490 C506 0.959 . S
H491 C506 0.959 . S
H492 C506 0.961 . S
H493 C507 0.960 . S
H494 C507 0.961 . S
H495 C507 0.959 . S
H496 C510 0.929 . S
H497 C511 0.931 . S
H498 C513 0.930 . S
C499 H487 0.930 . S
C499 C500 1.399 . S
C499 C504 1.399 . S
C500 C499 1.399 . S
C500 C501 1.376 . S
C501 H488 0.930 . S
C501 C500 1.376 . S
C501 C502 1.388 . S
C502 H489 0.930 . S
C502 C501 1.388 . S
C502 C503 1.390 . S
C503 C502 1.390 . S
C503 C504 1.394 . S
C503 C509 1.465 . S
C504 C499 1.399 . S
C504 C503 1.394 . S
C504 C505 1.516 . S
C505 C504 1.516 . S
C505 C506 1.502 . S
C505 C507 1.561 . S
C505 C508 1.526 . S
C506 H490 0.959 . S
C506 H491 0.959 . S
C506 H492 0.961 . S
C506 C505 1.502 . S
C507 H493 0.960 . S
C507 H494 0.961 . S
C507 H495 0.959 . S
C507 C505 1.561 . S
C508 C505 1.526 . S
C508 C509 1.396 . S
C508 C513 1.390 . S
C509 C503 1.465 . S
C509 C508 1.396 . S
C509 C510 1.399 . S
C510 H496 0.929 . S
C510 C509 1.399 . S
C510 C511 1.385 . S
C511 H497 0.931 . S
C511 C510 1.385 . S
C511 C512 1.389 . S
C512 C511 1.389 . S
C512 C513 1.387 . S
C513 H498 0.930 . S
C513 C508 1.390 . S
C513 C512 1.387 . S
H514 C526 0.930 . S
H515 C528 0.930 . S
H516 C529 0.930 . S
H517 C533 0.959 . S
H518 C533 0.959 . S
H519 C533 0.961 . S
H520 C534 0.960 . S
H521 C534 0.961 . S
H522 C534 0.959 . S
H523 C537 0.929 . S
H524 C538 0.931 . S
H525 C540 0.930 . S
C526 H514 0.930 . S
C526 C527 1.399 . S
C526 C531 1.399 . S
C527 C526 1.399 . S
C527 C528 1.376 . S
C528 H515 0.930 . S
C528 C527 1.376 . S
C528 C529 1.388 . S
C529 H516 0.930 . S
C529 C528 1.388 . S
C529 C530 1.390 . S
C530 C529 1.390 . S
C530 C531 1.394 . S
C530 C536 1.465 . S
C531 C526 1.399 . S
C531 C530 1.394 . S
C531 C532 1.516 . S
C532 C531 1.516 . S
C532 C533 1.502 . S
C532 C534 1.561 . S
C532 C535 1.526 . S
C533 H517 0.959 . S
C533 H518 0.959 . S
C533 H519 0.961 . S
C533 C532 1.502 . S
C534 H520 0.960 . S
C534 H521 0.961 . S
C534 H522 0.959 . S
C534 C532 1.561 . S
C535 C532 1.526 . S
C535 C536 1.396 . S
C535 C540 1.390 . S
C536 C530 1.465 . S
C536 C535 1.396 . S
C536 C537 1.399 . S
C537 H523 0.929 . S
C537 C536 1.399 . S
C537 C538 1.385 . S
C538 H524 0.931 . S
C538 C537 1.385 . S
C538 C539 1.389 . S
C539 C538 1.389 . S
C539 C540 1.387 . S
C540 H525 0.930 . S
C540 C535 1.390 . S
C540 C539 1.387 . S
H541 C553 0.930 . S
H542 C555 0.946 . S
H543 C556 0.930 . S
H544 C560 0.959 . S
H545 C560 0.959 . S
H546 C560 0.961 . S
H547 C561 0.960 . S
H548 C561 0.961 . S
H549 C561 0.959 . S
H550 C564 0.929 . S
H551 C565 0.931 . S
H552 C567 0.930 . S
C553 H541 0.930 . S
C553 C554 1.399 . S
C553 C558 1.399 . S
C554 C553 1.399 . S
C554 C555 1.373 1_655 S
C555 H542 0.946 . S
C555 C554 1.373 1_455 S
C555 C556 1.377 1_455 S
C556 H543 0.930 . S
C556 C555 1.377 1_655 S
C556 C557 1.390 . S
C557 C556 1.390 . S
C557 C558 1.394 . S
C557 C563 1.465 . S
C558 C553 1.399 . S
C558 C557 1.394 . S
C558 C559 1.516 . S
C559 C558 1.516 . S
C559 C560 1.502 . S
C559 C561 1.561 . S
C559 C562 1.526 . S
C560 H544 0.959 . S
C560 H545 0.959 . S
C560 H546 0.961 . S
C560 C559 1.502 . S
C561 H547 0.960 . S
C561 H548 0.961 . S
C561 H549 0.959 . S
C561 C559 1.561 . S
C562 C559 1.526 . S
C562 C563 1.396 . S
C562 C567 1.390 . S
C563 C557 1.465 . S
C563 C562 1.396 . S
C563 C564 1.399 . S
C564 H550 0.929 . S
C564 C563 1.399 . S
C564 C565 1.385 . S
C565 H551 0.931 . S
C565 C564 1.385 . S
C565 C566 1.389 . S
C566 C565 1.389 . S
C566 C567 1.387 . S
C567 H552 0.930 . S
C567 C562 1.390 . S
C567 C566 1.387 . S
H568 C580 0.930 . S
H569 C582 0.930 . S
H570 C583 0.930 . S
H571 C587 0.959 . S
H572 C587 0.959 . S
H573 C587 0.961 . S
H574 C588 0.960 . S
H575 C588 0.961 . S
H576 C588 0.959 . S
H577 C591 0.929 . S
H578 C592 0.931 . S
H579 C594 0.930 . S
C580 H568 0.930 . S
C580 C581 1.399 . S
C580 C585 1.399 . S
C581 C580 1.399 . S
C581 C582 1.376 . S
C582 H569 0.930 . S
C582 C581 1.376 . S
C582 C583 1.388 . S
C583 H570 0.930 . S
C583 C582 1.388 . S
C583 C584 1.390 . S
C584 C583 1.390 . S
C584 C585 1.394 . S
C584 C590 1.465 . S
C585 C580 1.399 . S
C585 C584 1.394 . S
C585 C586 1.516 . S
C586 C585 1.516 . S
C586 C587 1.502 . S
C586 C588 1.561 . S
C586 C589 1.526 . S
C587 H571 0.959 . S
C587 H572 0.959 . S
C587 H573 0.961 . S
C587 C586 1.502 . S
C588 H574 0.960 . S
C588 H575 0.961 . S
C588 H576 0.959 . S
C588 C586 1.561 . S
C589 C586 1.526 . S
C589 C590 1.396 . S
C589 C594 1.390 . S
C590 C584 1.465 . S
C590 C589 1.396 . S
C590 C591 1.399 . S
C591 H577 0.929 . S
C591 C590 1.399 . S
C591 C592 1.385 . S
C592 H578 0.931 . S
C592 C591 1.385 . S
C592 C593 1.389 . S
C593 C592 1.389 . S
C593 C594 1.387 . S
C594 H579 0.930 . S
C594 C589 1.390 . S
C594 C593 1.387 . S
H595 C607 0.930 . S
H596 C609 0.930 . S
H597 C610 0.930 . S
H598 C614 0.959 . S
H599 C614 0.959 . S
H600 C614 0.961 . S
H601 C615 0.960 . S
H602 C615 0.961 . S
H603 C615 0.959 . S
H604 C618 0.929 . S
H605 C619 0.931 . S
H606 C621 0.930 . S
C607 H595 0.930 . S
C607 C608 1.399 . S
C607 C612 1.399 . S
C608 C607 1.399 . S
C608 C609 1.376 . S
C609 H596 0.930 . S
C609 C608 1.376 . S
C609 C610 1.388 . S
C610 H597 0.930 . S
C610 C609 1.388 . S
C610 C611 1.390 . S
C611 C610 1.390 . S
C611 C612 1.394 . S
C611 C617 1.465 . S
C612 C607 1.399 . S
C612 C611 1.394 . S
C612 C613 1.516 . S
C613 C612 1.516 . S
C613 C614 1.502 . S
C613 C615 1.561 . S
C613 C616 1.526 . S
C614 H598 0.959 . S
C614 H599 0.959 . S
C614 H600 0.961 . S
C614 C613 1.502 . S
C615 H601 0.960 . S
C615 H602 0.961 . S
C615 H603 0.959 . S
C615 C613 1.561 . S
C616 C613 1.526 . S
C616 C617 1.396 . S
C616 C621 1.390 . S
C617 C611 1.465 . S
C617 C616 1.396 . S
C617 C618 1.399 . S
C618 H604 0.929 . S
C618 C617 1.399 . S
C618 C619 1.385 . S
C619 H605 0.931 . S
C619 C618 1.385 . S
C619 C620 1.389 . S
C620 C619 1.389 . S
C620 C621 1.387 . S
C621 H606 0.930 . S
C621 C616 1.390 . S
C621 C620 1.387 . S
H622 C634 0.930 . S
H623 C636 0.934 . S
H624 C637 0.930 . S
H625 C641 0.959 . S
H626 C641 0.959 . S
H627 C641 0.961 . S
H628 C642 0.960 . S
H629 C642 0.961 . S
H630 C642 0.959 . S
H631 C645 0.929 . S
H632 C646 0.931 . S
H633 C648 0.930 . S
C634 H622 0.930 . S
C634 C635 1.399 . S
C634 C639 1.399 . S
C635 C634 1.399 . S
C635 C636 1.376 1_545 S
C636 H623 0.934 . S
C636 C635 1.376 1_565 S
C636 C637 1.386 1_565 S
C637 H624 0.930 . S
C637 C636 1.386 1_545 S
C637 C638 1.390 . S
C638 C637 1.390 . S
C638 C639 1.394 . S
C638 C644 1.465 . S
C639 C634 1.399 . S
C639 C638 1.394 . S
C639 C640 1.516 . S
C640 C639 1.516 . S
C640 C641 1.502 . S
C640 C642 1.561 . S
C640 C643 1.526 . S
C641 H625 0.959 . S
C641 H626 0.959 . S
C641 H627 0.961 . S
C641 C640 1.502 . S
C642 H628 0.960 . S
C642 H629 0.961 . S
C642 H630 0.959 . S
C642 C640 1.561 . S
C643 C640 1.526 . S
C643 C644 1.396 . S
C643 C648 1.390 . S
C644 C638 1.465 . S
C644 C643 1.396 . S
C644 C645 1.399 . S
C645 H631 0.929 . S
C645 C644 1.399 . S
C645 C646 1.385 . S
C646 H632 0.931 . S
C646 C645 1.385 . S
C646 C647 1.389 . S
C647 C646 1.389 . S
C647 C648 1.387 . S
C648 H633 0.930 . S
C648 C643 1.390 . S
C648 C647 1.387 . S
H649 C661 0.930 . S
H650 C663 0.930 . S
H651 C664 0.930 . S
H652 C668 0.959 . S
H653 C668 0.959 . S
H654 C668 0.961 . S
H655 C669 0.960 . S
H656 C669 0.961 . S
H657 C669 0.959 . S
H658 C672 0.929 . S
H659 C673 0.931 . S
H660 C675 0.930 . S
C661 H649 0.930 . S
C661 C662 1.399 . S
C661 C666 1.399 . S
C662 C661 1.399 . S
C662 C663 1.376 . S
C663 H650 0.930 . S
C663 C662 1.376 . S
C663 C664 1.388 . S
C664 H651 0.930 . S
C664 C663 1.388 . S
C664 C665 1.390 . S
C665 C664 1.390 . S
C665 C666 1.394 . S
C665 C671 1.465 . S
C666 C661 1.399 . S
C666 C665 1.394 . S
C666 C667 1.516 . S
C667 C666 1.516 . S
C667 C668 1.502 . S
C667 C669 1.561 . S
C667 C670 1.526 . S
C668 H652 0.959 . S
C668 H653 0.959 . S
C668 H654 0.961 . S
C668 C667 1.502 . S
C669 H655 0.960 . S
C669 H656 0.961 . S
C669 H657 0.959 . S
C669 C667 1.561 . S
C670 C667 1.526 . S
C670 C671 1.396 . S
C670 C675 1.390 . S
C671 C665 1.465 . S
C671 C670 1.396 . S
C671 C672 1.399 . S
C672 H658 0.929 . S
C672 C671 1.399 . S
C672 C673 1.385 . S
C673 H659 0.931 . S
C673 C672 1.385 . S
C673 C674 1.389 . S
C674 C673 1.389 . S
C674 C675 1.387 . S
C675 H660 0.930 . S
C675 C670 1.390 . S
C675 C674 1.387 . S
H676 C688 0.930 . S
H677 C690 0.930 . S
H678 C691 0.930 . S
H679 C695 0.959 . S
H680 C695 0.959 . S
H681 C695 0.961 . S
H682 C696 0.960 . S
H683 C696 0.961 . S
H684 C696 0.959 . S
H685 C699 0.929 . S
H686 C700 0.931 1_565 S
H687 C702 0.930 . S
C688 H676 0.930 . S
C688 C689 1.399 . S
C688 C693 1.399 . S
C689 C688 1.399 . S
C689 C690 1.376 . S
C690 H677 0.930 . S
C690 C689 1.376 . S
C690 C691 1.388 . S
C691 H678 0.930 . S
C691 C690 1.388 . S
C691 C692 1.390 . S
C692 C691 1.390 . S
C692 C693 1.394 . S
C692 C698 1.465 . S
C693 C688 1.399 . S
C693 C692 1.394 . S
C693 C694 1.516 . S
C694 C693 1.516 . S
C694 C695 1.502 . S
C694 C696 1.561 . S
C694 C697 1.526 . S
C695 H679 0.959 . S
C695 H680 0.959 . S
C695 H681 0.961 . S
C695 C694 1.502 . S
C696 H682 0.960 . S
C696 H683 0.961 . S
C696 H684 0.959 . S
C696 C694 1.561 . S
C697 C694 1.526 . S
C697 C698 1.396 . S
C697 C702 1.390 . S
C698 C692 1.465 . S
C698 C697 1.396 . S
C698 C699 1.399 . S
C699 H685 0.929 . S
C699 C698 1.399 . S
C699 C700 1.385 . S
C700 H686 0.931 1_545 S
C700 C699 1.385 . S
C700 C701 1.389 . S
C701 C700 1.389 . S
C701 C702 1.387 . S
C702 H687 0.930 . S
C702 C697 1.390 . S
C702 C701 1.387 . S
H703 C715 0.930 . S
H704 C717 0.930 . S
H705 C718 0.930 . S
H706 C722 0.959 . S
H707 C722 0.959 . S
H708 C722 0.961 . S
H709 C723 0.960 . S
H710 C723 0.961 . S
H711 C723 0.959 . S
H712 C726 0.929 . S
H713 C727 0.931 . S
H714 C729 0.930 . S
C715 H703 0.930 . S
C715 C716 1.399 . S
C715 C720 1.399 . S
C716 C715 1.399 . S
C716 C717 1.376 . S
C717 H704 0.930 . S
C717 C716 1.376 . S
C717 C718 1.388 . S
C718 H705 0.930 . S
C718 C717 1.388 . S
C718 C719 1.390 . S
C719 C718 1.390 . S
C719 C720 1.394 . S
C719 C725 1.465 . S
C720 C715 1.399 . S
C720 C719 1.394 . S
C720 C721 1.516 . S
C721 C720 1.516 . S
C721 C722 1.502 . S
C721 C723 1.561 . S
C721 C724 1.526 . S
C722 H706 0.959 . S
C722 H707 0.959 . S
C722 H708 0.961 . S
C722 C721 1.502 . S
C723 H709 0.960 . S
C723 H710 0.961 . S
C723 H711 0.959 . S
C723 C721 1.561 . S
C724 C721 1.526 . S
C724 C725 1.396 . S
C724 C729 1.390 . S
C725 C719 1.465 . S
C725 C724 1.396 . S
C725 C726 1.399 . S
C726 H712 0.929 . S
C726 C725 1.399 . S
C726 C727 1.385 . S
C727 H713 0.931 . S
C727 C726 1.385 . S
C727 C728 1.389 . S
C728 C727 1.389 . S
C728 C729 1.387 . S
C729 H714 0.930 . S
C729 C724 1.390 . S
C729 C728 1.387 . S
H730 C742 0.930 . S
H731 C744 0.930 . S
H732 C745 0.930 . S
H733 C749 0.959 . S
H734 C749 0.959 . S
H735 C749 0.961 . S
H736 C750 0.960 . S
H737 C750 0.961 . S
H738 C750 0.959 . S
H739 C753 0.929 . S
H740 C754 0.931 . S
H741 C756 0.930 . S
C742 H730 0.930 . S
C742 C743 1.399 . S
C742 C747 1.399 . S
C743 C742 1.399 . S
C743 C744 1.376 . S
C744 H731 0.930 . S
C744 C743 1.376 . S
C744 C745 1.388 . S
C745 H732 0.930 . S
C745 C744 1.388 . S
C745 C746 1.390 . S
C746 C745 1.390 . S
C746 C747 1.394 . S
C746 C752 1.465 . S
C747 C742 1.399 . S
C747 C746 1.394 . S
C747 C748 1.516 . S
C748 C747 1.516 . S
C748 C749 1.502 . S
C748 C750 1.561 . S
C748 C751 1.526 . S
C749 H733 0.959 . S
C749 H734 0.959 . S
C749 H735 0.961 . S
C749 C748 1.502 . S
C750 H736 0.960 . S
C750 H737 0.961 . S
C750 H738 0.959 . S
C750 C748 1.561 . S
C751 C748 1.526 . S
C751 C752 1.396 . S
C751 C756 1.390 . S
C752 C746 1.465 . S
C752 C751 1.396 . S
C752 C753 1.399 . S
C753 H739 0.929 . S
C753 C752 1.399 . S
C753 C754 1.385 . S
C754 H740 0.931 . S
C754 C753 1.385 . S
C754 C755 1.389 . S
C755 C754 1.389 . S
C755 C756 1.387 . S
C756 H741 0.930 . S
C756 C751 1.390 . S
C756 C755 1.387 . S
H757 C769 0.930 . S
H758 C771 0.930 . S
H759 C772 0.930 . S
H760 C776 0.959 . S
H761 C776 0.959 . S
H762 C776 0.961 . S
H763 C777 0.960 . S
H764 C777 0.961 . S
H765 C777 0.959 . S
H766 C780 0.929 . S
H767 C781 0.931 . S
H768 C783 0.930 . S
C769 H757 0.930 . S
C769 C770 1.399 . S
C769 C774 1.399 . S
C770 C769 1.399 . S
C770 C771 1.376 . S
C771 H758 0.930 . S
C771 C770 1.376 . S
C771 C772 1.388 . S
C772 H759 0.930 . S
C772 C771 1.388 . S
C772 C773 1.390 . S
C773 C772 1.390 . S
C773 C774 1.394 . S
C773 C779 1.465 . S
C774 C769 1.399 . S
C774 C773 1.394 . S
C774 C775 1.516 . S
C775 C774 1.516 . S
C775 C776 1.502 . S
C775 C777 1.561 . S
C775 C778 1.526 . S
C776 H760 0.959 . S
C776 H761 0.959 . S
C776 H762 0.961 . S
C776 C775 1.502 . S
C777 H763 0.960 . S
C777 H764 0.961 . S
C777 H765 0.959 . S
C777 C775 1.561 . S
C778 C775 1.526 . S
C778 C779 1.396 . S
C778 C783 1.390 . S
C779 C773 1.465 . S
C779 C778 1.396 . S
C779 C780 1.399 . S
C780 H766 0.929 . S
C780 C779 1.399 . S
C780 C781 1.385 . S
C781 H767 0.931 . S
C781 C780 1.385 . S
C781 C782 1.389 . S
C782 C781 1.389 . S
C782 C783 1.387 . S
C783 H768 0.930 . S
C783 C778 1.390 . S
C783 C782 1.387 . S
H784 C796 0.930 . S
H785 C798 0.930 . S
H786 C799 0.930 . S
H787 C803 0.959 . S
H788 C803 0.959 . S
H789 C803 0.961 . S
H790 C804 0.960 . S
H791 C804 0.961 . S
H792 C804 0.959 1_455 S
H793 C807 0.929 . S
H794 C808 0.931 . S
H795 C810 0.930 . S
C796 H784 0.930 . S
C796 C797 1.399 . S
C796 C801 1.399 . S
C797 C796 1.399 . S
C797 C798 1.376 . S
C798 H785 0.930 . S
C798 C797 1.376 . S
C798 C799 1.388 . S
C799 H786 0.930 . S
C799 C798 1.388 . S
C799 C800 1.390 . S
C800 C799 1.390 . S
C800 C801 1.394 . S
C800 C806 1.465 . S
C801 C796 1.399 . S
C801 C800 1.394 . S
C801 C802 1.516 . S
C802 C801 1.516 . S
C802 C803 1.502 . S
C802 C804 1.561 1_455 S
C802 C805 1.526 . S
C803 H787 0.959 . S
C803 H788 0.959 . S
C803 H789 0.961 . S
C803 C802 1.502 . S
C804 H790 0.960 . S
C804 H791 0.961 . S
C804 H792 0.959 1_655 S
C804 C802 1.561 1_655 S
C805 C802 1.526 . S
C805 C806 1.396 . S
C805 C810 1.390 . S
C806 C800 1.465 . S
C806 C805 1.396 . S
C806 C807 1.399 . S
C807 H793 0.929 . S
C807 C806 1.399 . S
C807 C808 1.385 . S
C808 H794 0.931 . S
C808 C807 1.385 . S
C808 C809 1.389 . S
C809 C808 1.389 . S
C809 C810 1.387 . S
C810 H795 0.930 . S
C810 C805 1.390 . S
C810 C809 1.387 . S
H811 C823 0.930 . S
H812 C825 0.930 . S
H813 C826 0.930 . S
H814 C830 0.959 . S
H815 C830 0.959 . S
H816 C830 0.961 . S
H817 C831 0.960 . S
H818 C831 0.961 . S
H819 C831 0.959 . S
H820 C834 0.929 . S
H821 C835 0.931 . S
H822 C837 0.930 . S
C823 H811 0.930 . S
C823 C824 1.399 . S
C823 C828 1.399 . S
C824 C823 1.399 . S
C824 C825 1.376 . S
C825 H812 0.930 . S
C825 C824 1.376 . S
C825 C826 1.388 . S
C826 H813 0.930 . S
C826 C825 1.388 . S
C826 C827 1.390 . S
C827 C826 1.390 . S
C827 C828 1.394 . S
C827 C833 1.465 . S
C828 C823 1.399 . S
C828 C827 1.394 . S
C828 C829 1.516 . S
C829 C828 1.516 . S
C829 C830 1.502 . S
C829 C831 1.561 . S
C829 C832 1.526 . S
C830 H814 0.959 . S
C830 H815 0.959 . S
C830 H816 0.961 . S
C830 C829 1.502 . S
C831 H817 0.960 . S
C831 H818 0.961 . S
C831 H819 0.959 . S
C831 C829 1.561 . S
C832 C829 1.526 . S
C832 C833 1.396 . S
C832 C837 1.390 . S
C833 C827 1.465 . S
C833 C832 1.396 . S
C833 C834 1.399 . S
C834 H820 0.929 . S
C834 C833 1.399 . S
C834 C835 1.385 . S
C835 H821 0.931 . S
C835 C834 1.385 . S
C835 C836 1.389 . S
C836 C835 1.389 . S
C836 C837 1.387 . S
C837 H822 0.930 . S
C837 C832 1.390 . S
C837 C836 1.387 . S
H838 C850 0.930 . S
H839 C852 0.930 . S
H840 C853 0.930 . S
H841 C857 0.959 . S
H842 C857 0.959 . S
H843 C857 0.961 . S
H844 C858 0.960 . S
H845 C858 0.961 . S
H846 C858 0.959 . S
H847 C861 0.929 . S
H848 C862 0.931 . S
H849 C864 0.930 . S
C850 H838 0.930 . S
C850 C851 1.399 . S
C850 C855 1.399 . S
C851 C850 1.399 . S
C851 C852 1.376 . S
C852 H839 0.930 . S
C852 C851 1.376 . S
C852 C853 1.388 . S
C853 H840 0.930 . S
C853 C852 1.388 . S
C853 C854 1.390 . S
C854 C853 1.390 . S
C854 C855 1.394 . S
C854 C860 1.465 . S
C855 C850 1.399 . S
C855 C854 1.394 . S
C855 C856 1.516 . S
C856 C855 1.516 . S
C856 C857 1.502 . S
C856 C858 1.561 . S
C856 C859 1.526 . S
C857 H841 0.959 . S
C857 H842 0.959 . S
C857 H843 0.961 . S
C857 C856 1.502 . S
C858 H844 0.960 . S
C858 H845 0.961 . S
C858 H846 0.959 . S
C858 C856 1.561 . S
C859 C856 1.526 . S
C859 C860 1.396 . S
C859 C864 1.390 . S
C860 C854 1.465 . S
C860 C859 1.396 . S
C860 C861 1.399 . S
C861 H847 0.929 . S
C861 C860 1.399 . S
C861 C862 1.385 . S
C862 H848 0.931 . S
C862 C861 1.385 . S
C862 C863 1.389 . S
C863 C862 1.389 . S
C863 C864 1.387 . S
C864 H849 0.930 . S
C864 C859 1.390 . S
C864 C863 1.387 . S
H865 C877 0.930 . S
H866 C879 0.930 . S
H867 C880 0.930 . S
H868 C884 0.959 . S
H869 C884 0.959 . S
H870 C884 0.961 . S
H871 C885 0.960 . S
H872 C885 0.961 . S
H873 C885 0.959 . S
H874 C888 0.929 . S
H875 C889 0.931 . S
H876 C891 0.930 . S
C877 H865 0.930 . S
C877 C878 1.399 . S
C877 C882 1.399 . S
C878 C877 1.399 . S
C878 C879 1.376 . S
C879 H866 0.930 . S
C879 C878 1.376 . S
C879 C880 1.388 . S
C880 H867 0.930 . S
C880 C879 1.388 . S
C880 C881 1.390 . S
C881 C880 1.390 . S
C881 C882 1.394 . S
C881 C887 1.465 . S
C882 C877 1.399 . S
C882 C881 1.394 . S
C882 C883 1.516 . S
C883 C882 1.516 . S
C883 C884 1.502 . S
C883 C885 1.561 . S
C883 C886 1.526 . S
C884 H868 0.959 . S
C884 H869 0.959 . S
C884 H870 0.961 . S
C884 C883 1.502 . S
C885 H871 0.960 . S
C885 H872 0.961 . S
C885 H873 0.959 . S
C885 C883 1.561 . S
C886 C883 1.526 . S
C886 C887 1.396 . S
C886 C891 1.390 . S
C887 C881 1.465 . S
C887 C886 1.396 . S
C887 C888 1.399 . S
C888 H874 0.929 . S
C888 C887 1.399 . S
C888 C889 1.385 . S
C889 H875 0.931 . S
C889 C888 1.385 . S
C889 C890 1.389 . S
C890 C889 1.389 . S
C890 C891 1.387 . S
C891 H876 0.930 . S
C891 C886 1.390 . S
C891 C890 1.387 . S
H892 C904 0.930 . S
H893 C906 0.930 . S
H894 C907 0.930 . S
H895 C911 0.959 . S
H896 C911 0.959 . S
H897 C911 0.961 . S
H898 C912 0.960 . S
H899 C912 0.961 . S
H900 C912 0.959 . S
H901 C915 0.929 . S
H902 C916 0.931 . S
H903 C918 0.930 . S
C904 H892 0.930 . S
C904 C905 1.399 . S
C904 C909 1.399 . S
C905 C904 1.399 . S
C905 C906 1.376 . S
C906 H893 0.930 . S
C906 C905 1.376 . S
C906 C907 1.388 . S
C907 H894 0.930 . S
C907 C906 1.388 . S
C907 C908 1.390 . S
C908 C907 1.390 . S
C908 C909 1.394 . S
C908 C914 1.465 . S
C909 C904 1.399 . S
C909 C908 1.394 . S
C909 C910 1.516 . S
C910 C909 1.516 . S
C910 C911 1.502 . S
C910 C912 1.561 . S
C910 C913 1.526 . S
C911 H895 0.959 . S
C911 H896 0.959 . S
C911 H897 0.961 . S
C911 C910 1.502 . S
C912 H898 0.960 . S
C912 H899 0.961 . S
C912 H900 0.959 . S
C912 C910 1.561 . S
C913 C910 1.526 . S
C913 C914 1.396 . S
C913 C918 1.390 . S
C914 C908 1.465 . S
C914 C913 1.396 . S
C914 C915 1.399 . S
C915 H901 0.929 . S
C915 C914 1.399 . S
C915 C916 1.385 . S
C916 H902 0.931 . S
C916 C915 1.385 . S
C916 C917 1.389 . S
C917 C916 1.389 . S
C917 C918 1.387 . S
C918 H903 0.930 . S
C918 C913 1.390 . S
C918 C917 1.387 . S
H919 C931 0.930 . S
H920 C933 0.930 . S
H921 C934 0.930 . S
H922 C938 0.959 . S
H923 C938 0.959 . S
H924 C938 0.961 . S
H925 C939 0.960 . S
H926 C939 0.961 . S
H927 C939 0.959 . S
H928 C942 0.929 . S
H929 C943 0.931 . S
H930 C945 0.930 . S
C931 H919 0.930 . S
C931 C932 1.399 . S
C931 C936 1.399 . S
C932 C931 1.399 . S
C932 C933 1.376 . S
C933 H920 0.930 . S
C933 C932 1.376 . S
C933 C934 1.388 . S
C934 H921 0.930 . S
C934 C933 1.388 . S
C934 C935 1.390 . S
C935 C934 1.390 . S
C935 C936 1.394 . S
C935 C941 1.465 . S
C936 C931 1.399 . S
C936 C935 1.394 . S
C936 C937 1.516 . S
C937 C936 1.516 . S
C937 C938 1.502 . S
C937 C939 1.561 . S
C937 C940 1.526 . S
C938 H922 0.959 . S
C938 H923 0.959 . S
C938 H924 0.961 . S
C938 C937 1.502 . S
C939 H925 0.960 . S
C939 H926 0.961 . S
C939 H927 0.959 . S
C939 C937 1.561 . S
C940 C937 1.526 . S
C940 C941 1.396 . S
C940 C945 1.390 . S
C941 C935 1.465 . S
C941 C940 1.396 . S
C941 C942 1.399 . S
C942 H928 0.929 . S
C942 C941 1.399 . S
C942 C943 1.385 . S
C943 H929 0.931 . S
C943 C942 1.385 . S
C943 C944 1.389 . S
C944 C943 1.389 . S
C944 C945 1.387 . S
C945 H930 0.930 . S
C945 C940 1.390 . S
C945 C944 1.387 . S
H946 C958 0.930 . S
H947 C960 0.930 . S
H948 C961 0.930 . S
H949 C965 0.959 . S
H950 C965 0.959 . S
H951 C965 0.961 . S
H952 C966 0.960 . S
H953 C966 0.961 . S
H954 C966 0.959 . S
H955 C969 0.929 . S
H956 C970 0.931 . S
H957 C972 0.930 . S
C958 H946 0.930 . S
C958 C959 1.399 . S
C958 C963 1.399 . S
C959 C958 1.399 . S
C959 C960 1.376 . S
C960 H947 0.930 . S
C960 C959 1.376 . S
C960 C961 1.388 . S
C961 H948 0.930 . S
C961 C960 1.388 . S
C961 C962 1.390 . S
C962 C961 1.390 . S
C962 C963 1.394 . S
C962 C968 1.465 . S
C963 C958 1.399 . S
C963 C962 1.394 . S
C963 C964 1.516 . S
C964 C963 1.516 . S
C964 C965 1.502 . S
C964 C966 1.561 . S
C964 C967 1.526 . S
C965 H949 0.959 . S
C965 H950 0.959 . S
C965 H951 0.961 . S
C965 C964 1.502 . S
C966 H952 0.960 . S
C966 H953 0.961 . S
C966 H954 0.959 . S
C966 C964 1.561 . S
C967 C964 1.526 . S
C967 C968 1.396 . S
C967 C972 1.390 . S
C968 C962 1.465 . S
C968 C967 1.396 . S
C968 C969 1.399 . S
C969 H955 0.929 . S
C969 C968 1.399 . S
C969 C970 1.385 . S
C970 H956 0.931 . S
C970 C969 1.385 . S
C970 C971 1.389 . S
C971 C970 1.389 . S
C971 C972 1.387 . S
C972 H957 0.930 . S
C972 C967 1.390 . S
C972 C971 1.387 . S
H973 C985 0.930 . S
H974 C987 0.930 . S
H975 C988 0.930 . S
H976 C992 0.959 . S
H977 C992 0.959 . S
H978 C992 0.961 . S
H979 C993 0.960 . S
H980 C993 0.961 . S
H981 C993 0.959 . S
H982 C996 0.929 . S
H983 C997 0.931 . S
H984 C999 0.930 . S
C985 H973 0.930 . S
C985 C986 1.399 . S
C985 C990 1.399 . S
C986 C985 1.399 . S
C986 C987 1.376 . S
C987 H974 0.930 . S
C987 C986 1.376 . S
C987 C988 1.388 . S
C988 H975 0.930 . S
C988 C987 1.388 . S
C988 C989 1.390 . S
C989 C988 1.390 . S
C989 C990 1.394 . S
C989 C995 1.465 . S
C990 C985 1.399 . S
C990 C989 1.394 . S
C990 C991 1.516 . S
C991 C990 1.516 . S
C991 C992 1.502 . S
C991 C993 1.561 . S
C991 C994 1.526 . S
C992 H976 0.959 . S
C992 H977 0.959 . S
C992 H978 0.961 . S
C992 C991 1.502 . S
C993 H979 0.960 . S
C993 H980 0.961 . S
C993 H981 0.959 . S
C993 C991 1.561 . S
C994 C991 1.526 . S
C994 C995 1.396 . S
C994 C999 1.390 . S
C995 C989 1.465 . S
C995 C994 1.396 . S
C995 C996 1.399 . S
C996 H982 0.929 . S
C996 C995 1.399 . S
C996 C997 1.385 . S
C997 H983 0.931 . S
C997 C996 1.385 . S
C997 C998 1.389 . S
C998 C997 1.389 . S
C998 C999 1.387 . S
C999 H984 0.930 . S
C999 C994 1.390 . S
C999 C998 1.387 . S
H1000 C1012 0.930 . S
H1001 C1014 0.930 . S
H1002 C1015 0.930 . S
H1003 C1019 0.959 . S
H1004 C1019 0.959 . S
H1005 C1019 0.961 . S
H1006 C1020 0.960 . S
H1007 C1020 0.961 . S
H1008 C1020 0.959 . S
H1009 C1023 0.929 . S
H1010 C1024 0.931 . S
H1011 C1026 0.930 . S
C1012 H1000 0.930 . S
C1012 C1013 1.399 . S
C1012 C1017 1.399 . S
C1013 C1012 1.399 . S
C1013 C1014 1.376 . S
C1014 H1001 0.930 . S
C1014 C1013 1.376 . S
C1014 C1015 1.388 . S
C1015 H1002 0.930 . S
C1015 C1014 1.388 . S
C1015 C1016 1.390 . S
C1016 C1015 1.390 . S
C1016 C1017 1.394 . S
C1016 C1022 1.465 . S
C1017 C1012 1.399 . S
C1017 C1016 1.394 . S
C1017 C1018 1.516 . S
C1018 C1017 1.516 . S
C1018 C1019 1.502 . S
C1018 C1020 1.561 . S
C1018 C1021 1.526 . S
C1019 H1003 0.959 . S
C1019 H1004 0.959 . S
C1019 H1005 0.961 . S
C1019 C1018 1.502 . S
C1020 H1006 0.960 . S
C1020 H1007 0.961 . S
C1020 H1008 0.959 . S
C1020 C1018 1.561 . S
C1021 C1018 1.526 . S
C1021 C1022 1.396 . S
C1021 C1026 1.390 . S
C1022 C1016 1.465 . S
C1022 C1021 1.396 . S
C1022 C1023 1.399 . S
C1023 H1009 0.929 . S
C1023 C1022 1.399 . S
C1023 C1024 1.385 . S
C1024 H1010 0.931 . S
C1024 C1023 1.385 . S
C1024 C1025 1.389 . S
C1025 C1024 1.389 . S
C1025 C1026 1.387 . S
C1026 H1011 0.930 . S
C1026 C1021 1.390 . S
C1026 C1025 1.387 . S
H1027 C1039 0.930 . S
H1028 C1041 0.930 . S
H1029 C1042 0.930 . S
H1030 C1046 0.959 . S
H1031 C1046 0.959 . S
H1032 C1046 0.961 . S
H1033 C1047 0.960 . S
H1034 C1047 0.961 . S
H1035 C1047 0.959 . S
H1036 C1050 0.929 . S
H1037 C1051 0.931 . S
H1038 C1053 0.930 . S
C1039 H1027 0.930 . S
C1039 C1040 1.399 . S
C1039 C1044 1.399 . S
C1040 C1039 1.399 . S
C1040 C1041 1.376 . S
C1041 H1028 0.930 . S
C1041 C1040 1.376 . S
C1041 C1042 1.388 . S
C1042 H1029 0.930 . S
C1042 C1041 1.388 . S
C1042 C1043 1.390 . S
C1043 C1042 1.390 . S
C1043 C1044 1.394 . S
C1043 C1049 1.465 . S
C1044 C1039 1.399 . S
C1044 C1043 1.394 . S
C1044 C1045 1.516 . S
C1045 C1044 1.516 . S
C1045 C1046 1.502 . S
C1045 C1047 1.561 . S
C1045 C1048 1.526 . S
C1046 H1030 0.959 . S
C1046 H1031 0.959 . S
C1046 H1032 0.961 . S
C1046 C1045 1.502 . S
C1047 H1033 0.960 . S
C1047 H1034 0.961 . S
C1047 H1035 0.959 . S
C1047 C1045 1.561 . S
C1048 C1045 1.526 . S
C1048 C1049 1.396 . S
C1048 C1053 1.390 . S
C1049 C1043 1.465 . S
C1049 C1048 1.396 . S
C1049 C1050 1.399 . S
C1050 H1036 0.929 . S
C1050 C1049 1.399 . S
C1050 C1051 1.385 . S
C1051 H1037 0.931 . S
C1051 C1050 1.385 . S
C1051 C1052 1.389 . S
C1052 C1051 1.389 . S
C1052 C1053 1.387 . S
C1053 H1038 0.930 . S
C1053 C1048 1.390 . S
C1053 C1052 1.387 . S
H1054 C1066 0.930 . S
H1055 C1068 0.930 . S
H1056 C1069 0.930 . S
H1057 C1073 0.959 . S
H1058 C1073 0.959 . S
H1059 C1073 0.961 . S
H1060 C1074 0.960 . S
H1061 C1074 0.961 . S
H1062 C1074 0.959 . S
H1063 C1077 0.929 . S
H1064 C1078 0.931 . S
H1065 C1080 0.930 . S
C1066 H1054 0.930 . S
C1066 C1067 1.399 . S
C1066 C1071 1.399 . S
C1067 C1066 1.399 . S
C1067 C1068 1.376 . S
C1068 H1055 0.930 . S
C1068 C1067 1.376 . S
C1068 C1069 1.388 . S
C1069 H1056 0.930 . S
C1069 C1068 1.388 . S
C1069 C1070 1.390 . S
C1070 C1069 1.390 . S
C1070 C1071 1.394 . S
C1070 C1076 1.465 . S
C1071 C1066 1.399 . S
C1071 C1070 1.394 . S
C1071 C1072 1.516 . S
C1072 C1071 1.516 . S
C1072 C1073 1.502 . S
C1072 C1074 1.561 . S
C1072 C1075 1.526 . S
C1073 H1057 0.959 . S
C1073 H1058 0.959 . S
C1073 H1059 0.961 . S
C1073 C1072 1.502 . S
C1074 H1060 0.960 . S
C1074 H1061 0.961 . S
C1074 H1062 0.959 . S
C1074 C1072 1.561 . S
C1075 C1072 1.526 . S
C1075 C1076 1.396 . S
C1075 C1080 1.390 . S
C1076 C1070 1.465 . S
C1076 C1075 1.396 . S
C1076 C1077 1.399 . S
C1077 H1063 0.929 . S
C1077 C1076 1.399 . S
C1077 C1078 1.385 . S
C1078 H1064 0.931 . S
C1078 C1077 1.385 . S
C1078 C1079 1.389 . S
C1079 C1078 1.389 . S
C1079 C1080 1.387 . S
C1080 H1065 0.930 . S
C1080 C1075 1.390 . S
C1080 C1079 1.387 . S
H1081 C1093 0.930 . S
H1082 C1095 0.930 . S
H1083 C1096 0.930 . S
H1084 C1100 0.959 . S
H1085 C1100 0.959 . S
H1086 C1100 0.961 . S
H1087 C1101 0.960 . S
H1088 C1101 0.961 . S
H1089 C1101 0.959 . S
H1090 C1104 0.929 . S
H1091 C1105 0.931 . S
H1092 C1107 0.930 . S
C1093 H1081 0.930 . S
C1093 C1094 1.399 . S
C1093 C1098 1.399 . S
C1094 C1093 1.399 . S
C1094 C1095 1.376 . S
C1095 H1082 0.930 . S
C1095 C1094 1.376 . S
C1095 C1096 1.388 . S
C1096 H1083 0.930 . S
C1096 C1095 1.388 . S
C1096 C1097 1.390 . S
C1097 C1096 1.390 . S
C1097 C1098 1.394 . S
C1097 C1103 1.465 . S
C1098 C1093 1.399 . S
C1098 C1097 1.394 . S
C1098 C1099 1.516 . S
C1099 C1098 1.516 . S
C1099 C1100 1.502 . S
C1099 C1101 1.561 . S
C1099 C1102 1.526 . S
C1100 H1084 0.959 . S
C1100 H1085 0.959 . S
C1100 H1086 0.961 . S
C1100 C1099 1.502 . S
C1101 H1087 0.960 . S
C1101 H1088 0.961 . S
C1101 H1089 0.959 . S
C1101 C1099 1.561 . S
C1102 C1099 1.526 . S
C1102 C1103 1.396 . S
C1102 C1107 1.390 . S
C1103 C1097 1.465 . S
C1103 C1102 1.396 . S
C1103 C1104 1.399 . S
C1104 H1090 0.929 . S
C1104 C1103 1.399 . S
C1104 C1105 1.385 . S
C1105 H1091 0.931 . S
C1105 C1104 1.385 . S
C1105 C1106 1.389 . S
C1106 C1105 1.389 . S
C1106 C1107 1.387 . S
C1107 H1092 0.930 . S
C1107 C1102 1.390 . S
C1107 C1106 1.387 . S
H1108 C1120 0.930 . S
H1109 C1122 0.930 . S
H1110 C1123 0.930 . S
H1111 C1127 0.959 . S
H1112 C1127 0.959 . S
H1113 C1127 0.961 . S
H1114 C1128 0.960 . S
H1115 C1128 0.961 . S
H1116 C1128 0.959 . S
H1117 C1131 0.929 . S
H1118 C1132 0.931 . S
H1119 C1134 0.930 . S
C1120 H1108 0.930 . S
C1120 C1121 1.399 . S
C1120 C1125 1.399 . S
C1121 C1120 1.399 . S
C1121 C1122 1.376 . S
C1122 H1109 0.930 . S
C1122 C1121 1.376 . S
C1122 C1123 1.388 . S
C1123 H1110 0.930 . S
C1123 C1122 1.388 . S
C1123 C1124 1.390 . S
C1124 C1123 1.390 . S
C1124 C1125 1.394 . S
C1124 C1130 1.465 . S
C1125 C1120 1.399 . S
C1125 C1124 1.394 . S
C1125 C1126 1.516 . S
C1126 C1125 1.516 . S
C1126 C1127 1.502 . S
C1126 C1128 1.561 . S
C1126 C1129 1.526 . S
C1127 H1111 0.959 . S
C1127 H1112 0.959 . S
C1127 H1113 0.961 . S
C1127 C1126 1.502 . S
C1128 H1114 0.960 . S
C1128 H1115 0.961 . S
C1128 H1116 0.959 . S
C1128 C1126 1.561 . S
C1129 C1126 1.526 . S
C1129 C1130 1.396 . S
C1129 C1134 1.390 . S
C1130 C1124 1.465 . S
C1130 C1129 1.396 . S
C1130 C1131 1.399 . S
C1131 H1117 0.929 . S
C1131 C1130 1.399 . S
C1131 C1132 1.385 . S
C1132 H1118 0.931 . S
C1132 C1131 1.385 . S
C1132 C1133 1.389 . S
C1133 C1132 1.389 . S
C1133 C1134 1.387 . S
C1134 H1119 0.930 . S
C1134 C1129 1.390 . S
C1134 C1133 1.387 . S
H1135 C1147 0.930 . S
H1136 C1149 0.930 . S
H1137 C1150 0.930 . S
H1138 C1154 0.959 . S
H1139 C1154 0.959 . S
H1140 C1154 0.961 . S
H1141 C1155 0.960 . S
H1142 C1155 0.961 . S
H1143 C1155 0.959 . S
H1144 C1158 0.929 . S
H1145 C1159 0.931 . S
H1146 C1161 0.930 . S
C1147 H1135 0.930 . S
C1147 C1148 1.399 . S
C1147 C1152 1.399 . S
C1148 C1147 1.399 . S
C1148 C1149 1.376 . S
C1149 H1136 0.930 . S
C1149 C1148 1.376 . S
C1149 C1150 1.388 . S
C1150 H1137 0.930 . S
C1150 C1149 1.388 . S
C1150 C1151 1.390 . S
C1151 C1150 1.390 . S
C1151 C1152 1.394 . S
C1151 C1157 1.465 . S
C1152 C1147 1.399 . S
C1152 C1151 1.394 . S
C1152 C1153 1.516 . S
C1153 C1152 1.516 . S
C1153 C1154 1.502 . S
C1153 C1155 1.561 . S
C1153 C1156 1.526 . S
C1154 H1138 0.959 . S
C1154 H1139 0.959 . S
C1154 H1140 0.961 . S
C1154 C1153 1.502 . S
C1155 H1141 0.960 . S
C1155 H1142 0.961 . S
C1155 H1143 0.959 . S
C1155 C1153 1.561 . S
C1156 C1153 1.526 . S
C1156 C1157 1.396 . S
C1156 C1161 1.390 . S
C1157 C1151 1.465 . S
C1157 C1156 1.396 . S
C1157 C1158 1.399 . S
C1158 H1144 0.929 . S
C1158 C1157 1.399 . S
C1158 C1159 1.385 . S
C1159 H1145 0.931 . S
C1159 C1158 1.385 . S
C1159 C1160 1.389 . S
C1160 C1159 1.389 . S
C1160 C1161 1.387 . S
C1161 H1146 0.930 . S
C1161 C1156 1.390 . S
C1161 C1160 1.387 . S
H1162 C1174 0.930 . S
H1163 C1176 0.930 . S
H1164 C1177 0.930 . S
H1165 C1181 0.959 . S
H1166 C1181 0.959 . S
H1167 C1181 0.961 . S
H1168 C1182 0.960 . S
H1169 C1182 0.961 . S
H1170 C1182 0.959 . S
H1171 C1185 0.929 . S
H1172 C1186 0.931 . S
H1173 C1188 0.930 . S
C1174 H1162 0.930 . S
C1174 C1175 1.399 . S
C1174 C1179 1.399 . S
C1175 C1174 1.399 . S
C1175 C1176 1.376 . S
C1176 H1163 0.930 . S
C1176 C1175 1.376 . S
C1176 C1177 1.388 . S
C1177 H1164 0.930 . S
C1177 C1176 1.388 . S
C1177 C1178 1.390 . S
C1178 C1177 1.390 . S
C1178 C1179 1.394 . S
C1178 C1184 1.465 . S
C1179 C1174 1.399 . S
C1179 C1178 1.394 . S
C1179 C1180 1.516 . S
C1180 C1179 1.516 . S
C1180 C1181 1.502 . S
C1180 C1182 1.561 . S
C1180 C1183 1.526 . S
C1181 H1165 0.959 . S
C1181 H1166 0.959 . S
C1181 H1167 0.961 . S
C1181 C1180 1.502 . S
C1182 H1168 0.960 . S
C1182 H1169 0.961 . S
C1182 H1170 0.959 . S
C1182 C1180 1.561 . S
C1183 C1180 1.526 . S
C1183 C1184 1.396 . S
C1183 C1188 1.390 . S
C1184 C1178 1.465 . S
C1184 C1183 1.396 . S
C1184 C1185 1.399 . S
C1185 H1171 0.929 . S
C1185 C1184 1.399 . S
C1185 C1186 1.385 . S
C1186 H1172 0.931 . S
C1186 C1185 1.385 . S
C1186 C1187 1.389 . S
C1187 C1186 1.389 . S
C1187 C1188 1.387 . S
C1188 H1173 0.930 . S
C1188 C1183 1.390 . S
C1188 C1187 1.387 . S
H1189 C1201 0.930 . S
H1190 C1203 0.930 . S
H1191 C1204 0.930 . S
H1192 C1208 0.959 . S
H1193 C1208 0.959 . S
H1194 C1208 0.961 . S
H1195 C1209 0.960 . S
H1196 C1209 0.961 . S
H1197 C1209 0.959 . S
H1198 C1212 0.929 . S
H1199 C1213 0.931 . S
H1200 C1215 0.930 . S
C1201 H1189 0.930 . S
C1201 C1202 1.399 . S
C1201 C1206 1.399 . S
C1202 C1201 1.399 . S
C1202 C1203 1.376 . S
C1203 H1190 0.930 . S
C1203 C1202 1.376 . S
C1203 C1204 1.388 . S
C1204 H1191 0.930 . S
C1204 C1203 1.388 . S
C1204 C1205 1.390 . S
C1205 C1204 1.390 . S
C1205 C1206 1.394 . S
C1205 C1211 1.465 . S
C1206 C1201 1.399 . S
C1206 C1205 1.394 . S
C1206 C1207 1.516 . S
C1207 C1206 1.516 . S
C1207 C1208 1.502 . S
C1207 C1209 1.561 . S
C1207 C1210 1.526 . S
C1208 H1192 0.959 . S
C1208 H1193 0.959 . S
C1208 H1194 0.961 . S
C1208 C1207 1.502 . S
C1209 H1195 0.960 . S
C1209 H1196 0.961 . S
C1209 H1197 0.959 . S
C1209 C1207 1.561 . S
C1210 C1207 1.526 . S
C1210 C1211 1.396 . S
C1210 C1215 1.390 . S
C1211 C1205 1.465 . S
C1211 C1210 1.396 . S
C1211 C1212 1.399 . S
C1212 H1198 0.929 . S
C1212 C1211 1.399 . S
C1212 C1213 1.385 . S
C1213 H1199 0.931 . S
C1213 C1212 1.385 . S
C1213 C1214 1.389 . S
C1214 C1213 1.389 . S
C1214 C1215 1.387 . S
C1215 H1200 0.930 . S
C1215 C1210 1.390 . S
C1215 C1214 1.387 . S
H1216 C1228 0.930 . S
H1217 C1230 0.930 . S
H1218 C1231 0.930 . S
H1219 C1235 0.959 . S
H1220 C1235 0.959 1_554 S
H1221 C1235 0.961 . S
H1222 C1236 0.960 . S
H1223 C1236 0.961 . S
H1224 C1236 0.959 . S
H1225 C1239 0.929 . S
H1226 C1240 0.931 . S
H1227 C1242 0.930 . S
C1228 H1216 0.930 . S
C1228 C1229 1.399 . S
C1228 C1233 1.399 . S
C1229 C1228 1.399 . S
C1229 C1230 1.376 . S
C1230 H1217 0.930 . S
C1230 C1229 1.376 . S
C1230 C1231 1.388 1_655 S
C1231 H1218 0.930 . S
C1231 C1230 1.388 1_455 S
C1231 C1232 1.396 . S
C1232 C1231 1.396 . S
C1232 C1233 1.368 1_455 S
C1232 C1238 1.482 1_556 S
C1233 C1228 1.399 . S
C1233 C1232 1.368 1_655 S
C1233 C1234 1.516 1_556 S
C1234 C1233 1.516 1_554 S
C1234 C1235 1.502 1_554 S
C1234 C1236 1.561 . S
C1234 C1237 1.526 1_655 S
C1235 H1219 0.959 . S
C1235 H1220 0.959 1_556 S
C1235 H1221 0.961 . S
C1235 C1234 1.502 1_556 S
C1236 H1222 0.960 . S
C1236 H1223 0.961 . S
C1236 H1224 0.959 . S
C1236 C1234 1.561 . S
C1237 C1234 1.526 1_455 S
C1237 C1238 1.396 . S
C1237 C1242 1.390 . S
C1238 C1232 1.482 1_554 S
C1238 C1237 1.396 . S
C1238 C1239 1.399 . S
C1239 H1225 0.929 . S
C1239 C1238 1.399 . S
C1239 C1240 1.385 . S
C1240 H1226 0.931 . S
C1240 C1239 1.385 . S
C1240 C1241 1.389 . S
C1241 C1240 1.389 . S
C1241 C1242 1.387 . S
C1242 H1227 0.930 . S
C1242 C1237 1.390 . S
C1242 C1241 1.387 . S
H1243 C1255 0.930 . S
H1244 C1257 0.930 . S
H1245 C1258 0.930 . S
H1246 C1262 0.959 . S
H1247 C1262 0.959 1_554 S
H1248 C1262 0.961 . S
H1249 C1263 0.960 . S
H1250 C1263 0.961 . S
H1251 C1263 0.959 . S
H1252 C1266 0.929 . S
H1253 C1267 0.931 . S
H1254 C1269 0.930 . S
C1255 H1243 0.930 . S
C1255 C1256 1.399 . S
C1255 C1260 1.399 . S
C1256 C1255 1.399 . S
C1256 C1257 1.376 . S
C1257 H1244 0.930 . S
C1257 C1256 1.376 . S
C1257 C1258 1.388 1_565 S
C1258 H1245 0.930 . S
C1258 C1257 1.388 1_545 S
C1258 C1259 1.391 . S
C1259 C1258 1.391 . S
C1259 C1260 1.387 1_545 S
C1259 C1265 1.470 1_556 S
C1260 C1255 1.399 . S
C1260 C1259 1.387 1_565 S
C1260 C1261 1.516 1_456 S
C1261 C1260 1.516 1_654 S
C1261 C1262 1.502 1_554 S
C1261 C1263 1.561 . S
C1261 C1264 1.526 1_565 S
C1262 H1246 0.959 . S
C1262 H1247 0.959 1_556 S
C1262 H1248 0.961 . S
C1262 C1261 1.502 1_556 S
C1263 H1249 0.960 . S
C1263 H1250 0.961 . S
C1263 H1251 0.959 . S
C1263 C1261 1.561 . S
C1264 C1261 1.526 1_545 S
C1264 C1265 1.396 1_655 S
C1264 C1269 1.390 . S
C1265 C1259 1.470 1_554 S
C1265 C1264 1.396 1_455 S
C1265 C1266 1.399 . S
C1266 H1252 0.929 . S
C1266 C1265 1.399 . S
C1266 C1267 1.385 1_455 S
C1267 H1253 0.931 . S
C1267 C1266 1.385 1_655 S
C1267 C1268 1.389 . S
C1268 C1267 1.389 . S
C1268 C1269 1.387 . S
C1269 H1254 0.930 . S
C1269 C1264 1.390 . S
C1269 C1268 1.387 . S
H1270 C1282 0.930 . S
H1271 C1284 0.930 . S
H1272 C1285 0.930 . S
H1273 C1289 0.959 . S
H1274 C1289 0.959 . S
H1275 C1289 0.961 . S
H1276 C1290 0.960 . S
H1277 C1290 0.961 . S
H1278 C1290 0.959 . S
H1279 C1293 0.929 . S
H1280 C1294 0.931 . S
H1281 C1296 0.930 . S
C1282 H1270 0.930 . S
C1282 C1283 1.399 . S
C1282 C1287 1.399 . S
C1283 C1282 1.399 . S
C1283 C1284 1.376 . S
C1284 H1271 0.930 . S
C1284 C1283 1.376 . S
C1284 C1285 1.388 1_556 S
C1285 H1272 0.930 . S
C1285 C1284 1.388 1_554 S
C1285 C1286 1.394 . S
C1286 C1285 1.394 . S
C1286 C1287 1.364 1_554 S
C1286 C1292 1.490 . S
C1287 C1282 1.399 . S
C1287 C1286 1.364 1_556 S
C1287 C1288 1.516 1_545 S
C1288 C1287 1.516 1_565 S
C1288 C1289 1.502 . S
C1288 C1290 1.561 . S
C1288 C1291 1.526 1_556 S
C1289 H1273 0.959 . S
C1289 H1274 0.959 . S
C1289 H1275 0.961 . S
C1289 C1288 1.502 . S
C1290 H1276 0.960 . S
C1290 H1277 0.961 . S
C1290 H1278 0.959 . S
C1290 C1288 1.561 . S
C1291 C1288 1.526 1_554 S
C1291 C1292 1.392 1_565 S
C1291 C1296 1.390 . S
C1292 C1286 1.490 . S
C1292 C1291 1.392 1_545 S
C1292 C1293 1.400 . S
C1293 H1279 0.929 . S
C1293 C1292 1.400 . S
C1293 C1294 1.385 1_545 S
C1294 H1280 0.931 . S
C1294 C1293 1.385 1_565 S
C1294 C1295 1.389 . S
C1295 C1294 1.389 . S
C1295 C1296 1.387 . S
C1296 H1281 0.930 . S
C1296 C1291 1.390 . S
C1296 C1295 1.387 . S
H1297 C1309 0.930 . S
H1298 C1311 0.930 . S
H1299 C1312 0.930 1_556 S
H1300 C1316 0.959 1_556 S
H1301 C1316 0.959 . S
H1302 C1316 0.961 . S
H1303 C1317 0.960 . S
H1304 C1317 0.961 . S
H1305 C1317 0.959 . S
H1306 C1320 0.929 . S
H1307 C1321 0.931 . S
H1308 C1323 0.930 . S
C1309 H1297 0.930 . S
C1309 C1310 1.399 . S
C1309 C1314 1.399 . S
C1310 C1309 1.399 . S
C1310 C1311 1.376 . S
C1311 H1298 0.930 . S
C1311 C1310 1.376 . S
C1311 C1312 1.388 . S
C1312 H1299 0.930 1_554 S
C1312 C1311 1.388 . S
C1312 C1313 1.390 . S
C1313 C1312 1.390 . S
C1313 C1314 1.394 . S
C1313 C1319 1.465 1_554 S
C1314 C1309 1.399 . S
C1314 C1313 1.394 . S
C1314 C1315 1.516 . S
C1315 C1314 1.516 . S
C1315 C1316 1.502 . S
C1315 C1317 1.561 . S
C1315 C1318 1.526 1_554 S
C1316 H1300 0.959 1_554 S
C1316 H1301 0.959 . S
C1316 H1302 0.961 . S
C1316 C1315 1.502 . S
C1317 H1303 0.960 . S
C1317 H1304 0.961 . S
C1317 H1305 0.959 . S
C1317 C1315 1.561 . S
C1318 C1315 1.526 1_556 S
C1318 C1319 1.396 . S
C1318 C1323 1.390 . S
C1319 C1313 1.465 1_556 S
C1319 C1318 1.396 . S
C1319 C1320 1.399 . S
C1320 H1306 0.929 . S
C1320 C1319 1.399 . S
C1320 C1321 1.385 . S
C1321 H1307 0.931 . S
C1321 C1320 1.385 . S
C1321 C1322 1.389 . S
C1322 C1321 1.389 . S
C1322 C1323 1.387 . S
C1323 H1308 0.930 . S
C1323 C1318 1.390 . S
C1323 C1322 1.387 . S
H1324 C1336 0.930 . S
H1325 C1338 0.930 . S
H1326 C1339 0.930 1_465 S
H1327 C1343 0.959 1_565 S
H1328 C1343 0.959 . S
H1329 C1343 0.961 . S
H1330 C1344 0.960 1_655 S
H1331 C1344 0.961 . S
H1332 C1344 0.959 . S
H1333 C1347 0.929 . S
H1334 C1348 0.931 . S
H1335 C1350 0.930 . S
C1336 H1324 0.930 . S
C1336 C1337 1.399 . S
C1336 C1341 1.399 . S
C1337 C1336 1.399 . S
C1337 C1338 1.376 . S
C1338 H1325 0.930 . S
C1338 C1337 1.376 . S
C1338 C1339 1.388 . S
C1339 H1326 0.930 1_645 S
C1339 C1338 1.388 . S
C1339 C1340 1.390 . S
C1340 C1339 1.390 . S
C1340 C1341 1.392 . S
C1340 C1346 1.467 1_645 S
C1341 C1336 1.399 . S
C1341 C1340 1.392 . S
C1341 C1342 1.516 . S
C1342 C1341 1.516 . S
C1342 C1343 1.502 . S
C1342 C1344 1.561 1_655 S
C1342 C1345 1.526 1_645 S
C1343 H1327 0.959 1_545 S
C1343 H1328 0.959 . S
C1343 H1329 0.961 . S
C1343 C1342 1.502 . S
C1344 H1330 0.960 1_455 S
C1344 H1331 0.961 . S
C1344 H1332 0.959 . S
C1344 C1342 1.561 1_455 S
C1345 C1342 1.526 1_465 S
C1345 C1346 1.396 . S
C1345 C1350 1.390 . S
C1346 C1340 1.467 1_465 S
C1346 C1345 1.396 . S
C1346 C1347 1.399 . S
C1347 H1333 0.929 . S
C1347 C1346 1.399 . S
C1347 C1348 1.385 . S
C1348 H1334 0.931 . S
C1348 C1347 1.385 . S
C1348 C1349 1.389 . S
C1349 C1348 1.389 . S
C1349 C1350 1.387 . S
C1350 H1335 0.930 . S
C1350 C1345 1.390 . S
C1350 C1349 1.387 . S
H1351 C1363 0.930 . S
H1352 C1365 0.930 . S
H1353 C1366 0.930 1_545 S
H1354 C1370 0.959 1_545 S
H1355 C1370 0.959 . S
H1356 C1370 0.961 . S
H1357 C1371 0.960 . S
H1358 C1371 0.961 . S
H1359 C1371 0.959 . S
H1360 C1374 0.929 . S
H1361 C1375 0.931 . S
H1362 C1377 0.930 . S
C1363 H1351 0.930 . S
C1363 C1364 1.399 . S
C1363 C1368 1.399 . S
C1364 C1363 1.399 . S
C1364 C1365 1.376 . S
C1365 H1352 0.930 . S
C1365 C1364 1.376 . S
C1365 C1366 1.388 . S
C1366 H1353 0.930 1_565 S
C1366 C1365 1.388 . S
C1366 C1367 1.390 . S
C1367 C1366 1.390 . S
C1367 C1368 1.394 . S
C1367 C1373 1.465 1_565 S
C1368 C1363 1.399 . S
C1368 C1367 1.394 . S
C1368 C1369 1.516 . S
C1369 C1368 1.516 . S
C1369 C1370 1.502 . S
C1369 C1371 1.561 . S
C1369 C1372 1.526 1_565 S
C1370 H1354 0.959 1_565 S
C1370 H1355 0.959 . S
C1370 H1356 0.961 . S
C1370 C1369 1.502 . S
C1371 H1357 0.960 . S
C1371 H1358 0.961 . S
C1371 H1359 0.959 . S
C1371 C1369 1.561 . S
C1372 C1369 1.526 1_545 S
C1372 C1373 1.396 . S
C1372 C1377 1.390 . S
C1373 C1367 1.465 1_545 S
C1373 C1372 1.396 . S
C1373 C1374 1.399 . S
C1374 H1360 0.929 . S
C1374 C1373 1.399 . S
C1374 C1375 1.385 . S
C1375 H1361 0.931 . S
C1375 C1374 1.385 . S
C1375 C1376 1.389 . S
C1376 C1375 1.389 . S
C1376 C1377 1.387 . S
C1377 H1362 0.930 . S
C1377 C1372 1.390 . S
C1377 C1376 1.387 . S
H1378 C1390 0.930 . S
H1379 C1392 0.930 . S
H1380 C1393 0.930 . S
H1381 C1397 0.959 . S
H1382 C1397 0.959 . S
H1383 C1397 0.961 . S
H1384 C1398 0.960 . S
H1385 C1398 0.961 . S
H1386 C1398 0.959 . S
H1387 C1401 0.929 . S
H1388 C1402 0.931 . S
H1389 C1404 0.930 . S
C1390 H1378 0.930 . S
C1390 C1391 1.399 . S
C1390 C1395 1.399 . S
C1391 C1390 1.399 . S
C1391 C1392 1.376 . S
C1392 H1379 0.930 . S
C1392 C1391 1.376 . S
C1392 C1393 1.388 . S
C1393 H1380 0.930 . S
C1393 C1392 1.388 . S
C1393 C1394 1.390 . S
C1394 C1393 1.390 . S
C1394 C1395 1.394 . S
C1394 C1400 1.465 . S
C1395 C1390 1.399 . S
C1395 C1394 1.394 . S
C1395 C1396 1.516 . S
C1396 C1395 1.516 . S
C1396 C1397 1.502 . S
C1396 C1398 1.561 . S
C1396 C1399 1.526 . S
C1397 H1381 0.959 . S
C1397 H1382 0.959 . S
C1397 H1383 0.961 . S
C1397 C1396 1.502 . S
C1398 H1384 0.960 . S
C1398 H1385 0.961 . S
C1398 H1386 0.959 . S
C1398 C1396 1.561 . S
C1399 C1396 1.526 . S
C1399 C1400 1.396 . S
C1399 C1404 1.390 . S
C1400 C1394 1.465 . S
C1400 C1399 1.396 . S
C1400 C1401 1.399 . S
C1401 H1387 0.929 . S
C1401 C1400 1.399 . S
C1401 C1402 1.385 . S
C1402 H1388 0.931 . S
C1402 C1401 1.385 . S
C1402 C1403 1.389 . S
C1403 C1402 1.389 . S
C1403 C1404 1.387 . S
C1404 H1389 0.930 . S
C1404 C1399 1.390 . S
C1404 C1403 1.387 . S
H1405 C1417 0.930 . S
H1406 C1419 0.930 . S
H1407 C1420 0.930 . S
H1408 C1424 0.959 . S
H1409 C1424 0.959 . S
H1410 C1424 0.961 . S
H1411 C1425 0.960 . S
H1412 C1425 0.961 . S
H1413 C1425 0.959 . S
H1414 C1428 0.929 . S
H1415 C1429 0.931 . S
H1416 C1431 0.930 . S
C1417 H1405 0.930 . S
C1417 C1418 1.399 . S
C1417 C1422 1.399 . S
C1418 C1417 1.399 . S
C1418 C1419 1.376 . S
C1419 H1406 0.930 . S
C1419 C1418 1.376 . S
C1419 C1420 1.388 . S
C1420 H1407 0.930 . S
C1420 C1419 1.388 . S
C1420 C1421 1.390 . S
C1421 C1420 1.390 . S
C1421 C1422 1.394 . S
C1421 C1427 1.465 1_455 S
C1422 C1417 1.399 . S
C1422 C1421 1.394 . S
C1422 C1423 1.516 1_455 S
C1423 C1422 1.516 1_655 S
C1423 C1424 1.502 1_655 S
C1423 C1425 1.561 . S
C1423 C1426 1.526 . S
C1424 H1408 0.959 . S
C1424 H1409 0.959 . S
C1424 H1410 0.961 . S
C1424 C1423 1.502 1_455 S
C1425 H1411 0.960 . S
C1425 H1412 0.961 . S
C1425 H1413 0.959 . S
C1425 C1423 1.561 . S
C1426 C1423 1.526 . S
C1426 C1427 1.396 . S
C1426 C1431 1.390 . S
C1427 C1421 1.465 1_655 S
C1427 C1426 1.396 . S
C1427 C1428 1.399 . S
C1428 H1414 0.929 . S
C1428 C1427 1.399 . S
C1428 C1429 1.385 . S
C1429 H1415 0.931 . S
C1429 C1428 1.385 . S
C1429 C1430 1.389 . S
C1430 C1429 1.389 . S
C1430 C1431 1.387 . S
C1431 H1416 0.930 . S
C1431 C1426 1.390 . S
C1431 C1430 1.387 . S
H1432 C1444 0.930 . S
H1433 C1446 0.930 . S
H1434 C1447 0.930 . S
H1435 C1451 0.959 . S
H1436 C1451 0.959 . S
H1437 C1451 0.961 . S
H1438 C1452 0.960 . S
H1439 C1452 0.961 . S
H1440 C1452 0.959 . S
H1441 C1455 0.929 . S
H1442 C1456 0.931 . S
H1443 C1458 0.930 . S
C1444 H1432 0.930 . S
C1444 C1445 1.399 . S
C1444 C1449 1.399 . S
C1445 C1444 1.399 . S
C1445 C1446 1.376 . S
C1446 H1433 0.930 . S
C1446 C1445 1.376 . S
C1446 C1447 1.388 . S
C1447 H1434 0.930 . S
C1447 C1446 1.388 . S
C1447 C1448 1.390 . S
C1448 C1447 1.390 . S
C1448 C1449 1.394 . S
C1448 C1454 1.465 . S
C1449 C1444 1.399 . S
C1449 C1448 1.394 . S
C1449 C1450 1.516 1_655 S
C1450 C1449 1.516 1_455 S
C1450 C1451 1.502 . S
C1450 C1452 1.561 . S
C1450 C1453 1.526 1_455 S
C1451 H1435 0.959 . S
C1451 H1436 0.959 . S
C1451 H1437 0.961 . S
C1451 C1450 1.502 . S
C1452 H1438 0.960 . S
C1452 H1439 0.961 . S
C1452 H1440 0.959 . S
C1452 C1450 1.561 . S
C1453 C1450 1.526 1_655 S
C1453 C1454 1.396 . S
C1453 C1458 1.390 1_655 S
C1454 C1448 1.465 . S
C1454 C1453 1.396 . S
C1454 C1455 1.399 . S
C1455 H1441 0.929 . S
C1455 C1454 1.399 . S
C1455 C1456 1.385 . S
C1456 H1442 0.931 . S
C1456 C1455 1.385 . S
C1456 C1457 1.389 . S
C1457 C1456 1.389 . S
C1457 C1458 1.387 1_655 S
C1458 H1443 0.930 . S
C1458 C1453 1.390 1_455 S
C1458 C1457 1.387 1_455 S
H1459 C1471 0.930 . S
H1460 C1473 0.930 1_455 S
H1461 C1474 0.930 1_545 S
H1462 C1478 0.959 1_455 S
H1463 C1478 0.959 . S
H1464 C1478 0.961 . S
H1465 C1479 0.960 . S
H1466 C1479 0.961 . S
H1467 C1479 0.959 . S
H1468 C1482 0.929 . S
H1469 C1483 0.931 . S
H1470 C1485 0.930 . S
C1471 H1459 0.930 . S
C1471 C1472 1.398 1_655 S
C1471 C1476 1.399 . S
C1472 C1471 1.398 1_455 S
C1472 C1473 1.376 1_455 S
C1473 H1460 0.930 1_655 S
C1473 C1472 1.376 1_655 S
C1473 C1474 1.388 . S
C1474 H1461 0.930 1_565 S
C1474 C1473 1.388 . S
C1474 C1475 1.390 . S
C1475 C1474 1.390 . S
C1475 C1476 1.394 . S
C1475 C1481 1.465 . S
C1476 C1471 1.399 . S
C1476 C1475 1.394 . S
C1476 C1477 1.516 . S
C1477 C1476 1.516 . S
C1477 C1478 1.502 . S
C1477 C1479 1.561 . S
C1477 C1480 1.526 . S
C1478 H1462 0.959 1_655 S
C1478 H1463 0.959 . S
C1478 H1464 0.961 . S
C1478 C1477 1.502 . S
C1479 H1465 0.960 . S
C1479 H1466 0.961 . S
C1479 H1467 0.959 . S
C1479 C1477 1.561 . S
C1480 C1477 1.526 . S
C1480 C1481 1.396 . S
C1480 C1485 1.390 . S
C1481 C1475 1.465 . S
C1481 C1480 1.396 . S
C1481 C1482 1.399 1_565 S
C1482 H1468 0.929 . S
C1482 C1481 1.399 1_545 S
C1482 C1483 1.385 . S
C1483 H1469 0.931 . S
C1483 C1482 1.385 . S
C1483 C1484 1.389 . S
C1484 C1483 1.389 . S
C1484 C1485 1.387 1_545 S
C1485 H1470 0.930 . S
C1485 C1480 1.390 . S
C1485 C1484 1.387 1_565 S
H1486 C1498 0.930 1_545 S
H1487 C1500 0.930 . S
H1488 C1501 0.930 . S
H1489 C1505 0.959 . S
H1490 C1505 0.959 . S
H1491 C1505 0.961 . S
H1492 C1506 0.960 . S
H1493 C1506 0.961 . S
H1494 C1506 0.959 . S
H1495 C1509 0.929 . S
H1496 C1510 0.931 . S
H1497 C1512 0.930 . S
C1498 H1486 0.930 1_565 S
C1498 C1499 1.399 1_565 S
C1498 C1503 1.399 . S
C1499 C1498 1.399 1_545 S
C1499 C1500 1.376 1_545 S
C1500 H1487 0.930 . S
C1500 C1499 1.376 1_565 S
C1500 C1501 1.388 . S
C1501 H1488 0.930 . S
C1501 C1500 1.388 . S
C1501 C1502 1.390 . S
C1502 C1501 1.390 . S
C1502 C1503 1.394 . S
C1502 C1508 1.465 . S
C1503 C1498 1.399 . S
C1503 C1502 1.394 . S
C1503 C1504 1.516 . S
C1504 C1503 1.516 . S
C1504 C1505 1.502 . S
C1504 C1506 1.561 1_565 S
C1504 C1507 1.526 . S
C1505 H1489 0.959 . S
C1505 H1490 0.959 . S
C1505 H1491 0.961 . S
C1505 C1504 1.502 . S
C1506 H1492 0.960 . S
C1506 H1493 0.961 . S
C1506 H1494 0.959 . S
C1506 C1504 1.561 1_545 S
C1507 C1504 1.526 . S
C1507 C1508 1.396 . S
C1507 C1512 1.390 . S
C1508 C1502 1.465 . S
C1508 C1507 1.396 . S
C1508 C1509 1.399 . S
C1509 H1495 0.929 . S
C1509 C1508 1.399 . S
C1509 C1510 1.385 . S
C1510 H1496 0.931 . S
C1510 C1509 1.385 . S
C1510 C1511 1.389 . S
C1511 C1510 1.389 . S
C1511 C1512 1.387 . S
C1512 H1497 0.930 . S
C1512 C1507 1.390 . S
C1512 C1511 1.387 . S
H1513 C1525 0.930 . S
H1514 C1527 0.930 . S
H1515 C1528 0.930 . S
H1516 C1532 0.959 . S
H1517 C1532 0.959 . S
H1518 C1532 0.961 . S
H1519 C1533 0.960 . S
H1520 C1533 0.961 . S
H1521 C1533 0.959 . S
H1522 C1536 0.929 . S
H1523 C1537 0.931 . S
H1524 C1539 0.930 . S
C1525 H1513 0.930 . S
C1525 C1526 1.399 . S
C1525 C1530 1.399 . S
C1526 C1525 1.399 . S
C1526 C1527 1.376 . S
C1527 H1514 0.930 . S
C1527 C1526 1.376 . S
C1527 C1528 1.388 . S
C1528 H1515 0.930 . S
C1528 C1527 1.388 . S
C1528 C1529 1.390 . S
C1529 C1528 1.390 . S
C1529 C1530 1.394 . S
C1529 C1535 1.465 . S
C1530 C1525 1.399 . S
C1530 C1529 1.394 . S
C1530 C1531 1.516 . S
C1531 C1530 1.516 . S
C1531 C1532 1.502 . S
C1531 C1533 1.561 . S
C1531 C1534 1.526 . S
C1532 H1516 0.959 . S
C1532 H1517 0.959 . S
C1532 H1518 0.961 . S
C1532 C1531 1.502 . S
C1533 H1519 0.960 . S
C1533 H1520 0.961 . S
C1533 H1521 0.959 . S
C1533 C1531 1.561 . S
C1534 C1531 1.526 . S
C1534 C1535 1.396 . S
C1534 C1539 1.390 . S
C1535 C1529 1.465 . S
C1535 C1534 1.396 . S
C1535 C1536 1.399 . S
C1536 H1522 0.929 . S
C1536 C1535 1.399 . S
C1536 C1537 1.385 . S
C1537 H1523 0.931 . S
C1537 C1536 1.385 . S
C1537 C1538 1.389 . S
C1538 C1537 1.389 . S
C1538 C1539 1.387 . S
C1539 H1524 0.930 . S
C1539 C1534 1.390 . S
C1539 C1538 1.387 . S
H1540 C1552 0.930 . S
H1541 C1554 0.930 . S
H1542 C1555 0.913 1_655 S
H1543 C1559 0.959 . S
H1544 C1559 0.959 . S
H1545 C1559 0.961 . S
H1546 C1560 0.960 . S
H1547 C1560 0.961 . S
H1548 C1560 0.959 . S
H1549 C1563 0.929 . S
H1550 C1564 0.931 . S
H1551 C1566 0.930 . S
C1552 H1540 0.930 . S
C1552 C1553 1.399 . S
C1552 C1557 1.399 . S
C1553 C1552 1.399 . S
C1553 C1554 1.376 . S
C1554 H1541 0.930 . S
C1554 C1553 1.376 . S
C1554 C1555 1.388 . S
C1555 H1542 0.913 1_455 S
C1555 C1554 1.388 . S
C1555 C1556 1.390 . S
C1556 C1555 1.390 . S
C1556 C1557 1.394 . S
C1556 C1562 1.465 . S
C1557 C1552 1.399 . S
C1557 C1556 1.394 . S
C1557 C1558 1.516 . S
C1558 C1557 1.516 . S
C1558 C1559 1.502 . S
C1558 C1560 1.561 . S
C1558 C1561 1.526 . S
C1559 H1543 0.959 . S
C1559 H1544 0.959 . S
C1559 H1545 0.961 . S
C1559 C1558 1.502 . S
C1560 H1546 0.960 . S
C1560 H1547 0.961 . S
C1560 H1548 0.959 . S
C1560 C1558 1.561 . S
C1561 C1558 1.526 . S
C1561 C1562 1.396 . S
C1561 C1566 1.390 . S
C1562 C1556 1.465 . S
C1562 C1561 1.396 . S
C1562 C1563 1.399 1_455 S
C1563 H1549 0.929 . S
C1563 C1562 1.399 1_655 S
C1563 C1564 1.385 . S
C1564 H1550 0.931 . S
C1564 C1563 1.385 . S
C1564 C1565 1.389 . S
C1565 C1564 1.389 . S
C1565 C1566 1.387 1_655 S
C1566 H1551 0.930 . S
C1566 C1561 1.390 . S
C1566 C1565 1.387 1_455 S
H1567 C1579 0.930 . S
H1568 C1581 0.930 . S
H1569 C1582 0.930 1_565 S
H1570 C1586 0.959 . S
H1571 C1586 0.959 . S
H1572 C1586 0.961 . S
H1573 C1587 0.960 1_655 S
H1574 C1587 0.961 . S
H1575 C1587 0.959 1_655 S
H1576 C1590 0.929 . S
H1577 C1591 0.931 . S
H1578 C1593 0.930 . S
C1579 H1567 0.930 . S
C1579 C1580 1.399 1_455 S
C1579 C1584 1.399 . S
C1580 C1579 1.399 1_655 S
C1580 C1581 1.376 . S
C1581 H1568 0.930 . S
C1581 C1580 1.376 . S
C1581 C1582 1.388 1_655 S
C1582 H1569 0.930 1_545 S
C1582 C1581 1.388 1_455 S
C1582 C1583 1.390 . S
C1583 C1582 1.390 . S
C1583 C1584 1.394 . S
C1583 C1589 1.465 . S
C1584 C1579 1.399 . S
C1584 C1583 1.394 . S
C1584 C1585 1.516 . S
C1585 C1584 1.516 . S
C1585 C1586 1.502 . S
C1585 C1587 1.561 . S
C1585 C1588 1.526 . S
C1586 H1570 0.959 . S
C1586 H1571 0.959 . S
C1586 H1572 0.961 . S
C1586 C1585 1.502 . S
C1587 H1573 0.960 1_455 S
C1587 H1574 0.961 . S
C1587 H1575 0.959 1_455 S
C1587 C1585 1.561 . S
C1588 C1585 1.526 . S
C1588 C1589 1.396 . S
C1588 C1593 1.390 . S
C1589 C1583 1.465 . S
C1589 C1588 1.396 . S
C1589 C1590 1.399 1_545 S
C1590 H1576 0.929 . S
C1590 C1589 1.399 1_565 S
C1590 C1591 1.385 . S
C1591 H1577 0.931 . S
C1591 C1590 1.385 . S
C1591 C1592 1.389 . S
C1592 C1591 1.389 . S
C1592 C1593 1.387 1_565 S
C1593 H1578 0.930 . S
C1593 C1588 1.390 . S
C1593 C1592 1.387 1_545 S
H1594 C1606 0.930 . S
H1595 C1608 0.930 . S
H1596 C1609 0.930 . S
H1597 C1613 0.959 . S
H1598 C1613 0.959 . S
H1599 C1613 0.961 . S
H1600 C1614 0.960 . S
H1601 C1614 0.961 . S
H1602 C1614 0.959 . S
H1603 C1617 0.929 1_565 S
H1604 C1618 0.931 . S
H1605 C1620 0.930 . S
C1606 H1594 0.930 . S
C1606 C1607 1.399 1_545 S
C1606 C1611 1.399 . S
C1607 C1606 1.399 1_565 S
C1607 C1608 1.376 . S
C1608 H1595 0.930 . S
C1608 C1607 1.376 . S
C1608 C1609 1.388 . S
C1609 H1596 0.930 . S
C1609 C1608 1.388 . S
C1609 C1610 1.390 1_565 S
C1610 C1609 1.390 1_545 S
C1610 C1611 1.394 . S
C1610 C1616 1.465 . S
C1611 C1606 1.399 . S
C1611 C1610 1.394 . S
C1611 C1612 1.516 . S
C1612 C1611 1.516 . S
C1612 C1613 1.502 . S
C1612 C1614 1.561 . S
C1612 C1615 1.526 . S
C1613 H1597 0.959 . S
C1613 H1598 0.959 . S
C1613 H1599 0.961 . S
C1613 C1612 1.502 . S
C1614 H1600 0.960 . S
C1614 H1601 0.961 . S
C1614 H1602 0.959 . S
C1614 C1612 1.561 . S
C1615 C1612 1.526 . S
C1615 C1616 1.396 . S
C1615 C1620 1.390 . S
C1616 C1610 1.465 . S
C1616 C1615 1.396 . S
C1616 C1617 1.399 . S
C1617 H1603 0.929 1_545 S
C1617 C1616 1.399 . S
C1617 C1618 1.385 . S
C1618 H1604 0.931 . S
C1618 C1617 1.385 . S
C1618 C1619 1.389 . S
C1619 C1618 1.389 . S
C1619 C1620 1.387 . S
C1620 H1605 0.930 . S
C1620 C1615 1.390 . S
C1620 C1619 1.387 . S
H1621 C1633 0.930 . S
H1622 C1635 0.930 . S
H1623 C1636 0.930 . S
H1624 C1640 0.959 . S
H1625 C1640 0.959 . S
H1626 C1640 0.961 . S
H1627 C1641 0.960 . S
H1628 C1641 0.961 . S
H1629 C1641 0.959 . S
H1630 C1644 0.929 . S
H1631 C1645 0.931 . S
H1632 C1647 0.930 . S
C1633 H1621 0.930 . S
C1633 C1634 1.399 . S
C1633 C1638 1.399 . S
C1634 C1633 1.399 . S
C1634 C1635 1.376 . S
C1635 H1622 0.930 . S
C1635 C1634 1.376 . S
C1635 C1636 1.388 . S
C1636 H1623 0.930 . S
C1636 C1635 1.388 . S
C1636 C1637 1.390 . S
C1637 C1636 1.390 . S
C1637 C1638 1.394 . S
C1637 C1643 1.465 . S
C1638 C1633 1.399 . S
C1638 C1637 1.394 . S
C1638 C1639 1.516 . S
C1639 C1638 1.516 . S
C1639 C1640 1.502 . S
C1639 C1641 1.561 . S
C1639 C1642 1.526 . S
C1640 H1624 0.959 . S
C1640 H1625 0.959 . S
C1640 H1626 0.961 . S
C1640 C1639 1.502 . S
C1641 H1627 0.960 . S
C1641 H1628 0.961 . S
C1641 H1629 0.959 . S
C1641 C1639 1.561 . S
C1642 C1639 1.526 . S
C1642 C1643 1.396 . S
C1642 C1647 1.390 . S
C1643 C1637 1.465 . S
C1643 C1642 1.396 . S
C1643 C1644 1.399 . S
C1644 H1630 0.929 . S
C1644 C1643 1.399 . S
C1644 C1645 1.385 . S
C1645 H1631 0.931 . S
C1645 C1644 1.385 . S
C1645 C1646 1.389 . S
C1646 C1645 1.389 . S
C1646 C1647 1.387 . S
C1647 H1632 0.930 . S
C1647 C1642 1.390 . S
C1647 C1646 1.387 . S
C365 C70 1.243 . S
C377 C8 1.266 . S
C392 C4 1.175 1_655 S
C404 C30 1.206 . S
C419 C52 1.259 . S
C431 C26 1.188 1_565 S
C446 C48 1.159 . S
C458 C74 1.235 . S
C473 C92 1.265 . S
C485 C114 1.199 1_565 S
C500 C118 1.213 . S
C512 C140 1.225 . S
C527 C136 1.214 . S
C539 C162 1.160 . S
C554 C96 1.243 1_655 S
C566 C158 1.266 . S
C581 C184 1.239 . S
C593 C246 1.254 . S
C608 C180 1.172 1_455 S
C620 C202 1.265 . S
C635 C206 1.242 1_545 S
C647 C228 1.210 . S
C662 C224 1.239 . S
C674 C250 1.208 . S
C689 C268 1.265 . S
C701 C294 1.222 1_545 S
C716 C316 1.199 . S
C728 C290 1.269 . S
C743 C338 1.227 . S
C755 C312 1.205 . S
C770 C334 1.208 . S
C782 C272 1.195 1_455 S
C797 C6 0.607 . S
C809 C95 0.696 . S
C824 C116 0.596 . S
C836 C28 0.514 . S
C851 C50 0.697 . S
C863 C139 0.594 . S
C878 C72 0.673 . S
C890 C161 0.669 . S
C905 C273 0.563 . S
C917 C181 0.512 . S
C932 C295 0.510 . S
C944 C207 0.564 . S
C959 C225 0.643 . S
C971 C317 0.694 . S
C986 C339 0.515 . S
C998 C247 0.587 . S
C1013 C5 2.008 . S
C1025 C49 2.013 . S
C1040 C27 1.996 . S
C1052 C71 1.992 . S
C1067 C141 2.017 . S
C1079 C97 1.989 . S
C1094 C163 1.998 . S
C1106 C115 2.019 . S
C1121 C226 2.018 . S
C1133 C182 1.997 . S
C1148 C248 2.019 . S
C1160 C205 2.004 . S
C1175 C271 2.019 . S
C1187 C315 2.005 . S
C1202 C293 2.019 . S
C1214 C337 2.003 . S
C1229 C185 1.452 . S
C1241 C7 1.549 . S
C1256 C203 1.452 . S
C1268 C29 1.550 . S
C1283 C229 1.499 . S
C1295 C51 1.520 . S
C1310 C73 1.451 . S
C1322 C251 1.548 . S
C1337 C269 1.492 . S
C1349 C94 1.497 . S
C1364 C291 1.459 . S
C1376 C117 1.549 . S
C1391 C313 1.463 . S
C1403 C138 1.527 . S
C1418 C335 1.540 . S
C1430 C160 1.475 . S
C1445 C159 1.194 . S
C1457 C9 1.277 1_655 S
C1472 C93 1.298 . S
C1484 C31 1.221 . S
C1499 C119 1.185 . S
C1511 C53 1.254 . S
C1526 C137 1.190 . S
C1538 C75 1.270 . S
C1553 C336 1.297 . S
C1565 C183 1.200 . S
C1580 C270 1.285 . S
C1592 C204 1.242 . S
C1607 C292 1.232 . S
C1619 C227 1.289 . S
C1634 C249 1.193 . S
C1646 C314 1.253 . S
