# Generated by pormake.
# Topology fnw, (5)-cn, num edge types: 1
# Building blocks:
#     Node 0, Type 0, BuildingBlock: XOMCOT_clean_sbu_0, # of connection points: 5
#     Node 1, Type 0, BuildingBlock: XOMCOT_clean_sbu_0, # of connection points: 5
#     Node 2, Type 0, BuildingBlock: XOMCOT_clean_sbu_0, # of connection points: 5
#     Node 3, Type 0, BuildingBlock: XOMCOT_clean_sbu_0, # of connection points: 5
#     Node 4, Type 0, BuildingBlock: XOMCOT_clean_sbu_0, # of connection points: 5
#     Node 5, Type 0, BuildingBlock: XOMCOT_clean_sbu_0, # of connection points: 5
#     Node 6, Type 0, BuildingBlock: XOMCOT_clean_sbu_0, # of connection points: 5
#     Node 7, Type 0, BuildingBlock: XOMCOT_clean_sbu_0, # of connection points: 5
#     Node 8, Type 0, BuildingBlock: XOMCOT_clean_sbu_0, # of connection points: 5
#     Node 9, Type 0, BuildingBlock: XOMCOT_clean_sbu_0, # of connection points: 5
#     Node 10, Type 0, BuildingBlock: XOMCOT_clean_sbu_0, # of connection points: 5
#     Node 11, Type 0, BuildingBlock: XOMCOT_clean_sbu_0, # of connection points: 5
#     Edge 12, Type (0, 0), BuildingBlock: ZUJKAS_clean_linker_0, # of connection points: 2
#     Edge 13, Type (0, 0), BuildingBlock: ZUJKAS_clean_linker_0, # of connection points: 2
#     Edge 14, Type (0, 0), BuildingBlock: ZUJKAS_clean_linker_0, # of connection points: 2
#     Edge 15, Type (0, 0), BuildingBlock: ZUJKAS_clean_linker_0, # of connection points: 2
#     Edge 16, Type (0, 0), BuildingBlock: ZUJKAS_clean_linker_0, # of connection points: 2
#     Edge 17, Type (0, 0), BuildingBlock: ZUJKAS_clean_linker_0, # of connection points: 2
#     Edge 18, Type (0, 0), BuildingBlock: ZUJKAS_clean_linker_0, # of connection points: 2
#     Edge 19, Type (0, 0), BuildingBlock: ZUJKAS_clean_linker_0, # of connection points: 2
#     Edge 20, Type (0, 0), BuildingBlock: ZUJKAS_clean_linker_0, # of connection points: 2
#     Edge 21, Type (0, 0), BuildingBlock: ZUJKAS_clean_linker_0, # of connection points: 2
#     Edge 22, Type (0, 0), BuildingBlock: ZUJKAS_clean_linker_0, # of connection points: 2
#     Edge 23, Type (0, 0), BuildingBlock: ZUJKAS_clean_linker_0, # of connection points: 2
#     Edge 24, Type (0, 0), BuildingBlock: ZUJKAS_clean_linker_0, # of connection points: 2
#     Edge 25, Type (0, 0), BuildingBlock: ZUJKAS_clean_linker_0, # of connection points: 2
#     Edge 26, Type (0, 0), BuildingBlock: ZUJKAS_clean_linker_0, # of connection points: 2
#     Edge 27, Type (0, 0), BuildingBlock: ZUJKAS_clean_linker_0, # of connection points: 2
#     Edge 28, Type (0, 0), BuildingBlock: ZUJKAS_clean_linker_0, # of connection points: 2
#     Edge 29, Type (0, 0), BuildingBlock: ZUJKAS_clean_linker_0, # of connection points: 2
#     Edge 30, Type (0, 0), BuildingBlock: ZUJKAS_clean_linker_0, # of connection points: 2
#     Edge 31, Type (0, 0), BuildingBlock: ZUJKAS_clean_linker_0, # of connection points: 2
#     Edge 32, Type (0, 0), BuildingBlock: ZUJKAS_clean_linker_0, # of connection points: 2
#     Edge 33, Type (0, 0), BuildingBlock: ZUJKAS_clean_linker_0, # of connection points: 2
#     Edge 34, Type (0, 0), BuildingBlock: ZUJKAS_clean_linker_0, # of connection points: 2
#     Edge 35, Type (0, 0), BuildingBlock: ZUJKAS_clean_linker_0, # of connection points: 2
#     Edge 36, Type (0, 0), BuildingBlock: ZUJKAS_clean_linker_0, # of connection points: 2
#     Edge 37, Type (0, 0), BuildingBlock: ZUJKAS_clean_linker_0, # of connection points: 2
#     Edge 38, Type (0, 0), BuildingBlock: ZUJKAS_clean_linker_0, # of connection points: 2
#     Edge 39, Type (0, 0), BuildingBlock: ZUJKAS_clean_linker_0, # of connection points: 2
#     Edge 40, Type (0, 0), BuildingBlock: ZUJKAS_clean_linker_0, # of connection points: 2
#     Edge 41, Type (0, 0), BuildingBlock: ZUJKAS_clean_linker_0, # of connection points: 2
# Relax obj value: 0.261
# Max RMSD: 0.155
# Mean RMSD: 0.155
data_MOF--net-fnw--node1-XOMCOT_clean_sbu_0--edge1-ZUJKAS_clean_linker_0
_symmetry_space_group_name_H-M    P1
_symmetry_Int_Tables_number       1
_symmetry_cell_setting            triclinic
loop_
_symmetry_equiv_pos_as_xyz
'x, y, z'
_cell_length_a     64.354211
_cell_length_b     64.351705
_cell_length_c     40.008164
_cell_angle_alpha  89.974467
_cell_angle_beta   90.011176
_cell_angle_gamma 119.97938
loop_
_atom_site_label
_atom_site_type_symbol
_atom_site_fract_x
_atom_site_fract_y
_atom_site_fract_z
_atom_type_partial_charge
Co0 Co 0.26169 0.45743 0.27657 0.0
C1 C 0.2815 0.42459 0.27602 0.0
C2 C 0.30415 0.4576 0.30192 0.0
C3 C 0.31473 0.44362 0.30314 0.0
N4 N 0.28343 0.44568 0.2849 0.0
N5 N 0.3005 0.4229 0.28682 0.0
H6 H 0.26659 0.41084 0.26198 0.0
H7 H 0.31116 0.47534 0.31247 0.0
C8 C 0.29243 0.50295 0.2374 0.0
O9 O 0.27477 0.49782 0.21644 0.0
N10 N 0.24009 0.46996 0.26934 0.0
C11 C 0.21653 0.4581 0.26151 0.0
C12 C 0.20855 0.47432 0.25931 0.0
C13 C 0.24564 0.49298 0.27355 0.0
N14 N 0.227 0.49628 0.2665 0.0
C15 C 0.2333 0.42444 0.22522 0.0
C16 C 0.26749 0.44299 0.17536 0.0
C17 C 0.24383 0.42586 0.16703 0.0
C18 C 0.22694 0.41571 0.19278 0.0
C19 C 0.27306 0.45112 0.2083 0.0
N20 N 0.25548 0.44339 0.23204 0.0
H21 H 0.22019 0.41609 0.24477 0.0
H22 H 0.29142 0.46398 0.21441 0.0
H23 H 0.2055 0.43902 0.25813 0.0
H24 H 0.26304 0.50714 0.28166 0.0
O25 O 0.23691 0.43057 0.3011 0.0
O26 O 0.26336 0.4657 0.32295 0.0
O27 O 0.2899 0.48858 0.26112 0.0
C28 C 0.24536 0.44414 0.32742 0.0
H29 H 0.33194 0.44866 0.31427 0.0
H30 H 0.19067 0.47029 0.25227 0.0
H31 H 0.28137 0.45079 0.15648 0.0
H32 H 0.2088 0.40146 0.18779 0.0
Co33 Co 0.80877 0.26567 0.77706 0.0
C34 C 0.86061 0.28227 0.77327 0.0
C35 C 0.85355 0.3091 0.79339 0.0
C36 C 0.87792 0.3181 0.79324 0.0
N37 N 0.84281 0.28674 0.78079 0.0
N38 N 0.88233 0.30122 0.78061 0.0
H39 H 0.85768 0.26545 0.76301 0.0
H40 H 0.84426 0.31816 0.80219 0.0
C41 C 0.79356 0.29538 0.73635 0.0
O42 O 0.78033 0.27692 0.71696 0.0
N43 N 0.77412 0.24461 0.77449 0.0
C44 C 0.7616 0.22048 0.7719 0.0
C45 C 0.7375 0.21295 0.77097 0.0
C46 C 0.75722 0.25112 0.77738 0.0
N47 N 0.73476 0.2323 0.77403 0.0
C48 C 0.80769 0.23381 0.72571 0.0
C49 C 0.82597 0.26756 0.67525 0.0
C50 C 0.81727 0.24337 0.66723 0.0
C51 C 0.80888 0.22653 0.69327 0.0
C52 C 0.82426 0.27397 0.70804 0.0
N53 N 0.81343 0.25687 0.73224 0.0
H54 H 0.80223 0.22085 0.74554 0.0
H55 H 0.8315 0.29272 0.71383 0.0
H56 H 0.76905 0.20877 0.7716 0.0
H57 H 0.76123 0.26927 0.78219 0.0
O58 O 0.81141 0.24159 0.80285 0.0
O59 O 0.8057 0.27042 0.82365 0.0
O60 O 0.80584 0.29361 0.76012 0.0
C61 C 0.80882 0.25224 0.82888 0.0
H62 H 0.89137 0.33589 0.80122 0.0
H63 H 0.72319 0.19463 0.76769 0.0
H64 H 0.83384 0.28142 0.65634 0.0
H65 H 0.80262 0.20774 0.68864 0.0
Co66 Co 0.54092 0.80567 0.27929 0.0
C67 C 0.5725 0.85846 0.27645 0.0
C68 C 0.53842 0.84779 0.29941 0.0
C69 C 0.55166 0.87239 0.29918 0.0
N70 N 0.55143 0.83914 0.28504 0.0
N71 N 0.57304 0.87911 0.28462 0.0
H72 H 0.58686 0.85739 0.26401 0.0
H73 H 0.52055 0.8369 0.30946 0.0
C74 C 0.49535 0.78875 0.23865 0.0
O75 O 0.50121 0.77658 0.21809 0.0
N76 N 0.52965 0.7716 0.2745 0.0
C77 C 0.54254 0.7605 0.26991 0.0
C78 C 0.52712 0.73611 0.26844 0.0
C79 C 0.50674 0.75363 0.27752 0.0
N80 N 0.5046 0.73189 0.27284 0.0
C81 C 0.57471 0.80961 0.22965 0.0
C82 C 0.55564 0.8224 0.17705 0.0
C83 C 0.5733 0.81622 0.17046 0.0
C84 C 0.58373 0.81104 0.19757 0.0
C85 C 0.54735 0.82098 0.20973 0.0
N86 N 0.55533 0.81243 0.23495 0.0
H87 H 0.5832 0.80591 0.25017 0.0
H88 H 0.53408 0.8262 0.21446 0.0
H89 H 0.5618 0.76915 0.26839 0.0
H90 H 0.49185 0.75631 0.28337 0.0
O91 O 0.56799 0.80958 0.30531 0.0
O92 O 0.53234 0.8004 0.32573 0.0
O93 O 0.50938 0.80101 0.26242 0.0
C94 C 0.5541 0.80485 0.33123 0.0
H95 H 0.54602 0.88437 0.30932 0.0
H96 H 0.53209 0.72258 0.26386 0.0
H97 H 0.54755 0.82731 0.1571 0.0
H98 H 0.59842 0.80758 0.19399 0.0
Co99 Co 0.73624 0.54153 0.78221 0.0
C100 C 0.71423 0.57247 0.78 0.0
C101 C 0.69167 0.53852 0.80388 0.0
C102 C 0.6798 0.55129 0.8035 0.0
N103 N 0.7131 0.55173 0.78898 0.0
N104 N 0.69394 0.57257 0.78837 0.0
H105 H 0.72926 0.58683 0.76688 0.0
H106 H 0.6851 0.52077 0.81414 0.0
C107 C 0.70747 0.49548 0.74307 0.0
O108 O 0.72545 0.50129 0.72242 0.0
N109 N 0.75927 0.53058 0.77653 0.0
C110 C 0.78311 0.54358 0.77079 0.0
C111 C 0.79228 0.52832 0.76895 0.0
C112 C 0.75469 0.5078 0.78006 0.0
N113 N 0.77426 0.50579 0.77437 0.0
C114 C 0.76421 0.57386 0.72947 0.0
C115 C 0.72954 0.55332 0.68045 0.0
C116 C 0.75297 0.57044 0.6713 0.0
C117 C 0.77014 0.58168 0.69648 0.0
C118 C 0.72438 0.5463 0.71382 0.0
N119 N 0.74221 0.55491 0.73724 0.0
H120 H 0.77746 0.58287 0.74867 0.0
H121 H 0.70612 0.53349 0.72056 0.0
H122 H 0.79352 0.56282 0.76873 0.0
H123 H 0.73736 0.49289 0.78683 0.0
O124 O 0.75988 0.56925 0.8068 0.0
O125 O 0.73433 0.53381 0.82877 0.0
O126 O 0.70923 0.50954 0.7668 0.0
C127 C 0.75156 0.55574 0.83327 0.0
H128 H 0.66214 0.54536 0.8137 0.0
H129 H 0.81067 0.53339 0.76335 0.0
H130 H 0.71547 0.54507 0.66188 0.0
H131 H 0.78825 0.59561 0.69059 0.0
Co132 Co 0.19534 0.73825 0.2753 0.0
C133 C 0.14218 0.71419 0.27632 0.0
C134 C 0.15579 0.69402 0.30166 0.0
C135 C 0.13119 0.68122 0.30287 0.0
N136 N 0.16262 0.71457 0.28493 0.0
N137 N 0.12262 0.69383 0.28678 0.0
H138 H 0.14162 0.72816 0.26197 0.0
H139 H 0.16793 0.68865 0.312 0.0
C140 C 0.21294 0.71005 0.23487 0.0
O141 O 0.22524 0.7281 0.21441 0.0
N142 N 0.2287 0.76181 0.26649 0.0
C143 C 0.23816 0.78442 0.25476 0.0
C144 C 0.26242 0.79387 0.25014 0.0
C145 C 0.24764 0.75845 0.27068 0.0
N146 N 0.26826 0.7774 0.25983 0.0
C147 C 0.18531 0.76496 0.22709 0.0
C148 C 0.17559 0.7341 0.17396 0.0
C149 C 0.17911 0.75711 0.16785 0.0
C150 C 0.18261 0.77206 0.19524 0.0
C151 C 0.17832 0.72772 0.20639 0.0
N152 N 0.18551 0.74406 0.23179 0.0
H153 H 0.18837 0.77691 0.24776 0.0
H154 H 0.17519 0.70984 0.21065 0.0
H155 H 0.2285 0.79374 0.24976 0.0
H156 H 0.24614 0.74192 0.27981 0.0
O157 O 0.19196 0.76157 0.30187 0.0
O158 O 0.20366 0.73669 0.32095 0.0
O159 O 0.20021 0.71157 0.25818 0.0
C160 C 0.19868 0.75355 0.3271 0.0
H161 H 0.12048 0.66394 0.31474 0.0
H162 H 0.27476 0.81142 0.24005 0.0
H163 H 0.17198 0.72155 0.15376 0.0
H164 H 0.18414 0.78948 0.19196 0.0
Co165 Co 0.45856 0.19349 0.77781 0.0
C166 C 0.42765 0.14077 0.77106 0.0
C167 C 0.46144 0.1511 0.79471 0.0
C168 C 0.44851 0.12653 0.79288 0.0
N169 N 0.44842 0.15995 0.78091 0.0
N170 N 0.42731 0.12002 0.77789 0.0
H171 H 0.41333 0.14203 0.75881 0.0
H172 H 0.47906 0.16183 0.80559 0.0
C173 C 0.50532 0.21311 0.73954 0.0
O174 O 0.49931 0.22561 0.71983 0.0
N175 N 0.46957 0.22765 0.77583 0.0
C176 C 0.45699 0.23899 0.77037 0.0
C177 C 0.47259 0.26339 0.77023 0.0
C178 C 0.49232 0.24543 0.78095 0.0
N179 N 0.49485 0.26732 0.77639 0.0
C180 C 0.42638 0.19146 0.72674 0.0
C181 C 0.4473 0.1808 0.67425 0.0
C182 C 0.42984 0.18719 0.66733 0.0
C183 C 0.4185 0.19136 0.69427 0.0
C184 C 0.45452 0.181 0.70728 0.0
N185 N 0.44562 0.18851 0.73262 0.0
H186 H 0.41712 0.19424 0.74714 0.0
H187 H 0.46771 0.17571 0.71223 0.0
H188 H 0.43788 0.2305 0.76693 0.0
H189 H 0.50691 0.24246 0.78761 0.0
O190 O 0.43051 0.18807 0.80273 0.0
O191 O 0.46558 0.19678 0.82479 0.0
O192 O 0.49088 0.19948 0.7621 0.0
C193 C 0.44357 0.19185 0.82934 0.0
H194 H 0.4542 0.11442 0.80239 0.0
H195 H 0.468 0.27711 0.76489 0.0
H196 H 0.45604 0.17663 0.65437 0.0
H197 H 0.40393 0.19493 0.69027 0.0
Co198 Co 0.54127 0.73724 0.71762 0.0
C199 C 0.5749 0.71843 0.72012 0.0
C200 C 0.54092 0.69348 0.69823 0.0
C201 C 0.55522 0.68325 0.69828 0.0
N202 N 0.55323 0.71541 0.71202 0.0
N203 N 0.57658 0.69892 0.71202 0.0
H204 H 0.58906 0.73452 0.73162 0.0
H205 H 0.52272 0.68544 0.689 0.0
C206 C 0.49655 0.70735 0.75889 0.0
O207 O 0.5021 0.72542 0.77924 0.0
N208 N 0.5286 0.75901 0.72212 0.0
C209 C 0.54084 0.78319 0.72437 0.0
C210 C 0.52479 0.79138 0.72621 0.0
C211 C 0.50531 0.75312 0.72057 0.0
N212 N 0.50244 0.77238 0.7242 0.0
C213 C 0.57308 0.768 0.76862 0.0
C214 C 0.55687 0.73423 0.81912 0.0
C215 C 0.57282 0.75833 0.82701 0.0
C216 C 0.58175 0.77511 0.80097 0.0
C217 C 0.54872 0.72794 0.7863 0.0
N218 N 0.55529 0.74513 0.76217 0.0
H219 H 0.5807 0.78097 0.74881 0.0
H220 H 0.5367 0.70928 0.78053 0.0
H221 H 0.56006 0.79445 0.72375 0.0
H222 H 0.49064 0.73515 0.71625 0.0
O223 O 0.56806 0.76118 0.69203 0.0
O224 O 0.53299 0.73375 0.67109 0.0
O225 O 0.51026 0.70951 0.73445 0.0
C226 C 0.55448 0.75168 0.66592 0.0
H227 H 0.54999 0.66536 0.68966 0.0
H228 H 0.52926 0.80987 0.72927 0.0
H229 H 0.54999 0.72049 0.83826 0.0
H230 H 0.59512 0.79366 0.8056 0.0
Co231 Co 0.80344 0.54289 0.22038 0.0
C232 C 0.85645 0.57159 0.22248 0.0
C233 C 0.84366 0.53752 0.1983 0.0
C234 C 0.8683 0.54914 0.19927 0.0
N235 N 0.83632 0.55152 0.21306 0.0
N236 N 0.87628 0.57049 0.21458 0.0
H237 H 0.85657 0.58626 0.23585 0.0
H238 H 0.83187 0.5199 0.18804 0.0
C239 C 0.7831 0.4958 0.25838 0.0
O240 O 0.77032 0.50148 0.27799 0.0
N241 N 0.77001 0.53367 0.22694 0.0
C242 C 0.76069 0.54687 0.23891 0.0
C243 C 0.73619 0.53254 0.24128 0.0
C244 C 0.75088 0.51189 0.22049 0.0
N245 N 0.73009 0.51048 0.23004 0.0
C246 C 0.81323 0.57876 0.27007 0.0
C247 C 0.82005 0.55532 0.32299 0.0
C248 C 0.81811 0.57574 0.32955 0.0
C249 C 0.8161 0.58825 0.30217 0.0
C250 C 0.81769 0.54683 0.2903 0.0
N251 N 0.81195 0.5572 0.26485 0.0
H252 H 0.81124 0.58848 0.24951 0.0
H253 H 0.8201 0.53166 0.28587 0.0
H254 H 0.77064 0.56556 0.24562 0.0
H255 H 0.75228 0.49697 0.21068 0.0
O256 O 0.80842 0.57057 0.19473 0.0
O257 O 0.79676 0.53442 0.17406 0.0
O258 O 0.7971 0.51053 0.23637 0.0
C259 C 0.80234 0.55654 0.16877 0.0
H260 H 0.87945 0.54232 0.18968 0.0
H261 H 0.72384 0.53789 0.2509 0.0
H262 H 0.82236 0.54526 0.34288 0.0
H263 H 0.81606 0.60493 0.30547 0.0
Co264 Co 0.26063 0.80376 0.71838 0.0
C265 C 0.28014 0.85611 0.71682 0.0
C266 C 0.30483 0.8461 0.6966 0.0
C267 C 0.31521 0.87065 0.69494 0.0
N268 N 0.28296 0.83711 0.71042 0.0
N269 N 0.29968 0.87691 0.70768 0.0
H270 H 0.26412 0.85467 0.7278 0.0
H271 H 0.31271 0.83553 0.6885 0.0
C272 C 0.28969 0.78778 0.75954 0.0
O273 O 0.2715 0.77546 0.7798 0.0
N274 N 0.23821 0.76981 0.72554 0.0
C275 C 0.21484 0.75906 0.73424 0.0
C276 C 0.20617 0.73487 0.738 0.0
C277 C 0.24291 0.75167 0.72212 0.0
N278 N 0.22393 0.73032 0.7307 0.0
C279 C 0.23175 0.80989 0.76763 0.0
C280 C 0.26428 0.8236 0.81949 0.0
C281 C 0.24064 0.81787 0.82641 0.0
C282 C 0.22464 0.81214 0.79969 0.0
C283 C 0.27056 0.82105 0.78695 0.0
N284 N 0.25366 0.81201 0.76223 0.0
H285 H 0.21937 0.80592 0.74727 0.0
H286 H 0.28891 0.82589 0.78197 0.0
H287 H 0.20437 0.76774 0.73731 0.0
H288 H 0.26017 0.75415 0.7147 0.0
O289 O 0.2368 0.80632 0.6919 0.0
O290 O 0.26338 0.79697 0.67243 0.0
O291 O 0.28804 0.80006 0.73566 0.0
C292 C 0.24581 0.80094 0.66642 0.0
H293 H 0.33309 0.88294 0.68586 0.0
H294 H 0.18817 0.72164 0.7455 0.0
H295 H 0.27752 0.82895 0.83919 0.0
H296 H 0.2066 0.8089 0.80364 0.0
Co297 Co 0.45675 0.2616 0.21182 0.0
C298 C 0.42442 0.28199 0.2127 0.0
C299 C 0.45736 0.30428 0.18638 0.0
C300 C 0.44343 0.31489 0.18481 0.0
N301 N 0.44544 0.28374 0.20385 0.0
N302 N 0.42277 0.30089 0.20137 0.0
H303 H 0.41061 0.26718 0.22685 0.0
H304 H 0.47496 0.31102 0.17551 0.0
C305 C 0.50271 0.2932 0.25036 0.0
O306 O 0.49735 0.27659 0.2732 0.0
N307 N 0.46868 0.23945 0.21872 0.0
C308 C 0.4559 0.21538 0.22255 0.0
C309 C 0.47144 0.20663 0.22538 0.0
C310 C 0.49176 0.24467 0.21741 0.0
N311 N 0.494 0.22516 0.22248 0.0
C312 C 0.42554 0.23352 0.26505 0.0
C313 C 0.44411 0.26891 0.3133 0.0
C314 C 0.42817 0.24516 0.32297 0.0
C315 C 0.41791 0.22762 0.29803 0.0
C316 C 0.45114 0.27399 0.27984 0.0
N317 N 0.44351 0.25594 0.25685 0.0
H318 H 0.41713 0.21991 0.24619 0.0
H319 H 0.46331 0.29235 0.2727 0.0
H320 H 0.43662 0.20454 0.22225 0.0
H321 H 0.50671 0.26227 0.21192 0.0
O322 O 0.42925 0.23696 0.18795 0.0
O323 O 0.46427 0.26284 0.16523 0.0
O324 O 0.4884 0.28964 0.2261 0.0
C325 C 0.44252 0.24512 0.16125 0.0
H326 H 0.44835 0.33189 0.17304 0.0
H327 H 0.4665 0.1881 0.22951 0.0
H328 H 0.45194 0.28324 0.33152 0.0
H329 H 0.40445 0.20934 0.30404 0.0
Co330 Co 0.19616 0.45698 0.71405 0.0
C331 C 0.14341 0.42528 0.71673 0.0
C332 C 0.15399 0.45945 0.69413 0.0
C333 C 0.1294 0.44608 0.69408 0.0
N334 N 0.16269 0.44645 0.70844 0.0
N335 N 0.12273 0.42464 0.70841 0.0
H336 H 0.14453 0.41088 0.72897 0.0
H337 H 0.16485 0.47737 0.6842 0.0
C338 C 0.21281 0.50287 0.7541 0.0
O339 O 0.2245 0.49709 0.77568 0.0
N340 N 0.23027 0.46829 0.71872 0.0
C341 C 0.24145 0.45543 0.72288 0.0
C342 C 0.26579 0.47094 0.72527 0.0
C343 C 0.24818 0.4913 0.71672 0.0
N344 N 0.2699 0.49351 0.72182 0.0
C345 C 0.19282 0.42386 0.76428 0.0
C346 C 0.17961 0.44291 0.81639 0.0
C347 C 0.18628 0.42565 0.82335 0.0
C348 C 0.19165 0.41519 0.7965 0.0
C349 C 0.18082 0.45089 0.78355 0.0
N350 N 0.18958 0.44294 0.75859 0.0
H351 H 0.19669 0.41536 0.74396 0.0
H352 H 0.17535 0.46393 0.77849 0.0
H353 H 0.23287 0.43615 0.72367 0.0
H354 H 0.24551 0.50626 0.71134 0.0
O355 O 0.19205 0.42965 0.68855 0.0
O356 O 0.20124 0.46517 0.66753 0.0
O357 O 0.20092 0.48869 0.73026 0.0
C358 C 0.19664 0.44332 0.6624 0.0
H359 H 0.11741 0.45168 0.68384 0.0
H360 H 0.27933 0.46601 0.73 0.0
H361 H 0.17454 0.45097 0.83618 0.0
H362 H 0.19549 0.40078 0.80042 0.0
Co363 Co 0.73578 0.19401 0.21958 0.0
C364 C 0.7189 0.142 0.21933 0.0
C365 C 0.69319 0.15018 0.19793 0.0
C366 C 0.68389 0.12578 0.1968 0.0
N367 N 0.71502 0.16024 0.21215 0.0
N368 N 0.70005 0.12064 0.21028 0.0
H369 H 0.73512 0.14435 0.23095 0.0
H370 H 0.68457 0.15994 0.18926 0.0
C371 C 0.70476 0.20672 0.26164 0.0
O372 O 0.72268 0.21913 0.28225 0.0
N373 N 0.75651 0.22844 0.22584 0.0
C374 C 0.78066 0.24104 0.22859 0.0
C375 C 0.78808 0.26511 0.23031 0.0
C376 C 0.74988 0.24529 0.22395 0.0
N377 N 0.76863 0.2677 0.2277 0.0
C378 C 0.76641 0.1929 0.27112 0.0
C379 C 0.73132 0.17177 0.31947 0.0
C380 C 0.75534 0.18059 0.32857 0.0
C381 C 0.77289 0.19039 0.30351 0.0
C382 C 0.72571 0.17483 0.28679 0.0
N383 N 0.74342 0.18702 0.2638 0.0
H384 H 0.77996 0.19963 0.252 0.0
H385 H 0.7071 0.16764 0.28016 0.0
H386 H 0.79246 0.2337 0.22791 0.0
H387 H 0.73177 0.24138 0.21893 0.0
O388 O 0.76064 0.19301 0.1935 0.0
O389 O 0.73237 0.19982 0.17353 0.0
O390 O 0.70728 0.19574 0.23677 0.0
C391 C 0.75089 0.19732 0.16784 0.0
H392 H 0.66627 0.11278 0.18766 0.0
H393 H 0.80638 0.27955 0.23326 0.0
H394 H 0.71698 0.16291 0.33752 0.0
H395 H 0.79162 0.19685 0.30896 0.0
H396 H 0.39452 0.28974 0.25626 0.0
H397 H 0.36655 0.30403 0.26923 0.0
H398 H 0.38054 0.33853 0.17285 0.0
H399 H 0.40852 0.32442 0.15991 0.0
H400 H 0.38913 0.36916 0.2254 0.0
H401 H 0.29925 0.28787 0.238 0.0
H402 H 0.32258 0.28705 0.26163 0.0
H403 H 0.3239 0.2876 0.21676 0.0
C404 C 0.39111 0.29982 0.23754 0.0
C405 C 0.40386 0.3062 0.20722 0.0
C406 C 0.37508 0.30791 0.24492 0.0
C407 C 0.37137 0.32221 0.22189 0.0
C408 C 0.38315 0.32751 0.19093 0.0
H409 H 0.28718 0.39371 0.2326 0.0
H410 H 0.30162 0.36615 0.21763 0.0
C411 C 0.39922 0.31957 0.18366 0.0
C412 C 0.35781 0.33427 0.23153 0.0
H413 H 0.30312 0.32479 0.25735 0.0
C414 C 0.37028 0.35943 0.23214 0.0
C415 C 0.33323 0.32152 0.24026 0.0
C416 C 0.31884 0.29452 0.23889 0.0
C417 C 0.35895 0.37223 0.2417 0.0
C418 C 0.33458 0.35953 0.2513 0.0
C419 C 0.32188 0.33438 0.25019 0.0
C420 C 0.32242 0.37252 0.26278 0.0
C421 C 0.37314 0.39931 0.24152 0.0
C422 C 0.32878 0.3845 0.29354 0.0
C423 C 0.32062 0.4002 0.30211 0.0
C424 C 0.30595 0.40417 0.28006 0.0
C425 C 0.29837 0.39095 0.25015 0.0
C426 C 0.3066 0.37523 0.24155 0.0
H427 H 0.39034 0.40632 0.22772 0.0
H428 H 0.36253 0.40675 0.23001 0.0
H429 H 0.37728 0.40593 0.26765 0.0
H430 H 0.3409 0.38247 0.31027 0.0
H431 H 0.32635 0.40976 0.3256 0.0
H432 H 0.8945 0.27962 0.73234 0.0
H433 H 0.93508 0.28801 0.71858 0.0
H434 H 0.96328 0.33776 0.80099 0.0
H435 H 0.92293 0.32883 0.81548 0.0
H436 H 0.96956 0.33079 0.69862 0.0
H437 H 0.00272 0.3056 0.80946 0.0
H438 H 0.97116 0.29474 0.80275 0.0
H439 H 0.98996 0.32355 0.82201 0.0
C440 C 0.90929 0.29178 0.7481 0.0
C441 C 0.90556 0.30375 0.77481 0.0
C442 C 0.93246 0.29659 0.74017 0.0
C443 C 0.9522 0.31325 0.75903 0.0
C444 C 0.94832 0.32439 0.78656 0.0
H445 H 0.08321 0.4289 0.71494 0.0
H446 H 0.04212 0.39685 0.72308 0.0
C447 C 0.92525 0.31959 0.79447 0.0
C448 C 0.97707 0.32189 0.74744 0.0
H449 H 0.03327 0.33982 0.77707 0.0
C450 C 0.9834 0.33212 0.71544 0.0
C451 C 0.99515 0.3233 0.76905 0.0
C452 C 0.98931 0.31094 0.80257 0.0
C453 C 0.00748 0.34571 0.70578 0.0
C454 C 0.02563 0.34946 0.72892 0.0
C455 C 0.0193 0.3373 0.75961 0.0
C456 C 0.05079 0.36842 0.72351 0.0
C457 C 0.01333 0.35696 0.67148 0.0
C458 C 0.06943 0.36311 0.72204 0.0
C459 C 0.09313 0.38153 0.7172 0.0
C460 C 0.0985 0.40552 0.71405 0.0
C461 C 0.07973 0.41065 0.71634 0.0
C462 C 0.05618 0.39232 0.72105 0.0
H463 H 0.99859 0.34637 0.65353 0.0
H464 H 0.01564 0.37522 0.67296 0.0
H465 H 0.0302 0.35852 0.66168 0.0
H466 H 0.06559 0.34475 0.72426 0.0
H467 H 0.10714 0.37695 0.71542 0.0
H468 H 0.71989 0.10713 0.25955 0.0
H469 H 0.70993 0.0661 0.27329 0.0
H470 H 0.66162 0.03967 0.18912 0.0
H471 H 0.67222 0.0805 0.17454 0.0
H472 H 0.66659 0.03256 0.29198 0.0
H473 H 0.69178 0.99841 0.18219 0.0
H474 H 0.70325 0.03008 0.18883 0.0
H475 H 0.6745 0.0118 0.16913 0.0
C476 C 0.70774 0.09265 0.24337 0.0
C477 C 0.69667 0.09706 0.2161 0.0
C478 C 0.702 0.0692 0.25133 0.0
C479 C 0.68527 0.04981 0.232 0.0
C480 C 0.67503 0.05433 0.20395 0.0
H481 H 0.56832 0.91833 0.27733 0.0
H482 H 0.60008 0.95946 0.2683 0.0
C483 C 0.68078 0.07769 0.19597 0.0
C484 C 0.67573 0.02477 0.24352 0.0
H485 H 0.65734 0.96833 0.21443 0.0
C486 C 0.66516 0.0186 0.27533 0.0
C487 C 0.67417 0.00652 0.22214 0.0
C488 C 0.6868 0.01212 0.18883 0.0
C489 C 0.65129 0.99456 0.28511 0.0
C490 C 0.64756 0.97628 0.26225 0.0
C491 C 0.65987 0.98241 0.23167 0.0
C492 C 0.62873 0.95109 0.26801 0.0
C493 C 0.63989 0.98894 0.31931 0.0
C494 C 0.63425 0.93261 0.26985 0.0
C495 C 0.61599 0.90889 0.27517 0.0
C496 C 0.59197 0.90335 0.27848 0.0
C497 C 0.58662 0.92196 0.27582 0.0
C498 C 0.60478 0.94552 0.27059 0.0
H499 H 0.65041 0.00378 0.33716 0.0
H500 H 0.62165 0.98665 0.31751 0.0
H501 H 0.63824 0.97211 0.32946 0.0
H502 H 0.65264 0.93658 0.26756 0.0
H503 H 0.62074 0.89501 0.27722 0.0
H504 H 0.64957 0.5659 0.77807 0.0
H505 H 0.63872 0.59652 0.76759 0.0
H506 H 0.71329 0.65143 0.77194 0.0
H507 H 0.72438 0.6206 0.78259 0.0
H508 H 0.64804 0.63559 0.80891 0.0
H509 H 0.68936 0.6647 0.68281 0.0
H510 H 0.6843 0.63707 0.7017 0.0
H511 H 0.70825 0.66526 0.71637 0.0
C512 C 0.6637 0.58447 0.77707 0.0
C513 C 0.68783 0.59082 0.78138 0.0
C514 C 0.65747 0.60196 0.77092 0.0
C515 C 0.6752 0.62621 0.76888 0.0
C516 C 0.69937 0.63276 0.773 0.0
H517 H 0.61051 0.71902 0.76069 0.0
H518 H 0.64052 0.70776 0.77547 0.0
C519 C 0.70566 0.61515 0.77906 0.0
C520 C 0.66777 0.64425 0.76276 0.0
H521 H 0.66544 0.68028 0.70201 0.0
C522 C 0.65217 0.64576 0.78584 0.0
C523 C 0.67324 0.6574 0.7326 0.0
C524 C 0.68959 0.65606 0.70674 0.0
C525 C 0.64062 0.65882 0.77868 0.0
C526 C 0.64528 0.67119 0.74787 0.0
C527 C 0.66203 0.67087 0.72566 0.0
C528 C 0.6303 0.68129 0.73621 0.0
C529 C 0.62225 0.65781 0.80312 0.0
C530 C 0.61555 0.6711 0.70819 0.0
C531 C 0.5987 0.67772 0.69942 0.0
C532 C 0.59613 0.69461 0.71858 0.0
C533 C 0.61196 0.70591 0.74545 0.0
C534 C 0.62898 0.69935 0.75411 0.0
H535 H 0.61786 0.6441 0.8229 0.0
H536 H 0.62938 0.67551 0.81548 0.0
H537 H 0.60541 0.65368 0.78999 0.0
H538 H 0.61637 0.65724 0.69387 0.0
H539 H 0.58725 0.66912 0.67808 0.0
H540 H 0.08571 0.64819 0.28343 0.0
H541 H 0.04362 0.63507 0.2737 0.0
H542 H 0.0605 0.70869 0.26552 0.0
H543 H 0.10299 0.72215 0.27576 0.0
H544 H 0.01379 0.64773 0.31267 0.0
H545 H 0.0218 0.67514 0.17885 0.0
H546 H 0.04494 0.67195 0.19969 0.0
H547 H 0.04116 0.69712 0.20895 0.0
C548 C 0.08057 0.66168 0.27995 0.0
C549 C 0.09777 0.68625 0.28059 0.0
C550 C 0.05648 0.65412 0.2742 0.0
C551 C 0.04902 0.6709 0.26877 0.0
C552 C 0.066 0.69547 0.26929 0.0
H553 H 0.89648 0.61881 0.22015 0.0
H554 H 0.93827 0.64747 0.2355 0.0
C555 C 0.09025 0.70311 0.27508 0.0
C556 C 0.02328 0.66214 0.26285 0.0
H557 H 0.98291 0.65179 0.20063 0.0
C558 C 0.00701 0.64902 0.28837 0.0
C559 C 0.01457 0.66398 0.23117 0.0
C560 C 0.03141 0.67769 0.20291 0.0
C561 C 0.98224 0.63655 0.28251 0.0
C562 C 0.97362 0.63709 0.25025 0.0
C563 C 0.98972 0.65147 0.22531 0.0
C564 C 0.94847 0.62032 0.24094 0.0
C565 C 0.96548 0.62203 0.31041 0.0
C566 C 0.94067 0.59578 0.23862 0.0
C567 C 0.91705 0.57953 0.22979 0.0
C568 C 0.90074 0.5875 0.22316 0.0
C569 C 0.90862 0.61217 0.22541 0.0
C570 C 0.93243 0.62852 0.23401 0.0
H571 H 0.97404 0.62818 0.33531 0.0
H572 H 0.9488 0.62313 0.30965 0.0
H573 H 0.96042 0.60293 0.30738 0.0
H574 H 0.9529 0.58919 0.24368 0.0
H575 H 0.91147 0.56065 0.22871 0.0
H576 H 0.27993 0.89214 0.75482 0.0
H577 H 0.29068 0.93364 0.76646 0.0
H578 H 0.34077 0.95771 0.68429 0.0
H579 H 0.32946 0.91637 0.67174 0.0
H580 H 0.33422 0.96708 0.7858 0.0
H581 H 0.31137 0.99952 0.67179 0.0
H582 H 0.29932 0.96795 0.68019 0.0
H583 H 0.32849 0.98543 0.66128 0.0
C584 C 0.2927 0.90619 0.73862 0.0
C585 C 0.30397 0.90094 0.71248 0.0
C586 C 0.29888 0.92992 0.74538 0.0
C587 C 0.31628 0.94877 0.72597 0.0
C588 C 0.32687 0.94346 0.69912 0.0
H589 H 0.43263 0.08129 0.76889 0.0
H590 H 0.40119 0.04011 0.75921 0.0
C591 C 0.32069 0.9198 0.69232 0.0
C592 C 0.32592 0.97407 0.73628 0.0
H593 H 0.34481 0.03003 0.70474 0.0
C594 C 0.33595 0.98076 0.76834 0.0
C595 C 0.32791 0.99195 0.71378 0.0
C596 C 0.31593 0.98577 0.67999 0.0
C597 C 0.34964 0.00495 0.77744 0.0
C598 C 0.35368 0.02284 0.7537 0.0
C599 C 0.34198 0.01621 0.7227 0.0
C600 C 0.37231 0.04811 0.75918 0.0
C601 C 0.36061 0.01119 0.81189 0.0
C602 C 0.3665 0.06637 0.76144 0.0
C603 C 0.38455 0.09011 0.76726 0.0
C604 C 0.40864 0.09586 0.77065 0.0
C605 C 0.41428 0.07749 0.76734 0.0
C606 C 0.39632 0.05391 0.76168 0.0
H607 H 0.35027 0.99642 0.82993 0.0
H608 H 0.37915 0.0142 0.81077 0.0
H609 H 0.36149 0.02784 0.82136 0.0
H610 H 0.34803 0.06219 0.75928 0.0
H611 H 0.37958 0.1038 0.76979 0.0
H612 H 0.22204 0.41893 0.84746 0.0
H613 H 0.22959 0.41272 0.90524 0.0
H614 H 0.16641 0.41457 0.93652 0.0
H615 H 0.1582 0.42003 0.87833 0.0
H616 H 0.23774 0.44577 0.9557 0.0
H617 H 0.16084 0.35596 0.98672 0.0
H618 H 0.16936 0.36618 0.94421 0.0
H619 H 0.15277 0.37648 0.96845 0.0
C620 C 0.20933 0.41735 0.86643 0.0
C621 C 0.18942 0.41985 0.85823 0.0
C622 C 0.21379 0.41396 0.89948 0.0
C623 C 0.19843 0.41293 0.92504 0.0
C624 C 0.17825 0.4149 0.91702 0.0
H625 H 0.203 0.42023 0.13832 0.0
H626 H 0.19218 0.41461 0.07928 0.0
C627 C 0.17374 0.41829 0.88385 0.0
C628 C 0.20486 0.41202 0.96025 0.0
H629 H 0.18533 0.37926 0.03213 0.0
C630 C 0.22643 0.43112 0.97237 0.0
C631 C 0.18997 0.39291 0.98181 0.0
C632 C 0.16703 0.37159 0.96966 0.0
C633 C 0.23323 0.432 0.00583 0.0
C634 C 0.21826 0.41299 0.02752 0.0
C635 C 0.19681 0.39372 0.01532 0.0
C636 C 0.22385 0.41371 0.06347 0.0
C637 C 0.25592 0.45371 0.01795 0.0
C638 C 0.24495 0.41437 0.0742 0.0
C639 C 0.25122 0.41758 0.10804 0.0
C640 C 0.23634 0.41993 0.13165 0.0
C641 C 0.21471 0.41818 0.12086 0.0
C642 C 0.20852 0.41506 0.08711 0.0
H643 H 0.26247 0.46893 7e-05 0.0
H644 H 0.25302 0.45977 0.0426 0.0
H645 H 0.27019 0.44896 0.02089 0.0
H646 H 0.25679 0.41291 0.05632 0.0
H647 H 0.26781 0.41851 0.11566 0.0
H648 H 0.73596 0.18986 0.38326 0.0
H649 H 0.74991 0.19522 0.44091 0.0
H650 H 0.80486 0.17899 0.41253 0.0
H651 H 0.79062 0.17291 0.35459 0.0
H652 H 0.75764 0.16314 0.48624 0.0
H653 H 0.84016 0.24895 0.45349 0.0
H654 H 0.81424 0.23544 0.42644 0.0
H655 H 0.83329 0.22259 0.42954 0.0
C656 C 0.75061 0.18679 0.38927 0.0
C657 C 0.76223 0.18106 0.36416 0.0
C658 C 0.75865 0.19 0.42225 0.0
C659 C 0.77853 0.18773 0.43079 0.0
C660 C 0.78964 0.18108 0.40624 0.0
H661 H 0.82512 0.20809 0.6417 0.0
H662 H 0.81828 0.19293 0.5842 0.0
C663 C 0.78153 0.17772 0.37316 0.0
C664 C 0.78831 0.19389 0.46504 0.0
H665 H 0.83289 0.23912 0.5104 0.0
C666 C 0.77432 0.17949 0.49162 0.0
C667 C 0.80997 0.21536 0.47174 0.0
C668 C 0.82534 0.23165 0.44393 0.0
C669 C 0.78105 0.18644 0.52492 0.0
C670 C 0.80228 0.20831 0.53159 0.0
C671 C 0.81671 0.22229 0.50503 0.0
C672 C 0.80824 0.21827 0.56575 0.0
C673 C 0.76481 0.17107 0.55275 0.0
C674 C 0.80533 0.23782 0.57403 0.0
C675 C 0.80896 0.24636 0.60677 0.0
C676 C 0.81576 0.23562 0.63187 0.0
C677 C 0.8195 0.21653 0.62314 0.0
C678 C 0.81572 0.2079 0.59032 0.0
H679 H 0.7478 0.15581 0.54319 0.0
H680 H 0.77419 0.16377 0.5678 0.0
H681 H 0.76044 0.18205 0.56964 0.0
H682 H 0.79948 0.24598 0.55534 0.0
H683 H 0.80553 0.2608 0.6126 0.0
H684 H 0.5819 0.78157 0.14653 0.0
H685 H 0.58855 0.77438 0.08881 0.0
H686 H 0.58395 0.83604 0.05725 0.0
H687 H 0.5782 0.84401 0.11535 0.0
H688 H 0.55535 0.76439 0.03908 0.0
H689 H 0.64254 0.84404 0.00568 0.0
H690 H 0.63286 0.83589 0.04845 0.0
H691 H 0.62122 0.85108 0.02365 0.0
C692 C 0.58301 0.79408 0.12753 0.0
C693 C 0.57959 0.81345 0.13565 0.0
C694 C 0.58664 0.78981 0.09449 0.0
C695 C 0.58699 0.8048 0.06883 0.0
C696 C 0.58419 0.8245 0.07679 0.0
H697 H 0.57601 0.79819 0.85573 0.0
H698 H 0.58207 0.80946 0.91463 0.0
C699 C 0.58059 0.82885 0.10995 0.0
C700 C 0.5879 0.79835 0.03359 0.0
H701 H 0.61913 0.81892 0.96064 0.0
C702 C 0.56944 0.77618 0.02199 0.0
C703 C 0.60626 0.81384 0.01144 0.0
C704 C 0.62698 0.83746 0.02293 0.0
C705 C 0.56842 0.76934 0.98853 0.0
C706 C 0.58662 0.78492 0.96623 0.0
C707 C 0.60528 0.80698 0.9779 0.0
C708 C 0.58564 0.77922 0.93027 0.0
C709 C 0.54736 0.74589 0.97705 0.0
C710 C 0.58631 0.75881 0.91947 0.0
C711 C 0.58285 0.75229 0.88573 0.0
C712 C 0.5789 0.76622 0.86226 0.0
C713 C 0.57929 0.78722 0.87307 0.0
C714 C 0.58267 0.79366 0.90674 0.0
H715 H 0.53244 0.73861 0.99546 0.0
H716 H 0.54045 0.74811 0.95267 0.0
H717 H 0.55322 0.73247 0.97378 0.0
H718 H 0.58902 0.74768 0.93724 0.0
H719 H 0.58302 0.73623 0.87808 0.0
H720 H 0.83925 0.57081 0.38692 0.0
H721 H 0.8297 0.57532 0.44448 0.0
H722 H 0.78485 0.60297 0.40947 0.0
H723 H 0.79238 0.5965 0.35205 0.0
H724 H 0.83397 0.61044 0.48417 0.0
H725 H 0.73738 0.54644 0.46233 0.0
H726 H 0.76005 0.5517 0.43179 0.0
H727 H 0.74903 0.57238 0.43593 0.0
C728 C 0.82716 0.57764 0.39131 0.0
C729 C 0.81617 0.58268 0.36451 0.0
C730 C 0.82196 0.58051 0.42434 0.0
C731 C 0.80597 0.5888 0.43126 0.0
C732 C 0.79664 0.59582 0.40471 0.0
H733 H 0.77893 0.61384 0.63958 0.0
H734 H 0.79193 0.6207 0.58093 0.0
C735 C 0.80137 0.59248 0.37172 0.0
C736 C 0.79788 0.58856 0.46605 0.0
H737 H 0.74788 0.56493 0.51522 0.0
C738 C 0.81515 0.60054 0.49102 0.0
C739 C 0.77331 0.57533 0.47498 0.0
C740 C 0.7539 0.56053 0.44993 0.0
C741 C 0.80857 0.59938 0.52474 0.0
C742 C 0.78396 0.58651 0.53352 0.0
C743 C 0.76671 0.57496 0.50843 0.0
C744 C 0.77566 0.58295 0.56874 0.0
C745 C 0.8281 0.61105 0.55069 0.0
C746 C 0.76139 0.55953 0.58099 0.0
C747 C 0.75351 0.55564 0.61403 0.0
C748 C 0.75989 0.57508 0.63566 0.0
C749 C 0.77392 0.59856 0.62341 0.0
C750 C 0.78151 0.60247 0.59005 0.0
H751 H 0.84575 0.61467 0.54089 0.0
H752 H 0.82987 0.62846 0.5582 0.0
H753 H 0.82377 0.59961 0.57331 0.0
H754 H 0.75664 0.54418 0.56506 0.0
H755 H 0.74299 0.53735 0.62296 0.0
H756 H 0.26336 0.84855 0.87882 0.0
H757 H 0.25089 0.84246 0.9376 0.0
H758 H 0.18681 0.77654 0.91159 0.0
H759 H 0.19895 0.78261 0.85301 0.0
H760 H 0.17818 0.80264 0.95858 0.0
H761 H 0.25642 0.79298 0.99423 0.0
H762 H 0.26416 0.82101 0.97455 0.0
H763 H 0.24824 0.79353 0.95127 0.0
C764 C 0.24654 0.83287 0.88566 0.0
C765 C 0.2322 0.81599 0.86135 0.0
C766 C 0.23947 0.82939 0.9192 0.0
C767 C 0.21815 0.80881 0.92898 0.0
C768 C 0.20333 0.79252 0.90456 0.0
H769 H 0.15257 0.73351 0.11224 0.0
H770 H 0.16063 0.74771 0.05423 0.0
C771 C 0.21027 0.79607 0.87107 0.0
C772 C 0.21181 0.8034 0.96473 0.0
H773 H 0.23085 0.79103 0.03777 0.0
C774 C 0.1897 0.80017 0.97597 0.0
C775 C 0.22681 0.79997 0.98723 0.0
C776 C 0.25013 0.80181 0.97624 0.0
C777 C 0.18227 0.79375 0.00923 0.0
C778 C 0.19729 0.79034 0.03159 0.0
C779 C 0.21946 0.7938 0.02048 0.0
C780 C 0.19037 0.78277 0.06663 0.0
C781 C 0.15855 0.79079 0.02032 0.0
C782 C 0.20437 0.79781 0.09264 0.0
C783 C 0.19994 0.78974 0.12562 0.0
C784 C 0.18148 0.76636 0.13323 0.0
C785 C 0.16698 0.75155 0.10716 0.0
C786 C 0.17141 0.75971 0.07409 0.0
H787 H 0.15158 0.79898 0.0023 0.0
H788 H 0.14521 0.77139 0.02236 0.0
H789 H 0.16024 0.79902 0.04529 0.0
H790 H 0.21923 0.81558 0.08729 0.0
H791 H 0.21174 0.80147 0.14496 0.0
H792 H 0.42248 0.22285 0.64423 0.0
H793 H 0.4167 0.23121 0.58656 0.0
H794 H 0.42074 0.16957 0.55342 0.0
H795 H 0.4258 0.16057 0.61134 0.0
H796 H 0.44986 0.24119 0.53578 0.0
H797 H 0.36168 0.16249 0.50357 0.0
H798 H 0.37176 0.17061 0.54619 0.0
H799 H 0.3828 0.15501 0.52116 0.0
C800 C 0.42153 0.21067 0.62482 0.0
C801 C 0.42449 0.19095 0.63245 0.0
C802 C 0.41839 0.2156 0.59184 0.0
C803 C 0.41803 0.20087 0.5658 0.0
C804 C 0.42055 0.18092 0.57325 0.0
H805 H 0.42519 0.20566 0.35258 0.0
H806 H 0.42067 0.19551 0.41182 0.0
C807 C 0.42371 0.17596 0.60631 0.0
C808 C 0.41694 0.20754 0.53069 0.0
H809 H 0.38489 0.18741 0.45832 0.0
C810 C 0.43553 0.22958 0.51889 0.0
C811 C 0.39823 0.1923 0.50883 0.0
C812 C 0.37735 0.16887 0.52057 0.0
C813 C 0.43638 0.23646 0.48543 0.0
C814 C 0.41785 0.22106 0.46339 0.0
C815 C 0.39902 0.1992 0.47534 0.0
C816 C 0.41861 0.22661 0.42735 0.0
C817 C 0.45759 0.25968 0.47367 0.0
C818 C 0.4184 0.24724 0.41634 0.0
C819 C 0.42096 0.25312 0.38234 0.0
C820 C 0.42352 0.23832 0.3588 0.0
C821 C 0.42291 0.21728 0.36994 0.0
C822 C 0.42043 0.21148 0.40383 0.0
H823 H 0.47268 0.26674 0.4918 0.0
H824 H 0.46414 0.25727 0.44911 0.0
H825 H 0.45205 0.27337 0.47064 0.0
H826 H 0.41656 0.25892 0.43409 0.0
H827 H 0.42104 0.26927 0.3745 0.0
H828 H 0.81085 0.60106 0.14923 0.0
H829 H 0.80949 0.61428 0.09195 0.0
H830 H 0.79188 0.54449 0.05465 0.0
H831 H 0.79327 0.53126 0.11119 0.0
H832 H 0.82937 0.58579 0.01819 0.0
H833 H 0.745 0.58862 0.0382 0.0
H834 H 0.76981 0.60459 0.06648 0.0
H835 H 0.75379 0.57244 0.06634 0.0
C836 C 0.80675 0.58861 0.12873 0.0
C837 C 0.80202 0.56508 0.13467 0.0
C838 C 0.80599 0.59618 0.09614 0.0
C839 C 0.80054 0.5803 0.06922 0.0
C840 C 0.79622 0.55701 0.07513 0.0
H841 H 0.73426 0.53199 0.89172 0.0
H842 H 0.74965 0.54557 0.94783 0.0
C843 C 0.7969 0.54945 0.1075 0.0
C844 C 0.7982 0.58703 0.03472 0.0
H845 H 0.75701 0.58873 0.9829 0.0
C846 C 0.81398 0.5872 0.01037 0.0
C847 C 0.77806 0.58881 0.02486 0.0
C848 C 0.76056 0.58857 0.05017 0.0
C849 C 0.80907 0.58714 0.9762 0.0
C850 C 0.78794 0.58704 0.96637 0.0
C851 C 0.77323 0.58887 0.99068 0.0
C852 C 0.77843 0.58026 0.93208 0.0
C853 C 0.82535 0.58507 0.95093 0.0
C854 C 0.7895 0.59542 0.90463 0.0
C855 C 0.78072 0.58764 0.87226 0.0
C856 C 0.76084 0.56463 0.8671 0.0
C857 C 0.74967 0.54977 0.8948 0.0
C858 C 0.75836 0.55754 0.92693 0.0
H859 H 0.84036 0.58399 0.96291 0.0
H860 H 0.81494 0.56885 0.93524 0.0
H861 H 0.83303 0.60091 0.93414 0.0
H862 H 0.80497 0.61308 0.90822 0.0
H863 H 0.78961 0.59949 0.85134 0.0
H864 H 0.20838 0.80671 0.64538 0.0
H865 H 0.19456 0.80489 0.58756 0.0
H866 H 0.25008 0.79137 0.55252 0.0
H867 H 0.26395 0.79319 0.60965 0.0
H868 H 0.24452 0.82824 0.51613 0.0
H869 H 0.16006 0.74053 0.53196 0.0
H870 H 0.16689 0.76446 0.56107 0.0
H871 H 0.18473 0.75021 0.56089 0.0
C872 C 0.2176 0.80337 0.62528 0.0
C873 C 0.23715 0.79995 0.63201 0.0
C874 C 0.20971 0.80235 0.59237 0.0
C875 C 0.22133 0.79797 0.56594 0.0
C876 C 0.24097 0.79487 0.57265 0.0
H877 H 0.20922 0.73729 0.3835 0.0
H878 H 0.21108 0.75124 0.44059 0.0
C879 C 0.24878 0.79579 0.60534 0.0
C880 C 0.21292 0.79565 0.53109 0.0
H881 H 0.17229 0.75421 0.47724 0.0
C882 C 0.22837 0.81243 0.50754 0.0
C883 C 0.19187 0.77494 0.52023 0.0
C884 C 0.17485 0.75637 0.54468 0.0
C885 C 0.2242 0.80817 0.47315 0.0
C886 C 0.20405 0.78665 0.4623 0.0
C887 C 0.18768 0.77072 0.48584 0.0
C888 C 0.20204 0.77836 0.42744 0.0
C889 C 0.24229 0.82571 0.44866 0.0
C890 C 0.19632 0.78909 0.40118 0.0
C891 C 0.19525 0.78113 0.3683 0.0
C892 C 0.19996 0.76243 0.36143 0.0
C893 C 0.20559 0.75178 0.38792 0.0
C894 C 0.20655 0.75964 0.42059 0.0
H895 H 0.2576 0.84111 0.46133 0.0
H896 H 0.24935 0.81649 0.43275 0.0
H897 H 0.23346 0.83275 0.43196 0.0
H898 H 0.19271 0.80353 0.40613 0.0
H899 H 0.19079 0.7896 0.34835 0.0
H900 H 0.46558 0.19393 0.8881 0.0
H901 H 0.45134 0.19416 0.94436 0.0
H902 H 0.38604 0.18738 0.90413 0.0
H903 H 0.40034 0.18728 0.84722 0.0
H904 H 0.40863 0.22449 0.94939 0.0
H905 H 0.40038 0.14179 0.00315 0.0
H906 H 0.42865 0.15886 0.98229 0.0
H907 H 0.40122 0.1468 0.95858 0.0
C908 C 0.44807 0.19221 0.89113 0.0
C909 C 0.43409 0.19065 0.86327 0.0
C910 C 0.43983 0.19207 0.92336 0.0
C911 C 0.41741 0.19026 0.92843 0.0
C912 C 0.40325 0.18845 0.90069 0.0
H913 H 0.40025 0.20465 0.14471 0.0
H914 H 0.38633 0.18845 0.08827 0.0
C915 C 0.41146 0.18846 0.86828 0.0
C916 C 0.41043 0.19296 0.96266 0.0
H917 H 0.41089 0.17472 0.04255 0.0
C918 C 0.40836 0.2132 0.96972 0.0
C919 C 0.40955 0.17796 0.98913 0.0
C920 C 0.4098 0.15499 0.98283 0.0
C921 C 0.40807 0.22023 0.00279 0.0
C922 C 0.41023 0.20684 0.02921 0.0
C923 C 0.40964 0.1852 0.02221 0.0
C924 C 0.41722 0.21698 0.06319 0.0
C925 C 0.40684 0.24269 0.00913 0.0
C926 C 0.43927 0.23809 0.06761 0.0
C927 C 0.4473 0.24717 0.09951 0.0
C928 C 0.43345 0.23529 0.12771 0.0
C929 C 0.41124 0.21419 0.12336 0.0
C930 C 0.40326 0.20496 0.09124 0.0
H931 H 0.39701 0.24586 0.98877 0.0
H932 H 0.39793 0.24169 0.03333 0.0
H933 H 0.42532 0.25833 0.00991 0.0
H934 H 0.45059 0.24731 0.04634 0.0
H935 H 0.46449 0.26346 0.10202 0.0
H936 H 0.20742 0.40034 0.34505 0.0
H937 H 0.19178 0.38649 0.4017 0.0
H938 H 0.2457 0.45452 0.44178 0.0
H939 H 0.26141 0.46839 0.38582 0.0
H940 H 0.23951 0.41094 0.47569 0.0
H941 H 0.15511 0.41402 0.45749 0.0
H942 H 0.16318 0.39811 0.42792 0.0
H943 H 0.18049 0.4302 0.43003 0.0
C944 C 0.2159 0.41229 0.36601 0.0
C945 C 0.23556 0.43548 0.36106 0.0
C946 C 0.20696 0.40435 0.39823 0.0
C947 C 0.21763 0.41953 0.42572 0.0
C948 C 0.23734 0.44254 0.42079 0.0
H949 H 0.20363 0.46786 0.60451 0.0
H950 H 0.20391 0.45415 0.54792 0.0
C951 C 0.2462 0.45047 0.38878 0.0
C952 C 0.20825 0.4123 0.45993 0.0
H953 H 0.16681 0.41263 0.51256 0.0
C954 C 0.22323 0.41052 0.48384 0.0
C955 C 0.18699 0.41176 0.47015 0.0
C956 C 0.17042 0.41365 0.44523 0.0
C957 C 0.21859 0.41037 0.51809 0.0
C958 C 0.19838 0.41186 0.52838 0.0
C959 C 0.18227 0.41147 0.5044 0.0
C960 C 0.19638 0.41873 0.56288 0.0
C961 C 0.23643 0.41081 0.54299 0.0
C962 C 0.19192 0.40323 0.59 0.0
C963 C 0.19186 0.4111 0.6226 0.0
C964 C 0.19628 0.43454 0.62831 0.0
C965 C 0.2003 0.44976 0.60096 0.0
C966 C 0.20032 0.44191 0.56858 0.0
H967 H 0.25207 0.41116 0.53065 0.0
H968 H 0.24305 0.42681 0.55938 0.0
H969 H 0.22752 0.39465 0.55912 0.0
H970 H 0.18871 0.38522 0.58596 0.0
H971 H 0.18857 0.39895 0.64326 0.0
H972 H 0.83404 0.28124 0.87972 0.0
H973 H 0.83259 0.27045 0.93856 0.0
H974 H 0.78341 0.19628 0.91411 0.0
H975 H 0.78627 0.20699 0.85475 0.0
H976 H 0.79519 0.25582 0.97334 0.0
H977 H 0.82159 0.18657 0.9838 0.0
H978 H 0.82718 0.20441 0.94652 0.0
H979 H 0.79831 0.17809 0.95334 0.0
C980 C 0.82346 0.26255 0.88694 0.0
C981 C 0.81018 0.24489 0.86309 0.0
C982 C 0.82265 0.25637 0.92048 0.0
C983 C 0.80798 0.23252 0.93091 0.0
C984 C 0.79538 0.21468 0.90673 0.0
H985 H 0.72737 0.19384 0.11023 0.0
H986 H 0.74341 0.20132 0.05359 0.0
C987 C 0.7968 0.2208 0.87289 0.0
C988 C 0.80313 0.22718 0.9671 0.0
H989 H 0.79701 0.18785 0.02896 0.0
C990 C 0.79607 0.24121 0.9855 0.0
C991 C 0.80442 0.20828 0.98328 0.0
C992 C 0.81355 0.19368 0.96574 0.0
C993 C 0.78947 0.23638 0.01909 0.0
C994 C 0.78899 0.21639 0.03452 0.0
C995 C 0.79702 0.20292 0.0168 0.0
C996 C 0.77881 0.20869 0.06835 0.0
C997 C 0.78279 0.25264 0.03766 0.0
C998 C 0.79311 0.20919 0.09519 0.0
C999 C 0.78384 0.20462 0.12774 0.0
C1000 C 0.76027 0.19967 0.13366 0.0
C1001 C 0.74573 0.19802 0.10647 0.0
C1002 C 0.75486 0.20228 0.07411 0.0
H1003 H 0.79108 0.27073 0.02605 0.0
H1004 H 0.76303 0.24481 0.03686 0.0
H1005 H 0.78845 0.25468 0.06425 0.0
H1006 H 0.81162 0.21399 0.09111 0.0
H1007 H 0.79536 0.20588 0.14832 0.0
H1008 H 0.5318 0.73142 0.60766 0.0
H1009 H 0.54469 0.74642 0.55116 0.0
H1010 H 0.60899 0.8069 0.5901 0.0
H1011 H 0.5961 0.79194 0.64723 0.0
H1012 H 0.58351 0.81921 0.54509 0.0
H1013 H 0.59749 0.74791 0.49214 0.0
H1014 H 0.56935 0.73554 0.51372 0.0
H1015 H 0.59692 0.75247 0.53665 0.0
C1016 C 0.5488 0.74781 0.60428 0.0
C1017 C 0.56294 0.76054 0.63184 0.0
C1018 C 0.55625 0.75622 0.57194 0.0
C1019 C 0.57801 0.77748 0.56647 0.0
C1020 C 0.59229 0.79027 0.59388 0.0
H1021 H 0.59684 0.80896 0.35062 0.0
H1022 H 0.60977 0.8075 0.40796 0.0
C1023 C 0.58488 0.78174 0.6264 0.0
C1024 C 0.58432 0.78712 0.53216 0.0
H1025 H 0.58594 0.76915 0.45255 0.0
C1026 C 0.58475 0.80865 0.52488 0.0
C1027 C 0.58642 0.77357 0.50593 0.0
C1028 C 0.58779 0.75122 0.51255 0.0
C1029 C 0.58479 0.81572 0.49173 0.0
C1030 C 0.58407 0.80068 0.46547 0.0
C1031 C 0.58611 0.78046 0.47277 0.0
C1032 C 0.5776 0.80356 0.43105 0.0
C1033 C 0.58441 0.8386 0.48513 0.0
C1034 C 0.55516 0.80151 0.42521 0.0
C1035 C 0.5477 0.80213 0.39274 0.0
C1036 C 0.56251 0.80474 0.36544 0.0
C1037 C 0.5851 0.80698 0.37125 0.0
C1038 C 0.59252 0.80622 0.40389 0.0
H1039 H 0.59329 0.85174 0.50568 0.0
H1040 H 0.59344 0.84696 0.46117 0.0
H1041 H 0.56551 0.83452 0.4837 0.0
H1042 H 0.54312 0.79882 0.44578 0.0
H1043 H 0.5302 0.80033 0.38908 0.0
H1044 H 0.19001 0.50424 0.27716 0.0
H1045 H 0.19022 0.54215 0.26942 0.0
H1046 H 0.2649 0.57714 0.24176 0.0
H1047 H 0.26483 0.53932 0.24925 0.0
H1048 H 0.22768 0.59104 0.30259 0.0
H1049 H 0.22443 0.58806 0.16331 0.0
H1050 H 0.21281 0.56108 0.18821 0.0
H1051 H 0.24456 0.58071 0.1848 0.0
C1052 C 0.20645 0.51999 0.26941 0.0
C1053 C 0.22739 0.5188 0.26385 0.0
C1054 C 0.20656 0.5416 0.26509 0.0
C1055 C 0.22752 0.56226 0.25478 0.0
C1056 C 0.24854 0.56128 0.24956 0.0
H1057 H 0.24816 0.70422 0.20519 0.0
H1058 H 0.25322 0.66889 0.20902 0.0
C1059 C 0.2485 0.53973 0.25414 0.0
C1060 C 0.22736 0.58491 0.24971 0.0
H1061 H 0.22442 0.62088 0.18935 0.0
C1062 C 0.22706 0.59767 0.27788 0.0
C1063 C 0.22686 0.59352 0.21741 0.0
C1064 C 0.2271 0.5802 0.18654 0.0
C1065 C 0.22598 0.6188 0.2746 0.0
C1066 C 0.22447 0.62695 0.24228 0.0
C1067 C 0.22544 0.61451 0.21406 0.0
C1068 C 0.22073 0.64768 0.23756 0.0
C1069 C 0.2266 0.63227 0.30581 0.0
C1070 C 0.20038 0.64707 0.25121 0.0
C1071 C 0.19751 0.66711 0.24919 0.0
C1072 C 0.21478 0.6881 0.23302 0.0
C1073 C 0.23454 0.68828 0.21773 0.0
C1074 C 0.2375 0.66818 0.22001 0.0
H1075 H 0.23507 0.62808 0.32699 0.0
H1076 H 0.23658 0.65196 0.30153 0.0
H1077 H 0.20798 0.62691 0.31324 0.0
H1078 H 0.18689 0.6312 0.26404 0.0
H1079 H 0.18192 0.6663 0.26086 0.0
H1080 H 0.68938 0.19561 0.78438 0.0
H1081 H 0.65211 0.19582 0.77401 0.0
H1082 H 0.69238 0.27054 0.74673 0.0
H1083 H 0.72985 0.27045 0.75616 0.0
H1084 H 0.65149 0.25609 0.79326 0.0
H1085 H 0.6283 0.20098 0.67775 0.0
H1086 H 0.63643 0.18921 0.71302 0.0
H1087 H 0.65842 0.217 0.69441 0.0
C1088 C 0.69042 0.21209 0.77601 0.0
C1089 C 0.71274 0.23295 0.77089 0.0
C1090 C 0.66907 0.21216 0.77015 0.0
C1091 C 0.66957 0.23309 0.75913 0.0
C1092 C 0.69168 0.25418 0.75507 0.0
H1093 H 0.5433 0.24408 0.70011 0.0
H1094 H 0.58455 0.25121 0.70203 0.0
C1095 C 0.71309 0.25411 0.76074 0.0
C1096 C 0.64689 0.23278 0.75189 0.0
H1097 H 0.59744 0.20654 0.70153 0.0
C1098 C 0.6398 0.24554 0.77295 0.0
C1099 C 0.63184 0.21915 0.72518 0.0
C1100 C 0.63914 0.20594 0.70105 0.0
C1101 C 0.61744 0.24407 0.7689 0.0
C1102 C 0.60197 0.22957 0.74316 0.0
C1103 C 0.60944 0.21762 0.72124 0.0
C1104 C 0.57714 0.22492 0.74069 0.0
C1105 C 0.61003 0.25736 0.79271 0.0
C1106 C 0.55948 0.20753 0.76139 0.0
C1107 C 0.53603 0.2033 0.76024 0.0
C1108 C 0.5298 0.21646 0.73838 0.0
C1109 C 0.5475 0.23359 0.71712 0.0
C1110 C 0.57104 0.23775 0.71823 0.0
H1111 H 0.62515 0.27014 0.80874 0.0
H1112 H 0.60296 0.26737 0.77858 0.0
H1113 H 0.59539 0.24426 0.80907 0.0
H1114 H 0.56394 0.19742 0.77875 0.0
H1115 H 0.5229 0.18996 0.77695 0.0
H1116 H 0.46179 0.72438 0.25004 0.0
H1117 H 0.42505 0.68567 0.24266 0.0
H1118 H 0.4611 0.64932 0.28071 0.0
H1119 H 0.49789 0.68801 0.28846 0.0
H1120 H 0.42159 0.64462 0.20252 0.0
H1121 H 0.39703 0.62398 0.33664 0.0
H1122 H 0.41647 0.65415 0.32164 0.0
H1123 H 0.42771 0.63377 0.32588 0.0
C1124 C 0.46179 0.70818 0.25732 0.0
C1125 C 0.48269 0.70922 0.27003 0.0
C1126 C 0.44087 0.6861 0.25283 0.0
C1127 C 0.44041 0.66475 0.26132 0.0
C1128 C 0.46112 0.66569 0.27425 0.0
H1129 H 0.33538 0.51466 0.26543 0.0
H1130 H 0.3713 0.55418 0.26827 0.0
C1131 C 0.48212 0.68774 0.2785 0.0
C1132 C 0.41839 0.64139 0.25606 0.0
H1133 H 0.37435 0.5933 0.29769 0.0
C1134 C 0.41112 0.63337 0.22324 0.0
C1135 C 0.40493 0.62691 0.28321 0.0
C1136 C 0.41173 0.6351 0.31889 0.0
C1137 C 0.391 0.6108 0.21684 0.0
C1138 C 0.37756 0.5962 0.24404 0.0
C1139 C 0.38471 0.60448 0.27686 0.0
C1140 C 0.35635 0.57201 0.23936 0.0
C1141 C 0.38479 0.60249 0.1811 0.0
C1142 C 0.33608 0.56881 0.2217 0.0
C1143 C 0.31553 0.54609 0.21968 0.0
C1144 C 0.31484 0.52635 0.2358 0.0
C1145 C 0.33533 0.52955 0.25285 0.0
C1146 C 0.35587 0.55213 0.25454 0.0
H1147 H 0.40028 0.61273 0.16409 0.0
H1148 H 0.3788 0.5831 0.17878 0.0
H1149 H 0.36995 0.60528 0.17264 0.0
H1150 H 0.33585 0.58399 0.2104 0.0
H1151 H 0.29992 0.54421 0.20669 0.0
H1152 H 0.75834 0.30128 0.70715 0.0
H1153 H 0.75417 0.33716 0.70932 0.0
H1154 H 0.82124 0.3751 0.7625 0.0
H1155 H 0.8255 0.33947 0.76065 0.0
H1156 H 0.75444 0.36067 0.77358 0.0
H1157 H 0.82557 0.42125 0.68497 0.0
H1158 H 0.8121 0.38899 0.68355 0.0
H1159 H 0.83421 0.406 0.71473 0.0
C1160 C 0.77241 0.31742 0.71873 0.0
C1161 C 0.79225 0.31759 0.73372 0.0
C1162 C 0.76994 0.33782 0.72007 0.0
C1163 C 0.7875 0.35876 0.73586 0.0
C1164 C 0.80766 0.35919 0.74987 0.0
H1165 H 0.81208 0.49944 0.78699 0.0
H1166 H 0.8141 0.46285 0.77787 0.0
C1167 C 0.81001 0.33879 0.74888 0.0
C1168 C 0.78413 0.37973 0.73991 0.0
H1169 H 0.80876 0.43892 0.71977 0.0
C1170 C 0.7661 0.37774 0.76158 0.0
C1171 C 0.79957 0.40194 0.72444 0.0
C1172 C 0.81887 0.40477 0.70039 0.0
C1173 C 0.76356 0.39767 0.76905 0.0
C1174 C 0.77912 0.42001 0.75373 0.0
C1175 C 0.7969 0.42183 0.73159 0.0
C1176 C 0.77746 0.4418 0.76047 0.0
C1177 C 0.74483 0.3948 0.79422 0.0
C1178 C 0.75623 0.44212 0.7537 0.0
C1179 C 0.755 0.46292 0.75916 0.0
C1180 C 0.77511 0.48393 0.77101 0.0
C1181 C 0.79636 0.48357 0.77773 0.0
C1182 C 0.79751 0.46269 0.77254 0.0
H1183 H 0.7393 0.37885 0.81042 0.0
H1184 H 0.75152 0.41092 0.81038 0.0
H1185 H 0.72867 0.39234 0.78079 0.0
H1186 H 0.74074 0.42644 0.74353 0.0
H1187 H 0.73854 0.46276 0.75304 0.0
H1188 H 0.29992 0.79973 0.2098 0.0
H1189 H 0.33758 0.80011 0.20013 0.0
H1190 H 0.32574 0.75791 0.28935 0.0
H1191 H 0.28766 0.757 0.2986 0.0
H1192 H 0.37681 0.81825 0.23588 0.0
H1193 H 0.34152 0.72064 0.22401 0.0
H1194 H 0.32222 0.73351 0.22403 0.0
H1195 H 0.33284 0.728 0.26283 0.0
C1196 C 0.30541 0.79063 0.22744 0.0
C1197 C 0.2909 0.77837 0.25502 0.0
C1198 C 0.32685 0.79072 0.22176 0.0
C1199 C 0.3343 0.77865 0.24363 0.0
C1200 C 0.32003 0.76672 0.27154 0.0
H1201 H 0.47711 0.80906 0.28035 0.0
H1202 H 0.43814 0.80636 0.27773 0.0
C1203 C 0.29839 0.76637 0.27699 0.0
C1204 C 0.35757 0.77962 0.23806 0.0
H1205 H 0.38399 0.74503 0.23312 0.0
C1206 C 0.37831 0.8022 0.23491 0.0
C1207 C 0.35953 0.75869 0.23602 0.0
C1208 C 0.33779 0.73385 0.23652 0.0
C1209 C 0.40101 0.80449 0.23115 0.0
C1210 C 0.40315 0.78365 0.23156 0.0
C1211 C 0.38236 0.761 0.23325 0.0
C1212 C 0.42688 0.78513 0.23247 0.0
C1213 C 0.42248 0.82926 0.22679 0.0
C1214 C 0.43328 0.77341 0.20843 0.0
C1215 C 0.45564 0.77467 0.21006 0.0
C1216 C 0.47187 0.78762 0.23582 0.0
C1217 C 0.46522 0.79914 0.25991 0.0
C1218 C 0.44295 0.79775 0.25837 0.0
H1219 H 0.41724 0.84179 0.21564 0.0
H1220 H 0.43055 0.83648 0.25161 0.0
H1221 H 0.43633 0.8289 0.21064 0.0
H1222 H 0.42102 0.76337 0.18839 0.0
H1223 H 0.46015 0.76546 0.19126 0.0
H1224 H 0.70142 0.45469 0.7125 0.0
H1225 H 0.66539 0.41469 0.71384 0.0
H1226 H 0.628 0.44313 0.76995 0.0
H1227 H 0.66373 0.48291 0.76896 0.0
H1228 H 0.64137 0.39015 0.778 0.0
H1229 H 0.5821 0.40367 0.69045 0.0
H1230 H 0.61443 0.42192 0.68935 0.0
H1231 H 0.59761 0.427 0.72088 0.0
C1232 C 0.68539 0.45245 0.72465 0.0
C1233 C 0.68537 0.47189 0.74066 0.0
C1234 C 0.66491 0.42963 0.7255 0.0
C1235 C 0.64407 0.42611 0.74178 0.0
C1236 C 0.64385 0.4456 0.75696 0.0
H1237 H 0.5023 0.31167 0.79059 0.0
H1238 H 0.53952 0.34989 0.78233 0.0
C1239 C 0.66431 0.46827 0.75648 0.0
C1240 C 0.62289 0.40187 0.74493 0.0
H1241 H 0.56367 0.36873 0.72437 0.0
C1242 C 0.62441 0.38527 0.76601 0.0
C1243 C 0.60086 0.39581 0.72947 0.0
C1244 C 0.59855 0.41293 0.70604 0.0
C1245 C 0.60415 0.36293 0.77298 0.0
C1246 C 0.58197 0.35692 0.75777 0.0
C1247 C 0.58064 0.37341 0.73613 0.0
C1248 C 0.55984 0.33371 0.7641 0.0
C1249 C 0.60651 0.34642 0.79756 0.0
C1250 C 0.55893 0.31198 0.75657 0.0
C1251 C 0.5378 0.2902 0.76154 0.0
C1252 C 0.51704 0.28973 0.77367 0.0
C1253 C 0.51798 0.31151 0.78116 0.0
C1254 C 0.53921 0.3333 0.77646 0.0
H1255 H 0.62252 0.35629 0.81383 0.0
H1256 H 0.59035 0.33712 0.81367 0.0
H1257 H 0.60854 0.33264 0.78363 0.0
H1258 H 0.5744 0.31187 0.74615 0.0
H1259 H 0.5375 0.27377 0.75478 0.0
H1260 H 0.33317 0.81759 0.73147 0.0
H1261 H 0.36851 0.81286 0.73067 0.0
H1262 H 0.33172 0.7496 0.79214 0.0
H1263 H 0.29603 0.75416 0.7931 0.0
H1264 H 0.39576 0.80887 0.78755 0.0
H1265 H 0.35322 0.72856 0.70472 0.0
H1266 H 0.34162 0.74886 0.70853 0.0
H1267 H 0.33712 0.72826 0.74168 0.0
C1268 C 0.3326 0.80275 0.74506 0.0
C1269 C 0.31175 0.78616 0.76223 0.0
C1270 C 0.35283 0.80011 0.7446 0.0
C1271 C 0.35257 0.78075 0.761 0.0
C1272 C 0.33211 0.76453 0.77905 0.0
H1273 H 0.46094 0.73686 0.75027 0.0
H1274 H 0.42417 0.73812 0.76101 0.0
C1275 C 0.31184 0.76726 0.77976 0.0
C1276 C 0.37364 0.7774 0.75819 0.0
H1277 H 0.39357 0.74337 0.71947 0.0
C1278 C 0.39529 0.79447 0.7729 0.0
C1279 C 0.37285 0.75853 0.73913 0.0
C1280 C 0.35004 0.74001 0.72237 0.0
C1281 C 0.41634 0.7933 0.7688 0.0
C1282 C 0.41582 0.77495 0.74866 0.0
C1283 C 0.39397 0.7575 0.73471 0.0
C1284 C 0.43785 0.77391 0.74114 0.0
C1285 C 0.43889 0.81164 0.78631 0.0
C1286 C 0.45751 0.79333 0.72554 0.0
C1287 C 0.47855 0.79266 0.7194 0.0
C1288 C 0.48021 0.77241 0.72829 0.0
C1289 C 0.46017 0.75263 0.74283 0.0
C1290 C 0.43919 0.75338 0.74918 0.0
H1291 H 0.43471 0.81944 0.80831 0.0
H1292 H 0.44981 0.80366 0.79477 0.0
H1293 H 0.44984 0.82651 0.76876 0.0
H1294 H 0.45662 0.80906 0.71819 0.0
H1295 H 0.49351 0.80799 0.70766 0.0
H1296 H 0.52038 0.32863 0.20349 0.0
H1297 H 0.5593 0.3651 0.20253 0.0
H1298 H 0.57709 0.34611 0.29741 0.0
H1299 H 0.53812 0.30891 0.29819 0.0
H1300 H 0.57834 0.40252 0.24453 0.0
H1301 H 0.63504 0.35993 0.24117 0.0
H1302 H 0.60303 0.34318 0.2346 0.0
H1303 H 0.61497 0.35119 0.27621 0.0
C1304 C 0.5325 0.33208 0.22423 0.0
C1305 C 0.52613 0.31575 0.25091 0.0
C1306 C 0.55479 0.35301 0.2236 0.0
C1307 C 0.57125 0.35819 0.24963 0.0
C1308 C 0.56486 0.3422 0.27668 0.0
H1309 H 0.69576 0.50056 0.27635 0.0
H1310 H 0.65723 0.46364 0.28182 0.0
C1311 C 0.54252 0.32105 0.27722 0.0
C1312 C 0.59485 0.38061 0.24825 0.0
H1313 H 0.65529 0.4023 0.24544 0.0
C1314 C 0.59518 0.40248 0.24479 0.0
C1315 C 0.61677 0.38047 0.24807 0.0
C1316 C 0.61755 0.35744 0.24989 0.0
C1317 C 0.61677 0.42421 0.24101 0.0
C1318 C 0.63873 0.42416 0.24165 0.0
C1319 C 0.63844 0.4023 0.24516 0.0
C1320 C 0.66217 0.44658 0.23834 0.0
C1321 C 0.61575 0.44689 0.23538 0.0
C1322 C 0.67808 0.44906 0.21258 0.0
C1323 C 0.70026 0.47013 0.20955 0.0
C1324 C 0.70689 0.48913 0.23218 0.0
C1325 C 0.69094 0.48652 0.25802 0.0
C1326 C 0.6689 0.46539 0.26121 0.0
H1327 H 0.59791 0.44295 0.22593 0.0
H1328 H 0.61899 0.4566 0.25943 0.0
H1329 H 0.62966 0.45892 0.21726 0.0
H1330 H 0.67327 0.43472 0.1947 0.0
H1331 H 0.71215 0.47164 0.18939 0.0
H1332 H 0.19782 0.52266 0.70666 0.0
H1333 H 0.20155 0.5621 0.70656 0.0
H1334 H 0.23522 0.57678 0.8036 0.0
H1335 H 0.23223 0.53721 0.80346 0.0
H1336 H 0.18217 0.58009 0.74756 0.0
H1337 H 0.28148 0.63629 0.75206 0.0
H1338 H 0.26638 0.60446 0.74397 0.0
H1339 H 0.26856 0.61533 0.78594 0.0
C1340 C 0.20607 0.5342 0.72807 0.0
C1341 C 0.21473 0.52675 0.75513 0.0
C1342 C 0.2082 0.55681 0.72792 0.0
C1343 C 0.2189 0.57253 0.75486 0.0
C1344 C 0.22736 0.56514 0.7822 0.0
H1345 H 0.19912 0.69635 0.77708 0.0
H1346 H 0.19857 0.65846 0.78493 0.0
C1347 C 0.22546 0.54247 0.78222 0.0
C1348 C 0.22037 0.59627 0.75417 0.0
H1349 H 0.25943 0.65668 0.75425 0.0
C1350 C 0.19907 0.59684 0.74912 0.0
C1351 C 0.24246 0.61809 0.75574 0.0
C1352 C 0.26607 0.61863 0.75941 0.0
C1353 C 0.19923 0.61855 0.74513 0.0
C1354 C 0.22125 0.64041 0.7474 0.0
C1355 C 0.24256 0.6399 0.75274 0.0
C1356 C 0.22249 0.66393 0.74361 0.0
C1357 C 0.17588 0.61776 0.73732 0.0
C1358 C 0.23683 0.68003 0.71856 0.0
C1359 C 0.23737 0.70187 0.71427 0.0
C1360 C 0.22346 0.70788 0.73484 0.0
C1361 C 0.2095 0.69191 0.76028 0.0
C1362 C 0.2092 0.67027 0.76482 0.0
H1363 H 0.16236 0.6001 0.7269 0.0
H1364 H 0.16838 0.62066 0.76067 0.0
H1365 H 0.1786 0.63196 0.71916 0.0
H1366 H 0.24732 0.67553 0.702 0.0
H1367 H 0.24831 0.71386 0.69453 0.0
H1368 H 0.53627 0.26041 0.24681 0.0
H1369 H 0.57303 0.25862 0.2555 0.0
H1370 H 0.53805 0.18659 0.21633 0.0
H1371 H 0.50131 0.18832 0.20722 0.0
H1372 H 0.57647 0.22129 0.29573 0.0
H1373 H 0.60262 0.22561 0.16235 0.0
H1374 H 0.58268 0.2359 0.17667 0.0
H1375 H 0.57186 0.20438 0.17214 0.0
C1376 C 0.53651 0.24432 0.23959 0.0
C1377 C 0.51592 0.22452 0.22617 0.0
C1378 C 0.55744 0.24328 0.24483 0.0
C1379 C 0.55821 0.22254 0.23637 0.0
C1380 C 0.5378 0.20282 0.22276 0.0
H1381 H 0.6614 0.17546 0.23483 0.0
H1382 H 0.62581 0.17966 0.23208 0.0
C1383 C 0.51681 0.20378 0.21775 0.0
C1384 C 0.5802 0.22126 0.24228 0.0
H1385 H 0.62429 0.21656 0.20188 0.0
C1386 C 0.58709 0.22041 0.27531 0.0
C1387 C 0.59388 0.22013 0.21551 0.0
C1388 C 0.58759 0.22173 0.17962 0.0
C1389 C 0.60696 0.21763 0.28227 0.0
C1390 C 0.6205 0.21618 0.25543 0.0
C1391 C 0.61382 0.21754 0.22242 0.0
C1392 C 0.6413 0.2126 0.26066 0.0
C1393 C 0.61278 0.21544 0.31818 0.0
C1394 C 0.6617 0.22949 0.27825 0.0
C1395 C 0.68204 0.22696 0.28022 0.0
C1396 C 0.68239 0.20773 0.26412 0.0
C1397 C 0.6617 0.19052 0.24738 0.0
C1398 C 0.64136 0.19291 0.24574 0.0
H1399 H 0.59727 0.21067 0.33496 0.0
H1400 H 0.61826 0.20168 0.32088 0.0
H1401 H 0.62789 0.23291 0.32662 0.0
H1402 H 0.66223 0.24508 0.28937 0.0
H1403 H 0.69783 0.24064 0.29295 0.0
H1404 H 0.48412 0.66404 0.73144 0.0
H1405 H 0.44452 0.62806 0.73062 0.0
H1406 H 0.41645 0.66378 0.79125 0.0
H1407 H 0.45622 0.70009 0.79226 0.0
H1408 H 0.41281 0.60042 0.78771 0.0
H1409 H 0.37526 0.6418 0.70216 0.0
H1410 H 0.40715 0.6537 0.70675 0.0
H1411 H 0.39058 0.65819 0.73919 0.0
C1412 C 0.4696 0.66422 0.74488 0.0
C1413 C 0.47323 0.68494 0.76176 0.0
C1414 C 0.44702 0.64363 0.74443 0.0
C1415 C 0.4276 0.64342 0.76056 0.0
C1416 C 0.43125 0.66375 0.77842 0.0
H1417 H 0.2761 0.53529 0.74687 0.0
H1418 H 0.31416 0.57179 0.75811 0.0
C1419 C 0.45397 0.68438 0.77914 0.0
C1420 C 0.40344 0.62212 0.75735 0.0
H1421 H 0.34995 0.60147 0.71706 0.0
C1422 C 0.39895 0.60062 0.77249 0.0
C1423 C 0.38551 0.62257 0.73749 0.0
C1424 C 0.38974 0.64521 0.72023 0.0
C1425 C 0.37692 0.5794 0.76817 0.0
C1426 C 0.35923 0.57962 0.74736 0.0
C1427 C 0.36358 0.6013 0.73283 0.0
C1428 C 0.33621 0.55752 0.73999 0.0
C1429 C 0.37276 0.55705 0.78626 0.0
C1430 C 0.33593 0.53755 0.72535 0.0
C1431 C 0.31419 0.51663 0.71896 0.0
C1432 C 0.29231 0.51545 0.72656 0.0
C1433 C 0.29264 0.53573 0.74033 0.0
C1434 C 0.31438 0.55655 0.74698 0.0
H1435 H 0.38454 0.56147 0.80853 0.0
H1436 H 0.3538 0.54607 0.79442 0.0
H1437 H 0.37696 0.54606 0.76919 0.0
H1438 H 0.35255 0.53815 0.71882 0.0
H1439 H 0.31446 0.50142 0.70792 0.0
H1440 H 0.73208 0.27303 0.25114 0.0
H1441 H 0.73159 0.31065 0.25747 0.0
H1442 H 0.80318 0.34979 0.21703 0.0
H1443 H 0.80367 0.31227 0.21017 0.0
H1444 H 0.76607 0.35246 0.29575 0.0
H1445 H 0.76323 0.37224 0.16125 0.0
H1446 H 0.75486 0.34261 0.17638 0.0
H1447 H 0.78596 0.36501 0.17224 0.0
C1448 C 0.74756 0.2896 0.24312 0.0
C1449 C 0.7679 0.28967 0.23002 0.0
C1450 C 0.74731 0.31107 0.24699 0.0
C1451 C 0.76726 0.33291 0.23746 0.0
C1452 C 0.7875 0.33305 0.22419 0.0
H1453 H 0.814 0.48247 0.23348 0.0
H1454 H 0.80872 0.44227 0.23121 0.0
C1455 C 0.78783 0.31163 0.22051 0.0
C1456 C 0.76731 0.35573 0.24215 0.0
H1457 H 0.77192 0.40375 0.19952 0.0
C1458 C 0.76711 0.36363 0.27478 0.0
C1459 C 0.76861 0.37013 0.21469 0.0
C1460 C 0.76798 0.36204 0.17912 0.0
C1461 C 0.76922 0.38614 0.28072 0.0
C1462 C 0.7711 0.40081 0.25322 0.0
C1463 C 0.7706 0.39253 0.22058 0.0
C1464 C 0.77478 0.42531 0.25744 0.0
C1465 C 0.77039 0.39441 0.3163 0.0
C1466 C 0.75757 0.42921 0.27341 0.0
C1467 C 0.76065 0.45233 0.27501 0.0
C1468 C 0.78082 0.4718 0.26026 0.0
C1469 C 0.7982 0.46784 0.24494 0.0
C1470 C 0.79521 0.44486 0.24359 0.0
H1471 H 0.77432 0.38359 0.33417 0.0
H1472 H 0.78434 0.41357 0.31907 0.0
H1473 H 0.75284 0.39252 0.32323 0.0
H1474 H 0.74145 0.4143 0.28372 0.0
H1475 H 0.74684 0.4548 0.28666 0.0
loop_
_geom_bond_atom_site_label_1
_geom_bond_atom_site_label_2
_geom_bond_distance
_geom_bond_site_symmetry_2
_ccdc_geom_bond_type
Co0 N4 2.148 . S
Co0 N10 2.128 . S
Co0 N20 2.194 . S
Co0 O25 2.351 . S
Co0 O26 2.155 . S
Co0 O27 2.096 . S
C1 N4 1.301 . S
C1 N5 1.328 . S
C1 H6 0.930 . S
C2 C3 1.333 . S
C2 N4 1.317 . S
C2 H7 0.930 . S
C3 C2 1.333 . S
C3 N5 1.350 . S
C3 H29 0.931 . S
N4 Co0 2.148 . S
N4 C1 1.301 . S
N4 C2 1.317 . S
N5 C1 1.328 . S
N5 C3 1.350 . S
H6 C1 0.930 . S
H7 C2 0.930 . S
C8 O9 1.224 . S
C8 O27 1.247 . S
O9 C8 1.224 . S
N10 Co0 2.128 . S
N10 C11 1.355 . S
N10 C13 1.311 . S
C11 N10 1.355 . S
C11 C12 1.363 . S
C11 H23 0.929 . S
C12 C11 1.363 . S
C12 N14 1.375 . S
C12 H30 0.931 . S
C13 N10 1.311 . S
C13 N14 1.347 . S
C13 H24 0.929 . S
N14 C12 1.375 . S
N14 C13 1.347 . S
C15 C18 1.365 . S
C15 N20 1.328 . S
C15 H21 0.929 . S
C16 C17 1.362 . S
C16 C19 1.378 . S
C16 H31 0.929 . S
C17 C16 1.362 . S
C17 C18 1.366 . S
C18 C15 1.365 . S
C18 C17 1.366 . S
C18 H32 0.930 . S
C19 C16 1.378 . S
C19 N20 1.315 . S
C19 H22 0.930 . S
N20 Co0 2.194 . S
N20 C15 1.328 . S
N20 C19 1.315 . S
H21 C15 0.929 . S
H22 C19 0.930 . S
H23 C11 0.929 . S
H24 C13 0.929 . S
O25 Co0 2.351 . S
O25 C28 1.244 . S
O26 Co0 2.155 . S
O26 C28 1.240 . S
O27 Co0 2.096 . S
O27 C8 1.247 . S
C28 O25 1.244 . S
C28 O26 1.240 . S
H29 C3 0.931 . S
H30 C12 0.931 . S
H31 C16 0.929 . S
H32 C18 0.930 . S
Co33 N37 2.148 . S
Co33 N43 2.128 . S
Co33 N53 2.194 . S
Co33 O58 2.351 . S
Co33 O59 2.155 . S
Co33 O60 2.096 . S
C34 N37 1.301 . S
C34 N38 1.328 . S
C34 H39 0.930 . S
C35 C36 1.333 . S
C35 N37 1.317 . S
C35 H40 0.930 . S
C36 C35 1.333 . S
C36 N38 1.350 . S
C36 H62 0.931 . S
N37 Co33 2.148 . S
N37 C34 1.301 . S
N37 C35 1.317 . S
N38 C34 1.328 . S
N38 C36 1.350 . S
H39 C34 0.930 . S
H40 C35 0.930 . S
C41 O42 1.224 . S
C41 O60 1.247 . S
O42 C41 1.224 . S
N43 Co33 2.128 . S
N43 C44 1.355 . S
N43 C46 1.311 . S
C44 N43 1.355 . S
C44 C45 1.363 . S
C44 H56 0.929 . S
C45 C44 1.363 . S
C45 N47 1.375 . S
C45 H63 0.931 . S
C46 N43 1.311 . S
C46 N47 1.347 . S
C46 H57 0.929 . S
N47 C45 1.375 . S
N47 C46 1.347 . S
C48 C51 1.365 . S
C48 N53 1.328 . S
C48 H54 0.929 . S
C49 C50 1.362 . S
C49 C52 1.378 . S
C49 H64 0.929 . S
C50 C49 1.362 . S
C50 C51 1.366 . S
C51 C48 1.365 . S
C51 C50 1.366 . S
C51 H65 0.930 . S
C52 C49 1.378 . S
C52 N53 1.315 . S
C52 H55 0.930 . S
N53 Co33 2.194 . S
N53 C48 1.328 . S
N53 C52 1.315 . S
H54 C48 0.929 . S
H55 C52 0.930 . S
H56 C44 0.929 . S
H57 C46 0.929 . S
O58 Co33 2.351 . S
O58 C61 1.244 . S
O59 Co33 2.155 . S
O59 C61 1.240 . S
O60 Co33 2.096 . S
O60 C41 1.247 . S
C61 O58 1.244 . S
C61 O59 1.240 . S
H62 C36 0.931 . S
H63 C45 0.931 . S
H64 C49 0.929 . S
H65 C51 0.930 . S
Co66 N70 2.148 . S
Co66 N76 2.128 . S
Co66 N86 2.194 . S
Co66 O91 2.351 . S
Co66 O92 2.155 . S
Co66 O93 2.096 . S
C67 N70 1.301 . S
C67 N71 1.328 . S
C67 H72 0.930 . S
C68 C69 1.333 . S
C68 N70 1.317 . S
C68 H73 0.930 . S
C69 C68 1.333 . S
C69 N71 1.350 . S
C69 H95 0.931 . S
N70 Co66 2.148 . S
N70 C67 1.301 . S
N70 C68 1.317 . S
N71 C67 1.328 . S
N71 C69 1.350 . S
H72 C67 0.930 . S
H73 C68 0.930 . S
C74 O75 1.224 . S
C74 O93 1.247 . S
O75 C74 1.224 . S
N76 Co66 2.128 . S
N76 C77 1.355 . S
N76 C79 1.311 . S
C77 N76 1.355 . S
C77 C78 1.363 . S
C77 H89 0.929 . S
C78 C77 1.363 . S
C78 N80 1.375 . S
C78 H96 0.931 . S
C79 N76 1.311 . S
C79 N80 1.347 . S
C79 H90 0.929 . S
N80 C78 1.375 . S
N80 C79 1.347 . S
C81 C84 1.365 . S
C81 N86 1.328 . S
C81 H87 0.929 . S
C82 C83 1.362 . S
C82 C85 1.378 . S
C82 H97 0.929 . S
C83 C82 1.362 . S
C83 C84 1.366 . S
C84 C81 1.365 . S
C84 C83 1.366 . S
C84 H98 0.930 . S
C85 C82 1.378 . S
C85 N86 1.315 . S
C85 H88 0.930 . S
N86 Co66 2.194 . S
N86 C81 1.328 . S
N86 C85 1.315 . S
H87 C81 0.929 . S
H88 C85 0.930 . S
H89 C77 0.929 . S
H90 C79 0.929 . S
O91 Co66 2.351 . S
O91 C94 1.244 . S
O92 Co66 2.155 . S
O92 C94 1.240 . S
O93 Co66 2.096 . S
O93 C74 1.247 . S
C94 O91 1.244 . S
C94 O92 1.240 . S
H95 C69 0.931 . S
H96 C78 0.931 . S
H97 C82 0.929 . S
H98 C84 0.930 . S
Co99 N103 2.148 . S
Co99 N109 2.128 . S
Co99 N119 2.194 . S
Co99 O124 2.351 . S
Co99 O125 2.155 . S
Co99 O126 2.096 . S
C100 N103 1.301 . S
C100 N104 1.328 . S
C100 H105 0.930 . S
C101 C102 1.333 . S
C101 N103 1.317 . S
C101 H106 0.930 . S
C102 C101 1.333 . S
C102 N104 1.350 . S
C102 H128 0.931 . S
N103 Co99 2.148 . S
N103 C100 1.301 . S
N103 C101 1.317 . S
N104 C100 1.328 . S
N104 C102 1.350 . S
H105 C100 0.930 . S
H106 C101 0.930 . S
C107 O108 1.224 . S
C107 O126 1.247 . S
O108 C107 1.224 . S
N109 Co99 2.128 . S
N109 C110 1.355 . S
N109 C112 1.311 . S
C110 N109 1.355 . S
C110 C111 1.363 . S
C110 H122 0.929 . S
C111 C110 1.363 . S
C111 N113 1.375 . S
C111 H129 0.931 . S
C112 N109 1.311 . S
C112 N113 1.347 . S
C112 H123 0.929 . S
N113 C111 1.375 . S
N113 C112 1.347 . S
C114 C117 1.365 . S
C114 N119 1.328 . S
C114 H120 0.929 . S
C115 C116 1.362 . S
C115 C118 1.378 . S
C115 H130 0.929 . S
C116 C115 1.362 . S
C116 C117 1.366 . S
C117 C114 1.365 . S
C117 C116 1.366 . S
C117 H131 0.930 . S
C118 C115 1.378 . S
C118 N119 1.315 . S
C118 H121 0.930 . S
N119 Co99 2.194 . S
N119 C114 1.328 . S
N119 C118 1.315 . S
H120 C114 0.929 . S
H121 C118 0.930 . S
H122 C110 0.929 . S
H123 C112 0.929 . S
O124 Co99 2.351 . S
O124 C127 1.244 . S
O125 Co99 2.155 . S
O125 C127 1.240 . S
O126 Co99 2.096 . S
O126 C107 1.247 . S
C127 O124 1.244 . S
C127 O125 1.240 . S
H128 C102 0.931 . S
H129 C111 0.931 . S
H130 C115 0.929 . S
H131 C117 0.930 . S
Co132 N136 2.148 . S
Co132 N142 2.128 . S
Co132 N152 2.194 . S
Co132 O157 2.351 . S
Co132 O158 2.155 . S
Co132 O159 2.096 . S
C133 N136 1.301 . S
C133 N137 1.328 . S
C133 H138 0.930 . S
C134 C135 1.333 . S
C134 N136 1.317 . S
C134 H139 0.930 . S
C135 C134 1.333 . S
C135 N137 1.350 . S
C135 H161 0.931 . S
N136 Co132 2.148 . S
N136 C133 1.301 . S
N136 C134 1.317 . S
N137 C133 1.328 . S
N137 C135 1.350 . S
H138 C133 0.930 . S
H139 C134 0.930 . S
C140 O141 1.224 . S
C140 O159 1.247 . S
O141 C140 1.224 . S
N142 Co132 2.128 . S
N142 C143 1.355 . S
N142 C145 1.311 . S
C143 N142 1.355 . S
C143 C144 1.363 . S
C143 H155 0.929 . S
C144 C143 1.363 . S
C144 N146 1.375 . S
C144 H162 0.931 . S
C145 N142 1.311 . S
C145 N146 1.347 . S
C145 H156 0.929 . S
N146 C144 1.375 . S
N146 C145 1.347 . S
C147 C150 1.365 . S
C147 N152 1.328 . S
C147 H153 0.929 . S
C148 C149 1.362 . S
C148 C151 1.378 . S
C148 H163 0.929 . S
C149 C148 1.362 . S
C149 C150 1.366 . S
C150 C147 1.365 . S
C150 C149 1.366 . S
C150 H164 0.930 . S
C151 C148 1.378 . S
C151 N152 1.315 . S
C151 H154 0.930 . S
N152 Co132 2.194 . S
N152 C147 1.328 . S
N152 C151 1.315 . S
H153 C147 0.929 . S
H154 C151 0.930 . S
H155 C143 0.929 . S
H156 C145 0.929 . S
O157 Co132 2.351 . S
O157 C160 1.244 . S
O158 Co132 2.155 . S
O158 C160 1.240 . S
O159 Co132 2.096 . S
O159 C140 1.247 . S
C160 O157 1.244 . S
C160 O158 1.240 . S
H161 C135 0.931 . S
H162 C144 0.931 . S
H163 C148 0.929 . S
H164 C150 0.930 . S
Co165 N169 2.148 . S
Co165 N175 2.128 . S
Co165 N185 2.194 . S
Co165 O190 2.351 . S
Co165 O191 2.155 . S
Co165 O192 2.096 . S
C166 N169 1.301 . S
C166 N170 1.328 . S
C166 H171 0.930 . S
C167 C168 1.333 . S
C167 N169 1.317 . S
C167 H172 0.930 . S
C168 C167 1.333 . S
C168 N170 1.350 . S
C168 H194 0.931 . S
N169 Co165 2.148 . S
N169 C166 1.301 . S
N169 C167 1.317 . S
N170 C166 1.328 . S
N170 C168 1.350 . S
H171 C166 0.930 . S
H172 C167 0.930 . S
C173 O174 1.224 . S
C173 O192 1.247 . S
O174 C173 1.224 . S
N175 Co165 2.128 . S
N175 C176 1.355 . S
N175 C178 1.311 . S
C176 N175 1.355 . S
C176 C177 1.363 . S
C176 H188 0.929 . S
C177 C176 1.363 . S
C177 N179 1.375 . S
C177 H195 0.931 . S
C178 N175 1.311 . S
C178 N179 1.347 . S
C178 H189 0.929 . S
N179 C177 1.375 . S
N179 C178 1.347 . S
C180 C183 1.365 . S
C180 N185 1.328 . S
C180 H186 0.929 . S
C181 C182 1.362 . S
C181 C184 1.378 . S
C181 H196 0.929 . S
C182 C181 1.362 . S
C182 C183 1.366 . S
C183 C180 1.365 . S
C183 C182 1.366 . S
C183 H197 0.930 . S
C184 C181 1.378 . S
C184 N185 1.315 . S
C184 H187 0.930 . S
N185 Co165 2.194 . S
N185 C180 1.328 . S
N185 C184 1.315 . S
H186 C180 0.929 . S
H187 C184 0.930 . S
H188 C176 0.929 . S
H189 C178 0.929 . S
O190 Co165 2.351 . S
O190 C193 1.244 . S
O191 Co165 2.155 . S
O191 C193 1.240 . S
O192 Co165 2.096 . S
O192 C173 1.247 . S
C193 O190 1.244 . S
C193 O191 1.240 . S
H194 C168 0.931 . S
H195 C177 0.931 . S
H196 C181 0.929 . S
H197 C183 0.930 . S
Co198 N202 2.148 . S
Co198 N208 2.128 . S
Co198 N218 2.194 . S
Co198 O223 2.351 . S
Co198 O224 2.155 . S
Co198 O225 2.096 . S
C199 N202 1.301 . S
C199 N203 1.328 . S
C199 H204 0.930 . S
C200 C201 1.333 . S
C200 N202 1.317 . S
C200 H205 0.930 . S
C201 C200 1.333 . S
C201 N203 1.350 . S
C201 H227 0.931 . S
N202 Co198 2.148 . S
N202 C199 1.301 . S
N202 C200 1.317 . S
N203 C199 1.328 . S
N203 C201 1.350 . S
H204 C199 0.930 . S
H205 C200 0.930 . S
C206 O207 1.224 . S
C206 O225 1.247 . S
O207 C206 1.224 . S
N208 Co198 2.128 . S
N208 C209 1.355 . S
N208 C211 1.311 . S
C209 N208 1.355 . S
C209 C210 1.363 . S
C209 H221 0.929 . S
C210 C209 1.363 . S
C210 N212 1.375 . S
C210 H228 0.931 . S
C211 N208 1.311 . S
C211 N212 1.347 . S
C211 H222 0.929 . S
N212 C210 1.375 . S
N212 C211 1.347 . S
C213 C216 1.365 . S
C213 N218 1.328 . S
C213 H219 0.929 . S
C214 C215 1.362 . S
C214 C217 1.378 . S
C214 H229 0.929 . S
C215 C214 1.362 . S
C215 C216 1.366 . S
C216 C213 1.365 . S
C216 C215 1.366 . S
C216 H230 0.930 . S
C217 C214 1.378 . S
C217 N218 1.315 . S
C217 H220 0.930 . S
N218 Co198 2.194 . S
N218 C213 1.328 . S
N218 C217 1.315 . S
H219 C213 0.929 . S
H220 C217 0.930 . S
H221 C209 0.929 . S
H222 C211 0.929 . S
O223 Co198 2.351 . S
O223 C226 1.244 . S
O224 Co198 2.155 . S
O224 C226 1.240 . S
O225 Co198 2.096 . S
O225 C206 1.247 . S
C226 O223 1.244 . S
C226 O224 1.240 . S
H227 C201 0.931 . S
H228 C210 0.931 . S
H229 C214 0.929 . S
H230 C216 0.930 . S
Co231 N235 2.148 . S
Co231 N241 2.128 . S
Co231 N251 2.194 . S
Co231 O256 2.351 . S
Co231 O257 2.155 . S
Co231 O258 2.096 . S
C232 N235 1.301 . S
C232 N236 1.328 . S
C232 H237 0.930 . S
C233 C234 1.333 . S
C233 N235 1.317 . S
C233 H238 0.930 . S
C234 C233 1.333 . S
C234 N236 1.350 . S
C234 H260 0.931 . S
N235 Co231 2.148 . S
N235 C232 1.301 . S
N235 C233 1.317 . S
N236 C232 1.328 . S
N236 C234 1.350 . S
H237 C232 0.930 . S
H238 C233 0.930 . S
C239 O240 1.224 . S
C239 O258 1.247 . S
O240 C239 1.224 . S
N241 Co231 2.128 . S
N241 C242 1.355 . S
N241 C244 1.311 . S
C242 N241 1.355 . S
C242 C243 1.363 . S
C242 H254 0.929 . S
C243 C242 1.363 . S
C243 N245 1.375 . S
C243 H261 0.931 . S
C244 N241 1.311 . S
C244 N245 1.347 . S
C244 H255 0.929 . S
N245 C243 1.375 . S
N245 C244 1.347 . S
C246 C249 1.365 . S
C246 N251 1.328 . S
C246 H252 0.929 . S
C247 C248 1.362 . S
C247 C250 1.378 . S
C247 H262 0.929 . S
C248 C247 1.362 . S
C248 C249 1.366 . S
C249 C246 1.365 . S
C249 C248 1.366 . S
C249 H263 0.930 . S
C250 C247 1.378 . S
C250 N251 1.315 . S
C250 H253 0.930 . S
N251 Co231 2.194 . S
N251 C246 1.328 . S
N251 C250 1.315 . S
H252 C246 0.929 . S
H253 C250 0.930 . S
H254 C242 0.929 . S
H255 C244 0.929 . S
O256 Co231 2.351 . S
O256 C259 1.244 . S
O257 Co231 2.155 . S
O257 C259 1.240 . S
O258 Co231 2.096 . S
O258 C239 1.247 . S
C259 O256 1.244 . S
C259 O257 1.240 . S
H260 C234 0.931 . S
H261 C243 0.931 . S
H262 C247 0.929 . S
H263 C249 0.930 . S
Co264 N268 2.148 . S
Co264 N274 2.128 . S
Co264 N284 2.194 . S
Co264 O289 2.351 . S
Co264 O290 2.155 . S
Co264 O291 2.096 . S
C265 N268 1.301 . S
C265 N269 1.328 . S
C265 H270 0.930 . S
C266 C267 1.333 . S
C266 N268 1.317 . S
C266 H271 0.930 . S
C267 C266 1.333 . S
C267 N269 1.350 . S
C267 H293 0.931 . S
N268 Co264 2.148 . S
N268 C265 1.301 . S
N268 C266 1.317 . S
N269 C265 1.328 . S
N269 C267 1.350 . S
H270 C265 0.930 . S
H271 C266 0.930 . S
C272 O273 1.224 . S
C272 O291 1.247 . S
O273 C272 1.224 . S
N274 Co264 2.128 . S
N274 C275 1.355 . S
N274 C277 1.311 . S
C275 N274 1.355 . S
C275 C276 1.363 . S
C275 H287 0.929 . S
C276 C275 1.363 . S
C276 N278 1.375 . S
C276 H294 0.931 . S
C277 N274 1.311 . S
C277 N278 1.347 . S
C277 H288 0.929 . S
N278 C276 1.375 . S
N278 C277 1.347 . S
C279 C282 1.365 . S
C279 N284 1.328 . S
C279 H285 0.929 . S
C280 C281 1.362 . S
C280 C283 1.378 . S
C280 H295 0.929 . S
C281 C280 1.362 . S
C281 C282 1.366 . S
C282 C279 1.365 . S
C282 C281 1.366 . S
C282 H296 0.930 . S
C283 C280 1.378 . S
C283 N284 1.315 . S
C283 H286 0.930 . S
N284 Co264 2.194 . S
N284 C279 1.328 . S
N284 C283 1.315 . S
H285 C279 0.929 . S
H286 C283 0.930 . S
H287 C275 0.929 . S
H288 C277 0.929 . S
O289 Co264 2.351 . S
O289 C292 1.244 . S
O290 Co264 2.155 . S
O290 C292 1.240 . S
O291 Co264 2.096 . S
O291 C272 1.247 . S
C292 O289 1.244 . S
C292 O290 1.240 . S
H293 C267 0.931 . S
H294 C276 0.931 . S
H295 C280 0.929 . S
H296 C282 0.930 . S
Co297 N301 2.148 . S
Co297 N307 2.128 . S
Co297 N317 2.194 . S
Co297 O322 2.351 . S
Co297 O323 2.155 . S
Co297 O324 2.096 . S
C298 N301 1.301 . S
C298 N302 1.328 . S
C298 H303 0.930 . S
C299 C300 1.333 . S
C299 N301 1.317 . S
C299 H304 0.930 . S
C300 C299 1.333 . S
C300 N302 1.350 . S
C300 H326 0.931 . S
N301 Co297 2.148 . S
N301 C298 1.301 . S
N301 C299 1.317 . S
N302 C298 1.328 . S
N302 C300 1.350 . S
H303 C298 0.930 . S
H304 C299 0.930 . S
C305 O306 1.224 . S
C305 O324 1.247 . S
O306 C305 1.224 . S
N307 Co297 2.128 . S
N307 C308 1.355 . S
N307 C310 1.311 . S
C308 N307 1.355 . S
C308 C309 1.363 . S
C308 H320 0.929 . S
C309 C308 1.363 . S
C309 N311 1.375 . S
C309 H327 0.931 . S
C310 N307 1.311 . S
C310 N311 1.347 . S
C310 H321 0.929 . S
N311 C309 1.375 . S
N311 C310 1.347 . S
C312 C315 1.365 . S
C312 N317 1.328 . S
C312 H318 0.929 . S
C313 C314 1.362 . S
C313 C316 1.378 . S
C313 H328 0.929 . S
C314 C313 1.362 . S
C314 C315 1.366 . S
C315 C312 1.365 . S
C315 C314 1.366 . S
C315 H329 0.930 . S
C316 C313 1.378 . S
C316 N317 1.315 . S
C316 H319 0.930 . S
N317 Co297 2.194 . S
N317 C312 1.328 . S
N317 C316 1.315 . S
H318 C312 0.929 . S
H319 C316 0.930 . S
H320 C308 0.929 . S
H321 C310 0.929 . S
O322 Co297 2.351 . S
O322 C325 1.244 . S
O323 Co297 2.155 . S
O323 C325 1.240 . S
O324 Co297 2.096 . S
O324 C305 1.247 . S
C325 O322 1.244 . S
C325 O323 1.240 . S
H326 C300 0.931 . S
H327 C309 0.931 . S
H328 C313 0.929 . S
H329 C315 0.930 . S
Co330 N334 2.148 . S
Co330 N340 2.128 . S
Co330 N350 2.194 . S
Co330 O355 2.351 . S
Co330 O356 2.155 . S
Co330 O357 2.096 . S
C331 N334 1.301 . S
C331 N335 1.328 . S
C331 H336 0.930 . S
C332 C333 1.333 . S
C332 N334 1.317 . S
C332 H337 0.930 . S
C333 C332 1.333 . S
C333 N335 1.350 . S
C333 H359 0.931 . S
N334 Co330 2.148 . S
N334 C331 1.301 . S
N334 C332 1.317 . S
N335 C331 1.328 . S
N335 C333 1.350 . S
H336 C331 0.930 . S
H337 C332 0.930 . S
C338 O339 1.224 . S
C338 O357 1.247 . S
O339 C338 1.224 . S
N340 Co330 2.128 . S
N340 C341 1.355 . S
N340 C343 1.311 . S
C341 N340 1.355 . S
C341 C342 1.363 . S
C341 H353 0.929 . S
C342 C341 1.363 . S
C342 N344 1.375 . S
C342 H360 0.931 . S
C343 N340 1.311 . S
C343 N344 1.347 . S
C343 H354 0.929 . S
N344 C342 1.375 . S
N344 C343 1.347 . S
C345 C348 1.365 . S
C345 N350 1.328 . S
C345 H351 0.929 . S
C346 C347 1.362 . S
C346 C349 1.378 . S
C346 H361 0.929 . S
C347 C346 1.362 . S
C347 C348 1.366 . S
C348 C345 1.365 . S
C348 C347 1.366 . S
C348 H362 0.930 . S
C349 C346 1.378 . S
C349 N350 1.315 . S
C349 H352 0.930 . S
N350 Co330 2.194 . S
N350 C345 1.328 . S
N350 C349 1.315 . S
H351 C345 0.929 . S
H352 C349 0.930 . S
H353 C341 0.929 . S
H354 C343 0.929 . S
O355 Co330 2.351 . S
O355 C358 1.244 . S
O356 Co330 2.155 . S
O356 C358 1.240 . S
O357 Co330 2.096 . S
O357 C338 1.247 . S
C358 O355 1.244 . S
C358 O356 1.240 . S
H359 C333 0.931 . S
H360 C342 0.931 . S
H361 C346 0.929 . S
H362 C348 0.930 . S
Co363 N367 2.148 . S
Co363 N373 2.128 . S
Co363 N383 2.194 . S
Co363 O388 2.351 . S
Co363 O389 2.155 . S
Co363 O390 2.096 . S
C364 N367 1.301 . S
C364 N368 1.328 . S
C364 H369 0.930 . S
C365 C366 1.333 . S
C365 N367 1.317 . S
C365 H370 0.930 . S
C366 C365 1.333 . S
C366 N368 1.350 . S
C366 H392 0.931 . S
N367 Co363 2.148 . S
N367 C364 1.301 . S
N367 C365 1.317 . S
N368 C364 1.328 . S
N368 C366 1.350 . S
H369 C364 0.930 . S
H370 C365 0.930 . S
C371 O372 1.224 . S
C371 O390 1.247 . S
O372 C371 1.224 . S
N373 Co363 2.128 . S
N373 C374 1.355 . S
N373 C376 1.311 . S
C374 N373 1.355 . S
C374 C375 1.363 . S
C374 H386 0.929 . S
C375 C374 1.363 . S
C375 N377 1.375 . S
C375 H393 0.931 . S
C376 N373 1.311 . S
C376 N377 1.347 . S
C376 H387 0.929 . S
N377 C375 1.375 . S
N377 C376 1.347 . S
C378 C381 1.365 . S
C378 N383 1.328 . S
C378 H384 0.929 . S
C379 C380 1.362 . S
C379 C382 1.378 . S
C379 H394 0.929 . S
C380 C379 1.362 . S
C380 C381 1.366 . S
C381 C378 1.365 . S
C381 C380 1.366 . S
C381 H395 0.930 . S
C382 C379 1.378 . S
C382 N383 1.315 . S
C382 H385 0.930 . S
N383 Co363 2.194 . S
N383 C378 1.328 . S
N383 C382 1.315 . S
H384 C378 0.929 . S
H385 C382 0.930 . S
H386 C374 0.929 . S
H387 C376 0.929 . S
O388 Co363 2.351 . S
O388 C391 1.244 . S
O389 Co363 2.155 . S
O389 C391 1.240 . S
O390 Co363 2.096 . S
O390 C371 1.247 . S
C391 O388 1.244 . S
C391 O389 1.240 . S
H392 C366 0.931 . S
H393 C375 0.931 . S
H394 C379 0.929 . S
H395 C381 0.930 . S
H396 C404 0.929 . S
H397 C406 0.930 . S
H398 C408 0.930 . S
H399 C411 0.929 . S
H400 C414 0.930 . S
H401 C416 0.960 . S
H402 C416 0.960 . S
H403 C416 0.960 . S
C404 H396 0.929 . S
C404 C405 1.377 . S
C404 C406 1.384 . S
C405 C404 1.377 . S
C405 C411 1.390 . S
C406 H397 0.930 . S
C406 C404 1.384 . S
C406 C407 1.372 . S
C407 C406 1.372 . S
C407 C408 1.400 . S
C407 C412 1.490 . S
C408 H398 0.930 . S
C408 C407 1.400 . S
C408 C411 1.386 . S
H409 C425 0.930 . S
H410 C426 0.931 . S
C411 H399 0.929 . S
C411 C405 1.390 . S
C411 C408 1.386 . S
C412 C407 1.490 . S
C412 C414 1.395 . S
C412 C415 1.403 . S
H413 C419 0.930 . S
C414 H400 0.930 . S
C414 C412 1.395 . S
C414 C417 1.403 . S
C415 C412 1.403 . S
C415 C416 1.524 . S
C415 C419 1.400 . S
C416 H401 0.960 . S
C416 H402 0.960 . S
C416 H403 0.960 . S
C416 C415 1.524 . S
C417 C414 1.403 . S
C417 C418 1.392 . S
C417 C421 1.495 . S
C418 C417 1.392 . S
C418 C419 1.385 . S
C418 C420 1.478 . S
C419 H413 0.930 . S
C419 C415 1.400 . S
C419 C418 1.385 . S
C420 C418 1.478 . S
C420 C422 1.381 . S
C420 C426 1.383 . S
C421 C417 1.495 . S
C421 H427 0.959 . S
C421 H428 0.961 . S
C421 H429 0.960 . S
C422 C420 1.381 . S
C422 C423 1.394 . S
C422 H430 0.930 . S
C423 C422 1.394 . S
C423 C424 1.383 . S
C423 H431 0.929 . S
C424 C423 1.383 . S
C424 C425 1.377 . S
C425 H409 0.930 . S
C425 C424 1.377 . S
C425 C426 1.379 . S
C426 H410 0.931 . S
C426 C420 1.383 . S
C426 C425 1.379 . S
H427 C421 0.959 . S
H428 C421 0.961 . S
H429 C421 0.960 . S
H430 C422 0.930 . S
H431 C423 0.929 . S
H432 C440 0.929 . S
H433 C442 0.930 . S
H434 C444 0.930 . S
H435 C447 0.929 . S
H436 C450 0.930 . S
H437 C452 0.960 . S
H438 C452 0.960 . S
H439 C452 0.960 . S
C440 H432 0.929 . S
C440 C441 1.377 . S
C440 C442 1.384 . S
C441 C440 1.377 . S
C441 C447 1.390 . S
C442 H433 0.930 . S
C442 C440 1.384 . S
C442 C443 1.372 . S
C443 C442 1.372 . S
C443 C444 1.400 . S
C443 C448 1.490 . S
C444 H434 0.930 . S
C444 C443 1.400 . S
C444 C447 1.386 . S
H445 C461 0.930 . S
H446 C462 0.931 . S
C447 H435 0.929 . S
C447 C441 1.390 . S
C447 C444 1.386 . S
C448 C443 1.490 . S
C448 C450 1.395 . S
C448 C451 1.403 . S
H449 C455 0.930 . S
C450 H436 0.930 . S
C450 C448 1.395 . S
C450 C453 1.403 1_655 S
C451 C448 1.403 . S
C451 C452 1.524 . S
C451 C455 1.400 1_655 S
C452 H437 0.960 . S
C452 H438 0.960 . S
C452 H439 0.960 . S
C452 C451 1.524 . S
C453 C450 1.403 1_455 S
C453 C454 1.392 . S
C453 C457 1.495 . S
C454 C453 1.392 . S
C454 C455 1.385 . S
C454 C456 1.478 . S
C455 H449 0.930 . S
C455 C451 1.400 1_455 S
C455 C454 1.385 . S
C456 C454 1.478 . S
C456 C458 1.381 . S
C456 C462 1.383 . S
C457 C453 1.495 . S
C457 H463 0.959 . S
C457 H464 0.961 . S
C457 H465 0.960 . S
C458 C456 1.381 . S
C458 C459 1.394 . S
C458 H466 0.930 . S
C459 C458 1.394 . S
C459 C460 1.383 . S
C459 H467 0.929 . S
C460 C459 1.383 . S
C460 C461 1.377 . S
C461 H445 0.930 . S
C461 C460 1.377 . S
C461 C462 1.379 . S
C462 H446 0.931 . S
C462 C456 1.383 . S
C462 C461 1.379 . S
H463 C457 0.959 . S
H464 C457 0.961 . S
H465 C457 0.960 . S
H466 C458 0.930 . S
H467 C459 0.929 . S
H468 C476 0.929 . S
H469 C478 0.930 . S
H470 C480 0.930 . S
H471 C483 0.929 . S
H472 C486 0.930 . S
H473 C488 0.960 . S
H474 C488 0.960 . S
H475 C488 0.960 . S
C476 H468 0.929 . S
C476 C477 1.377 . S
C476 C478 1.384 . S
C477 C476 1.377 . S
C477 C483 1.390 . S
C478 H469 0.930 . S
C478 C476 1.384 . S
C478 C479 1.372 . S
C479 C478 1.372 . S
C479 C480 1.400 . S
C479 C484 1.490 . S
C480 H470 0.930 . S
C480 C479 1.400 . S
C480 C483 1.386 . S
H481 C497 0.930 . S
H482 C498 0.931 . S
C483 H471 0.929 . S
C483 C477 1.390 . S
C483 C480 1.386 . S
C484 C479 1.490 . S
C484 C486 1.395 . S
C484 C487 1.403 . S
H485 C491 0.930 . S
C486 H472 0.930 . S
C486 C484 1.395 . S
C486 C489 1.403 1_545 S
C487 C484 1.403 . S
C487 C488 1.524 . S
C487 C491 1.400 1_545 S
C488 H473 0.960 . S
C488 H474 0.960 . S
C488 H475 0.960 . S
C488 C487 1.524 . S
C489 C486 1.403 1_565 S
C489 C490 1.392 . S
C489 C493 1.495 . S
C490 C489 1.392 . S
C490 C491 1.385 . S
C490 C492 1.478 . S
C491 H485 0.930 . S
C491 C487 1.400 1_565 S
C491 C490 1.385 . S
C492 C490 1.478 . S
C492 C494 1.381 . S
C492 C498 1.383 . S
C493 C489 1.495 . S
C493 H499 0.959 . S
C493 H500 0.961 . S
C493 H501 0.960 . S
C494 C492 1.381 . S
C494 C495 1.394 . S
C494 H502 0.930 . S
C495 C494 1.394 . S
C495 C496 1.383 . S
C495 H503 0.929 . S
C496 C495 1.383 . S
C496 C497 1.377 . S
C497 H481 0.930 . S
C497 C496 1.377 . S
C497 C498 1.379 . S
C498 H482 0.931 . S
C498 C492 1.383 . S
C498 C497 1.379 . S
H499 C493 0.959 . S
H500 C493 0.961 . S
H501 C493 0.960 . S
H502 C494 0.930 . S
H503 C495 0.929 . S
H504 C512 0.929 . S
H505 C514 0.930 . S
H506 C516 0.930 . S
H507 C519 0.929 . S
H508 C522 0.930 . S
H509 C524 0.960 . S
H510 C524 0.960 . S
H511 C524 0.960 . S
C512 H504 0.929 . S
C512 C513 1.377 . S
C512 C514 1.384 . S
C513 C512 1.377 . S
C513 C519 1.390 . S
C514 H505 0.930 . S
C514 C512 1.384 . S
C514 C515 1.372 . S
C515 C514 1.372 . S
C515 C516 1.400 . S
C515 C520 1.490 . S
C516 H506 0.930 . S
C516 C515 1.400 . S
C516 C519 1.386 . S
H517 C533 0.930 . S
H518 C534 0.931 . S
C519 H507 0.929 . S
C519 C513 1.390 . S
C519 C516 1.386 . S
C520 C515 1.490 . S
C520 C522 1.395 . S
C520 C523 1.403 . S
H521 C527 0.930 . S
C522 H508 0.930 . S
C522 C520 1.395 . S
C522 C525 1.403 . S
C523 C520 1.403 . S
C523 C524 1.524 . S
C523 C527 1.400 . S
C524 H509 0.960 . S
C524 H510 0.960 . S
C524 H511 0.960 . S
C524 C523 1.524 . S
C525 C522 1.403 . S
C525 C526 1.392 . S
C525 C529 1.495 . S
C526 C525 1.392 . S
C526 C527 1.385 . S
C526 C528 1.478 . S
C527 H521 0.930 . S
C527 C523 1.400 . S
C527 C526 1.385 . S
C528 C526 1.478 . S
C528 C530 1.381 . S
C528 C534 1.383 . S
C529 C525 1.495 . S
C529 H535 0.959 . S
C529 H536 0.961 . S
C529 H537 0.960 . S
C530 C528 1.381 . S
C530 C531 1.394 . S
C530 H538 0.930 . S
C531 C530 1.394 . S
C531 C532 1.383 . S
C531 H539 0.929 . S
C532 C531 1.383 . S
C532 C533 1.377 . S
C533 H517 0.930 . S
C533 C532 1.377 . S
C533 C534 1.379 . S
C534 H518 0.931 . S
C534 C528 1.383 . S
C534 C533 1.379 . S
H535 C529 0.959 . S
H536 C529 0.961 . S
H537 C529 0.960 . S
H538 C530 0.930 . S
H539 C531 0.929 . S
H540 C548 0.929 . S
H541 C550 0.930 . S
H542 C552 0.930 . S
H543 C555 0.929 . S
H544 C558 0.930 . S
H545 C560 0.960 . S
H546 C560 0.960 . S
H547 C560 0.960 . S
C548 H540 0.929 . S
C548 C549 1.377 . S
C548 C550 1.384 . S
C549 C548 1.377 . S
C549 C555 1.390 . S
C550 H541 0.930 . S
C550 C548 1.384 . S
C550 C551 1.372 . S
C551 C550 1.372 . S
C551 C552 1.400 . S
C551 C556 1.490 . S
C552 H542 0.930 . S
C552 C551 1.400 . S
C552 C555 1.386 . S
H553 C569 0.930 . S
H554 C570 0.931 . S
C555 H543 0.929 . S
C555 C549 1.390 . S
C555 C552 1.386 . S
C556 C551 1.490 . S
C556 C558 1.395 . S
C556 C559 1.403 . S
H557 C563 0.930 . S
C558 H544 0.930 . S
C558 C556 1.395 . S
C558 C561 1.403 1_455 S
C559 C556 1.403 . S
C559 C560 1.524 . S
C559 C563 1.400 1_455 S
C560 H545 0.960 . S
C560 H546 0.960 . S
C560 H547 0.960 . S
C560 C559 1.524 . S
C561 C558 1.403 1_655 S
C561 C562 1.392 . S
C561 C565 1.495 . S
C562 C561 1.392 . S
C562 C563 1.385 . S
C562 C564 1.478 . S
C563 H557 0.930 . S
C563 C559 1.400 1_655 S
C563 C562 1.385 . S
C564 C562 1.478 . S
C564 C566 1.381 . S
C564 C570 1.383 . S
C565 C561 1.495 . S
C565 H571 0.959 . S
C565 H572 0.961 . S
C565 H573 0.960 . S
C566 C564 1.381 . S
C566 C567 1.394 . S
C566 H574 0.930 . S
C567 C566 1.394 . S
C567 C568 1.383 . S
C567 H575 0.929 . S
C568 C567 1.383 . S
C568 C569 1.377 . S
C569 H553 0.930 . S
C569 C568 1.377 . S
C569 C570 1.379 . S
C570 H554 0.931 . S
C570 C564 1.383 . S
C570 C569 1.379 . S
H571 C565 0.959 . S
H572 C565 0.961 . S
H573 C565 0.960 . S
H574 C566 0.930 . S
H575 C567 0.929 . S
H576 C584 0.929 . S
H577 C586 0.930 . S
H578 C588 0.930 . S
H579 C591 0.929 . S
H580 C594 0.930 . S
H581 C596 0.960 . S
H582 C596 0.960 . S
H583 C596 0.960 . S
C584 H576 0.929 . S
C584 C585 1.377 . S
C584 C586 1.384 . S
C585 C584 1.377 . S
C585 C591 1.390 . S
C586 H577 0.930 . S
C586 C584 1.384 . S
C586 C587 1.372 . S
C587 C586 1.372 . S
C587 C588 1.400 . S
C587 C592 1.490 . S
C588 H578 0.930 . S
C588 C587 1.400 . S
C588 C591 1.386 . S
H589 C605 0.930 . S
H590 C606 0.931 . S
C591 H579 0.929 . S
C591 C585 1.390 . S
C591 C588 1.386 . S
C592 C587 1.490 . S
C592 C594 1.395 . S
C592 C595 1.403 . S
H593 C599 0.930 . S
C594 H580 0.930 . S
C594 C592 1.395 . S
C594 C597 1.403 1_565 S
C595 C592 1.403 . S
C595 C596 1.524 . S
C595 C599 1.400 1_565 S
C596 H581 0.960 . S
C596 H582 0.960 . S
C596 H583 0.960 . S
C596 C595 1.524 . S
C597 C594 1.403 1_545 S
C597 C598 1.392 . S
C597 C601 1.495 . S
C598 C597 1.392 . S
C598 C599 1.385 . S
C598 C600 1.478 . S
C599 H593 0.930 . S
C599 C595 1.400 1_545 S
C599 C598 1.385 . S
C600 C598 1.478 . S
C600 C602 1.381 . S
C600 C606 1.383 . S
C601 C597 1.495 . S
C601 H607 0.959 . S
C601 H608 0.961 . S
C601 H609 0.960 . S
C602 C600 1.381 . S
C602 C603 1.394 . S
C602 H610 0.930 . S
C603 C602 1.394 . S
C603 C604 1.383 . S
C603 H611 0.929 . S
C604 C603 1.383 . S
C604 C605 1.377 . S
C605 H589 0.930 . S
C605 C604 1.377 . S
C605 C606 1.379 . S
C606 H590 0.931 . S
C606 C600 1.383 . S
C606 C605 1.379 . S
H607 C601 0.959 . S
H608 C601 0.961 . S
H609 C601 0.960 . S
H610 C602 0.930 . S
H611 C603 0.929 . S
H612 C620 0.929 . S
H613 C622 0.930 . S
H614 C624 0.930 . S
H615 C627 0.929 . S
H616 C630 0.930 . S
H617 C632 0.960 . S
H618 C632 0.960 . S
H619 C632 0.960 . S
C620 H612 0.929 . S
C620 C621 1.377 . S
C620 C622 1.384 . S
C621 C620 1.377 . S
C621 C627 1.390 . S
C622 H613 0.930 . S
C622 C620 1.384 . S
C622 C623 1.372 . S
C623 C622 1.372 . S
C623 C624 1.400 . S
C623 C628 1.490 . S
C624 H614 0.930 . S
C624 C623 1.400 . S
C624 C627 1.386 . S
H625 C641 0.930 . S
H626 C642 0.931 . S
C627 H615 0.929 . S
C627 C621 1.390 . S
C627 C624 1.386 . S
C628 C623 1.490 . S
C628 C630 1.395 . S
C628 C631 1.403 . S
H629 C635 0.930 . S
C630 H616 0.930 . S
C630 C628 1.395 . S
C630 C633 1.403 1_556 S
C631 C628 1.403 . S
C631 C632 1.524 . S
C631 C635 1.400 1_556 S
C632 H617 0.960 . S
C632 H618 0.960 . S
C632 H619 0.960 . S
C632 C631 1.524 . S
C633 C630 1.403 1_554 S
C633 C634 1.392 . S
C633 C637 1.495 . S
C634 C633 1.392 . S
C634 C635 1.385 . S
C634 C636 1.478 . S
C635 H629 0.930 . S
C635 C631 1.400 1_554 S
C635 C634 1.385 . S
C636 C634 1.478 . S
C636 C638 1.381 . S
C636 C642 1.383 . S
C637 C633 1.495 . S
C637 H643 0.959 . S
C637 H644 0.961 . S
C637 H645 0.960 . S
C638 C636 1.381 . S
C638 C639 1.394 . S
C638 H646 0.930 . S
C639 C638 1.394 . S
C639 C640 1.383 . S
C639 H647 0.929 . S
C640 C639 1.383 . S
C640 C641 1.377 . S
C641 H625 0.930 . S
C641 C640 1.377 . S
C641 C642 1.379 . S
C642 H626 0.931 . S
C642 C636 1.383 . S
C642 C641 1.379 . S
H643 C637 0.959 . S
H644 C637 0.961 . S
H645 C637 0.960 . S
H646 C638 0.930 . S
H647 C639 0.929 . S
H648 C656 0.929 . S
H649 C658 0.930 . S
H650 C660 0.930 . S
H651 C663 0.929 . S
H652 C666 0.930 . S
H653 C668 0.960 . S
H654 C668 0.960 . S
H655 C668 0.960 . S
C656 H648 0.929 . S
C656 C657 1.377 . S
C656 C658 1.384 . S
C657 C656 1.377 . S
C657 C663 1.390 . S
C658 H649 0.930 . S
C658 C656 1.384 . S
C658 C659 1.372 . S
C659 C658 1.372 . S
C659 C660 1.400 . S
C659 C664 1.490 . S
C660 H650 0.930 . S
C660 C659 1.400 . S
C660 C663 1.386 . S
H661 C677 0.930 . S
H662 C678 0.931 . S
C663 H651 0.929 . S
C663 C657 1.390 . S
C663 C660 1.386 . S
C664 C659 1.490 . S
C664 C666 1.395 . S
C664 C667 1.403 . S
H665 C671 0.930 . S
C666 H652 0.930 . S
C666 C664 1.395 . S
C666 C669 1.403 . S
C667 C664 1.403 . S
C667 C668 1.524 . S
C667 C671 1.400 . S
C668 H653 0.960 . S
C668 H654 0.960 . S
C668 H655 0.960 . S
C668 C667 1.524 . S
C669 C666 1.403 . S
C669 C670 1.392 . S
C669 C673 1.495 . S
C670 C669 1.392 . S
C670 C671 1.385 . S
C670 C672 1.478 . S
C671 H665 0.930 . S
C671 C667 1.400 . S
C671 C670 1.385 . S
C672 C670 1.478 . S
C672 C674 1.381 . S
C672 C678 1.383 . S
C673 C669 1.495 . S
C673 H679 0.959 . S
C673 H680 0.961 . S
C673 H681 0.960 . S
C674 C672 1.381 . S
C674 C675 1.394 . S
C674 H682 0.930 . S
C675 C674 1.394 . S
C675 C676 1.383 . S
C675 H683 0.929 . S
C676 C675 1.383 . S
C676 C677 1.377 . S
C677 H661 0.930 . S
C677 C676 1.377 . S
C677 C678 1.379 . S
C678 H662 0.931 . S
C678 C672 1.383 . S
C678 C677 1.379 . S
H679 C673 0.959 . S
H680 C673 0.961 . S
H681 C673 0.960 . S
H682 C674 0.930 . S
H683 C675 0.929 . S
H684 C692 0.929 . S
H685 C694 0.930 . S
H686 C696 0.930 . S
H687 C699 0.929 . S
H688 C702 0.930 . S
H689 C704 0.960 . S
H690 C704 0.960 . S
H691 C704 0.960 . S
C692 H684 0.929 . S
C692 C693 1.377 . S
C692 C694 1.384 . S
C693 C692 1.377 . S
C693 C699 1.390 . S
C694 H685 0.930 . S
C694 C692 1.384 . S
C694 C695 1.372 . S
C695 C694 1.372 . S
C695 C696 1.400 . S
C695 C700 1.490 . S
C696 H686 0.930 . S
C696 C695 1.400 . S
C696 C699 1.386 . S
H697 C713 0.930 . S
H698 C714 0.931 . S
C699 H687 0.929 . S
C699 C693 1.390 . S
C699 C696 1.386 . S
C700 C695 1.490 . S
C700 C702 1.395 . S
C700 C703 1.403 . S
H701 C707 0.930 . S
C702 H688 0.930 . S
C702 C700 1.395 . S
C702 C705 1.403 1_554 S
C703 C700 1.403 . S
C703 C704 1.524 . S
C703 C707 1.400 1_554 S
C704 H689 0.960 . S
C704 H690 0.960 . S
C704 H691 0.960 . S
C704 C703 1.524 . S
C705 C702 1.403 1_556 S
C705 C706 1.392 . S
C705 C709 1.495 . S
C706 C705 1.392 . S
C706 C707 1.385 . S
C706 C708 1.478 . S
C707 H701 0.930 . S
C707 C703 1.400 1_556 S
C707 C706 1.385 . S
C708 C706 1.478 . S
C708 C710 1.381 . S
C708 C714 1.383 . S
C709 C705 1.495 . S
C709 H715 0.959 . S
C709 H716 0.961 . S
C709 H717 0.960 . S
C710 C708 1.381 . S
C710 C711 1.394 . S
C710 H718 0.930 . S
C711 C710 1.394 . S
C711 C712 1.383 . S
C711 H719 0.929 . S
C712 C711 1.383 . S
C712 C713 1.377 . S
C713 H697 0.930 . S
C713 C712 1.377 . S
C713 C714 1.379 . S
C714 H698 0.931 . S
C714 C708 1.383 . S
C714 C713 1.379 . S
H715 C709 0.959 . S
H716 C709 0.961 . S
H717 C709 0.960 . S
H718 C710 0.930 . S
H719 C711 0.929 . S
H720 C728 0.929 . S
H721 C730 0.930 . S
H722 C732 0.930 . S
H723 C735 0.929 . S
H724 C738 0.930 . S
H725 C740 0.960 . S
H726 C740 0.960 . S
H727 C740 0.960 . S
C728 H720 0.929 . S
C728 C729 1.377 . S
C728 C730 1.384 . S
C729 C728 1.377 . S
C729 C735 1.390 . S
C730 H721 0.930 . S
C730 C728 1.384 . S
C730 C731 1.372 . S
C731 C730 1.372 . S
C731 C732 1.400 . S
C731 C736 1.490 . S
C732 H722 0.930 . S
C732 C731 1.400 . S
C732 C735 1.386 . S
H733 C749 0.930 . S
H734 C750 0.931 . S
C735 H723 0.929 . S
C735 C729 1.390 . S
C735 C732 1.386 . S
C736 C731 1.490 . S
C736 C738 1.395 . S
C736 C739 1.403 . S
H737 C743 0.930 . S
C738 H724 0.930 . S
C738 C736 1.395 . S
C738 C741 1.403 . S
C739 C736 1.403 . S
C739 C740 1.524 . S
C739 C743 1.400 . S
C740 H725 0.960 . S
C740 H726 0.960 . S
C740 H727 0.960 . S
C740 C739 1.524 . S
C741 C738 1.403 . S
C741 C742 1.392 . S
C741 C745 1.495 . S
C742 C741 1.392 . S
C742 C743 1.385 . S
C742 C744 1.478 . S
C743 H737 0.930 . S
C743 C739 1.400 . S
C743 C742 1.385 . S
C744 C742 1.478 . S
C744 C746 1.381 . S
C744 C750 1.383 . S
C745 C741 1.495 . S
C745 H751 0.959 . S
C745 H752 0.961 . S
C745 H753 0.960 . S
C746 C744 1.381 . S
C746 C747 1.394 . S
C746 H754 0.930 . S
C747 C746 1.394 . S
C747 C748 1.383 . S
C747 H755 0.929 . S
C748 C747 1.383 . S
C748 C749 1.377 . S
C749 H733 0.930 . S
C749 C748 1.377 . S
C749 C750 1.379 . S
C750 H734 0.931 . S
C750 C744 1.383 . S
C750 C749 1.379 . S
H751 C745 0.959 . S
H752 C745 0.961 . S
H753 C745 0.960 . S
H754 C746 0.930 . S
H755 C747 0.929 . S
H756 C764 0.929 . S
H757 C766 0.930 . S
H758 C768 0.930 . S
H759 C771 0.929 . S
H760 C774 0.930 . S
H761 C776 0.960 . S
H762 C776 0.960 . S
H763 C776 0.960 . S
C764 H756 0.929 . S
C764 C765 1.377 . S
C764 C766 1.384 . S
C765 C764 1.377 . S
C765 C771 1.390 . S
C766 H757 0.930 . S
C766 C764 1.384 . S
C766 C767 1.372 . S
C767 C766 1.372 . S
C767 C768 1.400 . S
C767 C772 1.490 . S
C768 H758 0.930 . S
C768 C767 1.400 . S
C768 C771 1.386 . S
H769 C785 0.930 . S
H770 C786 0.931 . S
C771 H759 0.929 . S
C771 C765 1.390 . S
C771 C768 1.386 . S
C772 C767 1.490 . S
C772 C774 1.395 . S
C772 C775 1.403 . S
H773 C779 0.930 . S
C774 H760 0.930 . S
C774 C772 1.395 . S
C774 C777 1.403 1_556 S
C775 C772 1.403 . S
C775 C776 1.524 . S
C775 C779 1.400 1_556 S
C776 H761 0.960 . S
C776 H762 0.960 . S
C776 H763 0.960 . S
C776 C775 1.524 . S
C777 C774 1.403 1_554 S
C777 C778 1.392 . S
C777 C781 1.495 . S
C778 C777 1.392 . S
C778 C779 1.385 . S
C778 C780 1.478 . S
C779 H773 0.930 . S
C779 C775 1.400 1_554 S
C779 C778 1.385 . S
C780 C778 1.478 . S
C780 C782 1.381 . S
C780 C786 1.383 . S
C781 C777 1.495 . S
C781 H787 0.959 . S
C781 H788 0.961 . S
C781 H789 0.960 . S
C782 C780 1.381 . S
C782 C783 1.394 . S
C782 H790 0.930 . S
C783 C782 1.394 . S
C783 C784 1.383 . S
C783 H791 0.929 . S
C784 C783 1.383 . S
C784 C785 1.377 . S
C785 H769 0.930 . S
C785 C784 1.377 . S
C785 C786 1.379 . S
C786 H770 0.931 . S
C786 C780 1.383 . S
C786 C785 1.379 . S
H787 C781 0.959 . S
H788 C781 0.961 . S
H789 C781 0.960 . S
H790 C782 0.930 . S
H791 C783 0.929 . S
H792 C800 0.929 . S
H793 C802 0.930 . S
H794 C804 0.930 . S
H795 C807 0.929 . S
H796 C810 0.930 . S
H797 C812 0.960 . S
H798 C812 0.960 . S
H799 C812 0.960 . S
C800 H792 0.929 . S
C800 C801 1.377 . S
C800 C802 1.384 . S
C801 C800 1.377 . S
C801 C807 1.390 . S
C802 H793 0.930 . S
C802 C800 1.384 . S
C802 C803 1.372 . S
C803 C802 1.372 . S
C803 C804 1.400 . S
C803 C808 1.490 . S
C804 H794 0.930 . S
C804 C803 1.400 . S
C804 C807 1.386 . S
H805 C821 0.930 . S
H806 C822 0.931 . S
C807 H795 0.929 . S
C807 C801 1.390 . S
C807 C804 1.386 . S
C808 C803 1.490 . S
C808 C810 1.395 . S
C808 C811 1.403 . S
H809 C815 0.930 . S
C810 H796 0.930 . S
C810 C808 1.395 . S
C810 C813 1.403 . S
C811 C808 1.403 . S
C811 C812 1.524 . S
C811 C815 1.400 . S
C812 H797 0.960 . S
C812 H798 0.960 . S
C812 H799 0.960 . S
C812 C811 1.524 . S
C813 C810 1.403 . S
C813 C814 1.392 . S
C813 C817 1.495 . S
C814 C813 1.392 . S
C814 C815 1.385 . S
C814 C816 1.478 . S
C815 H809 0.930 . S
C815 C811 1.400 . S
C815 C814 1.385 . S
C816 C814 1.478 . S
C816 C818 1.381 . S
C816 C822 1.383 . S
C817 C813 1.495 . S
C817 H823 0.959 . S
C817 H824 0.961 . S
C817 H825 0.960 . S
C818 C816 1.381 . S
C818 C819 1.394 . S
C818 H826 0.930 . S
C819 C818 1.394 . S
C819 C820 1.383 . S
C819 H827 0.929 . S
C820 C819 1.383 . S
C820 C821 1.377 . S
C821 H805 0.930 . S
C821 C820 1.377 . S
C821 C822 1.379 . S
C822 H806 0.931 . S
C822 C816 1.383 . S
C822 C821 1.379 . S
H823 C817 0.959 . S
H824 C817 0.961 . S
H825 C817 0.960 . S
H826 C818 0.930 . S
H827 C819 0.929 . S
H828 C836 0.929 . S
H829 C838 0.930 . S
H830 C840 0.930 . S
H831 C843 0.929 . S
H832 C846 0.930 . S
H833 C848 0.960 . S
H834 C848 0.960 . S
H835 C848 0.960 . S
C836 H828 0.929 . S
C836 C837 1.377 . S
C836 C838 1.384 . S
C837 C836 1.377 . S
C837 C843 1.390 . S
C838 H829 0.930 . S
C838 C836 1.384 . S
C838 C839 1.372 . S
C839 C838 1.372 . S
C839 C840 1.400 . S
C839 C844 1.490 . S
C840 H830 0.930 . S
C840 C839 1.400 . S
C840 C843 1.386 . S
H841 C857 0.930 . S
H842 C858 0.931 . S
C843 H831 0.929 . S
C843 C837 1.390 . S
C843 C840 1.386 . S
C844 C839 1.490 . S
C844 C846 1.395 . S
C844 C847 1.403 . S
H845 C851 0.930 . S
C846 H832 0.930 . S
C846 C844 1.395 . S
C846 C849 1.403 1_554 S
C847 C844 1.403 . S
C847 C848 1.524 . S
C847 C851 1.400 1_554 S
C848 H833 0.960 . S
C848 H834 0.960 . S
C848 H835 0.960 . S
C848 C847 1.524 . S
C849 C846 1.403 1_556 S
C849 C850 1.392 . S
C849 C853 1.495 . S
C850 C849 1.392 . S
C850 C851 1.385 . S
C850 C852 1.478 . S
C851 H845 0.930 . S
C851 C847 1.400 1_556 S
C851 C850 1.385 . S
C852 C850 1.478 . S
C852 C854 1.381 . S
C852 C858 1.383 . S
C853 C849 1.495 . S
C853 H859 0.959 . S
C853 H860 0.961 . S
C853 H861 0.960 . S
C854 C852 1.381 . S
C854 C855 1.394 . S
C854 H862 0.930 . S
C855 C854 1.394 . S
C855 C856 1.383 . S
C855 H863 0.929 . S
C856 C855 1.383 . S
C856 C857 1.377 . S
C857 H841 0.930 . S
C857 C856 1.377 . S
C857 C858 1.379 . S
C858 H842 0.931 . S
C858 C852 1.383 . S
C858 C857 1.379 . S
H859 C853 0.959 . S
H860 C853 0.961 . S
H861 C853 0.960 . S
H862 C854 0.930 . S
H863 C855 0.929 . S
H864 C872 0.929 . S
H865 C874 0.930 . S
H866 C876 0.930 . S
H867 C879 0.929 . S
H868 C882 0.930 . S
H869 C884 0.960 . S
H870 C884 0.960 . S
H871 C884 0.960 . S
C872 H864 0.929 . S
C872 C873 1.377 . S
C872 C874 1.384 . S
C873 C872 1.377 . S
C873 C879 1.390 . S
C874 H865 0.930 . S
C874 C872 1.384 . S
C874 C875 1.372 . S
C875 C874 1.372 . S
C875 C876 1.400 . S
C875 C880 1.490 . S
C876 H866 0.930 . S
C876 C875 1.400 . S
C876 C879 1.386 . S
H877 C893 0.930 . S
H878 C894 0.931 . S
C879 H867 0.929 . S
C879 C873 1.390 . S
C879 C876 1.386 . S
C880 C875 1.490 . S
C880 C882 1.395 . S
C880 C883 1.403 . S
H881 C887 0.930 . S
C882 H868 0.930 . S
C882 C880 1.395 . S
C882 C885 1.403 . S
C883 C880 1.403 . S
C883 C884 1.524 . S
C883 C887 1.400 . S
C884 H869 0.960 . S
C884 H870 0.960 . S
C884 H871 0.960 . S
C884 C883 1.524 . S
C885 C882 1.403 . S
C885 C886 1.392 . S
C885 C889 1.495 . S
C886 C885 1.392 . S
C886 C887 1.385 . S
C886 C888 1.478 . S
C887 H881 0.930 . S
C887 C883 1.400 . S
C887 C886 1.385 . S
C888 C886 1.478 . S
C888 C890 1.381 . S
C888 C894 1.383 . S
C889 C885 1.495 . S
C889 H895 0.959 . S
C889 H896 0.961 . S
C889 H897 0.960 . S
C890 C888 1.381 . S
C890 C891 1.394 . S
C890 H898 0.930 . S
C891 C890 1.394 . S
C891 C892 1.383 . S
C891 H899 0.929 . S
C892 C891 1.383 . S
C892 C893 1.377 . S
C893 H877 0.930 . S
C893 C892 1.377 . S
C893 C894 1.379 . S
C894 H878 0.931 . S
C894 C888 1.383 . S
C894 C893 1.379 . S
H895 C889 0.959 . S
H896 C889 0.961 . S
H897 C889 0.960 . S
H898 C890 0.930 . S
H899 C891 0.929 . S
H900 C908 0.929 . S
H901 C910 0.930 . S
H902 C912 0.930 . S
H903 C915 0.929 . S
H904 C918 0.930 . S
H905 C920 0.960 . S
H906 C920 0.960 . S
H907 C920 0.960 . S
C908 H900 0.929 . S
C908 C909 1.377 . S
C908 C910 1.384 . S
C909 C908 1.377 . S
C909 C915 1.390 . S
C910 H901 0.930 . S
C910 C908 1.384 . S
C910 C911 1.372 . S
C911 C910 1.372 . S
C911 C912 1.400 . S
C911 C916 1.490 . S
C912 H902 0.930 . S
C912 C911 1.400 . S
C912 C915 1.386 . S
H913 C929 0.930 . S
H914 C930 0.931 . S
C915 H903 0.929 . S
C915 C909 1.390 . S
C915 C912 1.386 . S
C916 C911 1.490 . S
C916 C918 1.395 . S
C916 C919 1.403 . S
H917 C923 0.930 . S
C918 H904 0.930 . S
C918 C916 1.395 . S
C918 C921 1.403 1_556 S
C919 C916 1.403 . S
C919 C920 1.524 . S
C919 C923 1.400 1_556 S
C920 H905 0.960 . S
C920 H906 0.960 . S
C920 H907 0.960 . S
C920 C919 1.524 . S
C921 C918 1.403 1_554 S
C921 C922 1.392 . S
C921 C925 1.495 . S
C922 C921 1.392 . S
C922 C923 1.385 . S
C922 C924 1.478 . S
C923 H917 0.930 . S
C923 C919 1.400 1_554 S
C923 C922 1.385 . S
C924 C922 1.478 . S
C924 C926 1.381 . S
C924 C930 1.383 . S
C925 C921 1.495 . S
C925 H931 0.959 . S
C925 H932 0.961 . S
C925 H933 0.960 . S
C926 C924 1.381 . S
C926 C927 1.394 . S
C926 H934 0.930 . S
C927 C926 1.394 . S
C927 C928 1.383 . S
C927 H935 0.929 . S
C928 C927 1.383 . S
C928 C929 1.377 . S
C929 H913 0.930 . S
C929 C928 1.377 . S
C929 C930 1.379 . S
C930 H914 0.931 . S
C930 C924 1.383 . S
C930 C929 1.379 . S
H931 C925 0.959 . S
H932 C925 0.961 . S
H933 C925 0.960 . S
H934 C926 0.930 . S
H935 C927 0.929 . S
H936 C944 0.929 . S
H937 C946 0.930 . S
H938 C948 0.930 . S
H939 C951 0.929 . S
H940 C954 0.930 . S
H941 C956 0.960 . S
H942 C956 0.960 . S
H943 C956 0.960 . S
C944 H936 0.929 . S
C944 C945 1.377 . S
C944 C946 1.384 . S
C945 C944 1.377 . S
C945 C951 1.390 . S
C946 H937 0.930 . S
C946 C944 1.384 . S
C946 C947 1.372 . S
C947 C946 1.372 . S
C947 C948 1.400 . S
C947 C952 1.490 . S
C948 H938 0.930 . S
C948 C947 1.400 . S
C948 C951 1.386 . S
H949 C965 0.930 . S
H950 C966 0.931 . S
C951 H939 0.929 . S
C951 C945 1.390 . S
C951 C948 1.386 . S
C952 C947 1.490 . S
C952 C954 1.395 . S
C952 C955 1.403 . S
H953 C959 0.930 . S
C954 H940 0.930 . S
C954 C952 1.395 . S
C954 C957 1.403 . S
C955 C952 1.403 . S
C955 C956 1.524 . S
C955 C959 1.400 . S
C956 H941 0.960 . S
C956 H942 0.960 . S
C956 H943 0.960 . S
C956 C955 1.524 . S
C957 C954 1.403 . S
C957 C958 1.392 . S
C957 C961 1.495 . S
C958 C957 1.392 . S
C958 C959 1.385 . S
C958 C960 1.478 . S
C959 H953 0.930 . S
C959 C955 1.400 . S
C959 C958 1.385 . S
C960 C958 1.478 . S
C960 C962 1.381 . S
C960 C966 1.383 . S
C961 C957 1.495 . S
C961 H967 0.959 . S
C961 H968 0.961 . S
C961 H969 0.960 . S
C962 C960 1.381 . S
C962 C963 1.394 . S
C962 H970 0.930 . S
C963 C962 1.394 . S
C963 C964 1.383 . S
C963 H971 0.929 . S
C964 C963 1.383 . S
C964 C965 1.377 . S
C965 H949 0.930 . S
C965 C964 1.377 . S
C965 C966 1.379 . S
C966 H950 0.931 . S
C966 C960 1.383 . S
C966 C965 1.379 . S
H967 C961 0.959 . S
H968 C961 0.961 . S
H969 C961 0.960 . S
H970 C962 0.930 . S
H971 C963 0.929 . S
H972 C980 0.929 . S
H973 C982 0.930 . S
H974 C984 0.930 . S
H975 C987 0.929 . S
H976 C990 0.930 . S
H977 C992 0.960 . S
H978 C992 0.960 . S
H979 C992 0.960 . S
C980 H972 0.929 . S
C980 C981 1.377 . S
C980 C982 1.384 . S
C981 C980 1.377 . S
C981 C987 1.390 . S
C982 H973 0.930 . S
C982 C980 1.384 . S
C982 C983 1.372 . S
C983 C982 1.372 . S
C983 C984 1.400 . S
C983 C988 1.490 . S
C984 H974 0.930 . S
C984 C983 1.400 . S
C984 C987 1.386 . S
H985 C1001 0.930 . S
H986 C1002 0.931 . S
C987 H975 0.929 . S
C987 C981 1.390 . S
C987 C984 1.386 . S
C988 C983 1.490 . S
C988 C990 1.395 . S
C988 C991 1.403 . S
H989 C995 0.930 . S
C990 H976 0.930 . S
C990 C988 1.395 . S
C990 C993 1.403 1_556 S
C991 C988 1.403 . S
C991 C992 1.524 . S
C991 C995 1.400 1_556 S
C992 H977 0.960 . S
C992 H978 0.960 . S
C992 H979 0.960 . S
C992 C991 1.524 . S
C993 C990 1.403 1_554 S
C993 C994 1.392 . S
C993 C997 1.495 . S
C994 C993 1.392 . S
C994 C995 1.385 . S
C994 C996 1.478 . S
C995 H989 0.930 . S
C995 C991 1.400 1_554 S
C995 C994 1.385 . S
C996 C994 1.478 . S
C996 C998 1.381 . S
C996 C1002 1.383 . S
C997 C993 1.495 . S
C997 H1003 0.959 . S
C997 H1004 0.961 . S
C997 H1005 0.960 . S
C998 C996 1.381 . S
C998 C999 1.394 . S
C998 H1006 0.930 . S
C999 C998 1.394 . S
C999 C1000 1.383 . S
C999 H1007 0.929 . S
C1000 C999 1.383 . S
C1000 C1001 1.377 . S
C1001 H985 0.930 . S
C1001 C1000 1.377 . S
C1001 C1002 1.379 . S
C1002 H986 0.931 . S
C1002 C996 1.383 . S
C1002 C1001 1.379 . S
H1003 C997 0.959 . S
H1004 C997 0.961 . S
H1005 C997 0.960 . S
H1006 C998 0.930 . S
H1007 C999 0.929 . S
H1008 C1016 0.929 . S
H1009 C1018 0.930 . S
H1010 C1020 0.930 . S
H1011 C1023 0.929 . S
H1012 C1026 0.930 . S
H1013 C1028 0.960 . S
H1014 C1028 0.960 . S
H1015 C1028 0.960 . S
C1016 H1008 0.929 . S
C1016 C1017 1.377 . S
C1016 C1018 1.384 . S
C1017 C1016 1.377 . S
C1017 C1023 1.390 . S
C1018 H1009 0.930 . S
C1018 C1016 1.384 . S
C1018 C1019 1.372 . S
C1019 C1018 1.372 . S
C1019 C1020 1.400 . S
C1019 C1024 1.490 . S
C1020 H1010 0.930 . S
C1020 C1019 1.400 . S
C1020 C1023 1.386 . S
H1021 C1037 0.930 . S
H1022 C1038 0.931 . S
C1023 H1011 0.929 . S
C1023 C1017 1.390 . S
C1023 C1020 1.386 . S
C1024 C1019 1.490 . S
C1024 C1026 1.395 . S
C1024 C1027 1.403 . S
H1025 C1031 0.930 . S
C1026 H1012 0.930 . S
C1026 C1024 1.395 . S
C1026 C1029 1.403 . S
C1027 C1024 1.403 . S
C1027 C1028 1.524 . S
C1027 C1031 1.400 . S
C1028 H1013 0.960 . S
C1028 H1014 0.960 . S
C1028 H1015 0.960 . S
C1028 C1027 1.524 . S
C1029 C1026 1.403 . S
C1029 C1030 1.392 . S
C1029 C1033 1.495 . S
C1030 C1029 1.392 . S
C1030 C1031 1.385 . S
C1030 C1032 1.478 . S
C1031 H1025 0.930 . S
C1031 C1027 1.400 . S
C1031 C1030 1.385 . S
C1032 C1030 1.478 . S
C1032 C1034 1.381 . S
C1032 C1038 1.383 . S
C1033 C1029 1.495 . S
C1033 H1039 0.959 . S
C1033 H1040 0.961 . S
C1033 H1041 0.960 . S
C1034 C1032 1.381 . S
C1034 C1035 1.394 . S
C1034 H1042 0.930 . S
C1035 C1034 1.394 . S
C1035 C1036 1.383 . S
C1035 H1043 0.929 . S
C1036 C1035 1.383 . S
C1036 C1037 1.377 . S
C1037 H1021 0.930 . S
C1037 C1036 1.377 . S
C1037 C1038 1.379 . S
C1038 H1022 0.931 . S
C1038 C1032 1.383 . S
C1038 C1037 1.379 . S
H1039 C1033 0.959 . S
H1040 C1033 0.961 . S
H1041 C1033 0.960 . S
H1042 C1034 0.930 . S
H1043 C1035 0.929 . S
H1044 C1052 0.929 . S
H1045 C1054 0.930 . S
H1046 C1056 0.930 . S
H1047 C1059 0.929 . S
H1048 C1062 0.930 . S
H1049 C1064 0.960 . S
H1050 C1064 0.960 . S
H1051 C1064 0.960 . S
C1052 H1044 0.929 . S
C1052 C1053 1.377 . S
C1052 C1054 1.384 . S
C1053 C1052 1.377 . S
C1053 C1059 1.390 . S
C1054 H1045 0.930 . S
C1054 C1052 1.384 . S
C1054 C1055 1.372 . S
C1055 C1054 1.372 . S
C1055 C1056 1.400 . S
C1055 C1060 1.490 . S
C1056 H1046 0.930 . S
C1056 C1055 1.400 . S
C1056 C1059 1.386 . S
H1057 C1073 0.930 . S
H1058 C1074 0.931 . S
C1059 H1047 0.929 . S
C1059 C1053 1.390 . S
C1059 C1056 1.386 . S
C1060 C1055 1.490 . S
C1060 C1062 1.395 . S
C1060 C1063 1.403 . S
H1061 C1067 0.930 . S
C1062 H1048 0.930 . S
C1062 C1060 1.395 . S
C1062 C1065 1.403 . S
C1063 C1060 1.403 . S
C1063 C1064 1.524 . S
C1063 C1067 1.400 . S
C1064 H1049 0.960 . S
C1064 H1050 0.960 . S
C1064 H1051 0.960 . S
C1064 C1063 1.524 . S
C1065 C1062 1.403 . S
C1065 C1066 1.392 . S
C1065 C1069 1.495 . S
C1066 C1065 1.392 . S
C1066 C1067 1.385 . S
C1066 C1068 1.478 . S
C1067 H1061 0.930 . S
C1067 C1063 1.400 . S
C1067 C1066 1.385 . S
C1068 C1066 1.478 . S
C1068 C1070 1.381 . S
C1068 C1074 1.383 . S
C1069 C1065 1.495 . S
C1069 H1075 0.959 . S
C1069 H1076 0.961 . S
C1069 H1077 0.960 . S
C1070 C1068 1.381 . S
C1070 C1071 1.394 . S
C1070 H1078 0.930 . S
C1071 C1070 1.394 . S
C1071 C1072 1.383 . S
C1071 H1079 0.929 . S
C1072 C1071 1.383 . S
C1072 C1073 1.377 . S
C1073 H1057 0.930 . S
C1073 C1072 1.377 . S
C1073 C1074 1.379 . S
C1074 H1058 0.931 . S
C1074 C1068 1.383 . S
C1074 C1073 1.379 . S
H1075 C1069 0.959 . S
H1076 C1069 0.961 . S
H1077 C1069 0.960 . S
H1078 C1070 0.930 . S
H1079 C1071 0.929 . S
H1080 C1088 0.929 . S
H1081 C1090 0.930 . S
H1082 C1092 0.930 . S
H1083 C1095 0.929 . S
H1084 C1098 0.930 . S
H1085 C1100 0.960 . S
H1086 C1100 0.960 . S
H1087 C1100 0.960 . S
C1088 H1080 0.929 . S
C1088 C1089 1.377 . S
C1088 C1090 1.384 . S
C1089 C1088 1.377 . S
C1089 C1095 1.390 . S
C1090 H1081 0.930 . S
C1090 C1088 1.384 . S
C1090 C1091 1.372 . S
C1091 C1090 1.372 . S
C1091 C1092 1.400 . S
C1091 C1096 1.490 . S
C1092 H1082 0.930 . S
C1092 C1091 1.400 . S
C1092 C1095 1.386 . S
H1093 C1109 0.930 . S
H1094 C1110 0.931 . S
C1095 H1083 0.929 . S
C1095 C1089 1.390 . S
C1095 C1092 1.386 . S
C1096 C1091 1.490 . S
C1096 C1098 1.395 . S
C1096 C1099 1.403 . S
H1097 C1103 0.930 . S
C1098 H1084 0.930 . S
C1098 C1096 1.395 . S
C1098 C1101 1.403 . S
C1099 C1096 1.403 . S
C1099 C1100 1.524 . S
C1099 C1103 1.400 . S
C1100 H1085 0.960 . S
C1100 H1086 0.960 . S
C1100 H1087 0.960 . S
C1100 C1099 1.524 . S
C1101 C1098 1.403 . S
C1101 C1102 1.392 . S
C1101 C1105 1.495 . S
C1102 C1101 1.392 . S
C1102 C1103 1.385 . S
C1102 C1104 1.478 . S
C1103 H1097 0.930 . S
C1103 C1099 1.400 . S
C1103 C1102 1.385 . S
C1104 C1102 1.478 . S
C1104 C1106 1.381 . S
C1104 C1110 1.383 . S
C1105 C1101 1.495 . S
C1105 H1111 0.959 . S
C1105 H1112 0.961 . S
C1105 H1113 0.960 . S
C1106 C1104 1.381 . S
C1106 C1107 1.394 . S
C1106 H1114 0.930 . S
C1107 C1106 1.394 . S
C1107 C1108 1.383 . S
C1107 H1115 0.929 . S
C1108 C1107 1.383 . S
C1108 C1109 1.377 . S
C1109 H1093 0.930 . S
C1109 C1108 1.377 . S
C1109 C1110 1.379 . S
C1110 H1094 0.931 . S
C1110 C1104 1.383 . S
C1110 C1109 1.379 . S
H1111 C1105 0.959 . S
H1112 C1105 0.961 . S
H1113 C1105 0.960 . S
H1114 C1106 0.930 . S
H1115 C1107 0.929 . S
H1116 C1124 0.929 . S
H1117 C1126 0.930 . S
H1118 C1128 0.930 . S
H1119 C1131 0.929 . S
H1120 C1134 0.930 . S
H1121 C1136 0.960 . S
H1122 C1136 0.960 . S
H1123 C1136 0.960 . S
C1124 H1116 0.929 . S
C1124 C1125 1.377 . S
C1124 C1126 1.384 . S
C1125 C1124 1.377 . S
C1125 C1131 1.390 . S
C1126 H1117 0.930 . S
C1126 C1124 1.384 . S
C1126 C1127 1.372 . S
C1127 C1126 1.372 . S
C1127 C1128 1.400 . S
C1127 C1132 1.490 . S
C1128 H1118 0.930 . S
C1128 C1127 1.400 . S
C1128 C1131 1.386 . S
H1129 C1145 0.930 . S
H1130 C1146 0.931 . S
C1131 H1119 0.929 . S
C1131 C1125 1.390 . S
C1131 C1128 1.386 . S
C1132 C1127 1.490 . S
C1132 C1134 1.395 . S
C1132 C1135 1.403 . S
H1133 C1139 0.930 . S
C1134 H1120 0.930 . S
C1134 C1132 1.395 . S
C1134 C1137 1.403 . S
C1135 C1132 1.403 . S
C1135 C1136 1.524 . S
C1135 C1139 1.400 . S
C1136 H1121 0.960 . S
C1136 H1122 0.960 . S
C1136 H1123 0.960 . S
C1136 C1135 1.524 . S
C1137 C1134 1.403 . S
C1137 C1138 1.392 . S
C1137 C1141 1.495 . S
C1138 C1137 1.392 . S
C1138 C1139 1.385 . S
C1138 C1140 1.478 . S
C1139 H1133 0.930 . S
C1139 C1135 1.400 . S
C1139 C1138 1.385 . S
C1140 C1138 1.478 . S
C1140 C1142 1.381 . S
C1140 C1146 1.383 . S
C1141 C1137 1.495 . S
C1141 H1147 0.959 . S
C1141 H1148 0.961 . S
C1141 H1149 0.960 . S
C1142 C1140 1.381 . S
C1142 C1143 1.394 . S
C1142 H1150 0.930 . S
C1143 C1142 1.394 . S
C1143 C1144 1.383 . S
C1143 H1151 0.929 . S
C1144 C1143 1.383 . S
C1144 C1145 1.377 . S
C1145 H1129 0.930 . S
C1145 C1144 1.377 . S
C1145 C1146 1.379 . S
C1146 H1130 0.931 . S
C1146 C1140 1.383 . S
C1146 C1145 1.379 . S
H1147 C1141 0.959 . S
H1148 C1141 0.961 . S
H1149 C1141 0.960 . S
H1150 C1142 0.930 . S
H1151 C1143 0.929 . S
H1152 C1160 0.929 . S
H1153 C1162 0.930 . S
H1154 C1164 0.930 . S
H1155 C1167 0.929 . S
H1156 C1170 0.930 . S
H1157 C1172 0.960 . S
H1158 C1172 0.960 . S
H1159 C1172 0.960 . S
C1160 H1152 0.929 . S
C1160 C1161 1.377 . S
C1160 C1162 1.384 . S
C1161 C1160 1.377 . S
C1161 C1167 1.390 . S
C1162 H1153 0.930 . S
C1162 C1160 1.384 . S
C1162 C1163 1.372 . S
C1163 C1162 1.372 . S
C1163 C1164 1.400 . S
C1163 C1168 1.490 . S
C1164 H1154 0.930 . S
C1164 C1163 1.400 . S
C1164 C1167 1.386 . S
H1165 C1181 0.930 . S
H1166 C1182 0.931 . S
C1167 H1155 0.929 . S
C1167 C1161 1.390 . S
C1167 C1164 1.386 . S
C1168 C1163 1.490 . S
C1168 C1170 1.395 . S
C1168 C1171 1.403 . S
H1169 C1175 0.930 . S
C1170 H1156 0.930 . S
C1170 C1168 1.395 . S
C1170 C1173 1.403 . S
C1171 C1168 1.403 . S
C1171 C1172 1.524 . S
C1171 C1175 1.400 . S
C1172 H1157 0.960 . S
C1172 H1158 0.960 . S
C1172 H1159 0.960 . S
C1172 C1171 1.524 . S
C1173 C1170 1.403 . S
C1173 C1174 1.392 . S
C1173 C1177 1.495 . S
C1174 C1173 1.392 . S
C1174 C1175 1.385 . S
C1174 C1176 1.478 . S
C1175 H1169 0.930 . S
C1175 C1171 1.400 . S
C1175 C1174 1.385 . S
C1176 C1174 1.478 . S
C1176 C1178 1.381 . S
C1176 C1182 1.383 . S
C1177 C1173 1.495 . S
C1177 H1183 0.959 . S
C1177 H1184 0.961 . S
C1177 H1185 0.960 . S
C1178 C1176 1.381 . S
C1178 C1179 1.394 . S
C1178 H1186 0.930 . S
C1179 C1178 1.394 . S
C1179 C1180 1.383 . S
C1179 H1187 0.929 . S
C1180 C1179 1.383 . S
C1180 C1181 1.377 . S
C1181 H1165 0.930 . S
C1181 C1180 1.377 . S
C1181 C1182 1.379 . S
C1182 H1166 0.931 . S
C1182 C1176 1.383 . S
C1182 C1181 1.379 . S
H1183 C1177 0.959 . S
H1184 C1177 0.961 . S
H1185 C1177 0.960 . S
H1186 C1178 0.930 . S
H1187 C1179 0.929 . S
H1188 C1196 0.929 . S
H1189 C1198 0.930 . S
H1190 C1200 0.930 . S
H1191 C1203 0.929 . S
H1192 C1206 0.930 . S
H1193 C1208 0.960 . S
H1194 C1208 0.960 . S
H1195 C1208 0.960 . S
C1196 H1188 0.929 . S
C1196 C1197 1.377 . S
C1196 C1198 1.384 . S
C1197 C1196 1.377 . S
C1197 C1203 1.390 . S
C1198 H1189 0.930 . S
C1198 C1196 1.384 . S
C1198 C1199 1.372 . S
C1199 C1198 1.372 . S
C1199 C1200 1.400 . S
C1199 C1204 1.490 . S
C1200 H1190 0.930 . S
C1200 C1199 1.400 . S
C1200 C1203 1.386 . S
H1201 C1217 0.930 . S
H1202 C1218 0.931 . S
C1203 H1191 0.929 . S
C1203 C1197 1.390 . S
C1203 C1200 1.386 . S
C1204 C1199 1.490 . S
C1204 C1206 1.395 . S
C1204 C1207 1.403 . S
H1205 C1211 0.930 . S
C1206 H1192 0.930 . S
C1206 C1204 1.395 . S
C1206 C1209 1.403 . S
C1207 C1204 1.403 . S
C1207 C1208 1.524 . S
C1207 C1211 1.400 . S
C1208 H1193 0.960 . S
C1208 H1194 0.960 . S
C1208 H1195 0.960 . S
C1208 C1207 1.524 . S
C1209 C1206 1.403 . S
C1209 C1210 1.392 . S
C1209 C1213 1.495 . S
C1210 C1209 1.392 . S
C1210 C1211 1.385 . S
C1210 C1212 1.478 . S
C1211 H1205 0.930 . S
C1211 C1207 1.400 . S
C1211 C1210 1.385 . S
C1212 C1210 1.478 . S
C1212 C1214 1.381 . S
C1212 C1218 1.383 . S
C1213 C1209 1.495 . S
C1213 H1219 0.959 . S
C1213 H1220 0.961 . S
C1213 H1221 0.960 . S
C1214 C1212 1.381 . S
C1214 C1215 1.394 . S
C1214 H1222 0.930 . S
C1215 C1214 1.394 . S
C1215 C1216 1.383 . S
C1215 H1223 0.929 . S
C1216 C1215 1.383 . S
C1216 C1217 1.377 . S
C1217 H1201 0.930 . S
C1217 C1216 1.377 . S
C1217 C1218 1.379 . S
C1218 H1202 0.931 . S
C1218 C1212 1.383 . S
C1218 C1217 1.379 . S
H1219 C1213 0.959 . S
H1220 C1213 0.961 . S
H1221 C1213 0.960 . S
H1222 C1214 0.930 . S
H1223 C1215 0.929 . S
H1224 C1232 0.929 . S
H1225 C1234 0.930 . S
H1226 C1236 0.930 . S
H1227 C1239 0.929 . S
H1228 C1242 0.930 . S
H1229 C1244 0.960 . S
H1230 C1244 0.960 . S
H1231 C1244 0.960 . S
C1232 H1224 0.929 . S
C1232 C1233 1.377 . S
C1232 C1234 1.384 . S
C1233 C1232 1.377 . S
C1233 C1239 1.390 . S
C1234 H1225 0.930 . S
C1234 C1232 1.384 . S
C1234 C1235 1.372 . S
C1235 C1234 1.372 . S
C1235 C1236 1.400 . S
C1235 C1240 1.490 . S
C1236 H1226 0.930 . S
C1236 C1235 1.400 . S
C1236 C1239 1.386 . S
H1237 C1253 0.930 . S
H1238 C1254 0.931 . S
C1239 H1227 0.929 . S
C1239 C1233 1.390 . S
C1239 C1236 1.386 . S
C1240 C1235 1.490 . S
C1240 C1242 1.395 . S
C1240 C1243 1.403 . S
H1241 C1247 0.930 . S
C1242 H1228 0.930 . S
C1242 C1240 1.395 . S
C1242 C1245 1.403 . S
C1243 C1240 1.403 . S
C1243 C1244 1.524 . S
C1243 C1247 1.400 . S
C1244 H1229 0.960 . S
C1244 H1230 0.960 . S
C1244 H1231 0.960 . S
C1244 C1243 1.524 . S
C1245 C1242 1.403 . S
C1245 C1246 1.392 . S
C1245 C1249 1.495 . S
C1246 C1245 1.392 . S
C1246 C1247 1.385 . S
C1246 C1248 1.478 . S
C1247 H1241 0.930 . S
C1247 C1243 1.400 . S
C1247 C1246 1.385 . S
C1248 C1246 1.478 . S
C1248 C1250 1.381 . S
C1248 C1254 1.383 . S
C1249 C1245 1.495 . S
C1249 H1255 0.959 . S
C1249 H1256 0.961 . S
C1249 H1257 0.960 . S
C1250 C1248 1.381 . S
C1250 C1251 1.394 . S
C1250 H1258 0.930 . S
C1251 C1250 1.394 . S
C1251 C1252 1.383 . S
C1251 H1259 0.929 . S
C1252 C1251 1.383 . S
C1252 C1253 1.377 . S
C1253 H1237 0.930 . S
C1253 C1252 1.377 . S
C1253 C1254 1.379 . S
C1254 H1238 0.931 . S
C1254 C1248 1.383 . S
C1254 C1253 1.379 . S
H1255 C1249 0.959 . S
H1256 C1249 0.961 . S
H1257 C1249 0.960 . S
H1258 C1250 0.930 . S
H1259 C1251 0.929 . S
H1260 C1268 0.929 . S
H1261 C1270 0.930 . S
H1262 C1272 0.930 . S
H1263 C1275 0.929 . S
H1264 C1278 0.930 . S
H1265 C1280 0.960 . S
H1266 C1280 0.960 . S
H1267 C1280 0.960 . S
C1268 H1260 0.929 . S
C1268 C1269 1.377 . S
C1268 C1270 1.384 . S
C1269 C1268 1.377 . S
C1269 C1275 1.390 . S
C1270 H1261 0.930 . S
C1270 C1268 1.384 . S
C1270 C1271 1.372 . S
C1271 C1270 1.372 . S
C1271 C1272 1.400 . S
C1271 C1276 1.490 . S
C1272 H1262 0.930 . S
C1272 C1271 1.400 . S
C1272 C1275 1.386 . S
H1273 C1289 0.930 . S
H1274 C1290 0.931 . S
C1275 H1263 0.929 . S
C1275 C1269 1.390 . S
C1275 C1272 1.386 . S
C1276 C1271 1.490 . S
C1276 C1278 1.395 . S
C1276 C1279 1.403 . S
H1277 C1283 0.930 . S
C1278 H1264 0.930 . S
C1278 C1276 1.395 . S
C1278 C1281 1.403 . S
C1279 C1276 1.403 . S
C1279 C1280 1.524 . S
C1279 C1283 1.400 . S
C1280 H1265 0.960 . S
C1280 H1266 0.960 . S
C1280 H1267 0.960 . S
C1280 C1279 1.524 . S
C1281 C1278 1.403 . S
C1281 C1282 1.392 . S
C1281 C1285 1.495 . S
C1282 C1281 1.392 . S
C1282 C1283 1.385 . S
C1282 C1284 1.478 . S
C1283 H1277 0.930 . S
C1283 C1279 1.400 . S
C1283 C1282 1.385 . S
C1284 C1282 1.478 . S
C1284 C1286 1.381 . S
C1284 C1290 1.383 . S
C1285 C1281 1.495 . S
C1285 H1291 0.959 . S
C1285 H1292 0.961 . S
C1285 H1293 0.960 . S
C1286 C1284 1.381 . S
C1286 C1287 1.394 . S
C1286 H1294 0.930 . S
C1287 C1286 1.394 . S
C1287 C1288 1.383 . S
C1287 H1295 0.929 . S
C1288 C1287 1.383 . S
C1288 C1289 1.377 . S
C1289 H1273 0.930 . S
C1289 C1288 1.377 . S
C1289 C1290 1.379 . S
C1290 H1274 0.931 . S
C1290 C1284 1.383 . S
C1290 C1289 1.379 . S
H1291 C1285 0.959 . S
H1292 C1285 0.961 . S
H1293 C1285 0.960 . S
H1294 C1286 0.930 . S
H1295 C1287 0.929 . S
H1296 C1304 0.929 . S
H1297 C1306 0.930 . S
H1298 C1308 0.930 . S
H1299 C1311 0.929 . S
H1300 C1314 0.930 . S
H1301 C1316 0.960 . S
H1302 C1316 0.960 . S
H1303 C1316 0.960 . S
C1304 H1296 0.929 . S
C1304 C1305 1.377 . S
C1304 C1306 1.384 . S
C1305 C1304 1.377 . S
C1305 C1311 1.390 . S
C1306 H1297 0.930 . S
C1306 C1304 1.384 . S
C1306 C1307 1.372 . S
C1307 C1306 1.372 . S
C1307 C1308 1.400 . S
C1307 C1312 1.490 . S
C1308 H1298 0.930 . S
C1308 C1307 1.400 . S
C1308 C1311 1.386 . S
H1309 C1325 0.930 . S
H1310 C1326 0.931 . S
C1311 H1299 0.929 . S
C1311 C1305 1.390 . S
C1311 C1308 1.386 . S
C1312 C1307 1.490 . S
C1312 C1314 1.395 . S
C1312 C1315 1.403 . S
H1313 C1319 0.930 . S
C1314 H1300 0.930 . S
C1314 C1312 1.395 . S
C1314 C1317 1.403 . S
C1315 C1312 1.403 . S
C1315 C1316 1.524 . S
C1315 C1319 1.400 . S
C1316 H1301 0.960 . S
C1316 H1302 0.960 . S
C1316 H1303 0.960 . S
C1316 C1315 1.524 . S
C1317 C1314 1.403 . S
C1317 C1318 1.392 . S
C1317 C1321 1.495 . S
C1318 C1317 1.392 . S
C1318 C1319 1.385 . S
C1318 C1320 1.478 . S
C1319 H1313 0.930 . S
C1319 C1315 1.400 . S
C1319 C1318 1.385 . S
C1320 C1318 1.478 . S
C1320 C1322 1.381 . S
C1320 C1326 1.383 . S
C1321 C1317 1.495 . S
C1321 H1327 0.959 . S
C1321 H1328 0.961 . S
C1321 H1329 0.960 . S
C1322 C1320 1.381 . S
C1322 C1323 1.394 . S
C1322 H1330 0.930 . S
C1323 C1322 1.394 . S
C1323 C1324 1.383 . S
C1323 H1331 0.929 . S
C1324 C1323 1.383 . S
C1324 C1325 1.377 . S
C1325 H1309 0.930 . S
C1325 C1324 1.377 . S
C1325 C1326 1.379 . S
C1326 H1310 0.931 . S
C1326 C1320 1.383 . S
C1326 C1325 1.379 . S
H1327 C1321 0.959 . S
H1328 C1321 0.961 . S
H1329 C1321 0.960 . S
H1330 C1322 0.930 . S
H1331 C1323 0.929 . S
H1332 C1340 0.929 . S
H1333 C1342 0.930 . S
H1334 C1344 0.930 . S
H1335 C1347 0.929 . S
H1336 C1350 0.930 . S
H1337 C1352 0.960 . S
H1338 C1352 0.960 . S
H1339 C1352 0.960 . S
C1340 H1332 0.929 . S
C1340 C1341 1.377 . S
C1340 C1342 1.384 . S
C1341 C1340 1.377 . S
C1341 C1347 1.390 . S
C1342 H1333 0.930 . S
C1342 C1340 1.384 . S
C1342 C1343 1.372 . S
C1343 C1342 1.372 . S
C1343 C1344 1.400 . S
C1343 C1348 1.490 . S
C1344 H1334 0.930 . S
C1344 C1343 1.400 . S
C1344 C1347 1.386 . S
H1345 C1361 0.930 . S
H1346 C1362 0.931 . S
C1347 H1335 0.929 . S
C1347 C1341 1.390 . S
C1347 C1344 1.386 . S
C1348 C1343 1.490 . S
C1348 C1350 1.395 . S
C1348 C1351 1.403 . S
H1349 C1355 0.930 . S
C1350 H1336 0.930 . S
C1350 C1348 1.395 . S
C1350 C1353 1.403 . S
C1351 C1348 1.403 . S
C1351 C1352 1.524 . S
C1351 C1355 1.400 . S
C1352 H1337 0.960 . S
C1352 H1338 0.960 . S
C1352 H1339 0.960 . S
C1352 C1351 1.524 . S
C1353 C1350 1.403 . S
C1353 C1354 1.392 . S
C1353 C1357 1.495 . S
C1354 C1353 1.392 . S
C1354 C1355 1.385 . S
C1354 C1356 1.478 . S
C1355 H1349 0.930 . S
C1355 C1351 1.400 . S
C1355 C1354 1.385 . S
C1356 C1354 1.478 . S
C1356 C1358 1.381 . S
C1356 C1362 1.383 . S
C1357 C1353 1.495 . S
C1357 H1363 0.959 . S
C1357 H1364 0.961 . S
C1357 H1365 0.960 . S
C1358 C1356 1.381 . S
C1358 C1359 1.394 . S
C1358 H1366 0.930 . S
C1359 C1358 1.394 . S
C1359 C1360 1.383 . S
C1359 H1367 0.929 . S
C1360 C1359 1.383 . S
C1360 C1361 1.377 . S
C1361 H1345 0.930 . S
C1361 C1360 1.377 . S
C1361 C1362 1.379 . S
C1362 H1346 0.931 . S
C1362 C1356 1.383 . S
C1362 C1361 1.379 . S
H1363 C1357 0.959 . S
H1364 C1357 0.961 . S
H1365 C1357 0.960 . S
H1366 C1358 0.930 . S
H1367 C1359 0.929 . S
H1368 C1376 0.929 . S
H1369 C1378 0.930 . S
H1370 C1380 0.930 . S
H1371 C1383 0.929 . S
H1372 C1386 0.930 . S
H1373 C1388 0.960 . S
H1374 C1388 0.960 . S
H1375 C1388 0.960 . S
C1376 H1368 0.929 . S
C1376 C1377 1.377 . S
C1376 C1378 1.384 . S
C1377 C1376 1.377 . S
C1377 C1383 1.390 . S
C1378 H1369 0.930 . S
C1378 C1376 1.384 . S
C1378 C1379 1.372 . S
C1379 C1378 1.372 . S
C1379 C1380 1.400 . S
C1379 C1384 1.490 . S
C1380 H1370 0.930 . S
C1380 C1379 1.400 . S
C1380 C1383 1.386 . S
H1381 C1397 0.930 . S
H1382 C1398 0.931 . S
C1383 H1371 0.929 . S
C1383 C1377 1.390 . S
C1383 C1380 1.386 . S
C1384 C1379 1.490 . S
C1384 C1386 1.395 . S
C1384 C1387 1.403 . S
H1385 C1391 0.930 . S
C1386 H1372 0.930 . S
C1386 C1384 1.395 . S
C1386 C1389 1.403 . S
C1387 C1384 1.403 . S
C1387 C1388 1.524 . S
C1387 C1391 1.400 . S
C1388 H1373 0.960 . S
C1388 H1374 0.960 . S
C1388 H1375 0.960 . S
C1388 C1387 1.524 . S
C1389 C1386 1.403 . S
C1389 C1390 1.392 . S
C1389 C1393 1.495 . S
C1390 C1389 1.392 . S
C1390 C1391 1.385 . S
C1390 C1392 1.478 . S
C1391 H1385 0.930 . S
C1391 C1387 1.400 . S
C1391 C1390 1.385 . S
C1392 C1390 1.478 . S
C1392 C1394 1.381 . S
C1392 C1398 1.383 . S
C1393 C1389 1.495 . S
C1393 H1399 0.959 . S
C1393 H1400 0.961 . S
C1393 H1401 0.960 . S
C1394 C1392 1.381 . S
C1394 C1395 1.394 . S
C1394 H1402 0.930 . S
C1395 C1394 1.394 . S
C1395 C1396 1.383 . S
C1395 H1403 0.929 . S
C1396 C1395 1.383 . S
C1396 C1397 1.377 . S
C1397 H1381 0.930 . S
C1397 C1396 1.377 . S
C1397 C1398 1.379 . S
C1398 H1382 0.931 . S
C1398 C1392 1.383 . S
C1398 C1397 1.379 . S
H1399 C1393 0.959 . S
H1400 C1393 0.961 . S
H1401 C1393 0.960 . S
H1402 C1394 0.930 . S
H1403 C1395 0.929 . S
H1404 C1412 0.929 . S
H1405 C1414 0.930 . S
H1406 C1416 0.930 . S
H1407 C1419 0.929 . S
H1408 C1422 0.930 . S
H1409 C1424 0.960 . S
H1410 C1424 0.960 . S
H1411 C1424 0.960 . S
C1412 H1404 0.929 . S
C1412 C1413 1.377 . S
C1412 C1414 1.384 . S
C1413 C1412 1.377 . S
C1413 C1419 1.390 . S
C1414 H1405 0.930 . S
C1414 C1412 1.384 . S
C1414 C1415 1.372 . S
C1415 C1414 1.372 . S
C1415 C1416 1.400 . S
C1415 C1420 1.490 . S
C1416 H1406 0.930 . S
C1416 C1415 1.400 . S
C1416 C1419 1.386 . S
H1417 C1433 0.930 . S
H1418 C1434 0.931 . S
C1419 H1407 0.929 . S
C1419 C1413 1.390 . S
C1419 C1416 1.386 . S
C1420 C1415 1.490 . S
C1420 C1422 1.395 . S
C1420 C1423 1.403 . S
H1421 C1427 0.930 . S
C1422 H1408 0.930 . S
C1422 C1420 1.395 . S
C1422 C1425 1.403 . S
C1423 C1420 1.403 . S
C1423 C1424 1.524 . S
C1423 C1427 1.400 . S
C1424 H1409 0.960 . S
C1424 H1410 0.960 . S
C1424 H1411 0.960 . S
C1424 C1423 1.524 . S
C1425 C1422 1.403 . S
C1425 C1426 1.392 . S
C1425 C1429 1.495 . S
C1426 C1425 1.392 . S
C1426 C1427 1.385 . S
C1426 C1428 1.478 . S
C1427 H1421 0.930 . S
C1427 C1423 1.400 . S
C1427 C1426 1.385 . S
C1428 C1426 1.478 . S
C1428 C1430 1.381 . S
C1428 C1434 1.383 . S
C1429 C1425 1.495 . S
C1429 H1435 0.959 . S
C1429 H1436 0.961 . S
C1429 H1437 0.960 . S
C1430 C1428 1.381 . S
C1430 C1431 1.394 . S
C1430 H1438 0.930 . S
C1431 C1430 1.394 . S
C1431 C1432 1.383 . S
C1431 H1439 0.929 . S
C1432 C1431 1.383 . S
C1432 C1433 1.377 . S
C1433 H1417 0.930 . S
C1433 C1432 1.377 . S
C1433 C1434 1.379 . S
C1434 H1418 0.931 . S
C1434 C1428 1.383 . S
C1434 C1433 1.379 . S
H1435 C1429 0.959 . S
H1436 C1429 0.961 . S
H1437 C1429 0.960 . S
H1438 C1430 0.930 . S
H1439 C1431 0.929 . S
H1440 C1448 0.929 . S
H1441 C1450 0.930 . S
H1442 C1452 0.930 . S
H1443 C1455 0.929 . S
H1444 C1458 0.930 . S
H1445 C1460 0.960 . S
H1446 C1460 0.960 . S
H1447 C1460 0.960 . S
C1448 H1440 0.929 . S
C1448 C1449 1.377 . S
C1448 C1450 1.384 . S
C1449 C1448 1.377 . S
C1449 C1455 1.390 . S
C1450 H1441 0.930 . S
C1450 C1448 1.384 . S
C1450 C1451 1.372 . S
C1451 C1450 1.372 . S
C1451 C1452 1.400 . S
C1451 C1456 1.490 . S
C1452 H1442 0.930 . S
C1452 C1451 1.400 . S
C1452 C1455 1.386 . S
H1453 C1469 0.930 . S
H1454 C1470 0.931 . S
C1455 H1443 0.929 . S
C1455 C1449 1.390 . S
C1455 C1452 1.386 . S
C1456 C1451 1.490 . S
C1456 C1458 1.395 . S
C1456 C1459 1.403 . S
H1457 C1463 0.930 . S
C1458 H1444 0.930 . S
C1458 C1456 1.395 . S
C1458 C1461 1.403 . S
C1459 C1456 1.403 . S
C1459 C1460 1.524 . S
C1459 C1463 1.400 . S
C1460 H1445 0.960 . S
C1460 H1446 0.960 . S
C1460 H1447 0.960 . S
C1460 C1459 1.524 . S
C1461 C1458 1.403 . S
C1461 C1462 1.392 . S
C1461 C1465 1.495 . S
C1462 C1461 1.392 . S
C1462 C1463 1.385 . S
C1462 C1464 1.478 . S
C1463 H1457 0.930 . S
C1463 C1459 1.400 . S
C1463 C1462 1.385 . S
C1464 C1462 1.478 . S
C1464 C1466 1.381 . S
C1464 C1470 1.383 . S
C1465 C1461 1.495 . S
C1465 H1471 0.959 . S
C1465 H1472 0.961 . S
C1465 H1473 0.960 . S
C1466 C1464 1.381 . S
C1466 C1467 1.394 . S
C1466 H1474 0.930 . S
C1467 C1466 1.394 . S
C1467 C1468 1.383 . S
C1467 H1475 0.929 . S
C1468 C1467 1.383 . S
C1468 C1469 1.377 . S
C1469 H1453 0.930 . S
C1469 C1468 1.377 . S
C1469 C1470 1.379 . S
C1470 H1454 0.931 . S
C1470 C1464 1.383 . S
C1470 C1469 1.379 . S
H1471 C1465 0.959 . S
H1472 C1465 0.961 . S
H1473 C1465 0.960 . S
H1474 C1466 0.930 . S
H1475 C1467 0.929 . S
C405 N302 1.685 . S
C424 N5 1.655 . S
C441 N38 1.689 . S
C460 N335 1.669 . S
C477 N368 1.689 . S
C496 N71 1.675 . S
C513 N104 1.681 . S
C532 N203 1.660 . S
C549 N137 1.680 . S
C568 N236 1.667 . S
C585 N269 1.690 . S
C604 N170 1.678 . S
C621 C347 0.839 . S
C640 C17 0.795 . S
C657 C380 0.831 . S
C676 C50 0.855 . S
C693 C83 0.838 . S
C712 C215 0.782 . S
C729 C248 0.821 . S
C748 C116 0.874 . S
C765 C281 0.821 . S
C784 C149 0.847 . S
C801 C182 0.838 . S
C820 C314 0.783 . S
C837 C259 1.448 . S
C856 C127 1.451 . S
C873 C292 1.448 . S
C892 C160 1.440 . S
C909 C193 1.436 . S
C928 C325 1.425 . S
C945 C28 1.444 . S
C964 C358 1.468 . S
C981 C61 1.445 . S
C1000 C391 1.417 . S
C1017 C226 1.441 . S
C1036 C94 1.409 . S
C1053 N14 1.404 . S
C1072 C140 1.406 . S
C1089 N47 1.404 . S
C1108 C173 1.405 . S
C1125 N80 1.407 . S
C1144 C8 1.404 . S
C1161 C41 1.407 . S
C1180 N113 1.406 . S
C1197 N146 1.406 . S
C1216 C74 1.407 . S
C1233 C107 1.407 . S
C1252 N179 1.407 . S
C1269 C272 1.408 . S
C1288 N212 1.395 . S
C1305 C305 1.408 . S
C1324 N245 1.395 . S
C1341 C338 1.408 . S
C1360 N278 1.397 . S
C1377 N311 1.407 . S
C1396 C371 1.402 . S
C1413 C206 1.408 . S
C1432 N344 1.395 . S
C1449 N377 1.406 . S
C1468 C239 1.402 . S
