# Generated by pormake.
# Topology fnh, (5)-cn, num edge types: 1
# Building blocks:
#     Node 0, Type 0, BuildingBlock: XOMCOT_clean_sbu_1, # of connection points: 5
#     Node 1, Type 0, BuildingBlock: XOMCOT_clean_sbu_1, # of connection points: 5
#     Node 2, Type 0, BuildingBlock: XOMCOT_clean_sbu_1, # of connection points: 5
#     Node 3, Type 0, BuildingBlock: XOMCOT_clean_sbu_1, # of connection points: 5
#     Node 4, Type 0, BuildingBlock: XOMCOT_clean_sbu_1, # of connection points: 5
#     Node 5, Type 0, BuildingBlock: XOMCOT_clean_sbu_1, # of connection points: 5
#     Node 6, Type 0, BuildingBlock: XOMCOT_clean_sbu_1, # of connection points: 5
#     Node 7, Type 0, BuildingBlock: XOMCOT_clean_sbu_1, # of connection points: 5
#     Node 8, Type 0, BuildingBlock: XOMCOT_clean_sbu_1, # of connection points: 5
#     Node 9, Type 0, BuildingBlock: XOMCOT_clean_sbu_1, # of connection points: 5
#     Node 10, Type 0, BuildingBlock: XOMCOT_clean_sbu_1, # of connection points: 5
#     Node 11, Type 0, BuildingBlock: XOMCOT_clean_sbu_1, # of connection points: 5
#     Node 12, Type 0, BuildingBlock: XOMCOT_clean_sbu_1, # of connection points: 5
#     Node 13, Type 0, BuildingBlock: XOMCOT_clean_sbu_1, # of connection points: 5
#     Node 14, Type 0, BuildingBlock: XOMCOT_clean_sbu_1, # of connection points: 5
#     Node 15, Type 0, BuildingBlock: XOMCOT_clean_sbu_1, # of connection points: 5
#     Node 16, Type 0, BuildingBlock: XOMCOT_clean_sbu_1, # of connection points: 5
#     Node 17, Type 0, BuildingBlock: XOMCOT_clean_sbu_1, # of connection points: 5
#     Edge 18, Type (0, 0), BuildingBlock: OJICUG_clean_linker_0, # of connection points: 2
#     Edge 19, Type (0, 0), BuildingBlock: OJICUG_clean_linker_0, # of connection points: 2
#     Edge 20, Type (0, 0), BuildingBlock: OJICUG_clean_linker_0, # of connection points: 2
#     Edge 21, Type (0, 0), BuildingBlock: OJICUG_clean_linker_0, # of connection points: 2
#     Edge 22, Type (0, 0), BuildingBlock: OJICUG_clean_linker_0, # of connection points: 2
#     Edge 23, Type (0, 0), BuildingBlock: OJICUG_clean_linker_0, # of connection points: 2
#     Edge 24, Type (0, 0), BuildingBlock: OJICUG_clean_linker_0, # of connection points: 2
#     Edge 25, Type (0, 0), BuildingBlock: OJICUG_clean_linker_0, # of connection points: 2
#     Edge 26, Type (0, 0), BuildingBlock: OJICUG_clean_linker_0, # of connection points: 2
#     Edge 27, Type (0, 0), BuildingBlock: OJICUG_clean_linker_0, # of connection points: 2
#     Edge 28, Type (0, 0), BuildingBlock: OJICUG_clean_linker_0, # of connection points: 2
#     Edge 29, Type (0, 0), BuildingBlock: OJICUG_clean_linker_0, # of connection points: 2
#     Edge 30, Type (0, 0), BuildingBlock: OJICUG_clean_linker_0, # of connection points: 2
#     Edge 31, Type (0, 0), BuildingBlock: OJICUG_clean_linker_0, # of connection points: 2
#     Edge 32, Type (0, 0), BuildingBlock: OJICUG_clean_linker_0, # of connection points: 2
#     Edge 33, Type (0, 0), BuildingBlock: OJICUG_clean_linker_0, # of connection points: 2
#     Edge 34, Type (0, 0), BuildingBlock: OJICUG_clean_linker_0, # of connection points: 2
#     Edge 35, Type (0, 0), BuildingBlock: OJICUG_clean_linker_0, # of connection points: 2
#     Edge 36, Type (0, 0), BuildingBlock: OJICUG_clean_linker_0, # of connection points: 2
#     Edge 37, Type (0, 0), BuildingBlock: OJICUG_clean_linker_0, # of connection points: 2
#     Edge 38, Type (0, 0), BuildingBlock: OJICUG_clean_linker_0, # of connection points: 2
#     Edge 39, Type (0, 0), BuildingBlock: OJICUG_clean_linker_0, # of connection points: 2
#     Edge 40, Type (0, 0), BuildingBlock: OJICUG_clean_linker_0, # of connection points: 2
#     Edge 41, Type (0, 0), BuildingBlock: OJICUG_clean_linker_0, # of connection points: 2
#     Edge 42, Type (0, 0), BuildingBlock: OJICUG_clean_linker_0, # of connection points: 2
#     Edge 43, Type (0, 0), BuildingBlock: OJICUG_clean_linker_0, # of connection points: 2
#     Edge 44, Type (0, 0), BuildingBlock: OJICUG_clean_linker_0, # of connection points: 2
#     Edge 45, Type (0, 0), BuildingBlock: OJICUG_clean_linker_0, # of connection points: 2
#     Edge 46, Type (0, 0), BuildingBlock: OJICUG_clean_linker_0, # of connection points: 2
#     Edge 47, Type (0, 0), BuildingBlock: OJICUG_clean_linker_0, # of connection points: 2
#     Edge 48, Type (0, 0), BuildingBlock: OJICUG_clean_linker_0, # of connection points: 2
#     Edge 49, Type (0, 0), BuildingBlock: OJICUG_clean_linker_0, # of connection points: 2
#     Edge 50, Type (0, 0), BuildingBlock: OJICUG_clean_linker_0, # of connection points: 2
#     Edge 51, Type (0, 0), BuildingBlock: OJICUG_clean_linker_0, # of connection points: 2
#     Edge 52, Type (0, 0), BuildingBlock: OJICUG_clean_linker_0, # of connection points: 2
#     Edge 53, Type (0, 0), BuildingBlock: OJICUG_clean_linker_0, # of connection points: 2
#     Edge 54, Type (0, 0), BuildingBlock: OJICUG_clean_linker_0, # of connection points: 2
#     Edge 55, Type (0, 0), BuildingBlock: OJICUG_clean_linker_0, # of connection points: 2
#     Edge 56, Type (0, 0), BuildingBlock: OJICUG_clean_linker_0, # of connection points: 2
#     Edge 57, Type (0, 0), BuildingBlock: OJICUG_clean_linker_0, # of connection points: 2
#     Edge 58, Type (0, 0), BuildingBlock: OJICUG_clean_linker_0, # of connection points: 2
#     Edge 59, Type (0, 0), BuildingBlock: OJICUG_clean_linker_0, # of connection points: 2
#     Edge 60, Type (0, 0), BuildingBlock: OJICUG_clean_linker_0, # of connection points: 2
#     Edge 61, Type (0, 0), BuildingBlock: OJICUG_clean_linker_0, # of connection points: 2
#     Edge 62, Type (0, 0), BuildingBlock: OJICUG_clean_linker_0, # of connection points: 2
# Relax obj value: 0.198
# Max RMSD: 0.170
# Mean RMSD: 0.170
data_MOF--net-fnh--node1-XOMCOT_clean_sbu_1--edge1-OJICUG_clean_linker_0
_symmetry_space_group_name_H-M    P1
_symmetry_Int_Tables_number       1
_symmetry_cell_setting            triclinic
loop_
_symmetry_equiv_pos_as_xyz
'x, y, z'
_cell_length_a     50.809832
_cell_length_b     51.298869
_cell_length_c     17.561398
_cell_angle_alpha  90.035963
_cell_angle_beta   90.150376
_cell_angle_gamma 119.87448
loop_
_atom_site_label
_atom_site_type_symbol
_atom_site_fract_x
_atom_site_fract_y
_atom_site_fract_z
_atom_type_partial_charge
C0 C 0.08939 0.18984 0.248 0.0
C1 C 0.06891 0.19477 0.28723 0.0
N2 N 0.08214 0.20898 0.35261 0.0
N3 N 0.11516 0.2001 0.28933 0.0
C4 C 0.11006 0.2121 0.35183 0.0
H5 H 0.08572 0.1802 0.19181 0.0
Co6 Co 0.15182 0.20377 0.25702 0.0
C7 C 0.15732 0.18257 0.42481 0.0
O8 O 0.1526 0.2029 0.45704 0.0
N9 N 0.18781 0.20825 0.22404 0.0
C10 C 0.22829 0.20438 0.19999 0.0
C11 C 0.2004 0.19088 0.23461 0.0
C12 C 0.20824 0.23207 0.18424 0.0
N13 N 0.23318 0.23033 0.16746 0.0
O14 O 0.12777 0.16664 0.18975 0.0
H15 H 0.18957 0.16928 0.26263 0.0
H16 H 0.20398 0.2496 0.16477 0.0
O17 O 0.15563 0.18011 0.35095 0.0
C18 C 0.12785 0.17239 0.11758 0.0
O19 O 0.14757 0.19963 0.09477 0.0
N20 N 0.1739 0.24236 0.30508 0.0
C21 C 0.20616 0.30488 0.33634 0.0
C22 C 0.21261 0.28461 0.37573 0.0
C23 C 0.19671 0.25354 0.35807 0.0
C24 C 0.16777 0.26169 0.26586 0.0
C25 C 0.18342 0.29255 0.28013 0.0
H26 H 0.20349 0.23886 0.38499 0.0
H27 H 0.15115 0.25309 0.22038 0.0
H28 H 0.12681 0.22386 0.39521 0.0
H29 H 1.04608 0.18827 0.26908 0.0
H30 H 0.24239 0.19423 0.19321 0.0
H31 H 0.23005 0.29253 0.41918 0.0
H32 H 0.17814 0.30658 0.24472 0.0
C33 C 0.90241 0.89857 0.31036 0.0
C34 C 0.90361 0.88379 0.37461 0.0
N35 N 0.89775 0.89623 0.43522 0.0
N36 N 0.89598 0.92001 0.33165 0.0
C37 C 0.89363 0.91824 0.40761 0.0
H38 H 0.90396 0.89273 0.252 0.0
Co39 Co 0.88244 0.9401 0.27383 0.0
C40 C 0.93039 0.99154 0.37768 0.0
O41 O 0.95103 0.98498 0.35505 0.0
N42 N 0.86705 0.95908 0.21508 0.0
C43 C 0.83372 0.96508 0.14673 0.0
C44 C 0.83814 0.94539 0.18923 0.0
C45 C 0.87998 0.98693 0.18626 0.0
N46 N 0.86025 0.99101 0.14309 0.0
O47 O 0.91911 0.95333 0.20384 0.0
H48 H 0.82153 0.92198 0.19706 0.0
H49 H 0.90408 1.00275 0.19031 0.0
O50 O 0.90347 0.97679 0.3477 0.0
C51 C 0.91415 0.94227 0.13537 0.0
O52 O 0.88587 0.92741 0.11163 0.0
N53 N 0.84547 0.92295 0.33155 0.0
C54 C 0.78244 0.89438 0.36179 0.0
C55 C 0.80241 0.9245 0.38411 0.0
C56 C 0.83375 0.93844 0.36798 0.0
C57 C 0.82715 0.89312 0.31597 0.0
C58 C 0.79585 0.87861 0.32967 0.0
H59 H 0.848 0.96221 0.37911 0.0
H60 H 0.83631 0.88116 0.28521 0.0
H61 H 0.88621 0.93105 0.44129 0.0
H62 H 0.90735 0.8648 0.37633 0.0
H63 H 0.81356 0.95966 0.11383 0.0
H64 H 0.79395 0.93779 0.4112 0.0
H65 H 0.78227 0.85572 0.30987 0.0
C66 C 0.20171 1.02435 0.29575 0.0
C67 C 0.22295 0.04068 0.35085 0.0
N68 N 0.21135 1.0281 0.41881 0.0
N69 N 0.17702 1.00173 0.32927 0.0
C70 C 0.18334 1.0052 0.40398 0.0
H71 H 0.20493 1.02745 0.2349 0.0
Co72 Co 0.14617 0.96914 0.27936 0.0
C73 C 0.109 0.95002 0.43414 0.0
O74 O 0.12782 0.94193 0.46211 0.0
N75 N 0.11621 0.93733 0.22877 0.0
C76 C 0.07269 0.89912 0.19054 0.0
C77 C 0.08589 0.9248 0.23384 0.0
C78 C 0.12102 0.91933 0.18239 0.0
N79 N 0.0949 0.89566 0.15846 0.0
O80 O 0.13909 0.9988 0.21604 0.0
H81 H 0.07413 0.9339 0.26574 0.0
H82 H 0.14342 0.9238 0.16608 0.0
O83 O 0.11421 0.96209 0.36646 0.0
C84 C 0.14901 1.00231 0.14633 0.0
O85 O 0.15766 0.9836 0.12163 0.0
N86 N 0.15844 0.94206 0.32507 0.0
C87 C 0.1824 0.90324 0.35118 0.0
C88 C 0.15121 0.89307 0.36003 0.0
C89 C 0.13968 0.91272 0.34638 0.0
C90 C 0.18859 0.95167 0.31438 0.0
C91 C 0.20096 0.93314 0.32859 0.0
H92 H 0.11544 0.90387 0.34971 0.0
H93 H 0.20336 0.97341 0.28995 0.0
H94 H 0.16818 0.99088 0.44687 0.0
H95 H 0.24554 0.05937 0.34116 0.0
H96 H 1.04863 0.88531 0.17916 0.0
H97 H 0.13575 0.87003 0.37629 0.0
H98 H 0.22491 0.94191 0.31796 0.0
C99 C 0.27056 0.10481 0.79847 0.0
C100 C 0.27103 0.08233 0.75723 0.0
N101 N 0.24547 0.0687 0.71542 0.0
N102 N 0.24541 0.10601 0.7798 0.0
C103 C 0.22985 0.08278 0.73251 0.0
H104 H 0.28885 0.12117 0.8336 0.0
Co105 Co 0.24003 0.13775 0.80398 0.0
C106 C 0.21118 0.129 0.63157 0.0
O107 O 0.22344 0.11452 0.59935 0.0
N108 N 0.23628 0.17059 0.83 0.0
C109 C 0.24552 0.21776 0.82126 0.0
C110 C 0.23632 0.19136 0.78224 0.0
C111 C 0.24541 0.18481 0.89716 0.0
N112 N 0.2521 0.21366 0.89269 0.0
O113 O 0.20192 0.10841 0.86376 0.0
H114 H 0.23324 0.18895 0.72131 0.0
H115 H 0.24943 0.17492 0.94705 0.0
O116 O 0.21642 0.13594 0.70342 0.0
C117 C 0.20716 0.10334 0.93323 0.0
O118 O 0.23506 0.11946 0.95881 0.0
N119 N 0.27925 0.16495 0.76055 0.0
C120 C 0.3419 0.19851 0.72576 0.0
C121 C 0.32005 0.18234 0.66901 0.0
C122 C 0.28889 0.16584 0.68746 0.0
C123 C 0.30029 0.18072 0.81588 0.0
C124 C 0.33133 0.19792 0.79966 0.0
H125 H 0.27304 0.15264 0.64369 0.0
H126 H 0.29333 0.17846 0.87462 0.0
H127 H 0.20904 0.07823 0.70437 0.0
H128 H 0.29017 0.0787 0.75136 0.0
H129 H 0.24884 0.23874 0.79813 0.0
H130 H 0.32704 0.18187 0.61107 0.0
H131 H 0.34712 0.2092 0.84596 0.0
C132 C 1.03515 0.18075 0.76371 0.0
C133 C 1.0476 0.20288 0.70906 0.0
N134 N 1.03789 0.18963 0.64061 0.0
N135 N 1.01836 0.15394 0.72903 0.0
C136 C 1.0208 0.16001 0.65436 0.0
H137 H 1.0369 0.18408 0.82474 0.0
Co138 Co 0.99081 0.11933 0.77531 0.0
C139 C 0.9583 0.07173 0.64912 0.0
O140 O 0.9337 0.06611 0.68671 0.0
N141 N 0.96344 0.08495 0.82372 0.0
C142 C 0.93912 0.0379 0.86466 0.0
C143 C 0.96277 0.05831 0.82107 0.0
C144 C 0.94103 0.08068 0.87139 0.0
N145 N 0.92568 0.05227 0.89542 0.0
O146 O 1.02532 0.11552 0.82371 0.0
H147 H 0.97867 0.05416 0.78994 0.0
H148 H 0.93644 0.0979 0.89109 0.0
O149 O 0.98442 0.09264 0.67605 0.0
C150 C 1.02819 0.12236 0.89581 0.0
O151 O 1.00763 0.12755 0.92613 0.0
N152 N 0.95978 0.12838 0.74417 0.0
C153 C 0.92228 0.15391 0.72128 0.0
C154 C 0.92925 0.14031 0.66092 0.0
C155 C 0.94832 0.12806 0.6732 0.0
C156 C 0.95462 0.1432 0.80174 0.0
C157 C 0.93535 0.15517 0.79243 0.0
H158 H 0.95481 0.11976 0.62454 0.0
H159 H 0.96632 0.14651 0.8555 0.0
H160 H 1.00957 0.1431 0.61076 0.0
H161 H 0.06184 0.22678 0.71885 0.0
H162 H 0.93319 1.01488 0.8762 0.0
H163 H 0.92051 0.13965 0.60421 0.0
H164 H 0.93187 0.1666 0.8399 0.0
C165 C 0.91871 0.84008 0.80602 0.0
C166 C 0.89463 0.84059 0.77194 0.0
N167 N 0.90557 0.86651 0.73304 0.0
N168 N 0.94456 0.86508 0.78595 0.0
C169 C 0.93575 0.88132 0.74491 0.0
H170 H 0.91771 0.82162 0.83808 0.0
Co171 Co 0.98286 0.87256 0.80557 0.0
C172 C 1.00042 0.90206 0.63342 0.0
O173 O 0.97365 0.89084 0.6008 0.0
N174 N 1.02119 0.8788 0.82641 0.0
C175 C 0.06141 0.87271 0.81166 0.0
C176 C 1.04062 0.87795 0.77494 0.0
C177 C 1.0304 0.87373 0.89354 0.0
N178 N 1.05416 0.86918 0.88562 0.0
O179 O 0.98947 0.90954 0.86393 0.0
H180 H 1.03805 0.87768 0.71388 0.0
H181 H 1.01855 0.87115 0.94655 0.0
O182 O 1.00185 0.89543 0.70408 0.0
C183 C 0.97868 0.90327 0.93262 0.0
O184 O 0.97022 0.8762 0.95832 0.0
N185 N 0.97259 0.83447 0.76281 0.0
C186 C 0.94284 0.77211 0.73391 0.0
C187 C 0.94607 0.79271 0.67633 0.0
C188 C 0.96097 0.82384 0.69201 0.0
C189 C 0.97054 0.81485 0.81812 0.0
C190 C 0.95641 0.78397 0.80464 0.0
H191 H 0.96106 0.83891 0.64918 0.0
H192 H 0.97797 0.82286 0.87536 0.0
H193 H 0.95146 0.90224 0.71752 0.0
H194 H 0.87149 0.82212 0.76916 0.0
H195 H 0.07914 0.86985 0.78591 0.0
H196 H 0.93568 0.78482 0.62097 0.0
H197 H 0.9552 0.76945 0.85081 0.0
C198 C 0.75128 0.54666 0.60798 0.0
C199 C 0.73428 0.55327 0.6571 0.0
N200 N 0.74508 0.55472 0.728 0.0
N201 N 0.77194 0.54333 0.64876 0.0
C202 C 0.76743 0.5481 0.72135 0.0
H203 H 0.74963 0.54571 0.54654 0.0
Co204 Co 0.80499 0.54201 0.61414 0.0
C205 C 0.82664 0.51528 0.74532 0.0
O206 O 0.85471 0.53285 0.72319 0.0
N207 N 0.83917 0.54184 0.57867 0.0
C208 C 0.88711 0.55449 0.55731 0.0
C209 C 0.86773 0.5652 0.57084 0.0
C210 C 0.84173 0.51735 0.56732 0.0
N211 N 0.87078 0.52426 0.55534 0.0
O212 O 0.77634 0.50525 0.55029 0.0
H213 H 0.87465 0.5887 0.57599 0.0
H214 H 0.8224 0.49483 0.56815 0.0
O215 O 0.80476 0.51679 0.71017 0.0
C216 C 0.77482 0.51014 0.47827 0.0
O217 O 0.79579 0.53607 0.451 0.0
N218 N 0.83007 0.58 0.66118 0.0
C219 C 0.86708 0.64183 0.69077 0.0
C220 C 0.86376 0.62011 0.74513 0.0
C221 C 0.84498 0.58917 0.72937 0.0
C222 C 0.8317 0.60085 0.61028 0.0
C223 C 0.85013 0.63159 0.6234 0.0
H224 H 0.84262 0.57298 0.77179 0.0
H225 H 0.81921 0.59333 0.55727 0.0
H226 H 0.78088 0.54744 0.76842 0.0
H227 H 0.71603 0.55742 0.64188 0.0
H228 H 0.91122 0.56813 0.54723 0.0
H229 H 0.87599 0.62693 0.79866 0.0
H230 H 0.85102 0.64723 0.58072 0.0
C231 C 0.55341 0.2235 0.66601 0.0
C232 C 0.54614 0.20568 0.72959 0.0
N233 N 0.55614 0.22373 0.79141 0.0
N234 N 0.56799 0.2525 0.68786 0.0
C235 C 0.56944 0.25201 0.7641 0.0
H236 H 0.54732 0.21587 0.60784 0.0
Co237 Co 0.57596 0.28378 0.62544 0.0
C238 C 0.59944 0.341 0.7267 0.0
O239 O 0.5864 0.35044 0.67794 0.0
N240 N 0.58378 0.31419 0.56009 0.0
C241 C 0.61276 0.34689 0.47244 0.0
C242 C 0.61194 0.33728 0.54565 0.0
C243 C 0.5678 0.31063 0.49623 0.0
N244 N 0.58507 0.3296 0.44197 0.0
O245 O 0.6132 0.28334 0.58235 0.0
H246 H 0.63143 0.3441 0.58234 0.0
H247 H 0.54535 0.29211 0.48523 0.0
O248 O 0.59808 0.31533 0.71369 0.0
C249 C 0.60698 0.27046 0.51568 0.0
O250 O 0.57911 0.2594 0.49026 0.0
N251 N 0.53697 0.27861 0.65266 0.0
C252 C 0.47385 0.25513 0.67645 0.0
C253 C 0.49574 0.27513 0.72918 0.0
C254 C 0.52712 0.28639 0.71668 0.0
C255 C 0.51601 0.25876 0.60249 0.0
C256 C 0.48491 0.24762 0.61179 0.0
H257 H 0.54298 0.29992 0.76051 0.0
H258 H 0.52344 0.25045 0.55545 0.0
H259 H 0.57964 0.27204 0.79881 0.0
H260 H 0.5339 0.18137 0.72989 0.0
H261 H 0.63249 0.36377 0.44235 0.0
H262 H 0.48877 0.28112 0.78139 0.0
H263 H 0.46973 0.23271 0.56838 0.0
C264 C 0.86286 0.30797 0.58766 0.0
C265 C 0.88425 0.33536 0.61596 0.0
N266 N 0.86988 0.34599 0.65922 0.0
N267 N 0.83534 0.30104 0.61504 0.0
C268 C 0.84016 0.32516 0.65568 0.0
H269 H 0.86732 0.29353 0.55171 0.0
Co270 Co 0.80071 0.26551 0.59473 0.0
C271 C 0.78025 0.27359 0.76418 0.0
O272 O 0.80766 0.28935 0.79313 0.0
N273 N 0.76705 0.22928 0.57185 0.0
C274 C 0.73456 0.18017 0.58221 0.0
C275 C 0.74784 0.20741 0.61976 0.0
C276 C 0.76517 0.21496 0.50662 0.0
N277 N 0.74647 0.18512 0.51199 0.0
O278 O 0.78674 0.28907 0.52918 0.0
H279 H 0.74571 0.21028 0.67992 0.0
H280 H 0.77874 0.22598 0.45711 0.0
O281 O 0.77743 0.26593 0.6928 0.0
C282 C 0.79854 0.29387 0.46149 0.0
O283 O 0.81466 0.28111 0.44455 0.0
N284 N 0.81786 0.24375 0.64194 0.0
C285 C 0.85026 0.21337 0.67375 0.0
C286 C 0.8378 0.22258 0.73284 0.0
C287 C 0.8215 0.23762 0.71573 0.0
C288 C 0.82925 0.23436 0.58458 0.0
C289 C 0.84489 0.21899 0.59882 0.0
H290 H 0.81237 0.24445 0.7618 0.0
H291 H 0.82672 0.2395 0.52628 0.0
H292 H 0.82255 0.32669 0.68627 0.0
H293 H 0.90862 0.34563 0.60997 0.0
H294 H 0.7185 0.15841 0.60534 0.0
H295 H 0.84112 0.21887 0.79187 0.0
H296 H 0.85281 0.21173 0.55053 0.0
C297 C 0.88161 0.38391 0.07345 0.0
C298 C 0.88868 0.37457 1.007 0.0
N299 N 0.88825 0.39191 0.94992 0.0
N300 N 0.87651 0.40667 0.05726 0.0
C301 C 0.88092 0.41115 0.98202 0.0
H302 H 0.88063 0.375 0.1298 0.0
Co303 Co 0.87037 0.43025 0.1234 0.0
C304 C 0.84622 0.46492 1.02481 0.0
O305 O 0.85804 0.48685 0.07494 0.0
N306 N 0.86422 0.4532 0.19146 0.0
C307 C 0.83687 0.45763 0.28302 0.0
C308 C 0.8366 0.4493 0.20878 0.0
C309 C 0.88106 0.46448 0.25469 0.0
N310 N 0.86469 0.46653 0.31132 0.0
O311 O 0.83287 0.39356 0.16647 0.0
H312 H 0.81665 0.4377 0.17307 0.0
H313 H 0.90341 0.46735 0.26288 0.0
O314 O 0.84842 0.44106 0.03722 0.0
C315 C 0.83977 0.38616 0.23135 0.0
O316 O 0.86809 0.40177 0.25429 0.0
N317 N 0.90973 0.4628 0.09692 0.0
C318 C 0.97319 0.49883 0.0752 0.0
C319 C 0.95232 0.50226 1.02876 0.0
C320 C 0.92061 0.48386 0.04016 0.0
C321 C 0.92974 0.45951 0.14214 0.0
C322 C 0.96107 0.47739 0.13351 0.0
H323 H 0.90524 0.48578 1.0012 0.0
H324 H 0.92117 0.44203 0.18482 0.0
H325 H 0.87952 0.42869 0.9514 0.0
H326 H 0.89298 0.35602 1.00087 0.0
H327 H 0.81778 0.45562 0.31509 0.0
H328 H 0.96031 0.5181 0.98208 0.0
H329 H 0.97564 0.47392 0.17222 0.0
C330 C 0.69294 0.51969 0.137 0.0
C331 C 0.70994 0.54299 0.08765 0.0
N332 N 0.6993 0.53352 1.01675 0.0
N333 N 0.67249 0.49579 0.09634 0.0
C334 C 0.67708 0.50481 1.02364 0.0
H335 H 0.69457 0.52047 0.19846 0.0
Co336 Co 0.6399 0.46148 0.13078 0.0
C337 C 0.61868 0.41372 0.99961 0.0
O338 O 0.59058 0.40418 1.02054 0.0
N339 N 0.60624 0.42711 0.16581 0.0
C340 C 0.55895 0.391 0.18725 0.0
C341 C 0.5772 0.42095 0.17269 0.0
C342 C 0.60504 0.40075 0.17797 0.0
N343 N 0.57647 0.37815 0.19066 0.0
O344 O 0.66917 0.45359 0.19404 0.0
H345 H 0.56919 0.43673 0.1662 0.0
H346 H 0.62505 0.39843 0.17795 0.0
O347 O 0.64061 0.43669 0.03498 0.0
C348 C 0.67065 0.4595 0.26637 0.0
O349 O 0.64949 0.46424 0.29466 0.0
N350 N 0.61417 0.47414 0.08434 0.0
C351 C 0.57809 0.5007 0.0541 0.0
C352 C 0.58231 0.48309 0.9986 0.0
C353 C 0.60059 0.47009 1.01466 0.0
C354 C 0.6112 0.49197 0.13726 0.0
C355 C 0.59306 0.50485 0.12414 0.0
H356 H 0.60404 0.45734 0.97089 0.0
H357 H 0.62242 0.4954 0.19182 0.0
H358 H 0.66395 0.49065 0.97653 0.0
H359 H 0.72816 0.56519 0.10263 0.0
H360 H 0.53477 0.37993 0.1974 0.0
H361 H 0.572 0.47971 0.94282 0.0
H362 H 0.59046 0.5175 0.16991 0.0
C363 C 0.59177 0.17481 0.16781 0.0
C364 C 0.56893 0.17786 0.13475 0.0
N365 N 0.58156 0.1996 0.08198 0.0
N366 N 0.61827 0.19388 0.13381 0.0
C367 C 0.61149 0.20912 0.0829 0.0
H368 H 0.58898 0.15809 0.20941 0.0
Co369 Co 0.65351 0.19357 0.15173 0.0
C370 C 0.67969 0.21182 0.98454 0.0
O371 O 0.66509 0.18347 0.96448 0.0
N372 N 0.68908 0.19295 0.1728 0.0
C373 C 0.72319 0.17776 0.16532 0.0
C374 C 0.70757 0.18876 0.12497 0.0
C375 C 0.69484 0.18566 0.24167 0.0
N376 N 0.71409 0.17485 0.23792 0.0
O377 O 0.66597 0.23014 0.21998 0.0
H378 H 0.7074 0.19002 0.06385 0.0
H379 H 0.68238 0.18472 0.29224 0.0
O380 O 0.67602 0.21904 0.05344 0.0
C381 C 0.65389 0.22261 0.28736 0.0
O382 O 0.63902 0.19382 0.30374 0.0
N383 N 0.6363 0.15432 0.1008 0.0
C384 C 0.60133 0.09265 0.0618 0.0
C385 C 0.59752 0.11442 1.0228 0.0
C386 C 0.61512 0.14502 0.04316 0.0
C387 C 0.63892 0.13268 0.14047 0.0
C388 C 0.62272 0.10232 0.12041 0.0
H389 H 0.61086 0.16104 1.01374 0.0
H390 H 0.65186 0.13792 0.19206 0.0
H391 H 0.62746 0.22449 0.04162 0.0
H392 H 0.5448 0.16353 0.14372 0.0
H393 H 0.73796 0.17015 0.14232 0.0
H394 H 0.58077 0.10784 0.97781 0.0
H395 H 0.62555 0.08619 0.15411 0.0
C396 C 0.43277 0.89457 0.9194 0.0
C397 C 0.41066 0.89749 0.95645 0.0
N398 N 0.39679 0.87438 1.00505 0.0
N399 N 0.43349 0.87039 0.947 0.0
C400 C 0.41048 0.85783 0.99656 0.0
H401 H 0.44936 0.91074 0.88062 0.0
Co402 Co 0.46548 0.86448 0.92713 0.0
C403 C 0.45571 0.83428 0.09816 0.0
O404 O 0.44046 0.84519 0.13305 0.0
N405 N 0.49859 0.86024 0.90601 0.0
C406 C 0.54695 0.87206 0.91953 0.0
C407 C 0.52016 0.86342 0.95687 0.0
C408 C 0.51264 0.86681 0.83867 0.0
N409 N 0.54214 0.8751 0.8459 0.0
O410 O 0.43677 0.82786 0.86306 0.0
H411 H 0.51808 0.86365 1.01799 0.0
H412 H 0.50235 0.86849 0.78634 0.0
O413 O 0.46269 0.84088 1.02692 0.0
C414 C 0.43342 0.83547 0.79453 0.0
O415 O 0.45047 0.86385 0.7757 0.0
N416 N 0.49222 0.90247 0.97344 0.0
C417 C 0.52816 0.96362 1.01129 0.0
C418 C 0.50862 0.94271 0.06525 0.0
C419 C 0.49087 0.91206 0.04525 0.0
C420 C 0.51061 0.9229 0.92041 0.0
C421 C 0.52921 0.9532 0.93853 0.0
H422 H 0.47505 0.89661 0.08605 0.0
H423 H 0.50987 0.91602 0.86202 0.0
H424 H 0.40559 0.83861 1.03127 0.0
H425 H 0.40738 0.91678 0.95437 0.0
H426 H 0.56868 0.87798 0.94483 0.0
H427 H 0.5068 0.95003 0.12187 0.0
H428 H 0.54333 0.96867 0.89467 0.0
C429 C 0.22602 0.56952 0.96814 0.0
C430 C 0.22785 0.55484 1.03164 0.0
N431 N 0.22195 0.56692 0.09285 0.0
N432 N 0.21911 0.59054 0.9904 0.0
C433 C 0.21714 0.58866 0.06646 0.0
H434 H 0.22728 0.56372 0.90958 0.0
Co435 Co 0.20462 0.60937 0.93116 0.0
C436 C 0.25076 0.66136 0.0384 0.0
O437 O 0.27193 0.65467 1.02217 0.0
N438 N 0.18822 0.6267 0.8702 0.0
C439 C 0.1524 0.62887 0.80314 0.0
C440 C 0.15978 0.61046 0.8422 0.0
C441 C 0.19808 0.65484 0.84568 0.0
N442 N 0.17669 0.65677 0.80366 0.0
O443 O 0.24101 0.62212 0.85976 0.0
H444 H 0.14534 0.58648 0.8488 0.0
H445 H 0.22111 0.67298 0.85419 0.0
O446 O 0.22489 0.64679 1.00318 0.0
C447 C 0.23557 0.6093 0.79321 0.0
O448 O 0.20708 0.5932 0.7719 0.0
N449 N 0.16799 0.59271 0.99059 0.0
C450 C 0.10585 0.56347 1.03011 0.0
C451 C 0.12485 0.59465 0.0416 0.0
C452 C 0.15585 0.60885 1.02166 0.0
C453 C 0.15036 0.56228 0.98298 0.0
C454 C 0.11953 0.54735 1.0022 0.0
H455 H 0.16937 0.63305 1.02548 0.0
H456 H 0.15963 0.54971 0.95578 0.0
H457 H 0.20942 0.60099 0.10112 0.0
H458 H 0.23187 0.53601 1.03257 0.0
H459 H 0.13142 0.62172 0.77234 0.0
H460 H 0.11571 0.6082 0.0637 0.0
H461 H 0.10622 0.5235 0.99061 0.0
C462 C 0.52289 0.64985 0.93944 0.0
C463 C 0.5455 0.67234 0.98181 0.0
N464 N 0.53268 0.68431 1.02599 0.0
N465 N 0.49599 0.64705 0.95957 0.0
C466 C 0.50285 0.66932 1.00931 0.0
H467 H 0.5256 0.63481 0.90134 0.0
Co468 Co 0.45954 0.61511 0.93159 0.0
C469 C 0.43648 0.62019 0.10248 0.0
O470 O 0.46281 0.63381 0.13773 0.0
N471 N 0.4237 0.58211 0.90199 0.0
C472 C 0.38872 0.53356 0.90758 0.0
C473 C 0.40318 0.5601 0.94768 0.0
C474 C 0.42092 0.56862 0.83486 0.0
N475 N 0.40085 0.53899 0.83765 0.0
O476 O 0.45106 0.64431 0.87163 0.0
H477 H 0.4012 0.56191 1.00839 0.0
H478 H 0.43538 0.57977 0.7867 0.0
O479 O 0.43589 0.61501 1.02985 0.0
C480 C 0.46338 0.65019 0.80438 0.0
O481 O 0.47638 0.63487 0.7823 0.0
N482 N 0.47184 0.58828 0.97428 0.0
C483 C 0.50164 0.55548 1.00642 0.0
C484 C 0.49292 0.56829 0.06527 0.0
C485 C 0.47785 0.58445 0.04806 0.0
C486 C 0.48003 0.57569 0.917 0.0
C487 C 0.49432 0.55894 0.93167 0.0
H488 H 0.47245 0.59478 0.09387 0.0
H489 H 0.4773 0.5803 0.85844 0.0
H490 H 0.48608 0.6727 0.03844 0.0
H491 H 0.56886 0.67743 0.98567 0.0
H492 H 0.37208 0.51174 0.92926 0.0
H493 H 0.4982 0.56633 0.12403 0.0
H494 H 0.5012 0.55027 0.88413 0.0
C495 C 0.56614 0.74172 0.44086 0.0
C496 C 0.56711 0.72393 0.38347 0.0
N497 N 0.54667 0.72084 0.33006 0.0
N498 N 0.54543 0.74979 0.4223 0.0
C499 C 0.53268 0.73524 0.35738 0.0
H500 H 0.58234 0.75158 0.48695 0.0
Co501 Co 0.54562 0.78335 0.45763 0.0
C502 C 0.52556 0.79702 0.29669 0.0
O503 O 0.55352 0.81026 0.27184 0.0
N504 N 0.54608 0.8174 0.4931 0.0
C505 C 0.56179 0.86632 0.49922 0.0
C506 C 0.55156 0.8419 0.4518 0.0
C507 C 0.55206 0.82717 0.5652 0.0
N508 N 0.56301 0.857 0.5698 0.0
O509 O 0.50819 0.7557 0.52103 0.0
H510 H 0.55171 0.84311 0.39058 0.0
H511 H 0.5514 0.81334 0.61234 0.0
O512 O 0.51986 0.78532 0.36466 0.0
C513 C 0.51501 0.74811 0.58568 0.0
O514 O 0.54392 0.76063 0.60347 0.0
N515 N 0.58606 0.80867 0.41153 0.0
C516 C 0.64946 0.83856 0.38119 0.0
C517 C 0.62836 0.81724 0.33007 0.0
C518 C 0.59693 0.80261 0.34618 0.0
C519 C 0.60701 0.8286 0.46245 0.0
C520 C 0.63816 0.8444 0.44731 0.0
H521 H 0.58175 0.78513 0.30776 0.0
H522 H 0.60041 0.83104 0.51877 0.0
H523 H 0.51617 0.73823 0.32557 0.0
H524 H 0.58417 0.71735 0.3768 0.0
H525 H 0.56967 0.88936 0.48261 0.0
H526 H 0.63613 0.81129 0.27906 0.0
H527 H 0.65357 0.85959 0.49015 0.0
C528 C 0.35126 0.84624 0.42481 0.0
C529 C 0.36558 0.86692 0.36756 0.0
N530 N 0.35408 0.85304 0.30048 0.0
N531 N 0.33143 0.81963 0.39309 0.0
C532 C 0.33382 0.82442 0.31778 0.0
H533 H 0.35413 0.85055 0.48542 0.0
Co534 Co 0.30173 0.7865 0.44019 0.0
C535 C 0.26994 0.73912 0.3111 0.0
O536 O 0.2445 0.73406 0.34328 0.0
N537 N 0.27194 0.75339 0.48832 0.0
C538 C 0.24379 0.70671 0.52915 0.0
C539 C 0.26842 0.72554 0.48603 0.0
C540 C 0.25017 0.75133 0.53548 0.0
N541 N 0.23244 0.72311 0.55941 0.0
O542 O 0.33402 0.78025 0.49386 0.0
H543 H 0.2832 0.71951 0.45606 0.0
H544 H 0.24798 0.77007 0.55527 0.0
O545 O 0.29541 0.75904 0.34277 0.0
C546 C 0.33652 0.78749 0.56572 0.0
O547 O 0.31668 0.79427 0.59338 0.0
N548 N 0.27311 0.79829 0.40548 0.0
C549 C 0.24064 0.82948 0.38532 0.0
C550 C 0.24288 0.81209 0.32606 0.0
C551 C 0.25983 0.79725 0.33661 0.0
C552 C 0.27165 0.81571 0.46225 0.0
C553 C 0.25533 0.83084 0.45412 0.0
H554 H 0.26329 0.78638 0.28821 0.0
H555 H 0.28402 0.81845 0.51464 0.0
H556 H 0.32044 0.80735 0.2762 0.0
H557 H 0.38249 0.89038 0.37477 0.0
H558 H 0.236 0.6833 0.54158 0.0
H559 H 0.23289 0.81116 0.27087 0.0
H560 H 0.25466 0.84397 0.50163 0.0
C561 C 0.24028 0.50352 0.45608 0.0
C562 C 0.21718 0.50567 0.4216 0.0
N563 N 0.22946 0.53234 0.38574 0.0
N564 N 0.26686 0.5283 0.43945 0.0
C565 C 0.25948 0.54591 0.39954 0.0
H566 H 0.23803 0.48443 0.48762 0.0
Co567 Co 0.30405 0.53498 0.46762 0.0
C568 C 0.32549 0.56419 0.29781 0.0
O569 O 0.2989 0.55247 0.26398 0.0
N570 N 0.34105 0.54037 0.4978 0.0
C571 C 0.37797 0.52897 0.49336 0.0
C572 C 0.36223 0.53963 0.45246 0.0
C573 C 0.3448 0.5308 0.56564 0.0
N574 N 0.36605 0.52247 0.56352 0.0
O575 O 0.30954 0.57192 0.52591 0.0
H576 H 0.36371 0.54267 0.39148 0.0
H577 H 0.33 0.52702 0.61351 0.0
O578 O 0.32655 0.55864 0.3695 0.0
C579 C 0.29687 0.56579 0.59271 0.0
O580 O 0.28603 0.53824 0.61796 0.0
N581 N 0.29473 0.49675 0.4246 0.0
C582 C 0.271 0.43549 0.38791 0.0
C583 C 0.27599 0.45681 0.33111 0.0
C584 C 0.28813 0.48742 0.35052 0.0
C585 C 0.28954 0.47602 0.48008 0.0
C586 C 0.27851 0.44568 0.46293 0.0
H587 H 0.29061 0.50301 0.30652 0.0
H588 H 0.2923 0.48261 0.5392 0.0
H589 H 0.27606 0.56725 0.37543 0.0
H590 H 0.19369 0.48803 0.41734 0.0
H591 H 0.39515 0.52429 0.47192 0.0
H592 H 0.26995 0.44978 0.27246 0.0
H593 H 0.27419 0.42997 0.50886 0.0
C594 C 0.27991 0.23195 1.01227 0.0
C595 C 0.26213 0.23445 0.95462 0.0
H596 H 0.28581 0.23105 0.13224 0.0
C597 C 0.24706 0.25045 0.96915 0.0
H598 H 0.29325 0.22124 1.00087 0.0
C599 C 0.24283 0.25611 0.04428 0.0
C600 C 0.25289 0.24467 0.1037 0.0
H601 H 0.23433 0.25389 0.92462 0.0
H602 H 0.22719 0.26422 0.05439 0.0
C603 C 0.27562 0.23757 0.08735 0.0
C604 C 0.91108 0.0555 1.02535 0.0
C605 C 0.90379 0.04125 0.95414 0.0
H606 H 0.9016 0.04988 0.14473 0.0
C607 C 0.87713 1.01392 0.94397 0.0
H608 H 0.93172 0.07685 0.03318 0.0
C609 C 0.85964 0.99901 1.00664 0.0
C610 C 0.86942 1.01105 0.08004 0.0
H611 H 0.87132 1.00311 0.88864 0.0
H612 H 0.84082 0.97647 0.99828 0.0
C613 C 0.89393 0.04029 0.08856 0.0
C614 C 0.11127 0.89043 1.03146 0.0
C615 C 0.09116 0.87752 0.09296 0.0
H616 H 0.11408 0.89726 0.91116 0.0
C617 C 0.06286 0.85185 0.08003 0.0
H618 H 0.13377 0.90951 0.0396 0.0
C619 C 1.05168 0.84495 1.00615 0.0
C620 C 0.06917 0.86347 0.94626 0.0
H621 H 1.04758 0.84056 0.12692 0.0
H622 H 1.02795 0.82856 0.9973 0.0
C623 C 0.1001 0.8834 0.95749 0.0
C624 C 0.95852 0.93277 0.11188 0.0
C625 C 0.93782 0.94124 0.0841 0.0
H626 H 0.98769 0.91458 0.08619 0.0
C627 C 0.9351 0.9419 1.00375 0.0
H628 H 0.96087 0.93107 0.17271 0.0
C629 C 0.95111 0.93302 0.9535 0.0
C630 C 0.97009 0.92245 0.9815 0.0
H631 H 0.91907 0.9477 0.9795 0.0
H632 H 0.94653 0.93199 0.89297 0.0
C633 C 0.97397 0.92322 0.06168 0.0
C634 C 0.16645 0.04841 0.96082 0.0
C635 C 0.18473 0.07831 0.98578 0.0
H636 H 0.14079 1.00151 0.99123 0.0
C637 C 0.18671 0.08296 0.0659 0.0
H638 H 0.16476 0.04337 0.90052 0.0
C639 C 0.1724 0.05883 0.11863 0.0
C640 C 0.15588 1.02874 0.09371 0.0
H641 H 0.20091 0.10543 0.08831 0.0
H642 H 0.17642 0.06364 0.17894 0.0
C643 C 0.15267 1.02422 1.01357 0.0
C644 C 0.0851 0.14576 0.92564 0.0
C645 C 1.05461 0.12779 0.94764 0.0
H646 H 0.13164 0.17328 0.96105 0.0
C647 C 1.04927 0.12082 1.02636 0.0
H648 H 0.09046 0.15238 0.86664 0.0
C649 C 0.07305 0.13259 0.08122 0.0
C650 C 0.10328 0.15254 0.06 0.0
H651 H 1.02617 0.1074 0.04645 0.0
H652 H 0.06734 0.12781 0.14086 0.0
C653 C 0.10884 0.15799 0.98065 0.0
C654 C 0.90431 0.51646 0.47061 0.0
C655 C 0.87988 0.50446 0.52201 0.0
H656 H 0.91753 0.5131 0.35724 0.0
C657 C 0.85828 0.47374 0.51663 0.0
H658 H 0.92287 0.53927 0.4759 0.0
C659 C 0.85464 0.45921 0.44751 0.0
C660 C 0.87443 0.47472 0.38774 0.0
H661 H 0.8408 0.46287 0.55928 0.0
H662 H 0.83458 0.43756 0.43797 0.0
C663 C 0.9013 0.50159 0.40228 0.0
C664 C 0.59191 0.34279 0.23549 0.0
C665 C 0.56902 0.35041 0.22759 0.0
H666 H 0.61687 0.33248 0.31659 0.0
C667 C 0.54474 0.33813 0.27936 0.0
H668 H 0.60939 0.34921 0.19283 0.0
C669 C 0.54862 0.32787 0.34921 0.0
C670 C 0.57618 0.32907 0.3651 0.0
H671 H 0.52531 0.3412 0.27249 0.0
H672 H 0.53207 0.32295 0.39367 0.0
C673 C 0.59636 0.33345 0.30606 0.0
C674 C 0.70746 0.14755 0.43102 0.0
C675 C 0.73827 0.16478 0.44934 0.0
H676 H 0.67491 0.13683 0.34223 0.0
C677 C 0.75992 0.17151 0.39175 0.0
H678 H 0.69033 0.14096 0.47476 0.0
C679 C 0.75128 0.17037 0.31601 0.0
C680 C 0.72095 0.16111 0.29952 0.0
H681 H 0.7839 0.18346 0.40555 0.0
H682 H 0.76865 0.18132 0.2731 0.0
C683 C 0.69872 0.14568 0.35526 0.0
C684 C 0.64084 0.26293 0.3274 0.0
C685 C 0.65183 0.2434 0.34621 0.0
H686 H 0.61866 0.287 0.36621 0.0
C687 C 0.65293 0.23768 0.42496 0.0
H688 H 0.63852 0.26728 0.26812 0.0
C689 C 0.64188 0.24943 0.48198 0.0
C690 C 0.62879 0.26711 0.4626 0.0
H691 H 0.66052 0.22223 0.44234 0.0
H692 H 0.64114 0.24241 0.54046 0.0
C693 C 0.62931 0.27425 0.38431 0.0
C694 C 0.81798 0.36813 0.36286 0.0
C695 C 0.81845 0.3613 0.28473 0.0
H696 H 0.8104 0.35271 0.4796 0.0
C697 C 0.80689 0.3308 0.26627 0.0
H698 H 0.82768 0.39138 0.38017 0.0
C699 C 0.79736 0.30854 0.32394 0.0
C700 C 0.79863 0.31567 0.40249 0.0
H701 H 0.80784 0.32447 0.20794 0.0
H702 H 0.79099 0.28582 0.30717 0.0
C703 C 0.808 0.34581 0.42051 0.0
C704 C 0.69312 0.46292 0.39905 0.0
C705 C 0.69732 0.46588 0.31888 0.0
H706 H 0.71329 0.47322 0.51161 0.0
C707 C 0.72755 0.47997 0.29313 0.0
H708 H 0.67037 0.45256 0.42207 0.0
C709 C 0.75234 0.49221 0.34522 0.0
C710 C 0.74815 0.49052 0.42542 0.0
H711 H 0.73218 0.48339 0.2327 0.0
H712 H 0.7751 0.50439 0.32226 0.0
C713 C 0.71791 0.47471 0.45112 0.0
C714 C 0.58456 0.8647 0.69764 0.0
C715 C 0.57335 0.87453 0.63759 0.0
H716 H 0.58297 0.85774 0.81775 0.0
C717 C 0.56477 0.8961 0.65159 0.0
H718 H 0.59294 0.84932 0.68715 0.0
C719 C 0.56002 0.90161 0.72621 0.0
C720 C 0.56334 0.885 0.78519 0.0
H721 H 0.55704 0.90477 0.60578 0.0
H722 H 0.54877 0.9145 0.73652 0.0
C723 C 0.57937 0.86987 0.77222 0.0
C724 C 0.20792 0.70837 0.75743 0.0
C725 C 0.18275 0.67947 0.74801 0.0
H726 H 0.2442 0.74589 0.70056 0.0
C727 C 0.16883 0.67083 0.67586 0.0
H728 H 0.21842 0.716 0.8128 0.0
C729 C 0.18362 0.68776 0.61232 0.0
C730 C 0.21173 0.71373 0.62092 0.0
H731 H 0.14899 0.64909 0.6662 0.0
H732 H 0.17507 0.67881 0.55608 0.0
C733 C 0.22249 0.72554 0.69362 0.0
C734 C 0.35288 0.49495 0.68331 0.0
C735 C 0.37434 0.51025 0.62592 0.0
H736 H 0.3453 0.49279 0.80304 0.0
C737 C 0.40515 0.52165 0.64174 0.0
H738 H 0.32881 0.48422 0.67099 0.0
C739 C 0.41454 0.52546 0.71728 0.0
C740 C 0.39301 0.5187 0.77508 0.0
H741 H 0.42208 0.53237 0.59773 0.0
H742 H 0.43858 0.53872 0.72972 0.0
C743 C 0.36228 0.49949 0.75887 0.0
C744 C 0.25589 0.60741 0.6617 0.0
C745 C 0.25894 0.60749 0.74211 0.0
H746 H 0.26618 0.59584 0.55153 0.0
C747 C 0.27912 0.59839 0.77028 0.0
H748 H 0.2401 0.61348 0.63711 0.0
C749 C 0.29373 0.58765 0.72062 0.0
C750 C 0.28957 0.58628 0.64044 0.0
H751 H 0.28162 0.59707 0.83119 0.0
H752 H 0.30696 0.57856 0.74566 0.0
C753 C 0.27109 0.59737 0.61195 0.0
C754 C 0.4964 0.72954 0.72008 0.0
C755 C 0.49296 0.72405 0.64042 0.0
H756 H 0.48889 0.71133 0.83416 0.0
C757 C 0.47487 0.69382 0.61771 0.0
H758 H 0.51084 0.75227 0.74056 0.0
C759 C 0.46265 0.67013 0.67202 0.0
C760 C 0.46734 0.67552 0.75154 0.0
H761 H 0.47239 0.68818 0.5577 0.0
H762 H 0.45112 0.64718 0.65123 0.0
C763 C 0.48362 0.70589 0.77444 0.0
C764 C 0.37878 0.79654 0.75532 0.0
C765 C 0.40944 0.81548 0.73599 0.0
H766 H 0.33223 0.7727 0.71719 0.0
C767 C 0.41597 0.82074 0.65697 0.0
H768 H 0.37234 0.79237 0.8147 0.0
C769 C 0.39286 0.80903 0.6002 0.0
C770 C 0.362 0.79191 0.62 0.0
H771 H 0.43913 0.83557 0.63901 0.0
H772 H 0.39906 0.81552 0.54144 0.0
C773 C 0.35562 0.78528 0.69866 0.0
C774 C 0.22565 0.38763 0.34279 0.0
C775 C 0.25538 0.40246 0.3715 0.0
H776 H 0.18641 0.34604 0.31421 0.0
C777 C 0.26886 0.38509 0.39048 0.0
H778 H 0.21433 0.40025 0.32961 0.0
C779 C 0.25319 0.35369 0.37928 0.0
C780 C 0.22318 0.33856 0.35064 0.0
H781 H 0.29168 0.39588 0.41355 0.0
H782 H 0.26489 0.34149 0.39244 0.0
C783 C 0.20968 0.35627 0.33364 0.0
C784 C 0.73372 0.89757 0.36775 0.0
C785 C 0.74808 0.87999 0.36717 0.0
H786 H 0.69184 0.89847 0.37263 0.0
C787 C 0.72895 0.84836 0.36861 0.0
H788 H 0.7469 0.92182 0.36501 0.0
C789 C 0.69712 0.83502 0.36951 0.0
C790 C 0.68315 0.85273 0.37101 0.0
H791 H 0.73835 0.83354 0.37037 0.0
H792 H 0.68338 0.81075 0.37165 0.0
C793 C 0.70189 0.88417 0.37076 0.0
C794 C 0.19677 0.83639 0.33867 0.0
C795 C 0.22511 0.84783 0.37558 0.0
H796 H 0.16073 0.84439 0.30325 0.0
C797 C 0.23852 0.8772 0.40565 0.0
H798 H 0.18561 0.81387 0.31517 0.0
C799 C 0.22431 0.89454 0.39909 0.0
C800 C 0.19602 0.88326 0.36237 0.0
H801 H 0.26043 0.8871 0.43369 0.0
H802 H 0.23562 0.91702 0.42295 0.0
C803 C 0.18231 0.85378 0.3327 0.0
C804 C 0.42739 0.25576 0.73067 0.0
C805 C 0.4399 0.241 0.68905 0.0
H806 H 0.38714 0.25435 0.77423 0.0
C807 C 0.41939 0.2123 0.65879 0.0
H808 H 0.44193 0.27789 0.75441 0.0
C809 C 0.38787 0.19918 0.66855 0.0
C810 C 0.3755 0.21385 0.7104 0.0
H811 H 0.42754 0.19935 0.62857 0.0
H812 H 0.37319 0.17697 0.64524 0.0
C813 C 0.39578 0.24231 0.74159 0.0
C814 C 0.88089 0.16498 0.76186 0.0
C815 C 0.90348 0.16871 0.70944 0.0
H816 H 0.84609 0.17529 0.79162 0.0
C817 C 0.90892 0.1878 0.64702 0.0
H818 H 0.87611 0.15045 0.81074 0.0
C819 C 0.89229 0.20266 0.63703 0.0
C820 C 0.86905 0.19847 0.68815 0.0
H821 H 0.92661 0.19185 0.60657 0.0
H822 H 0.89808 0.21779 0.58915 0.0
C823 C 0.86379 0.17947 0.75114 0.0
C824 C 0.9229 0.72501 0.65238 0.0
C825 C 0.92407 0.73857 0.72292 0.0
H826 H 0.90482 0.68423 0.58746 0.0
C827 C 0.90681 0.71967 0.78348 0.0
H828 H 0.93606 0.7385 0.60462 0.0
C829 C 0.88906 0.6884 0.77384 0.0
C830 C 0.88763 0.67496 0.70309 0.0
H831 H 0.90636 0.72904 0.83837 0.0
H832 H 0.87571 0.67485 0.82134 0.0
C833 C 0.90498 0.69374 0.64264 0.0
C834 C 1.05628 0.51761 0.06827 0.0
C835 C 0.07195 0.54771 0.04366 0.0
H836 H 1.0139 0.47873 0.09413 0.0
C837 C 1.05459 0.56176 1.02874 0.0
H838 H 0.06844 0.50583 0.08138 0.0
C839 C 1.02271 0.54612 0.03784 0.0
C840 C 1.00717 0.51595 0.0624 0.0
H841 H 0.06551 0.58473 1.00861 0.0
H842 H 1.01034 0.55782 1.02643 0.0
C843 C 1.02465 0.50204 0.07678 0.0
C844 C 0.54596 0.55435 0.06834 0.0
C845 C 0.52024 0.54062 1.021 0.0
H846 H 0.5849 0.55392 0.11257 0.0
C847 C 0.51386 0.51381 0.98332 0.0
H848 H 0.55206 0.57538 0.09675 0.0
C849 C 0.5325 0.50096 0.99338 0.0
C850 C 0.5584 0.51473 0.04069 0.0
H851 H 0.49424 0.50259 0.94627 0.0
H852 H 0.52626 0.47996 0.96477 0.0
C853 C 0.56486 0.54185 0.07739 0.0
C854 C 0.59604 0.0424 1.03088 0.0
C855 C 0.58225 0.05978 0.04597 0.0
H856 H 0.5897 0.99849 1.0078 0.0
C857 C 0.55043 0.04509 0.05207 0.0
H858 H 0.6205 0.05306 1.02641 0.0
C859 C 0.53285 1.01368 0.04385 0.0
C860 C 0.54671 0.99643 1.02792 0.0
H861 H 0.53922 0.05784 0.06472 0.0
H862 H 0.50838 1.00292 0.04839 0.0
C863 C 0.57846 1.01119 1.02089 0.0
C864 C 0.16885 0.16959 0.55712 0.0
C865 C 0.16838 0.16592 0.47677 0.0
H866 H 0.18163 0.16113 0.6678 0.0
C867 C 0.18067 0.14843 0.44927 0.0
H868 H 0.15967 0.18268 0.58194 0.0
C869 C 0.19357 0.13606 0.49951 0.0
C870 C 0.19485 0.14054 0.57969 0.0
H871 H 0.18103 0.14485 0.38865 0.0
H872 H 0.20323 0.12337 0.47477 0.0
C873 C 0.18169 0.1572 0.60726 0.0
C874 C 0.92339 0.03754 0.5439 0.0
C875 C 0.95315 0.05364 0.57536 0.0
H876 H 0.89294 1.00642 0.45964 0.0
C877 C 0.97565 0.05008 0.53774 0.0
H878 H 0.90504 0.03936 0.56972 0.0
C879 C 0.96836 1.03063 0.47337 0.0
C880 C 0.93836 1.01411 0.44323 0.0
H881 H 0.99872 0.06164 0.55913 0.0
H882 H 0.98639 1.02822 0.44775 0.0
C883 C 0.9162 1.01841 0.47968 0.0
C884 C 1.0522 0.93288 0.45442 0.0
C885 C 0.08156 0.94295 0.48382 0.0
H886 H 1.00424 0.91229 0.47698 0.0
C887 C 0.08398 0.9417 0.5641 0.0
H888 H 1.04889 0.93289 0.39351 0.0
C889 C 0.05833 0.92998 0.61253 0.0
C890 C 1.02874 0.91828 0.58313 0.0
H891 H 0.10599 0.94918 0.58993 0.0
H892 H 0.06178 0.92947 0.67319 0.0
C893 C 1.02637 0.92074 0.503 0.0
C894 C 0.89978 0.90008 0.64673 0.0
C895 C 0.89306 0.8709 0.66501 0.0
H896 H 0.90791 0.93143 0.55811 0.0
C897 C 0.88336 0.84889 0.60771 0.0
H898 H 0.90772 0.91731 0.69037 0.0
C899 C 0.88392 0.85692 0.53187 0.0
C900 C 0.89382 0.88692 0.51297 0.0
H901 H 0.87852 0.82629 0.62073 0.0
H902 H 0.87793 0.84002 0.48804 0.0
C903 C 0.90031 0.90812 0.57113 0.0
C904 C 0.2135 1.01621 0.55408 0.0
C905 C 0.22521 0.03659 0.49276 0.0
H906 H 0.21095 1.01101 0.67554 0.0
C907 C 0.24863 0.06606 0.50659 0.0
H908 H 0.19642 0.99293 0.54538 0.0
C909 C 0.25784 0.07571 0.58094 0.0
C910 C 0.24345 0.05618 0.64207 0.0
H911 H 0.25827 0.08225 0.46094 0.0
H912 H 0.27413 0.09917 0.59145 0.0
C913 C 0.22216 1.02615 0.62849 0.0
C914 C 0.07497 0.22661 0.5523 0.0
C915 C 1.04562 0.20296 0.56662 0.0
H916 H 0.10959 0.24855 0.46897 0.0
C917 C 1.02582 0.18863 0.50519 0.0
H918 H 0.0904 0.2386 0.59866 0.0
C919 C 1.03696 0.19362 0.43127 0.0
C920 C 0.06794 0.21324 0.41831 0.0
H921 H 1.00254 0.17129 0.51495 0.0
H922 H 1.02211 0.17947 0.38632 0.0
C923 C 0.08599 0.232 0.47807 0.0
C924 C 0.81476 0.50118 0.88558 0.0
C925 C 0.82272 0.49533 0.81342 0.0
H926 H 0.81562 0.49617 1.00725 0.0
C927 C 0.83513 0.47594 0.81149 0.0
H928 H 0.80624 0.51671 0.89059 0.0
C929 C 0.84022 0.46365 0.87882 0.0
C930 C 0.83398 0.47102 0.95138 0.0
H931 H 0.84255 0.47155 0.75762 0.0
H932 H 0.85118 0.45024 0.87419 0.0
C933 C 0.82048 0.48947 0.95297 0.0
C934 C 0.63185 0.4096 0.86134 0.0
C935 C 0.62269 0.39662 0.93397 0.0
H936 H 0.63204 0.40246 0.74042 0.0
C937 C 0.60945 0.36491 0.93816 0.0
H938 H 0.64107 0.43358 0.85452 0.0
C939 C 0.60462 0.34684 0.8724 0.0
C940 C 0.61204 0.35969 0.79916 0.0
H941 H 0.60115 0.35379 0.99239 0.0
H942 H 0.59284 0.32262 0.87845 0.0
C943 C 0.6264 0.39151 0.79544 0.0
C944 C 0.73328 0.25503 0.95122 0.0
C945 C 0.70391 0.23285 0.92841 0.0
H946 H 0.77973 0.28491 0.91892 0.0
C947 C 0.69949 0.2264 0.84927 0.0
H948 H 0.73816 0.2604 1.01108 0.0
C949 C 0.72341 0.24043 0.7958 0.0
C950 C 0.7532 0.26136 0.8189 0.0
H951 H 0.67744 0.20935 0.82861 0.0
H952 H 0.71867 0.23394 0.73652 0.0
C953 C 0.75736 0.26891 0.89768 0.0
C954 C 0.56917 0.2305 1.00143 0.0
C955 C 0.56652 0.20267 1.01731 0.0
H956 H 0.56609 0.25865 0.91753 0.0
C957 C 0.55538 0.18006 0.96181 0.0
H958 H 0.57788 0.24808 0.04421 0.0
C959 C 0.54987 0.18626 0.88829 0.0
C960 C 0.55523 0.21516 0.86974 0.0
H961 H 0.55374 0.15857 0.97365 0.0
H962 H 0.54369 0.16907 0.84532 0.0
C963 C 0.56299 0.23657 0.92842 0.0
C964 C 0.90744 0.37506 0.84373 0.0
C965 C 0.89048 0.38794 0.87007 0.0
H966 H 0.91476 0.35208 0.75224 0.0
C967 C 0.87275 0.39362 0.81844 0.0
H968 H 0.92182 0.37117 0.88217 0.0
C969 C 0.86896 0.38302 0.74414 0.0
C970 C 0.88289 0.36675 0.72075 0.0
H971 H 0.85949 0.40364 0.83702 0.0
H972 H 0.8528 0.38481 0.7073 0.0
C973 C 0.90382 0.36467 0.76914 0.0
C974 C 0.69105 0.5411 0.88314 0.0
C975 C 0.71075 0.54864 0.94595 0.0
H976 H 0.68693 0.53724 0.76199 0.0
C977 C 0.74211 0.56591 0.93483 0.0
H978 H 0.66668 0.52857 0.89093 0.0
C979 C 0.75364 0.57125 0.86118 0.0
C980 C 0.73387 0.55919 0.79851 0.0
H981 H 0.75769 0.57234 0.98248 0.0
H982 H 0.77799 0.58226 0.8535 0.0
C983 C 0.70257 0.54628 0.80951 0.0
C984 C 0.50629 0.80173 0.16626 0.0
C985 C 0.50279 0.80027 0.24651 0.0
H986 H 0.49398 0.81186 0.05717 0.0
C987 C 0.48124 0.8072 0.27597 0.0
H988 H 0.5226 0.79666 0.14062 0.0
C989 C 0.46524 0.81682 0.22754 0.0
C990 C 0.46986 0.81972 0.14743 0.0
H991 H 0.47801 0.80695 0.33695 0.0
H992 H 0.44995 0.82312 0.25377 0.0
C993 C 0.48998 0.81085 0.11783 0.0
C994 C 0.2906 0.71854 0.20484 0.0
C995 C 0.26685 0.72135 0.23781 0.0
H996 H 0.3044 0.69799 0.11807 0.0
C997 C 0.2381 0.70526 0.20107 0.0
H998 H 0.31302 0.73017 0.23024 0.0
C999 C 0.23308 0.68689 0.1361 0.0
C1000 C 0.25651 0.68336 0.10423 0.0
H1001 H 0.2189 0.70654 0.22314 0.0
H1002 H 0.21047 0.67486 0.1119 0.0
C1003 C 0.28548 0.69984 0.13986 0.0
C1004 C 0.38362 0.59502 0.27942 0.0
C1005 C 0.35407 0.58011 0.24836 0.0
H1006 H 0.43176 0.61919 0.25965 0.0
C1007 C 0.352 0.57952 0.16759 0.0
H1008 H 0.38669 0.59634 0.3406 0.0
C1009 C 0.37814 0.59262 0.12028 0.0
C1010 C 0.4077 0.60723 0.1514 0.0
H1011 H 0.32994 0.56835 0.14027 0.0
H1012 H 0.3751 0.59106 0.05908 0.0
C1013 C 0.40972 0.60834 0.23218 0.0
C1014 C 0.22646 0.56887 0.30392 0.0
C1015 C 0.21773 0.53889 0.31942 0.0
H1016 H 0.23548 0.60154 0.2177 0.0
C1017 C 0.20588 0.51738 0.26091 0.0
H1018 H 0.2359 0.58567 0.34859 0.0
C1019 C 0.20628 0.52643 0.18621 0.0
C1020 C 0.21805 0.55694 0.16981 0.0
H1021 H 0.19936 0.49416 0.2717 0.0
H1022 H 0.19869 0.50985 0.14106 0.0
C1023 C 0.22661 0.57789 0.22934 0.0
C1024 C 0.5532 0.69113 0.22971 0.0
C1025 C 0.54734 0.71401 0.25133 0.0
H1026 H 0.55368 0.66398 0.1377 0.0
C1027 C 0.54215 0.73046 0.19487 0.0
H1028 H 0.5576 0.67847 0.27218 0.0
C1029 C 0.54004 0.72232 0.11887 0.0
C1030 C 0.54375 0.69814 0.098 0.0
H1031 H 0.53887 0.74915 0.20931 0.0
H1032 H 0.53383 0.73373 0.0767 0.0
C1033 C 0.55144 0.68323 0.15318 0.0
C1034 C 0.39258 0.88712 0.20979 0.0
C1035 C 0.36268 0.86466 0.22489 0.0
H1036 H 0.42685 0.90806 0.12448 0.0
C1037 C 0.34251 0.85045 0.16365 0.0
H1038 H 0.40856 0.89845 0.25563 0.0
C1039 C 0.35316 0.85558 0.08917 0.0
C1040 C 0.38371 0.8757 0.07526 0.0
H1041 H 0.319 0.83382 0.17353 0.0
H1042 H 0.33819 0.84242 0.04311 0.0
C1043 C 0.40302 0.89265 0.13512 0.0
loop_
_geom_bond_atom_site_label_1
_geom_bond_atom_site_label_2
_geom_bond_distance
_geom_bond_site_symmetry_2
_ccdc_geom_bond_type
C0 C1 1.351 . S
C0 N3 1.368 . S
C0 H5 0.931 . S
C1 C0 1.351 . S
C1 N2 1.373 . S
C1 H29 0.930 . S
N2 C1 1.373 . S
N2 C4 1.340 . S
N3 C0 1.368 . S
N3 C4 1.321 . S
N3 Co6 2.135 . S
C4 N2 1.340 . S
C4 N3 1.321 . S
C4 H28 0.930 . S
H5 C0 0.931 . S
Co6 N3 2.135 . S
Co6 N9 2.121 . S
Co6 O14 2.055 . S
Co6 O17 2.039 . S
Co6 N20 2.140 . S
C7 O8 1.227 . S
C7 O17 1.265 . S
O8 C7 1.227 . S
N9 Co6 2.121 . S
N9 C11 1.375 . S
N9 C12 1.313 . S
C10 C11 1.338 . S
C10 N13 1.377 . S
C10 H30 0.930 . S
C11 N9 1.375 . S
C11 C10 1.338 . S
C11 H15 0.931 . S
C12 N9 1.313 . S
C12 N13 1.344 . S
C12 H16 0.930 . S
N13 C10 1.377 . S
N13 C12 1.344 . S
O14 Co6 2.055 . S
O14 C18 1.253 . S
H15 C11 0.931 . S
H16 C12 0.930 . S
O17 Co6 2.039 . S
O17 C7 1.265 . S
C18 O14 1.253 . S
C18 O19 1.227 . S
O19 C18 1.227 . S
N20 Co6 2.140 . S
N20 C23 1.346 . S
N20 C24 1.345 . S
C21 C22 1.387 . S
C21 C25 1.391 . S
C22 C21 1.387 . S
C22 C23 1.369 . S
C22 H31 0.929 . S
C23 N20 1.346 . S
C23 C22 1.369 . S
C23 H26 0.928 . S
C24 N20 1.345 . S
C24 C25 1.371 . S
C24 H27 0.931 . S
C25 C21 1.391 . S
C25 C24 1.371 . S
C25 H32 0.930 . S
H26 C23 0.928 . S
H27 C24 0.931 . S
H28 C4 0.930 . S
H29 C1 0.930 . S
H30 C10 0.930 . S
H31 C22 0.929 . S
H32 C25 0.930 . S
C33 C34 1.351 . S
C33 N36 1.368 . S
C33 H38 0.931 . S
C34 C33 1.351 . S
C34 N35 1.373 . S
C34 H62 0.930 . S
N35 C34 1.373 . S
N35 C37 1.340 . S
N36 C33 1.368 . S
N36 C37 1.321 . S
N36 Co39 2.135 . S
C37 N35 1.340 . S
C37 N36 1.321 . S
C37 H61 0.930 . S
H38 C33 0.931 . S
Co39 N36 2.135 . S
Co39 N42 2.121 . S
Co39 O47 2.055 . S
Co39 O50 2.039 . S
Co39 N53 2.140 . S
C40 O41 1.227 . S
C40 O50 1.265 . S
O41 C40 1.227 . S
N42 Co39 2.121 . S
N42 C44 1.375 . S
N42 C45 1.313 . S
C43 C44 1.338 . S
C43 N46 1.377 . S
C43 H63 0.930 . S
C44 N42 1.375 . S
C44 C43 1.338 . S
C44 H48 0.931 . S
C45 N42 1.313 . S
C45 N46 1.344 . S
C45 H49 0.930 . S
N46 C43 1.377 . S
N46 C45 1.344 . S
O47 Co39 2.055 . S
O47 C51 1.253 . S
H48 C44 0.931 . S
H49 C45 0.930 . S
O50 Co39 2.039 . S
O50 C40 1.265 . S
C51 O47 1.253 . S
C51 O52 1.227 . S
O52 C51 1.227 . S
N53 Co39 2.140 . S
N53 C56 1.346 . S
N53 C57 1.345 . S
C54 C55 1.387 . S
C54 C58 1.391 . S
C55 C54 1.387 . S
C55 C56 1.369 . S
C55 H64 0.929 . S
C56 N53 1.346 . S
C56 C55 1.369 . S
C56 H59 0.928 . S
C57 N53 1.345 . S
C57 C58 1.371 . S
C57 H60 0.931 . S
C58 C54 1.391 . S
C58 C57 1.371 . S
C58 H65 0.930 . S
H59 C56 0.928 . S
H60 C57 0.931 . S
H61 C37 0.930 . S
H62 C34 0.930 . S
H63 C43 0.930 . S
H64 C55 0.929 . S
H65 C58 0.930 . S
C66 C67 1.351 . S
C66 N69 1.368 . S
C66 H71 0.931 . S
C67 C66 1.351 . S
C67 N68 1.373 . S
C67 H95 0.930 . S
N68 C67 1.373 . S
N68 C70 1.340 . S
N69 C66 1.368 . S
N69 C70 1.321 . S
N69 Co72 2.135 . S
C70 N68 1.340 . S
C70 N69 1.321 . S
C70 H94 0.930 . S
H71 C66 0.931 . S
Co72 N69 2.135 . S
Co72 N75 2.121 . S
Co72 O80 2.055 . S
Co72 O83 2.039 . S
Co72 N86 2.140 . S
C73 O74 1.227 . S
C73 O83 1.265 . S
O74 C73 1.227 . S
N75 Co72 2.121 . S
N75 C77 1.375 . S
N75 C78 1.313 . S
C76 C77 1.338 . S
C76 N79 1.377 . S
C76 H96 0.930 . S
C77 N75 1.375 . S
C77 C76 1.338 . S
C77 H81 0.931 . S
C78 N75 1.313 . S
C78 N79 1.344 . S
C78 H82 0.930 . S
N79 C76 1.377 . S
N79 C78 1.344 . S
O80 Co72 2.055 . S
O80 C84 1.253 . S
H81 C77 0.931 . S
H82 C78 0.930 . S
O83 Co72 2.039 . S
O83 C73 1.265 . S
C84 O80 1.253 . S
C84 O85 1.227 . S
O85 C84 1.227 . S
N86 Co72 2.140 . S
N86 C89 1.346 . S
N86 C90 1.345 . S
C87 C88 1.387 . S
C87 C91 1.391 . S
C88 C87 1.387 . S
C88 C89 1.369 . S
C88 H97 0.929 . S
C89 N86 1.346 . S
C89 C88 1.369 . S
C89 H92 0.928 . S
C90 N86 1.345 . S
C90 C91 1.371 . S
C90 H93 0.931 . S
C91 C87 1.391 . S
C91 C90 1.371 . S
C91 H98 0.930 . S
H92 C89 0.928 . S
H93 C90 0.931 . S
H94 C70 0.930 . S
H95 C67 0.930 . S
H96 C76 0.930 . S
H97 C88 0.929 . S
H98 C91 0.930 . S
C99 C100 1.351 . S
C99 N102 1.368 . S
C99 H104 0.931 . S
C100 C99 1.351 . S
C100 N101 1.373 . S
C100 H128 0.930 . S
N101 C100 1.373 . S
N101 C103 1.340 . S
N102 C99 1.368 . S
N102 C103 1.321 . S
N102 Co105 2.135 . S
C103 N101 1.340 . S
C103 N102 1.321 . S
C103 H127 0.930 . S
H104 C99 0.931 . S
Co105 N102 2.135 . S
Co105 N108 2.121 . S
Co105 O113 2.055 . S
Co105 O116 2.039 . S
Co105 N119 2.140 . S
C106 O107 1.227 . S
C106 O116 1.265 . S
O107 C106 1.227 . S
N108 Co105 2.121 . S
N108 C110 1.375 . S
N108 C111 1.313 . S
C109 C110 1.338 . S
C109 N112 1.377 . S
C109 H129 0.930 . S
C110 N108 1.375 . S
C110 C109 1.338 . S
C110 H114 0.931 . S
C111 N108 1.313 . S
C111 N112 1.344 . S
C111 H115 0.930 . S
N112 C109 1.377 . S
N112 C111 1.344 . S
O113 Co105 2.055 . S
O113 C117 1.253 . S
H114 C110 0.931 . S
H115 C111 0.930 . S
O116 Co105 2.039 . S
O116 C106 1.265 . S
C117 O113 1.253 . S
C117 O118 1.227 . S
O118 C117 1.227 . S
N119 Co105 2.140 . S
N119 C122 1.346 . S
N119 C123 1.345 . S
C120 C121 1.387 . S
C120 C124 1.391 . S
C121 C120 1.387 . S
C121 C122 1.369 . S
C121 H130 0.929 . S
C122 N119 1.346 . S
C122 C121 1.369 . S
C122 H125 0.928 . S
C123 N119 1.345 . S
C123 C124 1.371 . S
C123 H126 0.931 . S
C124 C120 1.391 . S
C124 C123 1.371 . S
C124 H131 0.930 . S
H125 C122 0.928 . S
H126 C123 0.931 . S
H127 C103 0.930 . S
H128 C100 0.930 . S
H129 C109 0.930 . S
H130 C121 0.929 . S
H131 C124 0.930 . S
C132 C133 1.351 . S
C132 N135 1.368 . S
C132 H137 0.931 . S
C133 C132 1.351 . S
C133 N134 1.373 . S
C133 H161 0.930 . S
N134 C133 1.373 . S
N134 C136 1.340 . S
N135 C132 1.368 . S
N135 C136 1.321 . S
N135 Co138 2.135 . S
C136 N134 1.340 . S
C136 N135 1.321 . S
C136 H160 0.930 . S
H137 C132 0.931 . S
Co138 N135 2.135 . S
Co138 N141 2.121 . S
Co138 O146 2.055 . S
Co138 O149 2.039 . S
Co138 N152 2.140 . S
C139 O140 1.227 . S
C139 O149 1.265 . S
O140 C139 1.227 . S
N141 Co138 2.121 . S
N141 C143 1.375 . S
N141 C144 1.313 . S
C142 C143 1.338 . S
C142 N145 1.377 . S
C142 H162 0.930 . S
C143 N141 1.375 . S
C143 C142 1.338 . S
C143 H147 0.931 . S
C144 N141 1.313 . S
C144 N145 1.344 . S
C144 H148 0.930 . S
N145 C142 1.377 . S
N145 C144 1.344 . S
O146 Co138 2.055 . S
O146 C150 1.253 . S
H147 C143 0.931 . S
H148 C144 0.930 . S
O149 Co138 2.039 . S
O149 C139 1.265 . S
C150 O146 1.253 . S
C150 O151 1.227 . S
O151 C150 1.227 . S
N152 Co138 2.140 . S
N152 C155 1.346 . S
N152 C156 1.345 . S
C153 C154 1.387 . S
C153 C157 1.391 . S
C154 C153 1.387 . S
C154 C155 1.369 . S
C154 H163 0.929 . S
C155 N152 1.346 . S
C155 C154 1.369 . S
C155 H158 0.928 . S
C156 N152 1.345 . S
C156 C157 1.371 . S
C156 H159 0.931 . S
C157 C153 1.391 . S
C157 C156 1.371 . S
C157 H164 0.930 . S
H158 C155 0.928 . S
H159 C156 0.931 . S
H160 C136 0.930 . S
H161 C133 0.930 . S
H162 C142 0.930 . S
H163 C154 0.929 . S
H164 C157 0.930 . S
C165 C166 1.351 . S
C165 N168 1.368 . S
C165 H170 0.931 . S
C166 C165 1.351 . S
C166 N167 1.373 . S
C166 H194 0.930 . S
N167 C166 1.373 . S
N167 C169 1.340 . S
N168 C165 1.368 . S
N168 C169 1.321 . S
N168 Co171 2.135 . S
C169 N167 1.340 . S
C169 N168 1.321 . S
C169 H193 0.930 . S
H170 C165 0.931 . S
Co171 N168 2.135 . S
Co171 N174 2.121 . S
Co171 O179 2.055 . S
Co171 O182 2.039 . S
Co171 N185 2.140 . S
C172 O173 1.227 . S
C172 O182 1.265 . S
O173 C172 1.227 . S
N174 Co171 2.121 . S
N174 C176 1.375 . S
N174 C177 1.313 . S
C175 C176 1.338 . S
C175 N178 1.377 . S
C175 H195 0.930 . S
C176 N174 1.375 . S
C176 C175 1.338 . S
C176 H180 0.931 . S
C177 N174 1.313 . S
C177 N178 1.344 . S
C177 H181 0.930 . S
N178 C175 1.377 . S
N178 C177 1.344 . S
O179 Co171 2.055 . S
O179 C183 1.253 . S
H180 C176 0.931 . S
H181 C177 0.930 . S
O182 Co171 2.039 . S
O182 C172 1.265 . S
C183 O179 1.253 . S
C183 O184 1.227 . S
O184 C183 1.227 . S
N185 Co171 2.140 . S
N185 C188 1.346 . S
N185 C189 1.345 . S
C186 C187 1.387 . S
C186 C190 1.391 . S
C187 C186 1.387 . S
C187 C188 1.369 . S
C187 H196 0.929 . S
C188 N185 1.346 . S
C188 C187 1.369 . S
C188 H191 0.928 . S
C189 N185 1.345 . S
C189 C190 1.371 . S
C189 H192 0.931 . S
C190 C186 1.391 . S
C190 C189 1.371 . S
C190 H197 0.930 . S
H191 C188 0.928 . S
H192 C189 0.931 . S
H193 C169 0.930 . S
H194 C166 0.930 . S
H195 C175 0.930 . S
H196 C187 0.929 . S
H197 C190 0.930 . S
C198 C199 1.351 . S
C198 N201 1.368 . S
C198 H203 0.931 . S
C199 C198 1.351 . S
C199 N200 1.373 . S
C199 H227 0.930 . S
N200 C199 1.373 . S
N200 C202 1.340 . S
N201 C198 1.368 . S
N201 C202 1.321 . S
N201 Co204 2.135 . S
C202 N200 1.340 . S
C202 N201 1.321 . S
C202 H226 0.930 . S
H203 C198 0.931 . S
Co204 N201 2.135 . S
Co204 N207 2.121 . S
Co204 O212 2.055 . S
Co204 O215 2.039 . S
Co204 N218 2.140 . S
C205 O206 1.227 . S
C205 O215 1.265 . S
O206 C205 1.227 . S
N207 Co204 2.121 . S
N207 C209 1.375 . S
N207 C210 1.313 . S
C208 C209 1.338 . S
C208 N211 1.377 . S
C208 H228 0.930 . S
C209 N207 1.375 . S
C209 C208 1.338 . S
C209 H213 0.931 . S
C210 N207 1.313 . S
C210 N211 1.344 . S
C210 H214 0.930 . S
N211 C208 1.377 . S
N211 C210 1.344 . S
O212 Co204 2.055 . S
O212 C216 1.253 . S
H213 C209 0.931 . S
H214 C210 0.930 . S
O215 Co204 2.039 . S
O215 C205 1.265 . S
C216 O212 1.253 . S
C216 O217 1.227 . S
O217 C216 1.227 . S
N218 Co204 2.140 . S
N218 C221 1.346 . S
N218 C222 1.345 . S
C219 C220 1.387 . S
C219 C223 1.391 . S
C220 C219 1.387 . S
C220 C221 1.369 . S
C220 H229 0.929 . S
C221 N218 1.346 . S
C221 C220 1.369 . S
C221 H224 0.928 . S
C222 N218 1.345 . S
C222 C223 1.371 . S
C222 H225 0.931 . S
C223 C219 1.391 . S
C223 C222 1.371 . S
C223 H230 0.930 . S
H224 C221 0.928 . S
H225 C222 0.931 . S
H226 C202 0.930 . S
H227 C199 0.930 . S
H228 C208 0.930 . S
H229 C220 0.929 . S
H230 C223 0.930 . S
C231 C232 1.351 . S
C231 N234 1.368 . S
C231 H236 0.931 . S
C232 C231 1.351 . S
C232 N233 1.373 . S
C232 H260 0.930 . S
N233 C232 1.373 . S
N233 C235 1.340 . S
N234 C231 1.368 . S
N234 C235 1.321 . S
N234 Co237 2.135 . S
C235 N233 1.340 . S
C235 N234 1.321 . S
C235 H259 0.930 . S
H236 C231 0.931 . S
Co237 N234 2.135 . S
Co237 N240 2.121 . S
Co237 O245 2.055 . S
Co237 O248 2.039 . S
Co237 N251 2.140 . S
C238 O239 1.227 . S
C238 O248 1.265 . S
O239 C238 1.227 . S
N240 Co237 2.121 . S
N240 C242 1.375 . S
N240 C243 1.313 . S
C241 C242 1.338 . S
C241 N244 1.377 . S
C241 H261 0.930 . S
C242 N240 1.375 . S
C242 C241 1.338 . S
C242 H246 0.931 . S
C243 N240 1.313 . S
C243 N244 1.344 . S
C243 H247 0.930 . S
N244 C241 1.377 . S
N244 C243 1.344 . S
O245 Co237 2.055 . S
O245 C249 1.253 . S
H246 C242 0.931 . S
H247 C243 0.930 . S
O248 Co237 2.039 . S
O248 C238 1.265 . S
C249 O245 1.253 . S
C249 O250 1.227 . S
O250 C249 1.227 . S
N251 Co237 2.140 . S
N251 C254 1.346 . S
N251 C255 1.345 . S
C252 C253 1.387 . S
C252 C256 1.391 . S
C253 C252 1.387 . S
C253 C254 1.369 . S
C253 H262 0.929 . S
C254 N251 1.346 . S
C254 C253 1.369 . S
C254 H257 0.928 . S
C255 N251 1.345 . S
C255 C256 1.371 . S
C255 H258 0.931 . S
C256 C252 1.391 . S
C256 C255 1.371 . S
C256 H263 0.930 . S
H257 C254 0.928 . S
H258 C255 0.931 . S
H259 C235 0.930 . S
H260 C232 0.930 . S
H261 C241 0.930 . S
H262 C253 0.929 . S
H263 C256 0.930 . S
C264 C265 1.351 . S
C264 N267 1.368 . S
C264 H269 0.931 . S
C265 C264 1.351 . S
C265 N266 1.373 . S
C265 H293 0.930 . S
N266 C265 1.373 . S
N266 C268 1.340 . S
N267 C264 1.368 . S
N267 C268 1.321 . S
N267 Co270 2.135 . S
C268 N266 1.340 . S
C268 N267 1.321 . S
C268 H292 0.930 . S
H269 C264 0.931 . S
Co270 N267 2.135 . S
Co270 N273 2.121 . S
Co270 O278 2.055 . S
Co270 O281 2.039 . S
Co270 N284 2.140 . S
C271 O272 1.227 . S
C271 O281 1.265 . S
O272 C271 1.227 . S
N273 Co270 2.121 . S
N273 C275 1.375 . S
N273 C276 1.313 . S
C274 C275 1.338 . S
C274 N277 1.377 . S
C274 H294 0.930 . S
C275 N273 1.375 . S
C275 C274 1.338 . S
C275 H279 0.931 . S
C276 N273 1.313 . S
C276 N277 1.344 . S
C276 H280 0.930 . S
N277 C274 1.377 . S
N277 C276 1.344 . S
O278 Co270 2.055 . S
O278 C282 1.253 . S
H279 C275 0.931 . S
H280 C276 0.930 . S
O281 Co270 2.039 . S
O281 C271 1.265 . S
C282 O278 1.253 . S
C282 O283 1.227 . S
O283 C282 1.227 . S
N284 Co270 2.140 . S
N284 C287 1.346 . S
N284 C288 1.345 . S
C285 C286 1.387 . S
C285 C289 1.391 . S
C286 C285 1.387 . S
C286 C287 1.369 . S
C286 H295 0.929 . S
C287 N284 1.346 . S
C287 C286 1.369 . S
C287 H290 0.928 . S
C288 N284 1.345 . S
C288 C289 1.371 . S
C288 H291 0.931 . S
C289 C285 1.391 . S
C289 C288 1.371 . S
C289 H296 0.930 . S
H290 C287 0.928 . S
H291 C288 0.931 . S
H292 C268 0.930 . S
H293 C265 0.930 . S
H294 C274 0.930 . S
H295 C286 0.929 . S
H296 C289 0.930 . S
C297 C298 1.351 1_554 S
C297 N300 1.368 . S
C297 H302 0.931 . S
C298 C297 1.351 1_556 S
C298 N299 1.373 . S
C298 H326 0.930 . S
N299 C298 1.373 . S
N299 C301 1.340 . S
N300 C297 1.368 . S
N300 C301 1.321 1_554 S
N300 Co303 2.135 . S
C301 N299 1.340 . S
C301 N300 1.321 1_556 S
C301 H325 0.930 . S
H302 C297 0.931 . S
Co303 N300 2.135 . S
Co303 N306 2.121 . S
Co303 O311 2.055 . S
Co303 O314 2.039 . S
Co303 N317 2.140 . S
C304 O305 1.227 . S
C304 O314 1.265 1_556 S
O305 C304 1.227 . S
N306 Co303 2.121 . S
N306 C308 1.375 . S
N306 C309 1.313 . S
C307 C308 1.338 . S
C307 N310 1.377 . S
C307 H327 0.930 . S
C308 N306 1.375 . S
C308 C307 1.338 . S
C308 H312 0.931 . S
C309 N306 1.313 . S
C309 N310 1.344 . S
C309 H313 0.930 . S
N310 C307 1.377 . S
N310 C309 1.344 . S
O311 Co303 2.055 . S
O311 C315 1.253 . S
H312 C308 0.931 . S
H313 C309 0.930 . S
O314 Co303 2.039 . S
O314 C304 1.265 1_554 S
C315 O311 1.253 . S
C315 O316 1.227 . S
O316 C315 1.227 . S
N317 Co303 2.140 . S
N317 C320 1.346 . S
N317 C321 1.345 . S
C318 C319 1.387 1_554 S
C318 C322 1.391 . S
C319 C318 1.387 1_556 S
C319 C320 1.369 1_556 S
C319 H328 0.929 . S
C320 N317 1.346 . S
C320 C319 1.369 1_554 S
C320 H323 0.928 1_554 S
C321 N317 1.345 . S
C321 C322 1.371 . S
C321 H324 0.931 . S
C322 C318 1.391 . S
C322 C321 1.371 . S
C322 H329 0.930 . S
H323 C320 0.928 1_556 S
H324 C321 0.931 . S
H325 C301 0.930 . S
H326 C298 0.930 . S
H327 C307 0.930 . S
H328 C319 0.929 . S
H329 C322 0.930 . S
C330 C331 1.351 1_554 S
C330 N333 1.368 . S
C330 H335 0.931 . S
C331 C330 1.351 1_556 S
C331 N332 1.373 . S
C331 H359 0.930 . S
N332 C331 1.373 . S
N332 C334 1.340 . S
N333 C330 1.368 . S
N333 C334 1.321 1_554 S
N333 Co336 2.135 . S
C334 N332 1.340 . S
C334 N333 1.321 1_556 S
C334 H358 0.930 . S
H335 C330 0.931 . S
Co336 N333 2.135 . S
Co336 N339 2.121 . S
Co336 O344 2.055 . S
Co336 O347 2.039 . S
Co336 N350 2.140 . S
C337 O338 1.227 . S
C337 O347 1.265 1_556 S
O338 C337 1.227 . S
N339 Co336 2.121 . S
N339 C341 1.375 . S
N339 C342 1.313 . S
C340 C341 1.338 . S
C340 N343 1.377 . S
C340 H360 0.930 . S
C341 N339 1.375 . S
C341 C340 1.338 . S
C341 H345 0.931 . S
C342 N339 1.313 . S
C342 N343 1.344 . S
C342 H346 0.930 . S
N343 C340 1.377 . S
N343 C342 1.344 . S
O344 Co336 2.055 . S
O344 C348 1.253 . S
H345 C341 0.931 . S
H346 C342 0.930 . S
O347 Co336 2.039 . S
O347 C337 1.265 1_554 S
C348 O344 1.253 . S
C348 O349 1.227 . S
O349 C348 1.227 . S
N350 Co336 2.140 . S
N350 C353 1.346 . S
N350 C354 1.345 . S
C351 C352 1.387 1_554 S
C351 C355 1.391 . S
C352 C351 1.387 1_556 S
C352 C353 1.369 1_556 S
C352 H361 0.929 . S
C353 N350 1.346 . S
C353 C352 1.369 1_554 S
C353 H356 0.928 1_554 S
C354 N350 1.345 . S
C354 C355 1.371 . S
C354 H357 0.931 . S
C355 C351 1.391 . S
C355 C354 1.371 . S
C355 H362 0.930 . S
H356 C353 0.928 1_556 S
H357 C354 0.931 . S
H358 C334 0.930 . S
H359 C331 0.930 . S
H360 C340 0.930 . S
H361 C352 0.929 . S
H362 C355 0.930 . S
C363 C364 1.351 1_554 S
C363 N366 1.368 . S
C363 H368 0.931 . S
C364 C363 1.351 1_556 S
C364 N365 1.373 . S
C364 H392 0.930 . S
N365 C364 1.373 . S
N365 C367 1.340 . S
N366 C363 1.368 . S
N366 C367 1.321 1_554 S
N366 Co369 2.135 . S
C367 N365 1.340 . S
C367 N366 1.321 1_556 S
C367 H391 0.930 . S
H368 C363 0.931 . S
Co369 N366 2.135 . S
Co369 N372 2.121 . S
Co369 O377 2.055 . S
Co369 O380 2.039 . S
Co369 N383 2.140 . S
C370 O371 1.227 . S
C370 O380 1.265 1_556 S
O371 C370 1.227 . S
N372 Co369 2.121 . S
N372 C374 1.375 . S
N372 C375 1.313 . S
C373 C374 1.338 . S
C373 N376 1.377 . S
C373 H393 0.930 . S
C374 N372 1.375 . S
C374 C373 1.338 . S
C374 H378 0.931 . S
C375 N372 1.313 . S
C375 N376 1.344 . S
C375 H379 0.930 . S
N376 C373 1.377 . S
N376 C375 1.344 . S
O377 Co369 2.055 . S
O377 C381 1.253 . S
H378 C374 0.931 . S
H379 C375 0.930 . S
O380 Co369 2.039 . S
O380 C370 1.265 1_554 S
C381 O377 1.253 . S
C381 O382 1.227 . S
O382 C381 1.227 . S
N383 Co369 2.140 . S
N383 C386 1.346 . S
N383 C387 1.345 . S
C384 C385 1.387 1_554 S
C384 C388 1.391 . S
C385 C384 1.387 1_556 S
C385 C386 1.369 1_556 S
C385 H394 0.929 . S
C386 N383 1.346 . S
C386 C385 1.369 1_554 S
C386 H389 0.928 1_554 S
C387 N383 1.345 . S
C387 C388 1.371 . S
C387 H390 0.931 . S
C388 C384 1.391 . S
C388 C387 1.371 . S
C388 H395 0.930 . S
H389 C386 0.928 1_556 S
H390 C387 0.931 . S
H391 C367 0.930 . S
H392 C364 0.930 . S
H393 C373 0.930 . S
H394 C385 0.929 . S
H395 C388 0.930 . S
C396 C397 1.351 1_556 S
C396 N399 1.368 . S
C396 H401 0.931 . S
C397 C396 1.351 1_554 S
C397 N398 1.373 . S
C397 H425 0.930 . S
N398 C397 1.373 . S
N398 C400 1.340 . S
N399 C396 1.368 . S
N399 C400 1.321 1_556 S
N399 Co402 2.135 . S
C400 N398 1.340 . S
C400 N399 1.321 1_554 S
C400 H424 0.930 . S
H401 C396 0.931 . S
Co402 N399 2.135 . S
Co402 N405 2.121 . S
Co402 O410 2.055 . S
Co402 O413 2.039 . S
Co402 N416 2.140 . S
C403 O404 1.227 . S
C403 O413 1.265 1_554 S
O404 C403 1.227 . S
N405 Co402 2.121 . S
N405 C407 1.375 . S
N405 C408 1.313 . S
C406 C407 1.338 . S
C406 N409 1.377 . S
C406 H426 0.930 . S
C407 N405 1.375 . S
C407 C406 1.338 . S
C407 H411 0.931 . S
C408 N405 1.313 . S
C408 N409 1.344 . S
C408 H412 0.930 . S
N409 C406 1.377 . S
N409 C408 1.344 . S
O410 Co402 2.055 . S
O410 C414 1.253 . S
H411 C407 0.931 . S
H412 C408 0.930 . S
O413 Co402 2.039 . S
O413 C403 1.265 1_556 S
C414 O410 1.253 . S
C414 O415 1.227 . S
O415 C414 1.227 . S
N416 Co402 2.140 . S
N416 C419 1.346 . S
N416 C420 1.345 . S
C417 C418 1.387 1_556 S
C417 C421 1.391 . S
C418 C417 1.387 1_554 S
C418 C419 1.369 1_554 S
C418 H427 0.929 . S
C419 N416 1.346 . S
C419 C418 1.369 1_556 S
C419 H422 0.928 1_556 S
C420 N416 1.345 . S
C420 C421 1.371 . S
C420 H423 0.931 . S
C421 C417 1.391 . S
C421 C420 1.371 . S
C421 H428 0.930 . S
H422 C419 0.928 1_554 S
H423 C420 0.931 . S
H424 C400 0.930 . S
H425 C397 0.930 . S
H426 C406 0.930 . S
H427 C418 0.929 . S
H428 C421 0.930 . S
C429 C430 1.351 1_556 S
C429 N432 1.368 . S
C429 H434 0.931 . S
C430 C429 1.351 1_554 S
C430 N431 1.373 . S
C430 H458 0.930 . S
N431 C430 1.373 . S
N431 C433 1.340 . S
N432 C429 1.368 . S
N432 C433 1.321 1_556 S
N432 Co435 2.135 . S
C433 N431 1.340 . S
C433 N432 1.321 1_554 S
C433 H457 0.930 . S
H434 C429 0.931 . S
Co435 N432 2.135 . S
Co435 N438 2.121 . S
Co435 O443 2.055 . S
Co435 O446 2.039 . S
Co435 N449 2.140 . S
C436 O437 1.227 . S
C436 O446 1.265 1_554 S
O437 C436 1.227 . S
N438 Co435 2.121 . S
N438 C440 1.375 . S
N438 C441 1.313 . S
C439 C440 1.338 . S
C439 N442 1.377 . S
C439 H459 0.930 . S
C440 N438 1.375 . S
C440 C439 1.338 . S
C440 H444 0.931 . S
C441 N438 1.313 . S
C441 N442 1.344 . S
C441 H445 0.930 . S
N442 C439 1.377 . S
N442 C441 1.344 . S
O443 Co435 2.055 . S
O443 C447 1.253 . S
H444 C440 0.931 . S
H445 C441 0.930 . S
O446 Co435 2.039 . S
O446 C436 1.265 1_556 S
C447 O443 1.253 . S
C447 O448 1.227 . S
O448 C447 1.227 . S
N449 Co435 2.140 . S
N449 C452 1.346 . S
N449 C453 1.345 . S
C450 C451 1.387 1_556 S
C450 C454 1.391 . S
C451 C450 1.387 1_554 S
C451 C452 1.369 1_554 S
C451 H460 0.929 . S
C452 N449 1.346 . S
C452 C451 1.369 1_556 S
C452 H455 0.928 1_556 S
C453 N449 1.345 . S
C453 C454 1.371 . S
C453 H456 0.931 . S
C454 C450 1.391 . S
C454 C453 1.371 . S
C454 H461 0.930 . S
H455 C452 0.928 1_554 S
H456 C453 0.931 . S
H457 C433 0.930 . S
H458 C430 0.930 . S
H459 C439 0.930 . S
H460 C451 0.929 . S
H461 C454 0.930 . S
C462 C463 1.351 1_556 S
C462 N465 1.368 . S
C462 H467 0.931 . S
C463 C462 1.351 1_554 S
C463 N464 1.373 . S
C463 H491 0.930 . S
N464 C463 1.373 . S
N464 C466 1.340 . S
N465 C462 1.368 . S
N465 C466 1.321 1_556 S
N465 Co468 2.135 . S
C466 N464 1.340 . S
C466 N465 1.321 1_554 S
C466 H490 0.930 . S
H467 C462 0.931 . S
Co468 N465 2.135 . S
Co468 N471 2.121 . S
Co468 O476 2.055 . S
Co468 O479 2.039 . S
Co468 N482 2.140 . S
C469 O470 1.227 . S
C469 O479 1.265 1_554 S
O470 C469 1.227 . S
N471 Co468 2.121 . S
N471 C473 1.375 . S
N471 C474 1.313 . S
C472 C473 1.338 . S
C472 N475 1.377 . S
C472 H492 0.930 . S
C473 N471 1.375 . S
C473 C472 1.338 . S
C473 H477 0.931 . S
C474 N471 1.313 . S
C474 N475 1.344 . S
C474 H478 0.930 . S
N475 C472 1.377 . S
N475 C474 1.344 . S
O476 Co468 2.055 . S
O476 C480 1.253 . S
H477 C473 0.931 . S
H478 C474 0.930 . S
O479 Co468 2.039 . S
O479 C469 1.265 1_556 S
C480 O476 1.253 . S
C480 O481 1.227 . S
O481 C480 1.227 . S
N482 Co468 2.140 . S
N482 C485 1.346 . S
N482 C486 1.345 . S
C483 C484 1.387 1_556 S
C483 C487 1.391 . S
C484 C483 1.387 1_554 S
C484 C485 1.369 1_554 S
C484 H493 0.929 . S
C485 N482 1.346 . S
C485 C484 1.369 1_556 S
C485 H488 0.928 1_556 S
C486 N482 1.345 . S
C486 C487 1.371 . S
C486 H489 0.931 . S
C487 C483 1.391 . S
C487 C486 1.371 . S
C487 H494 0.930 . S
H488 C485 0.928 1_554 S
H489 C486 0.931 . S
H490 C466 0.930 . S
H491 C463 0.930 . S
H492 C472 0.930 . S
H493 C484 0.929 . S
H494 C487 0.930 . S
C495 C496 1.351 . S
C495 N498 1.368 . S
C495 H500 0.931 . S
C496 C495 1.351 . S
C496 N497 1.373 . S
C496 H524 0.930 . S
N497 C496 1.373 . S
N497 C499 1.340 . S
N498 C495 1.368 . S
N498 C499 1.321 . S
N498 Co501 2.135 . S
C499 N497 1.340 . S
C499 N498 1.321 . S
C499 H523 0.930 . S
H500 C495 0.931 . S
Co501 N498 2.135 . S
Co501 N504 2.121 . S
Co501 O509 2.055 . S
Co501 O512 2.039 . S
Co501 N515 2.140 . S
C502 O503 1.227 . S
C502 O512 1.265 . S
O503 C502 1.227 . S
N504 Co501 2.121 . S
N504 C506 1.375 . S
N504 C507 1.313 . S
C505 C506 1.338 . S
C505 N508 1.377 . S
C505 H525 0.930 . S
C506 N504 1.375 . S
C506 C505 1.338 . S
C506 H510 0.931 . S
C507 N504 1.313 . S
C507 N508 1.344 . S
C507 H511 0.930 . S
N508 C505 1.377 . S
N508 C507 1.344 . S
O509 Co501 2.055 . S
O509 C513 1.253 . S
H510 C506 0.931 . S
H511 C507 0.930 . S
O512 Co501 2.039 . S
O512 C502 1.265 . S
C513 O509 1.253 . S
C513 O514 1.227 . S
O514 C513 1.227 . S
N515 Co501 2.140 . S
N515 C518 1.346 . S
N515 C519 1.345 . S
C516 C517 1.387 . S
C516 C520 1.391 . S
C517 C516 1.387 . S
C517 C518 1.369 . S
C517 H526 0.929 . S
C518 N515 1.346 . S
C518 C517 1.369 . S
C518 H521 0.928 . S
C519 N515 1.345 . S
C519 C520 1.371 . S
C519 H522 0.931 . S
C520 C516 1.391 . S
C520 C519 1.371 . S
C520 H527 0.930 . S
H521 C518 0.928 . S
H522 C519 0.931 . S
H523 C499 0.930 . S
H524 C496 0.930 . S
H525 C505 0.930 . S
H526 C517 0.929 . S
H527 C520 0.930 . S
C528 C529 1.351 . S
C528 N531 1.368 . S
C528 H533 0.931 . S
C529 C528 1.351 . S
C529 N530 1.373 . S
C529 H557 0.930 . S
N530 C529 1.373 . S
N530 C532 1.340 . S
N531 C528 1.368 . S
N531 C532 1.321 . S
N531 Co534 2.135 . S
C532 N530 1.340 . S
C532 N531 1.321 . S
C532 H556 0.930 . S
H533 C528 0.931 . S
Co534 N531 2.135 . S
Co534 N537 2.121 . S
Co534 O542 2.055 . S
Co534 O545 2.039 . S
Co534 N548 2.140 . S
C535 O536 1.227 . S
C535 O545 1.265 . S
O536 C535 1.227 . S
N537 Co534 2.121 . S
N537 C539 1.375 . S
N537 C540 1.313 . S
C538 C539 1.338 . S
C538 N541 1.377 . S
C538 H558 0.930 . S
C539 N537 1.375 . S
C539 C538 1.338 . S
C539 H543 0.931 . S
C540 N537 1.313 . S
C540 N541 1.344 . S
C540 H544 0.930 . S
N541 C538 1.377 . S
N541 C540 1.344 . S
O542 Co534 2.055 . S
O542 C546 1.253 . S
H543 C539 0.931 . S
H544 C540 0.930 . S
O545 Co534 2.039 . S
O545 C535 1.265 . S
C546 O542 1.253 . S
C546 O547 1.227 . S
O547 C546 1.227 . S
N548 Co534 2.140 . S
N548 C551 1.346 . S
N548 C552 1.345 . S
C549 C550 1.387 . S
C549 C553 1.391 . S
C550 C549 1.387 . S
C550 C551 1.369 . S
C550 H559 0.929 . S
C551 N548 1.346 . S
C551 C550 1.369 . S
C551 H554 0.928 . S
C552 N548 1.345 . S
C552 C553 1.371 . S
C552 H555 0.931 . S
C553 C549 1.391 . S
C553 C552 1.371 . S
C553 H560 0.930 . S
H554 C551 0.928 . S
H555 C552 0.931 . S
H556 C532 0.930 . S
H557 C529 0.930 . S
H558 C538 0.930 . S
H559 C550 0.929 . S
H560 C553 0.930 . S
C561 C562 1.351 . S
C561 N564 1.368 . S
C561 H566 0.931 . S
C562 C561 1.351 . S
C562 N563 1.373 . S
C562 H590 0.930 . S
N563 C562 1.373 . S
N563 C565 1.340 . S
N564 C561 1.368 . S
N564 C565 1.321 . S
N564 Co567 2.135 . S
C565 N563 1.340 . S
C565 N564 1.321 . S
C565 H589 0.930 . S
H566 C561 0.931 . S
Co567 N564 2.135 . S
Co567 N570 2.121 . S
Co567 O575 2.055 . S
Co567 O578 2.039 . S
Co567 N581 2.140 . S
C568 O569 1.227 . S
C568 O578 1.265 . S
O569 C568 1.227 . S
N570 Co567 2.121 . S
N570 C572 1.375 . S
N570 C573 1.313 . S
C571 C572 1.338 . S
C571 N574 1.377 . S
C571 H591 0.930 . S
C572 N570 1.375 . S
C572 C571 1.338 . S
C572 H576 0.931 . S
C573 N570 1.313 . S
C573 N574 1.344 . S
C573 H577 0.930 . S
N574 C571 1.377 . S
N574 C573 1.344 . S
O575 Co567 2.055 . S
O575 C579 1.253 . S
H576 C572 0.931 . S
H577 C573 0.930 . S
O578 Co567 2.039 . S
O578 C568 1.265 . S
C579 O575 1.253 . S
C579 O580 1.227 . S
O580 C579 1.227 . S
N581 Co567 2.140 . S
N581 C584 1.346 . S
N581 C585 1.345 . S
C582 C583 1.387 . S
C582 C586 1.391 . S
C583 C582 1.387 . S
C583 C584 1.369 . S
C583 H592 0.929 . S
C584 N581 1.346 . S
C584 C583 1.369 . S
C584 H587 0.928 . S
C585 N581 1.345 . S
C585 C586 1.371 . S
C585 H588 0.931 . S
C586 C582 1.391 . S
C586 C585 1.371 . S
C586 H593 0.930 . S
H587 C584 0.928 . S
H588 C585 0.931 . S
H589 C565 0.930 . S
H590 C562 0.930 . S
H591 C571 0.930 . S
H592 C583 0.929 . S
H593 C586 0.930 . S
C594 C595 1.387 1_554 S
C594 H598 0.950 . S
C594 C603 1.390 . S
C595 C594 1.387 1_556 S
C595 C597 1.387 . S
H596 C603 0.950 . S
C597 C595 1.387 . S
C597 C599 1.390 . S
C597 H601 0.950 . S
H598 C594 0.950 . S
C599 C597 1.390 . S
C599 C600 1.387 1_556 S
C599 H602 0.950 . S
C600 C599 1.387 1_554 S
C600 C603 1.387 . S
H601 C597 0.950 . S
H602 C599 0.950 . S
C603 C594 1.390 . S
C603 H596 0.950 . S
C603 C600 1.387 . S
C604 C605 1.387 . S
C604 H608 0.950 . S
C604 C613 1.390 1_546 S
C605 C604 1.387 . S
C605 C607 1.387 . S
H606 C613 0.950 . S
C607 C605 1.387 . S
C607 C609 1.390 1_546 S
C607 H611 0.950 . S
H608 C604 0.950 . S
C609 C607 1.390 1_564 S
C609 C610 1.387 . S
C609 H612 0.950 . S
C610 C609 1.387 . S
C610 C613 1.387 . S
H611 C607 0.950 . S
H612 C609 0.950 . S
C613 C604 1.390 1_564 S
C613 H606 0.950 . S
C613 C610 1.387 . S
C614 C615 1.387 1_556 S
C614 H618 0.950 . S
C614 C623 1.417 . S
C615 C614 1.387 1_554 S
C615 C617 1.364 1_455 S
H616 C623 0.947 . S
C617 C615 1.364 1_655 S
C617 C619 1.417 . S
C617 H621 0.947 . S
H618 C614 0.950 . S
C619 C617 1.417 . S
C619 C620 1.387 1_554 S
C619 H622 0.950 . S
C620 C619 1.387 1_556 S
C620 C623 1.365 1_655 S
H621 C617 0.947 . S
H622 C619 0.950 . S
C623 C614 1.417 . S
C623 H616 0.947 . S
C623 C620 1.365 1_455 S
C624 C625 1.387 . S
C624 H628 0.950 . S
C624 C633 1.390 . S
C625 C624 1.387 . S
C625 C627 1.387 1_554 S
H626 C633 0.950 . S
C627 C625 1.387 1_556 S
C627 C629 1.390 . S
C627 H631 0.950 . S
H628 C624 0.950 . S
C629 C627 1.390 . S
C629 C630 1.387 . S
C629 H632 0.950 . S
C630 C629 1.387 . S
C630 C633 1.387 1_556 S
H631 C627 0.950 . S
H632 C629 0.950 . S
C633 C624 1.390 . S
C633 H626 0.950 . S
C633 C630 1.387 1_554 S
C634 C635 1.387 . S
C634 H638 0.950 . S
C634 C643 1.390 1_546 S
C635 C634 1.387 . S
C635 C637 1.387 . S
H636 C643 0.950 . S
C637 C635 1.387 . S
C637 C639 1.390 1_546 S
C637 H641 0.950 . S
H638 C634 0.950 . S
C639 C637 1.390 1_564 S
C639 C640 1.387 . S
C639 H642 0.950 . S
C640 C639 1.387 . S
C640 C643 1.387 . S
H641 C637 0.950 . S
H642 C639 0.950 . S
C643 C634 1.390 1_564 S
C643 H636 0.950 . S
C643 C640 1.387 . S
C644 C645 1.387 1_455 S
C644 H648 0.950 . S
C644 C653 1.383 1_556 S
C645 C644 1.387 1_655 S
C645 C647 1.395 . S
H646 C653 0.950 . S
C647 C645 1.395 . S
C647 C649 1.382 1_556 S
C647 H651 0.950 . S
H648 C644 0.950 . S
C649 C647 1.382 1_554 S
C649 C650 1.387 1_655 S
C649 H652 0.950 . S
C650 C649 1.387 1_455 S
C650 C653 1.395 . S
H651 C647 0.950 . S
H652 C649 0.950 . S
C653 C644 1.383 1_554 S
C653 H646 0.950 . S
C653 C650 1.395 . S
C654 C655 1.387 . S
C654 H658 0.950 . S
C654 C663 1.390 . S
C655 C654 1.387 . S
C655 C657 1.387 . S
H656 C663 0.950 . S
C657 C655 1.387 . S
C657 C659 1.390 . S
C657 H661 0.950 . S
H658 C654 0.950 . S
C659 C657 1.390 . S
C659 C660 1.387 . S
C659 H662 0.950 . S
C660 C659 1.387 . S
C660 C663 1.387 . S
H661 C657 0.950 . S
H662 C659 0.950 . S
C663 C654 1.390 . S
C663 H656 0.950 . S
C663 C660 1.387 . S
C664 C665 1.387 . S
C664 H668 0.950 . S
C664 C673 1.390 . S
C665 C664 1.387 . S
C665 C667 1.387 . S
H666 C673 0.950 . S
C667 C665 1.387 . S
C667 C669 1.390 . S
C667 H671 0.950 . S
H668 C664 0.950 . S
C669 C667 1.390 . S
C669 C670 1.387 . S
C669 H672 0.950 . S
C670 C669 1.387 . S
C670 C673 1.387 . S
H671 C667 0.950 . S
H672 C669 0.950 . S
C673 C664 1.390 . S
C673 H666 0.950 . S
C673 C670 1.387 . S
C674 C675 1.387 . S
C674 H678 0.950 . S
C674 C683 1.390 . S
C675 C674 1.387 . S
C675 C677 1.387 . S
H676 C683 0.950 . S
C677 C675 1.387 . S
C677 C679 1.390 . S
C677 H681 0.950 . S
H678 C674 0.950 . S
C679 C677 1.390 . S
C679 C680 1.387 . S
C679 H682 0.950 . S
C680 C679 1.387 . S
C680 C683 1.387 . S
H681 C677 0.950 . S
H682 C679 0.950 . S
C683 C674 1.390 . S
C683 H676 0.950 . S
C683 C680 1.387 . S
C684 C685 1.387 . S
C684 H688 0.950 . S
C684 C693 1.390 . S
C685 C684 1.387 . S
C685 C687 1.387 . S
H686 C693 0.950 . S
C687 C685 1.387 . S
C687 C689 1.390 . S
C687 H691 0.950 . S
H688 C684 0.950 . S
C689 C687 1.390 . S
C689 C690 1.387 . S
C689 H692 0.950 . S
C690 C689 1.387 . S
C690 C693 1.387 . S
H691 C687 0.950 . S
H692 C689 0.950 . S
C693 C684 1.390 . S
C693 H686 0.950 . S
C693 C690 1.387 . S
C694 C695 1.387 . S
C694 H698 0.950 . S
C694 C703 1.390 . S
C695 C694 1.387 . S
C695 C697 1.387 . S
H696 C703 0.950 . S
C697 C695 1.387 . S
C697 C699 1.390 . S
C697 H701 0.950 . S
H698 C694 0.950 . S
C699 C697 1.390 . S
C699 C700 1.387 . S
C699 H702 0.950 . S
C700 C699 1.387 . S
C700 C703 1.387 . S
H701 C697 0.950 . S
H702 C699 0.950 . S
C703 C694 1.390 . S
C703 H696 0.950 . S
C703 C700 1.387 . S
C704 C705 1.387 . S
C704 H708 0.950 . S
C704 C713 1.390 . S
C705 C704 1.387 . S
C705 C707 1.387 . S
H706 C713 0.950 . S
C707 C705 1.387 . S
C707 C709 1.390 . S
C707 H711 0.950 . S
H708 C704 0.950 . S
C709 C707 1.390 . S
C709 C710 1.387 . S
C709 H712 0.950 . S
C710 C709 1.387 . S
C710 C713 1.387 . S
H711 C707 0.950 . S
H712 C709 0.950 . S
C713 C704 1.390 . S
C713 H706 0.950 . S
C713 C710 1.387 . S
C714 C715 1.387 . S
C714 H718 0.950 . S
C714 C723 1.390 . S
C715 C714 1.387 . S
C715 C717 1.387 . S
H716 C723 0.950 . S
C717 C715 1.387 . S
C717 C719 1.390 . S
C717 H721 0.950 . S
H718 C714 0.950 . S
C719 C717 1.390 . S
C719 C720 1.387 . S
C719 H722 0.950 . S
C720 C719 1.387 . S
C720 C723 1.387 . S
H721 C717 0.950 . S
H722 C719 0.950 . S
C723 C714 1.390 . S
C723 H716 0.950 . S
C723 C720 1.387 . S
C724 C725 1.387 . S
C724 H728 0.950 . S
C724 C733 1.390 . S
C725 C724 1.387 . S
C725 C727 1.387 . S
H726 C733 0.950 . S
C727 C725 1.387 . S
C727 C729 1.390 . S
C727 H731 0.950 . S
H728 C724 0.950 . S
C729 C727 1.390 . S
C729 C730 1.387 . S
C729 H732 0.950 . S
C730 C729 1.387 . S
C730 C733 1.387 . S
H731 C727 0.950 . S
H732 C729 0.950 . S
C733 C724 1.390 . S
C733 H726 0.950 . S
C733 C730 1.387 . S
C734 C735 1.387 . S
C734 H738 0.950 . S
C734 C743 1.390 . S
C735 C734 1.387 . S
C735 C737 1.387 . S
H736 C743 0.950 . S
C737 C735 1.387 . S
C737 C739 1.390 . S
C737 H741 0.950 . S
H738 C734 0.950 . S
C739 C737 1.390 . S
C739 C740 1.387 . S
C739 H742 0.950 . S
C740 C739 1.387 . S
C740 C743 1.387 . S
H741 C737 0.950 . S
H742 C739 0.950 . S
C743 C734 1.390 . S
C743 H736 0.950 . S
C743 C740 1.387 . S
C744 C745 1.387 . S
C744 H748 0.950 . S
C744 C753 1.390 . S
C745 C744 1.387 . S
C745 C747 1.387 . S
H746 C753 0.950 . S
C747 C745 1.387 . S
C747 C749 1.390 . S
C747 H751 0.950 . S
H748 C744 0.950 . S
C749 C747 1.390 . S
C749 C750 1.387 . S
C749 H752 0.950 . S
C750 C749 1.387 . S
C750 C753 1.387 . S
H751 C747 0.950 . S
H752 C749 0.950 . S
C753 C744 1.390 . S
C753 H746 0.950 . S
C753 C750 1.387 . S
C754 C755 1.387 . S
C754 H758 0.950 . S
C754 C763 1.390 . S
C755 C754 1.387 . S
C755 C757 1.387 . S
H756 C763 0.950 . S
C757 C755 1.387 . S
C757 C759 1.390 . S
C757 H761 0.950 . S
H758 C754 0.950 . S
C759 C757 1.390 . S
C759 C760 1.387 . S
C759 H762 0.950 . S
C760 C759 1.387 . S
C760 C763 1.387 . S
H761 C757 0.950 . S
H762 C759 0.950 . S
C763 C754 1.390 . S
C763 H756 0.950 . S
C763 C760 1.387 . S
C764 C765 1.387 . S
C764 H768 0.950 . S
C764 C773 1.390 . S
C765 C764 1.387 . S
C765 C767 1.387 . S
H766 C773 0.950 . S
C767 C765 1.387 . S
C767 C769 1.390 . S
C767 H771 0.950 . S
H768 C764 0.950 . S
C769 C767 1.390 . S
C769 C770 1.387 . S
C769 H772 0.950 . S
C770 C769 1.387 . S
C770 C773 1.387 . S
H771 C767 0.950 . S
H772 C769 0.950 . S
C773 C764 1.390 . S
C773 H766 0.950 . S
C773 C770 1.387 . S
C774 C775 1.387 . S
C774 H778 0.950 . S
C774 C783 1.390 . S
C775 C774 1.387 . S
C775 C777 1.387 . S
H776 C783 0.950 . S
C777 C775 1.387 . S
C777 C779 1.390 . S
C777 H781 0.950 . S
H778 C774 0.950 . S
C779 C777 1.390 . S
C779 C780 1.387 . S
C779 H782 0.950 . S
C780 C779 1.387 . S
C780 C783 1.387 . S
H781 C777 0.950 . S
H782 C779 0.950 . S
C783 C774 1.390 . S
C783 H776 0.950 . S
C783 C780 1.387 . S
C784 C785 1.387 . S
C784 H788 0.950 . S
C784 C793 1.390 . S
C785 C784 1.387 . S
C785 C787 1.387 . S
H786 C793 0.950 . S
C787 C785 1.387 . S
C787 C789 1.390 . S
C787 H791 0.950 . S
H788 C784 0.950 . S
C789 C787 1.390 . S
C789 C790 1.387 . S
C789 H792 0.950 . S
C790 C789 1.387 . S
C790 C793 1.387 . S
H791 C787 0.950 . S
H792 C789 0.950 . S
C793 C784 1.390 . S
C793 H786 0.950 . S
C793 C790 1.387 . S
C794 C795 1.387 . S
C794 H798 0.950 . S
C794 C803 1.390 . S
C795 C794 1.387 . S
C795 C797 1.387 . S
H796 C803 0.950 . S
C797 C795 1.387 . S
C797 C799 1.390 . S
C797 H801 0.950 . S
H798 C794 0.950 . S
C799 C797 1.390 . S
C799 C800 1.387 . S
C799 H802 0.950 . S
C800 C799 1.387 . S
C800 C803 1.387 . S
H801 C797 0.950 . S
H802 C799 0.950 . S
C803 C794 1.390 . S
C803 H796 0.950 . S
C803 C800 1.387 . S
C804 C805 1.387 . S
C804 H808 0.950 . S
C804 C813 1.390 . S
C805 C804 1.387 . S
C805 C807 1.387 . S
H806 C813 0.950 . S
C807 C805 1.387 . S
C807 C809 1.390 . S
C807 H811 0.950 . S
H808 C804 0.950 . S
C809 C807 1.390 . S
C809 C810 1.387 . S
C809 H812 0.950 . S
C810 C809 1.387 . S
C810 C813 1.387 . S
H811 C807 0.950 . S
H812 C809 0.950 . S
C813 C804 1.390 . S
C813 H806 0.950 . S
C813 C810 1.387 . S
C814 C815 1.387 . S
C814 H818 0.950 . S
C814 C823 1.390 . S
C815 C814 1.387 . S
C815 C817 1.387 . S
H816 C823 0.950 . S
C817 C815 1.387 . S
C817 C819 1.390 . S
C817 H821 0.950 . S
H818 C814 0.950 . S
C819 C817 1.390 . S
C819 C820 1.387 . S
C819 H822 0.950 . S
C820 C819 1.387 . S
C820 C823 1.387 . S
H821 C817 0.950 . S
H822 C819 0.950 . S
C823 C814 1.390 . S
C823 H816 0.950 . S
C823 C820 1.387 . S
C824 C825 1.387 . S
C824 H828 0.950 . S
C824 C833 1.390 . S
C825 C824 1.387 . S
C825 C827 1.387 . S
H826 C833 0.950 . S
C827 C825 1.387 . S
C827 C829 1.390 . S
C827 H831 0.950 . S
H828 C824 0.950 . S
C829 C827 1.390 . S
C829 C830 1.387 . S
C829 H832 0.950 . S
C830 C829 1.387 . S
C830 C833 1.387 . S
H831 C827 0.950 . S
H832 C829 0.950 . S
C833 C824 1.390 . S
C833 H826 0.950 . S
C833 C830 1.387 . S
C834 C835 1.387 . S
C834 H838 0.950 . S
C834 C843 1.390 1_455 S
C835 C834 1.387 . S
C835 C837 1.387 1_556 S
H836 C843 0.950 . S
C837 C835 1.387 1_554 S
C837 C839 1.390 1_455 S
C837 H841 0.950 . S
H838 C834 0.950 . S
C839 C837 1.390 1_655 S
C839 C840 1.387 . S
C839 H842 0.950 . S
C840 C839 1.387 . S
C840 C843 1.387 1_554 S
H841 C837 0.950 . S
H842 C839 0.950 . S
C843 C834 1.390 1_655 S
C843 H836 0.950 . S
C843 C840 1.387 1_556 S
C844 C845 1.387 1_554 S
C844 H848 0.950 . S
C844 C853 1.390 . S
C845 C844 1.387 1_556 S
C845 C847 1.387 . S
H846 C853 0.950 . S
C847 C845 1.387 . S
C847 C849 1.390 . S
C847 H851 0.950 . S
H848 C844 0.950 . S
C849 C847 1.390 . S
C849 C850 1.387 1_556 S
C849 H852 0.950 . S
C850 C849 1.387 1_554 S
C850 C853 1.387 . S
H851 C847 0.950 . S
H852 C849 0.950 . S
C853 C844 1.390 . S
C853 H846 0.950 . S
C853 C850 1.387 . S
C854 C855 1.387 . S
C854 H858 0.950 . S
C854 C863 1.390 1_544 S
C855 C854 1.387 . S
C855 C857 1.387 . S
H856 C863 0.950 . S
C857 C855 1.387 . S
C857 C859 1.390 1_544 S
C857 H861 0.950 . S
H858 C854 0.950 . S
C859 C857 1.390 1_566 S
C859 C860 1.387 . S
C859 H862 0.950 . S
C860 C859 1.387 . S
C860 C863 1.387 . S
H861 C857 0.950 . S
H862 C859 0.950 . S
C863 C854 1.390 1_566 S
C863 H856 0.950 . S
C863 C860 1.387 . S
C864 C865 1.387 . S
C864 H868 0.950 . S
C864 C873 1.390 . S
C865 C864 1.387 . S
C865 C867 1.387 . S
H866 C873 0.950 . S
C867 C865 1.387 . S
C867 C869 1.390 . S
C867 H871 0.950 . S
H868 C864 0.950 . S
C869 C867 1.390 . S
C869 C870 1.387 . S
C869 H872 0.950 . S
C870 C869 1.387 . S
C870 C873 1.387 . S
H871 C867 0.950 . S
H872 C869 0.950 . S
C873 C864 1.390 . S
C873 H866 0.950 . S
C873 C870 1.387 . S
C874 C875 1.387 . S
C874 H878 0.950 . S
C874 C883 1.390 1_545 S
C875 C874 1.387 . S
C875 C877 1.387 . S
H876 C883 0.950 . S
C877 C875 1.387 . S
C877 C879 1.390 1_545 S
C877 H881 0.950 . S
H878 C874 0.950 . S
C879 C877 1.390 1_565 S
C879 C880 1.387 . S
C879 H882 0.950 . S
C880 C879 1.387 . S
C880 C883 1.387 . S
H881 C877 0.950 . S
H882 C879 0.950 . S
C883 C874 1.390 1_565 S
C883 H876 0.950 . S
C883 C880 1.387 . S
C884 C885 1.387 1_655 S
C884 H888 0.950 . S
C884 C893 1.390 . S
C885 C884 1.387 1_455 S
C885 C887 1.387 . S
H886 C893 0.950 . S
C887 C885 1.387 . S
C887 C889 1.390 . S
C887 H891 0.950 . S
H888 C884 0.950 . S
C889 C887 1.390 . S
C889 C890 1.387 1_455 S
C889 H892 0.950 . S
C890 C889 1.387 1_655 S
C890 C893 1.387 . S
H891 C887 0.950 . S
H892 C889 0.950 . S
C893 C884 1.390 . S
C893 H886 0.950 . S
C893 C890 1.387 . S
C894 C895 1.387 . S
C894 H898 0.950 . S
C894 C903 1.390 . S
C895 C894 1.387 . S
C895 C897 1.387 . S
H896 C903 0.950 . S
C897 C895 1.387 . S
C897 C899 1.390 . S
C897 H901 0.950 . S
H898 C894 0.950 . S
C899 C897 1.390 . S
C899 C900 1.387 . S
C899 H902 0.950 . S
C900 C899 1.387 . S
C900 C903 1.387 . S
H901 C897 0.950 . S
H902 C899 0.950 . S
C903 C894 1.390 . S
C903 H896 0.950 . S
C903 C900 1.387 . S
C904 C905 1.387 . S
C904 H908 0.950 . S
C904 C913 1.390 1_565 S
C905 C904 1.387 . S
C905 C907 1.387 . S
H906 C913 0.950 . S
C907 C905 1.387 . S
C907 C909 1.390 1_565 S
C907 H911 0.950 . S
H908 C904 0.950 . S
C909 C907 1.390 1_545 S
C909 C910 1.387 . S
C909 H912 0.950 . S
C910 C909 1.387 . S
C910 C913 1.387 . S
H911 C907 0.950 . S
H912 C909 0.950 . S
C913 C904 1.390 1_545 S
C913 H906 0.950 . S
C913 C910 1.387 . S
C914 C915 1.387 . S
C914 H918 0.950 . S
C914 C923 1.390 1_655 S
C915 C914 1.387 . S
C915 C917 1.387 . S
H916 C923 0.950 . S
C917 C915 1.387 . S
C917 C919 1.390 1_655 S
C917 H921 0.950 . S
H918 C914 0.950 . S
C919 C917 1.390 1_455 S
C919 C920 1.387 . S
C919 H922 0.950 . S
C920 C919 1.387 . S
C920 C923 1.387 . S
H921 C917 0.950 . S
H922 C919 0.950 . S
C923 C914 1.390 1_455 S
C923 H916 0.950 . S
C923 C920 1.387 . S
C924 C925 1.387 . S
C924 H928 0.950 . S
C924 C933 1.390 . S
C925 C924 1.387 . S
C925 C927 1.387 . S
H926 C933 0.950 . S
C927 C925 1.387 . S
C927 C929 1.390 . S
C927 H931 0.950 . S
H928 C924 0.950 . S
C929 C927 1.390 . S
C929 C930 1.387 . S
C929 H932 0.950 . S
C930 C929 1.387 . S
C930 C933 1.387 . S
H931 C927 0.950 . S
H932 C929 0.950 . S
C933 C924 1.390 . S
C933 H926 0.950 . S
C933 C930 1.387 . S
C934 C935 1.387 . S
C934 H938 0.950 . S
C934 C943 1.390 . S
C935 C934 1.387 . S
C935 C937 1.387 . S
H936 C943 0.950 . S
C937 C935 1.387 . S
C937 C939 1.390 . S
C937 H941 0.950 . S
H938 C934 0.950 . S
C939 C937 1.390 . S
C939 C940 1.387 . S
C939 H942 0.950 . S
C940 C939 1.387 . S
C940 C943 1.387 . S
H941 C937 0.950 . S
H942 C939 0.950 . S
C943 C934 1.390 . S
C943 H936 0.950 . S
C943 C940 1.387 . S
C944 C945 1.387 . S
C944 H948 0.950 . S
C944 C953 1.390 . S
C945 C944 1.387 . S
C945 C947 1.387 . S
H946 C953 0.950 . S
C947 C945 1.387 . S
C947 C949 1.390 . S
C947 H951 0.950 . S
H948 C944 0.950 . S
C949 C947 1.390 . S
C949 C950 1.387 . S
C949 H952 0.950 . S
C950 C949 1.387 . S
C950 C953 1.387 . S
H951 C947 0.950 . S
H952 C949 0.950 . S
C953 C944 1.390 . S
C953 H946 0.950 . S
C953 C950 1.387 . S
C954 C955 1.387 . S
C954 H958 0.950 . S
C954 C963 1.390 . S
C955 C954 1.387 . S
C955 C957 1.387 . S
H956 C963 0.950 . S
C957 C955 1.387 . S
C957 C959 1.390 . S
C957 H961 0.950 . S
H958 C954 0.950 . S
C959 C957 1.390 . S
C959 C960 1.387 . S
C959 H962 0.950 . S
C960 C959 1.387 . S
C960 C963 1.387 . S
H961 C957 0.950 . S
H962 C959 0.950 . S
C963 C954 1.390 . S
C963 H956 0.950 . S
C963 C960 1.387 . S
C964 C965 1.387 . S
C964 H968 0.950 . S
C964 C973 1.390 . S
C965 C964 1.387 . S
C965 C967 1.387 . S
H966 C973 0.950 . S
C967 C965 1.387 . S
C967 C969 1.390 . S
C967 H971 0.950 . S
H968 C964 0.950 . S
C969 C967 1.390 . S
C969 C970 1.387 . S
C969 H972 0.950 . S
C970 C969 1.387 . S
C970 C973 1.387 . S
H971 C967 0.950 . S
H972 C969 0.950 . S
C973 C964 1.390 . S
C973 H966 0.950 . S
C973 C970 1.387 . S
C974 C975 1.387 . S
C974 H978 0.950 . S
C974 C983 1.390 . S
C975 C974 1.387 . S
C975 C977 1.387 . S
H976 C983 0.950 . S
C977 C975 1.387 . S
C977 C979 1.390 . S
C977 H981 0.950 . S
H978 C974 0.950 . S
C979 C977 1.390 . S
C979 C980 1.387 . S
C979 H982 0.950 . S
C980 C979 1.387 . S
C980 C983 1.387 . S
H981 C977 0.950 . S
H982 C979 0.950 . S
C983 C974 1.390 . S
C983 H976 0.950 . S
C983 C980 1.387 . S
C984 C985 1.387 . S
C984 H988 0.950 . S
C984 C993 1.390 . S
C985 C984 1.387 . S
C985 C987 1.387 . S
H986 C993 0.950 . S
C987 C985 1.387 . S
C987 C989 1.390 . S
C987 H991 0.950 . S
H988 C984 0.950 . S
C989 C987 1.390 . S
C989 C990 1.387 . S
C989 H992 0.950 . S
C990 C989 1.387 . S
C990 C993 1.387 . S
H991 C987 0.950 . S
H992 C989 0.950 . S
C993 C984 1.390 . S
C993 H986 0.950 . S
C993 C990 1.387 . S
C994 C995 1.387 . S
C994 H998 0.950 . S
C994 C1003 1.390 . S
C995 C994 1.387 . S
C995 C997 1.387 . S
H996 C1003 0.950 . S
C997 C995 1.387 . S
C997 C999 1.390 . S
C997 H1001 0.950 . S
H998 C994 0.950 . S
C999 C997 1.390 . S
C999 C1000 1.387 . S
C999 H1002 0.950 . S
C1000 C999 1.387 . S
C1000 C1003 1.387 . S
H1001 C997 0.950 . S
H1002 C999 0.950 . S
C1003 C994 1.390 . S
C1003 H996 0.950 . S
C1003 C1000 1.387 . S
C1004 C1005 1.387 . S
C1004 H1008 0.950 . S
C1004 C1013 1.390 . S
C1005 C1004 1.387 . S
C1005 C1007 1.387 . S
H1006 C1013 0.950 . S
C1007 C1005 1.387 . S
C1007 C1009 1.390 . S
C1007 H1011 0.950 . S
H1008 C1004 0.950 . S
C1009 C1007 1.390 . S
C1009 C1010 1.387 . S
C1009 H1012 0.950 . S
C1010 C1009 1.387 . S
C1010 C1013 1.387 . S
H1011 C1007 0.950 . S
H1012 C1009 0.950 . S
C1013 C1004 1.390 . S
C1013 H1006 0.950 . S
C1013 C1010 1.387 . S
C1014 C1015 1.387 . S
C1014 H1018 0.950 . S
C1014 C1023 1.390 . S
C1015 C1014 1.387 . S
C1015 C1017 1.387 . S
H1016 C1023 0.950 . S
C1017 C1015 1.387 . S
C1017 C1019 1.390 . S
C1017 H1021 0.950 . S
H1018 C1014 0.950 . S
C1019 C1017 1.390 . S
C1019 C1020 1.387 . S
C1019 H1022 0.950 . S
C1020 C1019 1.387 . S
C1020 C1023 1.387 . S
H1021 C1017 0.950 . S
H1022 C1019 0.950 . S
C1023 C1014 1.390 . S
C1023 H1016 0.950 . S
C1023 C1020 1.387 . S
C1024 C1025 1.387 . S
C1024 H1028 0.950 . S
C1024 C1033 1.390 . S
C1025 C1024 1.387 . S
C1025 C1027 1.387 . S
H1026 C1033 0.950 . S
C1027 C1025 1.387 . S
C1027 C1029 1.390 . S
C1027 H1031 0.950 . S
H1028 C1024 0.950 . S
C1029 C1027 1.390 . S
C1029 C1030 1.387 . S
C1029 H1032 0.950 . S
C1030 C1029 1.387 . S
C1030 C1033 1.387 . S
H1031 C1027 0.950 . S
H1032 C1029 0.950 . S
C1033 C1024 1.390 . S
C1033 H1026 0.950 . S
C1033 C1030 1.387 . S
C1034 C1035 1.387 . S
C1034 H1038 0.950 . S
C1034 C1043 1.390 . S
C1035 C1034 1.387 . S
C1035 C1037 1.387 . S
H1036 C1043 0.950 . S
C1037 C1035 1.387 . S
C1037 C1039 1.390 . S
C1037 H1041 0.950 . S
H1038 C1034 0.950 . S
C1039 C1037 1.390 . S
C1039 C1040 1.387 . S
C1039 H1042 0.950 . S
C1040 C1039 1.387 . S
C1040 C1043 1.387 . S
H1041 C1037 0.950 . S
H1042 C1039 0.950 . S
C1043 C1034 1.390 . S
C1043 H1036 0.950 . S
C1043 C1040 1.387 . S
C595 N112 1.111 . S
C600 N13 1.112 . S
C605 N145 1.111 . S
C610 N46 1.111 . S
C615 N79 1.112 . S
C620 N178 1.113 . S
C625 C51 2.230 . S
C630 C183 2.230 . S
C635 C117 2.230 . S
C640 C84 2.230 . S
C645 C150 2.230 . S
C650 C18 2.230 . S
C655 N211 1.116 . S
C660 N310 1.116 . S
C665 N343 1.111 . S
C670 N244 1.111 . S
C675 N277 1.115 . S
C680 N376 1.114 . S
C685 C381 2.230 . S
C690 C249 2.230 . S
C695 C315 2.230 . S
C700 C282 2.230 . S
C705 C348 2.230 . S
C710 C216 2.230 . S
C715 N508 1.111 . S
C720 N409 1.112 . S
C725 N442 1.111 . S
C730 N541 1.111 . S
C735 N574 1.111 . S
C740 N475 1.111 . S
C745 C447 2.230 . S
C750 C579 2.230 . S
C755 C513 2.230 . S
C760 C480 2.230 . S
C765 C414 2.230 . S
C770 C546 2.230 . S
C775 C582 1.449 . S
C780 C21 1.449 . S
C785 C54 1.447 . S
C790 C516 1.447 . S
C795 C549 1.447 . S
C800 C87 1.447 . S
C805 C252 1.448 . S
C810 C120 1.448 . S
C815 C153 1.449 . S
C820 C285 1.449 . S
C825 C186 1.447 . S
C830 C219 1.447 . S
C835 C450 1.448 . S
C840 C318 1.448 . S
C845 C483 1.449 . S
C850 C351 1.449 . S
C855 C384 1.447 . S
C860 C417 1.447 . S
C865 C7 2.019 . S
C870 C106 2.020 . S
C875 C139 2.020 . S
C880 C40 2.020 . S
C885 C73 2.020 . S
C890 C172 2.019 . S
C895 N167 0.828 . S
C900 N35 0.827 . S
C905 N68 0.822 . S
C910 N101 0.822 . S
C915 N134 0.829 . S
C920 N2 0.828 . S
C925 C205 2.019 . S
C930 C304 2.020 . S
C935 C337 2.018 . S
C940 C238 2.018 . S
C945 C370 2.019 . S
C950 C271 2.018 . S
C955 N365 0.822 . S
C960 N233 0.823 . S
C965 N299 0.830 . S
C970 N266 0.830 . S
C975 N332 0.824 . S
C980 N200 0.825 . S
C985 C502 2.018 . S
C990 C403 2.018 . S
C995 C535 2.020 . S
C1000 C436 2.020 . S
C1005 C568 2.018 . S
C1010 C469 2.018 . S
C1015 N563 0.826 . S
C1020 N431 0.824 . S
C1025 N497 0.830 . S
C1030 N464 0.830 . S
C1035 N530 0.830 . S
C1040 N398 0.829 . S
