# Generated by pormake.
# Topology whk, (6)-cn, num edge types: 1
# Building blocks:
#     Node 0, Type 0, BuildingBlock: CUWYAW_clean_sbu_0, # of connection points: 6
#     Node 1, Type 0, BuildingBlock: CUWYAW_clean_sbu_0, # of connection points: 6
#     Node 2, Type 0, BuildingBlock: CUWYAW_clean_sbu_0, # of connection points: 6
#     Node 3, Type 0, BuildingBlock: CUWYAW_clean_sbu_0, # of connection points: 6
#     Node 4, Type 0, BuildingBlock: CUWYAW_clean_sbu_0, # of connection points: 6
#     Node 5, Type 0, BuildingBlock: CUWYAW_clean_sbu_0, # of connection points: 6
#     Node 6, Type 0, BuildingBlock: CUWYAW_clean_sbu_0, # of connection points: 6
#     Node 7, Type 0, BuildingBlock: CUWYAW_clean_sbu_0, # of connection points: 6
#     Node 8, Type 0, BuildingBlock: CUWYAW_clean_sbu_0, # of connection points: 6
#     Node 9, Type 0, BuildingBlock: CUWYAW_clean_sbu_0, # of connection points: 6
#     Node 10, Type 0, BuildingBlock: CUWYAW_clean_sbu_0, # of connection points: 6
#     Node 11, Type 0, BuildingBlock: CUWYAW_clean_sbu_0, # of connection points: 6
#     Node 12, Type 0, BuildingBlock: CUWYAW_clean_sbu_0, # of connection points: 6
#     Node 13, Type 0, BuildingBlock: CUWYAW_clean_sbu_0, # of connection points: 6
#     Node 14, Type 0, BuildingBlock: CUWYAW_clean_sbu_0, # of connection points: 6
#     Node 15, Type 0, BuildingBlock: CUWYAW_clean_sbu_0, # of connection points: 6
#     Edge 16, Type (0, 0), BuildingBlock: KIFKEQ_clean_linker_1, # of connection points: 2
#     Edge 17, Type (0, 0), BuildingBlock: KIFKEQ_clean_linker_1, # of connection points: 2
#     Edge 18, Type (0, 0), BuildingBlock: KIFKEQ_clean_linker_1, # of connection points: 2
#     Edge 19, Type (0, 0), BuildingBlock: KIFKEQ_clean_linker_1, # of connection points: 2
#     Edge 20, Type (0, 0), BuildingBlock: KIFKEQ_clean_linker_1, # of connection points: 2
#     Edge 21, Type (0, 0), BuildingBlock: KIFKEQ_clean_linker_1, # of connection points: 2
#     Edge 22, Type (0, 0), BuildingBlock: KIFKEQ_clean_linker_1, # of connection points: 2
#     Edge 23, Type (0, 0), BuildingBlock: KIFKEQ_clean_linker_1, # of connection points: 2
#     Edge 24, Type (0, 0), BuildingBlock: KIFKEQ_clean_linker_1, # of connection points: 2
#     Edge 25, Type (0, 0), BuildingBlock: KIFKEQ_clean_linker_1, # of connection points: 2
#     Edge 26, Type (0, 0), BuildingBlock: KIFKEQ_clean_linker_1, # of connection points: 2
#     Edge 27, Type (0, 0), BuildingBlock: KIFKEQ_clean_linker_1, # of connection points: 2
#     Edge 28, Type (0, 0), BuildingBlock: KIFKEQ_clean_linker_1, # of connection points: 2
#     Edge 29, Type (0, 0), BuildingBlock: KIFKEQ_clean_linker_1, # of connection points: 2
#     Edge 30, Type (0, 0), BuildingBlock: KIFKEQ_clean_linker_1, # of connection points: 2
#     Edge 31, Type (0, 0), BuildingBlock: KIFKEQ_clean_linker_1, # of connection points: 2
#     Edge 32, Type (0, 0), BuildingBlock: KIFKEQ_clean_linker_1, # of connection points: 2
#     Edge 33, Type (0, 0), BuildingBlock: KIFKEQ_clean_linker_1, # of connection points: 2
#     Edge 34, Type (0, 0), BuildingBlock: KIFKEQ_clean_linker_1, # of connection points: 2
#     Edge 35, Type (0, 0), BuildingBlock: KIFKEQ_clean_linker_1, # of connection points: 2
#     Edge 36, Type (0, 0), BuildingBlock: KIFKEQ_clean_linker_1, # of connection points: 2
#     Edge 37, Type (0, 0), BuildingBlock: KIFKEQ_clean_linker_1, # of connection points: 2
#     Edge 38, Type (0, 0), BuildingBlock: KIFKEQ_clean_linker_1, # of connection points: 2
#     Edge 39, Type (0, 0), BuildingBlock: KIFKEQ_clean_linker_1, # of connection points: 2
#     Edge 40, Type (0, 0), BuildingBlock: KIFKEQ_clean_linker_1, # of connection points: 2
#     Edge 41, Type (0, 0), BuildingBlock: KIFKEQ_clean_linker_1, # of connection points: 2
#     Edge 42, Type (0, 0), BuildingBlock: KIFKEQ_clean_linker_1, # of connection points: 2
#     Edge 43, Type (0, 0), BuildingBlock: KIFKEQ_clean_linker_1, # of connection points: 2
#     Edge 44, Type (0, 0), BuildingBlock: KIFKEQ_clean_linker_1, # of connection points: 2
#     Edge 45, Type (0, 0), BuildingBlock: KIFKEQ_clean_linker_1, # of connection points: 2
#     Edge 46, Type (0, 0), BuildingBlock: KIFKEQ_clean_linker_1, # of connection points: 2
#     Edge 47, Type (0, 0), BuildingBlock: KIFKEQ_clean_linker_1, # of connection points: 2
#     Edge 48, Type (0, 0), BuildingBlock: KIFKEQ_clean_linker_1, # of connection points: 2
#     Edge 49, Type (0, 0), BuildingBlock: KIFKEQ_clean_linker_1, # of connection points: 2
#     Edge 50, Type (0, 0), BuildingBlock: KIFKEQ_clean_linker_1, # of connection points: 2
#     Edge 51, Type (0, 0), BuildingBlock: KIFKEQ_clean_linker_1, # of connection points: 2
#     Edge 52, Type (0, 0), BuildingBlock: KIFKEQ_clean_linker_1, # of connection points: 2
#     Edge 53, Type (0, 0), BuildingBlock: KIFKEQ_clean_linker_1, # of connection points: 2
#     Edge 54, Type (0, 0), BuildingBlock: KIFKEQ_clean_linker_1, # of connection points: 2
#     Edge 55, Type (0, 0), BuildingBlock: KIFKEQ_clean_linker_1, # of connection points: 2
#     Edge 56, Type (0, 0), BuildingBlock: KIFKEQ_clean_linker_1, # of connection points: 2
#     Edge 57, Type (0, 0), BuildingBlock: KIFKEQ_clean_linker_1, # of connection points: 2
#     Edge 58, Type (0, 0), BuildingBlock: KIFKEQ_clean_linker_1, # of connection points: 2
#     Edge 59, Type (0, 0), BuildingBlock: KIFKEQ_clean_linker_1, # of connection points: 2
#     Edge 60, Type (0, 0), BuildingBlock: KIFKEQ_clean_linker_1, # of connection points: 2
#     Edge 61, Type (0, 0), BuildingBlock: KIFKEQ_clean_linker_1, # of connection points: 2
#     Edge 62, Type (0, 0), BuildingBlock: KIFKEQ_clean_linker_1, # of connection points: 2
#     Edge 63, Type (0, 0), BuildingBlock: KIFKEQ_clean_linker_1, # of connection points: 2
# Relax obj value: 0.594
# Max RMSD: 0.305
# Mean RMSD: 0.305
data_MOF--net-whk--node1-CUWYAW_clean_sbu_0--edge1-KIFKEQ_clean_linker_1
_symmetry_space_group_name_H-M    P1
_symmetry_Int_Tables_number       1
_symmetry_cell_setting            triclinic
loop_
_symmetry_equiv_pos_as_xyz
'x, y, z'
_cell_length_a     46.724851
_cell_length_b     46.950678
_cell_length_c     38.228966
_cell_angle_alpha  90.003092
_cell_angle_beta   89.897151
_cell_angle_gamma 90.003903
loop_
_atom_site_label
_atom_site_type_symbol
_atom_site_fract_x
_atom_site_fract_y
_atom_site_fract_z
_atom_type_partial_charge
C0 C 0.53741 0.19624 0.42439 0.0
Eu1 Eu 0.58207 0.22917 0.42381 0.0
C2 C 0.51171 0.17759 0.42209 0.0
C3 C 0.49941 0.16495 0.45187 0.0
C4 C 0.47543 0.14701 0.44874 0.0
C5 C 0.46328 0.14126 0.41572 0.0
C6 C 0.4755 0.15427 0.38613 0.0
C7 C 0.49932 0.1721 0.38926 0.0
C8 C 0.60479 0.26777 0.46861 0.0
C9 C 0.56322 0.29245 0.39144 0.0
C10 C 0.67367 0.28987 0.37635 0.0
Eu11 Eu 0.6258 0.26619 0.3917 0.0
C12 C 0.6994 0.27246 0.37011 0.0
C13 C 0.6982 0.24965 0.3462 0.0
C14 C 0.71718 0.22683 0.34894 0.0
C15 C 0.73771 0.22619 0.37573 0.0
C16 C 0.74012 0.25011 0.39781 0.0
C17 C 0.72143 0.27309 0.39482 0.0
C18 C 0.60868 0.22323 0.34827 0.0
C19 C 0.64593 0.20962 0.43673 0.0
O20 O 0.54909 0.20649 0.39587 0.0
O21 O 0.55013 0.20385 0.45359 0.0
O22 O 0.59716 0.24226 0.47848 0.0
O23 O 0.59795 0.27205 0.43729 0.0
O24 O 0.55517 0.26687 0.40273 0.0
O25 O 0.59059 0.29852 0.38747 0.0
O26 O 0.66415 0.28866 0.40856 0.0
O27 O 0.65313 0.28736 0.35329 0.0
O28 O 0.61102 0.24968 0.33906 0.0
O29 O 0.61331 0.2215 0.38067 0.0
O30 O 0.6524 0.2353 0.42475 0.0
O31 O 0.61934 0.20011 0.43546 0.0
H32 H 0.50844 0.16873 0.47753 0.0
H33 H 0.46674 0.13723 0.47211 0.0
H34 H 0.4665 0.15089 0.36037 0.0
H35 H 0.50803 0.18159 0.36571 0.0
H36 H 0.68137 0.24834 0.32681 0.0
H37 H 0.71525 0.20951 0.33042 0.0
H38 H 0.75527 0.25046 0.41893 0.0
H39 H 0.72257 0.29009 0.41396 0.0
C40 C 0.37777 0.53884 0.42287 0.0
Eu41 Eu 0.34313 0.5821 0.42436 0.0
C42 C 0.39728 0.51388 0.41975 0.0
C43 C 0.41048 0.50168 0.44917 0.0
C44 C 0.42794 0.47743 0.44567 0.0
C45 C 0.43259 0.46481 0.41265 0.0
C46 C 0.41928 0.47716 0.38335 0.0
C47 C 0.40196 0.5013 0.38684 0.0
C48 C 0.30223 0.59973 0.46981 0.0
C49 C 0.2811 0.56106 0.38974 0.0
C50 C 0.26569 0.66585 0.38486 0.0
Eu51 Eu 0.30272 0.62561 0.39557 0.0
C52 C 0.23542 0.66808 0.37448 0.0
C53 C 0.22521 0.65569 0.3434 0.0
C54 C 0.19803 0.66273 0.33077 0.0
C55 C 0.18072 0.68227 0.34899 0.0
C56 C 0.1899 0.69194 0.38204 0.0
C57 C 0.21702 0.68501 0.39453 0.0
C58 C 0.34557 0.61155 0.35011 0.0
C59 C 0.35824 0.64643 0.44232 0.0
O60 O 0.36733 0.55102 0.39482 0.0
O61 O 0.37004 0.55075 0.45254 0.0
O62 O 0.32804 0.59312 0.47998 0.0
O63 O 0.29937 0.5946 0.43783 0.0
O64 O 0.3067 0.55403 0.40222 0.0
O65 O 0.27391 0.58804 0.38598 0.0
O66 O 0.27087 0.65537 0.4159 0.0
O67 O 0.28379 0.65709 0.36106 0.0
O68 O 0.31878 0.61395 0.34165 0.0
O69 O 0.34806 0.61529 0.38273 0.0
O70 O 0.3323 0.65231 0.43019 0.0
O71 O 0.36935 0.6206 0.43927 0.0
H72 H 0.40725 0.51079 0.47491 0.0
H73 H 0.43802 0.46875 0.46881 0.0
H74 H 0.42181 0.46789 0.35759 0.0
H75 H 0.39193 0.5099 0.36361 0.0
H76 H 0.2388 0.64197 0.32779 0.0
H77 H 0.1915 0.65468 0.30545 0.0
H78 H 0.17743 0.70724 0.39682 0.0
H79 H 0.22434 0.69446 0.41879 0.0
C80 C 1.03454 0.37688 0.42874 0.0
Eu81 Eu 0.99021 0.34352 0.42764 0.0
C82 C 0.06099 0.39445 0.42631 0.0
C83 C 0.06837 0.41423 0.45236 0.0
C84 C 0.09308 0.43115 0.44884 0.0
C85 C 0.1111 0.42844 0.41937 0.0
C86 C 0.10375 0.40832 0.39365 0.0
C87 C 0.07906 0.39165 0.39703 0.0
C88 C 0.96773 0.30343 0.47125 0.0
C89 C 1.01134 0.28144 0.3954 0.0
C90 C 0.90625 0.26763 0.38482 0.0
Eu91 Eu 0.94647 0.30455 0.39516 0.0
C92 C 0.904 0.23629 0.38751 0.0
C93 C 0.89043 0.22413 0.41659 0.0
C94 C 0.88454 0.19506 0.41742 0.0
C95 C 0.89141 0.1774 0.38869 0.0
C96 C 0.90757 0.18918 0.36115 0.0
C97 C 0.91364 0.21836 0.36044 0.0
C98 C 0.96363 0.34703 0.35101 0.0
C99 C 0.92515 0.36221 0.43772 0.0
O100 O 1.02341 0.3662 0.40017 0.0
O101 O 1.02105 0.37005 0.45779 0.0
O102 O 0.97528 0.32868 0.48225 0.0
O103 O 0.97485 0.30052 0.43984 0.0
O104 O 1.01862 0.30705 0.40705 0.0
O105 O 0.98416 0.27466 0.3912 0.0
O106 O 0.92204 0.27793 0.35947 0.0
O107 O 0.90915 0.28162 0.41425 0.0
O108 O 0.95915 0.32084 0.34167 0.0
O109 O 0.95928 0.34909 0.38351 0.0
O110 O 0.91841 0.33686 0.42457 0.0
O111 O 0.95194 0.37135 0.43843 0.0
H112 H 0.05491 0.41685 0.47522 0.0
H113 H 0.09817 0.44624 0.46934 0.0
H114 H 0.11679 0.40583 0.3704 0.0
H115 H 0.07409 0.37655 0.3765 0.0
H116 H 0.88294 0.23732 0.438 0.0
H117 H 0.87205 0.18727 0.43928 0.0
H118 H 0.91378 0.17628 0.33892 0.0
H119 H 0.92459 0.22703 0.33784 0.0
C120 C 0.19762 0.03608 0.42603 0.0
Eu121 Eu 0.22891 0.99038 0.42355 0.0
C122 C 0.18023 0.06263 0.42432 0.0
C123 C 0.16557 0.07344 0.4536 0.0
C124 C 0.14841 0.09799 0.45063 0.0
C125 C 0.14551 0.11217 0.41828 0.0
C126 C 0.16073 0.10154 0.38934 0.0
C127 C 0.17776 0.0772 0.3923 0.0
C128 C 0.26752 0.96471 0.46623 0.0
C129 C 0.29286 1.00801 0.39176 0.0
C130 C 0.28287 0.90042 0.36226 0.0
Eu131 Eu 0.26354 0.94729 0.38723 0.0
C132 C 0.26284 0.87958 0.34704 0.0
C133 C 0.24059 0.88919 0.32511 0.0
C134 C 0.21672 0.87214 0.31861 0.0
C135 C 0.21446 0.84529 0.33429 0.0
C136 C 0.23743 0.835 0.35451 0.0
C137 C 0.2614 0.852 0.36084 0.0
C138 C 0.22012 0.9682 0.34685 0.0
C139 C 0.20823 0.92689 0.4341 0.0
O140 O 0.20796 1.02507 0.39719 0.0
O141 O 0.20414 1.02203 0.4547 0.0
O142 O 0.24292 0.97433 0.47743 0.0
O143 O 0.2715 0.97198 0.4349 0.0
O144 O 0.2672 1.01648 0.40261 0.0
O145 O 0.2982 0.98064 0.38727 0.0
O146 O 0.27966 0.90425 0.39597 0.0
O147 O 0.28552 0.92448 0.34525 0.0
O148 O 0.24657 0.96668 0.33713 0.0
O149 O 0.21887 0.96168 0.37878 0.0
O150 O 0.23362 0.92038 0.42099 0.0
O151 O 0.19912 0.95354 0.43435 0.0
H152 H 0.16702 0.06273 0.47863 0.0
H153 H 0.1369 0.10545 0.47346 0.0
H154 H 0.15961 0.11213 0.36421 0.0
H155 H 0.18892 0.06973 0.3692 0.0
H156 H 0.24089 0.91045 0.31422 0.0
H157 H 0.19952 0.88047 0.30264 0.0
H158 H 0.2365 0.81402 0.36625 0.0
H159 H 0.27795 0.8443 0.37825 0.0
C160 C 0.03712 0.8699 0.10306 0.0
Eu161 Eu 0.08362 0.83968 0.10663 0.0
C162 C 1.01 0.88657 0.10422 0.0
C163 C 1.0 0.90209 0.07526 0.0
C164 C 0.97523 0.91905 0.07805 0.0
C165 C 0.96003 0.92087 0.1099 0.0
C166 C 0.96972 0.90462 0.13839 0.0
C167 C 0.99428 0.8878 0.13561 0.0
C168 C 0.11055 0.80133 0.06463 0.0
C169 C 0.06701 0.77602 0.13858 0.0
C170 C 0.17388 0.78824 0.17185 0.0
Eu171 Eu 0.12716 0.80682 0.14406 0.0
C172 C 0.1932 0.80755 0.19069 0.0
C173 C 0.18388 0.83548 0.1971 0.0
C174 C 0.20172 0.85528 0.21309 0.0
C175 C 0.22976 0.84782 0.22256 0.0
C176 C 0.23904 0.81957 0.21616 0.0
C177 C 0.22082 0.79957 0.20052 0.0
C178 C 0.10414 0.84983 0.1835 0.0
C179 C 0.14699 0.86109 0.09594 0.0
O180 O 0.04793 0.85993 0.13214 0.0
O181 O 0.05178 0.86355 0.07471 0.0
O182 O 0.1004 0.8255 0.05315 0.0
O183 O 0.10323 0.79748 0.09599 0.0
O184 O 0.05797 0.80138 0.12792 0.0
O185 O 0.09465 0.77134 0.14297 0.0
O186 O 0.1717 0.79348 0.13835 0.0
O187 O 0.14889 0.78482 0.18669 0.0
O188 O 0.10598 0.82357 0.1933 0.0
O189 O 0.11144 0.85103 0.15181 0.0
O190 O 0.15384 0.83605 0.10934 0.0
O191 O 0.12013 0.86988 0.09575 0.0
H192 H 1.01162 0.90161 0.05072 0.0
H193 H 0.96848 0.93136 0.05558 0.0
H194 H 0.95832 0.90491 0.16307 0.0
H195 H 1.0011 0.87592 0.15841 0.0
H196 H 0.16278 0.84215 0.18918 0.0
H197 H 0.19329 0.87636 0.21809 0.0
H198 H 0.2607 0.81302 0.22199 0.0
H199 H 0.22853 0.77823 0.19531 0.0
C200 C 0.69439 0.03774 0.10779 0.0
Eu201 Eu 0.72968 0.08048 0.10776 0.0
C202 C 0.67476 1.01285 0.11078 0.0
C203 C 0.66037 1.00153 0.08165 0.0
C204 C 0.64286 0.97729 0.08518 0.0
C205 C 0.63933 0.96387 0.11794 0.0
C206 C 0.65383 0.97533 0.14691 0.0
C207 C 0.67119 0.9994 0.14339 0.0
C208 C 0.7687 0.10208 0.0622 0.0
C209 C 0.79232 0.05718 0.13562 0.0
C210 C 0.80399 0.16157 0.16305 0.0
Eu211 Eu 0.77003 0.12183 0.14029 0.0
C212 C 0.80578 0.17664 0.19694 0.0
C213 C 0.82251 0.16572 0.2245 0.0
C214 C 0.82289 0.17922 0.25712 0.0
C215 C 0.80649 0.20382 0.26284 0.0
C216 C 0.79023 0.21493 0.23498 0.0
C217 C 0.78989 0.20153 0.20251 0.0
C218 C 0.72678 0.10554 0.18483 0.0
C219 C 0.71687 0.14554 0.09334 0.0
O220 O 0.7062 0.04836 0.13597 0.0
O221 O 0.70107 0.05101 0.07858 0.0
O222 O 0.74302 0.09443 0.05251 0.0
O223 O 0.77292 0.09519 0.09351 0.0
O224 O 0.76597 0.05065 0.12568 0.0
O225 O 0.79981 0.08403 0.13969 0.0
O226 O 0.7816 0.16679 0.14357 0.0
O227 O 0.81044 0.13456 0.16365 0.0
O228 O 0.75341 0.10779 0.19339 0.0
O229 O 0.72483 0.11073 0.15263 0.0
O230 O 0.74387 0.14966 0.10298 0.0
O231 O 0.70435 0.12046 0.09762 0.0
H232 H 0.66274 1.01131 0.05615 0.0
H233 H 0.63186 0.96925 0.06231 0.0
H234 H 0.6522 0.96541 0.1724 0.0
H235 H 0.68213 1.00727 0.16641 0.0
H236 H 0.83523 0.14665 0.22094 0.0
H237 H 0.83601 0.17043 0.27776 0.0
H238 H 0.77821 0.23451 0.23788 0.0
H239 H 0.77709 0.21073 0.18178 0.0
C240 C 0.53316 0.6956 0.10669 0.0
Eu241 Eu 0.48909 0.72941 0.1059 0.0
C242 C 0.55856 0.6765 0.1094 0.0
C243 C 0.57103 0.66382 0.07973 0.0
C244 C 0.59541 0.64641 0.08296 0.0
C245 C 0.60789 0.64125 0.11594 0.0
C246 C 0.59533 0.65412 0.14546 0.0
C247 C 0.57108 0.67141 0.14225 0.0
C248 C 0.46964 0.76948 0.06053 0.0
C249 C 0.50904 0.7916 0.14017 0.0
C250 C 0.4032 0.80476 0.14518 0.0
Eu251 Eu 0.44462 0.76886 0.13525 0.0
C252 C 0.4004 0.83516 0.15347 0.0
C253 C 0.37715 0.85013 0.13989 0.0
C254 C 0.37053 0.87713 0.15261 0.0
C255 C 0.38698 0.88963 0.17951 0.0
C256 C 0.41232 0.87584 0.18998 0.0
C257 C 0.41896 0.84873 0.17709 0.0
C258 C 0.46 0.72679 0.18079 0.0
C259 C 0.42452 0.71239 0.09031 0.0
O260 O 0.5211 0.70599 0.13492 0.0
O261 O 0.5208 0.70311 0.07723 0.0
O262 O 0.47698 0.74395 0.05037 0.0
O263 O 0.47518 0.77258 0.09239 0.0
O264 O 0.51662 0.76623 0.12779 0.0
O265 O 0.48183 0.79831 0.14398 0.0
O266 O 0.41353 0.78848 0.16988 0.0
O267 O 0.41302 0.79842 0.11411 0.0
O268 O 0.45674 0.75339 0.18918 0.0
O269 O 0.45625 0.72411 0.14818 0.0
O270 O 0.41804 0.73811 0.10227 0.0
O271 O 0.45087 0.70218 0.0925 0.0
H272 H 0.56197 0.66735 0.05404 0.0
H273 H 0.60425 0.6367 0.05963 0.0
H274 H 0.6045 0.65121 0.17121 0.0
H275 H 0.56228 0.681 0.16568 0.0
H276 H 0.36288 0.84015 0.12122 0.0
H277 H 0.35076 0.88669 0.1437 0.0
H278 H 0.4258 0.88501 0.21006 0.0
H279 H 0.43755 0.8377 0.18721 0.0
C280 C 0.87791 0.53265 0.10754 0.0
Eu281 Eu 0.84367 0.48918 0.11099 0.0
C282 C 0.89736 0.55773 0.10887 0.0
C283 C 0.90977 0.56949 0.0786 0.0
C284 C 0.92826 0.59309 0.08101 0.0
C285 C 0.93482 0.60529 0.11377 0.0
C286 C 0.9221 0.59356 0.14382 0.0
C287 C 0.90372 0.57019 0.14142 0.0
C288 C 0.80481 0.46391 0.06851 0.0
C289 C 0.78051 0.51015 0.13986 0.0
C290 C 0.78081 0.40793 0.18156 0.0
Eu291 Eu 0.80797 0.44823 0.14885 0.0
C292 C 0.78819 0.39469 0.21514 0.0
C293 C 0.81521 0.39961 0.22997 0.0
C294 C 0.82246 0.38747 0.2621 0.0
C295 C 0.80288 0.3699 0.27985 0.0
C296 C 0.77537 0.366 0.26543 0.0
C297 C 0.76808 0.37839 0.2334 0.0
C298 C 0.8525 0.46895 0.18821 0.0
C299 C 0.85917 0.42425 0.09927 0.0
O300 O 0.86662 0.52293 0.13654 0.0
O301 O 0.87058 0.51858 0.07916 0.0
O302 O 0.8296 0.47309 0.05737 0.0
O303 O 0.80063 0.4715 0.09974 0.0
O304 O 0.80649 0.51788 0.1296 0.0
O305 O 0.77471 0.48295 0.14474 0.0
O306 O 0.79847 0.40303 0.15567 0.0
O307 O 0.77371 0.43471 0.18378 0.0
O308 O 0.82613 0.46842 0.1981 0.0
O309 O 0.85315 0.46133 0.15673 0.0
O310 O 0.83319 0.41927 0.11193 0.0
O311 O 0.87046 0.45008 0.10072 0.0
H312 H 0.9053 0.5604 0.05315 0.0
H313 H 0.93778 0.60147 0.05731 0.0
H314 H 0.9261 0.60263 0.1694 0.0
H315 H 0.89449 0.56189 0.16535 0.0
H316 H 0.83093 0.41241 0.21635 0.0
H317 H 0.84374 0.39104 0.27242 0.0
H318 H 0.7599 0.35213 0.27792 0.0
H319 H 0.74699 0.37472 0.22254 0.0
C320 C 0.4104 0.77118 0.66801 0.0
Eu321 Eu 0.44893 0.80672 0.64556 0.0
C322 C 0.40778 0.74023 0.67181 0.0
C323 C 0.38602 0.72928 0.6929 0.0
C324 C 0.38022 0.70019 0.69279 0.0
C325 C 0.39573 0.68145 0.67087 0.0
C326 C 0.41971 0.69227 0.65284 0.0
C327 C 0.42567 0.72149 0.65333 0.0
C328 C 0.46654 0.85175 0.6855 0.0
C329 C 0.42398 0.85857 0.59669 0.0
C330 C 0.52972 0.88351 0.59757 0.0
Eu331 Eu 0.49055 0.84469 0.60877 0.0
C332 C 0.55959 0.89401 0.60085 0.0
C333 C 0.56988 0.91329 0.57578 0.0
C334 C 0.59559 0.92802 0.58111 0.0
C335 C 0.6118 0.9238 0.6117 0.0
C336 C 0.60223 0.9033 0.636 0.0
C337 C 0.57629 0.88868 0.63075 0.0
C338 C 0.46713 0.80361 0.56764 0.0
C339 C 0.51402 0.78518 0.64357 0.0
O340 O 0.42895 0.78355 0.68847 0.0
O341 O 0.41101 0.78101 0.63595 0.0
O342 O 0.46495 0.82569 0.69628 0.0
O343 O 0.46054 0.85225 0.65336 0.0
O344 O 0.41842 0.83446 0.61349 0.0
O345 O 0.45039 0.8685 0.59397 0.0
O346 O 0.51455 0.88155 0.62629 0.0
O347 O 0.52331 0.86389 0.57447 0.0
O348 O 0.47342 0.82901 0.55613 0.0
O349 O 0.47542 0.80082 0.59875 0.0
O350 O 0.52084 0.81147 0.63366 0.0
O351 O 0.48696 0.77747 0.64601 0.0
H352 H 0.3724 0.74343 0.70793 0.0
H353 H 0.3617 0.69308 0.70737 0.0
H354 H 0.43254 0.67854 0.63632 0.0
H355 H 0.44327 0.72961 0.63786 0.0
H356 H 0.55735 0.91797 0.55266 0.0
H357 H 0.60247 0.94326 0.56156 0.0
H358 H 0.61407 0.89957 0.65989 0.0
H359 H 0.56874 0.8741 0.65069 0.0
C360 C 0.80674 0.40579 0.63538 0.0
Eu361 Eu 0.77036 0.44743 0.63487 0.0
C362 C 0.81267 0.38588 0.60644 0.0
C363 C 0.78996 0.37135 0.59044 0.0
C364 C 0.7939 0.35788 0.55846 0.0
C365 C 0.82072 0.35825 0.54184 0.0
C366 C 0.84397 0.37128 0.55862 0.0
C367 C 0.83989 0.38528 0.59063 0.0
C368 C 0.72864 0.46109 0.68159 0.0
C369 C 0.71482 0.42727 0.58783 0.0
C370 C 0.69404 0.53498 0.60949 0.0
Eu371 Eu 0.72821 0.49135 0.60657 0.0
C372 C 0.67493 0.56023 0.61342 0.0
C373 C 0.66095 0.57251 0.58455 0.0
C374 C 0.64452 0.59743 0.58855 0.0
C375 C 0.64169 0.61073 0.62148 0.0
C376 C 0.65565 0.59821 0.65025 0.0
C377 C 0.67193 0.57338 0.64627 0.0
C378 C 0.76817 0.47323 0.56 0.0
C379 C 0.78978 0.51236 0.64234 0.0
O380 O 0.81407 0.43207 0.62888 0.0
O381 O 0.78151 0.40402 0.65027 0.0
O382 O 0.75523 0.45629 0.68983 0.0
O383 O 0.72557 0.45844 0.64885 0.0
O384 O 0.74173 0.42243 0.59719 0.0
O385 O 0.70252 0.45235 0.59278 0.0
O386 O 0.70518 0.5227 0.63711 0.0
O387 O 0.7005 0.52272 0.57958 0.0
O388 O 0.7425 0.4809 0.55032 0.0
O389 O 0.77139 0.47818 0.59202 0.0
O390 O 0.76539 0.51896 0.62651 0.0
O391 O 0.79638 0.48574 0.64973 0.0
H392 H 0.76878 0.37118 0.60192 0.0
H393 H 0.77586 0.34698 0.54673 0.0
H394 H 0.86497 0.37127 0.54656 0.0
H395 H 0.85766 0.39661 0.60232 0.0
H396 H 0.66291 0.56302 0.55888 0.0
H397 H 0.63386 0.60615 0.56581 0.0
H398 H 0.65457 0.60791 0.67589 0.0
H399 H 0.68265 0.56477 0.66908 0.0
C400 C 0.17531 0.78989 0.64243 0.0
Eu401 Eu 0.12586 0.7674 0.63358 0.0
C402 C 0.20094 0.77172 0.64439 0.0
C403 C 0.20021 0.74696 0.66511 0.0
C404 C 0.22027 0.72537 0.66027 0.0
C405 C 0.24134 0.72764 0.63413 0.0
C406 C 0.24254 0.75291 0.61414 0.0
C407 C 0.22269 0.77476 0.61941 0.0
C408 C 0.11013 0.72493 0.67835 0.0
C409 C 0.14305 0.71082 0.58692 0.0
C410 C 1.03466 0.69845 0.60659 0.0
Eu411 Eu 0.07998 0.73038 0.60461 0.0
C412 C 1.00848 0.68067 0.61012 0.0
C413 C 0.99716 0.66544 0.58169 0.0
C414 C 0.97273 0.64829 0.58598 0.0
C415 C 0.95909 0.64603 0.61882 0.0
C416 C 0.97033 0.66168 0.647 0.0
C417 C 0.99465 0.67867 0.64273 0.0
C418 C 0.10025 0.76992 0.55895 0.0
C419 C 0.06361 0.79374 0.63966 0.0
O420 O 0.16284 0.78953 0.61181 0.0
O421 O 0.15701 0.78745 0.66828 0.0
O422 O 0.11401 0.75126 0.68734 0.0
O423 O 0.11311 0.72278 0.6456 0.0
O424 O 0.14988 0.73661 0.59797 0.0
O425 O 0.11667 0.70107 0.59055 0.0
O426 O 0.04715 0.7089 0.63443 0.0
O427 O 0.04704 0.7051 0.57677 0.0
O428 O 0.09143 0.74488 0.5488 0.0
O429 O 0.09535 0.7731 0.59097 0.0
O430 O 0.05491 0.76822 0.62875 0.0
O431 O 0.09116 0.79982 0.64142 0.0
H432 H 0.18341 0.7436 0.68423 0.0
H433 H 0.21905 0.70691 0.67714 0.0
H434 H 0.25794 0.75545 0.59322 0.0
H435 H 0.22316 0.7932 0.60238 0.0
H436 H 1.00734 0.66652 0.55625 0.0
H437 H 0.96488 0.63638 0.56372 0.0
H438 H 0.96018 0.66102 0.67248 0.0
H439 H 1.0026 0.69031 0.66517 0.0
C440 C 0.7621 0.16519 0.63903 0.0
Eu441 Eu 0.79859 0.12369 0.63639 0.0
C442 C 0.75813 0.18758 0.61241 0.0
C443 C 0.77993 0.20763 0.60668 0.0
C444 C 0.7816 0.22196 0.57494 0.0
C445 C 0.76135 0.21684 0.5487 0.0
C446 C 0.73744 0.1999 0.55598 0.0
C447 C 0.73593 0.1851 0.58768 0.0
C448 C 0.84072 0.11061 0.68285 0.0
C449 C 0.85397 0.14552 0.58994 0.0
C450 C 0.87686 0.03875 0.61027 0.0
Eu451 Eu 0.84116 0.08107 0.60785 0.0
C452 C 0.89706 1.0144 0.61368 0.0
C453 C 0.91007 1.0019 0.58427 0.0
C454 C 0.92788 0.97796 0.58795 0.0
C455 C 0.93312 0.96597 0.62116 0.0
C456 C 0.92019 0.97873 0.6505 0.0
C457 C 0.90247 1.00256 0.64682 0.0
C458 C 0.80185 0.09934 0.56087 0.0
C459 C 0.77967 0.05839 0.64251 0.0
O460 O 0.75536 0.13959 0.62849 0.0
O461 O 0.7863 0.16552 0.65629 0.0
O462 O 0.81393 0.11409 0.69122 0.0
O463 O 0.84359 0.11373 0.65018 0.0
O464 O 0.82674 0.14974 0.59872 0.0
O465 O 0.86651 0.12067 0.59565 0.0
O466 O 0.865 0.05015 0.63805 0.0
O467 O 0.86991 0.05092 0.58049 0.0
O468 O 0.82792 0.0925 0.55176 0.0
O469 O 0.79788 0.09364 0.59264 0.0
O470 O 0.80433 0.05229 0.62685 0.0
O471 O 0.7728 0.08488 0.65033 0.0
H472 H 0.79698 0.21068 0.62546 0.0
H473 H 0.79947 0.23619 0.57024 0.0
H474 H 0.72082 0.197 0.53668 0.0
H475 H 0.71857 0.17017 0.59175 0.0
H476 H 0.9063 1.01046 0.55837 0.0
H477 H 0.93769 0.96896 0.56477 0.0
H478 H 0.92325 0.96995 0.67641 0.0
H479 H 0.89266 1.01145 0.67007 0.0
C480 C 0.90308 0.29728 0.86181 0.0
Eu481 Eu 0.94447 0.26689 0.88768 0.0
C482 C 0.89082 0.29879 0.82616 0.0
C483 C 0.90253 0.3171 0.80066 0.0
C484 C 0.89131 0.31781 0.76673 0.0
C485 C 0.86818 0.30023 0.7576 0.0
C486 C 0.85665 0.28188 0.78316 0.0
C487 C 0.86777 0.28121 0.81695 0.0
C488 C 0.96313 0.22377 0.84487 0.0
C489 C 0.92271 0.21455 0.93624 0.0
C490 C 1.03179 0.19638 0.9241 0.0
Eu491 Eu 0.98751 0.22983 0.92199 0.0
C492 C 0.05758 0.17773 0.92242 0.0
C493 C 0.06835 0.16366 0.95209 0.0
C494 C 0.09298 0.14649 0.94961 0.0
C495 C 0.10734 0.14296 0.91739 0.0
C496 C 0.09654 0.15731 0.88794 0.0
C497 C 0.07209 0.17435 0.89041 0.0
C498 C 0.96387 0.26867 0.96626 0.0
C499 C 1.00818 0.29227 0.89141 0.0
O500 O 0.89878 0.27375 0.87935 0.0
O501 O 0.92915 0.30674 0.86538 0.0
O502 O 0.96059 0.25011 0.83563 0.0
O503 O 0.95783 0.22222 0.87711 0.0
O504 O 0.91769 0.24124 0.9266 0.0
O505 O 0.94833 0.20302 0.93186 0.0
O506 O 1.02156 0.20765 0.89538 0.0
O507 O 1.01744 0.20279 0.95267 0.0
O508 O 0.9729 0.24376 0.97673 0.0
O509 O 0.97063 0.27253 0.93477 0.0
O510 O 1.01586 0.26668 0.90256 0.0
O511 O 0.98094 0.29833 0.8866 0.0
H512 H 0.92032 0.33097 0.80691 0.0
H513 H 0.90055 0.33231 0.74778 0.0
H514 H 0.83821 0.26869 0.77754 0.0
H515 H 0.8581 0.26702 0.83594 0.0
H516 H 0.05773 0.16588 0.97715 0.0
H517 H 0.10051 0.13563 0.97283 0.0
H518 H 0.10721 0.15568 0.86285 0.0
H519 H 0.06468 0.18505 0.86702 0.0
C520 C 0.27689 0.90907 0.86208 0.0
Eu521 Eu 0.3065 0.94969 0.89044 0.0
C522 C 0.27897 0.89654 0.82663 0.0
C523 C 0.26484 0.90912 0.79797 0.0
C524 C 0.26829 0.89816 0.76418 0.0
C525 C 0.28597 0.87444 0.75835 0.0
C526 C 0.30003 0.86196 0.7871 0.0
C527 C 0.29653 0.87281 0.82074 0.0
C528 C 0.34995 0.96908 0.84834 0.0
C529 C 0.35865 0.92678 0.93887 0.0
C530 C 0.37758 0.03526 0.92798 0.0
Eu531 Eu 0.34352 0.99164 0.92582 0.0
C532 C 0.39666 0.06057 0.92608 0.0
C533 C 0.41052 0.07162 0.95575 0.0
C534 C 0.42842 0.09562 0.95287 0.0
C535 C 0.4329 0.10895 0.92025 0.0
C536 C 0.41872 0.09793 0.89083 0.0
C537 C 0.40094 0.07415 0.89369 0.0
C538 C 0.30416 0.96804 0.96945 0.0
C539 C 0.28064 1.01276 0.8962 0.0
O540 O 0.2983 0.90428 0.88329 0.0
O541 O 0.26806 0.93539 0.86362 0.0
O542 O 0.32351 0.96691 0.83905 0.0
O543 O 0.35151 0.96287 0.88029 0.0
O544 O 0.33201 0.92196 0.9284 0.0
O545 O 0.37023 0.95239 0.93562 0.0
O546 O 0.36589 1.02537 0.89934 0.0
O547 O 0.37105 1.02107 0.95658 0.0
O548 O 0.32912 0.97691 0.98029 0.0
O549 O 0.30049 0.97501 0.93805 0.0
O550 O 0.30651 1.02032 0.90694 0.0
O551 O 0.27451 0.98563 0.89155 0.0
H552 H 0.25113 0.92749 0.80158 0.0
H553 H 0.25693 0.90804 0.7427 0.0
H554 H 0.31302 0.84302 0.78392 0.0
H555 H 0.30759 0.86252 0.84218 0.0
H556 H 0.40762 0.06169 0.98107 0.0
H557 H 0.43913 0.10344 0.97607 0.0
H558 H 0.4211 0.10788 0.86543 0.0
H559 H 0.39047 0.06646 0.87026 0.0
C560 C 0.66824 0.28021 0.85356 0.0
Eu561 Eu 0.62716 0.30703 0.88553 0.0
C562 C 0.68113 0.28662 0.8194 0.0
C563 C 0.67591 0.31303 0.8034 0.0
C564 C 0.68751 0.31921 0.77059 0.0
C565 C 0.70479 0.29915 0.75326 0.0
C566 C 0.70908 0.27229 0.76895 0.0
C567 C 0.69726 0.26607 0.80171 0.0
C568 C 0.60622 0.35107 0.84596 0.0
C569 C 0.65007 0.35815 0.9356 0.0
C570 C 0.54044 0.37455 0.92678 0.0
Eu571 Eu 0.58532 0.342 0.92338 0.0
C572 C 0.51411 0.39241 0.92511 0.0
C573 C 0.50359 0.40746 0.95422 0.0
C574 C 0.47892 0.42457 0.95125 0.0
C575 C 0.46438 0.42702 0.91905 0.0
C576 C 0.47476 0.41146 0.89032 0.0
C577 C 0.49917 0.39449 0.89328 0.0
C578 C 0.6109 0.30284 0.96541 0.0
C579 C 0.56504 0.2794 0.89333 0.0
O580 O 0.6728 0.29885 0.87834 0.0
O581 O 0.64155 0.27227 0.85213 0.0
O582 O 0.60723 0.32485 0.83607 0.0
O583 O 0.61336 0.35188 0.87764 0.0
O584 O 0.6554 0.33229 0.92317 0.0
O585 O 0.62407 0.36921 0.93377 0.0
O586 O 0.551 0.36403 0.89781 0.0
O587 O 0.55476 0.36783 0.95523 0.0
O588 O 0.60158 0.32736 0.97694 0.0
O589 O 0.60329 0.2992 0.93416 0.0
O590 O 0.55709 0.3051 0.90378 0.0
O591 O 0.59242 0.27374 0.88871 0.0
H592 H 0.66321 0.32907 0.81656 0.0
H593 H 0.68363 0.34001 0.75926 0.0
H594 H 0.72274 0.25651 0.75676 0.0
H595 H 0.70114 0.24544 0.81347 0.0
H596 H 0.51454 0.40625 0.97912 0.0
H597 H 0.47161 0.43633 0.97392 0.0
H598 H 0.46389 0.41223 0.86534 0.0
H599 H 0.50634 0.38298 0.87032 0.0
C600 C 0.29961 0.6625 0.85706 0.0
Eu601 Eu 0.26851 0.62207 0.88373 0.0
C602 C 0.29597 0.67994 0.82515 0.0
C603 C 0.30195 0.66877 0.79163 0.0
C604 C 0.29627 0.68476 0.76153 0.0
C605 C 0.28431 0.71204 0.76445 0.0
C606 C 0.27912 0.7234 0.79796 0.0
C607 C 0.28494 0.70758 0.82791 0.0
C608 C 0.22462 0.60446 0.84124 0.0
C609 C 0.21584 0.64558 0.93204 0.0
C610 C 0.19572 0.53728 0.92033 0.0
Eu611 Eu 0.23026 0.5806 0.91839 0.0
C612 C 0.1764 0.51208 0.91849 0.0
C613 C 0.1625 0.50113 0.94824 0.0
C614 C 0.14475 0.47699 0.94561 0.0
C615 C 0.14048 0.46334 0.91314 0.0
C616 C 0.15464 0.47433 0.8836 0.0
C617 C 0.17225 0.49829 0.88622 0.0
C618 C 0.26948 0.60358 0.9625 0.0
C619 C 0.29325 0.5586 0.89006 0.0
O620 O 0.2813 0.66682 0.88247 0.0
O621 O 0.30477 0.6355 0.85209 0.0
O622 O 0.25113 0.60606 0.83201 0.0
O623 O 0.22314 0.61018 0.87335 0.0
O624 O 0.24217 0.65045 0.92033 0.0
O625 O 0.20412 0.61998 0.92944 0.0
O626 O 0.20687 0.54766 0.89159 0.0
O627 O 0.20284 0.55095 0.94906 0.0
O628 O 0.2442 0.59526 0.97298 0.0
O629 O 0.27346 0.59644 0.9312 0.0
O630 O 0.26693 0.55139 0.89954 0.0
O631 O 0.29998 0.58571 0.88645 0.0
H632 H 0.31067 0.64754 0.78856 0.0
H633 H 0.30084 0.67569 0.73605 0.0
H634 H 0.27081 0.74479 0.80111 0.0
H635 H 0.28044 0.71689 0.85326 0.0
H636 H 0.16531 0.5112 0.97349 0.0
H637 H 0.13406 0.46927 0.96891 0.0
H638 H 0.15244 0.46419 0.85831 0.0
H639 H 0.18279 0.50588 0.86275 0.0
H640 H 0.61208 0.22541 0.27686 0.0
H641 H 0.62821 0.16975 0.36447 0.0
H642 H 0.63675 0.19218 0.23814 0.0
H643 H 0.6526 0.13625 0.32568 0.0
H644 H 0.73093 0.11095 0.25593 0.0
H645 H 0.69787 0.13542 0.29511 0.0
H646 H 0.63829 0.14616 0.20986 0.0
H647 H 0.67175 0.12211 0.17048 0.0
C648 C 0.62025 0.20571 0.28771 0.0
C649 C 0.6182 0.20036 0.32382 0.0
C650 C 0.6344 0.18655 0.26546 0.0
C651 C 0.64699 0.16151 0.27869 0.0
C652 C 0.6436 0.15547 0.31456 0.0
C653 C 0.62932 0.17458 0.33679 0.0
C654 C 0.7105 0.11795 0.24569 0.0
C655 C 0.70413 0.11469 0.20996 0.0
C656 C 0.69144 0.13199 0.26824 0.0
C657 C 0.6654 0.14313 0.25571 0.0
C658 C 0.65831 0.13835 0.22037 0.0
C659 C 0.67739 0.12427 0.19783 0.0
H660 H 0.44226 0.6721 0.167 0.0
H661 H 0.45755 0.73056 0.25202 0.0
H662 H 0.41951 0.63883 0.20768 0.0
H663 H 0.43442 0.69773 0.29252 0.0
H664 H 0.40018 0.63014 0.364 0.0
H665 H 0.4334 0.65318 0.32337 0.0
H666 H 0.37466 0.63739 0.23844 0.0
H667 H 0.34188 0.61399 0.27888 0.0
C668 C 0.44131 0.67762 0.1945 0.0
C669 C 0.45159 0.70413 0.20617 0.0
C670 C 0.42797 0.65864 0.21783 0.0
C671 C 0.42467 0.6656 0.2535 0.0
C672 C 0.43665 0.69137 0.26543 0.0
C673 C 0.44989 0.71034 0.24211 0.0
C674 C 0.39469 0.63099 0.3365 0.0
C675 C 0.36823 0.62036 0.32478 0.0
C676 C 0.41364 0.64448 0.3132 0.0
C677 C 0.40671 0.64758 0.27751 0.0
C678 C 0.38101 0.63531 0.26554 0.0
C679 C 0.36206 0.62192 0.28883 0.0
H680 H 0.96011 0.34487 0.27976 0.0
H681 H 0.94927 0.4022 0.36702 0.0
H682 H 0.93805 0.37968 0.24106 0.0
H683 H 0.92761 0.43743 0.32813 0.0
H684 H 0.84978 0.46658 0.25968 0.0
H685 H 0.88218 0.44133 0.2987 0.0
H686 H 0.93934 0.4251 0.21203 0.0
H687 H 0.90646 0.44986 0.17281 0.0
C688 C 0.95372 0.36525 0.29052 0.0
C689 C 0.95629 0.3706 0.32656 0.0
C690 C 0.94109 0.38534 0.26826 0.0
C691 C 0.93069 0.4114 0.2814 0.0
C692 C 0.9349 0.41745 0.31712 0.0
C693 C 0.9476 0.39734 0.3394 0.0
C694 C 0.86962 0.45829 0.24909 0.0
C695 C 0.87537 0.46008 0.21302 0.0
C696 C 0.88831 0.44379 0.27154 0.0
C697 C 0.91333 0.43076 0.25857 0.0
C698 C 0.92004 0.43434 0.22289 0.0
C699 C 0.90132 0.44884 0.20043 0.0
H700 H 0.16617 0.9492 0.36247 0.0
H701 H 0.22303 0.96486 0.27545 0.0
H702 H 0.133 0.92466 0.32343 0.0
H703 H 0.19023 0.93991 0.23659 0.0
H704 H 0.12044 0.90456 0.16856 0.0
H705 H 0.14428 0.93813 0.20773 0.0
H706 H 0.13303 0.87935 0.29357 0.0
H707 H 0.10863 0.84627 0.25472 0.0
C708 C 0.1713 0.948 0.33486 0.0
C709 C 0.1973 0.95905 0.32214 0.0
C710 C 0.15241 0.93361 0.31251 0.0
C711 C 0.15896 0.92999 0.27681 0.0
C712 C 0.18422 0.94249 0.26377 0.0
C713 C 0.2031 0.95686 0.28611 0.0
C714 C 0.1223 0.89919 0.19603 0.0
C715 C 0.1125 0.87272 0.20845 0.0
C716 C 0.13631 0.9183 0.21843 0.0
C717 C 0.14085 0.91147 0.25387 0.0
C718 C 0.12964 0.88563 0.26664 0.0
C719 C 0.11559 0.86658 0.24428 0.0
H720 H 0.40524 0.95358 0.86294 0.0
H721 H 0.34649 0.96503 0.77711 0.0
H722 H 0.43932 0.9306 0.82343 0.0
H723 H 0.38003 0.94148 0.73787 0.0
H724 H 0.44762 0.90529 0.66828 0.0
H725 H 0.42449 0.9398 0.70699 0.0
H726 H 0.44181 0.88523 0.79546 0.0
H727 H 0.46545 0.85129 0.75694 0.0
C728 C 0.39984 0.95173 0.83549 0.0
C729 C 0.37302 0.96099 0.82329 0.0
C730 C 0.41927 0.93826 0.81284 0.0
C731 C 0.41241 0.9337 0.77739 0.0
C732 C 0.38633 0.94472 0.76481 0.0
C733 C 0.36696 0.95822 0.78742 0.0
C734 C 0.44714 0.90105 0.69613 0.0
C735 C 0.45821 0.87539 0.70945 0.0
C736 C 0.43359 0.92072 0.71834 0.0
C737 C 0.4308 0.91526 0.75445 0.0
C738 C 0.44363 0.89044 0.76796 0.0
C739 C 0.45717 0.87083 0.74578 0.0
H740 H 0.62664 0.4043 0.86146 0.0
H741 H 0.60775 0.34884 0.77447 0.0
H742 H 0.65187 0.43673 0.82205 0.0
H743 H 0.63335 0.38087 0.73523 0.0
H744 H 0.67264 0.44821 0.66699 0.0
H745 H 0.63747 0.42679 0.70646 0.0
H746 H 0.69741 0.43404 0.79187 0.0
H747 H 0.73226 0.45576 0.75258 0.0
C748 C 0.62726 0.39936 0.83379 0.0
C749 C 0.61529 0.37385 0.8212 0.0
C750 C 0.64201 0.41781 0.81121 0.0
C751 C 0.64506 0.41131 0.77543 0.0
C752 C 0.63131 0.38679 0.76249 0.0
C753 C 0.6166 0.36834 0.78506 0.0
C754 C 0.67804 0.44585 0.69438 0.0
C755 C 0.70536 0.45356 0.70657 0.0
C756 C 0.65795 0.43331 0.71697 0.0
C757 C 0.6646 0.42834 0.75238 0.0
C758 C 0.69132 0.43771 0.76493 0.0
C759 C 0.71142 0.45012 0.74233 0.0
H760 H 0.11391 0.72709 0.74955 0.0
H761 H 0.12745 0.67063 0.66199 0.0
H762 H 0.13724 0.69302 0.78819 0.0
H763 H 0.15044 0.63617 0.70078 0.0
H764 H 0.22815 0.60841 0.76997 0.0
H765 H 0.19562 0.63343 0.73087 0.0
H766 H 0.13723 0.6474 0.8169 0.0
H767 H 0.17022 0.62282 0.85622 0.0
C768 C 0.12123 0.70705 0.73869 0.0
C769 C 0.11888 0.7017 0.70263 0.0
C770 C 0.13458 0.68738 0.76092 0.0
C771 C 0.14604 0.66179 0.74771 0.0
C772 C 0.1423 0.65579 0.71188 0.0
C773 C 0.12883 0.67545 0.68965 0.0
C774 C 0.20806 0.61622 0.78042 0.0
C775 C 0.20195 0.61375 0.81634 0.0
C776 C 0.18929 0.63058 0.75791 0.0
C777 C 0.1638 0.64283 0.77066 0.0
C778 C 0.15685 0.63874 0.8062 0.0
C779 C 0.17565 0.62436 0.82872 0.0
H780 H 0.89632 0.12469 0.66771 0.0
H781 H 0.83719 0.11657 0.75398 0.0
H782 H 0.93117 0.14718 0.70651 0.0
H783 H 0.87183 0.13926 0.7927 0.0
H784 H 0.94337 0.17031 0.86092 0.0
H785 H 0.91793 0.13754 0.82225 0.0
H786 H 0.93443 0.19348 0.73486 0.0
H787 H 0.96007 0.22602 0.77343 0.0
C788 C 0.89095 0.12718 0.69512 0.0
C789 C 0.86383 0.11897 0.70765 0.0
C790 C 0.91087 0.14032 0.71734 0.0
C791 C 0.90431 0.1454 0.75277 0.0
C792 C 0.87783 0.13556 0.76571 0.0
C793 C 0.85786 0.12258 0.74345 0.0
C794 C 0.94222 0.17527 0.83329 0.0
C795 C 0.95366 0.20094 0.82036 0.0
C796 C 0.92734 0.15658 0.81114 0.0
C797 C 0.92371 0.16294 0.77541 0.0
C798 C 0.93688 0.18768 0.76211 0.0
C799 C 0.95161 0.20643 0.78428 0.0
H800 H 0.45383 0.1016 0.36432 0.0
H801 H 0.41563 0.13649 0.45792 0.0
H802 H 0.4123 0.07108 0.35608 0.0
H803 H 0.37441 0.10505 0.45039 0.0
H804 H 0.29207 0.06498 0.40845 0.0
H805 H 0.3328 0.09729 0.41356 0.0
H806 H 0.38956 1.02982 0.38052 0.0
H807 H 0.34891 0.99776 0.37479 0.0
C808 C 0.43655 0.10282 0.38318 0.0
C809 C 0.43815 0.12172 0.41173 0.0
C810 C 0.41279 0.08503 0.37863 0.0
C811 C 0.38984 0.08552 0.4025 0.0
C812 C 0.39146 0.1043 0.43119 0.0
C813 C 0.41531 0.1221 0.43578 0.0
C814 C 0.31318 0.05712 0.40182 0.0
C815 C 0.31709 1.02868 0.39115 0.0
C816 C 0.33663 0.07561 0.40512 0.0
C817 C 0.36462 0.06621 0.39773 0.0
C818 C 0.36837 0.03799 0.38614 0.0
C819 C 0.34497 1.01951 0.38291 0.0
H820 H 0.43718 0.4182 0.45623 0.0
H821 H 0.4701 0.45248 0.35934 0.0
H822 H 0.46729 0.37611 0.44884 0.0
H823 H 0.49906 0.40999 0.35118 0.0
H824 H 0.5725 0.34706 0.36941 0.0
H825 H 0.54064 0.38772 0.37411 0.0
H826 H 0.47399 0.33313 0.4147 0.0
H827 H 0.50633 0.29228 0.41076 0.0
C828 C 0.45082 0.41684 0.43336 0.0
C829 C 0.4511 0.43893 0.40844 0.0
C830 C 0.46782 0.39244 0.42885 0.0
C831 C 0.48567 0.38945 0.39933 0.0
C832 C 0.48588 0.41153 0.37443 0.0
C833 C 0.46894 0.43587 0.37894 0.0
C834 C 0.55095 0.34353 0.37896 0.0
C835 C 0.54209 0.31624 0.38971 0.0
C836 C 0.53256 0.36697 0.38156 0.0
C837 C 0.50465 0.36392 0.39496 0.0
C838 C 0.49545 0.33645 0.40476 0.0
C839 C 0.51391 0.31292 0.40211 0.0
H840 H 0.11691 0.48555 0.4333 0.0
H841 H 0.1643 0.41308 0.39478 0.0
H842 H 0.15858 0.51588 0.42356 0.0
H843 H 0.2058 0.44359 0.38423 0.0
H844 H 0.2832 0.50423 0.40795 0.0
H845 H 0.2428 0.47151 0.41462 0.0
H846 H 0.18568 0.53607 0.37491 0.0
H847 H 0.22576 0.56871 0.36845 0.0
C848 C 0.13625 0.47601 0.42296 0.0
C849 C 0.13709 0.44681 0.4148 0.0
C850 C 0.1601 0.49351 0.41693 0.0
C851 C 0.18559 0.48231 0.40276 0.0
C852 C 0.18664 0.45299 0.39525 0.0
C853 C 0.16271 0.43552 0.40105 0.0
C854 C 0.26212 0.51128 0.39999 0.0
C855 C 0.25788 0.53925 0.38778 0.0
C856 C 0.23889 0.4925 0.4039 0.0
C857 C 0.21081 0.50126 0.39588 0.0
C858 C 0.20684 0.52876 0.38213 0.0
C859 C 0.22999 0.54742 0.37807 0.0
H860 H 0.13759 0.15732 0.46348 0.0
H861 H 0.10998 0.12473 0.36345 0.0
H862 H 0.10663 0.19886 0.45572 0.0
H863 H 0.08002 0.16652 0.35516 0.0
H864 H 1.00393 0.22692 0.37202 0.0
H865 H 0.03663 0.18692 0.37731 0.0
H866 H 0.10072 0.24251 0.42149 0.0
H867 H 0.06763 0.28271 0.41676 0.0
C868 C 0.12494 0.15896 0.43987 0.0
C869 C 0.12641 0.13758 0.41411 0.0
C870 C 0.10744 0.183 0.43519 0.0
C871 C 0.0908 0.18621 0.40473 0.0
C872 C 0.09227 0.16477 0.37908 0.0
C873 C 0.10975 0.14086 0.38371 0.0
C874 C 1.02512 0.23082 0.38244 0.0
C875 C 1.03305 0.25818 0.39394 0.0
C876 C 0.04397 0.20777 0.38542 0.0
C877 C 0.07137 0.21131 0.40003 0.0
C878 C 0.07966 0.23885 0.4106 0.0
C879 C 0.06078 0.26201 0.40749 0.0
H880 H 0.94674 0.95469 0.16597 0.0
H881 H 0.91578 0.93087 0.0637 0.0
H882 H 0.9052 0.98512 0.17434 0.0
H883 H 0.87441 0.96227 0.07168 0.0
H884 H 0.79001 1.00191 0.11131 0.0
H885 H 0.82976 0.9682 0.1055 0.0
H886 H 0.88663 1.02953 0.15287 0.0
H887 H 0.84713 0.0628 0.15913 0.0
C888 C 0.93101 0.95583 0.14524 0.0
C889 C 0.93467 0.94012 0.11418 0.0
C890 C 0.90725 0.97358 0.14994 0.0
C891 C 0.88634 0.97626 0.12372 0.0
C892 C 0.88989 0.96052 0.09263 0.0
C893 C 0.91381 0.94277 0.08785 0.0
C894 C 0.8109 1.008 0.12099 0.0
C895 C 0.81526 0.03511 0.13578 0.0
C896 C 0.83379 0.98878 0.11729 0.0
C897 C 0.86153 0.99611 0.12855 0.0
C898 C 0.86559 1.02293 0.14421 0.0
C899 C 0.84285 0.04211 0.14772 0.0
H900 H 0.50094 0.84542 0.16548 0.0
H901 H 0.56551 0.79143 0.11905 0.0
H902 H 0.53274 0.88609 0.16054 0.0
H903 H 0.59783 0.83229 0.11487 0.0
H904 H 0.63289 0.91814 0.07329 0.0
H905 H 0.60313 0.87584 0.08137 0.0
H906 H 0.57507 0.9081 0.18152 0.0
H907 H 0.60364 0.95076 0.17275 0.0
C908 C 0.52218 0.84204 0.15484 0.0
C909 C 0.53055 0.815 0.14265 0.0
C910 C 0.54054 0.86549 0.15207 0.0
C911 C 0.56792 0.8627 0.13706 0.0
C912 C 0.57675 0.83542 0.12604 0.0
C913 C 0.55833 0.81186 0.12886 0.0
C914 C 0.62013 0.91637 0.09685 0.0
C915 C 0.62079 0.93803 0.12232 0.0
C916 C 0.60334 0.89185 0.10175 0.0
C917 C 0.58667 0.88834 0.13221 0.0
C918 C 0.58735 0.91004 0.15759 0.0
C919 C 0.60406 0.93448 0.15269 0.0
H920 H 0.61951 0.60299 0.16837 0.0
H921 H 0.65512 0.63688 0.07272 0.0
H922 H 0.66184 0.57364 0.17627 0.0
H923 H 0.69713 0.60643 0.07987 0.0
H924 H 0.78096 0.56663 0.11969 0.0
H925 H 0.73999 0.59887 0.11452 0.0
H926 H 0.68415 0.53241 0.15267 0.0
H927 H 0.72487 0.50067 0.15854 0.0
C928 C 0.63638 0.60428 0.14898 0.0
C929 C 0.63373 0.62252 0.11992 0.0
C930 C 0.66064 0.58711 0.15333 0.0
C931 C 0.68308 0.58748 0.12872 0.0
C932 C 0.68051 0.60573 0.09963 0.0
C933 C 0.65616 0.62295 0.09525 0.0
C934 C 0.75999 0.55904 0.1274 0.0
C935 C 0.75635 0.53099 0.13964 0.0
C936 C 0.7364 0.57746 0.12409 0.0
C937 C 0.70858 0.56834 0.13305 0.0
C938 C 0.70517 0.54046 0.14592 0.0
C939 C 0.72864 0.52212 0.14918 0.0
H940 H 0.0787 0.72014 0.15346 0.0
H941 H 1.00964 0.77596 0.1229 0.0
H942 H 0.04724 0.67916 0.14694 0.0
H943 H 0.97796 0.73491 0.117 0.0
H944 H 0.93899 0.6528 0.07176 0.0
H945 H 0.97046 0.69397 0.07913 0.0
H946 H 1.0065 0.65549 0.17173 0.0
H947 H 0.97595 0.61407 0.16363 0.0
C948 C 0.05667 0.72377 0.14586 0.0
C949 C 0.04679 0.75147 0.13874 0.0
C950 C 0.03856 0.70018 0.14215 0.0
C951 C 1.01001 0.70358 0.1312 0.0
C952 C 0.99992 0.73137 0.1249 0.0
C953 C 1.01804 0.75499 0.12866 0.0
C954 C 0.95388 0.65298 0.09343 0.0
C955 C 0.95478 0.63007 0.11713 0.0
C956 C 0.97169 0.67678 0.09795 0.0
C957 C 0.99099 0.67824 0.12619 0.0
C958 C 0.99213 0.65513 0.14955 0.0
C959 C 0.97433 0.63143 0.14508 0.0
H960 H 0.78225 1.00194 0.62254 0.0
H961 H 0.72503 0.06421 0.66771 0.0
H962 H 0.74245 0.96827 0.61777 0.0
H963 H 0.68556 1.03064 0.66303 0.0
H964 H 0.61706 0.98125 0.60214 0.0
H965 H 0.65825 1.0116 0.61344 0.0
H966 H 0.70597 0.93874 0.6499 0.0
H967 H 0.66451 0.90807 0.63813 0.0
C968 C 0.76139 1.00831 0.63211 0.0
C969 C 0.75699 0.036 0.64532 0.0
C970 C 0.73852 0.98895 0.62937 0.0
C971 C 0.71063 0.99683 0.6395 0.0
C972 C 0.7066 1.02398 0.65431 0.0
C973 C 0.7294 0.04321 0.65727 0.0
C974 C 0.63636 0.97157 0.61234 0.0
C975 C 0.63742 0.9421 0.61898 0.0
C976 C 0.65994 0.98908 0.61924 0.0
C977 C 0.68549 0.97773 0.6328 0.0
C978 C 0.6867 0.94822 0.63934 0.0
C979 C 0.66288 0.93066 0.6328 0.0
H980 H 0.63639 0.6566 0.57659 0.0
H981 H 0.60765 0.6259 0.6772 0.0
H982 H 0.60793 0.69977 0.58455 0.0
H983 H 0.58061 0.66947 0.68591 0.0
H984 H 0.507 0.73205 0.67052 0.0
H985 H 0.53858 0.6914 0.66569 0.0
H986 H 0.60259 0.74423 0.61616 0.0
H987 H 0.57018 0.78525 0.62013 0.0
C988 C 0.62406 0.65897 0.60042 0.0
C989 C 0.6244 0.63748 0.62616 0.0
C990 C 0.60804 0.68404 0.60524 0.0
C991 C 0.59184 0.68835 0.63591 0.0
C992 C 0.59245 0.66695 0.66172 0.0
C993 C 0.60833 0.64194 0.65688 0.0
C994 C 0.52796 0.73527 0.659 0.0
C995 C 0.53595 0.76211 0.64573 0.0
C996 C 0.54624 0.7118 0.65635 0.0
C997 C 0.57329 0.71425 0.64043 0.0
C998 C 0.58179 0.74134 0.62817 0.0
C999 C 0.56337 0.76501 0.63087 0.0
H1000 H 0.94629 0.61232 0.6754 0.0
H1001 H 0.91367 0.63717 0.57426 0.0
H1002 H 0.90421 0.5828 0.68494 0.0
H1003 H 0.87208 0.60654 0.58317 0.0
H1004 H 0.78833 0.56814 0.62045 0.0
H1005 H 0.82835 0.6014 0.61655 0.0
H1006 H 0.88355 0.5392 0.66517 0.0
H1007 H 0.84357 0.5063 0.66979 0.0
C1008 C 0.93011 0.6116 0.65518 0.0
C1009 C 0.93347 0.62732 0.62406 0.0
C1010 C 0.90605 0.59435 0.66052 0.0
C1011 C 0.88459 0.5922 0.63489 0.0
C1012 C 0.88791 0.60793 0.60375 0.0
C1013 C 0.91202 0.62521 0.5984 0.0
C1014 C 0.80885 0.56174 0.63096 0.0
C1015 C 0.8126 0.53441 0.6454 0.0
C1016 C 0.83194 0.58073 0.62832 0.0
C1017 C 0.85938 0.57295 0.64013 0.0
C1018 C 0.86277 0.54612 0.65601 0.0
C1019 C 0.83973 0.52715 0.65863 0.0
H1020 H 0.93664 0.91861 0.57881 0.0
H1021 H 0.97179 0.95462 0.6734 0.0
H1022 H 0.96677 0.87659 0.58624 0.0
H1023 H 1.00091 0.91218 0.68161 0.0
H1024 H 0.07386 0.84844 0.66082 0.0
H1025 H 0.04195 0.88919 0.65729 0.0
H1026 H 0.97374 0.83436 0.62168 0.0
H1027 H 1.00601 0.79346 0.62449 0.0
C1028 C 0.95079 0.91764 0.60117 0.0
C1029 C 0.95171 0.94019 0.62543 0.0
C1030 C 0.96781 0.89329 0.60573 0.0
C1031 C 0.98629 0.89079 0.63464 0.0
C1032 C 0.98718 0.91334 0.65887 0.0
C1033 C 0.97019 0.93765 0.65433 0.0
C1034 C 0.05195 0.84489 0.6527 0.0
C1035 C 0.04263 0.81753 0.64288 0.0
C1036 C 1.03355 0.86837 0.65075 0.0
C1037 C 1.00522 0.86526 0.63892 0.0
C1038 C 0.99554 0.83771 0.63033 0.0
C1039 C 1.01398 0.81415 0.63235 0.0
H1040 H 0.12127 0.10698 0.86346 0.0
H1041 H 0.15244 0.13658 0.96333 0.0
H1042 H 0.16398 0.07807 0.8562 0.0
H1043 H 0.1949 0.10654 0.95668 0.0
H1044 H 0.28049 0.06861 0.91888 0.0
H1045 H 0.23933 0.1007 0.9236 0.0
H1046 H 0.18509 0.03578 0.87886 0.0
H1047 H 0.22599 1.00421 0.8735 0.0
C1048 C 0.13725 0.1074 0.88393 0.0
C1049 C 0.13328 0.12433 0.91396 0.0
C1050 C 0.16172 0.09049 0.87991 0.0
C1051 C 0.18305 0.08982 0.90584 0.0
C1052 C 0.17915 0.10671 0.93594 0.0
C1053 C 0.15456 0.12367 0.93999 0.0
C1054 C 0.25986 0.06137 0.90956 0.0
C1055 C 0.25669 0.03378 0.8957 0.0
C1056 C 0.23615 0.07968 0.91264 0.0
C1057 C 0.20872 0.0709 0.90175 0.0
C1058 C 0.20582 0.04354 0.88715 0.0
C1059 C 0.22939 1.02531 0.88417 0.0
H1060 H 0.43895 0.15521 0.96405 0.0
H1061 H 0.47093 0.11978 0.86733 0.0
H1062 H 0.46991 0.19675 0.95612 0.0
H1063 H 0.50086 0.16155 0.85876 0.0
H1064 H 0.57473 0.22401 0.87503 0.0
H1065 H 0.54295 0.18344 0.88198 0.0
H1066 H 0.47626 0.23922 0.9199 0.0
H1067 H 0.50845 0.28 0.91359 0.0
C1068 C 0.45261 0.15621 0.94117 0.0
C1069 C 0.45233 0.13409 0.91632 0.0
C1070 C 0.4701 0.18023 0.93636 0.0
C1071 C 0.48788 0.18266 0.9067 0.0
C1072 C 0.4877 0.1604 0.88207 0.0
C1073 C 0.47025 0.1365 0.88683 0.0
C1074 C 0.55321 0.22777 0.88452 0.0
C1075 C 0.54422 0.25538 0.8937 0.0
C1076 C 0.53488 0.20442 0.88843 0.0
C1077 C 0.50698 0.20792 0.90164 0.0
C1078 C 0.49773 0.23563 0.91013 0.0
C1079 C 0.5161 0.25908 0.90614 0.0
H1080 H 0.41896 0.43527 0.96426 0.0
H1081 H 0.45176 0.46182 0.86376 0.0
H1082 H 0.37687 0.4656 0.95569 0.0
H1083 H 0.40955 0.49109 0.85471 0.0
H1084 H 0.34838 0.56619 0.86856 0.0
H1085 H 0.38882 0.53432 0.87599 0.0
H1086 H 0.33293 0.47072 0.92077 0.0
H1087 H 0.29219 0.5031 0.91388 0.0
C1088 C 0.41726 0.44758 0.9404 0.0
C1089 C 0.43883 0.44597 0.91471 0.0
C1090 C 0.39293 0.46469 0.93526 0.0
C1091 C 0.38966 0.48082 0.90443 0.0
C1092 C 0.41133 0.47925 0.87891 0.0
C1093 C 0.4355 0.46216 0.88399 0.0
C1094 C 0.34452 0.5453 0.87965 0.0
C1095 C 0.31689 0.53728 0.89054 0.0
C1096 C 0.36782 0.52691 0.88384 0.0
C1097 C 0.3643 0.49987 0.89909 0.0
C1098 C 0.33655 0.49151 0.90933 0.0
C1099 C 0.3131 0.50996 0.90499 0.0
H1100 H 0.13422 0.41779 0.95814 0.0
H1101 H 0.10328 0.45096 0.85987 0.0
H1102 H 0.10351 0.37599 0.95119 0.0
H1103 H 0.0737 0.40887 0.85224 0.0
H1104 H 0.99944 0.34701 0.86973 0.0
H1105 H 1.03143 0.38751 0.87516 0.0
H1106 H 0.09708 0.33259 0.91715 0.0
H1107 H 0.06461 0.29187 0.91242 0.0
C1108 C 0.12087 0.41625 0.9351 0.0
C1109 C 0.12136 0.43787 0.90959 0.0
C1110 C 0.10353 0.39204 0.93085 0.0
C1111 C 0.08609 0.38887 0.90106 0.0
C1112 C 0.08655 0.41057 0.87569 0.0
C1113 C 0.10384 0.43467 0.87991 0.0
C1114 C 1.02079 0.34338 0.87978 0.0
C1115 C 1.02935 0.31604 0.8906 0.0
C1116 C 0.03925 0.36672 0.88281 0.0
C1117 C 0.06693 0.3635 0.89674 0.0
C1118 C 0.0758 0.33601 0.90679 0.0
C1119 C 0.05728 0.31256 0.90369 0.0
H1120 H 0.72718 0.1692 0.36054 0.0
H1121 H 0.79244 0.22584 0.401 0.0
H1122 H 0.76144 0.12964 0.36324 0.0
H1123 H 0.82423 0.18643 0.40747 0.0
H1124 H 0.8741 0.13734 0.43817 0.0
H1125 H 0.82392 0.12387 0.43692 0.0
H1126 H 0.82137 0.13888 0.32631 0.0
H1127 H 0.87048 0.15439 0.32723 0.0
C1128 C 0.74839 0.17329 0.37066 0.0
C1129 C 0.75685 0.20108 0.3805 0.0
C1130 C 0.76765 0.15042 0.37291 0.0
C1131 C 0.79512 0.15482 0.38646 0.0
C1132 C 0.80287 0.18216 0.39796 0.0
C1133 C 0.78435 0.20496 0.39439 0.0
C1134 C 0.86336 0.13644 0.4131 0.0
C1135 C 0.87511 0.15032 0.3837 0.0
C1136 C 0.83461 0.1281 0.41232 0.0
C1137 C 0.8184 0.13388 0.38224 0.0
C1138 C 0.83321 0.13655 0.35049 0.0
C1139 C 0.86163 0.14581 0.35118 0.0
H1140 H 0.1816 0.70133 0.28151 0.0
H1141 H 0.12858 0.7015 0.37407 0.0
H1142 H 0.16575 0.74846 0.26747 0.0
H1143 H 0.11223 0.74929 0.35963 0.0
H1144 H 0.18494 0.8175 0.38515 0.0
H1145 H 0.15112 0.77929 0.37701 0.0
H1146 H 0.14944 0.79639 0.26573 0.0
H1147 H 0.184 0.83472 0.27457 0.0
C1148 C 0.16508 0.71061 0.29782 0.0
C1149 C 0.15814 0.6987 0.33049 0.0
C1150 C 0.1558 0.73804 0.28965 0.0
C1151 C 0.13984 0.75363 0.31435 0.0
C1152 C 0.12611 0.73837 0.34128 0.0
C1153 C 0.13552 0.71093 0.34962 0.0
C1154 C 0.17686 0.81347 0.35906 0.0
C1155 C 0.18829 0.82785 0.33013 0.0
C1156 C 0.15688 0.79183 0.3543 0.0
C1157 C 0.14823 0.78385 0.32035 0.0
C1158 C 0.15625 0.80138 0.2921 0.0
C1159 C 0.17623 0.8232 0.29703 0.0
H1160 H 0.38993 0.89586 0.25132 0.0
H1161 H 0.35293 0.93517 0.16 0.0
H1162 H 0.34732 0.90692 0.28445 0.0
H1163 H 0.30926 0.94332 0.19179 0.0
H1164 H 0.27479 0.84054 0.26794 0.0
H1165 H 0.31426 0.87236 0.27645 0.0
H1166 H 0.26828 0.93905 0.22213 0.0
H1167 H 0.23006 0.90601 0.21021 0.0
C1168 C 0.37325 0.90789 0.23842 0.0
C1169 C 0.37345 0.91189 0.20191 0.0
C1170 C 0.34841 0.91387 0.25747 0.0
C1171 C 0.32349 0.92228 0.2396 0.0
C1172 C 0.3271 0.93452 0.20615 0.0
C1173 C 0.35235 0.92967 0.18752 0.0
C1174 C 0.27312 0.86188 0.25741 0.0
C1175 C 0.24991 0.86981 0.23631 0.0
C1176 C 0.29567 0.88073 0.26317 0.0
C1177 C 0.29555 0.90821 0.24812 0.0
C1178 C 0.27002 0.91768 0.2325 0.0
C1179 C 0.24774 0.89856 0.22594 0.0
H1180 H 0.77344 0.35467 0.33979 0.0
H1181 H 0.85444 0.34317 0.28709 0.0
H1182 H 0.78029 0.30944 0.36999 0.0
H1183 H 0.86094 0.29849 0.31608 0.0
H1184 H 0.76298 0.23044 0.29711 0.0
H1185 H 0.76848 0.27207 0.33286 0.0
H1186 H 0.85887 0.25457 0.3429 0.0
H1187 H 0.85351 0.21356 0.30476 0.0
C1188 C 0.79316 0.34303 0.33557 0.0
C1189 C 0.81243 0.35147 0.30923 0.0
C1190 C 0.7972 0.31716 0.35303 0.0
C1191 C 0.8198 0.29904 0.34296 0.0
C1192 C 0.84239 0.31097 0.32337 0.0
C1193 C 0.83859 0.33691 0.3063 0.0
C1194 C 0.78394 0.235 0.30779 0.0
C1195 C 0.80805 0.21994 0.29619 0.0
C1196 C 0.78715 0.2588 0.32907 0.0
C1197 C 0.81459 0.26779 0.33951 0.0
C1198 C 0.83764 0.24893 0.33428 0.0
C1199 C 0.83453 0.2253 0.3123 0.0
H1200 H 0.23391 0.66956 0.64433 0.0
H1201 H 0.29671 0.73181 0.611 0.0
H1202 H 0.27102 0.63285 0.64395 0.0
H1203 H 0.33224 0.69523 0.60784 0.0
H1204 H 0.39533 0.65664 0.60527 0.0
H1205 H 0.3489 0.64504 0.58204 0.0
H1206 H 0.31642 0.63335 0.68646 0.0
H1207 H 0.36357 0.64286 0.70995 0.0
C1208 C 0.25533 0.67549 0.6364 0.0
C1209 C 0.26226 0.70408 0.62843 0.0
C1210 C 0.27635 0.65422 0.63547 0.0
C1211 C 0.30437 0.6609 0.62519 0.0
C1212 C 0.31065 0.68898 0.61479 0.0
C1213 C 0.29005 0.71024 0.61672 0.0
C1214 C 0.37913 0.64943 0.62351 0.0
C1215 C 0.38189 0.65426 0.65974 0.0
C1216 C 0.35226 0.64256 0.60992 0.0
C1217 C 0.32868 0.64164 0.63275 0.0
C1218 C 0.33401 0.63602 0.66824 0.0
C1219 C 0.36115 0.64186 0.68179 0.0
H1220 H 0.80307 0.20381 0.50195 0.0
H1221 H 0.73098 0.25934 0.51884 0.0
H1222 H 0.8245 0.23868 0.46253 0.0
H1223 H 0.75221 0.29454 0.48104 0.0
H1224 H 0.85939 0.31653 0.52717 0.0
H1225 H 0.84772 0.27614 0.49092 0.0
H1226 H 0.77884 0.3237 0.44348 0.0
H1227 H 0.7893 0.36355 0.48207 0.0
C1228 C 0.79123 0.22301 0.49578 0.0
C1229 C 0.76612 0.22977 0.51426 0.0
C1230 C 0.80352 0.24305 0.47337 0.0
C1231 C 0.79129 0.27032 0.47049 0.0
C1232 C 0.76312 0.2743 0.48336 0.0
C1233 C 0.75067 0.25408 0.50525 0.0
C1234 C 0.8426 0.31886 0.50786 0.0
C1235 C 0.82405 0.34226 0.50888 0.0
C1236 C 0.83588 0.29564 0.48658 0.0
C1237 C 0.81016 0.29578 0.4672 0.0
C1238 C 0.79736 0.32229 0.4604 0.0
C1239 C 0.80324 0.3451 0.48261 0.0
H1240 H 0.85721 0.34923 0.72028 0.0
H1241 H 0.84582 0.25812 0.71617 0.0
H1242 H 0.8164 0.35544 0.68201 0.0
H1243 H 0.8038 0.26418 0.68084 0.0
H1244 H 0.73125 0.35011 0.74166 0.0
H1245 H 0.77376 0.35656 0.70798 0.0
H1246 H 0.7608 0.27448 0.65887 0.0
H1247 H 0.71791 0.26777 0.6942 0.0
C1248 C 0.84655 0.33041 0.7104 0.0
C1249 C 0.85324 0.30325 0.7235 0.0
C1250 C 0.82278 0.33397 0.68864 0.0
C1251 C 0.80453 0.31069 0.68183 0.0
C1252 C 0.81574 0.28314 0.68745 0.0
C1253 C 0.83992 0.2795 0.70831 0.0
C1254 C 0.73671 0.33378 0.72279 0.0
C1255 C 0.72232 0.30754 0.72244 0.0
C1256 C 0.7615 0.33746 0.703 0.0
C1257 C 0.77267 0.31468 0.6831 0.0
C1258 C 0.7543 0.2915 0.67626 0.0
C1259 C 0.7296 0.2876 0.69648 0.0
H1260 H 0.33226 0.85067 0.72518 0.0
H1261 H 0.24167 0.86504 0.71242 0.0
H1262 H 0.32855 0.80716 0.69212 0.0
H1263 H 0.23835 0.82257 0.67652 0.0
H1264 H 0.3186 0.72097 0.70696 0.0
H1265 H 0.31679 0.763 0.66953 0.0
H1266 H 0.23525 0.78549 0.71603 0.0
H1267 H 0.23672 0.74324 0.75119 0.0
C1268 C 0.31177 0.84525 0.71374 0.0
C1269 C 0.28683 0.85974 0.72397 0.0
C1270 C 0.3096 0.8203 0.69415 0.0
C1271 C 0.28237 0.80974 0.68506 0.0
C1272 C 0.25925 0.82901 0.68584 0.0
C1273 C 0.26116 0.85356 0.70641 0.0
C1274 C 0.2998 0.73435 0.70785 0.0
C1275 C 0.27859 0.72993 0.73336 0.0
C1276 C 0.29875 0.75856 0.68649 0.0
C1277 C 0.27678 0.77881 0.69105 0.0
C1278 C 0.25312 0.77121 0.71203 0.0
C1279 C 0.25401 0.74696 0.73282 0.0
H1280 H 0.70304 0.22175 0.44118 0.0
H1281 H 0.64183 0.15562 0.46425 0.0
H1282 H 0.74134 0.19238 0.46464 0.0
H1283 H 0.67996 0.1265 0.48904 0.0
H1284 H 0.74485 0.1019 0.57333 0.0
H1285 H 0.70819 0.12637 0.53998 0.0
H1286 H 0.77167 0.15167 0.46367 0.0
H1287 H 0.80875 0.12756 0.49823 0.0
C1288 C 0.69778 0.20082 0.45096 0.0
C1289 C 0.66927 0.19119 0.45078 0.0
C1290 C 0.71983 0.18389 0.46455 0.0
C1291 C 0.71389 0.15716 0.47956 0.0
C1292 C 0.68541 0.14722 0.47853 0.0
C1293 C 0.66345 0.16393 0.46422 0.0
C1294 C 0.751 0.11253 0.54931 0.0
C1295 C 0.7797 0.11269 0.53834 0.0
C1296 C 0.72984 0.12633 0.52984 0.0
C1297 C 0.73666 0.14086 0.49871 0.0
C1298 C 0.76548 0.14082 0.4875 0.0
C1299 C 0.78674 0.12679 0.50707 0.0
H1300 H 0.43902 0.80772 0.50478 0.0
H1301 H 0.46232 0.74775 0.5852 0.0
H1302 H 0.41356 0.76988 0.47342 0.0
H1303 H 0.43631 0.71017 0.55475 0.0
H1304 H 0.41085 0.64274 0.4742 0.0
H1305 H 0.4379 0.68061 0.50282 0.0
H1306 H 0.37072 0.74051 0.47843 0.0
H1307 H 0.34386 0.7028 0.44948 0.0
C1308 C 0.43871 0.78644 0.51573 0.0
C1309 C 0.45252 0.78074 0.54757 0.0
C1310 C 0.42393 0.76477 0.49794 0.0
C1311 C 0.42276 0.73685 0.51149 0.0
C1312 C 0.43695 0.73123 0.5432 0.0
C1313 C 0.45161 0.75287 0.56092 0.0
C1314 C 0.40185 0.66399 0.47481 0.0
C1315 C 0.3751 0.66958 0.45943 0.0
C1316 C 0.41732 0.68574 0.49144 0.0
C1317 C 0.40657 0.71375 0.49303 0.0
C1318 C 0.37992 0.71936 0.47738 0.0
C1319 C 0.36439 0.6976 0.46092 0.0
H1320 H 0.86711 0.35827 0.42677 0.0
H1321 H 0.93084 0.40972 0.47845 0.0
H1322 H 0.8296 0.38858 0.45051 0.0
H1323 H 0.89351 0.4396 0.50278 0.0
H1324 H 0.82373 0.46584 0.57708 0.0
H1325 H 0.86052 0.44059 0.54551 0.0
H1326 H 0.80202 0.42786 0.45923 0.0
H1327 H 0.76418 0.45138 0.49298 0.0
C1328 C 0.87312 0.37592 0.44348 0.0
C1329 C 0.90205 0.38113 0.45127 0.0
C1330 C 0.85148 0.39338 0.45727 0.0
C1331 C 0.85799 0.4159 0.48032 0.0
C1332 C 0.88715 0.42178 0.48662 0.0
C1333 C 0.90878 0.40471 0.47233 0.0
C1334 C 0.81856 0.45735 0.55153 0.0
C1335 C 0.79085 0.46017 0.53788 0.0
C1336 C 0.84001 0.44327 0.53285 0.0
C1337 C 0.8348 0.43206 0.49928 0.0
C1338 C 0.80708 0.43565 0.48511 0.0
C1339 C 0.78534 0.44945 0.50427 0.0
H1340 H 0.11969 0.76675 0.49068 0.0
H1341 H 0.11138 0.82422 0.57823 0.0
H1342 H 0.14373 0.80453 0.45704 0.0
H1343 H 0.13542 0.86136 0.54536 0.0
H1344 H 0.15777 0.93156 0.47052 0.0
H1345 H 0.12947 0.89343 0.49672 0.0
H1346 H 0.18913 0.83118 0.4566 0.0
H1347 H 0.21716 0.86925 0.42986 0.0
C1348 C 0.12281 0.78744 0.50261 0.0
C1349 C 0.11357 0.79249 0.53706 0.0
C1350 C 0.13672 0.80904 0.48349 0.0
C1351 C 0.14142 0.83615 0.49838 0.0
C1352 C 0.13178 0.84105 0.5327 0.0
C1353 C 0.11812 0.81958 0.55171 0.0
C1354 C 0.16477 0.90975 0.46706 0.0
C1355 C 0.19 0.90361 0.44847 0.0
C1356 C 0.1486 0.88783 0.48223 0.0
C1357 C 0.15713 0.85914 0.47916 0.0
C1358 C 0.18178 0.85293 0.45941 0.0
C1359 C 0.19803 0.87487 0.44434 0.0
H1360 H 0.24985 0.95618 0.94946 0.0
H1361 H 0.30701 0.94902 0.03759 0.0
H1362 H 0.21232 0.93252 0.98248 0.0
H1363 H 0.26898 0.92531 0.0712 0.0
H1364 H 0.20483 0.85226 0.09908 0.0
H1365 H 0.24276 0.87989 0.0714 0.0
H1366 H 0.17983 0.93883 0.03148 0.0
H1367 H 0.14174 0.9109 0.05876 0.0
C1368 C 0.25434 0.94975 0.9761 0.0
C1369 C 0.28143 0.95454 0.99094 0.0
C1370 C 0.23267 0.93632 0.99516 0.0
C1371 C 0.23746 0.9271 0.02963 0.0
C1372 C 0.26458 0.93199 0.04464 0.0
C1373 C 0.28633 0.94568 0.0255 0.0
C1374 C 0.19902 0.87117 0.0845 0.0
C1375 C 0.17011 0.87914 0.08084 0.0
C1376 C 0.22087 0.88718 0.06886 0.0
C1377 C 0.21443 0.91153 0.04899 0.0
C1378 C 0.18557 0.91995 0.04616 0.0
C1379 C 0.1637 0.90401 0.06195 0.0
H1380 H 0.66437 0.14314 0.06164 0.0
H1381 H 0.73223 0.20191 0.08754 0.0
H1382 H 0.63814 0.18153 0.03311 0.0
H1383 H 0.70585 0.2404 0.05886 0.0
H1384 H 0.63541 0.30731 0.03068 0.0
H1385 H 0.6606 0.26987 0.06346 0.0
H1386 H 0.64435 0.21053 0.97955 0.0
H1387 H 0.61952 0.24762 0.9471 0.0
C1388 C 0.6737 0.16425 0.06139 0.0
C1389 C 0.70055 0.16929 0.0768 0.0
C1390 C 0.65867 0.18628 0.04487 0.0
C1391 C 0.6699 0.21409 0.04355 0.0
C1392 C 0.69646 0.21932 0.05962 0.0
C1393 C 0.71167 0.19717 0.07586 0.0
C1394 C 0.63713 0.2862 0.01944 0.0
C1395 C 0.62535 0.28042 0.98639 0.0
C1396 C 0.6517 0.26481 0.03807 0.0
C1397 C 0.65441 0.23711 0.02422 0.0
C1398 C 0.64237 0.23144 0.99127 0.0
C1399 C 0.62821 0.2528 0.97256 0.0
H1400 H 0.26466 0.62615 0.02876 0.0
H1401 H 0.32484 0.61298 0.94452 0.0
H1402 H 0.30193 0.65097 0.06229 0.0
H1403 H 0.3617 0.63763 0.97755 0.0
H1404 H 0.42947 0.6606 0.05745 0.0
H1405 H 0.39178 0.6327 0.02959 0.0
H1406 H 0.32948 0.69621 0.05922 0.0
H1407 H 0.36705 0.72403 0.08733 0.0
C1408 C 0.28585 0.62837 0.01755 0.0
C1409 C 0.29182 0.61753 0.98408 0.0
C1410 C 0.30715 0.64271 0.03661 0.0
C1411 C 0.3349 0.64622 0.02269 0.0
C1412 C 0.34078 0.63498 0.98937 0.0
C1413 C 0.31953 0.62096 0.97031 0.0
C1414 C 0.40774 0.66858 0.05823 0.0
C1415 C 0.40143 0.6947 0.07451 0.0
C1416 C 0.3861 0.65261 0.04212 0.0
C1417 C 0.35755 0.66223 0.04202 0.0
C1418 C 0.35114 0.688 0.05906 0.0
C1419 C 0.37279 0.70406 0.07497 0.0
H1420 H 0.84553 0.36729 0.09611 0.0
H1421 H 0.91017 0.42771 0.06401 0.0
H1422 H 0.87167 0.32923 0.06619 0.0
H1423 H 0.93622 0.38973 0.03437 0.0
H1424 H 0.95325 0.32356 0.94831 0.0
H1425 H 0.92888 0.3602 0.98209 0.0
H1426 H 0.91727 0.30083 0.06719 0.0
H1427 H 0.94191 0.26382 0.03298 0.0
C1428 C 0.86537 0.37248 0.08286 0.0
C1429 C 0.8756 0.4007 0.08237 0.0
C1430 C 0.88045 0.35058 0.06588 0.0
C1431 C 0.90601 0.35638 0.04769 0.0
C1432 C 0.91643 0.38452 0.04772 0.0
C1433 C 0.90151 0.40632 0.0649 0.0
C1434 C 0.94568 0.31828 0.97431 0.0
C1435 C 0.94967 0.29078 0.98804 0.0
C1436 C 0.93178 0.33939 0.99378 0.0
C1437 C 0.9212 0.3336 0.0275 0.0
C1438 C 0.92504 0.306 0.04125 0.0
C1439 C 0.93929 0.28484 0.02179 0.0
H1440 H 0.42772 0.90734 0.55772 0.0
H1441 H 0.36604 0.84714 0.59812 0.0
H1442 H 0.3895 0.93333 0.52875 0.0
H1443 H 0.32763 0.8732 0.56862 0.0
H1444 H 0.26347 0.94438 0.53381 0.0
H1445 H 0.30051 0.91912 0.56732 0.0
H1446 H 0.35802 0.92559 0.47913 0.0
H1447 H 0.32145 0.9507 0.44616 0.0
C1448 C 0.406 0.8996 0.56053 0.0
C1449 C 0.40013 0.87493 0.58019 0.0
C1450 C 0.38402 0.9145 0.5437 0.0
C1451 C 0.35541 0.9053 0.54602 0.0
C1452 C 0.34936 0.88103 0.5664 0.0
C1453 C 0.37145 0.86598 0.58316 0.0
C1454 C 0.2841 0.94046 0.52177 0.0
C1455 C 0.28956 0.94974 0.48743 0.0
C1456 C 0.30526 0.92585 0.54085 0.0
C1457 C 0.33241 0.92046 0.52608 0.0
C1458 C 0.33764 0.92975 0.49167 0.0
C1459 C 0.31654 0.94407 0.47264 0.0
H1460 H 0.71562 0.37095 0.60535 0.0
H1461 H 0.67666 0.43031 0.53395 0.0
H1462 H 0.68805 0.3322 0.57992 0.0
H1463 H 0.65072 0.39157 0.50625 0.0
H1464 H 0.58958 0.32302 0.47542 0.0
H1465 H 0.61459 0.36074 0.50621 0.0
H1466 H 0.67981 0.30025 0.53729 0.0
H1467 H 0.65275 0.26221 0.50903 0.0
C1468 C 0.7014 0.37558 0.58373 0.0
C1469 C 0.69824 0.40368 0.5717 0.0
C1470 C 0.6856 0.35324 0.56883 0.0
C1471 C 0.66669 0.35819 0.5407 0.0
C1472 C 0.66412 0.38649 0.52841 0.0
C1473 C 0.67927 0.40891 0.54407 0.0
C1474 C 0.60897 0.31782 0.48957 0.0
C1475 C 0.61898 0.28969 0.49039 0.0
C1476 C 0.62377 0.33961 0.50682 0.0
C1477 C 0.64984 0.33419 0.52423 0.0
C1478 C 0.65969 0.30568 0.52505 0.0
C1479 C 0.64422 0.28367 0.50875 0.0
H1480 H 0.30674 0.6304 0.53102 0.0
H1481 H 0.24554 0.59928 0.45575 0.0
H1482 H 0.2682 0.65608 0.56131 0.0
H1483 H 0.20725 0.62439 0.48607 0.0
H1484 H 0.14025 0.6549 0.5649 0.0
H1485 H 0.17895 0.62596 0.54021 0.0
H1486 H 0.23693 0.69711 0.54997 0.0
H1487 H 0.19844 0.7259 0.57411 0.0
C1488 C 0.28502 0.6286 0.52141 0.0
C1489 C 0.27914 0.61276 0.49112 0.0
C1490 C 0.26296 0.64339 0.53864 0.0
C1491 C 0.23451 0.64214 0.52637 0.0
C1492 C 0.22871 0.62553 0.49665 0.0
C1493 C 0.25073 0.61122 0.47916 0.0
C1494 C 0.16124 0.66435 0.56175 0.0
C1495 C 0.16616 0.69276 0.57164 0.0
C1496 C 0.18345 0.64777 0.54759 0.0
C1497 C 0.21117 0.65914 0.5432 0.0
C1498 C 0.21607 0.68745 0.55344 0.0
C1499 C 0.19387 0.70403 0.56723 0.0
H1500 H 0.90733 0.14306 0.55988 0.0
H1501 H 0.83889 0.20178 0.58284 0.0
H1502 H 0.9347 0.18157 0.53314 0.0
H1503 H 0.86602 0.24037 0.55545 0.0
H1504 H 0.93786 0.30782 0.5337 0.0
H1505 H 0.90994 0.27024 0.563 0.0
H1506 H 0.93299 0.21129 0.48098 0.0
H1507 H 0.96057 0.24837 0.45218 0.0
C1508 C 0.89801 0.16417 0.55919 0.0
C1509 C 0.87068 0.16917 0.57343 0.0
C1510 C 0.91369 0.18631 0.54365 0.0
C1511 C 0.90265 0.21422 0.54202 0.0
C1512 C 0.87541 0.2193 0.55651 0.0
C1513 C 0.85966 0.19706 0.57191 0.0
C1514 C 0.93711 0.28674 0.52223 0.0
C1515 C 0.95172 0.28105 0.49082 0.0
C1516 C 0.92092 0.26526 0.5388 0.0
C1517 C 0.91933 0.23755 0.52454 0.0
C1518 C 0.93405 0.23209 0.49315 0.0
C1519 C 0.94985 0.25349 0.47653 0.0
H1520 H 0.86593 0.22867 0.94422 0.0
H1521 H 0.92642 0.1611 0.96448 0.0
H1522 H 0.82806 0.20049 0.97187 0.0
H1523 H 0.88865 0.13305 0.9918 0.0
H1524 H 0.82452 0.10984 0.07826 0.0
H1525 H 0.86067 0.13631 0.0461 0.0
H1526 H 0.79885 0.1555 0.96565 0.0
H1527 H 0.76223 0.12872 0.99833 0.0
C1528 C 0.87117 0.2078 0.95444 0.0
C1529 C 0.89936 0.1973 0.95231 0.0
C1530 C 0.84938 0.19156 0.97005 0.0
C1531 C 0.8553 0.16453 0.98419 0.0
C1532 C 0.88338 0.15392 0.98157 0.0
C1533 C 0.90507 0.17001 0.96578 0.0
C1534 C 0.81859 0.11949 0.05357 0.0
C1535 C 0.79052 0.11704 0.04073 0.0
C1536 C 0.83942 0.13459 0.03502 0.0
C1537 C 0.83279 0.14795 1.00316 0.0
C1538 C 0.80465 0.14556 0.9902 0.0
C1539 C 0.78374 0.13007 1.00872 0.0
H1540 H 0.41224 0.92956 0.96773 0.0
H1541 H 0.3441 0.87019 0.94526 0.0
H1542 H 0.4401 0.89127 0.99394 0.0
H1543 H 0.37201 0.83182 0.97187 0.0
H1544 H 0.44236 0.76467 0.99669 0.0
H1545 H 0.4161 0.8022 0.96525 0.0
H1546 H 0.4379 0.86221 0.04657 0.0
H1547 H 0.46407 0.82519 0.07733 0.0
C1548 C 0.40315 0.90835 0.96834 0.0
C1549 C 0.37577 0.90313 0.95449 0.0
C1550 C 0.41914 0.88634 0.98352 0.0
C1551 C 0.40833 0.85837 0.98519 0.0
C1552 C 0.38116 0.853 0.97077 0.0
C1553 C 0.36505 0.8751 0.95575 0.0
C1554 C 0.44176 0.78599 1.00749 0.0
C1555 C 0.45537 0.79196 0.03941 0.0
C1556 C 0.42652 0.80744 0.9897 0.0
C1557 C 0.42489 0.83535 1.00329 0.0
C1558 C 0.43897 0.84119 0.03496 0.0
C1559 C 0.45391 0.81985 0.05272 0.0
H1560 H 0.74958 0.45323 0.08655 0.0
H1561 H 0.81005 0.44155 1.0023 0.0
H1562 H 0.71303 0.42852 0.0529 0.0
H1563 H 0.77317 0.41664 0.96826 0.0
H1564 H 0.70727 0.34484 0.93967 0.0
H1565 H 0.74506 0.37118 0.96981 0.0
H1566 H 0.68364 0.43527 1.00026 0.0
H1567 H 0.6459 0.40899 0.9704 0.0
C1568 C 0.75503 0.44551 0.06069 0.0
C1569 C 0.7827 0.44949 0.04701 0.0
C1570 C 0.73399 0.43144 0.04129 0.0
C1571 C 0.74005 0.42068 1.00776 0.0
C1572 C 0.76782 0.42453 0.99408 0.0
C1573 C 0.78888 0.43893 0.01344 0.0
C1574 C 0.70182 0.36461 0.95267 0.0
C1575 C 0.67343 0.37466 0.95271 0.0
C1576 C 0.72356 0.37981 0.96978 0.0
C1577 C 0.71741 0.4053 0.98762 0.0
C1578 C 0.6891 0.41553 0.98718 0.0
C1579 C 0.66744 0.40049 0.96988 0.0
H1580 H 0.1218 0.74661 0.08332 0.0
H1581 H 0.1326 0.80579 0.99795 0.0
H1582 H 0.14638 0.70987 0.04984 0.0
H1583 H 0.15748 0.76873 0.96413 0.0
H1584 H 0.22946 0.70254 0.93539 0.0
H1585 H 0.20336 0.74056 0.96544 0.0
H1586 H 0.13898 0.67998 0.99751 0.0
H1587 H 0.16497 0.64204 0.96764 0.0
C1588 C 0.12934 0.75176 0.05727 0.0
C1589 C 0.1251 0.77913 0.04324 0.0
C1590 C 0.14334 0.73059 0.03796 0.0
C1591 C 0.15384 0.73621 1.00416 0.0
C1592 C 0.1498 0.76369 0.99014 0.0
C1593 C 0.13541 0.78488 1.0094 0.0
C1594 C 0.20968 0.69732 0.94873 0.0
C1595 C 0.19945 0.66909 0.94915 0.0
C1596 C 0.19461 0.7192 0.96579 0.0
C1597 C 0.16909 0.71338 0.98407 0.0
C1598 C 0.15872 0.68522 0.98407 0.0
C1599 C 0.1736 0.66344 0.96675 0.0
loop_
_geom_bond_atom_site_label_1
_geom_bond_atom_site_label_2
_geom_bond_distance
_geom_bond_site_symmetry_2
_ccdc_geom_bond_type
C0 Eu1 2.835 . S
C0 C2 1.500 . S
C0 O20 1.257 . S
C0 O21 1.260 . S
Eu1 C0 2.835 . S
Eu1 O20 2.473 . S
Eu1 O21 2.480 . S
Eu1 O22 2.430 . S
Eu1 O23 2.670 . S
Eu1 O24 2.394 . S
Eu1 O29 2.355 . S
Eu1 O31 2.374 . S
C2 C0 1.500 . S
C2 C3 1.377 . S
C2 C7 1.377 . S
C3 C2 1.377 . S
C3 C4 1.395 . S
C3 H32 0.931 . S
C4 C3 1.395 . S
C4 C5 1.383 . S
C4 H33 0.931 . S
C5 C4 1.383 . S
C5 C6 1.394 . S
C6 C5 1.394 . S
C6 C7 1.378 . S
C6 H34 0.931 . S
C7 C2 1.377 . S
C7 C6 1.378 . S
C7 H35 0.931 . S
C8 O22 1.259 . S
C8 O23 1.270 . S
C9 O24 1.251 . S
C9 O25 1.251 . S
C10 Eu11 2.835 . S
C10 C12 1.500 . S
C10 O26 1.257 . S
C10 O27 1.260 . S
Eu11 C10 2.835 . S
Eu11 O23 2.355 . S
Eu11 O25 2.374 . S
Eu11 O26 2.473 . S
Eu11 O27 2.480 . S
Eu11 O28 2.430 . S
Eu11 O29 2.670 . S
Eu11 O30 2.394 . S
C12 C10 1.500 . S
C12 C13 1.377 . S
C12 C17 1.377 . S
C13 C12 1.377 . S
C13 C14 1.395 . S
C13 H36 0.931 . S
C14 C13 1.395 . S
C14 C15 1.383 . S
C14 H37 0.931 . S
C15 C14 1.383 . S
C15 C16 1.394 . S
C16 C15 1.394 . S
C16 C17 1.378 . S
C16 H38 0.931 . S
C17 C12 1.377 . S
C17 C16 1.378 . S
C17 H39 0.931 . S
C18 O28 1.259 . S
C18 O29 1.270 . S
C19 O30 1.251 . S
C19 O31 1.251 . S
O20 C0 1.257 . S
O20 Eu1 2.473 . S
O21 C0 1.260 . S
O21 Eu1 2.480 . S
O22 Eu1 2.430 . S
O22 C8 1.259 . S
O23 Eu1 2.670 . S
O23 C8 1.270 . S
O23 Eu11 2.355 . S
O24 Eu1 2.394 . S
O24 C9 1.251 . S
O25 C9 1.251 . S
O25 Eu11 2.374 . S
O26 C10 1.257 . S
O26 Eu11 2.473 . S
O27 C10 1.260 . S
O27 Eu11 2.480 . S
O28 Eu11 2.430 . S
O28 C18 1.259 . S
O29 Eu1 2.355 . S
O29 Eu11 2.670 . S
O29 C18 1.270 . S
O30 Eu11 2.394 . S
O30 C19 1.251 . S
O31 Eu1 2.374 . S
O31 C19 1.251 . S
H32 C3 0.931 . S
H33 C4 0.931 . S
H34 C6 0.931 . S
H35 C7 0.931 . S
H36 C13 0.931 . S
H37 C14 0.931 . S
H38 C16 0.931 . S
H39 C17 0.931 . S
C40 Eu41 2.835 . S
C40 C42 1.500 . S
C40 O60 1.257 . S
C40 O61 1.260 . S
Eu41 C40 2.835 . S
Eu41 O60 2.473 . S
Eu41 O61 2.480 . S
Eu41 O62 2.430 . S
Eu41 O63 2.670 . S
Eu41 O64 2.394 . S
Eu41 O69 2.355 . S
Eu41 O71 2.374 . S
C42 C40 1.500 . S
C42 C43 1.377 . S
C42 C47 1.377 . S
C43 C42 1.377 . S
C43 C44 1.395 . S
C43 H72 0.931 . S
C44 C43 1.395 . S
C44 C45 1.383 . S
C44 H73 0.931 . S
C45 C44 1.383 . S
C45 C46 1.394 . S
C46 C45 1.394 . S
C46 C47 1.378 . S
C46 H74 0.931 . S
C47 C42 1.377 . S
C47 C46 1.378 . S
C47 H75 0.931 . S
C48 O62 1.259 . S
C48 O63 1.270 . S
C49 O64 1.251 . S
C49 O65 1.251 . S
C50 Eu51 2.835 . S
C50 C52 1.500 . S
C50 O66 1.257 . S
C50 O67 1.260 . S
Eu51 C50 2.835 . S
Eu51 O63 2.355 . S
Eu51 O65 2.374 . S
Eu51 O66 2.473 . S
Eu51 O67 2.480 . S
Eu51 O68 2.430 . S
Eu51 O69 2.670 . S
Eu51 O70 2.394 . S
C52 C50 1.500 . S
C52 C53 1.377 . S
C52 C57 1.377 . S
C53 C52 1.377 . S
C53 C54 1.395 . S
C53 H76 0.931 . S
C54 C53 1.395 . S
C54 C55 1.383 . S
C54 H77 0.931 . S
C55 C54 1.383 . S
C55 C56 1.394 . S
C56 C55 1.394 . S
C56 C57 1.378 . S
C56 H78 0.931 . S
C57 C52 1.377 . S
C57 C56 1.378 . S
C57 H79 0.931 . S
C58 O68 1.259 . S
C58 O69 1.270 . S
C59 O70 1.251 . S
C59 O71 1.251 . S
O60 C40 1.257 . S
O60 Eu41 2.473 . S
O61 C40 1.260 . S
O61 Eu41 2.480 . S
O62 Eu41 2.430 . S
O62 C48 1.259 . S
O63 Eu41 2.670 . S
O63 C48 1.270 . S
O63 Eu51 2.355 . S
O64 Eu41 2.394 . S
O64 C49 1.251 . S
O65 C49 1.251 . S
O65 Eu51 2.374 . S
O66 C50 1.257 . S
O66 Eu51 2.473 . S
O67 C50 1.260 . S
O67 Eu51 2.480 . S
O68 Eu51 2.430 . S
O68 C58 1.259 . S
O69 Eu41 2.355 . S
O69 Eu51 2.670 . S
O69 C58 1.270 . S
O70 Eu51 2.394 . S
O70 C59 1.251 . S
O71 Eu41 2.374 . S
O71 C59 1.251 . S
H72 C43 0.931 . S
H73 C44 0.931 . S
H74 C46 0.931 . S
H75 C47 0.931 . S
H76 C53 0.931 . S
H77 C54 0.931 . S
H78 C56 0.931 . S
H79 C57 0.931 . S
C80 Eu81 2.835 1_455 S
C80 C82 1.500 . S
C80 O100 1.257 . S
C80 O101 1.260 . S
Eu81 C80 2.835 1_655 S
Eu81 O100 2.473 1_655 S
Eu81 O101 2.480 1_655 S
Eu81 O102 2.430 . S
Eu81 O103 2.670 . S
Eu81 O104 2.394 1_655 S
Eu81 O109 2.355 . S
Eu81 O111 2.374 . S
C82 C80 1.500 . S
C82 C83 1.377 . S
C82 C87 1.377 . S
C83 C82 1.377 . S
C83 C84 1.395 . S
C83 H112 0.931 . S
C84 C83 1.395 . S
C84 C85 1.383 . S
C84 H113 0.931 . S
C85 C84 1.383 . S
C85 C86 1.394 . S
C86 C85 1.394 . S
C86 C87 1.378 . S
C86 H114 0.931 . S
C87 C82 1.377 . S
C87 C86 1.378 . S
C87 H115 0.931 . S
C88 O102 1.259 . S
C88 O103 1.270 . S
C89 O104 1.251 1_655 S
C89 O105 1.251 . S
C90 Eu91 2.835 . S
C90 C92 1.500 . S
C90 O106 1.257 . S
C90 O107 1.260 . S
Eu91 C90 2.835 . S
Eu91 O103 2.355 . S
Eu91 O105 2.374 . S
Eu91 O106 2.473 . S
Eu91 O107 2.480 . S
Eu91 O108 2.430 . S
Eu91 O109 2.670 . S
Eu91 O110 2.394 . S
C92 C90 1.500 . S
C92 C93 1.377 . S
C92 C97 1.377 . S
C93 C92 1.377 . S
C93 C94 1.395 . S
C93 H116 0.931 . S
C94 C93 1.395 . S
C94 C95 1.383 . S
C94 H117 0.931 . S
C95 C94 1.383 . S
C95 C96 1.394 . S
C96 C95 1.394 . S
C96 C97 1.378 . S
C96 H118 0.931 . S
C97 C92 1.377 . S
C97 C96 1.378 . S
C97 H119 0.931 . S
C98 O108 1.259 . S
C98 O109 1.270 . S
C99 O110 1.251 . S
C99 O111 1.251 . S
O100 C80 1.257 . S
O100 Eu81 2.473 1_455 S
O101 C80 1.260 . S
O101 Eu81 2.480 1_455 S
O102 Eu81 2.430 . S
O102 C88 1.259 . S
O103 Eu81 2.670 . S
O103 C88 1.270 . S
O103 Eu91 2.355 . S
O104 Eu81 2.394 1_455 S
O104 C89 1.251 1_455 S
O105 C89 1.251 . S
O105 Eu91 2.374 . S
O106 C90 1.257 . S
O106 Eu91 2.473 . S
O107 C90 1.260 . S
O107 Eu91 2.480 . S
O108 Eu91 2.430 . S
O108 C98 1.259 . S
O109 Eu81 2.355 . S
O109 Eu91 2.670 . S
O109 C98 1.270 . S
O110 Eu91 2.394 . S
O110 C99 1.251 . S
O111 Eu81 2.374 . S
O111 C99 1.251 . S
H112 C83 0.931 . S
H113 C84 0.931 . S
H114 C86 0.931 . S
H115 C87 0.931 . S
H116 C93 0.931 . S
H117 C94 0.931 . S
H118 C96 0.931 . S
H119 C97 0.931 . S
C120 Eu121 2.835 1_545 S
C120 C122 1.500 . S
C120 O140 1.257 . S
C120 O141 1.260 . S
Eu121 C120 2.835 1_565 S
Eu121 O140 2.473 1_565 S
Eu121 O141 2.480 1_565 S
Eu121 O142 2.430 . S
Eu121 O143 2.670 . S
Eu121 O144 2.394 1_565 S
Eu121 O149 2.355 . S
Eu121 O151 2.374 . S
C122 C120 1.500 . S
C122 C123 1.377 . S
C122 C127 1.377 . S
C123 C122 1.377 . S
C123 C124 1.395 . S
C123 H152 0.931 . S
C124 C123 1.395 . S
C124 C125 1.383 . S
C124 H153 0.931 . S
C125 C124 1.383 . S
C125 C126 1.394 . S
C126 C125 1.394 . S
C126 C127 1.378 . S
C126 H154 0.931 . S
C127 C122 1.377 . S
C127 C126 1.378 . S
C127 H155 0.931 . S
C128 O142 1.259 . S
C128 O143 1.270 . S
C129 O144 1.251 1_565 S
C129 O145 1.251 . S
C130 Eu131 2.835 . S
C130 C132 1.500 . S
C130 O146 1.257 . S
C130 O147 1.260 . S
Eu131 C130 2.835 . S
Eu131 O143 2.355 . S
Eu131 O145 2.374 . S
Eu131 O146 2.473 . S
Eu131 O147 2.480 . S
Eu131 O148 2.430 . S
Eu131 O149 2.670 . S
Eu131 O150 2.394 . S
C132 C130 1.500 . S
C132 C133 1.377 . S
C132 C137 1.377 . S
C133 C132 1.377 . S
C133 C134 1.395 . S
C133 H156 0.931 . S
C134 C133 1.395 . S
C134 C135 1.383 . S
C134 H157 0.931 . S
C135 C134 1.383 . S
C135 C136 1.394 . S
C136 C135 1.394 . S
C136 C137 1.378 . S
C136 H158 0.931 . S
C137 C132 1.377 . S
C137 C136 1.378 . S
C137 H159 0.931 . S
C138 O148 1.259 . S
C138 O149 1.270 . S
C139 O150 1.251 . S
C139 O151 1.251 . S
O140 C120 1.257 . S
O140 Eu121 2.473 1_545 S
O141 C120 1.260 . S
O141 Eu121 2.480 1_545 S
O142 Eu121 2.430 . S
O142 C128 1.259 . S
O143 Eu121 2.670 . S
O143 C128 1.270 . S
O143 Eu131 2.355 . S
O144 Eu121 2.394 1_545 S
O144 C129 1.251 1_545 S
O145 C129 1.251 . S
O145 Eu131 2.374 . S
O146 C130 1.257 . S
O146 Eu131 2.473 . S
O147 C130 1.260 . S
O147 Eu131 2.480 . S
O148 Eu131 2.430 . S
O148 C138 1.259 . S
O149 Eu121 2.355 . S
O149 Eu131 2.670 . S
O149 C138 1.270 . S
O150 Eu131 2.394 . S
O150 C139 1.251 . S
O151 Eu121 2.374 . S
O151 C139 1.251 . S
H152 C123 0.931 . S
H153 C124 0.931 . S
H154 C126 0.931 . S
H155 C127 0.931 . S
H156 C133 0.931 . S
H157 C134 0.931 . S
H158 C136 0.931 . S
H159 C137 0.931 . S
C160 Eu161 2.835 1_655 S
C160 C162 1.500 . S
C160 O180 1.257 . S
C160 O181 1.260 . S
Eu161 C160 2.835 1_455 S
Eu161 O180 2.473 1_455 S
Eu161 O181 2.480 1_455 S
Eu161 O182 2.430 . S
Eu161 O183 2.670 . S
Eu161 O184 2.394 1_455 S
Eu161 O189 2.355 . S
Eu161 O191 2.374 . S
C162 C160 1.500 . S
C162 C163 1.377 . S
C162 C167 1.377 . S
C163 C162 1.377 . S
C163 C164 1.395 . S
C163 H192 0.931 . S
C164 C163 1.395 . S
C164 C165 1.383 . S
C164 H193 0.931 . S
C165 C164 1.383 . S
C165 C166 1.394 . S
C166 C165 1.394 . S
C166 C167 1.378 . S
C166 H194 0.931 . S
C167 C162 1.377 . S
C167 C166 1.378 . S
C167 H195 0.931 . S
C168 O182 1.259 . S
C168 O183 1.270 . S
C169 O184 1.251 1_455 S
C169 O185 1.251 . S
C170 Eu171 2.835 . S
C170 C172 1.500 . S
C170 O186 1.257 . S
C170 O187 1.260 . S
Eu171 C170 2.835 . S
Eu171 O183 2.355 . S
Eu171 O185 2.374 . S
Eu171 O186 2.473 . S
Eu171 O187 2.480 . S
Eu171 O188 2.430 . S
Eu171 O189 2.670 . S
Eu171 O190 2.394 . S
C172 C170 1.500 . S
C172 C173 1.377 . S
C172 C177 1.377 . S
C173 C172 1.377 . S
C173 C174 1.395 . S
C173 H196 0.931 . S
C174 C173 1.395 . S
C174 C175 1.383 . S
C174 H197 0.931 . S
C175 C174 1.383 . S
C175 C176 1.394 . S
C176 C175 1.394 . S
C176 C177 1.378 . S
C176 H198 0.931 . S
C177 C172 1.377 . S
C177 C176 1.378 . S
C177 H199 0.931 . S
C178 O188 1.259 . S
C178 O189 1.270 . S
C179 O190 1.251 . S
C179 O191 1.251 . S
O180 C160 1.257 . S
O180 Eu161 2.473 1_655 S
O181 C160 1.260 . S
O181 Eu161 2.480 1_655 S
O182 Eu161 2.430 . S
O182 C168 1.259 . S
O183 Eu161 2.670 . S
O183 C168 1.270 . S
O183 Eu171 2.355 . S
O184 Eu161 2.394 1_655 S
O184 C169 1.251 1_655 S
O185 C169 1.251 . S
O185 Eu171 2.374 . S
O186 C170 1.257 . S
O186 Eu171 2.473 . S
O187 C170 1.260 . S
O187 Eu171 2.480 . S
O188 Eu171 2.430 . S
O188 C178 1.259 . S
O189 Eu161 2.355 . S
O189 Eu171 2.670 . S
O189 C178 1.270 . S
O190 Eu171 2.394 . S
O190 C179 1.251 . S
O191 Eu161 2.374 . S
O191 C179 1.251 . S
H192 C163 0.931 . S
H193 C164 0.931 . S
H194 C166 0.931 . S
H195 C167 0.931 . S
H196 C173 0.931 . S
H197 C174 0.931 . S
H198 C176 0.931 . S
H199 C177 0.931 . S
C200 Eu201 2.835 1_565 S
C200 C202 1.500 . S
C200 O220 1.257 . S
C200 O221 1.260 . S
Eu201 C200 2.835 1_545 S
Eu201 O220 2.473 1_545 S
Eu201 O221 2.480 1_545 S
Eu201 O222 2.430 . S
Eu201 O223 2.670 . S
Eu201 O224 2.394 1_545 S
Eu201 O229 2.355 . S
Eu201 O231 2.374 . S
C202 C200 1.500 . S
C202 C203 1.377 . S
C202 C207 1.377 . S
C203 C202 1.377 . S
C203 C204 1.395 . S
C203 H232 0.931 . S
C204 C203 1.395 . S
C204 C205 1.383 . S
C204 H233 0.931 . S
C205 C204 1.383 . S
C205 C206 1.394 . S
C206 C205 1.394 . S
C206 C207 1.378 . S
C206 H234 0.931 . S
C207 C202 1.377 . S
C207 C206 1.378 . S
C207 H235 0.931 . S
C208 O222 1.259 . S
C208 O223 1.270 . S
C209 O224 1.251 1_545 S
C209 O225 1.251 . S
C210 Eu211 2.835 . S
C210 C212 1.500 . S
C210 O226 1.257 . S
C210 O227 1.260 . S
Eu211 C210 2.835 . S
Eu211 O223 2.355 . S
Eu211 O225 2.374 . S
Eu211 O226 2.473 . S
Eu211 O227 2.480 . S
Eu211 O228 2.430 . S
Eu211 O229 2.670 . S
Eu211 O230 2.394 . S
C212 C210 1.500 . S
C212 C213 1.377 . S
C212 C217 1.377 . S
C213 C212 1.377 . S
C213 C214 1.395 . S
C213 H236 0.931 . S
C214 C213 1.395 . S
C214 C215 1.383 . S
C214 H237 0.931 . S
C215 C214 1.383 . S
C215 C216 1.394 . S
C216 C215 1.394 . S
C216 C217 1.378 . S
C216 H238 0.931 . S
C217 C212 1.377 . S
C217 C216 1.378 . S
C217 H239 0.931 . S
C218 O228 1.259 . S
C218 O229 1.270 . S
C219 O230 1.251 . S
C219 O231 1.251 . S
O220 C200 1.257 . S
O220 Eu201 2.473 1_565 S
O221 C200 1.260 . S
O221 Eu201 2.480 1_565 S
O222 Eu201 2.430 . S
O222 C208 1.259 . S
O223 Eu201 2.670 . S
O223 C208 1.270 . S
O223 Eu211 2.355 . S
O224 Eu201 2.394 1_565 S
O224 C209 1.251 1_565 S
O225 C209 1.251 . S
O225 Eu211 2.374 . S
O226 C210 1.257 . S
O226 Eu211 2.473 . S
O227 C210 1.260 . S
O227 Eu211 2.480 . S
O228 Eu211 2.430 . S
O228 C218 1.259 . S
O229 Eu201 2.355 . S
O229 Eu211 2.670 . S
O229 C218 1.270 . S
O230 Eu211 2.394 . S
O230 C219 1.251 . S
O231 Eu201 2.374 . S
O231 C219 1.251 . S
H232 C203 0.931 . S
H233 C204 0.931 . S
H234 C206 0.931 . S
H235 C207 0.931 . S
H236 C213 0.931 . S
H237 C214 0.931 . S
H238 C216 0.931 . S
H239 C217 0.931 . S
C240 Eu241 2.835 . S
C240 C242 1.500 . S
C240 O260 1.257 . S
C240 O261 1.260 . S
Eu241 C240 2.835 . S
Eu241 O260 2.473 . S
Eu241 O261 2.480 . S
Eu241 O262 2.430 . S
Eu241 O263 2.670 . S
Eu241 O264 2.394 . S
Eu241 O269 2.355 . S
Eu241 O271 2.374 . S
C242 C240 1.500 . S
C242 C243 1.377 . S
C242 C247 1.377 . S
C243 C242 1.377 . S
C243 C244 1.395 . S
C243 H272 0.931 . S
C244 C243 1.395 . S
C244 C245 1.383 . S
C244 H273 0.931 . S
C245 C244 1.383 . S
C245 C246 1.394 . S
C246 C245 1.394 . S
C246 C247 1.378 . S
C246 H274 0.931 . S
C247 C242 1.377 . S
C247 C246 1.378 . S
C247 H275 0.931 . S
C248 O262 1.259 . S
C248 O263 1.270 . S
C249 O264 1.251 . S
C249 O265 1.251 . S
C250 Eu251 2.835 . S
C250 C252 1.500 . S
C250 O266 1.257 . S
C250 O267 1.260 . S
Eu251 C250 2.835 . S
Eu251 O263 2.355 . S
Eu251 O265 2.374 . S
Eu251 O266 2.473 . S
Eu251 O267 2.480 . S
Eu251 O268 2.430 . S
Eu251 O269 2.670 . S
Eu251 O270 2.394 . S
C252 C250 1.500 . S
C252 C253 1.377 . S
C252 C257 1.377 . S
C253 C252 1.377 . S
C253 C254 1.395 . S
C253 H276 0.931 . S
C254 C253 1.395 . S
C254 C255 1.383 . S
C254 H277 0.931 . S
C255 C254 1.383 . S
C255 C256 1.394 . S
C256 C255 1.394 . S
C256 C257 1.378 . S
C256 H278 0.931 . S
C257 C252 1.377 . S
C257 C256 1.378 . S
C257 H279 0.931 . S
C258 O268 1.259 . S
C258 O269 1.270 . S
C259 O270 1.251 . S
C259 O271 1.251 . S
O260 C240 1.257 . S
O260 Eu241 2.473 . S
O261 C240 1.260 . S
O261 Eu241 2.480 . S
O262 Eu241 2.430 . S
O262 C248 1.259 . S
O263 Eu241 2.670 . S
O263 C248 1.270 . S
O263 Eu251 2.355 . S
O264 Eu241 2.394 . S
O264 C249 1.251 . S
O265 C249 1.251 . S
O265 Eu251 2.374 . S
O266 C250 1.257 . S
O266 Eu251 2.473 . S
O267 C250 1.260 . S
O267 Eu251 2.480 . S
O268 Eu251 2.430 . S
O268 C258 1.259 . S
O269 Eu241 2.355 . S
O269 Eu251 2.670 . S
O269 C258 1.270 . S
O270 Eu251 2.394 . S
O270 C259 1.251 . S
O271 Eu241 2.374 . S
O271 C259 1.251 . S
H272 C243 0.931 . S
H273 C244 0.931 . S
H274 C246 0.931 . S
H275 C247 0.931 . S
H276 C253 0.931 . S
H277 C254 0.931 . S
H278 C256 0.931 . S
H279 C257 0.931 . S
C280 Eu281 2.835 . S
C280 C282 1.500 . S
C280 O300 1.257 . S
C280 O301 1.260 . S
Eu281 C280 2.835 . S
Eu281 O300 2.473 . S
Eu281 O301 2.480 . S
Eu281 O302 2.430 . S
Eu281 O303 2.670 . S
Eu281 O304 2.394 . S
Eu281 O309 2.355 . S
Eu281 O311 2.374 . S
C282 C280 1.500 . S
C282 C283 1.377 . S
C282 C287 1.377 . S
C283 C282 1.377 . S
C283 C284 1.395 . S
C283 H312 0.931 . S
C284 C283 1.395 . S
C284 C285 1.383 . S
C284 H313 0.931 . S
C285 C284 1.383 . S
C285 C286 1.394 . S
C286 C285 1.394 . S
C286 C287 1.378 . S
C286 H314 0.931 . S
C287 C282 1.377 . S
C287 C286 1.378 . S
C287 H315 0.931 . S
C288 O302 1.259 . S
C288 O303 1.270 . S
C289 O304 1.251 . S
C289 O305 1.251 . S
C290 Eu291 2.835 . S
C290 C292 1.500 . S
C290 O306 1.257 . S
C290 O307 1.260 . S
Eu291 C290 2.835 . S
Eu291 O303 2.355 . S
Eu291 O305 2.374 . S
Eu291 O306 2.473 . S
Eu291 O307 2.480 . S
Eu291 O308 2.430 . S
Eu291 O309 2.670 . S
Eu291 O310 2.394 . S
C292 C290 1.500 . S
C292 C293 1.377 . S
C292 C297 1.377 . S
C293 C292 1.377 . S
C293 C294 1.395 . S
C293 H316 0.931 . S
C294 C293 1.395 . S
C294 C295 1.383 . S
C294 H317 0.931 . S
C295 C294 1.383 . S
C295 C296 1.394 . S
C296 C295 1.394 . S
C296 C297 1.378 . S
C296 H318 0.931 . S
C297 C292 1.377 . S
C297 C296 1.378 . S
C297 H319 0.931 . S
C298 O308 1.259 . S
C298 O309 1.270 . S
C299 O310 1.251 . S
C299 O311 1.251 . S
O300 C280 1.257 . S
O300 Eu281 2.473 . S
O301 C280 1.260 . S
O301 Eu281 2.480 . S
O302 Eu281 2.430 . S
O302 C288 1.259 . S
O303 Eu281 2.670 . S
O303 C288 1.270 . S
O303 Eu291 2.355 . S
O304 Eu281 2.394 . S
O304 C289 1.251 . S
O305 C289 1.251 . S
O305 Eu291 2.374 . S
O306 C290 1.257 . S
O306 Eu291 2.473 . S
O307 C290 1.260 . S
O307 Eu291 2.480 . S
O308 Eu291 2.430 . S
O308 C298 1.259 . S
O309 Eu281 2.355 . S
O309 Eu291 2.670 . S
O309 C298 1.270 . S
O310 Eu291 2.394 . S
O310 C299 1.251 . S
O311 Eu281 2.374 . S
O311 C299 1.251 . S
H312 C283 0.931 . S
H313 C284 0.931 . S
H314 C286 0.931 . S
H315 C287 0.931 . S
H316 C293 0.931 . S
H317 C294 0.931 . S
H318 C296 0.931 . S
H319 C297 0.931 . S
C320 Eu321 2.835 . S
C320 C322 1.500 . S
C320 O340 1.257 . S
C320 O341 1.260 . S
Eu321 C320 2.835 . S
Eu321 O340 2.473 . S
Eu321 O341 2.480 . S
Eu321 O342 2.430 . S
Eu321 O343 2.670 . S
Eu321 O344 2.394 . S
Eu321 O349 2.355 . S
Eu321 O351 2.374 . S
C322 C320 1.500 . S
C322 C323 1.377 . S
C322 C327 1.377 . S
C323 C322 1.377 . S
C323 C324 1.395 . S
C323 H352 0.931 . S
C324 C323 1.395 . S
C324 C325 1.383 . S
C324 H353 0.931 . S
C325 C324 1.383 . S
C325 C326 1.394 . S
C326 C325 1.394 . S
C326 C327 1.378 . S
C326 H354 0.931 . S
C327 C322 1.377 . S
C327 C326 1.378 . S
C327 H355 0.931 . S
C328 O342 1.259 . S
C328 O343 1.270 . S
C329 O344 1.251 . S
C329 O345 1.251 . S
C330 Eu331 2.835 . S
C330 C332 1.500 . S
C330 O346 1.257 . S
C330 O347 1.260 . S
Eu331 C330 2.835 . S
Eu331 O343 2.355 . S
Eu331 O345 2.374 . S
Eu331 O346 2.473 . S
Eu331 O347 2.480 . S
Eu331 O348 2.430 . S
Eu331 O349 2.670 . S
Eu331 O350 2.394 . S
C332 C330 1.500 . S
C332 C333 1.377 . S
C332 C337 1.377 . S
C333 C332 1.377 . S
C333 C334 1.395 . S
C333 H356 0.931 . S
C334 C333 1.395 . S
C334 C335 1.383 . S
C334 H357 0.931 . S
C335 C334 1.383 . S
C335 C336 1.394 . S
C336 C335 1.394 . S
C336 C337 1.378 . S
C336 H358 0.931 . S
C337 C332 1.377 . S
C337 C336 1.378 . S
C337 H359 0.931 . S
C338 O348 1.259 . S
C338 O349 1.270 . S
C339 O350 1.251 . S
C339 O351 1.251 . S
O340 C320 1.257 . S
O340 Eu321 2.473 . S
O341 C320 1.260 . S
O341 Eu321 2.480 . S
O342 Eu321 2.430 . S
O342 C328 1.259 . S
O343 Eu321 2.670 . S
O343 C328 1.270 . S
O343 Eu331 2.355 . S
O344 Eu321 2.394 . S
O344 C329 1.251 . S
O345 C329 1.251 . S
O345 Eu331 2.374 . S
O346 C330 1.257 . S
O346 Eu331 2.473 . S
O347 C330 1.260 . S
O347 Eu331 2.480 . S
O348 Eu331 2.430 . S
O348 C338 1.259 . S
O349 Eu321 2.355 . S
O349 Eu331 2.670 . S
O349 C338 1.270 . S
O350 Eu331 2.394 . S
O350 C339 1.251 . S
O351 Eu321 2.374 . S
O351 C339 1.251 . S
H352 C323 0.931 . S
H353 C324 0.931 . S
H354 C326 0.931 . S
H355 C327 0.931 . S
H356 C333 0.931 . S
H357 C334 0.931 . S
H358 C336 0.931 . S
H359 C337 0.931 . S
C360 Eu361 2.835 . S
C360 C362 1.500 . S
C360 O380 1.257 . S
C360 O381 1.260 . S
Eu361 C360 2.835 . S
Eu361 O380 2.473 . S
Eu361 O381 2.480 . S
Eu361 O382 2.430 . S
Eu361 O383 2.670 . S
Eu361 O384 2.394 . S
Eu361 O389 2.355 . S
Eu361 O391 2.374 . S
C362 C360 1.500 . S
C362 C363 1.377 . S
C362 C367 1.377 . S
C363 C362 1.377 . S
C363 C364 1.395 . S
C363 H392 0.931 . S
C364 C363 1.395 . S
C364 C365 1.383 . S
C364 H393 0.931 . S
C365 C364 1.383 . S
C365 C366 1.394 . S
C366 C365 1.394 . S
C366 C367 1.378 . S
C366 H394 0.931 . S
C367 C362 1.377 . S
C367 C366 1.378 . S
C367 H395 0.931 . S
C368 O382 1.259 . S
C368 O383 1.270 . S
C369 O384 1.251 . S
C369 O385 1.251 . S
C370 Eu371 2.835 . S
C370 C372 1.500 . S
C370 O386 1.257 . S
C370 O387 1.260 . S
Eu371 C370 2.835 . S
Eu371 O383 2.355 . S
Eu371 O385 2.374 . S
Eu371 O386 2.473 . S
Eu371 O387 2.480 . S
Eu371 O388 2.430 . S
Eu371 O389 2.670 . S
Eu371 O390 2.394 . S
C372 C370 1.500 . S
C372 C373 1.377 . S
C372 C377 1.377 . S
C373 C372 1.377 . S
C373 C374 1.395 . S
C373 H396 0.931 . S
C374 C373 1.395 . S
C374 C375 1.383 . S
C374 H397 0.931 . S
C375 C374 1.383 . S
C375 C376 1.394 . S
C376 C375 1.394 . S
C376 C377 1.378 . S
C376 H398 0.931 . S
C377 C372 1.377 . S
C377 C376 1.378 . S
C377 H399 0.931 . S
C378 O388 1.259 . S
C378 O389 1.270 . S
C379 O390 1.251 . S
C379 O391 1.251 . S
O380 C360 1.257 . S
O380 Eu361 2.473 . S
O381 C360 1.260 . S
O381 Eu361 2.480 . S
O382 Eu361 2.430 . S
O382 C368 1.259 . S
O383 Eu361 2.670 . S
O383 C368 1.270 . S
O383 Eu371 2.355 . S
O384 Eu361 2.394 . S
O384 C369 1.251 . S
O385 C369 1.251 . S
O385 Eu371 2.374 . S
O386 C370 1.257 . S
O386 Eu371 2.473 . S
O387 C370 1.260 . S
O387 Eu371 2.480 . S
O388 Eu371 2.430 . S
O388 C378 1.259 . S
O389 Eu361 2.355 . S
O389 Eu371 2.670 . S
O389 C378 1.270 . S
O390 Eu371 2.394 . S
O390 C379 1.251 . S
O391 Eu361 2.374 . S
O391 C379 1.251 . S
H392 C363 0.931 . S
H393 C364 0.931 . S
H394 C366 0.931 . S
H395 C367 0.931 . S
H396 C373 0.931 . S
H397 C374 0.931 . S
H398 C376 0.931 . S
H399 C377 0.931 . S
C400 Eu401 2.835 . S
C400 C402 1.500 . S
C400 O420 1.257 . S
C400 O421 1.260 . S
Eu401 C400 2.835 . S
Eu401 O420 2.473 . S
Eu401 O421 2.480 . S
Eu401 O422 2.430 . S
Eu401 O423 2.670 . S
Eu401 O424 2.394 . S
Eu401 O429 2.355 . S
Eu401 O431 2.374 . S
C402 C400 1.500 . S
C402 C403 1.377 . S
C402 C407 1.377 . S
C403 C402 1.377 . S
C403 C404 1.395 . S
C403 H432 0.931 . S
C404 C403 1.395 . S
C404 C405 1.383 . S
C404 H433 0.931 . S
C405 C404 1.383 . S
C405 C406 1.394 . S
C406 C405 1.394 . S
C406 C407 1.378 . S
C406 H434 0.931 . S
C407 C402 1.377 . S
C407 C406 1.378 . S
C407 H435 0.931 . S
C408 O422 1.259 . S
C408 O423 1.270 . S
C409 O424 1.251 . S
C409 O425 1.251 . S
C410 Eu411 2.835 1_655 S
C410 C412 1.500 . S
C410 O426 1.257 . S
C410 O427 1.260 . S
Eu411 C410 2.835 1_455 S
Eu411 O423 2.355 . S
Eu411 O425 2.374 . S
Eu411 O426 2.473 1_455 S
Eu411 O427 2.480 1_455 S
Eu411 O428 2.430 . S
Eu411 O429 2.670 . S
Eu411 O430 2.394 1_455 S
C412 C410 1.500 . S
C412 C413 1.377 . S
C412 C417 1.377 . S
C413 C412 1.377 . S
C413 C414 1.395 . S
C413 H436 0.931 . S
C414 C413 1.395 . S
C414 C415 1.383 . S
C414 H437 0.931 . S
C415 C414 1.383 . S
C415 C416 1.394 . S
C416 C415 1.394 . S
C416 C417 1.378 . S
C416 H438 0.931 . S
C417 C412 1.377 . S
C417 C416 1.378 . S
C417 H439 0.931 . S
C418 O428 1.259 . S
C418 O429 1.270 . S
C419 O430 1.251 1_455 S
C419 O431 1.251 . S
O420 C400 1.257 . S
O420 Eu401 2.473 . S
O421 C400 1.260 . S
O421 Eu401 2.480 . S
O422 Eu401 2.430 . S
O422 C408 1.259 . S
O423 Eu401 2.670 . S
O423 C408 1.270 . S
O423 Eu411 2.355 . S
O424 Eu401 2.394 . S
O424 C409 1.251 . S
O425 C409 1.251 . S
O425 Eu411 2.374 . S
O426 C410 1.257 . S
O426 Eu411 2.473 1_655 S
O427 C410 1.260 . S
O427 Eu411 2.480 1_655 S
O428 Eu411 2.430 . S
O428 C418 1.259 . S
O429 Eu401 2.355 . S
O429 Eu411 2.670 . S
O429 C418 1.270 . S
O430 Eu411 2.394 1_655 S
O430 C419 1.251 1_655 S
O431 Eu401 2.374 . S
O431 C419 1.251 . S
H432 C403 0.931 . S
H433 C404 0.931 . S
H434 C406 0.931 . S
H435 C407 0.931 . S
H436 C413 0.931 . S
H437 C414 0.931 . S
H438 C416 0.931 . S
H439 C417 0.931 . S
C440 Eu441 2.835 . S
C440 C442 1.500 . S
C440 O460 1.257 . S
C440 O461 1.260 . S
Eu441 C440 2.835 . S
Eu441 O460 2.473 . S
Eu441 O461 2.480 . S
Eu441 O462 2.430 . S
Eu441 O463 2.670 . S
Eu441 O464 2.394 . S
Eu441 O469 2.355 . S
Eu441 O471 2.374 . S
C442 C440 1.500 . S
C442 C443 1.377 . S
C442 C447 1.377 . S
C443 C442 1.377 . S
C443 C444 1.395 . S
C443 H472 0.931 . S
C444 C443 1.395 . S
C444 C445 1.383 . S
C444 H473 0.931 . S
C445 C444 1.383 . S
C445 C446 1.394 . S
C446 C445 1.394 . S
C446 C447 1.378 . S
C446 H474 0.931 . S
C447 C442 1.377 . S
C447 C446 1.378 . S
C447 H475 0.931 . S
C448 O462 1.259 . S
C448 O463 1.270 . S
C449 O464 1.251 . S
C449 O465 1.251 . S
C450 Eu451 2.835 1_565 S
C450 C452 1.500 . S
C450 O466 1.257 . S
C450 O467 1.260 . S
Eu451 C450 2.835 1_545 S
Eu451 O463 2.355 . S
Eu451 O465 2.374 . S
Eu451 O466 2.473 1_545 S
Eu451 O467 2.480 1_545 S
Eu451 O468 2.430 . S
Eu451 O469 2.670 . S
Eu451 O470 2.394 1_545 S
C452 C450 1.500 . S
C452 C453 1.377 . S
C452 C457 1.377 . S
C453 C452 1.377 . S
C453 C454 1.395 . S
C453 H476 0.931 . S
C454 C453 1.395 . S
C454 C455 1.383 . S
C454 H477 0.931 . S
C455 C454 1.383 . S
C455 C456 1.394 . S
C456 C455 1.394 . S
C456 C457 1.378 . S
C456 H478 0.931 . S
C457 C452 1.377 . S
C457 C456 1.378 . S
C457 H479 0.931 . S
C458 O468 1.259 . S
C458 O469 1.270 . S
C459 O470 1.251 1_545 S
C459 O471 1.251 . S
O460 C440 1.257 . S
O460 Eu441 2.473 . S
O461 C440 1.260 . S
O461 Eu441 2.480 . S
O462 Eu441 2.430 . S
O462 C448 1.259 . S
O463 Eu441 2.670 . S
O463 C448 1.270 . S
O463 Eu451 2.355 . S
O464 Eu441 2.394 . S
O464 C449 1.251 . S
O465 C449 1.251 . S
O465 Eu451 2.374 . S
O466 C450 1.257 . S
O466 Eu451 2.473 1_565 S
O467 C450 1.260 . S
O467 Eu451 2.480 1_565 S
O468 Eu451 2.430 . S
O468 C458 1.259 . S
O469 Eu441 2.355 . S
O469 Eu451 2.670 . S
O469 C458 1.270 . S
O470 Eu451 2.394 1_565 S
O470 C459 1.251 1_565 S
O471 Eu441 2.374 . S
O471 C459 1.251 . S
H472 C443 0.931 . S
H473 C444 0.931 . S
H474 C446 0.931 . S
H475 C447 0.931 . S
H476 C453 0.931 . S
H477 C454 0.931 . S
H478 C456 0.931 . S
H479 C457 0.931 . S
C480 Eu481 2.835 . S
C480 C482 1.500 . S
C480 O500 1.257 . S
C480 O501 1.260 . S
Eu481 C480 2.835 . S
Eu481 O500 2.473 . S
Eu481 O501 2.480 . S
Eu481 O502 2.430 . S
Eu481 O503 2.670 . S
Eu481 O504 2.394 . S
Eu481 O509 2.355 . S
Eu481 O511 2.374 . S
C482 C480 1.500 . S
C482 C483 1.377 . S
C482 C487 1.377 . S
C483 C482 1.377 . S
C483 C484 1.395 . S
C483 H512 0.931 . S
C484 C483 1.395 . S
C484 C485 1.383 . S
C484 H513 0.931 . S
C485 C484 1.383 . S
C485 C486 1.394 . S
C486 C485 1.394 . S
C486 C487 1.378 . S
C486 H514 0.931 . S
C487 C482 1.377 . S
C487 C486 1.378 . S
C487 H515 0.931 . S
C488 O502 1.259 . S
C488 O503 1.270 . S
C489 O504 1.251 . S
C489 O505 1.251 . S
C490 Eu491 2.835 1_455 S
C490 C492 1.500 . S
C490 O506 1.257 . S
C490 O507 1.260 . S
Eu491 C490 2.835 1_655 S
Eu491 O503 2.355 . S
Eu491 O505 2.374 . S
Eu491 O506 2.473 1_655 S
Eu491 O507 2.480 1_655 S
Eu491 O508 2.430 . S
Eu491 O509 2.670 . S
Eu491 O510 2.394 1_655 S
C492 C490 1.500 . S
C492 C493 1.377 . S
C492 C497 1.377 . S
C493 C492 1.377 . S
C493 C494 1.395 . S
C493 H516 0.931 . S
C494 C493 1.395 . S
C494 C495 1.383 . S
C494 H517 0.931 . S
C495 C494 1.383 . S
C495 C496 1.394 . S
C496 C495 1.394 . S
C496 C497 1.378 . S
C496 H518 0.931 . S
C497 C492 1.377 . S
C497 C496 1.378 . S
C497 H519 0.931 . S
C498 O508 1.259 . S
C498 O509 1.270 . S
C499 O510 1.251 1_655 S
C499 O511 1.251 . S
O500 C480 1.257 . S
O500 Eu481 2.473 . S
O501 C480 1.260 . S
O501 Eu481 2.480 . S
O502 Eu481 2.430 . S
O502 C488 1.259 . S
O503 Eu481 2.670 . S
O503 C488 1.270 . S
O503 Eu491 2.355 . S
O504 Eu481 2.394 . S
O504 C489 1.251 . S
O505 C489 1.251 . S
O505 Eu491 2.374 . S
O506 C490 1.257 . S
O506 Eu491 2.473 1_455 S
O507 C490 1.260 . S
O507 Eu491 2.480 1_455 S
O508 Eu491 2.430 . S
O508 C498 1.259 . S
O509 Eu481 2.355 . S
O509 Eu491 2.670 . S
O509 C498 1.270 . S
O510 Eu491 2.394 1_455 S
O510 C499 1.251 1_455 S
O511 Eu481 2.374 . S
O511 C499 1.251 . S
H512 C483 0.931 . S
H513 C484 0.931 . S
H514 C486 0.931 . S
H515 C487 0.931 . S
H516 C493 0.931 . S
H517 C494 0.931 . S
H518 C496 0.931 . S
H519 C497 0.931 . S
C520 Eu521 2.835 . S
C520 C522 1.500 . S
C520 O540 1.257 . S
C520 O541 1.260 . S
Eu521 C520 2.835 . S
Eu521 O540 2.473 . S
Eu521 O541 2.480 . S
Eu521 O542 2.430 . S
Eu521 O543 2.670 . S
Eu521 O544 2.394 . S
Eu521 O549 2.355 . S
Eu521 O551 2.374 . S
C522 C520 1.500 . S
C522 C523 1.377 . S
C522 C527 1.377 . S
C523 C522 1.377 . S
C523 C524 1.395 . S
C523 H552 0.931 . S
C524 C523 1.395 . S
C524 C525 1.383 . S
C524 H553 0.931 . S
C525 C524 1.383 . S
C525 C526 1.394 . S
C526 C525 1.394 . S
C526 C527 1.378 . S
C526 H554 0.931 . S
C527 C522 1.377 . S
C527 C526 1.378 . S
C527 H555 0.931 . S
C528 O542 1.259 . S
C528 O543 1.270 . S
C529 O544 1.251 . S
C529 O545 1.251 . S
C530 Eu531 2.835 1_545 S
C530 C532 1.500 . S
C530 O546 1.257 . S
C530 O547 1.260 . S
Eu531 C530 2.835 1_565 S
Eu531 O543 2.355 . S
Eu531 O545 2.374 . S
Eu531 O546 2.473 1_565 S
Eu531 O547 2.480 1_565 S
Eu531 O548 2.430 . S
Eu531 O549 2.670 . S
Eu531 O550 2.394 1_565 S
C532 C530 1.500 . S
C532 C533 1.377 . S
C532 C537 1.377 . S
C533 C532 1.377 . S
C533 C534 1.395 . S
C533 H556 0.931 . S
C534 C533 1.395 . S
C534 C535 1.383 . S
C534 H557 0.931 . S
C535 C534 1.383 . S
C535 C536 1.394 . S
C536 C535 1.394 . S
C536 C537 1.378 . S
C536 H558 0.931 . S
C537 C532 1.377 . S
C537 C536 1.378 . S
C537 H559 0.931 . S
C538 O548 1.259 . S
C538 O549 1.270 . S
C539 O550 1.251 1_565 S
C539 O551 1.251 . S
O540 C520 1.257 . S
O540 Eu521 2.473 . S
O541 C520 1.260 . S
O541 Eu521 2.480 . S
O542 Eu521 2.430 . S
O542 C528 1.259 . S
O543 Eu521 2.670 . S
O543 C528 1.270 . S
O543 Eu531 2.355 . S
O544 Eu521 2.394 . S
O544 C529 1.251 . S
O545 C529 1.251 . S
O545 Eu531 2.374 . S
O546 C530 1.257 . S
O546 Eu531 2.473 1_545 S
O547 C530 1.260 . S
O547 Eu531 2.480 1_545 S
O548 Eu531 2.430 . S
O548 C538 1.259 . S
O549 Eu521 2.355 . S
O549 Eu531 2.670 . S
O549 C538 1.270 . S
O550 Eu531 2.394 1_545 S
O550 C539 1.251 1_545 S
O551 Eu521 2.374 . S
O551 C539 1.251 . S
H552 C523 0.931 . S
H553 C524 0.931 . S
H554 C526 0.931 . S
H555 C527 0.931 . S
H556 C533 0.931 . S
H557 C534 0.931 . S
H558 C536 0.931 . S
H559 C537 0.931 . S
C560 Eu561 2.835 . S
C560 C562 1.500 . S
C560 O580 1.257 . S
C560 O581 1.260 . S
Eu561 C560 2.835 . S
Eu561 O580 2.473 . S
Eu561 O581 2.480 . S
Eu561 O582 2.430 . S
Eu561 O583 2.670 . S
Eu561 O584 2.394 . S
Eu561 O589 2.355 . S
Eu561 O591 2.374 . S
C562 C560 1.500 . S
C562 C563 1.377 . S
C562 C567 1.377 . S
C563 C562 1.377 . S
C563 C564 1.395 . S
C563 H592 0.931 . S
C564 C563 1.395 . S
C564 C565 1.383 . S
C564 H593 0.931 . S
C565 C564 1.383 . S
C565 C566 1.394 . S
C566 C565 1.394 . S
C566 C567 1.378 . S
C566 H594 0.931 . S
C567 C562 1.377 . S
C567 C566 1.378 . S
C567 H595 0.931 . S
C568 O582 1.259 . S
C568 O583 1.270 . S
C569 O584 1.251 . S
C569 O585 1.251 . S
C570 Eu571 2.835 . S
C570 C572 1.500 . S
C570 O586 1.257 . S
C570 O587 1.260 . S
Eu571 C570 2.835 . S
Eu571 O583 2.355 . S
Eu571 O585 2.374 . S
Eu571 O586 2.473 . S
Eu571 O587 2.480 . S
Eu571 O588 2.430 . S
Eu571 O589 2.670 . S
Eu571 O590 2.394 . S
C572 C570 1.500 . S
C572 C573 1.377 . S
C572 C577 1.377 . S
C573 C572 1.377 . S
C573 C574 1.395 . S
C573 H596 0.931 . S
C574 C573 1.395 . S
C574 C575 1.383 . S
C574 H597 0.931 . S
C575 C574 1.383 . S
C575 C576 1.394 . S
C576 C575 1.394 . S
C576 C577 1.378 . S
C576 H598 0.931 . S
C577 C572 1.377 . S
C577 C576 1.378 . S
C577 H599 0.931 . S
C578 O588 1.259 . S
C578 O589 1.270 . S
C579 O590 1.251 . S
C579 O591 1.251 . S
O580 C560 1.257 . S
O580 Eu561 2.473 . S
O581 C560 1.260 . S
O581 Eu561 2.480 . S
O582 Eu561 2.430 . S
O582 C568 1.259 . S
O583 Eu561 2.670 . S
O583 C568 1.270 . S
O583 Eu571 2.355 . S
O584 Eu561 2.394 . S
O584 C569 1.251 . S
O585 C569 1.251 . S
O585 Eu571 2.374 . S
O586 C570 1.257 . S
O586 Eu571 2.473 . S
O587 C570 1.260 . S
O587 Eu571 2.480 . S
O588 Eu571 2.430 . S
O588 C578 1.259 . S
O589 Eu561 2.355 . S
O589 Eu571 2.670 . S
O589 C578 1.270 . S
O590 Eu571 2.394 . S
O590 C579 1.251 . S
O591 Eu561 2.374 . S
O591 C579 1.251 . S
H592 C563 0.931 . S
H593 C564 0.931 . S
H594 C566 0.931 . S
H595 C567 0.931 . S
H596 C573 0.931 . S
H597 C574 0.931 . S
H598 C576 0.931 . S
H599 C577 0.931 . S
C600 Eu601 2.835 . S
C600 C602 1.500 . S
C600 O620 1.257 . S
C600 O621 1.260 . S
Eu601 C600 2.835 . S
Eu601 O620 2.473 . S
Eu601 O621 2.480 . S
Eu601 O622 2.430 . S
Eu601 O623 2.670 . S
Eu601 O624 2.394 . S
Eu601 O629 2.355 . S
Eu601 O631 2.374 . S
C602 C600 1.500 . S
C602 C603 1.377 . S
C602 C607 1.377 . S
C603 C602 1.377 . S
C603 C604 1.395 . S
C603 H632 0.931 . S
C604 C603 1.395 . S
C604 C605 1.383 . S
C604 H633 0.931 . S
C605 C604 1.383 . S
C605 C606 1.394 . S
C606 C605 1.394 . S
C606 C607 1.378 . S
C606 H634 0.931 . S
C607 C602 1.377 . S
C607 C606 1.378 . S
C607 H635 0.931 . S
C608 O622 1.259 . S
C608 O623 1.270 . S
C609 O624 1.251 . S
C609 O625 1.251 . S
C610 Eu611 2.835 . S
C610 C612 1.500 . S
C610 O626 1.257 . S
C610 O627 1.260 . S
Eu611 C610 2.835 . S
Eu611 O623 2.355 . S
Eu611 O625 2.374 . S
Eu611 O626 2.473 . S
Eu611 O627 2.480 . S
Eu611 O628 2.430 . S
Eu611 O629 2.670 . S
Eu611 O630 2.394 . S
C612 C610 1.500 . S
C612 C613 1.377 . S
C612 C617 1.377 . S
C613 C612 1.377 . S
C613 C614 1.395 . S
C613 H636 0.931 . S
C614 C613 1.395 . S
C614 C615 1.383 . S
C614 H637 0.931 . S
C615 C614 1.383 . S
C615 C616 1.394 . S
C616 C615 1.394 . S
C616 C617 1.378 . S
C616 H638 0.931 . S
C617 C612 1.377 . S
C617 C616 1.378 . S
C617 H639 0.931 . S
C618 O628 1.259 . S
C618 O629 1.270 . S
C619 O630 1.251 . S
C619 O631 1.251 . S
O620 C600 1.257 . S
O620 Eu601 2.473 . S
O621 C600 1.260 . S
O621 Eu601 2.480 . S
O622 Eu601 2.430 . S
O622 C608 1.259 . S
O623 Eu601 2.670 . S
O623 C608 1.270 . S
O623 Eu611 2.355 . S
O624 Eu601 2.394 . S
O624 C609 1.251 . S
O625 C609 1.251 . S
O625 Eu611 2.374 . S
O626 C610 1.257 . S
O626 Eu611 2.473 . S
O627 C610 1.260 . S
O627 Eu611 2.480 . S
O628 Eu611 2.430 . S
O628 C618 1.259 . S
O629 Eu601 2.355 . S
O629 Eu611 2.670 . S
O629 C618 1.270 . S
O630 Eu611 2.394 . S
O630 C619 1.251 . S
O631 Eu601 2.374 . S
O631 C619 1.251 . S
H632 C603 0.931 . S
H633 C604 0.931 . S
H634 C606 0.931 . S
H635 C607 0.931 . S
H636 C613 0.931 . S
H637 C614 0.931 . S
H638 C616 0.931 . S
H639 C617 0.931 . S
H640 C648 0.950 . S
H641 C653 0.950 . S
H642 C650 0.950 . S
H643 C652 0.950 . S
H644 C654 0.950 . S
H645 C656 0.950 . S
H646 C658 0.950 . S
H647 C659 0.950 . S
C648 H640 0.950 . S
C648 C649 1.386 . S
C648 C650 1.391 . S
C649 C648 1.386 . S
C649 C653 1.393 . S
C650 H642 0.950 . S
C650 C648 1.391 . S
C650 C651 1.400 . S
C651 C650 1.400 . S
C651 C652 1.398 . S
C651 C657 1.491 . S
C652 H643 0.950 . S
C652 C651 1.398 . S
C652 C653 1.391 . S
C653 H641 0.950 . S
C653 C649 1.393 . S
C653 C652 1.391 . S
C654 H644 0.950 . S
C654 C655 1.386 . S
C654 C656 1.391 . S
C655 C654 1.386 . S
C655 C659 1.393 . S
C656 H645 0.950 . S
C656 C654 1.391 . S
C656 C657 1.400 . S
C657 C651 1.491 . S
C657 C656 1.400 . S
C657 C658 1.398 . S
C658 H646 0.950 . S
C658 C657 1.398 . S
C658 C659 1.391 . S
C659 H647 0.950 . S
C659 C655 1.393 . S
C659 C658 1.391 . S
H660 C668 0.950 . S
H661 C673 0.950 . S
H662 C670 0.950 . S
H663 C672 0.950 . S
H664 C674 0.950 . S
H665 C676 0.950 . S
H666 C678 0.950 . S
H667 C679 0.950 . S
C668 H660 0.950 . S
C668 C669 1.386 . S
C668 C670 1.391 . S
C669 C668 1.386 . S
C669 C673 1.393 . S
C670 H662 0.950 . S
C670 C668 1.391 . S
C670 C671 1.400 . S
C671 C670 1.400 . S
C671 C672 1.398 . S
C671 C677 1.491 . S
C672 H663 0.950 . S
C672 C671 1.398 . S
C672 C673 1.391 . S
C673 H661 0.950 . S
C673 C669 1.393 . S
C673 C672 1.391 . S
C674 H664 0.950 . S
C674 C675 1.386 . S
C674 C676 1.391 . S
C675 C674 1.386 . S
C675 C679 1.393 . S
C676 H665 0.950 . S
C676 C674 1.391 . S
C676 C677 1.400 . S
C677 C671 1.491 . S
C677 C676 1.400 . S
C677 C678 1.398 . S
C678 H666 0.950 . S
C678 C677 1.398 . S
C678 C679 1.391 . S
C679 H667 0.950 . S
C679 C675 1.393 . S
C679 C678 1.391 . S
H680 C688 0.950 . S
H681 C693 0.950 . S
H682 C690 0.950 . S
H683 C692 0.950 . S
H684 C694 0.950 . S
H685 C696 0.950 . S
H686 C698 0.950 . S
H687 C699 0.950 . S
C688 H680 0.950 . S
C688 C689 1.386 . S
C688 C690 1.391 . S
C689 C688 1.386 . S
C689 C693 1.393 . S
C690 H682 0.950 . S
C690 C688 1.391 . S
C690 C691 1.400 . S
C691 C690 1.400 . S
C691 C692 1.398 . S
C691 C697 1.491 . S
C692 H683 0.950 . S
C692 C691 1.398 . S
C692 C693 1.391 . S
C693 H681 0.950 . S
C693 C689 1.393 . S
C693 C692 1.391 . S
C694 H684 0.950 . S
C694 C695 1.386 . S
C694 C696 1.391 . S
C695 C694 1.386 . S
C695 C699 1.393 . S
C696 H685 0.950 . S
C696 C694 1.391 . S
C696 C697 1.400 . S
C697 C691 1.491 . S
C697 C696 1.400 . S
C697 C698 1.398 . S
C698 H686 0.950 . S
C698 C697 1.398 . S
C698 C699 1.391 . S
C699 H687 0.950 . S
C699 C695 1.393 . S
C699 C698 1.391 . S
H700 C708 0.950 . S
H701 C713 0.950 . S
H702 C710 0.950 . S
H703 C712 0.950 . S
H704 C714 0.950 . S
H705 C716 0.950 . S
H706 C718 0.950 . S
H707 C719 0.950 . S
C708 H700 0.950 . S
C708 C709 1.386 . S
C708 C710 1.391 . S
C709 C708 1.386 . S
C709 C713 1.393 . S
C710 H702 0.950 . S
C710 C708 1.391 . S
C710 C711 1.400 . S
C711 C710 1.400 . S
C711 C712 1.398 . S
C711 C717 1.491 . S
C712 H703 0.950 . S
C712 C711 1.398 . S
C712 C713 1.391 . S
C713 H701 0.950 . S
C713 C709 1.393 . S
C713 C712 1.391 . S
C714 H704 0.950 . S
C714 C715 1.386 . S
C714 C716 1.391 . S
C715 C714 1.386 . S
C715 C719 1.393 . S
C716 H705 0.950 . S
C716 C714 1.391 . S
C716 C717 1.400 . S
C717 C711 1.491 . S
C717 C716 1.400 . S
C717 C718 1.398 . S
C718 H706 0.950 . S
C718 C717 1.398 . S
C718 C719 1.391 . S
C719 H707 0.950 . S
C719 C715 1.393 . S
C719 C718 1.391 . S
H720 C728 0.950 . S
H721 C733 0.950 . S
H722 C730 0.950 . S
H723 C732 0.950 . S
H724 C734 0.950 . S
H725 C736 0.950 . S
H726 C738 0.950 . S
H727 C739 0.950 . S
C728 H720 0.950 . S
C728 C729 1.386 . S
C728 C730 1.391 . S
C729 C728 1.386 . S
C729 C733 1.393 . S
C730 H722 0.950 . S
C730 C728 1.391 . S
C730 C731 1.400 . S
C731 C730 1.400 . S
C731 C732 1.398 . S
C731 C737 1.491 . S
C732 H723 0.950 . S
C732 C731 1.398 . S
C732 C733 1.391 . S
C733 H721 0.950 . S
C733 C729 1.393 . S
C733 C732 1.391 . S
C734 H724 0.950 . S
C734 C735 1.386 . S
C734 C736 1.391 . S
C735 C734 1.386 . S
C735 C739 1.393 . S
C736 H725 0.950 . S
C736 C734 1.391 . S
C736 C737 1.400 . S
C737 C731 1.491 . S
C737 C736 1.400 . S
C737 C738 1.398 . S
C738 H726 0.950 . S
C738 C737 1.398 . S
C738 C739 1.391 . S
C739 H727 0.950 . S
C739 C735 1.393 . S
C739 C738 1.391 . S
H740 C748 0.950 . S
H741 C753 0.950 . S
H742 C750 0.950 . S
H743 C752 0.950 . S
H744 C754 0.950 . S
H745 C756 0.950 . S
H746 C758 0.950 . S
H747 C759 0.950 . S
C748 H740 0.950 . S
C748 C749 1.386 . S
C748 C750 1.391 . S
C749 C748 1.386 . S
C749 C753 1.393 . S
C750 H742 0.950 . S
C750 C748 1.391 . S
C750 C751 1.400 . S
C751 C750 1.400 . S
C751 C752 1.398 . S
C751 C757 1.491 . S
C752 H743 0.950 . S
C752 C751 1.398 . S
C752 C753 1.391 . S
C753 H741 0.950 . S
C753 C749 1.393 . S
C753 C752 1.391 . S
C754 H744 0.950 . S
C754 C755 1.386 . S
C754 C756 1.391 . S
C755 C754 1.386 . S
C755 C759 1.393 . S
C756 H745 0.950 . S
C756 C754 1.391 . S
C756 C757 1.400 . S
C757 C751 1.491 . S
C757 C756 1.400 . S
C757 C758 1.398 . S
C758 H746 0.950 . S
C758 C757 1.398 . S
C758 C759 1.391 . S
C759 H747 0.950 . S
C759 C755 1.393 . S
C759 C758 1.391 . S
H760 C768 0.950 . S
H761 C773 0.950 . S
H762 C770 0.950 . S
H763 C772 0.950 . S
H764 C774 0.950 . S
H765 C776 0.950 . S
H766 C778 0.950 . S
H767 C779 0.950 . S
C768 H760 0.950 . S
C768 C769 1.386 . S
C768 C770 1.391 . S
C769 C768 1.386 . S
C769 C773 1.393 . S
C770 H762 0.950 . S
C770 C768 1.391 . S
C770 C771 1.400 . S
C771 C770 1.400 . S
C771 C772 1.398 . S
C771 C777 1.491 . S
C772 H763 0.950 . S
C772 C771 1.398 . S
C772 C773 1.391 . S
C773 H761 0.950 . S
C773 C769 1.393 . S
C773 C772 1.391 . S
C774 H764 0.950 . S
C774 C775 1.386 . S
C774 C776 1.391 . S
C775 C774 1.386 . S
C775 C779 1.393 . S
C776 H765 0.950 . S
C776 C774 1.391 . S
C776 C777 1.400 . S
C777 C771 1.491 . S
C777 C776 1.400 . S
C777 C778 1.398 . S
C778 H766 0.950 . S
C778 C777 1.398 . S
C778 C779 1.391 . S
C779 H767 0.950 . S
C779 C775 1.393 . S
C779 C778 1.391 . S
H780 C788 0.950 . S
H781 C793 0.950 . S
H782 C790 0.950 . S
H783 C792 0.950 . S
H784 C794 0.950 . S
H785 C796 0.950 . S
H786 C798 0.950 . S
H787 C799 0.950 . S
C788 H780 0.950 . S
C788 C789 1.386 . S
C788 C790 1.391 . S
C789 C788 1.386 . S
C789 C793 1.393 . S
C790 H782 0.950 . S
C790 C788 1.391 . S
C790 C791 1.400 . S
C791 C790 1.400 . S
C791 C792 1.398 . S
C791 C797 1.491 . S
C792 H783 0.950 . S
C792 C791 1.398 . S
C792 C793 1.391 . S
C793 H781 0.950 . S
C793 C789 1.393 . S
C793 C792 1.391 . S
C794 H784 0.950 . S
C794 C795 1.386 . S
C794 C796 1.391 . S
C795 C794 1.386 . S
C795 C799 1.393 . S
C796 H785 0.950 . S
C796 C794 1.391 . S
C796 C797 1.400 . S
C797 C791 1.491 . S
C797 C796 1.400 . S
C797 C798 1.398 . S
C798 H786 0.950 . S
C798 C797 1.398 . S
C798 C799 1.391 . S
C799 H787 0.950 . S
C799 C795 1.393 . S
C799 C798 1.391 . S
H800 C808 0.950 . S
H801 C813 0.950 . S
H802 C810 0.950 . S
H803 C812 0.950 . S
H804 C814 0.950 . S
H805 C816 0.950 . S
H806 C818 0.950 . S
H807 C819 0.950 . S
C808 H800 0.950 . S
C808 C809 1.386 . S
C808 C810 1.391 . S
C809 C808 1.386 . S
C809 C813 1.393 . S
C810 H802 0.950 . S
C810 C808 1.391 . S
C810 C811 1.400 . S
C811 C810 1.400 . S
C811 C812 1.398 . S
C811 C817 1.491 . S
C812 H803 0.950 . S
C812 C811 1.398 . S
C812 C813 1.391 . S
C813 H801 0.950 . S
C813 C809 1.393 . S
C813 C812 1.391 . S
C814 H804 0.950 . S
C814 C815 1.386 . S
C814 C816 1.391 . S
C815 C814 1.386 . S
C815 C819 1.393 . S
C816 H805 0.950 . S
C816 C814 1.391 . S
C816 C817 1.400 . S
C817 C811 1.491 . S
C817 C816 1.400 . S
C817 C818 1.398 . S
C818 H806 0.950 . S
C818 C817 1.398 . S
C818 C819 1.391 . S
C819 H807 0.950 . S
C819 C815 1.393 . S
C819 C818 1.391 . S
H820 C828 0.950 . S
H821 C833 0.950 . S
H822 C830 0.950 . S
H823 C832 0.950 . S
H824 C834 0.950 . S
H825 C836 0.950 . S
H826 C838 0.950 . S
H827 C839 0.950 . S
C828 H820 0.950 . S
C828 C829 1.386 . S
C828 C830 1.391 . S
C829 C828 1.386 . S
C829 C833 1.393 . S
C830 H822 0.950 . S
C830 C828 1.391 . S
C830 C831 1.400 . S
C831 C830 1.400 . S
C831 C832 1.398 . S
C831 C837 1.491 . S
C832 H823 0.950 . S
C832 C831 1.398 . S
C832 C833 1.391 . S
C833 H821 0.950 . S
C833 C829 1.393 . S
C833 C832 1.391 . S
C834 H824 0.950 . S
C834 C835 1.386 . S
C834 C836 1.391 . S
C835 C834 1.386 . S
C835 C839 1.393 . S
C836 H825 0.950 . S
C836 C834 1.391 . S
C836 C837 1.400 . S
C837 C831 1.491 . S
C837 C836 1.400 . S
C837 C838 1.398 . S
C838 H826 0.950 . S
C838 C837 1.398 . S
C838 C839 1.391 . S
C839 H827 0.950 . S
C839 C835 1.393 . S
C839 C838 1.391 . S
H840 C848 0.950 . S
H841 C853 0.950 . S
H842 C850 0.950 . S
H843 C852 0.950 . S
H844 C854 0.950 . S
H845 C856 0.950 . S
H846 C858 0.950 . S
H847 C859 0.950 . S
C848 H840 0.950 . S
C848 C849 1.386 . S
C848 C850 1.391 . S
C849 C848 1.386 . S
C849 C853 1.393 . S
C850 H842 0.950 . S
C850 C848 1.391 . S
C850 C851 1.400 . S
C851 C850 1.400 . S
C851 C852 1.398 . S
C851 C857 1.491 . S
C852 H843 0.950 . S
C852 C851 1.398 . S
C852 C853 1.391 . S
C853 H841 0.950 . S
C853 C849 1.393 . S
C853 C852 1.391 . S
C854 H844 0.950 . S
C854 C855 1.386 . S
C854 C856 1.391 . S
C855 C854 1.386 . S
C855 C859 1.393 . S
C856 H845 0.950 . S
C856 C854 1.391 . S
C856 C857 1.400 . S
C857 C851 1.491 . S
C857 C856 1.400 . S
C857 C858 1.398 . S
C858 H846 0.950 . S
C858 C857 1.398 . S
C858 C859 1.391 . S
C859 H847 0.950 . S
C859 C855 1.393 . S
C859 C858 1.391 . S
H860 C868 0.950 . S
H861 C873 0.950 . S
H862 C870 0.950 . S
H863 C872 0.950 . S
H864 C874 0.950 . S
H865 C876 0.950 . S
H866 C878 0.950 . S
H867 C879 0.950 . S
C868 H860 0.950 . S
C868 C869 1.386 . S
C868 C870 1.391 . S
C869 C868 1.386 . S
C869 C873 1.393 . S
C870 H862 0.950 . S
C870 C868 1.391 . S
C870 C871 1.400 . S
C871 C870 1.400 . S
C871 C872 1.398 . S
C871 C877 1.491 . S
C872 H863 0.950 . S
C872 C871 1.398 . S
C872 C873 1.391 . S
C873 H861 0.950 . S
C873 C869 1.393 . S
C873 C872 1.391 . S
C874 H864 0.950 . S
C874 C875 1.386 . S
C874 C876 1.391 . S
C875 C874 1.386 . S
C875 C879 1.393 . S
C876 H865 0.950 . S
C876 C874 1.391 . S
C876 C877 1.400 . S
C877 C871 1.491 . S
C877 C876 1.400 . S
C877 C878 1.398 . S
C878 H866 0.950 . S
C878 C877 1.398 . S
C878 C879 1.391 . S
C879 H867 0.950 . S
C879 C875 1.393 . S
C879 C878 1.391 . S
H880 C888 0.950 . S
H881 C893 0.950 . S
H882 C890 0.950 . S
H883 C892 0.950 . S
H884 C894 0.950 . S
H885 C896 0.950 . S
H886 C898 0.950 . S
H887 C899 0.950 1_545 S
C888 H880 0.950 . S
C888 C889 1.386 . S
C888 C890 1.391 . S
C889 C888 1.386 . S
C889 C893 1.393 . S
C890 H882 0.950 . S
C890 C888 1.391 . S
C890 C891 1.400 . S
C891 C890 1.400 . S
C891 C892 1.398 . S
C891 C897 1.491 . S
C892 H883 0.950 . S
C892 C891 1.398 . S
C892 C893 1.391 . S
C893 H881 0.950 . S
C893 C889 1.393 . S
C893 C892 1.391 . S
C894 H884 0.950 . S
C894 C895 1.386 . S
C894 C896 1.391 . S
C895 C894 1.386 . S
C895 C899 1.393 . S
C896 H885 0.950 . S
C896 C894 1.391 . S
C896 C897 1.400 . S
C897 C891 1.491 . S
C897 C896 1.400 . S
C897 C898 1.398 . S
C898 H886 0.950 . S
C898 C897 1.398 . S
C898 C899 1.391 . S
C899 H887 0.950 1_565 S
C899 C895 1.393 . S
C899 C898 1.391 . S
H900 C908 0.950 . S
H901 C913 0.950 . S
H902 C910 0.950 . S
H903 C912 0.950 . S
H904 C914 0.950 . S
H905 C916 0.950 . S
H906 C918 0.950 . S
H907 C919 0.950 . S
C908 H900 0.950 . S
C908 C909 1.386 . S
C908 C910 1.391 . S
C909 C908 1.386 . S
C909 C913 1.393 . S
C910 H902 0.950 . S
C910 C908 1.391 . S
C910 C911 1.400 . S
C911 C910 1.400 . S
C911 C912 1.398 . S
C911 C917 1.491 . S
C912 H903 0.950 . S
C912 C911 1.398 . S
C912 C913 1.391 . S
C913 H901 0.950 . S
C913 C909 1.393 . S
C913 C912 1.391 . S
C914 H904 0.950 . S
C914 C915 1.386 . S
C914 C916 1.391 . S
C915 C914 1.386 . S
C915 C919 1.393 . S
C916 H905 0.950 . S
C916 C914 1.391 . S
C916 C917 1.400 . S
C917 C911 1.491 . S
C917 C916 1.400 . S
C917 C918 1.398 . S
C918 H906 0.950 . S
C918 C917 1.398 . S
C918 C919 1.391 . S
C919 H907 0.950 . S
C919 C915 1.393 . S
C919 C918 1.391 . S
H920 C928 0.950 . S
H921 C933 0.950 . S
H922 C930 0.950 . S
H923 C932 0.950 . S
H924 C934 0.950 . S
H925 C936 0.950 . S
H926 C938 0.950 . S
H927 C939 0.950 . S
C928 H920 0.950 . S
C928 C929 1.386 . S
C928 C930 1.391 . S
C929 C928 1.386 . S
C929 C933 1.393 . S
C930 H922 0.950 . S
C930 C928 1.391 . S
C930 C931 1.400 . S
C931 C930 1.400 . S
C931 C932 1.398 . S
C931 C937 1.491 . S
C932 H923 0.950 . S
C932 C931 1.398 . S
C932 C933 1.391 . S
C933 H921 0.950 . S
C933 C929 1.393 . S
C933 C932 1.391 . S
C934 H924 0.950 . S
C934 C935 1.386 . S
C934 C936 1.391 . S
C935 C934 1.386 . S
C935 C939 1.393 . S
C936 H925 0.950 . S
C936 C934 1.391 . S
C936 C937 1.400 . S
C937 C931 1.491 . S
C937 C936 1.400 . S
C937 C938 1.398 . S
C938 H926 0.950 . S
C938 C937 1.398 . S
C938 C939 1.391 . S
C939 H927 0.950 . S
C939 C935 1.393 . S
C939 C938 1.391 . S
H940 C948 0.950 . S
H941 C953 0.950 . S
H942 C950 0.950 . S
H943 C952 0.950 . S
H944 C954 0.950 . S
H945 C956 0.950 . S
H946 C958 0.950 . S
H947 C959 0.950 . S
C948 H940 0.950 . S
C948 C949 1.386 . S
C948 C950 1.391 . S
C949 C948 1.386 . S
C949 C953 1.393 . S
C950 H942 0.950 . S
C950 C948 1.391 . S
C950 C951 1.400 . S
C951 C950 1.400 . S
C951 C952 1.398 . S
C951 C957 1.491 . S
C952 H943 0.950 . S
C952 C951 1.398 . S
C952 C953 1.391 . S
C953 H941 0.950 . S
C953 C949 1.393 . S
C953 C952 1.391 . S
C954 H944 0.950 . S
C954 C955 1.386 . S
C954 C956 1.391 . S
C955 C954 1.386 . S
C955 C959 1.393 . S
C956 H945 0.950 . S
C956 C954 1.391 . S
C956 C957 1.400 . S
C957 C951 1.491 . S
C957 C956 1.400 . S
C957 C958 1.398 . S
C958 H946 0.950 . S
C958 C957 1.398 . S
C958 C959 1.391 . S
C959 H947 0.950 . S
C959 C955 1.393 . S
C959 C958 1.391 . S
H960 C968 0.950 . S
H961 C973 0.950 1_545 S
H962 C970 0.950 . S
H963 C972 0.950 . S
H964 C974 0.950 . S
H965 C976 0.950 . S
H966 C978 0.950 . S
H967 C979 0.950 . S
C968 H960 0.950 . S
C968 C969 1.386 . S
C968 C970 1.391 . S
C969 C968 1.386 . S
C969 C973 1.393 . S
C970 H962 0.950 . S
C970 C968 1.391 . S
C970 C971 1.400 . S
C971 C970 1.400 . S
C971 C972 1.398 . S
C971 C977 1.491 . S
C972 H963 0.950 . S
C972 C971 1.398 . S
C972 C973 1.391 . S
C973 H961 0.950 1_565 S
C973 C969 1.393 . S
C973 C972 1.391 . S
C974 H964 0.950 . S
C974 C975 1.386 . S
C974 C976 1.391 . S
C975 C974 1.386 . S
C975 C979 1.393 . S
C976 H965 0.950 . S
C976 C974 1.391 . S
C976 C977 1.400 . S
C977 C971 1.491 . S
C977 C976 1.400 . S
C977 C978 1.398 . S
C978 H966 0.950 . S
C978 C977 1.398 . S
C978 C979 1.391 . S
C979 H967 0.950 . S
C979 C975 1.393 . S
C979 C978 1.391 . S
H980 C988 0.950 . S
H981 C993 0.950 . S
H982 C990 0.950 . S
H983 C992 0.950 . S
H984 C994 0.950 . S
H985 C996 0.950 . S
H986 C998 0.950 . S
H987 C999 0.950 . S
C988 H980 0.950 . S
C988 C989 1.386 . S
C988 C990 1.391 . S
C989 C988 1.386 . S
C989 C993 1.393 . S
C990 H982 0.950 . S
C990 C988 1.391 . S
C990 C991 1.400 . S
C991 C990 1.400 . S
C991 C992 1.398 . S
C991 C997 1.491 . S
C992 H983 0.950 . S
C992 C991 1.398 . S
C992 C993 1.391 . S
C993 H981 0.950 . S
C993 C989 1.393 . S
C993 C992 1.391 . S
C994 H984 0.950 . S
C994 C995 1.386 . S
C994 C996 1.391 . S
C995 C994 1.386 . S
C995 C999 1.393 . S
C996 H985 0.950 . S
C996 C994 1.391 . S
C996 C997 1.400 . S
C997 C991 1.491 . S
C997 C996 1.400 . S
C997 C998 1.398 . S
C998 H986 0.950 . S
C998 C997 1.398 . S
C998 C999 1.391 . S
C999 H987 0.950 . S
C999 C995 1.393 . S
C999 C998 1.391 . S
H1000 C1008 0.950 . S
H1001 C1013 0.950 . S
H1002 C1010 0.950 . S
H1003 C1012 0.950 . S
H1004 C1014 0.950 . S
H1005 C1016 0.950 . S
H1006 C1018 0.950 . S
H1007 C1019 0.950 . S
C1008 H1000 0.950 . S
C1008 C1009 1.386 . S
C1008 C1010 1.391 . S
C1009 C1008 1.386 . S
C1009 C1013 1.393 . S
C1010 H1002 0.950 . S
C1010 C1008 1.391 . S
C1010 C1011 1.400 . S
C1011 C1010 1.400 . S
C1011 C1012 1.398 . S
C1011 C1017 1.491 . S
C1012 H1003 0.950 . S
C1012 C1011 1.398 . S
C1012 C1013 1.391 . S
C1013 H1001 0.950 . S
C1013 C1009 1.393 . S
C1013 C1012 1.391 . S
C1014 H1004 0.950 . S
C1014 C1015 1.386 . S
C1014 C1016 1.391 . S
C1015 C1014 1.386 . S
C1015 C1019 1.393 . S
C1016 H1005 0.950 . S
C1016 C1014 1.391 . S
C1016 C1017 1.400 . S
C1017 C1011 1.491 . S
C1017 C1016 1.400 . S
C1017 C1018 1.398 . S
C1018 H1006 0.950 . S
C1018 C1017 1.398 . S
C1018 C1019 1.391 . S
C1019 H1007 0.950 . S
C1019 C1015 1.393 . S
C1019 C1018 1.391 . S
H1020 C1028 0.950 . S
H1021 C1033 0.950 . S
H1022 C1030 0.950 . S
H1023 C1032 0.950 . S
H1024 C1034 0.950 . S
H1025 C1036 0.950 . S
H1026 C1038 0.950 . S
H1027 C1039 0.950 . S
C1028 H1020 0.950 . S
C1028 C1029 1.386 . S
C1028 C1030 1.391 . S
C1029 C1028 1.386 . S
C1029 C1033 1.393 . S
C1030 H1022 0.950 . S
C1030 C1028 1.391 . S
C1030 C1031 1.400 . S
C1031 C1030 1.400 . S
C1031 C1032 1.398 . S
C1031 C1037 1.491 . S
C1032 H1023 0.950 . S
C1032 C1031 1.398 . S
C1032 C1033 1.391 . S
C1033 H1021 0.950 . S
C1033 C1029 1.393 . S
C1033 C1032 1.391 . S
C1034 H1024 0.950 . S
C1034 C1035 1.386 . S
C1034 C1036 1.391 . S
C1035 C1034 1.386 . S
C1035 C1039 1.393 . S
C1036 H1025 0.950 . S
C1036 C1034 1.391 . S
C1036 C1037 1.400 . S
C1037 C1031 1.491 . S
C1037 C1036 1.400 . S
C1037 C1038 1.398 . S
C1038 H1026 0.950 . S
C1038 C1037 1.398 . S
C1038 C1039 1.391 . S
C1039 H1027 0.950 . S
C1039 C1035 1.393 . S
C1039 C1038 1.391 . S
H1040 C1048 0.950 . S
H1041 C1053 0.950 . S
H1042 C1050 0.950 . S
H1043 C1052 0.950 . S
H1044 C1054 0.950 . S
H1045 C1056 0.950 . S
H1046 C1058 0.950 . S
H1047 C1059 0.950 . S
C1048 H1040 0.950 . S
C1048 C1049 1.386 . S
C1048 C1050 1.391 . S
C1049 C1048 1.386 . S
C1049 C1053 1.393 . S
C1050 H1042 0.950 . S
C1050 C1048 1.391 . S
C1050 C1051 1.400 . S
C1051 C1050 1.400 . S
C1051 C1052 1.398 . S
C1051 C1057 1.491 . S
C1052 H1043 0.950 . S
C1052 C1051 1.398 . S
C1052 C1053 1.391 . S
C1053 H1041 0.950 . S
C1053 C1049 1.393 . S
C1053 C1052 1.391 . S
C1054 H1044 0.950 . S
C1054 C1055 1.386 . S
C1054 C1056 1.391 . S
C1055 C1054 1.386 . S
C1055 C1059 1.393 . S
C1056 H1045 0.950 . S
C1056 C1054 1.391 . S
C1056 C1057 1.400 . S
C1057 C1051 1.491 . S
C1057 C1056 1.400 . S
C1057 C1058 1.398 . S
C1058 H1046 0.950 . S
C1058 C1057 1.398 . S
C1058 C1059 1.391 . S
C1059 H1047 0.950 . S
C1059 C1055 1.393 . S
C1059 C1058 1.391 . S
H1060 C1068 0.950 . S
H1061 C1073 0.950 . S
H1062 C1070 0.950 . S
H1063 C1072 0.950 . S
H1064 C1074 0.950 . S
H1065 C1076 0.950 . S
H1066 C1078 0.950 . S
H1067 C1079 0.950 . S
C1068 H1060 0.950 . S
C1068 C1069 1.386 . S
C1068 C1070 1.391 . S
C1069 C1068 1.386 . S
C1069 C1073 1.393 . S
C1070 H1062 0.950 . S
C1070 C1068 1.391 . S
C1070 C1071 1.400 . S
C1071 C1070 1.400 . S
C1071 C1072 1.398 . S
C1071 C1077 1.491 . S
C1072 H1063 0.950 . S
C1072 C1071 1.398 . S
C1072 C1073 1.391 . S
C1073 H1061 0.950 . S
C1073 C1069 1.393 . S
C1073 C1072 1.391 . S
C1074 H1064 0.950 . S
C1074 C1075 1.386 . S
C1074 C1076 1.391 . S
C1075 C1074 1.386 . S
C1075 C1079 1.393 . S
C1076 H1065 0.950 . S
C1076 C1074 1.391 . S
C1076 C1077 1.400 . S
C1077 C1071 1.491 . S
C1077 C1076 1.400 . S
C1077 C1078 1.398 . S
C1078 H1066 0.950 . S
C1078 C1077 1.398 . S
C1078 C1079 1.391 . S
C1079 H1067 0.950 . S
C1079 C1075 1.393 . S
C1079 C1078 1.391 . S
H1080 C1088 0.950 . S
H1081 C1093 0.950 . S
H1082 C1090 0.950 . S
H1083 C1092 0.950 . S
H1084 C1094 0.950 . S
H1085 C1096 0.950 . S
H1086 C1098 0.950 . S
H1087 C1099 0.950 . S
C1088 H1080 0.950 . S
C1088 C1089 1.386 . S
C1088 C1090 1.391 . S
C1089 C1088 1.386 . S
C1089 C1093 1.393 . S
C1090 H1082 0.950 . S
C1090 C1088 1.391 . S
C1090 C1091 1.400 . S
C1091 C1090 1.400 . S
C1091 C1092 1.398 . S
C1091 C1097 1.491 . S
C1092 H1083 0.950 . S
C1092 C1091 1.398 . S
C1092 C1093 1.391 . S
C1093 H1081 0.950 . S
C1093 C1089 1.393 . S
C1093 C1092 1.391 . S
C1094 H1084 0.950 . S
C1094 C1095 1.386 . S
C1094 C1096 1.391 . S
C1095 C1094 1.386 . S
C1095 C1099 1.393 . S
C1096 H1085 0.950 . S
C1096 C1094 1.391 . S
C1096 C1097 1.400 . S
C1097 C1091 1.491 . S
C1097 C1096 1.400 . S
C1097 C1098 1.398 . S
C1098 H1086 0.950 . S
C1098 C1097 1.398 . S
C1098 C1099 1.391 . S
C1099 H1087 0.950 . S
C1099 C1095 1.393 . S
C1099 C1098 1.391 . S
H1100 C1108 0.950 . S
H1101 C1113 0.950 . S
H1102 C1110 0.950 . S
H1103 C1112 0.950 . S
H1104 C1114 0.950 1_655 S
H1105 C1116 0.950 . S
H1106 C1118 0.950 . S
H1107 C1119 0.950 . S
C1108 H1100 0.950 . S
C1108 C1109 1.386 . S
C1108 C1110 1.391 . S
C1109 C1108 1.386 . S
C1109 C1113 1.393 . S
C1110 H1102 0.950 . S
C1110 C1108 1.391 . S
C1110 C1111 1.400 . S
C1111 C1110 1.400 . S
C1111 C1112 1.398 . S
C1111 C1117 1.491 . S
C1112 H1103 0.950 . S
C1112 C1111 1.398 . S
C1112 C1113 1.391 . S
C1113 H1101 0.950 . S
C1113 C1109 1.393 . S
C1113 C1112 1.391 . S
C1114 H1104 0.950 1_455 S
C1114 C1115 1.386 . S
C1114 C1116 1.391 . S
C1115 C1114 1.386 . S
C1115 C1119 1.393 . S
C1116 H1105 0.950 . S
C1116 C1114 1.391 . S
C1116 C1117 1.400 . S
C1117 C1111 1.491 . S
C1117 C1116 1.400 . S
C1117 C1118 1.398 . S
C1118 H1106 0.950 . S
C1118 C1117 1.398 . S
C1118 C1119 1.391 . S
C1119 H1107 0.950 . S
C1119 C1115 1.393 . S
C1119 C1118 1.391 . S
H1120 C1128 0.950 . S
H1121 C1133 0.950 . S
H1122 C1130 0.950 . S
H1123 C1132 0.950 . S
H1124 C1134 0.950 . S
H1125 C1136 0.950 . S
H1126 C1138 0.950 . S
H1127 C1139 0.950 . S
C1128 H1120 0.950 . S
C1128 C1129 1.386 . S
C1128 C1130 1.391 . S
C1129 C1128 1.386 . S
C1129 C1133 1.393 . S
C1130 H1122 0.950 . S
C1130 C1128 1.391 . S
C1130 C1131 1.400 . S
C1131 C1130 1.400 . S
C1131 C1132 1.398 . S
C1131 C1137 1.491 . S
C1132 H1123 0.950 . S
C1132 C1131 1.398 . S
C1132 C1133 1.391 . S
C1133 H1121 0.950 . S
C1133 C1129 1.393 . S
C1133 C1132 1.391 . S
C1134 H1124 0.950 . S
C1134 C1135 1.386 . S
C1134 C1136 1.391 . S
C1135 C1134 1.386 . S
C1135 C1139 1.393 . S
C1136 H1125 0.950 . S
C1136 C1134 1.391 . S
C1136 C1137 1.400 . S
C1137 C1131 1.491 . S
C1137 C1136 1.400 . S
C1137 C1138 1.398 . S
C1138 H1126 0.950 . S
C1138 C1137 1.398 . S
C1138 C1139 1.391 . S
C1139 H1127 0.950 . S
C1139 C1135 1.393 . S
C1139 C1138 1.391 . S
H1140 C1148 0.950 . S
H1141 C1153 0.950 . S
H1142 C1150 0.950 . S
H1143 C1152 0.950 . S
H1144 C1154 0.950 . S
H1145 C1156 0.950 . S
H1146 C1158 0.950 . S
H1147 C1159 0.950 . S
C1148 H1140 0.950 . S
C1148 C1149 1.386 . S
C1148 C1150 1.391 . S
C1149 C1148 1.386 . S
C1149 C1153 1.393 . S
C1150 H1142 0.950 . S
C1150 C1148 1.391 . S
C1150 C1151 1.400 . S
C1151 C1150 1.400 . S
C1151 C1152 1.398 . S
C1151 C1157 1.491 . S
C1152 H1143 0.950 . S
C1152 C1151 1.398 . S
C1152 C1153 1.391 . S
C1153 H1141 0.950 . S
C1153 C1149 1.393 . S
C1153 C1152 1.391 . S
C1154 H1144 0.950 . S
C1154 C1155 1.386 . S
C1154 C1156 1.391 . S
C1155 C1154 1.386 . S
C1155 C1159 1.393 . S
C1156 H1145 0.950 . S
C1156 C1154 1.391 . S
C1156 C1157 1.400 . S
C1157 C1151 1.491 . S
C1157 C1156 1.400 . S
C1157 C1158 1.398 . S
C1158 H1146 0.950 . S
C1158 C1157 1.398 . S
C1158 C1159 1.391 . S
C1159 H1147 0.950 . S
C1159 C1155 1.393 . S
C1159 C1158 1.391 . S
H1160 C1168 0.950 . S
H1161 C1173 0.950 . S
H1162 C1170 0.950 . S
H1163 C1172 0.950 . S
H1164 C1174 0.950 . S
H1165 C1176 0.950 . S
H1166 C1178 0.950 . S
H1167 C1179 0.950 . S
C1168 H1160 0.950 . S
C1168 C1169 1.386 . S
C1168 C1170 1.391 . S
C1169 C1168 1.386 . S
C1169 C1173 1.393 . S
C1170 H1162 0.950 . S
C1170 C1168 1.391 . S
C1170 C1171 1.400 . S
C1171 C1170 1.400 . S
C1171 C1172 1.398 . S
C1171 C1177 1.491 . S
C1172 H1163 0.950 . S
C1172 C1171 1.398 . S
C1172 C1173 1.391 . S
C1173 H1161 0.950 . S
C1173 C1169 1.393 . S
C1173 C1172 1.391 . S
C1174 H1164 0.950 . S
C1174 C1175 1.386 . S
C1174 C1176 1.391 . S
C1175 C1174 1.386 . S
C1175 C1179 1.393 . S
C1176 H1165 0.950 . S
C1176 C1174 1.391 . S
C1176 C1177 1.400 . S
C1177 C1171 1.491 . S
C1177 C1176 1.400 . S
C1177 C1178 1.398 . S
C1178 H1166 0.950 . S
C1178 C1177 1.398 . S
C1178 C1179 1.391 . S
C1179 H1167 0.950 . S
C1179 C1175 1.393 . S
C1179 C1178 1.391 . S
H1180 C1188 0.950 . S
H1181 C1193 0.950 . S
H1182 C1190 0.950 . S
H1183 C1192 0.950 . S
H1184 C1194 0.950 . S
H1185 C1196 0.950 . S
H1186 C1198 0.950 . S
H1187 C1199 0.950 . S
C1188 H1180 0.950 . S
C1188 C1189 1.386 . S
C1188 C1190 1.391 . S
C1189 C1188 1.386 . S
C1189 C1193 1.393 . S
C1190 H1182 0.950 . S
C1190 C1188 1.391 . S
C1190 C1191 1.400 . S
C1191 C1190 1.400 . S
C1191 C1192 1.398 . S
C1191 C1197 1.491 . S
C1192 H1183 0.950 . S
C1192 C1191 1.398 . S
C1192 C1193 1.391 . S
C1193 H1181 0.950 . S
C1193 C1189 1.393 . S
C1193 C1192 1.391 . S
C1194 H1184 0.950 . S
C1194 C1195 1.386 . S
C1194 C1196 1.391 . S
C1195 C1194 1.386 . S
C1195 C1199 1.393 . S
C1196 H1185 0.950 . S
C1196 C1194 1.391 . S
C1196 C1197 1.400 . S
C1197 C1191 1.491 . S
C1197 C1196 1.400 . S
C1197 C1198 1.398 . S
C1198 H1186 0.950 . S
C1198 C1197 1.398 . S
C1198 C1199 1.391 . S
C1199 H1187 0.950 . S
C1199 C1195 1.393 . S
C1199 C1198 1.391 . S
H1200 C1208 0.950 . S
H1201 C1213 0.950 . S
H1202 C1210 0.950 . S
H1203 C1212 0.950 . S
H1204 C1214 0.950 . S
H1205 C1216 0.950 . S
H1206 C1218 0.950 . S
H1207 C1219 0.950 . S
C1208 H1200 0.950 . S
C1208 C1209 1.386 . S
C1208 C1210 1.391 . S
C1209 C1208 1.386 . S
C1209 C1213 1.393 . S
C1210 H1202 0.950 . S
C1210 C1208 1.391 . S
C1210 C1211 1.400 . S
C1211 C1210 1.400 . S
C1211 C1212 1.398 . S
C1211 C1217 1.491 . S
C1212 H1203 0.950 . S
C1212 C1211 1.398 . S
C1212 C1213 1.391 . S
C1213 H1201 0.950 . S
C1213 C1209 1.393 . S
C1213 C1212 1.391 . S
C1214 H1204 0.950 . S
C1214 C1215 1.386 . S
C1214 C1216 1.391 . S
C1215 C1214 1.386 . S
C1215 C1219 1.393 . S
C1216 H1205 0.950 . S
C1216 C1214 1.391 . S
C1216 C1217 1.400 . S
C1217 C1211 1.491 . S
C1217 C1216 1.400 . S
C1217 C1218 1.398 . S
C1218 H1206 0.950 . S
C1218 C1217 1.398 . S
C1218 C1219 1.391 . S
C1219 H1207 0.950 . S
C1219 C1215 1.393 . S
C1219 C1218 1.391 . S
H1220 C1228 0.950 . S
H1221 C1233 0.950 . S
H1222 C1230 0.950 . S
H1223 C1232 0.950 . S
H1224 C1234 0.950 . S
H1225 C1236 0.950 . S
H1226 C1238 0.950 . S
H1227 C1239 0.950 . S
C1228 H1220 0.950 . S
C1228 C1229 1.386 . S
C1228 C1230 1.391 . S
C1229 C1228 1.386 . S
C1229 C1233 1.393 . S
C1230 H1222 0.950 . S
C1230 C1228 1.391 . S
C1230 C1231 1.400 . S
C1231 C1230 1.400 . S
C1231 C1232 1.398 . S
C1231 C1237 1.491 . S
C1232 H1223 0.950 . S
C1232 C1231 1.398 . S
C1232 C1233 1.391 . S
C1233 H1221 0.950 . S
C1233 C1229 1.393 . S
C1233 C1232 1.391 . S
C1234 H1224 0.950 . S
C1234 C1235 1.386 . S
C1234 C1236 1.391 . S
C1235 C1234 1.386 . S
C1235 C1239 1.393 . S
C1236 H1225 0.950 . S
C1236 C1234 1.391 . S
C1236 C1237 1.400 . S
C1237 C1231 1.491 . S
C1237 C1236 1.400 . S
C1237 C1238 1.398 . S
C1238 H1226 0.950 . S
C1238 C1237 1.398 . S
C1238 C1239 1.391 . S
C1239 H1227 0.950 . S
C1239 C1235 1.393 . S
C1239 C1238 1.391 . S
H1240 C1248 0.950 . S
H1241 C1253 0.950 . S
H1242 C1250 0.950 . S
H1243 C1252 0.950 . S
H1244 C1254 0.950 . S
H1245 C1256 0.950 . S
H1246 C1258 0.950 . S
H1247 C1259 0.950 . S
C1248 H1240 0.950 . S
C1248 C1249 1.386 . S
C1248 C1250 1.391 . S
C1249 C1248 1.386 . S
C1249 C1253 1.393 . S
C1250 H1242 0.950 . S
C1250 C1248 1.391 . S
C1250 C1251 1.400 . S
C1251 C1250 1.400 . S
C1251 C1252 1.398 . S
C1251 C1257 1.491 . S
C1252 H1243 0.950 . S
C1252 C1251 1.398 . S
C1252 C1253 1.391 . S
C1253 H1241 0.950 . S
C1253 C1249 1.393 . S
C1253 C1252 1.391 . S
C1254 H1244 0.950 . S
C1254 C1255 1.386 . S
C1254 C1256 1.391 . S
C1255 C1254 1.386 . S
C1255 C1259 1.393 . S
C1256 H1245 0.950 . S
C1256 C1254 1.391 . S
C1256 C1257 1.400 . S
C1257 C1251 1.491 . S
C1257 C1256 1.400 . S
C1257 C1258 1.398 . S
C1258 H1246 0.950 . S
C1258 C1257 1.398 . S
C1258 C1259 1.391 . S
C1259 H1247 0.950 . S
C1259 C1255 1.393 . S
C1259 C1258 1.391 . S
H1260 C1268 0.950 . S
H1261 C1273 0.950 . S
H1262 C1270 0.950 . S
H1263 C1272 0.950 . S
H1264 C1274 0.950 . S
H1265 C1276 0.950 . S
H1266 C1278 0.950 . S
H1267 C1279 0.950 . S
C1268 H1260 0.950 . S
C1268 C1269 1.386 . S
C1268 C1270 1.391 . S
C1269 C1268 1.386 . S
C1269 C1273 1.393 . S
C1270 H1262 0.950 . S
C1270 C1268 1.391 . S
C1270 C1271 1.400 . S
C1271 C1270 1.400 . S
C1271 C1272 1.398 . S
C1271 C1277 1.491 . S
C1272 H1263 0.950 . S
C1272 C1271 1.398 . S
C1272 C1273 1.391 . S
C1273 H1261 0.950 . S
C1273 C1269 1.393 . S
C1273 C1272 1.391 . S
C1274 H1264 0.950 . S
C1274 C1275 1.386 . S
C1274 C1276 1.391 . S
C1275 C1274 1.386 . S
C1275 C1279 1.393 . S
C1276 H1265 0.950 . S
C1276 C1274 1.391 . S
C1276 C1277 1.400 . S
C1277 C1271 1.491 . S
C1277 C1276 1.400 . S
C1277 C1278 1.398 . S
C1278 H1266 0.950 . S
C1278 C1277 1.398 . S
C1278 C1279 1.391 . S
C1279 H1267 0.950 . S
C1279 C1275 1.393 . S
C1279 C1278 1.391 . S
H1280 C1288 0.950 . S
H1281 C1293 0.950 . S
H1282 C1290 0.950 . S
H1283 C1292 0.950 . S
H1284 C1294 0.950 . S
H1285 C1296 0.950 . S
H1286 C1298 0.950 . S
H1287 C1299 0.950 . S
C1288 H1280 0.950 . S
C1288 C1289 1.386 . S
C1288 C1290 1.391 . S
C1289 C1288 1.386 . S
C1289 C1293 1.393 . S
C1290 H1282 0.950 . S
C1290 C1288 1.391 . S
C1290 C1291 1.400 . S
C1291 C1290 1.400 . S
C1291 C1292 1.398 . S
C1291 C1297 1.491 . S
C1292 H1283 0.950 . S
C1292 C1291 1.398 . S
C1292 C1293 1.391 . S
C1293 H1281 0.950 . S
C1293 C1289 1.393 . S
C1293 C1292 1.391 . S
C1294 H1284 0.950 . S
C1294 C1295 1.386 . S
C1294 C1296 1.391 . S
C1295 C1294 1.386 . S
C1295 C1299 1.393 . S
C1296 H1285 0.950 . S
C1296 C1294 1.391 . S
C1296 C1297 1.400 . S
C1297 C1291 1.491 . S
C1297 C1296 1.400 . S
C1297 C1298 1.398 . S
C1298 H1286 0.950 . S
C1298 C1297 1.398 . S
C1298 C1299 1.391 . S
C1299 H1287 0.950 . S
C1299 C1295 1.393 . S
C1299 C1298 1.391 . S
H1300 C1308 0.950 . S
H1301 C1313 0.950 . S
H1302 C1310 0.950 . S
H1303 C1312 0.950 . S
H1304 C1314 0.950 . S
H1305 C1316 0.950 . S
H1306 C1318 0.950 . S
H1307 C1319 0.950 . S
C1308 H1300 0.950 . S
C1308 C1309 1.386 . S
C1308 C1310 1.391 . S
C1309 C1308 1.386 . S
C1309 C1313 1.393 . S
C1310 H1302 0.950 . S
C1310 C1308 1.391 . S
C1310 C1311 1.400 . S
C1311 C1310 1.400 . S
C1311 C1312 1.398 . S
C1311 C1317 1.491 . S
C1312 H1303 0.950 . S
C1312 C1311 1.398 . S
C1312 C1313 1.391 . S
C1313 H1301 0.950 . S
C1313 C1309 1.393 . S
C1313 C1312 1.391 . S
C1314 H1304 0.950 . S
C1314 C1315 1.386 . S
C1314 C1316 1.391 . S
C1315 C1314 1.386 . S
C1315 C1319 1.393 . S
C1316 H1305 0.950 . S
C1316 C1314 1.391 . S
C1316 C1317 1.400 . S
C1317 C1311 1.491 . S
C1317 C1316 1.400 . S
C1317 C1318 1.398 . S
C1318 H1306 0.950 . S
C1318 C1317 1.398 . S
C1318 C1319 1.391 . S
C1319 H1307 0.950 . S
C1319 C1315 1.393 . S
C1319 C1318 1.391 . S
H1320 C1328 0.950 . S
H1321 C1333 0.950 . S
H1322 C1330 0.950 . S
H1323 C1332 0.950 . S
H1324 C1334 0.950 . S
H1325 C1336 0.950 . S
H1326 C1338 0.950 . S
H1327 C1339 0.950 . S
C1328 H1320 0.950 . S
C1328 C1329 1.386 . S
C1328 C1330 1.391 . S
C1329 C1328 1.386 . S
C1329 C1333 1.393 . S
C1330 H1322 0.950 . S
C1330 C1328 1.391 . S
C1330 C1331 1.400 . S
C1331 C1330 1.400 . S
C1331 C1332 1.398 . S
C1331 C1337 1.491 . S
C1332 H1323 0.950 . S
C1332 C1331 1.398 . S
C1332 C1333 1.391 . S
C1333 H1321 0.950 . S
C1333 C1329 1.393 . S
C1333 C1332 1.391 . S
C1334 H1324 0.950 . S
C1334 C1335 1.386 . S
C1334 C1336 1.391 . S
C1335 C1334 1.386 . S
C1335 C1339 1.393 . S
C1336 H1325 0.950 . S
C1336 C1334 1.391 . S
C1336 C1337 1.400 . S
C1337 C1331 1.491 . S
C1337 C1336 1.400 . S
C1337 C1338 1.398 . S
C1338 H1326 0.950 . S
C1338 C1337 1.398 . S
C1338 C1339 1.391 . S
C1339 H1327 0.950 . S
C1339 C1335 1.393 . S
C1339 C1338 1.391 . S
H1340 C1348 0.950 . S
H1341 C1353 0.950 . S
H1342 C1350 0.950 . S
H1343 C1352 0.950 . S
H1344 C1354 0.950 . S
H1345 C1356 0.950 . S
H1346 C1358 0.950 . S
H1347 C1359 0.950 . S
C1348 H1340 0.950 . S
C1348 C1349 1.386 . S
C1348 C1350 1.391 . S
C1349 C1348 1.386 . S
C1349 C1353 1.393 . S
C1350 H1342 0.950 . S
C1350 C1348 1.391 . S
C1350 C1351 1.400 . S
C1351 C1350 1.400 . S
C1351 C1352 1.398 . S
C1351 C1357 1.491 . S
C1352 H1343 0.950 . S
C1352 C1351 1.398 . S
C1352 C1353 1.391 . S
C1353 H1341 0.950 . S
C1353 C1349 1.393 . S
C1353 C1352 1.391 . S
C1354 H1344 0.950 . S
C1354 C1355 1.386 . S
C1354 C1356 1.391 . S
C1355 C1354 1.386 . S
C1355 C1359 1.393 . S
C1356 H1345 0.950 . S
C1356 C1354 1.391 . S
C1356 C1357 1.400 . S
C1357 C1351 1.491 . S
C1357 C1356 1.400 . S
C1357 C1358 1.398 . S
C1358 H1346 0.950 . S
C1358 C1357 1.398 . S
C1358 C1359 1.391 . S
C1359 H1347 0.950 . S
C1359 C1355 1.393 . S
C1359 C1358 1.391 . S
H1360 C1368 0.950 . S
H1361 C1373 0.950 . S
H1362 C1370 0.950 . S
H1363 C1372 0.950 . S
H1364 C1374 0.950 . S
H1365 C1376 0.950 . S
H1366 C1378 0.950 1_556 S
H1367 C1379 0.950 . S
C1368 H1360 0.950 . S
C1368 C1369 1.386 . S
C1368 C1370 1.391 . S
C1369 C1368 1.386 . S
C1369 C1373 1.393 1_556 S
C1370 H1362 0.950 . S
C1370 C1368 1.391 . S
C1370 C1371 1.400 1_556 S
C1371 C1370 1.400 1_554 S
C1371 C1372 1.398 . S
C1371 C1377 1.491 . S
C1372 H1363 0.950 . S
C1372 C1371 1.398 . S
C1372 C1373 1.391 . S
C1373 H1361 0.950 . S
C1373 C1369 1.393 1_554 S
C1373 C1372 1.391 . S
C1374 H1364 0.950 . S
C1374 C1375 1.386 . S
C1374 C1376 1.391 . S
C1375 C1374 1.386 . S
C1375 C1379 1.393 . S
C1376 H1365 0.950 . S
C1376 C1374 1.391 . S
C1376 C1377 1.400 . S
C1377 C1371 1.491 . S
C1377 C1376 1.400 . S
C1377 C1378 1.398 . S
C1378 H1366 0.950 1_554 S
C1378 C1377 1.398 . S
C1378 C1379 1.391 . S
C1379 H1367 0.950 . S
C1379 C1375 1.393 . S
C1379 C1378 1.391 . S
H1380 C1388 0.950 . S
H1381 C1393 0.950 . S
H1382 C1390 0.950 1_556 S
H1383 C1392 0.950 . S
H1384 C1394 0.950 . S
H1385 C1396 0.950 . S
H1386 C1398 0.950 . S
H1387 C1399 0.950 . S
C1388 H1380 0.950 . S
C1388 C1389 1.386 . S
C1388 C1390 1.391 . S
C1389 C1388 1.386 . S
C1389 C1393 1.393 . S
C1390 H1382 0.950 1_554 S
C1390 C1388 1.391 . S
C1390 C1391 1.400 . S
C1391 C1390 1.400 . S
C1391 C1392 1.398 . S
C1391 C1397 1.491 . S
C1392 H1383 0.950 . S
C1392 C1391 1.398 . S
C1392 C1393 1.391 . S
C1393 H1381 0.950 . S
C1393 C1389 1.393 . S
C1393 C1392 1.391 . S
C1394 H1384 0.950 . S
C1394 C1395 1.386 1_554 S
C1394 C1396 1.391 . S
C1395 C1394 1.386 1_556 S
C1395 C1399 1.393 . S
C1396 H1385 0.950 . S
C1396 C1394 1.391 . S
C1396 C1397 1.400 . S
C1397 C1391 1.491 . S
C1397 C1396 1.400 . S
C1397 C1398 1.398 1_554 S
C1398 H1386 0.950 . S
C1398 C1397 1.398 1_556 S
C1398 C1399 1.391 . S
C1399 H1387 0.950 . S
C1399 C1395 1.393 . S
C1399 C1398 1.391 . S
H1400 C1408 0.950 . S
H1401 C1413 0.950 . S
H1402 C1410 0.950 . S
H1403 C1412 0.950 . S
H1404 C1414 0.950 1_556 S
H1405 C1416 0.950 . S
H1406 C1418 0.950 . S
H1407 C1419 0.950 . S
C1408 H1400 0.950 . S
C1408 C1409 1.386 1_554 S
C1408 C1410 1.391 . S
C1409 C1408 1.386 1_556 S
C1409 C1413 1.393 . S
C1410 H1402 0.950 . S
C1410 C1408 1.391 . S
C1410 C1411 1.400 . S
C1411 C1410 1.400 . S
C1411 C1412 1.398 1_554 S
C1411 C1417 1.491 . S
C1412 H1403 0.950 . S
C1412 C1411 1.398 1_556 S
C1412 C1413 1.391 . S
C1413 H1401 0.950 . S
C1413 C1409 1.393 . S
C1413 C1412 1.391 . S
C1414 H1404 0.950 1_554 S
C1414 C1415 1.386 . S
C1414 C1416 1.391 1_554 S
C1415 C1414 1.386 . S
C1415 C1419 1.393 . S
C1416 H1405 0.950 . S
C1416 C1414 1.391 1_556 S
C1416 C1417 1.400 1_556 S
C1417 C1411 1.491 . S
C1417 C1416 1.400 1_554 S
C1417 C1418 1.398 . S
C1418 H1406 0.950 . S
C1418 C1417 1.398 . S
C1418 C1419 1.391 . S
C1419 H1407 0.950 . S
C1419 C1415 1.393 . S
C1419 C1418 1.391 . S
H1420 C1428 0.950 . S
H1421 C1433 0.950 . S
H1422 C1430 0.950 . S
H1423 C1432 0.950 . S
H1424 C1434 0.950 . S
H1425 C1436 0.948 1_556 S
H1426 C1438 0.950 . S
H1427 C1439 0.950 . S
C1428 H1420 0.950 . S
C1428 C1429 1.386 . S
C1428 C1430 1.391 . S
C1429 C1428 1.386 . S
C1429 C1433 1.393 . S
C1430 H1422 0.950 . S
C1430 C1428 1.391 . S
C1430 C1431 1.400 . S
C1431 C1430 1.400 . S
C1431 C1432 1.398 . S
C1431 C1437 1.491 . S
C1432 H1423 0.950 . S
C1432 C1431 1.398 . S
C1432 C1433 1.391 . S
C1433 H1421 0.950 . S
C1433 C1429 1.393 . S
C1433 C1432 1.391 . S
C1434 H1424 0.950 . S
C1434 C1435 1.386 . S
C1434 C1436 1.386 1_556 S
C1435 C1434 1.386 . S
C1435 C1439 1.393 1_556 S
C1436 H1425 0.948 1_554 S
C1436 C1434 1.386 1_554 S
C1436 C1437 1.408 . S
C1437 C1431 1.491 . S
C1437 C1436 1.408 . S
C1437 C1438 1.398 . S
C1438 H1426 0.950 . S
C1438 C1437 1.398 . S
C1438 C1439 1.391 . S
C1439 H1427 0.950 . S
C1439 C1435 1.393 1_554 S
C1439 C1438 1.391 . S
H1440 C1448 0.950 . S
H1441 C1453 0.950 . S
H1442 C1450 0.950 . S
H1443 C1452 0.950 . S
H1444 C1454 0.950 . S
H1445 C1456 0.950 . S
H1446 C1458 0.950 . S
H1447 C1459 0.950 . S
C1448 H1440 0.950 . S
C1448 C1449 1.386 . S
C1448 C1450 1.391 . S
C1449 C1448 1.386 . S
C1449 C1453 1.393 . S
C1450 H1442 0.950 . S
C1450 C1448 1.391 . S
C1450 C1451 1.400 . S
C1451 C1450 1.400 . S
C1451 C1452 1.398 . S
C1451 C1457 1.491 . S
C1452 H1443 0.950 . S
C1452 C1451 1.398 . S
C1452 C1453 1.391 . S
C1453 H1441 0.950 . S
C1453 C1449 1.393 . S
C1453 C1452 1.391 . S
C1454 H1444 0.950 . S
C1454 C1455 1.386 . S
C1454 C1456 1.391 . S
C1455 C1454 1.386 . S
C1455 C1459 1.393 . S
C1456 H1445 0.950 . S
C1456 C1454 1.391 . S
C1456 C1457 1.400 . S
C1457 C1451 1.491 . S
C1457 C1456 1.400 . S
C1457 C1458 1.398 . S
C1458 H1446 0.950 . S
C1458 C1457 1.398 . S
C1458 C1459 1.391 . S
C1459 H1447 0.950 . S
C1459 C1455 1.393 . S
C1459 C1458 1.391 . S
H1460 C1468 0.950 . S
H1461 C1473 0.950 . S
H1462 C1470 0.950 . S
H1463 C1472 0.950 . S
H1464 C1474 0.950 . S
H1465 C1476 0.950 . S
H1466 C1478 0.950 . S
H1467 C1479 0.950 . S
C1468 H1460 0.950 . S
C1468 C1469 1.386 . S
C1468 C1470 1.391 . S
C1469 C1468 1.386 . S
C1469 C1473 1.393 . S
C1470 H1462 0.950 . S
C1470 C1468 1.391 . S
C1470 C1471 1.400 . S
C1471 C1470 1.400 . S
C1471 C1472 1.398 . S
C1471 C1477 1.491 . S
C1472 H1463 0.950 . S
C1472 C1471 1.398 . S
C1472 C1473 1.391 . S
C1473 H1461 0.950 . S
C1473 C1469 1.393 . S
C1473 C1472 1.391 . S
C1474 H1464 0.950 . S
C1474 C1475 1.386 . S
C1474 C1476 1.391 . S
C1475 C1474 1.386 . S
C1475 C1479 1.393 . S
C1476 H1465 0.950 . S
C1476 C1474 1.391 . S
C1476 C1477 1.400 . S
C1477 C1471 1.491 . S
C1477 C1476 1.400 . S
C1477 C1478 1.398 . S
C1478 H1466 0.950 . S
C1478 C1477 1.398 . S
C1478 C1479 1.391 . S
C1479 H1467 0.950 . S
C1479 C1475 1.393 . S
C1479 C1478 1.391 . S
H1480 C1488 0.950 . S
H1481 C1493 0.950 . S
H1482 C1490 0.950 . S
H1483 C1492 0.950 . S
H1484 C1494 0.950 . S
H1485 C1496 0.950 . S
H1486 C1498 0.950 . S
H1487 C1499 0.950 . S
C1488 H1480 0.950 . S
C1488 C1489 1.386 . S
C1488 C1490 1.391 . S
C1489 C1488 1.386 . S
C1489 C1493 1.393 . S
C1490 H1482 0.950 . S
C1490 C1488 1.391 . S
C1490 C1491 1.400 . S
C1491 C1490 1.400 . S
C1491 C1492 1.398 . S
C1491 C1497 1.491 . S
C1492 H1483 0.950 . S
C1492 C1491 1.398 . S
C1492 C1493 1.391 . S
C1493 H1481 0.950 . S
C1493 C1489 1.393 . S
C1493 C1492 1.391 . S
C1494 H1484 0.950 . S
C1494 C1495 1.386 . S
C1494 C1496 1.391 . S
C1495 C1494 1.386 . S
C1495 C1499 1.393 . S
C1496 H1485 0.950 . S
C1496 C1494 1.391 . S
C1496 C1497 1.400 . S
C1497 C1491 1.491 . S
C1497 C1496 1.400 . S
C1497 C1498 1.398 . S
C1498 H1486 0.950 . S
C1498 C1497 1.398 . S
C1498 C1499 1.391 . S
C1499 H1487 0.950 . S
C1499 C1495 1.393 . S
C1499 C1498 1.391 . S
H1500 C1508 0.950 . S
H1501 C1513 0.950 . S
H1502 C1510 0.950 . S
H1503 C1512 0.950 . S
H1504 C1514 0.950 . S
H1505 C1516 0.950 . S
H1506 C1518 0.950 . S
H1507 C1519 0.950 . S
C1508 H1500 0.950 . S
C1508 C1509 1.386 . S
C1508 C1510 1.391 . S
C1509 C1508 1.386 . S
C1509 C1513 1.393 . S
C1510 H1502 0.950 . S
C1510 C1508 1.391 . S
C1510 C1511 1.400 . S
C1511 C1510 1.400 . S
C1511 C1512 1.398 . S
C1511 C1517 1.491 . S
C1512 H1503 0.950 . S
C1512 C1511 1.398 . S
C1512 C1513 1.391 . S
C1513 H1501 0.950 . S
C1513 C1509 1.393 . S
C1513 C1512 1.391 . S
C1514 H1504 0.950 . S
C1514 C1515 1.386 . S
C1514 C1516 1.391 . S
C1515 C1514 1.386 . S
C1515 C1519 1.393 . S
C1516 H1505 0.950 . S
C1516 C1514 1.391 . S
C1516 C1517 1.400 . S
C1517 C1511 1.491 . S
C1517 C1516 1.400 . S
C1517 C1518 1.398 . S
C1518 H1506 0.950 . S
C1518 C1517 1.398 . S
C1518 C1519 1.391 . S
C1519 H1507 0.950 . S
C1519 C1515 1.393 . S
C1519 C1518 1.391 . S
H1520 C1528 0.950 . S
H1521 C1533 0.950 . S
H1522 C1530 0.950 . S
H1523 C1532 0.950 . S
H1524 C1534 0.950 . S
H1525 C1536 0.950 . S
H1526 C1538 0.950 . S
H1527 C1539 0.950 . S
C1528 H1520 0.950 . S
C1528 C1529 1.386 . S
C1528 C1530 1.391 . S
C1529 C1528 1.386 . S
C1529 C1533 1.393 . S
C1530 H1522 0.950 . S
C1530 C1528 1.391 . S
C1530 C1531 1.400 . S
C1531 C1530 1.400 . S
C1531 C1532 1.398 . S
C1531 C1537 1.491 . S
C1532 H1523 0.950 . S
C1532 C1531 1.398 . S
C1532 C1533 1.391 . S
C1533 H1521 0.950 . S
C1533 C1529 1.393 . S
C1533 C1532 1.391 . S
C1534 H1524 0.950 . S
C1534 C1535 1.386 . S
C1534 C1536 1.391 . S
C1535 C1534 1.386 . S
C1535 C1539 1.393 1_554 S
C1536 H1525 0.950 . S
C1536 C1534 1.391 . S
C1536 C1537 1.400 1_554 S
C1537 C1531 1.491 . S
C1537 C1536 1.400 1_556 S
C1537 C1538 1.398 . S
C1538 H1526 0.950 . S
C1538 C1537 1.398 . S
C1538 C1539 1.391 . S
C1539 H1527 0.950 . S
C1539 C1535 1.393 1_556 S
C1539 C1538 1.391 . S
H1540 C1548 0.950 . S
H1541 C1553 0.950 . S
H1542 C1550 0.950 . S
H1543 C1552 0.950 . S
H1544 C1554 0.950 . S
H1545 C1556 0.950 . S
H1546 C1558 0.950 . S
H1547 C1559 0.950 . S
C1548 H1540 0.950 . S
C1548 C1549 1.386 . S
C1548 C1550 1.391 . S
C1549 C1548 1.386 . S
C1549 C1553 1.393 . S
C1550 H1542 0.950 . S
C1550 C1548 1.391 . S
C1550 C1551 1.400 . S
C1551 C1550 1.400 . S
C1551 C1552 1.398 . S
C1551 C1557 1.491 . S
C1552 H1543 0.950 . S
C1552 C1551 1.398 . S
C1552 C1553 1.391 . S
C1553 H1541 0.950 . S
C1553 C1549 1.393 . S
C1553 C1552 1.391 . S
C1554 H1544 0.950 . S
C1554 C1555 1.386 . S
C1554 C1556 1.391 1_554 S
C1555 C1554 1.386 . S
C1555 C1559 1.393 1_554 S
C1556 H1545 0.950 . S
C1556 C1554 1.391 1_556 S
C1556 C1557 1.400 . S
C1557 C1551 1.491 . S
C1557 C1556 1.400 . S
C1557 C1558 1.398 . S
C1558 H1546 0.950 . S
C1558 C1557 1.398 . S
C1558 C1559 1.391 . S
C1559 H1547 0.950 . S
C1559 C1555 1.393 1_556 S
C1559 C1558 1.391 . S
H1560 C1568 0.950 . S
H1561 C1573 0.951 . S
H1562 C1570 0.950 . S
H1563 C1572 0.950 . S
H1564 C1574 0.950 . S
H1565 C1576 0.950 . S
H1566 C1578 0.950 . S
H1567 C1579 0.950 . S
C1568 H1560 0.950 . S
C1568 C1569 1.386 . S
C1568 C1570 1.391 1_554 S
C1569 C1568 1.386 . S
C1569 C1573 1.393 1_554 S
C1570 H1562 0.950 . S
C1570 C1568 1.391 1_556 S
C1570 C1571 1.400 . S
C1571 C1570 1.400 . S
C1571 C1572 1.398 . S
C1571 C1577 1.491 . S
C1572 H1563 0.950 . S
C1572 C1571 1.398 . S
C1572 C1573 1.391 . S
C1573 H1561 0.951 . S
C1573 C1569 1.393 1_556 S
C1573 C1572 1.391 . S
C1574 H1564 0.950 . S
C1574 C1575 1.386 . S
C1574 C1576 1.391 . S
C1575 C1574 1.386 . S
C1575 C1579 1.393 . S
C1576 H1565 0.950 . S
C1576 C1574 1.391 . S
C1576 C1577 1.400 . S
C1577 C1571 1.491 . S
C1577 C1576 1.400 . S
C1577 C1578 1.398 . S
C1578 H1566 0.950 . S
C1578 C1577 1.398 . S
C1578 C1579 1.391 . S
C1579 H1567 0.950 . S
C1579 C1575 1.393 . S
C1579 C1578 1.391 . S
H1580 C1588 0.950 . S
H1581 C1593 0.950 . S
H1582 C1590 0.950 . S
H1583 C1592 0.950 . S
H1584 C1594 0.950 . S
H1585 C1596 0.950 . S
H1586 C1598 0.950 . S
H1587 C1599 0.950 . S
C1588 H1580 0.950 . S
C1588 C1589 1.386 1_556 S
C1588 C1590 1.391 . S
C1589 C1588 1.386 1_554 S
C1589 C1593 1.393 . S
C1590 H1582 0.950 . S
C1590 C1588 1.391 . S
C1590 C1591 1.400 . S
C1591 C1590 1.400 . S
C1591 C1592 1.398 . S
C1591 C1597 1.491 . S
C1592 H1583 0.950 . S
C1592 C1591 1.398 . S
C1592 C1593 1.391 1_556 S
C1593 H1581 0.950 . S
C1593 C1589 1.393 . S
C1593 C1592 1.391 1_554 S
C1594 H1584 0.950 . S
C1594 C1595 1.386 . S
C1594 C1596 1.391 . S
C1595 C1594 1.386 . S
C1595 C1599 1.393 . S
C1596 H1585 0.950 . S
C1596 C1594 1.391 . S
C1596 C1597 1.400 . S
C1597 C1591 1.491 . S
C1597 C1596 1.400 . S
C1597 C1598 1.398 . S
C1598 H1586 0.950 . S
C1598 C1597 1.398 . S
C1598 C1599 1.391 . S
C1599 H1587 0.950 . S
C1599 C1595 1.393 . S
C1599 C1598 1.391 . S
C649 C18 2.284 . S
C655 C218 2.308 . S
C669 C258 2.307 . S
C675 C58 2.286 . S
C689 C98 2.284 . S
C695 C298 2.308 . S
C709 C138 2.308 . S
C715 C178 2.286 . S
C729 C528 2.283 . S
C735 C328 2.309 . S
C749 C568 2.297 . S
C755 C368 2.295 . S
C769 C408 2.296 . S
C775 C608 2.297 . S
C789 C448 2.296 . S
C795 C488 2.297 . S
C809 C5 1.933 . S
C815 C129 1.818 1_545 S
C829 C45 1.945 . S
C835 C9 1.798 . S
C849 C85 1.948 . S
C855 C49 1.810 . S
C869 C125 1.939 . S
C875 C89 1.794 1_455 S
C889 C165 1.945 . S
C895 C209 1.821 1_565 S
C909 C249 1.815 . S
C915 C205 1.932 . S
C929 C245 1.943 . S
C935 C289 1.824 . S
C949 C169 1.809 1_655 S
C955 C285 1.931 . S
C969 C459 1.819 1_565 S
C975 C335 1.946 . S
C989 C375 1.942 . S
C995 C339 1.824 . S
C1009 C415 1.942 . S
C1015 C379 1.795 . S
C1029 C455 1.934 . S
C1035 C419 1.821 1_655 S
C1049 C495 1.939 . S
C1055 C539 1.794 1_545 S
C1069 C535 1.939 . S
C1075 C579 1.825 . S
C1089 C575 1.940 . S
C1095 C619 1.825 . S
C1109 C615 1.943 . S
C1115 C499 1.824 1_455 S
C1129 C15 1.135 . S
C1135 C95 1.133 . S
C1149 C55 1.128 . S
C1155 C135 1.126 . S
C1169 C255 1.135 . S
C1175 C175 1.137 . S
C1189 C295 1.121 . S
C1195 C215 1.121 . S
C1209 C405 1.122 . S
C1215 C325 1.124 . S
C1229 C445 1.140 . S
C1235 C365 1.140 . S
C1249 C485 1.134 . S
C1255 C565 1.132 . S
C1269 C525 1.121 . S
C1275 C605 1.120 . S
C1289 C19 2.634 . S
C1295 C458 2.638 . S
C1309 C338 2.638 . S
C1315 C59 2.633 . S
C1329 C99 2.634 . S
C1335 C378 2.639 . S
C1349 C418 2.639 . S
C1355 C139 2.635 . S
C1369 C538 2.632 . S
C1375 C179 2.627 . S
C1389 C219 2.627 . S
C1395 C578 2.632 . S
C1409 C618 2.639 . S
C1415 C259 2.633 . S
C1429 C299 2.635 . S
C1435 C498 2.639 . S
C1449 C329 2.630 . S
C1455 C128 2.636 . S
C1469 C369 2.629 . S
C1475 C8 2.633 . S
C1489 C48 2.635 . S
C1495 C409 2.629 . S
C1509 C449 2.635 . S
C1515 C88 2.639 . S
C1529 C489 2.627 . S
C1535 C208 2.632 . S
C1549 C529 2.635 . S
C1555 C248 2.638 . S
C1569 C288 2.638 . S
C1575 C569 2.635 . S
C1589 C168 2.638 . S
C1595 C609 2.634 . S
