# Generated by pormake.
# Topology vmb, (5)-cn, num edge types: 1
# Building blocks:
#     Node 0, Type 0, BuildingBlock: XOMCOT_clean_sbu_1, # of connection points: 5
#     Node 1, Type 0, BuildingBlock: XOMCOT_clean_sbu_1, # of connection points: 5
#     Node 2, Type 0, BuildingBlock: XOMCOT_clean_sbu_1, # of connection points: 5
#     Node 3, Type 0, BuildingBlock: XOMCOT_clean_sbu_1, # of connection points: 5
#     Node 4, Type 0, BuildingBlock: XOMCOT_clean_sbu_1, # of connection points: 5
#     Node 5, Type 0, BuildingBlock: XOMCOT_clean_sbu_1, # of connection points: 5
#     Node 6, Type 0, BuildingBlock: XOMCOT_clean_sbu_1, # of connection points: 5
#     Node 7, Type 0, BuildingBlock: XOMCOT_clean_sbu_1, # of connection points: 5
#     Edge 8, Type (0, 0), BuildingBlock: XUDNAN_clean_linker_2, # of connection points: 2
#     Edge 9, Type (0, 0), BuildingBlock: XUDNAN_clean_linker_2, # of connection points: 2
#     Edge 10, Type (0, 0), BuildingBlock: XUDNAN_clean_linker_2, # of connection points: 2
#     Edge 11, Type (0, 0), BuildingBlock: XUDNAN_clean_linker_2, # of connection points: 2
#     Edge 12, Type (0, 0), BuildingBlock: XUDNAN_clean_linker_2, # of connection points: 2
#     Edge 13, Type (0, 0), BuildingBlock: XUDNAN_clean_linker_2, # of connection points: 2
#     Edge 14, Type (0, 0), BuildingBlock: XUDNAN_clean_linker_2, # of connection points: 2
#     Edge 15, Type (0, 0), BuildingBlock: XUDNAN_clean_linker_2, # of connection points: 2
#     Edge 16, Type (0, 0), BuildingBlock: XUDNAN_clean_linker_2, # of connection points: 2
#     Edge 17, Type (0, 0), BuildingBlock: XUDNAN_clean_linker_2, # of connection points: 2
#     Edge 18, Type (0, 0), BuildingBlock: XUDNAN_clean_linker_2, # of connection points: 2
#     Edge 19, Type (0, 0), BuildingBlock: XUDNAN_clean_linker_2, # of connection points: 2
#     Edge 20, Type (0, 0), BuildingBlock: XUDNAN_clean_linker_2, # of connection points: 2
#     Edge 21, Type (0, 0), BuildingBlock: XUDNAN_clean_linker_2, # of connection points: 2
#     Edge 22, Type (0, 0), BuildingBlock: XUDNAN_clean_linker_2, # of connection points: 2
#     Edge 23, Type (0, 0), BuildingBlock: XUDNAN_clean_linker_2, # of connection points: 2
#     Edge 24, Type (0, 0), BuildingBlock: XUDNAN_clean_linker_2, # of connection points: 2
#     Edge 25, Type (0, 0), BuildingBlock: XUDNAN_clean_linker_2, # of connection points: 2
#     Edge 26, Type (0, 0), BuildingBlock: XUDNAN_clean_linker_2, # of connection points: 2
#     Edge 27, Type (0, 0), BuildingBlock: XUDNAN_clean_linker_2, # of connection points: 2
# Relax obj value: 0.083
# Max RMSD: 0.124
# Mean RMSD: 0.124
data_MOF--net-vmb--node1-XOMCOT_clean_sbu_1--edge1-XUDNAN_clean_linker_2
_symmetry_space_group_name_H-M    P1
_symmetry_Int_Tables_number       1
_symmetry_cell_setting            triclinic
loop_
_symmetry_equiv_pos_as_xyz
'x, y, z'
_cell_length_a     38.188741
_cell_length_b     47.799248
_cell_length_c     27.019887
_cell_angle_alpha  90.070362
_cell_angle_beta   118.19331
_cell_angle_gamma 89.908454
loop_
_atom_site_label
_atom_site_type_symbol
_atom_site_fract_x
_atom_site_fract_y
_atom_site_fract_z
_atom_type_partial_charge
C0 C 0.20322 0.07952 0.27278 0.0
C1 C 0.16375 0.07816 0.25924 0.0
N2 N 0.16049 0.06438 0.30041 0.0
N3 N 0.22527 0.06672 0.32236 0.0
C4 C 0.19843 0.05766 0.33829 0.0
H5 H 0.21527 0.08964 0.24837 0.0
Co6 Co 0.281 0.06481 0.35539 0.0
C7 C 0.30998 0.0542 0.4748 0.0
O8 O 0.33804 0.07252 0.4842 0.0
N9 N 0.3382 0.06229 0.38732 0.0
C10 C 0.40314 0.07015 0.41982 0.0
C11 C 0.36614 0.08225 0.39871 0.0
C12 C 0.35966 0.03813 0.40201 0.0
N13 N 0.39918 0.0423 0.42178 0.0
O14 O 0.27627 0.02918 0.32115 0.0
H15 H 0.36093 0.1044 0.39253 0.0
H16 H 0.34647 0.01773 0.39856 0.0
O17 O 0.28447 0.04809 0.42421 0.0
C18 C 0.27702 0.0342 0.27537 0.0
O19 O 0.28242 0.06003 0.26393 0.0
N20 N 0.28288 0.10142 0.38202 0.0
C21 C 0.27676 0.15814 0.40146 0.0
C22 C 0.26669 0.1376 0.42956 0.0
C23 C 0.26893 0.10937 0.41813 0.0
C24 C 0.28984 0.12113 0.35136 0.0
C25 C 0.28811 0.14957 0.36146 0.0
H26 H 0.25771 0.09416 0.43656 0.0
H27 H 0.29677 0.11464 0.31859 0.0
H28 H 0.2066 0.0464 0.37693 0.0
H29 H 0.13948 0.0874 0.22249 0.0
H30 H 0.43074 0.08108 0.43142 0.0
H31 H 0.25561 0.14328 0.45845 0.0
H32 H 0.29539 0.16464 0.33786 0.0
C33 C 0.8371 0.08009 0.25619 0.0
C34 C 0.87782 0.07853 0.28526 0.0
N35 N 0.89065 0.06366 0.2546 0.0
N36 N 0.82378 0.06598 0.20742 0.0
C37 C 0.85728 0.05633 0.20735 0.0
H38 H 0.8184 0.09147 0.26928 0.0
Co39 Co 0.76937 0.06443 0.15446 0.0
C40 C 0.76451 0.02268 0.07208 0.0
O41 O 0.73841 0.00872 0.08101 0.0
N42 N 0.71418 0.06309 0.10071 0.0
C43 C 0.65893 0.06792 0.01912 0.0
C44 C 0.69912 0.07263 0.04746 0.0
C45 C 0.6821 0.05217 0.10313 0.0
N46 N 0.64809 0.05499 0.05394 0.0
O47 O 0.76437 0.0309 0.18939 0.0
H48 H 0.71641 0.08199 0.02967 0.0
H49 H 0.68343 0.04233 0.13998 0.0
O50 O 0.78115 0.04422 0.1017 0.0
C51 C 0.75818 0.03786 0.23024 0.0
O52 O 0.75282 0.06449 0.23691 0.0
N53 N 0.77499 0.09861 0.12565 0.0
C54 C 0.79001 0.15279 0.10307 0.0
C55 C 0.80842 0.1298 0.09259 0.0
C56 C 0.80066 0.10283 0.10441 0.0
C57 C 0.75617 0.1206 0.13505 0.0
C58 C 0.76293 0.14793 0.12346 0.0
H59 H 0.81681 0.0856 0.09901 0.0
H60 H 0.73686 0.11693 0.15347 0.0
H61 H 0.85732 0.04438 0.17333 0.0
H62 H 0.89669 0.08836 0.32526 0.0
H63 H 0.63926 0.073 0.97558 0.0
H64 H 0.8294 0.13267 0.07663 0.0
H65 H 0.74851 0.16515 0.13279 0.0
C66 C 0.84293 0.93838 0.74649 0.0
C67 C 0.88277 0.93968 0.76172 0.0
N68 N 0.88699 0.93593 0.71546 0.0
N69 N 0.82164 0.93408 0.69062 0.0
C70 C 0.84946 0.93286 0.67286 0.0
H71 H 0.83051 0.93931 0.77503 0.0
Co72 Co 0.76615 0.92754 0.65323 0.0
C73 C 0.73764 0.93838 0.53301 0.0
O74 O 0.71343 0.91715 0.52323 0.0
N75 N 0.7095 0.92127 0.61727 0.0
C76 C 0.64962 0.90209 0.58666 0.0
C77 C 0.68982 0.89728 0.61402 0.0
C78 C 0.67993 0.94059 0.59232 0.0
N79 N 0.64316 0.92932 0.57267 0.0
O80 O 0.7583 0.96211 0.68331 0.0
H81 H 0.70313 0.87731 0.63083 0.0
H82 H 0.68534 0.96243 0.58785 0.0
O83 O 0.761 0.94577 0.58391 0.0
C84 C 0.75081 0.95524 0.72308 0.0
O85 O 0.74784 0.9285 0.7318 0.0
N86 N 0.77605 0.89195 0.63156 0.0
C87 C 0.79489 0.8366 0.61938 0.0
C88 C 0.79633 0.85787 0.58462 0.0
C89 C 0.78734 0.88542 0.59182 0.0
C90 C 0.77768 0.87195 0.66846 0.0
C91 C 0.78582 0.8441 0.66226 0.0
H92 H 0.79106 0.90128 0.56651 0.0
H93 H 0.77169 0.87766 0.7025 0.0
H94 H 0.84257 0.92913 0.62978 0.0
H95 H 0.90691 0.94152 0.80412 0.0
H96 H 0.62684 0.88666 0.57864 0.0
H97 H 0.80523 0.85348 0.55283 0.0
H98 H 0.78449 0.82866 0.69058 0.0
C99 C 0.21134 0.91967 0.75326 0.0
C100 C 0.17096 0.91695 0.72843 0.0
N101 N 0.15879 0.92231 0.76686 0.0
N102 N 0.22548 0.92716 0.8074 0.0
C103 C 0.19255 0.92873 0.81466 0.0
H104 H 0.22937 0.91555 0.73309 0.0
Co105 Co 0.281 0.93009 0.85326 0.0
C106 C 0.29605 0.94788 0.96558 0.0
O107 O 0.32751 0.93162 0.98611 0.0
N108 N 0.33808 0.93318 0.89729 0.0
C109 C 0.40348 0.92502 0.9418 0.0
C110 C 0.36634 0.91302 0.9168 0.0
C111 C 0.35946 0.95734 0.91147 0.0
N112 N 0.39935 0.95302 0.93831 0.0
O113 O 0.28039 0.96453 0.81712 0.0
H114 H 0.36113 0.8908 0.91286 0.0
H115 H 0.34584 0.97783 0.90176 0.0
O116 O 0.2738 0.94948 0.91227 0.0
C117 C 0.28926 0.95891 0.77824 0.0
O118 O 0.29936 0.93312 0.77358 0.0
N119 N 0.28011 0.89474 0.88237 0.0
C120 C 0.26968 0.83864 0.90082 0.0
C121 C 0.25837 0.86004 0.92599 0.0
C122 C 0.26319 0.88799 0.91546 0.0
C123 C 0.28957 0.87423 0.85571 0.0
C124 C 0.28565 0.8461 0.86543 0.0
H125 H 0.25115 0.90387 0.93149 0.0
H126 H 0.30008 0.87987 0.82624 0.0
H127 H 0.19345 0.93329 0.85448 0.0
H128 H 0.152 0.91106 0.68513 0.0
H129 H 0.43136 0.91376 0.95924 0.0
H130 H 0.24427 0.85531 0.9516 0.0
H131 H 0.29471 0.83041 0.84484 0.0
C132 C 0.71537 0.60295 0.30275 0.0
C133 C 0.67463 0.6049 0.27858 0.0
N134 N 0.66076 0.58137 0.29063 0.0
N135 N 0.72714 0.57839 0.33021 0.0
C136 C 0.6932 0.56557 0.32154 0.0
H137 H 0.73531 0.61876 0.3019 0.0
Co138 Co 0.77951 0.56716 0.37536 0.0
C139 C 0.76882 0.51915 0.43727 0.0
O140 O 0.78854 0.50231 0.42082 0.0
N141 N 0.83215 0.55599 0.4216 0.0
C142 C 0.88716 0.54429 0.49882 0.0
C143 C 0.84922 0.55435 0.47816 0.0
C144 C 0.86073 0.54731 0.40889 0.0
N145 N 0.89439 0.53985 0.45533 0.0
O146 O 0.77209 0.53697 0.32379 0.0
H147 H 0.83473 0.55973 0.50293 0.0
H148 H 0.85665 0.54573 0.36653 0.0
O149 O 0.76278 0.54444 0.42031 0.0
C150 C 0.77302 0.5465 0.28028 0.0
O151 O 0.77923 0.57335 0.27776 0.0
N152 N 0.78711 0.59807 0.42182 0.0
C153 C 0.80018 0.64702 0.48368 0.0
C154 C 0.7748 0.62637 0.48529 0.0
C155 C 0.76802 0.60218 0.45308 0.0
C156 C 0.8117 0.61805 0.41953 0.0
C157 C 0.81853 0.64287 0.45002 0.0
H158 H 0.74677 0.58721 0.45238 0.0
H159 H 0.82572 0.61477 0.39331 0.0
H160 H 0.69236 0.54556 0.33959 0.0
H161 H 0.65669 0.62246 0.25471 0.0
H162 H 0.90791 0.54045 0.54254 0.0
H163 H 0.75944 0.62931 0.5099 0.0
H164 H 0.83801 0.6586 0.4475 0.0
C165 C 0.33345 0.60171 0.21908 0.0
C166 C 0.37411 0.60277 0.24158 0.0
N167 N 0.38601 0.58051 0.22268 0.0
N168 N 0.3197 0.57891 0.18607 0.0
C169 C 0.35245 0.56625 0.18948 0.0
H170 H 0.31486 0.61716 0.22461 0.0
Co171 Co 0.26606 0.57108 0.14018 0.0
C172 C 0.26701 0.52271 0.07185 0.0
O173 O 0.24341 0.5084 0.08536 0.0
N174 N 0.21183 0.56346 0.09297 0.0
C175 C 0.15517 0.55789 0.01415 0.0
C176 C 0.19378 0.56651 0.0366 0.0
C177 C 0.18322 0.55285 0.10374 0.0
N178 N 0.14843 0.54902 0.05618 0.0
O179 O 0.26958 0.54105 0.18973 0.0
H180 H 0.20807 0.57388 0.01278 0.0
H181 H 0.18814 0.54706 0.14523 0.0
O182 O 0.27911 0.54682 0.09332 0.0
C183 C 0.26876 0.55153 0.23266 0.0
O184 O 0.26374 0.57865 0.23416 0.0
N185 N 0.26307 0.60198 0.09615 0.0
C186 C 0.25685 0.6506 0.03627 0.0
C187 C 0.28035 0.62827 0.03544 0.0
C188 C 0.28363 0.60425 0.06652 0.0
C189 C 0.24072 0.6237 0.09838 0.0
C190 C 0.23716 0.64831 0.06863 0.0
H191 H 0.30327 0.58781 0.06749 0.0
H192 H 0.2256 0.62182 0.12346 0.0
H193 H 0.35162 0.54776 0.16583 0.0
H194 H 0.39331 0.61899 0.26883 0.0
H195 H 0.13381 0.55792 0.96996 0.0
H196 H 0.29684 0.62967 0.0121 0.0
H197 H 0.219 0.66528 0.07053 0.0
C198 C 0.33425 0.40936 0.72991 0.0
C199 C 0.37476 0.40979 0.75203 0.0
N200 N 0.38395 0.4253 0.71821 0.0
N201 N 0.31772 0.42447 0.68225 0.0
C202 C 0.34876 0.43419 0.67617 0.0
H203 H 0.31763 0.39819 0.74674 0.0
Co204 Co 0.26298 0.42574 0.64009 0.0
C205 C 0.2442 0.45376 0.53293 0.0
O206 O 0.21534 0.4355 0.50832 0.0
N207 N 0.2066 0.42657 0.60001 0.0
C208 C 0.1429 0.41534 0.56779 0.0
C209 C 0.18106 0.40532 0.59181 0.0
C210 C 0.18284 0.44949 0.58139 0.0
N211 N 0.14404 0.44309 0.56111 0.0
O212 O 0.26193 0.45529 0.68765 0.0
H213 H 0.18899 0.38396 0.60474 0.0
H214 H 0.19392 0.47061 0.58456 0.0
O215 O 0.26606 0.45289 0.58654 0.0
C216 C 0.25254 0.44646 0.72439 0.0
O217 O 0.24189 0.42016 0.72215 0.0
N218 N 0.26599 0.39489 0.5984 0.0
C219 C 0.27044 0.34594 0.54531 0.0
C220 C 0.28329 0.37148 0.53426 0.0
C221 C 0.28203 0.39554 0.5626 0.0
C222 C 0.2578 0.36974 0.61428 0.0
C223 C 0.25873 0.34507 0.58724 0.0
H224 H 0.29495 0.41436 0.55641 0.0
H225 H 0.25076 0.36878 0.64856 0.0
H226 H 0.34568 0.44651 0.64074 0.0
H227 H 0.3959 0.39926 0.78993 0.0
H228 H 0.11633 0.40324 0.5572 0.0
H229 H 0.29505 0.37275 0.50486 0.0
H230 H 0.25001 0.32561 0.59878 0.0
C231 C 0.71427 0.38884 0.82104 0.0
C232 C 0.67402 0.38866 0.80206 0.0
N233 N 0.66316 0.414 0.81201 0.0
N234 N 0.72899 0.41403 0.84369 0.0
C235 C 0.69705 0.42915 0.83696 0.0
H236 H 0.73188 0.3717 0.8185 0.0
Co237 Co 0.7826 0.42267 0.87281 0.0
C238 C 0.80091 0.44987 0.98102 0.0
O239 O 0.83233 0.43361 1.00522 0.0
N240 N 0.83688 0.43111 0.89818 0.0
C241 C 0.89341 0.42998 0.89311 0.0
C242 C 0.85655 0.41845 0.8739 0.0
C243 C 0.86224 0.45154 0.9302 0.0
N244 N 0.89712 0.45087 0.92856 0.0
O245 O 0.76922 0.45146 0.81705 0.0
H246 H 0.84425 0.40243 0.84199 0.0
H247 H 0.85467 0.46776 0.95141 0.0
O248 O 0.7791 0.44887 0.92747 0.0
C249 C 0.76671 0.44069 0.7722 0.0
O250 O 0.77069 0.41345 0.77045 0.0
N251 N 0.79512 0.39228 0.92419 0.0
C252 C 0.80824 0.3438 0.98846 0.0
C253 C 0.78208 0.36448 0.98805 0.0
C254 C 0.77566 0.38845 0.95523 0.0
C255 C 0.81922 0.37161 0.92253 0.0
C256 C 0.82688 0.34761 0.95517 0.0
H257 H 0.75412 0.40362 0.95362 0.0
H258 H 0.83123 0.37265 0.89387 0.0
H259 H 0.69863 0.45068 0.85032 0.0
H260 H 0.65412 0.37136 0.78153 0.0
H261 H 0.91553 0.42375 0.88092 0.0
H262 H 0.76635 0.36198 0.01222 0.0
H263 H 0.84582 0.33151 0.95223 0.0
H264 H 0.34392 0.95957 0.07571 0.0
H265 H 0.22106 0.96362 0.94566 0.0
H266 H 0.20135 0.97981 0.01621 0.0
H267 H 0.32619 0.93594 0.18903 0.0
H268 H 0.36513 0.95725 0.24102 0.0
H269 H 0.36918 0.94461 0.18105 0.0
H270 H 0.37801 0.99535 0.15483 0.0
H271 H 0.37504 0.00794 0.21548 0.0
H272 H 0.3417 0.02154 0.14688 0.0
H273 H 0.19581 -0.00331 0.10124 0.0
H274 H 0.20606 0.01949 0.1895 0.0
H275 H 0.33253 0.00464 0.26259 0.0
C276 C 0.3128 0.96381 0.062 0.0
C277 C 0.28394 0.96024 1.00531 0.0
C278 C 0.24365 0.96637 0.98886 0.0
C279 C 0.23218 0.97524 0.02876 0.0
C280 C 0.2614 0.97793 0.08468 0.0
C281 C 0.30098 0.97283 0.101 0.0
C282 C 0.3271 0.97919 0.16262 0.0
C283 C 0.34813 0.95266 0.19534 0.0
C284 C 0.35721 0.00239 0.17038 0.0
C285 C 0.29616 0.98915 0.17853 0.0
C286 C 0.25831 0.98776 0.13331 0.0
C287 C 0.22519 -0.00255 0.13707 0.0
C288 C 0.23116 0.01003 0.18745 0.0
C289 C 0.26985 0.01276 0.233 0.0
C290 C 0.30254 0.00163 0.22897 0.0
H291 H 0.76681 0.04894 0.33421 0.0
H292 H 0.74829 0.98074 0.21822 0.0
H293 H 0.74433 0.94757 0.28594 0.0
H294 H 0.82809 0.00981 0.46246 0.0
H295 H 0.80732 0.02731 0.50178 0.0
H296 H 0.81022 0.04525 0.44522 0.0
H297 H 0.73451 0.05494 0.39794 0.0
H298 H 0.73132 0.037 0.45421 0.0
H299 H 0.70057 0.02609 0.38258 0.0
H300 H 0.7374 0.9229 0.36289 0.0
H301 H 0.73111 0.90746 0.44518 0.0
H302 H 0.75728 0.99154 0.51372 0.0
C303 C 0.76209 0.02699 0.32303 0.0
C304 C 0.75762 0.01735 0.27078 0.0
C305 C 0.75185 0.98849 0.25802 0.0
C306 C 0.74954 0.96958 0.29619 0.0
C307 C 0.75367 0.97989 0.3471 0.0
C308 C 0.76024 0.00788 0.3608 0.0
C309 C 0.76316 0.01372 0.41786 0.0
C310 C 0.80467 0.02467 0.45928 0.0
C311 C 0.73044 0.03414 0.41281 0.0
C312 C 0.75634 0.98467 0.43386 0.0
C313 C 0.75091 0.96552 0.39232 0.0
C314 C 0.74202 0.93765 0.39585 0.0
C315 C 0.7383 0.92915 0.44269 0.0
C316 C 0.74374 0.94834 0.48584 0.0
C317 C 0.75346 0.9764 0.48171 0.0
H318 H 0.7076 0.95129 0.77775 0.0
H319 H 0.79701 0.00231 0.766 0.0
H320 H 0.80925 0.02689 0.85381 0.0
H321 H 0.67031 0.00567 0.84081 0.0
H322 H 0.66306 0.97993 0.88381 0.0
H323 H 0.65761 0.9702 0.81608 0.0
H324 H 0.70942 0.93072 0.86341 0.0
H325 H 0.71595 0.94077 0.93141 0.0
H326 H 0.75824 0.93939 0.91878 0.0
H327 H 0.81758 0.04093 0.95043 0.0
H328 H 0.81608 0.04706 0.04026 0.0
H329 H 0.72128 0.98587 0.9871 0.0
C330 C 0.72878 0.96834 0.7926 0.0
C331 C 0.75108 0.97519 0.76496 0.0
C332 C 0.77903 -0.00277 0.78598 0.0
C333 C 0.78642 0.01103 0.83611 0.0
C334 C 0.76524 0.00268 0.86398 0.0
C335 C 0.73635 0.98221 0.84212 0.0
C336 C 0.71929 0.97566 0.88123 0.0
C337 C 0.67494 0.98334 0.85386 0.0
C338 C 0.72616 0.94481 0.89978 0.0
C339 C 0.74388 0.99499 0.92957 0.0
C340 C 0.7701 0.01055 0.91892 0.0
C341 C 0.79671 0.02914 0.95864 0.0
C342 C 0.79577 0.03237 0.00975 0.0
C343 C 0.76847 0.01703 0.02087 0.0
C344 C 0.74259 -0.0021 0.98021 0.0
H345 H 0.26952 0.94916 0.6697 0.0
H346 H 0.30503 0.01523 0.79414 0.0
H347 H 0.30923 0.04821 0.72617 0.0
H348 H 0.33247 0.96552 0.61525 0.0
H349 H 0.29789 0.95759 0.54318 0.0
H350 H 0.29351 0.94027 0.59906 0.0
H351 H 0.22068 0.95731 0.55852 0.0
H352 H 0.22465 0.97449 0.50203 0.0
H353 H 0.2097 0.99412 0.54593 0.0
H354 H 0.31819 0.0715 0.64945 0.0
H355 H 0.32572 0.08518 0.56704 0.0
H356 H 0.28056 0.00438 0.49034 0.0
C357 C 0.27753 0.97073 0.68229 0.0
C358 C 0.28708 0.97981 0.73698 0.0
C359 C 0.29732 0.00808 0.75217 0.0
C360 C 0.29985 0.02682 0.71393 0.0
C361 C 0.29117 0.01695 0.66063 0.0
C362 C 0.27948 0.98968 0.64449 0.0
C363 C 0.27323 0.98391 0.58571 0.0
C364 C 0.30094 0.96044 0.58586 0.0
C365 C 0.22946 0.97706 0.54568 0.0
C366 C 0.28475 0.01192 0.57186 0.0
C367 C 0.29493 0.03069 0.61563 0.0
C368 C 0.3096 0.05717 0.61459 0.0
C369 C 0.31405 0.06463 0.56779 0.0
C370 C 0.30361 0.04579 0.52241 0.0
C371 C 0.2882 0.01926 0.52414 0.0
H372 H 0.81962 0.50481 0.27272 0.0
H373 H 0.71114 0.55158 0.17633 0.0
H374 H 0.7045 0.53062 0.08851 0.0
H375 H 0.85767 0.51465 0.17975 0.0
H376 H 0.88006 0.48056 0.1885 0.0
H377 H 0.87335 0.49569 0.24447 0.0
H378 H 0.83338 0.45226 0.24597 0.0
H379 H 0.8406 0.43672 0.19065 0.0
H380 H 0.79111 0.44099 0.18195 0.0
H381 H 0.71305 0.50782 0.01033 0.0
H382 H 0.73467 0.48326 0.94861 0.0
H383 H 0.83902 0.45283 0.09598 0.0
C384 C 0.79369 0.50964 0.23325 0.0
C385 C 0.76514 0.52906 0.23109 0.0
C386 C 0.73265 0.53613 0.17863 0.0
C387 C 0.7288 0.52447 0.1286 0.0
C388 C 0.75801 0.50598 0.1317 0.0
C389 C 0.78969 0.4984 0.18272 0.0
C390 C 0.81857 0.47983 0.17406 0.0
C391 C 0.85984 0.49351 0.19812 0.0
C392 C 0.82104 0.45072 0.19967 0.0
C393 C 0.79853 0.47851 0.11042 0.0
C394 C 0.76352 0.49357 0.08669 0.0
C395 C 0.7403 0.49579 0.0285 0.0
C396 C 0.75292 0.48191 0.99371 0.0
C397 C 0.78859 0.46616 0.01719 0.0
C398 C 0.81161 0.4647 0.07642 0.0
H399 H 0.22537 0.50783 0.24119 0.0
H400 H 0.32771 0.56033 0.33745 0.0
H401 H 0.33454 0.54001 0.42572 0.0
H402 H 0.18346 0.51594 0.33042 0.0
H403 H 0.16476 0.48076 0.32335 0.0
H404 H 0.17114 0.4962 0.26742 0.0
H405 H 0.2164 0.45498 0.27088 0.0
H406 H 0.20957 0.43913 0.3262 0.0
H407 H 0.25898 0.446 0.33656 0.0
H408 H 0.3269 0.51672 0.50394 0.0
H409 H 0.30664 0.49079 0.56563 0.0
H410 H 0.20745 0.45524 0.41812 0.0
C411 C 0.25003 0.51416 0.28086 0.0
C412 C 0.27671 0.53503 0.28286 0.0
C413 C 0.30756 0.54389 0.3354 0.0
C414 C 0.31154 0.53257 0.38566 0.0
C415 C 0.28409 0.51261 0.38267 0.0
C416 C 0.25406 0.50332 0.33162 0.0
C417 C 0.22673 0.48329 0.34026 0.0
C418 C 0.18401 0.49475 0.31379 0.0
C419 C 0.22801 0.45412 0.31712 0.0
C420 C 0.24574 0.48309 0.40386 0.0
C421 C 0.27895 0.49996 0.42764 0.0
C422 C 0.30104 0.5033 0.48578 0.0
C423 C 0.2892 0.48864 0.52052 0.0
C424 C 0.25541 0.47103 0.49695 0.0
C425 C 0.23341 0.46854 0.43775 0.0
H426 H 0.23062 0.47942 0.99787 0.0
H427 H 0.31727 0.5457 0.03653 0.0
H428 H 0.32074 0.53516 0.94958 0.0
H429 H 0.27601 0.43114 0.94027 0.0
H430 H 0.22879 0.41805 0.88747 0.0
H431 H 0.23384 0.43081 0.95326 0.0
H432 H 0.17563 0.4653 0.89926 0.0
H433 H 0.17085 0.45298 0.83334 0.0
H434 H 0.17846 0.48968 0.85042 0.0
H435 H 0.31204 0.51872 0.85481 0.0
H436 H 0.29787 0.49391 0.76665 0.0
H437 H 0.21903 0.43757 0.79248 0.0
C438 C 0.25077 0.4915 0.98857 0.0
C439 C 0.27326 0.51369 0.02389 0.0
C440 C 0.29917 0.52894 0.00983 0.0
C441 C 0.30141 0.52308 0.96045 0.0
C442 C 0.27786 0.50168 0.92566 0.0
C443 C 0.25356 0.48581 0.93962 0.0
C444 C 0.23169 0.46371 0.89549 0.0
C445 C 0.24329 0.43418 0.92063 0.0
C446 C 0.18648 0.4682 0.86802 0.0
C447 C 0.2474 0.46967 0.8545 0.0
C448 C 0.27371 0.49181 0.87224 0.0
C449 C 0.29163 0.50125 0.84069 0.0
C450 C 0.2832 0.48719 0.79047 0.0
C451 C 0.25741 0.46382 0.77272 0.0
C452 C 0.23898 0.45533 0.80497 0.0
H453 H 0.79199 0.42689 0.69691 0.0
H454 H 0.73195 0.49273 0.73829 0.0
H455 H 0.72248 0.51905 0.65351 0.0
H456 H 0.8448 0.4725 0.64966 0.0
H457 H 0.8413 0.44876 0.59563 0.0
H458 H 0.84192 0.43532 0.65825 0.0
H459 H 0.77566 0.4094 0.59724 0.0
H460 H 0.77461 0.42301 0.53442 0.0
H461 H 0.7331 0.42892 0.54756 0.0
H462 H 0.71778 0.53692 0.56136 0.0
H463 H 0.72499 0.54777 0.47746 0.0
H464 H 0.79204 0.47111 0.501 0.0
C465 C 0.77667 0.44682 0.68812 0.0
C466 C 0.76227 0.4577 0.72378 0.0
C467 C 0.74314 0.48406 0.71143 0.0
C468 C 0.73748 0.49901 0.66327 0.0
C469 C 0.75166 0.48742 0.62856 0.0
C470 C 0.77141 0.4621 0.64104 0.0
C471 C 0.78546 0.45463 0.59878 0.0
C472 C 0.83107 0.4527 0.62729 0.0
C473 C 0.76603 0.42737 0.56766 0.0
C474 C 0.77032 0.47963 0.56 0.0
C475 C 0.75054 0.49818 0.57749 0.0
C476 C 0.73366 0.52268 0.54786 0.0
C477 C 0.73808 0.52872 0.50024 0.0
C478 C 0.75976 0.51061 0.48296 0.0
C479 C 0.77535 0.48547 0.51289 0.0
H480 H 0.62252 0.98349 0.58181 0.0
H481 H 0.57556 0.90516 0.49433 0.0
H482 H 0.5084 0.92551 0.44715 0.0
H483 H 0.53965 0.00015 0.60464 0.0
H484 H 0.5407 0.03719 0.59303 0.0
H485 H 0.58576 0.01694 0.61915 0.0
H486 H 0.59658 0.03401 0.53646 0.0
H487 H 0.55166 0.05445 0.51028 0.0
H488 H 0.55772 0.02913 0.46539 0.0
H489 H 0.44549 0.95361 0.41105 0.0
H490 H 0.39189 0.98843 0.38563 0.0
H491 H 0.47827 0.04902 0.49548 0.0
C492 C 0.59817 0.97079 0.55218 0.0
C493 C 0.60451 0.94255 0.54228 0.0
C494 C 0.57159 0.92662 0.50351 0.0
C495 C 0.53322 0.93805 0.47619 0.0
C496 C 0.52781 0.96564 0.48767 0.0
C497 C 0.55934 0.98193 0.52443 0.0
C498 C 0.54495 0.01094 0.52959 0.0
C499 C 0.55326 0.01663 0.59021 0.0
C500 C 0.56385 0.03346 0.5092 0.0
C501 C 0.50058 0.0083 0.49012 0.0
C502 C 0.49137 0.98195 0.46652 0.0
C503 C 0.45236 0.97435 0.42927 0.0
C504 C 0.42197 0.99424 0.41537 0.0
C505 C 0.43054 0.02157 0.43843 0.0
C506 C 0.47056 0.02848 0.47652 0.0
H507 H 0.47829 0.94626 0.01414 0.0
H508 H 0.39339 0.0066 0.90017 0.0
H509 H 0.44766 0.04036 0.92406 0.0
H510 H 0.54349 -0.00347 0.12023 0.0
H511 H 0.5882 0.97793 0.13363 0.0
H512 H 0.54232 0.9591 0.11132 0.0
H513 H 0.54911 0.93817 0.02783 0.0
H514 H 0.59499 0.95687 0.04992 0.0
H515 H 0.55494 0.9613 0.97958 0.0
H516 H 0.51157 0.06647 0.9544 0.0
H517 H 0.58041 0.08306 0.98924 0.0
H518 H 0.62507 0.00627 0.08356 0.0
C519 C 0.47087 0.96657 0.99423 0.0
C520 C 0.43102 0.97355 0.95517 0.0
C521 C 0.42316 0.00062 0.93076 0.0
C522 C 0.45398 0.02 0.94392 0.0
C523 C 0.49277 0.01225 0.98187 0.0
C524 C 0.50134 0.98621 1.00688 0.0
C525 C 0.54588 0.98274 0.04445 0.0
C526 C 0.55553 0.97885 0.10607 0.0
C527 C 0.56218 0.95832 0.02422 0.0
C528 C 0.5611 0.01071 0.03579 0.0
C529 C 0.52981 0.02742 0.99971 0.0
C530 C 0.5362 0.05364 0.98304 0.0
C531 C 0.57544 0.06287 1.00292 0.0
C532 C 0.60814 0.04608 0.03932 0.0
C533 C 0.60071 0.01979 0.05667 0.0
H534 H 0.93656 0.49718 0.52163 0.0
H535 H 0.93337 0.55624 0.39829 0.0
H536 H 0.99892 0.53863 0.41284 0.0
H537 H 0.0394 0.50149 0.61679 0.0
H538 H 0.04486 0.46475 0.63377 0.0
H539 H 0.99782 0.48179 0.61244 0.0
H540 H 0.96303 0.44563 0.53227 0.0
H541 H 1.00989 0.42829 0.55372 0.0
H542 H 0.98125 0.44029 0.48239 0.0
H543 H 0.0679 0.51596 0.44744 0.0
H544 H 0.12892 0.48652 0.48923 0.0
H545 H 0.08344 0.4415 0.58562 0.0
C546 C 0.94966 0.50631 0.49758 0.0
C547 C 0.93032 0.52816 0.4592 0.0
C548 C 0.94787 0.53939 0.42772 0.0
C549 C 0.98509 0.52964 0.43605 0.0
C550 C 1.00385 0.5084 0.47534 0.0
C551 C 0.98623 0.49658 0.50477 0.0
C552 C 1.01165 0.47366 0.54366 0.0
C553 C 0.02417 0.48087 0.6053 0.0
C554 C 0.99017 0.44529 0.52699 0.0
C555 C 0.04667 0.47449 0.53216 0.0
C556 C 0.04206 0.49482 0.49316 0.0
C557 C 0.07154 0.49982 0.47756 0.0
C558 C 0.10613 0.48322 0.50166 0.0
C559 C 0.1105 0.46172 0.54012 0.0
C560 C 0.08049 0.45758 0.55571 0.0
H561 H 0.0948 0.52055 0.96533 0.0
H562 H 0.11987 0.54796 0.13187 0.0
H563 H 0.05602 0.52722 0.1171 0.0
H564 H 0.99033 0.53487 0.89701 0.0
H565 H 0.97842 0.50471 0.85183 0.0
H566 H 0.02586 0.52163 0.87658 0.0
H567 H 0.06174 0.47461 0.9179 0.0
H568 H 1.01445 0.45752 0.89308 0.0
H569 H 0.05054 0.45565 0.96634 0.0
H570 H 0.9873 0.50311 0.08111 0.0
H571 H 0.92472 0.47591 0.03095 0.0
H572 H 0.94685 0.46678 0.88856 0.0
C573 C 0.08685 0.52264 0.99863 0.0
C574 C 0.1122 0.53626 0.04952 0.0
C575 C 0.10097 0.53759 0.09254 0.0
C576 C 0.06465 0.52603 0.08433 0.0
C577 C 0.04005 0.51319 0.03295 0.0
C578 C 0.05103 0.51139 0.9911 0.0
C579 C 1.02032 0.49621 0.94 0.0
C580 C 1.00269 0.51552 0.88832 0.0
C581 C 0.03781 0.46941 0.92871 0.0
C582 C 0.99014 0.48955 0.95936 0.0
C583 C 1.00164 0.49952 0.01289 0.0
C584 C 0.97814 0.49529 0.03917 0.0
C585 C 0.94255 0.48001 0.01032 0.0
C586 C 0.93108 0.46905 0.95606 0.0
C587 C 0.95502 0.47447 0.93029 0.0
H588 H 0.08417 0.06434 0.21383 0.0
H589 H 0.1532 0.0539 0.39445 0.0
H590 H 0.09113 0.04876 0.40062 0.0
H591 H 1.00848 0.10625 0.21601 0.0
H592 H 0.96879 0.09126 0.15343 0.0
H593 H 1.0186 0.09171 0.16245 0.0
H594 H 1.016 0.03801 0.14839 0.0
H595 H 0.96614 0.03738 0.13941 0.0
H596 H 1.00413 0.0158 0.19226 0.0
H597 H 1.02146 0.0484 0.38831 0.0
H598 H 0.9498 0.05254 0.35857 0.0
H599 H 0.9252 0.06348 0.18595 0.0
C600 C 0.08648 0.06092 0.25481 0.0
C601 C 0.12409 0.05957 0.30374 0.0
C602 C 0.12518 0.0547 0.35621 0.0
C603 C 0.08992 0.05185 0.36017 0.0
C604 C 0.05354 0.05374 0.31127 0.0
C605 C 0.05156 0.05804 0.25952 0.0
C606 C 1.00864 0.06038 0.21367 0.0
C607 C 1.00067 0.08911 0.1847 0.0
C608 C 0.99812 0.03647 0.17091 0.0
C609 C 0.98673 0.05731 0.24787 0.0
C610 C 1.01328 0.05333 0.30406 0.0
C611 C 1.00047 0.05126 0.34438 0.0
C612 C 0.95969 0.05373 0.32711 0.0
C613 C 0.93183 0.0582 0.26995 0.0
C614 C 0.94564 0.05954 0.22973 0.0
H615 H 0.12072 0.95135 0.81605 0.0
H616 H 0.10419 0.88592 0.69541 0.0
H617 H 0.03331 0.88359 0.66843 0.0
H618 H 0.05023 0.92148 0.85943 0.0
H619 H 0.03205 0.95514 0.8672 0.0
H620 H 0.08227 0.95164 0.87843 0.0
H621 H 0.06885 0.99027 0.80451 0.0
H622 H 1.01847 0.99367 0.79261 0.0
H623 H 0.02801 0.98633 0.73463 0.0
H624 H 0.96346 0.88986 0.64906 0.0
H625 H 0.89956 0.90068 0.64685 0.0
H626 H 0.95903 0.96034 0.78228 0.0
C627 C 0.10224 0.93631 0.78459 0.0
C628 C 0.11821 0.91924 0.7571 0.0
C629 C 0.0928 0.89981 0.71608 0.0
C630 C 0.05233 0.89818 0.70053 0.0
C631 C 0.03724 0.91584 0.72676 0.0
C632 C 0.06133 0.93421 0.76862 0.0
C633 C 0.03692 0.95054 0.79004 0.0
C634 C 0.05122 0.94432 0.85249 0.0
C635 C 0.03814 0.98207 0.77983 0.0
C636 C 0.9956 0.93857 0.75331 0.0
C637 C 0.9966 0.91876 0.71683 0.0
C638 C 0.96228 0.90522 0.67769 0.0
C639 C 0.92598 0.9117 0.67633 0.0
C640 C 0.92407 0.93139 0.71419 0.0
C641 C 0.95952 0.94506 0.75302 0.0
H642 H 0.44381 0.61844 0.24097 0.0
H643 H 0.41803 0.52957 0.22377 0.0
H644 H 0.48582 0.51986 0.23785 0.0
H645 H 0.5017 0.61891 0.16829 0.0
H646 H 0.53628 0.64476 0.21377 0.0
H647 H 0.48592 0.64453 0.20268 0.0
H648 H 0.51163 0.64111 0.31007 0.0
H649 H 0.56206 0.64147 0.32151 0.0
H650 H 0.54521 0.61326 0.34914 0.0
H651 H 0.55741 0.52008 0.2561 0.0
H652 H 0.62605 0.53028 0.2746 0.0
H653 H 0.60395 0.61904 0.27883 0.0
C654 C 0.45249 0.59691 0.24074 0.0
C655 C 0.42565 0.57473 0.23158 0.0
C656 C 0.438 0.54688 0.23038 0.0
C657 C 0.47647 0.54118 0.23854 0.0
C658 C 0.50214 0.56358 0.24745 0.0
C659 C 0.49057 0.59089 0.24839 0.0
C660 C 0.52353 0.61126 0.25816 0.0
C661 C 0.5111 0.63103 0.20771 0.0
C662 C 0.53636 0.62774 0.31299 0.0
C663 C 0.55564 0.59116 0.26295 0.0
C664 C 0.54282 0.56374 0.25681 0.0
C665 C 0.56769 0.54149 0.26081 0.0
C666 C 0.60665 0.54746 0.27155 0.0
C667 C 0.62034 0.57544 0.27789 0.0
C668 C 0.59424 0.59748 0.27323 0.0
H669 H 0.60686 0.38155 0.81602 0.0
H670 H 0.62915 0.46518 0.77615 0.0
H671 H 0.55862 0.47777 0.74507 0.0
H672 H 0.51024 0.37317 0.70068 0.0
H673 H 0.4913 0.35421 0.74058 0.0
H674 H 0.54335 0.35245 0.76031 0.0
H675 H 0.56137 0.3694 0.86073 0.0
H676 H 0.50938 0.37097 0.84147 0.0
H677 H 0.54016 0.40151 0.86968 0.0
H678 H 0.4833 0.47968 0.71352 0.0
H679 H 0.41355 0.47218 0.69436 0.0
H680 H 0.44348 0.38751 0.75744 0.0
C681 C 0.59691 0.40252 0.80071 0.0
C682 C 0.62328 0.42236 0.79805 0.0
C683 C 0.60938 0.44975 0.77876 0.0
C684 C 0.56937 0.45697 0.7607 0.0
C685 C 0.54391 0.43661 0.76286 0.0
C686 C 0.55747 0.41005 0.78317 0.0
C687 C 0.52481 0.39193 0.78231 0.0
C688 C 0.51697 0.36644 0.74366 0.0
C689 C 0.53451 0.38294 0.8421 0.0
C690 C 0.4905 0.4123 0.75804 0.0
C691 C 0.50174 0.43793 0.74652 0.0
C692 C 0.47437 0.45973 0.72281 0.0
C693 C 0.43484 0.45528 0.71171 0.0
C694 C 0.42334 0.42939 0.72497 0.0
C695 C 0.45159 0.40767 0.74776 0.0
H696 H 0.2939 0.29278 0.5865 0.0
H697 H 0.24527 0.34143 0.43268 0.0
H698 H 0.2428 0.29886 0.37925 0.0
H699 H 0.35489 0.24705 0.55279 0.0
H700 H 0.34564 0.21676 0.58457 0.0
H701 H 0.34441 0.2512 0.61083 0.0
H702 H 0.27313 0.24197 0.59562 0.0
H703 H 0.27411 0.20753 0.56924 0.0
H704 H 0.23487 0.23158 0.52714 0.0
H705 H 0.2436 0.25087 0.34227 0.0
H706 H 0.24865 0.20079 0.32436 0.0
H707 H 0.29768 0.18367 0.50265 0.0
C708 C 0.28255 0.29446 0.54154 0.0
C709 C 0.26978 0.32041 0.51371 0.0
C710 C 0.25565 0.32181 0.45493 0.0
C711 C 0.25394 0.29775 0.4242 0.0
C712 C 0.26659 0.2725 0.45292 0.0
C713 C 0.28074 0.27069 0.51026 0.0
C714 C 0.2923 0.24098 0.53092 0.0
C715 C 0.33697 0.23889 0.57221 0.0
C716 C 0.26709 0.22987 0.55727 0.0
C717 C 0.28211 0.22632 0.47612 0.0
C718 C 0.26737 0.24487 0.43166 0.0
C719 C 0.25541 0.23616 0.3768 0.0
C720 C 0.25864 0.2077 0.36712 0.0
C721 C 0.27379 0.18829 0.41214 0.0
C722 C 0.28568 0.19789 0.46728 0.0
H723 H 0.75105 0.3099 0.99007 0.0
H724 H 0.87843 0.31749 0.05499 0.0
H725 H 0.88783 0.27034 0.09674 0.0
H726 H 0.75472 0.26903 0.10947 0.0
H727 H 0.71267 0.24791 0.06386 0.0
H728 H 0.71643 0.28349 0.04487 0.0
H729 H 0.70972 0.26618 0.94987 0.0
H730 H 0.70638 0.23057 0.96874 0.0
H731 H 0.74397 0.24026 0.94956 0.0
H732 H 0.88297 0.22115 0.12322 0.0
H733 H 0.86444 0.17334 0.13622 0.0
H734 H 0.74006 0.19739 0.05376 0.0
C735 C 0.78097 0.30193 0.01453 0.0
C736 C 0.81408 0.31732 0.0197 0.0
C737 C 0.85273 0.30595 0.05059 0.0
C738 C 0.85834 0.27927 0.07455 0.0
C739 C 0.825 0.26431 0.06735 0.0
C740 C 0.78708 0.27527 0.03853 0.0
C741 C 0.75615 0.25407 0.03367 0.0
C742 C 0.73367 0.26424 0.06484 0.0
C743 C 0.72738 0.24738 0.97179 0.0
C744 C 0.78256 0.2293 0.06312 0.0
C745 C 0.82218 0.23574 0.08251 0.0
C746 C 0.85209 0.21592 0.10873 0.0
C747 C 0.84125 0.18878 0.11544 0.0
C748 C 0.80083 0.18168 0.09585 0.0
C749 C 0.77121 0.20233 0.06973 0.0
H750 H 0.78187 0.69976 0.44121 0.0
H751 H 0.83056 0.65292 0.59681 0.0
H752 H 0.83843 0.69693 0.64976 0.0
H753 H 0.84206 0.76264 0.4951 0.0
H754 H 0.80161 0.78583 0.45294 0.0
H755 H 0.80304 0.75104 0.4282 0.0
H756 H 0.73296 0.74113 0.4171 0.0
H757 H 0.7313 0.77587 0.44166 0.0
H758 H 0.72411 0.74598 0.47646 0.0
H759 H 0.84031 0.74601 0.68497 0.0
H760 H 0.83162 0.79583 0.69991 0.0
H761 H 0.77602 0.80972 0.51969 0.0
C762 C 0.79473 0.69896 0.48653 0.0
C763 C 0.80617 0.67325 0.51537 0.0
C764 C 0.82194 0.67262 0.57439 0.0
C765 C 0.82659 0.69744 0.60463 0.0
C766 C 0.81481 0.72253 0.57494 0.0
C767 C 0.79886 0.72344 0.51716 0.0
C768 C 0.78593 0.75277 0.49496 0.0
C769 C 0.80958 0.76371 0.4661 0.0
C770 C 0.74091 0.754 0.45522 0.0
C771 C 0.79696 0.76824 0.54924 0.0
C772 C 0.81406 0.75052 0.59493 0.0
C773 C 0.82668 0.76005 0.64945 0.0
C774 C 0.82125 0.7884 0.65741 0.0
C775 C 0.80272 0.80687 0.61099 0.0
C776 C 0.79076 0.79646 0.55629 0.0
H777 H 0.27905 0.81355 0.99789 0.0
H778 H 0.24579 0.79603 0.8234 0.0
H779 H 0.23772 0.7462 0.83872 0.0
H780 H 0.33372 0.75148 0.05615 0.0
H781 H 0.31658 0.74714 0.10743 0.0
H782 H 0.31938 0.78159 0.0827 0.0
H783 H 0.24494 0.78978 0.05298 0.0
H784 H 0.24191 0.75534 0.07772 0.0
H785 H 0.20843 0.76524 1.00633 0.0
H786 H 0.23626 0.698 0.8739 0.0
H787 H 0.23884 0.65488 0.92616 0.0
H788 H 0.26914 0.70423 0.07574 0.0
C789 C 0.26954 0.79936 0.96263 0.0
C790 C 0.26347 0.80876 0.90958 0.0
C791 C 0.25153 0.78932 0.86481 0.0
C792 C 0.2465 0.76098 0.87291 0.0
C793 C 0.25304 0.75243 0.92581 0.0
C794 C 0.26397 0.77106 0.96979 0.0
C795 C 0.26934 0.75643 0.02257 0.0
C796 C 0.31231 0.75933 0.06999 0.0
C797 C 0.23936 0.76735 0.04096 0.0
C798 C 0.26015 0.72662 1.00151 0.0
C799 C 0.25093 0.72475 0.94561 0.0
C800 C 0.24304 0.6992 0.91752 0.0
C801 C 0.24471 0.67488 0.94747 0.0
C802 C 0.25386 0.67641 1.00462 0.0
C803 C 0.26141 0.70262 0.03177 0.0
loop_
_geom_bond_atom_site_label_1
_geom_bond_atom_site_label_2
_geom_bond_distance
_geom_bond_site_symmetry_2
_ccdc_geom_bond_type
C0 C1 1.351 . S
C0 N3 1.368 . S
C0 H5 0.931 . S
C1 C0 1.351 . S
C1 N2 1.373 . S
C1 H29 0.930 . S
N2 C1 1.373 . S
N2 C4 1.340 . S
N3 C0 1.368 . S
N3 C4 1.321 . S
N3 Co6 2.135 . S
C4 N2 1.340 . S
C4 N3 1.321 . S
C4 H28 0.930 . S
H5 C0 0.931 . S
Co6 N3 2.135 . S
Co6 N9 2.121 . S
Co6 O14 2.055 . S
Co6 O17 2.039 . S
Co6 N20 2.140 . S
C7 O8 1.227 . S
C7 O17 1.265 . S
O8 C7 1.227 . S
N9 Co6 2.121 . S
N9 C11 1.375 . S
N9 C12 1.313 . S
C10 C11 1.338 . S
C10 N13 1.377 . S
C10 H30 0.930 . S
C11 N9 1.375 . S
C11 C10 1.338 . S
C11 H15 0.931 . S
C12 N9 1.313 . S
C12 N13 1.344 . S
C12 H16 0.930 . S
N13 C10 1.377 . S
N13 C12 1.344 . S
O14 Co6 2.055 . S
O14 C18 1.253 . S
H15 C11 0.931 . S
H16 C12 0.930 . S
O17 Co6 2.039 . S
O17 C7 1.265 . S
C18 O14 1.253 . S
C18 O19 1.227 . S
O19 C18 1.227 . S
N20 Co6 2.140 . S
N20 C23 1.346 . S
N20 C24 1.345 . S
C21 C22 1.387 . S
C21 C25 1.391 . S
C22 C21 1.387 . S
C22 C23 1.369 . S
C22 H31 0.929 . S
C23 N20 1.346 . S
C23 C22 1.369 . S
C23 H26 0.928 . S
C24 N20 1.345 . S
C24 C25 1.371 . S
C24 H27 0.931 . S
C25 C21 1.391 . S
C25 C24 1.371 . S
C25 H32 0.930 . S
H26 C23 0.928 . S
H27 C24 0.931 . S
H28 C4 0.930 . S
H29 C1 0.930 . S
H30 C10 0.930 . S
H31 C22 0.929 . S
H32 C25 0.930 . S
C33 C34 1.351 . S
C33 N36 1.368 . S
C33 H38 0.931 . S
C34 C33 1.351 . S
C34 N35 1.373 . S
C34 H62 0.930 . S
N35 C34 1.373 . S
N35 C37 1.340 . S
N36 C33 1.368 . S
N36 C37 1.321 . S
N36 Co39 2.135 . S
C37 N35 1.340 . S
C37 N36 1.321 . S
C37 H61 0.930 . S
H38 C33 0.931 . S
Co39 N36 2.135 . S
Co39 N42 2.121 . S
Co39 O47 2.055 . S
Co39 O50 2.039 . S
Co39 N53 2.140 . S
C40 O41 1.227 1_554 S
C40 O50 1.265 . S
O41 C40 1.227 1_556 S
N42 Co39 2.121 . S
N42 C44 1.375 1_554 S
N42 C45 1.313 . S
C43 C44 1.338 . S
C43 N46 1.377 1_556 S
C43 H63 0.930 . S
C44 N42 1.375 1_556 S
C44 C43 1.338 . S
C44 H48 0.931 . S
C45 N42 1.313 . S
C45 N46 1.344 . S
C45 H49 0.930 . S
N46 C43 1.377 1_554 S
N46 C45 1.344 . S
O47 Co39 2.055 . S
O47 C51 1.253 . S
H48 C44 0.931 . S
H49 C45 0.930 . S
O50 Co39 2.039 . S
O50 C40 1.265 . S
C51 O47 1.253 . S
C51 O52 1.227 . S
O52 C51 1.227 . S
N53 Co39 2.140 . S
N53 C56 1.346 . S
N53 C57 1.345 . S
C54 C55 1.387 . S
C54 C58 1.391 . S
C55 C54 1.387 . S
C55 C56 1.369 . S
C55 H64 0.929 . S
C56 N53 1.346 . S
C56 C55 1.369 . S
C56 H59 0.928 . S
C57 N53 1.345 . S
C57 C58 1.371 . S
C57 H60 0.931 . S
C58 C54 1.391 . S
C58 C57 1.371 . S
C58 H65 0.930 . S
H59 C56 0.928 . S
H60 C57 0.931 . S
H61 C37 0.930 . S
H62 C34 0.930 . S
H63 C43 0.930 . S
H64 C55 0.929 . S
H65 C58 0.930 . S
C66 C67 1.351 . S
C66 N69 1.368 . S
C66 H71 0.931 . S
C67 C66 1.351 . S
C67 N68 1.373 . S
C67 H95 0.930 . S
N68 C67 1.373 . S
N68 C70 1.340 . S
N69 C66 1.368 . S
N69 C70 1.321 . S
N69 Co72 2.135 . S
C70 N68 1.340 . S
C70 N69 1.321 . S
C70 H94 0.930 . S
H71 C66 0.931 . S
Co72 N69 2.135 . S
Co72 N75 2.121 . S
Co72 O80 2.055 . S
Co72 O83 2.039 . S
Co72 N86 2.140 . S
C73 O74 1.227 . S
C73 O83 1.265 . S
O74 C73 1.227 . S
N75 Co72 2.121 . S
N75 C77 1.375 . S
N75 C78 1.313 . S
C76 C77 1.338 . S
C76 N79 1.377 . S
C76 H96 0.930 . S
C77 N75 1.375 . S
C77 C76 1.338 . S
C77 H81 0.931 . S
C78 N75 1.313 . S
C78 N79 1.344 . S
C78 H82 0.930 . S
N79 C76 1.377 . S
N79 C78 1.344 . S
O80 Co72 2.055 . S
O80 C84 1.253 . S
H81 C77 0.931 . S
H82 C78 0.930 . S
O83 Co72 2.039 . S
O83 C73 1.265 . S
C84 O80 1.253 . S
C84 O85 1.227 . S
O85 C84 1.227 . S
N86 Co72 2.140 . S
N86 C89 1.346 . S
N86 C90 1.345 . S
C87 C88 1.387 . S
C87 C91 1.391 . S
C88 C87 1.387 . S
C88 C89 1.369 . S
C88 H97 0.929 . S
C89 N86 1.346 . S
C89 C88 1.369 . S
C89 H92 0.928 . S
C90 N86 1.345 . S
C90 C91 1.371 . S
C90 H93 0.931 . S
C91 C87 1.391 . S
C91 C90 1.371 . S
C91 H98 0.930 . S
H92 C89 0.928 . S
H93 C90 0.931 . S
H94 C70 0.930 . S
H95 C67 0.930 . S
H96 C76 0.930 . S
H97 C88 0.929 . S
H98 C91 0.930 . S
C99 C100 1.351 . S
C99 N102 1.368 . S
C99 H104 0.931 . S
C100 C99 1.351 . S
C100 N101 1.373 . S
C100 H128 0.930 . S
N101 C100 1.373 . S
N101 C103 1.340 . S
N102 C99 1.368 . S
N102 C103 1.321 . S
N102 Co105 2.135 . S
C103 N101 1.340 . S
C103 N102 1.321 . S
C103 H127 0.930 . S
H104 C99 0.931 . S
Co105 N102 2.135 . S
Co105 N108 2.121 . S
Co105 O113 2.055 . S
Co105 O116 2.039 . S
Co105 N119 2.140 . S
C106 O107 1.227 1_556 S
C106 O116 1.265 . S
O107 C106 1.227 1_554 S
N108 Co105 2.121 . S
N108 C110 1.375 1_556 S
N108 C111 1.313 . S
C109 C110 1.338 . S
C109 N112 1.377 1_554 S
C109 H129 0.930 . S
C110 N108 1.375 1_554 S
C110 C109 1.338 . S
C110 H114 0.931 . S
C111 N108 1.313 . S
C111 N112 1.344 . S
C111 H115 0.930 . S
N112 C109 1.377 1_556 S
N112 C111 1.344 . S
O113 Co105 2.055 . S
O113 C117 1.253 . S
H114 C110 0.931 . S
H115 C111 0.930 . S
O116 Co105 2.039 . S
O116 C106 1.265 . S
C117 O113 1.253 . S
C117 O118 1.227 . S
O118 C117 1.227 . S
N119 Co105 2.140 . S
N119 C122 1.346 . S
N119 C123 1.345 . S
C120 C121 1.387 . S
C120 C124 1.391 . S
C121 C120 1.387 . S
C121 C122 1.369 . S
C121 H130 0.929 . S
C122 N119 1.346 . S
C122 C121 1.369 . S
C122 H125 0.928 . S
C123 N119 1.345 . S
C123 C124 1.371 . S
C123 H126 0.931 . S
C124 C120 1.391 . S
C124 C123 1.371 . S
C124 H131 0.930 . S
H125 C122 0.928 . S
H126 C123 0.931 . S
H127 C103 0.930 . S
H128 C100 0.930 . S
H129 C109 0.930 . S
H130 C121 0.929 . S
H131 C124 0.930 . S
C132 C133 1.351 . S
C132 N135 1.368 . S
C132 H137 0.931 . S
C133 C132 1.351 . S
C133 N134 1.373 . S
C133 H161 0.930 . S
N134 C133 1.373 . S
N134 C136 1.340 . S
N135 C132 1.368 . S
N135 C136 1.321 . S
N135 Co138 2.135 . S
C136 N134 1.340 . S
C136 N135 1.321 . S
C136 H160 0.930 . S
H137 C132 0.931 . S
Co138 N135 2.135 . S
Co138 N141 2.121 . S
Co138 O146 2.055 . S
Co138 O149 2.039 . S
Co138 N152 2.140 . S
C139 O140 1.227 . S
C139 O149 1.265 . S
O140 C139 1.227 . S
N141 Co138 2.121 . S
N141 C143 1.375 . S
N141 C144 1.313 . S
C142 C143 1.338 . S
C142 N145 1.377 . S
C142 H162 0.930 . S
C143 N141 1.375 . S
C143 C142 1.338 . S
C143 H147 0.931 . S
C144 N141 1.313 . S
C144 N145 1.344 . S
C144 H148 0.930 . S
N145 C142 1.377 . S
N145 C144 1.344 . S
O146 Co138 2.055 . S
O146 C150 1.253 . S
H147 C143 0.931 . S
H148 C144 0.930 . S
O149 Co138 2.039 . S
O149 C139 1.265 . S
C150 O146 1.253 . S
C150 O151 1.227 . S
O151 C150 1.227 . S
N152 Co138 2.140 . S
N152 C155 1.346 . S
N152 C156 1.345 . S
C153 C154 1.387 . S
C153 C157 1.391 . S
C154 C153 1.387 . S
C154 C155 1.369 . S
C154 H163 0.929 . S
C155 N152 1.346 . S
C155 C154 1.369 . S
C155 H158 0.928 . S
C156 N152 1.345 . S
C156 C157 1.371 . S
C156 H159 0.931 . S
C157 C153 1.391 . S
C157 C156 1.371 . S
C157 H164 0.930 . S
H158 C155 0.928 . S
H159 C156 0.931 . S
H160 C136 0.930 . S
H161 C133 0.930 . S
H162 C142 0.930 . S
H163 C154 0.929 . S
H164 C157 0.930 . S
C165 C166 1.351 . S
C165 N168 1.368 . S
C165 H170 0.931 . S
C166 C165 1.351 . S
C166 N167 1.373 . S
C166 H194 0.930 . S
N167 C166 1.373 . S
N167 C169 1.340 . S
N168 C165 1.368 . S
N168 C169 1.321 . S
N168 Co171 2.135 . S
C169 N167 1.340 . S
C169 N168 1.321 . S
C169 H193 0.930 . S
H170 C165 0.931 . S
Co171 N168 2.135 . S
Co171 N174 2.121 . S
Co171 O179 2.055 . S
Co171 O182 2.039 . S
Co171 N185 2.140 . S
C172 O173 1.227 1_554 S
C172 O182 1.265 . S
O173 C172 1.227 1_556 S
N174 Co171 2.121 . S
N174 C176 1.375 1_554 S
N174 C177 1.313 . S
C175 C176 1.338 . S
C175 N178 1.377 1_556 S
C175 H195 0.930 . S
C176 N174 1.375 1_556 S
C176 C175 1.338 . S
C176 H180 0.931 . S
C177 N174 1.313 . S
C177 N178 1.344 . S
C177 H181 0.930 . S
N178 C175 1.377 1_554 S
N178 C177 1.344 . S
O179 Co171 2.055 . S
O179 C183 1.253 . S
H180 C176 0.931 . S
H181 C177 0.930 . S
O182 Co171 2.039 . S
O182 C172 1.265 . S
C183 O179 1.253 . S
C183 O184 1.227 . S
O184 C183 1.227 . S
N185 Co171 2.140 . S
N185 C188 1.346 . S
N185 C189 1.345 . S
C186 C187 1.387 . S
C186 C190 1.391 . S
C187 C186 1.387 . S
C187 C188 1.369 . S
C187 H196 0.929 . S
C188 N185 1.346 . S
C188 C187 1.369 . S
C188 H191 0.928 . S
C189 N185 1.345 . S
C189 C190 1.371 . S
C189 H192 0.931 . S
C190 C186 1.391 . S
C190 C189 1.371 . S
C190 H197 0.930 . S
H191 C188 0.928 . S
H192 C189 0.931 . S
H193 C169 0.930 . S
H194 C166 0.930 . S
H195 C175 0.930 . S
H196 C187 0.929 . S
H197 C190 0.930 . S
C198 C199 1.351 . S
C198 N201 1.368 . S
C198 H203 0.931 . S
C199 C198 1.351 . S
C199 N200 1.373 . S
C199 H227 0.930 . S
N200 C199 1.373 . S
N200 C202 1.340 . S
N201 C198 1.368 . S
N201 C202 1.321 . S
N201 Co204 2.135 . S
C202 N200 1.340 . S
C202 N201 1.321 . S
C202 H226 0.930 . S
H203 C198 0.931 . S
Co204 N201 2.135 . S
Co204 N207 2.121 . S
Co204 O212 2.055 . S
Co204 O215 2.039 . S
Co204 N218 2.140 . S
C205 O206 1.227 . S
C205 O215 1.265 . S
O206 C205 1.227 . S
N207 Co204 2.121 . S
N207 C209 1.375 . S
N207 C210 1.313 . S
C208 C209 1.338 . S
C208 N211 1.377 . S
C208 H228 0.930 . S
C209 N207 1.375 . S
C209 C208 1.338 . S
C209 H213 0.931 . S
C210 N207 1.313 . S
C210 N211 1.344 . S
C210 H214 0.930 . S
N211 C208 1.377 . S
N211 C210 1.344 . S
O212 Co204 2.055 . S
O212 C216 1.253 . S
H213 C209 0.931 . S
H214 C210 0.930 . S
O215 Co204 2.039 . S
O215 C205 1.265 . S
C216 O212 1.253 . S
C216 O217 1.227 . S
O217 C216 1.227 . S
N218 Co204 2.140 . S
N218 C221 1.346 . S
N218 C222 1.345 . S
C219 C220 1.387 . S
C219 C223 1.391 . S
C220 C219 1.387 . S
C220 C221 1.369 . S
C220 H229 0.929 . S
C221 N218 1.346 . S
C221 C220 1.369 . S
C221 H224 0.928 . S
C222 N218 1.345 . S
C222 C223 1.371 . S
C222 H225 0.931 . S
C223 C219 1.391 . S
C223 C222 1.371 . S
C223 H230 0.930 . S
H224 C221 0.928 . S
H225 C222 0.931 . S
H226 C202 0.930 . S
H227 C199 0.930 . S
H228 C208 0.930 . S
H229 C220 0.929 . S
H230 C223 0.930 . S
C231 C232 1.351 . S
C231 N234 1.368 . S
C231 H236 0.931 . S
C232 C231 1.351 . S
C232 N233 1.373 . S
C232 H260 0.930 . S
N233 C232 1.373 . S
N233 C235 1.340 . S
N234 C231 1.368 . S
N234 C235 1.321 . S
N234 Co237 2.135 . S
C235 N233 1.340 . S
C235 N234 1.321 . S
C235 H259 0.930 . S
H236 C231 0.931 . S
Co237 N234 2.135 . S
Co237 N240 2.121 . S
Co237 O245 2.055 . S
Co237 O248 2.039 . S
Co237 N251 2.140 . S
C238 O239 1.227 1_556 S
C238 O248 1.265 . S
O239 C238 1.227 1_554 S
N240 Co237 2.121 . S
N240 C242 1.375 1_556 S
N240 C243 1.313 . S
C241 C242 1.338 . S
C241 N244 1.377 1_554 S
C241 H261 0.930 . S
C242 N240 1.375 1_554 S
C242 C241 1.338 . S
C242 H246 0.931 . S
C243 N240 1.313 . S
C243 N244 1.344 . S
C243 H247 0.930 . S
N244 C241 1.377 1_556 S
N244 C243 1.344 . S
O245 Co237 2.055 . S
O245 C249 1.253 . S
H246 C242 0.931 . S
H247 C243 0.930 . S
O248 Co237 2.039 . S
O248 C238 1.265 . S
C249 O245 1.253 . S
C249 O250 1.227 . S
O250 C249 1.227 . S
N251 Co237 2.140 . S
N251 C254 1.346 . S
N251 C255 1.345 . S
C252 C253 1.387 . S
C252 C256 1.391 . S
C253 C252 1.387 . S
C253 C254 1.369 . S
C253 H262 0.929 . S
C254 N251 1.346 . S
C254 C253 1.369 . S
C254 H257 0.928 . S
C255 N251 1.345 . S
C255 C256 1.371 . S
C255 H258 0.931 . S
C256 C252 1.391 . S
C256 C255 1.371 . S
C256 H263 0.930 . S
H257 C254 0.928 . S
H258 C255 0.931 . S
H259 C235 0.930 . S
H260 C232 0.930 . S
H261 C241 0.930 . S
H262 C253 0.929 . S
H263 C256 0.930 . S
H264 C276 0.930 . S
H265 C278 0.937 1_556 S
H266 C279 0.930 . S
H267 C283 0.959 . S
H268 C283 0.959 . S
H269 C283 0.961 . S
H270 C284 0.960 1_565 S
H271 C284 0.961 . S
H272 C284 0.959 . S
H273 C287 0.929 . S
H274 C288 0.931 . S
H275 C290 0.930 . S
C276 H264 0.930 . S
C276 C277 1.399 . S
C276 C281 1.399 . S
C277 C276 1.399 . S
C277 C278 1.356 1_565 S
C278 H265 0.937 1_554 S
C278 C277 1.356 1_545 S
C278 C279 1.403 . S
C279 H266 0.930 . S
C279 C278 1.403 . S
C279 C280 1.390 . S
C280 C279 1.390 . S
C280 C281 1.394 1_545 S
C280 C286 1.465 . S
C281 C276 1.399 . S
C281 C280 1.394 1_565 S
C281 C282 1.516 . S
C282 C281 1.516 . S
C282 C283 1.502 . S
C282 C284 1.561 1_565 S
C282 C285 1.526 1_565 S
C283 H267 0.959 . S
C283 H268 0.959 . S
C283 H269 0.961 . S
C283 C282 1.502 . S
C284 H270 0.960 1_545 S
C284 H271 0.961 . S
C284 H272 0.959 . S
C284 C282 1.561 1_545 S
C285 C282 1.526 1_545 S
C285 C286 1.396 . S
C285 C290 1.390 . S
C286 C280 1.465 . S
C286 C285 1.396 . S
C286 C287 1.399 . S
C287 H273 0.929 . S
C287 C286 1.399 . S
C287 C288 1.385 . S
C288 H274 0.931 . S
C288 C287 1.385 . S
C288 C289 1.389 . S
C289 C288 1.389 . S
C289 C290 1.387 . S
C290 H275 0.930 . S
C290 C285 1.390 . S
C290 C289 1.387 . S
H291 C303 0.930 . S
H292 C305 0.930 . S
H293 C306 0.930 . S
H294 C310 0.959 . S
H295 C310 0.959 . S
H296 C310 0.961 . S
H297 C311 0.960 . S
H298 C311 0.961 . S
H299 C311 0.959 . S
H300 C314 0.929 . S
H301 C315 0.931 . S
H302 C317 0.930 . S
C303 H291 0.930 . S
C303 C304 1.399 . S
C303 C308 1.399 . S
C304 C303 1.399 . S
C304 C305 1.376 1_545 S
C305 H292 0.930 . S
C305 C304 1.376 1_565 S
C305 C306 1.388 . S
C306 H293 0.930 . S
C306 C305 1.388 . S
C306 C307 1.390 . S
C307 C306 1.390 . S
C307 C308 1.394 1_565 S
C307 C313 1.465 . S
C308 C303 1.399 . S
C308 C307 1.394 1_545 S
C308 C309 1.516 . S
C309 C308 1.516 . S
C309 C310 1.502 . S
C309 C311 1.561 . S
C309 C312 1.526 . S
C310 H294 0.959 . S
C310 H295 0.959 . S
C310 H296 0.961 . S
C310 C309 1.502 . S
C311 H297 0.960 . S
C311 H298 0.961 . S
C311 H299 0.959 . S
C311 C309 1.561 . S
C312 C309 1.526 . S
C312 C313 1.396 1_545 S
C312 C317 1.390 . S
C313 C307 1.465 . S
C313 C312 1.396 1_565 S
C313 C314 1.399 . S
C314 H300 0.929 . S
C314 C313 1.399 . S
C314 C315 1.385 . S
C315 H301 0.931 . S
C315 C314 1.385 . S
C315 C316 1.389 . S
C316 C315 1.389 . S
C316 C317 1.387 1_565 S
C317 H302 0.930 . S
C317 C312 1.390 . S
C317 C316 1.387 1_545 S
H318 C330 0.930 . S
H319 C332 0.930 . S
H320 C333 0.930 . S
H321 C337 0.959 . S
H322 C337 0.959 . S
H323 C337 0.961 . S
H324 C338 0.960 . S
H325 C338 0.961 . S
H326 C338 0.959 . S
H327 C341 0.929 . S
H328 C342 0.931 . S
H329 C344 0.930 1_565 S
C330 H318 0.930 . S
C330 C331 1.399 . S
C330 C335 1.399 . S
C331 C330 1.399 . S
C331 C332 1.376 . S
C332 H319 0.930 . S
C332 C331 1.376 . S
C332 C333 1.388 1_565 S
C333 H320 0.930 . S
C333 C332 1.388 1_545 S
C333 C334 1.390 1_545 S
C334 C333 1.390 1_565 S
C334 C335 1.394 . S
C334 C340 1.465 1_565 S
C335 C330 1.399 . S
C335 C334 1.394 . S
C335 C336 1.516 . S
C336 C335 1.516 . S
C336 C337 1.502 . S
C336 C338 1.561 . S
C336 C339 1.526 . S
C337 H321 0.959 . S
C337 H322 0.959 . S
C337 H323 0.961 . S
C337 C336 1.502 . S
C338 H324 0.960 . S
C338 H325 0.961 . S
C338 H326 0.959 . S
C338 C336 1.561 . S
C339 C336 1.526 . S
C339 C340 1.396 1_565 S
C339 C344 1.390 1_565 S
C340 C334 1.465 1_545 S
C340 C339 1.396 1_545 S
C340 C341 1.399 . S
C341 H327 0.929 . S
C341 C340 1.399 . S
C341 C342 1.385 . S
C342 H328 0.931 . S
C342 C341 1.385 . S
C342 C343 1.389 . S
C343 C342 1.389 . S
C343 C344 1.387 . S
C344 H329 0.930 1_545 S
C344 C339 1.390 1_545 S
C344 C343 1.387 . S
H345 C357 0.930 . S
H346 C359 0.926 1_545 S
H347 C360 0.930 . S
H348 C364 0.959 . S
H349 C364 0.959 . S
H350 C364 0.961 . S
H351 C365 0.960 . S
H352 C365 0.961 . S
H353 C365 0.959 . S
H354 C368 0.929 . S
H355 C369 0.931 . S
H356 C371 0.930 . S
C357 H345 0.930 . S
C357 C358 1.399 . S
C357 C362 1.399 . S
C358 C357 1.399 . S
C358 C359 1.387 . S
C359 H346 0.926 1_565 S
C359 C358 1.387 . S
C359 C360 1.383 1_565 S
C360 H347 0.930 . S
C360 C359 1.383 1_545 S
C360 C361 1.390 . S
C361 C360 1.390 . S
C361 C362 1.394 1_545 S
C361 C367 1.465 . S
C362 C357 1.399 . S
C362 C361 1.394 1_565 S
C362 C363 1.516 . S
C363 C362 1.516 . S
C363 C364 1.502 . S
C363 C365 1.561 . S
C363 C366 1.526 . S
C364 H348 0.959 . S
C364 H349 0.959 . S
C364 H350 0.961 . S
C364 C363 1.502 . S
C365 H351 0.960 . S
C365 H352 0.961 . S
C365 H353 0.959 . S
C365 C363 1.561 . S
C366 C363 1.526 . S
C366 C367 1.396 1_565 S
C366 C371 1.390 . S
C367 C361 1.465 . S
C367 C366 1.396 1_545 S
C367 C368 1.399 . S
C368 H354 0.929 . S
C368 C367 1.399 . S
C368 C369 1.385 . S
C369 H355 0.931 . S
C369 C368 1.385 . S
C369 C370 1.389 . S
C370 C369 1.389 . S
C370 C371 1.387 1_545 S
C371 H356 0.930 . S
C371 C366 1.390 . S
C371 C370 1.387 1_565 S
H372 C384 0.930 . S
H373 C386 0.930 . S
H374 C387 0.930 . S
H375 C391 0.959 . S
H376 C391 0.959 . S
H377 C391 0.961 . S
H378 C392 0.960 . S
H379 C392 0.961 . S
H380 C392 0.959 . S
H381 C395 0.929 . S
H382 C396 0.931 1_556 S
H383 C398 0.930 . S
C384 H372 0.930 . S
C384 C385 1.399 . S
C384 C389 1.399 . S
C385 C384 1.399 . S
C385 C386 1.376 . S
C386 H373 0.930 . S
C386 C385 1.376 . S
C386 C387 1.388 . S
C387 H374 0.930 . S
C387 C386 1.388 . S
C387 C388 1.390 . S
C388 C387 1.390 . S
C388 C389 1.394 . S
C388 C394 1.465 . S
C389 C384 1.399 . S
C389 C388 1.394 . S
C389 C390 1.516 . S
C390 C389 1.516 . S
C390 C391 1.502 . S
C390 C392 1.561 . S
C390 C393 1.526 . S
C391 H375 0.959 . S
C391 H376 0.959 . S
C391 H377 0.961 . S
C391 C390 1.502 . S
C392 H378 0.960 . S
C392 H379 0.961 . S
C392 H380 0.959 . S
C392 C390 1.561 . S
C393 C390 1.526 . S
C393 C394 1.396 . S
C393 C398 1.390 . S
C394 C388 1.465 . S
C394 C393 1.396 . S
C394 C395 1.399 . S
C395 H381 0.929 . S
C395 C394 1.399 . S
C395 C396 1.385 . S
C396 H382 0.931 1_554 S
C396 C395 1.385 . S
C396 C397 1.389 . S
C397 C396 1.389 . S
C397 C398 1.387 . S
C398 H383 0.930 . S
C398 C393 1.390 . S
C398 C397 1.387 . S
H399 C411 0.930 . S
H400 C413 0.930 . S
H401 C414 0.930 . S
H402 C418 0.959 . S
H403 C418 0.959 . S
H404 C418 0.961 . S
H405 C419 0.960 . S
H406 C419 0.961 . S
H407 C419 0.959 . S
H408 C422 0.929 . S
H409 C423 0.931 . S
H410 C425 0.930 . S
C411 H399 0.930 . S
C411 C412 1.399 . S
C411 C416 1.399 . S
C412 C411 1.399 . S
C412 C413 1.376 . S
C413 H400 0.930 . S
C413 C412 1.376 . S
C413 C414 1.388 . S
C414 H401 0.930 . S
C414 C413 1.388 . S
C414 C415 1.390 . S
C415 C414 1.390 . S
C415 C416 1.394 . S
C415 C421 1.465 . S
C416 C411 1.399 . S
C416 C415 1.394 . S
C416 C417 1.516 . S
C417 C416 1.516 . S
C417 C418 1.502 . S
C417 C419 1.561 . S
C417 C420 1.526 . S
C418 H402 0.959 . S
C418 H403 0.959 . S
C418 H404 0.961 . S
C418 C417 1.502 . S
C419 H405 0.960 . S
C419 H406 0.961 . S
C419 H407 0.959 . S
C419 C417 1.561 . S
C420 C417 1.526 . S
C420 C421 1.396 . S
C420 C425 1.390 . S
C421 C415 1.465 . S
C421 C420 1.396 . S
C421 C422 1.399 . S
C422 H408 0.929 . S
C422 C421 1.399 . S
C422 C423 1.385 . S
C423 H409 0.931 . S
C423 C422 1.385 . S
C423 C424 1.389 . S
C424 C423 1.389 . S
C424 C425 1.387 . S
C425 H410 0.930 . S
C425 C420 1.390 . S
C425 C424 1.387 . S
H426 C438 0.930 . S
H427 C440 0.930 . S
H428 C441 0.930 . S
H429 C445 0.959 . S
H430 C445 0.959 . S
H431 C445 0.961 . S
H432 C446 0.960 . S
H433 C446 0.961 . S
H434 C446 0.959 . S
H435 C449 0.929 . S
H436 C450 0.931 . S
H437 C452 0.930 . S
C438 H426 0.930 . S
C438 C439 1.399 . S
C438 C443 1.399 . S
C439 C438 1.399 . S
C439 C440 1.376 . S
C440 H427 0.930 . S
C440 C439 1.376 . S
C440 C441 1.388 . S
C441 H428 0.930 . S
C441 C440 1.388 . S
C441 C442 1.390 . S
C442 C441 1.390 . S
C442 C443 1.394 . S
C442 C448 1.465 . S
C443 C438 1.399 . S
C443 C442 1.394 . S
C443 C444 1.516 . S
C444 C443 1.516 . S
C444 C445 1.502 . S
C444 C446 1.561 . S
C444 C447 1.526 . S
C445 H429 0.959 . S
C445 H430 0.959 . S
C445 H431 0.961 . S
C445 C444 1.502 . S
C446 H432 0.960 . S
C446 H433 0.961 . S
C446 H434 0.959 . S
C446 C444 1.561 . S
C447 C444 1.526 . S
C447 C448 1.396 . S
C447 C452 1.390 . S
C448 C442 1.465 . S
C448 C447 1.396 . S
C448 C449 1.399 . S
C449 H435 0.929 . S
C449 C448 1.399 . S
C449 C450 1.385 . S
C450 H436 0.931 . S
C450 C449 1.385 . S
C450 C451 1.389 . S
C451 C450 1.389 . S
C451 C452 1.387 . S
C452 H437 0.930 . S
C452 C447 1.390 . S
C452 C451 1.387 . S
H453 C465 0.930 . S
H454 C467 0.930 . S
H455 C468 0.930 . S
H456 C472 0.959 . S
H457 C472 0.959 . S
H458 C472 0.961 . S
H459 C473 0.960 . S
H460 C473 0.961 . S
H461 C473 0.959 . S
H462 C476 0.929 . S
H463 C477 0.931 . S
H464 C479 0.930 . S
C465 H453 0.930 . S
C465 C466 1.399 . S
C465 C470 1.399 . S
C466 C465 1.399 . S
C466 C467 1.376 . S
C467 H454 0.930 . S
C467 C466 1.376 . S
C467 C468 1.388 . S
C468 H455 0.930 . S
C468 C467 1.388 . S
C468 C469 1.390 . S
C469 C468 1.390 . S
C469 C470 1.394 . S
C469 C475 1.465 . S
C470 C465 1.399 . S
C470 C469 1.394 . S
C470 C471 1.516 . S
C471 C470 1.516 . S
C471 C472 1.502 . S
C471 C473 1.561 . S
C471 C474 1.526 . S
C472 H456 0.959 . S
C472 H457 0.959 . S
C472 H458 0.961 . S
C472 C471 1.502 . S
C473 H459 0.960 . S
C473 H460 0.961 . S
C473 H461 0.959 . S
C473 C471 1.561 . S
C474 C471 1.526 . S
C474 C475 1.396 . S
C474 C479 1.390 . S
C475 C469 1.465 . S
C475 C474 1.396 . S
C475 C476 1.399 . S
C476 H462 0.929 . S
C476 C475 1.399 . S
C476 C477 1.385 . S
C477 H463 0.931 . S
C477 C476 1.385 . S
C477 C478 1.389 . S
C478 C477 1.389 . S
C478 C479 1.387 . S
C479 H464 0.930 . S
C479 C474 1.390 . S
C479 C478 1.387 . S
H480 C492 0.930 . S
H481 C494 0.930 . S
H482 C495 0.930 . S
H483 C499 0.959 . S
H484 C499 0.959 . S
H485 C499 0.961 . S
H486 C500 0.960 1_565 S
H487 C500 0.961 . S
H488 C500 0.959 . S
H489 C503 0.929 . S
H490 C504 0.931 . S
H491 C506 0.930 . S
C492 H480 0.930 . S
C492 C493 1.399 . S
C492 C497 1.399 . S
C493 C492 1.399 . S
C493 C494 1.376 . S
C494 H481 0.930 . S
C494 C493 1.376 . S
C494 C495 1.388 1_565 S
C495 H482 0.930 . S
C495 C494 1.388 1_545 S
C495 C496 1.390 . S
C496 C495 1.390 . S
C496 C497 1.394 1_545 S
C496 C502 1.465 . S
C497 C492 1.399 . S
C497 C496 1.394 1_565 S
C497 C498 1.516 . S
C498 C497 1.516 . S
C498 C499 1.502 . S
C498 C500 1.561 1_565 S
C498 C501 1.526 1_565 S
C499 H483 0.959 . S
C499 H484 0.959 . S
C499 H485 0.961 . S
C499 C498 1.502 . S
C500 H486 0.960 1_545 S
C500 H487 0.961 . S
C500 H488 0.959 . S
C500 C498 1.561 1_545 S
C501 C498 1.526 1_545 S
C501 C502 1.396 . S
C501 C506 1.390 . S
C502 C496 1.465 . S
C502 C501 1.396 . S
C502 C503 1.399 . S
C503 H489 0.929 . S
C503 C502 1.399 . S
C503 C504 1.385 . S
C504 H490 0.931 . S
C504 C503 1.385 . S
C504 C505 1.389 . S
C505 C504 1.389 . S
C505 C506 1.387 . S
C506 H491 0.930 . S
C506 C501 1.390 . S
C506 C505 1.387 . S
H507 C519 0.934 . S
H508 C521 0.930 . S
H509 C522 0.930 . S
H510 C526 0.959 . S
H511 C526 0.959 . S
H512 C526 0.961 . S
H513 C527 0.960 . S
H514 C527 0.961 . S
H515 C527 0.959 . S
H516 C530 0.929 . S
H517 C531 0.931 . S
H518 C533 0.930 1_565 S
C519 H507 0.934 . S
C519 C520 1.399 . S
C519 C524 1.399 . S
C520 C519 1.399 . S
C520 C521 1.376 1_565 S
C521 H508 0.930 . S
C521 C520 1.376 1_545 S
C521 C522 1.388 . S
C522 H509 0.930 . S
C522 C521 1.388 . S
C522 C523 1.390 . S
C523 C522 1.390 . S
C523 C524 1.394 1_545 S
C523 C529 1.465 . S
C524 C519 1.399 . S
C524 C523 1.394 1_565 S
C524 C525 1.516 1_556 S
C525 C524 1.516 1_554 S
C525 C526 1.502 . S
C525 C527 1.561 1_554 S
C525 C528 1.526 . S
C526 H510 0.959 . S
C526 H511 0.959 . S
C526 H512 0.961 . S
C526 C525 1.502 . S
C527 H513 0.960 . S
C527 H514 0.961 . S
C527 H515 0.959 . S
C527 C525 1.561 1_556 S
C528 C525 1.526 . S
C528 C529 1.396 1_564 S
C528 C533 1.390 1_565 S
C529 C523 1.465 . S
C529 C528 1.396 1_546 S
C529 C530 1.399 . S
C530 H516 0.929 . S
C530 C529 1.399 . S
C530 C531 1.385 1_556 S
C531 H517 0.931 . S
C531 C530 1.385 1_554 S
C531 C532 1.389 . S
C532 C531 1.389 . S
C532 C533 1.387 . S
C533 H518 0.930 1_545 S
C533 C528 1.390 1_545 S
C533 C532 1.387 . S
H534 C546 0.930 . S
H535 C548 0.930 . S
H536 C549 0.930 1_455 S
H537 C553 0.959 . S
H538 C553 0.959 . S
H539 C553 0.961 . S
H540 C554 0.960 . S
H541 C554 0.961 . S
H542 C554 0.959 . S
H543 C557 0.929 . S
H544 C558 0.931 . S
H545 C560 0.930 . S
C546 H534 0.930 . S
C546 C547 1.399 . S
C546 C551 1.399 . S
C547 C546 1.399 . S
C547 C548 1.376 . S
C548 H535 0.930 . S
C548 C547 1.376 . S
C548 C549 1.388 . S
C549 H536 0.930 1_655 S
C549 C548 1.388 . S
C549 C550 1.390 . S
C550 C549 1.390 . S
C550 C551 1.394 . S
C550 C556 1.465 1_655 S
C551 C546 1.399 . S
C551 C550 1.394 . S
C551 C552 1.516 . S
C552 C551 1.516 . S
C552 C553 1.502 . S
C552 C554 1.561 . S
C552 C555 1.526 1_655 S
C553 H537 0.959 . S
C553 H538 0.959 . S
C553 H539 0.961 . S
C553 C552 1.502 . S
C554 H540 0.960 . S
C554 H541 0.961 . S
C554 H542 0.959 . S
C554 C552 1.561 . S
C555 C552 1.526 1_455 S
C555 C556 1.396 . S
C555 C560 1.390 . S
C556 C550 1.465 1_455 S
C556 C555 1.396 . S
C556 C557 1.399 . S
C557 H543 0.929 . S
C557 C556 1.399 . S
C557 C558 1.385 . S
C558 H544 0.931 . S
C558 C557 1.385 . S
C558 C559 1.389 . S
C559 C558 1.389 . S
C559 C560 1.387 . S
C560 H545 0.930 . S
C560 C555 1.390 . S
C560 C559 1.387 . S
H561 C573 0.930 . S
H562 C575 0.930 . S
H563 C576 0.930 . S
H564 C580 0.959 . S
H565 C580 0.959 . S
H566 C580 0.961 1_455 S
H567 C581 0.960 . S
H568 C581 0.961 1_556 S
H569 C581 0.959 . S
H570 C584 0.929 . S
H571 C585 0.931 . S
H572 C587 0.930 . S
C573 H561 0.930 . S
C573 C574 1.399 1_556 S
C573 C578 1.399 . S
C574 C573 1.399 1_554 S
C574 C575 1.376 . S
C575 H562 0.930 . S
C575 C574 1.376 . S
C575 C576 1.388 . S
C576 H563 0.930 . S
C576 C575 1.388 . S
C576 C577 1.390 . S
C577 C576 1.390 . S
C577 C578 1.394 1_554 S
C577 C583 1.465 1_455 S
C578 C573 1.399 . S
C578 C577 1.394 1_556 S
C578 C579 1.516 . S
C579 C578 1.516 . S
C579 C580 1.502 1_455 S
C579 C581 1.561 1_556 S
C579 C582 1.526 1_455 S
C580 H564 0.959 . S
C580 H565 0.959 . S
C580 H566 0.961 1_655 S
C580 C579 1.502 1_655 S
C581 H567 0.960 . S
C581 H568 0.961 1_554 S
C581 H569 0.959 . S
C581 C579 1.561 1_554 S
C582 C579 1.526 1_655 S
C582 C583 1.396 1_556 S
C582 C587 1.390 . S
C583 C577 1.465 1_655 S
C583 C582 1.396 1_554 S
C583 C584 1.399 . S
C584 H570 0.929 . S
C584 C583 1.399 . S
C584 C585 1.385 . S
C585 H571 0.931 . S
C585 C584 1.385 . S
C585 C586 1.389 1_554 S
C586 C585 1.389 1_556 S
C586 C587 1.387 . S
C587 H572 0.930 . S
C587 C582 1.390 . S
C587 C586 1.387 . S
H588 C600 0.930 . S
H589 C602 0.930 . S
H590 C603 0.930 . S
H591 C607 0.959 . S
H592 C607 0.959 1_655 S
H593 C607 0.961 . S
H594 C608 0.960 1_465 S
H595 C608 0.961 1_565 S
H596 C608 0.959 . S
H597 C611 0.929 . S
H598 C612 0.931 . S
H599 C614 0.930 . S
C600 H588 0.930 . S
C600 C601 1.399 . S
C600 C605 1.399 . S
C601 C600 1.399 . S
C601 C602 1.376 . S
C602 H589 0.930 . S
C602 C601 1.376 . S
C602 C603 1.388 . S
C603 H590 0.930 . S
C603 C602 1.388 . S
C603 C604 1.390 . S
C604 C603 1.390 . S
C604 C605 1.394 . S
C604 C610 1.465 1_455 S
C605 C600 1.399 . S
C605 C604 1.394 . S
C605 C606 1.532 . S
C606 C605 1.532 . S
C606 C607 1.515 . S
C606 C608 1.551 1_455 S
C606 C609 1.506 1_455 S
C607 H591 0.959 . S
C607 H592 0.959 1_455 S
C607 H593 0.961 . S
C607 C606 1.515 . S
C608 H594 0.960 1_645 S
C608 H595 0.961 1_545 S
C608 H596 0.959 . S
C608 C606 1.551 1_655 S
C609 C606 1.506 1_655 S
C609 C610 1.396 . S
C609 C614 1.390 . S
C610 C604 1.465 1_655 S
C610 C609 1.396 . S
C610 C611 1.399 . S
C611 H597 0.929 . S
C611 C610 1.399 . S
C611 C612 1.385 . S
C612 H598 0.931 . S
C612 C611 1.385 . S
C612 C613 1.389 . S
C613 C612 1.389 . S
C613 C614 1.387 . S
C614 H599 0.930 . S
C614 C609 1.390 . S
C614 C613 1.387 . S
H615 C627 0.930 . S
H616 C629 0.930 . S
H617 C630 0.930 . S
H618 C634 0.959 . S
H619 C634 0.959 1_545 S
H620 C634 0.961 1_445 S
H621 C635 0.960 1_545 S
H622 C635 0.961 1_645 S
H623 C635 0.959 . S
H624 C638 0.929 . S
H625 C639 0.931 . S
H626 C641 0.930 . S
C627 H615 0.930 . S
C627 C628 1.399 . S
C627 C632 1.399 . S
C628 C627 1.399 . S
C628 C629 1.376 . S
C629 H616 0.930 . S
C629 C628 1.376 . S
C629 C630 1.388 . S
C630 H617 0.930 . S
C630 C629 1.388 . S
C630 C631 1.390 . S
C631 C630 1.390 . S
C631 C632 1.394 . S
C631 C637 1.465 1_455 S
C632 C627 1.399 . S
C632 C631 1.394 . S
C632 C633 1.512 1_455 S
C633 C632 1.512 1_655 S
C633 C634 1.505 . S
C633 C635 1.558 1_655 S
C633 C636 1.530 . S
C634 H618 0.959 . S
C634 H619 0.959 1_565 S
C634 H620 0.961 1_665 S
C634 C633 1.505 . S
C635 H621 0.960 1_565 S
C635 H622 0.961 1_465 S
C635 H623 0.959 . S
C635 C633 1.558 1_455 S
C636 C633 1.530 . S
C636 C637 1.396 . S
C636 C641 1.390 . S
C637 C631 1.465 1_655 S
C637 C636 1.396 . S
C637 C638 1.399 . S
C638 H624 0.929 . S
C638 C637 1.399 . S
C638 C639 1.385 . S
C639 H625 0.931 . S
C639 C638 1.385 . S
C639 C640 1.389 . S
C640 C639 1.389 . S
C640 C641 1.387 . S
C641 H626 0.930 . S
C641 C636 1.390 . S
C641 C640 1.387 . S
H642 C654 0.930 . S
H643 C656 0.930 . S
H644 C657 0.930 . S
H645 C661 0.959 . S
H646 C661 0.959 . S
H647 C661 0.961 . S
H648 C662 0.960 . S
H649 C662 0.961 . S
H650 C662 0.959 . S
H651 C665 0.929 . S
H652 C666 0.931 . S
H653 C668 0.930 . S
C654 H642 0.930 . S
C654 C655 1.399 . S
C654 C659 1.399 . S
C655 C654 1.399 . S
C655 C656 1.376 . S
C656 H643 0.930 . S
C656 C655 1.376 . S
C656 C657 1.388 . S
C657 H644 0.930 . S
C657 C656 1.388 . S
C657 C658 1.390 . S
C658 C657 1.390 . S
C658 C659 1.394 . S
C658 C664 1.465 . S
C659 C654 1.399 . S
C659 C658 1.394 . S
C659 C660 1.516 . S
C660 C659 1.516 . S
C660 C661 1.502 . S
C660 C662 1.561 . S
C660 C663 1.526 . S
C661 H645 0.959 . S
C661 H646 0.959 . S
C661 H647 0.961 . S
C661 C660 1.502 . S
C662 H648 0.960 . S
C662 H649 0.961 . S
C662 H650 0.959 . S
C662 C660 1.561 . S
C663 C660 1.526 . S
C663 C664 1.396 . S
C663 C668 1.390 . S
C664 C658 1.465 . S
C664 C663 1.396 . S
C664 C665 1.399 . S
C665 H651 0.929 . S
C665 C664 1.399 . S
C665 C666 1.385 . S
C666 H652 0.931 . S
C666 C665 1.385 . S
C666 C667 1.389 . S
C667 C666 1.389 . S
C667 C668 1.387 . S
C668 H653 0.930 . S
C668 C663 1.390 . S
C668 C667 1.387 . S
H669 C681 0.930 . S
H670 C683 0.930 . S
H671 C684 0.930 . S
H672 C688 0.959 . S
H673 C688 0.959 . S
H674 C688 0.961 . S
H675 C689 0.960 . S
H676 C689 0.961 . S
H677 C689 0.959 . S
H678 C692 0.929 . S
H679 C693 0.931 . S
H680 C695 0.930 . S
C681 H669 0.930 . S
C681 C682 1.399 . S
C681 C686 1.399 . S
C682 C681 1.399 . S
C682 C683 1.376 . S
C683 H670 0.930 . S
C683 C682 1.376 . S
C683 C684 1.388 . S
C684 H671 0.930 . S
C684 C683 1.388 . S
C684 C685 1.390 . S
C685 C684 1.390 . S
C685 C686 1.394 . S
C685 C691 1.465 . S
C686 C681 1.399 . S
C686 C685 1.394 . S
C686 C687 1.516 . S
C687 C686 1.516 . S
C687 C688 1.502 . S
C687 C689 1.561 . S
C687 C690 1.526 . S
C688 H672 0.959 . S
C688 H673 0.959 . S
C688 H674 0.961 . S
C688 C687 1.502 . S
C689 H675 0.960 . S
C689 H676 0.961 . S
C689 H677 0.959 . S
C689 C687 1.561 . S
C690 C687 1.526 . S
C690 C691 1.396 . S
C690 C695 1.390 . S
C691 C685 1.465 . S
C691 C690 1.396 . S
C691 C692 1.399 . S
C692 H678 0.929 . S
C692 C691 1.399 . S
C692 C693 1.385 . S
C693 H679 0.931 . S
C693 C692 1.385 . S
C693 C694 1.389 . S
C694 C693 1.389 . S
C694 C695 1.387 . S
C695 H680 0.930 . S
C695 C690 1.390 . S
C695 C694 1.387 . S
H696 C708 0.930 . S
H697 C710 0.930 . S
H698 C711 0.930 . S
H699 C715 0.959 . S
H700 C715 0.959 . S
H701 C715 0.961 . S
H702 C716 0.960 . S
H703 C716 0.961 . S
H704 C716 0.959 . S
H705 C719 0.929 . S
H706 C720 0.931 . S
H707 C722 0.930 . S
C708 H696 0.930 . S
C708 C709 1.399 . S
C708 C713 1.399 . S
C709 C708 1.399 . S
C709 C710 1.376 . S
C710 H697 0.930 . S
C710 C709 1.376 . S
C710 C711 1.388 . S
C711 H698 0.930 . S
C711 C710 1.388 . S
C711 C712 1.390 . S
C712 C711 1.390 . S
C712 C713 1.394 . S
C712 C718 1.465 . S
C713 C708 1.399 . S
C713 C712 1.394 . S
C713 C714 1.516 . S
C714 C713 1.516 . S
C714 C715 1.502 . S
C714 C716 1.561 . S
C714 C717 1.526 . S
C715 H699 0.959 . S
C715 H700 0.959 . S
C715 H701 0.961 . S
C715 C714 1.502 . S
C716 H702 0.960 . S
C716 H703 0.961 . S
C716 H704 0.959 . S
C716 C714 1.561 . S
C717 C714 1.526 . S
C717 C718 1.396 . S
C717 C722 1.390 . S
C718 C712 1.465 . S
C718 C717 1.396 . S
C718 C719 1.399 . S
C719 H705 0.929 . S
C719 C718 1.399 . S
C719 C720 1.385 . S
C720 H706 0.931 . S
C720 C719 1.385 . S
C720 C721 1.389 . S
C721 C720 1.389 . S
C721 C722 1.387 . S
C722 H707 0.930 . S
C722 C717 1.390 . S
C722 C721 1.387 . S
H723 C735 0.930 . S
H724 C737 0.930 . S
H725 C738 0.930 . S
H726 C742 0.959 . S
H727 C742 0.959 . S
H728 C742 0.961 . S
H729 C743 0.960 . S
H730 C743 0.961 . S
H731 C743 0.959 . S
H732 C746 0.929 . S
H733 C747 0.931 . S
H734 C749 0.930 1_556 S
C735 H723 0.930 . S
C735 C736 1.399 . S
C735 C740 1.399 . S
C736 C735 1.399 . S
C736 C737 1.377 1_556 S
C737 H724 0.930 . S
C737 C736 1.377 1_554 S
C737 C738 1.387 . S
C738 H725 0.930 . S
C738 C737 1.387 . S
C738 C739 1.390 . S
C739 C738 1.390 . S
C739 C740 1.394 1_554 S
C739 C745 1.465 . S
C740 C735 1.399 . S
C740 C739 1.394 1_556 S
C740 C741 1.516 . S
C741 C740 1.516 . S
C741 C742 1.502 . S
C741 C743 1.561 . S
C741 C744 1.526 . S
C742 H726 0.959 . S
C742 H727 0.959 . S
C742 H728 0.961 . S
C742 C741 1.502 . S
C743 H729 0.960 . S
C743 H730 0.961 . S
C743 H731 0.959 . S
C743 C741 1.561 . S
C744 C741 1.526 . S
C744 C745 1.396 1_556 S
C744 C749 1.390 1_556 S
C745 C739 1.465 . S
C745 C744 1.396 1_554 S
C745 C746 1.399 . S
C746 H732 0.929 . S
C746 C745 1.399 . S
C746 C747 1.385 . S
C747 H733 0.931 . S
C747 C746 1.385 . S
C747 C748 1.389 . S
C748 C747 1.389 . S
C748 C749 1.387 . S
C749 H734 0.930 1_554 S
C749 C744 1.390 1_554 S
C749 C748 1.387 . S
H750 C762 0.930 . S
H751 C764 0.930 . S
H752 C765 0.930 . S
H753 C769 0.959 . S
H754 C769 0.959 . S
H755 C769 0.961 . S
H756 C770 0.960 . S
H757 C770 0.961 . S
H758 C770 0.959 . S
H759 C773 0.929 . S
H760 C774 0.931 . S
H761 C776 0.930 . S
C762 H750 0.930 . S
C762 C763 1.399 . S
C762 C767 1.399 . S
C763 C762 1.399 . S
C763 C764 1.376 . S
C764 H751 0.930 . S
C764 C763 1.376 . S
C764 C765 1.388 . S
C765 H752 0.930 . S
C765 C764 1.388 . S
C765 C766 1.390 . S
C766 C765 1.390 . S
C766 C767 1.394 . S
C766 C772 1.465 . S
C767 C762 1.399 . S
C767 C766 1.394 . S
C767 C768 1.516 . S
C768 C767 1.516 . S
C768 C769 1.502 . S
C768 C770 1.561 . S
C768 C771 1.526 . S
C769 H753 0.959 . S
C769 H754 0.959 . S
C769 H755 0.961 . S
C769 C768 1.502 . S
C770 H756 0.960 . S
C770 H757 0.961 . S
C770 H758 0.959 . S
C770 C768 1.561 . S
C771 C768 1.526 . S
C771 C772 1.396 . S
C771 C776 1.390 . S
C772 C766 1.465 . S
C772 C771 1.396 . S
C772 C773 1.399 . S
C773 H759 0.929 . S
C773 C772 1.399 . S
C773 C774 1.385 . S
C774 H760 0.931 . S
C774 C773 1.385 . S
C774 C775 1.389 . S
C775 C774 1.389 . S
C775 C776 1.387 . S
C776 H761 0.930 . S
C776 C771 1.390 . S
C776 C775 1.387 . S
H777 C789 0.930 . S
H778 C791 0.930 . S
H779 C792 0.930 . S
H780 C796 0.959 . S
H781 C796 0.959 . S
H782 C796 0.961 . S
H783 C797 0.960 . S
H784 C797 0.961 . S
H785 C797 0.959 . S
H786 C800 0.929 . S
H787 C801 0.931 . S
H788 C803 0.930 . S
C789 H777 0.930 . S
C789 C790 1.399 1_554 S
C789 C794 1.399 . S
C790 C789 1.399 1_556 S
C790 C791 1.376 . S
C791 H778 0.930 . S
C791 C790 1.376 . S
C791 C792 1.388 . S
C792 H779 0.930 . S
C792 C791 1.388 . S
C792 C793 1.390 . S
C793 C792 1.390 . S
C793 C794 1.394 1_556 S
C793 C799 1.465 . S
C794 C789 1.399 . S
C794 C793 1.394 1_554 S
C794 C795 1.516 . S
C795 C794 1.516 . S
C795 C796 1.502 . S
C795 C797 1.561 . S
C795 C798 1.526 . S
C796 H780 0.959 . S
C796 H781 0.959 . S
C796 H782 0.961 . S
C796 C795 1.502 . S
C797 H783 0.960 . S
C797 H784 0.961 . S
C797 H785 0.959 . S
C797 C795 1.561 . S
C798 C795 1.526 . S
C798 C799 1.396 1_554 S
C798 C803 1.390 . S
C799 C793 1.465 . S
C799 C798 1.396 1_556 S
C799 C800 1.399 . S
C800 H786 0.929 . S
C800 C799 1.399 . S
C800 C801 1.385 . S
C801 H787 0.931 . S
C801 C800 1.385 . S
C801 C802 1.389 1_556 S
C802 C801 1.389 1_554 S
C802 C803 1.387 . S
C803 H788 0.930 . S
C803 C798 1.390 . S
C803 C802 1.387 . S
C277 C106 1.045 1_554 S
C289 C18 1.024 . S
C304 C51 1.037 . S
C316 C73 0.986 . S
C331 C84 1.033 . S
C343 C40 0.997 1_556 S
C358 C117 1.036 . S
C370 C7 0.988 . S
C385 C150 1.023 . S
C397 C238 1.048 1_554 S
C412 C183 1.028 . S
C424 C205 1.034 . S
C439 C172 1.010 1_556 S
C451 C216 1.033 . S
C466 C249 1.021 . S
C478 C139 1.051 . S
C493 N79 1.912 . S
C505 N13 1.955 . S
C520 N112 1.928 . S
C532 N46 1.945 . S
C547 N145 1.943 . S
C559 N211 1.931 . S
C574 N178 1.954 . S
C586 N244 1.912 . S
C601 N2 1.223 . S
C613 N35 1.162 . S
C628 N101 1.153 . S
C640 N68 1.202 . S
C655 N167 1.125 . S
C667 N134 1.196 . S
C682 N233 1.142 . S
C694 N200 1.213 . S
C709 C219 1.581 . S
C721 C21 1.606 . S
C736 C252 1.605 . S
C748 C54 1.583 . S
C763 C153 1.567 . S
C775 C87 1.615 . S
C790 C120 1.593 . S
C802 C186 1.581 . S
