# Generated by pormake.
# Topology uow, (4)-cn, num edge types: 1
# Building blocks:
#     Node 0, Type 0, BuildingBlock: TATPOV_clean_sbu_0, # of connection points: 4
#     Node 1, Type 0, BuildingBlock: TATPOV_clean_sbu_0, # of connection points: 4
#     Node 2, Type 0, BuildingBlock: TATPOV_clean_sbu_0, # of connection points: 4
#     Node 3, Type 0, BuildingBlock: TATPOV_clean_sbu_0, # of connection points: 4
#     Node 4, Type 0, BuildingBlock: TATPOV_clean_sbu_0, # of connection points: 4
#     Node 5, Type 0, BuildingBlock: TATPOV_clean_sbu_0, # of connection points: 4
#     Node 6, Type 0, BuildingBlock: TATPOV_clean_sbu_0, # of connection points: 4
#     Node 7, Type 0, BuildingBlock: TATPOV_clean_sbu_0, # of connection points: 4
#     Node 8, Type 0, BuildingBlock: TATPOV_clean_sbu_0, # of connection points: 4
#     Node 9, Type 0, BuildingBlock: TATPOV_clean_sbu_0, # of connection points: 4
#     Node 10, Type 0, BuildingBlock: TATPOV_clean_sbu_0, # of connection points: 4
#     Node 11, Type 0, BuildingBlock: TATPOV_clean_sbu_0, # of connection points: 4
#     Node 12, Type 0, BuildingBlock: TATPOV_clean_sbu_0, # of connection points: 4
#     Node 13, Type 0, BuildingBlock: TATPOV_clean_sbu_0, # of connection points: 4
#     Node 14, Type 0, BuildingBlock: TATPOV_clean_sbu_0, # of connection points: 4
#     Node 15, Type 0, BuildingBlock: TATPOV_clean_sbu_0, # of connection points: 4
#     Node 16, Type 0, BuildingBlock: TATPOV_clean_sbu_0, # of connection points: 4
#     Node 17, Type 0, BuildingBlock: TATPOV_clean_sbu_0, # of connection points: 4
#     Node 18, Type 0, BuildingBlock: TATPOV_clean_sbu_0, # of connection points: 4
#     Node 19, Type 0, BuildingBlock: TATPOV_clean_sbu_0, # of connection points: 4
#     Node 20, Type 0, BuildingBlock: TATPOV_clean_sbu_0, # of connection points: 4
#     Node 21, Type 0, BuildingBlock: TATPOV_clean_sbu_0, # of connection points: 4
#     Node 22, Type 0, BuildingBlock: TATPOV_clean_sbu_0, # of connection points: 4
#     Node 23, Type 0, BuildingBlock: TATPOV_clean_sbu_0, # of connection points: 4
#     Node 24, Type 0, BuildingBlock: TATPOV_clean_sbu_0, # of connection points: 4
#     Node 25, Type 0, BuildingBlock: TATPOV_clean_sbu_0, # of connection points: 4
#     Node 26, Type 0, BuildingBlock: TATPOV_clean_sbu_0, # of connection points: 4
#     Node 27, Type 0, BuildingBlock: TATPOV_clean_sbu_0, # of connection points: 4
#     Node 28, Type 0, BuildingBlock: TATPOV_clean_sbu_0, # of connection points: 4
#     Node 29, Type 0, BuildingBlock: TATPOV_clean_sbu_0, # of connection points: 4
#     Node 30, Type 0, BuildingBlock: TATPOV_clean_sbu_0, # of connection points: 4
#     Node 31, Type 0, BuildingBlock: TATPOV_clean_sbu_0, # of connection points: 4
#     Edge 32, Type (0, 0), BuildingBlock: XIVTED_clean_linker_0, # of connection points: 2
#     Edge 33, Type (0, 0), BuildingBlock: XIVTED_clean_linker_0, # of connection points: 2
#     Edge 34, Type (0, 0), BuildingBlock: XIVTED_clean_linker_0, # of connection points: 2
#     Edge 35, Type (0, 0), BuildingBlock: XIVTED_clean_linker_0, # of connection points: 2
#     Edge 36, Type (0, 0), BuildingBlock: XIVTED_clean_linker_0, # of connection points: 2
#     Edge 37, Type (0, 0), BuildingBlock: XIVTED_clean_linker_0, # of connection points: 2
#     Edge 38, Type (0, 0), BuildingBlock: XIVTED_clean_linker_0, # of connection points: 2
#     Edge 39, Type (0, 0), BuildingBlock: XIVTED_clean_linker_0, # of connection points: 2
#     Edge 40, Type (0, 0), BuildingBlock: XIVTED_clean_linker_0, # of connection points: 2
#     Edge 41, Type (0, 0), BuildingBlock: XIVTED_clean_linker_0, # of connection points: 2
#     Edge 42, Type (0, 0), BuildingBlock: XIVTED_clean_linker_0, # of connection points: 2
#     Edge 43, Type (0, 0), BuildingBlock: XIVTED_clean_linker_0, # of connection points: 2
#     Edge 44, Type (0, 0), BuildingBlock: XIVTED_clean_linker_0, # of connection points: 2
#     Edge 45, Type (0, 0), BuildingBlock: XIVTED_clean_linker_0, # of connection points: 2
#     Edge 46, Type (0, 0), BuildingBlock: XIVTED_clean_linker_0, # of connection points: 2
#     Edge 47, Type (0, 0), BuildingBlock: XIVTED_clean_linker_0, # of connection points: 2
#     Edge 48, Type (0, 0), BuildingBlock: XIVTED_clean_linker_0, # of connection points: 2
#     Edge 49, Type (0, 0), BuildingBlock: XIVTED_clean_linker_0, # of connection points: 2
#     Edge 50, Type (0, 0), BuildingBlock: XIVTED_clean_linker_0, # of connection points: 2
#     Edge 51, Type (0, 0), BuildingBlock: XIVTED_clean_linker_0, # of connection points: 2
#     Edge 52, Type (0, 0), BuildingBlock: XIVTED_clean_linker_0, # of connection points: 2
#     Edge 53, Type (0, 0), BuildingBlock: XIVTED_clean_linker_0, # of connection points: 2
#     Edge 54, Type (0, 0), BuildingBlock: XIVTED_clean_linker_0, # of connection points: 2
#     Edge 55, Type (0, 0), BuildingBlock: XIVTED_clean_linker_0, # of connection points: 2
#     Edge 56, Type (0, 0), BuildingBlock: XIVTED_clean_linker_0, # of connection points: 2
#     Edge 57, Type (0, 0), BuildingBlock: XIVTED_clean_linker_0, # of connection points: 2
#     Edge 58, Type (0, 0), BuildingBlock: XIVTED_clean_linker_0, # of connection points: 2
#     Edge 59, Type (0, 0), BuildingBlock: XIVTED_clean_linker_0, # of connection points: 2
#     Edge 60, Type (0, 0), BuildingBlock: XIVTED_clean_linker_0, # of connection points: 2
#     Edge 61, Type (0, 0), BuildingBlock: XIVTED_clean_linker_0, # of connection points: 2
#     Edge 62, Type (0, 0), BuildingBlock: XIVTED_clean_linker_0, # of connection points: 2
#     Edge 63, Type (0, 0), BuildingBlock: XIVTED_clean_linker_0, # of connection points: 2
#     Edge 64, Type (0, 0), BuildingBlock: XIVTED_clean_linker_0, # of connection points: 2
#     Edge 65, Type (0, 0), BuildingBlock: XIVTED_clean_linker_0, # of connection points: 2
#     Edge 66, Type (0, 0), BuildingBlock: XIVTED_clean_linker_0, # of connection points: 2
#     Edge 67, Type (0, 0), BuildingBlock: XIVTED_clean_linker_0, # of connection points: 2
#     Edge 68, Type (0, 0), BuildingBlock: XIVTED_clean_linker_0, # of connection points: 2
#     Edge 69, Type (0, 0), BuildingBlock: XIVTED_clean_linker_0, # of connection points: 2
#     Edge 70, Type (0, 0), BuildingBlock: XIVTED_clean_linker_0, # of connection points: 2
#     Edge 71, Type (0, 0), BuildingBlock: XIVTED_clean_linker_0, # of connection points: 2
#     Edge 72, Type (0, 0), BuildingBlock: XIVTED_clean_linker_0, # of connection points: 2
#     Edge 73, Type (0, 0), BuildingBlock: XIVTED_clean_linker_0, # of connection points: 2
#     Edge 74, Type (0, 0), BuildingBlock: XIVTED_clean_linker_0, # of connection points: 2
#     Edge 75, Type (0, 0), BuildingBlock: XIVTED_clean_linker_0, # of connection points: 2
#     Edge 76, Type (0, 0), BuildingBlock: XIVTED_clean_linker_0, # of connection points: 2
#     Edge 77, Type (0, 0), BuildingBlock: XIVTED_clean_linker_0, # of connection points: 2
#     Edge 78, Type (0, 0), BuildingBlock: XIVTED_clean_linker_0, # of connection points: 2
#     Edge 79, Type (0, 0), BuildingBlock: XIVTED_clean_linker_0, # of connection points: 2
#     Edge 80, Type (0, 0), BuildingBlock: XIVTED_clean_linker_0, # of connection points: 2
#     Edge 81, Type (0, 0), BuildingBlock: XIVTED_clean_linker_0, # of connection points: 2
#     Edge 82, Type (0, 0), BuildingBlock: XIVTED_clean_linker_0, # of connection points: 2
#     Edge 83, Type (0, 0), BuildingBlock: XIVTED_clean_linker_0, # of connection points: 2
#     Edge 84, Type (0, 0), BuildingBlock: XIVTED_clean_linker_0, # of connection points: 2
#     Edge 85, Type (0, 0), BuildingBlock: XIVTED_clean_linker_0, # of connection points: 2
#     Edge 86, Type (0, 0), BuildingBlock: XIVTED_clean_linker_0, # of connection points: 2
#     Edge 87, Type (0, 0), BuildingBlock: XIVTED_clean_linker_0, # of connection points: 2
#     Edge 88, Type (0, 0), BuildingBlock: XIVTED_clean_linker_0, # of connection points: 2
#     Edge 89, Type (0, 0), BuildingBlock: XIVTED_clean_linker_0, # of connection points: 2
#     Edge 90, Type (0, 0), BuildingBlock: XIVTED_clean_linker_0, # of connection points: 2
#     Edge 91, Type (0, 0), BuildingBlock: XIVTED_clean_linker_0, # of connection points: 2
#     Edge 92, Type (0, 0), BuildingBlock: XIVTED_clean_linker_0, # of connection points: 2
#     Edge 93, Type (0, 0), BuildingBlock: XIVTED_clean_linker_0, # of connection points: 2
#     Edge 94, Type (0, 0), BuildingBlock: XIVTED_clean_linker_0, # of connection points: 2
#     Edge 95, Type (0, 0), BuildingBlock: XIVTED_clean_linker_0, # of connection points: 2
# Relax obj value: 0.174
# Max RMSD: 0.205
# Mean RMSD: 0.205
data_MOF--net-uow--node1-TATPOV_clean_sbu_0--edge1-XIVTED_clean_linker_0
_symmetry_space_group_name_H-M    P1
_symmetry_Int_Tables_number       1
_symmetry_cell_setting            triclinic
loop_
_symmetry_equiv_pos_as_xyz
'x, y, z'
_cell_length_a     60.378692
_cell_length_b     60.42704
_cell_length_c     42.438831
_cell_angle_alpha  90.131426
_cell_angle_beta   90.070533
_cell_angle_gamma 90.21276
loop_
_atom_site_label
_atom_site_type_symbol
_atom_site_fract_x
_atom_site_fract_y
_atom_site_fract_z
_atom_type_partial_charge
Zn0 Zn 0.09243 0.32782 0.28965 0.0
Zn1 Zn 0.0831 0.37058 0.28102 0.0
O2 O 0.0558 0.35888 0.30528 0.0
O3 O 0.06342 0.32361 0.3125 0.0
O4 O 0.07501 0.40219 0.2721 0.0
O5 O 0.09313 0.32192 0.24368 0.0
O6 O 0.088 0.35764 0.23631 0.0
C7 C 0.05047 0.33986 0.31585 0.0
C8 C 0.12453 0.35822 0.31722 0.0
O9 O 0.11111 0.37312 0.30824 0.0
O10 O 0.12045 0.33801 0.31152 0.0
C11 C 0.07421 0.41649 0.29407 0.0
O12 O 0.07889 0.41044 0.32304 0.0
C13 C 0.09128 0.33825 0.22535 0.0
Zn14 Zn 0.91443 0.76908 0.48171 0.0
Zn15 Zn 0.87447 0.78484 0.49738 0.0
O16 O 0.87156 0.75078 0.50009 0.0
O17 O 0.90485 0.73782 0.49038 0.0
O18 O 0.84328 0.79533 0.50484 0.0
O19 O 0.91074 0.78078 0.43811 0.0
O20 O 0.88051 0.798 0.45355 0.0
C21 C 0.88472 0.73445 0.49723 0.0
C22 C 0.91447 0.79934 0.53543 0.0
O23 O 0.89347 0.79863 0.53256 0.0
O24 O 0.92678 0.78904 0.51621 0.0
C25 C 0.82955 0.78459 0.5216 0.0
O26 O 0.83628 0.76698 0.53691 0.0
C27 C 0.89495 0.79389 0.43258 0.0
Zn28 Zn 0.48856 0.64037 0.80621 0.0
Zn29 Zn 0.48334 0.60181 0.77777 0.0
O30 O 0.51727 0.60374 0.78738 0.0
O31 O 0.52123 0.637 0.80812 0.0
O32 O 0.48135 0.57307 0.75396 0.0
O33 O 0.47482 0.65627 0.76944 0.0
O34 O 0.47159 0.62407 0.74545 0.0
C35 C 0.52955 0.61903 0.79869 0.0
C36 C 0.45862 0.61134 0.83889 0.0
O37 O 0.4614 0.59879 0.81505 0.0
O38 O 0.46935 0.62929 0.84139 0.0
C39 C 0.46345 0.5654 0.74243 0.0
O40 O 0.44481 0.57604 0.74721 0.0
C41 C 0.46891 0.64497 0.74572 0.0
Zn42 Zn 0.59825 0.25183 0.06273 0.0
Zn43 Zn 0.63332 0.23029 0.05974 0.0
O44 O 0.64119 0.26319 0.07067 0.0
O45 O 0.61152 0.28172 0.05756 0.0
O46 O 0.66305 0.21594 0.05195 0.0
O47 O 0.58391 0.23749 0.02613 0.0
O48 O 0.6165 0.22242 0.01851 0.0
C49 C 0.63143 0.28166 0.06661 0.0
C50 C 0.60285 0.22116 0.11372 0.0
O51 O 0.61881 0.21402 0.09695 0.0
O52 O 0.59292 0.23876 0.10591 0.0
C53 C 0.68131 0.22465 0.06049 0.0
O54 O 0.6811 0.24288 0.07739 0.0
C55 C 0.59654 0.22549 0.00975 0.0
Zn56 Zn 0.99726 0.6538 0.25297 0.0
Zn57 Zn 0.01681 0.61783 0.26211 0.0
O58 O 0.98298 0.61099 0.25893 0.0
O59 O 0.96715 0.64327 0.26493 0.0
O60 O 0.02956 0.58782 0.27093 0.0
O61 O 0.01577 0.66987 0.28426 0.0
O62 O 0.02897 0.6375 0.29823 0.0
C63 C 0.96546 0.62252 0.26218 0.0
C64 C 0.02347 0.64111 0.20021 0.0
O65 O 0.03078 0.62706 0.21993 0.0
O66 O 0.00719 0.65325 0.20745 0.0
C67 C 0.02702 0.57253 0.25063 0.0
O68 O 0.01658 0.57697 0.22421 0.0
C69 C 0.02794 0.65841 0.30208 0.0
Zn70 Zn 0.5805 0.78562 0.47835 0.0
Zn71 Zn 0.62373 0.79169 0.47244 0.0
O72 O 0.61778 0.76141 0.45153 0.0
O73 O 0.58201 0.7558 0.45751 0.0
O74 O 0.65692 0.79245 0.47408 0.0
O75 O 0.58115 0.78745 0.52511 0.0
O76 O 0.61622 0.79669 0.51952 0.0
C77 C 0.60063 0.74941 0.44742 0.0
C78 C 0.59386 0.82315 0.4385 0.0
O79 O 0.61358 0.8165 0.44317 0.0
O80 O 0.57766 0.81349 0.45172 0.0
C81 C 0.66856 0.80958 0.47961 0.0
O82 O 0.65886 0.82892 0.48219 0.0
C83 C 0.59932 0.79371 0.53695 0.0
Zn84 Zn 0.47516 0.33285 0.67872 0.0
Zn85 Zn 0.46436 0.37145 0.65892 0.0
O86 O 0.49807 0.37309 0.66811 0.0
O87 O 0.50451 0.34322 0.69589 0.0
O88 O 0.45671 0.40334 0.65035 0.0
O89 O 0.44868 0.33024 0.70695 0.0
O90 O 0.44416 0.36563 0.69718 0.0
C91 C 0.5112 0.36141 0.68464 0.0
C92 C 0.46288 0.33316 0.61327 0.0
O93 O 0.45629 0.35275 0.61944 0.0
O94 O 0.4731 0.32208 0.63394 0.0
C95 C 0.47091 0.41728 0.64052 0.0
O96 O 0.49027 0.41017 0.63079 0.0
C97 C 0.43874 0.34824 0.71224 0.0
Zn98 Zn 0.91122 0.16691 0.93394 0.0
Zn99 Zn 0.86934 0.18022 0.9432 0.0
O100 O 0.8853 0.20953 0.93282 0.0
O101 O 0.91961 0.1988 0.92467 0.0
O102 O 0.83872 0.18995 0.95521 0.0
O103 O 0.91397 0.15502 0.97751 0.0
O104 O 0.87939 0.16537 0.9843 0.0
C105 C 0.90537 0.21413 0.92614 0.0
C106 C 0.87893 0.14599 0.89265 0.0
O107 O 0.86502 0.15899 0.90551 0.0
O108 O 0.89908 0.14633 0.90092 0.0
C109 C 0.82392 0.17577 0.96215 0.0
O110 O 0.82843 0.1546 0.95933 0.0
C111 C 0.89694 0.15626 -0.00531 0.0
Zn112 Zn 0.91269 0.66926 0.7006 0.0
Zn113 Zn 0.92842 0.62834 0.69998 0.0
O114 O 0.95684 0.64568 0.68945 0.0
O115 O 0.94384 0.67969 0.69014 0.0
O116 O 0.93807 0.59681 0.7062 0.0
O117 O 0.90215 0.66838 0.7449 0.0
O118 O 0.91544 0.63457 0.74414 0.0
C119 C 0.95988 0.66645 0.68636 0.0
C120 C 0.89286 0.64185 0.65276 0.0
O121 O 0.90689 0.62757 0.66208 0.0
O122 O 0.89159 0.66047 0.66633 0.0
C123 C 0.92315 0.58293 0.71384 0.0
O124 O 0.9024 0.58939 0.71449 0.0
C125 C 0.90575 0.65025 0.7587 0.0
Zn126 Zn 0.10152 0.2686 0.45991 0.0
Zn127 Zn 0.13428 0.24073 0.46372 0.0
O128 O 0.14797 0.27232 0.46446 0.0
O129 O 0.12012 0.29532 0.46862 0.0
O130 O 0.16149 0.222 0.46852 0.0
O131 O 0.08598 0.25334 0.49513 0.0
O132 O 0.11436 0.23092 0.50039 0.0
C133 C 0.14076 0.292 0.46765 0.0
C134 C 0.1051 0.24024 0.40536 0.0
O135 O 0.12027 0.23115 0.42167 0.0
O136 O 0.09568 0.2576 0.41542 0.0
C137 C 0.1782 0.22683 0.45168 0.0
O138 O 0.17641 0.2426 0.43057 0.0
C139 C 0.09517 0.23726 0.50889 0.0
Zn140 Zn 0.52672 0.33617 0.23998 0.0
Zn141 Zn 0.52892 0.37993 0.24185 0.0
O142 O 0.49983 0.3734 0.21759 0.0
O143 O 0.49833 0.33703 0.21526 0.0
O144 O 0.52836 0.41283 0.24754 0.0
O145 O 0.52552 0.33338 0.28672 0.0
O146 O 0.53272 0.36911 0.28763 0.0
C147 C 0.49005 0.35569 0.20882 0.0
C148 C 0.56612 0.35585 0.2105 0.0
O149 O 0.55669 0.37426 0.21582 0.0
O150 O 0.55706 0.33785 0.21902 0.0
C151 C 0.5309 0.42602 0.22458 0.0
O152 O 0.53394 0.41794 0.19614 0.0
C153 C 0.5303 0.35074 0.30194 0.0
Zn154 Zn 0.40689 0.75068 0.92625 0.0
Zn155 Zn 0.36627 0.75823 0.94007 0.0
O156 O 0.36755 0.72372 0.9349 0.0
O157 O 0.40354 0.71831 0.93281 0.0
O158 O 0.33468 0.76457 0.95204 0.0
O159 O 0.41806 0.76919 0.96204 0.0
O160 O 0.38349 0.7715 0.97786 0.0
C161 C 0.38409 0.71064 0.93439 0.0
C162 C 0.38598 0.7764 0.87928 0.0
O163 O 0.37076 0.77704 0.9 0.0
O164 O 0.40274 0.76424 0.88342 0.0
C165 C 0.3183 0.75209 0.94556 0.0
O166 O 0.32157 0.73366 0.92978 0.0
C167 C 0.40402 0.77552 0.98218 0.0
Zn168 Zn 0.98143 0.34891 0.77128 0.0
Zn169 Zn 0.96294 0.38504 0.78231 0.0
O170 O 0.99684 0.39066 0.7772 0.0
O171 O 0.00996 0.36091 0.75449 0.0
O172 O 0.95063 0.41598 0.78636 0.0
O173 O 0.95709 0.33933 0.74262 0.0
O174 O 0.94544 0.37373 0.74382 0.0
C175 C 0.01293 0.38044 0.76433 0.0
C176 C 0.96333 0.34948 0.83254 0.0
O177 O 0.95398 0.36685 0.82185 0.0
O178 O 0.97857 0.34031 0.8168 0.0
C179 C 0.96248 0.43241 0.79479 0.0
O180 O 0.98258 0.42892 0.8055 0.0
C181 C 0.9439 0.35409 0.73317 0.0
Zn182 Zn 0.41788 0.1567 0.49833 0.0
Zn183 Zn 0.37584 0.17007 0.50468 0.0
O184 O 0.39296 0.19936 0.5036 0.0
O185 O 0.42759 0.18909 0.49751 0.0
O186 O 0.34432 0.18033 0.5044 0.0
O187 O 0.41102 0.14006 0.45868 0.0
O188 O 0.37664 0.15135 0.4641 0.0
C189 C 0.41337 0.20431 0.5007 0.0
C190 C 0.39685 0.14253 0.55637 0.0
O191 O 0.38035 0.15368 0.54661 0.0
O192 O 0.4142 0.14098 0.53976 0.0
C193 C 0.32785 0.16735 0.5072 0.0
O194 O 0.33126 0.14627 0.51283 0.0
C195 C 0.39122 0.14048 0.44896 0.0
Zn196 Zn 0.50463 0.67797 0.23359 0.0
Zn197 Zn 0.516 0.63547 0.23644 0.0
O198 O 0.48476 0.63614 0.25556 0.0
O199 O 0.47474 0.67102 0.25255 0.0
O200 O 0.5225 0.60307 0.23339 0.0
O201 O 0.50865 0.67953 0.18681 0.0
O202 O 0.52166 0.6457 0.19083 0.0
C203 C 0.47059 0.65129 0.26067 0.0
C204 C 0.54266 0.66784 0.27444 0.0
O205 O 0.53847 0.64773 0.26769 0.0
O206 O 0.53136 0.68332 0.26233 0.0
C207 C 0.52016 0.59003 0.25658 0.0
O208 O 0.51384 0.59802 0.28393 0.0
C209 C 0.51775 0.66285 0.17435 0.0
Zn210 Zn 0.08761 0.7963 0.08212 0.0
Zn211 Zn 0.12671 0.78606 0.05866 0.0
O212 O 0.1132 0.75538 0.0701 0.0
O213 O 0.07938 0.76438 0.08459 0.0
O214 O 0.15569 0.77806 0.03859 0.0
O215 O 0.07876 0.81308 0.04386 0.0
O216 O 0.11068 0.80323 0.02316 0.0
C217 C 0.09377 0.74978 0.07882 0.0
C218 C 0.1242 0.81414 0.11787 0.0
O219 O 0.13609 0.80567 0.09631 0.0
O220 O 0.10337 0.81179 0.11754 0.0
C221 C 0.16951 0.79323 0.03185 0.0
O222 O 0.16449 0.8139 0.03818 0.0
C223 C 0.09209 0.81309 0.02092 0.0
Zn224 Zn 0.53294 0.84001 0.80355 0.0
Zn225 Zn 0.53487 0.88046 0.78643 0.0
O226 O 0.5009 0.87412 0.7889 0.0
O227 O 0.50079 0.83787 0.79362 0.0
O228 O 0.53575 0.91227 0.77314 0.0
O229 O 0.55451 0.83092 0.77009 0.0
O230 O 0.55129 0.86443 0.75057 0.0
C231 C 0.49045 0.85576 0.78953 0.0
C232 C 0.5534 0.86611 0.85023 0.0
O233 O 0.55286 0.88014 0.82792 0.0
O234 O 0.54361 0.84769 0.84715 0.0
C235 C 0.55261 0.92448 0.77785 0.0
O236 O 0.57019 0.91611 0.79156 0.0
C237 C 0.55878 0.84478 0.74861 0.0
Zn238 Zn 0.41309 0.29989 0.97105 0.0
Zn239 Zn 0.36893 0.30164 0.98092 0.0
O240 O 0.37595 0.26862 0.98376 0.0
O241 O 0.41166 0.2663 0.97416 0.0
O242 O 0.33568 0.30232 0.98491 0.0
O243 O 0.40958 0.31558 0.92998 0.0
O244 O 0.37341 0.3157 0.93713 0.0
C245 C 0.39334 0.257 0.98037 0.0
C246 C 0.40084 0.32477 0.02658 0.0
O247 O 0.38106 0.31935 0.01914 0.0
O248 O 0.41703 0.31864 0.00982 0.0
C249 C 0.32458 0.28991 0.96643 0.0
O250 O 0.33522 0.27706 0.94659 0.0
C251 C 0.39034 0.32049 0.9206 0.0
Zn252 Zn 0.94414 0.16584 0.27343 0.0
Zn253 Zn 0.96053 0.12505 0.27518 0.0
O254 O 0.98879 0.14382 0.28246 0.0
O255 O 0.97522 0.17755 0.27951 0.0
O256 O 0.9708 0.09356 0.2709 0.0
O257 O 0.93123 0.16253 0.23083 0.0
O258 O 0.94483 0.12881 0.23221 0.0
C259 C 0.9916 0.16475 0.28319 0.0
C260 C 0.92617 0.13905 0.32343 0.0
O261 O 0.9399 0.12456 0.31392 0.0
O262 O 0.92485 0.15763 0.30989 0.0
C263 C 0.98253 0.08823 0.24723 0.0
O264 O 0.98928 0.1038 0.22789 0.0
C265 C 0.93396 0.14386 0.21805 0.0
Zn266 Zn 0.09892 0.76683 0.52551 0.0
Zn267 Zn 0.12916 0.73723 0.53733 0.0
O268 O 0.14119 0.76783 0.55195 0.0
O269 O 0.11813 0.79299 0.53464 0.0
O270 O 0.15654 0.71834 0.53864 0.0
O271 O 0.09398 0.7571 0.48119 0.0
O272 O 0.11875 0.73163 0.49176 0.0
C273 C 0.13586 0.78811 0.5488 0.0
C274 C 0.08789 0.73418 0.57522 0.0
O275 O 0.1063 0.72505 0.56848 0.0
O276 O 0.082 0.75174 0.56119 0.0
C277 C 0.17174 0.72103 0.55904 0.0
O278 O 0.16838 0.73466 0.58271 0.0
C279 C 0.105 0.74038 0.47277 0.0
Zn280 Zn 0.52096 0.17413 0.75112 0.0
Zn281 Zn 0.53278 0.13167 0.75506 0.0
O282 O 0.50046 0.13085 0.73937 0.0
O283 O 0.49113 0.16576 0.73355 0.0
O284 O 0.54023 0.09952 0.75899 0.0
O285 O 0.52434 0.17749 0.79759 0.0
O286 O 0.53843 0.14394 0.79971 0.0
C287 C 0.48627 0.14541 0.73162 0.0
C288 C 0.55967 0.16241 0.71396 0.0
O289 O 0.55521 0.14278 0.72268 0.0
O290 O 0.54807 0.17853 0.72345 0.0
C291 C 0.53465 0.08619 0.73716 0.0
O292 O 0.52428 0.09382 0.71223 0.0
C293 C 0.53344 0.16215 0.81307 0.0
Zn294 Zn 0.07433 0.31164 0.93515 0.0
Zn295 Zn 0.11508 0.29756 0.93058 0.0
O296 O 0.09799 0.27049 0.91191 0.0
O297 O 0.06416 0.28403 0.91328 0.0
O298 O 0.14746 0.28932 0.93212 0.0
O299 O 0.07355 0.31224 0.98166 0.0
O300 O 0.10903 0.30434 0.97791 0.0
C301 C 0.07727 0.26841 0.90651 0.0
C302 C 0.10132 0.34012 0.89761 0.0
O303 O 0.11524 0.32452 0.90082 0.0
O304 O 0.0828 0.33916 0.91148 0.0
C305 C 0.15969 0.30363 0.94575 0.0
O306 O 0.15054 0.32184 0.95651 0.0
C307 C 0.09213 0.30916 -0.00548 0.0
Zn308 Zn 0.00787 0.84374 0.22168 0.0
Zn309 Zn 0.99494 0.88132 0.21022 0.0
O310 O 0.02885 0.8831 0.21946 0.0
O311 O 0.03567 0.85223 0.24444 0.0
O312 O 0.98698 0.91344 0.20514 0.0
O313 O 0.98028 0.83626 0.24506 0.0
O314 O 0.97388 0.872 0.24616 0.0
C315 C 0.04218 0.87099 0.23509 0.0
C316 C 0.99496 0.84671 0.15857 0.0
O317 O 0.98638 0.86454 0.1691 0.0
O318 O 0.00845 0.83606 0.17556 0.0
C319 C 1e-05 0.92763 0.19305 0.0
O320 O 0.01853 0.92092 0.17997 0.0
C321 C 0.96879 0.8524 0.25443 0.0
Zn322 Zn 0.41776 0.72417 0.48806 0.0
Zn323 Zn 0.37514 0.71499 0.49471 0.0
O324 O 0.37532 0.74621 0.47493 0.0
O325 O 0.41078 0.75445 0.47152 0.0
O326 O 0.34324 0.7105 0.50698 0.0
O327 O 0.42531 0.72032 0.53328 0.0
O328 O 0.39071 0.70922 0.53753 0.0
C329 C 0.39072 0.75964 0.46728 0.0
C330 C 0.4012 0.68715 0.44958 0.0
O331 O 0.38228 0.69203 0.46077 0.0
O332 O 0.41837 0.69767 0.45832 0.0
C333 C 0.3279 0.70203 0.4903 0.0
O334 O 0.33233 0.69515 0.46162 0.0
C335 C 0.40979 0.71238 0.5497 0.0
Zn336 Zn 0.42631 0.15716 0.18635 0.0
Zn337 Zn 0.43759 0.11561 0.17267 0.0
O338 O 0.4681 0.12989 0.17928 0.0
O339 O 0.45897 0.1637 0.1936 0.0
O340 O 0.44438 0.08326 0.16706 0.0
O341 O 0.4068 0.14855 0.22202 0.0
O342 O 0.4181 0.11461 0.21281 0.0
C343 C 0.47369 0.14926 0.18827 0.0
C344 C 0.41367 0.14367 0.12373 0.0
O345 O 0.423 0.12547 0.13088 0.0
O346 O 0.41285 0.15941 0.14339 0.0
C347 C 0.42865 0.06939 0.17011 0.0
O348 O 0.40839 0.07674 0.17407 0.0
C349 C 0.40678 0.12825 0.22903 0.0
Zn350 Zn 0.60543 0.72931 0.92159 0.0
Zn351 Zn 0.64211 0.71973 0.95163 0.0
O352 O 0.6427 0.75419 0.94739 0.0
O353 O 0.61121 0.76157 0.92342 0.0
O354 O 0.6713 0.71339 0.97278 0.0
O355 O 0.58797 0.71497 0.95665 0.0
O356 O 0.61877 0.70855 0.98291 0.0
C357 C 0.62902 0.76807 0.93608 0.0
C358 C 0.63106 0.69886 0.88698 0.0
O359 O 0.64275 0.6995 0.91201 0.0
O360 O 0.61464 0.71161 0.88398 0.0
C361 C 0.68841 0.72432 0.96476 0.0
O362 O 0.68672 0.73931 0.94253 0.0
C363 C 0.59773 0.70754 0.98083 0.0
Zn364 Zn 0.04775 0.83303 0.74489 0.0
Zn365 Zn 0.04667 0.87701 0.74145 0.0
O366 O 0.01935 0.86671 0.71556 0.0
O367 O 0.0201 0.83033 0.71881 0.0
O368 O 0.04312 0.91004 0.74338 0.0
O369 O 0.04514 0.83299 0.79164 0.0
O370 O 0.04881 0.86922 0.78878 0.0
C371 C 0.01105 0.84783 0.70885 0.0
C372 C 0.08633 0.85373 0.71466 0.0
O373 O 0.07571 0.87173 0.71808 0.0
O374 O 0.07823 0.83565 0.72464 0.0
C375 C 0.04636 0.92307 0.72038 0.0
O376 O 0.0527 0.91494 0.69312 0.0
C377 C 0.04727 0.85157 0.80501 0.0
Zn378 Zn 0.92004 0.26382 0.50724 0.0
Zn379 Zn 0.8832 0.27772 0.47805 0.0
O380 O 0.88238 0.24358 0.47413 0.0
O381 O 0.91358 0.23232 0.4955 0.0
O382 O 0.85328 0.28813 0.46276 0.0
O383 O 0.90911 0.2748 0.54866 0.0
O384 O 0.88194 0.2908 0.52275 0.0
C385 C 0.89551 0.22795 0.48167 0.0
C386 C 0.92765 0.29385 0.45436 0.0
O387 O 0.90684 0.29211 0.44977 0.0
O388 O 0.93672 0.28442 0.47768 0.0
C389 C 0.83852 0.27574 0.45054 0.0
O390 O 0.84352 0.25525 0.44312 0.0
C391 C 0.89238 0.28727 0.54826 0.0
Zn392 Zn 0.46959 0.82585 0.24931 0.0
Zn393 Zn 0.45722 0.86781 0.2445 0.0
O394 O 0.48884 0.87005 0.26298 0.0
O395 O 0.4994 0.83527 0.2658 0.0
O396 O 0.44927 0.89952 0.2361 0.0
O397 O 0.46601 0.81994 0.2035 0.0
O398 O 0.45252 0.85366 0.20032 0.0
C399 C 0.50341 0.85565 0.26992 0.0
C400 C 0.43168 0.83791 0.28831 0.0
O401 O 0.43523 0.85739 0.27808 0.0
O402 O 0.44338 0.82184 0.27885 0.0
C403 C 0.46215 0.9108 0.21867 0.0
O404 O 0.48019 0.90151 0.20762 0.0
C405 C 0.45718 0.83515 0.1875 0.0
Zn406 Zn 0.92682 0.67216 0.04614 0.0
Zn407 Zn 0.88562 0.6891 0.04872 0.0
O408 O 0.90473 0.71689 0.05643 0.0
O409 O 0.93849 0.70328 0.05447 0.0
O410 O 0.85437 0.7004 0.04629 0.0
O411 O 0.92247 0.6615 0.00195 0.0
O412 O 0.88886 0.67536 0.00461 0.0
C413 C 0.92565 0.71968 0.0578 0.0
C414 C 0.89927 0.65258 0.09437 0.0
O415 O 0.88517 0.66692 0.08556 0.0
O416 O 0.91802 0.65147 0.08114 0.0
C417 C 0.83844 0.68666 0.0483 0.0
O418 O 0.84283 0.66575 0.05386 0.0
C419 C 0.90383 0.66508 0.98939 0.0
Zn420 Zn 0.97067 0.16263 0.7129 0.0
Zn421 Zn 0.99396 0.12631 0.7172 0.0
O422 O 0.96089 0.11751 0.72352 0.0
O423 O 0.94146 0.14733 0.71363 0.0
O424 O 0.00894 0.09664 0.71714 0.0
O425 O 0.98437 0.17034 0.67176 0.0
O426 O 0.00399 0.13982 0.67509 0.0
C427 C 0.94217 0.12702 0.72052 0.0
C428 C 0.00139 0.16203 0.76597 0.0
O429 O 0.00753 0.14358 0.75438 0.0
O430 O 0.98552 0.17258 0.75353 0.0
C431 C 0.00613 0.08329 0.73988 0.0
O432 O 0.99421 0.08957 0.76417 0.0
C433 C 0.99882 0.15747 0.66053 0.0
Zn434 Zn 0.6043 0.28171 0.55796 0.0
Zn435 Zn 0.64147 0.28982 0.53879 0.0
O436 O 0.64099 0.25735 0.55621 0.0
O437 O 0.6057 0.249 0.55462 0.0
O438 O 0.6717 0.29102 0.51892 0.0
O439 O 0.58785 0.29788 0.52509 0.0
O440 O 0.62045 0.29917 0.50222 0.0
C441 C 0.6255 0.24302 0.55842 0.0
C442 C 0.62795 0.31161 0.59821 0.0
O443 O 0.64068 0.31305 0.57439 0.0
O444 O 0.61254 0.29733 0.59847 0.0
C445 C 0.68383 0.30797 0.51459 0.0
O446 O 0.6769 0.32746 0.52409 0.0
C447 C 0.59962 0.30273 0.50152 0.0
H448 H 0.10633 0.36632 0.17926 0.0
H449 H 0.06266 0.29501 0.03791 0.0
H450 H 0.07902 0.30107 0.19413 0.0
H451 H 0.12505 0.32934 0.02845 0.0
H452 H 0.06363 0.30193 0.09474 0.0
H453 H 0.10867 0.35819 0.1224 0.0
C454 C 0.10076 0.35039 0.17052 0.0
C455 C 0.09246 0.33432 0.19121 0.0
C456 C 0.07717 0.3078 0.08021 0.0
C457 C 0.09485 0.32516 0.127 0.0
C458 C 0.07663 0.30388 0.04795 0.0
C459 C 0.09387 0.31154 0.02879 0.0
C460 C 0.09473 0.32002 0.09316 0.0
C461 C 0.11159 0.32302 0.04271 0.0
C462 C 0.10228 0.34572 0.13832 0.0
C463 C 0.0856 0.31385 0.17891 0.0
N464 N 0.11144 0.32725 0.07421 0.0
N465 N 0.0867 0.30994 0.14752 0.0
H466 H 0.94172 0.8169 0.25107 0.0
H467 H 0.89241 0.83828 0.42148 0.0
H468 H 0.95188 0.87765 0.30273 0.0
H469 H 0.89774 0.77499 0.37519 0.0
H470 H 0.90258 0.85657 0.37176 0.0
H471 H 0.9138 0.80576 0.28919 0.0
C472 C 0.93785 0.828 0.27039 0.0
C473 C 0.94948 0.8479 0.27443 0.0
C474 C 0.90085 0.83873 0.37231 0.0
C475 C 0.91787 0.83508 0.31846 0.0
C476 C 0.89493 0.82835 0.40051 0.0
C477 C 0.89456 0.80519 0.40216 0.0
C478 C 0.90615 0.82571 0.34592 0.0
C479 C 0.89811 0.79291 0.37472 0.0
C480 C 0.92187 0.82167 0.29207 0.0
C481 C 0.94346 0.86198 0.29923 0.0
N482 N 0.904 0.80331 0.34778 0.0
N483 N 0.92837 0.85505 0.32091 0.0
H484 H 0.47102 0.68878 0.73047 0.0
H485 H 0.38968 0.67913 0.58277 0.0
H486 H 0.44283 0.62659 0.69974 0.0
H487 H 0.44143 0.72838 0.58951 0.0
H488 H 0.40221 0.66343 0.63302 0.0
H489 H 0.4537 0.70701 0.68535 0.0
C490 C 0.46112 0.67898 0.71429 0.0
C491 C 0.4585 0.65611 0.71864 0.0
C492 C 0.4106 0.67783 0.62357 0.0
C493 C 0.43842 0.67691 0.66748 0.0
C494 C 0.40337 0.68689 0.59514 0.0
C495 C 0.41467 0.70495 0.58198 0.0
C496 C 0.42894 0.6872 0.63905 0.0
C497 C 0.43241 0.71431 0.59878 0.0
C498 C 0.45127 0.68939 0.68861 0.0
C499 C 0.44546 0.64422 0.69701 0.0
N500 N 0.43904 0.7053 0.62646 0.0
N501 N 0.43583 0.65478 0.67234 0.0
H502 H 0.51317 0.18948 0.85453 0.0
H503 H 0.61644 0.19447 0.97152 0.0
H504 H 0.56923 0.1459 0.84522 0.0
H505 H 0.55552 0.23061 0.98448 0.0
H506 H 0.5996 0.17532 0.92631 0.0
H507 H 0.52792 0.20275 0.90445 0.0
C508 C 0.52847 0.18247 0.86333 0.0
C509 C 0.54012 0.16673 0.84574 0.0
C510 C 0.58996 0.18739 0.93922 0.0
C511 C 0.55746 0.18222 0.90253 0.0
C512 C 0.5996 0.19843 0.96482 0.0
C513 C 0.58743 0.21427 0.98165 0.0
C514 C 0.56808 0.19235 0.93049 0.0
C515 C 0.56561 0.21862 0.97217 0.0
C516 C 0.53695 0.19009 0.8918 0.0
C517 C 0.55977 0.15805 0.85822 0.0
N518 N 0.55671 0.20778 0.94723 0.0
N519 N 0.56807 0.1662 0.88573 0.0
H520 H 0.05756 0.64044 0.34434 0.0
H521 H 0.0839 0.75814 0.42214 0.0
H522 H 0.02999 0.70264 0.31357 0.0
H523 H 0.11268 0.69731 0.45579 0.0
H524 H 0.06788 0.73803 0.37789 0.0
H525 H 0.08066 0.66072 0.38238 0.0
C526 C 0.05633 0.6583 0.34561 0.0
C527 C 0.04168 0.66983 0.32594 0.0
C528 C 0.07789 0.72905 0.39471 0.0
C529 C 0.06815 0.69304 0.36888 0.0
C530 C 0.08713 0.74057 0.41991 0.0
C531 C 0.09938 0.72931 0.44284 0.0
C532 C 0.08065 0.70602 0.39261 0.0
C533 C 0.10324 0.70659 0.43865 0.0
C534 C 0.06959 0.66986 0.36715 0.0
C535 C 0.04089 0.69298 0.32837 0.0
N536 N 0.09358 0.69557 0.41425 0.0
N537 N 0.05387 0.70376 0.34945 0.0
H538 H 0.58049 0.77037 0.58424 0.0
H539 H 0.57504 0.87003 0.69996 0.0
H540 H 0.61907 0.8291 0.5658 0.0
H541 H 0.57013 0.80258 0.73279 0.0
H542 H 0.59102 0.85637 0.65051 0.0
H543 H 0.57617 0.78219 0.63896 0.0
C544 C 0.58837 0.78558 0.59199 0.0
C545 C 0.6001 0.79884 0.57073 0.0
C546 C 0.58679 0.84467 0.66885 0.0
C547 C 0.59472 0.81277 0.63278 0.0
C548 C 0.57756 0.85242 0.69695 0.0
C549 C 0.57093 0.8374 0.72033 0.0
C550 C 0.58896 0.82178 0.66403 0.0
C551 C 0.57477 0.81476 0.71532 0.0
C552 C 0.58595 0.79231 0.62314 0.0
C553 C 0.60999 0.81843 0.58171 0.0
N554 N 0.58317 0.80762 0.6875 0.0
N555 N 0.60667 0.82511 0.61197 0.0
H556 H 0.36335 0.30767 0.87231 0.0
H557 H 0.42951 0.38339 0.75054 0.0
H558 H 0.41266 0.35608 0.89856 0.0
H559 H 0.41158 0.31529 0.73294 0.0
H560 H 0.40898 0.38192 0.80038 0.0
H561 H 0.36701 0.3194 0.81702 0.0
C562 C 0.37433 0.32129 0.86651 0.0
C563 C 0.38796 0.33081 0.88959 0.0
C564 C 0.40906 0.36754 0.78508 0.0
C565 C 0.39199 0.34432 0.82726 0.0
C566 C 0.4207 0.36836 0.75671 0.0
C567 C 0.42257 0.34926 0.7381 0.0
C568 C 0.399 0.34763 0.7944 0.0
C569 C 0.41085 0.33021 0.74706 0.0
C570 C 0.37646 0.32788 0.83512 0.0
C571 C 0.40209 0.34823 0.88115 0.0
N572 N 0.39974 0.32978 0.77482 0.0
N573 N 0.40391 0.35433 0.85054 0.0
H574 H 0.86752 0.16408 0.04239 0.0
H575 H 0.94729 0.11354 0.1739 0.0
H576 H 0.9288 0.13045 0.02154 0.0
H577 H 0.89949 0.16518 0.19065 0.0
H578 H 0.93418 0.11082 0.11924 0.0
H579 H 0.87264 0.15536 0.09814 0.0
C580 C 0.88187 0.15459 0.04946 0.0
C581 C 0.89802 0.14841 0.02747 0.0
C582 C 0.92641 0.12251 0.13511 0.0
C583 C 0.90391 0.13839 0.09094 0.0
C584 C 0.93384 0.12404 0.16619 0.0
C585 C 0.92473 0.13991 0.18648 0.0
C586 C 0.90963 0.13676 0.12461 0.0
C587 C 0.90726 0.15304 0.1755 0.0
C588 C 0.88479 0.14966 0.08124 0.0
C589 C 0.91618 0.13593 0.03786 0.0
N590 N 0.90037 0.15128 0.14522 0.0
N591 N 0.91877 0.13153 0.06896 0.0
H592 H 0.87804 0.6762 0.79341 0.0
H593 H 0.92773 0.63558 0.95469 0.0
H594 H 0.92092 0.61941 0.80055 0.0
H595 H 0.87117 0.67893 0.94927 0.0
H596 H 0.92379 0.62759 0.89862 0.0
H597 H 0.87325 0.67571 0.85045 0.0
C598 C 0.88624 0.66346 0.80697 0.0
C599 C 0.9002 0.64804 0.79233 0.0
C600 C 0.91204 0.63861 0.90976 0.0
C601 C 0.89496 0.64753 0.85759 0.0
C602 C 0.91435 0.64327 0.94173 0.0
C603 C 0.89996 0.65822 0.9565 0.0
C604 C 0.89546 0.64925 0.89232 0.0
C605 C 0.88274 0.66746 0.93872 0.0
C606 C 0.88344 0.66314 0.83952 0.0
C607 C 0.91018 0.63172 0.81095 0.0
N608 N 0.88118 0.6631 0.90739 0.0
N609 N 0.90767 0.63212 0.84273 0.0
H610 H 0.10632 0.19833 0.53857 0.0
H611 H 0.98645 0.18772 0.61682 0.0
H612 H 0.05426 0.24695 0.53156 0.0
H613 H 0.0404 0.14455 0.64215 0.0
H614 H 0.01026 0.20578 0.57852 0.0
H615 H 0.08213 0.17577 0.57223 0.0
C616 C 0.08995 0.20437 0.54435 0.0
C617 C 0.0823 0.22455 0.53221 0.0
C618 C 0.01691 0.19224 0.59224 0.0
C619 C 0.05457 0.19872 0.56987 0.0
C620 C 0.00325 0.18182 0.61395 0.0
C621 C 0.01158 0.16484 0.63295 0.0
C622 C 0.03914 0.18578 0.58962 0.0
C623 C 0.03339 0.15767 0.628 0.0
C624 C 0.07613 0.19142 0.56331 0.0
C625 C 0.0609 0.23151 0.54027 0.0
N626 N 0.0466 0.16842 0.60703 0.0
N627 N 0.0478 0.21857 0.55843 0.0
H628 H 0.61876 0.3258 0.45285 0.0
H629 H 0.51289 0.32257 0.34524 0.0
H630 H 0.55578 0.30176 0.48699 0.0
H631 H 0.56277 0.37315 0.3334 0.0
H632 H 0.52888 0.31344 0.39652 0.0
H633 H 0.59971 0.3416 0.40696 0.0
C634 C 0.60098 0.32384 0.45067 0.0
C635 C 0.58884 0.31236 0.47359 0.0
C636 C 0.53608 0.32682 0.38297 0.0
C637 C 0.56712 0.33027 0.42156 0.0
C638 C 0.52693 0.33206 0.35382 0.0
C639 C 0.53656 0.34861 0.33524 0.0
C640 C 0.55534 0.33781 0.3931 0.0
C641 C 0.5548 0.36037 0.34723 0.0
C642 C 0.59013 0.33302 0.42473 0.0
C643 C 0.5658 0.31046 0.46984 0.0
N644 N 0.56394 0.35443 0.37523 0.0
N645 N 0.55572 0.31911 0.44415 0.0
H646 H 0.47884 0.80843 0.1466 0.0
H647 H 0.37939 0.79788 0.02648 0.0
H648 H 0.42169 0.85074 0.15398 0.0
H649 H 0.44652 0.77989 0.00287 0.0
H650 H 0.39328 0.81603 0.07449 0.0
H651 H 0.46634 0.79654 0.09457 0.0
C652 C 0.46377 0.8154 0.13702 0.0
C653 C 0.45123 0.83052 0.1545 0.0
C654 C 0.40491 0.80826 0.05855 0.0
C655 C 0.43656 0.81666 0.09533 0.0
C656 C 0.397 0.79779 0.03133 0.0
C657 C 0.4118 0.78721 0.01077 0.0
C658 C 0.42766 0.80778 0.06538 0.0
C659 C 0.43448 0.78775 0.01805 0.0
C660 C 0.45665 0.80864 0.10734 0.0
C661 C 0.43185 0.83911 0.14106 0.0
N662 N 0.44167 0.79765 0.04488 0.0
N663 N 0.42486 0.83177 0.11236 0.0
H664 H 0.92565 0.3792 0.68589 0.0
H665 H 0.88439 0.26933 0.60529 0.0
H666 H 0.9226 0.3149 0.72958 0.0
H667 H 0.88833 0.33171 0.55666 0.0
H668 H 0.88621 0.28887 0.6555 0.0
H669 H 0.90151 0.36538 0.64339 0.0
C670 C 0.91951 0.36235 0.68681 0.0
C671 C 0.92659 0.34789 0.7105 0.0
C672 C 0.88617 0.29845 0.63396 0.0
C673 C 0.89907 0.33215 0.6627 0.0
C674 C 0.88501 0.28726 0.60537 0.0
C675 C 0.88656 0.29902 0.57717 0.0
C676 C 0.8899 0.32144 0.63415 0.0
C677 C 0.88724 0.32218 0.57818 0.0
C678 C 0.90574 0.35449 0.66269 0.0
C679 C 0.91803 0.32634 0.71109 0.0
N680 N 0.8896 0.33269 0.60635 0.0
N681 N 0.90496 0.31905 0.68732 0.0
H682 H 0.41656 0.09244 0.26583 0.0
H683 H 0.35558 0.14876 0.41082 0.0
H684 H 0.37259 0.14839 0.25938 0.0
H685 H 0.41452 0.1088 0.41744 0.0
H686 H 0.35163 0.13759 0.35561 0.0
H687 H 0.40532 0.08739 0.3208 0.0
C688 C 0.40405 0.10323 0.27568 0.0
C689 C 0.39594 0.12124 0.25845 0.0
C690 C 0.36512 0.13088 0.36942 0.0
C691 C 0.38313 0.11562 0.32095 0.0
C692 C 0.36737 0.13722 0.4009 0.0
C693 C 0.38577 0.13019 0.41838 0.0
C694 C 0.38131 0.11738 0.35555 0.0
C695 C 0.40041 0.11507 0.4045 0.0
C696 C 0.39772 0.1004 0.30704 0.0
C697 C 0.37966 0.13464 0.2722 0.0
N698 N 0.39807 0.10943 0.37371 0.0
N699 N 0.37406 0.1318 0.30286 0.0
H700 H 0.55152 0.63936 0.14766 0.0
H701 H 0.55322 0.71151 0.99035 0.0
H702 H 0.50415 0.69084 0.12784 0.0
H703 H 0.61188 0.68181 0.03005 0.0
H704 H 0.53158 0.69693 0.03428 0.0
H705 H 0.56997 0.64743 0.09756 0.0
C706 C 0.54471 0.65202 0.13247 0.0
C707 C 0.52641 0.66461 0.14199 0.0
C708 C 0.54916 0.69351 0.03323 0.0
C709 C 0.5474 0.67387 0.08497 0.0
C710 C 0.56154 0.7018 0.00819 0.0
C711 C 0.58445 0.69804 0.00671 0.0
C712 C 0.55969 0.68115 0.05676 0.0
C713 C 0.59431 0.6853 0.03047 0.0
C714 C 0.55536 0.65672 0.10407 0.0
C715 C 0.51835 0.68089 0.12149 0.0
N716 N 0.58186 0.6773 0.05459 0.0
N717 N 0.52897 0.68513 0.09398 0.0
H718 H 0.0235 0.82947 0.84905 0.0
H719 H 0.11832 0.82708 0.97199 0.0
H720 H 0.07914 0.87367 0.83791 0.0
H721 H 0.05014 0.82255 0.00201 0.0
H722 H 0.10566 0.84188 0.92119 0.0
H723 H 0.03358 0.82446 0.90449 0.0
C724 C 0.03756 0.83847 0.85858 0.0
C725 C 0.05048 0.85207 0.83923 0.0
C726 C 0.09358 0.83792 0.93919 0.0
C727 C 0.06254 0.8458 0.90181 0.0
C728 C 0.10075 0.82935 0.96797 0.0
C729 C 0.08524 0.82346 0.99108 0.0
C730 C 0.0708 0.84002 0.93338 0.0
C731 C 0.06266 0.82685 0.98481 0.0
C732 C 0.0433 0.83561 0.89007 0.0
C733 C 0.06868 0.86323 0.85237 0.0
N734 N 0.05609 0.83455 0.95633 0.0
N735 N 0.07453 0.85946 0.88283 0.0
H736 H 0.12535 0.38907 0.36443 0.0
H737 H 0.18197 0.29249 0.44037 0.0
H738 H 0.1651 0.33884 0.32009 0.0
H739 H 0.13331 0.33556 0.48204 0.0
H740 H 0.19487 0.32316 0.40799 0.0
H741 H 0.14682 0.38453 0.41282 0.0
C742 C 0.13931 0.37784 0.3644 0.0
C743 C 0.14281 0.36344 0.33898 0.0
C744 C 0.18196 0.32621 0.42515 0.0
C745 C 0.16686 0.35772 0.39418 0.0
C746 C 0.17461 0.30865 0.44379 0.0
C747 C 0.1555 0.31118 0.4622 0.0
C748 C 0.16963 0.34593 0.42454 0.0
C749 C 0.14727 0.33264 0.46661 0.0
C750 C 0.15155 0.37518 0.3921 0.0
C751 C 0.1613 0.34953 0.33985 0.0
N752 N 0.15381 0.34908 0.44695 0.0
N753 N 0.17227 0.34651 0.3674 0.0
H754 H 0.95222 0.82381 0.5333 0.0
H755 H 0.97766 0.81749 0.71089 0.0
H756 H 0.90072 0.80244 0.59674 0.0
H757 H 0.00183 0.87299 0.6571 0.0
H758 H 0.95003 0.81015 0.66976 0.0
H759 H 0.97196 0.84062 0.57784 0.0
C760 C 0.94498 0.82291 0.55661 0.0
C761 C 0.92491 0.8117 0.56151 0.0
C762 C 0.96107 0.82421 0.66732 0.0
C763 C 0.94755 0.8304 0.61242 0.0
C764 C 0.97684 0.82836 0.69066 0.0
C765 C 0.99202 0.84582 0.68724 0.0
C766 C 0.96101 0.83716 0.63994 0.0
C767 C 0.99034 0.85942 0.66061 0.0
C768 C 0.95615 0.83259 0.58191 0.0
C769 C 0.91615 0.81102 0.59208 0.0
N770 N 0.97543 0.85448 0.63755 0.0
N771 N 0.92779 0.81983 0.61661 0.0
H772 H 0.36066 0.68672 0.89094 0.0
H773 H 0.45965 0.60846 0.9027 0.0
H774 H 0.40317 0.68004 0.97183 0.0
H775 H 0.41506 0.60995 0.82356 0.0
H776 H 0.43027 0.62267 0.93636 0.0
H777 H 0.37045 0.64906 0.87467 0.0
C778 C 0.37117 0.67688 0.9061 0.0
C779 C 0.3815 0.68649 0.93237 0.0
C780 C 0.42651 0.61918 0.91189 0.0
C781 C 0.39336 0.64389 0.91356 0.0
C782 C 0.44328 0.61077 0.89278 0.0
C783 C 0.43978 0.60837 0.86034 0.0
C784 C 0.40654 0.6262 0.89804 0.0
C785 C 0.41837 0.61174 0.84852 0.0
C786 C 0.37696 0.65544 0.89668 0.0
C787 C 0.39516 0.67322 0.95111 0.0
N788 N 0.40274 0.62131 0.86711 0.0
N789 N 0.40112 0.6528 0.94096 0.0
H790 H 0.6018 0.17593 0.11736 0.0
H791 H 0.49163 0.1856 0.21703 0.0
H792 H 0.57973 0.23493 0.16505 0.0
H793 H 0.50958 0.12784 0.16291 0.0
H794 H 0.52921 0.19976 0.21102 0.0
H795 H 0.57439 0.15437 0.14688 0.0
C796 C 0.59177 0.18421 0.13491 0.0
C797 C 0.59265 0.20729 0.13834 0.0
C798 C 0.52509 0.18381 0.20086 0.0
C799 C 0.56109 0.18291 0.17162 0.0
C800 C 0.50358 0.17573 0.20423 0.0
C801 C 0.49731 0.15576 0.18978 0.0
C802 C 0.54039 0.17205 0.18244 0.0
C803 C 0.51362 0.14348 0.17405 0.0
C804 C 0.57597 0.17193 0.15154 0.0
C805 C 0.57926 0.2172 0.16131 0.0
N806 N 0.53431 0.15204 0.17022 0.0
N807 N 0.56375 0.20503 0.17663 0.0
H808 H 0.0066 0.65437 0.14403 0.0
H809 H 0.11835 0.71653 0.10557 0.0
H810 H 0.06829 0.64055 0.19113 0.0
H811 H 0.05478 0.73042 0.06391 0.0
H812 H 0.10348 0.68126 0.12541 0.0
H813 H 0.02692 0.67359 0.1027 0.0
C814 C 0.02452 0.6549 0.14516 0.0
C815 C 0.03579 0.64628 0.17122 0.0
C816 C 0.09299 0.69176 0.11119 0.0
C817 C 0.05915 0.66905 0.12476 0.0
C818 C 0.1015 0.7118 0.09977 0.0
C819 C 0.08757 0.72647 0.08371 0.0
C820 C 0.0705 0.68655 0.10627 0.0
C821 C 0.06589 0.7197 0.07678 0.0
C822 C 0.03616 0.66597 0.12165 0.0
C823 C 0.05901 0.64718 0.17147 0.0
N824 N 0.05794 0.7004 0.08846 0.0
N825 N 0.06994 0.65898 0.14903 0.0
H826 H 0.50818 0.88847 0.31373 0.0
H827 H 0.61485 0.82856 0.38214 0.0
H828 H 0.54404 0.83635 0.26689 0.0
H829 H 0.56103 0.85392 0.43812 0.0
H830 H 0.59879 0.84639 0.33557 0.0
H831 H 0.53752 0.89043 0.35372 0.0
C832 C 0.52265 0.87808 0.31116 0.0
C833 C 0.52357 0.86192 0.28743 0.0
C834 C 0.59098 0.84869 0.3583 0.0
C835 C 0.55698 0.86413 0.33275 0.0
C836 C 0.60018 0.83866 0.38488 0.0
C837 C 0.58896 0.83949 0.41377 0.0
C838 C 0.57066 0.85978 0.36093 0.0
C839 C 0.56995 0.85264 0.41607 0.0
C840 C 0.53929 0.87913 0.33404 0.0
C841 C 0.5426 0.84877 0.2852 0.0
N842 N 0.56117 0.86201 0.38985 0.0
N843 N 0.55843 0.84992 0.3079 0.0
H844 H 0.45549 0.22097 0.49581 0.0
H845 H 0.42308 0.3335 0.58215 0.0
H846 H 0.38818 0.24078 0.5149 0.0
H847 H 0.48873 0.30586 0.57876 0.0
H848 H 0.41079 0.30566 0.5435 0.0
H849 H 0.46821 0.25764 0.51195 0.0
C850 C 0.44332 0.23312 0.50291 0.0
C851 C 0.42076 0.22758 0.50467 0.0
C852 C 0.42803 0.30609 0.5506 0.0
C853 C 0.43529 0.26964 0.52345 0.0
C854 C 0.43507 0.3221 0.57237 0.0
C855 C 0.45686 0.32173 0.58378 0.0
C856 C 0.44299 0.28983 0.54022 0.0
C857 C 0.47171 0.30649 0.57072 0.0
C858 C 0.45061 0.25409 0.51215 0.0
C859 C 0.40577 0.24418 0.51364 0.0
N860 N 0.46445 0.29098 0.54996 0.0
N861 N 0.41333 0.26435 0.52321 0.0
H862 H 0.93798 0.08824 0.75371 0.0
H863 H 0.8522 0.15609 0.84256 0.0
H864 H 0.89944 0.14143 0.71434 0.0
H865 H 0.89247 0.10407 0.88122 0.0
H866 H 0.85543 0.13892 0.79049 0.0
H867 H 0.90834 0.08109 0.79125 0.0
C868 C 0.92295 0.09791 0.75216 0.0
C869 C 0.92171 0.11632 0.73218 0.0
C870 C 0.86287 0.13074 0.81054 0.0
C871 C 0.88814 0.10876 0.77572 0.0
C872 C 0.86091 0.14052 0.8403 0.0
C873 C 0.87284 0.13188 0.86573 0.0
C874 C 0.87714 0.11255 0.8065 0.0
C875 C 0.88368 0.1116 0.86177 0.0
C876 C 0.90599 0.09389 0.77376 0.0
C877 C 0.90153 0.12776 0.73052 0.0
N878 N 0.88609 0.10292 0.83251 0.0
N879 N 0.88584 0.12436 0.75287 0.0
H880 H 0.90889 0.62388 0.59839 0.0
H881 H 0.84494 0.72147 0.52272 0.0
H882 H 0.85145 0.65579 0.63755 0.0
H883 H 0.90782 0.69575 0.49153 0.0
H884 H 0.83785 0.68669 0.55012 0.0
H885 H 0.89847 0.63748 0.54628 0.0
C886 C 0.89344 0.63277 0.59577 0.0
C887 C 0.88142 0.63949 0.62231 0.0
C888 C 0.85294 0.68843 0.53657 0.0
C889 C 0.86984 0.65565 0.56329 0.0
C890 C 0.85703 0.70834 0.52097 0.0
C891 C 0.87745 0.71189 0.50603 0.0
C892 C 0.86951 0.67214 0.5375 0.0
C893 C 0.8922 0.69404 0.5038 0.0
C894 C 0.88762 0.64078 0.56604 0.0
C895 C 0.8615 0.65087 0.61763 0.0
N896 N 0.8882 0.67515 0.52009 0.0
N897 N 0.85667 0.65922 0.58881 0.0
H898 H 0.00524 0.20716 0.27316 0.0
H899 H 0.10844 0.19641 0.38897 0.0
H900 H 0.02761 0.14492 0.31112 0.0
H901 H 0.07967 0.25809 0.35875 0.0
H902 H 0.0852 0.17676 0.35058 0.0
H903 H 0.03832 0.22507 0.29408 0.0
C904 C 0.01728 0.19718 0.28558 0.0
C905 C 0.01344 0.17457 0.29093 0.0
C906 C 0.08432 0.19464 0.35193 0.0
C907 C 0.05136 0.19512 0.31537 0.0
C908 C 0.0977 0.20589 0.37368 0.0
C909 C 0.09571 0.2289 0.37742 0.0
C910 C 0.06897 0.20653 0.33378 0.0
C911 C 0.08149 0.24031 0.35701 0.0
C912 C 0.0362 0.20744 0.29754 0.0
C913 C 0.02982 0.16243 0.30672 0.0
N914 N 0.06848 0.22899 0.3364 0.0
N915 N 0.04791 0.17294 0.3189 0.0
H916 H 0.65942 0.28537 0.11699 0.0
H917 H 0.57971 0.38196 0.16143 0.0
H918 H 0.62202 0.32449 0.05104 0.0
H919 H 0.60022 0.32756 0.22001 0.0
H920 H 0.61029 0.37365 0.12518 0.0
H921 H 0.65504 0.31451 0.15632 0.0
C922 C 0.6513 0.30059 0.11016 0.0
C923 C 0.64 0.30209 0.08136 0.0
C924 C 0.60854 0.36406 0.14656 0.0
C925 C 0.63451 0.33505 0.1263 0.0
C926 C 0.59108 0.36874 0.16714 0.0
C927 C 0.58714 0.35491 0.19303 0.0
C928 C 0.62206 0.34559 0.15226 0.0
C929 C 0.60239 0.33815 0.19969 0.0
C930 C 0.64861 0.31716 0.13279 0.0
C931 C 0.63016 0.32236 0.07358 0.0
N932 N 0.61898 0.33373 0.17915 0.0
N933 N 0.62687 0.33779 0.09637 0.0
H934 H 0.37816 0.82064 0.88349 0.0
H935 H 0.46609 0.83128 0.74899 0.0
H936 H 0.39775 0.76962 0.81829 0.0
H937 H 0.46018 0.8762 0.8274 0.0
H938 H 0.42864 0.81776 0.75916 0.0
H939 H 0.39507 0.84842 0.84893 0.0
C940 C 0.38503 0.81542 0.86111 0.0
C941 C 0.38702 0.79285 0.85387 0.0
C942 C 0.43516 0.83111 0.77354 0.0
C943 C 0.40653 0.8243 0.8147 0.0
C944 C 0.45648 0.83891 0.7676 0.0
C945 C 0.4662 0.85456 0.78774 0.0
C946 C 0.42388 0.83851 0.80046 0.0
C947 C 0.4532 0.86398 0.81151 0.0
C948 C 0.39485 0.83125 0.84156 0.0
C949 C 0.39622 0.78688 0.82484 0.0
N950 N 0.43286 0.85531 0.81789 0.0
N951 N 0.40603 0.80247 0.80658 0.0
H952 H 0.87945 0.25154 0.92271 0.0
H953 H 0.91999 0.3475 0.85145 0.0
H954 H 0.94726 0.22968 0.91593 0.0
H955 H 0.98474 0.3214 0.87209 0.0
H956 H 0.90338 0.31733 0.88135 0.0
H957 H 0.89151 0.28908 0.90994 0.0
C958 C 0.89687 0.25463 0.9185 0.0
C959 C 0.91229 0.23729 0.91986 0.0
C960 C 0.92123 0.31845 0.88039 0.0
C961 C 0.92632 0.28031 0.90478 0.0
C962 C 0.93075 0.33592 0.86343 0.0
C963 C 0.95376 0.3368 0.85898 0.0
C964 C 0.93493 0.30185 0.89301 0.0
C965 C 0.96689 0.3212 0.87464 0.0
C966 C 0.90379 0.27615 0.91103 0.0
C967 C 0.93468 0.24237 0.91469 0.0
N968 N 0.95729 0.30419 0.89042 0.0
N969 N 0.94094 0.2633 0.90724 0.0
H970 H 0.47467 0.10494 0.70719 0.0
H971 H 0.37919 0.16165 0.60898 0.0
H972 H 0.44941 0.17077 0.72287 0.0
H973 H 0.41801 0.10596 0.57805 0.0
H974 H 0.39327 0.15631 0.66257 0.0
H975 H 0.4431 0.09727 0.6726 0.0
C976 C 0.46221 0.11759 0.70401 0.0
C977 C 0.46501 0.13877 0.71708 0.0
C978 C 0.3981 0.14479 0.64426 0.0
C979 C 0.42896 0.13009 0.67769 0.0
C980 C 0.38992 0.14772 0.61374 0.0
C981 C 0.39796 0.13456 0.58907 0.0
C982 C 0.41429 0.12859 0.64983 0.0
C983 C 0.41184 0.11675 0.59643 0.0
C984 C 0.4442 0.1132 0.68428 0.0
C985 C 0.4482 0.15442 0.71252 0.0
N986 N 0.41996 0.11456 0.62606 0.0
N987 N 0.43109 0.14991 0.69272 0.0
H988 H 0.62683 0.74366 0.39584 0.0
H989 H 0.55151 0.64557 0.32884 0.0
H990 H 0.57522 0.71201 0.44982 0.0
H991 H 0.57093 0.70298 0.27524 0.0
H992 H 0.57344 0.65953 0.37361 0.0
H993 H 0.61971 0.71758 0.3526 0.0
C994 C 0.61462 0.73068 0.39908 0.0
C995 C 0.60132 0.73013 0.42615 0.0
C996 C 0.57335 0.66867 0.35168 0.0
C997 C 0.5933 0.7004 0.37715 0.0
C998 C 0.56095 0.66074 0.3262 0.0
C999 C 0.55926 0.67337 0.29863 0.0
C1000 C 0.58446 0.68901 0.34907 0.0
C1001 C 0.57163 0.69296 0.29634 0.0
C1002 C 0.6105 0.71595 0.37436 0.0
C1003 C 0.5856 0.71311 0.42909 0.0
N1004 N 0.58363 0.70029 0.32136 0.0
N1005 N 0.58181 0.69904 0.40466 0.0
H1006 H 0.13557 0.80328 0.17771 0.0
H1007 H 0.06489 0.902 0.20044 0.0
H1008 H 0.13175 0.85812 0.11354 0.0
H1009 H 0.07477 0.85041 0.269 0.0
H1010 H 0.10263 0.89661 0.18194 0.0
H1011 H 0.12956 0.82857 0.22166 0.0
C1012 C 0.13468 0.82089 0.17309 0.0
C1013 C 0.13358 0.82867 0.14212 0.0
C1014 C 0.09689 0.88694 0.20179 0.0
C1015 C 0.12496 0.85743 0.19176 0.0
C1016 C 0.07526 0.89011 0.21249 0.0
C1017 C 0.06626 0.87562 0.23489 0.0
C1018 C 0.10913 0.86882 0.2131 0.0
C1019 C 0.08072 0.86113 0.25041 0.0
C1020 C 0.13096 0.83539 0.19816 0.0
C1021 C 0.1323 0.85153 0.13724 0.0
N1022 N 0.10122 0.85748 0.23843 0.0
N1023 N 0.12716 0.86507 0.16172 0.0
H1024 H 0.65039 0.79526 0.89527 0.0
H1025 H 0.54694 0.85772 0.91247 0.0
H1026 H 0.61306 0.79486 0.98153 0.0
H1027 H 0.59678 0.87766 0.84573 0.0
H1028 H 0.5759 0.84461 0.94766 0.0
H1029 H 0.63882 0.83336 0.88598 0.0
C1030 C 0.64075 0.80369 0.91314 0.0
C1031 C 0.63239 0.79199 0.93895 0.0
C1032 C 0.58073 0.85261 0.9259 0.0
C1033 C 0.61797 0.83496 0.92773 0.0
C1034 C 0.56411 0.86022 0.90591 0.0
C1035 C 0.56954 0.86826 0.87599 0.0
C1036 C 0.60274 0.85203 0.91506 0.0
C1037 C 0.59197 0.87125 0.86854 0.0
C1038 C 0.63393 0.82542 0.90775 0.0
C1039 C 0.61968 0.80342 0.9612 0.0
N1040 N 0.60779 0.86229 0.88739 0.0
N1041 N 0.61223 0.82407 0.9546 0.0
H1042 H 0.45727 0.32476 0.20356 0.0
H1043 H 0.42852 0.35973 0.03406 0.0
H1044 H 0.47789 0.38827 0.16757 0.0
H1045 H 0.38549 0.31592 0.08577 0.0
H1046 H 0.44437 0.37288 0.08373 0.0
H1047 H 0.42863 0.32289 0.16291 0.0
C1048 C 0.45548 0.33851 0.18742 0.0
C1049 C 0.47015 0.35655 0.18859 0.0
C1050 C 0.43103 0.36085 0.08437 0.0
C1051 C 0.4377 0.35434 0.14172 0.0
C1052 C 0.42199 0.35338 0.05604 0.0
C1053 C 0.40578 0.33672 0.056 0.0
C1054 C 0.42434 0.35101 0.11275 0.0
C1055 C 0.39792 0.32887 0.08495 0.0
C1056 C 0.43905 0.33749 0.16433 0.0
C1057 C 0.46698 0.37401 0.16735 0.0
N1058 N 0.40771 0.33567 0.11224 0.0
N1059 N 0.45143 0.37223 0.14425 0.0
H1060 H 0.91927 0.19062 0.49513 0.0
H1061 H 0.88249 0.14672 0.33219 0.0
H1062 H 0.86233 0.213 0.44268 0.0
H1063 H 0.94155 0.12637 0.38097 0.0
H1064 H 0.86635 0.15814 0.38224 0.0
H1065 H 0.91887 0.15629 0.4649 0.0
C1066 C 0.90634 0.18813 0.47775 0.0
C1067 C 0.8914 0.20513 0.47042 0.0
C1068 C 0.88254 0.15048 0.38231 0.0
C1069 C 0.89102 0.16594 0.43556 0.0
C1070 C 0.89166 0.1438 0.35374 0.0
C1071 C 0.91352 0.13616 0.3526 0.0
C1072 C 0.89576 0.15024 0.40956 0.0
C1073 C 0.92472 0.1325 0.38098 0.0
C1074 C 0.90609 0.16844 0.46054 0.0
C1075 C 0.87463 0.20066 0.4484 0.0
N1076 N 0.916 0.14031 0.40834 0.0
N1077 N 0.87526 0.18173 0.43114 0.0
H1078 H 0.05573 0.75499 0.60851 0.0
H1079 H 0.99656 0.64379 0.66511 0.0
H1080 H 0.08467 0.69061 0.5939 0.0
H1081 H 0.97284 0.70969 0.6848 0.0
H1082 H 0.03062 0.65992 0.64331 0.0
H1083 H 0.02716 0.7382 0.64097 0.0
C1084 C 0.05617 0.73728 0.61238 0.0
C1085 C 0.07247 0.72414 0.59821 0.0
C1086 C 0.01804 0.67079 0.65275 0.0
C1087 C 0.03945 0.70462 0.63519 0.0
C1088 C 0.99861 0.6616 0.66523 0.0
C1089 C 0.98167 0.67541 0.67646 0.0
C1090 C 0.02048 0.69391 0.65151 0.0
C1091 C 0.98527 0.69837 0.67607 0.0
C1092 C 0.03982 0.72767 0.63098 0.0
C1093 C 0.07236 0.70132 0.60436 0.0
N1094 N 0.00413 0.70684 0.66359 0.0
N1095 N 0.05587 0.69219 0.62207 0.0
H1096 H 0.6053 0.20379 0.5451 0.0
H1097 H 0.59017 0.19511 0.71898 0.0
H1098 H 0.65239 0.2342 0.60823 0.0
H1099 H 0.5712 0.13976 0.66055 0.0
H1100 H 0.61719 0.20625 0.67932 0.0
H1101 H 0.59777 0.17548 0.58462 0.0
C1102 C 0.61485 0.20385 0.56674 0.0
C1103 C 0.62911 0.22155 0.57379 0.0
C1104 C 0.60758 0.19133 0.67541 0.0
C1105 C 0.61988 0.18995 0.61951 0.0
C1106 C 0.59203 0.18511 0.69792 0.0
C1107 C 0.57831 0.16677 0.69261 0.0
C1108 C 0.6088 0.17959 0.64686 0.0
C1109 C 0.58144 0.15415 0.66523 0.0
C1110 C 0.61046 0.18776 0.58941 0.0
C1111 C 0.64108 0.22093 0.60207 0.0
N1112 N 0.59595 0.16118 0.64282 0.0
N1113 N 0.63557 0.20587 0.62449 0.0
H1114 H 0.02747 0.41668 0.79781 0.0
H1115 H 0.12041 0.33645 0.83948 0.0
H1116 H 0.05115 0.36296 0.74002 0.0
H1117 H 0.08872 0.38317 0.90141 0.0
H1118 H 0.11035 0.35957 0.79449 0.0
H1119 H 0.06366 0.41883 0.82308 0.0
C1120 C 0.04049 0.40586 0.78955 0.0
C1121 C 0.03589 0.38866 0.76823 0.0
C1122 C 0.1064 0.36528 0.81803 0.0
C1123 C 0.07705 0.39065 0.79762 0.0
C1124 C 0.11225 0.35211 0.84374 0.0
C1125 C 0.10451 0.35755 0.87388 0.0
C1126 C 0.09255 0.38367 0.82279 0.0
C1127 C 0.09425 0.37808 0.87824 0.0
C1128 C 0.06122 0.40706 0.80408 0.0
C1129 C 0.05367 0.37572 0.75762 0.0
N1130 N 0.08801 0.39014 0.85286 0.0
N1131 N 0.07328 0.37641 0.77326 0.0
H1132 H 0.90399 0.75826 0.07331 0.0
H1133 H 0.01661 0.81913 0.11846 0.0
H1134 H 0.96926 0.73192 0.05619 0.0
H1135 H 0.95229 0.84703 0.13677 0.0
H1136 H 0.99933 0.79105 0.08511 0.0
H1137 H 0.92088 0.79382 0.08774 0.0
C1138 C 0.92183 0.75999 0.07228 0.0
C1139 C 0.93523 0.74192 0.06403 0.0
C1140 C 0.98896 0.80356 0.09581 0.0
C1141 C 0.95465 0.7826 0.08033 0.0
C1142 C 0.99888 0.81974 0.11462 0.0
C1143 C 0.98583 0.83527 0.13062 0.0
C1144 C 0.96575 0.8026 0.09349 0.0
C1145 C 0.96294 0.83534 0.12483 0.0
C1146 C 0.93146 0.78032 0.08044 0.0
C1147 C 0.95825 0.74523 0.06286 0.0
N1148 N 0.95353 0.81889 0.10732 0.0
N1149 N 0.96719 0.76504 0.0712 0.0
H1150 H 0.43288 0.65592 0.44131 0.0
H1151 H 0.43221 0.67493 0.26578 0.0
H1152 H 0.37509 0.68396 0.39735 0.0
H1153 H 0.46633 0.61862 0.30465 0.0
H1154 H 0.40753 0.67496 0.31136 0.0
H1155 H 0.44245 0.63808 0.39147 0.0
C1156 C 0.42185 0.65771 0.42131 0.0
C1157 C 0.40331 0.6715 0.42319 0.0
C1158 C 0.41994 0.66214 0.30944 0.0
C1159 C 0.41454 0.65192 0.3659 0.0
C1160 C 0.43405 0.66214 0.28343 0.0
C1161 C 0.45163 0.64706 0.2818 0.0
C1162 C 0.42389 0.64738 0.33432 0.0
C1163 C 0.45316 0.63072 0.30516 0.0
C1164 C 0.42728 0.64753 0.39288 0.0
C1165 C 0.38955 0.67341 0.39671 0.0
N1166 N 0.43993 0.63175 0.331 0.0
N1167 N 0.39581 0.6643 0.36878 0.0
H1168 H 0.43698 0.14059 0.06905 0.0
H1169 H 0.35759 0.23213 -0.00131 0.0
H1170 H 0.37331 0.15869 0.10657 0.0
H1171 H 0.42757 0.22722 0.97913 0.0
H1172 H 0.35866 0.19545 0.02257 0.0
H1173 H 0.42866 0.16179 0.0212 0.0
C1174 C 0.42083 0.14815 0.06651 0.0
C1175 C 0.40584 0.14817 0.09166 0.0
C1176 C 0.37367 0.20221 0.01241 0.0
C1177 C 0.39643 0.17263 0.03776 0.0
C1178 C 0.3731 0.22318 -0.00121 0.0
C1179 C 0.39268 0.23308 0.9878 0.0
C1180 C 0.39397 0.19112 0.01521 0.0
C1181 C 0.41217 0.22046 0.98801 0.0
C1182 C 0.41619 0.16043 0.03942 0.0
C1183 C 0.38531 0.15847 0.08762 0.0
N1184 N 0.41243 0.2003 0.00215 0.0
N1185 N 0.38133 0.17062 0.0614 0.0
H1186 H 0.55409 0.59972 0.8447 0.0
H1187 H 0.62842 0.69982 0.82301 0.0
H1188 H 0.55928 0.63588 0.75778 0.0
H1189 H 0.63495 0.65525 0.90146 0.0
H1190 H 0.61331 0.66967 0.79131 0.0
H1191 H 0.59174 0.61135 0.85848 0.0
C1192 C 0.56365 0.60918 0.82781 0.0
C1193 C 0.55371 0.61699 0.8002 0.0
C1194 C 0.61873 0.66613 0.8151 0.0
C1195 C 0.5962 0.63132 0.81633 0.0
C1196 C 0.62758 0.68337 0.83309 0.0
C1197 C 0.63247 0.68006 0.86499 0.0
C1198 C 0.6139 0.64577 0.82962 0.0
C1199 C 0.63112 0.65849 0.87697 0.0
C1200 C 0.5851 0.61602 0.83575 0.0
C1201 C 0.56649 0.62958 0.77933 0.0
N1202 N 0.62115 0.6423 0.85965 0.0
N1203 N 0.58688 0.63684 0.78817 0.0
H1204 H 0.09958 0.88231 0.66823 0.0
H1205 H 0.16394 0.78231 0.59894 0.0
H1206 H 0.11955 0.82343 0.71781 0.0
H1207 H 0.13149 0.83314 0.54486 0.0
H1208 H 0.16517 0.80732 0.64404 0.0
H1209 H 0.12705 0.87417 0.62745 0.0
C1210 C 0.11025 0.86808 0.67108 0.0
C1211 C 0.10677 0.85303 0.6957 0.0
C1212 C 0.15849 0.81331 0.62195 0.0
C1213 C 0.13803 0.84362 0.64931 0.0
C1214 C 0.15791 0.79904 0.59605 0.0
C1215 C 0.14644 0.80526 0.5687 0.0
C1216 C 0.14736 0.83367 0.62033 0.0
C1217 C 0.13957 0.82735 0.56607 0.0
C1218 C 0.12593 0.86344 0.6478 0.0
C1219 C 0.12122 0.83504 0.69855 0.0
N1220 N 0.1394 0.84055 0.59198 0.0
N1221 N 0.13589 0.83056 0.67524 0.0
H1222 H 0.96164 0.32189 0.46783 0.0
H1223 H 0.02304 0.3043 0.31115 0.0
H1224 H 0.92645 0.29206 0.39006 0.0
H1225 H 0.02993 0.36736 0.35797 0.0
H1226 H 0.98947 0.297 0.34193 0.0
H1227 H 0.98883 0.33703 0.43063 0.0
C1228 C 0.95948 0.31887 0.44284 0.0
C1229 C 0.94186 0.30578 0.43185 0.0
C1230 C 0.99817 0.31256 0.34509 0.0
C1231 C 0.97309 0.32237 0.38959 0.0
C1232 C 0.01734 0.31667 0.32776 0.0
C1233 C 0.02921 0.33642 0.3322 0.0
C1234 C 0.99128 0.32798 0.36775 0.0
C1235 C 0.02114 0.35197 0.35388 0.0
C1236 C 0.97491 0.32753 0.42171 0.0
C1237 C 0.93977 0.30222 0.39933 0.0
N1238 N 0.00288 0.34721 0.37143 0.0
N1239 N 0.95554 0.31004 0.37931 0.0
H1240 H 0.42539 0.86252 0.34146 0.0
H1241 H 0.35895 0.76367 0.42206 0.0
H1242 H 0.40253 0.80377 0.29347 0.0
H1243 H 0.41258 0.79922 0.46664 0.0
H1244 H 0.36031 0.78985 0.37804 0.0
H1245 H 0.40621 0.85005 0.3894 0.0
C1246 C 0.41563 0.84745 0.34071 0.0
C1247 C 0.41568 0.83395 0.3138 0.0
C1248 C 0.37118 0.79236 0.39807 0.0
C1249 C 0.39368 0.81989 0.36792 0.0
C1250 C 0.37032 0.77756 0.42328 0.0
C1251 C 0.38595 0.77913 0.44766 0.0
C1252 C 0.38753 0.80893 0.39769 0.0
C1253 C 0.40046 0.79731 0.44798 0.0
C1254 C 0.4048 0.84034 0.368 0.0
C1255 C 0.40303 0.81447 0.31397 0.0
N1256 N 0.40116 0.81135 0.42305 0.0
N1257 N 0.39269 0.80789 0.34076 0.0
H1258 H 0.95635 0.58399 0.2303 0.0
H1259 H 0.87447 0.66161 0.14696 0.0
H1260 H 0.9245 0.64046 0.27258 0.0
H1261 H 0.91455 0.61095 0.10408 0.0
H1262 H 0.87774 0.64248 0.19761 0.0
H1263 H 0.92585 0.581 0.19291 0.0
C1264 C 0.94247 0.59518 0.23271 0.0
C1265 C 0.9436 0.61338 0.25321 0.0
C1266 C 0.88518 0.63513 0.17689 0.0
C1267 C 0.90917 0.61052 0.20991 0.0
C1268 C 0.88331 0.64606 0.148 0.0
C1269 C 0.89504 0.63826 0.12178 0.0
C1270 C 0.89896 0.61646 0.17931 0.0
C1271 C 0.90596 0.61791 0.12415 0.0
C1272 C 0.92508 0.59358 0.21109 0.0
C1273 C 0.92479 0.62685 0.25593 0.0
N1274 N 0.90808 0.60796 0.15258 0.0
N1275 N 0.90871 0.62575 0.23359 0.0
H1276 H 0.035 0.25383 0.91144 0.0
H1277 H 0.04543 0.15817 0.78186 0.0
H1278 H 0.09762 0.23685 0.86904 0.0
H1279 H 0.98464 0.18975 0.81015 0.0
H1280 H 0.06554 0.18052 0.82131 0.0
H1281 H 0.01742 0.22374 0.88281 0.0
C1282 C 0.04513 0.24364 0.89618 0.0
C1283 C 0.06776 0.24815 0.89216 0.0
C1284 C 0.04777 0.18226 0.8191 0.0
C1285 C 0.04752 0.21355 0.85885 0.0
C1286 C 0.03628 0.16944 0.79681 0.0
C1287 C 0.01338 0.17229 0.79263 0.0
C1288 C 0.03613 0.19768 0.8375 0.0
C1289 C 0.00232 0.1872 0.81237 0.0
C1290 C 0.03504 0.22641 0.87981 0.0
C1291 C 0.08009 0.23404 0.87259 0.0
N1292 N 0.01379 0.19935 0.83379 0.0
N1293 N 0.06973 0.2175 0.85622 0.0
H1294 H 0.62538 0.35596 0.58869 0.0
H1295 H 0.54201 0.3457 0.72611 0.0
H1296 H 0.62612 0.30663 0.6617 0.0
H1297 H 0.53505 0.3888 0.64585 0.0
H1298 H 0.58182 0.34429 0.71685 0.0
H1299 H 0.60355 0.38007 0.62295 0.0
C1300 C 0.62206 0.35074 0.61264 0.0
C1301 C 0.62693 0.32911 0.62221 0.0
C1302 C 0.57172 0.35458 0.70175 0.0
C1303 C 0.60148 0.35611 0.66095 0.0
C1304 C 0.54895 0.35538 0.70703 0.0
C1305 C 0.53512 0.36664 0.68591 0.0
C1306 C 0.58058 0.36462 0.6747 0.0
C1307 C 0.54506 0.37938 0.66218 0.0
C1308 C 0.60933 0.36439 0.63208 0.0
C1309 C 0.62222 0.32308 0.65333 0.0
N1310 N 0.56713 0.37746 0.65656 0.0
N1311 N 0.60917 0.33625 0.67133 0.0
H1312 H 0.06081 0.43378 0.23762 0.0
H1313 H 0.04608 0.55678 0.30474 0.0
H1314 H 0.07315 0.45185 0.33457 0.0
H1315 H 0.02605 0.53661 0.21125 0.0
H1316 H 0.05817 0.51896 0.31524 0.0
H1317 H 0.05003 0.4719 0.22671 0.0
C1318 C 0.06129 0.44576 0.25662 0.0
C1319 C 0.06787 0.43958 0.28709 0.0
C1320 C 0.05115 0.52282 0.29242 0.0
C1321 C 0.05556 0.48331 0.27472 0.0
C1322 C 0.04428 0.54443 0.28637 0.0
C1323 C 0.035 0.54988 0.25707 0.0
C1324 C 0.0488 0.50654 0.26897 0.0
C1325 C 0.03307 0.53316 0.2342 0.0
C1326 C 0.0551 0.46754 0.25038 0.0
C1327 C 0.06815 0.45585 0.31076 0.0
N1328 N 0.03991 0.51226 0.24064 0.0
N1329 N 0.06209 0.47697 0.30407 0.0
H1330 H 0.79467 0.75919 0.54117 0.0
H1331 H 0.70048 0.84207 0.4827 0.0
H1332 H 0.81007 0.82189 0.49764 0.0
H1333 H 0.691 0.77155 0.49227 0.0
H1334 H 0.73981 0.83728 0.49585 0.0
H1335 H 0.75534 0.76618 0.53238 0.0
C1336 C 0.78979 0.77456 0.53014 0.0
C1337 C 0.8057 0.78991 0.51992 0.0
C1338 C 0.72905 0.82291 0.495 0.0
C1339 C 0.7607 0.79795 0.5097 0.0
C1340 C 0.70666 0.82561 0.4875 0.0
C1341 C 0.69248 0.80717 0.48623 0.0
C1342 C 0.73714 0.80168 0.50179 0.0
C1343 C 0.70134 0.78622 0.49273 0.0
C1344 C 0.76734 0.77846 0.52492 0.0
C1345 C 0.79835 0.80954 0.50569 0.0
N1346 N 0.72305 0.78407 0.50038 0.0
N1347 N 0.77636 0.81299 0.50092 0.0
H1348 H 0.43313 0.43804 0.66073 0.0
H1349 H 0.49962 0.54426 0.71842 0.0
H1350 H 0.50145 0.45074 0.63665 0.0
H1351 H 0.42829 0.54005 0.72241 0.0
H1352 H 0.50027 0.51015 0.68767 0.0
H1353 H 0.43033 0.47571 0.68147 0.0
C1354 C 0.44744 0.44885 0.65929 0.0
C1355 C 0.46764 0.4411 0.64725 0.0
C1356 C 0.48444 0.51674 0.69506 0.0
C1357 C 0.46463 0.4841 0.67145 0.0
C1358 C 0.48406 0.53616 0.71281 0.0
C1359 C 0.46387 0.54495 0.72323 0.0
C1360 C 0.4645 0.50578 0.68794 0.0
C1361 C 0.44424 0.53382 0.71496 0.0
C1362 C 0.44583 0.47035 0.67122 0.0
C1363 C 0.48558 0.45591 0.64588 0.0
N1364 N 0.44505 0.51469 0.69805 0.0
N1365 N 0.48375 0.47656 0.65828 0.0
H1366 H 0.81262 0.21721 0.98239 0.0
H1367 H 0.68865 0.18547 0.02943 0.0
H1368 H 0.7868 0.15076 0.9735 0.0
H1369 H 0.72214 0.24425 0.06294 0.0
H1370 H 0.72334 0.17314 0.00535 0.0
H1371 H 0.77811 0.22843 0.00761 0.0
C1372 C 0.79964 0.20499 0.98556 0.0
C1373 C 0.80261 0.18299 0.97583 0.0
C1374 C 0.72309 0.18866 0.01817 0.0
C1375 C 0.76307 0.19575 0.00479 0.0
C1376 C 0.70331 0.1957 0.03193 0.0
C1377 C 0.70248 0.21594 0.0482 0.0
C1378 C 0.74206 0.20209 0.02034 0.0
C1379 C 0.722 0.22852 0.05068 0.0
C1380 C 0.78 0.21139 0.00015 0.0
C1381 C 0.78524 0.16788 0.98069 0.0
N1382 N 0.74093 0.22147 0.03668 0.0
N1383 N 0.76616 0.17455 -0.00523 0.0
H1384 H 0.9216 0.44618 0.77473 0.0
H1385 H 0.96449 0.56676 0.72712 0.0
H1386 H 0.98732 0.47038 0.79598 0.0
H1387 H 0.89535 0.54829 0.72684 0.0
H1388 H 0.97356 0.53058 0.74924 0.0
H1389 H 0.91177 0.48292 0.75527 0.0
C1390 C 0.93389 0.45927 0.77565 0.0
C1391 C 0.95534 0.45515 0.78694 0.0
C1392 C 0.9564 0.53445 0.74433 0.0
C1393 C 0.94431 0.49714 0.76419 0.0
C1394 C 0.95123 0.55505 0.73148 0.0
C1395 C 0.92912 0.56057 0.7251 0.0
C1396 C 0.93938 0.51918 0.7506 0.0
C1397 C 0.91262 0.54476 0.73142 0.0
C1398 C 0.92828 0.48023 0.76445 0.0
C1399 C 0.97058 0.47277 0.78753 0.0
N1400 N 0.91808 0.52477 0.74376 0.0
N1401 N 0.96483 0.49292 0.77603 0.0
H1402 H 0.28808 0.14612 0.51654 0.0
H1403 H 0.21846 0.23959 0.42879 0.0
H1404 H 0.31627 0.20733 0.48253 0.0
H1405 H 0.18762 0.19127 0.48955 0.0
H1406 H 0.25464 0.22471 0.44273 0.0
H1407 H 0.25114 0.15969 0.50232 0.0
C1408 C 0.2865 0.16242 0.50624 0.0
C1409 C 0.30528 0.17561 0.50073 0.0
C1410 C 0.23995 0.21733 0.45298 0.0
C1411 C 0.26327 0.19101 0.48404 0.0
C1412 C 0.21926 0.22572 0.44487 0.0
C1413 C 0.19998 0.21671 0.45812 0.0
C1414 C 0.24141 0.19965 0.47426 0.0
C1415 C 0.20208 0.19877 0.4789 0.0
C1416 C 0.26545 0.17013 0.49814 0.0
C1417 C 0.30228 0.1966 0.48731 0.0
N1418 N 0.22247 0.1908 0.48634 0.0
N1419 N 0.28171 0.20357 0.47924 0.0
H1420 H 0.53181 0.56824 0.20255 0.0
H1421 H 0.52409 0.44794 0.2802 0.0
H1422 H 0.51571 0.55701 0.30035 0.0
H1423 H 0.53634 0.45917 0.18128 0.0
H1424 H 0.52268 0.48787 0.28856 0.0
H1425 H 0.53541 0.52841 0.19497 0.0
C1426 C 0.52912 0.55741 0.2225 0.0
C1427 C 0.52337 0.56599 0.25214 0.0
C1428 C 0.5257 0.48161 0.26503 0.0
C1429 C 0.52742 0.52029 0.24354 0.0
C1430 C 0.52651 0.4588 0.26022 0.0
C1431 C 0.53028 0.45018 0.22995 0.0
C1432 C 0.5287 0.49596 0.23941 0.0
C1433 C 0.53334 0.46507 0.20499 0.0
C1434 C 0.53115 0.53464 0.21811 0.0
C1435 C 0.52011 0.55113 0.27708 0.0
N1436 N 0.53246 0.48723 0.21028 0.0
N1437 N 0.52214 0.529 0.27219 0.0
H1438 H 0.20465 0.82085 0.02097 0.0
H1439 H 0.28038 0.72701 0.94331 0.0
H1440 H 0.18357 0.75289 0.01024 0.0
H1441 H 0.30511 0.79098 0.97262 0.0
H1442 H 0.24369 0.73718 0.96292 0.0
H1443 H 0.24053 0.81113 -0.00155 0.0
C1444 C 0.20754 0.80389 0.0138 0.0
C1445 C 0.19111 0.78764 0.01761 0.0
C1446 C 0.25716 0.74898 0.96502 0.0
C1447 C 0.23215 0.77641 0.99174 0.0
C1448 C 0.27809 0.74321 0.95376 0.0
C1449 C 0.29586 0.75814 0.95643 0.0
C1450 C 0.25396 0.76987 0.97882 0.0
C1451 C 0.29192 0.7789 0.97019 0.0
C1452 C 0.22805 0.79834 0.00101 0.0
C1453 C 0.19579 0.76593 0.00787 0.0
N1454 N 0.2714 0.78415 0.98085 0.0
N1455 N 0.21588 0.76095 -0.00463 0.0
H1456 H 0.58119 0.9574 0.796 0.0
H1457 H 0.51754 0.05232 0.70178 0.0
H1458 H 0.52243 0.9454 0.74034 0.0
H1459 H 0.56143 0.06562 0.78002 0.0
H1460 H 0.52344 0.01267 0.70931 0.0
H1461 H 0.57839 0.99688 0.7839 0.0
C1462 C 0.5678 0.96304 0.78106 0.0
C1463 C 0.55193 0.94813 0.76932 0.0
C1464 C 0.53182 0.02429 0.72474 0.0
C1465 C 0.54871 0.99315 0.75534 0.0
C1466 C 0.52853 0.04691 0.72041 0.0
C1467 C 0.53891 0.06227 0.74044 0.0
C1468 C 0.54578 0.01701 0.74904 0.0
C1469 C 0.55297 0.05433 0.76419 0.0
C1470 C 0.56618 0.98556 0.77427 0.0
C1471 C 0.53492 0.95635 0.75009 0.0
N1472 N 0.556 0.03223 0.76784 0.0
N1473 N 0.53376 0.97832 0.7437 0.0
H1474 H 0.29718 0.31741 -0.00018 0.0
H1475 H 0.18553 0.27014 0.92182 0.0
H1476 H 0.29612 0.26426 0.93166 0.0
H1477 H 0.18874 0.32916 0.97919 0.0
H1478 H 0.22558 0.26556 0.92857 0.0
H1479 H 0.25687 0.31967 -0.00376 0.0
C1480 C 0.28848 0.30614 0.98422 0.0
C1481 C 0.30008 0.29071 0.96589 0.0
C1482 C 0.21748 0.27948 0.9397 0.0
C1483 C 0.25388 0.29323 0.96162 0.0
C1484 C 0.19462 0.28209 0.93587 0.0
C1485 C 0.18377 0.30012 0.94982 0.0
C1486 C 0.22951 0.29494 0.95774 0.0
C1487 C 0.19639 0.31508 0.96784 0.0
C1488 C 0.26545 0.30747 0.98212 0.0
C1489 C 0.28788 0.2765 0.94612 0.0
N1490 N 0.21855 0.31216 0.97125 0.0
N1491 N 0.26546 0.27813 0.94445 0.0
H1492 H 0.00927 0.07098 0.20125 0.0
H1493 H 0.96703 0.94687 0.22765 0.0
H1494 H 0.96395 0.05177 0.27499 0.0
H1495 H 0.02411 0.96288 0.17076 0.0
H1496 H 0.96306 0.98598 0.24068 0.0
H1497 H 0.01296 0.03203 0.18624 0.0
C1498 C 0.0002 0.05857 0.21441 0.0
C1499 C 0.98629 0.06465 0.23945 0.0
C1500 C 0.97641 0.98096 0.22526 0.0
C1501 C 0.99021 0.02013 0.22208 0.0
C1502 C 0.97861 0.95862 0.21761 0.0
C1503 C 0.996 0.95153 0.19816 0.0
C1504 C 0.99159 0.99641 0.21324 0.0
C1505 C 0.0105 0.96758 0.18592 0.0
C1506 C 0.00229 0.03636 0.20578 0.0
C1507 C 0.97492 0.04786 0.25562 0.0
N1508 N 0.00799 0.98927 0.19371 0.0
N1509 N 0.97704 0.0264 0.24654 0.0
H1510 H 0.31368 0.71405 0.54904 0.0
H1511 H 0.18555 0.69613 0.50869 0.0
H1512 H 0.29007 0.68747 0.46058 0.0
H1513 H 0.20944 0.72705 0.59409 0.0
H1514 H 0.22372 0.68789 0.49392 0.0
H1515 H 0.27576 0.71436 0.56862 0.0
C1516 C 0.30053 0.70817 0.53374 0.0
C1517 C 0.30507 0.70093 0.50295 0.0
C1518 C 0.2206 0.69625 0.51606 0.0
C1519 C 0.26148 0.70126 0.52536 0.0
C1520 C 0.19878 0.7009 0.5246 0.0
C1521 C 0.19427 0.71256 0.55253 0.0
C1522 C 0.23806 0.70333 0.53554 0.0
C1523 C 0.21211 0.7182 0.57223 0.0
C1524 C 0.27885 0.70833 0.545 0.0
C1525 C 0.28735 0.69334 0.48438 0.0
N1526 N 0.23322 0.71373 0.5632 0.0
N1527 N 0.26631 0.69385 0.49579 0.0
H1528 H 0.46821 0.04805 0.16134 0.0
H1529 H 0.42383 0.93341 0.23076 0.0
H1530 H 0.39995 0.03634 0.18672 0.0
H1531 H 0.48811 0.94081 0.18749 0.0
H1532 H 0.41524 0.97156 0.21639 0.0
H1533 H 0.47621 0.00908 0.17165 0.0
C1534 C 0.45487 0.03726 0.16882 0.0
C1535 C 0.43339 0.0455 0.17326 0.0
C1536 C 0.4312 0.96482 0.20995 0.0
C1537 C 0.44248 0.00097 0.18545 0.0
C1538 C 0.43615 0.94306 0.21827 0.0
C1539 C 0.45674 0.93391 0.21036 0.0
C1540 C 0.447 0.9776 0.19383 0.0
C1541 C 0.47203 0.94718 0.19405 0.0
C1542 C 0.45945 0.01502 0.17473 0.0
C1543 C 0.41675 0.03073 0.18298 0.0
N1544 N 0.46688 0.96838 0.18645 0.0
N1545 N 0.42169 0.00924 0.18898 0.0
H1546 H 0.80027 0.6627 0.05551 0.0
H1547 H 0.72678 0.748 0.95821 0.0
H1548 H 0.8245 0.72614 0.02378 0.0
H1549 H 0.69934 0.69115 0.00591 0.0
H1550 H 0.7627 0.74024 0.9821 0.0
H1551 H 0.7631 0.67289 0.03811 0.0
C1552 C 0.79775 0.67885 0.04512 0.0
C1553 C 0.81555 0.69353 0.0409 0.0
C1554 C 0.7488 0.72953 0.9875 0.0
C1555 C 0.77309 0.70521 0.02064 0.0
C1556 C 0.72829 0.7339 0.97376 0.0
C1557 C 0.71005 0.72013 0.97992 0.0
C1558 C 0.75118 0.71112 0.00733 0.0
C1559 C 0.71297 0.70218 0.00043 0.0
C1560 C 0.77651 0.68466 0.0352 0.0
C1561 C 0.81128 0.71428 0.02744 0.0
N1562 N 0.7332 0.6981 0.01323 0.0
N1563 N 0.79052 0.71942 0.0175 0.0
H1564 H 0.02815 0.06372 0.69073 0.0
H1565 H 0.03205 0.94476 0.77315 0.0
H1566 H 0.00323 0.05054 0.78417 0.0
H1567 H 0.05141 0.95611 0.6766 0.0
H1568 H 0.02419 0.98411 0.77884 0.0
H1569 H 0.03966 0.0251 0.68651 0.0
C1570 C 0.02523 0.05276 0.71046 0.0
C1571 C 0.0146 0.06038 0.73781 0.0
C1572 C 0.03021 0.97803 0.75642 0.0
C1573 C 0.02769 0.0161 0.73306 0.0
C1574 C 0.03472 0.95553 0.75314 0.0
C1575 C 0.04231 0.94707 0.72428 0.0
C1576 C 0.03331 0.99226 0.73069 0.0
C1577 C 0.04551 0.96188 0.69924 0.0
C1578 C 0.03176 0.03068 0.70799 0.0
C1579 C 0.01128 0.0454 0.7626 0.0
N1580 N 0.04094 0.98375 0.703 0.0
N1581 N 0.01773 0.02398 0.75958 0.0
H1582 H 0.71722 0.33879 0.5091 0.0
H1583 H 0.80177 0.25169 0.43387 0.0
H1584 H 0.70053 0.27116 0.48587 0.0
H1585 H 0.82168 0.31577 0.46936 0.0
H1586 H 0.76321 0.26121 0.44418 0.0
H1587 H 0.75423 0.33297 0.48698 0.0
C1588 C 0.72126 0.32279 0.49916 0.0
C1589 C 0.70582 0.30537 0.49966 0.0
C1590 C 0.77599 0.27329 0.4494 0.0
C1591 C 0.74804 0.29864 0.4742 0.0
C1592 C 0.79804 0.26791 0.44336 0.0
C1593 C 0.81506 0.28282 0.45116 0.0
C1594 C 0.77088 0.29374 0.46338 0.0
C1595 C 0.80914 0.30365 0.46326 0.0
C1596 C 0.74239 0.31947 0.48655 0.0
C1597 C 0.71195 0.285 0.48633 0.0
N1598 N 0.78756 0.3084 0.46933 0.0
N1599 N 0.73258 0.28219 0.4743 0.0
loop_
_geom_bond_atom_site_label_1
_geom_bond_atom_site_label_2
_geom_bond_distance
_geom_bond_site_symmetry_2
_ccdc_geom_bond_type
Zn0 O3 2.031 . S
Zn0 O5 2.049 . S
Zn0 O10 2.067 . S
Zn1 O2 1.962 1_455 S
Zn1 O4 1.986 . S
Zn1 O6 1.996 . S
Zn1 O9 1.943 . S
O2 Zn1 1.962 1_655 S
O2 C7 1.254 . S
O3 Zn0 2.031 . S
O3 C7 1.269 1_455 S
O4 Zn1 1.986 . S
O4 C11 1.262 . S
O5 Zn0 2.049 . S
O5 C13 1.260 . S
O6 Zn1 1.996 . S
O6 C13 1.257 . S
C7 O2 1.254 . S
C7 O3 1.269 1_655 S
C8 O9 1.249 . S
C8 O10 1.270 . S
O9 Zn1 1.943 . S
O9 C8 1.249 . S
O10 Zn0 2.067 . S
O10 C8 1.270 . S
C11 O4 1.262 . S
C11 O12 1.232 . S
O12 C11 1.232 . S
C13 O5 1.260 . S
C13 O6 1.257 . S
Zn14 O17 2.031 . S
Zn14 O19 2.049 . S
Zn14 O24 2.067 . S
Zn15 O16 1.962 . S
Zn15 O18 1.986 . S
Zn15 O20 1.996 . S
Zn15 O23 1.943 . S
O16 Zn15 1.962 . S
O16 C21 1.254 . S
O17 Zn14 2.031 . S
O17 C21 1.269 . S
O18 Zn15 1.986 . S
O18 C25 1.262 . S
O19 Zn14 2.049 . S
O19 C27 1.260 . S
O20 Zn15 1.996 . S
O20 C27 1.257 . S
C21 O16 1.254 . S
C21 O17 1.269 . S
C22 O23 1.249 . S
C22 O24 1.270 . S
O23 Zn15 1.943 . S
O23 C22 1.249 . S
O24 Zn14 2.067 . S
O24 C22 1.270 . S
C25 O18 1.262 . S
C25 O26 1.232 . S
O26 C25 1.232 . S
C27 O19 1.260 . S
C27 O20 1.257 . S
Zn28 O31 2.031 . S
Zn28 O33 2.049 . S
Zn28 O38 2.067 . S
Zn29 O30 1.962 . S
Zn29 O32 1.986 . S
Zn29 O34 1.996 . S
Zn29 O37 1.943 . S
O30 Zn29 1.962 . S
O30 C35 1.254 . S
O31 Zn28 2.031 . S
O31 C35 1.269 . S
O32 Zn29 1.986 . S
O32 C39 1.262 . S
O33 Zn28 2.049 . S
O33 C41 1.260 . S
O34 Zn29 1.996 . S
O34 C41 1.257 . S
C35 O30 1.254 . S
C35 O31 1.269 . S
C36 O37 1.249 . S
C36 O38 1.270 . S
O37 Zn29 1.943 . S
O37 C36 1.249 . S
O38 Zn28 2.067 . S
O38 C36 1.270 . S
C39 O32 1.262 . S
C39 O40 1.232 . S
O40 C39 1.232 . S
C41 O33 1.260 . S
C41 O34 1.257 . S
Zn42 O45 2.031 . S
Zn42 O47 2.049 1_554 S
Zn42 O52 2.067 . S
Zn43 O44 1.962 . S
Zn43 O46 1.986 . S
Zn43 O48 1.996 1_554 S
Zn43 O51 1.943 . S
O44 Zn43 1.962 . S
O44 C49 1.254 . S
O45 Zn42 2.031 . S
O45 C49 1.269 . S
O46 Zn43 1.986 . S
O46 C53 1.262 . S
O47 Zn42 2.049 1_556 S
O47 C55 1.260 . S
O48 Zn43 1.996 1_556 S
O48 C55 1.257 . S
C49 O44 1.254 . S
C49 O45 1.269 . S
C50 O51 1.249 . S
C50 O52 1.270 . S
O51 Zn43 1.943 . S
O51 C50 1.249 . S
O52 Zn42 2.067 . S
O52 C50 1.270 . S
C53 O46 1.262 . S
C53 O54 1.232 . S
O54 C53 1.232 . S
C55 O47 1.260 . S
C55 O48 1.257 . S
Zn56 O59 2.031 . S
Zn56 O61 2.049 . S
Zn56 O66 2.067 . S
Zn57 O58 1.962 1_455 S
Zn57 O60 1.986 . S
Zn57 O62 1.996 . S
Zn57 O65 1.943 . S
O58 Zn57 1.962 1_655 S
O58 C63 1.254 . S
O59 Zn56 2.031 . S
O59 C63 1.269 1_455 S
O60 Zn57 1.986 . S
O60 C67 1.262 . S
O61 Zn56 2.049 . S
O61 C69 1.260 . S
O62 Zn57 1.996 . S
O62 C69 1.257 . S
C63 O58 1.254 . S
C63 O59 1.269 1_655 S
C64 O65 1.249 . S
C64 O66 1.270 . S
O65 Zn57 1.943 . S
O65 C64 1.249 . S
O66 Zn56 2.067 . S
O66 C64 1.270 . S
C67 O60 1.262 . S
C67 O68 1.232 . S
O68 C67 1.232 . S
C69 O61 1.260 . S
C69 O62 1.257 . S
Zn70 O73 2.031 . S
Zn70 O75 2.049 . S
Zn70 O80 2.067 . S
Zn71 O72 1.962 . S
Zn71 O74 1.986 . S
Zn71 O76 1.996 . S
Zn71 O79 1.943 . S
O72 Zn71 1.962 . S
O72 C77 1.254 . S
O73 Zn70 2.031 . S
O73 C77 1.269 . S
O74 Zn71 1.986 . S
O74 C81 1.262 . S
O75 Zn70 2.049 . S
O75 C83 1.260 . S
O76 Zn71 1.996 . S
O76 C83 1.257 . S
C77 O72 1.254 . S
C77 O73 1.269 . S
C78 O79 1.249 . S
C78 O80 1.270 . S
O79 Zn71 1.943 . S
O79 C78 1.249 . S
O80 Zn70 2.067 . S
O80 C78 1.270 . S
C81 O74 1.262 . S
C81 O82 1.232 . S
O82 C81 1.232 . S
C83 O75 1.260 . S
C83 O76 1.257 . S
Zn84 O87 2.031 . S
Zn84 O89 2.049 . S
Zn84 O94 2.067 . S
Zn85 O86 1.962 . S
Zn85 O88 1.986 . S
Zn85 O90 1.996 . S
Zn85 O93 1.943 . S
O86 Zn85 1.962 . S
O86 C91 1.254 . S
O87 Zn84 2.031 . S
O87 C91 1.269 . S
O88 Zn85 1.986 . S
O88 C95 1.262 . S
O89 Zn84 2.049 . S
O89 C97 1.260 . S
O90 Zn85 1.996 . S
O90 C97 1.257 . S
C91 O86 1.254 . S
C91 O87 1.269 . S
C92 O93 1.249 . S
C92 O94 1.270 . S
O93 Zn85 1.943 . S
O93 C92 1.249 . S
O94 Zn84 2.067 . S
O94 C92 1.270 . S
C95 O88 1.262 . S
C95 O96 1.232 . S
O96 C95 1.232 . S
C97 O89 1.260 . S
C97 O90 1.257 . S
Zn98 O101 2.031 . S
Zn98 O103 2.049 1_556 S
Zn98 O108 2.067 . S
Zn99 O100 1.962 . S
Zn99 O102 1.986 . S
Zn99 O104 1.996 1_556 S
Zn99 O107 1.943 . S
O100 Zn99 1.962 . S
O100 C105 1.254 . S
O101 Zn98 2.031 . S
O101 C105 1.269 . S
O102 Zn99 1.986 . S
O102 C109 1.262 . S
O103 Zn98 2.049 1_554 S
O103 C111 1.260 . S
O104 Zn99 1.996 1_554 S
O104 C111 1.257 . S
C105 O100 1.254 . S
C105 O101 1.269 . S
C106 O107 1.249 . S
C106 O108 1.270 . S
O107 Zn99 1.943 . S
O107 C106 1.249 . S
O108 Zn98 2.067 . S
O108 C106 1.270 . S
C109 O102 1.262 . S
C109 O110 1.232 . S
O110 C109 1.232 . S
C111 O103 1.260 . S
C111 O104 1.257 . S
Zn112 O115 2.031 . S
Zn112 O117 2.049 . S
Zn112 O122 2.067 . S
Zn113 O114 1.962 1_655 S
Zn113 O116 1.986 . S
Zn113 O118 1.996 . S
Zn113 O121 1.943 . S
O114 Zn113 1.962 1_455 S
O114 C119 1.254 . S
O115 Zn112 2.031 . S
O115 C119 1.269 1_655 S
O116 Zn113 1.986 . S
O116 C123 1.262 . S
O117 Zn112 2.049 . S
O117 C125 1.260 . S
O118 Zn113 1.996 . S
O118 C125 1.257 . S
C119 O114 1.254 . S
C119 O115 1.269 1_455 S
C120 O121 1.249 . S
C120 O122 1.270 . S
O121 Zn113 1.943 . S
O121 C120 1.249 . S
O122 Zn112 2.067 . S
O122 C120 1.270 . S
C123 O116 1.262 . S
C123 O124 1.232 . S
O124 C123 1.232 . S
C125 O117 1.260 . S
C125 O118 1.257 . S
Zn126 O129 2.031 . S
Zn126 O131 2.049 . S
Zn126 O136 2.067 . S
Zn127 O128 1.962 . S
Zn127 O130 1.986 . S
Zn127 O132 1.996 . S
Zn127 O135 1.943 . S
O128 Zn127 1.962 . S
O128 C133 1.254 . S
O129 Zn126 2.031 . S
O129 C133 1.269 . S
O130 Zn127 1.986 . S
O130 C137 1.262 . S
O131 Zn126 2.049 . S
O131 C139 1.260 . S
O132 Zn127 1.996 . S
O132 C139 1.257 . S
C133 O128 1.254 . S
C133 O129 1.269 . S
C134 O135 1.249 . S
C134 O136 1.270 . S
O135 Zn127 1.943 . S
O135 C134 1.249 . S
O136 Zn126 2.067 . S
O136 C134 1.270 . S
C137 O130 1.262 . S
C137 O138 1.232 . S
O138 C137 1.232 . S
C139 O131 1.260 . S
C139 O132 1.257 . S
Zn140 O143 2.031 . S
Zn140 O145 2.049 . S
Zn140 O150 2.067 . S
Zn141 O142 1.962 . S
Zn141 O144 1.986 . S
Zn141 O146 1.996 . S
Zn141 O149 1.943 . S
O142 Zn141 1.962 . S
O142 C147 1.254 . S
O143 Zn140 2.031 . S
O143 C147 1.269 . S
O144 Zn141 1.986 . S
O144 C151 1.262 . S
O145 Zn140 2.049 . S
O145 C153 1.260 . S
O146 Zn141 1.996 . S
O146 C153 1.257 . S
C147 O142 1.254 . S
C147 O143 1.269 . S
C148 O149 1.249 . S
C148 O150 1.270 . S
O149 Zn141 1.943 . S
O149 C148 1.249 . S
O150 Zn140 2.067 . S
O150 C148 1.270 . S
C151 O144 1.262 . S
C151 O152 1.232 . S
O152 C151 1.232 . S
C153 O145 1.260 . S
C153 O146 1.257 . S
Zn154 O157 2.031 . S
Zn154 O159 2.049 1_556 S
Zn154 O164 2.067 . S
Zn155 O156 1.962 . S
Zn155 O158 1.986 . S
Zn155 O160 1.996 1_556 S
Zn155 O163 1.943 . S
O156 Zn155 1.962 . S
O156 C161 1.254 . S
O157 Zn154 2.031 . S
O157 C161 1.269 . S
O158 Zn155 1.986 . S
O158 C165 1.262 . S
O159 Zn154 2.049 1_554 S
O159 C167 1.260 . S
O160 Zn155 1.996 1_554 S
O160 C167 1.257 . S
C161 O156 1.254 . S
C161 O157 1.269 . S
C162 O163 1.249 . S
C162 O164 1.270 . S
O163 Zn155 1.943 . S
O163 C162 1.249 . S
O164 Zn154 2.067 . S
O164 C162 1.270 . S
C165 O158 1.262 . S
C165 O166 1.232 . S
O166 C165 1.232 . S
C167 O159 1.260 . S
C167 O160 1.257 . S
Zn168 O171 2.031 . S
Zn168 O173 2.049 . S
Zn168 O178 2.067 . S
Zn169 O170 1.962 1_655 S
Zn169 O172 1.986 . S
Zn169 O174 1.996 . S
Zn169 O177 1.943 . S
O170 Zn169 1.962 1_455 S
O170 C175 1.254 . S
O171 Zn168 2.031 . S
O171 C175 1.269 1_655 S
O172 Zn169 1.986 . S
O172 C179 1.262 . S
O173 Zn168 2.049 . S
O173 C181 1.260 . S
O174 Zn169 1.996 . S
O174 C181 1.257 . S
C175 O170 1.254 . S
C175 O171 1.269 1_455 S
C176 O177 1.249 . S
C176 O178 1.270 . S
O177 Zn169 1.943 . S
O177 C176 1.249 . S
O178 Zn168 2.067 . S
O178 C176 1.270 . S
C179 O172 1.262 . S
C179 O180 1.232 . S
O180 C179 1.232 . S
C181 O173 1.260 . S
C181 O174 1.257 . S
Zn182 O185 2.031 . S
Zn182 O187 2.049 . S
Zn182 O192 2.067 . S
Zn183 O184 1.962 . S
Zn183 O186 1.986 . S
Zn183 O188 1.996 . S
Zn183 O191 1.943 . S
O184 Zn183 1.962 . S
O184 C189 1.254 . S
O185 Zn182 2.031 . S
O185 C189 1.269 . S
O186 Zn183 1.986 . S
O186 C193 1.262 . S
O187 Zn182 2.049 . S
O187 C195 1.260 . S
O188 Zn183 1.996 . S
O188 C195 1.257 . S
C189 O184 1.254 . S
C189 O185 1.269 . S
C190 O191 1.249 . S
C190 O192 1.270 . S
O191 Zn183 1.943 . S
O191 C190 1.249 . S
O192 Zn182 2.067 . S
O192 C190 1.270 . S
C193 O186 1.262 . S
C193 O194 1.232 . S
O194 C193 1.232 . S
C195 O187 1.260 . S
C195 O188 1.257 . S
Zn196 O199 2.031 . S
Zn196 O201 2.049 . S
Zn196 O206 2.067 . S
Zn197 O198 1.962 . S
Zn197 O200 1.986 . S
Zn197 O202 1.996 . S
Zn197 O205 1.943 . S
O198 Zn197 1.962 . S
O198 C203 1.254 . S
O199 Zn196 2.031 . S
O199 C203 1.269 . S
O200 Zn197 1.986 . S
O200 C207 1.262 . S
O201 Zn196 2.049 . S
O201 C209 1.260 . S
O202 Zn197 1.996 . S
O202 C209 1.257 . S
C203 O198 1.254 . S
C203 O199 1.269 . S
C204 O205 1.249 . S
C204 O206 1.270 . S
O205 Zn197 1.943 . S
O205 C204 1.249 . S
O206 Zn196 2.067 . S
O206 C204 1.270 . S
C207 O200 1.262 . S
C207 O208 1.232 . S
O208 C207 1.232 . S
C209 O201 1.260 . S
C209 O202 1.257 . S
Zn210 O213 2.031 . S
Zn210 O215 2.049 1_554 S
Zn210 O220 2.067 . S
Zn211 O212 1.962 . S
Zn211 O214 1.986 . S
Zn211 O216 1.996 1_554 S
Zn211 O219 1.943 . S
O212 Zn211 1.962 . S
O212 C217 1.254 . S
O213 Zn210 2.031 . S
O213 C217 1.269 . S
O214 Zn211 1.986 . S
O214 C221 1.262 . S
O215 Zn210 2.049 1_556 S
O215 C223 1.260 . S
O216 Zn211 1.996 1_556 S
O216 C223 1.257 . S
C217 O212 1.254 . S
C217 O213 1.269 . S
C218 O219 1.249 . S
C218 O220 1.270 . S
O219 Zn211 1.943 . S
O219 C218 1.249 . S
O220 Zn210 2.067 . S
O220 C218 1.270 . S
C221 O214 1.262 . S
C221 O222 1.232 . S
O222 C221 1.232 . S
C223 O215 1.260 . S
C223 O216 1.257 . S
Zn224 O227 2.031 . S
Zn224 O229 2.049 . S
Zn224 O234 2.067 . S
Zn225 O226 1.962 . S
Zn225 O228 1.986 . S
Zn225 O230 1.996 . S
Zn225 O233 1.943 . S
O226 Zn225 1.962 . S
O226 C231 1.254 . S
O227 Zn224 2.031 . S
O227 C231 1.269 . S
O228 Zn225 1.986 . S
O228 C235 1.262 . S
O229 Zn224 2.049 . S
O229 C237 1.260 . S
O230 Zn225 1.996 . S
O230 C237 1.257 . S
C231 O226 1.254 . S
C231 O227 1.269 . S
C232 O233 1.249 . S
C232 O234 1.270 . S
O233 Zn225 1.943 . S
O233 C232 1.249 . S
O234 Zn224 2.067 . S
O234 C232 1.270 . S
C235 O228 1.262 . S
C235 O236 1.232 . S
O236 C235 1.232 . S
C237 O229 1.260 . S
C237 O230 1.257 . S
Zn238 O241 2.031 . S
Zn238 O243 2.049 1_554 S
Zn238 O248 2.067 . S
Zn239 O240 1.962 . S
Zn239 O242 1.986 . S
Zn239 O244 1.996 1_554 S
Zn239 O247 1.943 . S
O240 Zn239 1.962 . S
O240 C245 1.254 . S
O241 Zn238 2.031 . S
O241 C245 1.269 . S
O242 Zn239 1.986 . S
O242 C249 1.262 . S
O243 Zn238 2.049 1_556 S
O243 C251 1.260 . S
O244 Zn239 1.996 1_556 S
O244 C251 1.257 . S
C245 O240 1.254 . S
C245 O241 1.269 . S
C246 O247 1.249 . S
C246 O248 1.270 . S
O247 Zn239 1.943 . S
O247 C246 1.249 . S
O248 Zn238 2.067 . S
O248 C246 1.270 . S
C249 O242 1.262 . S
C249 O250 1.232 . S
O250 C249 1.232 . S
C251 O243 1.260 . S
C251 O244 1.257 . S
Zn252 O255 2.031 . S
Zn252 O257 2.049 . S
Zn252 O262 2.067 . S
Zn253 O254 1.962 1_655 S
Zn253 O256 1.986 . S
Zn253 O258 1.996 . S
Zn253 O261 1.943 . S
O254 Zn253 1.962 1_455 S
O254 C259 1.254 . S
O255 Zn252 2.031 . S
O255 C259 1.269 1_655 S
O256 Zn253 1.986 . S
O256 C263 1.262 . S
O257 Zn252 2.049 . S
O257 C265 1.260 . S
O258 Zn253 1.996 . S
O258 C265 1.257 . S
C259 O254 1.254 . S
C259 O255 1.269 1_455 S
C260 O261 1.249 . S
C260 O262 1.270 . S
O261 Zn253 1.943 . S
O261 C260 1.249 . S
O262 Zn252 2.067 . S
O262 C260 1.270 . S
C263 O256 1.262 . S
C263 O264 1.232 . S
O264 C263 1.232 . S
C265 O257 1.260 . S
C265 O258 1.257 . S
Zn266 O269 2.031 . S
Zn266 O271 2.049 . S
Zn266 O276 2.067 . S
Zn267 O268 1.962 . S
Zn267 O270 1.986 . S
Zn267 O272 1.996 . S
Zn267 O275 1.943 . S
O268 Zn267 1.962 . S
O268 C273 1.254 . S
O269 Zn266 2.031 . S
O269 C273 1.269 . S
O270 Zn267 1.986 . S
O270 C277 1.262 . S
O271 Zn266 2.049 . S
O271 C279 1.260 . S
O272 Zn267 1.996 . S
O272 C279 1.257 . S
C273 O268 1.254 . S
C273 O269 1.269 . S
C274 O275 1.249 . S
C274 O276 1.270 . S
O275 Zn267 1.943 . S
O275 C274 1.249 . S
O276 Zn266 2.067 . S
O276 C274 1.270 . S
C277 O270 1.262 . S
C277 O278 1.232 . S
O278 C277 1.232 . S
C279 O271 1.260 . S
C279 O272 1.257 . S
Zn280 O283 2.031 . S
Zn280 O285 2.049 . S
Zn280 O290 2.067 . S
Zn281 O282 1.962 . S
Zn281 O284 1.986 . S
Zn281 O286 1.996 . S
Zn281 O289 1.943 . S
O282 Zn281 1.962 . S
O282 C287 1.254 . S
O283 Zn280 2.031 . S
O283 C287 1.269 . S
O284 Zn281 1.986 . S
O284 C291 1.262 . S
O285 Zn280 2.049 . S
O285 C293 1.260 . S
O286 Zn281 1.996 . S
O286 C293 1.257 . S
C287 O282 1.254 . S
C287 O283 1.269 . S
C288 O289 1.249 . S
C288 O290 1.270 . S
O289 Zn281 1.943 . S
O289 C288 1.249 . S
O290 Zn280 2.067 . S
O290 C288 1.270 . S
C291 O284 1.262 . S
C291 O292 1.232 . S
O292 C291 1.232 . S
C293 O285 1.260 . S
C293 O286 1.257 . S
Zn294 O297 2.031 . S
Zn294 O299 2.049 1_556 S
Zn294 O304 2.067 . S
Zn295 O296 1.962 . S
Zn295 O298 1.986 . S
Zn295 O300 1.996 1_556 S
Zn295 O303 1.943 . S
O296 Zn295 1.962 . S
O296 C301 1.254 . S
O297 Zn294 2.031 . S
O297 C301 1.269 . S
O298 Zn295 1.986 . S
O298 C305 1.262 . S
O299 Zn294 2.049 1_554 S
O299 C307 1.260 . S
O300 Zn295 1.996 1_554 S
O300 C307 1.257 . S
C301 O296 1.254 . S
C301 O297 1.269 . S
C302 O303 1.249 . S
C302 O304 1.270 . S
O303 Zn295 1.943 . S
O303 C302 1.249 . S
O304 Zn294 2.067 . S
O304 C302 1.270 . S
C305 O298 1.262 . S
C305 O306 1.232 . S
O306 C305 1.232 . S
C307 O299 1.260 . S
C307 O300 1.257 . S
Zn308 O311 2.031 . S
Zn308 O313 2.049 . S
Zn308 O318 2.067 . S
Zn309 O310 1.962 1_655 S
Zn309 O312 1.986 . S
Zn309 O314 1.996 . S
Zn309 O317 1.943 . S
O310 Zn309 1.962 1_455 S
O310 C315 1.254 . S
O311 Zn308 2.031 . S
O311 C315 1.269 1_655 S
O312 Zn309 1.986 . S
O312 C319 1.262 . S
O313 Zn308 2.049 . S
O313 C321 1.260 . S
O314 Zn309 1.996 . S
O314 C321 1.257 . S
C315 O310 1.254 . S
C315 O311 1.269 1_455 S
C316 O317 1.249 . S
C316 O318 1.270 . S
O317 Zn309 1.943 . S
O317 C316 1.249 . S
O318 Zn308 2.067 . S
O318 C316 1.270 . S
C319 O312 1.262 . S
C319 O320 1.232 . S
O320 C319 1.232 . S
C321 O313 1.260 . S
C321 O314 1.257 . S
Zn322 O325 2.031 . S
Zn322 O327 2.049 . S
Zn322 O332 2.067 . S
Zn323 O324 1.962 . S
Zn323 O326 1.986 . S
Zn323 O328 1.996 . S
Zn323 O331 1.943 . S
O324 Zn323 1.962 . S
O324 C329 1.254 . S
O325 Zn322 2.031 . S
O325 C329 1.269 . S
O326 Zn323 1.986 . S
O326 C333 1.262 . S
O327 Zn322 2.049 . S
O327 C335 1.260 . S
O328 Zn323 1.996 . S
O328 C335 1.257 . S
C329 O324 1.254 . S
C329 O325 1.269 . S
C330 O331 1.249 . S
C330 O332 1.270 . S
O331 Zn323 1.943 . S
O331 C330 1.249 . S
O332 Zn322 2.067 . S
O332 C330 1.270 . S
C333 O326 1.262 . S
C333 O334 1.232 . S
O334 C333 1.232 . S
C335 O327 1.260 . S
C335 O328 1.257 . S
Zn336 O339 2.031 . S
Zn336 O341 2.049 . S
Zn336 O346 2.067 . S
Zn337 O338 1.962 . S
Zn337 O340 1.986 . S
Zn337 O342 1.996 . S
Zn337 O345 1.943 . S
O338 Zn337 1.962 . S
O338 C343 1.254 . S
O339 Zn336 2.031 . S
O339 C343 1.269 . S
O340 Zn337 1.986 . S
O340 C347 1.262 . S
O341 Zn336 2.049 . S
O341 C349 1.260 . S
O342 Zn337 1.996 . S
O342 C349 1.257 . S
C343 O338 1.254 . S
C343 O339 1.269 . S
C344 O345 1.249 . S
C344 O346 1.270 . S
O345 Zn337 1.943 . S
O345 C344 1.249 . S
O346 Zn336 2.067 . S
O346 C344 1.270 . S
C347 O340 1.262 . S
C347 O348 1.232 . S
O348 C347 1.232 . S
C349 O341 1.260 . S
C349 O342 1.257 . S
Zn350 O353 2.031 . S
Zn350 O355 2.049 1_556 S
Zn350 O360 2.067 . S
Zn351 O352 1.962 . S
Zn351 O354 1.986 . S
Zn351 O356 1.996 1_556 S
Zn351 O359 1.943 . S
O352 Zn351 1.962 . S
O352 C357 1.254 . S
O353 Zn350 2.031 . S
O353 C357 1.269 . S
O354 Zn351 1.986 . S
O354 C361 1.262 . S
O355 Zn350 2.049 1_554 S
O355 C363 1.260 . S
O356 Zn351 1.996 1_554 S
O356 C363 1.257 . S
C357 O352 1.254 . S
C357 O353 1.269 . S
C358 O359 1.249 . S
C358 O360 1.270 . S
O359 Zn351 1.943 . S
O359 C358 1.249 . S
O360 Zn350 2.067 . S
O360 C358 1.270 . S
C361 O354 1.262 . S
C361 O362 1.232 . S
O362 C361 1.232 . S
C363 O355 1.260 . S
C363 O356 1.257 . S
Zn364 O367 2.031 . S
Zn364 O369 2.049 . S
Zn364 O374 2.067 . S
Zn365 O366 1.962 1_455 S
Zn365 O368 1.986 . S
Zn365 O370 1.996 . S
Zn365 O373 1.943 . S
O366 Zn365 1.962 1_655 S
O366 C371 1.254 . S
O367 Zn364 2.031 . S
O367 C371 1.269 1_455 S
O368 Zn365 1.986 . S
O368 C375 1.262 . S
O369 Zn364 2.049 . S
O369 C377 1.260 . S
O370 Zn365 1.996 . S
O370 C377 1.257 . S
C371 O366 1.254 . S
C371 O367 1.269 1_655 S
C372 O373 1.249 . S
C372 O374 1.270 . S
O373 Zn365 1.943 . S
O373 C372 1.249 . S
O374 Zn364 2.067 . S
O374 C372 1.270 . S
C375 O368 1.262 . S
C375 O376 1.232 . S
O376 C375 1.232 . S
C377 O369 1.260 . S
C377 O370 1.257 . S
Zn378 O381 2.031 . S
Zn378 O383 2.049 . S
Zn378 O388 2.067 . S
Zn379 O380 1.962 . S
Zn379 O382 1.986 . S
Zn379 O384 1.996 . S
Zn379 O387 1.943 . S
O380 Zn379 1.962 . S
O380 C385 1.254 . S
O381 Zn378 2.031 . S
O381 C385 1.269 . S
O382 Zn379 1.986 . S
O382 C389 1.262 . S
O383 Zn378 2.049 . S
O383 C391 1.260 . S
O384 Zn379 1.996 . S
O384 C391 1.257 . S
C385 O380 1.254 . S
C385 O381 1.269 . S
C386 O387 1.249 . S
C386 O388 1.270 . S
O387 Zn379 1.943 . S
O387 C386 1.249 . S
O388 Zn378 2.067 . S
O388 C386 1.270 . S
C389 O382 1.262 . S
C389 O390 1.232 . S
O390 C389 1.232 . S
C391 O383 1.260 . S
C391 O384 1.257 . S
Zn392 O395 2.031 . S
Zn392 O397 2.049 . S
Zn392 O402 2.067 . S
Zn393 O394 1.962 . S
Zn393 O396 1.986 . S
Zn393 O398 1.996 . S
Zn393 O401 1.943 . S
O394 Zn393 1.962 . S
O394 C399 1.254 . S
O395 Zn392 2.031 . S
O395 C399 1.269 . S
O396 Zn393 1.986 . S
O396 C403 1.262 . S
O397 Zn392 2.049 . S
O397 C405 1.260 . S
O398 Zn393 1.996 . S
O398 C405 1.257 . S
C399 O394 1.254 . S
C399 O395 1.269 . S
C400 O401 1.249 . S
C400 O402 1.270 . S
O401 Zn393 1.943 . S
O401 C400 1.249 . S
O402 Zn392 2.067 . S
O402 C400 1.270 . S
C403 O396 1.262 . S
C403 O404 1.232 . S
O404 C403 1.232 . S
C405 O397 1.260 . S
C405 O398 1.257 . S
Zn406 O409 2.031 . S
Zn406 O411 2.049 1_554 S
Zn406 O416 2.067 . S
Zn407 O408 1.962 . S
Zn407 O410 1.986 . S
Zn407 O412 1.996 1_554 S
Zn407 O415 1.943 . S
O408 Zn407 1.962 . S
O408 C413 1.254 . S
O409 Zn406 2.031 . S
O409 C413 1.269 . S
O410 Zn407 1.986 . S
O410 C417 1.262 . S
O411 Zn406 2.049 1_556 S
O411 C419 1.260 . S
O412 Zn407 1.996 1_556 S
O412 C419 1.257 . S
C413 O408 1.254 . S
C413 O409 1.269 . S
C414 O415 1.249 . S
C414 O416 1.270 . S
O415 Zn407 1.943 . S
O415 C414 1.249 . S
O416 Zn406 2.067 . S
O416 C414 1.270 . S
C417 O410 1.262 . S
C417 O418 1.232 . S
O418 C417 1.232 . S
C419 O411 1.260 . S
C419 O412 1.257 . S
Zn420 O423 2.031 . S
Zn420 O425 2.049 . S
Zn420 O430 2.067 . S
Zn421 O422 1.962 1_455 S
Zn421 O424 1.986 . S
Zn421 O426 1.996 . S
Zn421 O429 1.943 . S
O422 Zn421 1.962 1_655 S
O422 C427 1.254 . S
O423 Zn420 2.031 . S
O423 C427 1.269 1_455 S
O424 Zn421 1.986 . S
O424 C431 1.262 . S
O425 Zn420 2.049 . S
O425 C433 1.260 . S
O426 Zn421 1.996 . S
O426 C433 1.257 . S
C427 O422 1.254 . S
C427 O423 1.269 1_655 S
C428 O429 1.249 . S
C428 O430 1.270 . S
O429 Zn421 1.943 . S
O429 C428 1.249 . S
O430 Zn420 2.067 . S
O430 C428 1.270 . S
C431 O424 1.262 . S
C431 O432 1.232 . S
O432 C431 1.232 . S
C433 O425 1.260 . S
C433 O426 1.257 . S
Zn434 O437 2.031 . S
Zn434 O439 2.049 . S
Zn434 O444 2.067 . S
Zn435 O436 1.962 . S
Zn435 O438 1.986 . S
Zn435 O440 1.996 . S
Zn435 O443 1.943 . S
O436 Zn435 1.962 . S
O436 C441 1.254 . S
O437 Zn434 2.031 . S
O437 C441 1.269 . S
O438 Zn435 1.986 . S
O438 C445 1.262 . S
O439 Zn434 2.049 . S
O439 C447 1.260 . S
O440 Zn435 1.996 . S
O440 C447 1.257 . S
C441 O436 1.254 . S
C441 O437 1.269 . S
C442 O443 1.249 . S
C442 O444 1.270 . S
O443 Zn435 1.943 . S
O443 C442 1.249 . S
O444 Zn434 2.067 . S
O444 C442 1.270 . S
C445 O438 1.262 . S
C445 O446 1.232 . S
O446 C445 1.232 . S
C447 O439 1.260 . S
C447 O440 1.257 . S
H448 C454 0.930 . S
H449 C458 0.930 . S
H450 C463 0.929 . S
H451 C461 0.929 . S
H452 C456 0.929 . S
H453 C462 0.929 . S
C454 H448 0.930 . S
C454 C455 1.367 . S
C454 C462 1.378 . S
C455 C454 1.367 . S
C455 C463 1.433 . S
C456 H452 0.929 . S
C456 C458 1.378 . S
C456 C460 1.350 . S
C457 C460 1.463 . S
C457 C462 1.350 . S
C457 N465 1.427 . S
C458 H449 0.930 . S
C458 C456 1.378 . S
C458 C459 1.367 . S
C459 C458 1.367 . S
C459 C461 1.433 . S
C460 C456 1.350 . S
C460 C457 1.463 . S
C460 N464 1.427 . S
C461 H451 0.929 . S
C461 C459 1.433 . S
C461 N464 1.384 . S
C462 H453 0.929 . S
C462 C454 1.378 . S
C462 C457 1.350 . S
C463 H450 0.929 . S
C463 C455 1.433 . S
C463 N465 1.384 . S
N464 C460 1.427 . S
N464 C461 1.384 . S
N465 C457 1.427 . S
N465 C463 1.384 . S
H466 C472 0.930 . S
H467 C476 0.930 . S
H468 C481 0.929 . S
H469 C479 0.929 . S
H470 C474 0.929 . S
H471 C480 0.929 . S
C472 H466 0.930 . S
C472 C473 1.367 . S
C472 C480 1.378 . S
C473 C472 1.367 . S
C473 C481 1.433 . S
C474 H470 0.929 . S
C474 C476 1.378 . S
C474 C478 1.350 . S
C475 C478 1.463 . S
C475 C480 1.350 . S
C475 N483 1.427 . S
C476 H467 0.930 . S
C476 C474 1.378 . S
C476 C477 1.367 . S
C477 C476 1.367 . S
C477 C479 1.433 . S
C478 C474 1.350 . S
C478 C475 1.463 . S
C478 N482 1.427 . S
C479 H469 0.929 . S
C479 C477 1.433 . S
C479 N482 1.384 . S
C480 H471 0.929 . S
C480 C472 1.378 . S
C480 C475 1.350 . S
C481 H468 0.929 . S
C481 C473 1.433 . S
C481 N483 1.384 . S
N482 C478 1.427 . S
N482 C479 1.384 . S
N483 C475 1.427 . S
N483 C481 1.384 . S
H484 C490 0.930 . S
H485 C494 0.930 . S
H486 C499 0.929 . S
H487 C497 0.929 . S
H488 C492 0.929 . S
H489 C498 0.929 . S
C490 H484 0.930 . S
C490 C491 1.367 . S
C490 C498 1.378 . S
C491 C490 1.367 . S
C491 C499 1.433 . S
C492 H488 0.929 . S
C492 C494 1.378 . S
C492 C496 1.350 . S
C493 C496 1.463 . S
C493 C498 1.350 . S
C493 N501 1.427 . S
C494 H485 0.930 . S
C494 C492 1.378 . S
C494 C495 1.367 . S
C495 C494 1.367 . S
C495 C497 1.433 . S
C496 C492 1.350 . S
C496 C493 1.463 . S
C496 N500 1.427 . S
C497 H487 0.929 . S
C497 C495 1.433 . S
C497 N500 1.384 . S
C498 H489 0.929 . S
C498 C490 1.378 . S
C498 C493 1.350 . S
C499 H486 0.929 . S
C499 C491 1.433 . S
C499 N501 1.384 . S
N500 C496 1.427 . S
N500 C497 1.384 . S
N501 C493 1.427 . S
N501 C499 1.384 . S
H502 C508 0.930 . S
H503 C512 0.930 . S
H504 C517 0.929 . S
H505 C515 0.929 . S
H506 C510 0.929 . S
H507 C516 0.929 . S
C508 H502 0.930 . S
C508 C509 1.367 . S
C508 C516 1.378 . S
C509 C508 1.367 . S
C509 C517 1.433 . S
C510 H506 0.929 . S
C510 C512 1.378 . S
C510 C514 1.350 . S
C511 C514 1.463 . S
C511 C516 1.350 . S
C511 N519 1.427 . S
C512 H503 0.930 . S
C512 C510 1.378 . S
C512 C513 1.367 . S
C513 C512 1.367 . S
C513 C515 1.433 . S
C514 C510 1.350 . S
C514 C511 1.463 . S
C514 N518 1.427 . S
C515 H505 0.929 . S
C515 C513 1.433 . S
C515 N518 1.384 . S
C516 H507 0.929 . S
C516 C508 1.378 . S
C516 C511 1.350 . S
C517 H504 0.929 . S
C517 C509 1.433 . S
C517 N519 1.384 . S
N518 C514 1.427 . S
N518 C515 1.384 . S
N519 C511 1.427 . S
N519 C517 1.384 . S
H520 C526 0.930 . S
H521 C530 0.930 . S
H522 C535 0.929 . S
H523 C533 0.929 . S
H524 C528 0.929 . S
H525 C534 0.929 . S
C526 H520 0.930 . S
C526 C527 1.367 . S
C526 C534 1.378 . S
C527 C526 1.367 . S
C527 C535 1.433 . S
C528 H524 0.929 . S
C528 C530 1.378 . S
C528 C532 1.350 . S
C529 C532 1.463 . S
C529 C534 1.350 . S
C529 N537 1.427 . S
C530 H521 0.930 . S
C530 C528 1.378 . S
C530 C531 1.367 . S
C531 C530 1.367 . S
C531 C533 1.433 . S
C532 C528 1.350 . S
C532 C529 1.463 . S
C532 N536 1.427 . S
C533 H523 0.929 . S
C533 C531 1.433 . S
C533 N536 1.384 . S
C534 H525 0.929 . S
C534 C526 1.378 . S
C534 C529 1.350 . S
C535 H522 0.929 . S
C535 C527 1.433 . S
C535 N537 1.384 . S
N536 C532 1.427 . S
N536 C533 1.384 . S
N537 C529 1.427 . S
N537 C535 1.384 . S
H538 C544 0.930 . S
H539 C548 0.930 . S
H540 C553 0.929 . S
H541 C551 0.929 . S
H542 C546 0.929 . S
H543 C552 0.929 . S
C544 H538 0.930 . S
C544 C545 1.367 . S
C544 C552 1.378 . S
C545 C544 1.367 . S
C545 C553 1.433 . S
C546 H542 0.929 . S
C546 C548 1.378 . S
C546 C550 1.350 . S
C547 C550 1.463 . S
C547 C552 1.350 . S
C547 N555 1.427 . S
C548 H539 0.930 . S
C548 C546 1.378 . S
C548 C549 1.367 . S
C549 C548 1.367 . S
C549 C551 1.433 . S
C550 C546 1.350 . S
C550 C547 1.463 . S
C550 N554 1.427 . S
C551 H541 0.929 . S
C551 C549 1.433 . S
C551 N554 1.384 . S
C552 H543 0.929 . S
C552 C544 1.378 . S
C552 C547 1.350 . S
C553 H540 0.929 . S
C553 C545 1.433 . S
C553 N555 1.384 . S
N554 C550 1.427 . S
N554 C551 1.384 . S
N555 C547 1.427 . S
N555 C553 1.384 . S
H556 C562 0.930 . S
H557 C566 0.930 . S
H558 C571 0.929 . S
H559 C569 0.929 . S
H560 C564 0.929 . S
H561 C570 0.929 . S
C562 H556 0.930 . S
C562 C563 1.367 . S
C562 C570 1.378 . S
C563 C562 1.367 . S
C563 C571 1.433 . S
C564 H560 0.929 . S
C564 C566 1.378 . S
C564 C568 1.350 . S
C565 C568 1.463 . S
C565 C570 1.350 . S
C565 N573 1.427 . S
C566 H557 0.930 . S
C566 C564 1.378 . S
C566 C567 1.367 . S
C567 C566 1.367 . S
C567 C569 1.433 . S
C568 C564 1.350 . S
C568 C565 1.463 . S
C568 N572 1.427 . S
C569 H559 0.929 . S
C569 C567 1.433 . S
C569 N572 1.384 . S
C570 H561 0.929 . S
C570 C562 1.378 . S
C570 C565 1.350 . S
C571 H558 0.929 . S
C571 C563 1.433 . S
C571 N573 1.384 . S
N572 C568 1.427 . S
N572 C569 1.384 . S
N573 C565 1.427 . S
N573 C571 1.384 . S
H574 C580 0.930 . S
H575 C584 0.930 . S
H576 C589 0.929 . S
H577 C587 0.929 . S
H578 C582 0.929 . S
H579 C588 0.929 . S
C580 H574 0.930 . S
C580 C581 1.367 . S
C580 C588 1.378 . S
C581 C580 1.367 . S
C581 C589 1.433 . S
C582 H578 0.929 . S
C582 C584 1.378 . S
C582 C586 1.350 . S
C583 C586 1.463 . S
C583 C588 1.350 . S
C583 N591 1.427 . S
C584 H575 0.930 . S
C584 C582 1.378 . S
C584 C585 1.367 . S
C585 C584 1.367 . S
C585 C587 1.433 . S
C586 C582 1.350 . S
C586 C583 1.463 . S
C586 N590 1.427 . S
C587 H577 0.929 . S
C587 C585 1.433 . S
C587 N590 1.384 . S
C588 H579 0.929 . S
C588 C580 1.378 . S
C588 C583 1.350 . S
C589 H576 0.929 . S
C589 C581 1.433 . S
C589 N591 1.384 . S
N590 C586 1.427 . S
N590 C587 1.384 . S
N591 C583 1.427 . S
N591 C589 1.384 . S
H592 C598 0.930 . S
H593 C602 0.930 . S
H594 C607 0.929 . S
H595 C605 0.929 . S
H596 C600 0.929 . S
H597 C606 0.929 . S
C598 H592 0.930 . S
C598 C599 1.367 . S
C598 C606 1.378 . S
C599 C598 1.367 . S
C599 C607 1.433 . S
C600 H596 0.929 . S
C600 C602 1.378 . S
C600 C604 1.350 . S
C601 C604 1.463 . S
C601 C606 1.350 . S
C601 N609 1.427 . S
C602 H593 0.930 . S
C602 C600 1.378 . S
C602 C603 1.367 . S
C603 C602 1.367 . S
C603 C605 1.433 . S
C604 C600 1.350 . S
C604 C601 1.463 . S
C604 N608 1.427 . S
C605 H595 0.929 . S
C605 C603 1.433 . S
C605 N608 1.384 . S
C606 H597 0.929 . S
C606 C598 1.378 . S
C606 C601 1.350 . S
C607 H594 0.929 . S
C607 C599 1.433 . S
C607 N609 1.384 . S
N608 C604 1.427 . S
N608 C605 1.384 . S
N609 C601 1.427 . S
N609 C607 1.384 . S
H610 C616 0.930 . S
H611 C620 0.930 . S
H612 C625 0.929 . S
H613 C623 0.929 . S
H614 C618 0.929 . S
H615 C624 0.929 . S
C616 H610 0.930 . S
C616 C617 1.367 . S
C616 C624 1.378 . S
C617 C616 1.367 . S
C617 C625 1.433 . S
C618 H614 0.929 . S
C618 C620 1.378 . S
C618 C622 1.350 . S
C619 C622 1.463 . S
C619 C624 1.350 . S
C619 N627 1.427 . S
C620 H611 0.930 . S
C620 C618 1.378 . S
C620 C621 1.367 . S
C621 C620 1.367 . S
C621 C623 1.433 . S
C622 C618 1.350 . S
C622 C619 1.463 . S
C622 N626 1.427 . S
C623 H613 0.929 . S
C623 C621 1.433 . S
C623 N626 1.384 . S
C624 H615 0.929 . S
C624 C616 1.378 . S
C624 C619 1.350 . S
C625 H612 0.929 . S
C625 C617 1.433 . S
C625 N627 1.384 . S
N626 C622 1.427 . S
N626 C623 1.384 . S
N627 C619 1.427 . S
N627 C625 1.384 . S
H628 C634 0.930 . S
H629 C638 0.930 . S
H630 C643 0.929 . S
H631 C641 0.929 . S
H632 C636 0.929 . S
H633 C642 0.929 . S
C634 H628 0.930 . S
C634 C635 1.367 . S
C634 C642 1.378 . S
C635 C634 1.367 . S
C635 C643 1.433 . S
C636 H632 0.929 . S
C636 C638 1.378 . S
C636 C640 1.350 . S
C637 C640 1.463 . S
C637 C642 1.350 . S
C637 N645 1.427 . S
C638 H629 0.930 . S
C638 C636 1.378 . S
C638 C639 1.367 . S
C639 C638 1.367 . S
C639 C641 1.433 . S
C640 C636 1.350 . S
C640 C637 1.463 . S
C640 N644 1.427 . S
C641 H631 0.929 . S
C641 C639 1.433 . S
C641 N644 1.384 . S
C642 H633 0.929 . S
C642 C634 1.378 . S
C642 C637 1.350 . S
C643 H630 0.929 . S
C643 C635 1.433 . S
C643 N645 1.384 . S
N644 C640 1.427 . S
N644 C641 1.384 . S
N645 C637 1.427 . S
N645 C643 1.384 . S
H646 C652 0.930 . S
H647 C656 0.930 . S
H648 C661 0.929 . S
H649 C659 0.929 . S
H650 C654 0.929 . S
H651 C660 0.929 . S
C652 H646 0.930 . S
C652 C653 1.367 . S
C652 C660 1.378 . S
C653 C652 1.367 . S
C653 C661 1.433 . S
C654 H650 0.929 . S
C654 C656 1.378 . S
C654 C658 1.350 . S
C655 C658 1.463 . S
C655 C660 1.350 . S
C655 N663 1.427 . S
C656 H647 0.930 . S
C656 C654 1.378 . S
C656 C657 1.367 . S
C657 C656 1.367 . S
C657 C659 1.433 . S
C658 C654 1.350 . S
C658 C655 1.463 . S
C658 N662 1.427 . S
C659 H649 0.929 . S
C659 C657 1.433 . S
C659 N662 1.384 . S
C660 H651 0.929 . S
C660 C652 1.378 . S
C660 C655 1.350 . S
C661 H648 0.929 . S
C661 C653 1.433 . S
C661 N663 1.384 . S
N662 C658 1.427 . S
N662 C659 1.384 . S
N663 C655 1.427 . S
N663 C661 1.384 . S
H664 C670 0.930 . S
H665 C674 0.930 . S
H666 C679 0.929 . S
H667 C677 0.929 . S
H668 C672 0.929 . S
H669 C678 0.929 . S
C670 H664 0.930 . S
C670 C671 1.367 . S
C670 C678 1.378 . S
C671 C670 1.367 . S
C671 C679 1.433 . S
C672 H668 0.929 . S
C672 C674 1.378 . S
C672 C676 1.350 . S
C673 C676 1.463 . S
C673 C678 1.350 . S
C673 N681 1.427 . S
C674 H665 0.930 . S
C674 C672 1.378 . S
C674 C675 1.367 . S
C675 C674 1.367 . S
C675 C677 1.433 . S
C676 C672 1.350 . S
C676 C673 1.463 . S
C676 N680 1.427 . S
C677 H667 0.929 . S
C677 C675 1.433 . S
C677 N680 1.384 . S
C678 H669 0.929 . S
C678 C670 1.378 . S
C678 C673 1.350 . S
C679 H666 0.929 . S
C679 C671 1.433 . S
C679 N681 1.384 . S
N680 C676 1.427 . S
N680 C677 1.384 . S
N681 C673 1.427 . S
N681 C679 1.384 . S
H682 C688 0.930 . S
H683 C692 0.930 . S
H684 C697 0.929 . S
H685 C695 0.929 . S
H686 C690 0.929 . S
H687 C696 0.929 . S
C688 H682 0.930 . S
C688 C689 1.367 . S
C688 C696 1.378 . S
C689 C688 1.367 . S
C689 C697 1.433 . S
C690 H686 0.929 . S
C690 C692 1.378 . S
C690 C694 1.350 . S
C691 C694 1.463 . S
C691 C696 1.350 . S
C691 N699 1.427 . S
C692 H683 0.930 . S
C692 C690 1.378 . S
C692 C693 1.367 . S
C693 C692 1.367 . S
C693 C695 1.433 . S
C694 C690 1.350 . S
C694 C691 1.463 . S
C694 N698 1.427 . S
C695 H685 0.929 . S
C695 C693 1.433 . S
C695 N698 1.384 . S
C696 H687 0.929 . S
C696 C688 1.378 . S
C696 C691 1.350 . S
C697 H684 0.929 . S
C697 C689 1.433 . S
C697 N699 1.384 . S
N698 C694 1.427 . S
N698 C695 1.384 . S
N699 C691 1.427 . S
N699 C697 1.384 . S
H700 C706 0.930 . S
H701 C710 0.930 . S
H702 C715 0.929 . S
H703 C713 0.929 . S
H704 C708 0.929 . S
H705 C714 0.929 . S
C706 H700 0.930 . S
C706 C707 1.367 . S
C706 C714 1.378 . S
C707 C706 1.367 . S
C707 C715 1.433 . S
C708 H704 0.929 . S
C708 C710 1.378 . S
C708 C712 1.350 . S
C709 C712 1.463 . S
C709 C714 1.350 . S
C709 N717 1.427 . S
C710 H701 0.930 . S
C710 C708 1.378 . S
C710 C711 1.367 . S
C711 C710 1.367 . S
C711 C713 1.433 . S
C712 C708 1.350 . S
C712 C709 1.463 . S
C712 N716 1.427 . S
C713 H703 0.929 . S
C713 C711 1.433 . S
C713 N716 1.384 . S
C714 H705 0.929 . S
C714 C706 1.378 . S
C714 C709 1.350 . S
C715 H702 0.929 . S
C715 C707 1.433 . S
C715 N717 1.384 . S
N716 C712 1.427 . S
N716 C713 1.384 . S
N717 C709 1.427 . S
N717 C715 1.384 . S
H718 C724 0.930 . S
H719 C728 0.930 . S
H720 C733 0.929 . S
H721 C731 0.929 . S
H722 C726 0.929 . S
H723 C732 0.929 . S
C724 H718 0.930 . S
C724 C725 1.367 . S
C724 C732 1.378 . S
C725 C724 1.367 . S
C725 C733 1.433 . S
C726 H722 0.929 . S
C726 C728 1.378 . S
C726 C730 1.350 . S
C727 C730 1.463 . S
C727 C732 1.350 . S
C727 N735 1.427 . S
C728 H719 0.930 . S
C728 C726 1.378 . S
C728 C729 1.367 . S
C729 C728 1.367 . S
C729 C731 1.433 . S
C730 C726 1.350 . S
C730 C727 1.463 . S
C730 N734 1.427 . S
C731 H721 0.929 . S
C731 C729 1.433 . S
C731 N734 1.384 . S
C732 H723 0.929 . S
C732 C724 1.378 . S
C732 C727 1.350 . S
C733 H720 0.929 . S
C733 C725 1.433 . S
C733 N735 1.384 . S
N734 C730 1.427 . S
N734 C731 1.384 . S
N735 C727 1.427 . S
N735 C733 1.384 . S
H736 C742 0.930 . S
H737 C746 0.930 . S
H738 C751 0.929 . S
H739 C749 0.929 . S
H740 C744 0.929 . S
H741 C750 0.929 . S
C742 H736 0.930 . S
C742 C743 1.367 . S
C742 C750 1.378 . S
C743 C742 1.367 . S
C743 C751 1.433 . S
C744 H740 0.929 . S
C744 C746 1.378 . S
C744 C748 1.350 . S
C745 C748 1.463 . S
C745 C750 1.350 . S
C745 N753 1.427 . S
C746 H737 0.930 . S
C746 C744 1.378 . S
C746 C747 1.367 . S
C747 C746 1.367 . S
C747 C749 1.433 . S
C748 C744 1.350 . S
C748 C745 1.463 . S
C748 N752 1.427 . S
C749 H739 0.929 . S
C749 C747 1.433 . S
C749 N752 1.384 . S
C750 H741 0.929 . S
C750 C742 1.378 . S
C750 C745 1.350 . S
C751 H738 0.929 . S
C751 C743 1.433 . S
C751 N753 1.384 . S
N752 C748 1.427 . S
N752 C749 1.384 . S
N753 C745 1.427 . S
N753 C751 1.384 . S
H754 C760 0.930 . S
H755 C764 0.930 . S
H756 C769 0.929 . S
H757 C767 0.929 . S
H758 C762 0.929 . S
H759 C768 0.929 . S
C760 H754 0.930 . S
C760 C761 1.367 . S
C760 C768 1.378 . S
C761 C760 1.367 . S
C761 C769 1.433 . S
C762 H758 0.929 . S
C762 C764 1.378 . S
C762 C766 1.350 . S
C763 C766 1.463 . S
C763 C768 1.350 . S
C763 N771 1.427 . S
C764 H755 0.930 . S
C764 C762 1.378 . S
C764 C765 1.367 . S
C765 C764 1.367 . S
C765 C767 1.433 . S
C766 C762 1.350 . S
C766 C763 1.463 . S
C766 N770 1.427 . S
C767 H757 0.929 . S
C767 C765 1.433 . S
C767 N770 1.384 . S
C768 H759 0.929 . S
C768 C760 1.378 . S
C768 C763 1.350 . S
C769 H756 0.929 . S
C769 C761 1.433 . S
C769 N771 1.384 . S
N770 C766 1.427 . S
N770 C767 1.384 . S
N771 C763 1.427 . S
N771 C769 1.384 . S
H772 C778 0.930 . S
H773 C782 0.930 . S
H774 C787 0.929 . S
H775 C785 0.929 . S
H776 C780 0.929 . S
H777 C786 0.929 . S
C778 H772 0.930 . S
C778 C779 1.367 . S
C778 C786 1.378 . S
C779 C778 1.367 . S
C779 C787 1.433 . S
C780 H776 0.929 . S
C780 C782 1.378 . S
C780 C784 1.350 . S
C781 C784 1.463 . S
C781 C786 1.350 . S
C781 N789 1.427 . S
C782 H773 0.930 . S
C782 C780 1.378 . S
C782 C783 1.367 . S
C783 C782 1.367 . S
C783 C785 1.433 . S
C784 C780 1.350 . S
C784 C781 1.463 . S
C784 N788 1.427 . S
C785 H775 0.929 . S
C785 C783 1.433 . S
C785 N788 1.384 . S
C786 H777 0.929 . S
C786 C778 1.378 . S
C786 C781 1.350 . S
C787 H774 0.929 . S
C787 C779 1.433 . S
C787 N789 1.384 . S
N788 C784 1.427 . S
N788 C785 1.384 . S
N789 C781 1.427 . S
N789 C787 1.384 . S
H790 C796 0.930 . S
H791 C800 0.930 . S
H792 C805 0.929 . S
H793 C803 0.929 . S
H794 C798 0.929 . S
H795 C804 0.929 . S
C796 H790 0.930 . S
C796 C797 1.367 . S
C796 C804 1.378 . S
C797 C796 1.367 . S
C797 C805 1.433 . S
C798 H794 0.929 . S
C798 C800 1.378 . S
C798 C802 1.350 . S
C799 C802 1.463 . S
C799 C804 1.350 . S
C799 N807 1.427 . S
C800 H791 0.930 . S
C800 C798 1.378 . S
C800 C801 1.367 . S
C801 C800 1.367 . S
C801 C803 1.433 . S
C802 C798 1.350 . S
C802 C799 1.463 . S
C802 N806 1.427 . S
C803 H793 0.929 . S
C803 C801 1.433 . S
C803 N806 1.384 . S
C804 H795 0.929 . S
C804 C796 1.378 . S
C804 C799 1.350 . S
C805 H792 0.929 . S
C805 C797 1.433 . S
C805 N807 1.384 . S
N806 C802 1.427 . S
N806 C803 1.384 . S
N807 C799 1.427 . S
N807 C805 1.384 . S
H808 C814 0.930 . S
H809 C818 0.930 . S
H810 C823 0.929 . S
H811 C821 0.929 . S
H812 C816 0.929 . S
H813 C822 0.929 . S
C814 H808 0.930 . S
C814 C815 1.367 . S
C814 C822 1.378 . S
C815 C814 1.367 . S
C815 C823 1.433 . S
C816 H812 0.929 . S
C816 C818 1.378 . S
C816 C820 1.350 . S
C817 C820 1.463 . S
C817 C822 1.350 . S
C817 N825 1.427 . S
C818 H809 0.930 . S
C818 C816 1.378 . S
C818 C819 1.367 . S
C819 C818 1.367 . S
C819 C821 1.433 . S
C820 C816 1.350 . S
C820 C817 1.463 . S
C820 N824 1.427 . S
C821 H811 0.929 . S
C821 C819 1.433 . S
C821 N824 1.384 . S
C822 H813 0.929 . S
C822 C814 1.378 . S
C822 C817 1.350 . S
C823 H810 0.929 . S
C823 C815 1.433 . S
C823 N825 1.384 . S
N824 C820 1.427 . S
N824 C821 1.384 . S
N825 C817 1.427 . S
N825 C823 1.384 . S
H826 C832 0.930 . S
H827 C836 0.930 . S
H828 C841 0.929 . S
H829 C839 0.929 . S
H830 C834 0.929 . S
H831 C840 0.929 . S
C832 H826 0.930 . S
C832 C833 1.367 . S
C832 C840 1.378 . S
C833 C832 1.367 . S
C833 C841 1.433 . S
C834 H830 0.929 . S
C834 C836 1.378 . S
C834 C838 1.350 . S
C835 C838 1.463 . S
C835 C840 1.350 . S
C835 N843 1.427 . S
C836 H827 0.930 . S
C836 C834 1.378 . S
C836 C837 1.367 . S
C837 C836 1.367 . S
C837 C839 1.433 . S
C838 C834 1.350 . S
C838 C835 1.463 . S
C838 N842 1.427 . S
C839 H829 0.929 . S
C839 C837 1.433 . S
C839 N842 1.384 . S
C840 H831 0.929 . S
C840 C832 1.378 . S
C840 C835 1.350 . S
C841 H828 0.929 . S
C841 C833 1.433 . S
C841 N843 1.384 . S
N842 C838 1.427 . S
N842 C839 1.384 . S
N843 C835 1.427 . S
N843 C841 1.384 . S
H844 C850 0.930 . S
H845 C854 0.930 . S
H846 C859 0.929 . S
H847 C857 0.929 . S
H848 C852 0.929 . S
H849 C858 0.929 . S
C850 H844 0.930 . S
C850 C851 1.367 . S
C850 C858 1.378 . S
C851 C850 1.367 . S
C851 C859 1.433 . S
C852 H848 0.929 . S
C852 C854 1.378 . S
C852 C856 1.350 . S
C853 C856 1.463 . S
C853 C858 1.350 . S
C853 N861 1.427 . S
C854 H845 0.930 . S
C854 C852 1.378 . S
C854 C855 1.367 . S
C855 C854 1.367 . S
C855 C857 1.433 . S
C856 C852 1.350 . S
C856 C853 1.463 . S
C856 N860 1.427 . S
C857 H847 0.929 . S
C857 C855 1.433 . S
C857 N860 1.384 . S
C858 H849 0.929 . S
C858 C850 1.378 . S
C858 C853 1.350 . S
C859 H846 0.929 . S
C859 C851 1.433 . S
C859 N861 1.384 . S
N860 C856 1.427 . S
N860 C857 1.384 . S
N861 C853 1.427 . S
N861 C859 1.384 . S
H862 C868 0.930 . S
H863 C872 0.930 . S
H864 C877 0.929 . S
H865 C875 0.929 . S
H866 C870 0.929 . S
H867 C876 0.929 . S
C868 H862 0.930 . S
C868 C869 1.367 . S
C868 C876 1.378 . S
C869 C868 1.367 . S
C869 C877 1.433 . S
C870 H866 0.929 . S
C870 C872 1.378 . S
C870 C874 1.350 . S
C871 C874 1.463 . S
C871 C876 1.350 . S
C871 N879 1.427 . S
C872 H863 0.930 . S
C872 C870 1.378 . S
C872 C873 1.367 . S
C873 C872 1.367 . S
C873 C875 1.433 . S
C874 C870 1.350 . S
C874 C871 1.463 . S
C874 N878 1.427 . S
C875 H865 0.929 . S
C875 C873 1.433 . S
C875 N878 1.384 . S
C876 H867 0.929 . S
C876 C868 1.378 . S
C876 C871 1.350 . S
C877 H864 0.929 . S
C877 C869 1.433 . S
C877 N879 1.384 . S
N878 C874 1.427 . S
N878 C875 1.384 . S
N879 C871 1.427 . S
N879 C877 1.384 . S
H880 C886 0.930 . S
H881 C890 0.930 . S
H882 C895 0.929 . S
H883 C893 0.929 . S
H884 C888 0.929 . S
H885 C894 0.929 . S
C886 H880 0.930 . S
C886 C887 1.367 . S
C886 C894 1.378 . S
C887 C886 1.367 . S
C887 C895 1.433 . S
C888 H884 0.929 . S
C888 C890 1.378 . S
C888 C892 1.350 . S
C889 C892 1.463 . S
C889 C894 1.350 . S
C889 N897 1.427 . S
C890 H881 0.930 . S
C890 C888 1.378 . S
C890 C891 1.367 . S
C891 C890 1.367 . S
C891 C893 1.433 . S
C892 C888 1.350 . S
C892 C889 1.463 . S
C892 N896 1.427 . S
C893 H883 0.929 . S
C893 C891 1.433 . S
C893 N896 1.384 . S
C894 H885 0.929 . S
C894 C886 1.378 . S
C894 C889 1.350 . S
C895 H882 0.929 . S
C895 C887 1.433 . S
C895 N897 1.384 . S
N896 C892 1.427 . S
N896 C893 1.384 . S
N897 C889 1.427 . S
N897 C895 1.384 . S
H898 C904 0.930 . S
H899 C908 0.930 . S
H900 C913 0.929 . S
H901 C911 0.929 . S
H902 C906 0.929 . S
H903 C912 0.929 . S
C904 H898 0.930 . S
C904 C905 1.367 . S
C904 C912 1.378 . S
C905 C904 1.367 . S
C905 C913 1.433 . S
C906 H902 0.929 . S
C906 C908 1.378 . S
C906 C910 1.350 . S
C907 C910 1.463 . S
C907 C912 1.350 . S
C907 N915 1.427 . S
C908 H899 0.930 . S
C908 C906 1.378 . S
C908 C909 1.367 . S
C909 C908 1.367 . S
C909 C911 1.433 . S
C910 C906 1.350 . S
C910 C907 1.463 . S
C910 N914 1.427 . S
C911 H901 0.929 . S
C911 C909 1.433 . S
C911 N914 1.384 . S
C912 H903 0.929 . S
C912 C904 1.378 . S
C912 C907 1.350 . S
C913 H900 0.929 . S
C913 C905 1.433 . S
C913 N915 1.384 . S
N914 C910 1.427 . S
N914 C911 1.384 . S
N915 C907 1.427 . S
N915 C913 1.384 . S
H916 C922 0.930 . S
H917 C926 0.930 . S
H918 C931 0.929 . S
H919 C929 0.929 . S
H920 C924 0.929 . S
H921 C930 0.929 . S
C922 H916 0.930 . S
C922 C923 1.367 . S
C922 C930 1.378 . S
C923 C922 1.367 . S
C923 C931 1.433 . S
C924 H920 0.929 . S
C924 C926 1.378 . S
C924 C928 1.350 . S
C925 C928 1.463 . S
C925 C930 1.350 . S
C925 N933 1.427 . S
C926 H917 0.930 . S
C926 C924 1.378 . S
C926 C927 1.367 . S
C927 C926 1.367 . S
C927 C929 1.433 . S
C928 C924 1.350 . S
C928 C925 1.463 . S
C928 N932 1.427 . S
C929 H919 0.929 . S
C929 C927 1.433 . S
C929 N932 1.384 . S
C930 H921 0.929 . S
C930 C922 1.378 . S
C930 C925 1.350 . S
C931 H918 0.929 . S
C931 C923 1.433 . S
C931 N933 1.384 . S
N932 C928 1.427 . S
N932 C929 1.384 . S
N933 C925 1.427 . S
N933 C931 1.384 . S
H934 C940 0.930 . S
H935 C944 0.930 . S
H936 C949 0.929 . S
H937 C947 0.929 . S
H938 C942 0.929 . S
H939 C948 0.929 . S
C940 H934 0.930 . S
C940 C941 1.367 . S
C940 C948 1.378 . S
C941 C940 1.367 . S
C941 C949 1.433 . S
C942 H938 0.929 . S
C942 C944 1.378 . S
C942 C946 1.350 . S
C943 C946 1.463 . S
C943 C948 1.350 . S
C943 N951 1.427 . S
C944 H935 0.930 . S
C944 C942 1.378 . S
C944 C945 1.367 . S
C945 C944 1.367 . S
C945 C947 1.433 . S
C946 C942 1.350 . S
C946 C943 1.463 . S
C946 N950 1.427 . S
C947 H937 0.929 . S
C947 C945 1.433 . S
C947 N950 1.384 . S
C948 H939 0.929 . S
C948 C940 1.378 . S
C948 C943 1.350 . S
C949 H936 0.929 . S
C949 C941 1.433 . S
C949 N951 1.384 . S
N950 C946 1.427 . S
N950 C947 1.384 . S
N951 C943 1.427 . S
N951 C949 1.384 . S
H952 C958 0.930 . S
H953 C962 0.930 . S
H954 C967 0.929 . S
H955 C965 0.929 . S
H956 C960 0.929 . S
H957 C966 0.929 . S
C958 H952 0.930 . S
C958 C959 1.367 . S
C958 C966 1.378 . S
C959 C958 1.367 . S
C959 C967 1.433 . S
C960 H956 0.929 . S
C960 C962 1.378 . S
C960 C964 1.350 . S
C961 C964 1.463 . S
C961 C966 1.350 . S
C961 N969 1.427 . S
C962 H953 0.930 . S
C962 C960 1.378 . S
C962 C963 1.367 . S
C963 C962 1.367 . S
C963 C965 1.433 . S
C964 C960 1.350 . S
C964 C961 1.463 . S
C964 N968 1.427 . S
C965 H955 0.929 . S
C965 C963 1.433 . S
C965 N968 1.384 . S
C966 H957 0.929 . S
C966 C958 1.378 . S
C966 C961 1.350 . S
C967 H954 0.929 . S
C967 C959 1.433 . S
C967 N969 1.384 . S
N968 C964 1.427 . S
N968 C965 1.384 . S
N969 C961 1.427 . S
N969 C967 1.384 . S
H970 C976 0.930 . S
H971 C980 0.930 . S
H972 C985 0.929 . S
H973 C983 0.929 . S
H974 C978 0.929 . S
H975 C984 0.929 . S
C976 H970 0.930 . S
C976 C977 1.367 . S
C976 C984 1.378 . S
C977 C976 1.367 . S
C977 C985 1.433 . S
C978 H974 0.929 . S
C978 C980 1.378 . S
C978 C982 1.350 . S
C979 C982 1.463 . S
C979 C984 1.350 . S
C979 N987 1.427 . S
C980 H971 0.930 . S
C980 C978 1.378 . S
C980 C981 1.367 . S
C981 C980 1.367 . S
C981 C983 1.433 . S
C982 C978 1.350 . S
C982 C979 1.463 . S
C982 N986 1.427 . S
C983 H973 0.929 . S
C983 C981 1.433 . S
C983 N986 1.384 . S
C984 H975 0.929 . S
C984 C976 1.378 . S
C984 C979 1.350 . S
C985 H972 0.929 . S
C985 C977 1.433 . S
C985 N987 1.384 . S
N986 C982 1.427 . S
N986 C983 1.384 . S
N987 C979 1.427 . S
N987 C985 1.384 . S
H988 C994 0.930 . S
H989 C998 0.930 . S
H990 C1003 0.929 . S
H991 C1001 0.929 . S
H992 C996 0.929 . S
H993 C1002 0.929 . S
C994 H988 0.930 . S
C994 C995 1.367 . S
C994 C1002 1.378 . S
C995 C994 1.367 . S
C995 C1003 1.433 . S
C996 H992 0.929 . S
C996 C998 1.378 . S
C996 C1000 1.350 . S
C997 C1000 1.463 . S
C997 C1002 1.350 . S
C997 N1005 1.427 . S
C998 H989 0.930 . S
C998 C996 1.378 . S
C998 C999 1.367 . S
C999 C998 1.367 . S
C999 C1001 1.433 . S
C1000 C996 1.350 . S
C1000 C997 1.463 . S
C1000 N1004 1.427 . S
C1001 H991 0.929 . S
C1001 C999 1.433 . S
C1001 N1004 1.384 . S
C1002 H993 0.929 . S
C1002 C994 1.378 . S
C1002 C997 1.350 . S
C1003 H990 0.929 . S
C1003 C995 1.433 . S
C1003 N1005 1.384 . S
N1004 C1000 1.427 . S
N1004 C1001 1.384 . S
N1005 C997 1.427 . S
N1005 C1003 1.384 . S
H1006 C1012 0.930 . S
H1007 C1016 0.930 . S
H1008 C1021 0.929 . S
H1009 C1019 0.929 . S
H1010 C1014 0.929 . S
H1011 C1020 0.929 . S
C1012 H1006 0.930 . S
C1012 C1013 1.367 . S
C1012 C1020 1.378 . S
C1013 C1012 1.367 . S
C1013 C1021 1.433 . S
C1014 H1010 0.929 . S
C1014 C1016 1.378 . S
C1014 C1018 1.350 . S
C1015 C1018 1.463 . S
C1015 C1020 1.350 . S
C1015 N1023 1.427 . S
C1016 H1007 0.930 . S
C1016 C1014 1.378 . S
C1016 C1017 1.367 . S
C1017 C1016 1.367 . S
C1017 C1019 1.433 . S
C1018 C1014 1.350 . S
C1018 C1015 1.463 . S
C1018 N1022 1.427 . S
C1019 H1009 0.929 . S
C1019 C1017 1.433 . S
C1019 N1022 1.384 . S
C1020 H1011 0.929 . S
C1020 C1012 1.378 . S
C1020 C1015 1.350 . S
C1021 H1008 0.929 . S
C1021 C1013 1.433 . S
C1021 N1023 1.384 . S
N1022 C1018 1.427 . S
N1022 C1019 1.384 . S
N1023 C1015 1.427 . S
N1023 C1021 1.384 . S
H1024 C1030 0.930 . S
H1025 C1034 0.930 . S
H1026 C1039 0.929 . S
H1027 C1037 0.929 . S
H1028 C1032 0.929 . S
H1029 C1038 0.929 . S
C1030 H1024 0.930 . S
C1030 C1031 1.367 . S
C1030 C1038 1.378 . S
C1031 C1030 1.367 . S
C1031 C1039 1.433 . S
C1032 H1028 0.929 . S
C1032 C1034 1.378 . S
C1032 C1036 1.350 . S
C1033 C1036 1.463 . S
C1033 C1038 1.350 . S
C1033 N1041 1.427 . S
C1034 H1025 0.930 . S
C1034 C1032 1.378 . S
C1034 C1035 1.367 . S
C1035 C1034 1.367 . S
C1035 C1037 1.433 . S
C1036 C1032 1.350 . S
C1036 C1033 1.463 . S
C1036 N1040 1.427 . S
C1037 H1027 0.929 . S
C1037 C1035 1.433 . S
C1037 N1040 1.384 . S
C1038 H1029 0.929 . S
C1038 C1030 1.378 . S
C1038 C1033 1.350 . S
C1039 H1026 0.929 . S
C1039 C1031 1.433 . S
C1039 N1041 1.384 . S
N1040 C1036 1.427 . S
N1040 C1037 1.384 . S
N1041 C1033 1.427 . S
N1041 C1039 1.384 . S
H1042 C1048 0.930 . S
H1043 C1052 0.930 . S
H1044 C1057 0.929 . S
H1045 C1055 0.929 . S
H1046 C1050 0.929 . S
H1047 C1056 0.929 . S
C1048 H1042 0.930 . S
C1048 C1049 1.367 . S
C1048 C1056 1.378 . S
C1049 C1048 1.367 . S
C1049 C1057 1.433 . S
C1050 H1046 0.929 . S
C1050 C1052 1.378 . S
C1050 C1054 1.350 . S
C1051 C1054 1.463 . S
C1051 C1056 1.350 . S
C1051 N1059 1.427 . S
C1052 H1043 0.930 . S
C1052 C1050 1.378 . S
C1052 C1053 1.367 . S
C1053 C1052 1.367 . S
C1053 C1055 1.433 . S
C1054 C1050 1.350 . S
C1054 C1051 1.463 . S
C1054 N1058 1.427 . S
C1055 H1045 0.929 . S
C1055 C1053 1.433 . S
C1055 N1058 1.384 . S
C1056 H1047 0.929 . S
C1056 C1048 1.378 . S
C1056 C1051 1.350 . S
C1057 H1044 0.929 . S
C1057 C1049 1.433 . S
C1057 N1059 1.384 . S
N1058 C1054 1.427 . S
N1058 C1055 1.384 . S
N1059 C1051 1.427 . S
N1059 C1057 1.384 . S
H1060 C1066 0.930 . S
H1061 C1070 0.930 . S
H1062 C1075 0.929 . S
H1063 C1073 0.929 . S
H1064 C1068 0.929 . S
H1065 C1074 0.929 . S
C1066 H1060 0.930 . S
C1066 C1067 1.367 . S
C1066 C1074 1.378 . S
C1067 C1066 1.367 . S
C1067 C1075 1.433 . S
C1068 H1064 0.929 . S
C1068 C1070 1.378 . S
C1068 C1072 1.350 . S
C1069 C1072 1.463 . S
C1069 C1074 1.350 . S
C1069 N1077 1.427 . S
C1070 H1061 0.930 . S
C1070 C1068 1.378 . S
C1070 C1071 1.367 . S
C1071 C1070 1.367 . S
C1071 C1073 1.433 . S
C1072 C1068 1.350 . S
C1072 C1069 1.463 . S
C1072 N1076 1.427 . S
C1073 H1063 0.929 . S
C1073 C1071 1.433 . S
C1073 N1076 1.384 . S
C1074 H1065 0.929 . S
C1074 C1066 1.378 . S
C1074 C1069 1.350 . S
C1075 H1062 0.929 . S
C1075 C1067 1.433 . S
C1075 N1077 1.384 . S
N1076 C1072 1.427 . S
N1076 C1073 1.384 . S
N1077 C1069 1.427 . S
N1077 C1075 1.384 . S
H1078 C1084 0.930 . S
H1079 C1088 0.930 . S
H1080 C1093 0.929 . S
H1081 C1091 0.929 . S
H1082 C1086 0.929 . S
H1083 C1092 0.929 . S
C1084 H1078 0.930 . S
C1084 C1085 1.367 . S
C1084 C1092 1.378 . S
C1085 C1084 1.367 . S
C1085 C1093 1.433 . S
C1086 H1082 0.929 . S
C1086 C1088 1.378 . S
C1086 C1090 1.350 . S
C1087 C1090 1.463 . S
C1087 C1092 1.350 . S
C1087 N1095 1.427 . S
C1088 H1079 0.930 . S
C1088 C1086 1.378 . S
C1088 C1089 1.367 . S
C1089 C1088 1.367 . S
C1089 C1091 1.433 . S
C1090 C1086 1.350 . S
C1090 C1087 1.463 . S
C1090 N1094 1.427 . S
C1091 H1081 0.929 . S
C1091 C1089 1.433 . S
C1091 N1094 1.384 . S
C1092 H1083 0.929 . S
C1092 C1084 1.378 . S
C1092 C1087 1.350 . S
C1093 H1080 0.929 . S
C1093 C1085 1.433 . S
C1093 N1095 1.384 . S
N1094 C1090 1.427 . S
N1094 C1091 1.384 . S
N1095 C1087 1.427 . S
N1095 C1093 1.384 . S
H1096 C1102 0.930 . S
H1097 C1106 0.930 . S
H1098 C1111 0.929 . S
H1099 C1109 0.929 . S
H1100 C1104 0.929 . S
H1101 C1110 0.929 . S
C1102 H1096 0.930 . S
C1102 C1103 1.367 . S
C1102 C1110 1.378 . S
C1103 C1102 1.367 . S
C1103 C1111 1.433 . S
C1104 H1100 0.929 . S
C1104 C1106 1.378 . S
C1104 C1108 1.350 . S
C1105 C1108 1.463 . S
C1105 C1110 1.350 . S
C1105 N1113 1.427 . S
C1106 H1097 0.930 . S
C1106 C1104 1.378 . S
C1106 C1107 1.367 . S
C1107 C1106 1.367 . S
C1107 C1109 1.433 . S
C1108 C1104 1.350 . S
C1108 C1105 1.463 . S
C1108 N1112 1.427 . S
C1109 H1099 0.929 . S
C1109 C1107 1.433 . S
C1109 N1112 1.384 . S
C1110 H1101 0.929 . S
C1110 C1102 1.378 . S
C1110 C1105 1.350 . S
C1111 H1098 0.929 . S
C1111 C1103 1.433 . S
C1111 N1113 1.384 . S
N1112 C1108 1.427 . S
N1112 C1109 1.384 . S
N1113 C1105 1.427 . S
N1113 C1111 1.384 . S
H1114 C1120 0.930 . S
H1115 C1124 0.930 . S
H1116 C1129 0.929 . S
H1117 C1127 0.929 . S
H1118 C1122 0.929 . S
H1119 C1128 0.929 . S
C1120 H1114 0.930 . S
C1120 C1121 1.367 . S
C1120 C1128 1.378 . S
C1121 C1120 1.367 . S
C1121 C1129 1.433 . S
C1122 H1118 0.929 . S
C1122 C1124 1.378 . S
C1122 C1126 1.350 . S
C1123 C1126 1.463 . S
C1123 C1128 1.350 . S
C1123 N1131 1.427 . S
C1124 H1115 0.930 . S
C1124 C1122 1.378 . S
C1124 C1125 1.367 . S
C1125 C1124 1.367 . S
C1125 C1127 1.433 . S
C1126 C1122 1.350 . S
C1126 C1123 1.463 . S
C1126 N1130 1.427 . S
C1127 H1117 0.929 . S
C1127 C1125 1.433 . S
C1127 N1130 1.384 . S
C1128 H1119 0.929 . S
C1128 C1120 1.378 . S
C1128 C1123 1.350 . S
C1129 H1116 0.929 . S
C1129 C1121 1.433 . S
C1129 N1131 1.384 . S
N1130 C1126 1.427 . S
N1130 C1127 1.384 . S
N1131 C1123 1.427 . S
N1131 C1129 1.384 . S
H1132 C1138 0.930 . S
H1133 C1142 0.930 . S
H1134 C1147 0.929 . S
H1135 C1145 0.929 . S
H1136 C1140 0.929 . S
H1137 C1146 0.929 . S
C1138 H1132 0.930 . S
C1138 C1139 1.367 . S
C1138 C1146 1.378 . S
C1139 C1138 1.367 . S
C1139 C1147 1.433 . S
C1140 H1136 0.929 . S
C1140 C1142 1.378 . S
C1140 C1144 1.350 . S
C1141 C1144 1.463 . S
C1141 C1146 1.350 . S
C1141 N1149 1.427 . S
C1142 H1133 0.930 . S
C1142 C1140 1.378 . S
C1142 C1143 1.367 . S
C1143 C1142 1.367 . S
C1143 C1145 1.433 . S
C1144 C1140 1.350 . S
C1144 C1141 1.463 . S
C1144 N1148 1.427 . S
C1145 H1135 0.929 . S
C1145 C1143 1.433 . S
C1145 N1148 1.384 . S
C1146 H1137 0.929 . S
C1146 C1138 1.378 . S
C1146 C1141 1.350 . S
C1147 H1134 0.929 . S
C1147 C1139 1.433 . S
C1147 N1149 1.384 . S
N1148 C1144 1.427 . S
N1148 C1145 1.384 . S
N1149 C1141 1.427 . S
N1149 C1147 1.384 . S
H1150 C1156 0.930 . S
H1151 C1160 0.930 . S
H1152 C1165 0.929 . S
H1153 C1163 0.929 . S
H1154 C1158 0.929 . S
H1155 C1164 0.929 . S
C1156 H1150 0.930 . S
C1156 C1157 1.367 . S
C1156 C1164 1.378 . S
C1157 C1156 1.367 . S
C1157 C1165 1.433 . S
C1158 H1154 0.929 . S
C1158 C1160 1.378 . S
C1158 C1162 1.350 . S
C1159 C1162 1.463 . S
C1159 C1164 1.350 . S
C1159 N1167 1.427 . S
C1160 H1151 0.930 . S
C1160 C1158 1.378 . S
C1160 C1161 1.367 . S
C1161 C1160 1.367 . S
C1161 C1163 1.433 . S
C1162 C1158 1.350 . S
C1162 C1159 1.463 . S
C1162 N1166 1.427 . S
C1163 H1153 0.929 . S
C1163 C1161 1.433 . S
C1163 N1166 1.384 . S
C1164 H1155 0.929 . S
C1164 C1156 1.378 . S
C1164 C1159 1.350 . S
C1165 H1152 0.929 . S
C1165 C1157 1.433 . S
C1165 N1167 1.384 . S
N1166 C1162 1.427 . S
N1166 C1163 1.384 . S
N1167 C1159 1.427 . S
N1167 C1165 1.384 . S
H1168 C1174 0.930 . S
H1169 C1178 0.930 . S
H1170 C1183 0.929 . S
H1171 C1181 0.929 . S
H1172 C1176 0.929 . S
H1173 C1182 0.929 . S
C1174 H1168 0.930 . S
C1174 C1175 1.367 . S
C1174 C1182 1.378 . S
C1175 C1174 1.367 . S
C1175 C1183 1.433 . S
C1176 H1172 0.929 . S
C1176 C1178 1.378 . S
C1176 C1180 1.350 . S
C1177 C1180 1.463 . S
C1177 C1182 1.350 . S
C1177 N1185 1.427 . S
C1178 H1169 0.930 . S
C1178 C1176 1.378 . S
C1178 C1179 1.367 . S
C1179 C1178 1.367 . S
C1179 C1181 1.433 . S
C1180 C1176 1.350 . S
C1180 C1177 1.463 . S
C1180 N1184 1.427 . S
C1181 H1171 0.929 . S
C1181 C1179 1.433 . S
C1181 N1184 1.384 . S
C1182 H1173 0.929 . S
C1182 C1174 1.378 . S
C1182 C1177 1.350 . S
C1183 H1170 0.929 . S
C1183 C1175 1.433 . S
C1183 N1185 1.384 . S
N1184 C1180 1.427 . S
N1184 C1181 1.384 . S
N1185 C1177 1.427 . S
N1185 C1183 1.384 . S
H1186 C1192 0.930 . S
H1187 C1196 0.930 . S
H1188 C1201 0.929 . S
H1189 C1199 0.929 . S
H1190 C1194 0.929 . S
H1191 C1200 0.929 . S
C1192 H1186 0.930 . S
C1192 C1193 1.367 . S
C1192 C1200 1.378 . S
C1193 C1192 1.367 . S
C1193 C1201 1.433 . S
C1194 H1190 0.929 . S
C1194 C1196 1.378 . S
C1194 C1198 1.350 . S
C1195 C1198 1.463 . S
C1195 C1200 1.350 . S
C1195 N1203 1.427 . S
C1196 H1187 0.930 . S
C1196 C1194 1.378 . S
C1196 C1197 1.367 . S
C1197 C1196 1.367 . S
C1197 C1199 1.433 . S
C1198 C1194 1.350 . S
C1198 C1195 1.463 . S
C1198 N1202 1.427 . S
C1199 H1189 0.929 . S
C1199 C1197 1.433 . S
C1199 N1202 1.384 . S
C1200 H1191 0.929 . S
C1200 C1192 1.378 . S
C1200 C1195 1.350 . S
C1201 H1188 0.929 . S
C1201 C1193 1.433 . S
C1201 N1203 1.384 . S
N1202 C1198 1.427 . S
N1202 C1199 1.384 . S
N1203 C1195 1.427 . S
N1203 C1201 1.384 . S
H1204 C1210 0.930 . S
H1205 C1214 0.930 . S
H1206 C1219 0.929 . S
H1207 C1217 0.929 . S
H1208 C1212 0.929 . S
H1209 C1218 0.929 . S
C1210 H1204 0.930 . S
C1210 C1211 1.367 . S
C1210 C1218 1.378 . S
C1211 C1210 1.367 . S
C1211 C1219 1.433 . S
C1212 H1208 0.929 . S
C1212 C1214 1.378 . S
C1212 C1216 1.350 . S
C1213 C1216 1.463 . S
C1213 C1218 1.350 . S
C1213 N1221 1.427 . S
C1214 H1205 0.930 . S
C1214 C1212 1.378 . S
C1214 C1215 1.367 . S
C1215 C1214 1.367 . S
C1215 C1217 1.433 . S
C1216 C1212 1.350 . S
C1216 C1213 1.463 . S
C1216 N1220 1.427 . S
C1217 H1207 0.929 . S
C1217 C1215 1.433 . S
C1217 N1220 1.384 . S
C1218 H1209 0.929 . S
C1218 C1210 1.378 . S
C1218 C1213 1.350 . S
C1219 H1206 0.929 . S
C1219 C1211 1.433 . S
C1219 N1221 1.384 . S
N1220 C1216 1.427 . S
N1220 C1217 1.384 . S
N1221 C1213 1.427 . S
N1221 C1219 1.384 . S
H1222 C1228 0.930 . S
H1223 C1232 0.930 . S
H1224 C1237 0.929 . S
H1225 C1235 0.929 . S
H1226 C1230 0.929 . S
H1227 C1236 0.929 . S
C1228 H1222 0.930 . S
C1228 C1229 1.367 . S
C1228 C1236 1.378 . S
C1229 C1228 1.367 . S
C1229 C1237 1.433 . S
C1230 H1226 0.929 . S
C1230 C1232 1.378 . S
C1230 C1234 1.350 . S
C1231 C1234 1.463 . S
C1231 C1236 1.350 . S
C1231 N1239 1.427 . S
C1232 H1223 0.930 . S
C1232 C1230 1.378 . S
C1232 C1233 1.367 . S
C1233 C1232 1.367 . S
C1233 C1235 1.433 . S
C1234 C1230 1.350 . S
C1234 C1231 1.463 . S
C1234 N1238 1.427 . S
C1235 H1225 0.929 . S
C1235 C1233 1.433 . S
C1235 N1238 1.384 . S
C1236 H1227 0.929 . S
C1236 C1228 1.378 . S
C1236 C1231 1.350 . S
C1237 H1224 0.929 . S
C1237 C1229 1.433 . S
C1237 N1239 1.384 . S
N1238 C1234 1.427 . S
N1238 C1235 1.384 . S
N1239 C1231 1.427 . S
N1239 C1237 1.384 . S
H1240 C1246 0.930 . S
H1241 C1250 0.930 . S
H1242 C1255 0.929 . S
H1243 C1253 0.929 . S
H1244 C1248 0.929 . S
H1245 C1254 0.929 . S
C1246 H1240 0.930 . S
C1246 C1247 1.367 . S
C1246 C1254 1.378 . S
C1247 C1246 1.367 . S
C1247 C1255 1.433 . S
C1248 H1244 0.929 . S
C1248 C1250 1.378 . S
C1248 C1252 1.350 . S
C1249 C1252 1.463 . S
C1249 C1254 1.350 . S
C1249 N1257 1.427 . S
C1250 H1241 0.930 . S
C1250 C1248 1.378 . S
C1250 C1251 1.367 . S
C1251 C1250 1.367 . S
C1251 C1253 1.433 . S
C1252 C1248 1.350 . S
C1252 C1249 1.463 . S
C1252 N1256 1.427 . S
C1253 H1243 0.929 . S
C1253 C1251 1.433 . S
C1253 N1256 1.384 . S
C1254 H1245 0.929 . S
C1254 C1246 1.378 . S
C1254 C1249 1.350 . S
C1255 H1242 0.929 . S
C1255 C1247 1.433 . S
C1255 N1257 1.384 . S
N1256 C1252 1.427 . S
N1256 C1253 1.384 . S
N1257 C1249 1.427 . S
N1257 C1255 1.384 . S
H1258 C1264 0.930 . S
H1259 C1268 0.930 . S
H1260 C1273 0.929 . S
H1261 C1271 0.929 . S
H1262 C1266 0.929 . S
H1263 C1272 0.929 . S
C1264 H1258 0.930 . S
C1264 C1265 1.367 . S
C1264 C1272 1.378 . S
C1265 C1264 1.367 . S
C1265 C1273 1.433 . S
C1266 H1262 0.929 . S
C1266 C1268 1.378 . S
C1266 C1270 1.350 . S
C1267 C1270 1.463 . S
C1267 C1272 1.350 . S
C1267 N1275 1.427 . S
C1268 H1259 0.930 . S
C1268 C1266 1.378 . S
C1268 C1269 1.367 . S
C1269 C1268 1.367 . S
C1269 C1271 1.433 . S
C1270 C1266 1.350 . S
C1270 C1267 1.463 . S
C1270 N1274 1.427 . S
C1271 H1261 0.929 . S
C1271 C1269 1.433 . S
C1271 N1274 1.384 . S
C1272 H1263 0.929 . S
C1272 C1264 1.378 . S
C1272 C1267 1.350 . S
C1273 H1260 0.929 . S
C1273 C1265 1.433 . S
C1273 N1275 1.384 . S
N1274 C1270 1.427 . S
N1274 C1271 1.384 . S
N1275 C1267 1.427 . S
N1275 C1273 1.384 . S
H1276 C1282 0.930 . S
H1277 C1286 0.930 . S
H1278 C1291 0.929 . S
H1279 C1289 0.929 . S
H1280 C1284 0.929 . S
H1281 C1290 0.929 . S
C1282 H1276 0.930 . S
C1282 C1283 1.367 . S
C1282 C1290 1.378 . S
C1283 C1282 1.367 . S
C1283 C1291 1.433 . S
C1284 H1280 0.929 . S
C1284 C1286 1.378 . S
C1284 C1288 1.350 . S
C1285 C1288 1.463 . S
C1285 C1290 1.350 . S
C1285 N1293 1.427 . S
C1286 H1277 0.930 . S
C1286 C1284 1.378 . S
C1286 C1287 1.367 . S
C1287 C1286 1.367 . S
C1287 C1289 1.433 . S
C1288 C1284 1.350 . S
C1288 C1285 1.463 . S
C1288 N1292 1.427 . S
C1289 H1279 0.929 . S
C1289 C1287 1.433 . S
C1289 N1292 1.384 . S
C1290 H1281 0.929 . S
C1290 C1282 1.378 . S
C1290 C1285 1.350 . S
C1291 H1278 0.929 . S
C1291 C1283 1.433 . S
C1291 N1293 1.384 . S
N1292 C1288 1.427 . S
N1292 C1289 1.384 . S
N1293 C1285 1.427 . S
N1293 C1291 1.384 . S
H1294 C1300 0.930 . S
H1295 C1304 0.930 . S
H1296 C1309 0.929 . S
H1297 C1307 0.929 . S
H1298 C1302 0.929 . S
H1299 C1308 0.929 . S
C1300 H1294 0.930 . S
C1300 C1301 1.367 . S
C1300 C1308 1.378 . S
C1301 C1300 1.367 . S
C1301 C1309 1.433 . S
C1302 H1298 0.929 . S
C1302 C1304 1.378 . S
C1302 C1306 1.350 . S
C1303 C1306 1.463 . S
C1303 C1308 1.350 . S
C1303 N1311 1.427 . S
C1304 H1295 0.930 . S
C1304 C1302 1.378 . S
C1304 C1305 1.367 . S
C1305 C1304 1.367 . S
C1305 C1307 1.433 . S
C1306 C1302 1.350 . S
C1306 C1303 1.463 . S
C1306 N1310 1.427 . S
C1307 H1297 0.929 . S
C1307 C1305 1.433 . S
C1307 N1310 1.384 . S
C1308 H1299 0.929 . S
C1308 C1300 1.378 . S
C1308 C1303 1.350 . S
C1309 H1296 0.929 . S
C1309 C1301 1.433 . S
C1309 N1311 1.384 . S
N1310 C1306 1.427 . S
N1310 C1307 1.384 . S
N1311 C1303 1.427 . S
N1311 C1309 1.384 . S
H1312 C1318 0.930 . S
H1313 C1322 0.930 . S
H1314 C1327 0.929 . S
H1315 C1325 0.929 . S
H1316 C1320 0.929 . S
H1317 C1326 0.929 . S
C1318 H1312 0.930 . S
C1318 C1319 1.367 . S
C1318 C1326 1.378 . S
C1319 C1318 1.367 . S
C1319 C1327 1.433 . S
C1320 H1316 0.929 . S
C1320 C1322 1.378 . S
C1320 C1324 1.350 . S
C1321 C1324 1.463 . S
C1321 C1326 1.350 . S
C1321 N1329 1.427 . S
C1322 H1313 0.930 . S
C1322 C1320 1.378 . S
C1322 C1323 1.367 . S
C1323 C1322 1.367 . S
C1323 C1325 1.433 . S
C1324 C1320 1.350 . S
C1324 C1321 1.463 . S
C1324 N1328 1.427 . S
C1325 H1315 0.929 . S
C1325 C1323 1.433 . S
C1325 N1328 1.384 . S
C1326 H1317 0.929 . S
C1326 C1318 1.378 . S
C1326 C1321 1.350 . S
C1327 H1314 0.929 . S
C1327 C1319 1.433 . S
C1327 N1329 1.384 . S
N1328 C1324 1.427 . S
N1328 C1325 1.384 . S
N1329 C1321 1.427 . S
N1329 C1327 1.384 . S
H1330 C1336 0.930 . S
H1331 C1340 0.930 . S
H1332 C1345 0.929 . S
H1333 C1343 0.929 . S
H1334 C1338 0.929 . S
H1335 C1344 0.929 . S
C1336 H1330 0.930 . S
C1336 C1337 1.367 . S
C1336 C1344 1.378 . S
C1337 C1336 1.367 . S
C1337 C1345 1.433 . S
C1338 H1334 0.929 . S
C1338 C1340 1.378 . S
C1338 C1342 1.350 . S
C1339 C1342 1.463 . S
C1339 C1344 1.350 . S
C1339 N1347 1.427 . S
C1340 H1331 0.930 . S
C1340 C1338 1.378 . S
C1340 C1341 1.367 . S
C1341 C1340 1.367 . S
C1341 C1343 1.433 . S
C1342 C1338 1.350 . S
C1342 C1339 1.463 . S
C1342 N1346 1.427 . S
C1343 H1333 0.929 . S
C1343 C1341 1.433 . S
C1343 N1346 1.384 . S
C1344 H1335 0.929 . S
C1344 C1336 1.378 . S
C1344 C1339 1.350 . S
C1345 H1332 0.929 . S
C1345 C1337 1.433 . S
C1345 N1347 1.384 . S
N1346 C1342 1.427 . S
N1346 C1343 1.384 . S
N1347 C1339 1.427 . S
N1347 C1345 1.384 . S
H1348 C1354 0.930 . S
H1349 C1358 0.930 . S
H1350 C1363 0.929 . S
H1351 C1361 0.929 . S
H1352 C1356 0.929 . S
H1353 C1362 0.929 . S
C1354 H1348 0.930 . S
C1354 C1355 1.367 . S
C1354 C1362 1.378 . S
C1355 C1354 1.367 . S
C1355 C1363 1.433 . S
C1356 H1352 0.929 . S
C1356 C1358 1.378 . S
C1356 C1360 1.350 . S
C1357 C1360 1.463 . S
C1357 C1362 1.350 . S
C1357 N1365 1.427 . S
C1358 H1349 0.930 . S
C1358 C1356 1.378 . S
C1358 C1359 1.367 . S
C1359 C1358 1.367 . S
C1359 C1361 1.433 . S
C1360 C1356 1.350 . S
C1360 C1357 1.463 . S
C1360 N1364 1.427 . S
C1361 H1351 0.929 . S
C1361 C1359 1.433 . S
C1361 N1364 1.384 . S
C1362 H1353 0.929 . S
C1362 C1354 1.378 . S
C1362 C1357 1.350 . S
C1363 H1350 0.929 . S
C1363 C1355 1.433 . S
C1363 N1365 1.384 . S
N1364 C1360 1.427 . S
N1364 C1361 1.384 . S
N1365 C1357 1.427 . S
N1365 C1363 1.384 . S
H1366 C1372 0.930 . S
H1367 C1376 0.930 . S
H1368 C1381 0.929 . S
H1369 C1379 0.929 . S
H1370 C1374 0.929 . S
H1371 C1380 0.929 . S
C1372 H1366 0.930 . S
C1372 C1373 1.367 1_554 S
C1372 C1380 1.378 . S
C1373 C1372 1.367 1_556 S
C1373 C1381 1.433 . S
C1374 H1370 0.929 . S
C1374 C1376 1.378 . S
C1374 C1378 1.350 1_556 S
C1375 C1378 1.463 1_556 S
C1375 C1380 1.350 1_556 S
C1375 N1383 1.427 . S
C1376 H1367 0.930 . S
C1376 C1374 1.378 . S
C1376 C1377 1.367 1_556 S
C1377 C1376 1.367 1_554 S
C1377 C1379 1.433 . S
C1378 C1374 1.350 1_554 S
C1378 C1375 1.463 1_554 S
C1378 N1382 1.427 . S
C1379 H1369 0.929 . S
C1379 C1377 1.433 . S
C1379 N1382 1.384 . S
C1380 H1371 0.929 . S
C1380 C1372 1.378 . S
C1380 C1375 1.350 1_554 S
C1381 H1368 0.929 . S
C1381 C1373 1.433 . S
C1381 N1383 1.384 . S
N1382 C1378 1.427 . S
N1382 C1379 1.384 . S
N1383 C1375 1.427 . S
N1383 C1381 1.384 . S
H1384 C1390 0.930 . S
H1385 C1394 0.930 . S
H1386 C1399 0.929 . S
H1387 C1397 0.929 . S
H1388 C1392 0.929 . S
H1389 C1398 0.929 . S
C1390 H1384 0.930 . S
C1390 C1391 1.367 . S
C1390 C1398 1.378 . S
C1391 C1390 1.367 . S
C1391 C1399 1.433 . S
C1392 H1388 0.929 . S
C1392 C1394 1.378 . S
C1392 C1396 1.350 . S
C1393 C1396 1.463 . S
C1393 C1398 1.350 . S
C1393 N1401 1.427 . S
C1394 H1385 0.930 . S
C1394 C1392 1.378 . S
C1394 C1395 1.367 . S
C1395 C1394 1.367 . S
C1395 C1397 1.433 . S
C1396 C1392 1.350 . S
C1396 C1393 1.463 . S
C1396 N1400 1.427 . S
C1397 H1387 0.929 . S
C1397 C1395 1.433 . S
C1397 N1400 1.384 . S
C1398 H1389 0.929 . S
C1398 C1390 1.378 . S
C1398 C1393 1.350 . S
C1399 H1386 0.929 . S
C1399 C1391 1.433 . S
C1399 N1401 1.384 . S
N1400 C1396 1.427 . S
N1400 C1397 1.384 . S
N1401 C1393 1.427 . S
N1401 C1399 1.384 . S
H1402 C1408 0.930 . S
H1403 C1412 0.930 . S
H1404 C1417 0.929 . S
H1405 C1415 0.929 . S
H1406 C1410 0.929 . S
H1407 C1416 0.929 . S
C1408 H1402 0.930 . S
C1408 C1409 1.367 . S
C1408 C1416 1.378 . S
C1409 C1408 1.367 . S
C1409 C1417 1.433 . S
C1410 H1406 0.929 . S
C1410 C1412 1.378 . S
C1410 C1414 1.350 . S
C1411 C1414 1.463 . S
C1411 C1416 1.350 . S
C1411 N1419 1.427 . S
C1412 H1403 0.930 . S
C1412 C1410 1.378 . S
C1412 C1413 1.367 . S
C1413 C1412 1.367 . S
C1413 C1415 1.433 . S
C1414 C1410 1.350 . S
C1414 C1411 1.463 . S
C1414 N1418 1.427 . S
C1415 H1405 0.929 . S
C1415 C1413 1.433 . S
C1415 N1418 1.384 . S
C1416 H1407 0.929 . S
C1416 C1408 1.378 . S
C1416 C1411 1.350 . S
C1417 H1404 0.929 . S
C1417 C1409 1.433 . S
C1417 N1419 1.384 . S
N1418 C1414 1.427 . S
N1418 C1415 1.384 . S
N1419 C1411 1.427 . S
N1419 C1417 1.384 . S
H1420 C1426 0.930 . S
H1421 C1430 0.930 . S
H1422 C1435 0.929 . S
H1423 C1433 0.929 . S
H1424 C1428 0.929 . S
H1425 C1434 0.929 . S
C1426 H1420 0.930 . S
C1426 C1427 1.367 . S
C1426 C1434 1.378 . S
C1427 C1426 1.367 . S
C1427 C1435 1.433 . S
C1428 H1424 0.929 . S
C1428 C1430 1.378 . S
C1428 C1432 1.350 . S
C1429 C1432 1.463 . S
C1429 C1434 1.350 . S
C1429 N1437 1.427 . S
C1430 H1421 0.930 . S
C1430 C1428 1.378 . S
C1430 C1431 1.367 . S
C1431 C1430 1.367 . S
C1431 C1433 1.433 . S
C1432 C1428 1.350 . S
C1432 C1429 1.463 . S
C1432 N1436 1.427 . S
C1433 H1423 0.929 . S
C1433 C1431 1.433 . S
C1433 N1436 1.384 . S
C1434 H1425 0.929 . S
C1434 C1426 1.378 . S
C1434 C1429 1.350 . S
C1435 H1422 0.929 . S
C1435 C1427 1.433 . S
C1435 N1437 1.384 . S
N1436 C1432 1.427 . S
N1436 C1433 1.384 . S
N1437 C1429 1.427 . S
N1437 C1435 1.384 . S
H1438 C1444 0.930 . S
H1439 C1448 0.930 . S
H1440 C1453 0.929 . S
H1441 C1451 0.929 . S
H1442 C1446 0.929 . S
H1443 C1452 0.929 . S
C1444 H1438 0.930 . S
C1444 C1445 1.367 . S
C1444 C1452 1.378 . S
C1445 C1444 1.367 . S
C1445 C1453 1.433 1_554 S
C1446 H1442 0.929 . S
C1446 C1448 1.378 . S
C1446 C1450 1.350 . S
C1447 C1450 1.463 1_554 S
C1447 C1452 1.350 . S
C1447 N1455 1.427 1_554 S
C1448 H1439 0.930 . S
C1448 C1446 1.378 . S
C1448 C1449 1.367 . S
C1449 C1448 1.367 . S
C1449 C1451 1.433 1_556 S
C1450 C1446 1.350 . S
C1450 C1447 1.463 1_556 S
C1450 N1454 1.427 1_556 S
C1451 H1441 0.929 . S
C1451 C1449 1.433 1_554 S
C1451 N1454 1.384 . S
C1452 H1443 0.929 . S
C1452 C1444 1.378 . S
C1452 C1447 1.350 . S
C1453 H1440 0.929 . S
C1453 C1445 1.433 1_556 S
C1453 N1455 1.384 . S
N1454 C1450 1.427 1_554 S
N1454 C1451 1.384 . S
N1455 C1447 1.427 1_556 S
N1455 C1453 1.384 . S
H1456 C1462 0.930 . S
H1457 C1466 0.930 . S
H1458 C1471 0.929 . S
H1459 C1469 0.929 . S
H1460 C1464 0.929 . S
H1461 C1470 0.929 . S
C1462 H1456 0.930 . S
C1462 C1463 1.367 . S
C1462 C1470 1.378 . S
C1463 C1462 1.367 . S
C1463 C1471 1.433 . S
C1464 H1460 0.929 . S
C1464 C1466 1.378 . S
C1464 C1468 1.350 . S
C1465 C1468 1.463 1_565 S
C1465 C1470 1.350 . S
C1465 N1473 1.427 . S
C1466 H1457 0.930 . S
C1466 C1464 1.378 . S
C1466 C1467 1.367 . S
C1467 C1466 1.367 . S
C1467 C1469 1.433 . S
C1468 C1464 1.350 . S
C1468 C1465 1.463 1_545 S
C1468 N1472 1.427 . S
C1469 H1459 0.929 . S
C1469 C1467 1.433 . S
C1469 N1472 1.384 . S
C1470 H1461 0.929 . S
C1470 C1462 1.378 . S
C1470 C1465 1.350 . S
C1471 H1458 0.929 . S
C1471 C1463 1.433 . S
C1471 N1473 1.384 . S
N1472 C1468 1.427 . S
N1472 C1469 1.384 . S
N1473 C1465 1.427 . S
N1473 C1471 1.384 . S
H1474 C1480 0.930 . S
H1475 C1484 0.930 . S
H1476 C1489 0.929 . S
H1477 C1487 0.929 . S
H1478 C1482 0.929 1_554 S
H1479 C1488 0.929 1_556 S
C1480 H1474 0.930 . S
C1480 C1481 1.367 . S
C1480 C1488 1.378 . S
C1481 C1480 1.367 . S
C1481 C1489 1.433 . S
C1482 H1478 0.929 1_556 S
C1482 C1484 1.378 . S
C1482 C1486 1.350 . S
C1483 C1486 1.463 1_554 S
C1483 C1488 1.350 . S
C1483 N1491 1.427 . S
C1484 H1475 0.930 . S
C1484 C1482 1.378 . S
C1484 C1485 1.367 . S
C1485 C1484 1.367 . S
C1485 C1487 1.433 . S
C1486 C1482 1.350 . S
C1486 C1483 1.463 1_556 S
C1486 N1490 1.427 . S
C1487 H1477 0.929 . S
C1487 C1485 1.433 . S
C1487 N1490 1.384 . S
C1488 H1479 0.929 1_554 S
C1488 C1480 1.378 . S
C1488 C1483 1.350 . S
C1489 H1476 0.929 . S
C1489 C1481 1.433 . S
C1489 N1491 1.384 . S
N1490 C1486 1.427 . S
N1490 C1487 1.384 . S
N1491 C1483 1.427 . S
N1491 C1489 1.384 . S
H1492 C1498 0.930 1_455 S
H1493 C1502 0.930 . S
H1494 C1507 0.929 . S
H1495 C1505 0.929 1_455 S
H1496 C1500 0.929 . S
H1497 C1506 0.929 1_455 S
C1498 H1492 0.930 1_655 S
C1498 C1499 1.367 . S
C1498 C1506 1.378 . S
C1499 C1498 1.367 . S
C1499 C1507 1.433 . S
C1500 H1496 0.929 . S
C1500 C1502 1.378 . S
C1500 C1504 1.350 . S
C1501 C1504 1.463 1_545 S
C1501 C1506 1.350 . S
C1501 N1509 1.427 . S
C1502 H1493 0.930 . S
C1502 C1500 1.378 . S
C1502 C1503 1.367 . S
C1503 C1502 1.367 . S
C1503 C1505 1.433 . S
C1504 C1500 1.350 . S
C1504 C1501 1.463 1_565 S
C1504 N1508 1.427 . S
C1505 H1495 0.929 1_655 S
C1505 C1503 1.433 . S
C1505 N1508 1.384 . S
C1506 H1497 0.929 1_655 S
C1506 C1498 1.378 . S
C1506 C1501 1.350 . S
C1507 H1494 0.929 . S
C1507 C1499 1.433 . S
C1507 N1509 1.384 . S
N1508 C1504 1.427 . S
N1508 C1505 1.384 . S
N1509 C1501 1.427 . S
N1509 C1507 1.384 . S
H1510 C1516 0.930 . S
H1511 C1520 0.930 . S
H1512 C1525 0.929 . S
H1513 C1523 0.929 . S
H1514 C1518 0.929 . S
H1515 C1524 0.929 . S
C1516 H1510 0.930 . S
C1516 C1517 1.367 . S
C1516 C1524 1.378 . S
C1517 C1516 1.367 . S
C1517 C1525 1.433 . S
C1518 H1514 0.929 . S
C1518 C1520 1.378 . S
C1518 C1522 1.350 . S
C1519 C1522 1.463 . S
C1519 C1524 1.350 . S
C1519 N1527 1.427 . S
C1520 H1511 0.930 . S
C1520 C1518 1.378 . S
C1520 C1521 1.367 . S
C1521 C1520 1.367 . S
C1521 C1523 1.433 . S
C1522 C1518 1.350 . S
C1522 C1519 1.463 . S
C1522 N1526 1.427 . S
C1523 H1513 0.929 . S
C1523 C1521 1.433 . S
C1523 N1526 1.384 . S
C1524 H1515 0.929 . S
C1524 C1516 1.378 . S
C1524 C1519 1.350 . S
C1525 H1512 0.929 . S
C1525 C1517 1.433 . S
C1525 N1527 1.384 . S
N1526 C1522 1.427 . S
N1526 C1523 1.384 . S
N1527 C1519 1.427 . S
N1527 C1525 1.384 . S
H1528 C1534 0.930 . S
H1529 C1538 0.930 . S
H1530 C1543 0.929 . S
H1531 C1541 0.929 . S
H1532 C1536 0.929 . S
H1533 C1542 0.929 . S
C1534 H1528 0.930 . S
C1534 C1535 1.367 . S
C1534 C1542 1.378 . S
C1535 C1534 1.367 . S
C1535 C1543 1.433 . S
C1536 H1532 0.929 . S
C1536 C1538 1.378 . S
C1536 C1540 1.350 . S
C1537 C1540 1.463 1_545 S
C1537 C1542 1.350 . S
C1537 N1545 1.427 . S
C1538 H1529 0.930 . S
C1538 C1536 1.378 . S
C1538 C1539 1.367 . S
C1539 C1538 1.367 . S
C1539 C1541 1.433 . S
C1540 C1536 1.350 . S
C1540 C1537 1.463 1_565 S
C1540 N1544 1.427 . S
C1541 H1531 0.929 . S
C1541 C1539 1.433 . S
C1541 N1544 1.384 . S
C1542 H1533 0.929 . S
C1542 C1534 1.378 . S
C1542 C1537 1.350 . S
C1543 H1530 0.929 . S
C1543 C1535 1.433 . S
C1543 N1545 1.384 . S
N1544 C1540 1.427 . S
N1544 C1541 1.384 . S
N1545 C1537 1.427 . S
N1545 C1543 1.384 . S
H1546 C1552 0.930 . S
H1547 C1556 0.930 . S
H1548 C1561 0.929 . S
H1549 C1559 0.929 . S
H1550 C1554 0.929 . S
H1551 C1560 0.929 . S
C1552 H1546 0.930 . S
C1552 C1553 1.367 . S
C1552 C1560 1.378 . S
C1553 C1552 1.367 . S
C1553 C1561 1.433 1_554 S
C1554 H1550 0.929 . S
C1554 C1556 1.378 . S
C1554 C1558 1.350 . S
C1555 C1558 1.463 1_554 S
C1555 C1560 1.350 . S
C1555 N1563 1.427 1_554 S
C1556 H1547 0.930 . S
C1556 C1554 1.378 . S
C1556 C1557 1.367 . S
C1557 C1556 1.367 . S
C1557 C1559 1.433 1_556 S
C1558 C1554 1.350 . S
C1558 C1555 1.463 1_556 S
C1558 N1562 1.427 1_556 S
C1559 H1549 0.929 . S
C1559 C1557 1.433 1_554 S
C1559 N1562 1.384 . S
C1560 H1551 0.929 . S
C1560 C1552 1.378 . S
C1560 C1555 1.350 . S
C1561 H1548 0.929 . S
C1561 C1553 1.433 1_556 S
C1561 N1563 1.384 . S
N1562 C1558 1.427 1_554 S
N1562 C1559 1.384 . S
N1563 C1555 1.427 1_556 S
N1563 C1561 1.384 . S
H1564 C1570 0.930 . S
H1565 C1574 0.930 . S
H1566 C1579 0.929 . S
H1567 C1577 0.929 . S
H1568 C1572 0.929 . S
H1569 C1578 0.929 . S
C1570 H1564 0.930 . S
C1570 C1571 1.367 . S
C1570 C1578 1.378 . S
C1571 C1570 1.367 . S
C1571 C1579 1.433 . S
C1572 H1568 0.929 . S
C1572 C1574 1.378 . S
C1572 C1576 1.350 . S
C1573 C1576 1.463 1_545 S
C1573 C1578 1.350 . S
C1573 N1581 1.427 . S
C1574 H1565 0.930 . S
C1574 C1572 1.378 . S
C1574 C1575 1.367 . S
C1575 C1574 1.367 . S
C1575 C1577 1.433 . S
C1576 C1572 1.350 . S
C1576 C1573 1.463 1_565 S
C1576 N1580 1.427 . S
C1577 H1567 0.929 . S
C1577 C1575 1.433 . S
C1577 N1580 1.384 . S
C1578 H1569 0.929 . S
C1578 C1570 1.378 . S
C1578 C1573 1.350 . S
C1579 H1566 0.929 . S
C1579 C1571 1.433 . S
C1579 N1581 1.384 . S
N1580 C1576 1.427 . S
N1580 C1577 1.384 . S
N1581 C1573 1.427 . S
N1581 C1579 1.384 . S
H1582 C1588 0.930 . S
H1583 C1592 0.930 . S
H1584 C1597 0.929 . S
H1585 C1595 0.929 . S
H1586 C1590 0.929 . S
H1587 C1596 0.929 . S
C1588 H1582 0.930 . S
C1588 C1589 1.367 . S
C1588 C1596 1.378 . S
C1589 C1588 1.367 . S
C1589 C1597 1.433 . S
C1590 H1586 0.929 . S
C1590 C1592 1.378 . S
C1590 C1594 1.350 . S
C1591 C1594 1.463 . S
C1591 C1596 1.350 . S
C1591 N1599 1.427 . S
C1592 H1583 0.930 . S
C1592 C1590 1.378 . S
C1592 C1593 1.367 . S
C1593 C1592 1.367 . S
C1593 C1595 1.433 . S
C1594 C1590 1.350 . S
C1594 C1591 1.463 . S
C1594 N1598 1.427 . S
C1595 H1585 0.929 . S
C1595 C1593 1.433 . S
C1595 N1598 1.384 . S
C1596 H1587 0.929 . S
C1596 C1588 1.378 . S
C1596 C1591 1.350 . S
C1597 H1584 0.929 . S
C1597 C1589 1.433 . S
C1597 N1599 1.384 . S
N1598 C1594 1.427 . S
N1598 C1595 1.384 . S
N1599 C1591 1.427 . S
N1599 C1597 1.384 . S
C455 C13 1.346 . S
C459 C307 1.330 . S
C473 C321 1.327 . S
C477 C27 1.341 . S
C491 C41 1.327 . S
C495 C335 1.340 . S
C509 C293 1.330 . S
C513 C55 1.346 . S
C527 C69 1.349 . S
C531 C279 1.333 . S
C545 C83 1.345 . S
C549 C237 1.348 . S
C563 C251 1.344 . S
C567 C97 1.349 . S
C581 C111 1.350 . S
C585 C265 1.337 . S
C599 C125 1.330 . S
C603 C419 1.346 . S
C617 C139 1.350 . S
C621 C433 1.339 . S
C635 C447 1.349 . S
C639 C153 1.345 . S
C653 C405 1.328 . S
C657 C167 1.334 . S
C671 C181 1.349 . S
C675 C391 1.344 . S
C689 C349 1.347 . S
C693 C195 1.347 . S
C707 C209 1.348 . S
C711 C363 1.331 . S
C725 C377 1.333 . S
C729 C223 1.348 . S
C743 C8 1.024 . S
C747 C133 1.049 . S
C761 C22 1.025 . S
C765 C371 1.042 . S
C779 C161 1.052 . S
C783 C36 1.018 . S
C797 C50 1.020 . S
C801 C343 1.045 . S
C815 C64 1.030 . S
C819 C217 1.045 . S
C833 C399 1.049 . S
C837 C78 1.023 . S
C851 C189 1.041 . S
C855 C92 1.028 . S
C869 C427 1.048 . S
C873 C106 1.025 . S
C887 C120 1.033 . S
C891 C21 1.041 . S
C905 C259 1.041 . S
C909 C134 1.028 . S
C923 C49 1.046 . S
C927 C148 1.028 . S
C941 C162 1.014 . S
C945 C231 1.049 . S
C959 C105 1.039 . S
C963 C176 1.033 . S
C977 C287 1.050 . S
C981 C190 1.021 . S
C995 C77 1.040 . S
C999 C204 1.033 . S
C1013 C218 1.031 . S
C1017 C315 1.043 . S
C1031 C357 1.040 . S
C1035 C232 1.033 . S
C1049 C147 1.046 . S
C1053 C246 1.018 . S
C1067 C385 1.055 . S
C1071 C260 1.010 . S
C1085 C274 1.029 . S
C1089 C119 1.045 . S
C1103 C441 1.054 . S
C1107 C288 1.010 . S
C1121 C175 1.053 . S
C1125 C302 1.016 . S
C1139 C413 1.055 . S
C1143 C316 1.010 . S
C1157 C330 1.010 . S
C1161 C203 1.055 . S
C1175 C344 1.033 . S
C1179 C245 1.042 . S
C1193 C35 1.049 . S
C1197 C358 1.024 . S
C1211 C372 1.033 . S
C1215 C273 1.041 . S
C1229 C386 1.013 . S
C1233 C7 1.050 . S
C1247 C400 1.029 . S
C1251 C329 1.045 . S
C1265 C63 1.051 . S
C1269 C414 1.020 . S
C1283 C301 1.054 . S
C1287 C428 1.010 . S
C1301 C442 1.022 . S
C1305 C91 1.044 . S
C1319 C11 1.264 . S
C1323 C67 1.259 . S
C1337 C25 1.260 . S
C1341 C81 1.267 . S
C1355 C95 1.260 . S
C1359 C39 1.263 . S
C1373 C109 1.263 . S
C1377 C53 1.259 . S
C1391 C179 1.261 . S
C1395 C123 1.261 . S
C1409 C193 1.267 . S
C1413 C137 1.260 . S
C1427 C207 1.263 . S
C1431 C151 1.260 . S
C1445 C221 1.267 . S
C1449 C165 1.261 . S
C1463 C235 1.267 . S
C1467 C291 1.263 . S
C1481 C249 1.266 . S
C1485 C305 1.259 . S
C1499 C263 1.260 . S
C1503 C319 1.267 . S
C1517 C333 1.262 . S
C1521 C277 1.260 . S
C1535 C347 1.262 . S
C1539 C403 1.260 . S
C1553 C417 1.267 . S
C1557 C361 1.262 . S
C1571 C431 1.263 . S
C1575 C375 1.260 . S
C1589 C445 1.267 . S
C1593 C389 1.261 . S
