# Generated by pormake.
# Topology nbo, (4)-cn, num edge types: 1
# Building blocks:
#     Node 0, Type 0, BuildingBlock: ESEHIV_clean_sbu_0, # of connection points: 4
#     Node 1, Type 0, BuildingBlock: ESEHIV_clean_sbu_0, # of connection points: 4
#     Node 2, Type 0, BuildingBlock: ESEHIV_clean_sbu_0, # of connection points: 4
#     Node 3, Type 0, BuildingBlock: ESEHIV_clean_sbu_0, # of connection points: 4
#     Node 4, Type 0, BuildingBlock: ESEHIV_clean_sbu_0, # of connection points: 4
#     Node 5, Type 0, BuildingBlock: ESEHIV_clean_sbu_0, # of connection points: 4
#     Edge 6, Type (0, 0), BuildingBlock: FUNLAD_clean_linker_1, # of connection points: 2
#     Edge 7, Type (0, 0), BuildingBlock: FUNLAD_clean_linker_1, # of connection points: 2
#     Edge 8, Type (0, 0), BuildingBlock: FUNLAD_clean_linker_1, # of connection points: 2
#     Edge 9, Type (0, 0), BuildingBlock: FUNLAD_clean_linker_1, # of connection points: 2
#     Edge 10, Type (0, 0), BuildingBlock: FUNLAD_clean_linker_1, # of connection points: 2
#     Edge 11, Type (0, 0), BuildingBlock: FUNLAD_clean_linker_1, # of connection points: 2
#     Edge 12, Type (0, 0), BuildingBlock: FUNLAD_clean_linker_1, # of connection points: 2
#     Edge 13, Type (0, 0), BuildingBlock: FUNLAD_clean_linker_1, # of connection points: 2
#     Edge 14, Type (0, 0), BuildingBlock: FUNLAD_clean_linker_1, # of connection points: 2
#     Edge 15, Type (0, 0), BuildingBlock: FUNLAD_clean_linker_1, # of connection points: 2
#     Edge 16, Type (0, 0), BuildingBlock: FUNLAD_clean_linker_1, # of connection points: 2
#     Edge 17, Type (0, 0), BuildingBlock: FUNLAD_clean_linker_1, # of connection points: 2
# Relax obj value: 0.000
# Max RMSD: 0.094
# Mean RMSD: 0.094
data_MOF--net-nbo--node1-ESEHIV_clean_sbu_0--edge1-FUNLAD_clean_linker_1
_symmetry_space_group_name_H-M    P1
_symmetry_Int_Tables_number       1
_symmetry_cell_setting            triclinic
loop_
_symmetry_equiv_pos_as_xyz
'x, y, z'
_cell_length_a     30.475192
_cell_length_b     35.30139
_cell_length_c     33.191241
_cell_angle_alpha  103.29384
_cell_angle_beta   104.65475
_cell_angle_gamma 103.56976
loop_
_atom_site_label
_atom_site_type_symbol
_atom_site_fract_x
_atom_site_fract_y
_atom_site_fract_z
_atom_type_partial_charge
Cu0 Cu 0.02939 1.00688 0.47994 0.0
N1 N 1.02213 0.03799 0.44129 0.0
N2 N 1.00836 0.0881 0.41401 0.0
C3 C 1.01095 0.07323 0.44836 0.0
C4 C 1.0183 0.06122 0.38438 0.0
C5 C 1.02684 0.03042 0.40125 0.0
O6 O 0.98914 1.01805 0.51599 0.0
C7 C 0.12585 1.01323 0.49226 0.0
O8 O 0.10816 0.9946 0.44988 0.0
H9 H 1.00488 0.08744 0.47812 0.0
H10 H 0.03586 1.00433 0.3854 0.0
N11 N 1.00756 0.95054 0.44951 0.0
N12 N 0.99356 0.88289 0.43584 0.0
C13 C 1.01633 0.9203 0.46562 0.0
C14 C 0.97843 0.93156 0.40801 0.0
C15 C 0.96974 0.88987 0.39944 0.0
C16 C 0.94411 1.00558 0.49666 0.0
O17 O 0.92752 0.98507 0.45472 0.0
H18 H 0.03849 0.92557 0.49877 0.0
H19 H 0.96389 0.9469 0.38571 0.0
O20 O 0.09761 1.02186 0.51297 0.0
H21 H 1.01947 0.0638 0.35276 0.0
H22 H 0.94759 0.86677 0.36877 0.0
Cu23 Cu 0.59822 0.12151 0.10002 0.0
N24 N 0.55857 0.0673 0.08191 0.0
N25 N 0.53732 1.00025 0.07417 0.0
C26 C 0.57265 0.03642 0.09248 0.0
C27 C 0.49955 1.0088 0.05132 0.0
C28 C 0.51276 0.05018 0.05601 0.0
O29 O 0.63592 0.13346 0.16098 0.0
C30 C 0.61003 0.1198 0.02053 0.0
O31 O 0.56332 0.10936 1.0101 0.0
H32 H 0.60826 0.04071 0.11311 0.0
H33 H 0.49072 0.06643 0.04109 0.0
N34 N 0.565 0.15974 0.09783 0.0
N35 N 0.55437 0.22053 0.09949 0.0
C36 C 0.58528 0.19878 0.1003 0.0
C37 C 0.51946 0.15658 0.09545 0.0
C38 C 0.51272 0.19414 0.0964 0.0
C39 C 0.61125 0.13009 0.18651 0.0
O40 O 0.56457 0.11982 0.17001 0.0
H41 H 0.62239 0.21121 0.10323 0.0
H42 H 0.49328 0.12925 0.09404 0.0
O43 O 0.63485 0.12649 0.06011 0.0
H44 H 0.46502 0.98655 0.03217 0.0
H45 H 0.48003 0.2014 0.09569 0.0
Cu46 Cu 0.04539 0.54696 0.96944 0.0
N47 N 1.02096 0.51605 0.91029 0.0
N48 N 1.01044 0.49733 0.83861 0.0
C49 C 0.03526 0.52601 0.8778 0.0
C50 C 0.97942 0.46841 0.8468 0.0
C51 C 0.98597 0.47999 0.89102 0.0
O52 O 0.11122 0.57819 0.98112 0.0
C53 C 0.96282 0.56332 0.9769 0.0
O54 O 0.94694 0.52311 0.96289 0.0
H55 H 0.06302 0.55385 0.88303 0.0
H56 H 0.96643 0.46333 0.90788 0.0
N57 N 0.04433 0.51318 1.00533 0.0
N58 N 0.0436 0.49252 0.06398 0.0
C59 C 0.04688 0.52444 0.04772 0.0
C60 C 0.03942 0.4729 0.99452 0.0
C61 C 0.03862 0.46004 0.0306 0.0
C62 C 0.13925 0.55749 0.97496 0.0
O63 O 0.12235 0.5173 0.9617 0.0
H64 H 0.04969 0.55513 0.06571 0.0
H65 H 0.03624 0.45411 0.96256 0.0
O66 O 1.00611 0.58137 0.9819 0.0
H67 H 0.95363 0.44096 0.8224 0.0
H68 H 0.03437 0.42915 0.03219 0.0
Cu69 Cu 0.59392 0.62365 0.07784 0.0
N70 N 0.61055 0.67715 0.11484 0.0
N71 N 0.6147 0.7432 0.13534 0.0
C72 C 0.6015 0.70861 0.10146 0.0
C73 C 0.63289 0.73309 0.17134 0.0
C74 C 0.62998 0.69224 0.15868 0.0
O75 O 0.52618 0.60871 0.04648 0.0
C76 C 0.67829 0.63822 0.05829 0.0
O77 O 0.69494 0.65936 0.10005 0.0
H78 H 0.58515 0.70578 0.0675 0.0
H79 H 0.64043 0.67475 0.18007 0.0
N80 N 0.60357 0.58576 0.10781 0.0
N81 N 0.59674 0.52457 0.11835 0.0
C82 C 0.57784 0.54578 0.09352 0.0
C83 C 0.64037 0.58994 0.14278 0.0
C84 C 0.63613 0.55228 0.14957 0.0
C85 C 0.49906 0.6035 0.06963 0.0
O86 O 0.51794 0.60653 0.11088 0.0
H87 H 0.54684 0.53213 0.06431 0.0
H88 H 0.6695 0.61788 0.16082 0.0
O89 O 0.63344 0.62141 0.04019 0.0
H90 H 0.64652 0.75366 0.20453 0.0
H91 H 0.6611 0.54581 0.17458 0.0
Cu92 Cu 1.00007 0.49348 0.44524 0.0
N93 N 0.96915 0.43688 0.42857 0.0
N94 N 0.95899 0.37108 0.42482 0.0
C95 C 0.98766 0.4101 0.44446 0.0
C96 C 0.92059 0.3733 0.3955 0.0
C97 C 0.92699 0.41395 0.39791 0.0
O98 O 0.03658 0.51052 0.50709 0.0
C99 C 1.01406 0.49578 0.3675 0.0
O100 O 0.96743 0.48003 0.35515 0.0
H101 H 1.02211 0.41902 0.46944 0.0
H102 H 0.90289 0.42582 0.37824 0.0
N103 N 0.95825 0.52461 0.43849 0.0
N104 N 0.93415 0.57891 0.43263 0.0
C105 C 0.97134 0.5638 0.43841 0.0
C106 C 0.91117 0.51446 0.43262 0.0
C107 C 0.89623 0.54794 0.42892 0.0
C108 C 1.01159 0.50461 0.53187 0.0
O109 O 0.96505 0.48839 0.5141 0.0
H110 H 1.00749 0.58052 0.44218 0.0
H111 H 0.8893 0.4849 0.43114 0.0
O112 O 0.03812 0.50392 0.40759 0.0
H113 H 0.89012 0.3476 0.37378 0.0
H114 H 0.86025 0.54945 0.42385 0.0
Cu115 Cu 0.58578 0.09345 0.58212 0.0
N116 N 0.59233 0.1322 0.55237 0.0
N117 N 0.60507 0.15862 0.49972 0.0
C118 C 0.60959 0.1291 0.51859 0.0
C119 C 0.58401 0.18108 0.52246 0.0
C120 C 0.57634 0.16482 0.55512 0.0
O121 O 0.62347 0.05986 0.56294 0.0
C122 C 0.48802 0.05355 0.53002 0.0
O123 O 0.50432 0.05456 0.49715 0.0
H124 H 0.62239 0.1041 0.5065 0.0
H125 H 0.55845 0.17484 0.5779 0.0
N126 N 0.61337 0.11844 0.6425 0.0
N127 N 0.62843 0.12936 0.71443 0.0
C128 C 0.59855 0.10664 0.67393 0.0
C129 C 0.65397 0.14977 0.66381 0.0
C130 C 0.66337 0.15669 0.70827 0.0
C131 C 0.63934 0.03501 0.58008 0.0
O132 O 0.6246 1.02446 0.61098 0.0
H133 H 0.56695 0.08131 0.66724 0.0
H134 H 0.67558 0.16598 0.64805 0.0
O135 O 0.51743 0.06622 0.56881 0.0
H136 H 0.5732 0.20641 0.51483 0.0
H137 H 0.69365 0.17987 0.73377 0.0
H138 H 0.99683 0.13097 0.37754 0.0
C139 C 0.99792 0.1248 0.40835 0.0
H140 H 0.98978 0.14626 0.47017 0.0
H141 H 0.02958 0.30972 0.39813 0.0
H142 H 0.10773 0.30254 0.40365 0.0
H143 H 0.12929 0.24504 0.42464 0.0
H144 H 0.07227 0.19378 0.43906 0.0
C145 C 0.99032 0.15201 0.43955 0.0
C146 C 0.97964 0.18969 0.43225 0.0
C147 C 1.01433 0.22078 0.42638 0.0
C148 C 1.0029 0.25543 0.41702 0.0
C149 C 0.03704 0.28408 0.40781 0.0
C150 C 0.082 0.28013 0.41044 0.0
C151 C 0.09406 0.24765 0.42205 0.0
C152 C 0.0608 0.21825 0.42993 0.0
H153 H 0.99952 0.34013 0.46249 0.0
C154 C 0.96954 0.33546 0.43386 0.0
H155 H 0.9152 0.29149 0.3786 0.0
H156 H 0.90508 0.13642 0.44245 0.0
H157 H 0.82818 0.14532 0.44071 0.0
H158 H 0.80988 0.20702 0.42848 0.0
H159 H 0.86829 0.26019 0.41774 0.0
C160 C 0.94545 0.29698 0.40718 0.0
C161 C 0.95779 0.26044 0.41634 0.0
C162 C 0.92355 0.2298 0.42327 0.0
C163 C 0.93439 0.19442 0.43103 0.0
C164 C 0.89906 0.1641 0.43699 0.0
C165 C 0.85469 0.16877 0.43599 0.0
C166 C 0.84437 0.2035 0.42907 0.0
C167 C 0.87823 0.23376 0.42283 0.0
H168 H 0.92525 0.03956 0.55167 0.0
C169 C 0.91075 1.01667 0.5196 0.0
H170 H 0.849 0.97798 0.4678 0.0
H171 H 0.75781 0.03022 0.6278 0.0
H172 H 0.81078 1.00194 0.67045 0.0
H173 H 0.86986 0.97684 0.64279 0.0
H174 H 0.8774 0.98122 0.57297 0.0
C175 C 0.863 1.00027 0.50025 0.0
C176 C 0.82715 1.01473 0.51792 0.0
C177 C 0.82112 1.00953 0.55757 0.0
C178 C 0.78455 1.02126 0.57207 0.0
C179 C 0.78252 1.01927 0.61372 0.0
C180 C 0.81316 1.00351 0.63884 0.0
C181 C 0.84659 0.98958 0.62338 0.0
C182 C 0.85071 0.99249 0.58328 0.0
H183 H 0.67985 0.99113 0.56862 0.0
C184 C 0.67797 1.02135 0.56803 0.0
H185 H 0.71 0.0774 0.5598 0.0
H186 H 0.83172 0.03317 0.44302 0.0
H187 H 0.77727 0.05952 0.39916 0.0
H188 H 0.70953 0.07368 0.42048 0.0
H189 H 0.69599 0.06197 0.48592 0.0
C190 C 0.71207 0.04691 0.55903 0.0
C191 C 0.75158 0.03524 0.54527 0.0
C192 C 0.75791 0.04068 0.50576 0.0
C193 C 0.7961 0.03117 0.49259 0.0
C194 C 0.80255 0.03864 0.45395 0.0
C195 C 0.77167 0.05397 0.4285 0.0
C196 C 0.7336 0.06203 0.44056 0.0
C197 C 0.72649 0.05538 0.47852 0.0
H198 H 0.89901 0.62484 0.42259 0.0
C199 C 0.93321 0.61903 0.42996 0.0
H200 H 1.00732 0.64432 0.44258 0.0
H201 H 0.99611 0.78107 0.35167 0.0
H202 H 1.01841 0.73398 0.30099 0.0
H203 H 1.0189 0.66631 0.30892 0.0
H204 H 0.99703 0.64521 0.36754 0.0
C205 C 0.97286 0.64945 0.43621 0.0
C206 C 0.97093 0.6901 0.4311 0.0
C207 C 0.98327 0.70188 0.39633 0.0
C208 C 0.98232 0.74075 0.39139 0.0
C209 C 0.99549 0.75174 0.35664 0.0
C210 C 1.0085 0.72504 0.32734 0.0
C211 C 1.0088 0.68694 0.33182 0.0
C212 C 0.99632 0.6753 0.36576 0.0
H213 H 1.02027 0.84467 0.47296 0.0
C214 C 0.99515 0.84425 0.44292 0.0
H215 H 0.94114 0.8066 0.38377 0.0
H216 H 0.95052 0.6795 0.5043 0.0
H217 H 0.92544 0.72542 0.55347 0.0
H218 H 0.91769 0.79032 0.54157 0.0
H219 H 0.93597 0.8101 0.48102 0.0
C220 C 0.96608 0.80785 0.4142 0.0
C221 C 0.96873 0.76788 0.42102 0.0
C222 C 0.95594 0.75594 0.45561 0.0
C223 C 0.95811 0.71748 0.46123 0.0
C224 C 0.94769 0.70748 0.49744 0.0
C225 C 0.9335 0.73369 0.5261 0.0
C226 C 0.92931 0.7703 0.51949 0.0
C227 C 0.94026 0.78142 0.48471 0.0
H228 H 0.41285 1.02679 0.48727 0.0
C229 C 0.43555 0.04058 0.52124 0.0
H230 H 0.43719 0.06412 0.5863 0.0
H231 H 0.23722 0.0961 0.52531 0.0
H232 H 0.29179 0.1652 0.55704 0.0
H233 H 0.37881 0.17794 0.58228 0.0
H234 H 0.41182 0.12156 0.57553 0.0
C235 C 0.41499 0.0482 0.55248 0.0
C236 C 0.36195 0.03992 0.54107 0.0
C237 C 0.34287 0.07311 0.54654 0.0
C238 C 0.29241 0.0657 0.53261 0.0
C239 C 0.2749 0.09969 0.53632 0.0
C240 C 0.3059 0.13963 0.55429 0.0
C241 C 0.35491 0.14681 0.56846 0.0
C242 C 0.37338 0.11411 0.5645 0.0
H243 H 0.19172 0.03804 0.55047 0.0
C244 C 0.17796 1.02387 0.5152 0.0
H245 H 0.19403 1.00116 0.45794 0.0
H246 H 0.38587 0.96922 0.53148 0.0
H247 H 0.33135 0.89985 0.50155 0.0
H248 H 0.24425 0.88692 0.4774 0.0
H249 H 0.21107 0.94326 0.48321 0.0
C250 C 0.20822 1.0164 0.49303 0.0
C251 C 0.26079 1.02495 0.51402 0.0
C252 C 0.27997 0.99177 0.51047 0.0
C253 C 0.33037 0.99922 0.52409 0.0
C254 C 0.34806 0.96535 0.52074 0.0
C255 C 0.31714 0.92535 0.50388 0.0
C256 C 0.2681 0.91807 0.4903 0.0
C257 C 0.24953 0.95073 0.49359 0.0
H258 H 0.59487 0.17932 0.44197 0.0
C259 C 0.61294 0.1618 0.45937 0.0
H260 H 0.65829 0.12484 0.45856 0.0
H261 H 0.58918 0.05587 0.25205 0.0
H262 H 0.56703 0.99426 0.27285 0.0
H263 H 0.57781 0.99843 0.35015 0.0
H264 H 0.6108 0.06396 0.40702 0.0
C265 C 0.63981 0.14228 0.44154 0.0
C266 C 0.63993 0.13953 0.39596 0.0
C267 C 0.62089 0.10079 0.3632 0.0
C268 C 0.61401 0.09837 0.31854 0.0
C269 C 0.59446 0.05939 0.28637 0.0
C270 C 0.58178 1.02381 0.29787 0.0
C271 C 0.5879 1.02616 0.34139 0.0
C272 C 0.60698 0.06407 0.37377 0.0
H273 H 0.67225 0.14309 0.24674 0.0
C274 C 0.63381 0.13617 0.23361 0.0
H275 H 0.56826 0.12415 0.24626 0.0
H276 H 0.6888 0.21697 0.45141 0.0
H277 H 0.71364 0.27824 0.43066 0.0
H278 H 0.69755 0.27452 0.35293 0.0
H279 H 0.65741 0.20948 0.2955 0.0
C280 C 0.60682 0.1323 0.25983 0.0
C281 C 0.62585 0.13456 0.3066 0.0
C282 C 0.6487 0.17292 0.33964 0.0
C283 C 0.65645 0.1753 0.38445 0.0
C284 C 0.68056 0.21376 0.41688 0.0
C285 C 0.69527 0.24906 0.40542 0.0
C286 C 0.6863 0.24694 0.36164 0.0
C287 C 0.66321 0.20941 0.32898 0.0
H288 H 0.02772 0.46151 0.11064 0.0
C289 C 0.04194 0.4912 0.10665 0.0
H290 H 0.07223 0.55487 0.13839 0.0
H291 H 0.97602 0.55483 0.28637 0.0
H292 H 0.94389 0.59986 0.2508 0.0
H293 H 0.96073 0.60993 0.18447 0.0
H294 H 1.00967 0.57509 0.15325 0.0
C295 C 0.05773 0.52499 0.14162 0.0
C296 C 0.05235 0.52264 0.18458 0.0
C297 C 1.0235 0.54324 0.20228 0.0
C298 C 1.01304 0.53684 0.24008 0.0
C299 C 0.98427 0.55792 0.25719 0.0
C300 C 0.96578 0.58401 0.23724 0.0
C301 C 0.97533 0.58973 0.19994 0.0
C302 C 1.00362 0.56955 0.1824 0.0
H303 H 0.07531 0.52175 0.34667 0.0
C304 C 0.03721 0.50591 0.33549 0.0
H305 H 0.97284 0.48207 0.28248 0.0
H306 H 0.11893 0.48742 0.1663 0.0
H307 H 0.15131 0.44251 0.20192 0.0
H308 H 0.12741 0.42633 0.26322 0.0
H309 H 0.07206 0.45572 0.28998 0.0
C310 C 1.01119 0.49672 0.29314 0.0
C311 C 0.03075 0.50941 0.25976 0.0
C312 C 0.06201 0.49079 0.24371 0.0
C313 C 0.07384 0.49836 0.20682 0.0
C314 C 0.10701 0.48112 0.19282 0.0
C315 C 0.12616 0.45557 0.2132 0.0
C316 C 0.11283 0.44658 0.24782 0.0
C317 C 0.0811 0.46383 0.26298 0.0
H318 H 0.58992 0.10247 0.75334 0.0
C319 C 0.62282 0.12395 0.75485 0.0
H320 H 0.68967 0.16581 0.79678 0.0
H321 H 0.62316 0.19696 0.96422 0.0
H322 H 0.63641 0.26339 0.95218 0.0
H323 H 0.65573 0.27342 0.88679 0.0
H324 H 0.66186 0.21714 0.83298 0.0
C325 C 0.65676 0.1438 0.7941 0.0
C326 C 0.64905 0.13834 0.8354 0.0
C327 C 0.64648 0.1718 0.86696 0.0
C328 C 0.63519 0.16602 0.90467 0.0
C329 C 0.63163 0.19968 0.93505 0.0
C330 C 0.63917 0.23797 0.92855 0.0
C331 C 0.65008 0.24362 0.89175 0.0
C332 C 0.65359 0.21104 0.86114 0.0
H333 H 0.67147 0.13666 0.99649 0.0
C334 C 0.63279 0.12572 0.98699 0.0
H335 H 0.56735 0.1078 0.93564 0.0
H336 H 0.66027 0.06974 0.78605 0.0
H337 H 0.64803 1.00369 0.79887 0.0
H338 H 0.62563 0.9932 0.86284 0.0
H339 H 0.61592 0.04897 0.91475 0.0
C340 C 0.60603 0.11897 0.94539 0.0
C341 C 0.62665 0.12688 0.91086 0.0
C342 C 0.63171 0.094 0.88059 0.0
C343 C 0.64351 0.09982 0.84312 0.0
C344 C 0.64977 0.06669 0.81422 0.0
C345 C 0.64321 0.02869 0.82139 0.0
C346 C 0.63066 1.0228 0.85744 0.0
C347 C 0.62503 0.05499 0.88687 0.0
H348 H 0.07264 0.52643 0.59382 0.0
C349 C 0.03401 0.51461 0.57965 0.0
H350 H 0.96827 0.49785 0.59145 0.0
H351 H 0.08174 0.46768 0.76782 0.0
H352 H 0.09496 0.4114 0.71969 0.0
H353 H 0.07649 0.40276 0.6407 0.0
H354 H 0.04539 0.45061 0.60945 0.0
C355 C 1.00695 0.50859 0.60538 0.0
C356 C 0.02689 0.51759 0.65356 0.0
C357 C 0.04478 0.48917 0.67113 0.0
C358 C 0.05409 0.49342 0.71645 0.0
C359 C 0.07273 0.46508 0.73339 0.0
C360 C 0.08074 0.43282 0.70619 0.0
C361 C 0.07043 0.42801 0.66173 0.0
C362 C 0.05258 0.45571 0.6442 0.0
H363 H 0.98823 0.47177 0.76772 0.0
C364 C 1.01359 0.49675 0.79587 0.0
H365 H 0.07076 0.55188 0.81624 0.0
H366 H 0.9994 0.5803 0.63136 0.0
H367 H 0.98797 0.63749 0.67983 0.0
H368 H 1.0024 0.6441 0.75808 0.0
H369 H 0.02839 0.5937 0.7884 0.0
C370 C 0.04567 0.52598 0.78916 0.0
C371 C 0.04431 0.52544 0.74379 0.0
C372 C 0.02997 0.5556 0.72688 0.0
C373 C 1.02121 0.55161 0.68168 0.0
C374 C 1.00602 0.5817 0.66537 0.0
C375 C 0.99949 0.61471 0.69284 0.0
C376 C 1.00766 0.61845 0.73691 0.0
C377 C 1.0226 0.58929 0.75389 0.0
H378 H 0.20214 0.61101 0.9886 0.0
C379 C 0.19007 0.57808 0.98251 0.0
H380 H 0.20884 0.52373 0.97579 0.0
H381 H 0.3979 0.56331 0.93643 0.0
H382 H 0.34367 0.5163 0.86633 0.0
H383 H 0.25653 0.49686 0.85124 0.0
H384 H 0.22309 0.52389 0.90631 0.0
C385 C 0.22137 0.55677 0.98281 0.0
C386 C 0.27288 0.57548 0.98936 0.0
C387 C 0.29187 0.56054 0.95628 0.0
C388 C 0.34208 0.57239 0.9646 0.0
C389 C 0.36005 0.55561 0.93165 0.0
C390 C 0.32932 0.52864 0.89126 0.0
C391 C 0.28026 0.51765 0.88277 0.0
C392 C 0.26156 0.53326 0.91476 0.0
H393 H 0.42609 0.58255 0.07088 0.0
C394 C 0.44716 0.59507 0.05226 0.0
H395 H 0.44583 0.61855 0.99898 0.0
H396 H 0.24972 0.60994 0.06138 0.0
H397 H 0.30338 0.66272 0.12756 0.0
H398 H 0.38908 0.68966 0.13757 0.0
H399 H 0.42171 0.66261 0.08173 0.0
C400 C 0.42555 0.60572 0.01796 0.0
C401 C 0.37318 0.59976 1.0057 0.0
C402 C 0.35391 0.61833 0.03682 0.0
C403 C 0.30394 0.60493 0.02956 0.0
C404 C 0.28673 0.62062 0.06362 0.0
C405 C 0.3173 0.65078 0.10212 0.0
C406 C 0.36558 0.66579 0.10787 0.0
C407 C 0.38388 0.6498 0.07576 0.0
H408 H 0.54699 0.46336 0.08197 0.0
C409 C 0.57908 0.48082 0.10967 0.0
H410 H 0.63239 0.47723 0.16237 0.0
H411 H 0.51499 0.3085 0.17106 0.0
H412 H 0.51043 0.35534 0.2348 0.0
H413 H 0.53809 0.43002 0.24832 0.0
H414 H 0.57075 0.45836 0.19827 0.0
C415 C 0.60117 0.46069 0.13376 0.0
C416 C 0.58216 0.41538 0.12387 0.0
C417 C 0.56268 0.3992 0.15314 0.0
C418 C 0.54614 0.35607 0.14502 0.0
C419 C 0.5276 0.34092 0.1753 0.0
C420 C 0.52483 0.36748 0.21209 0.0
C421 C 0.54045 0.40953 0.21973 0.0
C422 C 0.55919 0.42538 0.19075 0.0
H423 H 0.60327 0.28013 0.1086 0.0
C424 C 0.56634 0.26352 0.10328 0.0
H425 H 0.49727 0.26864 0.09657 0.0
H426 H 0.62027 0.4359 0.06241 0.0
H427 H 0.62163 0.38906 0.99702 0.0
H428 H 0.58796 0.31437 0.98037 0.0
H429 H 0.55349 0.28606 0.02946 0.0
C430 C 0.53414 0.28398 0.10077 0.0
C431 C 0.54902 0.32905 0.10756 0.0
C432 C 0.56714 0.34519 0.07751 0.0
C433 C 0.58464 0.38836 0.08613 0.0
C434 C 0.60494 0.40349 0.05678 0.0
C435 C 0.60619 0.37692 0.01919 0.0
C436 C 0.58739 0.33486 1.00989 0.0
C437 C 0.568 0.31901 0.03853 0.0
H438 H 0.94653 0.61998 1.00406 0.0
C439 C 0.93168 0.58692 0.98965 0.0
H440 H 0.87177 0.53479 0.97274 0.0
H441 H 0.78568 0.60973 0.11295 0.0
H442 H 0.82822 0.57194 0.15165 0.0
H443 H 0.8842 0.54203 0.1237 0.0
H444 H 0.89833 0.55009 0.05704 0.0
C445 C 0.88636 0.56795 0.98585 0.0
C446 C 0.85649 0.58997 1.00451 0.0
C447 C 0.8492 0.58563 0.04393 0.0
C448 C 0.81726 0.60324 0.06022 0.0
C449 C 0.81005 0.59762 0.09929 0.0
C450 C 0.83412 0.57583 0.12183 0.0
C451 C 0.86563 0.55898 0.1061 0.0
C452 C 0.87326 0.56374 0.06768 0.0
H453 H 0.69683 0.60543 1.0028 0.0
C454 C 0.71151 0.62823 0.03496 0.0
H455 H 0.77376 0.66507 0.08741 0.0
H456 H 0.86227 0.60377 0.928 0.0
H457 H 0.82168 0.6434 0.89017 0.0
H458 H 0.76849 0.67611 0.91976 0.0
H459 H 0.75509 0.66903 0.98708 0.0
C460 C 0.75912 0.64322 0.05469 0.0
C461 C 0.79265 0.6253 0.03707 0.0
C462 C 0.80092 0.63056 0.99823 0.0
C463 C 0.83257 0.61255 0.98172 0.0
C464 C 0.83918 0.6173 0.94226 0.0
C465 C 0.81608 0.63994 0.92023 0.0
C466 C 0.78606 0.6583 0.93686 0.0
C467 C 0.7785 0.65384 0.97542 0.0
H468 H 0.62735 0.80837 0.16512 0.0
C469 C 0.61047 0.783 0.13488 0.0
H470 H 0.56917 0.76525 0.06806 0.0
H471 H 0.53312 0.94169 0.15175 0.0
H472 H 0.4933 0.90624 0.19338 0.0
H473 H 0.49238 0.83562 0.19067 0.0
H474 H 0.53213 0.80036 0.14708 0.0
C475 C 0.58585 0.78978 0.09882 0.0
C476 C 0.58342 0.83151 0.09865 0.0
C477 C 0.55839 0.85112 0.12302 0.0
C478 C 0.55712 0.89123 0.12307 0.0
C479 C 0.53389 0.9108 0.14937 0.0
C480 C 0.51104 0.89085 0.17359 0.0
C481 C 0.51067 0.85115 0.17218 0.0
C482 C 0.53392 0.83134 0.14722 0.0
H483 H 0.50549 0.93463 0.06119 0.0
C484 C 0.5383 0.96019 0.0769 0.0
H485 H 0.61211 0.97756 0.11161 0.0
H486 H 0.63396 0.8027 0.04794 0.0
H487 H 0.6713 0.83727 1.00429 0.0
H488 H 0.6667 0.90571 1.00242 0.0
H489 H 0.62488 0.94011 0.04434 0.0
C490 C 0.57839 0.95312 0.09727 0.0
C491 C 0.57925 0.91106 0.09741 0.0
C492 C 0.60355 0.89118 0.0725 0.0
C493 C 0.60567 0.85145 0.07314 0.0
C494 C 0.6307 0.83263 0.04829 0.0
C495 C 0.65241 0.85217 0.02314 0.0
C496 C 0.64987 0.89072 0.02212 0.0
C497 C 0.62581 0.91015 0.04643 0.0
loop_
_geom_bond_atom_site_label_1
_geom_bond_atom_site_label_2
_geom_bond_distance
_geom_bond_site_symmetry_2
_ccdc_geom_bond_type
Cu0 N1 1.999 . S
Cu0 O6 1.974 1_455 S
Cu0 N11 1.985 1_545 S
Cu0 O20 1.959 . S
N1 Cu0 1.999 . S
N1 C3 1.263 . S
N1 C5 1.389 . S
N2 C3 1.358 . S
N2 C4 1.400 . S
C3 N1 1.263 . S
C3 N2 1.358 . S
C3 H9 0.930 1_455 S
C4 N2 1.400 . S
C4 C5 1.351 . S
C4 H21 0.930 . S
C5 N1 1.389 . S
C5 C4 1.351 . S
C5 H10 0.930 . S
O6 Cu0 1.974 1_655 S
O6 C16 1.282 . S
C7 O8 1.261 . S
C7 O20 1.251 . S
O8 C7 1.261 . S
H9 C3 0.930 1_655 S
H10 C5 0.930 . S
N11 Cu0 1.985 1_565 S
N11 C13 1.335 . S
N11 C14 1.390 1_455 S
N12 C13 1.345 . S
N12 C15 1.336 1_455 S
C13 N11 1.335 . S
C13 N12 1.345 . S
C13 H18 0.930 . S
C14 N11 1.390 1_655 S
C14 C15 1.346 . S
C14 H19 0.930 . S
C15 N12 1.336 1_655 S
C15 C14 1.346 . S
C15 H22 0.929 . S
C16 O6 1.282 . S
C16 O17 1.216 . S
O17 C16 1.216 . S
H18 C13 0.930 . S
H19 C14 0.930 . S
O20 Cu0 1.959 . S
O20 C7 1.251 . S
H21 C4 0.930 . S
H22 C15 0.929 . S
Cu23 N24 1.999 1_545 S
Cu23 O29 1.974 . S
Cu23 N34 1.985 . S
Cu23 O43 1.959 1_554 S
N24 Cu23 1.999 1_565 S
N24 C26 1.263 . S
N24 C28 1.389 1_554 S
N25 C26 1.358 . S
N25 C27 1.400 1_554 S
C26 N24 1.263 . S
C26 N25 1.358 . S
C26 H32 0.930 . S
C27 N25 1.400 1_556 S
C27 C28 1.351 . S
C27 H44 0.930 . S
C28 N24 1.389 1_556 S
C28 C27 1.351 . S
C28 H33 0.930 . S
O29 Cu23 1.974 . S
O29 C39 1.282 . S
C30 O31 1.261 . S
C30 O43 1.251 . S
O31 C30 1.261 . S
H32 C26 0.930 . S
H33 C28 0.930 . S
N34 Cu23 1.985 . S
N34 C36 1.335 . S
N34 C37 1.390 . S
N35 C36 1.345 . S
N35 C38 1.336 . S
C36 N34 1.335 . S
C36 N35 1.345 . S
C36 H41 0.930 1_554 S
C37 N34 1.390 . S
C37 C38 1.346 . S
C37 H42 0.930 . S
C38 N35 1.336 . S
C38 C37 1.346 . S
C38 H45 0.929 . S
C39 O29 1.282 . S
C39 O40 1.216 . S
O40 C39 1.216 . S
H41 C36 0.930 1_556 S
H42 C37 0.930 . S
O43 Cu23 1.959 1_556 S
O43 C30 1.251 . S
H44 C27 0.930 . S
H45 C38 0.929 . S
Cu46 N47 1.999 1_554 S
Cu46 O52 1.974 . S
Cu46 N57 1.985 . S
Cu46 O66 1.959 1_455 S
N47 Cu46 1.999 1_556 S
N47 C49 1.263 . S
N47 C51 1.389 1_455 S
N48 C49 1.358 . S
N48 C50 1.400 1_455 S
C49 N47 1.263 . S
C49 N48 1.358 . S
C49 H55 0.930 . S
C50 N48 1.400 1_655 S
C50 C51 1.351 . S
C50 H67 0.930 . S
C51 N47 1.389 1_655 S
C51 C50 1.351 . S
C51 H56 0.930 . S
O52 Cu46 1.974 . S
O52 C62 1.282 . S
C53 O54 1.261 1_554 S
C53 O66 1.251 . S
O54 C53 1.261 1_556 S
H55 C49 0.930 . S
H56 C51 0.930 . S
N57 Cu46 1.985 . S
N57 C59 1.335 . S
N57 C60 1.390 . S
N58 C59 1.345 . S
N58 C61 1.336 . S
C59 N57 1.335 . S
C59 N58 1.345 . S
C59 H64 0.931 1_455 S
C60 N57 1.390 . S
C60 C61 1.346 . S
C60 H65 0.930 . S
C61 N58 1.336 . S
C61 C60 1.346 . S
C61 H68 0.929 . S
C62 O52 1.282 . S
C62 O63 1.216 1_554 S
O63 C62 1.216 1_556 S
H64 C59 0.931 1_655 S
H65 C60 0.930 . S
O66 Cu46 1.959 1_655 S
O66 C53 1.251 . S
H67 C50 0.930 . S
H68 C61 0.929 . S
Cu69 N70 1.999 . S
Cu69 O75 1.974 . S
Cu69 N80 1.985 . S
Cu69 O89 1.959 . S
N70 Cu69 1.999 . S
N70 C72 1.265 . S
N70 C74 1.389 . S
N71 C72 1.361 . S
N71 C73 1.400 . S
C72 N70 1.265 . S
C72 N71 1.361 . S
C72 H78 0.926 1_556 S
C73 N71 1.400 . S
C73 C74 1.351 . S
C73 H90 0.930 . S
C74 N70 1.389 . S
C74 C73 1.351 . S
C74 H79 0.930 . S
O75 Cu69 1.974 . S
O75 C85 1.282 1_556 S
C76 O77 1.261 . S
C76 O89 1.251 1_554 S
O77 C76 1.261 . S
H78 C72 0.926 1_554 S
H79 C74 0.930 . S
N80 Cu69 1.985 . S
N80 C82 1.335 . S
N80 C83 1.390 1_556 S
N81 C82 1.350 . S
N81 C84 1.331 1_556 S
C82 N80 1.335 . S
C82 N81 1.350 . S
C82 H87 0.930 . S
C83 N80 1.390 1_554 S
C83 C84 1.346 . S
C83 H88 0.930 . S
C84 N81 1.331 1_554 S
C84 C83 1.346 . S
C84 H91 0.929 . S
C85 O75 1.282 1_554 S
C85 O86 1.216 . S
O86 C85 1.216 . S
H87 C82 0.930 . S
H88 C83 0.930 . S
O89 Cu69 1.959 . S
O89 C76 1.251 1_556 S
H90 C73 0.930 . S
H91 C84 0.929 . S
Cu92 N93 1.999 . S
Cu92 O98 1.974 . S
Cu92 N103 1.985 . S
Cu92 O112 1.959 . S
N93 Cu92 1.999 . S
N93 C95 1.263 . S
N93 C97 1.389 . S
N94 C95 1.358 . S
N94 C96 1.400 . S
C95 N93 1.263 . S
C95 N94 1.358 . S
C95 H101 0.930 . S
C96 N94 1.400 . S
C96 C97 1.351 . S
C96 H113 0.930 . S
C97 N93 1.389 . S
C97 C96 1.351 . S
C97 H102 0.930 . S
O98 Cu92 1.974 . S
O98 C108 1.282 . S
C99 O100 1.261 1_455 S
C99 O112 1.251 . S
O100 C99 1.261 1_655 S
H101 C95 0.930 . S
H102 C97 0.930 . S
N103 Cu92 1.985 . S
N103 C105 1.335 . S
N103 C106 1.390 . S
N104 C105 1.345 . S
N104 C107 1.336 . S
C105 N103 1.335 . S
C105 N104 1.345 . S
C105 H110 0.930 . S
C106 N103 1.390 . S
C106 C107 1.346 . S
C106 H111 0.930 . S
C107 N104 1.336 . S
C107 C106 1.346 . S
C107 H114 0.929 . S
C108 O98 1.282 . S
C108 O109 1.216 1_455 S
O109 C108 1.216 1_655 S
H110 C105 0.930 . S
H111 C106 0.930 . S
O112 Cu92 1.959 . S
O112 C99 1.251 . S
H113 C96 0.930 . S
H114 C107 0.929 . S
Cu115 N116 1.999 . S
Cu115 O121 1.974 . S
Cu115 N126 1.985 . S
Cu115 O135 1.959 . S
N116 Cu115 1.999 . S
N116 C118 1.263 . S
N116 C120 1.389 . S
N117 C118 1.358 . S
N117 C119 1.400 . S
C118 N116 1.263 . S
C118 N117 1.358 . S
C118 H124 0.930 . S
C119 N117 1.400 . S
C119 C120 1.351 . S
C119 H136 0.930 . S
C120 N116 1.389 . S
C120 C119 1.351 . S
C120 H125 0.930 . S
O121 Cu115 1.974 . S
O121 C131 1.282 . S
C122 O123 1.261 1_545 S
C122 O135 1.251 . S
O123 C122 1.261 1_565 S
H124 C118 0.930 . S
H125 C120 0.930 . S
N126 Cu115 1.985 . S
N126 C128 1.335 . S
N126 C129 1.390 . S
N127 C128 1.345 . S
N127 C130 1.336 . S
C128 N126 1.335 . S
C128 N127 1.345 . S
C128 H133 0.930 . S
C129 N126 1.390 . S
C129 C130 1.346 . S
C129 H134 0.930 . S
C130 N127 1.336 . S
C130 C129 1.346 . S
C130 H137 0.929 . S
C131 O121 1.282 . S
C131 O132 1.216 1_545 S
O132 C131 1.216 1_565 S
H133 C128 0.930 . S
H134 C129 0.930 . S
O135 Cu115 1.959 . S
O135 C122 1.251 . S
H136 C119 0.930 . S
H137 C130 0.929 . S
H138 C139 0.951 . S
C139 H138 0.951 . S
C139 C145 1.265 . S
H140 C145 0.950 1_655 S
H141 C149 0.949 . S
H142 C150 0.950 . S
H143 C151 0.949 1_655 S
H144 C152 0.951 . S
C145 C139 1.265 . S
C145 H140 0.950 1_455 S
C145 C146 1.478 . S
C146 C145 1.478 . S
C146 C147 1.397 . S
C146 C163 1.394 . S
C147 C146 1.397 . S
C147 C148 1.438 . S
C147 C152 1.429 . S
C148 C147 1.438 . S
C148 C149 1.428 . S
C148 C161 1.394 . S
C149 H141 0.949 . S
C149 C148 1.428 . S
C149 C150 1.345 . S
C150 H142 0.950 . S
C150 C149 1.345 . S
C150 C151 1.424 . S
C151 H143 0.949 1_455 S
C151 C150 1.424 . S
C151 C152 1.347 . S
C152 H144 0.951 . S
C152 C147 1.429 . S
C152 C151 1.347 . S
H153 C154 0.951 . S
C154 H153 0.951 . S
C154 C160 1.265 . S
H155 C160 0.950 . S
H156 C164 0.949 . S
H157 C165 0.950 . S
H158 C166 0.951 . S
H159 C167 0.951 . S
C160 C154 1.265 . S
C160 H155 0.950 . S
C160 C161 1.478 . S
C161 C148 1.394 . S
C161 C160 1.478 . S
C161 C162 1.397 . S
C162 C161 1.397 . S
C162 C163 1.438 . S
C162 C167 1.429 . S
C163 C146 1.394 . S
C163 C162 1.438 . S
C163 C164 1.428 . S
C164 H156 0.949 . S
C164 C163 1.428 . S
C164 C165 1.345 . S
C165 H157 0.950 . S
C165 C164 1.345 . S
C165 C166 1.424 . S
C166 H158 0.951 . S
C166 C165 1.424 . S
C166 C167 1.347 . S
C167 H159 0.951 . S
C167 C162 1.429 . S
C167 C166 1.347 . S
H168 C169 0.951 . S
C169 H168 0.951 . S
C169 C175 1.265 . S
H170 C175 0.950 . S
H171 C179 0.949 . S
H172 C180 0.950 . S
H173 C181 0.951 . S
H174 C182 0.951 . S
C175 C169 1.265 . S
C175 H170 0.950 . S
C175 C176 1.478 . S
C176 C175 1.478 . S
C176 C177 1.397 . S
C176 C193 1.394 . S
C177 C176 1.397 . S
C177 C178 1.438 . S
C177 C182 1.429 . S
C178 C177 1.438 . S
C178 C179 1.428 . S
C178 C191 1.394 . S
C179 H171 0.949 . S
C179 C178 1.428 . S
C179 C180 1.345 . S
C180 H172 0.950 . S
C180 C179 1.345 . S
C180 C181 1.424 . S
C181 H173 0.951 . S
C181 C180 1.424 . S
C181 C182 1.347 . S
C182 H174 0.951 . S
C182 C177 1.429 . S
C182 C181 1.347 . S
H183 C184 0.951 . S
C184 H183 0.951 . S
C184 C190 1.265 . S
H185 C190 0.950 . S
H186 C194 0.949 . S
H187 C195 0.950 . S
H188 C196 0.951 . S
H189 C197 0.951 . S
C190 C184 1.265 . S
C190 H185 0.950 . S
C190 C191 1.478 . S
C191 C178 1.394 . S
C191 C190 1.478 . S
C191 C192 1.397 . S
C192 C191 1.397 . S
C192 C193 1.438 . S
C192 C197 1.429 1_545 S
C193 C176 1.394 . S
C193 C192 1.438 . S
C193 C194 1.428 1_545 S
C194 H186 0.949 . S
C194 C193 1.428 1_565 S
C194 C195 1.345 . S
C195 H187 0.950 . S
C195 C194 1.345 . S
C195 C196 1.424 . S
C196 H188 0.951 . S
C196 C195 1.424 . S
C196 C197 1.347 . S
C197 H189 0.951 . S
C197 C192 1.429 1_565 S
C197 C196 1.347 . S
H198 C199 0.935 1_655 S
C199 H198 0.935 1_455 S
C199 C205 1.265 . S
H200 C205 0.950 . S
H201 C209 0.949 . S
H202 C210 0.950 . S
H203 C211 0.951 . S
H204 C212 0.951 . S
C205 C199 1.265 . S
C205 H200 0.950 . S
C205 C206 1.478 . S
C206 C205 1.478 . S
C206 C207 1.397 . S
C206 C223 1.394 . S
C207 C206 1.397 . S
C207 C208 1.438 . S
C207 C212 1.429 . S
C208 C207 1.438 . S
C208 C209 1.428 . S
C208 C221 1.394 . S
C209 H201 0.949 . S
C209 C208 1.428 . S
C209 C210 1.345 . S
C210 H202 0.950 . S
C210 C209 1.345 . S
C210 C211 1.424 . S
C211 H203 0.951 . S
C211 C210 1.424 . S
C211 C212 1.347 . S
C212 H204 0.951 . S
C212 C207 1.429 . S
C212 C211 1.347 . S
H213 C214 0.951 . S
C214 H213 0.951 . S
C214 C220 1.265 . S
H215 C220 0.950 1_655 S
H216 C224 0.949 . S
H217 C225 0.950 . S
H218 C226 0.951 . S
H219 C227 0.951 . S
C220 C214 1.265 . S
C220 H215 0.950 1_455 S
C220 C221 1.478 . S
C221 C208 1.394 . S
C221 C220 1.478 . S
C221 C222 1.397 . S
C222 C221 1.397 . S
C222 C223 1.438 . S
C222 C227 1.429 1_455 S
C223 C206 1.394 . S
C223 C222 1.438 . S
C223 C224 1.428 . S
C224 H216 0.949 . S
C224 C223 1.428 . S
C224 C225 1.345 1_455 S
C225 H217 0.950 . S
C225 C224 1.345 1_655 S
C225 C226 1.424 . S
C226 H218 0.951 . S
C226 C225 1.424 . S
C226 C227 1.347 . S
C227 H219 0.951 . S
C227 C222 1.429 1_655 S
C227 C226 1.347 . S
H228 C229 0.952 1_565 S
C229 H228 0.952 1_545 S
C229 C235 1.265 . S
H230 C235 0.950 . S
H231 C239 0.949 . S
H232 C240 0.950 . S
H233 C241 0.951 . S
H234 C242 0.951 . S
C235 C229 1.265 . S
C235 H230 0.950 . S
C235 C236 1.478 . S
C236 C235 1.478 . S
C236 C237 1.397 . S
C236 C253 1.384 1_545 S
C237 C236 1.397 . S
C237 C238 1.438 . S
C237 C242 1.429 . S
C238 C237 1.438 . S
C238 C239 1.428 . S
C238 C251 1.394 . S
C239 H231 0.949 . S
C239 C238 1.428 . S
C239 C240 1.345 . S
C240 H232 0.950 . S
C240 C239 1.345 . S
C240 C241 1.424 . S
C241 H233 0.951 . S
C241 C240 1.424 . S
C241 C242 1.347 . S
C242 H234 0.951 . S
C242 C237 1.429 . S
C242 C241 1.347 . S
H243 C244 0.951 . S
C244 H243 0.951 . S
C244 C250 1.265 . S
H245 C250 0.950 1_565 S
H246 C254 0.949 . S
H247 C255 0.950 . S
H248 C256 0.951 . S
H249 C257 0.951 . S
C250 C244 1.265 . S
C250 H245 0.950 1_545 S
C250 C251 1.478 . S
C251 C238 1.394 . S
C251 C250 1.478 . S
C251 C252 1.397 1_545 S
C252 C251 1.397 1_565 S
C252 C253 1.436 . S
C252 C257 1.429 . S
C253 C236 1.384 1_565 S
C253 C252 1.436 . S
C253 C254 1.440 . S
C254 H246 0.949 . S
C254 C253 1.440 . S
C254 C255 1.345 . S
C255 H247 0.950 . S
C255 C254 1.345 . S
C255 C256 1.424 . S
C256 H248 0.951 . S
C256 C255 1.424 . S
C256 C257 1.347 . S
C257 H249 0.951 . S
C257 C252 1.429 . S
C257 C256 1.347 . S
H258 C259 0.951 . S
C259 H258 0.951 . S
C259 C265 1.265 . S
H260 C265 0.950 . S
H261 C269 0.949 . S
H262 C270 0.950 . S
H263 C271 0.951 . S
H264 C272 0.951 . S
C265 C259 1.265 . S
C265 H260 0.950 . S
C265 C266 1.478 . S
C266 C265 1.478 . S
C266 C267 1.397 . S
C266 C283 1.394 . S
C267 C266 1.397 . S
C267 C268 1.438 . S
C267 C272 1.429 1_545 S
C268 C267 1.438 . S
C268 C269 1.428 1_545 S
C268 C281 1.394 . S
C269 H261 0.949 . S
C269 C268 1.428 1_565 S
C269 C270 1.345 . S
C270 H262 0.950 . S
C270 C269 1.345 . S
C270 C271 1.424 . S
C271 H263 0.951 . S
C271 C270 1.424 . S
C271 C272 1.347 . S
C272 H264 0.951 . S
C272 C267 1.429 1_565 S
C272 C271 1.347 . S
H273 C274 0.951 . S
C274 H273 0.951 . S
C274 C280 1.265 . S
H275 C280 0.950 . S
H276 C284 0.949 . S
H277 C285 0.950 . S
H278 C286 0.951 . S
H279 C287 0.951 . S
C280 C274 1.265 . S
C280 H275 0.950 . S
C280 C281 1.478 . S
C281 C268 1.394 . S
C281 C280 1.478 . S
C281 C282 1.397 . S
C282 C281 1.397 . S
C282 C283 1.438 . S
C282 C287 1.429 . S
C283 C266 1.394 . S
C283 C282 1.438 . S
C283 C284 1.428 . S
C284 H276 0.949 . S
C284 C283 1.428 . S
C284 C285 1.345 . S
C285 H277 0.950 . S
C285 C284 1.345 . S
C285 C286 1.424 . S
C286 H278 0.951 . S
C286 C285 1.424 . S
C286 C287 1.347 . S
C287 H279 0.951 . S
C287 C282 1.429 . S
C287 C286 1.347 . S
H288 C289 0.951 . S
C289 H288 0.951 . S
C289 C295 1.265 . S
H290 C295 0.950 1_655 S
H291 C299 0.949 . S
H292 C300 0.950 . S
H293 C301 0.951 . S
H294 C302 0.951 . S
C295 C289 1.265 . S
C295 H290 0.950 1_455 S
C295 C296 1.478 . S
C296 C295 1.478 . S
C296 C297 1.397 1_455 S
C296 C313 1.394 . S
C297 C296 1.397 1_655 S
C297 C298 1.438 1_655 S
C297 C302 1.429 . S
C298 C297 1.438 1_455 S
C298 C299 1.428 1_455 S
C298 C311 1.394 . S
C299 H291 0.949 . S
C299 C298 1.428 1_655 S
C299 C300 1.345 . S
C300 H292 0.950 . S
C300 C299 1.345 . S
C300 C301 1.424 . S
C301 H293 0.951 . S
C301 C300 1.424 . S
C301 C302 1.347 . S
C302 H294 0.951 . S
C302 C297 1.429 . S
C302 C301 1.347 . S
H303 C304 0.951 1_655 S
C304 H303 0.951 1_455 S
C304 C310 1.265 . S
H305 C310 0.950 . S
H306 C314 0.949 . S
H307 C315 0.950 . S
H308 C316 0.951 . S
H309 C317 0.951 . S
C310 C304 1.265 . S
C310 H305 0.950 . S
C310 C311 1.478 . S
C311 C298 1.394 . S
C311 C310 1.478 . S
C311 C312 1.397 . S
C312 C311 1.397 . S
C312 C313 1.438 . S
C312 C317 1.429 . S
C313 C296 1.394 . S
C313 C312 1.438 . S
C313 C314 1.428 . S
C314 H306 0.949 . S
C314 C313 1.428 . S
C314 C315 1.345 . S
C315 H307 0.950 . S
C315 C314 1.345 . S
C315 C316 1.424 . S
C316 H308 0.951 . S
C316 C315 1.424 . S
C316 C317 1.347 . S
C317 H309 0.951 . S
C317 C312 1.429 . S
C317 C316 1.347 . S
H318 C319 0.951 . S
C319 H318 0.951 . S
C319 C325 1.265 . S
H320 C325 0.950 . S
H321 C329 0.949 . S
H322 C330 0.950 . S
H323 C331 0.951 . S
H324 C332 0.951 . S
C325 C319 1.265 . S
C325 H320 0.950 . S
C325 C326 1.478 . S
C326 C325 1.478 . S
C326 C327 1.397 . S
C326 C343 1.394 . S
C327 C326 1.397 . S
C327 C328 1.438 . S
C327 C332 1.429 . S
C328 C327 1.438 . S
C328 C329 1.428 . S
C328 C341 1.394 . S
C329 H321 0.949 . S
C329 C328 1.428 . S
C329 C330 1.345 . S
C330 H322 0.950 . S
C330 C329 1.345 . S
C330 C331 1.424 . S
C331 H323 0.951 . S
C331 C330 1.424 . S
C331 C332 1.347 . S
C332 H324 0.951 . S
C332 C327 1.429 . S
C332 C331 1.347 . S
H333 C334 0.951 . S
C334 H333 0.951 . S
C334 C340 1.265 . S
H335 C340 0.950 . S
H336 C344 0.949 . S
H337 C345 0.950 . S
H338 C346 0.951 . S
H339 C347 0.951 . S
C340 C334 1.265 . S
C340 H335 0.950 . S
C340 C341 1.478 . S
C341 C328 1.394 . S
C341 C340 1.478 . S
C341 C342 1.397 1_545 S
C342 C341 1.397 1_565 S
C342 C343 1.438 1_565 S
C342 C347 1.429 . S
C343 C326 1.394 . S
C343 C342 1.438 1_545 S
C343 C344 1.428 1_545 S
C344 H336 0.949 . S
C344 C343 1.428 1_565 S
C344 C345 1.345 . S
C345 H337 0.950 . S
C345 C344 1.345 . S
C345 C346 1.424 . S
C346 H338 0.951 . S
C346 C345 1.424 . S
C346 C347 1.347 . S
C347 H339 0.951 . S
C347 C342 1.429 . S
C347 C346 1.347 . S
H348 C349 0.951 . S
C349 H348 0.951 . S
C349 C355 1.265 1_455 S
H350 C355 0.950 . S
H351 C359 0.949 1_455 S
H352 C360 0.950 . S
H353 C361 0.951 . S
H354 C362 0.951 . S
C355 C349 1.265 1_655 S
C355 H350 0.950 . S
C355 C356 1.478 1_655 S
C356 C355 1.478 1_455 S
C356 C357 1.397 1_455 S
C356 C373 1.394 . S
C357 C356 1.397 1_655 S
C357 C358 1.438 1_655 S
C357 C362 1.429 . S
C358 C357 1.438 1_455 S
C358 C359 1.426 1_455 S
C358 C371 1.394 . S
C359 H351 0.949 1_655 S
C359 C358 1.426 1_655 S
C359 C360 1.347 . S
C360 H352 0.950 . S
C360 C359 1.347 . S
C360 C361 1.424 . S
C361 H353 0.951 . S
C361 C360 1.424 . S
C361 C362 1.347 . S
C362 H354 0.951 . S
C362 C357 1.429 . S
C362 C361 1.347 . S
H363 C364 0.951 1_655 S
C364 H363 0.951 1_455 S
C364 C370 1.265 . S
H365 C370 0.950 . S
H366 C374 0.949 . S
H367 C375 0.950 . S
H368 C376 0.951 . S
H369 C377 0.951 . S
C370 C364 1.265 . S
C370 H365 0.950 . S
C370 C371 1.478 . S
C371 C358 1.394 . S
C371 C370 1.478 . S
C371 C372 1.397 . S
C372 C371 1.397 . S
C372 C373 1.438 . S
C372 C377 1.429 . S
C373 C356 1.394 . S
C373 C372 1.438 . S
C373 C374 1.428 . S
C374 H366 0.949 . S
C374 C373 1.428 . S
C374 C375 1.345 . S
C375 H367 0.950 . S
C375 C374 1.345 . S
C375 C376 1.424 . S
C376 H368 0.951 . S
C376 C375 1.424 . S
C376 C377 1.347 . S
C377 H369 0.951 . S
C377 C372 1.429 . S
C377 C376 1.347 . S
H378 C379 0.951 1_556 S
C379 H378 0.951 1_554 S
C379 C385 1.265 . S
H380 C385 0.950 . S
H381 C389 0.949 . S
H382 C390 0.950 . S
H383 C391 0.951 . S
H384 C392 0.951 . S
C385 C379 1.265 . S
C385 H380 0.950 . S
C385 C386 1.478 . S
C386 C385 1.478 . S
C386 C387 1.397 . S
C386 C403 1.394 . S
C387 C386 1.397 . S
C387 C388 1.438 . S
C387 C392 1.429 . S
C388 C387 1.438 . S
C388 C389 1.428 . S
C388 C401 1.394 . S
C389 H381 0.949 . S
C389 C388 1.428 . S
C389 C390 1.345 . S
C390 H382 0.950 . S
C390 C389 1.345 . S
C390 C391 1.424 . S
C391 H383 0.951 . S
C391 C390 1.424 . S
C391 C392 1.347 . S
C392 H384 0.951 . S
C392 C387 1.429 . S
C392 C391 1.347 . S
H393 C394 0.951 . S
C394 H393 0.951 . S
C394 C400 1.265 1_554 S
H395 C400 0.950 . S
H396 C404 0.949 . S
H397 C405 0.950 . S
H398 C406 0.951 . S
H399 C407 0.951 . S
C400 C394 1.265 1_556 S
C400 H395 0.950 . S
C400 C401 1.478 1_556 S
C401 C388 1.394 . S
C401 C400 1.478 1_554 S
C401 C402 1.397 1_554 S
C402 C401 1.397 1_556 S
C402 C403 1.438 1_556 S
C402 C407 1.429 . S
C403 C386 1.394 . S
C403 C402 1.438 1_554 S
C403 C404 1.428 1_554 S
C404 H396 0.949 . S
C404 C403 1.428 1_556 S
C404 C405 1.345 . S
C405 H397 0.950 . S
C405 C404 1.345 . S
C405 C406 1.424 . S
C406 H398 0.951 . S
C406 C405 1.424 . S
C406 C407 1.347 . S
C407 H399 0.951 . S
C407 C402 1.429 . S
C407 C406 1.347 . S
H408 C409 0.951 . S
C409 H408 0.951 . S
C409 C415 1.265 1_556 S
H410 C415 0.950 . S
H411 C419 0.949 . S
H412 C420 0.950 . S
H413 C421 0.951 . S
H414 C422 0.951 . S
C415 C409 1.265 1_554 S
C415 H410 0.950 . S
C415 C416 1.478 . S
C416 C415 1.478 . S
C416 C417 1.397 . S
C416 C433 1.394 1_554 S
C417 C416 1.397 . S
C417 C418 1.438 . S
C417 C422 1.429 . S
C418 C417 1.438 . S
C418 C419 1.428 . S
C418 C431 1.394 . S
C419 H411 0.949 . S
C419 C418 1.428 . S
C419 C420 1.345 . S
C420 H412 0.950 . S
C420 C419 1.345 . S
C420 C421 1.424 . S
C421 H413 0.951 . S
C421 C420 1.424 . S
C421 C422 1.347 . S
C422 H414 0.951 . S
C422 C417 1.429 . S
C422 C421 1.347 . S
H423 C424 0.951 . S
C424 H423 0.951 . S
C424 C430 1.265 1_554 S
H425 C430 0.950 . S
H426 C434 0.949 . S
H427 C435 0.950 . S
H428 C436 0.951 . S
H429 C437 0.951 . S
C430 C424 1.265 1_556 S
C430 H425 0.950 . S
C430 C431 1.478 1_556 S
C431 C418 1.394 . S
C431 C430 1.478 1_554 S
C431 C432 1.397 1_554 S
C432 C431 1.397 1_556 S
C432 C433 1.438 . S
C432 C437 1.429 . S
C433 C416 1.394 1_556 S
C433 C432 1.438 . S
C433 C434 1.428 . S
C434 H426 0.949 . S
C434 C433 1.428 . S
C434 C435 1.345 . S
C435 H427 0.950 . S
C435 C434 1.345 . S
C435 C436 1.424 . S
C436 H428 0.951 . S
C436 C435 1.424 . S
C436 C437 1.347 . S
C437 H429 0.951 . S
C437 C432 1.429 . S
C437 C436 1.347 . S
H438 C439 0.951 . S
C439 H438 0.951 . S
C439 C445 1.265 1_554 S
H440 C445 0.950 . S
H441 C449 0.949 . S
H442 C450 0.950 . S
H443 C451 0.951 . S
H444 C452 0.951 . S
C445 C439 1.265 1_556 S
C445 H440 0.950 . S
C445 C446 1.478 1_556 S
C446 C445 1.478 1_554 S
C446 C447 1.397 . S
C446 C463 1.394 1_554 S
C447 C446 1.397 . S
C447 C448 1.438 . S
C447 C452 1.429 . S
C448 C447 1.438 . S
C448 C449 1.428 . S
C448 C461 1.394 . S
C449 H441 0.949 . S
C449 C448 1.428 . S
C449 C450 1.345 . S
C450 H442 0.950 . S
C450 C449 1.345 . S
C450 C451 1.424 . S
C451 H443 0.951 . S
C451 C450 1.424 . S
C451 C452 1.347 . S
C452 H444 0.951 . S
C452 C447 1.429 . S
C452 C451 1.347 . S
H453 C454 0.951 1_556 S
C454 H453 0.951 1_554 S
C454 C460 1.265 . S
H455 C460 0.950 . S
H456 C464 0.949 . S
H457 C465 0.950 . S
H458 C466 0.951 . S
H459 C467 0.951 1_554 S
C460 C454 1.265 . S
C460 H455 0.950 . S
C460 C461 1.478 . S
C461 C448 1.394 . S
C461 C460 1.478 . S
C461 C462 1.397 . S
C462 C461 1.397 . S
C462 C463 1.438 1_554 S
C462 C467 1.429 1_554 S
C463 C446 1.394 1_556 S
C463 C462 1.438 1_556 S
C463 C464 1.428 . S
C464 H456 0.949 . S
C464 C463 1.428 . S
C464 C465 1.345 . S
C465 H457 0.950 . S
C465 C464 1.345 . S
C465 C466 1.424 . S
C466 H458 0.951 . S
C466 C465 1.424 . S
C466 C467 1.347 . S
C467 H459 0.951 1_556 S
C467 C462 1.429 1_556 S
C467 C466 1.347 . S
H468 C469 0.955 1_554 S
C469 H468 0.955 1_556 S
C469 C475 1.265 . S
H470 C475 0.950 . S
H471 C479 0.949 . S
H472 C480 0.950 . S
H473 C481 0.951 . S
H474 C482 0.951 . S
C475 C469 1.265 . S
C475 H470 0.950 . S
C475 C476 1.478 1_556 S
C476 C475 1.478 1_554 S
C476 C477 1.397 . S
C476 C493 1.394 1_554 S
C477 C476 1.397 . S
C477 C478 1.438 . S
C477 C482 1.429 . S
C478 C477 1.438 . S
C478 C479 1.428 . S
C478 C491 1.394 . S
C479 H471 0.949 . S
C479 C478 1.428 . S
C479 C480 1.345 . S
C480 H472 0.950 . S
C480 C479 1.345 . S
C480 C481 1.424 . S
C481 H473 0.951 . S
C481 C480 1.424 . S
C481 C482 1.347 . S
C482 H474 0.951 . S
C482 C477 1.429 . S
C482 C481 1.347 . S
H483 C484 0.951 . S
C484 H483 0.951 . S
C484 C490 1.265 . S
H485 C490 0.950 . S
H486 C494 0.949 . S
H487 C495 0.950 . S
H488 C496 0.951 . S
H489 C497 0.951 . S
C490 C484 1.265 . S
C490 H485 0.950 . S
C490 C491 1.478 . S
C491 C478 1.394 . S
C491 C490 1.478 . S
C491 C492 1.397 1_554 S
C492 C491 1.397 1_556 S
C492 C493 1.438 . S
C492 C497 1.429 . S
C493 C476 1.394 1_556 S
C493 C492 1.438 . S
C493 C494 1.428 . S
C494 H486 0.949 . S
C494 C493 1.428 . S
C494 C495 1.345 . S
C495 H487 0.950 . S
C495 C494 1.345 . S
C495 C496 1.424 . S
C496 H488 0.951 . S
C496 C495 1.424 . S
C496 C497 1.347 . S
C497 H489 0.951 . S
C497 C492 1.429 . S
C497 C496 1.347 . S
C139 N2 1.456 . S
C154 N94 1.511 . S
C169 C16 1.473 . S
C184 C131 1.441 . S
C199 N104 1.430 . S
C214 N12 1.470 . S
C229 C122 1.509 . S
C244 C7 1.511 . S
C259 N117 1.437 . S
C274 C39 1.492 . S
C289 N58 1.429 . S
C304 C99 1.497 . S
C319 N127 1.482 . S
C334 C30 1.488 . S
C349 C108 1.493 . S
C364 N48 1.435 . S
C379 C62 1.464 . S
C394 C85 1.441 . S
C409 N81 1.428 . S
C424 N35 1.454 . S
C439 C53 1.506 . S
C454 C76 1.508 . S
C469 N71 1.459 . S
C484 N25 1.508 . S
