# Generated by pormake.
# Topology wkf, (6)-cn, num edge types: 1
# Building blocks:
#     Node 0, Type 0, BuildingBlock: IZENUY_clean_sbu_0, # of connection points: 6
#     Node 1, Type 0, BuildingBlock: IZENUY_clean_sbu_0, # of connection points: 6
#     Node 2, Type 0, BuildingBlock: IZENUY_clean_sbu_0, # of connection points: 6
#     Node 3, Type 0, BuildingBlock: IZENUY_clean_sbu_0, # of connection points: 6
#     Node 4, Type 0, BuildingBlock: IZENUY_clean_sbu_0, # of connection points: 6
#     Node 5, Type 0, BuildingBlock: IZENUY_clean_sbu_0, # of connection points: 6
#     Node 6, Type 0, BuildingBlock: IZENUY_clean_sbu_0, # of connection points: 6
#     Node 7, Type 0, BuildingBlock: IZENUY_clean_sbu_0, # of connection points: 6
#     Node 8, Type 0, BuildingBlock: IZENUY_clean_sbu_0, # of connection points: 6
#     Node 9, Type 0, BuildingBlock: IZENUY_clean_sbu_0, # of connection points: 6
#     Node 10, Type 0, BuildingBlock: IZENUY_clean_sbu_0, # of connection points: 6
#     Node 11, Type 0, BuildingBlock: IZENUY_clean_sbu_0, # of connection points: 6
#     Edge 12, Type (0, 0), BuildingBlock: UVAHIK_clean_linker_0, # of connection points: 2
#     Edge 13, Type (0, 0), BuildingBlock: UVAHIK_clean_linker_0, # of connection points: 2
#     Edge 14, Type (0, 0), BuildingBlock: UVAHIK_clean_linker_0, # of connection points: 2
#     Edge 15, Type (0, 0), BuildingBlock: UVAHIK_clean_linker_0, # of connection points: 2
#     Edge 16, Type (0, 0), BuildingBlock: UVAHIK_clean_linker_0, # of connection points: 2
#     Edge 17, Type (0, 0), BuildingBlock: UVAHIK_clean_linker_0, # of connection points: 2
#     Edge 18, Type (0, 0), BuildingBlock: UVAHIK_clean_linker_0, # of connection points: 2
#     Edge 19, Type (0, 0), BuildingBlock: UVAHIK_clean_linker_0, # of connection points: 2
#     Edge 20, Type (0, 0), BuildingBlock: UVAHIK_clean_linker_0, # of connection points: 2
#     Edge 21, Type (0, 0), BuildingBlock: UVAHIK_clean_linker_0, # of connection points: 2
#     Edge 22, Type (0, 0), BuildingBlock: UVAHIK_clean_linker_0, # of connection points: 2
#     Edge 23, Type (0, 0), BuildingBlock: UVAHIK_clean_linker_0, # of connection points: 2
#     Edge 24, Type (0, 0), BuildingBlock: UVAHIK_clean_linker_0, # of connection points: 2
#     Edge 25, Type (0, 0), BuildingBlock: UVAHIK_clean_linker_0, # of connection points: 2
#     Edge 26, Type (0, 0), BuildingBlock: UVAHIK_clean_linker_0, # of connection points: 2
#     Edge 27, Type (0, 0), BuildingBlock: UVAHIK_clean_linker_0, # of connection points: 2
#     Edge 28, Type (0, 0), BuildingBlock: UVAHIK_clean_linker_0, # of connection points: 2
#     Edge 29, Type (0, 0), BuildingBlock: UVAHIK_clean_linker_0, # of connection points: 2
#     Edge 30, Type (0, 0), BuildingBlock: UVAHIK_clean_linker_0, # of connection points: 2
#     Edge 31, Type (0, 0), BuildingBlock: UVAHIK_clean_linker_0, # of connection points: 2
#     Edge 32, Type (0, 0), BuildingBlock: UVAHIK_clean_linker_0, # of connection points: 2
#     Edge 33, Type (0, 0), BuildingBlock: UVAHIK_clean_linker_0, # of connection points: 2
#     Edge 34, Type (0, 0), BuildingBlock: UVAHIK_clean_linker_0, # of connection points: 2
#     Edge 35, Type (0, 0), BuildingBlock: UVAHIK_clean_linker_0, # of connection points: 2
#     Edge 36, Type (0, 0), BuildingBlock: UVAHIK_clean_linker_0, # of connection points: 2
#     Edge 37, Type (0, 0), BuildingBlock: UVAHIK_clean_linker_0, # of connection points: 2
#     Edge 38, Type (0, 0), BuildingBlock: UVAHIK_clean_linker_0, # of connection points: 2
#     Edge 39, Type (0, 0), BuildingBlock: UVAHIK_clean_linker_0, # of connection points: 2
#     Edge 40, Type (0, 0), BuildingBlock: UVAHIK_clean_linker_0, # of connection points: 2
#     Edge 41, Type (0, 0), BuildingBlock: UVAHIK_clean_linker_0, # of connection points: 2
#     Edge 42, Type (0, 0), BuildingBlock: UVAHIK_clean_linker_0, # of connection points: 2
#     Edge 43, Type (0, 0), BuildingBlock: UVAHIK_clean_linker_0, # of connection points: 2
#     Edge 44, Type (0, 0), BuildingBlock: UVAHIK_clean_linker_0, # of connection points: 2
#     Edge 45, Type (0, 0), BuildingBlock: UVAHIK_clean_linker_0, # of connection points: 2
#     Edge 46, Type (0, 0), BuildingBlock: UVAHIK_clean_linker_0, # of connection points: 2
#     Edge 47, Type (0, 0), BuildingBlock: UVAHIK_clean_linker_0, # of connection points: 2
# Relax obj value: 0.283
# Max RMSD: 0.255
# Mean RMSD: 0.255
data_MOF--net-wkf--node1-IZENUY_clean_sbu_0--edge1-UVAHIK_clean_linker_0
_symmetry_space_group_name_H-M    P1
_symmetry_Int_Tables_number       1
_symmetry_cell_setting            triclinic
loop_
_symmetry_equiv_pos_as_xyz
'x, y, z'
_cell_length_a     34.33074
_cell_length_b     34.294002
_cell_length_c     95.427257
_cell_angle_alpha  89.972343
_cell_angle_beta   90.016616
_cell_angle_gamma 119.94541
loop_
_atom_site_label
_atom_site_type_symbol
_atom_site_fract_x
_atom_site_fract_y
_atom_site_fract_z
_atom_type_partial_charge
Fe0 Fe 0.41649 0.12433 0.3487 0.0
Fe1 Fe 0.32453 0.08556 0.36283 0.0
O2 O 0.38248 0.10396 0.36381 0.0
Fe3 Fe 0.40709 0.10302 0.37997 0.0
O4 O 0.46196 0.1518 0.37601 0.0
O5 O 0.4503 0.17942 0.35674 0.0
O6 O 0.38363 0.14651 0.34033 0.0
C7 C 0.35825 0.15915 0.34576 0.0
C8 C 0.44871 0.0733 0.3624 0.0
O9 O 0.33558 0.1401 0.35655 0.0
C10 C 0.32272 0.02297 0.38078 0.0
O11 O 0.38418 0.07068 0.33995 0.0
O12 O 0.31808 0.06295 0.34502 0.0
O13 O 0.42373 0.06432 0.37302 0.0
O14 O 0.45532 0.10522 0.35425 0.0
C15 C 0.35244 0.13582 0.38773 0.0
O16 O 0.3097 0.03004 0.36919 0.0
O17 O 0.35663 0.05416 0.38693 0.0
C18 C 0.34221 0.05142 0.33807 0.0
O19 O 0.32148 0.10514 0.38045 0.0
O20 O 0.39185 0.14199 0.38754 0.0
C21 C 0.47088 0.18493 0.36817 0.0
Fe22 Fe 0.27464 0.36411 0.53748 0.0
Fe23 Fe 0.26388 0.41145 0.5119 0.0
O24 O 0.24396 0.36322 0.52254 0.0
Fe25 Fe 0.19294 0.31398 0.51827 0.0
O26 O 0.16804 0.31712 0.53453 0.0
O27 O 0.22436 0.32611 0.54778 0.0
O28 O 0.27016 0.4097 0.54518 0.0
C29 C 0.28354 0.44723 0.53941 0.0
C30 C 0.24811 0.27995 0.52822 0.0
O31 O 0.29033 0.452 0.52631 0.0
C32 C 0.23172 0.33963 0.49264 0.0
O33 O 0.33016 0.40289 0.52987 0.0
O34 O 0.31495 0.41103 0.50808 0.0
O35 O 0.20957 0.27494 0.52578 0.0
O36 O 0.28095 0.31845 0.53068 0.0
C37 C 0.1747 0.38363 0.51241 0.0
O38 O 0.24149 0.37957 0.49555 0.0
O39 O 0.21558 0.30896 0.50177 0.0
C40 C 0.34244 0.41366 0.51725 0.0
O41 O 0.21387 0.41465 0.51518 0.0
O42 O 0.16683 0.34398 0.51014 0.0
C43 C 0.1844 0.3186 0.54647 0.0
Fe44 Fe 0.89036 0.29801 0.71205 0.0
Fe45 Fe 0.86015 0.30028 0.68197 0.0
O46 O 0.87952 0.27673 0.69477 0.0
Fe47 Fe 0.88821 0.23146 0.69041 0.0
O48 O 0.84563 0.19483 0.70279 0.0
O49 O 0.87403 0.24336 0.7201 0.0
O50 O 0.83299 0.28378 0.7143 0.0
C51 C 0.81079 0.29485 0.70641 0.0
C52 C 0.96009 0.28356 0.70917 0.0
O53 O 0.82513 0.31123 0.69432 0.0
C54 C 0.92515 0.28635 0.66786 0.0
O55 O 0.90774 0.35637 0.70726 0.0
O56 O 0.90798 0.35539 0.68429 0.0
O57 O 0.93348 0.2465 0.70328 0.0
O58 O 0.94876 0.31299 0.71077 0.0
C59 C 0.81139 0.21273 0.67435 0.0
O60 O 0.89186 0.29296 0.66758 0.0
O61 O 0.93098 0.26602 0.67795 0.0
C62 C 0.91989 0.37665 0.69564 0.0
O63 O 0.81081 0.24706 0.67858 0.0
O64 O 0.84482 0.20761 0.67665 0.0
C65 C 0.84781 0.20383 0.71568 0.0
Fe66 Fe 0.59311 0.85123 0.84416 0.0
Fe67 Fe 0.68552 0.87741 0.85597 0.0
O68 O 0.63401 0.87714 0.85731 0.0
Fe69 Fe 0.6235 0.90214 0.87184 0.0
O70 O 0.5753 0.84983 0.87682 0.0
O71 O 0.54454 0.83238 0.85594 0.0
O72 O 0.58963 0.79816 0.84759 0.0
C73 C 0.62225 0.79144 0.84652 0.0
C74 C 0.58553 0.92494 0.84891 0.0
O75 O 0.66215 0.82413 0.84614 0.0
C76 C 0.71099 0.96278 0.86765 0.0
O77 O 0.63445 0.86557 0.83 0.0
O78 O 0.69944 0.91035 0.84011 0.0
O79 O 0.58891 0.92029 0.86198 0.0
O80 O 0.59427 0.90296 0.84017 0.0
C81 C 0.66345 0.85485 0.88331 0.0
O82 O 0.71828 0.93039 0.86574 0.0
O83 O 0.67148 0.95602 0.86767 0.0
C84 C 0.67473 0.89772 0.82936 0.0
O85 O 0.67291 0.8442 0.87169 0.0
O86 O 0.65548 0.88719 0.88425 0.0
C87 C 0.5423 0.82601 0.86905 0.0
Fe88 Fe 0.6861 0.55428 0.02041 0.0
Fe89 Fe 0.74433 0.65364 0.02823 0.0
O90 O 0.69868 0.5994 0.03194 0.0
Fe91 Fe 0.66577 0.58976 0.04712 0.0
O92 O 0.65483 0.53218 0.04969 0.0
O93 O 0.69783 0.5247 0.03411 0.0
O94 O 0.74368 0.57652 0.01446 0.0
C95 C 0.77963 0.60077 0.02109 0.0
C96 C 0.601 0.5384 0.02826 0.0
O97 O 0.78388 0.63299 0.02852 0.0
C98 C 0.6819 0.67462 0.03757 0.0
O99 O 0.674 0.58252 0.00633 0.0
O100 O 0.73684 0.64689 0.00923 0.0
O101 O 0.6153 0.57114 0.03664 0.0
O102 O 0.62608 0.52344 0.02429 0.0
C103 C 0.75101 0.64446 0.05721 0.0
O104 O 0.70815 0.67799 0.02782 0.0
O105 O 0.67134 0.64561 0.04718 0.0
C106 C 0.7012 0.62227 0.00237 0.0
O107 O 0.75889 0.66931 0.04657 0.0
O108 O 0.71452 0.60772 0.05834 0.0
C109 C 0.67841 0.51507 0.04589 0.0
Fe110 Fe 0.10841 0.78208 0.18914 0.0
Fe111 Fe 0.08786 0.69653 0.20491 0.0
O112 O 0.11084 0.73171 0.19015 0.0
Fe113 Fe 0.1363 0.71727 0.17657 0.0
O114 O 0.18859 0.76929 0.17869 0.0
O115 O 0.15963 0.81346 0.17854 0.0
O116 O 0.14317 0.80408 0.20459 0.0
C117 C 0.13305 0.78408 0.21626 0.0
C118 C 0.08406 0.74903 0.16274 0.0
O119 O 0.10213 0.74325 0.21714 0.0
C120 C 0.06645 0.63396 0.18265 0.0
O121 O 0.05641 0.76058 0.19948 0.0
O122 O 0.03278 0.6886 0.20124 0.0
O123 O 0.11576 0.73991 0.16258 0.0
O124 O 0.07389 0.76213 0.17378 0.0
C125 C 0.16534 0.69389 0.20156 0.0
O126 O 0.07077 0.6438 0.19553 0.0
O127 O 0.0863 0.66384 0.17349 0.0
C128 C 0.02488 0.72066 0.20157 0.0
O129 O 0.14105 0.70223 0.20942 0.0
O130 O 0.16049 0.69196 0.18833 0.0
C131 C 0.19317 0.80782 0.17759 0.0
Fe132 Fe 0.83197 0.58011 0.47546 0.0
Fe133 Fe 0.87904 0.67921 0.46603 0.0
O134 O 0.86421 0.62252 0.46303 0.0
Fe135 Fe 0.8807 0.60737 0.44738 0.0
O136 O 0.83182 0.55108 0.44668 0.0
O137 O 0.78642 0.55079 0.46281 0.0
O138 O 0.80177 0.60741 0.48212 0.0
C139 C 0.79396 0.63618 0.47657 0.0
C140 C 0.896 0.55756 0.46629 0.0
O141 O 0.82057 0.66435 0.46784 0.0
C142 C 0.95631 0.69059 0.45405 0.0
O143 O 0.87526 0.60752 0.48858 0.0
O144 O 0.88621 0.676 0.485 0.0
O145 O 0.913 0.588 0.4571 0.0
O146 O 0.8574 0.54542 0.47129 0.0
C147 C 0.85221 0.66404 0.43779 0.0
O148 O 0.93864 0.69858 0.46441 0.0
O149 O 0.93248 0.6609 0.44518 0.0
C150 C 0.89196 0.64817 0.49224 0.0
O151 O 0.87428 0.69131 0.44754 0.0
O152 O 0.84882 0.62577 0.43708 0.0
C153 C 0.79254 0.53898 0.45086 0.0
Fe154 Fe 0.29952 0.85806 0.63963 0.0
Fe155 Fe 0.22775 0.88053 0.6303 0.0
O156 O 0.27547 0.87574 0.62648 0.0
Fe157 Fe 0.29881 0.88864 0.60948 0.0
O158 O 0.28889 0.83248 0.60726 0.0
O159 O 0.31696 0.82764 0.62748 0.0
O160 O 0.24775 0.80556 0.64202 0.0
C161 C 0.21151 0.80328 0.64573 0.0
C162 C 0.37508 0.92398 0.62709 0.0
O163 O 0.20498 0.83601 0.64366 0.0
C164 C 0.27848 0.95486 0.61227 0.0
O165 O 0.28627 0.88549 0.65401 0.0
O166 O 0.25879 0.92332 0.64322 0.0
O167 O 0.35715 0.90975 0.61522 0.0
O168 O 0.35257 0.90939 0.63817 0.0
C169 C 0.20503 0.8414 0.60467 0.0
O170 O 0.2415 0.92612 0.61772 0.0
O171 O 0.30961 0.94591 0.61065 0.0
C172 C 0.27776 0.91751 0.65367 0.0
O173 O 0.19449 0.83781 0.61746 0.0
O174 O 0.2446 0.86926 0.60067 0.0
C175 C 0.30267 0.8128 0.61526 0.0
Fe176 Fe 0.40213 0.25728 0.80984 0.0
Fe177 Fe 0.30434 0.19043 0.80207 0.0
O178 O 0.35623 0.23971 0.7982 0.0
Fe179 Fe 0.36327 0.27162 0.78291 0.0
O180 O 0.422 0.28648 0.78034 0.0
O181 O 0.43463 0.24816 0.7965 0.0
O182 O 0.38466 0.2015 0.81664 0.0
C183 C 0.36445 0.16472 0.81018 0.0
C184 C 0.41186 0.33955 0.80108 0.0
O185 O 0.33124 0.15612 0.80256 0.0
C186 C 0.27564 0.24708 0.79208 0.0
O187 O 0.37117 0.26728 0.82331 0.0
O188 O 0.30986 0.20092 0.82113 0.0
O189 O 0.37864 0.32223 0.79294 0.0
O190 O 0.42881 0.3167 0.80549 0.0
C191 C 0.31437 0.18528 0.77279 0.0
O192 O 0.27332 0.22049 0.8016 0.0
O193 O 0.30608 0.26167 0.78286 0.0
C194 C 0.33253 0.23815 0.82755 0.0
O195 O 0.2905 0.17263 0.78377 0.0
O196 O 0.3485 0.22386 0.77177 0.0
C197 C 0.44302 0.26707 0.78461 0.0
Fe198 Fe 0.09328 0.3469 0.96029 0.0
Fe199 Fe 0.07964 0.41356 0.94239 0.0
O200 O 0.1021 0.40172 0.95736 0.0
Fe201 Fe 0.13399 0.44521 0.96942 0.0
O202 O 0.16963 0.42254 0.97476 0.0
O203 O 0.15326 0.36723 0.96014 0.0
O204 O 0.09325 0.33382 0.94165 0.0
C205 C 0.10998 0.35999 0.93126 0.0
C206 C 0.08277 0.37578 0.98703 0.0
O207 O 0.11117 0.39735 0.93086 0.0
C208 C 0.06464 0.46178 0.96207 0.0
O209 O 0.03284 0.32272 0.96046 0.0
O210 O 0.02982 0.35764 0.94152 0.0
O211 O 0.09393 0.41526 0.98323 0.0
O212 O 0.0916 0.35076 0.97946 0.0
C213 C 0.16631 0.48867 0.94468 0.0
O214 O 0.04698 0.43045 0.95318 0.0
O215 O 0.10437 0.47615 0.96626 0.0
C216 C 0.01082 0.32666 0.95053 0.0
O217 O 0.12602 0.47157 0.94053 0.0
O218 O 0.17543 0.47691 0.95617 0.0
C219 C 0.18111 0.39862 0.96782 0.0
Fe220 Fe 0.78581 0.10537 0.12899 0.0
Fe221 Fe 0.71197 0.11322 0.11357 0.0
O222 O 0.74174 0.11795 0.12917 0.0
Fe223 Fe 0.72745 0.13538 0.14482 0.0
O224 O 0.78296 0.18303 0.14647 0.0
O225 O 0.81976 0.1468 0.14253 0.0
O226 O 0.81689 0.1492 0.11635 0.0
C227 C 0.80187 0.15151 0.10453 0.0
C228 C 0.74423 0.06614 0.15355 0.0
O229 O 0.76019 0.12847 0.10191 0.0
C230 C 0.64402 0.08068 0.1343 0.0
O231 O 0.76007 0.06202 0.11528 0.0
O232 O 0.69291 0.05385 0.11227 0.0
O233 O 0.74099 0.10062 0.15625 0.0
O234 O 0.75717 0.06095 0.14169 0.0
C235 C 0.72377 0.1921 0.12406 0.0
O236 O 0.65823 0.09774 0.12231 0.0
O237 O 0.67098 0.08849 0.14423 0.0
C238 C 0.71959 0.03883 0.11122 0.0
O239 O 0.72994 0.17209 0.11402 0.0
O240 O 0.7117 0.17366 0.13601 0.0
C241 C 0.81859 0.18118 0.14677 0.0
Fe242 Fe 0.59034 0.67118 0.27831 0.0
Fe243 Fe 0.55169 0.68891 0.305 0.0
O244 O 0.59678 0.70449 0.29324 0.0
Fe245 Fe 0.64871 0.75406 0.29627 0.0
O246 O 0.64329 0.77826 0.28016 0.0
O247 O 0.62823 0.71945 0.26716 0.0
O248 O 0.54553 0.67859 0.27167 0.0
C249 C 0.51033 0.67006 0.27819 0.0
C250 C 0.67498 0.69343 0.28565 0.0
O251 O 0.50775 0.66511 0.2914 0.0
C252 C 0.62859 0.71967 0.32251 0.0
O253 O 0.55065 0.61716 0.28664 0.0
O254 O 0.54763 0.63558 0.30848 0.0
O255 O 0.68277 0.7331 0.28787 0.0
O256 O 0.63524 0.66181 0.28401 0.0
C257 C 0.58575 0.77926 0.30506 0.0
O258 O 0.58803 0.70978 0.32066 0.0
O259 O 0.65634 0.73245 0.31255 0.0
C260 C 0.54097 0.6064 0.2994 0.0
O261 O 0.5524 0.7414 0.30238 0.0
O262 O 0.62486 0.78448 0.30534 0.0
C263 C 0.63936 0.76063 0.26829 0.0
C264 C 0.18483 0.85577 0.22875 0.0
C265 C 0.15539 0.80905 0.22914 0.0
C266 C 0.20647 0.87906 0.24092 0.0
C267 C 0.26647 0.9163 0.26639 0.0
H268 H 0.19871 0.88621 0.30108 0.0
C269 C 0.34723 0.00551 0.31845 0.0
C270 C 0.32158 0.01882 0.3265 0.0
C271 C 0.32788 0.97634 0.30711 0.0
C272 C 0.21805 0.89509 0.29147 0.0
H273 H 0.12622 0.74997 0.24253 0.0
H274 H 0.16445 0.79055 0.2637 0.0
H275 H 0.16313 0.84353 0.27994 0.0
H276 H 0.25524 0.01107 0.32916 0.0
H277 H 0.22193 0.96106 0.3093 0.0
H278 H 0.32077 0.96912 0.27781 0.0
C279 C 0.17013 0.80932 0.25406 0.0
C280 C 0.19783 0.87031 0.27939 0.0
C281 C 0.14831 0.78606 0.24192 0.0
C282 C 0.276 0.00154 0.32318 0.0
C283 C 0.25676 0.97256 0.31184 0.0
C284 C 0.28664 0.94122 0.27847 0.0
C285 C 0.19936 0.85608 0.25371 0.0
C286 C 0.22165 0.88098 0.26668 0.0
C287 C 0.28255 0.95994 0.3036 0.0
C288 C 0.26243 0.93124 0.29109 0.0
H289 H 0.19102 0.87445 0.21907 0.0
H290 H 0.22826 0.9152 0.24035 0.0
H291 H 0.28592 0.92491 0.25681 0.0
H292 H 0.38235 0.01793 0.32082 0.0
H293 H 0.34844 0.96671 0.30106 0.0
C294 C 0.21442 0.2849 0.47324 0.0
C295 C 0.23983 0.32888 0.47843 0.0
C296 C 0.22606 0.27316 0.46059 0.0
C297 C 0.32411 0.2961 0.44187 0.0
H298 H 0.24203 0.22377 0.41239 0.0
C299 C 0.37499 0.20767 0.40037 0.0
C300 C 0.34165 0.16385 0.39676 0.0
C301 C 0.36396 0.23517 0.40821 0.0
C302 C 0.26532 0.24369 0.42059 0.0
H303 H 0.29613 0.39557 0.47433 0.0
H304 H 0.3174 0.37441 0.45233 0.0
H305 H 0.21801 0.25972 0.42974 0.0
H306 H 0.27096 0.11408 0.39858 0.0
H307 H 0.25209 0.16094 0.41282 0.0
H308 H 0.37024 0.27759 0.43352 0.0
C309 C 0.28811 0.34945 0.45796 0.0
C310 C 0.25166 0.26457 0.43039 0.0
C311 C 0.27587 0.36148 0.47048 0.0
C312 C 0.29728 0.14783 0.40119 0.0
C313 C 0.2864 0.17496 0.4092 0.0
C314 C 0.33752 0.27458 0.43222 0.0
C315 C 0.26378 0.305 0.45309 0.0
C316 C 0.28058 0.28999 0.44129 0.0
C317 C 0.31951 0.21907 0.41274 0.0
C318 C 0.30777 0.24703 0.42171 0.0
H319 H 0.18641 0.25925 0.47917 0.0
H320 H 0.20714 0.23854 0.45708 0.0
H321 H 0.34675 0.31518 0.45031 0.0
H322 H 0.40937 0.22105 0.39686 0.0
H323 H 0.39019 0.26914 0.41059 0.0
C324 C 0.9403 0.30318 0.64228 0.0
C325 C 0.95432 0.29676 0.65548 0.0
C326 C 0.96606 0.30814 0.63038 0.0
C327 C 0.07888 0.33586 0.61853 0.0
H328 H 0.01547 0.25782 0.58717 0.0
C329 C 0.173 0.31183 0.57247 0.0
C330 C 0.15655 0.31185 0.55899 0.0
C331 C 0.148 0.3095 0.5843 0.0
C332 C 0.03362 0.2802 0.59577 0.0
H333 H 0.0073 0.29292 0.66672 0.0
H334 H 0.05222 0.30182 0.64597 0.0
H335 H 0.97332 0.25902 0.60755 0.0
H336 H 0.10066 0.30873 0.54734 0.0
H337 H 0.05759 0.30532 0.56792 0.0
H338 H 0.13915 0.35732 0.60673 0.0
C339 C 0.02135 0.30285 0.64481 0.0
C340 C 0.00947 0.28094 0.60741 0.0
C341 C -0.00452 0.29748 0.65666 0.0
C342 C 0.11421 0.30847 0.55758 0.0
C343 C 0.08938 0.30636 0.56938 0.0
C344 C 0.10303 0.33536 0.60684 0.0
C345 C 0.00645 0.30732 0.63153 0.0
C346 C 0.0319 0.30863 0.61891 0.0
C347 C 0.1062 0.30735 0.58287 0.0
C348 C 0.08066 0.30739 0.59536 0.0
H349 H 0.90874 0.30281 0.64106 0.0
H350 H 0.95413 0.31202 0.62025 0.0
H351 H 0.09689 0.35776 0.62723 0.0
H352 H 0.20548 0.31435 0.5739 0.0
H353 H 0.1615 0.3096 0.59456 0.0
C354 C 0.83197 0.17702 0.74032 0.0
C355 C 0.82407 0.16742 0.72596 0.0
C356 C 0.8105 0.14315 0.7502 0.0
C357 C 0.75583 0.02135 0.75508 0.0
H358 H 0.72016 0.05134 0.79021 0.0
C359 C 0.66851 0.9032 0.80342 0.0
C360 C 0.6923 0.92127 0.81597 0.0
C361 C 0.68192 0.9285 0.79109 0.0
C362 C 0.72989 0.04259 0.78042 0.0
H363 H 0.78697 0.11481 0.71068 0.0
H364 H 0.74872 0.05522 0.72814 0.0
H365 H 0.74461 0.10464 0.77083 0.0
H366 H 0.74982 0.97895 0.82534 0.0
H367 H 0.77261 0.02328 0.80384 0.0
H368 H 0.74071 0.95894 0.7649 0.0
C369 C 0.77208 0.08906 0.73165 0.0
C370 C 0.74395 0.073 0.76937 0.0
C371 C 0.79384 0.12313 0.72168 0.0
C372 C 0.73086 0.96413 0.81584 0.0
C373 C 0.7438 0.98955 0.80359 0.0
C374 C 0.74109 0.99053 0.76614 0.0
C375 C 0.78022 0.09888 0.746 0.0
C376 C 0.75856 0.0634 0.75676 0.0
C377 C 0.71881 0.9723 0.79125 0.0
C378 C 0.72944 0.00173 0.77899 0.0
H379 H 0.85522 0.2107 0.74398 0.0
H380 H 0.8183 0.1516 0.76117 0.0
H381 H 0.76705 0.01317 0.74549 0.0
H382 H 0.63875 0.87013 0.80321 0.0
H383 H 0.66231 0.91477 0.78163 0.0
C384 C 0.67281 0.84845 0.90913 0.0
C385 C 0.66171 0.82879 0.89578 0.0
C386 C 0.672 0.82302 0.92072 0.0
C387 C 0.67225 0.71718 0.92949 0.0
H388 H 0.64518 0.74186 0.96676 0.0
C389 C 0.662 0.6141 0.97935 0.0
C390 C 0.6919 0.64148 0.98984 0.0
C391 C 0.65336 0.63364 0.96774 0.0
C392 C 0.65252 0.73452 0.95637 0.0
H393 H 0.63859 0.76684 0.88412 0.0
H394 H 0.6351 0.72212 0.90429 0.0
H395 H 0.63867 0.78258 0.94675 0.0
H396 H 0.73506 0.71056 -0.00339 0.0
H397 H 0.71923 0.7442 0.97656 0.0
H398 H 0.68548 0.66863 0.93924 0.0
C399 C 0.64648 0.75748 0.90585 0.0
C400 C 0.64927 0.75811 0.94492 0.0
C401 C 0.64828 0.78307 0.89428 0.0
C402 C 0.71228 0.68851 0.98862 0.0
C403 C 0.70295 0.70785 0.97723 0.0
C404 C 0.67468 0.69305 0.94091 0.0
C405 C 0.65906 0.77721 0.9192 0.0
C406 C 0.65985 0.75032 0.93134 0.0
C407 C 0.67357 0.68068 0.96668 0.0
C408 C 0.66561 0.70211 0.95446 0.0
H409 H 0.68323 0.88367 0.91053 0.0
H410 H 0.68253 0.83962 0.93078 0.0
H411 H 0.68152 0.71074 0.91927 0.0
H412 H 0.64569 0.57778 0.98007 0.0
H413 H 0.63058 0.61212 0.95966 0.0
C414 C 0.05816 0.71916 0.13846 0.0
C415 C 0.05846 0.7451 0.1499 0.0
C416 C 0.02919 0.7112 0.12714 0.0
C417 C 0.94042 0.67334 0.11119 0.0
H418 H 0.91523 0.76528 0.0978 0.0
C419 C 0.78085 0.63031 0.07947 0.0
C420 C 0.78607 0.65854 0.06809 0.0
C421 C 0.81615 0.64208 0.08891 0.0
C422 C 0.92211 0.73928 0.10131 0.0
H423 H 0.03035 0.78484 0.15813 0.0
H424 H 0.98009 0.7708 0.1386 0.0
H425 H 0.97716 0.78562 0.11399 0.0
H426 H 0.83227 0.72152 0.05781 0.0
H427 H 0.89356 0.74159 0.0741 0.0
H428 H 0.88556 0.62708 0.09836 0.0
C429 C 0.0022 0.75677 0.13825 0.0
C430 C 0.95739 0.75089 0.11067 0.0
C431 C 0.03084 0.76453 0.14951 0.0
C432 C 0.82693 0.69909 0.06651 0.0
C433 C 0.86213 0.71072 0.07588 0.0
C434 C 0.90516 0.66173 0.10177 0.0
C435 C 0.00041 0.72938 0.12706 0.0
C436 C 0.96648 0.71794 0.11588 0.0
C437 C 0.85732 0.68223 0.08712 0.0
C438 C 0.8953 0.6945 0.09687 0.0
H439 H 0.079 0.70368 0.13849 0.0
H440 H 0.02876 0.69029 0.11858 0.0
H441 H 0.94633 0.64713 0.11514 0.0
H442 H 0.74987 0.59874 0.08094 0.0
H443 H 0.81122 0.61975 0.0976 0.0
C444 C 0.17687 0.8333 0.58023 0.0
C445 C 0.16997 0.81719 0.59405 0.0
C446 C 0.14417 0.81079 0.57005 0.0
C447 C 0.02367 0.72777 0.56521 0.0
H448 H 0.0635 0.72775 0.52716 0.0
C449 C 0.9148 0.63295 0.51563 0.0
C450 C 0.91837 0.66375 0.50526 0.0
C451 C 0.94226 0.64793 0.52751 0.0
C452 C 0.05208 0.72742 0.53777 0.0
H453 H 0.12363 0.76478 0.60808 0.0
H454 H 0.06673 0.72432 0.59009 0.0
H455 H 0.11872 0.75929 0.54596 0.0
H456 H 0.9529 0.73422 0.49925 0.0
H457 H 0.00161 0.75997 0.51983 0.0
H458 H 0.95667 0.69488 0.55678 0.0
C459 C 0.09706 0.755 0.58722 0.0
C460 C 0.08356 0.74575 0.54851 0.0
C461 C 0.12965 0.77802 0.5975 0.0
C462 C 0.94922 0.70975 0.5071 0.0
C463 C 0.97713 0.72451 0.51881 0.0
C464 C -0.00797 0.70866 0.55444 0.0
C465 C 0.10407 0.77111 0.57336 0.0
C466 C 0.06989 0.74727 0.5623 0.0
C467 C 0.97408 0.69367 0.52899 0.0
C468 C 0.00628 0.70936 0.54064 0.0
H469 H 0.20736 0.86376 0.57729 0.0
H470 H 0.15024 0.82492 0.5596 0.0
H471 H 0.01201 0.72868 0.57568 0.0
H472 H 0.89121 0.59731 0.51449 0.0
H473 H 0.93971 0.62375 0.53529 0.0
C474 C 0.2807 0.92576 0.67971 0.0
C475 C 0.28337 0.94411 0.66636 0.0
C476 C 0.28117 0.9494 0.69168 0.0
C477 C 0.26224 0.04262 0.70251 0.0
H478 H 0.32059 0.03868 0.73686 0.0
C479 C 0.31504 0.17153 0.74723 0.0
C480 C 0.30247 0.15433 0.76086 0.0
C481 C 0.30745 0.14265 0.73601 0.0
C482 C 0.30371 0.03952 0.72737 0.0
H483 H 0.29111 0.00224 0.65497 0.0
H484 H 0.29413 0.04443 0.67581 0.0
H485 H 0.32096 -0.00425 0.71651 0.0
H486 H 0.27175 0.09367 0.7735 0.0
H487 H 0.2595 0.04299 0.75376 0.0
H488 H 0.24702 0.08822 0.71327 0.0
C489 C 0.28973 0.0111 0.67711 0.0
C490 C 0.30383 0.01495 0.71572 0.0
C491 C 0.28845 0.98716 0.66517 0.0
C492 C 0.2814 0.10766 0.76306 0.0
C493 C 0.27466 0.0788 0.75184 0.0
C494 C 0.26281 0.06771 0.71407 0.0
C495 C 0.28506 0.99211 0.6905 0.0
C496 C 0.28354 0.01664 0.7031 0.0
C497 C 0.28797 0.09621 0.73827 0.0
C498 C 0.28387 0.06662 0.72652 0.0
H499 H 0.27641 0.89242 0.68089 0.0
H500 H 0.27709 0.93358 0.70181 0.0
H501 H 0.24523 0.04378 0.6931 0.0
H502 H 0.33128 0.2074 0.74527 0.0
H503 H 0.31822 0.15674 0.72562 0.0
C504 C 0.16216 0.37887 0.9109 0.0
C505 C 0.12862 0.34633 0.91956 0.0
C506 C 0.18344 0.36625 0.90088 0.0
C507 C 0.20425 0.27251 0.89235 0.0
H508 H 0.24621 0.3363 0.85709 0.0
C509 C 0.27287 0.21487 0.84595 0.0
C510 C 0.31261 0.24851 0.8397 0.0
C511 C 0.25115 0.22601 0.85625 0.0
C512 C 0.23492 0.31844 0.86696 0.0
H513 H 0.08941 0.27494 0.92408 0.0
H514 H 0.12507 0.25269 0.90622 0.0
H515 H 0.2042 0.35663 0.87322 0.0
H516 H 0.36133 0.32003 0.83961 0.0
H517 H 0.32305 0.33932 0.85749 0.0
H518 H 0.23415 0.23357 0.88579 0.0
C519 C 0.13623 0.28812 0.90747 0.0
C520 C 0.21097 0.33013 0.87622 0.0
C521 C 0.11548 0.30081 0.91763 0.0
C522 C 0.33089 0.29326 0.84426 0.0
C523 C 0.30884 0.30443 0.8544 0.0
C524 C 0.22766 0.26042 0.88298 0.0
C525 C 0.17114 0.32074 0.89916 0.0
C526 C 0.19552 0.30749 0.88908 0.0
C527 C 0.26843 0.27103 0.86032 0.0
C528 C 0.24345 0.2835 0.87025 0.0
H529 H 0.17328 0.41427 0.91226 0.0
H530 H 0.21056 0.39241 0.89482 0.0
H531 H 0.19372 0.2549 0.90226 0.0
H532 H 0.25793 0.18012 0.84264 0.0
H533 H 0.21993 0.19969 0.86065 0.0
C534 C 0.81797 0.18076 0.07996 0.0
C535 C 0.83365 0.17889 0.0934 0.0
C536 C 0.8481 0.20677 0.06947 0.0
C537 C 0.91682 0.28358 0.05165 0.0
H538 H 0.02492 0.27589 0.04666 0.0
C539 C 0.04688 0.38413 0.0088 0.0
C540 C 0.06066 0.35892 0.00072 0.0
C541 C 0.0231 0.36656 0.02125 0.0
C542 C -0.00512 0.27838 0.04794 0.0
H543 H 0.89319 0.20351 0.10646 0.0
H544 H 0.94565 0.24895 0.08813 0.0
H545 H 0.97424 0.236 0.06605 0.0
H546 H 0.06136 0.29604 -0.00045 0.0
H547 H 0.01967 0.26538 0.02116 0.0
H548 H 0.93664 0.32465 0.03325 0.0
C549 C 0.91013 0.22986 0.08568 0.0
C550 C 0.9661 0.2559 0.05911 0.0
C551 C 0.88003 0.20391 0.09618 0.0
C552 C 0.05126 0.31635 0.00552 0.0
C553 C 0.02763 0.29888 0.01796 0.0
C554 C 0.94564 0.30612 0.0405 0.0
C555 C 0.89447 0.23144 0.07222 0.0
C556 C 0.92645 0.25774 0.06094 0.0
C557 C 0.0128 0.32353 0.02585 0.0
C558 C 0.98459 0.30317 0.03841 0.0
H559 H 0.78245 0.16198 0.0775 0.0
H560 H 0.83513 0.20691 0.05913 0.0
H561 H 0.88675 0.28602 0.05293 0.0
H562 H 0.05362 0.41708 0.00538 0.0
H563 H 0.01242 0.38644 0.02721 0.0
C564 C 0.65522 0.77373 0.24251 0.0
C565 C 0.65202 0.78974 0.25577 0.0
C566 C 0.66795 0.80208 0.23082 0.0
C567 C 0.72487 0.92265 0.22135 0.0
H568 H 0.66071 0.88024 0.18617 0.0
C569 C 0.73005 0.04263 0.17866 0.0
C570 C 0.736 0.03325 0.16476 0.0
C571 C 0.72243 0.01169 0.18928 0.0
C572 C 0.67927 0.89233 0.19589 0.0
H573 H 0.65858 0.84766 0.2671 0.0
H574 H 0.67995 0.8965 0.24679 0.0
H575 H 0.6425 0.8277 0.20568 0.0
H576 H 0.73805 0.9838 0.15104 0.0
H577 H 0.72442 0.92957 0.16967 0.0
H578 H 0.76078 0.98747 0.2117 0.0
C579 C 0.67375 0.86251 0.24543 0.0
C580 C 0.66894 0.86229 0.20703 0.0
C581 C 0.66122 0.83436 0.25707 0.0
C582 C 0.73379 0.9921 0.16167 0.0
C583 C 0.72578 0.96096 0.17229 0.0
C584 C 0.73498 0.95264 0.21027 0.0
C585 C 0.67759 0.84685 0.2322 0.0
C586 C 0.69109 0.87739 0.21995 0.0
C587 C 0.72024 0.97061 0.18619 0.0
C588 C 0.71176 0.93793 0.19752 0.0
H589 H 0.64831 0.73949 0.24118 0.0
H590 H 0.67083 0.78918 0.22075 0.0
H591 H 0.74322 0.93505 0.23109 0.0
H592 H 0.73144 0.07397 0.18139 0.0
H593 H 0.71765 0.01968 0.1999 0.0
C594 C 0.84356 0.72177 0.42425 0.0
C595 C 0.82901 0.67647 0.42728 0.0
C596 C 0.82021 0.73283 0.41451 0.0
C597 C 0.71091 0.69152 0.39806 0.0
H598 H 0.77677 0.75833 0.36522 0.0
C599 C 0.62405 0.68573 0.34592 0.0
C600 C 0.64572 0.72214 0.33671 0.0
C601 C 0.64428 0.68607 0.35867 0.0
C602 C 0.75784 0.74068 0.37445 0.0
H603 H 0.77805 0.60736 0.42297 0.0
H604 H 0.73711 0.62678 0.40612 0.0
H605 H 0.81704 0.74903 0.38467 0.0
H606 H 0.70286 0.78892 0.33379 0.0
H607 H 0.73694 0.79089 0.35634 0.0
H608 H 0.65163 0.6831 0.38794 0.0
C609 C 0.76664 0.65358 0.41117 0.0
C610 C 0.78104 0.73523 0.38555 0.0
C611 C 0.7904 0.64252 0.42065 0.0
C612 C 0.68607 0.76016 0.34072 0.0
C613 C 0.70565 0.76107 0.35358 0.0
C614 C 0.68769 0.69766 0.38706 0.0
C615 C 0.78146 0.69875 0.40799 0.0
C616 C 0.75762 0.70971 0.39726 0.0
C617 C 0.68596 0.72336 0.36248 0.0
C618 C 0.71076 0.72139 0.37496 0.0
H619 H 0.87313 0.74853 0.42928 0.0
H620 H 0.83218 0.76791 0.41213 0.0
H621 H 0.69231 0.67191 0.4071 0.0
H622 H 0.59288 0.65607 0.34293 0.0
H623 H 0.6283 0.65621 0.36515 0.0
C624 C 0.53536 0.81079 0.30961 0.0
C625 C 0.57794 0.81469 0.31074 0.0
C626 C 0.52616 0.84103 0.31654 0.0
C627 C 0.50652 0.88846 0.33959 0.0
H628 H 0.59165 0.01652 0.34071 0.0
C629 C 0.46353 0.01022 0.36763 0.0
C630 C 0.47198 0.04786 0.35953 0.0
C631 C 0.48232 0.98379 0.36384 0.0
C632 C 0.56759 0.9808 0.34051 0.0
H633 H 0.6448 0.85427 0.31961 0.0
H634 H 0.62847 0.90672 0.33186 0.0
H635 H 0.61168 0.96647 0.3286 0.0
H636 H 0.5084 0.08852 0.34151 0.0
H637 H 0.54015 0.04222 0.33481 0.0
H638 H 0.4615 0.90298 0.35083 0.0
C639 C 0.60235 0.88056 0.32551 0.0
C640 C 0.57918 0.95211 0.33367 0.0
C641 C 0.61168 0.8505 0.31848 0.0
C642 C 0.50107 0.05967 0.34797 0.0
C643 C 0.51969 0.03332 0.34419 0.0
C644 C 0.49482 0.91715 0.34634 0.0
C645 C 0.55923 0.87557 0.32483 0.0
C646 C 0.54836 0.90577 0.33288 0.0
C647 C 0.50981 -0.00541 0.35189 0.0
C648 C 0.52486 0.96374 0.34661 0.0
H649 H 0.50882 0.78379 0.3036 0.0
H650 H 0.49295 0.83706 0.31551 0.0
H651 H 0.48244 0.85274 0.33942 0.0
H652 H 0.4414 0.0004 0.37663 0.0
H653 H 0.47455 0.95437 0.37006 0.0
C654 C 0.40394 0.44846 0.49958 0.0
C655 C 0.3906 0.43807 0.51365 0.0
C656 C 0.44897 0.47682 0.49618 0.0
C657 C 0.56336 0.52231 0.50965 0.0
H658 H 0.59305 0.61378 0.48115 0.0
C659 C 0.74505 0.6363 0.49538 0.0
C660 C 0.75358 0.63672 0.48101 0.0
C661 C 0.70189 0.62326 0.50007 0.0
C662 C 0.5852 0.58844 0.48912 0.0
H663 H 0.41419 0.44788 0.53516 0.0
H664 H 0.49302 0.49743 0.52919 0.0
H665 H 0.51459 0.56479 0.48796 0.0
H666 H 0.72566 0.6277 0.46016 0.0
H667 H 0.64935 0.60344 0.46834 0.0
H668 H 0.6334 0.54475 0.5106 0.0
C669 C 0.46855 0.48355 0.52081 0.0
C670 C 0.5404 0.56031 0.49298 0.0
C671 C 0.42344 0.4551 0.52422 0.0
C672 C 0.71958 0.62795 0.4713 0.0
C673 C 0.67602 0.61408 0.476 0.0
C674 C 0.60799 0.55031 0.5058 0.0
C675 C 0.48157 0.4953 0.50678 0.0
C676 C 0.52907 0.52663 0.50316 0.0
C677 C 0.66642 0.6093 0.49045 0.0
C678 C 0.6194 0.58341 0.49542 0.0
H679 H 0.37945 0.43553 0.49118 0.0
H680 H 0.45823 0.48444 0.48525 0.0
H681 H 0.55559 0.49626 0.51737 0.0
H682 H 0.77113 0.64314 0.503 0.0
H683 H 0.69566 0.621 0.51125 0.0
C684 C 0.18624 0.72839 0.65678 0.0
C685 C 0.17966 0.76515 0.65448 0.0
C686 C 0.1571 0.69305 0.66543 0.0
C687 C 0.0417 0.63674 0.67809 0.0
H688 H 0.08393 0.56949 0.69982 0.0
C689 C 0.94442 0.44792 0.68269 0.0
C690 C 0.94487 0.42615 0.6951 0.0
C691 C 0.96915 0.49448 0.68167 0.0
C692 C 0.07155 0.58842 0.69412 0.0
H693 H 0.13772 0.794 0.65963 0.0
H694 H 0.08679 0.73208 0.67477 0.0
H695 H 0.13791 0.64382 0.69082 0.0
H696 H 0.9705 0.43605 0.71635 0.0
H697 H 0.01506 0.5184 0.71442 0.0
H698 H 0.97554 0.58066 0.68095 0.0
C699 C 0.11437 0.73059 0.66979 0.0
C700 C 0.10246 0.63066 0.6888 0.0
C701 C 0.14347 0.76595 0.66109 0.0
C702 C 0.96969 0.45207 0.70665 0.0
C703 C -0.00493 0.49899 0.70556 0.0
C704 C 0.01084 0.59461 0.68343 0.0
C705 C 0.12083 0.69373 0.67201 0.0
C706 C 0.08798 0.6542 0.68017 0.0
C707 C -0.0048 0.52048 0.693 0.0
C708 C 0.02573 0.56916 0.69088 0.0
H709 H 0.21375 0.72672 0.65182 0.0
H710 H 0.16236 0.66462 0.66666 0.0
H711 H 0.02945 0.65402 0.67149 0.0
H712 H 0.92532 0.42894 0.67363 0.0
H713 H 0.96927 0.51 0.67176 0.0
C714 C 0.42766 0.1514 0.81452 0.0
C715 C 0.38182 0.13345 0.81151 0.0
C716 C 0.44567 0.12341 0.81618 0.0
C717 C 0.41926 0.01421 0.82811 0.0
H718 H 0.5359 0.04841 0.81209 0.0
C719 C 0.54047 0.96323 0.85282 0.0
C720 C 0.56336 0.9495 0.84367 0.0
C721 C 0.51511 0.98152 0.84752 0.0
C722 C 0.50308 0.03795 0.81652 0.0
H723 H 0.31887 0.0722 0.80753 0.0
H724 H 0.35063 0.02227 0.8109 0.0
H725 H 0.49469 0.08479 0.80391 0.0
H726 H 0.57883 0.94555 0.82181 0.0
H727 H 0.53467 0.97724 0.81264 0.0
H728 H 0.42823 0.96806 0.84097 0.0
C729 C 0.37234 0.05834 0.81185 0.0
C730 C 0.47958 0.05883 0.81185 0.0
C731 C 0.35428 0.08672 0.80992 0.0
C732 C 0.56152 0.95571 0.82917 0.0
C733 C 0.53626 0.97394 0.82389 0.0
C734 C 0.44289 0.99332 0.83282 0.0
C735 C 0.41824 0.07668 0.81499 0.0
C736 C 0.4381 0.04805 0.81788 0.0
C737 C 0.51237 0.98655 0.83298 0.0
C738 C 0.48552 0.00582 0.8273 0.0
H739 H 0.44987 0.18737 0.81562 0.0
H740 H 0.481 0.13836 0.81877 0.0
H741 H 0.38746 0.00562 0.83298 0.0
H742 H 0.54117 0.95881 0.86404 0.0
H743 H 0.4977 0.9918 0.85478 0.0
C744 C 0.23728 0.37228 0.96895 0.0
C745 C 0.2271 0.40712 0.9695 0.0
C746 C 0.28058 0.38106 0.97236 0.0
C747 C 0.39693 0.47429 0.97856 0.0
H748 H 0.3973 0.40029 0.00927 0.0
C749 C 0.53422 0.54263 0.02027 0.0
C750 C 0.5552 0.51713 0.02264 0.0
C751 C 0.49462 0.5245 0.01247 0.0
C752 C 0.39769 0.42087 0.00059 0.0
H753 H 0.25422 0.47865 0.97279 0.0
H754 H 0.32903 0.49387 0.9787 0.0
H755 H 0.32873 0.3756 -0.00442 0.0
H756 H 0.5502 0.45204 0.01963 0.0
H757 H 0.48031 0.4201 0.00628 0.0
H758 H 0.46513 0.52072 0.9841 0.0
C759 C 0.30419 0.45991 0.97571 0.0
C760 C 0.35872 0.40658 0.99267 0.0
C761 C 0.26116 0.45109 0.97252 0.0
C762 C 0.53464 0.47241 0.01787 0.0
C763 C 0.49478 0.45412 0.01026 0.0
C764 C 0.43564 0.48874 0.98656 0.0
C765 C 0.31408 0.42486 0.97605 0.0
C766 C 0.35757 0.43402 0.98193 0.0
C767 C 0.47528 0.4805 0.00714 0.0
C768 C 0.43577 0.46286 -0.00209 0.0
H769 H 0.21142 0.33814 0.96656 0.0
H770 H 0.28755 0.35354 0.9725 0.0
H771 H 0.39707 0.4957 0.97019 0.0
H772 H 0.54964 0.57725 0.02377 0.0
H773 H 0.47959 0.54515 0.01033 0.0
C774 C 0.01765 0.55223 0.18799 0.0
C775 C 0.04486 0.58626 0.17847 0.0
C776 C 0.00146 0.50712 0.18465 0.0
C777 C 0.98178 0.43078 0.15478 0.0
H778 H 0.96893 0.34805 0.18454 0.0
C779 C 0.89818 0.24181 0.14449 0.0
C780 C 0.8588 0.21983 0.15251 0.0
C781 C 0.93207 0.28497 0.14827 0.0
C782 C 0.97299 0.37096 0.17611 0.0
H783 H 0.07595 0.59973 0.1579 0.0
H784 H 0.04855 0.5212 0.15221 0.0
H785 H 0.00478 0.42852 0.18948 0.0
H786 H 0.82494 0.22292 0.17125 0.0
H787 H 0.88462 0.29754 0.17812 0.0
H788 H 0.94929 0.37297 0.1415 0.0
C789 C 0.039 0.52918 0.16215 0.0
C790 C -0.00707 0.41689 0.17895 0.0
C791 C 0.05469 0.57425 0.16542 0.0
C792 C 0.85527 0.23945 0.16497 0.0
C793 C 0.88943 0.28196 0.16891 0.0
C794 C 0.9624 0.38494 0.15191 0.0
C795 C 0.01262 0.4951 0.17179 0.0
C796 C -0.00381 0.44713 0.16842 0.0
C797 C 0.92714 0.30589 0.16027 0.0
C798 C 0.95661 0.35454 0.16265 0.0
H799 H 0.00931 0.56047 0.1981 0.0
H800 H 0.98019 0.48168 0.19216 0.0
H801 H 0.98333 0.45296 0.14645 0.0
H802 H 0.90114 0.22726 0.13475 0.0
H803 H 0.96091 0.30293 0.14146 0.0
C804 C 0.9611 0.54439 0.4645 0.0
C805 C 0.92023 0.5344 0.47083 0.0
C806 C 0.98535 0.52454 0.46942 0.0
C807 C 0.97665 0.43078 0.49077 0.0
H808 H 0.10545 0.50934 0.49431 0.0
C809 C 0.14515 0.43621 0.51519 0.0
C810 C 0.13962 0.39551 0.50994 0.0
C811 C 0.1146 0.45012 0.51174 0.0
C812 C 0.06946 0.48706 0.49356 0.0
H813 H 0.87231 0.49522 0.48711 0.0
H814 H 0.91508 0.46113 0.4958 0.0
H815 H 0.05962 0.53929 0.48526 0.0
H816 H 0.09658 0.33621 0.49762 0.0
H817 H 0.04362 0.36116 0.49125 0.0
H818 H 0.98665 0.37872 0.49935 0.0
C819 C 0.92799 0.48375 0.48692 0.0
C820 C 0.0433 0.50407 0.48817 0.0
C821 C 0.90362 0.50346 0.48197 0.0
C822 C 0.1017 0.36784 0.50176 0.0
C823 C 0.07129 0.38201 0.49818 0.0
C824 C 0.00289 0.41373 0.49622 0.0
C825 C 0.96936 0.49455 0.4808 0.0
C826 C -0.00329 0.47608 0.48662 0.0
C827 C 0.07816 0.42385 0.50285 0.0
C828 C 0.04958 0.44174 0.49764 0.0
H829 H 0.97469 0.56794 0.45586 0.0
H830 H 0.0168 0.5329 0.46435 0.0
H831 H 0.94079 0.40839 0.48962 0.0
H832 H 0.17364 0.4578 0.52176 0.0
H833 H 0.12011 0.482 0.51578 0.0
C834 C 0.44061 0.98115 0.64053 0.0
C835 C 0.42367 0.95553 0.62827 0.0
C836 C 0.4865 0.01018 0.6421 0.0
C837 C 0.59569 0.02895 0.63259 0.0
H838 H 0.634 0.14895 0.64652 0.0
C839 C 0.75563 0.13588 0.66569 0.0
C840 C 0.77587 0.18278 0.66465 0.0
C841 C 0.71753 0.10828 0.65764 0.0
C842 C 0.62428 0.11594 0.64237 0.0
H843 H 0.44132 0.93998 0.60803 0.0
H844 H 0.52257 0.99088 0.61094 0.0
H845 H 0.55686 0.10143 0.63899 0.0
H846 H 0.77603 0.23789 0.65347 0.0
H847 H 0.71081 0.19 0.63914 0.0
H848 H 0.66317 0.04322 0.63643 0.0
C849 C 0.49987 0.98834 0.61923 0.0
C850 C 0.57997 0.08865 0.63818 0.0
C851 C 0.45358 0.95959 0.61756 0.0
C852 C 0.76015 0.20171 0.65468 0.0
C853 C 0.72289 0.17432 0.64648 0.0
C854 C 0.64032 0.05636 0.63686 0.0
C855 C 0.51651 0.01395 0.63151 0.0
C856 C 0.565 0.04459 0.63362 0.0
C857 C 0.6999 0.12746 0.64833 0.0
C858 C 0.65474 0.09982 0.64207 0.0
H859 H 0.41835 0.97884 0.64894 0.0
H860 H 0.49864 0.02928 0.65173 0.0
H861 H 0.58467 -0.0051 0.62915 0.0
H862 H 0.76755 0.12075 0.67329 0.0
H863 H 0.7004 0.07226 0.65934 0.0
C864 C 0.63587 0.73828 0.83245 0.0
C865 C 0.61188 0.74586 0.84296 0.0
C866 C 0.61868 0.69523 0.82678 0.0
C867 C 0.57939 0.59424 0.82088 0.0
H868 H 0.45052 0.53532 0.81461 0.0
C869 C 0.47092 0.40528 0.8139 0.0
C870 C 0.43559 0.388 0.80413 0.0
C871 C 0.4954 0.45108 0.81658 0.0
C872 C 0.48659 0.55164 0.81604 0.0
H873 H 0.55437 0.71478 0.85687 0.0
H874 H 0.52514 0.63954 0.84729 0.0
H875 H 0.49002 0.6114 0.82401 0.0
H876 H 0.39779 0.40503 0.78959 0.0
H877 H 0.44094 0.48598 0.79439 0.0
H878 H 0.57578 0.53418 0.81297 0.0
C879 C 0.55611 0.66677 0.84306 0.0
C880 C 0.50908 0.59484 0.82162 0.0
C881 C 0.57299 0.70958 0.84861 0.0
C882 C 0.42483 0.41749 0.79718 0.0
C883 C 0.44951 0.46365 0.7999 0.0
C884 C 0.55687 0.55095 0.81527 0.0
C885 C 0.57764 0.65967 0.83167 0.0
C886 C 0.55536 0.6159 0.82448 0.0
C887 C 0.48515 0.48073 0.80957 0.0
C888 C 0.51007 0.52886 0.8132 0.0
H889 H 0.66589 0.76601 0.82793 0.0
H890 H 0.63597 0.69037 0.81804 0.0
H891 H 0.61513 0.60996 0.82291 0.0
H892 H 0.47978 0.3834 0.81955 0.0
H893 H 0.52186 0.46316 0.82437 0.0
C894 C 0.86195 0.62585 0.0202 0.0
C895 C 0.8168 0.59171 0.01925 0.0
C896 C 0.89619 0.61654 0.01683 0.0
C897 C 0.91745 0.52199 0.01028 0.0
H898 H -0.00156 0.5992 0.98128 0.0
C899 C -0.00713 0.45742 0.96932 0.0
C900 C 0.03971 0.48252 0.96786 0.0
C901 C 0.9704 0.47492 0.97695 0.0
C902 C 0.97634 0.57768 0.98948 0.0
H903 H 0.77186 0.52072 0.01519 0.0
H904 H 0.83086 0.50469 0.00928 0.0
H905 H 0.95295 0.6234 -0.00565 0.0
H906 H 0.09961 0.54635 0.97241 0.0
H907 H 0.06 0.57722 0.98543 0.0
H908 H 0.93907 0.47524 0.00487 0.0
C909 C 0.84032 0.53851 0.01258 0.0
C910 C 0.9507 0.59166 -0.00295 0.0
C911 C 0.80644 0.54783 0.01578 0.0
C912 C 0.06342 0.52625 0.97345 0.0
C913 C 0.04089 0.54396 0.98087 0.0
C914 C 0.94264 0.50785 0.00262 0.0
C915 C 0.88546 0.57287 0.01274 0.0
C916 C 0.91987 0.5632 0.00717 0.0
C917 C -0.00556 0.51795 0.98299 0.0
C918 C 0.97117 0.53497 0.99188 0.0
H919 H 0.87065 0.65989 0.02295 0.0
H920 H 0.93082 0.64355 0.01709 0.0
H921 H 0.89451 0.49977 0.0182 0.0
H922 H 0.97395 0.42355 0.96518 0.0
H923 H 0.93435 0.45457 0.97833 0.0
C924 C 0.58009 0.02968 0.14956 0.0
C925 C 0.59552 0.05633 0.13745 0.0
C926 C 0.53514 0.00956 0.15346 0.0
C927 C 0.42144 0.97405 0.14051 0.0
H928 H 0.39674 0.96757 0.18039 0.0
C929 C 0.24188 0.88036 0.16502 0.0
C930 C 0.23758 0.8455 0.1738 0.0
C931 C 0.28441 0.91366 0.16048 0.0
C932 C 0.4032 0.96962 0.16922 0.0
H933 H 0.57574 0.08185 0.11965 0.0
H934 H 0.49663 0.04685 0.12659 0.0
H935 H 0.47393 0.01173 0.17206 0.0
H936 H 0.27383 0.81893 0.18522 0.0
H937 H 0.34801 0.87778 0.17767 0.0
H938 H 0.35031 0.93117 0.13783 0.0
C939 C 0.51949 0.0414 0.13301 0.0
C940 C 0.4473 -0.00551 0.16445 0.0
C941 C 0.5647 0.06137 0.12903 0.0
C942 C 0.27631 0.84538 0.17841 0.0
C943 C 0.31865 0.87908 0.17416 0.0
C944 C 0.3771 0.94953 0.14531 0.0
C945 C 0.50448 0.01594 0.14542 0.0
C946 C 0.45711 -0.0045 0.15009 0.0
C947 C 0.32301 0.91305 0.16501 0.0
C948 C 0.36796 0.94593 0.15973 0.0
H949 H 0.60291 0.02461 0.15615 0.0
H950 H 0.52442 0.98897 0.16282 0.0
H951 H 0.42791 0.97411 0.1294 0.0
H952 H 0.21238 0.88093 0.16127 0.0
H953 H 0.2872 0.93962 0.1534 0.0
C954 C 0.49641 0.54709 0.31704 0.0
C955 C 0.51594 0.55863 0.30363 0.0
C956 C 0.47093 0.50226 0.32106 0.0
C957 C 0.41007 0.38596 0.30728 0.0
H958 H 0.42701 0.3561 0.34516 0.0
C959 C 0.37265 0.21135 0.32583 0.0
C960 C 0.35753 0.19815 0.33963 0.0
C961 C 0.38092 0.25294 0.32081 0.0
C962 C 0.42111 0.36398 0.33465 0.0
H963 H 0.52416 0.53203 0.28395 0.0
H964 H 0.48068 0.45321 0.29118 0.0
H965 H 0.46663 0.43402 0.33758 0.0
H966 H 0.33581 0.21629 0.35864 0.0
H967 H 0.35065 0.28948 0.34985 0.0
H968 H 0.36596 0.31519 0.30427 0.0
C969 C 0.48431 0.47908 0.29844 0.0
C970 C 0.44395 0.40866 0.33028 0.0
C971 C 0.50956 0.52418 0.29434 0.0
C972 C 0.3475 0.2257 0.34796 0.0
C973 C 0.35621 0.2676 0.34297 0.0
C974 C 0.38743 0.34107 0.31164 0.0
C975 C 0.46477 0.46771 0.31186 0.0
C976 C 0.43906 0.42017 0.31651 0.0
C977 C 0.37459 0.28221 0.32954 0.0
C978 C 0.39315 0.32969 0.32533 0.0
H979 H 0.50016 0.57271 0.32444 0.0
H980 H 0.4557 0.4947 0.33136 0.0
H981 H 0.40504 0.39384 0.29668 0.0
H982 H 0.38028 0.19053 0.31913 0.0
H983 H 0.3953 0.26342 0.31044 0.0
C984 C 0.02715 0.70232 0.44339 0.0
C985 C 0.00424 0.71991 0.45089 0.0
C986 C 0.06989 0.73082 0.43802 0.0
C987 C 0.13455 0.7983 0.41754 0.0
H988 H 0.22267 0.91312 0.43324 0.0
C989 C 0.25059 0.95017 0.38357 0.0
C990 C 0.29381 0.98086 0.3885 0.0
C991 C 0.22115 0.91366 0.39183 0.0
C992 C 0.19884 0.88083 0.42877 0.0
H993 H 0.0089 0.78041 0.45957 0.0
H994 H 0.08314 0.83074 0.44976 0.0
H995 H 0.16239 0.85809 0.44805 0.0
H996 H 0.34116 -0.00442 0.40553 0.0
H997 H 0.28987 0.93146 0.41983 0.0
H998 H 0.17075 0.82103 0.39827 0.0
C999 C 0.06858 0.79485 0.44823 0.0
C1000 C 0.16401 0.84953 0.43723 0.0
C1001 C 0.02599 0.76612 0.45381 0.0
C1002 C 0.30785 0.97284 0.4015 0.0
C1003 C 0.27844 0.93625 0.40973 0.0
C1004 C 0.16944 0.82944 0.40914 0.0
C1005 C 0.09022 0.77761 0.43982 0.0
C1006 C 0.13083 0.80836 0.43161 0.0
C1007 C 0.23441 0.90693 0.40514 0.0
C1008 C 0.20125 0.87151 0.41455 0.0
H1009 H 0.01126 0.66658 0.44122 0.0
H1010 H 0.08616 0.71635 0.43193 0.0
H1011 H 0.10932 0.76719 0.41279 0.0
H1012 H 0.23875 0.95533 0.3736 0.0
H1013 H 0.18728 0.89195 0.38804 0.0
C1014 C 0.21404 0.20048 0.53638 0.0
C1015 C 0.25231 0.24066 0.53223 0.0
C1016 C 0.21869 0.1677 0.54362 0.0
C1017 C 0.29361 0.12563 0.55377 0.0
H1018 H 0.23521 0.10603 0.58995 0.0
C1019 C 0.31961 0.02414 0.5974 0.0
C1020 C 0.2807 0.99357 0.60474 0.0
C1021 C 0.31903 0.05654 0.58864 0.0
C1022 C 0.25128 0.11059 0.57985 0.0
H1023 H 0.32514 0.27577 0.53094 0.0
H1024 H 0.33305 0.21785 0.5434 0.0
H1025 H 0.2259 0.1526 0.57257 0.0
H1026 H 0.2113 0.97437 0.60911 0.0
H1027 H 0.20997 0.02959 0.59369 0.0
H1028 H 0.31805 0.0826 0.56088 0.0
C1029 C 0.29965 0.2122 0.54123 0.0
C1030 C 0.24589 0.13723 0.56991 0.0
C1031 C 0.29507 0.24532 0.53415 0.0
C1032 C 0.24194 -0.00261 0.60364 0.0
C1033 C 0.24123 0.02934 0.59481 0.0
C1034 C 0.29845 0.09825 0.56366 0.0
C1035 C 0.26158 0.17424 0.5466 0.0
C1036 C 0.26672 0.14472 0.55676 0.0
C1037 C 0.27948 0.05879 0.587 0.0
C1038 C 0.27705 0.09019 0.57679 0.0
H1039 H 0.18063 0.19576 0.53501 0.0
H1040 H 0.18886 0.1383 0.54753 0.0
H1041 H 0.31015 0.13123 0.5437 0.0
H1042 H 0.35011 0.02224 0.5981 0.0
H1043 H 0.34935 0.07932 0.58298 0.0
C1044 C 0.25005 0.30146 0.78733 0.0
C1045 C 0.23925 0.25708 0.79016 0.0
C1046 C 0.21777 0.31042 0.78179 0.0
C1047 C 0.09712 0.25644 0.77075 0.0
H1048 H 0.14831 0.34062 0.7398 0.0
C1049 C -0.00241 0.24716 0.72152 0.0
C1050 C -0.00288 0.28663 0.71784 0.0
C1051 C 0.02722 0.24829 0.7317 0.0
C1052 C 0.13365 0.31749 0.74851 0.0
H1053 H 0.18625 0.18748 0.79039 0.0
H1054 H 0.13005 0.20251 0.78013 0.0
H1055 H 0.19785 0.33449 0.75676 0.0
H1056 H 0.02914 0.35864 0.72132 0.0
H1057 H 0.08234 0.3607 0.73885 0.0
H1058 H 0.03287 0.23762 0.76178 0.0
C1059 C 0.16286 0.23081 0.78253 0.0
C1060 C 0.16193 0.31413 0.75833 0.0
C1061 C 0.19498 0.22203 0.78841 0.0
C1062 C 0.02873 0.32771 0.72396 0.0
C1063 C 0.05897 0.32891 0.734 0.0
C1064 C 0.0689 0.25931 0.76078 0.0
C1065 C 0.17451 0.27492 0.77856 0.0
C1066 C 0.14407 0.28291 0.76943 0.0
C1067 C 0.05748 0.28897 0.73821 0.0
C1068 C 0.08705 0.28922 0.74945 0.0
H1069 H 0.28416 0.32897 0.78869 0.0
H1070 H 0.22753 0.34491 0.77929 0.0
H1071 H 0.08214 0.2327 0.77929 0.0
H1072 H 0.97362 0.21492 0.71705 0.0
H1073 H 0.0261 0.21722 0.73463 0.0
C1074 C 0.77985 0.00489 0.8822 0.0
C1075 C 0.74593 0.00491 0.87397 0.0
C1076 C 0.806 0.04115 0.89101 0.0
C1077 C 0.84436 0.15905 0.89822 0.0
H1078 H 0.84327 0.12553 0.93714 0.0
C1079 C 0.93721 0.29581 0.93852 0.0
C1080 C 0.96644 0.28858 0.94698 0.0
C1081 C 0.90199 0.25992 0.9315 0.0
C1082 C 0.84406 0.13544 0.92632 0.0
H1083 H 0.71528 0.04409 0.86752 0.0
H1084 H 0.76204 0.10812 0.88266 0.0
H1085 H 0.8044 0.0671 0.9195 0.0
H1086 H 0.97927 0.23798 0.95595 0.0
H1087 H 0.91883 0.17558 0.9434 0.0
H1088 H 0.88544 0.22709 0.90476 0.0
C1089 C 0.76777 0.07979 0.88246 0.0
C1090 C 0.82198 0.10203 0.91624 0.0
C1091 C 0.74116 0.04327 0.87381 0.0
C1092 C 0.95712 0.24444 0.9495 0.0
C1093 C 0.92237 0.20861 0.94228 0.0
C1094 C 0.86695 0.19243 0.90824 0.0
C1095 C 0.79911 0.07817 0.89152 0.0
C1096 C 0.8224 0.11361 0.90211 0.0
C1097 C 0.89603 0.2164 0.93261 0.0
C1098 C 0.86741 0.18102 0.9224 0.0
H1099 H 0.78412 0.97567 0.88258 0.0
H1100 H 0.83054 0.03961 0.89778 0.0
H1101 H 0.84513 0.16867 0.88736 0.0
H1102 H 0.94346 0.3296 0.93659 0.0
H1103 H 0.88129 0.26676 0.92449 0.0
C1104 C 0.66054 0.96643 0.10077 0.0
C1105 C 0.70618 -0.00128 0.1025 0.0
C1106 C 0.64784 0.93032 0.09159 0.0
C1107 C 0.68268 0.89665 0.06022 0.0
H1108 H 0.62339 0.77576 0.07541 0.0
C1109 C 0.70191 0.75495 0.03629 0.0
C1110 C 0.67043 0.71017 0.03952 0.0
C1111 C 0.69565 0.78978 0.04116 0.0
C1112 C 0.63866 0.80898 0.07078 0.0
H1113 H 0.77424 0.0188 0.09601 0.0
H1114 H 0.75183 0.95606 0.07983 0.0
H1115 H 0.63285 0.83791 0.09 0.0
H1116 H 0.60541 0.66593 0.04879 0.0
H1117 H 0.59311 0.72657 0.05665 0.0
H1118 H 0.68886 0.86817 0.04102 0.0
C1119 C 0.72608 0.95872 0.08561 0.0
C1120 C 0.64433 0.84459 0.07923 0.0
C1121 C 0.73885 -0.0058 0.09498 0.0
C1122 C 0.63049 0.7004 0.0464 0.0
C1123 C 0.62368 0.73515 0.05098 0.0
C1124 C 0.67623 0.86094 0.05165 0.0
C1125 C 0.68053 0.92671 0.0838 0.0
C1126 C 0.6678 0.88876 0.07416 0.0
C1127 C 0.65732 0.78032 0.04911 0.0
C1128 C 0.65573 0.81685 0.05701 0.0
H1129 H 0.63473 0.96922 0.10645 0.0
H1130 H 0.61253 0.90567 0.09039 0.0
H1131 H 0.70045 0.93061 0.05609 0.0
H1132 H 0.73305 0.76328 0.031 0.0
H1133 H 0.72254 0.82401 0.03957 0.0
C1134 C 0.70405 0.64515 0.27578 0.0
C1135 C 0.71244 0.68672 0.28124 0.0
C1136 C 0.73797 0.64176 0.26879 0.0
C1137 C 0.86038 0.70452 0.26047 0.0
H1138 H 0.82083 0.64568 0.22434 0.0
C1139 C 0.98105 0.74929 0.21443 0.0
C1140 C 0.98309 0.713 0.20839 0.0
C1141 C 0.94595 0.74148 0.22344 0.0
C1142 C 0.83219 0.66184 0.23445 0.0
H1143 H 0.76405 0.7561 0.28488 0.0
H1144 H 0.82257 0.75047 0.27253 0.0
H1145 H 0.76515 0.6378 0.24172 0.0
H1146 H 0.94802 0.64034 0.20605 0.0
H1147 H 0.88595 0.6269 0.22163 0.0
H1148 H 0.92744 0.73023 0.25288 0.0
C1149 C 0.79006 0.72035 0.27364 0.0
C1150 C 0.80043 0.65706 0.24446 0.0
C1151 C 0.75631 0.72369 0.28067 0.0
C1152 C 0.94747 0.66896 0.21064 0.0
C1153 C 0.91202 0.66121 0.21954 0.0
C1154 C 0.89203 0.70973 0.25041 0.0
C1155 C 0.78081 0.67984 0.26715 0.0
C1156 C 0.81421 0.67915 0.25747 0.0
C1157 C 0.91197 0.69734 0.2264 0.0
C1158 C 0.87817 0.68922 0.23723 0.0
H1159 H 0.67071 0.61583 0.27621 0.0
H1160 H 0.73013 0.60982 0.26417 0.0
H1161 H 0.87208 0.72124 0.27048 0.0
H1162 H 0.00785 0.78363 0.21287 0.0
H1163 H 0.94606 0.76989 0.22844 0.0
C1164 C 0.71186 0.48019 0.44609 0.0
C1165 C 0.75506 0.51138 0.44129 0.0
C1166 C 0.67879 0.45163 0.43653 0.0
C1167 C 0.61063 0.40424 0.41252 0.0
H1168 H 0.65903 0.35432 0.38574 0.0
C1169 C 0.50121 0.26735 0.37145 0.0
C1170 C 0.50668 0.22953 0.37256 0.0
C1171 C 0.53155 0.30761 0.37814 0.0
C1172 C 0.64509 0.36826 0.39306 0.0
H1173 H 0.79633 0.54033 0.42275 0.0
H1174 H 0.73888 0.49203 0.40628 0.0
H1175 H 0.70954 0.41339 0.40157 0.0
H1176 H 0.54855 0.20416 0.38081 0.0
H1177 H 0.602 0.2744 0.39207 0.0
H1178 H 0.54569 0.35706 0.40425 0.0
C1179 C 0.73074 0.48808 0.41734 0.0
C1180 C 0.67398 0.40229 0.40209 0.0
C1181 C 0.76367 0.51576 0.42681 0.0
C1182 C 0.54387 0.23302 0.37977 0.0
C1183 C 0.57441 0.2732 0.38619 0.0
C1184 C 0.58155 0.37005 0.4034 0.0
C1185 C 0.68854 0.45453 0.42209 0.0
C1186 C 0.65711 0.42029 0.41205 0.0
C1187 C 0.56805 0.31054 0.38571 0.0
C1188 C 0.59858 0.35121 0.3938 0.0
H1189 H 0.70434 0.47651 0.45719 0.0
H1190 H 0.64647 0.42598 0.44048 0.0
H1191 H 0.59678 0.41773 0.42003 0.0
H1192 H 0.47228 0.26505 0.3661 0.0
H1193 H 0.52611 0.33609 0.37761 0.0
C1194 C 0.27749 0.75074 0.5981 0.0
C1195 C 0.30498 0.77413 0.60954 0.0
C1196 C 0.28153 0.71677 0.59157 0.0
C1197 C 0.31837 0.67166 0.57366 0.0
H1198 H 0.32434 0.57598 0.59338 0.0
C1199 C 0.32289 0.53039 0.54317 0.0
C1200 C 0.29468 0.48668 0.54824 0.0
C1201 C 0.33253 0.56766 0.55145 0.0
C1202 C 0.32264 0.60249 0.58773 0.0
H1203 H 0.3569 0.77899 0.62356 0.0
H1204 H 0.36444 0.7192 0.61191 0.0
H1205 H 0.32336 0.63641 0.60669 0.0
H1206 H 0.25503 0.44752 0.56601 0.0
H1207 H 0.27035 0.51247 0.58025 0.0
H1208 H 0.31505 0.63704 0.55479 0.0
C1209 C 0.33969 0.72741 0.60808 0.0
C1210 C 0.32259 0.63729 0.59536 0.0
C1211 C 0.3354 0.76151 0.61473 0.0
C1212 C 0.27699 0.48088 0.56184 0.0
C1213 C 0.28614 0.51813 0.57005 0.0
C1214 C 0.31812 0.63691 0.56608 0.0
C1215 C 0.31345 0.70551 0.59622 0.0
C1216 C 0.31921 0.67152 0.58838 0.0
C1217 C 0.31358 0.56198 0.56489 0.0
C1218 C 0.31927 0.60137 0.57301 0.0
H1219 H 0.25304 0.75906 0.59404 0.0
H1220 H 0.25983 0.69955 0.58275 0.0
H1221 H 0.31667 0.69812 0.56798 0.0
H1222 H 0.33754 0.53586 0.5328 0.0
H1223 H 0.35447 0.60095 0.54726 0.0
C1224 C 0.49232 0.29617 0.76354 0.0
C1225 C 0.47958 0.2697 0.77577 0.0
C1226 C 0.52543 0.29776 0.75474 0.0
C1227 C 0.58192 0.23494 0.74502 0.0
H1228 H 0.67513 0.35 0.73072 0.0
C1229 C 0.74815 0.26115 0.72354 0.0
C1230 C 0.76829 0.28957 0.71195 0.0
C1231 C 0.70929 0.2568 0.72951 0.0
C1232 C 0.64882 0.31755 0.73439 0.0
H1233 H 0.49167 0.22412 0.78836 0.0
H1234 H 0.55012 0.22722 0.77295 0.0
H1235 H 0.61543 0.34682 0.74541 0.0
H1236 H 0.76265 0.3347 0.69726 0.0
H1237 H 0.69404 0.32724 0.70788 0.0
H1238 H 0.61568 0.20575 0.73419 0.0
C1239 C 0.53402 0.24644 0.77017 0.0
C1240 C 0.61479 0.31573 0.74286 0.0
C1241 C 0.50089 0.24496 0.77905 0.0
C1242 C 0.74793 0.31271 0.70621 0.0
C1243 C 0.70888 0.30857 0.71231 0.0
C1244 C 0.61585 0.23675 0.73653 0.0
C1245 C 0.54652 0.27283 0.75792 0.0
C1246 C 0.58147 0.2745 0.74846 0.0
C1247 C 0.68944 0.28074 0.72408 0.0
C1248 C 0.65016 0.27818 0.73137 0.0
H1249 H 0.47652 0.31557 0.76066 0.0
H1250 H 0.534 0.31798 0.74531 0.0
H1251 H 0.55612 0.2026 0.74893 0.0
H1252 H 0.76267 0.24241 0.72815 0.0
H1253 H 0.69558 0.23563 0.73869 0.0
C1254 C 0.50143 0.77866 0.88954 0.0
C1255 C 0.50063 0.79083 0.87553 0.0
C1256 C 0.46305 0.74416 0.89572 0.0
C1257 C 0.34183 0.68366 0.89457 0.0
H1258 H 0.35462 0.59399 0.91572 0.0
C1259 C 0.19356 0.53392 0.92273 0.0
C1260 C 0.20265 0.52377 0.93618 0.0
C1261 C 0.22833 0.56525 0.91433 0.0
C1262 C 0.35064 0.61899 0.90995 0.0
H1263 H 0.45889 0.77693 0.85705 0.0
H1264 H 0.391 0.71638 0.86806 0.0
H1265 H 0.41824 0.65088 0.90242 0.0
H1266 H 0.25508 0.539 0.95151 0.0
H1267 H 0.31563 0.59438 0.93695 0.0
H1268 H 0.27453 0.6525 0.90243 0.0
C1269 C 0.42167 0.73377 0.87414 0.0
C1270 C 0.3869 0.65131 0.9023 0.0
C1271 C 0.4604 0.76819 0.86786 0.0
C1272 C 0.24703 0.54603 0.94118 0.0
C1273 C 0.28173 0.57747 0.9328 0.0
C1274 C 0.3055 0.65138 0.9023 0.0
C1275 C 0.42301 0.72125 0.88806 0.0
C1276 C 0.38303 0.68438 0.89479 0.0
C1277 C 0.27277 0.587 0.91925 0.0
C1278 C 0.30992 0.61932 0.91028 0.0
H1279 H 0.53193 0.79531 0.89573 0.0
H1280 H 0.46464 0.73546 0.90654 0.0
H1281 H 0.33831 0.7091 0.8889 0.0
H1282 H 0.15968 0.51704 0.91855 0.0
H1283 H 0.22056 0.5717 0.90388 0.0
C1284 C 0.69716 0.24766 0.12724 0.0
C1285 C 0.72638 0.23534 0.12096 0.0
C1286 C 0.69506 0.28495 0.1222 0.0
C1287 C 0.75255 0.38458 0.09866 0.0
H1288 H 0.63132 0.35456 0.08853 0.0
C1289 C 0.71521 0.47096 0.05316 0.0
C1290 C 0.68258 0.48355 0.05546 0.0
C1291 C 0.72161 0.44445 0.06298 0.0
C1292 C 0.66533 0.36375 0.09146 0.0
H1293 H 0.77889 0.25394 0.10544 0.0
H1294 H 0.77533 0.31844 0.09672 0.0
H1295 H 0.64287 0.30479 0.10406 0.0
H1296 H 0.63058 0.47758 0.06974 0.0
H1297 H 0.64164 0.43116 0.08675 0.0
H1298 H 0.77498 0.44265 0.08558 0.0
C1299 C 0.75397 0.29979 0.10546 0.0
C1300 C 0.67195 0.33542 0.10043 0.0
C1301 C 0.75572 0.26256 0.11037 0.0
C1302 C 0.65594 0.46836 0.06762 0.0
C1303 C 0.66217 0.44171 0.07738 0.0
C1304 C 0.74593 0.41279 0.08964 0.0
C1305 C 0.72263 0.31057 0.11098 0.0
C1306 C 0.71565 0.34492 0.10382 0.0
C1307 C 0.69536 0.42988 0.07523 0.0
C1308 C 0.7023 0.40204 0.08568 0.0
H1309 H 0.67424 0.22712 0.13544 0.0
H1310 H 0.67085 0.2928 0.12672 0.0
H1311 H 0.78661 0.39306 0.10124 0.0
H1312 H 0.73644 0.48236 0.04394 0.0
H1313 H 0.74703 0.43523 0.06098 0.0
C1314 C 0.47407 0.66848 0.25536 0.0
C1315 C 0.47133 0.6646 0.27006 0.0
C1316 C 0.43862 0.66621 0.24761 0.0
C1317 C 0.34453 0.68655 0.25124 0.0
H1318 H 0.30683 0.62577 0.21534 0.0
C1319 C 0.19304 0.67296 0.22267 0.0
C1320 C 0.19777 0.68356 0.20831 0.0
C1321 C 0.22483 0.66645 0.22964 0.0
C1322 C 0.31737 0.64319 0.22529 0.0
H1323 H 0.42864 0.65389 0.2881 0.0
H1324 H 0.36642 0.64963 0.27447 0.0
H1325 H 0.36433 0.62045 0.22903 0.0
H1326 H 0.2386 0.69385 0.18986 0.0
H1327 H 0.29517 0.68293 0.20223 0.0
H1328 H 0.29815 0.70969 0.24753 0.0
C1329 C 0.39634 0.65494 0.26901 0.0
C1330 C 0.3501 0.64007 0.23313 0.0
C1331 C 0.43185 0.65718 0.2768 0.0
C1332 C 0.23421 0.68579 0.20093 0.0
C1333 C 0.26641 0.67943 0.20798 0.0
C1334 C 0.31196 0.68967 0.24343 0.0
C1335 C 0.39969 0.66007 0.25436 0.0
C1336 C 0.36387 0.66166 0.2462 0.0
C1337 C 0.26238 0.67066 0.22248 0.0
C1338 C 0.29787 0.66786 0.23042 0.0
H1339 H 0.50397 0.67421 0.24982 0.0
H1340 H 0.44239 0.6708 0.23636 0.0
H1341 H 0.35522 0.70444 0.26111 0.0
H1342 H 0.16492 0.67019 0.22863 0.0
H1343 H 0.22027 0.65864 0.24073 0.0
loop_
_geom_bond_atom_site_label_1
_geom_bond_atom_site_label_2
_geom_bond_distance
_geom_bond_site_symmetry_2
_ccdc_geom_bond_type
Fe0 O2 1.918 . S
Fe0 O5 1.997 . S
Fe0 O6 2.002 . S
Fe0 O11 1.976 . S
Fe0 O14 1.996 . S
Fe1 O2 1.918 . S
Fe1 O9 1.997 . S
Fe1 O12 1.996 . S
Fe1 O16 1.976 . S
Fe1 O19 2.002 . S
O2 Fe0 1.918 . S
O2 Fe1 1.918 . S
O2 Fe3 1.918 . S
Fe3 O2 1.918 . S
Fe3 O4 2.002 . S
Fe3 O13 1.976 . S
Fe3 O17 1.996 . S
Fe3 O20 1.997 . S
O4 Fe3 2.002 . S
O4 C21 1.295 . S
O5 Fe0 1.997 . S
O5 C21 1.235 . S
O6 Fe0 2.002 . S
O6 C7 1.295 . S
C7 O6 1.295 . S
C7 O9 1.235 . S
C8 O13 1.287 . S
C8 O14 1.255 . S
O9 Fe1 1.997 . S
O9 C7 1.235 . S
C10 O16 1.287 . S
C10 O17 1.255 . S
O11 Fe0 1.976 . S
O11 C18 1.287 . S
O12 Fe1 1.996 . S
O12 C18 1.255 . S
O13 Fe3 1.976 . S
O13 C8 1.287 . S
O14 Fe0 1.996 . S
O14 C8 1.255 . S
C15 O19 1.295 . S
C15 O20 1.235 . S
O16 Fe1 1.976 . S
O16 C10 1.287 . S
O17 Fe3 1.996 . S
O17 C10 1.255 . S
C18 O11 1.287 . S
C18 O12 1.255 . S
O19 Fe1 2.002 . S
O19 C15 1.295 . S
O20 Fe3 1.997 . S
O20 C15 1.235 . S
C21 O4 1.295 . S
C21 O5 1.235 . S
Fe22 O24 1.918 . S
Fe22 O27 1.997 . S
Fe22 O28 2.002 . S
Fe22 O33 1.976 . S
Fe22 O36 1.996 . S
Fe23 O24 1.918 . S
Fe23 O31 1.997 . S
Fe23 O34 1.996 . S
Fe23 O38 1.976 . S
Fe23 O41 2.002 . S
O24 Fe22 1.918 . S
O24 Fe23 1.918 . S
O24 Fe25 1.918 . S
Fe25 O24 1.918 . S
Fe25 O26 2.002 . S
Fe25 O35 1.976 . S
Fe25 O39 1.996 . S
Fe25 O42 1.997 . S
O26 Fe25 2.002 . S
O26 C43 1.295 . S
O27 Fe22 1.997 . S
O27 C43 1.235 . S
O28 Fe22 2.002 . S
O28 C29 1.295 . S
C29 O28 1.295 . S
C29 O31 1.235 . S
C30 O35 1.287 . S
C30 O36 1.255 . S
O31 Fe23 1.997 . S
O31 C29 1.235 . S
C32 O38 1.287 . S
C32 O39 1.255 . S
O33 Fe22 1.976 . S
O33 C40 1.287 . S
O34 Fe23 1.996 . S
O34 C40 1.255 . S
O35 Fe25 1.976 . S
O35 C30 1.287 . S
O36 Fe22 1.996 . S
O36 C30 1.255 . S
C37 O41 1.295 . S
C37 O42 1.235 . S
O38 Fe23 1.976 . S
O38 C32 1.287 . S
O39 Fe25 1.996 . S
O39 C32 1.255 . S
C40 O33 1.287 . S
C40 O34 1.255 . S
O41 Fe23 2.002 . S
O41 C37 1.295 . S
O42 Fe25 1.997 . S
O42 C37 1.235 . S
C43 O26 1.295 . S
C43 O27 1.235 . S
Fe44 O46 1.918 . S
Fe44 O49 1.997 . S
Fe44 O50 2.002 . S
Fe44 O55 1.976 . S
Fe44 O58 1.996 . S
Fe45 O46 1.918 . S
Fe45 O53 1.997 . S
Fe45 O56 1.996 . S
Fe45 O60 1.976 . S
Fe45 O63 2.002 . S
O46 Fe44 1.918 . S
O46 Fe45 1.918 . S
O46 Fe47 1.918 . S
Fe47 O46 1.918 . S
Fe47 O48 2.002 . S
Fe47 O57 1.976 . S
Fe47 O61 1.996 . S
Fe47 O64 1.997 . S
O48 Fe47 2.002 . S
O48 C65 1.295 . S
O49 Fe44 1.997 . S
O49 C65 1.235 . S
O50 Fe44 2.002 . S
O50 C51 1.295 . S
C51 O50 1.295 . S
C51 O53 1.235 . S
C52 O57 1.287 . S
C52 O58 1.255 . S
O53 Fe45 1.997 . S
O53 C51 1.235 . S
C54 O60 1.287 . S
C54 O61 1.255 . S
O55 Fe44 1.976 . S
O55 C62 1.287 . S
O56 Fe45 1.996 . S
O56 C62 1.255 . S
O57 Fe47 1.976 . S
O57 C52 1.287 . S
O58 Fe44 1.996 . S
O58 C52 1.255 . S
C59 O63 1.295 . S
C59 O64 1.235 . S
O60 Fe45 1.976 . S
O60 C54 1.287 . S
O61 Fe47 1.996 . S
O61 C54 1.255 . S
C62 O55 1.287 . S
C62 O56 1.255 . S
O63 Fe45 2.002 . S
O63 C59 1.295 . S
O64 Fe47 1.997 . S
O64 C59 1.235 . S
C65 O48 1.295 . S
C65 O49 1.235 . S
Fe66 O68 1.918 . S
Fe66 O71 1.997 . S
Fe66 O72 2.002 . S
Fe66 O77 1.976 . S
Fe66 O80 1.996 . S
Fe67 O68 1.918 . S
Fe67 O75 1.997 . S
Fe67 O78 1.996 . S
Fe67 O82 1.976 . S
Fe67 O85 2.002 . S
O68 Fe66 1.918 . S
O68 Fe67 1.918 . S
O68 Fe69 1.918 . S
Fe69 O68 1.918 . S
Fe69 O70 2.002 . S
Fe69 O79 1.976 . S
Fe69 O83 1.996 . S
Fe69 O86 1.997 . S
O70 Fe69 2.002 . S
O70 C87 1.295 . S
O71 Fe66 1.997 . S
O71 C87 1.235 . S
O72 Fe66 2.002 . S
O72 C73 1.295 . S
C73 O72 1.295 . S
C73 O75 1.235 . S
C74 O79 1.287 . S
C74 O80 1.255 . S
O75 Fe67 1.997 . S
O75 C73 1.235 . S
C76 O82 1.287 . S
C76 O83 1.255 . S
O77 Fe66 1.976 . S
O77 C84 1.287 . S
O78 Fe67 1.996 . S
O78 C84 1.255 . S
O79 Fe69 1.976 . S
O79 C74 1.287 . S
O80 Fe66 1.996 . S
O80 C74 1.255 . S
C81 O85 1.295 . S
C81 O86 1.235 . S
O82 Fe67 1.976 . S
O82 C76 1.287 . S
O83 Fe69 1.996 . S
O83 C76 1.255 . S
C84 O77 1.287 . S
C84 O78 1.255 . S
O85 Fe67 2.002 . S
O85 C81 1.295 . S
O86 Fe69 1.997 . S
O86 C81 1.235 . S
C87 O70 1.295 . S
C87 O71 1.235 . S
Fe88 O90 1.918 . S
Fe88 O93 1.997 . S
Fe88 O94 2.002 . S
Fe88 O99 1.976 . S
Fe88 O102 1.996 . S
Fe89 O90 1.918 . S
Fe89 O97 1.997 . S
Fe89 O100 1.996 . S
Fe89 O104 1.976 . S
Fe89 O107 2.002 . S
O90 Fe88 1.918 . S
O90 Fe89 1.918 . S
O90 Fe91 1.918 . S
Fe91 O90 1.918 . S
Fe91 O92 2.002 . S
Fe91 O101 1.976 . S
Fe91 O105 1.996 . S
Fe91 O108 1.997 . S
O92 Fe91 2.002 . S
O92 C109 1.295 . S
O93 Fe88 1.997 . S
O93 C109 1.235 . S
O94 Fe88 2.002 . S
O94 C95 1.295 . S
C95 O94 1.295 . S
C95 O97 1.235 . S
C96 O101 1.287 . S
C96 O102 1.255 . S
O97 Fe89 1.997 . S
O97 C95 1.235 . S
C98 O104 1.287 . S
C98 O105 1.255 . S
O99 Fe88 1.976 . S
O99 C106 1.287 . S
O100 Fe89 1.996 . S
O100 C106 1.255 . S
O101 Fe91 1.976 . S
O101 C96 1.287 . S
O102 Fe88 1.996 . S
O102 C96 1.255 . S
C103 O107 1.295 . S
C103 O108 1.235 . S
O104 Fe89 1.976 . S
O104 C98 1.287 . S
O105 Fe91 1.996 . S
O105 C98 1.255 . S
C106 O99 1.287 . S
C106 O100 1.255 . S
O107 Fe89 2.002 . S
O107 C103 1.295 . S
O108 Fe91 1.997 . S
O108 C103 1.235 . S
C109 O92 1.295 . S
C109 O93 1.235 . S
Fe110 O112 1.918 . S
Fe110 O115 1.997 . S
Fe110 O116 2.002 . S
Fe110 O121 1.976 . S
Fe110 O124 1.996 . S
Fe111 O112 1.918 . S
Fe111 O119 1.997 . S
Fe111 O122 1.996 . S
Fe111 O126 1.976 . S
Fe111 O129 2.002 . S
O112 Fe110 1.918 . S
O112 Fe111 1.918 . S
O112 Fe113 1.918 . S
Fe113 O112 1.918 . S
Fe113 O114 2.002 . S
Fe113 O123 1.976 . S
Fe113 O127 1.996 . S
Fe113 O130 1.997 . S
O114 Fe113 2.002 . S
O114 C131 1.295 . S
O115 Fe110 1.997 . S
O115 C131 1.235 . S
O116 Fe110 2.002 . S
O116 C117 1.295 . S
C117 O116 1.295 . S
C117 O119 1.235 . S
C118 O123 1.287 . S
C118 O124 1.255 . S
O119 Fe111 1.997 . S
O119 C117 1.235 . S
C120 O126 1.287 . S
C120 O127 1.255 . S
O121 Fe110 1.976 . S
O121 C128 1.287 . S
O122 Fe111 1.996 . S
O122 C128 1.255 . S
O123 Fe113 1.976 . S
O123 C118 1.287 . S
O124 Fe110 1.996 . S
O124 C118 1.255 . S
C125 O129 1.295 . S
C125 O130 1.235 . S
O126 Fe111 1.976 . S
O126 C120 1.287 . S
O127 Fe113 1.996 . S
O127 C120 1.255 . S
C128 O121 1.287 . S
C128 O122 1.255 . S
O129 Fe111 2.002 . S
O129 C125 1.295 . S
O130 Fe113 1.997 . S
O130 C125 1.235 . S
C131 O114 1.295 . S
C131 O115 1.235 . S
Fe132 O134 1.918 . S
Fe132 O137 1.997 . S
Fe132 O138 2.002 . S
Fe132 O143 1.976 . S
Fe132 O146 1.996 . S
Fe133 O134 1.918 . S
Fe133 O141 1.997 . S
Fe133 O144 1.996 . S
Fe133 O148 1.976 . S
Fe133 O151 2.002 . S
O134 Fe132 1.918 . S
O134 Fe133 1.918 . S
O134 Fe135 1.918 . S
Fe135 O134 1.918 . S
Fe135 O136 2.002 . S
Fe135 O145 1.976 . S
Fe135 O149 1.996 . S
Fe135 O152 1.997 . S
O136 Fe135 2.002 . S
O136 C153 1.295 . S
O137 Fe132 1.997 . S
O137 C153 1.235 . S
O138 Fe132 2.002 . S
O138 C139 1.295 . S
C139 O138 1.295 . S
C139 O141 1.235 . S
C140 O145 1.287 . S
C140 O146 1.255 . S
O141 Fe133 1.997 . S
O141 C139 1.235 . S
C142 O148 1.287 . S
C142 O149 1.255 . S
O143 Fe132 1.976 . S
O143 C150 1.287 . S
O144 Fe133 1.996 . S
O144 C150 1.255 . S
O145 Fe135 1.976 . S
O145 C140 1.287 . S
O146 Fe132 1.996 . S
O146 C140 1.255 . S
C147 O151 1.295 . S
C147 O152 1.235 . S
O148 Fe133 1.976 . S
O148 C142 1.287 . S
O149 Fe135 1.996 . S
O149 C142 1.255 . S
C150 O143 1.287 . S
C150 O144 1.255 . S
O151 Fe133 2.002 . S
O151 C147 1.295 . S
O152 Fe135 1.997 . S
O152 C147 1.235 . S
C153 O136 1.295 . S
C153 O137 1.235 . S
Fe154 O156 1.918 . S
Fe154 O159 1.997 . S
Fe154 O160 2.002 . S
Fe154 O165 1.976 . S
Fe154 O168 1.996 . S
Fe155 O156 1.918 . S
Fe155 O163 1.997 . S
Fe155 O166 1.996 . S
Fe155 O170 1.976 . S
Fe155 O173 2.002 . S
O156 Fe154 1.918 . S
O156 Fe155 1.918 . S
O156 Fe157 1.918 . S
Fe157 O156 1.918 . S
Fe157 O158 2.002 . S
Fe157 O167 1.976 . S
Fe157 O171 1.996 . S
Fe157 O174 1.997 . S
O158 Fe157 2.002 . S
O158 C175 1.295 . S
O159 Fe154 1.997 . S
O159 C175 1.235 . S
O160 Fe154 2.002 . S
O160 C161 1.295 . S
C161 O160 1.295 . S
C161 O163 1.235 . S
C162 O167 1.287 . S
C162 O168 1.255 . S
O163 Fe155 1.997 . S
O163 C161 1.235 . S
C164 O170 1.287 . S
C164 O171 1.255 . S
O165 Fe154 1.976 . S
O165 C172 1.287 . S
O166 Fe155 1.996 . S
O166 C172 1.255 . S
O167 Fe157 1.976 . S
O167 C162 1.287 . S
O168 Fe154 1.996 . S
O168 C162 1.255 . S
C169 O173 1.295 . S
C169 O174 1.235 . S
O170 Fe155 1.976 . S
O170 C164 1.287 . S
O171 Fe157 1.996 . S
O171 C164 1.255 . S
C172 O165 1.287 . S
C172 O166 1.255 . S
O173 Fe155 2.002 . S
O173 C169 1.295 . S
O174 Fe157 1.997 . S
O174 C169 1.235 . S
C175 O158 1.295 . S
C175 O159 1.235 . S
Fe176 O178 1.918 . S
Fe176 O181 1.997 . S
Fe176 O182 2.002 . S
Fe176 O187 1.976 . S
Fe176 O190 1.996 . S
Fe177 O178 1.918 . S
Fe177 O185 1.997 . S
Fe177 O188 1.996 . S
Fe177 O192 1.976 . S
Fe177 O195 2.002 . S
O178 Fe176 1.918 . S
O178 Fe177 1.918 . S
O178 Fe179 1.918 . S
Fe179 O178 1.918 . S
Fe179 O180 2.002 . S
Fe179 O189 1.976 . S
Fe179 O193 1.996 . S
Fe179 O196 1.997 . S
O180 Fe179 2.002 . S
O180 C197 1.295 . S
O181 Fe176 1.997 . S
O181 C197 1.235 . S
O182 Fe176 2.002 . S
O182 C183 1.295 . S
C183 O182 1.295 . S
C183 O185 1.235 . S
C184 O189 1.287 . S
C184 O190 1.255 . S
O185 Fe177 1.997 . S
O185 C183 1.235 . S
C186 O192 1.287 . S
C186 O193 1.255 . S
O187 Fe176 1.976 . S
O187 C194 1.287 . S
O188 Fe177 1.996 . S
O188 C194 1.255 . S
O189 Fe179 1.976 . S
O189 C184 1.287 . S
O190 Fe176 1.996 . S
O190 C184 1.255 . S
C191 O195 1.295 . S
C191 O196 1.235 . S
O192 Fe177 1.976 . S
O192 C186 1.287 . S
O193 Fe179 1.996 . S
O193 C186 1.255 . S
C194 O187 1.287 . S
C194 O188 1.255 . S
O195 Fe177 2.002 . S
O195 C191 1.295 . S
O196 Fe179 1.997 . S
O196 C191 1.235 . S
C197 O180 1.295 . S
C197 O181 1.235 . S
Fe198 O200 1.918 . S
Fe198 O203 1.997 . S
Fe198 O204 2.002 . S
Fe198 O209 1.976 . S
Fe198 O212 1.996 . S
Fe199 O200 1.918 . S
Fe199 O207 1.997 . S
Fe199 O210 1.996 . S
Fe199 O214 1.976 . S
Fe199 O217 2.002 . S
O200 Fe198 1.918 . S
O200 Fe199 1.918 . S
O200 Fe201 1.918 . S
Fe201 O200 1.918 . S
Fe201 O202 2.002 . S
Fe201 O211 1.976 . S
Fe201 O215 1.996 . S
Fe201 O218 1.997 . S
O202 Fe201 2.002 . S
O202 C219 1.295 . S
O203 Fe198 1.997 . S
O203 C219 1.235 . S
O204 Fe198 2.002 . S
O204 C205 1.295 . S
C205 O204 1.295 . S
C205 O207 1.235 . S
C206 O211 1.287 . S
C206 O212 1.255 . S
O207 Fe199 1.997 . S
O207 C205 1.235 . S
C208 O214 1.287 . S
C208 O215 1.255 . S
O209 Fe198 1.976 . S
O209 C216 1.287 . S
O210 Fe199 1.996 . S
O210 C216 1.255 . S
O211 Fe201 1.976 . S
O211 C206 1.287 . S
O212 Fe198 1.996 . S
O212 C206 1.255 . S
C213 O217 1.295 . S
C213 O218 1.235 . S
O214 Fe199 1.976 . S
O214 C208 1.287 . S
O215 Fe201 1.996 . S
O215 C208 1.255 . S
C216 O209 1.287 . S
C216 O210 1.255 . S
O217 Fe199 2.002 . S
O217 C213 1.295 . S
O218 Fe201 1.997 . S
O218 C213 1.235 . S
C219 O202 1.295 . S
C219 O203 1.235 . S
Fe220 O222 1.918 . S
Fe220 O225 1.997 . S
Fe220 O226 2.002 . S
Fe220 O231 1.976 . S
Fe220 O234 1.996 . S
Fe221 O222 1.918 . S
Fe221 O229 1.997 . S
Fe221 O232 1.996 . S
Fe221 O236 1.976 . S
Fe221 O239 2.002 . S
O222 Fe220 1.918 . S
O222 Fe221 1.918 . S
O222 Fe223 1.918 . S
Fe223 O222 1.918 . S
Fe223 O224 2.002 . S
Fe223 O233 1.976 . S
Fe223 O237 1.996 . S
Fe223 O240 1.997 . S
O224 Fe223 2.002 . S
O224 C241 1.295 . S
O225 Fe220 1.997 . S
O225 C241 1.235 . S
O226 Fe220 2.002 . S
O226 C227 1.295 . S
C227 O226 1.295 . S
C227 O229 1.235 . S
C228 O233 1.287 . S
C228 O234 1.255 . S
O229 Fe221 1.997 . S
O229 C227 1.235 . S
C230 O236 1.287 . S
C230 O237 1.255 . S
O231 Fe220 1.976 . S
O231 C238 1.287 . S
O232 Fe221 1.996 . S
O232 C238 1.255 . S
O233 Fe223 1.976 . S
O233 C228 1.287 . S
O234 Fe220 1.996 . S
O234 C228 1.255 . S
C235 O239 1.295 . S
C235 O240 1.235 . S
O236 Fe221 1.976 . S
O236 C230 1.287 . S
O237 Fe223 1.996 . S
O237 C230 1.255 . S
C238 O231 1.287 . S
C238 O232 1.255 . S
O239 Fe221 2.002 . S
O239 C235 1.295 . S
O240 Fe223 1.997 . S
O240 C235 1.235 . S
C241 O224 1.295 . S
C241 O225 1.235 . S
Fe242 O244 1.918 . S
Fe242 O247 1.997 . S
Fe242 O248 2.002 . S
Fe242 O253 1.976 . S
Fe242 O256 1.996 . S
Fe243 O244 1.918 . S
Fe243 O251 1.997 . S
Fe243 O254 1.996 . S
Fe243 O258 1.976 . S
Fe243 O261 2.002 . S
O244 Fe242 1.918 . S
O244 Fe243 1.918 . S
O244 Fe245 1.918 . S
Fe245 O244 1.918 . S
Fe245 O246 2.002 . S
Fe245 O255 1.976 . S
Fe245 O259 1.996 . S
Fe245 O262 1.997 . S
O246 Fe245 2.002 . S
O246 C263 1.295 . S
O247 Fe242 1.997 . S
O247 C263 1.235 . S
O248 Fe242 2.002 . S
O248 C249 1.295 . S
C249 O248 1.295 . S
C249 O251 1.235 . S
C250 O255 1.287 . S
C250 O256 1.255 . S
O251 Fe243 1.997 . S
O251 C249 1.235 . S
C252 O258 1.287 . S
C252 O259 1.255 . S
O253 Fe242 1.976 . S
O253 C260 1.287 . S
O254 Fe243 1.996 . S
O254 C260 1.255 . S
O255 Fe245 1.976 . S
O255 C250 1.287 . S
O256 Fe242 1.996 . S
O256 C250 1.255 . S
C257 O261 1.295 . S
C257 O262 1.235 . S
O258 Fe243 1.976 . S
O258 C252 1.287 . S
O259 Fe245 1.996 . S
O259 C252 1.255 . S
C260 O253 1.287 . S
C260 O254 1.255 . S
O261 Fe243 2.002 . S
O261 C257 1.295 . S
O262 Fe245 1.997 . S
O262 C257 1.235 . S
C263 O246 1.295 . S
C263 O247 1.235 . S
C264 C265 1.349 . S
C264 C266 1.327 . S
C264 H289 0.950 . S
C265 C264 1.349 . S
C265 C281 1.349 . S
C266 C264 1.327 . S
C266 C285 1.429 . S
C266 H290 0.950 . S
C267 C284 1.574 . S
C267 C286 1.368 . S
C267 H291 0.949 . S
H268 C272 0.949 . S
C269 C270 1.349 . S
C269 C271 1.327 . S
C269 H292 0.950 . S
C270 C269 1.349 . S
C270 C282 1.349 . S
C271 C269 1.327 . S
C271 C287 1.429 . S
C271 H293 0.950 . S
C272 H268 0.949 . S
C272 C280 1.574 1_545 S
C272 C288 1.368 . S
H273 C281 0.950 . S
H274 C279 0.950 . S
H275 C280 0.949 . S
H276 C282 0.950 . S
H277 C283 0.950 . S
H278 C284 0.949 . S
C279 H274 0.950 . S
C279 C281 1.327 . S
C279 C285 1.429 . S
C280 C272 1.574 1_565 S
C280 H275 0.949 . S
C280 C286 1.368 . S
C281 C265 1.349 . S
C281 H273 0.950 . S
C281 C279 1.327 . S
C282 C270 1.349 . S
C282 H276 0.950 . S
C282 C283 1.327 . S
C283 H277 0.950 . S
C283 C282 1.327 . S
C283 C287 1.429 . S
C284 C267 1.574 . S
C284 H278 0.949 . S
C284 C288 1.368 1_565 S
C285 C266 1.429 . S
C285 C279 1.429 . S
C285 C286 1.523 . S
C286 C267 1.368 . S
C286 C280 1.368 . S
C286 C285 1.523 . S
C287 C271 1.429 . S
C287 C283 1.429 . S
C287 C288 1.523 . S
C288 C272 1.368 . S
C288 C284 1.368 1_545 S
C288 C287 1.523 . S
H289 C264 0.950 . S
H290 C266 0.950 . S
H291 C267 0.949 . S
H292 C269 0.950 . S
H293 C271 0.950 . S
C294 C295 1.349 . S
C294 C296 1.327 . S
C294 H319 0.950 . S
C295 C294 1.349 . S
C295 C311 1.349 . S
C296 C294 1.327 . S
C296 C315 1.429 . S
C296 H320 0.950 . S
C297 C314 1.574 . S
C297 C316 1.368 . S
C297 H321 0.949 . S
H298 C302 0.949 . S
C299 C300 1.349 . S
C299 C301 1.327 . S
C299 H322 0.950 . S
C300 C299 1.349 . S
C300 C312 1.349 . S
C301 C299 1.327 . S
C301 C317 1.429 . S
C301 H323 0.950 . S
C302 H298 0.949 . S
C302 C310 1.574 . S
C302 C318 1.368 . S
H303 C311 0.950 . S
H304 C309 0.950 . S
H305 C310 0.949 . S
H306 C312 0.950 . S
H307 C313 0.950 . S
H308 C314 0.949 . S
C309 H304 0.950 . S
C309 C311 1.327 . S
C309 C315 1.429 . S
C310 C302 1.574 . S
C310 H305 0.949 . S
C310 C316 1.368 . S
C311 C295 1.349 . S
C311 H303 0.950 . S
C311 C309 1.327 . S
C312 C300 1.349 . S
C312 H306 0.950 . S
C312 C313 1.327 . S
C313 H307 0.950 . S
C313 C312 1.327 . S
C313 C317 1.429 . S
C314 C297 1.574 . S
C314 H308 0.949 . S
C314 C318 1.368 . S
C315 C296 1.429 . S
C315 C309 1.429 . S
C315 C316 1.523 . S
C316 C297 1.368 . S
C316 C310 1.368 . S
C316 C315 1.523 . S
C317 C301 1.429 . S
C317 C313 1.429 . S
C317 C318 1.523 . S
C318 C302 1.368 . S
C318 C314 1.368 . S
C318 C317 1.523 . S
H319 C294 0.950 . S
H320 C296 0.950 . S
H321 C297 0.949 . S
H322 C299 0.950 . S
H323 C301 0.950 . S
C324 C325 1.349 . S
C324 C326 1.327 . S
C324 H349 0.950 . S
C325 C324 1.349 . S
C325 C341 1.349 . S
C326 C324 1.327 . S
C326 C345 1.429 . S
C326 H350 0.950 . S
C327 C344 1.574 . S
C327 C346 1.368 1_455 S
C327 H351 0.949 . S
H328 C332 0.949 1_655 S
C329 C330 1.349 . S
C329 C331 1.327 . S
C329 H352 0.950 . S
C330 C329 1.349 . S
C330 C342 1.349 . S
C331 C329 1.327 . S
C331 C347 1.429 . S
C331 H353 0.950 . S
C332 H328 0.949 1_455 S
C332 C340 1.574 1_455 S
C332 C348 1.368 . S
H333 C341 0.950 . S
H334 C339 0.950 1_455 S
H335 C340 0.949 . S
H336 C342 0.950 . S
H337 C343 0.950 . S
H338 C344 0.949 . S
C339 H334 0.950 1_655 S
C339 C341 1.327 . S
C339 C345 1.429 . S
C340 C332 1.574 1_655 S
C340 H335 0.949 . S
C340 C346 1.368 . S
C341 C325 1.349 . S
C341 H333 0.950 . S
C341 C339 1.327 . S
C342 C330 1.349 . S
C342 H336 0.950 . S
C342 C343 1.327 . S
C343 H337 0.950 . S
C343 C342 1.327 . S
C343 C347 1.429 . S
C344 C327 1.574 . S
C344 H338 0.949 . S
C344 C348 1.368 . S
C345 C326 1.429 . S
C345 C339 1.429 . S
C345 C346 1.523 . S
C346 C327 1.368 1_655 S
C346 C340 1.368 . S
C346 C345 1.523 . S
C347 C331 1.429 . S
C347 C343 1.429 . S
C347 C348 1.523 . S
C348 C332 1.368 . S
C348 C344 1.368 . S
C348 C347 1.523 . S
H349 C324 0.950 . S
H350 C326 0.950 . S
H351 C327 0.949 . S
H352 C329 0.950 . S
H353 C331 0.950 . S
C354 C355 1.349 . S
C354 C356 1.327 . S
C354 H379 0.950 . S
C355 C354 1.349 . S
C355 C371 1.349 . S
C356 C354 1.327 . S
C356 C375 1.429 . S
C356 H380 0.950 . S
C357 C374 1.574 1_545 S
C357 C376 1.368 . S
C357 H381 0.949 . S
H358 C362 0.949 . S
C359 C360 1.349 . S
C359 C361 1.327 . S
C359 H382 0.950 . S
C360 C359 1.349 . S
C360 C372 1.349 . S
C361 C359 1.327 . S
C361 C377 1.429 . S
C361 H383 0.950 . S
C362 H358 0.949 . S
C362 C370 1.574 . S
C362 C378 1.368 1_545 S
H363 C371 0.950 . S
H364 C369 0.950 . S
H365 C370 0.949 . S
H366 C372 0.950 . S
H367 C373 0.950 . S
H368 C374 0.949 . S
C369 H364 0.950 . S
C369 C371 1.327 . S
C369 C375 1.429 . S
C370 C362 1.574 . S
C370 H365 0.949 . S
C370 C376 1.368 . S
C371 C355 1.349 . S
C371 H363 0.950 . S
C371 C369 1.327 . S
C372 C360 1.349 . S
C372 H366 0.950 . S
C372 C373 1.327 . S
C373 H367 0.950 . S
C373 C372 1.327 . S
C373 C377 1.429 . S
C374 C357 1.574 1_565 S
C374 H368 0.949 . S
C374 C378 1.368 . S
C375 C356 1.429 . S
C375 C369 1.429 . S
C375 C376 1.523 . S
C376 C357 1.368 . S
C376 C370 1.368 . S
C376 C375 1.523 . S
C377 C361 1.429 . S
C377 C373 1.429 . S
C377 C378 1.523 . S
C378 C362 1.368 1_565 S
C378 C374 1.368 . S
C378 C377 1.523 . S
H379 C354 0.950 . S
H380 C356 0.950 . S
H381 C357 0.949 . S
H382 C359 0.950 . S
H383 C361 0.950 . S
C384 C385 1.349 . S
C384 C386 1.327 . S
C384 H409 0.950 . S
C385 C384 1.349 . S
C385 C401 1.349 . S
C386 C384 1.327 . S
C386 C405 1.429 . S
C386 H410 0.950 . S
C387 C404 1.574 . S
C387 C406 1.368 . S
C387 H411 0.949 . S
H388 C392 0.949 . S
C389 C390 1.349 . S
C389 C391 1.327 . S
C389 H412 0.950 . S
C390 C389 1.349 . S
C390 C402 1.349 . S
C391 C389 1.327 . S
C391 C407 1.429 . S
C391 H413 0.950 . S
C392 H388 0.949 . S
C392 C400 1.574 . S
C392 C408 1.368 . S
H393 C401 0.950 . S
H394 C399 0.950 . S
H395 C400 0.949 . S
H396 C402 0.950 1_554 S
H397 C403 0.950 . S
H398 C404 0.949 . S
C399 H394 0.950 . S
C399 C401 1.327 . S
C399 C405 1.429 . S
C400 C392 1.574 . S
C400 H395 0.949 . S
C400 C406 1.368 . S
C401 C385 1.349 . S
C401 H393 0.950 . S
C401 C399 1.327 . S
C402 C390 1.349 . S
C402 H396 0.950 1_556 S
C402 C403 1.327 . S
C403 H397 0.950 . S
C403 C402 1.327 . S
C403 C407 1.429 . S
C404 C387 1.574 . S
C404 H398 0.949 . S
C404 C408 1.368 . S
C405 C386 1.429 . S
C405 C399 1.429 . S
C405 C406 1.523 . S
C406 C387 1.368 . S
C406 C400 1.368 . S
C406 C405 1.523 . S
C407 C391 1.429 . S
C407 C403 1.429 . S
C407 C408 1.523 . S
C408 C392 1.368 . S
C408 C404 1.368 . S
C408 C407 1.523 . S
H409 C384 0.950 . S
H410 C386 0.950 . S
H411 C387 0.949 . S
H412 C389 0.950 . S
H413 C391 0.950 . S
C414 C415 1.349 . S
C414 C416 1.327 . S
C414 H439 0.950 . S
C415 C414 1.349 . S
C415 C431 1.349 . S
C416 C414 1.327 . S
C416 C435 1.429 . S
C416 H440 0.950 . S
C417 C434 1.574 . S
C417 C436 1.368 1_655 S
C417 H441 0.949 . S
H418 C422 0.949 1_455 S
C419 C420 1.349 . S
C419 C421 1.327 . S
C419 H442 0.950 . S
C420 C419 1.349 . S
C420 C432 1.349 . S
C421 C419 1.327 . S
C421 C437 1.429 . S
C421 H443 0.950 . S
C422 H418 0.949 1_655 S
C422 C430 1.574 1_655 S
C422 C438 1.368 . S
H423 C431 0.950 . S
H424 C429 0.950 1_655 S
H425 C430 0.949 . S
H426 C432 0.950 . S
H427 C433 0.950 . S
H428 C434 0.949 . S
C429 H424 0.950 1_455 S
C429 C431 1.327 . S
C429 C435 1.429 . S
C430 C422 1.574 1_455 S
C430 H425 0.949 . S
C430 C436 1.368 . S
C431 C415 1.349 . S
C431 H423 0.950 . S
C431 C429 1.327 . S
C432 C420 1.349 . S
C432 H426 0.950 . S
C432 C433 1.327 . S
C433 H427 0.950 . S
C433 C432 1.327 . S
C433 C437 1.429 . S
C434 C417 1.574 . S
C434 H428 0.949 . S
C434 C438 1.368 . S
C435 C416 1.429 . S
C435 C429 1.429 . S
C435 C436 1.523 . S
C436 C417 1.368 1_455 S
C436 C430 1.368 . S
C436 C435 1.523 . S
C437 C421 1.429 . S
C437 C433 1.429 . S
C437 C438 1.523 . S
C438 C422 1.368 . S
C438 C434 1.368 . S
C438 C437 1.523 . S
H439 C414 0.950 . S
H440 C416 0.950 . S
H441 C417 0.949 . S
H442 C419 0.950 . S
H443 C421 0.950 . S
C444 C445 1.349 . S
C444 C446 1.327 . S
C444 H469 0.950 . S
C445 C444 1.349 . S
C445 C461 1.349 . S
C446 C444 1.327 . S
C446 C465 1.429 . S
C446 H470 0.950 . S
C447 C464 1.574 1_455 S
C447 C466 1.368 . S
C447 H471 0.949 1_455 S
H448 C452 0.949 . S
C449 C450 1.349 . S
C449 C451 1.327 . S
C449 H472 0.950 . S
C450 C449 1.349 . S
C450 C462 1.349 . S
C451 C449 1.327 . S
C451 C467 1.429 . S
C451 H473 0.950 . S
C452 H448 0.949 . S
C452 C460 1.574 . S
C452 C468 1.368 1_455 S
H453 C461 0.950 . S
H454 C459 0.950 . S
H455 C460 0.949 . S
H456 C462 0.950 . S
H457 C463 0.950 1_455 S
H458 C464 0.949 . S
C459 H454 0.950 . S
C459 C461 1.327 . S
C459 C465 1.429 . S
C460 C452 1.574 . S
C460 H455 0.949 . S
C460 C466 1.368 . S
C461 C445 1.349 . S
C461 H453 0.950 . S
C461 C459 1.327 . S
C462 C450 1.349 . S
C462 H456 0.950 . S
C462 C463 1.327 . S
C463 H457 0.950 1_655 S
C463 C462 1.327 . S
C463 C467 1.429 . S
C464 C447 1.574 1_655 S
C464 H458 0.949 . S
C464 C468 1.368 . S
C465 C446 1.429 . S
C465 C459 1.429 . S
C465 C466 1.523 . S
C466 C447 1.368 . S
C466 C460 1.368 . S
C466 C465 1.523 . S
C467 C451 1.429 . S
C467 C463 1.429 . S
C467 C468 1.523 . S
C468 C452 1.368 1_655 S
C468 C464 1.368 . S
C468 C467 1.523 . S
H469 C444 0.950 . S
H470 C446 0.950 . S
H471 C447 0.949 1_655 S
H472 C449 0.950 . S
H473 C451 0.950 . S
C474 C475 1.349 . S
C474 C476 1.327 . S
C474 H499 0.950 . S
C475 C474 1.349 . S
C475 C491 1.349 . S
C476 C474 1.327 . S
C476 C495 1.429 . S
C476 H500 0.950 . S
C477 C494 1.574 . S
C477 C496 1.368 1_545 S
C477 H501 0.949 . S
H478 C482 0.949 . S
C479 C480 1.349 . S
C479 C481 1.327 . S
C479 H502 0.950 . S
C480 C479 1.349 . S
C480 C492 1.349 . S
C481 C479 1.327 . S
C481 C497 1.429 . S
C481 H503 0.950 . S
C482 H478 0.949 . S
C482 C490 1.574 1_545 S
C482 C498 1.368 . S
H483 C491 0.950 . S
H484 C489 0.950 . S
H485 C490 0.949 . S
H486 C492 0.950 . S
H487 C493 0.950 . S
H488 C494 0.949 . S
C489 H484 0.950 . S
C489 C491 1.327 . S
C489 C495 1.429 . S
C490 C482 1.574 1_565 S
C490 H485 0.949 . S
C490 C496 1.368 . S
C491 C475 1.349 . S
C491 H483 0.950 . S
C491 C489 1.327 . S
C492 C480 1.349 . S
C492 H486 0.950 . S
C492 C493 1.327 . S
C493 H487 0.950 . S
C493 C492 1.327 . S
C493 C497 1.429 . S
C494 C477 1.574 . S
C494 H488 0.949 . S
C494 C498 1.368 . S
C495 C476 1.429 . S
C495 C489 1.429 . S
C495 C496 1.523 . S
C496 C477 1.368 1_565 S
C496 C490 1.368 . S
C496 C495 1.523 . S
C497 C481 1.429 . S
C497 C493 1.429 . S
C497 C498 1.523 . S
C498 C482 1.368 . S
C498 C494 1.368 . S
C498 C497 1.523 . S
H499 C474 0.950 . S
H500 C476 0.950 . S
H501 C477 0.949 . S
H502 C479 0.950 . S
H503 C481 0.950 . S
C504 C505 1.349 . S
C504 C506 1.327 . S
C504 H529 0.950 . S
C505 C504 1.349 . S
C505 C521 1.349 . S
C506 C504 1.327 . S
C506 C525 1.429 . S
C506 H530 0.950 . S
C507 C524 1.574 . S
C507 C526 1.368 . S
C507 H531 0.949 . S
H508 C512 0.949 . S
C509 C510 1.349 . S
C509 C511 1.327 . S
C509 H532 0.950 . S
C510 C509 1.349 . S
C510 C522 1.349 . S
C511 C509 1.327 . S
C511 C527 1.429 . S
C511 H533 0.950 . S
C512 H508 0.949 . S
C512 C520 1.574 . S
C512 C528 1.368 . S
H513 C521 0.950 . S
H514 C519 0.950 . S
H515 C520 0.949 . S
H516 C522 0.950 . S
H517 C523 0.950 . S
H518 C524 0.949 . S
C519 H514 0.950 . S
C519 C521 1.327 . S
C519 C525 1.429 . S
C520 C512 1.574 . S
C520 H515 0.949 . S
C520 C526 1.368 . S
C521 C505 1.349 . S
C521 H513 0.950 . S
C521 C519 1.327 . S
C522 C510 1.349 . S
C522 H516 0.950 . S
C522 C523 1.327 . S
C523 H517 0.950 . S
C523 C522 1.327 . S
C523 C527 1.429 . S
C524 C507 1.574 . S
C524 H518 0.949 . S
C524 C528 1.368 . S
C525 C506 1.429 . S
C525 C519 1.429 . S
C525 C526 1.523 . S
C526 C507 1.368 . S
C526 C520 1.368 . S
C526 C525 1.523 . S
C527 C511 1.429 . S
C527 C523 1.429 . S
C527 C528 1.523 . S
C528 C512 1.368 . S
C528 C524 1.368 . S
C528 C527 1.523 . S
H529 C504 0.950 . S
H530 C506 0.950 . S
H531 C507 0.949 . S
H532 C509 0.950 . S
H533 C511 0.950 . S
C534 C535 1.349 . S
C534 C536 1.327 . S
C534 H559 0.950 . S
C535 C534 1.349 . S
C535 C551 1.349 . S
C536 C534 1.327 . S
C536 C555 1.429 . S
C536 H560 0.950 . S
C537 C554 1.574 1_655 S
C537 C556 1.368 . S
C537 H561 0.949 . S
H538 C542 0.949 . S
C539 C540 1.349 . S
C539 C541 1.327 . S
C539 H562 0.950 . S
C540 C539 1.349 . S
C540 C552 1.349 . S
C541 C539 1.327 . S
C541 C557 1.429 . S
C541 H563 0.950 . S
C542 H538 0.949 . S
C542 C550 1.574 . S
C542 C558 1.368 1_655 S
H543 C551 0.950 . S
H544 C549 0.950 . S
H545 C550 0.949 . S
H546 C552 0.950 1_556 S
H547 C553 0.950 . S
H548 C554 0.949 . S
C549 H544 0.950 . S
C549 C551 1.327 . S
C549 C555 1.429 . S
C550 C542 1.574 . S
C550 H545 0.949 . S
C550 C556 1.368 . S
C551 C535 1.349 . S
C551 H543 0.950 . S
C551 C549 1.327 . S
C552 C540 1.349 . S
C552 H546 0.950 1_554 S
C552 C553 1.327 . S
C553 H547 0.950 . S
C553 C552 1.327 . S
C553 C557 1.429 . S
C554 C537 1.574 1_455 S
C554 H548 0.949 . S
C554 C558 1.368 . S
C555 C536 1.429 . S
C555 C549 1.429 . S
C555 C556 1.523 . S
C556 C537 1.368 . S
C556 C550 1.368 . S
C556 C555 1.523 . S
C557 C541 1.429 . S
C557 C553 1.429 . S
C557 C558 1.523 . S
C558 C542 1.368 1_455 S
C558 C554 1.368 . S
C558 C557 1.523 . S
H559 C534 0.950 . S
H560 C536 0.950 . S
H561 C537 0.949 . S
H562 C539 0.950 . S
H563 C541 0.950 . S
C564 C565 1.349 . S
C564 C566 1.327 . S
C564 H589 0.950 . S
C565 C564 1.349 . S
C565 C581 1.349 . S
C566 C564 1.327 . S
C566 C585 1.429 . S
C566 H590 0.950 . S
C567 C584 1.574 1_565 S
C567 C586 1.368 . S
C567 H591 0.949 . S
H568 C572 0.949 . S
C569 C570 1.349 . S
C569 C571 1.327 . S
C569 H592 0.950 . S
C570 C569 1.349 . S
C570 C582 1.349 . S
C571 C569 1.327 . S
C571 C587 1.429 . S
C571 H593 0.950 . S
C572 H568 0.949 . S
C572 C580 1.574 . S
C572 C588 1.368 1_565 S
H573 C581 0.950 . S
H574 C579 0.950 . S
H575 C580 0.949 . S
H576 C582 0.950 . S
H577 C583 0.950 . S
H578 C584 0.949 . S
C579 H574 0.950 . S
C579 C581 1.327 . S
C579 C585 1.429 . S
C580 C572 1.574 . S
C580 H575 0.949 . S
C580 C586 1.368 . S
C581 C565 1.349 . S
C581 H573 0.950 . S
C581 C579 1.327 . S
C582 C570 1.349 . S
C582 H576 0.950 . S
C582 C583 1.327 . S
C583 H577 0.950 . S
C583 C582 1.327 . S
C583 C587 1.429 . S
C584 C567 1.574 1_545 S
C584 H578 0.949 . S
C584 C588 1.368 . S
C585 C566 1.429 . S
C585 C579 1.429 . S
C585 C586 1.523 . S
C586 C567 1.368 . S
C586 C580 1.368 . S
C586 C585 1.523 . S
C587 C571 1.429 . S
C587 C583 1.429 . S
C587 C588 1.523 . S
C588 C572 1.368 1_545 S
C588 C584 1.368 . S
C588 C587 1.523 . S
H589 C564 0.950 . S
H590 C566 0.950 . S
H591 C567 0.949 . S
H592 C569 0.950 . S
H593 C571 0.950 . S
C594 C595 1.349 . S
C594 C596 1.327 . S
C594 H619 0.950 . S
C595 C594 1.349 . S
C595 C611 1.349 . S
C596 C594 1.327 . S
C596 C615 1.429 . S
C596 H620 0.950 . S
C597 C614 1.574 . S
C597 C616 1.368 . S
C597 H621 0.949 . S
H598 C602 0.949 . S
C599 C600 1.349 . S
C599 C601 1.327 . S
C599 H622 0.950 . S
C600 C599 1.349 . S
C600 C612 1.349 . S
C601 C599 1.327 . S
C601 C617 1.429 . S
C601 H623 0.950 . S
C602 H598 0.949 . S
C602 C610 1.574 . S
C602 C618 1.368 . S
H603 C611 0.950 . S
H604 C609 0.950 . S
H605 C610 0.949 . S
H606 C612 0.950 . S
H607 C613 0.950 . S
H608 C614 0.949 . S
C609 H604 0.950 . S
C609 C611 1.327 . S
C609 C615 1.429 . S
C610 C602 1.574 . S
C610 H605 0.949 . S
C610 C616 1.368 . S
C611 C595 1.349 . S
C611 H603 0.950 . S
C611 C609 1.327 . S
C612 C600 1.349 . S
C612 H606 0.950 . S
C612 C613 1.327 . S
C613 H607 0.950 . S
C613 C612 1.327 . S
C613 C617 1.429 . S
C614 C597 1.574 . S
C614 H608 0.949 . S
C614 C618 1.368 . S
C615 C596 1.429 . S
C615 C609 1.429 . S
C615 C616 1.523 . S
C616 C597 1.368 . S
C616 C610 1.368 . S
C616 C615 1.523 . S
C617 C601 1.429 . S
C617 C613 1.429 . S
C617 C618 1.523 . S
C618 C602 1.368 . S
C618 C614 1.368 . S
C618 C617 1.523 . S
H619 C594 0.950 . S
H620 C596 0.950 . S
H621 C597 0.949 . S
H622 C599 0.950 . S
H623 C601 0.950 . S
C624 C625 1.349 . S
C624 C626 1.327 . S
C624 H649 0.950 . S
C625 C624 1.349 . S
C625 C641 1.349 . S
C626 C624 1.327 . S
C626 C645 1.429 . S
C626 H650 0.950 . S
C627 C644 1.574 . S
C627 C646 1.368 . S
C627 H651 0.949 . S
H628 C632 0.949 1_545 S
C629 C630 1.349 . S
C629 C631 1.327 . S
C629 H652 0.950 . S
C630 C629 1.349 . S
C630 C642 1.349 . S
C631 C629 1.327 . S
C631 C647 1.429 . S
C631 H653 0.950 . S
C632 H628 0.949 1_565 S
C632 C640 1.574 . S
C632 C648 1.368 . S
H633 C641 0.950 . S
H634 C639 0.950 . S
H635 C640 0.949 . S
H636 C642 0.950 . S
H637 C643 0.950 . S
H638 C644 0.949 . S
C639 H634 0.950 . S
C639 C641 1.327 . S
C639 C645 1.429 . S
C640 C632 1.574 . S
C640 H635 0.949 . S
C640 C646 1.368 . S
C641 C625 1.349 . S
C641 H633 0.950 . S
C641 C639 1.327 . S
C642 C630 1.349 . S
C642 H636 0.950 . S
C642 C643 1.327 . S
C643 H637 0.950 . S
C643 C642 1.327 . S
C643 C647 1.429 . S
C644 C627 1.574 . S
C644 H638 0.949 . S
C644 C648 1.368 . S
C645 C626 1.429 . S
C645 C639 1.429 . S
C645 C646 1.523 . S
C646 C627 1.368 . S
C646 C640 1.368 . S
C646 C645 1.523 . S
C647 C631 1.429 . S
C647 C643 1.429 . S
C647 C648 1.523 1_545 S
C648 C632 1.368 . S
C648 C644 1.368 . S
C648 C647 1.523 1_565 S
H649 C624 0.950 . S
H650 C626 0.950 . S
H651 C627 0.949 . S
H652 C629 0.950 . S
H653 C631 0.950 . S
C654 C655 1.349 . S
C654 C656 1.327 . S
C654 H679 0.950 . S
C655 C654 1.349 . S
C655 C671 1.349 . S
C656 C654 1.327 . S
C656 C675 1.429 . S
C656 H680 0.950 . S
C657 C674 1.574 . S
C657 C676 1.368 . S
C657 H681 0.949 . S
H658 C662 0.949 . S
C659 C660 1.349 . S
C659 C661 1.327 . S
C659 H682 0.950 . S
C660 C659 1.349 . S
C660 C672 1.349 . S
C661 C659 1.327 . S
C661 C677 1.429 . S
C661 H683 0.950 . S
C662 H658 0.949 . S
C662 C670 1.574 . S
C662 C678 1.368 . S
H663 C671 0.950 . S
H664 C669 0.950 . S
H665 C670 0.949 . S
H666 C672 0.950 . S
H667 C673 0.950 . S
H668 C674 0.949 . S
C669 H664 0.950 . S
C669 C671 1.327 . S
C669 C675 1.429 . S
C670 C662 1.574 . S
C670 H665 0.949 . S
C670 C676 1.368 . S
C671 C655 1.349 . S
C671 H663 0.950 . S
C671 C669 1.327 . S
C672 C660 1.349 . S
C672 H666 0.950 . S
C672 C673 1.327 . S
C673 H667 0.950 . S
C673 C672 1.327 . S
C673 C677 1.429 . S
C674 C657 1.574 . S
C674 H668 0.949 . S
C674 C678 1.368 . S
C675 C656 1.429 . S
C675 C669 1.429 . S
C675 C676 1.523 . S
C676 C657 1.368 . S
C676 C670 1.368 . S
C676 C675 1.523 . S
C677 C661 1.429 . S
C677 C673 1.429 . S
C677 C678 1.523 . S
C678 C662 1.368 . S
C678 C674 1.368 . S
C678 C677 1.523 . S
H679 C654 0.950 . S
H680 C656 0.950 . S
H681 C657 0.949 . S
H682 C659 0.950 . S
H683 C661 0.950 . S
C684 C685 1.349 . S
C684 C686 1.327 . S
C684 H709 0.950 . S
C685 C684 1.349 . S
C685 C701 1.349 . S
C686 C684 1.327 . S
C686 C705 1.429 . S
C686 H710 0.950 . S
C687 C704 1.574 1_455 S
C687 C706 1.368 . S
C687 H711 0.949 . S
H688 C692 0.949 . S
C689 C690 1.349 . S
C689 C691 1.327 . S
C689 H712 0.950 . S
C690 C689 1.349 . S
C690 C702 1.349 . S
C691 C689 1.327 . S
C691 C707 1.429 . S
C691 H713 0.950 . S
C692 H688 0.949 . S
C692 C700 1.574 . S
C692 C708 1.368 . S
H693 C701 0.950 . S
H694 C699 0.950 . S
H695 C700 0.949 . S
H696 C702 0.950 . S
H697 C703 0.950 1_455 S
H698 C704 0.949 . S
C699 H694 0.950 . S
C699 C701 1.327 . S
C699 C705 1.429 . S
C700 C692 1.574 . S
C700 H695 0.949 . S
C700 C706 1.368 . S
C701 C685 1.349 . S
C701 H693 0.950 . S
C701 C699 1.327 . S
C702 C690 1.349 . S
C702 H696 0.950 . S
C702 C703 1.327 . S
C703 H697 0.950 1_655 S
C703 C702 1.327 . S
C703 C707 1.429 . S
C704 C687 1.574 1_655 S
C704 H698 0.949 . S
C704 C708 1.368 1_655 S
C705 C686 1.429 . S
C705 C699 1.429 . S
C705 C706 1.523 . S
C706 C687 1.368 . S
C706 C700 1.368 . S
C706 C705 1.523 . S
C707 C691 1.429 . S
C707 C703 1.429 . S
C707 C708 1.523 1_655 S
C708 C692 1.368 . S
C708 C704 1.368 1_455 S
C708 C707 1.523 1_455 S
H709 C684 0.950 . S
H710 C686 0.950 . S
H711 C687 0.949 . S
H712 C689 0.950 . S
H713 C691 0.950 . S
C714 C715 1.349 . S
C714 C716 1.327 . S
C714 H739 0.950 . S
C715 C714 1.349 . S
C715 C731 1.349 . S
C716 C714 1.327 . S
C716 C735 1.429 . S
C716 H740 0.950 . S
C717 C734 1.574 . S
C717 C736 1.368 . S
C717 H741 0.949 . S
H718 C722 0.949 . S
C719 C720 1.349 . S
C719 C721 1.327 . S
C719 H742 0.950 . S
C720 C719 1.349 . S
C720 C732 1.349 . S
C721 C719 1.327 . S
C721 C737 1.429 . S
C721 H743 0.950 1_565 S
C722 H718 0.949 . S
C722 C730 1.574 1_565 S
C722 C738 1.368 1_565 S
H723 C731 0.950 . S
H724 C729 0.950 . S
H725 C730 0.949 . S
H726 C732 0.950 . S
H727 C733 0.950 . S
H728 C734 0.949 . S
C729 H724 0.950 . S
C729 C731 1.327 . S
C729 C735 1.429 . S
C730 C722 1.574 1_545 S
C730 H725 0.949 . S
C730 C736 1.368 . S
C731 C715 1.349 . S
C731 H723 0.950 . S
C731 C729 1.327 . S
C732 C720 1.349 . S
C732 H726 0.950 . S
C732 C733 1.327 . S
C733 H727 0.950 . S
C733 C732 1.327 . S
C733 C737 1.429 . S
C734 C717 1.574 . S
C734 H728 0.949 . S
C734 C738 1.368 . S
C735 C716 1.429 . S
C735 C729 1.429 . S
C735 C736 1.523 . S
C736 C717 1.368 . S
C736 C730 1.368 . S
C736 C735 1.523 . S
C737 C721 1.429 . S
C737 C733 1.429 . S
C737 C738 1.523 1_565 S
C738 C722 1.368 1_545 S
C738 C734 1.368 . S
C738 C737 1.523 1_545 S
H739 C714 0.950 . S
H740 C716 0.950 . S
H741 C717 0.949 . S
H742 C719 0.950 . S
H743 C721 0.950 1_545 S
C744 C745 1.349 . S
C744 C746 1.327 . S
C744 H769 0.950 . S
C745 C744 1.349 . S
C745 C761 1.349 . S
C746 C744 1.327 . S
C746 C765 1.429 . S
C746 H770 0.950 1_556 S
C747 C764 1.577 1_556 S
C747 C766 1.370 1_556 S
C747 H771 0.944 . S
H748 C752 0.949 . S
C749 C750 1.349 . S
C749 C751 1.327 . S
C749 H772 0.950 . S
C750 C749 1.349 . S
C750 C762 1.349 . S
C751 C749 1.327 . S
C751 C767 1.429 . S
C751 H773 0.950 . S
C752 H748 0.949 . S
C752 C760 1.574 . S
C752 C768 1.368 . S
H753 C761 0.950 . S
H754 C759 0.950 . S
H755 C760 0.949 . S
H756 C762 0.950 . S
H757 C763 0.950 . S
H758 C764 0.949 . S
C759 H754 0.950 . S
C759 C761 1.327 . S
C759 C765 1.429 . S
C760 C752 1.574 . S
C760 H755 0.949 . S
C760 C766 1.368 . S
C761 C745 1.349 . S
C761 H753 0.950 . S
C761 C759 1.327 . S
C762 C750 1.349 . S
C762 H756 0.950 . S
C762 C763 1.327 . S
C763 H757 0.950 . S
C763 C762 1.327 . S
C763 C767 1.429 . S
C764 C747 1.577 1_554 S
C764 H758 0.949 . S
C764 C768 1.368 . S
C765 C746 1.429 . S
C765 C759 1.429 . S
C765 C766 1.523 1_556 S
C766 C747 1.370 1_554 S
C766 C760 1.368 . S
C766 C765 1.523 1_554 S
C767 C751 1.429 . S
C767 C763 1.429 . S
C767 C768 1.523 . S
C768 C752 1.368 . S
C768 C764 1.368 . S
C768 C767 1.523 . S
H769 C744 0.950 . S
H770 C746 0.950 1_554 S
H771 C747 0.944 . S
H772 C749 0.950 . S
H773 C751 0.950 . S
C774 C775 1.349 . S
C774 C776 1.327 . S
C774 H799 0.950 . S
C775 C774 1.349 . S
C775 C791 1.349 . S
C776 C774 1.327 . S
C776 C795 1.429 . S
C776 H800 0.950 1_455 S
C777 C794 1.574 1_455 S
C777 C796 1.368 1_455 S
C777 H801 0.949 . S
H778 C782 0.949 . S
C779 C780 1.349 . S
C779 C781 1.327 . S
C779 H802 0.950 . S
C780 C779 1.349 . S
C780 C792 1.349 . S
C781 C779 1.327 . S
C781 C797 1.429 . S
C781 H803 0.950 . S
C782 H778 0.949 . S
C782 C790 1.574 . S
C782 C798 1.368 . S
H783 C791 0.950 . S
H784 C789 0.950 . S
H785 C790 0.949 . S
H786 C792 0.950 . S
H787 C793 0.950 . S
H788 C794 0.949 . S
C789 H784 0.950 . S
C789 C791 1.327 . S
C789 C795 1.429 . S
C790 C782 1.574 . S
C790 H785 0.949 . S
C790 C796 1.368 . S
C791 C775 1.349 . S
C791 H783 0.950 . S
C791 C789 1.327 . S
C792 C780 1.349 . S
C792 H786 0.950 . S
C792 C793 1.327 . S
C793 H787 0.950 . S
C793 C792 1.327 . S
C793 C797 1.429 . S
C794 C777 1.574 1_655 S
C794 H788 0.949 . S
C794 C798 1.368 . S
C795 C776 1.429 . S
C795 C789 1.429 . S
C795 C796 1.523 1_455 S
C796 C777 1.368 1_655 S
C796 C790 1.368 . S
C796 C795 1.523 1_655 S
C797 C781 1.429 . S
C797 C793 1.429 . S
C797 C798 1.523 . S
C798 C782 1.368 . S
C798 C794 1.368 . S
C798 C797 1.523 . S
H799 C774 0.950 . S
H800 C776 0.950 1_655 S
H801 C777 0.949 . S
H802 C779 0.950 . S
H803 C781 0.950 . S
C804 C805 1.349 . S
C804 C806 1.327 . S
C804 H829 0.950 . S
C805 C804 1.349 . S
C805 C821 1.349 . S
C806 C804 1.327 . S
C806 C825 1.429 . S
C806 H830 0.950 . S
C807 C824 1.574 . S
C807 C826 1.368 . S
C807 H831 0.949 1_455 S
H808 C812 0.949 . S
C809 C810 1.349 . S
C809 C811 1.327 . S
C809 H832 0.950 . S
C810 C809 1.349 . S
C810 C822 1.349 . S
C811 C809 1.327 . S
C811 C827 1.429 . S
C811 H833 0.950 . S
C812 H808 0.949 . S
C812 C820 1.574 . S
C812 C828 1.368 . S
H813 C821 0.950 . S
H814 C819 0.950 . S
H815 C820 0.949 . S
H816 C822 0.950 . S
H817 C823 0.950 . S
H818 C824 0.949 . S
C819 H814 0.950 . S
C819 C821 1.327 . S
C819 C825 1.429 . S
C820 C812 1.574 . S
C820 H815 0.949 . S
C820 C826 1.368 . S
C821 C805 1.349 . S
C821 H813 0.950 . S
C821 C819 1.327 . S
C822 C810 1.349 . S
C822 H816 0.950 . S
C822 C823 1.327 . S
C823 H817 0.950 . S
C823 C822 1.327 . S
C823 C827 1.429 . S
C824 C807 1.574 . S
C824 H818 0.949 . S
C824 C828 1.368 . S
C825 C806 1.429 . S
C825 C819 1.429 . S
C825 C826 1.523 1_655 S
C826 C807 1.368 . S
C826 C820 1.368 . S
C826 C825 1.523 1_455 S
C827 C811 1.429 . S
C827 C823 1.429 . S
C827 C828 1.523 . S
C828 C812 1.368 . S
C828 C824 1.368 . S
C828 C827 1.523 . S
H829 C804 0.950 . S
H830 C806 0.950 . S
H831 C807 0.949 1_655 S
H832 C809 0.950 . S
H833 C811 0.950 . S
C834 C835 1.349 . S
C834 C836 1.327 1_565 S
C834 H859 0.950 . S
C835 C834 1.349 . S
C835 C851 1.349 . S
C836 C834 1.327 1_545 S
C836 C855 1.429 1_545 S
C836 H860 0.950 . S
C837 C854 1.574 1_565 S
C837 C856 1.368 1_565 S
C837 H861 0.949 . S
H838 C842 0.949 . S
C839 C840 1.349 . S
C839 C841 1.327 . S
C839 H862 0.950 . S
C840 C839 1.349 . S
C840 C852 1.349 . S
C841 C839 1.327 . S
C841 C857 1.429 . S
C841 H863 0.950 . S
C842 H838 0.949 . S
C842 C850 1.574 . S
C842 C858 1.368 . S
H843 C851 0.950 . S
H844 C849 0.950 . S
H845 C850 0.949 . S
H846 C852 0.950 . S
H847 C853 0.950 . S
H848 C854 0.949 1_565 S
C849 H844 0.950 . S
C849 C851 1.327 . S
C849 C855 1.429 . S
C850 C842 1.574 . S
C850 H845 0.949 . S
C850 C856 1.368 . S
C851 C835 1.349 . S
C851 H843 0.950 . S
C851 C849 1.327 . S
C852 C840 1.349 . S
C852 H846 0.950 . S
C852 C853 1.327 . S
C853 H847 0.950 . S
C853 C852 1.327 . S
C853 C857 1.429 . S
C854 C837 1.574 1_545 S
C854 H848 0.949 1_545 S
C854 C858 1.368 . S
C855 C836 1.429 1_565 S
C855 C849 1.429 . S
C855 C856 1.523 1_565 S
C856 C837 1.368 1_545 S
C856 C850 1.368 . S
C856 C855 1.523 1_545 S
C857 C841 1.429 . S
C857 C853 1.429 . S
C857 C858 1.523 . S
C858 C842 1.368 . S
C858 C854 1.368 . S
C858 C857 1.523 . S
H859 C834 0.950 . S
H860 C836 0.950 . S
H861 C837 0.949 . S
H862 C839 0.950 . S
H863 C841 0.950 . S
C864 C865 1.349 . S
C864 C866 1.327 . S
C864 H889 0.950 . S
C865 C864 1.349 . S
C865 C881 1.349 . S
C866 C864 1.327 . S
C866 C885 1.429 . S
C866 H890 0.950 . S
C867 C884 1.574 . S
C867 C886 1.368 . S
C867 H891 0.949 . S
H868 C872 0.949 . S
C869 C870 1.349 . S
C869 C871 1.327 . S
C869 H892 0.950 . S
C870 C869 1.349 . S
C870 C882 1.349 . S
C871 C869 1.327 . S
C871 C887 1.429 . S
C871 H893 0.950 . S
C872 H868 0.949 . S
C872 C880 1.574 . S
C872 C888 1.368 . S
H873 C881 0.950 . S
H874 C879 0.950 . S
H875 C880 0.949 . S
H876 C882 0.950 . S
H877 C883 0.950 . S
H878 C884 0.949 . S
C879 H874 0.950 . S
C879 C881 1.327 . S
C879 C885 1.429 . S
C880 C872 1.574 . S
C880 H875 0.949 . S
C880 C886 1.368 . S
C881 C865 1.349 . S
C881 H873 0.950 . S
C881 C879 1.327 . S
C882 C870 1.349 . S
C882 H876 0.950 . S
C882 C883 1.327 . S
C883 H877 0.950 . S
C883 C882 1.327 . S
C883 C887 1.429 . S
C884 C867 1.574 . S
C884 H878 0.949 . S
C884 C888 1.368 . S
C885 C866 1.429 . S
C885 C879 1.429 . S
C885 C886 1.523 . S
C886 C867 1.368 . S
C886 C880 1.368 . S
C886 C885 1.523 . S
C887 C871 1.429 . S
C887 C883 1.429 . S
C887 C888 1.523 . S
C888 C872 1.368 . S
C888 C884 1.368 . S
C888 C887 1.523 . S
H889 C864 0.950 . S
H890 C866 0.950 . S
H891 C867 0.949 . S
H892 C869 0.950 . S
H893 C871 0.950 . S
C894 C895 1.349 . S
C894 C896 1.327 . S
C894 H919 0.950 . S
C895 C894 1.349 . S
C895 C911 1.349 . S
C896 C894 1.327 . S
C896 C915 1.429 . S
C896 H920 0.950 1_554 S
C897 C914 1.569 1_554 S
C897 C916 1.366 1_554 S
C897 H921 0.955 . S
H898 C902 0.949 . S
C899 C900 1.349 . S
C899 C901 1.327 . S
C899 H922 0.950 . S
C900 C899 1.349 . S
C900 C912 1.349 . S
C901 C899 1.327 . S
C901 C917 1.429 . S
C901 H923 0.950 1_455 S
C902 H898 0.949 . S
C902 C910 1.574 1_455 S
C902 C918 1.368 1_455 S
H903 C911 0.950 . S
H904 C909 0.950 . S
H905 C910 0.949 . S
H906 C912 0.950 . S
H907 C913 0.950 . S
H908 C914 0.949 . S
C909 H904 0.950 . S
C909 C911 1.327 . S
C909 C915 1.429 . S
C910 C902 1.574 1_655 S
C910 H905 0.949 . S
C910 C916 1.368 . S
C911 C895 1.349 . S
C911 H903 0.950 . S
C911 C909 1.327 . S
C912 C900 1.349 . S
C912 H906 0.950 . S
C912 C913 1.327 . S
C913 H907 0.950 . S
C913 C912 1.327 . S
C913 C917 1.429 . S
C914 C897 1.569 1_556 S
C914 H908 0.949 . S
C914 C918 1.368 . S
C915 C896 1.429 . S
C915 C909 1.429 . S
C915 C916 1.523 1_554 S
C916 C897 1.366 1_556 S
C916 C910 1.368 . S
C916 C915 1.523 1_556 S
C917 C901 1.429 . S
C917 C913 1.429 . S
C917 C918 1.523 1_455 S
C918 C902 1.368 1_655 S
C918 C914 1.368 . S
C918 C917 1.523 1_655 S
H919 C894 0.950 . S
H920 C896 0.950 1_556 S
H921 C897 0.955 . S
H922 C899 0.950 . S
H923 C901 0.950 1_655 S
C924 C925 1.349 . S
C924 C926 1.327 . S
C924 H949 0.950 . S
C925 C924 1.349 . S
C925 C941 1.349 . S
C926 C924 1.327 . S
C926 C945 1.429 . S
C926 H950 0.950 . S
C927 C944 1.574 . S
C927 C946 1.368 . S
C927 H951 0.949 . S
H928 C932 0.949 1_545 S
C929 C930 1.349 . S
C929 C931 1.327 . S
C929 H952 0.950 . S
C930 C929 1.349 . S
C930 C942 1.349 . S
C931 C929 1.327 . S
C931 C947 1.429 . S
C931 H953 0.950 . S
C932 H928 0.949 1_565 S
C932 C940 1.574 1_565 S
C932 C948 1.368 . S
H933 C941 0.950 . S
H934 C939 0.950 . S
H935 C940 0.949 . S
H936 C942 0.950 . S
H937 C943 0.950 . S
H938 C944 0.949 . S
C939 H934 0.950 . S
C939 C941 1.327 1_565 S
C939 C945 1.429 1_565 S
C940 C932 1.574 1_545 S
C940 H935 0.949 . S
C940 C946 1.368 1_545 S
C941 C925 1.349 . S
C941 H933 0.950 . S
C941 C939 1.327 1_545 S
C942 C930 1.349 . S
C942 H936 0.950 . S
C942 C943 1.327 . S
C943 H937 0.950 . S
C943 C942 1.327 . S
C943 C947 1.429 . S
C944 C927 1.574 . S
C944 H938 0.949 . S
C944 C948 1.368 . S
C945 C926 1.429 . S
C945 C939 1.429 1_545 S
C945 C946 1.523 1_545 S
C946 C927 1.368 . S
C946 C940 1.368 1_565 S
C946 C945 1.523 1_565 S
C947 C931 1.429 . S
C947 C943 1.429 . S
C947 C948 1.523 . S
C948 C932 1.368 . S
C948 C944 1.368 . S
C948 C947 1.523 . S
H949 C924 0.950 . S
H950 C926 0.950 . S
H951 C927 0.949 . S
H952 C929 0.950 . S
H953 C931 0.950 . S
C954 C955 1.349 . S
C954 C956 1.327 . S
C954 H979 0.950 . S
C955 C954 1.349 . S
C955 C971 1.349 . S
C956 C954 1.327 . S
C956 C975 1.429 . S
C956 H980 0.950 . S
C957 C974 1.574 . S
C957 C976 1.368 . S
C957 H981 0.949 . S
H958 C962 0.949 . S
C959 C960 1.349 . S
C959 C961 1.327 . S
C959 H982 0.950 . S
C960 C959 1.349 . S
C960 C972 1.349 . S
C961 C959 1.327 . S
C961 C977 1.429 . S
C961 H983 0.950 . S
C962 H958 0.949 . S
C962 C970 1.574 . S
C962 C978 1.368 . S
H963 C971 0.950 . S
H964 C969 0.950 . S
H965 C970 0.949 . S
H966 C972 0.950 . S
H967 C973 0.950 . S
H968 C974 0.949 . S
C969 H964 0.950 . S
C969 C971 1.327 . S
C969 C975 1.429 . S
C970 C962 1.574 . S
C970 H965 0.949 . S
C970 C976 1.368 . S
C971 C955 1.349 . S
C971 H963 0.950 . S
C971 C969 1.327 . S
C972 C960 1.349 . S
C972 H966 0.950 . S
C972 C973 1.327 . S
C973 H967 0.950 . S
C973 C972 1.327 . S
C973 C977 1.429 . S
C974 C957 1.574 . S
C974 H968 0.949 . S
C974 C978 1.368 . S
C975 C956 1.429 . S
C975 C969 1.429 . S
C975 C976 1.523 . S
C976 C957 1.368 . S
C976 C970 1.368 . S
C976 C975 1.523 . S
C977 C961 1.429 . S
C977 C973 1.429 . S
C977 C978 1.523 . S
C978 C962 1.368 . S
C978 C974 1.368 . S
C978 C977 1.523 . S
H979 C954 0.950 . S
H980 C956 0.950 . S
H981 C957 0.949 . S
H982 C959 0.950 . S
H983 C961 0.950 . S
C984 C985 1.349 1_455 S
C984 C986 1.327 . S
C984 H1009 0.950 . S
C985 C984 1.349 1_655 S
C985 C1001 1.349 . S
C986 C984 1.327 . S
C986 C1005 1.429 . S
C986 H1010 0.950 . S
C987 C1004 1.574 . S
C987 C1006 1.368 . S
C987 H1011 0.949 . S
H988 C992 0.949 . S
C989 C990 1.349 . S
C989 C991 1.327 1_545 S
C989 H1012 0.950 . S
C990 C989 1.349 . S
C990 C1002 1.349 . S
C991 C989 1.327 1_565 S
C991 C1007 1.429 . S
C991 H1013 0.950 . S
C992 H988 0.949 . S
C992 C1000 1.574 . S
C992 C1008 1.368 . S
H993 C1001 0.950 . S
H994 C999 0.950 . S
H995 C1000 0.949 . S
H996 C1002 0.950 . S
H997 C1003 0.950 . S
H998 C1004 0.949 . S
C999 H994 0.950 . S
C999 C1001 1.327 . S
C999 C1005 1.429 1_655 S
C1000 C992 1.574 . S
C1000 H995 0.949 . S
C1000 C1006 1.368 . S
C1001 C985 1.349 . S
C1001 H993 0.950 . S
C1001 C999 1.327 . S
C1002 C990 1.349 . S
C1002 H996 0.950 . S
C1002 C1003 1.327 1_545 S
C1003 H997 0.950 . S
C1003 C1002 1.327 1_565 S
C1003 C1007 1.429 . S
C1004 C987 1.574 . S
C1004 H998 0.949 . S
C1004 C1008 1.368 . S
C1005 C986 1.429 . S
C1005 C999 1.429 1_455 S
C1005 C1006 1.523 . S
C1006 C987 1.368 . S
C1006 C1000 1.368 . S
C1006 C1005 1.523 . S
C1007 C991 1.429 . S
C1007 C1003 1.429 . S
C1007 C1008 1.523 . S
C1008 C992 1.368 . S
C1008 C1004 1.368 . S
C1008 C1007 1.523 . S
H1009 C984 0.950 . S
H1010 C986 0.950 . S
H1011 C987 0.949 . S
H1012 C989 0.950 . S
H1013 C991 0.950 . S
C1014 C1015 1.349 . S
C1014 C1016 1.327 . S
C1014 H1039 0.950 . S
C1015 C1014 1.349 . S
C1015 C1031 1.349 . S
C1016 C1014 1.327 . S
C1016 C1035 1.429 . S
C1016 H1040 0.950 . S
C1017 C1034 1.574 . S
C1017 C1036 1.368 . S
C1017 H1041 0.949 . S
H1018 C1022 0.949 . S
C1019 C1020 1.349 . S
C1019 C1021 1.327 1_565 S
C1019 H1042 0.950 . S
C1020 C1019 1.349 . S
C1020 C1032 1.349 . S
C1021 C1019 1.327 1_545 S
C1021 C1037 1.429 . S
C1021 H1043 0.950 . S
C1022 H1018 0.949 . S
C1022 C1030 1.574 . S
C1022 C1038 1.368 . S
H1023 C1031 0.950 . S
H1024 C1029 0.950 . S
H1025 C1030 0.949 . S
H1026 C1032 0.950 . S
H1027 C1033 0.950 . S
H1028 C1034 0.949 . S
C1029 H1024 0.950 . S
C1029 C1031 1.327 . S
C1029 C1035 1.429 . S
C1030 C1022 1.574 . S
C1030 H1025 0.949 . S
C1030 C1036 1.368 . S
C1031 C1015 1.349 . S
C1031 H1023 0.950 . S
C1031 C1029 1.327 . S
C1032 C1020 1.349 . S
C1032 H1026 0.950 . S
C1032 C1033 1.326 1_565 S
C1033 H1027 0.950 . S
C1033 C1032 1.326 1_545 S
C1033 C1037 1.429 . S
C1034 C1017 1.574 . S
C1034 H1028 0.949 . S
C1034 C1038 1.368 . S
C1035 C1016 1.429 . S
C1035 C1029 1.429 . S
C1035 C1036 1.523 . S
C1036 C1017 1.368 . S
C1036 C1030 1.368 . S
C1036 C1035 1.523 . S
C1037 C1021 1.429 . S
C1037 C1033 1.429 . S
C1037 C1038 1.523 . S
C1038 C1022 1.368 . S
C1038 C1034 1.368 . S
C1038 C1037 1.523 . S
H1039 C1014 0.950 . S
H1040 C1016 0.950 . S
H1041 C1017 0.949 . S
H1042 C1019 0.950 . S
H1043 C1021 0.950 . S
C1044 C1045 1.349 . S
C1044 C1046 1.327 . S
C1044 H1069 0.950 . S
C1045 C1044 1.349 . S
C1045 C1061 1.349 . S
C1046 C1044 1.327 . S
C1046 C1065 1.429 . S
C1046 H1070 0.950 . S
C1047 C1064 1.574 . S
C1047 C1066 1.368 . S
C1047 H1071 0.949 . S
H1048 C1052 0.949 . S
C1049 C1050 1.349 . S
C1049 C1051 1.327 . S
C1049 H1072 0.950 . S
C1050 C1049 1.349 . S
C1050 C1062 1.349 1_655 S
C1051 C1049 1.327 . S
C1051 C1067 1.429 1_655 S
C1051 H1073 0.950 . S
C1052 H1048 0.949 . S
C1052 C1060 1.574 . S
C1052 C1068 1.368 . S
H1053 C1061 0.950 . S
H1054 C1059 0.950 . S
H1055 C1060 0.949 . S
H1056 C1062 0.950 . S
H1057 C1063 0.950 . S
H1058 C1064 0.949 . S
C1059 H1054 0.950 . S
C1059 C1061 1.327 . S
C1059 C1065 1.429 . S
C1060 C1052 1.574 . S
C1060 H1055 0.949 . S
C1060 C1066 1.368 . S
C1061 C1045 1.349 . S
C1061 H1053 0.950 . S
C1061 C1059 1.327 . S
C1062 C1050 1.349 1_455 S
C1062 H1056 0.950 . S
C1062 C1063 1.327 . S
C1063 H1057 0.950 . S
C1063 C1062 1.327 . S
C1063 C1067 1.429 . S
C1064 C1047 1.574 . S
C1064 H1058 0.949 . S
C1064 C1068 1.368 . S
C1065 C1046 1.429 . S
C1065 C1059 1.429 . S
C1065 C1066 1.523 . S
C1066 C1047 1.368 . S
C1066 C1060 1.368 . S
C1066 C1065 1.523 . S
C1067 C1051 1.429 1_455 S
C1067 C1063 1.429 . S
C1067 C1068 1.523 . S
C1068 C1052 1.368 . S
C1068 C1064 1.368 . S
C1068 C1067 1.523 . S
H1069 C1044 0.950 . S
H1070 C1046 0.950 . S
H1071 C1047 0.949 . S
H1072 C1049 0.950 . S
H1073 C1051 0.950 . S
C1074 C1075 1.349 . S
C1074 C1076 1.327 . S
C1074 H1099 0.950 . S
C1075 C1074 1.349 . S
C1075 C1091 1.349 1_565 S
C1076 C1074 1.327 . S
C1076 C1095 1.429 1_565 S
C1076 H1100 0.950 . S
C1077 C1094 1.574 . S
C1077 C1096 1.368 . S
C1077 H1101 0.949 . S
H1078 C1082 0.949 . S
C1079 C1080 1.349 . S
C1079 C1081 1.327 1_455 S
C1079 H1102 0.950 . S
C1080 C1079 1.349 . S
C1080 C1092 1.349 . S
C1081 C1079 1.327 1_655 S
C1081 C1097 1.429 . S
C1081 H1103 0.950 . S
C1082 H1078 0.949 . S
C1082 C1090 1.574 . S
C1082 C1098 1.368 . S
H1083 C1091 0.950 . S
H1084 C1089 0.950 . S
H1085 C1090 0.949 . S
H1086 C1092 0.950 . S
H1087 C1093 0.950 . S
H1088 C1094 0.949 . S
C1089 H1084 0.950 . S
C1089 C1091 1.327 . S
C1089 C1095 1.429 . S
C1090 C1082 1.574 . S
C1090 H1085 0.949 . S
C1090 C1096 1.368 . S
C1091 C1075 1.349 1_545 S
C1091 H1083 0.950 . S
C1091 C1089 1.327 . S
C1092 C1080 1.349 . S
C1092 H1086 0.950 . S
C1092 C1093 1.327 1_455 S
C1093 H1087 0.950 . S
C1093 C1092 1.327 1_655 S
C1093 C1097 1.429 . S
C1094 C1077 1.574 . S
C1094 H1088 0.949 . S
C1094 C1098 1.368 . S
C1095 C1076 1.429 1_545 S
C1095 C1089 1.429 . S
C1095 C1096 1.523 . S
C1096 C1077 1.368 . S
C1096 C1090 1.368 . S
C1096 C1095 1.523 . S
C1097 C1081 1.429 . S
C1097 C1093 1.429 . S
C1097 C1098 1.523 . S
C1098 C1082 1.368 . S
C1098 C1094 1.368 . S
C1098 C1097 1.523 . S
H1099 C1074 0.950 . S
H1100 C1076 0.950 . S
H1101 C1077 0.949 . S
H1102 C1079 0.950 . S
H1103 C1081 0.950 . S
C1104 C1105 1.349 1_565 S
C1104 C1106 1.327 . S
C1104 H1129 0.950 . S
C1105 C1104 1.349 1_545 S
C1105 C1121 1.349 . S
C1106 C1104 1.327 . S
C1106 C1125 1.429 . S
C1106 H1130 0.950 . S
C1107 C1124 1.574 . S
C1107 C1126 1.368 . S
C1107 H1131 0.949 . S
H1108 C1112 0.949 . S
C1109 C1110 1.349 . S
C1109 C1111 1.327 . S
C1109 H1132 0.950 . S
C1110 C1109 1.349 . S
C1110 C1122 1.349 . S
C1111 C1109 1.327 . S
C1111 C1127 1.429 . S
C1111 H1133 0.950 . S
C1112 H1108 0.949 . S
C1112 C1120 1.574 . S
C1112 C1128 1.368 . S
H1113 C1121 0.950 . S
H1114 C1119 0.950 . S
H1115 C1120 0.949 . S
H1116 C1122 0.950 . S
H1117 C1123 0.950 . S
H1118 C1124 0.949 . S
C1119 H1114 0.950 . S
C1119 C1121 1.327 . S
C1119 C1125 1.429 1_545 S
C1120 C1112 1.574 . S
C1120 H1115 0.949 . S
C1120 C1126 1.368 . S
C1121 C1105 1.349 . S
C1121 H1113 0.950 . S
C1121 C1119 1.327 . S
C1122 C1110 1.349 . S
C1122 H1116 0.950 . S
C1122 C1123 1.327 . S
C1123 H1117 0.950 . S
C1123 C1122 1.327 . S
C1123 C1127 1.429 . S
C1124 C1107 1.574 . S
C1124 H1118 0.949 . S
C1124 C1128 1.368 . S
C1125 C1106 1.429 . S
C1125 C1119 1.429 1_565 S
C1125 C1126 1.523 . S
C1126 C1107 1.368 . S
C1126 C1120 1.368 . S
C1126 C1125 1.523 . S
C1127 C1111 1.429 . S
C1127 C1123 1.429 . S
C1127 C1128 1.523 . S
C1128 C1112 1.368 . S
C1128 C1124 1.368 . S
C1128 C1127 1.523 . S
H1129 C1104 0.950 . S
H1130 C1106 0.950 . S
H1131 C1107 0.949 . S
H1132 C1109 0.950 . S
H1133 C1111 0.950 . S
C1134 C1135 1.349 . S
C1134 C1136 1.327 . S
C1134 H1159 0.950 . S
C1135 C1134 1.349 . S
C1135 C1151 1.349 . S
C1136 C1134 1.327 . S
C1136 C1155 1.429 . S
C1136 H1160 0.950 . S
C1137 C1154 1.574 . S
C1137 C1156 1.368 . S
C1137 H1161 0.949 . S
H1138 C1142 0.949 . S
C1139 C1140 1.349 . S
C1139 C1141 1.327 . S
C1139 H1162 0.950 . S
C1140 C1139 1.349 . S
C1140 C1152 1.349 1_455 S
C1141 C1139 1.327 . S
C1141 C1157 1.429 1_455 S
C1141 H1163 0.950 . S
C1142 H1138 0.949 . S
C1142 C1150 1.574 . S
C1142 C1158 1.368 . S
H1143 C1151 0.950 . S
H1144 C1149 0.950 . S
H1145 C1150 0.949 . S
H1146 C1152 0.950 . S
H1147 C1153 0.950 . S
H1148 C1154 0.949 . S
C1149 H1144 0.950 . S
C1149 C1151 1.327 . S
C1149 C1155 1.429 . S
C1150 C1142 1.574 . S
C1150 H1145 0.949 . S
C1150 C1156 1.368 . S
C1151 C1135 1.349 . S
C1151 H1143 0.950 . S
C1151 C1149 1.327 . S
C1152 C1140 1.349 1_655 S
C1152 H1146 0.950 . S
C1152 C1153 1.327 . S
C1153 H1147 0.950 . S
C1153 C1152 1.327 . S
C1153 C1157 1.429 . S
C1154 C1137 1.574 . S
C1154 H1148 0.949 . S
C1154 C1158 1.368 . S
C1155 C1136 1.429 . S
C1155 C1149 1.429 . S
C1155 C1156 1.523 . S
C1156 C1137 1.368 . S
C1156 C1150 1.368 . S
C1156 C1155 1.523 . S
C1157 C1141 1.429 1_655 S
C1157 C1153 1.429 . S
C1157 C1158 1.523 . S
C1158 C1142 1.368 . S
C1158 C1154 1.368 . S
C1158 C1157 1.523 . S
H1159 C1134 0.950 . S
H1160 C1136 0.950 . S
H1161 C1137 0.949 . S
H1162 C1139 0.950 . S
H1163 C1141 0.950 . S
C1164 C1165 1.349 . S
C1164 C1166 1.327 . S
C1164 H1189 0.950 . S
C1165 C1164 1.349 . S
C1165 C1181 1.349 . S
C1166 C1164 1.327 . S
C1166 C1185 1.429 . S
C1166 H1190 0.950 . S
C1167 C1184 1.574 . S
C1167 C1186 1.368 . S
C1167 H1191 0.949 . S
H1168 C1172 0.949 . S
C1169 C1170 1.349 . S
C1169 C1171 1.327 . S
C1169 H1192 0.950 . S
C1170 C1169 1.349 . S
C1170 C1182 1.349 . S
C1171 C1169 1.327 . S
C1171 C1187 1.429 . S
C1171 H1193 0.950 . S
C1172 H1168 0.949 . S
C1172 C1180 1.574 . S
C1172 C1188 1.368 . S
H1173 C1181 0.950 . S
H1174 C1179 0.950 . S
H1175 C1180 0.949 . S
H1176 C1182 0.950 . S
H1177 C1183 0.950 . S
H1178 C1184 0.949 . S
C1179 H1174 0.950 . S
C1179 C1181 1.327 . S
C1179 C1185 1.429 . S
C1180 C1172 1.574 . S
C1180 H1175 0.949 . S
C1180 C1186 1.368 . S
C1181 C1165 1.349 . S
C1181 H1173 0.950 . S
C1181 C1179 1.327 . S
C1182 C1170 1.349 . S
C1182 H1176 0.950 . S
C1182 C1183 1.327 . S
C1183 H1177 0.950 . S
C1183 C1182 1.327 . S
C1183 C1187 1.429 . S
C1184 C1167 1.574 . S
C1184 H1178 0.949 . S
C1184 C1188 1.368 . S
C1185 C1166 1.429 . S
C1185 C1179 1.429 . S
C1185 C1186 1.523 . S
C1186 C1167 1.368 . S
C1186 C1180 1.368 . S
C1186 C1185 1.523 . S
C1187 C1171 1.429 . S
C1187 C1183 1.429 . S
C1187 C1188 1.523 . S
C1188 C1172 1.368 . S
C1188 C1184 1.368 . S
C1188 C1187 1.523 . S
H1189 C1164 0.950 . S
H1190 C1166 0.950 . S
H1191 C1167 0.949 . S
H1192 C1169 0.950 . S
H1193 C1171 0.950 . S
C1194 C1195 1.349 . S
C1194 C1196 1.327 . S
C1194 H1219 0.950 . S
C1195 C1194 1.349 . S
C1195 C1211 1.349 . S
C1196 C1194 1.327 . S
C1196 C1215 1.429 . S
C1196 H1220 0.950 . S
C1197 C1214 1.574 . S
C1197 C1216 1.368 . S
C1197 H1221 0.949 . S
H1198 C1202 0.949 . S
C1199 C1200 1.349 . S
C1199 C1201 1.327 . S
C1199 H1222 0.950 . S
C1200 C1199 1.349 . S
C1200 C1212 1.349 . S
C1201 C1199 1.327 . S
C1201 C1217 1.429 . S
C1201 H1223 0.950 . S
C1202 H1198 0.949 . S
C1202 C1210 1.574 . S
C1202 C1218 1.368 . S
H1203 C1211 0.950 . S
H1204 C1209 0.950 . S
H1205 C1210 0.949 . S
H1206 C1212 0.950 . S
H1207 C1213 0.950 . S
H1208 C1214 0.949 . S
C1209 H1204 0.950 . S
C1209 C1211 1.327 . S
C1209 C1215 1.429 . S
C1210 C1202 1.574 . S
C1210 H1205 0.949 . S
C1210 C1216 1.368 . S
C1211 C1195 1.349 . S
C1211 H1203 0.950 . S
C1211 C1209 1.327 . S
C1212 C1200 1.349 . S
C1212 H1206 0.950 . S
C1212 C1213 1.327 . S
C1213 H1207 0.950 . S
C1213 C1212 1.327 . S
C1213 C1217 1.429 . S
C1214 C1197 1.574 . S
C1214 H1208 0.949 . S
C1214 C1218 1.368 . S
C1215 C1196 1.429 . S
C1215 C1209 1.429 . S
C1215 C1216 1.523 . S
C1216 C1197 1.368 . S
C1216 C1210 1.368 . S
C1216 C1215 1.523 . S
C1217 C1201 1.429 . S
C1217 C1213 1.429 . S
C1217 C1218 1.523 . S
C1218 C1202 1.368 . S
C1218 C1214 1.368 . S
C1218 C1217 1.523 . S
H1219 C1194 0.950 . S
H1220 C1196 0.950 . S
H1221 C1197 0.949 . S
H1222 C1199 0.950 . S
H1223 C1201 0.950 . S
C1224 C1225 1.349 . S
C1224 C1226 1.327 . S
C1224 H1249 0.950 . S
C1225 C1224 1.349 . S
C1225 C1241 1.349 . S
C1226 C1224 1.327 . S
C1226 C1245 1.429 . S
C1226 H1250 0.950 . S
C1227 C1244 1.574 . S
C1227 C1246 1.368 . S
C1227 H1251 0.949 . S
H1228 C1232 0.949 . S
C1229 C1230 1.349 . S
C1229 C1231 1.327 . S
C1229 H1252 0.950 . S
C1230 C1229 1.349 . S
C1230 C1242 1.349 . S
C1231 C1229 1.327 . S
C1231 C1247 1.429 . S
C1231 H1253 0.950 . S
C1232 H1228 0.949 . S
C1232 C1240 1.574 . S
C1232 C1248 1.368 . S
H1233 C1241 0.950 . S
H1234 C1239 0.950 . S
H1235 C1240 0.949 . S
H1236 C1242 0.950 . S
H1237 C1243 0.950 . S
H1238 C1244 0.949 . S
C1239 H1234 0.950 . S
C1239 C1241 1.327 . S
C1239 C1245 1.429 . S
C1240 C1232 1.574 . S
C1240 H1235 0.949 . S
C1240 C1246 1.368 . S
C1241 C1225 1.349 . S
C1241 H1233 0.950 . S
C1241 C1239 1.327 . S
C1242 C1230 1.349 . S
C1242 H1236 0.950 . S
C1242 C1243 1.327 . S
C1243 H1237 0.950 . S
C1243 C1242 1.327 . S
C1243 C1247 1.429 . S
C1244 C1227 1.574 . S
C1244 H1238 0.949 . S
C1244 C1248 1.368 . S
C1245 C1226 1.429 . S
C1245 C1239 1.429 . S
C1245 C1246 1.523 . S
C1246 C1227 1.368 . S
C1246 C1240 1.368 . S
C1246 C1245 1.523 . S
C1247 C1231 1.429 . S
C1247 C1243 1.429 . S
C1247 C1248 1.523 . S
C1248 C1232 1.368 . S
C1248 C1244 1.368 . S
C1248 C1247 1.523 . S
H1249 C1224 0.950 . S
H1250 C1226 0.950 . S
H1251 C1227 0.949 . S
H1252 C1229 0.950 . S
H1253 C1231 0.950 . S
C1254 C1255 1.349 . S
C1254 C1256 1.327 . S
C1254 H1279 0.950 . S
C1255 C1254 1.349 . S
C1255 C1271 1.349 . S
C1256 C1254 1.327 . S
C1256 C1275 1.429 . S
C1256 H1280 0.950 . S
C1257 C1274 1.574 . S
C1257 C1276 1.368 . S
C1257 H1281 0.949 . S
H1258 C1262 0.949 . S
C1259 C1260 1.349 . S
C1259 C1261 1.327 . S
C1259 H1282 0.950 . S
C1260 C1259 1.349 . S
C1260 C1272 1.349 . S
C1261 C1259 1.327 . S
C1261 C1277 1.429 . S
C1261 H1283 0.950 . S
C1262 H1258 0.949 . S
C1262 C1270 1.574 . S
C1262 C1278 1.368 . S
H1263 C1271 0.950 . S
H1264 C1269 0.950 . S
H1265 C1270 0.949 . S
H1266 C1272 0.950 . S
H1267 C1273 0.950 . S
H1268 C1274 0.949 . S
C1269 H1264 0.950 . S
C1269 C1271 1.327 . S
C1269 C1275 1.429 . S
C1270 C1262 1.574 . S
C1270 H1265 0.949 . S
C1270 C1276 1.368 . S
C1271 C1255 1.349 . S
C1271 H1263 0.950 . S
C1271 C1269 1.327 . S
C1272 C1260 1.349 . S
C1272 H1266 0.950 . S
C1272 C1273 1.327 . S
C1273 H1267 0.950 . S
C1273 C1272 1.327 . S
C1273 C1277 1.429 . S
C1274 C1257 1.574 . S
C1274 H1268 0.949 . S
C1274 C1278 1.368 . S
C1275 C1256 1.429 . S
C1275 C1269 1.429 . S
C1275 C1276 1.523 . S
C1276 C1257 1.368 . S
C1276 C1270 1.368 . S
C1276 C1275 1.523 . S
C1277 C1261 1.429 . S
C1277 C1273 1.429 . S
C1277 C1278 1.523 . S
C1278 C1262 1.368 . S
C1278 C1274 1.368 . S
C1278 C1277 1.523 . S
H1279 C1254 0.950 . S
H1280 C1256 0.950 . S
H1281 C1257 0.949 . S
H1282 C1259 0.950 . S
H1283 C1261 0.950 . S
C1284 C1285 1.349 . S
C1284 C1286 1.327 . S
C1284 H1309 0.950 . S
C1285 C1284 1.349 . S
C1285 C1301 1.349 . S
C1286 C1284 1.327 . S
C1286 C1305 1.429 . S
C1286 H1310 0.950 . S
C1287 C1304 1.574 . S
C1287 C1306 1.368 . S
C1287 H1311 0.949 . S
H1288 C1292 0.949 . S
C1289 C1290 1.349 . S
C1289 C1291 1.327 . S
C1289 H1312 0.950 . S
C1290 C1289 1.349 . S
C1290 C1302 1.349 . S
C1291 C1289 1.327 . S
C1291 C1307 1.429 . S
C1291 H1313 0.950 . S
C1292 H1288 0.949 . S
C1292 C1300 1.574 . S
C1292 C1308 1.368 . S
H1293 C1301 0.950 . S
H1294 C1299 0.950 . S
H1295 C1300 0.949 . S
H1296 C1302 0.950 . S
H1297 C1303 0.950 . S
H1298 C1304 0.949 . S
C1299 H1294 0.950 . S
C1299 C1301 1.327 . S
C1299 C1305 1.429 . S
C1300 C1292 1.574 . S
C1300 H1295 0.949 . S
C1300 C1306 1.368 . S
C1301 C1285 1.349 . S
C1301 H1293 0.950 . S
C1301 C1299 1.327 . S
C1302 C1290 1.349 . S
C1302 H1296 0.950 . S
C1302 C1303 1.327 . S
C1303 H1297 0.950 . S
C1303 C1302 1.327 . S
C1303 C1307 1.429 . S
C1304 C1287 1.574 . S
C1304 H1298 0.949 . S
C1304 C1308 1.368 . S
C1305 C1286 1.429 . S
C1305 C1299 1.429 . S
C1305 C1306 1.523 . S
C1306 C1287 1.368 . S
C1306 C1300 1.368 . S
C1306 C1305 1.523 . S
C1307 C1291 1.429 . S
C1307 C1303 1.429 . S
C1307 C1308 1.523 . S
C1308 C1292 1.368 . S
C1308 C1304 1.368 . S
C1308 C1307 1.523 . S
H1309 C1284 0.950 . S
H1310 C1286 0.950 . S
H1311 C1287 0.949 . S
H1312 C1289 0.950 . S
H1313 C1291 0.950 . S
C1314 C1315 1.349 . S
C1314 C1316 1.327 . S
C1314 H1339 0.950 . S
C1315 C1314 1.349 . S
C1315 C1331 1.349 . S
C1316 C1314 1.327 . S
C1316 C1335 1.429 . S
C1316 H1340 0.950 . S
C1317 C1334 1.574 . S
C1317 C1336 1.368 . S
C1317 H1341 0.949 . S
H1318 C1322 0.949 . S
C1319 C1320 1.349 . S
C1319 C1321 1.327 . S
C1319 H1342 0.950 . S
C1320 C1319 1.349 . S
C1320 C1332 1.349 . S
C1321 C1319 1.327 . S
C1321 C1337 1.429 . S
C1321 H1343 0.950 . S
C1322 H1318 0.949 . S
C1322 C1330 1.574 . S
C1322 C1338 1.368 . S
H1323 C1331 0.950 . S
H1324 C1329 0.950 . S
H1325 C1330 0.949 . S
H1326 C1332 0.950 . S
H1327 C1333 0.950 . S
H1328 C1334 0.949 . S
C1329 H1324 0.950 . S
C1329 C1331 1.327 . S
C1329 C1335 1.429 . S
C1330 C1322 1.574 . S
C1330 H1325 0.949 . S
C1330 C1336 1.368 . S
C1331 C1315 1.349 . S
C1331 H1323 0.950 . S
C1331 C1329 1.327 . S
C1332 C1320 1.349 . S
C1332 H1326 0.950 . S
C1332 C1333 1.327 . S
C1333 H1327 0.950 . S
C1333 C1332 1.327 . S
C1333 C1337 1.429 . S
C1334 C1317 1.574 . S
C1334 H1328 0.949 . S
C1334 C1338 1.368 . S
C1335 C1316 1.429 . S
C1335 C1329 1.429 . S
C1335 C1336 1.523 . S
C1336 C1317 1.368 . S
C1336 C1330 1.368 . S
C1336 C1335 1.523 . S
C1337 C1321 1.429 . S
C1337 C1333 1.429 . S
C1337 C1338 1.523 . S
C1338 C1322 1.368 . S
C1338 C1334 1.368 . S
C1338 C1337 1.523 . S
H1339 C1314 0.950 . S
H1340 C1316 0.950 . S
H1341 C1317 0.949 . S
H1342 C1319 0.950 . S
H1343 C1321 0.950 . S
C265 C117 0.898 . S
C270 C18 0.897 . S
C295 C32 0.897 . S
C300 C15 0.899 . S
C325 C54 0.897 . S
C330 C43 0.899 . S
C355 C65 0.898 . S
C360 C84 0.897 . S
C385 C81 0.899 . S
C390 C106 0.897 1_556 S
C415 C118 0.897 . S
C420 C103 0.899 . S
C445 C169 0.898 . S
C450 C150 0.897 . S
C475 C172 0.897 . S
C480 C191 0.899 . S
C505 C205 0.899 . S
C510 C194 0.897 . S
C535 C227 0.898 . S
C540 C206 0.897 1_554 S
C565 C263 0.899 . S
C570 C228 0.897 . S
C595 C147 0.899 . S
C600 C252 0.897 . S
C625 C257 1.255 . S
C630 C8 1.252 . S
C655 C40 1.252 . S
C660 C139 1.255 . S
C685 C161 1.255 . S
C690 C62 1.252 . S
C715 C183 1.255 . S
C720 C74 1.252 . S
C745 C219 1.255 . S
C750 C96 1.252 . S
C775 C120 1.252 . S
C780 C241 1.255 . S
C805 C140 1.252 . S
C810 C37 1.255 . S
C835 C162 1.252 . S
C840 C59 1.255 . S
C865 C73 1.255 . S
C870 C184 1.252 . S
C895 C95 1.255 . S
C900 C208 1.252 . S
C925 C230 1.252 . S
C930 C131 1.255 . S
C955 C260 1.252 . S
C960 C7 1.255 . S
C985 C142 0.961 . S
C990 C10 0.961 . S
C1015 C30 0.962 . S
C1020 C164 0.962 . S
C1045 C186 0.961 . S
C1050 C52 0.961 . S
C1075 C76 0.961 . S
C1080 C216 0.961 . S
C1105 C238 0.961 . S
C1110 C98 0.961 . S
C1135 C250 0.962 . S
C1140 C128 0.962 . S
C1165 C153 0.699 . S
C1170 C21 0.699 . S
C1195 C175 0.699 . S
C1200 C29 0.699 . S
C1225 C197 0.699 . S
C1230 C51 0.699 . S
C1255 C87 0.699 . S
C1260 C213 0.699 . S
C1285 C235 0.699 . S
C1290 C109 0.699 . S
C1315 C249 0.699 . S
C1320 C125 0.699 . S
