# Generated by pormake.
# Topology rho, (4)-cn, num edge types: 1
# Building blocks:
#     Node 0, Type 0, BuildingBlock: GALJAG_clean_sbu_0, # of connection points: 4
#     Node 1, Type 0, BuildingBlock: GALJAG_clean_sbu_0, # of connection points: 4
#     Node 2, Type 0, BuildingBlock: GALJAG_clean_sbu_0, # of connection points: 4
#     Node 3, Type 0, BuildingBlock: GALJAG_clean_sbu_0, # of connection points: 4
#     Node 4, Type 0, BuildingBlock: GALJAG_clean_sbu_0, # of connection points: 4
#     Node 5, Type 0, BuildingBlock: GALJAG_clean_sbu_0, # of connection points: 4
#     Node 6, Type 0, BuildingBlock: GALJAG_clean_sbu_0, # of connection points: 4
#     Node 7, Type 0, BuildingBlock: GALJAG_clean_sbu_0, # of connection points: 4
#     Node 8, Type 0, BuildingBlock: GALJAG_clean_sbu_0, # of connection points: 4
#     Node 9, Type 0, BuildingBlock: GALJAG_clean_sbu_0, # of connection points: 4
#     Node 10, Type 0, BuildingBlock: GALJAG_clean_sbu_0, # of connection points: 4
#     Node 11, Type 0, BuildingBlock: GALJAG_clean_sbu_0, # of connection points: 4
#     Node 12, Type 0, BuildingBlock: GALJAG_clean_sbu_0, # of connection points: 4
#     Node 13, Type 0, BuildingBlock: GALJAG_clean_sbu_0, # of connection points: 4
#     Node 14, Type 0, BuildingBlock: GALJAG_clean_sbu_0, # of connection points: 4
#     Node 15, Type 0, BuildingBlock: GALJAG_clean_sbu_0, # of connection points: 4
#     Node 16, Type 0, BuildingBlock: GALJAG_clean_sbu_0, # of connection points: 4
#     Node 17, Type 0, BuildingBlock: GALJAG_clean_sbu_0, # of connection points: 4
#     Node 18, Type 0, BuildingBlock: GALJAG_clean_sbu_0, # of connection points: 4
#     Node 19, Type 0, BuildingBlock: GALJAG_clean_sbu_0, # of connection points: 4
#     Node 20, Type 0, BuildingBlock: GALJAG_clean_sbu_0, # of connection points: 4
#     Node 21, Type 0, BuildingBlock: GALJAG_clean_sbu_0, # of connection points: 4
#     Node 22, Type 0, BuildingBlock: GALJAG_clean_sbu_0, # of connection points: 4
#     Node 23, Type 0, BuildingBlock: GALJAG_clean_sbu_0, # of connection points: 4
#     Node 24, Type 0, BuildingBlock: GALJAG_clean_sbu_0, # of connection points: 4
#     Node 25, Type 0, BuildingBlock: GALJAG_clean_sbu_0, # of connection points: 4
#     Node 26, Type 0, BuildingBlock: GALJAG_clean_sbu_0, # of connection points: 4
#     Node 27, Type 0, BuildingBlock: GALJAG_clean_sbu_0, # of connection points: 4
#     Node 28, Type 0, BuildingBlock: GALJAG_clean_sbu_0, # of connection points: 4
#     Node 29, Type 0, BuildingBlock: GALJAG_clean_sbu_0, # of connection points: 4
#     Node 30, Type 0, BuildingBlock: GALJAG_clean_sbu_0, # of connection points: 4
#     Node 31, Type 0, BuildingBlock: GALJAG_clean_sbu_0, # of connection points: 4
#     Node 32, Type 0, BuildingBlock: GALJAG_clean_sbu_0, # of connection points: 4
#     Node 33, Type 0, BuildingBlock: GALJAG_clean_sbu_0, # of connection points: 4
#     Node 34, Type 0, BuildingBlock: GALJAG_clean_sbu_0, # of connection points: 4
#     Node 35, Type 0, BuildingBlock: GALJAG_clean_sbu_0, # of connection points: 4
#     Node 36, Type 0, BuildingBlock: GALJAG_clean_sbu_0, # of connection points: 4
#     Node 37, Type 0, BuildingBlock: GALJAG_clean_sbu_0, # of connection points: 4
#     Node 38, Type 0, BuildingBlock: GALJAG_clean_sbu_0, # of connection points: 4
#     Node 39, Type 0, BuildingBlock: GALJAG_clean_sbu_0, # of connection points: 4
#     Node 40, Type 0, BuildingBlock: GALJAG_clean_sbu_0, # of connection points: 4
#     Node 41, Type 0, BuildingBlock: GALJAG_clean_sbu_0, # of connection points: 4
#     Node 42, Type 0, BuildingBlock: GALJAG_clean_sbu_0, # of connection points: 4
#     Node 43, Type 0, BuildingBlock: GALJAG_clean_sbu_0, # of connection points: 4
#     Node 44, Type 0, BuildingBlock: GALJAG_clean_sbu_0, # of connection points: 4
#     Node 45, Type 0, BuildingBlock: GALJAG_clean_sbu_0, # of connection points: 4
#     Node 46, Type 0, BuildingBlock: GALJAG_clean_sbu_0, # of connection points: 4
#     Node 47, Type 0, BuildingBlock: GALJAG_clean_sbu_0, # of connection points: 4
#     Edge 48, Type (0, 0), BuildingBlock: XUDNAN_clean_linker_2, # of connection points: 2
#     Edge 49, Type (0, 0), BuildingBlock: XUDNAN_clean_linker_2, # of connection points: 2
#     Edge 50, Type (0, 0), BuildingBlock: XUDNAN_clean_linker_2, # of connection points: 2
#     Edge 51, Type (0, 0), BuildingBlock: XUDNAN_clean_linker_2, # of connection points: 2
#     Edge 52, Type (0, 0), BuildingBlock: XUDNAN_clean_linker_2, # of connection points: 2
#     Edge 53, Type (0, 0), BuildingBlock: XUDNAN_clean_linker_2, # of connection points: 2
#     Edge 54, Type (0, 0), BuildingBlock: XUDNAN_clean_linker_2, # of connection points: 2
#     Edge 55, Type (0, 0), BuildingBlock: XUDNAN_clean_linker_2, # of connection points: 2
#     Edge 56, Type (0, 0), BuildingBlock: XUDNAN_clean_linker_2, # of connection points: 2
#     Edge 57, Type (0, 0), BuildingBlock: XUDNAN_clean_linker_2, # of connection points: 2
#     Edge 58, Type (0, 0), BuildingBlock: XUDNAN_clean_linker_2, # of connection points: 2
#     Edge 59, Type (0, 0), BuildingBlock: XUDNAN_clean_linker_2, # of connection points: 2
#     Edge 60, Type (0, 0), BuildingBlock: XUDNAN_clean_linker_2, # of connection points: 2
#     Edge 61, Type (0, 0), BuildingBlock: XUDNAN_clean_linker_2, # of connection points: 2
#     Edge 62, Type (0, 0), BuildingBlock: XUDNAN_clean_linker_2, # of connection points: 2
#     Edge 63, Type (0, 0), BuildingBlock: XUDNAN_clean_linker_2, # of connection points: 2
#     Edge 64, Type (0, 0), BuildingBlock: XUDNAN_clean_linker_2, # of connection points: 2
#     Edge 65, Type (0, 0), BuildingBlock: XUDNAN_clean_linker_2, # of connection points: 2
#     Edge 66, Type (0, 0), BuildingBlock: XUDNAN_clean_linker_2, # of connection points: 2
#     Edge 67, Type (0, 0), BuildingBlock: XUDNAN_clean_linker_2, # of connection points: 2
#     Edge 68, Type (0, 0), BuildingBlock: XUDNAN_clean_linker_2, # of connection points: 2
#     Edge 69, Type (0, 0), BuildingBlock: XUDNAN_clean_linker_2, # of connection points: 2
#     Edge 70, Type (0, 0), BuildingBlock: XUDNAN_clean_linker_2, # of connection points: 2
#     Edge 71, Type (0, 0), BuildingBlock: XUDNAN_clean_linker_2, # of connection points: 2
#     Edge 72, Type (0, 0), BuildingBlock: XUDNAN_clean_linker_2, # of connection points: 2
#     Edge 73, Type (0, 0), BuildingBlock: XUDNAN_clean_linker_2, # of connection points: 2
#     Edge 74, Type (0, 0), BuildingBlock: XUDNAN_clean_linker_2, # of connection points: 2
#     Edge 75, Type (0, 0), BuildingBlock: XUDNAN_clean_linker_2, # of connection points: 2
#     Edge 76, Type (0, 0), BuildingBlock: XUDNAN_clean_linker_2, # of connection points: 2
#     Edge 77, Type (0, 0), BuildingBlock: XUDNAN_clean_linker_2, # of connection points: 2
#     Edge 78, Type (0, 0), BuildingBlock: XUDNAN_clean_linker_2, # of connection points: 2
#     Edge 79, Type (0, 0), BuildingBlock: XUDNAN_clean_linker_2, # of connection points: 2
#     Edge 80, Type (0, 0), BuildingBlock: XUDNAN_clean_linker_2, # of connection points: 2
#     Edge 81, Type (0, 0), BuildingBlock: XUDNAN_clean_linker_2, # of connection points: 2
#     Edge 82, Type (0, 0), BuildingBlock: XUDNAN_clean_linker_2, # of connection points: 2
#     Edge 83, Type (0, 0), BuildingBlock: XUDNAN_clean_linker_2, # of connection points: 2
#     Edge 84, Type (0, 0), BuildingBlock: XUDNAN_clean_linker_2, # of connection points: 2
#     Edge 85, Type (0, 0), BuildingBlock: XUDNAN_clean_linker_2, # of connection points: 2
#     Edge 86, Type (0, 0), BuildingBlock: XUDNAN_clean_linker_2, # of connection points: 2
#     Edge 87, Type (0, 0), BuildingBlock: XUDNAN_clean_linker_2, # of connection points: 2
#     Edge 88, Type (0, 0), BuildingBlock: XUDNAN_clean_linker_2, # of connection points: 2
#     Edge 89, Type (0, 0), BuildingBlock: XUDNAN_clean_linker_2, # of connection points: 2
#     Edge 90, Type (0, 0), BuildingBlock: XUDNAN_clean_linker_2, # of connection points: 2
#     Edge 91, Type (0, 0), BuildingBlock: XUDNAN_clean_linker_2, # of connection points: 2
#     Edge 92, Type (0, 0), BuildingBlock: XUDNAN_clean_linker_2, # of connection points: 2
#     Edge 93, Type (0, 0), BuildingBlock: XUDNAN_clean_linker_2, # of connection points: 2
#     Edge 94, Type (0, 0), BuildingBlock: XUDNAN_clean_linker_2, # of connection points: 2
#     Edge 95, Type (0, 0), BuildingBlock: XUDNAN_clean_linker_2, # of connection points: 2
#     Edge 96, Type (0, 0), BuildingBlock: XUDNAN_clean_linker_2, # of connection points: 2
#     Edge 97, Type (0, 0), BuildingBlock: XUDNAN_clean_linker_2, # of connection points: 2
#     Edge 98, Type (0, 0), BuildingBlock: XUDNAN_clean_linker_2, # of connection points: 2
#     Edge 99, Type (0, 0), BuildingBlock: XUDNAN_clean_linker_2, # of connection points: 2
#     Edge 100, Type (0, 0), BuildingBlock: XUDNAN_clean_linker_2, # of connection points: 2
#     Edge 101, Type (0, 0), BuildingBlock: XUDNAN_clean_linker_2, # of connection points: 2
#     Edge 102, Type (0, 0), BuildingBlock: XUDNAN_clean_linker_2, # of connection points: 2
#     Edge 103, Type (0, 0), BuildingBlock: XUDNAN_clean_linker_2, # of connection points: 2
#     Edge 104, Type (0, 0), BuildingBlock: XUDNAN_clean_linker_2, # of connection points: 2
#     Edge 105, Type (0, 0), BuildingBlock: XUDNAN_clean_linker_2, # of connection points: 2
#     Edge 106, Type (0, 0), BuildingBlock: XUDNAN_clean_linker_2, # of connection points: 2
#     Edge 107, Type (0, 0), BuildingBlock: XUDNAN_clean_linker_2, # of connection points: 2
#     Edge 108, Type (0, 0), BuildingBlock: XUDNAN_clean_linker_2, # of connection points: 2
#     Edge 109, Type (0, 0), BuildingBlock: XUDNAN_clean_linker_2, # of connection points: 2
#     Edge 110, Type (0, 0), BuildingBlock: XUDNAN_clean_linker_2, # of connection points: 2
#     Edge 111, Type (0, 0), BuildingBlock: XUDNAN_clean_linker_2, # of connection points: 2
#     Edge 112, Type (0, 0), BuildingBlock: XUDNAN_clean_linker_2, # of connection points: 2
#     Edge 113, Type (0, 0), BuildingBlock: XUDNAN_clean_linker_2, # of connection points: 2
#     Edge 114, Type (0, 0), BuildingBlock: XUDNAN_clean_linker_2, # of connection points: 2
#     Edge 115, Type (0, 0), BuildingBlock: XUDNAN_clean_linker_2, # of connection points: 2
#     Edge 116, Type (0, 0), BuildingBlock: XUDNAN_clean_linker_2, # of connection points: 2
#     Edge 117, Type (0, 0), BuildingBlock: XUDNAN_clean_linker_2, # of connection points: 2
#     Edge 118, Type (0, 0), BuildingBlock: XUDNAN_clean_linker_2, # of connection points: 2
#     Edge 119, Type (0, 0), BuildingBlock: XUDNAN_clean_linker_2, # of connection points: 2
#     Edge 120, Type (0, 0), BuildingBlock: XUDNAN_clean_linker_2, # of connection points: 2
#     Edge 121, Type (0, 0), BuildingBlock: XUDNAN_clean_linker_2, # of connection points: 2
#     Edge 122, Type (0, 0), BuildingBlock: XUDNAN_clean_linker_2, # of connection points: 2
#     Edge 123, Type (0, 0), BuildingBlock: XUDNAN_clean_linker_2, # of connection points: 2
#     Edge 124, Type (0, 0), BuildingBlock: XUDNAN_clean_linker_2, # of connection points: 2
#     Edge 125, Type (0, 0), BuildingBlock: XUDNAN_clean_linker_2, # of connection points: 2
#     Edge 126, Type (0, 0), BuildingBlock: XUDNAN_clean_linker_2, # of connection points: 2
#     Edge 127, Type (0, 0), BuildingBlock: XUDNAN_clean_linker_2, # of connection points: 2
#     Edge 128, Type (0, 0), BuildingBlock: XUDNAN_clean_linker_2, # of connection points: 2
#     Edge 129, Type (0, 0), BuildingBlock: XUDNAN_clean_linker_2, # of connection points: 2
#     Edge 130, Type (0, 0), BuildingBlock: XUDNAN_clean_linker_2, # of connection points: 2
#     Edge 131, Type (0, 0), BuildingBlock: XUDNAN_clean_linker_2, # of connection points: 2
#     Edge 132, Type (0, 0), BuildingBlock: XUDNAN_clean_linker_2, # of connection points: 2
#     Edge 133, Type (0, 0), BuildingBlock: XUDNAN_clean_linker_2, # of connection points: 2
#     Edge 134, Type (0, 0), BuildingBlock: XUDNAN_clean_linker_2, # of connection points: 2
#     Edge 135, Type (0, 0), BuildingBlock: XUDNAN_clean_linker_2, # of connection points: 2
#     Edge 136, Type (0, 0), BuildingBlock: XUDNAN_clean_linker_2, # of connection points: 2
#     Edge 137, Type (0, 0), BuildingBlock: XUDNAN_clean_linker_2, # of connection points: 2
#     Edge 138, Type (0, 0), BuildingBlock: XUDNAN_clean_linker_2, # of connection points: 2
#     Edge 139, Type (0, 0), BuildingBlock: XUDNAN_clean_linker_2, # of connection points: 2
#     Edge 140, Type (0, 0), BuildingBlock: XUDNAN_clean_linker_2, # of connection points: 2
#     Edge 141, Type (0, 0), BuildingBlock: XUDNAN_clean_linker_2, # of connection points: 2
#     Edge 142, Type (0, 0), BuildingBlock: XUDNAN_clean_linker_2, # of connection points: 2
#     Edge 143, Type (0, 0), BuildingBlock: XUDNAN_clean_linker_2, # of connection points: 2
# Relax obj value: 0.062
# Max RMSD: 0.056
# Mean RMSD: 0.055
data_MOF--net-rho--node1-GALJAG_clean_sbu_0--edge1-XUDNAN_clean_linker_2
_symmetry_space_group_name_H-M    P1
_symmetry_Int_Tables_number       1
_symmetry_cell_setting            triclinic
loop_
_symmetry_equiv_pos_as_xyz
'x, y, z'
_cell_length_a     72.645285
_cell_length_b     72.662319
_cell_length_c     72.665369
_cell_angle_alpha  90.035796
_cell_angle_beta   90.014424
_cell_angle_gamma 90.152258
loop_
_atom_site_label
_atom_site_type_symbol
_atom_site_fract_x
_atom_site_fract_y
_atom_site_fract_z
_atom_type_partial_charge
In0 In 0.1011 0.24722 0.39757 0.0
O1 O 0.10474 0.26546 0.42287 0.0
O2 O 0.09923 0.23714 0.42743 0.0
C3 C 0.11048 0.27494 0.37434 0.0
C4 C 0.12507 0.2202 0.38854 0.0
C5 C 0.06472 0.24065 0.39369 0.0
O6 O 0.1181 0.27257 0.38973 0.0
O7 O 0.09832 0.26317 0.37049 0.0
O8 O 0.07675 0.22836 0.39145 0.0
O9 O 0.07102 0.25625 0.3981 0.0
C10 C 0.1024 0.25273 0.43442 0.0
O11 O 0.1094 0.22168 0.3813 0.0
O12 O 0.12884 0.23252 0.40016 0.0
In13 In 0.74143 0.10578 0.40294 0.0
O14 O 0.75771 0.08206 0.39003 0.0
O15 O 0.73641 0.07539 0.40887 0.0
C16 C 0.76439 0.13427 0.39558 0.0
C17 C 0.7129 0.1105 0.37964 0.0
C18 C 0.73701 0.10942 0.43965 0.0
O19 O 0.77017 0.11804 0.39765 0.0
O20 O 0.7472 0.13596 0.39698 0.0
O21 O 0.72373 0.10979 0.42849 0.0
O22 O 0.75258 0.1071 0.43232 0.0
C23 C 0.74884 0.06959 0.39828 0.0
O24 O 0.7121 0.1144 0.39653 0.0
O25 O 0.7282 0.10421 0.37437 0.0
In26 In 0.89276 0.75136 0.39879 0.0
O27 O 0.88953 0.78193 0.39225 0.0
O28 O 0.86527 0.76565 0.39496 0.0
C29 C 0.92962 0.74713 0.40097 0.0
C30 C 0.88346 0.74708 0.4344 0.0
C31 C 0.88637 0.73017 0.36898 0.0
O32 O 0.92245 0.7621 0.39579 0.0
O33 O 0.91824 0.73461 0.40491 0.0
O34 O 0.88306 0.72456 0.38511 0.0
O35 O 0.8925 0.7464 0.36803 0.0
C36 C 0.87213 0.78136 0.39205 0.0
O37 O 0.87766 0.73625 0.42204 0.0
O38 O 0.89381 0.75983 0.4287 0.0
In39 In 0.25221 0.89285 0.39544 0.0
O40 O 0.24029 0.91672 0.37892 0.0
O41 O 0.2584 0.92321 0.40093 0.0
C42 C 0.22136 0.87264 0.39063 0.0
C43 C 0.27837 0.88322 0.37064 0.0
C44 C 0.25768 0.88647 0.43171 0.0
O45 O 0.22149 0.88998 0.38954 0.0
O46 O 0.2368 0.86549 0.39411 0.0
O47 O 0.26831 0.88025 0.41948 0.0
O48 O 0.24455 0.89601 0.42565 0.0
C49 C 0.24836 0.9291 0.38806 0.0
O50 O 0.28177 0.89366 0.38408 0.0
O51 O 0.26201 0.87748 0.36996 0.0
In52 In 0.10302 0.75277 0.60235 0.0
O53 O 0.0738 0.7645 0.60687 0.0
O54 O 0.07693 0.73969 0.59173 0.0
C55 C 0.12626 0.77909 0.61419 0.0
C56 C 0.10756 0.72919 0.63053 0.0
C57 C 0.115 0.75215 0.56724 0.0
O58 O 0.11004 0.78289 0.60902 0.0
O59 O 0.13048 0.76226 0.6134 0.0
O60 O 0.11423 0.73761 0.5768 0.0
O61 O 0.10987 0.76655 0.57541 0.0
C62 C 0.06607 0.75154 0.59814 0.0
O63 O 0.11215 0.72493 0.61427 0.0
O64 O 0.10053 0.74496 0.63229 0.0
In65 In 0.24857 0.10123 0.60182 0.0
O66 O 0.22068 0.10549 0.6159 0.0
O67 O 0.23486 0.12896 0.6055 0.0
C68 C 0.25358 0.06447 0.60172 0.0
C69 C 0.24353 0.10498 0.56525 0.0
C70 C 0.27589 0.11183 0.62467 0.0
O71 O 0.23987 0.07173 0.60962 0.0
O72 O 0.26451 0.07574 0.59428 0.0
O73 O 0.2753 0.11681 0.608 0.0
O74 O 0.26265 0.10176 0.62973 0.0
C75 C 0.22068 0.12272 0.61336 0.0
O76 O 0.25838 0.10991 0.57293 0.0
O77 O 0.23156 0.09845 0.57601 0.0
In78 In 0.89691 0.25178 0.60344 0.0
O79 O 0.89069 0.28233 0.60627 0.0
O80 O 0.88994 0.26571 0.63048 0.0
C81 C 0.90164 0.25051 0.56651 0.0
C82 C 0.93179 0.2474 0.61537 0.0
C83 C 0.86783 0.22949 0.61011 0.0
O84 O 0.89326 0.26364 0.57414 0.0
O85 O 0.90744 0.23842 0.57743 0.0
O86 O 0.88392 0.22541 0.61517 0.0
O87 O 0.86649 0.24463 0.6018 0.0
C88 C 0.88821 0.28155 0.6235 0.0
O89 O 0.92152 0.23385 0.61169 0.0
O90 O 0.9245 0.26295 0.61319 0.0
In91 In 0.756 0.89902 0.60442 0.0
O92 O 0.73402 0.89326 0.58236 0.0
O93 O 0.7617 0.88679 0.57605 0.0
C94 C 0.7276 0.90307 0.62825 0.0
C95 C 0.78157 0.87564 0.61823 0.0
C96 C 0.7684 0.93368 0.59932 0.0
O97 O 0.73255 0.88748 0.62241 0.0
O98 O 0.73687 0.91638 0.62207 0.0
O99 O 0.76984 0.92565 0.6147 0.0
O100 O 0.76114 0.92411 0.58678 0.0
C101 C 0.7453 0.88754 0.5705 0.0
O102 O 0.78585 0.88963 0.60891 0.0
O103 O 0.76456 0.87374 0.62093 0.0
In104 In 0.38867 0.1028 0.24435 0.0
O105 O 0.37809 0.10269 0.27414 0.0
O106 O 0.36209 0.11646 0.25411 0.0
C107 C 0.42491 0.10871 0.25046 0.0
C108 C 0.38254 0.06627 0.24016 0.0
C109 C 0.38477 0.12431 0.21428 0.0
O110 O 0.41251 0.11571 0.26038 0.0
O111 O 0.41904 0.09874 0.23751 0.0
O112 O 0.38236 0.1071 0.21385 0.0
O113 O 0.38901 0.13067 0.22989 0.0
C114 C 0.36382 0.11188 0.27073 0.0
O115 O 0.37401 0.07822 0.23093 0.0
O116 O 0.39401 0.07275 0.25147 0.0
In117 In 0.90017 0.39908 0.25352 0.0
O118 O 0.92915 0.39502 0.241 0.0
O119 O 0.92633 0.40801 0.26719 0.0
C120 C 0.87264 0.38955 0.23084 0.0
C121 C 0.89618 0.37021 0.27611 0.0
C122 C 0.89152 0.43486 0.25209 0.0
O123 O 0.88921 0.39006 0.22522 0.0
O124 O 0.8704 0.39355 0.24762 0.0
O125 O 0.89039 0.42595 0.26707 0.0
O126 O 0.89717 0.42577 0.23841 0.0
C127 C 0.93703 0.40259 0.25464 0.0
O128 O 0.89257 0.38643 0.28146 0.0
O129 O 0.90203 0.3689 0.25979 0.0
In130 In 0.60388 0.89478 0.24997 0.0
O131 O 0.60911 0.8825 0.27839 0.0
O132 O 0.63165 0.89502 0.26421 0.0
C133 C 0.56722 0.89231 0.24453 0.0
C134 C 0.60655 0.93161 0.25326 0.0
C135 C 0.61575 0.8685 0.22667 0.0
O136 O 0.57448 0.88797 0.25975 0.0
O137 O 0.57844 0.89752 0.23236 0.0
O138 O 0.61632 0.88537 0.22229 0.0
O139 O 0.60944 0.86523 0.2425 0.0
C140 C 0.62601 0.8869 0.27854 0.0
O141 O 0.6129 0.92342 0.23922 0.0
O142 O 0.59902 0.92126 0.26498 0.0
In143 In 0.10445 0.60665 0.25063 0.0
O144 O 0.11892 0.58398 0.267 0.0
O145 O 0.10353 0.57631 0.24328 0.0
C146 C 0.11136 0.63653 0.27173 0.0
C147 C 0.1254 0.61206 0.22044 0.0
C148 C 0.06739 0.60494 0.25421 0.0
O149 O 0.11428 0.62035 0.27733 0.0
O150 O 0.10531 0.63757 0.25549 0.0
O151 O 0.07489 0.61011 0.23939 0.0
O152 O 0.07853 0.60083 0.26685 0.0
C153 C 0.11342 0.57116 0.25658 0.0
O154 O 0.10801 0.6121 0.21985 0.0
O155 O 0.13213 0.60966 0.23627 0.0
In156 In 0.4025 0.89651 0.7443 0.0
O157 O 0.39345 0.89362 0.77443 0.0
O158 O 0.39856 0.86923 0.75922 0.0
C159 C 0.40201 0.93345 0.73965 0.0
C160 C 0.43904 0.89035 0.74099 0.0
C161 C 0.37653 0.88639 0.71965 0.0
O162 O 0.39674 0.92601 0.75447 0.0
O163 O 0.40745 0.92231 0.72752 0.0
O164 O 0.39284 0.8805 0.71913 0.0
O165 O 0.37314 0.89712 0.73287 0.0
C166 C 0.39406 0.87625 0.77442 0.0
O167 O 0.42754 0.88525 0.72901 0.0
O168 O 0.43212 0.89851 0.75466 0.0
In169 In 0.1047 0.39845 0.74333 0.0
O170 O 0.12071 0.4228 0.73121 0.0
O171 O 0.0985 0.42859 0.74928 0.0
C172 C 0.1122 0.37654 0.71412 0.0
C173 C 0.12486 0.39274 0.77413 0.0
C174 C 0.06834 0.39096 0.7463 0.0
O175 O 0.1079 0.39326 0.71253 0.0
O176 O 0.11308 0.37088 0.7305 0.0
O177 O 0.08053 0.38126 0.75391 0.0
O178 O 0.07447 0.40436 0.73712 0.0
C179 C 0.11116 0.43489 0.73921 0.0
O180 O 0.10772 0.39526 0.77434 0.0
O181 O 0.13198 0.3929 0.75829 0.0
In182 In 0.60555 0.10492 0.75595 0.0
O183 O 0.613 0.08216 0.77638 0.0
O184 O 0.5995 0.07463 0.75149 0.0
C185 C 0.60978 0.1353 0.77686 0.0
C186 C 0.63539 0.10448 0.73382 0.0
C187 C 0.56988 0.10936 0.74687 0.0
O188 O 0.60803 0.11946 0.78377 0.0
O189 O 0.6096 0.13572 0.75951 0.0
O190 O 0.58273 0.11191 0.73541 0.0
O191 O 0.57509 0.1046 0.76273 0.0
C192 C 0.60652 0.06941 0.76647 0.0
O193 O 0.61928 0.10625 0.72751 0.0
O194 O 0.6363 0.1032 0.7511 0.0
In195 In 0.89907 0.60553 0.75247 0.0
O196 O 0.92379 0.62008 0.76518 0.0
O197 O 0.92886 0.60094 0.74363 0.0
C198 C 0.87821 0.61087 0.78288 0.0
C199 C 0.8914 0.62789 0.72378 0.0
C200 C 0.89285 0.5692 0.74766 0.0
O201 O 0.89506 0.60693 0.78355 0.0
O202 O 0.87184 0.61252 0.76683 0.0
O203 O 0.88239 0.58141 0.74118 0.0
O204 O 0.90648 0.5753 0.75654 0.0
C205 C 0.93553 0.61214 0.75515 0.0
O206 O 0.89128 0.6106 0.72258 0.0
O207 O 0.89521 0.63405 0.73957 0.0
In208 In 0.24878 0.39269 0.10357 0.0
O209 O 0.27765 0.38058 0.10799 0.0
O210 O 0.25498 0.3622 0.10523 0.0
C211 C 0.25574 0.42901 0.10752 0.0
C212 C 0.24204 0.38887 0.06719 0.0
C213 C 0.22577 0.38767 0.13239 0.0
O214 O 0.26758 0.41686 0.11127 0.0
O215 O 0.24053 0.4228 0.10187 0.0
O216 O 0.21983 0.39 0.11622 0.0
O217 O 0.24306 0.38803 0.13388 0.0
C218 C 0.27208 0.36409 0.10768 0.0
O219 O 0.23058 0.38392 0.07931 0.0
O220 O 0.2567 0.39578 0.07344 0.0
In221 In 0.25576 0.60284 0.89525 0.0
O222 O 0.26758 0.57772 0.88046 0.0
O223 O 0.24853 0.57305 0.90214 0.0
C224 C 0.2848 0.62516 0.88782 0.0
C225 C 0.22595 0.60869 0.87366 0.0
C226 C 0.25272 0.60941 0.93172 0.0
O227 O 0.28634 0.60803 0.89006 0.0
O228 O 0.26854 0.63107 0.88902 0.0
O229 O 0.26317 0.59715 0.92527 0.0
O230 O 0.24395 0.61843 0.91978 0.0
C231 C 0.25879 0.56613 0.88998 0.0
O232 O 0.22509 0.60762 0.89094 0.0
O233 O 0.24196 0.60713 0.86715 0.0
In234 In 0.39631 0.25285 0.88914 0.0
O235 O 0.39187 0.24172 0.91852 0.0
O236 O 0.39973 0.26969 0.91506 0.0
C237 C 0.38922 0.22271 0.86826 0.0
C238 C 0.36991 0.2772 0.87952 0.0
C239 C 0.43286 0.25825 0.88457 0.0
O240 O 0.38664 0.2229 0.88544 0.0
O241 O 0.39507 0.23768 0.86172 0.0
O242 O 0.42093 0.26921 0.87839 0.0
O243 O 0.42636 0.24432 0.89266 0.0
C244 C 0.39581 0.25691 0.92609 0.0
O245 O 0.38628 0.27822 0.87383 0.0
O246 O 0.36659 0.26346 0.88962 0.0
In247 In 0.75482 0.39926 0.8997 0.0
O248 O 0.78557 0.39711 0.89438 0.0
O249 O 0.7679 0.39755 0.87106 0.0
C250 C 0.75982 0.3922 0.93587 0.0
C251 C 0.74705 0.43543 0.89524 0.0
C252 C 0.73089 0.37164 0.89211 0.0
O253 O 0.7713 0.38759 0.92371 0.0
O254 O 0.7458 0.40042 0.92981 0.0
O255 O 0.72558 0.38739 0.89708 0.0
O256 O 0.74809 0.37003 0.89063 0.0
C257 C 0.78418 0.39659 0.87708 0.0
O258 O 0.73883 0.42298 0.88629 0.0
O259 O 0.759 0.42961 0.90636 0.0
In260 In 0.6074 0.75221 0.89811 0.0
O261 O 0.61887 0.72434 0.88884 0.0
O262 O 0.63752 0.74677 0.89163 0.0
C263 C 0.57097 0.74737 0.8922 0.0
C264 C 0.61071 0.74828 0.93494 0.0
C265 C 0.61372 0.78215 0.87711 0.0
O266 O 0.58307 0.73799 0.884 0.0
O267 O 0.57725 0.75907 0.90341 0.0
O268 O 0.6168 0.78208 0.89425 0.0
O269 O 0.60743 0.76724 0.87076 0.0
C270 C 0.6353 0.72997 0.88783 0.0
O271 O 0.61148 0.76393 0.92738 0.0
O272 O 0.60816 0.73507 0.92398 0.0
In273 In 0.74847 0.602 0.10713 0.0
O274 O 0.76346 0.61664 0.08365 0.0
O275 O 0.74045 0.59975 0.07695 0.0
C276 C 0.77065 0.61054 0.13579 0.0
C277 C 0.71848 0.62287 0.11353 0.0
C278 C 0.75268 0.56503 0.1065 0.0
O279 O 0.77597 0.61173 0.11931 0.0
O280 O 0.75421 0.60525 0.13775 0.0
O281 O 0.73757 0.57232 0.1111 0.0
O282 O 0.76522 0.57633 0.10249 0.0
C283 C 0.75312 0.6102 0.07123 0.0
O284 O 0.71807 0.60551 0.11489 0.0
O285 O 0.73393 0.6295 0.10912 0.0
In286 In 0.39563 0.74931 0.10121 0.0
O287 O 0.38483 0.77586 0.11443 0.0
O288 O 0.39273 0.75378 0.13191 0.0
C289 C 0.38956 0.75471 0.065 0.0
C290 C 0.43244 0.75413 0.10276 0.0
C291 C 0.3747 0.71915 0.10681 0.0
O292 O 0.38194 0.76445 0.07723 0.0
O293 O 0.40006 0.74232 0.07109 0.0
O294 O 0.39201 0.71896 0.10872 0.0
O295 O 0.36809 0.73447 0.10203 0.0
C296 C 0.38678 0.77002 0.1307 0.0
O297 O 0.42513 0.73848 0.10505 0.0
O298 O 0.42123 0.76697 0.09964 0.0
In299 In 0.60521 0.24707 0.10643 0.0
O300 O 0.57771 0.26209 0.11249 0.0
O301 O 0.57771 0.23308 0.10865 0.0
C302 C 0.63252 0.27168 0.11211 0.0
C303 C 0.61302 0.2239 0.13421 0.0
C304 C 0.60829 0.24162 0.06978 0.0
O305 O 0.61579 0.27655 0.11223 0.0
O306 O 0.63514 0.25481 0.10899 0.0
O307 O 0.61383 0.23 0.08142 0.0
O308 O 0.60124 0.25591 0.07664 0.0
C309 C 0.56847 0.24729 0.11211 0.0
O310 O 0.61216 0.21854 0.11766 0.0
O311 O 0.61011 0.24088 0.13662 0.0
In312 In 0.89355 0.75052 0.60399 0.0
O313 O 0.87728 0.73681 0.58073 0.0
O314 O 0.89151 0.76166 0.57479 0.0
C315 C 0.88905 0.72196 0.62713 0.0
C316 C 0.87233 0.77796 0.61757 0.0
C317 C 0.9306 0.74918 0.60043 0.0
O318 O 0.88291 0.72197 0.61086 0.0
O319 O 0.89747 0.73648 0.63183 0.0
O320 O 0.92295 0.76097 0.61068 0.0
O321 O 0.91964 0.73842 0.59239 0.0
C322 C 0.88163 0.74867 0.56882 0.0
O323 O 0.88719 0.78114 0.60915 0.0
O324 O 0.86851 0.76115 0.61936 0.0
In325 In 0.25172 0.8919 0.60229 0.0
O326 O 0.24183 0.92119 0.60986 0.0
O327 O 0.26548 0.91812 0.59297 0.0
C328 C 0.22337 0.87093 0.61474 0.0
C329 C 0.27924 0.8851 0.62614 0.0
C330 C 0.25477 0.88217 0.56647 0.0
O331 O 0.22068 0.8857 0.60602 0.0
O332 O 0.24004 0.86712 0.6173 0.0
O333 O 0.26656 0.87777 0.57841 0.0
O334 O 0.2412 0.89099 0.57269 0.0
C335 C 0.2546 0.92899 0.60094 0.0
O336 O 0.27827 0.87765 0.61045 0.0
O337 O 0.2662 0.89598 0.62989 0.0
In338 In 0.10149 0.24495 0.60647 0.0
O339 O 0.11061 0.26161 0.58152 0.0
O340 O 0.09697 0.23626 0.57641 0.0
C341 C 0.11034 0.27626 0.62447 0.0
C342 C 0.12434 0.21658 0.61464 0.0
C343 C 0.06554 0.24162 0.61616 0.0
O344 O 0.10306 0.27612 0.6087 0.0
O345 O 0.11348 0.26052 0.63117 0.0
O346 O 0.07144 0.23669 0.60062 0.0
O347 O 0.07773 0.2478 0.6268 0.0
C348 C 0.1045 0.25043 0.56973 0.0
O349 O 0.10734 0.21616 0.61797 0.0
O350 O 0.12986 0.23133 0.60738 0.0
In351 In 0.75387 0.10193 0.60906 0.0
O352 O 0.77254 0.07693 0.61481 0.0
O353 O 0.75015 0.07384 0.59619 0.0
C354 C 0.77513 0.13175 0.61554 0.0
C355 C 0.73126 0.09998 0.63851 0.0
C356 C 0.74466 0.10994 0.57417 0.0
O357 O 0.78192 0.11589 0.61351 0.0
O358 O 0.75781 0.13236 0.61463 0.0
O359 O 0.73274 0.10876 0.58683 0.0
O360 O 0.76108 0.10743 0.57928 0.0
C361 C 0.76378 0.06654 0.60395 0.0
O362 O 0.72544 0.10398 0.62264 0.0
O363 O 0.74829 0.0968 0.63937 0.0
In364 In 0.89414 0.24668 0.39468 0.0
O365 O 0.88926 0.27617 0.38424 0.0
O366 O 0.89079 0.25411 0.36489 0.0
C367 C 0.89742 0.24682 0.43151 0.0
C368 C 0.92994 0.24063 0.38789 0.0
C369 C 0.86347 0.2261 0.39149 0.0
O370 O 0.89151 0.26088 0.42303 0.0
O371 O 0.90097 0.23316 0.42144 0.0
O372 O 0.87929 0.21968 0.3881 0.0
O373 O 0.86324 0.24278 0.3964 0.0
C374 C 0.88883 0.27117 0.36752 0.0
O375 O 0.91775 0.2286 0.38446 0.0
O376 O 0.9239 0.2556 0.39429 0.0
In377 In 0.74681 0.89757 0.39979 0.0
O378 O 0.72773 0.89512 0.42474 0.0
O379 O 0.75648 0.89292 0.42937 0.0
C380 C 0.7201 0.88808 0.37538 0.0
C381 C 0.77647 0.87616 0.39289 0.0
C382 C 0.75113 0.93443 0.39592 0.0
O383 O 0.72104 0.88135 0.39133 0.0
O384 O 0.73279 0.89929 0.3716 0.0
O385 O 0.76001 0.92286 0.38657 0.0
O386 O 0.73995 0.92746 0.40724 0.0
C387 C 0.74053 0.8927 0.43622 0.0
O388 O 0.7775 0.89332 0.39515 0.0
O389 O 0.76038 0.86966 0.39394 0.0
In390 In 0.10189 0.75095 0.39856 0.0
O391 O 0.11301 0.72457 0.38492 0.0
O392 O 0.10145 0.74546 0.36799 0.0
C393 C 0.11215 0.75032 0.43416 0.0
C394 C 0.06504 0.74701 0.40155 0.0
C395 C 0.12317 0.77997 0.38999 0.0
O396 O 0.11391 0.73623 0.42404 0.0
O397 O 0.10506 0.76409 0.42642 0.0
O398 O 0.10576 0.78097 0.3902 0.0
O399 O 0.12966 0.76426 0.39365 0.0
C400 C 0.1089 0.72984 0.36883 0.0
O401 O 0.07229 0.76169 0.39563 0.0
O402 O 0.07635 0.73464 0.40595 0.0
In403 In 0.2469 0.1004 0.39307 0.0
O404 O 0.25786 0.10861 0.42185 0.0
O405 O 0.23224 0.09452 0.41967 0.0
C406 C 0.27328 0.11268 0.36973 0.0
C407 C 0.21903 0.1237 0.38663 0.0
C408 C 0.24542 0.06402 0.38541 0.0
O409 O 0.27735 0.10548 0.38502 0.0
O410 O 0.25631 0.11387 0.36665 0.0
O411 O 0.23416 0.0754 0.37874 0.0
O412 O 0.25753 0.07101 0.39571 0.0
C413 C 0.24396 0.10201 0.43006 0.0
O414 O 0.21876 0.10714 0.38124 0.0
O415 O 0.23345 0.12851 0.39516 0.0
In416 In 0.60934 0.90014 0.75388 0.0
O417 O 0.62252 0.89369 0.78163 0.0
O418 O 0.61118 0.87137 0.76652 0.0
C419 C 0.60948 0.93523 0.76585 0.0
C420 C 0.57382 0.89113 0.74726 0.0
C421 C 0.63204 0.90234 0.72415 0.0
O422 O 0.62193 0.92396 0.7703 0.0
O423 O 0.59698 0.92868 0.75572 0.0
O424 O 0.6197 0.91384 0.72781 0.0
O425 O 0.63291 0.8891 0.73533 0.0
C426 C 0.619 0.8767 0.7811 0.0
O427 O 0.58651 0.88759 0.73593 0.0
O428 O 0.57914 0.89884 0.76187 0.0
In429 In 0.1071 0.60609 0.74939 0.0
O430 O 0.1107 0.6183 0.72032 0.0
O431 O 0.11493 0.63573 0.74333 0.0
C432 C 0.11199 0.56999 0.74185 0.0
C433 C 0.07062 0.61184 0.75362 0.0
C434 C 0.12935 0.60858 0.77909 0.0
O435 O 0.12079 0.58246 0.7335 0.0
O436 O 0.10078 0.57577 0.75374 0.0
O437 O 0.11203 0.60858 0.78018 0.0
O438 O 0.13559 0.60727 0.76292 0.0
C439 C 0.11443 0.63427 0.72607 0.0
O440 O 0.08247 0.61771 0.76487 0.0
O441 O 0.07713 0.60302 0.74016 0.0
In442 In 0.3984 0.10591 0.74331 0.0
O443 O 0.42365 0.1165 0.72787 0.0
O444 O 0.42793 0.10365 0.75377 0.0
C445 C 0.37262 0.1159 0.71843 0.0
C446 C 0.39024 0.12679 0.77313 0.0
C447 C 0.39827 0.06892 0.73889 0.0
O448 O 0.38903 0.12155 0.71782 0.0
O449 O 0.36902 0.10554 0.73191 0.0
O450 O 0.39352 0.07633 0.75391 0.0
O451 O 0.40284 0.08013 0.72647 0.0
C452 C 0.43504 0.11134 0.73991 0.0
O453 O 0.38807 0.10953 0.77304 0.0
O454 O 0.39615 0.13336 0.7582 0.0
In455 In 0.89686 0.39775 0.74794 0.0
O456 O 0.88089 0.42249 0.73716 0.0
O457 O 0.90423 0.42761 0.75407 0.0
C458 C 0.88832 0.37675 0.7184 0.0
C459 C 0.87653 0.39208 0.77864 0.0
C460 C 0.93327 0.39048 0.74956 0.0
O461 O 0.89123 0.39381 0.71735 0.0
O462 O 0.88943 0.37022 0.73445 0.0
O463 O 0.92143 0.38085 0.75788 0.0
O464 O 0.92674 0.40368 0.74041 0.0
C465 C 0.89113 0.43426 0.74484 0.0
O466 O 0.89377 0.39404 0.77895 0.0
O467 O 0.86951 0.39252 0.76278 0.0
In468 In 0.59654 0.10359 0.25386 0.0
O469 O 0.57109 0.11582 0.26738 0.0
O470 O 0.5672 0.10111 0.24244 0.0
C471 C 0.619 0.10976 0.28261 0.0
C472 C 0.60823 0.12904 0.22925 0.0
C473 C 0.59963 0.06656 0.25504 0.0
O474 O 0.60206 0.11363 0.28286 0.0
O475 O 0.62475 0.10289 0.26769 0.0
O476 O 0.60574 0.07564 0.24148 0.0
O477 O 0.59178 0.07609 0.26718 0.0
C478 C 0.55992 0.11005 0.25542 0.0
O479 O 0.60353 0.11304 0.22421 0.0
O480 O 0.6072 0.13178 0.2463 0.0
In481 In 0.89479 0.60501 0.25236 0.0
O482 O 0.92381 0.60931 0.24002 0.0
O483 O 0.92096 0.5982 0.26706 0.0
C484 C 0.86708 0.61368 0.22964 0.0
C485 C 0.8903 0.63417 0.27444 0.0
C486 C 0.88766 0.56884 0.25132 0.0
O487 O 0.88365 0.6135 0.22401 0.0
O488 O 0.86491 0.60973 0.24645 0.0
O489 O 0.88599 0.5779 0.26616 0.0
O490 O 0.89303 0.57801 0.23756 0.0
C491 C 0.93171 0.60324 0.25437 0.0
O492 O 0.88641 0.618 0.27982 0.0
O493 O 0.89648 0.63531 0.25821 0.0
In494 In 0.3948 0.89557 0.2464 0.0
O495 O 0.38117 0.91888 0.23014 0.0
O496 O 0.39557 0.92566 0.25473 0.0
C497 C 0.38928 0.86585 0.22507 0.0
C498 C 0.37102 0.88706 0.27353 0.0
C499 C 0.43181 0.89563 0.24337 0.0
O500 O 0.3858 0.88196 0.21944 0.0
O501 O 0.39551 0.86491 0.24127 0.0
O502 O 0.42396 0.89149 0.25838 0.0
O503 O 0.42102 0.89984 0.23047 0.0
C504 C 0.38636 0.93133 0.24117 0.0
O505 O 0.38756 0.89137 0.27701 0.0
O506 O 0.36673 0.88734 0.25672 0.0
In507 In 0.10976 0.40051 0.2572 0.0
O508 O 0.12093 0.39148 0.28496 0.0
O509 O 0.1054 0.37189 0.26959 0.0
C510 C 0.11844 0.43657 0.2599 0.0
C511 C 0.07265 0.40294 0.25763 0.0
C512 C 0.13428 0.38952 0.23141 0.0
O513 O 0.12169 0.42524 0.27264 0.0
O514 O 0.11117 0.42964 0.24571 0.0
O515 O 0.11798 0.39383 0.22714 0.0
O516 O 0.13777 0.39043 0.24835 0.0
C517 C 0.11437 0.37538 0.28409 0.0
O518 O 0.0809 0.39398 0.24517 0.0
O519 O 0.08309 0.41019 0.26945 0.0
In520 In 0.75254 0.6068 0.89982 0.0
O521 O 0.72377 0.61891 0.89463 0.0
O522 O 0.74703 0.63604 0.89025 0.0
C523 C 0.74527 0.57051 0.89539 0.0
C524 C 0.75525 0.61351 0.93633 0.0
C525 C 0.78285 0.60883 0.87843 0.0
O526 O 0.7366 0.58277 0.88666 0.0
O527 O 0.75734 0.5766 0.90627 0.0
O528 O 0.78353 0.60887 0.89578 0.0
O529 O 0.76682 0.60769 0.87178 0.0
C530 C 0.72975 0.63458 0.89007 0.0
O531 O 0.76706 0.61904 0.92487 0.0
O532 O 0.74197 0.60471 0.92938 0.0
In533 In 0.7546 0.39235 0.10675 0.0
O534 O 0.74153 0.42109 0.11122 0.0
O535 O 0.76917 0.41907 0.10174 0.0
C536 C 0.72931 0.36603 0.11361 0.0
C537 C 0.77693 0.38736 0.13589 0.0
C538 C 0.75946 0.3858 0.07062 0.0
O539 O 0.72472 0.38279 0.11225 0.0
O540 O 0.74626 0.36294 0.11154 0.0
O541 O 0.77127 0.38119 0.08253 0.0
O542 O 0.74522 0.39339 0.07702 0.0
C543 C 0.75603 0.42944 0.10618 0.0
O544 O 0.78237 0.38482 0.11955 0.0
O545 O 0.76033 0.39232 0.13741 0.0
In546 In 0.6044 0.7495 0.10659 0.0
O547 O 0.61488 0.76112 0.07886 0.0
O548 O 0.6015 0.73502 0.07939 0.0
C549 C 0.61591 0.77295 0.13304 0.0
C550 C 0.62507 0.72 0.11496 0.0
C551 C 0.56765 0.75483 0.10803 0.0
O552 O 0.61665 0.77719 0.11616 0.0
O553 O 0.60965 0.75708 0.13631 0.0
O554 O 0.57487 0.73977 0.1128 0.0
O555 O 0.57892 0.76695 0.1028 0.0
C556 C 0.60944 0.74718 0.06991 0.0
O557 O 0.60784 0.72028 0.11758 0.0
O558 O 0.6318 0.73474 0.10857 0.0
In559 In 0.25081 0.60077 0.10342 0.0
O560 O 0.22004 0.60452 0.10814 0.0
O561 O 0.23725 0.60608 0.1316 0.0
C562 C 0.24877 0.60712 0.06676 0.0
C563 C 0.25601 0.56418 0.10772 0.0
C564 C 0.27906 0.62377 0.11167 0.0
O565 O 0.2399 0.61632 0.07847 0.0
O566 O 0.25872 0.59462 0.07349 0.0
O567 O 0.2799 0.6066 0.11384 0.0
O568 O 0.26377 0.62948 0.10583 0.0
C569 C 0.22109 0.60678 0.12527 0.0
O570 O 0.26706 0.5761 0.11388 0.0
O571 O 0.2422 0.57069 0.09945 0.0
In572 In 0.39819 0.24932 0.09823 0.0
O573 O 0.39393 0.23922 0.06851 0.0
O574 O 0.40368 0.26648 0.07285 0.0
C575 C 0.38969 0.21992 0.11904 0.0
C576 C 0.36937 0.27096 0.10693 0.0
C577 C 0.43434 0.24907 0.10648 0.0
O578 O 0.3888 0.21954 0.10164 0.0
O579 O 0.39452 0.23522 0.12584 0.0
O580 O 0.42444 0.26291 0.11015 0.0
O581 O 0.42609 0.236 0.09856 0.0
C582 C 0.39897 0.25429 0.06142 0.0
O583 O 0.38579 0.27621 0.1096 0.0
O584 O 0.36776 0.25503 0.10023 0.0
In585 In 0.24604 0.39461 0.89553 0.0
O586 O 0.2318 0.38124 0.92008 0.0
O587 O 0.25514 0.39808 0.92549 0.0
C588 C 0.21639 0.38975 0.87328 0.0
C589 C 0.27372 0.37109 0.88732 0.0
C590 C 0.25227 0.43106 0.89051 0.0
O591 O 0.21507 0.39372 0.89009 0.0
O592 O 0.23267 0.38795 0.86764 0.0
O593 O 0.2597 0.41879 0.88079 0.0
O594 O 0.24167 0.42499 0.90285 0.0
C595 C 0.24242 0.38814 0.93198 0.0
O596 O 0.27522 0.38832 0.88611 0.0
O597 O 0.2582 0.36552 0.89283 0.0
In598 In 0.60376 0.25581 0.89887 0.0
O599 O 0.60746 0.22733 0.886 0.0
O600 O 0.60552 0.25049 0.86818 0.0
C601 C 0.60742 0.24733 0.93484 0.0
C602 C 0.56753 0.26291 0.89478 0.0
C603 C 0.63314 0.27822 0.89457 0.0
O604 O 0.61117 0.23604 0.92218 0.0
O605 O 0.60188 0.26282 0.92933 0.0
O606 O 0.61706 0.28447 0.89673 0.0
O607 O 0.63425 0.26091 0.89476 0.0
C608 C 0.6074 0.2333 0.86967 0.0
O609 O 0.57978 0.27465 0.89085 0.0
O610 O 0.57359 0.24791 0.90099 0.0
In611 In 0.39907 0.75323 0.89356 0.0
O612 O 0.39432 0.78389 0.88858 0.0
O613 O 0.39378 0.76632 0.8653 0.0
C614 C 0.39211 0.75684 0.92995 0.0
C615 C 0.43577 0.74978 0.88816 0.0
C616 C 0.37777 0.72325 0.88678 0.0
O617 O 0.38343 0.76571 0.91783 0.0
O618 O 0.40424 0.74613 0.92372 0.0
O619 O 0.39496 0.7225 0.88881 0.0
O620 O 0.37115 0.73925 0.88789 0.0
C621 C 0.39252 0.78252 0.8714 0.0
O622 O 0.42397 0.74138 0.87857 0.0
O623 O 0.42909 0.76013 0.90039 0.0
H624 H 0.0978 0.34159 0.28789 0.0
H625 H 0.13692 0.37857 0.31395 0.0
H626 H 0.14126 0.3562 0.33914 0.0
H627 H 0.07631 0.32644 0.32933 0.0
H628 H 0.07303 0.30308 0.32161 0.0
H629 H 0.07373 0.32156 0.30514 0.0
H630 H 0.10013 0.30516 0.28769 0.0
H631 H 0.09953 0.28662 0.30414 0.0
H632 H 0.12074 0.29883 0.29994 0.0
H633 H 0.14085 0.33021 0.36181 0.0
H634 H 0.13489 0.3028 0.38102 0.0
H635 H 0.0956 0.28292 0.34057 0.0
C636 C 0.10738 0.3449 0.29883 0.0
C637 C 0.11709 0.36177 0.29895 0.0
C638 C 0.12935 0.36571 0.31359 0.0
C639 C 0.13195 0.35307 0.32793 0.0
C640 C 0.12212 0.33659 0.32745 0.0
C641 C 0.11004 0.33249 0.31332 0.0
C642 C 0.10066 0.3141 0.31648 0.0
C643 C 0.07969 0.31645 0.31825 0.0
C644 C 0.10556 0.30037 0.30115 0.0
C645 C 0.10926 0.3086 0.33466 0.0
C646 C 0.1217 0.3217 0.34066 0.0
C647 C 0.13118 0.31982 0.35722 0.0
C648 C 0.12771 0.30421 0.36803 0.0
C649 C 0.11481 0.29074 0.36228 0.0
C650 C 0.1056 0.29295 0.34529 0.0
H651 H 0.71024 0.10066 0.34325 0.0
H652 H 0.67972 0.12577 0.38802 0.0
H653 H 0.6528 0.12934 0.36764 0.0
H654 H 0.69145 0.12903 0.30656 0.0
H655 H 0.69055 0.11036 0.29025 0.0
H656 H 0.70774 0.11042 0.30813 0.0
H657 H 0.69661 0.07827 0.31891 0.0
H658 H 0.67941 0.07811 0.30108 0.0
H659 H 0.67272 0.07492 0.32475 0.0
H660 H 0.62898 0.12932 0.34291 0.0
H661 H 0.60953 0.12549 0.31532 0.0
H662 H 0.65537 0.10033 0.28649 0.0
C663 C 0.69793 0.10703 0.3487 0.0
C664 C 0.69705 0.11298 0.36719 0.0
C665 C 0.68068 0.12113 0.37389 0.0
C666 C 0.66534 0.12324 0.36242 0.0
C667 C 0.6666 0.11714 0.3443 0.0
C668 C 0.68245 0.10921 0.33744 0.0
C669 C 0.67997 0.10335 0.31758 0.0
C670 C 0.69321 0.11393 0.30488 0.0
C671 C 0.68231 0.08242 0.31547 0.0
C672 C 0.66019 0.1091 0.31441 0.0
C673 C 0.65279 0.11709 0.32999 0.0
C674 C 0.63463 0.12316 0.33059 0.0
C675 C 0.6237 0.12092 0.31486 0.0
C676 C 0.63096 0.11266 0.29878 0.0
C677 C 0.64948 0.10678 0.29856 0.0
H678 H 0.88108 0.69267 0.36731 0.0
H679 H 0.88768 0.74137 0.33334 0.0
H680 H 0.88723 0.72202 0.30549 0.0
H681 H 0.91063 0.66434 0.34163 0.0
H682 H 0.89721 0.64359 0.34417 0.0
H683 H 0.89608 0.66126 0.3615 0.0
H684 H 0.86066 0.6629 0.35767 0.0
H685 H 0.86166 0.64513 0.34038 0.0
H686 H 0.85098 0.66688 0.33518 0.0
H687 H 0.88873 0.69774 0.28172 0.0
H688 H 0.89149 0.66967 0.26297 0.0
H689 H 0.88384 0.63615 0.31183 0.0
C690 C 0.88204 0.69926 0.35398 0.0
C691 C 0.88431 0.71853 0.35245 0.0
C692 C 0.88588 0.72664 0.33481 0.0
C693 C 0.88561 0.71577 0.31891 0.0
C694 C 0.88373 0.69681 0.32087 0.0
C695 C 0.88188 0.68857 0.3379 0.0
C696 C 0.88114 0.66776 0.3361 0.0
C697 C 0.89722 0.65871 0.34646 0.0
C698 C 0.8625 0.66023 0.34273 0.0
C699 C 0.88324 0.66564 0.31544 0.0
C700 C 0.88459 0.68262 0.30697 0.0
C701 C 0.88748 0.68436 0.28813 0.0
C702 C 0.8891 0.66832 0.27762 0.0
C703 C 0.88782 0.65074 0.28594 0.0
C704 C 0.88468 0.64941 0.30509 0.0
H705 H 0.36831 0.89932 0.30933 0.0
H706 H 0.34277 0.86326 0.26911 0.0
H707 H 0.3181 0.85585 0.29117 0.0
H708 H 0.35539 0.87254 0.35115 0.0
H709 H 0.35066 0.89297 0.36439 0.0
H710 H 0.36785 0.89352 0.34651 0.0
H711 H 0.35101 0.92086 0.3311 0.0
H712 H 0.33378 0.92036 0.34887 0.0
H713 H 0.32705 0.91851 0.32506 0.0
H714 H 0.29499 0.85428 0.316 0.0
H715 H 0.27387 0.85956 0.34197 0.0
H716 H 0.31328 0.89746 0.36629 0.0
C717 C 0.35775 0.88951 0.30543 0.0
C718 C 0.35748 0.88168 0.28764 0.0
C719 C 0.34321 0.86934 0.28272 0.0
C720 C 0.32919 0.86498 0.29518 0.0
C721 C 0.32956 0.87318 0.31248 0.0
C722 C 0.3434 0.88523 0.31766 0.0
C723 C 0.33944 0.89347 0.33645 0.0
C724 C 0.35422 0.88778 0.35046 0.0
C725 C 0.33771 0.91455 0.33529 0.0
C726 C 0.32105 0.88449 0.34074 0.0
C727 C 0.31581 0.87262 0.32682 0.0
C728 C 0.299 0.86337 0.3271 0.0
C729 C 0.28709 0.86649 0.3419 0.0
C730 C 0.29195 0.87886 0.35616 0.0
C731 C 0.30929 0.88776 0.35568 0.0
H732 H 0.11296 0.63544 0.68812 0.0
H733 H 0.12041 0.66967 0.73657 0.0
H734 H 0.12111 0.6973 0.71702 0.0
H735 H 0.14273 0.66323 0.65739 0.0
H736 H 0.12805 0.65974 0.63768 0.0
H737 H 0.12943 0.64235 0.65531 0.0
H738 H 0.09403 0.64355 0.65934 0.0
H739 H 0.09254 0.661 0.64183 0.0
H740 H 0.08314 0.66524 0.66438 0.0
H741 H 0.11779 0.72125 0.69314 0.0
H742 H 0.11299 0.74042 0.66559 0.0
H743 H 0.10927 0.69127 0.63183 0.0
C744 C 0.11505 0.64873 0.69454 0.0
C745 C 0.11664 0.65041 0.71388 0.0
C746 C 0.11921 0.66804 0.7218 0.0
C747 C 0.11962 0.68383 0.71081 0.0
C748 C 0.11765 0.68178 0.69187 0.0
C749 C 0.11566 0.66471 0.68371 0.0
C750 C 0.11328 0.66655 0.66303 0.0
C751 C 0.12933 0.65743 0.65275 0.0
C752 C 0.09464 0.65862 0.65679 0.0
C753 C 0.11382 0.68733 0.66097 0.0
C754 C 0.11633 0.69578 0.67784 0.0
C755 C 0.11612 0.71483 0.6798 0.0
C756 C 0.11329 0.72558 0.6641 0.0
C757 C 0.11091 0.7173 0.64662 0.0
C758 C 0.11136 0.69793 0.64501 0.0
H759 H 0.28151 0.09946 0.65972 0.0
H760 H 0.30501 0.13487 0.61774 0.0
H761 H 0.33137 0.14165 0.63825 0.0
H762 H 0.29605 0.12659 0.69965 0.0
H763 H 0.30093 0.10648 0.7133 0.0
H764 H 0.28328 0.10561 0.69589 0.0
H765 H 0.29946 0.07771 0.68071 0.0
H766 H 0.31713 0.07849 0.69805 0.0
H767 H 0.32329 0.07964 0.67405 0.0
H768 H 0.35601 0.14304 0.66265 0.0
H769 H 0.37735 0.13847 0.68872 0.0
H770 H 0.33771 0.102 0.71463 0.0
C771 C 0.29207 0.10885 0.65493 0.0
C772 C 0.29119 0.11673 0.63718 0.0
C773 C 0.3054 0.12874 0.63132 0.0
C774 C 0.32038 0.1327 0.64288 0.0
C775 C 0.32092 0.12455 0.66025 0.0
C776 C 0.30712 0.11288 0.66625 0.0
C777 C 0.31143 0.10511 0.6851 0.0
C778 C 0.29707 0.11132 0.69932 0.0
C779 C 0.31292 0.08399 0.68442 0.0
C780 C 0.32996 0.11399 0.68867 0.0
C781 C 0.33513 0.12527 0.67424 0.0
C782 C 0.35203 0.13437 0.67409 0.0
C783 C 0.36406 0.13169 0.68896 0.0
C784 C 0.35914 0.11995 0.70373 0.0
C785 C 0.34176 0.11121 0.70363 0.0
H786 H 0.88662 0.28356 0.66102 0.0
H787 H 0.8828 0.31686 0.61161 0.0
H788 H 0.87977 0.34481 0.63077 0.0
H789 H 0.85452 0.31065 0.68939 0.0
H790 H 0.86808 0.30759 0.70993 0.0
H791 H 0.86804 0.29009 0.69234 0.0
H792 H 0.90361 0.29208 0.69036 0.0
H793 H 0.90376 0.30959 0.70787 0.0
H794 H 0.9144 0.314 0.6859 0.0
H795 H 0.87982 0.36925 0.65521 0.0
H796 H 0.88293 0.38844 0.68311 0.0
H797 H 0.8867 0.33913 0.71655 0.0
C798 C 0.8848 0.29669 0.65423 0.0
C799 C 0.88484 0.29806 0.63484 0.0
C800 C 0.88272 0.31551 0.62646 0.0
C801 C 0.88096 0.33144 0.63722 0.0
C802 C 0.88128 0.32965 0.65632 0.0
C803 C 0.88307 0.31271 0.66475 0.0
C804 C 0.8842 0.31463 0.68547 0.0
C805 C 0.86773 0.30518 0.69483 0.0
C806 C 0.90259 0.30714 0.69283 0.0
C807 C 0.88317 0.33534 0.68737 0.0
C808 C 0.88133 0.34374 0.67041 0.0
C809 C 0.88103 0.36282 0.66858 0.0
C810 C 0.88284 0.3736 0.6845 0.0
C811 C 0.88495 0.36526 0.70198 0.0
C812 C 0.88487 0.34588 0.7034 0.0
H813 H 0.71141 0.87759 0.6513 0.0
H814 H 0.70922 0.93489 0.63461 0.0
H815 H 0.6839 0.94029 0.65651 0.0
H816 H 0.66214 0.87119 0.65869 0.0
H817 H 0.6651 0.85697 0.67879 0.0
H818 H 0.68243 0.85715 0.66104 0.0
H819 H 0.70717 0.866 0.68516 0.0
H820 H 0.68994 0.86586 0.70297 0.0
H821 H 0.70382 0.88612 0.69929 0.0
H822 H 0.65909 0.93973 0.6798 0.0
H823 H 0.63717 0.93384 0.70492 0.0
H824 H 0.65604 0.8773 0.70841 0.0
C825 C 0.70545 0.89121 0.65217 0.0
C826 C 0.71216 0.90582 0.64118 0.0
C827 C 0.70425 0.92352 0.64288 0.0
C828 C 0.68984 0.92671 0.65524 0.0
C829 C 0.68359 0.9121 0.66595 0.0
C830 C 0.69117 0.89472 0.6647 0.0
C831 C 0.68235 0.88172 0.67852 0.0
C832 C 0.67241 0.86582 0.66867 0.0
C833 C 0.69668 0.8745 0.6923 0.0
C834 C 0.66873 0.89458 0.68775 0.0
C835 C 0.66958 0.91195 0.68005 0.0
C836 C 0.6583 0.9262 0.68597 0.0
C837 C 0.64586 0.92269 0.70024 0.0
C838 C 0.64492 0.90513 0.70864 0.0
C839 C 0.65652 0.89087 0.70228 0.0
H840 H 0.3613 0.09861 0.30605 0.0
H841 H 0.33499 0.13551 0.26722 0.0
H842 H 0.31093 0.1424 0.29013 0.0
H843 H 0.32056 0.07927 0.32331 0.0
H844 H 0.32842 0.07731 0.34676 0.0
H845 H 0.34477 0.07687 0.32818 0.0
H846 H 0.36249 0.1041 0.34298 0.0
H847 H 0.34612 0.10467 0.36162 0.0
H848 H 0.35042 0.12511 0.34824 0.0
H849 H 0.28842 0.14321 0.31571 0.0
H850 H 0.26808 0.13715 0.34216 0.0
H851 H 0.30861 0.09983 0.36499 0.0
C852 C 0.35064 0.10839 0.30252 0.0
C853 C 0.35004 0.11663 0.2849 0.0
C854 C 0.33573 0.12909 0.28065 0.0
C855 C 0.32205 0.13316 0.2936 0.0
C856 C 0.3229 0.12467 0.31077 0.0
C857 C 0.3368 0.11254 0.31529 0.0
C858 C 0.33365 0.10425 0.33421 0.0
C859 C 0.33173 0.08318 0.33303 0.0
C860 C 0.34909 0.10987 0.34755 0.0
C861 C 0.31556 0.11325 0.33938 0.0
C862 C 0.30977 0.12515 0.32571 0.0
C863 C 0.29291 0.13415 0.32663 0.0
C864 C 0.28146 0.1306 0.34169 0.0
C865 C 0.28688 0.11818 0.35567 0.0
C866 C 0.30433 0.10971 0.3547 0.0
H867 H 0.88943 0.30928 0.36792 0.0
H868 H 0.8847 0.26199 0.33162 0.0
H869 H 0.88445 0.28251 0.30478 0.0
H870 H 0.86007 0.34033 0.3402 0.0
H871 H 0.87417 0.36025 0.34482 0.0
H872 H 0.8726 0.34201 0.36155 0.0
H873 H 0.90811 0.33889 0.36135 0.0
H874 H 0.90978 0.35702 0.34456 0.0
H875 H 0.91985 0.33486 0.33987 0.0
H876 H 0.88746 0.30716 0.28191 0.0
H877 H 0.89191 0.33537 0.26376 0.0
H878 H 0.89378 0.36765 0.31403 0.0
C879 C 0.88802 0.30332 0.35433 0.0
C880 C 0.88707 0.28403 0.35187 0.0
C881 C 0.88546 0.27671 0.33387 0.0
C882 C 0.88528 0.28825 0.3185 0.0
C883 C 0.8866 0.30713 0.32132 0.0
C884 C 0.88778 0.31472 0.33873 0.0
C885 C 0.88974 0.33552 0.33764 0.0
C886 C 0.87315 0.34509 0.34658 0.0
C887 C 0.90796 0.34194 0.34637 0.0
C888 C 0.88985 0.33828 0.31693 0.0
C889 C 0.888 0.32165 0.30787 0.0
C890 C 0.88868 0.32031 0.28879 0.0
C891 C 0.89131 0.33641 0.27862 0.0
C892 C 0.89311 0.35367 0.28749 0.0
C893 C 0.89222 0.35464 0.30691 0.0
H894 H 0.71581 0.90052 0.34009 0.0
H895 H 0.68974 0.86662 0.3818 0.0
H896 H 0.66322 0.86147 0.36107 0.0
H897 H 0.67551 0.92262 0.32452 0.0
H898 H 0.68219 0.92291 0.30064 0.0
H899 H 0.69953 0.923 0.31832 0.0
H900 H 0.71433 0.89386 0.30408 0.0
H901 H 0.69705 0.89372 0.28629 0.0
H902 H 0.7004 0.87362 0.30041 0.0
H903 H 0.63862 0.86174 0.33642 0.0
H904 H 0.61843 0.86655 0.3094 0.0
H905 H 0.66103 0.89972 0.28374 0.0
C906 C 0.70462 0.89184 0.34479 0.0
C907 C 0.70483 0.88394 0.36254 0.0
C908 C 0.68989 0.87275 0.36822 0.0
C909 C 0.67476 0.86976 0.35655 0.0
C910 C 0.67487 0.87795 0.33921 0.0
C911 C 0.68948 0.88865 0.3333 0.0
C912 C 0.68604 0.89628 0.31422 0.0
C913 C 0.6858 0.91745 0.31445 0.0
C914 C 0.7003 0.88892 0.30044 0.0
C915 C 0.66709 0.88844 0.31042 0.0
C916 C 0.66087 0.87789 0.32497 0.0
C917 C 0.64343 0.86982 0.32487 0.0
C918 C 0.63205 0.87265 0.3095 0.0
C919 C 0.6382 0.8834 0.29445 0.0
C920 C 0.656 0.89127 0.29495 0.0
H921 H 0.1173 0.63784 0.3091 0.0
H922 H 0.1103 0.67236 0.26089 0.0
H923 H 0.11165 0.70002 0.28052 0.0
H924 H 0.08873 0.66353 0.33826 0.0
H925 H 0.10246 0.66056 0.3587 0.0
H926 H 0.10303 0.64345 0.34079 0.0
H927 H 0.13847 0.64688 0.33855 0.0
H928 H 0.13801 0.66398 0.35652 0.0
H929 H 0.14841 0.6693 0.33463 0.0
H930 H 0.11092 0.72359 0.30516 0.0
H931 H 0.10831 0.74194 0.33354 0.0
H932 H 0.1159 0.6926 0.36629 0.0
C933 C 0.11644 0.65125 0.30267 0.0
C934 C 0.1138 0.65298 0.28346 0.0
C935 C 0.11237 0.67072 0.27556 0.0
C936 C 0.11317 0.68652 0.28659 0.0
C937 C 0.11544 0.68435 0.30549 0.0
C938 C 0.11712 0.6672 0.31352 0.0
C939 C 0.11823 0.66875 0.33432 0.0
C940 C 0.10215 0.65847 0.34355 0.0
C941 C 0.13689 0.66182 0.34142 0.0
C942 C 0.11647 0.68941 0.33673 0.0
C943 C 0.11503 0.6981 0.31987 0.0
C944 C 0.11227 0.71699 0.31844 0.0
C945 C 0.11074 0.72728 0.33464 0.0
C946 C 0.112 0.7187 0.3521 0.0
C947 C 0.11516 0.69954 0.35313 0.0
H948 H 0.34245 0.90173 0.71454 0.0
H949 H 0.38009 0.86136 0.69187 0.0
H950 H 0.35845 0.85551 0.66631 0.0
H951 H 0.29963 0.87791 0.70191 0.0
H952 H 0.28788 0.899 0.69632 0.0
H953 H 0.30567 0.89897 0.71361 0.0
H954 H 0.32306 0.92459 0.69587 0.0
H955 H 0.3054 0.92464 0.67849 0.0
H956 H 0.32907 0.92097 0.67207 0.0
H957 H 0.33377 0.8554 0.64228 0.0
H958 H 0.30746 0.86083 0.62148 0.0
H959 H 0.28585 0.9014 0.6596 0.0
C960 C 0.34598 0.89144 0.70436 0.0
C961 C 0.36289 0.88192 0.70522 0.0
C962 C 0.36718 0.86877 0.6915 0.0
C963 C 0.35497 0.86533 0.67694 0.0
C964 C 0.33855 0.87516 0.67632 0.0
C965 C 0.33399 0.8879 0.68969 0.0
C966 C 0.31587 0.89722 0.6853 0.0
C967 C 0.30141 0.89302 0.70017 0.0
C968 C 0.31852 0.91809 0.68278 0.0
C969 C 0.31109 0.88791 0.66726 0.0
C970 C 0.32431 0.87516 0.66239 0.0
C971 C 0.32324 0.86523 0.64602 0.0
C972 C 0.30828 0.86844 0.63428 0.0
C973 C 0.2946 0.88149 0.63896 0.0
C974 C 0.29603 0.89125 0.65573 0.0
H975 H 0.1177 0.33918 0.71399 0.0
H976 H 0.11208 0.3864 0.67789 0.0
H977 H 0.11376 0.36591 0.65084 0.0
H978 H 0.1493 0.31264 0.68423 0.0
H979 H 0.13862 0.29099 0.69001 0.0
H980 H 0.13883 0.30952 0.70651 0.0
H981 H 0.10331 0.30755 0.70912 0.0
H982 H 0.10297 0.28907 0.69263 0.0
H983 H 0.08947 0.30945 0.6886 0.0
H984 H 0.11305 0.34026 0.62794 0.0
H985 H 0.11042 0.31111 0.61065 0.0
H986 H 0.11698 0.28042 0.66142 0.0
C987 C 0.11718 0.34523 0.70038 0.0
C988 C 0.11485 0.36439 0.69802 0.0
C989 C 0.11394 0.37177 0.68001 0.0
C990 C 0.11492 0.36025 0.66456 0.0
C991 C 0.1169 0.34139 0.66735 0.0
C992 C 0.11813 0.33392 0.6848 0.0
C993 C 0.11911 0.31309 0.684 0.0
C994 C 0.13756 0.30616 0.69164 0.0
C995 C 0.10274 0.30428 0.69419 0.0
C996 C 0.1178 0.31001 0.66341 0.0
C997 C 0.11666 0.32654 0.65407 0.0
C998 C 0.1142 0.32724 0.63507 0.0
C999 C 0.11268 0.31062 0.62538 0.0
C1000 C 0.11366 0.29354 0.63468 0.0
C1001 C 0.11651 0.29328 0.65391 0.0
H1002 H 0.69381 0.10538 0.64036 0.0
H1003 H 0.74189 0.09378 0.67388 0.0
H1004 H 0.72252 0.09389 0.70173 0.0
H1005 H 0.67172 0.13594 0.67232 0.0
H1006 H 0.64879 0.1278 0.66739 0.0
H1007 H 0.66633 0.12669 0.64992 0.0
H1008 H 0.66062 0.09166 0.6463 0.0
H1009 H 0.64301 0.09267 0.66372 0.0
H1010 H 0.66201 0.07697 0.66624 0.0
H1011 H 0.69839 0.09578 0.72589 0.0
H1012 H 0.67055 0.0983 0.74507 0.0
H1013 H 0.6377 0.10823 0.69615 0.0
C1014 C 0.70022 0.10281 0.65356 0.0
C1015 C 0.71935 0.09957 0.65498 0.0
C1016 C 0.72726 0.09627 0.67248 0.0
C1017 C 0.71638 0.09633 0.68838 0.0
C1018 C 0.69761 0.09965 0.68655 0.0
C1019 C 0.68953 0.10275 0.66961 0.0
C1020 C 0.66899 0.10588 0.67156 0.0
C1021 C 0.66365 0.12523 0.66491 0.0
C1022 C 0.65801 0.0909 0.66135 0.0
C1023 C 0.66683 0.1041 0.69224 0.0
C1024 C 0.68355 0.10057 0.70057 0.0
C1025 C 0.6852 0.0985 0.71954 0.0
C1026 C 0.6693 0.09999 0.73031 0.0
C1027 C 0.65197 0.10345 0.7221 0.0
C1028 C 0.65076 0.10556 0.7028 0.0
H1029 H 0.89857 0.71947 0.6636 0.0
H1030 H 0.87433 0.68848 0.61857 0.0
H1031 H 0.87114 0.66143 0.63886 0.0
H1032 H 0.92466 0.68277 0.68264 0.0
H1033 H 0.92086 0.6894 0.70624 0.0
H1034 H 0.92064 0.70657 0.68839 0.0
H1035 H 0.88803 0.71677 0.69856 0.0
H1036 H 0.88815 0.69962 0.71646 0.0
H1037 H 0.86977 0.69997 0.69979 0.0
H1038 H 0.87212 0.63733 0.66335 0.0
H1039 H 0.87646 0.61789 0.69087 0.0
H1040 H 0.8991 0.6647 0.72038 0.0
C1041 C 0.8925 0.70701 0.65806 0.0
C1042 C 0.88671 0.70604 0.63952 0.0
C1043 C 0.87883 0.68952 0.63275 0.0
C1044 C 0.87695 0.67409 0.64415 0.0
C1045 C 0.88288 0.67546 0.66233 0.0
C1046 C 0.8904 0.69151 0.6693 0.0
C1047 C 0.89592 0.68921 0.68927 0.0
C1048 C 0.91676 0.69216 0.69178 0.0
C1049 C 0.8848 0.70216 0.70176 0.0
C1050 C 0.89057 0.66929 0.69235 0.0
C1051 C 0.88308 0.66163 0.67662 0.0
C1052 C 0.8778 0.64321 0.67581 0.0
C1053 C 0.88034 0.63228 0.69148 0.0
C1054 C 0.88798 0.63985 0.70775 0.0
C1055 C 0.893 0.65863 0.7082 0.0
H1056 H 0.31007 0.36356 0.10887 0.0
H1057 H 0.26177 0.32832 0.11141 0.0
H1058 H 0.2817 0.30111 0.11415 0.0
H1059 H 0.33685 0.3338 0.08113 0.0
H1060 H 0.35841 0.33874 0.09241 0.0
H1061 H 0.34045 0.35576 0.09215 0.0
H1062 H 0.34151 0.35751 0.12774 0.0
H1063 H 0.35947 0.34045 0.12811 0.0
H1064 H 0.33863 0.33679 0.14107 0.0
H1065 H 0.30625 0.27769 0.11441 0.0
H1066 H 0.33437 0.25904 0.11176 0.0
H1067 H 0.36742 0.30882 0.10941 0.0
C1068 C 0.30373 0.35013 0.11024 0.0
C1069 C 0.28436 0.34805 0.10998 0.0
C1070 C 0.27656 0.33025 0.11158 0.0
C1071 C 0.28776 0.3147 0.11321 0.0
C1072 C 0.30677 0.31715 0.11327 0.0
C1073 C 0.31476 0.33437 0.11184 0.0
C1074 C 0.33561 0.33294 0.11128 0.0
C1075 C 0.34328 0.34077 0.09316 0.0
C1076 C 0.34431 0.34249 0.12805 0.0
C1077 C 0.33801 0.31221 0.11226 0.0
C1078 C 0.32114 0.30345 0.11354 0.0
C1079 C 0.31956 0.28437 0.11363 0.0
C1080 C 0.33561 0.2739 0.11208 0.0
C1081 C 0.35305 0.28249 0.11052 0.0
C1082 C 0.35428 0.30191 0.11092 0.0
H1083 H 0.33999 0.72042 0.88708 0.0
H1084 H 0.3899 0.68828 0.881 0.0
H1085 H 0.37132 0.65991 0.87863 0.0
H1086 H 0.31652 0.68867 0.91546 0.0
H1087 H 0.29414 0.69261 0.90554 0.0
H1088 H 0.3112 0.71062 0.90524 0.0
H1089 H 0.3081 0.7131 0.8698 0.0
H1090 H 0.29098 0.6951 0.86999 0.0
H1091 H 0.3112 0.69284 0.85581 0.0
H1092 H 0.34767 0.6349 0.87894 0.0
H1093 H 0.32037 0.6148 0.88186 0.0
H1094 H 0.28563 0.66296 0.88768 0.0
C1095 C 0.34697 0.70744 0.88496 0.0
C1096 C 0.36639 0.70655 0.88414 0.0
C1097 C 0.37504 0.68928 0.88163 0.0
C1098 C 0.36461 0.6731 0.88023 0.0
C1099 C 0.34552 0.67439 0.88134 0.0
C1100 C 0.33674 0.6911 0.8836 0.0
C1101 C 0.31609 0.68852 0.88527 0.0
C1102 C 0.30908 0.69552 0.90399 0.0
C1103 C 0.306 0.69795 0.86926 0.0
C1104 C 0.31468 0.66775 0.88389 0.0
C1105 C 0.33181 0.65989 0.88152 0.0
C1106 C 0.33415 0.64089 0.88062 0.0
C1107 C 0.31857 0.62959 0.88232 0.0
C1108 C 0.30088 0.63732 0.8849 0.0
C1109 C 0.29895 0.65667 0.88551 0.0
H1110 H 0.2781 0.33485 0.89727 0.0
H1111 H 0.30396 0.37931 0.86685 0.0
H1112 H 0.3301 0.35904 0.85933 0.0
H1113 H 0.31929 0.31835 0.91749 0.0
H1114 H 0.31286 0.29439 0.91645 0.0
H1115 H 0.29534 0.31178 0.91801 0.0
H1116 H 0.27999 0.29904 0.88842 0.0
H1117 H 0.29753 0.28162 0.88673 0.0
H1118 H 0.29342 0.29692 0.86766 0.0
H1119 H 0.35393 0.33466 0.85614 0.0
H1120 H 0.375 0.3083 0.85919 0.0
H1121 H 0.33443 0.27971 0.89253 0.0
C1122 C 0.28916 0.3402 0.88881 0.0
C1123 C 0.28898 0.35859 0.88251 0.0
C1124 C 0.30383 0.36525 0.87178 0.0
C1125 C 0.31869 0.35382 0.86737 0.0
C1126 C 0.31855 0.3358 0.87388 0.0
C1127 C 0.30426 0.32902 0.88447 0.0
C1128 C 0.30818 0.30954 0.8908 0.0
C1129 C 0.30897 0.30846 0.91194 0.0
C1130 C 0.29393 0.29598 0.88293 0.0
C1131 C 0.32701 0.30654 0.88231 0.0
C1132 C 0.33259 0.32179 0.8724 0.0
C1133 C 0.34968 0.32259 0.86376 0.0
C1134 C 0.36154 0.30753 0.86556 0.0
C1135 C 0.35634 0.29194 0.87604 0.0
C1136 C 0.33872 0.29137 0.88429 0.0
H1137 H 0.63614 0.31574 0.89936 0.0
H1138 H 0.66718 0.2672 0.88377 0.0
H1139 H 0.69497 0.28627 0.87965 0.0
H1140 H 0.65898 0.3479 0.86809 0.0
H1141 H 0.65891 0.36655 0.88446 0.0
H1142 H 0.64103 0.34932 0.88516 0.0
H1143 H 0.64874 0.34261 0.91932 0.0
H1144 H 0.6666 0.35983 0.91873 0.0
H1145 H 0.67198 0.33662 0.9256 0.0
H1146 H 0.71955 0.31006 0.87822 0.0
H1147 H 0.73991 0.33713 0.88069 0.0
H1148 H 0.69342 0.37051 0.89766 0.0
C1149 C 0.64875 0.30919 0.89491 0.0
C1150 C 0.64951 0.29 0.89182 0.0
C1151 C 0.6663 0.28187 0.88622 0.0
C1152 C 0.68214 0.2926 0.88378 0.0
C1153 C 0.681 0.31144 0.88703 0.0
C1154 C 0.66479 0.3197 0.89253 0.0
C1155 C 0.66763 0.34011 0.89593 0.0
C1156 C 0.65594 0.35165 0.88261 0.0
C1157 C 0.6635 0.34508 0.9161 0.0
C1158 C 0.68798 0.34194 0.89166 0.0
C1159 C 0.69535 0.32523 0.88641 0.0
C1160 C 0.71394 0.32325 0.88223 0.0
C1161 C 0.72539 0.33871 0.88367 0.0
C1162 C 0.71824 0.35592 0.88931 0.0
C1163 C 0.69924 0.35756 0.89317 0.0
H1164 H 0.692 0.63639 0.89254 0.0
H1165 H 0.74037 0.66854 0.87828 0.0
H1166 H 0.72085 0.6958 0.87338 0.0
H1167 H 0.66003 0.65903 0.85993 0.0
H1168 H 0.64106 0.65819 0.87589 0.0
H1169 H 0.65855 0.64065 0.87653 0.0
H1170 H 0.66436 0.64765 0.91102 0.0
H1171 H 0.64694 0.66519 0.91048 0.0
H1172 H 0.66993 0.67082 0.91799 0.0
H1173 H 0.69688 0.72019 0.8731 0.0
H1174 H 0.66967 0.74013 0.87688 0.0
H1175 H 0.63647 0.69234 0.89057 0.0
C1176 C 0.69841 0.64908 0.88805 0.0
C1177 C 0.71769 0.65034 0.88572 0.0
C1178 C 0.72562 0.66725 0.8801 0.0
C1179 C 0.71465 0.68281 0.87724 0.0
C1180 C 0.69574 0.68122 0.87995 0.0
C1181 C 0.68763 0.66479 0.88511 0.0
C1182 C 0.66712 0.66714 0.88814 0.0
C1183 C 0.65604 0.65556 0.87429 0.0
C1184 C 0.66178 0.66242 0.90809 0.0
C1185 C 0.66508 0.68754 0.88432 0.0
C1186 C 0.68176 0.69535 0.87951 0.0
C1187 C 0.68368 0.7142 0.87655 0.0
C1188 C 0.66817 0.72541 0.87877 0.0
C1189 C 0.65098 0.71773 0.88381 0.0
C1190 C 0.64938 0.69852 0.88634 0.0
H1191 H 0.66217 0.71656 0.11 0.0
H1192 H 0.61355 0.68586 0.12633 0.0
H1193 H 0.63235 0.65763 0.12908 0.0
H1194 H 0.68172 0.682 0.08228 0.0
H1195 H 0.70516 0.68704 0.08874 0.0
H1196 H 0.6881 0.70495 0.0893 0.0
H1197 H 0.69569 0.71133 0.12358 0.0
H1198 H 0.71285 0.69349 0.1231 0.0
H1199 H 0.69467 0.69273 0.13996 0.0
H1200 H 0.65643 0.63229 0.12815 0.0
H1201 H 0.68378 0.61234 0.12436 0.0
H1202 H 0.71629 0.66005 0.10889 0.0
C1203 C 0.6555 0.70396 0.11439 0.0
C1204 C 0.63641 0.7034 0.11801 0.0
C1205 C 0.62818 0.68661 0.12357 0.0
C1206 C 0.63874 0.67051 0.12515 0.0
C1207 C 0.65751 0.67149 0.12121 0.0
C1208 C 0.66581 0.68783 0.11606 0.0
C1209 C 0.68606 0.68518 0.11201 0.0
C1210 C 0.69051 0.69008 0.09189 0.0
C1211 C 0.69802 0.69634 0.12547 0.0
C1212 C 0.68784 0.66473 0.11542 0.0
C1213 C 0.67127 0.65704 0.12078 0.0
C1214 C 0.6695 0.63821 0.12412 0.0
C1215 C 0.68508 0.62698 0.12191 0.0
C1216 C 0.70215 0.63465 0.11641 0.0
C1217 C 0.70347 0.65378 0.11324 0.0
H1218 H 0.33777 0.71585 0.10032 0.0
H1219 H 0.38514 0.68555 0.12028 0.0
H1220 H 0.36537 0.65824 0.12537 0.0
H1221 H 0.30414 0.69632 0.13158 0.0
H1222 H 0.28618 0.69557 0.11448 0.0
H1223 H 0.3039 0.71291 0.11314 0.0
H1224 H 0.3118 0.70241 0.07998 0.0
H1225 H 0.29406 0.68511 0.08119 0.0
H1226 H 0.31736 0.67862 0.07574 0.0
H1227 H 0.34056 0.63401 0.12738 0.0
H1228 H 0.31283 0.61434 0.12523 0.0
H1229 H 0.28178 0.66057 0.10384 0.0
C1230 C 0.34398 0.70351 0.10588 0.0
C1231 C 0.36297 0.70281 0.10997 0.0
C1232 C 0.37061 0.68636 0.11706 0.0
C1233 C 0.35948 0.67082 0.12004 0.0
C1234 C 0.34079 0.67197 0.11584 0.0
C1235 C 0.33311 0.68788 0.10886 0.0
C1236 C 0.3128 0.68534 0.10483 0.0
C1237 C 0.30107 0.69831 0.11672 0.0
C1238 C 0.30878 0.68803 0.08421 0.0
C1239 C 0.31026 0.66547 0.11053 0.0
C1240 C 0.32654 0.65802 0.11693 0.0
C1241 C 0.32771 0.63972 0.12248 0.0
C1242 C 0.3119 0.62866 0.12122 0.0
C1243 C 0.29515 0.63596 0.11444 0.0
C1244 C 0.29434 0.65466 0.10924 0.0
H1245 H 0.69138 0.36539 0.10898 0.0
H1246 H 0.73793 0.332 0.12576 0.0
H1247 H 0.71752 0.30524 0.12937 0.0
H1248 H 0.65685 0.34298 0.1395 0.0
H1249 H 0.63882 0.34408 0.12248 0.0
H1250 H 0.65664 0.36139 0.12287 0.0
H1251 H 0.66423 0.35433 0.08878 0.0
H1252 H 0.64651 0.33697 0.0883 0.0
H1253 H 0.66979 0.33109 0.08211 0.0
H1254 H 0.69348 0.2816 0.12857 0.0
H1255 H 0.66631 0.2619 0.12399 0.0
H1256 H 0.6342 0.30962 0.10808 0.0
C1257 C 0.69713 0.35252 0.11377 0.0
C1258 C 0.71624 0.35078 0.11716 0.0
C1259 C 0.72336 0.33365 0.12307 0.0
C1260 C 0.71187 0.31837 0.12523 0.0
C1261 C 0.69322 0.32036 0.12145 0.0
C1262 C 0.68578 0.33695 0.11592 0.0
C1263 C 0.66536 0.3348 0.11173 0.0
C1264 C 0.65373 0.34651 0.12494 0.0
C1265 C 0.66124 0.33958 0.09153 0.0
C1266 C 0.6627 0.31436 0.1154 0.0
C1267 C 0.67901 0.30644 0.12109 0.0
C1268 C 0.68055 0.28765 0.12436 0.0
C1269 C 0.66505 0.27656 0.12164 0.0
C1270 C 0.64814 0.28424 0.11577 0.0
C1271 C 0.64689 0.30345 0.11283 0.0
H1272 H 0.6095 0.84034 0.78433 0.0
H1273 H 0.6352 0.88548 0.81394 0.0
H1274 H 0.63776 0.86585 0.84158 0.0
H1275 H 0.5824 0.82421 0.82104 0.0
H1276 H 0.58488 0.80018 0.81545 0.0
H1277 H 0.58642 0.81725 0.79757 0.0
H1278 H 0.61856 0.80496 0.78825 0.0
H1279 H 0.61706 0.78774 0.80601 0.0
H1280 H 0.63643 0.80328 0.80539 0.0
H1281 H 0.63551 0.84188 0.86667 0.0
H1282 H 0.62972 0.81499 0.88679 0.0
H1283 H 0.60562 0.78571 0.84059 0.0
C1284 C 0.61596 0.846 0.79652 0.0
C1285 C 0.62224 0.8644 0.79697 0.0
C1286 C 0.63039 0.87138 0.81327 0.0
C1287 C 0.63188 0.86035 0.82904 0.0
C1288 C 0.62521 0.84236 0.82826 0.0
C1289 C 0.61754 0.83519 0.81237 0.0
C1290 C 0.61079 0.81569 0.81532 0.0
C1291 C 0.58988 0.81426 0.81216 0.0
C1292 C 0.62134 0.80212 0.80301 0.0
C1293 C 0.61562 0.81309 0.83541 0.0
C1294 C 0.62397 0.8286 0.84264 0.0
C1295 C 0.62914 0.8296 0.86111 0.0
C1296 C 0.62575 0.81431 0.87244 0.0
C1297 C 0.61728 0.79827 0.86524 0.0
C1298 C 0.61222 0.79773 0.84647 0.0
H1299 H 0.22365 0.60745 0.83593 0.0
H1300 H 0.19073 0.61418 0.88531 0.0
H1301 H 0.16261 0.61584 0.86633 0.0
H1302 H 0.1967 0.63806 0.80659 0.0
H1303 H 0.19926 0.62372 0.78651 0.0
H1304 H 0.21694 0.62401 0.8039 0.0
H1305 H 0.21421 0.58859 0.80716 0.0
H1306 H 0.19647 0.58821 0.78985 0.0
H1307 H 0.19211 0.57844 0.81223 0.0
H1308 H 0.13802 0.61541 0.84232 0.0
H1309 H 0.11843 0.61338 0.81465 0.0
H1310 H 0.16713 0.6069 0.78067 0.0
C1311 C 0.21054 0.60949 0.84271 0.0
C1312 C 0.20936 0.61075 0.86208 0.0
C1313 C 0.19195 0.61322 0.87048 0.0
C1314 C 0.1759 0.61419 0.85983 0.0
C1315 C 0.1775 0.61268 0.84079 0.0
C1316 C 0.19435 0.61044 0.83227 0.0
C1317 C 0.19214 0.60863 0.8116 0.0
C1318 C 0.20183 0.62456 0.80156 0.0
C1319 C 0.19915 0.58985 0.80482 0.0
C1320 C 0.1714 0.61003 0.80987 0.0
C1321 C 0.16325 0.61241 0.82689 0.0
C1322 C 0.14423 0.61366 0.82891 0.0
C1323 C 0.13323 0.61245 0.81311 0.0
C1324 C 0.14126 0.61001 0.79552 0.0
C1325 C 0.16061 0.60884 0.79393 0.0
H1326 H 0.39563 0.16385 0.7761 0.0
H1327 H 0.37799 0.11607 0.80728 0.0
H1328 H 0.37437 0.13563 0.83499 0.0
H1329 H 0.4223 0.18421 0.81133 0.0
H1330 H 0.41623 0.2075 0.8054 0.0
H1331 H 0.41628 0.18992 0.78795 0.0
H1332 H 0.38234 0.19748 0.77998 0.0
H1333 H 0.3822 0.21513 0.79739 0.0
H1334 H 0.3652 0.19702 0.7979 0.0
H1335 H 0.37412 0.16057 0.85971 0.0
H1336 H 0.37728 0.18847 0.87908 0.0
H1337 H 0.39514 0.21949 0.83129 0.0
C1338 C 0.3908 0.1575 0.78869 0.0
C1339 C 0.38702 0.13844 0.78953 0.0
C1340 C 0.3809 0.13066 0.80632 0.0
C1341 C 0.3788 0.14167 0.82211 0.0
C1342 C 0.38284 0.16041 0.82084 0.0
C1343 C 0.38867 0.16824 0.80451 0.0
C1344 C 0.39275 0.18855 0.80682 0.0
C1345 C 0.4131 0.19278 0.80263 0.0
C1346 C 0.37985 0.20023 0.79481 0.0
C1347 C 0.38852 0.19094 0.82705 0.0
C1348 C 0.38274 0.17461 0.83493 0.0
C1349 C 0.37852 0.17344 0.85363 0.0
C1350 C 0.38035 0.18935 0.86453 0.0
C1351 C 0.3864 0.20615 0.85669 0.0
C1352 C 0.39039 0.20688 0.83768 0.0
H1353 H 0.83889 0.39233 0.78177 0.0
H1354 H 0.88917 0.38894 0.81386 0.0
H1355 H 0.87087 0.38872 0.84248 0.0
H1356 H 0.8155 0.42292 0.81156 0.0
H1357 H 0.79317 0.41249 0.80848 0.0
H1358 H 0.81006 0.4111 0.79041 0.0
H1359 H 0.80733 0.37554 0.7904 0.0
H1360 H 0.79032 0.37681 0.8084 0.0
H1361 H 0.81069 0.36305 0.81156 0.0
H1362 H 0.84737 0.39042 0.86756 0.0
H1363 H 0.82008 0.39334 0.88756 0.0
H1364 H 0.78496 0.39582 0.83928 0.0
C1365 C 0.84602 0.39128 0.79482 0.0
C1366 C 0.86544 0.39057 0.79562 0.0
C1367 C 0.8743 0.38943 0.81294 0.0
C1368 C 0.86403 0.3893 0.82926 0.0
C1369 C 0.84492 0.39031 0.82802 0.0
C1370 C 0.83598 0.3912 0.81126 0.0
C1371 C 0.81534 0.39281 0.8138 0.0
C1372 C 0.8081 0.41091 0.80558 0.0
C1373 C 0.80533 0.37605 0.80555 0.0
C1374 C 0.81411 0.3929 0.83461 0.0
C1375 C 0.83133 0.39137 0.84253 0.0
C1376 C 0.83379 0.39151 0.86153 0.0
C1377 C 0.81821 0.39322 0.87277 0.0
C1378 C 0.80041 0.39479 0.86497 0.0
C1379 C 0.79839 0.39459 0.84563 0.0
H1380 H 0.60735 0.18654 0.13553 0.0
H1381 H 0.62593 0.23309 0.16807 0.0
H1382 H 0.62983 0.21276 0.19496 0.0
H1383 H 0.58037 0.16671 0.17035 0.0
H1384 H 0.58532 0.14315 0.16443 0.0
H1385 H 0.58627 0.16071 0.14701 0.0
H1386 H 0.61982 0.1515 0.1393 0.0
H1387 H 0.61897 0.13387 0.15673 0.0
H1388 H 0.63684 0.15112 0.15736 0.0
H1389 H 0.62952 0.18843 0.21868 0.0
H1390 H 0.62365 0.16171 0.2386 0.0
H1391 H 0.60433 0.13048 0.19141 0.0
C1392 C 0.61263 0.19231 0.14822 0.0
C1393 C 0.61654 0.21132 0.14973 0.0
C1394 C 0.62294 0.21854 0.16665 0.0
C1395 C 0.62528 0.20709 0.18196 0.0
C1396 C 0.62105 0.18847 0.18014 0.0
C1397 C 0.61479 0.18108 0.16376 0.0
C1398 C 0.60968 0.16093 0.16606 0.0
C1399 C 0.58919 0.1577 0.16171 0.0
C1400 C 0.62207 0.14863 0.15415 0.0
C1401 C 0.61367 0.1583 0.18639 0.0
C1402 C 0.62047 0.17433 0.1941 0.0
C1403 C 0.62438 0.17574 0.21279 0.0
C1404 C 0.62096 0.16048 0.22399 0.0
C1405 C 0.61359 0.144 0.21655 0.0
C1406 C 0.6102 0.14281 0.19742 0.0
H1407 H 0.86544 0.61365 0.19163 0.0
H1408 H 0.83229 0.62113 0.24075 0.0
H1409 H 0.80445 0.6237 0.22167 0.0
H1410 H 0.83821 0.64485 0.16143 0.0
H1411 H 0.84074 0.6301 0.14164 0.0
H1412 H 0.85853 0.63088 0.15893 0.0
H1413 H 0.85606 0.59553 0.16292 0.0
H1414 H 0.83823 0.59466 0.14575 0.0
H1415 H 0.83407 0.58535 0.16836 0.0
H1416 H 0.77993 0.62208 0.19814 0.0
H1417 H 0.76005 0.61751 0.17098 0.0
H1418 H 0.80848 0.61173 0.13652 0.0
C1419 C 0.85237 0.61627 0.19828 0.0
C1420 C 0.85103 0.61726 0.21767 0.0
C1421 C 0.83365 0.62033 0.22593 0.0
C1422 C 0.81773 0.62187 0.21521 0.0
C1423 C 0.81939 0.62038 0.1962 0.0
C1424 C 0.83624 0.6178 0.18773 0.0
C1425 C 0.83388 0.61552 0.16709 0.0
C1426 C 0.84341 0.63128 0.15666 0.0
C1427 C 0.84098 0.59664 0.16066 0.0
C1428 C 0.81309 0.61677 0.16543 0.0
C1429 C 0.80506 0.61967 0.18242 0.0
C1430 C 0.78603 0.62011 0.1847 0.0
C1431 C 0.77486 0.61743 0.16922 0.0
C1432 C 0.78274 0.61444 0.15167 0.0
C1433 C 0.80211 0.61432 0.14974 0.0
H1434 H 0.38157 0.80746 0.13226 0.0
H1435 H 0.386 0.75862 0.16632 0.0
H1436 H 0.38461 0.7779 0.1942 0.0
H1437 H 0.41043 0.83524 0.1589 0.0
H1438 H 0.39753 0.85619 0.15594 0.0
H1439 H 0.3966 0.83856 0.13857 0.0
H1440 H 0.36105 0.83744 0.14122 0.0
H1441 H 0.36185 0.85519 0.15854 0.0
H1442 H 0.35056 0.83361 0.16337 0.0
H1443 H 0.38601 0.80223 0.21809 0.0
H1444 H 0.38912 0.83035 0.23684 0.0
H1445 H 0.38353 0.8638 0.18769 0.0
C1446 C 0.3818 0.80082 0.1456 0.0
C1447 C 0.38378 0.78154 0.14716 0.0
C1448 C 0.38442 0.77336 0.16482 0.0
C1449 C 0.38361 0.78419 0.18074 0.0
C1450 C 0.3821 0.80318 0.17876 0.0
C1451 C 0.38107 0.81147 0.16167 0.0
C1452 C 0.38071 0.83227 0.16345 0.0
C1453 C 0.39731 0.84107 0.15364 0.0
C1454 C 0.36245 0.84008 0.15622 0.0
C1455 C 0.38217 0.83434 0.18417 0.0
C1456 C 0.38283 0.81736 0.19269 0.0
C1457 C 0.38523 0.81562 0.21162 0.0
C1458 C 0.38707 0.83167 0.22214 0.0
C1459 C 0.38646 0.84922 0.21372 0.0
C1460 C 0.38379 0.85055 0.19451 0.0
H1461 H 0.18855 0.39461 0.13562 0.0
H1462 H 0.23592 0.37408 0.16562 0.0
H1463 H 0.21665 0.36974 0.19316 0.0
H1464 H 0.17016 0.42047 0.17263 0.0
H1465 H 0.14637 0.41577 0.16728 0.0
H1466 H 0.16336 0.41567 0.14925 0.0
H1467 H 0.15363 0.38254 0.14027 0.0
H1468 H 0.13662 0.38252 0.15834 0.0
H1469 H 0.15379 0.36468 0.15748 0.0
H1470 H 0.1933 0.36922 0.21777 0.0
H1471 H 0.16725 0.37389 0.23886 0.0
H1472 H 0.13444 0.39525 0.19377 0.0
C1473 C 0.19475 0.38895 0.14793 0.0
C1474 C 0.21371 0.38457 0.14848 0.0
C1475 C 0.22143 0.37751 0.1649 0.0
C1476 C 0.21058 0.37491 0.18059 0.0
C1477 C 0.19201 0.37949 0.17969 0.0
C1478 C 0.1841 0.38643 0.16386 0.0
C1479 C 0.16406 0.3914 0.16713 0.0
C1480 C 0.16081 0.41205 0.16389 0.0
C1481 C 0.15127 0.37958 0.15509 0.0
C1482 C 0.1621 0.38645 0.18734 0.0
C1483 C 0.17839 0.37941 0.19417 0.0
C1484 C 0.18042 0.37456 0.21257 0.0
C1485 C 0.16553 0.37729 0.22445 0.0
C1486 C 0.1488 0.38485 0.21794 0.0
C1487 C 0.14697 0.3892 0.19906 0.0
H1488 H 0.78485 0.61052 0.84075 0.0
H1489 H 0.81854 0.60993 0.8901 0.0
H1490 H 0.84657 0.61171 0.87098 0.0
H1491 H 0.8143 0.58252 0.81326 0.0
H1492 H 0.81024 0.59513 0.79231 0.0
H1493 H 0.7928 0.59437 0.80989 0.0
H1494 H 0.7922 0.63002 0.81084 0.0
H1495 H 0.80969 0.63089 0.79328 0.0
H1496 H 0.81328 0.64254 0.8149 0.0
H1497 H 0.8709 0.61237 0.84661 0.0
H1498 H 0.88999 0.61191 0.8185 0.0
H1499 H 0.84056 0.6127 0.78495 0.0
C1500 C 0.79813 0.61083 0.84753 0.0
C1501 C 0.79954 0.61008 0.8669 0.0
C1502 C 0.81715 0.61051 0.87527 0.0
C1503 C 0.83314 0.61154 0.86454 0.0
C1504 C 0.83128 0.61224 0.84547 0.0
C1505 C 0.81424 0.61194 0.83702 0.0
C1506 C 0.8161 0.61252 0.81626 0.0
C1507 C 0.80787 0.5951 0.80742 0.0
C1508 C 0.8073 0.63004 0.80836 0.0
C1509 C 0.83686 0.61299 0.81437 0.0
C1510 C 0.84534 0.61286 0.83139 0.0
C1511 C 0.86443 0.61262 0.8332 0.0
C1512 C 0.87514 0.61235 0.81717 0.0
C1513 C 0.86674 0.61238 0.79958 0.0
C1514 C 0.84735 0.61288 0.79822 0.0
H1515 H 0.3959 0.83878 0.77733 0.0
H1516 H 0.38531 0.88821 0.8091 0.0
H1517 H 0.38201 0.86933 0.83724 0.0
H1518 H 0.36419 0.80852 0.80223 0.0
H1519 H 0.37938 0.789 0.80071 0.0
H1520 H 0.37966 0.80631 0.78296 0.0
H1521 H 0.4147 0.81096 0.78795 0.0
H1522 H 0.41451 0.79373 0.80572 0.0
H1523 H 0.42316 0.81648 0.81062 0.0
H1524 H 0.38205 0.84523 0.8622 0.0
H1525 H 0.38475 0.81772 0.882 0.0
H1526 H 0.39486 0.78402 0.83376 0.0
C1527 C 0.39264 0.84562 0.79016 0.0
C1528 C 0.39079 0.86496 0.79104 0.0
C1529 C 0.3867 0.8734 0.80812 0.0
C1530 C 0.38481 0.86279 0.82415 0.0
C1531 C 0.38695 0.84377 0.82284 0.0
C1532 C 0.39068 0.83525 0.80626 0.0
C1533 C 0.39307 0.81468 0.80866 0.0
C1534 C 0.37818 0.804 0.79801 0.0
C1535 C 0.41251 0.80861 0.8029 0.0
C1536 C 0.39035 0.81296 0.82924 0.0
C1537 C 0.3868 0.82989 0.83717 0.0
C1538 C 0.38462 0.83188 0.85611 0.0
C1539 C 0.38621 0.8162 0.86725 0.0
C1540 C 0.38989 0.79874 0.8594 0.0
C1541 C 0.39181 0.79714 0.84013 0.0
H1542 H 0.21586 0.38713 0.83561 0.0
H1543 H 0.18028 0.38925 0.88353 0.0
H1544 H 0.15298 0.38845 0.86329 0.0
H1545 H 0.1892 0.41683 0.80785 0.0
H1546 H 0.19333 0.40459 0.78667 0.0
H1547 H 0.2101 0.40382 0.8049 0.0
H1548 H 0.2086 0.36818 0.80484 0.0
H1549 H 0.19184 0.36884 0.78656 0.0
H1550 H 0.18668 0.35683 0.80764 0.0
H1551 H 0.12967 0.38905 0.83801 0.0
H1552 H 0.11177 0.39134 0.80925 0.0
H1553 H 0.16238 0.38922 0.77758 0.0
C1554 C 0.20232 0.38716 0.84183 0.0
C1555 C 0.20016 0.38815 0.86113 0.0
C1556 C 0.18223 0.38844 0.86877 0.0
C1557 C 0.16665 0.38795 0.8574 0.0
C1558 C 0.16924 0.3872 0.83842 0.0
C1559 C 0.1866 0.38679 0.83067 0.0
C1560 C 0.18555 0.38691 0.80983 0.0
C1561 C 0.19511 0.40406 0.80185 0.0
C1562 C 0.19365 0.36913 0.80174 0.0
C1563 C 0.16489 0.3877 0.8071 0.0
C1564 C 0.15575 0.38772 0.82378 0.0
C1565 C 0.13666 0.38891 0.82486 0.0
C1566 C 0.12661 0.39023 0.80845 0.0
C1567 C 0.13568 0.39041 0.79119 0.0
C1568 C 0.15507 0.38899 0.79056 0.0
H1569 H 0.609 0.13822 0.81451 0.0
H1570 H 0.61361 0.17051 0.76447 0.0
H1571 H 0.61457 0.19899 0.78294 0.0
H1572 H 0.57943 0.16888 0.83837 0.0
H1573 H 0.58989 0.16529 0.86057 0.0
H1574 H 0.5905 0.14731 0.84352 0.0
H1575 H 0.62607 0.14611 0.846 0.0
H1576 H 0.62556 0.16406 0.8631 0.0
H1577 H 0.6393 0.16686 0.84264 0.0
H1578 H 0.61353 0.22393 0.80652 0.0
H1579 H 0.61117 0.24387 0.8339 0.0
H1580 H 0.60756 0.19551 0.8688 0.0
C1581 C 0.61039 0.15128 0.80747 0.0
C1582 C 0.61126 0.15218 0.78807 0.0
C1583 C 0.61295 0.16951 0.77933 0.0
C1584 C 0.61352 0.18576 0.78969 0.0
C1585 C 0.61245 0.18442 0.80877 0.0
C1586 C 0.611 0.16765 0.81761 0.0
C1587 C 0.60961 0.17011 0.83827 0.0
C1588 C 0.59126 0.16245 0.84561 0.0
C1589 C 0.62612 0.16126 0.84808 0.0
C1590 C 0.61029 0.1909 0.83963 0.0
C1591 C 0.61197 0.19886 0.82244 0.0
C1592 C 0.61235 0.21787 0.82007 0.0
C1593 C 0.61097 0.22907 0.8357 0.0
C1594 C 0.60924 0.22122 0.85345 0.0
C1595 C 0.60899 0.20188 0.8554 0.0
H1596 H 0.87131 0.38802 0.1928 0.0
H1597 H 0.83765 0.38282 0.2419 0.0
H1598 H 0.80996 0.37958 0.2227 0.0
H1599 H 0.84026 0.41525 0.1678 0.0
H1600 H 0.84457 0.40478 0.14573 0.0
H1601 H 0.86225 0.40482 0.16309 0.0
H1602 H 0.86459 0.36932 0.16095 0.0
H1603 H 0.84697 0.36917 0.14347 0.0
H1604 H 0.84418 0.35548 0.16396 0.0
H1605 H 0.78568 0.38009 0.19892 0.0
H1606 H 0.76607 0.38282 0.17136 0.0
H1607 H 0.81481 0.38687 0.13706 0.0
C1608 C 0.85815 0.38579 0.19944 0.0
C1609 C 0.85665 0.38562 0.21885 0.0
C1610 C 0.83915 0.38299 0.22707 0.0
C1611 C 0.82332 0.3811 0.21629 0.0
C1612 C 0.82516 0.38176 0.19725 0.0
C1613 C 0.84209 0.38387 0.18882 0.0
C1614 C 0.83994 0.38506 0.16807 0.0
C1615 C 0.84718 0.40358 0.16075 0.0
C1616 C 0.84949 0.36878 0.15855 0.0
C1617 C 0.81915 0.38372 0.16628 0.0
C1618 C 0.81096 0.38176 0.18332 0.0
C1619 C 0.79192 0.38133 0.18545 0.0
C1620 C 0.78089 0.38297 0.16974 0.0
C1621 C 0.78893 0.38491 0.15211 0.0
C1622 C 0.80832 0.38511 0.15036 0.0
H1623 H 0.61547 0.86761 0.18868 0.0
H1624 H 0.62755 0.83483 0.23704 0.0
H1625 H 0.63284 0.80772 0.21743 0.0
H1626 H 0.5897 0.83419 0.16637 0.0
H1627 H 0.59745 0.83926 0.14336 0.0
H1628 H 0.59763 0.85701 0.16063 0.0
H1629 H 0.63239 0.86258 0.1549 0.0
H1630 H 0.6323 0.84487 0.1375 0.0
H1631 H 0.64821 0.84357 0.1565 0.0
H1632 H 0.63264 0.78349 0.19382 0.0
H1633 H 0.62728 0.76325 0.16713 0.0
H1634 H 0.61551 0.8109 0.13322 0.0
C1635 C 0.61981 0.85485 0.195 0.0
C1636 C 0.6213 0.85332 0.21434 0.0
C1637 C 0.62643 0.83629 0.22224 0.0
C1638 C 0.62953 0.82083 0.21121 0.0
C1639 C 0.62745 0.82258 0.19226 0.0
C1640 C 0.62281 0.83913 0.18413 0.0
C1641 C 0.61968 0.83666 0.16359 0.0
C1642 C 0.59995 0.8421 0.15818 0.0
C1643 C 0.634 0.84757 0.15247 0.0
C1644 C 0.62268 0.81606 0.16164 0.0
C1645 C 0.62737 0.80832 0.17837 0.0
C1646 C 0.62934 0.7894 0.18056 0.0
C1647 C 0.6262 0.77801 0.16535 0.0
C1648 C 0.62121 0.78554 0.14811 0.0
C1649 C 0.61976 0.80485 0.14615 0.0
H1650 H 0.16303 0.61057 0.21849 0.0
H1651 H 0.11408 0.61687 0.18484 0.0
H1652 H 0.13347 0.61764 0.1569 0.0
H1653 H 0.19312 0.64022 0.19105 0.0
H1654 H 0.21296 0.62575 0.19441 0.0
H1655 H 0.19531 0.62681 0.2118 0.0
H1656 H 0.19155 0.59137 0.21026 0.0
H1657 H 0.20912 0.5902 0.19284 0.0
H1658 H 0.18666 0.58056 0.18845 0.0
H1659 H 0.15797 0.61589 0.1326 0.0
H1660 H 0.18588 0.61229 0.11359 0.0
H1661 H 0.21899 0.60739 0.16305 0.0
C1662 C 0.1564 0.61235 0.20526 0.0
C1663 C 0.13704 0.61372 0.20382 0.0
C1664 C 0.12888 0.61586 0.18626 0.0
C1665 C 0.13979 0.61631 0.17032 0.0
C1666 C 0.15881 0.61469 0.17221 0.0
C1667 C 0.16707 0.61284 0.18924 0.0
C1668 C 0.18775 0.61072 0.18743 0.0
C1669 C 0.19788 0.62684 0.19672 0.0
C1670 C 0.19414 0.5921 0.1952 0.0
C1671 C 0.18982 0.61141 0.1667 0.0
C1672 C 0.17296 0.61377 0.1582 0.0
C1673 C 0.17126 0.6142 0.13911 0.0
C1674 C 0.18719 0.6121 0.12843 0.0
C1675 C 0.2046 0.60963 0.13685 0.0
C1676 C 0.20589 0.60941 0.15624 0.0
H1677 H 0.39362 0.21706 0.15636 0.0
H1678 H 0.37838 0.18569 0.10784 0.0
H1679 H 0.37429 0.15792 0.12712 0.0
H1680 H 0.41981 0.18199 0.17769 0.0
H1681 H 0.41268 0.1877 0.20075 0.0
H1682 H 0.41333 0.20526 0.18331 0.0
H1683 H 0.37903 0.21279 0.1895 0.0
H1684 H 0.37829 0.19527 0.20702 0.0
H1685 H 0.36209 0.19466 0.18824 0.0
H1686 H 0.37319 0.13327 0.15164 0.0
H1687 H 0.375 0.11374 0.17944 0.0
H1688 H 0.39107 0.16139 0.21176 0.0
C1689 C 0.38922 0.2044 0.1498 0.0
C1690 C 0.38624 0.20353 0.13061 0.0
C1691 C 0.38068 0.18667 0.12253 0.0
C1692 C 0.37832 0.17084 0.13337 0.0
C1693 C 0.38157 0.17213 0.15224 0.0
C1694 C 0.38685 0.1885 0.16039 0.0
C1695 C 0.39007 0.18613 0.18084 0.0
C1696 C 0.41017 0.19053 0.18594 0.0
C1697 C 0.37656 0.19791 0.19206 0.0
C1698 C 0.38592 0.16581 0.18293 0.0
C1699 C 0.38098 0.15798 0.1663 0.0
C1700 C 0.37694 0.13928 0.16475 0.0
C1701 C 0.37802 0.1283 0.1806 0.0
C1702 C 0.38313 0.13606 0.19775 0.0
C1703 C 0.38703 0.15508 0.19886 0.0
H1704 H 0.87064 0.81376 0.60569 0.0
H1705 H 0.84459 0.77455 0.64243 0.0
H1706 H 0.82051 0.79728 0.64972 0.0
H1707 H 0.85873 0.85638 0.63227 0.0
H1708 H 0.85442 0.86931 0.61155 0.0
H1709 H 0.87131 0.85117 0.61153 0.0
H1710 H 0.85447 0.83553 0.58422 0.0
H1711 H 0.83753 0.85353 0.58421 0.0
H1712 H 0.83039 0.82985 0.58638 0.0
H1713 H 0.79725 0.82225 0.64991 0.0
H1714 H 0.77624 0.84796 0.64294 0.0
H1715 H 0.81702 0.87129 0.60604 0.0
C1716 C 0.86019 0.81022 0.6157 0.0
C1717 C 0.85955 0.79249 0.62366 0.0
C1718 C 0.84536 0.7881 0.63627 0.0
C1719 C 0.83167 0.80094 0.64055 0.0
C1720 C 0.83235 0.81813 0.6321 0.0
C1721 C 0.84628 0.82286 0.62 0.0
C1722 C 0.84273 0.84152 0.61139 0.0
C1723 C 0.85769 0.85542 0.61703 0.0
C1724 C 0.84118 0.84 0.59031 0.0
C1725 C 0.82436 0.84624 0.62007 0.0
C1726 C 0.81876 0.83265 0.63216 0.0
C1727 C 0.80163 0.83316 0.64075 0.0
C1728 C 0.78977 0.84778 0.63667 0.0
C1729 C 0.79508 0.86168 0.6241 0.0
C1730 C 0.81275 0.86105 0.61599 0.0
H1731 H 0.86024 0.18843 0.39025 0.0
H1732 H 0.82832 0.23883 0.39004 0.0
H1733 H 0.79961 0.22064 0.38903 0.0
H1734 H 0.8299 0.16149 0.36021 0.0
H1735 H 0.833 0.14055 0.37313 0.0
H1736 H 0.85115 0.15749 0.37236 0.0
H1737 H 0.85152 0.15883 0.40799 0.0
H1738 H 0.83339 0.14193 0.40887 0.0
H1739 H 0.83051 0.16381 0.4202 0.0
H1740 H 0.77448 0.19729 0.38925 0.0
H1741 H 0.75427 0.17013 0.39199 0.0
H1742 H 0.80221 0.13459 0.39302 0.0
C1743 C 0.8472 0.1956 0.38973 0.0
C1744 C 0.84646 0.21503 0.3901 0.0
C1745 C 0.82917 0.22396 0.38974 0.0
C1746 C 0.8128 0.21375 0.3891 0.0
C1747 C 0.81396 0.19462 0.38893 0.0
C1748 C 0.83068 0.1856 0.38931 0.0
C1749 C 0.82798 0.16491 0.39014 0.0
C1750 C 0.83598 0.15556 0.37293 0.0
C1751 C 0.83634 0.1569 0.40785 0.0
C1752 C 0.80714 0.16376 0.39036 0.0
C1753 C 0.79937 0.18107 0.38946 0.0
C1754 C 0.78039 0.18365 0.38988 0.0
C1755 C 0.76903 0.16813 0.39144 0.0
C1756 C 0.77666 0.15026 0.3927 0.0
C1757 C 0.79598 0.14808 0.39199 0.0
H1758 H 0.7786 0.83846 0.39302 0.0
H1759 H 0.81167 0.8879 0.38688 0.0
H1760 H 0.83965 0.86888 0.38406 0.0
H1761 H 0.81017 0.81446 0.42098 0.0
H1762 H 0.80555 0.7922 0.41102 0.0
H1763 H 0.78795 0.80959 0.41103 0.0
H1764 H 0.78488 0.80666 0.37561 0.0
H1765 H 0.80247 0.78922 0.3755 0.0
H1766 H 0.80501 0.80943 0.36135 0.0
H1767 H 0.86425 0.8446 0.38365 0.0
H1768 H 0.88363 0.81677 0.38602 0.0
H1769 H 0.83454 0.78326 0.39268 0.0
C1770 C 0.7917 0.84526 0.39081 0.0
C1771 C 0.79297 0.86464 0.39007 0.0
C1772 C 0.81038 0.87306 0.38743 0.0
C1773 C 0.82635 0.86238 0.38578 0.0
C1774 C 0.82467 0.84331 0.38679 0.0
C1775 C 0.80779 0.83481 0.38922 0.0
C1776 C 0.80987 0.81414 0.39078 0.0
C1777 C 0.80298 0.8072 0.40957 0.0
C1778 C 0.79997 0.80428 0.37486 0.0
C1779 C 0.83057 0.81237 0.38912 0.0
C1780 C 0.83885 0.82933 0.38669 0.0
C1781 C 0.85791 0.83122 0.3854 0.0
C1782 C 0.8688 0.81535 0.38677 0.0
C1783 C 0.86059 0.79787 0.38947 0.0
C1784 C 0.84121 0.79642 0.39049 0.0
H1785 H 0.16065 0.78129 0.39234 0.0
H1786 H 0.11278 0.81523 0.38156 0.0
H1787 H 0.13293 0.84264 0.37909 0.0
H1788 H 0.18372 0.81307 0.42075 0.0
H1789 H 0.20643 0.80743 0.41252 0.0
H1790 H 0.18844 0.79036 0.41195 0.0
H1791 H 0.19355 0.78586 0.37694 0.0
H1792 H 0.21164 0.80286 0.37741 0.0
H1793 H 0.19252 0.8055 0.36183 0.0
H1794 H 0.15825 0.86657 0.37959 0.0
H1795 H 0.18672 0.88506 0.3827 0.0
H1796 H 0.21776 0.83525 0.39339 0.0
C1797 C 0.15441 0.79444 0.38917 0.0
C1798 C 0.13517 0.79615 0.38703 0.0
C1799 C 0.12751 0.81362 0.38315 0.0
C1800 C 0.13884 0.82925 0.38173 0.0
C1801 C 0.15775 0.82712 0.3842 0.0
C1802 C 0.16548 0.81013 0.38777 0.0
C1803 C 0.18606 0.81161 0.39068 0.0
C1804 C 0.19147 0.80525 0.41013 0.0
C1805 C 0.19656 0.80082 0.37582 0.0
C1806 C 0.18872 0.83214 0.38841 0.0
C1807 C 0.17226 0.84085 0.38459 0.0
C1808 C 0.17123 0.85988 0.38244 0.0
C1809 C 0.18745 0.87026 0.38426 0.0
C1810 C 0.20443 0.86158 0.38825 0.0
C1811 C 0.205 0.84227 0.39025 0.0
H1812 H 0.21481 0.15848 0.40043 0.0
H1813 H 0.18819 0.11752 0.36594 0.0
H1814 H 0.16187 0.13851 0.36134 0.0
H1815 H 0.17438 0.17351 0.42317 0.0
H1816 H 0.18126 0.19735 0.42414 0.0
H1817 H 0.19846 0.17957 0.42375 0.0
H1818 H 0.21346 0.19458 0.39507 0.0
H1819 H 0.19628 0.21242 0.39536 0.0
H1820 H 0.19965 0.1988 0.3749 0.0
H1821 H 0.13813 0.16358 0.36125 0.0
H1822 H 0.11811 0.1905 0.36654 0.0
H1823 H 0.16002 0.2148 0.4016 0.0
C1824 C 0.20352 0.154 0.39176 0.0
C1825 C 0.20354 0.13642 0.38346 0.0
C1826 C 0.18844 0.13096 0.37239 0.0
C1827 C 0.17347 0.14279 0.36967 0.0
C1828 C 0.17383 0.16 0.37813 0.0
C1829 C 0.18844 0.16558 0.38899 0.0
C1830 C 0.1851 0.18446 0.39715 0.0
C1831 C 0.18478 0.18366 0.4183 0.0
C1832 C 0.19948 0.19839 0.3902 0.0
C1833 C 0.16622 0.18853 0.38938 0.0
C1834 C 0.16004 0.17433 0.3783 0.0
C1835 C 0.14284 0.17482 0.36983 0.0
C1836 C 0.13159 0.19017 0.3729 0.0
C1837 C 0.13754 0.20472 0.38446 0.0
C1838 C 0.15514 0.2039 0.39265 0.0
H1839 H 0.21719 0.15944 0.60646 0.0
H1840 H 0.18814 0.11275 0.62984 0.0
H1841 H 0.16071 0.13232 0.63469 0.0
H1842 H 0.19716 0.19493 0.63629 0.0
H1843 H 0.1961 0.21153 0.61791 0.0
H1844 H 0.21383 0.19424 0.61792 0.0
H1845 H 0.20363 0.18375 0.58537 0.0
H1846 H 0.18584 0.20092 0.58528 0.0
H1847 H 0.18002 0.17708 0.58153 0.0
H1848 H 0.13574 0.15659 0.63481 0.0
H1849 H 0.11542 0.1835 0.63037 0.0
H1850 H 0.16105 0.21402 0.60675 0.0
C1851 C 0.20518 0.15339 0.6129 0.0
C1852 C 0.20481 0.1346 0.61787 0.0
C1853 C 0.18874 0.12715 0.62603 0.0
C1854 C 0.17312 0.13816 0.62884 0.0
C1855 C 0.17384 0.15657 0.62346 0.0
C1856 C 0.18952 0.16414 0.61574 0.0
C1857 C 0.18651 0.18399 0.61022 0.0
C1858 C 0.19915 0.19693 0.62125 0.0
C1859 C 0.18915 0.18658 0.58937 0.0
C1860 C 0.16657 0.18636 0.61572 0.0
C1861 C 0.15952 0.17045 0.62345 0.0
C1862 C 0.14118 0.16917 0.62893 0.0
C1863 C 0.12973 0.1845 0.62634 0.0
C1864 C 0.13668 0.20085 0.61828 0.0
C1865 C 0.15538 0.20176 0.61307 0.0
H1866 H 0.81287 0.13457 0.61779 0.0
H1867 H 0.76276 0.167 0.61742 0.0
H1868 H 0.7812 0.19549 0.61805 0.0
H1869 H 0.83932 0.16565 0.64833 0.0
H1870 H 0.86055 0.16196 0.63605 0.0
H1871 H 0.84343 0.14398 0.63696 0.0
H1872 H 0.84306 0.14247 0.60134 0.0
H1873 H 0.8601 0.16047 0.60031 0.0
H1874 H 0.83853 0.16309 0.58834 0.0
H1875 H 0.80466 0.22025 0.61546 0.0
H1876 H 0.83206 0.24005 0.6117 0.0
H1877 H 0.86729 0.19206 0.61524 0.0
C1878 C 0.80581 0.14767 0.61815 0.0
C1879 C 0.78639 0.14859 0.61757 0.0
C1880 C 0.77762 0.16597 0.6179 0.0
C1881 C 0.78797 0.18224 0.61827 0.0
C1882 C 0.80708 0.1809 0.61851 0.0
C1883 C 0.81596 0.1641 0.61866 0.0
C1884 C 0.83669 0.16661 0.61828 0.0
C1885 C 0.84552 0.1591 0.63596 0.0
C1886 C 0.84508 0.15763 0.60104 0.0
C1887 C 0.83801 0.18742 0.61742 0.0
C1888 C 0.82074 0.19535 0.61758 0.0
C1889 C 0.81828 0.21425 0.61565 0.0
C1890 C 0.83389 0.22537 0.61345 0.0
C1891 C 0.85172 0.21757 0.61338 0.0
C1892 C 0.8538 0.19838 0.6156 0.0
H1893 H 0.18773 0.86894 0.60182 0.0
H1894 H 0.22594 0.84373 0.6401 0.0
H1895 H 0.20309 0.81964 0.64708 0.0
H1896 H 0.14441 0.85703 0.62775 0.0
H1897 H 0.13189 0.85234 0.60684 0.0
H1898 H 0.14998 0.86938 0.60696 0.0
H1899 H 0.16617 0.85234 0.58018 0.0
H1900 H 0.14823 0.83524 0.58003 0.0
H1901 H 0.17189 0.82835 0.58276 0.0
H1902 H 0.17872 0.79603 0.64654 0.0
H1903 H 0.1535 0.77449 0.6391 0.0
H1904 H 0.13005 0.81462 0.60177 0.0
C1905 C 0.191 0.85866 0.6121 0.0
C1906 C 0.20853 0.85826 0.62055 0.0
C1907 C 0.21256 0.84433 0.63353 0.0
C1908 C 0.19965 0.83062 0.63764 0.0
C1909 C 0.18271 0.83104 0.62871 0.0
C1910 C 0.17823 0.84475 0.61631 0.0
C1911 C 0.15972 0.8409 0.60737 0.0
C1912 C 0.14566 0.8558 0.61254 0.0
C1913 C 0.16163 0.8391 0.58634 0.0
C1914 C 0.15487 0.82259 0.61618 0.0
C1915 C 0.16828 0.8173 0.62859 0.0
C1916 C 0.1679 0.80018 0.6372 0.0
C1917 C 0.15358 0.78802 0.63284 0.0
C1918 C 0.13976 0.79305 0.62011 0.0
C1919 C 0.1402 0.81069 0.61195 0.0
H1920 H 0.09462 0.22831 0.46225 0.0
H1921 H 0.11311 0.28421 0.4519 0.0
H1922 H 0.11593 0.2895 0.48534 0.0
H1923 H 0.0674 0.23892 0.50242 0.0
H1924 H 0.07327 0.21796 0.51427 0.0
H1925 H 0.07288 0.21847 0.48949 0.0
H1926 H 0.10656 0.20684 0.48867 0.0
H1927 H 0.10707 0.20634 0.51345 0.0
H1928 H 0.12412 0.21938 0.50099 0.0
H1929 H 0.11733 0.2886 0.51974 0.0
H1930 H 0.11592 0.28203 0.55302 0.0
H1931 H 0.09572 0.22698 0.54129 0.0
C1932 C 0.09926 0.24166 0.46704 0.0
C1933 C 0.10369 0.25585 0.45449 0.0
C1934 C 0.10963 0.27315 0.46127 0.0
C1935 C 0.11131 0.27628 0.48024 0.0
C1936 C 0.1069 0.262 0.49224 0.0
C1937 C 0.10089 0.24506 0.48595 0.0
C1938 C 0.0968 0.23215 0.50183 0.0
C1939 C 0.07637 0.22655 0.50201 0.0
C1940 C 0.10939 0.21518 0.50119 0.0
C1941 C 0.10149 0.24447 0.51802 0.0
C1942 C 0.10738 0.26159 0.51215 0.0
C1943 C 0.11269 0.27527 0.52451 0.0
C1944 C 0.11187 0.27139 0.54338 0.0
C1945 C 0.10568 0.25402 0.54973 0.0
C1946 C 0.10045 0.2404 0.53684 0.0
H1947 H 0.7679 0.10923 0.54473 0.0
H1948 H 0.71046 0.11616 0.55948 0.0
H1949 H 0.70231 0.1182 0.52647 0.0
H1950 H 0.768 0.1399 0.50491 0.0
H1951 H 0.78332 0.12532 0.49197 0.0
H1952 H 0.78464 0.12582 0.51673 0.0
H1953 H 0.78011 0.09043 0.51764 0.0
H1954 H 0.77867 0.08983 0.49292 0.0
H1955 H 0.76027 0.08034 0.50661 0.0
H1956 H 0.70037 0.1177 0.49179 0.0
H1957 H 0.70474 0.11502 0.45816 0.0
H1958 H 0.76349 0.10814 0.4664 0.0
C1959 C 0.75364 0.11146 0.54104 0.0
C1960 C 0.7398 0.11264 0.55464 0.0
C1961 C 0.72127 0.11531 0.54926 0.0
C1962 C 0.71653 0.11649 0.53057 0.0
C1963 C 0.7305 0.11497 0.51749 0.0
C1964 C 0.74868 0.11259 0.52251 0.0
C1965 C 0.76099 0.11053 0.50584 0.0
C1966 C 0.77506 0.12634 0.5048 0.0
C1967 C 0.77057 0.09166 0.50575 0.0
C1968 C 0.74687 0.11191 0.49062 0.0
C1969 C 0.72937 0.11456 0.4976 0.0
C1970 C 0.71402 0.11575 0.48617 0.0
C1971 C 0.71664 0.11418 0.4671 0.0
C1972 C 0.73445 0.1114 0.45971 0.0
C1973 C 0.74972 0.11033 0.47166 0.0
H1974 H 0.8945 0.76929 0.4625 0.0
H1975 H 0.86258 0.7201 0.45083 0.0
H1976 H 0.8565 0.71627 0.48417 0.0
H1977 H 0.91614 0.7528 0.50239 0.0
H1978 H 0.91568 0.77457 0.51429 0.0
H1979 H 0.91622 0.77401 0.48954 0.0
H1980 H 0.88659 0.7938 0.48838 0.0
H1981 H 0.88594 0.79439 0.51316 0.0
H1982 H 0.86629 0.78613 0.50043 0.0
H1983 H 0.85575 0.71693 0.51913 0.0
H1984 H 0.86066 0.72179 0.55251 0.0
H1985 H 0.89282 0.77075 0.54061 0.0
C1986 C 0.88605 0.75781 0.4669 0.0
C1987 C 0.87897 0.74499 0.45411 0.0
C1988 C 0.86809 0.73009 0.46043 0.0
C1989 C 0.86454 0.72784 0.47932 0.0
C1990 C 0.8719 0.74068 0.4916 0.0
C1991 C 0.88238 0.7554 0.48559 0.0
C1992 C 0.88943 0.76682 0.50151 0.0
C1993 C 0.91062 0.76705 0.50195 0.0
C1994 C 0.88159 0.78645 0.50083 0.0
C1995 C 0.88157 0.75608 0.51749 0.0
C1996 C 0.87139 0.74111 0.51155 0.0
C1997 C 0.86353 0.72872 0.52392 0.0
C1998 C 0.86637 0.73159 0.54283 0.0
C1999 C 0.87701 0.7467 0.54912 0.0
C2000 C 0.88444 0.75919 0.53624 0.0
H2001 H 0.23511 0.897 0.45983 0.0
H2002 H 0.28574 0.86759 0.44839 0.0
H2003 H 0.28973 0.8617 0.4817 0.0
H2004 H 0.25016 0.91907 0.50071 0.0
H2005 H 0.22826 0.9171 0.51221 0.0
H2006 H 0.22916 0.91826 0.48749 0.0
H2007 H 0.2109 0.88763 0.48534 0.0
H2008 H 0.21002 0.88633 0.51009 0.0
H2009 H 0.21945 0.8675 0.49701 0.0
H2010 H 0.28868 0.86015 0.5165 0.0
H2011 H 0.28295 0.86347 0.54989 0.0
H2012 H 0.23277 0.89354 0.53817 0.0
C2013 C 0.24701 0.88925 0.46431 0.0
C2014 C 0.26014 0.88275 0.45155 0.0
C2015 C 0.27552 0.87268 0.45796 0.0
C2016 C 0.27787 0.86924 0.47683 0.0
C2017 C 0.26466 0.87587 0.48906 0.0
C2018 C 0.24952 0.88565 0.48303 0.0
C2019 C 0.23753 0.89166 0.49895 0.0
C2020 C 0.23621 0.91277 0.49989 0.0
C2021 C 0.21834 0.88274 0.49777 0.0
C2022 C 0.24843 0.88402 0.51494 0.0
C2023 C 0.26398 0.87486 0.50897 0.0
C2024 C 0.27648 0.86717 0.52131 0.0
C2025 C 0.2731 0.86911 0.54024 0.0
C2026 C 0.25738 0.87868 0.5466 0.0
C2027 C 0.24482 0.886 0.53373 0.0
H2028 H 0.11094 0.72526 0.54077 0.0
H2029 H 0.13104 0.78078 0.54982 0.0
H2030 H 0.13672 0.78424 0.5166 0.0
H2031 H 0.14197 0.7139 0.50049 0.0
H2032 H 0.12391 0.70153 0.48875 0.0
H2033 H 0.12459 0.70192 0.51356 0.0
H2034 H 0.09129 0.71453 0.51424 0.0
H2035 H 0.09054 0.71428 0.4895 0.0
H2036 H 0.08595 0.73532 0.50182 0.0
H2037 H 0.13566 0.78388 0.48299 0.0
H2038 H 0.12836 0.77951 0.45018 0.0
H2039 H 0.10919 0.7241 0.4615 0.0
C2040 C 0.11715 0.73785 0.53574 0.0
C2041 C 0.12078 0.7527 0.5478 0.0
C2042 C 0.12828 0.76924 0.54077 0.0
C2043 C 0.13163 0.7713 0.52195 0.0
C2044 C 0.12738 0.75669 0.51029 0.0
C2045 C 0.12039 0.74022 0.51682 0.0
C2046 C 0.11511 0.72757 0.501 0.0
C2047 C 0.12712 0.7102 0.50095 0.0
C2048 C 0.0945 0.72265 0.50169 0.0
C2049 C 0.11952 0.73983 0.48464 0.0
C2050 C 0.12682 0.75645 0.49042 0.0
C2051 C 0.13037 0.77078 0.47822 0.0
C2052 C 0.12611 0.76821 0.45965 0.0
C2053 C 0.11848 0.75142 0.45338 0.0
C2054 C 0.11549 0.73688 0.46594 0.0
H2055 H 0.26891 0.11051 0.45776 0.0
H2056 H 0.21167 0.09634 0.44764 0.0
H2057 H 0.20538 0.0976 0.48081 0.0
H2058 H 0.27362 0.08322 0.49839 0.0
H2059 H 0.28824 0.09932 0.51039 0.0
H2060 H 0.28831 0.09864 0.48562 0.0
H2061 H 0.28054 0.1334 0.48461 0.0
H2062 H 0.28043 0.13417 0.5094 0.0
H2063 H 0.26055 0.14175 0.49667 0.0
H2064 H 0.20508 0.09898 0.51449 0.0
H2065 H 0.21103 0.09953 0.54778 0.0
H2066 H 0.26852 0.11245 0.53744 0.0
C2067 C 0.25505 0.10787 0.46258 0.0
C2068 C 0.24077 0.10336 0.45011 0.0
C2069 C 0.22284 0.09976 0.45691 0.0
C2070 C 0.21909 0.10052 0.47574 0.0
C2071 C 0.2334 0.10484 0.48769 0.0
C2072 C 0.25105 0.10841 0.48151 0.0
C2073 C 0.26399 0.1118 0.49761 0.0
C2074 C 0.27945 0.09738 0.49802 0.0
C2075 C 0.27184 0.13145 0.49703 0.0
C2076 C 0.25084 0.10933 0.5137 0.0
C2077 C 0.23326 0.10548 0.50753 0.0
C2078 C 0.21875 0.10208 0.51954 0.0
C2079 C 0.2223 0.1024 0.53844 0.0
C2080 C 0.24022 0.10606 0.54521 0.0
C2081 C 0.25465 0.10978 0.53265 0.0
H2082 H 0.88674 0.27183 0.5387 0.0
H2083 H 0.92246 0.2251 0.54902 0.0
H2084 H 0.92612 0.22046 0.51574 0.0
H2085 H 0.86338 0.25243 0.5003 0.0
H2086 H 0.86194 0.27352 0.48734 0.0
H2087 H 0.86289 0.27425 0.5121 0.0
H2088 H 0.89136 0.29572 0.51054 0.0
H2089 H 0.89047 0.2951 0.48575 0.0
H2090 H 0.91129 0.28864 0.49757 0.0
H2091 H 0.9246 0.21927 0.48219 0.0
H2092 H 0.91862 0.222 0.44908 0.0
H2093 H 0.88422 0.2698 0.45905 0.0
C2094 C 0.8955 0.2608 0.53389 0.0
C2095 C 0.90434 0.24883 0.54644 0.0
C2096 C 0.91555 0.23442 0.53968 0.0
C2097 C 0.91776 0.23168 0.52079 0.0
C2098 C 0.90871 0.2435 0.50879 0.0
C2099 C 0.89787 0.25783 0.51494 0.0
C2100 C 0.88924 0.26801 0.49885 0.0
C2101 C 0.86811 0.26698 0.4997 0.0
C2102 C 0.896 0.28806 0.49814 0.0
C2103 C 0.89673 0.25691 0.48279 0.0
C2104 C 0.90796 0.2429 0.48899 0.0
C2105 C 0.91597 0.23027 0.47711 0.0
C2106 C 0.91241 0.23191 0.45832 0.0
C2107 C 0.90097 0.24612 0.4515 0.0
C2108 C 0.89314 0.25891 0.46389 0.0
H2109 H 0.76612 0.88722 0.4633 0.0
H2110 H 0.70733 0.89222 0.45405 0.0
H2111 H 0.70181 0.88856 0.48744 0.0
H2112 H 0.76346 0.85318 0.50032 0.0
H2113 H 0.78237 0.86328 0.51286 0.0
H2114 H 0.78155 0.86505 0.48814 0.0
H2115 H 0.78401 0.90057 0.4905 0.0
H2116 H 0.78493 0.8989 0.51518 0.0
H2117 H 0.76763 0.91297 0.50438 0.0
H2118 H 0.70295 0.88657 0.52214 0.0
H2119 H 0.71077 0.88699 0.55529 0.0
H2120 H 0.7687 0.88259 0.54156 0.0
C2121 C 0.75206 0.88736 0.46827 0.0
C2122 C 0.73714 0.88997 0.4561 0.0
C2123 C 0.71897 0.8902 0.46315 0.0
C2124 C 0.71569 0.88807 0.48207 0.0
C2125 C 0.73073 0.88561 0.49373 0.0
C2126 C 0.74856 0.88521 0.48708 0.0
C2127 C 0.76237 0.88326 0.50255 0.0
C2128 C 0.77307 0.86511 0.50086 0.0
C2129 C 0.7755 0.89992 0.50318 0.0
C2130 C 0.74957 0.88299 0.51898 0.0
C2131 C 0.73136 0.88424 0.51363 0.0
C2132 C 0.71714 0.88534 0.52648 0.0
C2133 C 0.7217 0.88554 0.54526 0.0
C2134 C 0.74031 0.88463 0.55099 0.0
C2135 C 0.75433 0.88297 0.53762 0.0
H2136 H 0.4539 0.09495 0.23075 0.0
H2137 H 0.44066 0.12942 0.27769 0.0
H2138 H 0.47385 0.13427 0.28351 0.0
H2139 H 0.49289 0.07284 0.25074 0.0
H2140 H 0.50592 0.07229 0.22965 0.0
H2141 H 0.48115 0.07198 0.22889 0.0
H2142 H 0.48144 0.10072 0.20778 0.0
H2143 H 0.50623 0.10113 0.20848 0.0
H2144 H 0.49336 0.12122 0.2152 0.0
H2145 H 0.50839 0.13466 0.28467 0.0
H2146 H 0.54194 0.13058 0.28118 0.0
H2147 H 0.53265 0.09603 0.2333 0.0
C2148 C 0.45798 0.10358 0.24221 0.0
C2149 C 0.44473 0.11183 0.25378 0.0
C2150 C 0.4506 0.12299 0.26866 0.0
C2151 C 0.4694 0.12583 0.27205 0.0
C2152 C 0.48212 0.11746 0.26041 0.0
C2153 C 0.47667 0.10658 0.24578 0.0
C2154 C 0.49311 0.09891 0.23553 0.0
C2155 C 0.49327 0.07775 0.23625 0.0
C2156 C 0.49356 0.10592 0.21556 0.0
C2157 C 0.50867 0.10707 0.24676 0.0
C2158 C 0.50203 0.11776 0.26103 0.0
C2159 C 0.51376 0.12641 0.27351 0.0
C2160 C 0.53278 0.124 0.27141 0.0
C2161 C 0.53988 0.11304 0.25694 0.0
C2162 C 0.52763 0.10459 0.24442 0.0
H2163 H 0.88998 0.54181 0.27797 0.0
H2164 H 0.87685 0.55122 0.22049 0.0
H2165 H 0.87296 0.51792 0.21577 0.0
H2166 H 0.91726 0.5031 0.27042 0.0
H2167 H 0.91015 0.49053 0.29059 0.0
H2168 H 0.90925 0.51528 0.29049 0.0
H2169 H 0.87462 0.51412 0.2989 0.0
H2170 H 0.87543 0.48932 0.2991 0.0
H2171 H 0.85898 0.50103 0.28472 0.0
H2172 H 0.874 0.48434 0.21594 0.0
H2173 H 0.87986 0.45142 0.22103 0.0
H2174 H 0.89236 0.46236 0.27841 0.0
C2175 C 0.8858 0.53681 0.26456 0.0
C2176 C 0.88357 0.54903 0.2496 0.0
C2177 C 0.8786 0.54205 0.23211 0.0
C2178 C 0.87626 0.52318 0.22931 0.0
C2179 C 0.87899 0.51141 0.24414 0.0
C2180 C 0.8836 0.51784 0.26146 0.0
C2181 C 0.88736 0.50193 0.27449 0.0
C2182 C 0.90718 0.50277 0.28193 0.0
C2183 C 0.87325 0.50158 0.29024 0.0
C2184 C 0.88467 0.48568 0.2616 0.0
C2185 C 0.87964 0.49158 0.24424 0.0
C2186 C 0.87764 0.47948 0.22954 0.0
C2187 C 0.88109 0.46082 0.23254 0.0
C2188 C 0.88644 0.45439 0.25012 0.0
C2189 C 0.88794 0.46692 0.26494 0.0
H2190 H 0.53897 0.88626 0.26937 0.0
H2191 H 0.55016 0.89811 0.21186 0.0
H2192 H 0.51693 0.89958 0.20565 0.0
H2193 H 0.49804 0.85782 0.26142 0.0
H2194 H 0.48596 0.86654 0.28124 0.0
H2195 H 0.51075 0.86563 0.28127 0.0
H2196 H 0.51213 0.90048 0.28867 0.0
H2197 H 0.48736 0.90152 0.28858 0.0
H2198 H 0.50049 0.91653 0.27379 0.0
H2199 H 0.48312 0.90105 0.20553 0.0
H2200 H 0.44982 0.90168 0.21129 0.0
H2201 H 0.45937 0.88878 0.26888 0.0
C2202 C 0.53437 0.88897 0.25545 0.0
C2203 C 0.54716 0.89204 0.24108 0.0
C2204 C 0.54065 0.89571 0.22309 0.0
C2205 C 0.52178 0.89657 0.2194 0.0
C2206 C 0.50955 0.89372 0.23385 0.0
C2207 C 0.51547 0.88992 0.2515 0.0
C2208 C 0.49921 0.88783 0.2645 0.0
C2209 C 0.49845 0.86829 0.27258 0.0
C2210 C 0.49984 0.90246 0.27979 0.0
C2211 C 0.48331 0.89119 0.25136 0.0
C2212 C 0.48971 0.89454 0.23377 0.0
C2213 C 0.4779 0.89836 0.21922 0.0
C2214 C 0.45898 0.89872 0.22267 0.0
C2215 C 0.45197 0.89526 0.24053 0.0
C2216 C 0.46433 0.89143 0.25508 0.0
H2217 H 0.10424 0.542 0.23475 0.0
H2218 H 0.13221 0.55609 0.28563 0.0
H2219 H 0.13816 0.52304 0.29135 0.0
H2220 H 0.08184 0.5021 0.2511 0.0
H2221 H 0.08431 0.48942 0.22992 0.0
H2222 H 0.08326 0.51415 0.22946 0.0
H2223 H 0.11439 0.51532 0.21205 0.0
H2224 H 0.11554 0.49056 0.21246 0.0
H2225 H 0.13422 0.50404 0.22176 0.0
H2226 H 0.13934 0.48818 0.29226 0.0
H2227 H 0.13595 0.45452 0.28811 0.0
H2228 H 0.10773 0.46374 0.23632 0.0
C2229 C 0.11177 0.53816 0.24703 0.0
C2230 C 0.11778 0.55158 0.25976 0.0
C2231 C 0.12752 0.54601 0.27569 0.0
C2232 C 0.13097 0.52729 0.27903 0.0
C2233 C 0.1247 0.51439 0.26625 0.0
C2234 C 0.11538 0.51962 0.25052 0.0
C2235 C 0.10959 0.50311 0.2392 0.0
C2236 C 0.0885 0.50214 0.23732 0.0
C2237 C 0.119 0.50327 0.22025 0.0
C2238 C 0.11685 0.48772 0.25113 0.0
C2239 C 0.12558 0.49446 0.26665 0.0
C2240 C 0.1327 0.48276 0.28007 0.0
C2241 C 0.13071 0.46368 0.2776 0.0
C2242 C 0.12169 0.45655 0.26184 0.0
C2243 C 0.11488 0.46878 0.2484 0.0
H2244 H 0.46619 0.90023 0.76515 0.0
H2245 H 0.45708 0.87393 0.71229 0.0
H2246 H 0.49068 0.86991 0.70859 0.0
H2247 H 0.50613 0.92526 0.75241 0.0
H2248 H 0.51745 0.92245 0.7743 0.0
H2249 H 0.49271 0.9224 0.77308 0.0
H2250 H 0.4918 0.89056 0.78913 0.0
H2251 H 0.51657 0.8905 0.7904 0.0
H2252 H 0.50462 0.87167 0.77946 0.0
H2253 H 0.52552 0.87004 0.71018 0.0
H2254 H 0.55866 0.87431 0.71699 0.0
H2255 H 0.54455 0.90023 0.7689 0.0
C2256 C 0.47125 0.8935 0.75286 0.0
C2257 C 0.45905 0.88737 0.73901 0.0
C2258 C 0.4662 0.8787 0.72309 0.0
C2259 C 0.48525 0.87634 0.72087 0.0
C2260 C 0.49692 0.88266 0.73475 0.0
C2261 C 0.49017 0.89102 0.75045 0.0
C2262 C 0.5056 0.89703 0.76311 0.0
C2263 C 0.50546 0.91803 0.76587 0.0
C2264 C 0.50458 0.88683 0.78162 0.0
C2265 C 0.5221 0.89096 0.75199 0.0
C2266 C 0.51685 0.88264 0.7357 0.0
C2267 C 0.52978 0.87642 0.72295 0.0
C2268 C 0.54855 0.8789 0.72693 0.0
C2269 C 0.55415 0.88752 0.74349 0.0
C2270 C 0.5407 0.89346 0.75618 0.0
H2271 H 0.09294 0.46299 0.75621 0.0
H2272 H 0.13652 0.45187 0.71696 0.0
H2273 H 0.14144 0.48536 0.71295 0.0
H2274 H 0.07423 0.50246 0.73331 0.0
H2275 H 0.06926 0.51457 0.75439 0.0
H2276 H 0.06926 0.48979 0.75405 0.0
H2277 H 0.09322 0.4894 0.78049 0.0
H2278 H 0.09326 0.51417 0.78094 0.0
H2279 H 0.11455 0.50186 0.77785 0.0
H2280 H 0.14135 0.52034 0.71325 0.0
H2281 H 0.13668 0.55372 0.71835 0.0
H2282 H 0.09333 0.5414 0.75756 0.0
C2283 C 0.10353 0.46758 0.74677 0.0
C2284 C 0.11435 0.45486 0.73688 0.0
C2285 C 0.12808 0.46141 0.72468 0.0
C2286 C 0.13096 0.48039 0.7223 0.0
C2287 C 0.12 0.49259 0.73225 0.0
C2288 C 0.1066 0.48642 0.74428 0.0
C2289 C 0.09675 0.50228 0.75345 0.0
C2290 C 0.07616 0.50227 0.7485 0.0
C2291 C 0.09962 0.5019 0.77442 0.0
C2292 C 0.10669 0.51837 0.74473 0.0
C2293 C 0.12003 0.51255 0.7325 0.0
C2294 C 0.13095 0.52504 0.7228 0.0
C2295 C 0.12819 0.54395 0.72576 0.0
C2296 C 0.11466 0.55013 0.73834 0.0
C2297 C 0.1038 0.53711 0.74786 0.0
H2298 H 0.46193 0.10245 0.76467 0.0
H2299 H 0.4535 0.12495 0.71002 0.0
H2300 H 0.48721 0.12734 0.70582 0.0
H2301 H 0.50128 0.13079 0.77653 0.0
H2302 H 0.51265 0.11261 0.78894 0.0
H2303 H 0.48789 0.11309 0.78767 0.0
H2304 H 0.48781 0.08003 0.77423 0.0
H2305 H 0.51256 0.07947 0.7754 0.0
H2306 H 0.50106 0.07517 0.75384 0.0
H2307 H 0.52201 0.12618 0.70729 0.0
H2308 H 0.55506 0.12248 0.71475 0.0
H2309 H 0.54032 0.10124 0.76858 0.0
C2310 C 0.46716 0.10798 0.75186 0.0
C2311 C 0.45513 0.11352 0.73766 0.0
C2312 C 0.46251 0.12066 0.72109 0.0
C2313 C 0.48162 0.12205 0.71858 0.0
C2314 C 0.49312 0.11632 0.7328 0.0
C2315 C 0.48616 0.10953 0.74916 0.0
C2316 C 0.50143 0.10417 0.76225 0.0
C2317 C 0.50077 0.11587 0.77989 0.0
C2318 C 0.50066 0.08348 0.76668 0.0
C2319 C 0.51808 0.10889 0.75067 0.0
C2320 C 0.51304 0.11586 0.73372 0.0
C2321 C 0.52611 0.12083 0.72056 0.0
C2322 C 0.54483 0.11866 0.72489 0.0
C2323 C 0.55022 0.11164 0.74224 0.0
C2324 C 0.53662 0.10674 0.75523 0.0
H2325 H 0.9133 0.54052 0.76082 0.0
H2326 H 0.86459 0.5531 0.72865 0.0
H2327 H 0.85877 0.51984 0.72435 0.0
H2328 H 0.92795 0.5016 0.73407 0.0
H2329 H 0.93584 0.48877 0.75376 0.0
H2330 H 0.93612 0.51355 0.75425 0.0
H2331 H 0.91638 0.51322 0.78396 0.0
H2332 H 0.91603 0.48844 0.78356 0.0
H2333 H 0.89471 0.50107 0.78408 0.0
H2334 H 0.85835 0.48519 0.72357 0.0
H2335 H 0.8633 0.45166 0.72648 0.0
H2336 H 0.91219 0.46195 0.75929 0.0
C2337 C 0.90142 0.53628 0.75286 0.0
C2338 C 0.88939 0.54935 0.74505 0.0
C2339 C 0.87398 0.54328 0.73475 0.0
C2340 C 0.87056 0.52444 0.73223 0.0
C2341 C 0.88269 0.5119 0.74013 0.0
C2342 C 0.8978 0.51756 0.75024 0.0
C2343 C 0.90869 0.50131 0.75732 0.0
C2344 C 0.92831 0.50131 0.74937 0.0
C2345 C 0.90895 0.501 0.77849 0.0
C2346 C 0.89733 0.48561 0.74962 0.0
C2347 C 0.88241 0.49199 0.73973 0.0
C2348 C 0.86998 0.48003 0.73129 0.0
C2349 C 0.8729 0.46104 0.73301 0.0
C2350 C 0.88811 0.45425 0.74311 0.0
C2351 C 0.90043 0.46674 0.7515 0.0
H2352 H 0.23288 0.53591 0.09808 0.0
H2353 H 0.28655 0.54738 0.12175 0.0
H2354 H 0.29238 0.514 0.12448 0.0
H2355 H 0.22244 0.49657 0.12669 0.0
H2356 H 0.21091 0.48418 0.10851 0.0
H2357 H 0.211 0.50897 0.10852 0.0
H2358 H 0.22506 0.509 0.07574 0.0
H2359 H 0.22504 0.48422 0.07564 0.0
H2360 H 0.24614 0.49666 0.07151 0.0
H2361 H 0.29258 0.47926 0.124 0.0
H2362 H 0.28675 0.44582 0.12102 0.0
H2363 H 0.23278 0.45724 0.09817 0.0
C2364 C 0.24584 0.53139 0.10387 0.0
C2365 C 0.25927 0.54421 0.1097 0.0
C2366 C 0.27605 0.53778 0.11723 0.0
C2367 C 0.2795 0.51885 0.11882 0.0
C2368 C 0.26598 0.50656 0.11289 0.0
C2369 C 0.24946 0.51257 0.10565 0.0
C2370 C 0.23721 0.49653 0.10035 0.0
C2371 C 0.21933 0.49657 0.1117 0.0
C2372 C 0.23313 0.49662 0.07958 0.0
C2373 C 0.24947 0.48057 0.10562 0.0
C2374 C 0.26602 0.48662 0.11282 0.0
C2375 C 0.27964 0.47436 0.11845 0.0
C2376 C 0.27622 0.45541 0.1167 0.0
C2377 C 0.25932 0.44895 0.10941 0.0
C2378 C 0.24582 0.46176 0.10385 0.0
H2379 H 0.24147 0.53877 0.9093 0.0
H2380 H 0.27963 0.54817 0.86432 0.0
H2381 H 0.28218 0.51457 0.85959 0.0
H2382 H 0.26373 0.49852 0.92751 0.0
H2383 H 0.24246 0.48713 0.9334 0.0
H2384 H 0.24365 0.51189 0.9332 0.0
H2385 H 0.2163 0.51301 0.91032 0.0
H2386 H 0.21503 0.48826 0.91045 0.0
H2387 H 0.21769 0.50041 0.88899 0.0
H2388 H 0.28047 0.47997 0.85973 0.0
H2389 H 0.27468 0.44683 0.86475 0.0
H2390 H 0.23766 0.46008 0.9097 0.0
C2391 C 0.25037 0.53376 0.89846 0.0
C2392 C 0.26036 0.54605 0.88716 0.0
C2393 C 0.27186 0.53898 0.87313 0.0
C2394 C 0.2734 0.51993 0.87034 0.0
C2395 C 0.26335 0.50818 0.88171 0.0
C2396 C 0.25206 0.51482 0.8955 0.0
C2397 C 0.24274 0.49927 0.90582 0.0
C2398 C 0.2485 0.4992 0.92619 0.0
C2399 C 0.22169 0.5003 0.90376 0.0
C2400 C 0.25052 0.48283 0.89566 0.0
C2401 C 0.26238 0.48827 0.88181 0.0
C2402 C 0.27122 0.47555 0.87054 0.0
C2403 C 0.26784 0.45677 0.87349 0.0
C2404 C 0.25573 0.4509 0.88761 0.0
C2405 C 0.24699 0.46415 0.89881 0.0
H2406 H 0.46099 0.23665 0.89713 0.0
H2407 H 0.4498 0.28842 0.86963 0.0
H2408 H 0.48311 0.29548 0.86929 0.0
H2409 H 0.49696 0.25316 0.92615 0.0
H2410 H 0.51052 0.23248 0.9245 0.0
H2411 H 0.48587 0.2313 0.92211 0.0
H2412 H 0.48949 0.2154 0.89037 0.0
H2413 H 0.51415 0.21642 0.89272 0.0
H2414 H 0.50321 0.2263 0.87279 0.0
H2415 H 0.51775 0.29723 0.87284 0.0
H2416 H 0.55101 0.29284 0.87885 0.0
H2417 H 0.53921 0.23986 0.90379 0.0
C2418 C 0.46555 0.24941 0.89091 0.0
C2419 C 0.45283 0.26198 0.88338 0.0
C2420 C 0.45933 0.27856 0.87543 0.0
C2421 C 0.47822 0.28271 0.87521 0.0
C2422 C 0.49039 0.27011 0.88294 0.0
C2423 C 0.48432 0.25374 0.89054 0.0
C2424 C 0.50018 0.24257 0.89805 0.0
C2425 C 0.49826 0.23972 0.91894 0.0
C2426 C 0.50185 0.22408 0.88787 0.0
C2427 C 0.51613 0.25523 0.89356 0.0
C2428 C 0.51023 0.27107 0.88489 0.0
C2429 C 0.52253 0.28485 0.87957 0.0
C2430 C 0.54136 0.28227 0.88307 0.0
C2431 C 0.54766 0.26603 0.89176 0.0
C2432 C 0.53481 0.25242 0.8971 0.0
H2433 H 0.7625 0.54239 0.91321 0.0
H2434 H 0.72068 0.55357 0.8721 0.0
H2435 H 0.71596 0.52004 0.86782 0.0
H2436 H 0.78244 0.5037 0.89086 0.0
H2437 H 0.78675 0.49135 0.91193 0.0
H2438 H 0.78631 0.51612 0.912 0.0
H2439 H 0.76125 0.51567 0.93739 0.0
H2440 H 0.76162 0.49088 0.93742 0.0
H2441 H 0.74028 0.50289 0.93363 0.0
H2442 H 0.71649 0.48496 0.86773 0.0
H2443 H 0.72214 0.45161 0.87191 0.0
H2444 H 0.76359 0.46408 0.91311 0.0
C2445 C 0.75227 0.53782 0.90335 0.0
C2446 C 0.74193 0.55056 0.89298 0.0
C2447 C 0.72873 0.54401 0.8802 0.0
C2448 C 0.72596 0.52502 0.87769 0.0
C2449 C 0.73649 0.51281 0.88809 0.0
C2450 C 0.74935 0.519 0.9007 0.0
C2451 C 0.75909 0.50317 0.91002 0.0
C2452 C 0.77988 0.50362 0.90595 0.0
C2453 C 0.75533 0.50316 0.93085 0.0
C2454 C 0.74982 0.48705 0.90063 0.0
C2455 C 0.73678 0.49283 0.88805 0.0
C2456 C 0.72663 0.48031 0.87759 0.0
C2457 C 0.72993 0.46141 0.88004 0.0
C2458 C 0.74328 0.45527 0.89284 0.0
C2459 C 0.75326 0.46833 0.90325 0.0
H2460 H 0.46383 0.76672 0.90698 0.0
H2461 H 0.45294 0.72703 0.86364 0.0
H2462 H 0.48636 0.72207 0.8599 0.0
H2463 H 0.50447 0.78678 0.88637 0.0
H2464 H 0.51617 0.78976 0.90805 0.0
H2465 H 0.4914 0.79027 0.90716 0.0
H2466 H 0.48988 0.76427 0.93152 0.0
H2467 H 0.51464 0.76364 0.93244 0.0
H2468 H 0.50185 0.74297 0.92734 0.0
H2469 H 0.521 0.721 0.8613 0.0
H2470 H 0.55435 0.72451 0.86725 0.0
H2471 H 0.54256 0.76508 0.90946 0.0
C2472 C 0.46848 0.75704 0.89666 0.0
C2473 C 0.4558 0.74726 0.88559 0.0
C2474 C 0.46242 0.73469 0.87225 0.0
C2475 C 0.48137 0.73176 0.87003 0.0
C2476 C 0.49352 0.74155 0.88123 0.0
C2477 C 0.48735 0.75398 0.89424 0.0
C2478 C 0.50327 0.7627 0.90454 0.0
C2479 C 0.50386 0.78362 0.90133 0.0
C2480 C 0.50235 0.75811 0.92518 0.0
C2481 C 0.51935 0.75319 0.89534 0.0
C2482 C 0.51344 0.74102 0.88196 0.0
C2483 C 0.52579 0.73053 0.87171 0.0
C2484 C 0.54469 0.73259 0.8752 0.0
C2485 C 0.55103 0.74507 0.88879 0.0
C2486 C 0.53813 0.75545 0.89896 0.0
H2487 H 0.7288 0.53652 0.11557 0.0
H2488 H 0.78379 0.54814 0.09505 0.0
H2489 H 0.78998 0.51503 0.09284 0.0
H2490 H 0.74162 0.49693 0.1431 0.0
H2491 H 0.72101 0.48402 0.138 0.0
H2492 H 0.72047 0.50881 0.13799 0.0
H2493 H 0.70785 0.50854 0.10466 0.0
H2494 H 0.70835 0.48375 0.10457 0.0
H2495 H 0.72036 0.49648 0.08697 0.0
H2496 H 0.79072 0.48144 0.09267 0.0
H2497 H 0.78612 0.44809 0.09468 0.0
H2498 H 0.73069 0.45663 0.11543 0.0
C2499 C 0.74211 0.53203 0.11062 0.0
C2500 C 0.75582 0.54494 0.10549 0.0
C2501 C 0.77308 0.53856 0.09909 0.0
C2502 C 0.77675 0.51976 0.09777 0.0
C2503 C 0.76304 0.50741 0.10291 0.0
C2504 C 0.74607 0.51315 0.10924 0.0
C2505 C 0.73395 0.49669 0.11391 0.0
C2506 C 0.72897 0.49662 0.13448 0.0
C2507 C 0.7166 0.49635 0.1018 0.0
C2508 C 0.74682 0.48092 0.10916 0.0
C2509 C 0.76349 0.48758 0.10285 0.0
C2510 C 0.77774 0.47601 0.09759 0.0
C2511 C 0.77496 0.45704 0.09881 0.0
C2512 C 0.75805 0.4497 0.10523 0.0
C2513 C 0.74375 0.46183 0.11047 0.0
H2514 H 0.53958 0.72965 0.11291 0.0
H2515 H 0.55047 0.78754 0.10274 0.0
H2516 H 0.51716 0.79348 0.1011 0.0
H2517 H 0.50157 0.72575 0.08193 0.0
H2518 H 0.48847 0.71029 0.09627 0.0
H2519 H 0.51322 0.71052 0.09764 0.0
H2520 H 0.5114 0.71674 0.1327 0.0
H2521 H 0.48662 0.71647 0.13145 0.0
H2522 H 0.4984 0.73616 0.14098 0.0
H2523 H 0.48316 0.79326 0.0996 0.0
H2524 H 0.44989 0.78693 0.09837 0.0
H2525 H 0.46027 0.72909 0.10915 0.0
C2526 C 0.53491 0.74359 0.11053 0.0
C2527 C 0.5476 0.75816 0.108 0.0
C2528 C 0.541 0.77618 0.10472 0.0
C2529 C 0.5221 0.77971 0.10379 0.0
C2530 C 0.50996 0.76506 0.10613 0.0
C2531 C 0.51601 0.74736 0.10945 0.0
C2532 C 0.49991 0.73408 0.1109 0.0
C2533 C 0.50085 0.71929 0.09578 0.0
C2534 C 0.49903 0.72535 0.13016 0.0
C2535 C 0.48392 0.7471 0.10776 0.0
C2536 C 0.49011 0.7649 0.10511 0.0
C2537 C 0.47811 0.7794 0.10171 0.0
C2538 C 0.45923 0.77564 0.10102 0.0
C2539 C 0.45249 0.75752 0.10367 0.0
C2540 C 0.46503 0.74307 0.1071 0.0
H2541 H 0.54168 0.27423 0.10836 0.0
H2542 H 0.55018 0.2171 0.1235 0.0
H2543 H 0.51683 0.21283 0.12698 0.0
H2544 H 0.5008 0.2822 0.13884 0.0
H2545 H 0.48928 0.29626 0.12199 0.0
H2546 H 0.51409 0.29585 0.12292 0.0
H2547 H 0.51521 0.28652 0.08854 0.0
H2548 H 0.49046 0.28686 0.08752 0.0
H2549 H 0.50279 0.26638 0.08097 0.0
H2550 H 0.48336 0.21315 0.12525 0.0
H2551 H 0.45051 0.21832 0.11891 0.0
H2552 H 0.46199 0.27537 0.10547 0.0
C2553 C 0.53646 0.261 0.11283 0.0
C2554 C 0.5485 0.246 0.11573 0.0
C2555 C 0.54121 0.22876 0.12118 0.0
C2556 C 0.52228 0.22621 0.12329 0.0
C2557 C 0.51072 0.24104 0.11993 0.0
C2558 C 0.5174 0.25815 0.1149 0.0
C2559 C 0.50162 0.27123 0.11074 0.0
C2560 C 0.50144 0.28734 0.12445 0.0
C2561 C 0.50258 0.27815 0.09076 0.0
C2562 C 0.48518 0.25858 0.11367 0.0
C2563 C 0.49089 0.24129 0.11914 0.0
C2564 C 0.47864 0.22671 0.12132 0.0
C2565 C 0.46004 0.22975 0.11761 0.0
C2566 C 0.45378 0.24725 0.11192 0.0
C2567 C 0.46643 0.26198 0.11023 0.0
H2568 H 0.61266 0.77357 0.0426 0.0
H2569 H 0.61221 0.71464 0.05234 0.0
H2570 H 0.61462 0.70898 0.01906 0.0
H2571 H 0.58424 0.77202 0.00305 0.0
H2572 H 0.59601 0.79003 0.99068 0.0
H2573 H 0.59628 0.78986 0.01546 0.0
H2574 H 0.63193 0.79039 0.01524 0.0
H2575 H 0.63177 0.79065 0.99044 0.0
H2576 H 0.64427 0.77302 0.00257 0.0
H2577 H 0.61497 0.70923 0.98536 0.0
H2578 H 0.61298 0.71533 0.95218 0.0
H2579 H 0.61251 0.77414 0.96294 0.0
C2580 C 0.61345 0.75953 0.03767 0.0
C2581 C 0.61236 0.74452 0.05 0.0
C2582 C 0.61301 0.72631 0.0431 0.0
C2583 C 0.61445 0.72295 0.02424 0.0
C2584 C 0.61512 0.73795 0.01238 0.0
C2585 C 0.61464 0.75589 0.0187 0.0
C2586 C 0.6143 0.76935 0.0027 0.0
C2587 C 0.59666 0.781 0.003 0.0
C2588 C 0.6316 0.78157 0.00274 0.0
C2589 C 0.61439 0.7561 0.98651 0.0
C2590 C 0.61502 0.73808 0.99253 0.0
C2591 C 0.6146 0.72327 0.98042 0.0
C2592 C 0.61341 0.72689 0.96158 0.0
C2593 C 0.6126 0.7452 0.95496 0.0
C2594 C 0.61323 0.76001 0.96761 0.0
H2595 H 0.26855 0.59016 0.96 0.0
H2596 H 0.23172 0.63567 0.94847 0.0
H2597 H 0.22718 0.6404 0.98183 0.0
H2598 H 0.24336 0.57203 0.99807 0.0
H2599 H 0.26352 0.56569 0.01103 0.0
H2600 H 0.2644 0.56629 0.98627 0.0
H2601 H 0.29205 0.58885 0.9877 0.0
H2602 H 0.29129 0.58829 0.01247 0.0
H2603 H 0.28994 0.60998 0.00053 0.0
H2604 H 0.22606 0.63971 0.01634 0.0
H2605 H 0.22855 0.63373 0.0497 0.0
H2606 H 0.26603 0.58861 0.03876 0.0
C2607 C 0.25962 0.6012 0.9645 0.0
C2608 C 0.25051 0.61259 0.95167 0.0
C2609 C 0.23886 0.62681 0.95808 0.0
C2610 C 0.23619 0.6296 0.97699 0.0
C2611 C 0.24529 0.61806 0.98928 0.0
C2612 C 0.25679 0.60416 0.98331 0.0
C2613 C 0.26465 0.59347 0.99938 0.0
C2614 C 0.25861 0.57317 0.99864 0.0
C2615 C 0.28574 0.59527 1.00005 0.0
C2616 C 0.25569 0.60347 0.01531 0.0
C2617 C 0.24461 0.61763 0.00918 0.0
C2618 C 0.23474 0.62869 0.02131 0.0
C2619 C 0.23623 0.62518 0.04022 0.0
C2620 C 0.24749 0.61073 0.0468 0.0
C2621 C 0.25735 0.59978 0.03413 0.0
H2622 H 0.39128 0.23002 0.03314 0.0
H2623 H 0.40703 0.28661 0.04447 0.0
H2624 H 0.40724 0.29323 0.01126 0.0
H2625 H 0.41932 0.22472 0.99251 0.0
H2626 H 0.40267 0.21086 0.98035 0.0
H2627 H 0.40339 0.21044 0.00512 0.0
H2628 H 0.36893 0.21943 0.00633 0.0
H2629 H 0.36811 0.21992 0.98155 0.0
H2630 H 0.36129 0.23988 0.99459 0.0
H2631 H 0.40591 0.29401 0.97733 0.0
H2632 H 0.40384 0.28874 0.94396 0.0
H2633 H 0.38921 0.23157 0.95373 0.0
C2634 C 0.39475 0.24379 0.02859 0.0
C2635 C 0.39913 0.25782 0.04139 0.0
C2636 C 0.40364 0.27565 0.03493 0.0
C2637 C 0.40377 0.27957 0.01609 0.0
C2638 C 0.39939 0.26551 0.00384 0.0
C2639 C 0.39501 0.24796 0.00974 0.0
C2640 C 0.39111 0.23537 0.9935 0.0
C2641 C 0.40495 0.21941 0.99284 0.0
C2642 C 0.37117 0.22823 0.99403 0.0
C2643 C 0.39403 0.24862 0.97762 0.0
C2644 C 0.39873 0.26593 0.984 0.0
C2645 C 0.40223 0.28053 0.97213 0.0
C2646 C 0.40101 0.27738 0.95319 0.0
C2647 C 0.39636 0.25975 0.94623 0.0
C2648 C 0.39275 0.2452 0.95865 0.0
H2649 H 0.73664 0.39675 0.04288 0.0
H2650 H 0.78885 0.36979 0.05326 0.0
H2651 H 0.7942 0.36744 0.0197 0.0
H2652 H 0.72413 0.37048 0.00205 0.0
H2653 H 0.71399 0.39007 0.99075 0.0
H2654 H 0.71393 0.38864 0.0155 0.0
H2655 H 0.73022 0.42036 0.01742 0.0
H2656 H 0.73041 0.42186 0.9927 0.0
H2657 H 0.75165 0.42384 0.00538 0.0
H2658 H 0.79432 0.36928 0.98499 0.0
H2659 H 0.78921 0.37501 0.95185 0.0
H2660 H 0.73698 0.40097 0.96449 0.0
C2661 C 0.74911 0.39016 0.03811 0.0
C2662 C 0.76232 0.38339 0.05064 0.0
C2663 C 0.77853 0.37501 0.04387 0.0
C2664 C 0.78168 0.37362 0.02485 0.0
C2665 C 0.76845 0.38064 0.01286 0.0
C2666 C 0.75247 0.3887 0.01924 0.0
C2667 C 0.74071 0.39572 0.00356 0.0
C2668 C 0.72209 0.38562 0.00293 0.0
C2669 C 0.7381 0.41669 0.00485 0.0
C2670 C 0.75267 0.39055 0.98733 0.0
C2671 C 0.76857 0.38178 0.99296 0.0
C2672 C 0.78188 0.37604 0.98043 0.0
C2673 C 0.77886 0.37938 0.96165 0.0
C2674 C 0.76269 0.38842 0.95563 0.0
C2675 C 0.74944 0.39399 0.96868 0.0
H2676 H 0.59833 0.26905 0.96414 0.0
H2677 H 0.62057 0.21549 0.95009 0.0
H2678 H 0.62347 0.2081 0.98321 0.0
H2679 H 0.62701 0.27741 0.00359 0.0
H2680 H 0.60903 0.28852 0.01654 0.0
H2681 H 0.60888 0.28952 0.99178 0.0
H2682 H 0.57595 0.2757 0.99132 0.0
H2683 H 0.57599 0.27466 0.01608 0.0
H2684 H 0.57157 0.25414 0.00281 0.0
H2685 H 0.62392 0.20672 0.01803 0.0
H2686 H 0.6215 0.21131 0.0517 0.0
H2687 H 0.59866 0.26566 0.04256 0.0
C2688 C 0.60384 0.25577 0.96802 0.0
C2689 C 0.60925 0.24284 0.95458 0.0
C2690 C 0.61635 0.22559 0.96019 0.0
C2691 C 0.61805 0.22129 0.97895 0.0
C2692 C 0.61257 0.23437 0.99187 0.0
C2693 C 0.60558 0.25125 0.98662 0.0
C2694 C 0.60051 0.26285 0.00316 0.0
C2695 C 0.61205 0.28062 0.0038 0.0
C2696 C 0.57977 0.26708 0.00335 0.0
C2697 C 0.60573 0.24987 0.01855 0.0
C2698 C 0.61269 0.23353 0.01179 0.0
C2699 C 0.61847 0.21946 0.02347 0.0
C2700 C 0.61706 0.22219 0.04255 0.0
C2701 C 0.60988 0.23882 0.04971 0.0
C2702 C 0.60418 0.25279 0.03749 0.0
H2703 H 0.73225 0.5979 0.04239 0.0
H2704 H 0.78016 0.63123 0.05544 0.0
H2705 H 0.78525 0.63681 0.02225 0.0
H2706 H 0.75077 0.57624 0.00285 0.0
H2707 H 0.72944 0.57628 0.99017 0.0
H2708 H 0.7291 0.57571 0.01493 0.0
H2709 H 0.70869 0.60491 0.01545 0.0
H2710 H 0.70895 0.60557 0.99067 0.0
H2711 H 0.71636 0.62537 0.00368 0.0
H2712 H 0.78586 0.63753 0.98756 0.0
H2713 H 0.7818 0.63357 0.95401 0.0
H2714 H 0.73329 0.6 0.96383 0.0
C2715 C 0.74373 0.60649 0.03829 0.0
C2716 C 0.75581 0.61416 0.05147 0.0
C2717 C 0.77073 0.62526 0.04555 0.0
C2718 C 0.77371 0.62851 0.02675 0.0
C2719 C 0.76161 0.62062 0.01409 0.0
C2720 C 0.74688 0.60989 0.01961 0.0
C2721 C 0.73617 0.60263 0.00326 0.0
C2722 C 0.7364 0.58146 0.00278 0.0
C2723 C 0.71637 0.61007 0.00327 0.0
C2724 C 0.74732 0.61074 0.98764 0.0
C2725 C 0.7619 0.62112 0.99416 0.0
C2726 C 0.77441 0.62954 0.9823 0.0
C2727 C 0.77201 0.6272 0.96328 0.0
C2728 C 0.7572 0.61654 0.95634 0.0
C2729 C 0.74466 0.60833 0.96873 0.0
H2730 H 0.40792 0.73776 0.95825 0.0
H2731 H 0.36835 0.78084 0.94659 0.0
H2732 H 0.36294 0.78484 0.97996 0.0
H2733 H 0.38339 0.71777 0.99664 0.0
H2734 H 0.40407 0.71273 0.00936 0.0
H2735 H 0.40458 0.7132 0.98458 0.0
H2736 H 0.43091 0.73733 0.98553 0.0
H2737 H 0.43047 0.73695 0.0103 0.0
H2738 H 0.4277 0.75842 0.99821 0.0
H2739 H 0.36247 0.78453 0.01482 0.0
H2740 H 0.36667 0.77958 0.04827 0.0
H2741 H 0.40624 0.73645 0.03673 0.0
C2742 C 0.39807 0.748 0.9627 0.0
C2743 C 0.38855 0.75901 0.94985 0.0
C2744 C 0.37578 0.77225 0.95622 0.0
C2745 C 0.37262 0.77462 0.97514 0.0
C2746 C 0.38229 0.76358 0.98746 0.0
C2747 C 0.39471 0.75049 0.98149 0.0
C2748 C 0.4034 0.74043 0.9975 0.0
C2749 C 0.39856 0.71981 0.99698 0.0
C2750 C 0.42436 0.74347 0.9979 0.0
C2751 C 0.39405 0.75 0.01344 0.0
C2752 C 0.38191 0.7633 0.00741 0.0
C2753 C 0.37189 0.7741 0.0197 0.0
C2754 C 0.37436 0.7712 0.03865 0.0
C2755 C 0.38673 0.75762 0.04507 0.0
C2756 C 0.39662 0.7469 0.03224 0.0
H2757 H 0.26356 0.4014 0.03896 0.0
H2758 H 0.21322 0.37123 0.05035 0.0
H2759 H 0.20819 0.36708 0.01691 0.0
H2760 H 0.2468 0.42543 0.99923 0.0
H2761 H 0.26841 0.42429 0.98711 0.0
H2762 H 0.26812 0.42454 0.01189 0.0
H2763 H 0.28684 0.39423 0.01243 0.0
H2764 H 0.28713 0.39385 0.98765 0.0
H2765 H 0.27826 0.37437 1.00022 0.0
H2766 H 0.20883 0.36614 0.9822 0.0
H2767 H 0.21437 0.36953 0.94882 0.0
H2768 H 0.26406 0.40079 0.96026 0.0
C2769 C 0.25148 0.3939 0.03443 0.0
C2770 C 0.23878 0.38659 0.04723 0.0
C2771 C 0.22311 0.37694 0.04076 0.0
C2772 C 0.22017 0.37449 0.02182 0.0
C2773 C 0.233 0.38183 0.00956 0.0
C2774 C 0.2483 0.39142 0.01561 0.0
C2775 C 0.25983 0.39823 0.99963 0.0
C2776 C 0.26084 0.41938 0.99946 0.0
C2777 C 0.27916 0.38965 1.00001 0.0
C2778 C 0.24862 0.39099 0.9836 0.0
C2779 C 0.23325 0.38149 0.98962 0.0
C2780 C 0.22082 0.37356 0.97734 0.0
C2781 C 0.2241 0.37553 0.95841 0.0
C2782 C 0.23964 0.38541 0.95196 0.0
C2783 C 0.25207 0.39314 0.96477 0.0
H2784 H 0.04218 0.59713 0.73356 0.0
H2785 H 0.05411 0.63335 0.77959 0.0
H2786 H 0.0208 0.63817 0.78434 0.0
H2787 H 0.00274 0.62214 0.71611 0.0
H2788 H 0.99018 0.60159 0.71003 0.0
H2789 H 0.01498 0.60153 0.70982 0.0
H2790 H 0.01511 0.57373 0.73214 0.0
H2791 H 0.99033 0.5737 0.73242 0.0
H2792 H 0.00296 0.57535 0.75372 0.0
H2793 H 0.98628 0.63865 0.78442 0.0
H2794 H 0.95281 0.63414 0.7803 0.0
H2795 H 0.96336 0.5972 0.73456 0.0
C2796 C 0.03778 0.60617 0.74456 0.0
C2797 C 0.0507 0.61492 0.75618 0.0
C2798 C 0.04442 0.62652 0.77052 0.0
C2799 C 0.02555 0.62937 0.77331 0.0
C2800 C 0.01315 0.62047 0.76166 0.0
C2801 C 0.01899 0.60908 0.7476 0.0
C2802 C 0.0028 0.60074 0.73739 0.0
C2803 C 0.00268 0.60687 0.71714 0.0
C2804 C 0.00281 0.57963 0.73903 0.0
C2805 C 0.98697 0.60915 0.74797 0.0
C2806 C 0.99324 0.62058 0.76185 0.0
C2807 C 0.9812 0.62977 0.77358 0.0
C2808 C 0.96223 0.62713 0.77113 0.0
C2809 C 0.95551 0.61533 0.75712 0.0
C2810 C 0.96809 0.60632 0.74537 0.0
H2811 H 0.39343 0.96133 0.76412 0.0
H2812 H 0.41022 0.95099 0.7077 0.0
H2813 H 0.41032 0.98428 0.70157 0.0
H2814 H 0.36339 0.99997 0.75419 0.0
H2815 H 0.36984 0.01271 0.77449 0.0
H2816 H 0.37067 0.98793 0.77461 0.0
H2817 H 0.40495 0.98914 0.78435 0.0
H2818 H 0.40422 0.01392 0.78428 0.0
H2819 H 0.42112 0.00202 0.77059 0.0
H2820 H 0.40907 0.01822 0.70132 0.0
H2821 H 0.40697 0.0515 0.70704 0.0
H2822 H 0.39114 0.04085 0.76369 0.0
C2823 C 0.39706 0.96611 0.75048 0.0
C2824 C 0.4018 0.95355 0.73637 0.0
C2825 C 0.40655 0.96032 0.71873 0.0
C2826 C 0.40662 0.97922 0.71508 0.0
C2827 C 0.40193 0.99123 0.72923 0.0
C2828 C 0.39726 0.98504 0.74659 0.0
C2829 C 0.39312 0.00109 0.75934 0.0
C2830 C 0.37306 1.00038 0.76605 0.0
C2831 C 0.40667 0.00156 0.7756 0.0
C2832 C 0.39627 0.0172 0.7464 0.0
C2833 C 0.40129 0.0111 0.72911 0.0
C2834 C 0.40512 0.0232 0.71478 0.0
C2835 C 0.40389 0.0421 0.7182 0.0
C2836 C 0.39888 0.0488 0.73581 0.0
C2837 C 0.39494 0.03614 0.75008 0.0
H2838 H 0.03972 0.41073 0.73196 0.0
H2839 H 0.05206 0.36278 0.76529 0.0
H2840 H 0.01874 0.35695 0.76926 0.0
H2841 H 0.00112 0.426 0.75811 0.0
H2842 H 0.98822 0.43359 0.73834 0.0
H2843 H 0.013 0.43361 0.73769 0.0
H2844 H 0.01228 0.4132 0.70842 0.0
H2845 H 0.98749 0.41314 0.70897 0.0
H2846 H 0.99988 0.39168 0.70881 0.0
H2847 H 0.984 0.35685 0.77017 0.0
H2848 H 0.95051 0.36245 0.76785 0.0
H2849 H 0.96112 0.41043 0.73388 0.0
C2850 C 0.03542 0.39894 0.74001 0.0
C2851 C 0.04845 0.38718 0.7483 0.0
C2852 C 0.04228 0.37195 0.7588 0.0
C2853 C 0.0234 0.36852 0.76113 0.0
C2854 C 0.0109 0.38045 0.75284 0.0
C2855 C 0.01666 0.39533 0.74247 0.0
C2856 C 1.00046 0.40623 0.73527 0.0
C2857 C 0.00072 0.42603 0.74281 0.0
C2858 C 1.0 0.40604 0.71411 0.0
C2859 C 0.98468 0.39522 0.74329 0.0
C2860 C 0.99097 0.38038 0.75335 0.0
C2861 C 0.97892 0.36838 0.76227 0.0
C2862 C 0.95994 0.37168 0.76088 0.0
C2863 C 0.95324 0.38684 0.75067 0.0
C2864 C 0.96583 0.39868 0.74174 0.0
H2865 H 0.58925 0.96281 0.75085 0.0
H2866 H 0.63135 0.95201 0.79175 0.0
H2867 H 0.63338 0.98541 0.79846 0.0
H2868 H 0.61012 0.00213 0.73258 0.0
H2869 H 0.58887 0.01408 0.72815 0.0
H2870 H 0.58926 0.98934 0.72827 0.0
H2871 H 0.56358 0.98886 0.75304 0.0
H2872 H 0.56308 0.01365 0.75298 0.0
H2873 H 0.56682 0.0014 0.77421 0.0
H2874 H 0.63174 0.02032 0.7994 0.0
H2875 H 0.62795 0.05363 0.79319 0.0
H2876 H 0.58799 0.04092 0.75065 0.0
C2877 C 0.59865 0.96741 0.76148 0.0
C2878 C 0.61002 0.95487 0.77093 0.0
C2879 C 0.62245 0.96145 0.78444 0.0
C2880 C 0.62364 0.98035 0.78837 0.0
C2881 C 0.61238 0.99241 0.77858 0.0
C2882 C 0.60018 0.98616 0.76537 0.0
C2883 C 0.59067 0.00191 0.75569 0.0
C2884 C 0.595 0.00185 0.73495 0.0
C2885 C 0.5698 0.00142 0.7592 0.0
C2886 C 0.59963 0.01805 0.7653 0.0
C2887 C 0.6119 0.01235 0.77867 0.0
C2888 C 0.6221 0.02493 0.78903 0.0
C2889 C 0.61985 0.04378 0.78544 0.0
C2890 C 0.60771 0.04978 0.77144 0.0
C2891 C 0.59737 0.03671 0.76144 0.0
H2892 H 0.96528 0.38722 0.23382 0.0
H2893 H 0.9543 0.42416 0.27953 0.0
H2894 H 0.98744 0.42855 0.28418 0.0
H2895 H 0.00451 0.36531 0.25425 0.0
H2896 H 0.01749 0.36348 0.23319 0.0
H2897 H 0.9927 0.36365 0.23248 0.0
H2898 H 0.99349 0.39132 0.21006 0.0
H2899 H 0.0183 0.3912 0.21066 0.0
H2900 H 0.00591 0.41188 0.21644 0.0
H2901 H 0.02097 0.42849 0.28505 0.0
H2902 H 0.05427 0.42413 0.28202 0.0
H2903 H 0.04529 0.38711 0.23585 0.0
C2904 C 0.96992 0.39634 0.24466 0.0
C2905 C 0.95716 0.40536 0.25631 0.0
C2906 C 0.96375 0.41706 0.27046 0.0
C2907 C 0.98258 0.4197 0.27322 0.0
C2908 C 0.99478 0.41053 0.26172 0.0
C2909 C 0.98887 0.3991 0.2477 0.0
C2910 C 0.00524 0.39059 0.2378 0.0
C2911 C 0.00496 0.36951 0.23954 0.0
C2912 C 0.00576 0.39661 0.21754 0.0
C2913 C 0.02114 0.39896 0.24862 0.0
C2914 C 0.01462 0.41045 0.26228 0.0
C2915 C 0.0263 0.4196 0.27437 0.0
C2916 C 0.04523 0.41698 0.27253 0.0
C2917 C 0.05243 0.40528 0.2587 0.0
C2918 C 0.04019 0.39618 0.24651 0.0
H2919 H 0.60724 0.03964 0.22886 0.0
H2920 H 0.59768 0.04831 0.28723 0.0
H2921 H 0.60087 0.01518 0.29279 0.0
H2922 H 0.58117 0.99804 0.2258 0.0
H2923 H 0.59628 0.98679 0.20968 0.0
H2924 H 0.59484 0.01153 0.21006 0.0
H2925 H 0.6301 0.01368 0.21486 0.0
H2926 H 0.63164 0.98892 0.21452 0.0
H2927 H 0.64056 0.00167 0.23386 0.0
H2928 H 0.60323 0.98181 0.29245 0.0
H2929 H 0.60383 0.94867 0.28605 0.0
H2930 H 0.61167 0.9598 0.22785 0.0
C2931 C 0.60605 0.03451 0.24279 0.0
C2932 C 0.60223 0.04656 0.25762 0.0
C2933 C 0.60051 0.03935 0.27565 0.0
C2934 C 0.60241 0.02055 0.27899 0.0
C2935 C 0.60595 0.00901 0.26417 0.0
C2936 C 0.60772 0.01555 0.2464 0.0
C2937 C 0.61045 0.99971 0.23297 0.0
C2938 C 0.59475 0.99898 0.21879 0.0
C2939 C 0.62932 0.00108 0.22349 0.0
C2940 C 0.60966 0.98335 0.24602 0.0
C2941 C 0.60721 0.98922 0.26394 0.0
C2942 C 0.60528 0.97699 0.2785 0.0
C2943 C 0.60558 0.95818 0.2747 0.0
C2944 C 0.60781 0.95166 0.25647 0.0
C2945 C 0.61016 0.96442 0.24194 0.0
H2946 H 0.03938 0.61408 0.22995 0.0
H2947 H 0.04987 0.59248 0.28468 0.0
H2948 H 0.0166 0.58964 0.29002 0.0
H2949 H 0.99923 0.64077 0.24235 0.0
H2950 H 0.98693 0.63595 0.22133 0.0
H2951 H 0.01173 0.63623 0.2214 0.0
H2952 H 0.01211 0.60316 0.20809 0.0
H2953 H 0.98731 0.60278 0.20799 0.0
H2954 H 0.99989 0.58508 0.21993 0.0
H2955 H 0.98289 0.58893 0.28988 0.0
H2956 H 0.94962 0.59081 0.28452 0.0
H2957 H 0.95953 0.6131 0.22993 0.0
C2958 C 0.03462 0.60874 0.24302 0.0
C2959 C 0.04725 0.60348 0.2569 0.0
C2960 C 0.0405 0.5966 0.27385 0.0
C2961 C 0.02161 0.59491 0.27703 0.0
C2962 C 0.00955 0.60018 0.26315 0.0
C2963 C 0.01566 0.60699 0.24649 0.0
C2964 C 0.99949 0.61174 0.23408 0.0
C2965 C 0.99934 0.6324 0.22953 0.0
C2966 C 0.99972 0.59999 0.21648 0.0
C2967 C 0.98342 0.60653 0.24644 0.0
C2968 C 0.98969 0.59986 0.2631 0.0
C2969 C 0.97776 0.59413 0.27691 0.0
C2970 C 0.95885 0.59526 0.27369 0.0
C2971 C 0.95192 0.60211 0.2568 0.0
C2972 C 0.96441 0.6078 0.24296 0.0
H2973 H 0.39756 0.03857 0.26055 0.0
H2974 H 0.36128 0.04882 0.21426 0.0
H2975 H 0.35757 0.01523 0.20972 0.0
H2976 H 0.42067 0.99995 0.2416 0.0
H2977 H 0.42221 0.98778 0.26315 0.0
H2978 H 0.42148 0.01254 0.26297 0.0
H2979 H 0.39319 0.01192 0.28471 0.0
H2980 H 0.39385 0.98714 0.28498 0.0
H2981 H 0.37307 0.99885 0.27823 0.0
H2982 H 0.35896 0.98029 0.20964 0.0
H2983 H 0.36468 0.94705 0.21454 0.0
H2984 H 0.39951 0.96022 0.26127 0.0
C2985 C 0.38876 0.03377 0.2495 0.0
C2986 C 0.37971 0.04627 0.23773 0.0
C2987 C 0.36831 0.03945 0.22345 0.0
C2988 C 0.36613 0.02041 0.22077 0.0
C2989 C 0.37536 0.00844 0.23257 0.0
C2990 C 0.38637 0.01488 0.24671 0.0
C2991 C 0.39493 0.99923 0.2574 0.0
C2992 C 0.41607 0.99992 0.2562 0.0
C2993 C 0.38836 0.99929 0.27752 0.0
C2994 C 0.38721 0.98295 0.24695 0.0
C2995 C 0.37595 0.98849 0.23267 0.0
C2996 C 0.36765 0.9758 0.22086 0.0
C2997 C 0.37099 0.95697 0.22373 0.0
C2998 C 0.38246 0.95107 0.23832 0.0
C2999 C 0.39057 0.96429 0.25007 0.0
H3000 H 0.77359 0.03918 0.62808 0.0
H3001 H 0.76488 0.05109 0.57031 0.0
H3002 H 0.77028 0.01848 0.56261 0.0
H3003 H 0.80813 0.00102 0.62204 0.0
H3004 H 0.79819 0.98767 0.64044 0.0
H3005 H 0.79735 0.01246 0.64123 0.0
H3006 H 0.76189 0.01108 0.64482 0.0
H3007 H 0.76262 0.98636 0.64402 0.0
H3008 H 0.7484 0.99879 0.62796 0.0
H3009 H 0.7728 0.98481 0.56131 0.0
H3010 H 0.77025 0.95146 0.56655 0.0
H3011 H 0.77588 0.96023 0.62538 0.0
C3012 C 0.77347 0.03492 0.61379 0.0
C3013 C 0.76919 0.04754 0.59969 0.0
C3014 C 0.76835 0.04154 0.58121 0.0
C3015 C 0.77149 0.0231 0.57672 0.0
C3016 C 0.77526 0.01081 0.59091 0.0
C3017 C 0.77618 0.01638 0.6091 0.0
C3018 C 0.77796 0.99992 0.62184 0.0
C3019 C 0.79652 1.00029 0.63199 0.0
C3020 C 0.76175 0.99899 0.63545 0.0
C3021 C 0.77721 0.98428 0.608 0.0
C3022 C 0.77609 0.99097 0.59023 0.0
C3023 C 0.77396 0.97937 0.57512 0.0
C3024 C 0.77247 0.96044 0.57825 0.0
C3025 C 0.77296 0.95327 0.59636 0.0
C3026 C 0.7758 0.96532 0.61138 0.0
H3027 H 0.73164 0.04072 0.41527 0.0
H3028 H 0.77398 0.05366 0.37516 0.0
H3029 H 0.77935 0.0204 0.37028 0.0
H3030 H 0.75437 0.00145 0.43532 0.0
H3031 H 0.7333 0.98869 0.43853 0.0
H3032 H 0.73299 0.01347 0.43893 0.0
H3033 H 0.70836 0.01356 0.41312 0.0
H3034 H 0.70861 0.98878 0.41261 0.0
H3035 H 0.71292 0.00163 0.39184 0.0
H3036 H 0.77967 0.98567 0.36948 0.0
H3037 H 0.77526 0.95213 0.3731 0.0
H3038 H 0.7328 0.96206 0.4139 0.0
C3039 C 0.74208 0.03657 0.40549 0.0
C3040 C 0.75241 0.04975 0.39558 0.0
C3041 C 0.76593 0.04377 0.38291 0.0
C3042 C 0.76907 0.02493 0.38004 0.0
C3043 C 0.75858 0.01228 0.39 0.0
C3044 C 0.7454 0.01786 0.4025 0.0
C3045 C 0.73594 0.00153 0.41139 0.0
C3046 C 0.73936 0.00128 0.43228 0.0
C3047 C 0.71523 0.00137 0.40697 0.0
C3048 C 0.74581 0.98586 0.40188 0.0
C3049 C 0.75882 0.99234 0.38959 0.0
C3050 C 0.76955 0.98045 0.37909 0.0
C3051 C 0.76694 0.96143 0.38123 0.0
C3052 C 0.7537 0.95451 0.39378 0.0
C3053 C 0.74304 0.96694 0.40422 0.0
H3054 H 0.95776 0.77115 0.39204 0.0
H3055 H 0.94681 0.71637 0.41331 0.0
H3056 H 0.98011 0.7108 0.41602 0.0
H3057 H 0.99752 0.75878 0.36508 0.0
H3058 H 0.00992 0.77974 0.36993 0.0
H3059 H 0.98513 0.77971 0.36985 0.0
H3060 H 0.98497 0.79282 0.40301 0.0
H3061 H 0.00977 0.79288 0.4032 0.0
H3062 H 0.99724 0.78084 0.42092 0.0
H3063 H 0.01417 0.71085 0.41638 0.0
H3064 H 0.04754 0.71639 0.41408 0.0
H3065 H 0.03715 0.77108 0.39243 0.0
C3066 C 0.9624 0.75802 0.39729 0.0
C3067 C 0.94969 0.74419 0.40248 0.0
C3068 C 0.95628 0.72716 0.40925 0.0
C3069 C 0.97518 0.72386 0.41086 0.0
C3070 C 0.98734 0.73772 0.40563 0.0
C3071 C 0.9813 0.75445 0.39896 0.0
C3072 C 0.99745 0.76686 0.39417 0.0
C3073 C 0.9975 0.77154 0.37353 0.0
C3074 C 0.99734 0.78439 0.40604 0.0
C3075 C 0.01344 0.75444 0.39917 0.0
C3076 C 0.00722 0.73771 0.40578 0.0
C3077 C 0.01924 0.72388 0.41125 0.0
C3078 C 0.03818 0.72718 0.40988 0.0
C3079 C 0.04495 0.74416 0.40309 0.0
C3080 C 0.03237 0.75798 0.3977 0.0
H3081 H 0.26447 0.03669 0.4028 0.0
H3082 H 0.22317 0.04622 0.36074 0.0
H3083 H 0.22016 0.01262 0.35605 0.0
H3084 H 0.28625 0.99721 0.38135 0.0
H3085 H 0.28987 0.98551 0.40291 0.0
H3086 H 0.28942 0.01029 0.40222 0.0
H3087 H 0.2636 0.01049 0.42683 0.0
H3088 H 0.26394 0.98573 0.42757 0.0
H3089 H 0.24274 0.99763 0.42274 0.0
H3090 H 0.22116 0.97797 0.35654 0.0
H3091 H 0.22564 0.94481 0.36257 0.0
H3092 H 0.26576 0.95808 0.40484 0.0
C3093 C 0.25493 0.03172 0.39247 0.0
C3094 C 0.24412 0.04402 0.38204 0.0
C3095 C 0.23162 0.037 0.36882 0.0
C3096 C 0.22983 0.01796 0.36606 0.0
C3097 C 0.24059 0.00618 0.37668 0.0
C3098 C 0.25288 0.01279 0.38964 0.0
C3099 C 0.26231 0.99723 0.39975 0.0
C3100 C 0.2832 0.99758 0.39635 0.0
C3101 C 0.25787 0.99781 0.42044 0.0
C3102 C 0.25335 0.98082 0.39052 0.0
C3103 C 0.24095 0.98627 0.37717 0.0
C3104 C 0.23087 0.97354 0.36692 0.0
C3105 C 0.2335 0.95475 0.37044 0.0
C3106 C 0.24603 0.9489 0.38416 0.0
C3107 C 0.25609 0.96215 0.39425 0.0
H3108 H 0.03621 0.26436 0.39987 0.0
H3109 H 0.04848 0.20892 0.38143 0.0
H3110 H 0.01527 0.20309 0.37665 0.0
H3111 H 0.99536 0.25281 0.4248 0.0
H3112 H 0.9835 0.27368 0.41866 0.0
H3113 H 0.00824 0.27352 0.42007 0.0
H3114 H 0.01028 0.28559 0.38656 0.0
H3115 H 0.98554 0.28571 0.38502 0.0
H3116 H 0.99889 0.27308 0.36838 0.0
H3117 H 0.9805 0.20326 0.37438 0.0
H3118 H 0.94696 0.20919 0.37574 0.0
H3119 H 0.95789 0.26444 0.39573 0.0
C3120 C 0.03192 0.25101 0.39478 0.0
C3121 C 0.04489 0.2371 0.39099 0.0
C3122 C 0.03874 0.21977 0.38443 0.0
C3123 C 0.01993 0.21635 0.38163 0.0
C3124 C 0.00748 0.23039 0.38548 0.0
C3125 C 0.01323 0.24735 0.39197 0.0
C3126 C 0.99709 0.25996 0.39551 0.0
C3127 C 0.99599 0.2653 0.41597 0.0
C3128 C 0.99801 0.2771 0.38312 0.0
C3129 C 0.98134 0.24744 0.39004 0.0
C3130 C 0.98757 0.23046 0.38423 0.0
C3131 C 0.97546 0.21653 0.37884 0.0
C3132 C 0.95646 0.22002 0.37963 0.0
C3133 C 0.94985 0.23727 0.38578 0.0
C3134 C 0.96252 0.25114 0.39086 0.0
H3135 H 0.23246 0.03628 0.61642 0.0
H3136 H 0.28166 0.04729 0.58424 0.0
H3137 H 0.28702 0.01407 0.58106 0.0
H3138 H 0.25078 0.99643 0.64075 0.0
H3139 H 0.22932 0.98392 0.64036 0.0
H3140 H 0.22926 0.00872 0.64052 0.0
H3141 H 0.20947 0.00883 0.61086 0.0
H3142 H 0.20951 0.98404 0.61059 0.0
H3143 H 0.21749 0.99668 0.59078 0.0
H3144 H 0.28702 0.98028 0.58052 0.0
H3145 H 0.28202 0.94695 0.58312 0.0
H3146 H 0.23297 0.95662 0.6159 0.0
C3147 C 0.24439 0.03165 0.60879 0.0
C3148 C 0.25666 0.04439 0.60058 0.0
C3149 C 0.27209 0.03782 0.59067 0.0
C3150 C 0.27527 0.01896 0.58877 0.0
C3151 C 0.26294 0.00678 0.59691 0.0
C3152 C 0.24784 0.01274 0.60678 0.0
C3153 C 0.23678 0.9965 0.61401 0.0
C3154 C 0.23653 0.99639 0.63516 0.0
C3155 C 0.21715 0.99652 0.60608 0.0
C3156 C 0.24797 0.98056 0.60647 0.0
C3157 C 0.26299 0.98693 0.59668 0.0
C3158 C 0.27536 0.97508 0.5882 0.0
C3159 C 0.27237 0.95614 0.58976 0.0
C3160 C 0.25712 0.94916 0.59973 0.0
C3161 C 0.24476 0.96156 0.60822 0.0
H3162 H 0.95814 0.22653 0.59886 0.0
H3163 H 0.94896 0.26513 0.64333 0.0
H3164 H 0.98223 0.26478 0.65068 0.0
H3165 H 0.99709 0.20057 0.61955 0.0
H3166 H 0.00917 0.19911 0.59794 0.0
H3167 H 0.98437 0.1998 0.59826 0.0
H3168 H 0.98494 0.22801 0.57648 0.0
H3169 H 0.0097 0.22746 0.57615 0.0
H3170 H 0.99792 0.24817 0.58299 0.0
H3171 H 0.01639 0.2619 0.65186 0.0
H3172 H 0.04955 0.25911 0.64514 0.0
H3173 H 0.03703 0.22451 0.59804 0.0
C3174 C 0.96315 0.2344 0.61049 0.0
C3175 C 0.95112 0.24551 0.62089 0.0
C3176 C 0.95807 0.25634 0.63548 0.0
C3177 C 0.97688 0.25617 0.63975 0.0
C3178 C 0.98853 0.24534 0.62905 0.0
C3179 C 0.98199 0.23479 0.61459 0.0
C3180 C 0.99768 0.2263 0.6038 0.0
C3181 C 0.99704 0.20519 0.60496 0.0
C3182 C 0.99755 0.23289 0.58367 0.0
C3183 C 0.01404 0.234 0.61423 0.0
C3184 C 0.00842 0.2446 0.62899 0.0
C3185 C 0.02097 0.25355 0.64041 0.0
C3186 C 0.03977 0.25187 0.63649 0.0
C3187 C 0.04582 0.24161 0.62107 0.0
C3188 C 0.03277 0.2324 0.60994 0.0
H3189 H 0.03819 0.77169 0.61463 0.0
H3190 H 0.04847 0.72719 0.57606 0.0
H3191 H 0.01518 0.7226 0.57225 0.0
H3192 H 0.99944 0.75062 0.63677 0.0
H3193 H 0.98663 0.77165 0.63953 0.0
H3194 H 0.01141 0.7723 0.63882 0.0
H3195 H 0.01021 0.79555 0.61185 0.0
H3196 H 0.98541 0.79502 0.61251 0.0
H3197 H 0.99735 0.78983 0.5914 0.0
H3198 H 0.98144 0.72183 0.57303 0.0
H3199 H 0.94821 0.72508 0.57816 0.0
H3200 H 0.95848 0.76995 0.61639 0.0
C3201 C 0.03338 0.76112 0.60527 0.0
C3202 C 0.04594 0.74981 0.59561 0.0
C3203 C 0.03914 0.73601 0.58361 0.0
C3204 C 0.02024 0.73329 0.58132 0.0
C3205 C 0.00823 0.74447 0.59113 0.0
C3206 C 0.01441 0.75813 0.60285 0.0
C3207 C 0.99831 0.76782 0.61201 0.0
C3208 C 0.99899 0.76545 0.63303 0.0
C3209 C 0.99779 0.78827 0.60662 0.0
C3210 C 0.98222 0.75732 0.60368 0.0
C3211 C 0.98839 0.74397 0.59164 0.0
C3212 C 0.97639 0.73227 0.58236 0.0
C3213 C 0.95752 0.73423 0.58541 0.0
C3214 C 0.95073 0.74777 0.59767 0.0
C3215 C 0.96328 0.7595 0.60692 0.0
loop_
_geom_bond_atom_site_label_1
_geom_bond_atom_site_label_2
_geom_bond_distance
_geom_bond_site_symmetry_2
_ccdc_geom_bond_type
In0 O1 2.294 . S
In0 O2 2.326 . S
In0 O6 2.266 . S
In0 O7 2.326 . S
In0 O8 2.266 . S
In0 O9 2.326 . S
In0 O11 2.294 . S
In0 O12 2.326 . S
O1 In0 2.294 . S
O1 C10 1.240 . S
O2 In0 2.326 . S
O2 C10 1.252 . S
C3 O6 1.252 . S
C3 O7 1.260 . S
C4 O11 1.240 . S
C4 O12 1.252 . S
C5 O8 1.252 . S
C5 O9 1.260 . S
O6 In0 2.266 . S
O6 C3 1.252 . S
O7 In0 2.326 . S
O7 C3 1.260 . S
O8 In0 2.266 . S
O8 C5 1.252 . S
O9 In0 2.326 . S
O9 C5 1.260 . S
C10 O1 1.240 . S
C10 O2 1.252 . S
O11 In0 2.294 . S
O11 C4 1.240 . S
O12 In0 2.326 . S
O12 C4 1.252 . S
In13 O14 2.294 . S
In13 O15 2.326 . S
In13 O19 2.266 . S
In13 O20 2.326 . S
In13 O21 2.266 . S
In13 O22 2.326 . S
In13 O24 2.294 . S
In13 O25 2.326 . S
O14 In13 2.294 . S
O14 C23 1.240 . S
O15 In13 2.326 . S
O15 C23 1.252 . S
C16 O19 1.252 . S
C16 O20 1.260 . S
C17 O24 1.240 . S
C17 O25 1.252 . S
C18 O21 1.252 . S
C18 O22 1.260 . S
O19 In13 2.266 . S
O19 C16 1.252 . S
O20 In13 2.326 . S
O20 C16 1.260 . S
O21 In13 2.266 . S
O21 C18 1.252 . S
O22 In13 2.326 . S
O22 C18 1.260 . S
C23 O14 1.240 . S
C23 O15 1.252 . S
O24 In13 2.294 . S
O24 C17 1.240 . S
O25 In13 2.326 . S
O25 C17 1.252 . S
In26 O27 2.294 . S
In26 O28 2.326 . S
In26 O32 2.266 . S
In26 O33 2.326 . S
In26 O34 2.266 . S
In26 O35 2.326 . S
In26 O37 2.294 . S
In26 O38 2.326 . S
O27 In26 2.294 . S
O27 C36 1.240 . S
O28 In26 2.326 . S
O28 C36 1.252 . S
C29 O32 1.252 . S
C29 O33 1.260 . S
C30 O37 1.240 . S
C30 O38 1.252 . S
C31 O34 1.252 . S
C31 O35 1.260 . S
O32 In26 2.266 . S
O32 C29 1.252 . S
O33 In26 2.326 . S
O33 C29 1.260 . S
O34 In26 2.266 . S
O34 C31 1.252 . S
O35 In26 2.326 . S
O35 C31 1.260 . S
C36 O27 1.240 . S
C36 O28 1.252 . S
O37 In26 2.294 . S
O37 C30 1.240 . S
O38 In26 2.326 . S
O38 C30 1.252 . S
In39 O40 2.294 . S
In39 O41 2.326 . S
In39 O45 2.266 . S
In39 O46 2.326 . S
In39 O47 2.266 . S
In39 O48 2.326 . S
In39 O50 2.294 . S
In39 O51 2.326 . S
O40 In39 2.294 . S
O40 C49 1.240 . S
O41 In39 2.326 . S
O41 C49 1.252 . S
C42 O45 1.252 . S
C42 O46 1.260 . S
C43 O50 1.240 . S
C43 O51 1.252 . S
C44 O47 1.252 . S
C44 O48 1.260 . S
O45 In39 2.266 . S
O45 C42 1.252 . S
O46 In39 2.326 . S
O46 C42 1.260 . S
O47 In39 2.266 . S
O47 C44 1.252 . S
O48 In39 2.326 . S
O48 C44 1.260 . S
C49 O40 1.240 . S
C49 O41 1.252 . S
O50 In39 2.294 . S
O50 C43 1.240 . S
O51 In39 2.326 . S
O51 C43 1.252 . S
In52 O53 2.294 . S
In52 O54 2.326 . S
In52 O58 2.266 . S
In52 O59 2.326 . S
In52 O60 2.266 . S
In52 O61 2.326 . S
In52 O63 2.294 . S
In52 O64 2.326 . S
O53 In52 2.294 . S
O53 C62 1.240 . S
O54 In52 2.326 . S
O54 C62 1.252 . S
C55 O58 1.252 . S
C55 O59 1.260 . S
C56 O63 1.240 . S
C56 O64 1.252 . S
C57 O60 1.252 . S
C57 O61 1.260 . S
O58 In52 2.266 . S
O58 C55 1.252 . S
O59 In52 2.326 . S
O59 C55 1.260 . S
O60 In52 2.266 . S
O60 C57 1.252 . S
O61 In52 2.326 . S
O61 C57 1.260 . S
C62 O53 1.240 . S
C62 O54 1.252 . S
O63 In52 2.294 . S
O63 C56 1.240 . S
O64 In52 2.326 . S
O64 C56 1.252 . S
In65 O66 2.294 . S
In65 O67 2.326 . S
In65 O71 2.266 . S
In65 O72 2.326 . S
In65 O73 2.266 . S
In65 O74 2.326 . S
In65 O76 2.294 . S
In65 O77 2.326 . S
O66 In65 2.294 . S
O66 C75 1.240 . S
O67 In65 2.326 . S
O67 C75 1.252 . S
C68 O71 1.252 . S
C68 O72 1.260 . S
C69 O76 1.240 . S
C69 O77 1.252 . S
C70 O73 1.252 . S
C70 O74 1.260 . S
O71 In65 2.266 . S
O71 C68 1.252 . S
O72 In65 2.326 . S
O72 C68 1.260 . S
O73 In65 2.266 . S
O73 C70 1.252 . S
O74 In65 2.326 . S
O74 C70 1.260 . S
C75 O66 1.240 . S
C75 O67 1.252 . S
O76 In65 2.294 . S
O76 C69 1.240 . S
O77 In65 2.326 . S
O77 C69 1.252 . S
In78 O79 2.294 . S
In78 O80 2.326 . S
In78 O84 2.266 . S
In78 O85 2.326 . S
In78 O86 2.266 . S
In78 O87 2.326 . S
In78 O89 2.294 . S
In78 O90 2.326 . S
O79 In78 2.294 . S
O79 C88 1.240 . S
O80 In78 2.326 . S
O80 C88 1.252 . S
C81 O84 1.252 . S
C81 O85 1.260 . S
C82 O89 1.240 . S
C82 O90 1.252 . S
C83 O86 1.252 . S
C83 O87 1.260 . S
O84 In78 2.266 . S
O84 C81 1.252 . S
O85 In78 2.326 . S
O85 C81 1.260 . S
O86 In78 2.266 . S
O86 C83 1.252 . S
O87 In78 2.326 . S
O87 C83 1.260 . S
C88 O79 1.240 . S
C88 O80 1.252 . S
O89 In78 2.294 . S
O89 C82 1.240 . S
O90 In78 2.326 . S
O90 C82 1.252 . S
In91 O92 2.294 . S
In91 O93 2.326 . S
In91 O97 2.266 . S
In91 O98 2.326 . S
In91 O99 2.266 . S
In91 O100 2.326 . S
In91 O102 2.294 . S
In91 O103 2.326 . S
O92 In91 2.294 . S
O92 C101 1.240 . S
O93 In91 2.326 . S
O93 C101 1.252 . S
C94 O97 1.252 . S
C94 O98 1.260 . S
C95 O102 1.240 . S
C95 O103 1.252 . S
C96 O99 1.252 . S
C96 O100 1.260 . S
O97 In91 2.266 . S
O97 C94 1.252 . S
O98 In91 2.326 . S
O98 C94 1.260 . S
O99 In91 2.266 . S
O99 C96 1.252 . S
O100 In91 2.326 . S
O100 C96 1.260 . S
C101 O92 1.240 . S
C101 O93 1.252 . S
O102 In91 2.294 . S
O102 C95 1.240 . S
O103 In91 2.326 . S
O103 C95 1.252 . S
In104 O105 2.294 . S
In104 O106 2.326 . S
In104 O110 2.266 . S
In104 O111 2.326 . S
In104 O112 2.266 . S
In104 O113 2.326 . S
In104 O115 2.294 . S
In104 O116 2.326 . S
O105 In104 2.294 . S
O105 C114 1.240 . S
O106 In104 2.326 . S
O106 C114 1.252 . S
C107 O110 1.252 . S
C107 O111 1.260 . S
C108 O115 1.240 . S
C108 O116 1.252 . S
C109 O112 1.252 . S
C109 O113 1.260 . S
O110 In104 2.266 . S
O110 C107 1.252 . S
O111 In104 2.326 . S
O111 C107 1.260 . S
O112 In104 2.266 . S
O112 C109 1.252 . S
O113 In104 2.326 . S
O113 C109 1.260 . S
C114 O105 1.240 . S
C114 O106 1.252 . S
O115 In104 2.294 . S
O115 C108 1.240 . S
O116 In104 2.326 . S
O116 C108 1.252 . S
In117 O118 2.294 . S
In117 O119 2.326 . S
In117 O123 2.266 . S
In117 O124 2.326 . S
In117 O125 2.266 . S
In117 O126 2.326 . S
In117 O128 2.294 . S
In117 O129 2.326 . S
O118 In117 2.294 . S
O118 C127 1.240 . S
O119 In117 2.326 . S
O119 C127 1.252 . S
C120 O123 1.252 . S
C120 O124 1.260 . S
C121 O128 1.240 . S
C121 O129 1.252 . S
C122 O125 1.252 . S
C122 O126 1.260 . S
O123 In117 2.266 . S
O123 C120 1.252 . S
O124 In117 2.326 . S
O124 C120 1.260 . S
O125 In117 2.266 . S
O125 C122 1.252 . S
O126 In117 2.326 . S
O126 C122 1.260 . S
C127 O118 1.240 . S
C127 O119 1.252 . S
O128 In117 2.294 . S
O128 C121 1.240 . S
O129 In117 2.326 . S
O129 C121 1.252 . S
In130 O131 2.294 . S
In130 O132 2.326 . S
In130 O136 2.266 . S
In130 O137 2.326 . S
In130 O138 2.266 . S
In130 O139 2.326 . S
In130 O141 2.294 . S
In130 O142 2.326 . S
O131 In130 2.294 . S
O131 C140 1.240 . S
O132 In130 2.326 . S
O132 C140 1.252 . S
C133 O136 1.252 . S
C133 O137 1.260 . S
C134 O141 1.240 . S
C134 O142 1.252 . S
C135 O138 1.252 . S
C135 O139 1.260 . S
O136 In130 2.266 . S
O136 C133 1.252 . S
O137 In130 2.326 . S
O137 C133 1.260 . S
O138 In130 2.266 . S
O138 C135 1.252 . S
O139 In130 2.326 . S
O139 C135 1.260 . S
C140 O131 1.240 . S
C140 O132 1.252 . S
O141 In130 2.294 . S
O141 C134 1.240 . S
O142 In130 2.326 . S
O142 C134 1.252 . S
In143 O144 2.294 . S
In143 O145 2.326 . S
In143 O149 2.266 . S
In143 O150 2.326 . S
In143 O151 2.266 . S
In143 O152 2.326 . S
In143 O154 2.294 . S
In143 O155 2.326 . S
O144 In143 2.294 . S
O144 C153 1.240 . S
O145 In143 2.326 . S
O145 C153 1.252 . S
C146 O149 1.252 . S
C146 O150 1.260 . S
C147 O154 1.240 . S
C147 O155 1.252 . S
C148 O151 1.252 . S
C148 O152 1.260 . S
O149 In143 2.266 . S
O149 C146 1.252 . S
O150 In143 2.326 . S
O150 C146 1.260 . S
O151 In143 2.266 . S
O151 C148 1.252 . S
O152 In143 2.326 . S
O152 C148 1.260 . S
C153 O144 1.240 . S
C153 O145 1.252 . S
O154 In143 2.294 . S
O154 C147 1.240 . S
O155 In143 2.326 . S
O155 C147 1.252 . S
In156 O157 2.294 . S
In156 O158 2.326 . S
In156 O162 2.266 . S
In156 O163 2.326 . S
In156 O164 2.266 . S
In156 O165 2.326 . S
In156 O167 2.294 . S
In156 O168 2.326 . S
O157 In156 2.294 . S
O157 C166 1.240 . S
O158 In156 2.326 . S
O158 C166 1.252 . S
C159 O162 1.252 . S
C159 O163 1.260 . S
C160 O167 1.240 . S
C160 O168 1.252 . S
C161 O164 1.252 . S
C161 O165 1.260 . S
O162 In156 2.266 . S
O162 C159 1.252 . S
O163 In156 2.326 . S
O163 C159 1.260 . S
O164 In156 2.266 . S
O164 C161 1.252 . S
O165 In156 2.326 . S
O165 C161 1.260 . S
C166 O157 1.240 . S
C166 O158 1.252 . S
O167 In156 2.294 . S
O167 C160 1.240 . S
O168 In156 2.326 . S
O168 C160 1.252 . S
In169 O170 2.294 . S
In169 O171 2.326 . S
In169 O175 2.266 . S
In169 O176 2.326 . S
In169 O177 2.266 . S
In169 O178 2.326 . S
In169 O180 2.294 . S
In169 O181 2.326 . S
O170 In169 2.294 . S
O170 C179 1.240 . S
O171 In169 2.326 . S
O171 C179 1.252 . S
C172 O175 1.252 . S
C172 O176 1.260 . S
C173 O180 1.240 . S
C173 O181 1.252 . S
C174 O177 1.252 . S
C174 O178 1.260 . S
O175 In169 2.266 . S
O175 C172 1.252 . S
O176 In169 2.326 . S
O176 C172 1.260 . S
O177 In169 2.266 . S
O177 C174 1.252 . S
O178 In169 2.326 . S
O178 C174 1.260 . S
C179 O170 1.240 . S
C179 O171 1.252 . S
O180 In169 2.294 . S
O180 C173 1.240 . S
O181 In169 2.326 . S
O181 C173 1.252 . S
In182 O183 2.294 . S
In182 O184 2.326 . S
In182 O188 2.266 . S
In182 O189 2.326 . S
In182 O190 2.266 . S
In182 O191 2.326 . S
In182 O193 2.294 . S
In182 O194 2.326 . S
O183 In182 2.294 . S
O183 C192 1.240 . S
O184 In182 2.326 . S
O184 C192 1.252 . S
C185 O188 1.252 . S
C185 O189 1.260 . S
C186 O193 1.240 . S
C186 O194 1.252 . S
C187 O190 1.252 . S
C187 O191 1.260 . S
O188 In182 2.266 . S
O188 C185 1.252 . S
O189 In182 2.326 . S
O189 C185 1.260 . S
O190 In182 2.266 . S
O190 C187 1.252 . S
O191 In182 2.326 . S
O191 C187 1.260 . S
C192 O183 1.240 . S
C192 O184 1.252 . S
O193 In182 2.294 . S
O193 C186 1.240 . S
O194 In182 2.326 . S
O194 C186 1.252 . S
In195 O196 2.294 . S
In195 O197 2.326 . S
In195 O201 2.266 . S
In195 O202 2.326 . S
In195 O203 2.266 . S
In195 O204 2.326 . S
In195 O206 2.294 . S
In195 O207 2.326 . S
O196 In195 2.294 . S
O196 C205 1.240 . S
O197 In195 2.326 . S
O197 C205 1.252 . S
C198 O201 1.252 . S
C198 O202 1.260 . S
C199 O206 1.240 . S
C199 O207 1.252 . S
C200 O203 1.252 . S
C200 O204 1.260 . S
O201 In195 2.266 . S
O201 C198 1.252 . S
O202 In195 2.326 . S
O202 C198 1.260 . S
O203 In195 2.266 . S
O203 C200 1.252 . S
O204 In195 2.326 . S
O204 C200 1.260 . S
C205 O196 1.240 . S
C205 O197 1.252 . S
O206 In195 2.294 . S
O206 C199 1.240 . S
O207 In195 2.326 . S
O207 C199 1.252 . S
In208 O209 2.294 . S
In208 O210 2.326 . S
In208 O214 2.266 . S
In208 O215 2.326 . S
In208 O216 2.266 . S
In208 O217 2.326 . S
In208 O219 2.294 . S
In208 O220 2.326 . S
O209 In208 2.294 . S
O209 C218 1.240 . S
O210 In208 2.326 . S
O210 C218 1.252 . S
C211 O214 1.252 . S
C211 O215 1.260 . S
C212 O219 1.240 . S
C212 O220 1.252 . S
C213 O216 1.252 . S
C213 O217 1.260 . S
O214 In208 2.266 . S
O214 C211 1.252 . S
O215 In208 2.326 . S
O215 C211 1.260 . S
O216 In208 2.266 . S
O216 C213 1.252 . S
O217 In208 2.326 . S
O217 C213 1.260 . S
C218 O209 1.240 . S
C218 O210 1.252 . S
O219 In208 2.294 . S
O219 C212 1.240 . S
O220 In208 2.326 . S
O220 C212 1.252 . S
In221 O222 2.294 . S
In221 O223 2.326 . S
In221 O227 2.266 . S
In221 O228 2.326 . S
In221 O229 2.266 . S
In221 O230 2.326 . S
In221 O232 2.294 . S
In221 O233 2.326 . S
O222 In221 2.294 . S
O222 C231 1.240 . S
O223 In221 2.326 . S
O223 C231 1.252 . S
C224 O227 1.252 . S
C224 O228 1.260 . S
C225 O232 1.240 . S
C225 O233 1.252 . S
C226 O229 1.252 . S
C226 O230 1.260 . S
O227 In221 2.266 . S
O227 C224 1.252 . S
O228 In221 2.326 . S
O228 C224 1.260 . S
O229 In221 2.266 . S
O229 C226 1.252 . S
O230 In221 2.326 . S
O230 C226 1.260 . S
C231 O222 1.240 . S
C231 O223 1.252 . S
O232 In221 2.294 . S
O232 C225 1.240 . S
O233 In221 2.326 . S
O233 C225 1.252 . S
In234 O235 2.294 . S
In234 O236 2.326 . S
In234 O240 2.266 . S
In234 O241 2.326 . S
In234 O242 2.266 . S
In234 O243 2.326 . S
In234 O245 2.294 . S
In234 O246 2.326 . S
O235 In234 2.294 . S
O235 C244 1.240 . S
O236 In234 2.326 . S
O236 C244 1.252 . S
C237 O240 1.252 . S
C237 O241 1.260 . S
C238 O245 1.240 . S
C238 O246 1.252 . S
C239 O242 1.252 . S
C239 O243 1.260 . S
O240 In234 2.266 . S
O240 C237 1.252 . S
O241 In234 2.326 . S
O241 C237 1.260 . S
O242 In234 2.266 . S
O242 C239 1.252 . S
O243 In234 2.326 . S
O243 C239 1.260 . S
C244 O235 1.240 . S
C244 O236 1.252 . S
O245 In234 2.294 . S
O245 C238 1.240 . S
O246 In234 2.326 . S
O246 C238 1.252 . S
In247 O248 2.294 . S
In247 O249 2.326 . S
In247 O253 2.266 . S
In247 O254 2.326 . S
In247 O255 2.266 . S
In247 O256 2.326 . S
In247 O258 2.294 . S
In247 O259 2.326 . S
O248 In247 2.294 . S
O248 C257 1.240 . S
O249 In247 2.326 . S
O249 C257 1.252 . S
C250 O253 1.252 . S
C250 O254 1.260 . S
C251 O258 1.240 . S
C251 O259 1.252 . S
C252 O255 1.252 . S
C252 O256 1.260 . S
O253 In247 2.266 . S
O253 C250 1.252 . S
O254 In247 2.326 . S
O254 C250 1.260 . S
O255 In247 2.266 . S
O255 C252 1.252 . S
O256 In247 2.326 . S
O256 C252 1.260 . S
C257 O248 1.240 . S
C257 O249 1.252 . S
O258 In247 2.294 . S
O258 C251 1.240 . S
O259 In247 2.326 . S
O259 C251 1.252 . S
In260 O261 2.294 . S
In260 O262 2.326 . S
In260 O266 2.266 . S
In260 O267 2.326 . S
In260 O268 2.266 . S
In260 O269 2.326 . S
In260 O271 2.294 . S
In260 O272 2.326 . S
O261 In260 2.294 . S
O261 C270 1.240 . S
O262 In260 2.326 . S
O262 C270 1.252 . S
C263 O266 1.252 . S
C263 O267 1.260 . S
C264 O271 1.240 . S
C264 O272 1.252 . S
C265 O268 1.252 . S
C265 O269 1.260 . S
O266 In260 2.266 . S
O266 C263 1.252 . S
O267 In260 2.326 . S
O267 C263 1.260 . S
O268 In260 2.266 . S
O268 C265 1.252 . S
O269 In260 2.326 . S
O269 C265 1.260 . S
C270 O261 1.240 . S
C270 O262 1.252 . S
O271 In260 2.294 . S
O271 C264 1.240 . S
O272 In260 2.326 . S
O272 C264 1.252 . S
In273 O274 2.294 . S
In273 O275 2.326 . S
In273 O279 2.266 . S
In273 O280 2.326 . S
In273 O281 2.266 . S
In273 O282 2.326 . S
In273 O284 2.294 . S
In273 O285 2.326 . S
O274 In273 2.294 . S
O274 C283 1.240 . S
O275 In273 2.326 . S
O275 C283 1.252 . S
C276 O279 1.252 . S
C276 O280 1.260 . S
C277 O284 1.240 . S
C277 O285 1.252 . S
C278 O281 1.252 . S
C278 O282 1.260 . S
O279 In273 2.266 . S
O279 C276 1.252 . S
O280 In273 2.326 . S
O280 C276 1.260 . S
O281 In273 2.266 . S
O281 C278 1.252 . S
O282 In273 2.326 . S
O282 C278 1.260 . S
C283 O274 1.240 . S
C283 O275 1.252 . S
O284 In273 2.294 . S
O284 C277 1.240 . S
O285 In273 2.326 . S
O285 C277 1.252 . S
In286 O287 2.294 . S
In286 O288 2.326 . S
In286 O292 2.266 . S
In286 O293 2.326 . S
In286 O294 2.266 . S
In286 O295 2.326 . S
In286 O297 2.294 . S
In286 O298 2.326 . S
O287 In286 2.294 . S
O287 C296 1.240 . S
O288 In286 2.326 . S
O288 C296 1.252 . S
C289 O292 1.252 . S
C289 O293 1.260 . S
C290 O297 1.240 . S
C290 O298 1.252 . S
C291 O294 1.252 . S
C291 O295 1.260 . S
O292 In286 2.266 . S
O292 C289 1.252 . S
O293 In286 2.326 . S
O293 C289 1.260 . S
O294 In286 2.266 . S
O294 C291 1.252 . S
O295 In286 2.326 . S
O295 C291 1.260 . S
C296 O287 1.240 . S
C296 O288 1.252 . S
O297 In286 2.294 . S
O297 C290 1.240 . S
O298 In286 2.326 . S
O298 C290 1.252 . S
In299 O300 2.294 . S
In299 O301 2.326 . S
In299 O305 2.266 . S
In299 O306 2.326 . S
In299 O307 2.266 . S
In299 O308 2.326 . S
In299 O310 2.294 . S
In299 O311 2.326 . S
O300 In299 2.294 . S
O300 C309 1.240 . S
O301 In299 2.326 . S
O301 C309 1.252 . S
C302 O305 1.252 . S
C302 O306 1.260 . S
C303 O310 1.240 . S
C303 O311 1.252 . S
C304 O307 1.252 . S
C304 O308 1.260 . S
O305 In299 2.266 . S
O305 C302 1.252 . S
O306 In299 2.326 . S
O306 C302 1.260 . S
O307 In299 2.266 . S
O307 C304 1.252 . S
O308 In299 2.326 . S
O308 C304 1.260 . S
C309 O300 1.240 . S
C309 O301 1.252 . S
O310 In299 2.294 . S
O310 C303 1.240 . S
O311 In299 2.326 . S
O311 C303 1.252 . S
In312 O313 2.294 . S
In312 O314 2.326 . S
In312 O318 2.266 . S
In312 O319 2.326 . S
In312 O320 2.266 . S
In312 O321 2.326 . S
In312 O323 2.294 . S
In312 O324 2.326 . S
O313 In312 2.294 . S
O313 C322 1.240 . S
O314 In312 2.326 . S
O314 C322 1.252 . S
C315 O318 1.252 . S
C315 O319 1.260 . S
C316 O323 1.240 . S
C316 O324 1.252 . S
C317 O320 1.252 . S
C317 O321 1.260 . S
O318 In312 2.266 . S
O318 C315 1.252 . S
O319 In312 2.326 . S
O319 C315 1.260 . S
O320 In312 2.266 . S
O320 C317 1.252 . S
O321 In312 2.326 . S
O321 C317 1.260 . S
C322 O313 1.240 . S
C322 O314 1.252 . S
O323 In312 2.294 . S
O323 C316 1.240 . S
O324 In312 2.326 . S
O324 C316 1.252 . S
In325 O326 2.294 . S
In325 O327 2.326 . S
In325 O331 2.266 . S
In325 O332 2.326 . S
In325 O333 2.266 . S
In325 O334 2.326 . S
In325 O336 2.294 . S
In325 O337 2.326 . S
O326 In325 2.294 . S
O326 C335 1.240 . S
O327 In325 2.326 . S
O327 C335 1.252 . S
C328 O331 1.252 . S
C328 O332 1.260 . S
C329 O336 1.240 . S
C329 O337 1.252 . S
C330 O333 1.252 . S
C330 O334 1.260 . S
O331 In325 2.266 . S
O331 C328 1.252 . S
O332 In325 2.326 . S
O332 C328 1.260 . S
O333 In325 2.266 . S
O333 C330 1.252 . S
O334 In325 2.326 . S
O334 C330 1.260 . S
C335 O326 1.240 . S
C335 O327 1.252 . S
O336 In325 2.294 . S
O336 C329 1.240 . S
O337 In325 2.326 . S
O337 C329 1.252 . S
In338 O339 2.294 . S
In338 O340 2.326 . S
In338 O344 2.266 . S
In338 O345 2.326 . S
In338 O346 2.266 . S
In338 O347 2.326 . S
In338 O349 2.294 . S
In338 O350 2.326 . S
O339 In338 2.294 . S
O339 C348 1.240 . S
O340 In338 2.326 . S
O340 C348 1.252 . S
C341 O344 1.252 . S
C341 O345 1.260 . S
C342 O349 1.240 . S
C342 O350 1.252 . S
C343 O346 1.252 . S
C343 O347 1.260 . S
O344 In338 2.266 . S
O344 C341 1.252 . S
O345 In338 2.326 . S
O345 C341 1.260 . S
O346 In338 2.266 . S
O346 C343 1.252 . S
O347 In338 2.326 . S
O347 C343 1.260 . S
C348 O339 1.240 . S
C348 O340 1.252 . S
O349 In338 2.294 . S
O349 C342 1.240 . S
O350 In338 2.326 . S
O350 C342 1.252 . S
In351 O352 2.294 . S
In351 O353 2.326 . S
In351 O357 2.266 . S
In351 O358 2.326 . S
In351 O359 2.266 . S
In351 O360 2.326 . S
In351 O362 2.294 . S
In351 O363 2.326 . S
O352 In351 2.294 . S
O352 C361 1.240 . S
O353 In351 2.326 . S
O353 C361 1.252 . S
C354 O357 1.252 . S
C354 O358 1.260 . S
C355 O362 1.240 . S
C355 O363 1.252 . S
C356 O359 1.252 . S
C356 O360 1.260 . S
O357 In351 2.266 . S
O357 C354 1.252 . S
O358 In351 2.326 . S
O358 C354 1.260 . S
O359 In351 2.266 . S
O359 C356 1.252 . S
O360 In351 2.326 . S
O360 C356 1.260 . S
C361 O352 1.240 . S
C361 O353 1.252 . S
O362 In351 2.294 . S
O362 C355 1.240 . S
O363 In351 2.326 . S
O363 C355 1.252 . S
In364 O365 2.294 . S
In364 O366 2.326 . S
In364 O370 2.266 . S
In364 O371 2.326 . S
In364 O372 2.266 . S
In364 O373 2.326 . S
In364 O375 2.294 . S
In364 O376 2.326 . S
O365 In364 2.294 . S
O365 C374 1.240 . S
O366 In364 2.326 . S
O366 C374 1.252 . S
C367 O370 1.252 . S
C367 O371 1.260 . S
C368 O375 1.240 . S
C368 O376 1.252 . S
C369 O372 1.252 . S
C369 O373 1.260 . S
O370 In364 2.266 . S
O370 C367 1.252 . S
O371 In364 2.326 . S
O371 C367 1.260 . S
O372 In364 2.266 . S
O372 C369 1.252 . S
O373 In364 2.326 . S
O373 C369 1.260 . S
C374 O365 1.240 . S
C374 O366 1.252 . S
O375 In364 2.294 . S
O375 C368 1.240 . S
O376 In364 2.326 . S
O376 C368 1.252 . S
In377 O378 2.294 . S
In377 O379 2.326 . S
In377 O383 2.266 . S
In377 O384 2.326 . S
In377 O385 2.266 . S
In377 O386 2.326 . S
In377 O388 2.294 . S
In377 O389 2.326 . S
O378 In377 2.294 . S
O378 C387 1.240 . S
O379 In377 2.326 . S
O379 C387 1.252 . S
C380 O383 1.252 . S
C380 O384 1.260 . S
C381 O388 1.240 . S
C381 O389 1.252 . S
C382 O385 1.252 . S
C382 O386 1.260 . S
O383 In377 2.266 . S
O383 C380 1.252 . S
O384 In377 2.326 . S
O384 C380 1.260 . S
O385 In377 2.266 . S
O385 C382 1.252 . S
O386 In377 2.326 . S
O386 C382 1.260 . S
C387 O378 1.240 . S
C387 O379 1.252 . S
O388 In377 2.294 . S
O388 C381 1.240 . S
O389 In377 2.326 . S
O389 C381 1.252 . S
In390 O391 2.294 . S
In390 O392 2.326 . S
In390 O396 2.266 . S
In390 O397 2.326 . S
In390 O398 2.266 . S
In390 O399 2.326 . S
In390 O401 2.294 . S
In390 O402 2.326 . S
O391 In390 2.294 . S
O391 C400 1.240 . S
O392 In390 2.326 . S
O392 C400 1.252 . S
C393 O396 1.252 . S
C393 O397 1.260 . S
C394 O401 1.240 . S
C394 O402 1.252 . S
C395 O398 1.252 . S
C395 O399 1.260 . S
O396 In390 2.266 . S
O396 C393 1.252 . S
O397 In390 2.326 . S
O397 C393 1.260 . S
O398 In390 2.266 . S
O398 C395 1.252 . S
O399 In390 2.326 . S
O399 C395 1.260 . S
C400 O391 1.240 . S
C400 O392 1.252 . S
O401 In390 2.294 . S
O401 C394 1.240 . S
O402 In390 2.326 . S
O402 C394 1.252 . S
In403 O404 2.294 . S
In403 O405 2.326 . S
In403 O409 2.266 . S
In403 O410 2.326 . S
In403 O411 2.266 . S
In403 O412 2.326 . S
In403 O414 2.294 . S
In403 O415 2.326 . S
O404 In403 2.294 . S
O404 C413 1.240 . S
O405 In403 2.326 . S
O405 C413 1.252 . S
C406 O409 1.252 . S
C406 O410 1.260 . S
C407 O414 1.240 . S
C407 O415 1.252 . S
C408 O411 1.252 . S
C408 O412 1.260 . S
O409 In403 2.266 . S
O409 C406 1.252 . S
O410 In403 2.326 . S
O410 C406 1.260 . S
O411 In403 2.266 . S
O411 C408 1.252 . S
O412 In403 2.326 . S
O412 C408 1.260 . S
C413 O404 1.240 . S
C413 O405 1.252 . S
O414 In403 2.294 . S
O414 C407 1.240 . S
O415 In403 2.326 . S
O415 C407 1.252 . S
In416 O417 2.294 . S
In416 O418 2.326 . S
In416 O422 2.266 . S
In416 O423 2.326 . S
In416 O424 2.266 . S
In416 O425 2.326 . S
In416 O427 2.294 . S
In416 O428 2.326 . S
O417 In416 2.294 . S
O417 C426 1.240 . S
O418 In416 2.326 . S
O418 C426 1.252 . S
C419 O422 1.252 . S
C419 O423 1.260 . S
C420 O427 1.240 . S
C420 O428 1.252 . S
C421 O424 1.252 . S
C421 O425 1.260 . S
O422 In416 2.266 . S
O422 C419 1.252 . S
O423 In416 2.326 . S
O423 C419 1.260 . S
O424 In416 2.266 . S
O424 C421 1.252 . S
O425 In416 2.326 . S
O425 C421 1.260 . S
C426 O417 1.240 . S
C426 O418 1.252 . S
O427 In416 2.294 . S
O427 C420 1.240 . S
O428 In416 2.326 . S
O428 C420 1.252 . S
In429 O430 2.294 . S
In429 O431 2.326 . S
In429 O435 2.266 . S
In429 O436 2.326 . S
In429 O437 2.266 . S
In429 O438 2.326 . S
In429 O440 2.294 . S
In429 O441 2.326 . S
O430 In429 2.294 . S
O430 C439 1.240 . S
O431 In429 2.326 . S
O431 C439 1.252 . S
C432 O435 1.252 . S
C432 O436 1.260 . S
C433 O440 1.240 . S
C433 O441 1.252 . S
C434 O437 1.252 . S
C434 O438 1.260 . S
O435 In429 2.266 . S
O435 C432 1.252 . S
O436 In429 2.326 . S
O436 C432 1.260 . S
O437 In429 2.266 . S
O437 C434 1.252 . S
O438 In429 2.326 . S
O438 C434 1.260 . S
C439 O430 1.240 . S
C439 O431 1.252 . S
O440 In429 2.294 . S
O440 C433 1.240 . S
O441 In429 2.326 . S
O441 C433 1.252 . S
In442 O443 2.294 . S
In442 O444 2.326 . S
In442 O448 2.266 . S
In442 O449 2.326 . S
In442 O450 2.266 . S
In442 O451 2.326 . S
In442 O453 2.294 . S
In442 O454 2.326 . S
O443 In442 2.294 . S
O443 C452 1.240 . S
O444 In442 2.326 . S
O444 C452 1.252 . S
C445 O448 1.252 . S
C445 O449 1.260 . S
C446 O453 1.240 . S
C446 O454 1.252 . S
C447 O450 1.252 . S
C447 O451 1.260 . S
O448 In442 2.266 . S
O448 C445 1.252 . S
O449 In442 2.326 . S
O449 C445 1.260 . S
O450 In442 2.266 . S
O450 C447 1.252 . S
O451 In442 2.326 . S
O451 C447 1.260 . S
C452 O443 1.240 . S
C452 O444 1.252 . S
O453 In442 2.294 . S
O453 C446 1.240 . S
O454 In442 2.326 . S
O454 C446 1.252 . S
In455 O456 2.294 . S
In455 O457 2.326 . S
In455 O461 2.266 . S
In455 O462 2.326 . S
In455 O463 2.266 . S
In455 O464 2.326 . S
In455 O466 2.294 . S
In455 O467 2.326 . S
O456 In455 2.294 . S
O456 C465 1.240 . S
O457 In455 2.326 . S
O457 C465 1.252 . S
C458 O461 1.252 . S
C458 O462 1.260 . S
C459 O466 1.240 . S
C459 O467 1.252 . S
C460 O463 1.252 . S
C460 O464 1.260 . S
O461 In455 2.266 . S
O461 C458 1.252 . S
O462 In455 2.326 . S
O462 C458 1.260 . S
O463 In455 2.266 . S
O463 C460 1.252 . S
O464 In455 2.326 . S
O464 C460 1.260 . S
C465 O456 1.240 . S
C465 O457 1.252 . S
O466 In455 2.294 . S
O466 C459 1.240 . S
O467 In455 2.326 . S
O467 C459 1.252 . S
In468 O469 2.294 . S
In468 O470 2.326 . S
In468 O474 2.266 . S
In468 O475 2.326 . S
In468 O476 2.266 . S
In468 O477 2.326 . S
In468 O479 2.294 . S
In468 O480 2.326 . S
O469 In468 2.294 . S
O469 C478 1.240 . S
O470 In468 2.326 . S
O470 C478 1.252 . S
C471 O474 1.252 . S
C471 O475 1.260 . S
C472 O479 1.240 . S
C472 O480 1.252 . S
C473 O476 1.252 . S
C473 O477 1.260 . S
O474 In468 2.266 . S
O474 C471 1.252 . S
O475 In468 2.326 . S
O475 C471 1.260 . S
O476 In468 2.266 . S
O476 C473 1.252 . S
O477 In468 2.326 . S
O477 C473 1.260 . S
C478 O469 1.240 . S
C478 O470 1.252 . S
O479 In468 2.294 . S
O479 C472 1.240 . S
O480 In468 2.326 . S
O480 C472 1.252 . S
In481 O482 2.294 . S
In481 O483 2.326 . S
In481 O487 2.266 . S
In481 O488 2.326 . S
In481 O489 2.266 . S
In481 O490 2.326 . S
In481 O492 2.294 . S
In481 O493 2.326 . S
O482 In481 2.294 . S
O482 C491 1.240 . S
O483 In481 2.326 . S
O483 C491 1.252 . S
C484 O487 1.252 . S
C484 O488 1.260 . S
C485 O492 1.240 . S
C485 O493 1.252 . S
C486 O489 1.252 . S
C486 O490 1.260 . S
O487 In481 2.266 . S
O487 C484 1.252 . S
O488 In481 2.326 . S
O488 C484 1.260 . S
O489 In481 2.266 . S
O489 C486 1.252 . S
O490 In481 2.326 . S
O490 C486 1.260 . S
C491 O482 1.240 . S
C491 O483 1.252 . S
O492 In481 2.294 . S
O492 C485 1.240 . S
O493 In481 2.326 . S
O493 C485 1.252 . S
In494 O495 2.294 . S
In494 O496 2.326 . S
In494 O500 2.266 . S
In494 O501 2.326 . S
In494 O502 2.266 . S
In494 O503 2.326 . S
In494 O505 2.294 . S
In494 O506 2.326 . S
O495 In494 2.294 . S
O495 C504 1.240 . S
O496 In494 2.326 . S
O496 C504 1.252 . S
C497 O500 1.252 . S
C497 O501 1.260 . S
C498 O505 1.240 . S
C498 O506 1.252 . S
C499 O502 1.252 . S
C499 O503 1.260 . S
O500 In494 2.266 . S
O500 C497 1.252 . S
O501 In494 2.326 . S
O501 C497 1.260 . S
O502 In494 2.266 . S
O502 C499 1.252 . S
O503 In494 2.326 . S
O503 C499 1.260 . S
C504 O495 1.240 . S
C504 O496 1.252 . S
O505 In494 2.294 . S
O505 C498 1.240 . S
O506 In494 2.326 . S
O506 C498 1.252 . S
In507 O508 2.294 . S
In507 O509 2.326 . S
In507 O513 2.266 . S
In507 O514 2.326 . S
In507 O515 2.266 . S
In507 O516 2.326 . S
In507 O518 2.294 . S
In507 O519 2.326 . S
O508 In507 2.294 . S
O508 C517 1.240 . S
O509 In507 2.326 . S
O509 C517 1.252 . S
C510 O513 1.252 . S
C510 O514 1.260 . S
C511 O518 1.240 . S
C511 O519 1.252 . S
C512 O515 1.252 . S
C512 O516 1.260 . S
O513 In507 2.266 . S
O513 C510 1.252 . S
O514 In507 2.326 . S
O514 C510 1.260 . S
O515 In507 2.266 . S
O515 C512 1.252 . S
O516 In507 2.326 . S
O516 C512 1.260 . S
C517 O508 1.240 . S
C517 O509 1.252 . S
O518 In507 2.294 . S
O518 C511 1.240 . S
O519 In507 2.326 . S
O519 C511 1.252 . S
In520 O521 2.294 . S
In520 O522 2.326 . S
In520 O526 2.266 . S
In520 O527 2.326 . S
In520 O528 2.266 . S
In520 O529 2.326 . S
In520 O531 2.294 . S
In520 O532 2.326 . S
O521 In520 2.294 . S
O521 C530 1.240 . S
O522 In520 2.326 . S
O522 C530 1.252 . S
C523 O526 1.252 . S
C523 O527 1.260 . S
C524 O531 1.240 . S
C524 O532 1.252 . S
C525 O528 1.252 . S
C525 O529 1.260 . S
O526 In520 2.266 . S
O526 C523 1.252 . S
O527 In520 2.326 . S
O527 C523 1.260 . S
O528 In520 2.266 . S
O528 C525 1.252 . S
O529 In520 2.326 . S
O529 C525 1.260 . S
C530 O521 1.240 . S
C530 O522 1.252 . S
O531 In520 2.294 . S
O531 C524 1.240 . S
O532 In520 2.326 . S
O532 C524 1.252 . S
In533 O534 2.294 . S
In533 O535 2.326 . S
In533 O539 2.266 . S
In533 O540 2.326 . S
In533 O541 2.266 . S
In533 O542 2.326 . S
In533 O544 2.294 . S
In533 O545 2.326 . S
O534 In533 2.294 . S
O534 C543 1.240 . S
O535 In533 2.326 . S
O535 C543 1.252 . S
C536 O539 1.252 . S
C536 O540 1.260 . S
C537 O544 1.240 . S
C537 O545 1.252 . S
C538 O541 1.252 . S
C538 O542 1.260 . S
O539 In533 2.266 . S
O539 C536 1.252 . S
O540 In533 2.326 . S
O540 C536 1.260 . S
O541 In533 2.266 . S
O541 C538 1.252 . S
O542 In533 2.326 . S
O542 C538 1.260 . S
C543 O534 1.240 . S
C543 O535 1.252 . S
O544 In533 2.294 . S
O544 C537 1.240 . S
O545 In533 2.326 . S
O545 C537 1.252 . S
In546 O547 2.294 . S
In546 O548 2.326 . S
In546 O552 2.266 . S
In546 O553 2.326 . S
In546 O554 2.266 . S
In546 O555 2.326 . S
In546 O557 2.294 . S
In546 O558 2.326 . S
O547 In546 2.294 . S
O547 C556 1.240 . S
O548 In546 2.326 . S
O548 C556 1.252 . S
C549 O552 1.252 . S
C549 O553 1.260 . S
C550 O557 1.240 . S
C550 O558 1.252 . S
C551 O554 1.252 . S
C551 O555 1.260 . S
O552 In546 2.266 . S
O552 C549 1.252 . S
O553 In546 2.326 . S
O553 C549 1.260 . S
O554 In546 2.266 . S
O554 C551 1.252 . S
O555 In546 2.326 . S
O555 C551 1.260 . S
C556 O547 1.240 . S
C556 O548 1.252 . S
O557 In546 2.294 . S
O557 C550 1.240 . S
O558 In546 2.326 . S
O558 C550 1.252 . S
In559 O560 2.294 . S
In559 O561 2.326 . S
In559 O565 2.266 . S
In559 O566 2.326 . S
In559 O567 2.266 . S
In559 O568 2.326 . S
In559 O570 2.294 . S
In559 O571 2.326 . S
O560 In559 2.294 . S
O560 C569 1.240 . S
O561 In559 2.326 . S
O561 C569 1.252 . S
C562 O565 1.252 . S
C562 O566 1.260 . S
C563 O570 1.240 . S
C563 O571 1.252 . S
C564 O567 1.252 . S
C564 O568 1.260 . S
O565 In559 2.266 . S
O565 C562 1.252 . S
O566 In559 2.326 . S
O566 C562 1.260 . S
O567 In559 2.266 . S
O567 C564 1.252 . S
O568 In559 2.326 . S
O568 C564 1.260 . S
C569 O560 1.240 . S
C569 O561 1.252 . S
O570 In559 2.294 . S
O570 C563 1.240 . S
O571 In559 2.326 . S
O571 C563 1.252 . S
In572 O573 2.294 . S
In572 O574 2.326 . S
In572 O578 2.266 . S
In572 O579 2.326 . S
In572 O580 2.266 . S
In572 O581 2.326 . S
In572 O583 2.294 . S
In572 O584 2.326 . S
O573 In572 2.294 . S
O573 C582 1.240 . S
O574 In572 2.326 . S
O574 C582 1.252 . S
C575 O578 1.252 . S
C575 O579 1.260 . S
C576 O583 1.240 . S
C576 O584 1.252 . S
C577 O580 1.252 . S
C577 O581 1.260 . S
O578 In572 2.266 . S
O578 C575 1.252 . S
O579 In572 2.326 . S
O579 C575 1.260 . S
O580 In572 2.266 . S
O580 C577 1.252 . S
O581 In572 2.326 . S
O581 C577 1.260 . S
C582 O573 1.240 . S
C582 O574 1.252 . S
O583 In572 2.294 . S
O583 C576 1.240 . S
O584 In572 2.326 . S
O584 C576 1.252 . S
In585 O586 2.294 . S
In585 O587 2.326 . S
In585 O591 2.266 . S
In585 O592 2.326 . S
In585 O593 2.266 . S
In585 O594 2.326 . S
In585 O596 2.294 . S
In585 O597 2.326 . S
O586 In585 2.294 . S
O586 C595 1.240 . S
O587 In585 2.326 . S
O587 C595 1.252 . S
C588 O591 1.252 . S
C588 O592 1.260 . S
C589 O596 1.240 . S
C589 O597 1.252 . S
C590 O593 1.252 . S
C590 O594 1.260 . S
O591 In585 2.266 . S
O591 C588 1.252 . S
O592 In585 2.326 . S
O592 C588 1.260 . S
O593 In585 2.266 . S
O593 C590 1.252 . S
O594 In585 2.326 . S
O594 C590 1.260 . S
C595 O586 1.240 . S
C595 O587 1.252 . S
O596 In585 2.294 . S
O596 C589 1.240 . S
O597 In585 2.326 . S
O597 C589 1.252 . S
In598 O599 2.294 . S
In598 O600 2.326 . S
In598 O604 2.266 . S
In598 O605 2.326 . S
In598 O606 2.266 . S
In598 O607 2.326 . S
In598 O609 2.294 . S
In598 O610 2.326 . S
O599 In598 2.294 . S
O599 C608 1.240 . S
O600 In598 2.326 . S
O600 C608 1.252 . S
C601 O604 1.252 . S
C601 O605 1.260 . S
C602 O609 1.240 . S
C602 O610 1.252 . S
C603 O606 1.252 . S
C603 O607 1.260 . S
O604 In598 2.266 . S
O604 C601 1.252 . S
O605 In598 2.326 . S
O605 C601 1.260 . S
O606 In598 2.266 . S
O606 C603 1.252 . S
O607 In598 2.326 . S
O607 C603 1.260 . S
C608 O599 1.240 . S
C608 O600 1.252 . S
O609 In598 2.294 . S
O609 C602 1.240 . S
O610 In598 2.326 . S
O610 C602 1.252 . S
In611 O612 2.294 . S
In611 O613 2.326 . S
In611 O617 2.266 . S
In611 O618 2.326 . S
In611 O619 2.266 . S
In611 O620 2.326 . S
In611 O622 2.294 . S
In611 O623 2.326 . S
O612 In611 2.294 . S
O612 C621 1.240 . S
O613 In611 2.326 . S
O613 C621 1.252 . S
C614 O617 1.252 . S
C614 O618 1.260 . S
C615 O622 1.240 . S
C615 O623 1.252 . S
C616 O619 1.252 . S
C616 O620 1.260 . S
O617 In611 2.266 . S
O617 C614 1.252 . S
O618 In611 2.326 . S
O618 C614 1.260 . S
O619 In611 2.266 . S
O619 C616 1.252 . S
O620 In611 2.326 . S
O620 C616 1.260 . S
C621 O612 1.240 . S
C621 O613 1.252 . S
O622 In611 2.294 . S
O622 C615 1.240 . S
O623 In611 2.326 . S
O623 C615 1.252 . S
H624 C636 0.930 . S
H625 C638 0.930 . S
H626 C639 0.930 . S
H627 C643 0.959 . S
H628 C643 0.959 . S
H629 C643 0.961 . S
H630 C644 0.960 . S
H631 C644 0.961 . S
H632 C644 0.959 . S
H633 C647 0.929 . S
H634 C648 0.931 . S
H635 C650 0.930 . S
C636 H624 0.930 . S
C636 C637 1.399 . S
C636 C641 1.399 . S
C637 C636 1.399 . S
C637 C638 1.376 . S
C638 H625 0.930 . S
C638 C637 1.376 . S
C638 C639 1.388 . S
C639 H626 0.930 . S
C639 C638 1.388 . S
C639 C640 1.390 . S
C640 C639 1.390 . S
C640 C641 1.394 . S
C640 C646 1.465 . S
C641 C636 1.399 . S
C641 C640 1.394 . S
C641 C642 1.516 . S
C642 C641 1.516 . S
C642 C643 1.502 . S
C642 C644 1.561 . S
C642 C645 1.526 . S
C643 H627 0.959 . S
C643 H628 0.959 . S
C643 H629 0.961 . S
C643 C642 1.502 . S
C644 H630 0.960 . S
C644 H631 0.961 . S
C644 H632 0.959 . S
C644 C642 1.561 . S
C645 C642 1.526 . S
C645 C646 1.396 . S
C645 C650 1.390 . S
C646 C640 1.465 . S
C646 C645 1.396 . S
C646 C647 1.399 . S
C647 H633 0.929 . S
C647 C646 1.399 . S
C647 C648 1.385 . S
C648 H634 0.931 . S
C648 C647 1.385 . S
C648 C649 1.389 . S
C649 C648 1.389 . S
C649 C650 1.387 . S
C650 H635 0.930 . S
C650 C645 1.390 . S
C650 C649 1.387 . S
H651 C663 0.930 . S
H652 C665 0.930 . S
H653 C666 0.930 . S
H654 C670 0.959 . S
H655 C670 0.959 . S
H656 C670 0.961 . S
H657 C671 0.960 . S
H658 C671 0.961 . S
H659 C671 0.959 . S
H660 C674 0.929 . S
H661 C675 0.931 . S
H662 C677 0.930 . S
C663 H651 0.930 . S
C663 C664 1.399 . S
C663 C668 1.399 . S
C664 C663 1.399 . S
C664 C665 1.376 . S
C665 H652 0.930 . S
C665 C664 1.376 . S
C665 C666 1.388 . S
C666 H653 0.930 . S
C666 C665 1.388 . S
C666 C667 1.390 . S
C667 C666 1.390 . S
C667 C668 1.394 . S
C667 C673 1.465 . S
C668 C663 1.399 . S
C668 C667 1.394 . S
C668 C669 1.516 . S
C669 C668 1.516 . S
C669 C670 1.502 . S
C669 C671 1.561 . S
C669 C672 1.526 . S
C670 H654 0.959 . S
C670 H655 0.959 . S
C670 H656 0.961 . S
C670 C669 1.502 . S
C671 H657 0.960 . S
C671 H658 0.961 . S
C671 H659 0.959 . S
C671 C669 1.561 . S
C672 C669 1.526 . S
C672 C673 1.396 . S
C672 C677 1.390 . S
C673 C667 1.465 . S
C673 C672 1.396 . S
C673 C674 1.399 . S
C674 H660 0.929 . S
C674 C673 1.399 . S
C674 C675 1.385 . S
C675 H661 0.931 . S
C675 C674 1.385 . S
C675 C676 1.389 . S
C676 C675 1.389 . S
C676 C677 1.387 . S
C677 H662 0.930 . S
C677 C672 1.390 . S
C677 C676 1.387 . S
H678 C690 0.930 . S
H679 C692 0.930 . S
H680 C693 0.930 . S
H681 C697 0.959 . S
H682 C697 0.959 . S
H683 C697 0.961 . S
H684 C698 0.960 . S
H685 C698 0.961 . S
H686 C698 0.959 . S
H687 C701 0.929 . S
H688 C702 0.931 . S
H689 C704 0.930 . S
C690 H678 0.930 . S
C690 C691 1.399 . S
C690 C695 1.399 . S
C691 C690 1.399 . S
C691 C692 1.376 . S
C692 H679 0.930 . S
C692 C691 1.376 . S
C692 C693 1.388 . S
C693 H680 0.930 . S
C693 C692 1.388 . S
C693 C694 1.390 . S
C694 C693 1.390 . S
C694 C695 1.394 . S
C694 C700 1.465 . S
C695 C690 1.399 . S
C695 C694 1.394 . S
C695 C696 1.516 . S
C696 C695 1.516 . S
C696 C697 1.502 . S
C696 C698 1.561 . S
C696 C699 1.526 . S
C697 H681 0.959 . S
C697 H682 0.959 . S
C697 H683 0.961 . S
C697 C696 1.502 . S
C698 H684 0.960 . S
C698 H685 0.961 . S
C698 H686 0.959 . S
C698 C696 1.561 . S
C699 C696 1.526 . S
C699 C700 1.396 . S
C699 C704 1.390 . S
C700 C694 1.465 . S
C700 C699 1.396 . S
C700 C701 1.399 . S
C701 H687 0.929 . S
C701 C700 1.399 . S
C701 C702 1.385 . S
C702 H688 0.931 . S
C702 C701 1.385 . S
C702 C703 1.389 . S
C703 C702 1.389 . S
C703 C704 1.387 . S
C704 H689 0.930 . S
C704 C699 1.390 . S
C704 C703 1.387 . S
H705 C717 0.930 . S
H706 C719 0.930 . S
H707 C720 0.930 . S
H708 C724 0.959 . S
H709 C724 0.959 . S
H710 C724 0.961 . S
H711 C725 0.960 . S
H712 C725 0.961 . S
H713 C725 0.959 . S
H714 C728 0.929 . S
H715 C729 0.931 . S
H716 C731 0.930 . S
C717 H705 0.930 . S
C717 C718 1.399 . S
C717 C722 1.399 . S
C718 C717 1.399 . S
C718 C719 1.376 . S
C719 H706 0.930 . S
C719 C718 1.376 . S
C719 C720 1.388 . S
C720 H707 0.930 . S
C720 C719 1.388 . S
C720 C721 1.390 . S
C721 C720 1.390 . S
C721 C722 1.394 . S
C721 C727 1.465 . S
C722 C717 1.399 . S
C722 C721 1.394 . S
C722 C723 1.516 . S
C723 C722 1.516 . S
C723 C724 1.502 . S
C723 C725 1.561 . S
C723 C726 1.526 . S
C724 H708 0.959 . S
C724 H709 0.959 . S
C724 H710 0.961 . S
C724 C723 1.502 . S
C725 H711 0.960 . S
C725 H712 0.961 . S
C725 H713 0.959 . S
C725 C723 1.561 . S
C726 C723 1.526 . S
C726 C727 1.396 . S
C726 C731 1.390 . S
C727 C721 1.465 . S
C727 C726 1.396 . S
C727 C728 1.399 . S
C728 H714 0.929 . S
C728 C727 1.399 . S
C728 C729 1.385 . S
C729 H715 0.931 . S
C729 C728 1.385 . S
C729 C730 1.389 . S
C730 C729 1.389 . S
C730 C731 1.387 . S
C731 H716 0.930 . S
C731 C726 1.390 . S
C731 C730 1.387 . S
H732 C744 0.930 . S
H733 C746 0.930 . S
H734 C747 0.930 . S
H735 C751 0.959 . S
H736 C751 0.959 . S
H737 C751 0.961 . S
H738 C752 0.960 . S
H739 C752 0.961 . S
H740 C752 0.959 . S
H741 C755 0.929 . S
H742 C756 0.931 . S
H743 C758 0.930 . S
C744 H732 0.930 . S
C744 C745 1.399 . S
C744 C749 1.399 . S
C745 C744 1.399 . S
C745 C746 1.376 . S
C746 H733 0.930 . S
C746 C745 1.376 . S
C746 C747 1.388 . S
C747 H734 0.930 . S
C747 C746 1.388 . S
C747 C748 1.390 . S
C748 C747 1.390 . S
C748 C749 1.394 . S
C748 C754 1.465 . S
C749 C744 1.399 . S
C749 C748 1.394 . S
C749 C750 1.516 . S
C750 C749 1.516 . S
C750 C751 1.502 . S
C750 C752 1.561 . S
C750 C753 1.526 . S
C751 H735 0.959 . S
C751 H736 0.959 . S
C751 H737 0.961 . S
C751 C750 1.502 . S
C752 H738 0.960 . S
C752 H739 0.961 . S
C752 H740 0.959 . S
C752 C750 1.561 . S
C753 C750 1.526 . S
C753 C754 1.396 . S
C753 C758 1.390 . S
C754 C748 1.465 . S
C754 C753 1.396 . S
C754 C755 1.399 . S
C755 H741 0.929 . S
C755 C754 1.399 . S
C755 C756 1.385 . S
C756 H742 0.931 . S
C756 C755 1.385 . S
C756 C757 1.389 . S
C757 C756 1.389 . S
C757 C758 1.387 . S
C758 H743 0.930 . S
C758 C753 1.390 . S
C758 C757 1.387 . S
H759 C771 0.930 . S
H760 C773 0.930 . S
H761 C774 0.930 . S
H762 C778 0.959 . S
H763 C778 0.959 . S
H764 C778 0.961 . S
H765 C779 0.960 . S
H766 C779 0.961 . S
H767 C779 0.959 . S
H768 C782 0.929 . S
H769 C783 0.931 . S
H770 C785 0.930 . S
C771 H759 0.930 . S
C771 C772 1.399 . S
C771 C776 1.399 . S
C772 C771 1.399 . S
C772 C773 1.376 . S
C773 H760 0.930 . S
C773 C772 1.376 . S
C773 C774 1.388 . S
C774 H761 0.930 . S
C774 C773 1.388 . S
C774 C775 1.390 . S
C775 C774 1.390 . S
C775 C776 1.394 . S
C775 C781 1.465 . S
C776 C771 1.399 . S
C776 C775 1.394 . S
C776 C777 1.516 . S
C777 C776 1.516 . S
C777 C778 1.502 . S
C777 C779 1.561 . S
C777 C780 1.526 . S
C778 H762 0.959 . S
C778 H763 0.959 . S
C778 H764 0.961 . S
C778 C777 1.502 . S
C779 H765 0.960 . S
C779 H766 0.961 . S
C779 H767 0.959 . S
C779 C777 1.561 . S
C780 C777 1.526 . S
C780 C781 1.396 . S
C780 C785 1.390 . S
C781 C775 1.465 . S
C781 C780 1.396 . S
C781 C782 1.399 . S
C782 H768 0.929 . S
C782 C781 1.399 . S
C782 C783 1.385 . S
C783 H769 0.931 . S
C783 C782 1.385 . S
C783 C784 1.389 . S
C784 C783 1.389 . S
C784 C785 1.387 . S
C785 H770 0.930 . S
C785 C780 1.390 . S
C785 C784 1.387 . S
H786 C798 0.930 . S
H787 C800 0.930 . S
H788 C801 0.930 . S
H789 C805 0.959 . S
H790 C805 0.959 . S
H791 C805 0.961 . S
H792 C806 0.960 . S
H793 C806 0.961 . S
H794 C806 0.959 . S
H795 C809 0.929 . S
H796 C810 0.931 . S
H797 C812 0.930 . S
C798 H786 0.930 . S
C798 C799 1.399 . S
C798 C803 1.399 . S
C799 C798 1.399 . S
C799 C800 1.376 . S
C800 H787 0.930 . S
C800 C799 1.376 . S
C800 C801 1.388 . S
C801 H788 0.930 . S
C801 C800 1.388 . S
C801 C802 1.390 . S
C802 C801 1.390 . S
C802 C803 1.394 . S
C802 C808 1.465 . S
C803 C798 1.399 . S
C803 C802 1.394 . S
C803 C804 1.516 . S
C804 C803 1.516 . S
C804 C805 1.502 . S
C804 C806 1.561 . S
C804 C807 1.526 . S
C805 H789 0.959 . S
C805 H790 0.959 . S
C805 H791 0.961 . S
C805 C804 1.502 . S
C806 H792 0.960 . S
C806 H793 0.961 . S
C806 H794 0.959 . S
C806 C804 1.561 . S
C807 C804 1.526 . S
C807 C808 1.396 . S
C807 C812 1.390 . S
C808 C802 1.465 . S
C808 C807 1.396 . S
C808 C809 1.399 . S
C809 H795 0.929 . S
C809 C808 1.399 . S
C809 C810 1.385 . S
C810 H796 0.931 . S
C810 C809 1.385 . S
C810 C811 1.389 . S
C811 C810 1.389 . S
C811 C812 1.387 . S
C812 H797 0.930 . S
C812 C807 1.390 . S
C812 C811 1.387 . S
H813 C825 0.930 . S
H814 C827 0.930 . S
H815 C828 0.930 . S
H816 C832 0.959 . S
H817 C832 0.959 . S
H818 C832 0.961 . S
H819 C833 0.960 . S
H820 C833 0.961 . S
H821 C833 0.959 . S
H822 C836 0.929 . S
H823 C837 0.931 . S
H824 C839 0.930 . S
C825 H813 0.930 . S
C825 C826 1.399 . S
C825 C830 1.399 . S
C826 C825 1.399 . S
C826 C827 1.376 . S
C827 H814 0.930 . S
C827 C826 1.376 . S
C827 C828 1.388 . S
C828 H815 0.930 . S
C828 C827 1.388 . S
C828 C829 1.390 . S
C829 C828 1.390 . S
C829 C830 1.394 . S
C829 C835 1.465 . S
C830 C825 1.399 . S
C830 C829 1.394 . S
C830 C831 1.516 . S
C831 C830 1.516 . S
C831 C832 1.502 . S
C831 C833 1.561 . S
C831 C834 1.526 . S
C832 H816 0.959 . S
C832 H817 0.959 . S
C832 H818 0.961 . S
C832 C831 1.502 . S
C833 H819 0.960 . S
C833 H820 0.961 . S
C833 H821 0.959 . S
C833 C831 1.561 . S
C834 C831 1.526 . S
C834 C835 1.396 . S
C834 C839 1.390 . S
C835 C829 1.465 . S
C835 C834 1.396 . S
C835 C836 1.399 . S
C836 H822 0.929 . S
C836 C835 1.399 . S
C836 C837 1.385 . S
C837 H823 0.931 . S
C837 C836 1.385 . S
C837 C838 1.389 . S
C838 C837 1.389 . S
C838 C839 1.387 . S
C839 H824 0.930 . S
C839 C834 1.390 . S
C839 C838 1.387 . S
H840 C852 0.930 . S
H841 C854 0.930 . S
H842 C855 0.930 . S
H843 C859 0.959 . S
H844 C859 0.959 . S
H845 C859 0.961 . S
H846 C860 0.960 . S
H847 C860 0.961 . S
H848 C860 0.959 . S
H849 C863 0.929 . S
H850 C864 0.931 . S
H851 C866 0.930 . S
C852 H840 0.930 . S
C852 C853 1.399 . S
C852 C857 1.399 . S
C853 C852 1.399 . S
C853 C854 1.376 . S
C854 H841 0.930 . S
C854 C853 1.376 . S
C854 C855 1.388 . S
C855 H842 0.930 . S
C855 C854 1.388 . S
C855 C856 1.390 . S
C856 C855 1.390 . S
C856 C857 1.394 . S
C856 C862 1.465 . S
C857 C852 1.399 . S
C857 C856 1.394 . S
C857 C858 1.516 . S
C858 C857 1.516 . S
C858 C859 1.502 . S
C858 C860 1.561 . S
C858 C861 1.526 . S
C859 H843 0.959 . S
C859 H844 0.959 . S
C859 H845 0.961 . S
C859 C858 1.502 . S
C860 H846 0.960 . S
C860 H847 0.961 . S
C860 H848 0.959 . S
C860 C858 1.561 . S
C861 C858 1.526 . S
C861 C862 1.396 . S
C861 C866 1.390 . S
C862 C856 1.465 . S
C862 C861 1.396 . S
C862 C863 1.399 . S
C863 H849 0.929 . S
C863 C862 1.399 . S
C863 C864 1.385 . S
C864 H850 0.931 . S
C864 C863 1.385 . S
C864 C865 1.389 . S
C865 C864 1.389 . S
C865 C866 1.387 . S
C866 H851 0.930 . S
C866 C861 1.390 . S
C866 C865 1.387 . S
H867 C879 0.930 . S
H868 C881 0.930 . S
H869 C882 0.930 . S
H870 C886 0.959 . S
H871 C886 0.959 . S
H872 C886 0.961 . S
H873 C887 0.960 . S
H874 C887 0.961 . S
H875 C887 0.959 . S
H876 C890 0.929 . S
H877 C891 0.931 . S
H878 C893 0.930 . S
C879 H867 0.930 . S
C879 C880 1.399 . S
C879 C884 1.399 . S
C880 C879 1.399 . S
C880 C881 1.376 . S
C881 H868 0.930 . S
C881 C880 1.376 . S
C881 C882 1.388 . S
C882 H869 0.930 . S
C882 C881 1.388 . S
C882 C883 1.390 . S
C883 C882 1.390 . S
C883 C884 1.394 . S
C883 C889 1.465 . S
C884 C879 1.399 . S
C884 C883 1.394 . S
C884 C885 1.516 . S
C885 C884 1.516 . S
C885 C886 1.502 . S
C885 C887 1.561 . S
C885 C888 1.526 . S
C886 H870 0.959 . S
C886 H871 0.959 . S
C886 H872 0.961 . S
C886 C885 1.502 . S
C887 H873 0.960 . S
C887 H874 0.961 . S
C887 H875 0.959 . S
C887 C885 1.561 . S
C888 C885 1.526 . S
C888 C889 1.396 . S
C888 C893 1.390 . S
C889 C883 1.465 . S
C889 C888 1.396 . S
C889 C890 1.399 . S
C890 H876 0.929 . S
C890 C889 1.399 . S
C890 C891 1.385 . S
C891 H877 0.931 . S
C891 C890 1.385 . S
C891 C892 1.389 . S
C892 C891 1.389 . S
C892 C893 1.387 . S
C893 H878 0.930 . S
C893 C888 1.390 . S
C893 C892 1.387 . S
H894 C906 0.930 . S
H895 C908 0.930 . S
H896 C909 0.930 . S
H897 C913 0.959 . S
H898 C913 0.959 . S
H899 C913 0.961 . S
H900 C914 0.960 . S
H901 C914 0.961 . S
H902 C914 0.959 . S
H903 C917 0.929 . S
H904 C918 0.931 . S
H905 C920 0.930 . S
C906 H894 0.930 . S
C906 C907 1.399 . S
C906 C911 1.399 . S
C907 C906 1.399 . S
C907 C908 1.376 . S
C908 H895 0.930 . S
C908 C907 1.376 . S
C908 C909 1.388 . S
C909 H896 0.930 . S
C909 C908 1.388 . S
C909 C910 1.390 . S
C910 C909 1.390 . S
C910 C911 1.394 . S
C910 C916 1.465 . S
C911 C906 1.399 . S
C911 C910 1.394 . S
C911 C912 1.516 . S
C912 C911 1.516 . S
C912 C913 1.502 . S
C912 C914 1.561 . S
C912 C915 1.526 . S
C913 H897 0.959 . S
C913 H898 0.959 . S
C913 H899 0.961 . S
C913 C912 1.502 . S
C914 H900 0.960 . S
C914 H901 0.961 . S
C914 H902 0.959 . S
C914 C912 1.561 . S
C915 C912 1.526 . S
C915 C916 1.396 . S
C915 C920 1.390 . S
C916 C910 1.465 . S
C916 C915 1.396 . S
C916 C917 1.399 . S
C917 H903 0.929 . S
C917 C916 1.399 . S
C917 C918 1.385 . S
C918 H904 0.931 . S
C918 C917 1.385 . S
C918 C919 1.389 . S
C919 C918 1.389 . S
C919 C920 1.387 . S
C920 H905 0.930 . S
C920 C915 1.390 . S
C920 C919 1.387 . S
H921 C933 0.930 . S
H922 C935 0.930 . S
H923 C936 0.930 . S
H924 C940 0.959 . S
H925 C940 0.959 . S
H926 C940 0.961 . S
H927 C941 0.960 . S
H928 C941 0.961 . S
H929 C941 0.959 . S
H930 C944 0.929 . S
H931 C945 0.931 . S
H932 C947 0.930 . S
C933 H921 0.930 . S
C933 C934 1.399 . S
C933 C938 1.399 . S
C934 C933 1.399 . S
C934 C935 1.376 . S
C935 H922 0.930 . S
C935 C934 1.376 . S
C935 C936 1.388 . S
C936 H923 0.930 . S
C936 C935 1.388 . S
C936 C937 1.390 . S
C937 C936 1.390 . S
C937 C938 1.394 . S
C937 C943 1.465 . S
C938 C933 1.399 . S
C938 C937 1.394 . S
C938 C939 1.516 . S
C939 C938 1.516 . S
C939 C940 1.502 . S
C939 C941 1.561 . S
C939 C942 1.526 . S
C940 H924 0.959 . S
C940 H925 0.959 . S
C940 H926 0.961 . S
C940 C939 1.502 . S
C941 H927 0.960 . S
C941 H928 0.961 . S
C941 H929 0.959 . S
C941 C939 1.561 . S
C942 C939 1.526 . S
C942 C943 1.396 . S
C942 C947 1.390 . S
C943 C937 1.465 . S
C943 C942 1.396 . S
C943 C944 1.399 . S
C944 H930 0.929 . S
C944 C943 1.399 . S
C944 C945 1.385 . S
C945 H931 0.931 . S
C945 C944 1.385 . S
C945 C946 1.389 . S
C946 C945 1.389 . S
C946 C947 1.387 . S
C947 H932 0.930 . S
C947 C942 1.390 . S
C947 C946 1.387 . S
H948 C960 0.930 . S
H949 C962 0.930 . S
H950 C963 0.930 . S
H951 C967 0.959 . S
H952 C967 0.959 . S
H953 C967 0.961 . S
H954 C968 0.960 . S
H955 C968 0.961 . S
H956 C968 0.959 . S
H957 C971 0.929 . S
H958 C972 0.931 . S
H959 C974 0.930 . S
C960 H948 0.930 . S
C960 C961 1.399 . S
C960 C965 1.399 . S
C961 C960 1.399 . S
C961 C962 1.376 . S
C962 H949 0.930 . S
C962 C961 1.376 . S
C962 C963 1.388 . S
C963 H950 0.930 . S
C963 C962 1.388 . S
C963 C964 1.390 . S
C964 C963 1.390 . S
C964 C965 1.394 . S
C964 C970 1.465 . S
C965 C960 1.399 . S
C965 C964 1.394 . S
C965 C966 1.516 . S
C966 C965 1.516 . S
C966 C967 1.502 . S
C966 C968 1.561 . S
C966 C969 1.526 . S
C967 H951 0.959 . S
C967 H952 0.959 . S
C967 H953 0.961 . S
C967 C966 1.502 . S
C968 H954 0.960 . S
C968 H955 0.961 . S
C968 H956 0.959 . S
C968 C966 1.561 . S
C969 C966 1.526 . S
C969 C970 1.396 . S
C969 C974 1.390 . S
C970 C964 1.465 . S
C970 C969 1.396 . S
C970 C971 1.399 . S
C971 H957 0.929 . S
C971 C970 1.399 . S
C971 C972 1.385 . S
C972 H958 0.931 . S
C972 C971 1.385 . S
C972 C973 1.389 . S
C973 C972 1.389 . S
C973 C974 1.387 . S
C974 H959 0.930 . S
C974 C969 1.390 . S
C974 C973 1.387 . S
H975 C987 0.930 . S
H976 C989 0.930 . S
H977 C990 0.930 . S
H978 C994 0.959 . S
H979 C994 0.959 . S
H980 C994 0.961 . S
H981 C995 0.960 . S
H982 C995 0.961 . S
H983 C995 0.959 . S
H984 C998 0.929 . S
H985 C999 0.931 . S
H986 C1001 0.930 . S
C987 H975 0.930 . S
C987 C988 1.399 . S
C987 C992 1.399 . S
C988 C987 1.399 . S
C988 C989 1.376 . S
C989 H976 0.930 . S
C989 C988 1.376 . S
C989 C990 1.388 . S
C990 H977 0.930 . S
C990 C989 1.388 . S
C990 C991 1.390 . S
C991 C990 1.390 . S
C991 C992 1.394 . S
C991 C997 1.465 . S
C992 C987 1.399 . S
C992 C991 1.394 . S
C992 C993 1.516 . S
C993 C992 1.516 . S
C993 C994 1.502 . S
C993 C995 1.561 . S
C993 C996 1.526 . S
C994 H978 0.959 . S
C994 H979 0.959 . S
C994 H980 0.961 . S
C994 C993 1.502 . S
C995 H981 0.960 . S
C995 H982 0.961 . S
C995 H983 0.959 . S
C995 C993 1.561 . S
C996 C993 1.526 . S
C996 C997 1.396 . S
C996 C1001 1.390 . S
C997 C991 1.465 . S
C997 C996 1.396 . S
C997 C998 1.399 . S
C998 H984 0.929 . S
C998 C997 1.399 . S
C998 C999 1.385 . S
C999 H985 0.931 . S
C999 C998 1.385 . S
C999 C1000 1.389 . S
C1000 C999 1.389 . S
C1000 C1001 1.387 . S
C1001 H986 0.930 . S
C1001 C996 1.390 . S
C1001 C1000 1.387 . S
H1002 C1014 0.930 . S
H1003 C1016 0.930 . S
H1004 C1017 0.930 . S
H1005 C1021 0.959 . S
H1006 C1021 0.959 . S
H1007 C1021 0.961 . S
H1008 C1022 0.960 . S
H1009 C1022 0.961 . S
H1010 C1022 0.959 . S
H1011 C1025 0.929 . S
H1012 C1026 0.931 . S
H1013 C1028 0.930 . S
C1014 H1002 0.930 . S
C1014 C1015 1.399 . S
C1014 C1019 1.399 . S
C1015 C1014 1.399 . S
C1015 C1016 1.376 . S
C1016 H1003 0.930 . S
C1016 C1015 1.376 . S
C1016 C1017 1.388 . S
C1017 H1004 0.930 . S
C1017 C1016 1.388 . S
C1017 C1018 1.390 . S
C1018 C1017 1.390 . S
C1018 C1019 1.394 . S
C1018 C1024 1.465 . S
C1019 C1014 1.399 . S
C1019 C1018 1.394 . S
C1019 C1020 1.516 . S
C1020 C1019 1.516 . S
C1020 C1021 1.502 . S
C1020 C1022 1.561 . S
C1020 C1023 1.526 . S
C1021 H1005 0.959 . S
C1021 H1006 0.959 . S
C1021 H1007 0.961 . S
C1021 C1020 1.502 . S
C1022 H1008 0.960 . S
C1022 H1009 0.961 . S
C1022 H1010 0.959 . S
C1022 C1020 1.561 . S
C1023 C1020 1.526 . S
C1023 C1024 1.396 . S
C1023 C1028 1.390 . S
C1024 C1018 1.465 . S
C1024 C1023 1.396 . S
C1024 C1025 1.399 . S
C1025 H1011 0.929 . S
C1025 C1024 1.399 . S
C1025 C1026 1.385 . S
C1026 H1012 0.931 . S
C1026 C1025 1.385 . S
C1026 C1027 1.389 . S
C1027 C1026 1.389 . S
C1027 C1028 1.387 . S
C1028 H1013 0.930 . S
C1028 C1023 1.390 . S
C1028 C1027 1.387 . S
H1029 C1041 0.930 . S
H1030 C1043 0.930 . S
H1031 C1044 0.930 . S
H1032 C1048 0.959 . S
H1033 C1048 0.959 . S
H1034 C1048 0.961 . S
H1035 C1049 0.960 . S
H1036 C1049 0.961 . S
H1037 C1049 0.959 . S
H1038 C1052 0.929 . S
H1039 C1053 0.931 . S
H1040 C1055 0.930 . S
C1041 H1029 0.930 . S
C1041 C1042 1.399 . S
C1041 C1046 1.399 . S
C1042 C1041 1.399 . S
C1042 C1043 1.376 . S
C1043 H1030 0.930 . S
C1043 C1042 1.376 . S
C1043 C1044 1.388 . S
C1044 H1031 0.930 . S
C1044 C1043 1.388 . S
C1044 C1045 1.390 . S
C1045 C1044 1.390 . S
C1045 C1046 1.394 . S
C1045 C1051 1.465 . S
C1046 C1041 1.399 . S
C1046 C1045 1.394 . S
C1046 C1047 1.516 . S
C1047 C1046 1.516 . S
C1047 C1048 1.502 . S
C1047 C1049 1.561 . S
C1047 C1050 1.526 . S
C1048 H1032 0.959 . S
C1048 H1033 0.959 . S
C1048 H1034 0.961 . S
C1048 C1047 1.502 . S
C1049 H1035 0.960 . S
C1049 H1036 0.961 . S
C1049 H1037 0.959 . S
C1049 C1047 1.561 . S
C1050 C1047 1.526 . S
C1050 C1051 1.396 . S
C1050 C1055 1.390 . S
C1051 C1045 1.465 . S
C1051 C1050 1.396 . S
C1051 C1052 1.399 . S
C1052 H1038 0.929 . S
C1052 C1051 1.399 . S
C1052 C1053 1.385 . S
C1053 H1039 0.931 . S
C1053 C1052 1.385 . S
C1053 C1054 1.389 . S
C1054 C1053 1.389 . S
C1054 C1055 1.387 . S
C1055 H1040 0.930 . S
C1055 C1050 1.390 . S
C1055 C1054 1.387 . S
H1056 C1068 0.930 . S
H1057 C1070 0.930 . S
H1058 C1071 0.930 . S
H1059 C1075 0.959 . S
H1060 C1075 0.959 . S
H1061 C1075 0.961 . S
H1062 C1076 0.960 . S
H1063 C1076 0.961 . S
H1064 C1076 0.959 . S
H1065 C1079 0.929 . S
H1066 C1080 0.931 . S
H1067 C1082 0.930 . S
C1068 H1056 0.930 . S
C1068 C1069 1.399 . S
C1068 C1073 1.399 . S
C1069 C1068 1.399 . S
C1069 C1070 1.376 . S
C1070 H1057 0.930 . S
C1070 C1069 1.376 . S
C1070 C1071 1.388 . S
C1071 H1058 0.930 . S
C1071 C1070 1.388 . S
C1071 C1072 1.390 . S
C1072 C1071 1.390 . S
C1072 C1073 1.394 . S
C1072 C1078 1.465 . S
C1073 C1068 1.399 . S
C1073 C1072 1.394 . S
C1073 C1074 1.516 . S
C1074 C1073 1.516 . S
C1074 C1075 1.502 . S
C1074 C1076 1.561 . S
C1074 C1077 1.526 . S
C1075 H1059 0.959 . S
C1075 H1060 0.959 . S
C1075 H1061 0.961 . S
C1075 C1074 1.502 . S
C1076 H1062 0.960 . S
C1076 H1063 0.961 . S
C1076 H1064 0.959 . S
C1076 C1074 1.561 . S
C1077 C1074 1.526 . S
C1077 C1078 1.396 . S
C1077 C1082 1.390 . S
C1078 C1072 1.465 . S
C1078 C1077 1.396 . S
C1078 C1079 1.399 . S
C1079 H1065 0.929 . S
C1079 C1078 1.399 . S
C1079 C1080 1.385 . S
C1080 H1066 0.931 . S
C1080 C1079 1.385 . S
C1080 C1081 1.389 . S
C1081 C1080 1.389 . S
C1081 C1082 1.387 . S
C1082 H1067 0.930 . S
C1082 C1077 1.390 . S
C1082 C1081 1.387 . S
H1083 C1095 0.930 . S
H1084 C1097 0.930 . S
H1085 C1098 0.930 . S
H1086 C1102 0.959 . S
H1087 C1102 0.959 . S
H1088 C1102 0.961 . S
H1089 C1103 0.960 . S
H1090 C1103 0.961 . S
H1091 C1103 0.959 . S
H1092 C1106 0.929 . S
H1093 C1107 0.931 . S
H1094 C1109 0.930 . S
C1095 H1083 0.930 . S
C1095 C1096 1.399 . S
C1095 C1100 1.399 . S
C1096 C1095 1.399 . S
C1096 C1097 1.376 . S
C1097 H1084 0.930 . S
C1097 C1096 1.376 . S
C1097 C1098 1.388 . S
C1098 H1085 0.930 . S
C1098 C1097 1.388 . S
C1098 C1099 1.390 . S
C1099 C1098 1.390 . S
C1099 C1100 1.394 . S
C1099 C1105 1.465 . S
C1100 C1095 1.399 . S
C1100 C1099 1.394 . S
C1100 C1101 1.516 . S
C1101 C1100 1.516 . S
C1101 C1102 1.502 . S
C1101 C1103 1.561 . S
C1101 C1104 1.526 . S
C1102 H1086 0.959 . S
C1102 H1087 0.959 . S
C1102 H1088 0.961 . S
C1102 C1101 1.502 . S
C1103 H1089 0.960 . S
C1103 H1090 0.961 . S
C1103 H1091 0.959 . S
C1103 C1101 1.561 . S
C1104 C1101 1.526 . S
C1104 C1105 1.396 . S
C1104 C1109 1.390 . S
C1105 C1099 1.465 . S
C1105 C1104 1.396 . S
C1105 C1106 1.399 . S
C1106 H1092 0.929 . S
C1106 C1105 1.399 . S
C1106 C1107 1.385 . S
C1107 H1093 0.931 . S
C1107 C1106 1.385 . S
C1107 C1108 1.389 . S
C1108 C1107 1.389 . S
C1108 C1109 1.387 . S
C1109 H1094 0.930 . S
C1109 C1104 1.390 . S
C1109 C1108 1.387 . S
H1110 C1122 0.930 . S
H1111 C1124 0.930 . S
H1112 C1125 0.930 . S
H1113 C1129 0.959 . S
H1114 C1129 0.959 . S
H1115 C1129 0.961 . S
H1116 C1130 0.960 . S
H1117 C1130 0.961 . S
H1118 C1130 0.959 . S
H1119 C1133 0.929 . S
H1120 C1134 0.931 . S
H1121 C1136 0.930 . S
C1122 H1110 0.930 . S
C1122 C1123 1.399 . S
C1122 C1127 1.399 . S
C1123 C1122 1.399 . S
C1123 C1124 1.376 . S
C1124 H1111 0.930 . S
C1124 C1123 1.376 . S
C1124 C1125 1.388 . S
C1125 H1112 0.930 . S
C1125 C1124 1.388 . S
C1125 C1126 1.390 . S
C1126 C1125 1.390 . S
C1126 C1127 1.394 . S
C1126 C1132 1.465 . S
C1127 C1122 1.399 . S
C1127 C1126 1.394 . S
C1127 C1128 1.516 . S
C1128 C1127 1.516 . S
C1128 C1129 1.502 . S
C1128 C1130 1.561 . S
C1128 C1131 1.526 . S
C1129 H1113 0.959 . S
C1129 H1114 0.959 . S
C1129 H1115 0.961 . S
C1129 C1128 1.502 . S
C1130 H1116 0.960 . S
C1130 H1117 0.961 . S
C1130 H1118 0.959 . S
C1130 C1128 1.561 . S
C1131 C1128 1.526 . S
C1131 C1132 1.396 . S
C1131 C1136 1.390 . S
C1132 C1126 1.465 . S
C1132 C1131 1.396 . S
C1132 C1133 1.399 . S
C1133 H1119 0.929 . S
C1133 C1132 1.399 . S
C1133 C1134 1.385 . S
C1134 H1120 0.931 . S
C1134 C1133 1.385 . S
C1134 C1135 1.389 . S
C1135 C1134 1.389 . S
C1135 C1136 1.387 . S
C1136 H1121 0.930 . S
C1136 C1131 1.390 . S
C1136 C1135 1.387 . S
H1137 C1149 0.930 . S
H1138 C1151 0.930 . S
H1139 C1152 0.930 . S
H1140 C1156 0.959 . S
H1141 C1156 0.959 . S
H1142 C1156 0.961 . S
H1143 C1157 0.960 . S
H1144 C1157 0.961 . S
H1145 C1157 0.959 . S
H1146 C1160 0.929 . S
H1147 C1161 0.931 . S
H1148 C1163 0.930 . S
C1149 H1137 0.930 . S
C1149 C1150 1.399 . S
C1149 C1154 1.399 . S
C1150 C1149 1.399 . S
C1150 C1151 1.376 . S
C1151 H1138 0.930 . S
C1151 C1150 1.376 . S
C1151 C1152 1.388 . S
C1152 H1139 0.930 . S
C1152 C1151 1.388 . S
C1152 C1153 1.390 . S
C1153 C1152 1.390 . S
C1153 C1154 1.394 . S
C1153 C1159 1.465 . S
C1154 C1149 1.399 . S
C1154 C1153 1.394 . S
C1154 C1155 1.516 . S
C1155 C1154 1.516 . S
C1155 C1156 1.502 . S
C1155 C1157 1.561 . S
C1155 C1158 1.526 . S
C1156 H1140 0.959 . S
C1156 H1141 0.959 . S
C1156 H1142 0.961 . S
C1156 C1155 1.502 . S
C1157 H1143 0.960 . S
C1157 H1144 0.961 . S
C1157 H1145 0.959 . S
C1157 C1155 1.561 . S
C1158 C1155 1.526 . S
C1158 C1159 1.396 . S
C1158 C1163 1.390 . S
C1159 C1153 1.465 . S
C1159 C1158 1.396 . S
C1159 C1160 1.399 . S
C1160 H1146 0.929 . S
C1160 C1159 1.399 . S
C1160 C1161 1.385 . S
C1161 H1147 0.931 . S
C1161 C1160 1.385 . S
C1161 C1162 1.389 . S
C1162 C1161 1.389 . S
C1162 C1163 1.387 . S
C1163 H1148 0.930 . S
C1163 C1158 1.390 . S
C1163 C1162 1.387 . S
H1164 C1176 0.930 . S
H1165 C1178 0.930 . S
H1166 C1179 0.930 . S
H1167 C1183 0.959 . S
H1168 C1183 0.959 . S
H1169 C1183 0.961 . S
H1170 C1184 0.960 . S
H1171 C1184 0.961 . S
H1172 C1184 0.959 . S
H1173 C1187 0.929 . S
H1174 C1188 0.931 . S
H1175 C1190 0.930 . S
C1176 H1164 0.930 . S
C1176 C1177 1.399 . S
C1176 C1181 1.399 . S
C1177 C1176 1.399 . S
C1177 C1178 1.376 . S
C1178 H1165 0.930 . S
C1178 C1177 1.376 . S
C1178 C1179 1.388 . S
C1179 H1166 0.930 . S
C1179 C1178 1.388 . S
C1179 C1180 1.390 . S
C1180 C1179 1.390 . S
C1180 C1181 1.394 . S
C1180 C1186 1.465 . S
C1181 C1176 1.399 . S
C1181 C1180 1.394 . S
C1181 C1182 1.516 . S
C1182 C1181 1.516 . S
C1182 C1183 1.502 . S
C1182 C1184 1.561 . S
C1182 C1185 1.526 . S
C1183 H1167 0.959 . S
C1183 H1168 0.959 . S
C1183 H1169 0.961 . S
C1183 C1182 1.502 . S
C1184 H1170 0.960 . S
C1184 H1171 0.961 . S
C1184 H1172 0.959 . S
C1184 C1182 1.561 . S
C1185 C1182 1.526 . S
C1185 C1186 1.396 . S
C1185 C1190 1.390 . S
C1186 C1180 1.465 . S
C1186 C1185 1.396 . S
C1186 C1187 1.399 . S
C1187 H1173 0.929 . S
C1187 C1186 1.399 . S
C1187 C1188 1.385 . S
C1188 H1174 0.931 . S
C1188 C1187 1.385 . S
C1188 C1189 1.389 . S
C1189 C1188 1.389 . S
C1189 C1190 1.387 . S
C1190 H1175 0.930 . S
C1190 C1185 1.390 . S
C1190 C1189 1.387 . S
H1191 C1203 0.930 . S
H1192 C1205 0.930 . S
H1193 C1206 0.930 . S
H1194 C1210 0.959 . S
H1195 C1210 0.959 . S
H1196 C1210 0.961 . S
H1197 C1211 0.960 . S
H1198 C1211 0.961 . S
H1199 C1211 0.959 . S
H1200 C1214 0.929 . S
H1201 C1215 0.931 . S
H1202 C1217 0.930 . S
C1203 H1191 0.930 . S
C1203 C1204 1.399 . S
C1203 C1208 1.399 . S
C1204 C1203 1.399 . S
C1204 C1205 1.376 . S
C1205 H1192 0.930 . S
C1205 C1204 1.376 . S
C1205 C1206 1.388 . S
C1206 H1193 0.930 . S
C1206 C1205 1.388 . S
C1206 C1207 1.390 . S
C1207 C1206 1.390 . S
C1207 C1208 1.394 . S
C1207 C1213 1.465 . S
C1208 C1203 1.399 . S
C1208 C1207 1.394 . S
C1208 C1209 1.516 . S
C1209 C1208 1.516 . S
C1209 C1210 1.502 . S
C1209 C1211 1.561 . S
C1209 C1212 1.526 . S
C1210 H1194 0.959 . S
C1210 H1195 0.959 . S
C1210 H1196 0.961 . S
C1210 C1209 1.502 . S
C1211 H1197 0.960 . S
C1211 H1198 0.961 . S
C1211 H1199 0.959 . S
C1211 C1209 1.561 . S
C1212 C1209 1.526 . S
C1212 C1213 1.396 . S
C1212 C1217 1.390 . S
C1213 C1207 1.465 . S
C1213 C1212 1.396 . S
C1213 C1214 1.399 . S
C1214 H1200 0.929 . S
C1214 C1213 1.399 . S
C1214 C1215 1.385 . S
C1215 H1201 0.931 . S
C1215 C1214 1.385 . S
C1215 C1216 1.389 . S
C1216 C1215 1.389 . S
C1216 C1217 1.387 . S
C1217 H1202 0.930 . S
C1217 C1212 1.390 . S
C1217 C1216 1.387 . S
H1218 C1230 0.930 . S
H1219 C1232 0.930 . S
H1220 C1233 0.930 . S
H1221 C1237 0.959 . S
H1222 C1237 0.959 . S
H1223 C1237 0.961 . S
H1224 C1238 0.960 . S
H1225 C1238 0.961 . S
H1226 C1238 0.959 . S
H1227 C1241 0.929 . S
H1228 C1242 0.931 . S
H1229 C1244 0.930 . S
C1230 H1218 0.930 . S
C1230 C1231 1.399 . S
C1230 C1235 1.399 . S
C1231 C1230 1.399 . S
C1231 C1232 1.376 . S
C1232 H1219 0.930 . S
C1232 C1231 1.376 . S
C1232 C1233 1.388 . S
C1233 H1220 0.930 . S
C1233 C1232 1.388 . S
C1233 C1234 1.390 . S
C1234 C1233 1.390 . S
C1234 C1235 1.394 . S
C1234 C1240 1.465 . S
C1235 C1230 1.399 . S
C1235 C1234 1.394 . S
C1235 C1236 1.516 . S
C1236 C1235 1.516 . S
C1236 C1237 1.502 . S
C1236 C1238 1.561 . S
C1236 C1239 1.526 . S
C1237 H1221 0.959 . S
C1237 H1222 0.959 . S
C1237 H1223 0.961 . S
C1237 C1236 1.502 . S
C1238 H1224 0.960 . S
C1238 H1225 0.961 . S
C1238 H1226 0.959 . S
C1238 C1236 1.561 . S
C1239 C1236 1.526 . S
C1239 C1240 1.396 . S
C1239 C1244 1.390 . S
C1240 C1234 1.465 . S
C1240 C1239 1.396 . S
C1240 C1241 1.399 . S
C1241 H1227 0.929 . S
C1241 C1240 1.399 . S
C1241 C1242 1.385 . S
C1242 H1228 0.931 . S
C1242 C1241 1.385 . S
C1242 C1243 1.389 . S
C1243 C1242 1.389 . S
C1243 C1244 1.387 . S
C1244 H1229 0.930 . S
C1244 C1239 1.390 . S
C1244 C1243 1.387 . S
H1245 C1257 0.930 . S
H1246 C1259 0.930 . S
H1247 C1260 0.930 . S
H1248 C1264 0.959 . S
H1249 C1264 0.959 . S
H1250 C1264 0.961 . S
H1251 C1265 0.960 . S
H1252 C1265 0.961 . S
H1253 C1265 0.959 . S
H1254 C1268 0.929 . S
H1255 C1269 0.931 . S
H1256 C1271 0.930 . S
C1257 H1245 0.930 . S
C1257 C1258 1.399 . S
C1257 C1262 1.399 . S
C1258 C1257 1.399 . S
C1258 C1259 1.376 . S
C1259 H1246 0.930 . S
C1259 C1258 1.376 . S
C1259 C1260 1.388 . S
C1260 H1247 0.930 . S
C1260 C1259 1.388 . S
C1260 C1261 1.390 . S
C1261 C1260 1.390 . S
C1261 C1262 1.394 . S
C1261 C1267 1.465 . S
C1262 C1257 1.399 . S
C1262 C1261 1.394 . S
C1262 C1263 1.516 . S
C1263 C1262 1.516 . S
C1263 C1264 1.502 . S
C1263 C1265 1.561 . S
C1263 C1266 1.526 . S
C1264 H1248 0.959 . S
C1264 H1249 0.959 . S
C1264 H1250 0.961 . S
C1264 C1263 1.502 . S
C1265 H1251 0.960 . S
C1265 H1252 0.961 . S
C1265 H1253 0.959 . S
C1265 C1263 1.561 . S
C1266 C1263 1.526 . S
C1266 C1267 1.396 . S
C1266 C1271 1.390 . S
C1267 C1261 1.465 . S
C1267 C1266 1.396 . S
C1267 C1268 1.399 . S
C1268 H1254 0.929 . S
C1268 C1267 1.399 . S
C1268 C1269 1.385 . S
C1269 H1255 0.931 . S
C1269 C1268 1.385 . S
C1269 C1270 1.389 . S
C1270 C1269 1.389 . S
C1270 C1271 1.387 . S
C1271 H1256 0.930 . S
C1271 C1266 1.390 . S
C1271 C1270 1.387 . S
H1272 C1284 0.930 . S
H1273 C1286 0.930 . S
H1274 C1287 0.930 . S
H1275 C1291 0.959 . S
H1276 C1291 0.959 . S
H1277 C1291 0.961 . S
H1278 C1292 0.960 . S
H1279 C1292 0.961 . S
H1280 C1292 0.959 . S
H1281 C1295 0.929 . S
H1282 C1296 0.931 . S
H1283 C1298 0.930 . S
C1284 H1272 0.930 . S
C1284 C1285 1.399 . S
C1284 C1289 1.399 . S
C1285 C1284 1.399 . S
C1285 C1286 1.376 . S
C1286 H1273 0.930 . S
C1286 C1285 1.376 . S
C1286 C1287 1.388 . S
C1287 H1274 0.930 . S
C1287 C1286 1.388 . S
C1287 C1288 1.390 . S
C1288 C1287 1.390 . S
C1288 C1289 1.394 . S
C1288 C1294 1.465 . S
C1289 C1284 1.399 . S
C1289 C1288 1.394 . S
C1289 C1290 1.516 . S
C1290 C1289 1.516 . S
C1290 C1291 1.502 . S
C1290 C1292 1.561 . S
C1290 C1293 1.526 . S
C1291 H1275 0.959 . S
C1291 H1276 0.959 . S
C1291 H1277 0.961 . S
C1291 C1290 1.502 . S
C1292 H1278 0.960 . S
C1292 H1279 0.961 . S
C1292 H1280 0.959 . S
C1292 C1290 1.561 . S
C1293 C1290 1.526 . S
C1293 C1294 1.396 . S
C1293 C1298 1.390 . S
C1294 C1288 1.465 . S
C1294 C1293 1.396 . S
C1294 C1295 1.399 . S
C1295 H1281 0.929 . S
C1295 C1294 1.399 . S
C1295 C1296 1.385 . S
C1296 H1282 0.931 . S
C1296 C1295 1.385 . S
C1296 C1297 1.389 . S
C1297 C1296 1.389 . S
C1297 C1298 1.387 . S
C1298 H1283 0.930 . S
C1298 C1293 1.390 . S
C1298 C1297 1.387 . S
H1299 C1311 0.930 . S
H1300 C1313 0.930 . S
H1301 C1314 0.930 . S
H1302 C1318 0.959 . S
H1303 C1318 0.959 . S
H1304 C1318 0.961 . S
H1305 C1319 0.960 . S
H1306 C1319 0.961 . S
H1307 C1319 0.959 . S
H1308 C1322 0.929 . S
H1309 C1323 0.931 . S
H1310 C1325 0.930 . S
C1311 H1299 0.930 . S
C1311 C1312 1.399 . S
C1311 C1316 1.399 . S
C1312 C1311 1.399 . S
C1312 C1313 1.376 . S
C1313 H1300 0.930 . S
C1313 C1312 1.376 . S
C1313 C1314 1.388 . S
C1314 H1301 0.930 . S
C1314 C1313 1.388 . S
C1314 C1315 1.390 . S
C1315 C1314 1.390 . S
C1315 C1316 1.394 . S
C1315 C1321 1.465 . S
C1316 C1311 1.399 . S
C1316 C1315 1.394 . S
C1316 C1317 1.516 . S
C1317 C1316 1.516 . S
C1317 C1318 1.502 . S
C1317 C1319 1.561 . S
C1317 C1320 1.526 . S
C1318 H1302 0.959 . S
C1318 H1303 0.959 . S
C1318 H1304 0.961 . S
C1318 C1317 1.502 . S
C1319 H1305 0.960 . S
C1319 H1306 0.961 . S
C1319 H1307 0.959 . S
C1319 C1317 1.561 . S
C1320 C1317 1.526 . S
C1320 C1321 1.396 . S
C1320 C1325 1.390 . S
C1321 C1315 1.465 . S
C1321 C1320 1.396 . S
C1321 C1322 1.399 . S
C1322 H1308 0.929 . S
C1322 C1321 1.399 . S
C1322 C1323 1.385 . S
C1323 H1309 0.931 . S
C1323 C1322 1.385 . S
C1323 C1324 1.389 . S
C1324 C1323 1.389 . S
C1324 C1325 1.387 . S
C1325 H1310 0.930 . S
C1325 C1320 1.390 . S
C1325 C1324 1.387 . S
H1326 C1338 0.930 . S
H1327 C1340 0.930 . S
H1328 C1341 0.930 . S
H1329 C1345 0.959 . S
H1330 C1345 0.959 . S
H1331 C1345 0.961 . S
H1332 C1346 0.960 . S
H1333 C1346 0.961 . S
H1334 C1346 0.959 . S
H1335 C1349 0.929 . S
H1336 C1350 0.931 . S
H1337 C1352 0.930 . S
C1338 H1326 0.930 . S
C1338 C1339 1.399 . S
C1338 C1343 1.399 . S
C1339 C1338 1.399 . S
C1339 C1340 1.376 . S
C1340 H1327 0.930 . S
C1340 C1339 1.376 . S
C1340 C1341 1.388 . S
C1341 H1328 0.930 . S
C1341 C1340 1.388 . S
C1341 C1342 1.390 . S
C1342 C1341 1.390 . S
C1342 C1343 1.394 . S
C1342 C1348 1.465 . S
C1343 C1338 1.399 . S
C1343 C1342 1.394 . S
C1343 C1344 1.516 . S
C1344 C1343 1.516 . S
C1344 C1345 1.502 . S
C1344 C1346 1.561 . S
C1344 C1347 1.526 . S
C1345 H1329 0.959 . S
C1345 H1330 0.959 . S
C1345 H1331 0.961 . S
C1345 C1344 1.502 . S
C1346 H1332 0.960 . S
C1346 H1333 0.961 . S
C1346 H1334 0.959 . S
C1346 C1344 1.561 . S
C1347 C1344 1.526 . S
C1347 C1348 1.396 . S
C1347 C1352 1.390 . S
C1348 C1342 1.465 . S
C1348 C1347 1.396 . S
C1348 C1349 1.399 . S
C1349 H1335 0.929 . S
C1349 C1348 1.399 . S
C1349 C1350 1.385 . S
C1350 H1336 0.931 . S
C1350 C1349 1.385 . S
C1350 C1351 1.389 . S
C1351 C1350 1.389 . S
C1351 C1352 1.387 . S
C1352 H1337 0.930 . S
C1352 C1347 1.390 . S
C1352 C1351 1.387 . S
H1353 C1365 0.930 . S
H1354 C1367 0.930 . S
H1355 C1368 0.930 . S
H1356 C1372 0.959 . S
H1357 C1372 0.959 . S
H1358 C1372 0.961 . S
H1359 C1373 0.960 . S
H1360 C1373 0.961 . S
H1361 C1373 0.959 . S
H1362 C1376 0.929 . S
H1363 C1377 0.931 . S
H1364 C1379 0.930 . S
C1365 H1353 0.930 . S
C1365 C1366 1.399 . S
C1365 C1370 1.399 . S
C1366 C1365 1.399 . S
C1366 C1367 1.376 . S
C1367 H1354 0.930 . S
C1367 C1366 1.376 . S
C1367 C1368 1.388 . S
C1368 H1355 0.930 . S
C1368 C1367 1.388 . S
C1368 C1369 1.390 . S
C1369 C1368 1.390 . S
C1369 C1370 1.394 . S
C1369 C1375 1.465 . S
C1370 C1365 1.399 . S
C1370 C1369 1.394 . S
C1370 C1371 1.516 . S
C1371 C1370 1.516 . S
C1371 C1372 1.502 . S
C1371 C1373 1.561 . S
C1371 C1374 1.526 . S
C1372 H1356 0.959 . S
C1372 H1357 0.959 . S
C1372 H1358 0.961 . S
C1372 C1371 1.502 . S
C1373 H1359 0.960 . S
C1373 H1360 0.961 . S
C1373 H1361 0.959 . S
C1373 C1371 1.561 . S
C1374 C1371 1.526 . S
C1374 C1375 1.396 . S
C1374 C1379 1.390 . S
C1375 C1369 1.465 . S
C1375 C1374 1.396 . S
C1375 C1376 1.399 . S
C1376 H1362 0.929 . S
C1376 C1375 1.399 . S
C1376 C1377 1.385 . S
C1377 H1363 0.931 . S
C1377 C1376 1.385 . S
C1377 C1378 1.389 . S
C1378 C1377 1.389 . S
C1378 C1379 1.387 . S
C1379 H1364 0.930 . S
C1379 C1374 1.390 . S
C1379 C1378 1.387 . S
H1380 C1392 0.930 . S
H1381 C1394 0.930 . S
H1382 C1395 0.930 . S
H1383 C1399 0.959 . S
H1384 C1399 0.959 . S
H1385 C1399 0.961 . S
H1386 C1400 0.960 . S
H1387 C1400 0.961 . S
H1388 C1400 0.959 . S
H1389 C1403 0.929 . S
H1390 C1404 0.931 . S
H1391 C1406 0.930 . S
C1392 H1380 0.930 . S
C1392 C1393 1.399 . S
C1392 C1397 1.399 . S
C1393 C1392 1.399 . S
C1393 C1394 1.376 . S
C1394 H1381 0.930 . S
C1394 C1393 1.376 . S
C1394 C1395 1.388 . S
C1395 H1382 0.930 . S
C1395 C1394 1.388 . S
C1395 C1396 1.390 . S
C1396 C1395 1.390 . S
C1396 C1397 1.394 . S
C1396 C1402 1.465 . S
C1397 C1392 1.399 . S
C1397 C1396 1.394 . S
C1397 C1398 1.516 . S
C1398 C1397 1.516 . S
C1398 C1399 1.502 . S
C1398 C1400 1.561 . S
C1398 C1401 1.526 . S
C1399 H1383 0.959 . S
C1399 H1384 0.959 . S
C1399 H1385 0.961 . S
C1399 C1398 1.502 . S
C1400 H1386 0.960 . S
C1400 H1387 0.961 . S
C1400 H1388 0.959 . S
C1400 C1398 1.561 . S
C1401 C1398 1.526 . S
C1401 C1402 1.396 . S
C1401 C1406 1.390 . S
C1402 C1396 1.465 . S
C1402 C1401 1.396 . S
C1402 C1403 1.399 . S
C1403 H1389 0.929 . S
C1403 C1402 1.399 . S
C1403 C1404 1.385 . S
C1404 H1390 0.931 . S
C1404 C1403 1.385 . S
C1404 C1405 1.389 . S
C1405 C1404 1.389 . S
C1405 C1406 1.387 . S
C1406 H1391 0.930 . S
C1406 C1401 1.390 . S
C1406 C1405 1.387 . S
H1407 C1419 0.930 . S
H1408 C1421 0.930 . S
H1409 C1422 0.930 . S
H1410 C1426 0.959 . S
H1411 C1426 0.959 . S
H1412 C1426 0.961 . S
H1413 C1427 0.960 . S
H1414 C1427 0.961 . S
H1415 C1427 0.959 . S
H1416 C1430 0.929 . S
H1417 C1431 0.931 . S
H1418 C1433 0.930 . S
C1419 H1407 0.930 . S
C1419 C1420 1.399 . S
C1419 C1424 1.399 . S
C1420 C1419 1.399 . S
C1420 C1421 1.376 . S
C1421 H1408 0.930 . S
C1421 C1420 1.376 . S
C1421 C1422 1.388 . S
C1422 H1409 0.930 . S
C1422 C1421 1.388 . S
C1422 C1423 1.390 . S
C1423 C1422 1.390 . S
C1423 C1424 1.394 . S
C1423 C1429 1.465 . S
C1424 C1419 1.399 . S
C1424 C1423 1.394 . S
C1424 C1425 1.516 . S
C1425 C1424 1.516 . S
C1425 C1426 1.502 . S
C1425 C1427 1.561 . S
C1425 C1428 1.526 . S
C1426 H1410 0.959 . S
C1426 H1411 0.959 . S
C1426 H1412 0.961 . S
C1426 C1425 1.502 . S
C1427 H1413 0.960 . S
C1427 H1414 0.961 . S
C1427 H1415 0.959 . S
C1427 C1425 1.561 . S
C1428 C1425 1.526 . S
C1428 C1429 1.396 . S
C1428 C1433 1.390 . S
C1429 C1423 1.465 . S
C1429 C1428 1.396 . S
C1429 C1430 1.399 . S
C1430 H1416 0.929 . S
C1430 C1429 1.399 . S
C1430 C1431 1.385 . S
C1431 H1417 0.931 . S
C1431 C1430 1.385 . S
C1431 C1432 1.389 . S
C1432 C1431 1.389 . S
C1432 C1433 1.387 . S
C1433 H1418 0.930 . S
C1433 C1428 1.390 . S
C1433 C1432 1.387 . S
H1434 C1446 0.930 . S
H1435 C1448 0.930 . S
H1436 C1449 0.930 . S
H1437 C1453 0.959 . S
H1438 C1453 0.959 . S
H1439 C1453 0.961 . S
H1440 C1454 0.960 . S
H1441 C1454 0.961 . S
H1442 C1454 0.959 . S
H1443 C1457 0.929 . S
H1444 C1458 0.931 . S
H1445 C1460 0.930 . S
C1446 H1434 0.930 . S
C1446 C1447 1.399 . S
C1446 C1451 1.399 . S
C1447 C1446 1.399 . S
C1447 C1448 1.376 . S
C1448 H1435 0.930 . S
C1448 C1447 1.376 . S
C1448 C1449 1.388 . S
C1449 H1436 0.930 . S
C1449 C1448 1.388 . S
C1449 C1450 1.390 . S
C1450 C1449 1.390 . S
C1450 C1451 1.394 . S
C1450 C1456 1.465 . S
C1451 C1446 1.399 . S
C1451 C1450 1.394 . S
C1451 C1452 1.516 . S
C1452 C1451 1.516 . S
C1452 C1453 1.502 . S
C1452 C1454 1.561 . S
C1452 C1455 1.526 . S
C1453 H1437 0.959 . S
C1453 H1438 0.959 . S
C1453 H1439 0.961 . S
C1453 C1452 1.502 . S
C1454 H1440 0.960 . S
C1454 H1441 0.961 . S
C1454 H1442 0.959 . S
C1454 C1452 1.561 . S
C1455 C1452 1.526 . S
C1455 C1456 1.396 . S
C1455 C1460 1.390 . S
C1456 C1450 1.465 . S
C1456 C1455 1.396 . S
C1456 C1457 1.399 . S
C1457 H1443 0.929 . S
C1457 C1456 1.399 . S
C1457 C1458 1.385 . S
C1458 H1444 0.931 . S
C1458 C1457 1.385 . S
C1458 C1459 1.389 . S
C1459 C1458 1.389 . S
C1459 C1460 1.387 . S
C1460 H1445 0.930 . S
C1460 C1455 1.390 . S
C1460 C1459 1.387 . S
H1461 C1473 0.930 . S
H1462 C1475 0.930 . S
H1463 C1476 0.930 . S
H1464 C1480 0.959 . S
H1465 C1480 0.959 . S
H1466 C1480 0.961 . S
H1467 C1481 0.960 . S
H1468 C1481 0.961 . S
H1469 C1481 0.959 . S
H1470 C1484 0.929 . S
H1471 C1485 0.931 . S
H1472 C1487 0.930 . S
C1473 H1461 0.930 . S
C1473 C1474 1.399 . S
C1473 C1478 1.399 . S
C1474 C1473 1.399 . S
C1474 C1475 1.376 . S
C1475 H1462 0.930 . S
C1475 C1474 1.376 . S
C1475 C1476 1.388 . S
C1476 H1463 0.930 . S
C1476 C1475 1.388 . S
C1476 C1477 1.390 . S
C1477 C1476 1.390 . S
C1477 C1478 1.394 . S
C1477 C1483 1.465 . S
C1478 C1473 1.399 . S
C1478 C1477 1.394 . S
C1478 C1479 1.516 . S
C1479 C1478 1.516 . S
C1479 C1480 1.502 . S
C1479 C1481 1.561 . S
C1479 C1482 1.526 . S
C1480 H1464 0.959 . S
C1480 H1465 0.959 . S
C1480 H1466 0.961 . S
C1480 C1479 1.502 . S
C1481 H1467 0.960 . S
C1481 H1468 0.961 . S
C1481 H1469 0.959 . S
C1481 C1479 1.561 . S
C1482 C1479 1.526 . S
C1482 C1483 1.396 . S
C1482 C1487 1.390 . S
C1483 C1477 1.465 . S
C1483 C1482 1.396 . S
C1483 C1484 1.399 . S
C1484 H1470 0.929 . S
C1484 C1483 1.399 . S
C1484 C1485 1.385 . S
C1485 H1471 0.931 . S
C1485 C1484 1.385 . S
C1485 C1486 1.389 . S
C1486 C1485 1.389 . S
C1486 C1487 1.387 . S
C1487 H1472 0.930 . S
C1487 C1482 1.390 . S
C1487 C1486 1.387 . S
H1488 C1500 0.930 . S
H1489 C1502 0.930 . S
H1490 C1503 0.930 . S
H1491 C1507 0.959 . S
H1492 C1507 0.959 . S
H1493 C1507 0.961 . S
H1494 C1508 0.960 . S
H1495 C1508 0.961 . S
H1496 C1508 0.959 . S
H1497 C1511 0.929 . S
H1498 C1512 0.931 . S
H1499 C1514 0.930 . S
C1500 H1488 0.930 . S
C1500 C1501 1.399 . S
C1500 C1505 1.399 . S
C1501 C1500 1.399 . S
C1501 C1502 1.376 . S
C1502 H1489 0.930 . S
C1502 C1501 1.376 . S
C1502 C1503 1.388 . S
C1503 H1490 0.930 . S
C1503 C1502 1.388 . S
C1503 C1504 1.390 . S
C1504 C1503 1.390 . S
C1504 C1505 1.394 . S
C1504 C1510 1.465 . S
C1505 C1500 1.399 . S
C1505 C1504 1.394 . S
C1505 C1506 1.516 . S
C1506 C1505 1.516 . S
C1506 C1507 1.502 . S
C1506 C1508 1.561 . S
C1506 C1509 1.526 . S
C1507 H1491 0.959 . S
C1507 H1492 0.959 . S
C1507 H1493 0.961 . S
C1507 C1506 1.502 . S
C1508 H1494 0.960 . S
C1508 H1495 0.961 . S
C1508 H1496 0.959 . S
C1508 C1506 1.561 . S
C1509 C1506 1.526 . S
C1509 C1510 1.396 . S
C1509 C1514 1.390 . S
C1510 C1504 1.465 . S
C1510 C1509 1.396 . S
C1510 C1511 1.399 . S
C1511 H1497 0.929 . S
C1511 C1510 1.399 . S
C1511 C1512 1.385 . S
C1512 H1498 0.931 . S
C1512 C1511 1.385 . S
C1512 C1513 1.389 . S
C1513 C1512 1.389 . S
C1513 C1514 1.387 . S
C1514 H1499 0.930 . S
C1514 C1509 1.390 . S
C1514 C1513 1.387 . S
H1515 C1527 0.930 . S
H1516 C1529 0.930 . S
H1517 C1530 0.930 . S
H1518 C1534 0.959 . S
H1519 C1534 0.959 . S
H1520 C1534 0.961 . S
H1521 C1535 0.960 . S
H1522 C1535 0.961 . S
H1523 C1535 0.959 . S
H1524 C1538 0.929 . S
H1525 C1539 0.931 . S
H1526 C1541 0.930 . S
C1527 H1515 0.930 . S
C1527 C1528 1.399 . S
C1527 C1532 1.399 . S
C1528 C1527 1.399 . S
C1528 C1529 1.376 . S
C1529 H1516 0.930 . S
C1529 C1528 1.376 . S
C1529 C1530 1.388 . S
C1530 H1517 0.930 . S
C1530 C1529 1.388 . S
C1530 C1531 1.390 . S
C1531 C1530 1.390 . S
C1531 C1532 1.394 . S
C1531 C1537 1.465 . S
C1532 C1527 1.399 . S
C1532 C1531 1.394 . S
C1532 C1533 1.516 . S
C1533 C1532 1.516 . S
C1533 C1534 1.502 . S
C1533 C1535 1.561 . S
C1533 C1536 1.526 . S
C1534 H1518 0.959 . S
C1534 H1519 0.959 . S
C1534 H1520 0.961 . S
C1534 C1533 1.502 . S
C1535 H1521 0.960 . S
C1535 H1522 0.961 . S
C1535 H1523 0.959 . S
C1535 C1533 1.561 . S
C1536 C1533 1.526 . S
C1536 C1537 1.396 . S
C1536 C1541 1.390 . S
C1537 C1531 1.465 . S
C1537 C1536 1.396 . S
C1537 C1538 1.399 . S
C1538 H1524 0.929 . S
C1538 C1537 1.399 . S
C1538 C1539 1.385 . S
C1539 H1525 0.931 . S
C1539 C1538 1.385 . S
C1539 C1540 1.389 . S
C1540 C1539 1.389 . S
C1540 C1541 1.387 . S
C1541 H1526 0.930 . S
C1541 C1536 1.390 . S
C1541 C1540 1.387 . S
H1542 C1554 0.930 . S
H1543 C1556 0.930 . S
H1544 C1557 0.930 . S
H1545 C1561 0.959 . S
H1546 C1561 0.959 . S
H1547 C1561 0.961 . S
H1548 C1562 0.960 . S
H1549 C1562 0.961 . S
H1550 C1562 0.959 . S
H1551 C1565 0.929 . S
H1552 C1566 0.931 . S
H1553 C1568 0.930 . S
C1554 H1542 0.930 . S
C1554 C1555 1.399 . S
C1554 C1559 1.399 . S
C1555 C1554 1.399 . S
C1555 C1556 1.376 . S
C1556 H1543 0.930 . S
C1556 C1555 1.376 . S
C1556 C1557 1.388 . S
C1557 H1544 0.930 . S
C1557 C1556 1.388 . S
C1557 C1558 1.390 . S
C1558 C1557 1.390 . S
C1558 C1559 1.394 . S
C1558 C1564 1.465 . S
C1559 C1554 1.399 . S
C1559 C1558 1.394 . S
C1559 C1560 1.516 . S
C1560 C1559 1.516 . S
C1560 C1561 1.502 . S
C1560 C1562 1.561 . S
C1560 C1563 1.526 . S
C1561 H1545 0.959 . S
C1561 H1546 0.959 . S
C1561 H1547 0.961 . S
C1561 C1560 1.502 . S
C1562 H1548 0.960 . S
C1562 H1549 0.961 . S
C1562 H1550 0.959 . S
C1562 C1560 1.561 . S
C1563 C1560 1.526 . S
C1563 C1564 1.396 . S
C1563 C1568 1.390 . S
C1564 C1558 1.465 . S
C1564 C1563 1.396 . S
C1564 C1565 1.399 . S
C1565 H1551 0.929 . S
C1565 C1564 1.399 . S
C1565 C1566 1.385 . S
C1566 H1552 0.931 . S
C1566 C1565 1.385 . S
C1566 C1567 1.389 . S
C1567 C1566 1.389 . S
C1567 C1568 1.387 . S
C1568 H1553 0.930 . S
C1568 C1563 1.390 . S
C1568 C1567 1.387 . S
H1569 C1581 0.930 . S
H1570 C1583 0.930 . S
H1571 C1584 0.930 . S
H1572 C1588 0.959 . S
H1573 C1588 0.959 . S
H1574 C1588 0.961 . S
H1575 C1589 0.960 . S
H1576 C1589 0.961 . S
H1577 C1589 0.959 . S
H1578 C1592 0.929 . S
H1579 C1593 0.931 . S
H1580 C1595 0.930 . S
C1581 H1569 0.930 . S
C1581 C1582 1.399 . S
C1581 C1586 1.399 . S
C1582 C1581 1.399 . S
C1582 C1583 1.376 . S
C1583 H1570 0.930 . S
C1583 C1582 1.376 . S
C1583 C1584 1.388 . S
C1584 H1571 0.930 . S
C1584 C1583 1.388 . S
C1584 C1585 1.390 . S
C1585 C1584 1.390 . S
C1585 C1586 1.394 . S
C1585 C1591 1.465 . S
C1586 C1581 1.399 . S
C1586 C1585 1.394 . S
C1586 C1587 1.516 . S
C1587 C1586 1.516 . S
C1587 C1588 1.502 . S
C1587 C1589 1.561 . S
C1587 C1590 1.526 . S
C1588 H1572 0.959 . S
C1588 H1573 0.959 . S
C1588 H1574 0.961 . S
C1588 C1587 1.502 . S
C1589 H1575 0.960 . S
C1589 H1576 0.961 . S
C1589 H1577 0.959 . S
C1589 C1587 1.561 . S
C1590 C1587 1.526 . S
C1590 C1591 1.396 . S
C1590 C1595 1.390 . S
C1591 C1585 1.465 . S
C1591 C1590 1.396 . S
C1591 C1592 1.399 . S
C1592 H1578 0.929 . S
C1592 C1591 1.399 . S
C1592 C1593 1.385 . S
C1593 H1579 0.931 . S
C1593 C1592 1.385 . S
C1593 C1594 1.389 . S
C1594 C1593 1.389 . S
C1594 C1595 1.387 . S
C1595 H1580 0.930 . S
C1595 C1590 1.390 . S
C1595 C1594 1.387 . S
H1596 C1608 0.930 . S
H1597 C1610 0.930 . S
H1598 C1611 0.930 . S
H1599 C1615 0.959 . S
H1600 C1615 0.959 . S
H1601 C1615 0.961 . S
H1602 C1616 0.960 . S
H1603 C1616 0.961 . S
H1604 C1616 0.959 . S
H1605 C1619 0.929 . S
H1606 C1620 0.931 . S
H1607 C1622 0.930 . S
C1608 H1596 0.930 . S
C1608 C1609 1.399 . S
C1608 C1613 1.399 . S
C1609 C1608 1.399 . S
C1609 C1610 1.376 . S
C1610 H1597 0.930 . S
C1610 C1609 1.376 . S
C1610 C1611 1.388 . S
C1611 H1598 0.930 . S
C1611 C1610 1.388 . S
C1611 C1612 1.390 . S
C1612 C1611 1.390 . S
C1612 C1613 1.394 . S
C1612 C1618 1.465 . S
C1613 C1608 1.399 . S
C1613 C1612 1.394 . S
C1613 C1614 1.516 . S
C1614 C1613 1.516 . S
C1614 C1615 1.502 . S
C1614 C1616 1.561 . S
C1614 C1617 1.526 . S
C1615 H1599 0.959 . S
C1615 H1600 0.959 . S
C1615 H1601 0.961 . S
C1615 C1614 1.502 . S
C1616 H1602 0.960 . S
C1616 H1603 0.961 . S
C1616 H1604 0.959 . S
C1616 C1614 1.561 . S
C1617 C1614 1.526 . S
C1617 C1618 1.396 . S
C1617 C1622 1.390 . S
C1618 C1612 1.465 . S
C1618 C1617 1.396 . S
C1618 C1619 1.399 . S
C1619 H1605 0.929 . S
C1619 C1618 1.399 . S
C1619 C1620 1.385 . S
C1620 H1606 0.931 . S
C1620 C1619 1.385 . S
C1620 C1621 1.389 . S
C1621 C1620 1.389 . S
C1621 C1622 1.387 . S
C1622 H1607 0.930 . S
C1622 C1617 1.390 . S
C1622 C1621 1.387 . S
H1623 C1635 0.930 . S
H1624 C1637 0.930 . S
H1625 C1638 0.930 . S
H1626 C1642 0.959 . S
H1627 C1642 0.959 . S
H1628 C1642 0.961 . S
H1629 C1643 0.960 . S
H1630 C1643 0.961 . S
H1631 C1643 0.959 . S
H1632 C1646 0.929 . S
H1633 C1647 0.931 . S
H1634 C1649 0.930 . S
C1635 H1623 0.930 . S
C1635 C1636 1.399 . S
C1635 C1640 1.399 . S
C1636 C1635 1.399 . S
C1636 C1637 1.376 . S
C1637 H1624 0.930 . S
C1637 C1636 1.376 . S
C1637 C1638 1.388 . S
C1638 H1625 0.930 . S
C1638 C1637 1.388 . S
C1638 C1639 1.390 . S
C1639 C1638 1.390 . S
C1639 C1640 1.394 . S
C1639 C1645 1.465 . S
C1640 C1635 1.399 . S
C1640 C1639 1.394 . S
C1640 C1641 1.516 . S
C1641 C1640 1.516 . S
C1641 C1642 1.502 . S
C1641 C1643 1.561 . S
C1641 C1644 1.526 . S
C1642 H1626 0.959 . S
C1642 H1627 0.959 . S
C1642 H1628 0.961 . S
C1642 C1641 1.502 . S
C1643 H1629 0.960 . S
C1643 H1630 0.961 . S
C1643 H1631 0.959 . S
C1643 C1641 1.561 . S
C1644 C1641 1.526 . S
C1644 C1645 1.396 . S
C1644 C1649 1.390 . S
C1645 C1639 1.465 . S
C1645 C1644 1.396 . S
C1645 C1646 1.399 . S
C1646 H1632 0.929 . S
C1646 C1645 1.399 . S
C1646 C1647 1.385 . S
C1647 H1633 0.931 . S
C1647 C1646 1.385 . S
C1647 C1648 1.389 . S
C1648 C1647 1.389 . S
C1648 C1649 1.387 . S
C1649 H1634 0.930 . S
C1649 C1644 1.390 . S
C1649 C1648 1.387 . S
H1650 C1662 0.930 . S
H1651 C1664 0.930 . S
H1652 C1665 0.930 . S
H1653 C1669 0.959 . S
H1654 C1669 0.959 . S
H1655 C1669 0.961 . S
H1656 C1670 0.960 . S
H1657 C1670 0.961 . S
H1658 C1670 0.959 . S
H1659 C1673 0.929 . S
H1660 C1674 0.931 . S
H1661 C1676 0.930 . S
C1662 H1650 0.930 . S
C1662 C1663 1.399 . S
C1662 C1667 1.399 . S
C1663 C1662 1.399 . S
C1663 C1664 1.376 . S
C1664 H1651 0.930 . S
C1664 C1663 1.376 . S
C1664 C1665 1.388 . S
C1665 H1652 0.930 . S
C1665 C1664 1.388 . S
C1665 C1666 1.390 . S
C1666 C1665 1.390 . S
C1666 C1667 1.394 . S
C1666 C1672 1.465 . S
C1667 C1662 1.399 . S
C1667 C1666 1.394 . S
C1667 C1668 1.516 . S
C1668 C1667 1.516 . S
C1668 C1669 1.502 . S
C1668 C1670 1.561 . S
C1668 C1671 1.526 . S
C1669 H1653 0.959 . S
C1669 H1654 0.959 . S
C1669 H1655 0.961 . S
C1669 C1668 1.502 . S
C1670 H1656 0.960 . S
C1670 H1657 0.961 . S
C1670 H1658 0.959 . S
C1670 C1668 1.561 . S
C1671 C1668 1.526 . S
C1671 C1672 1.396 . S
C1671 C1676 1.390 . S
C1672 C1666 1.465 . S
C1672 C1671 1.396 . S
C1672 C1673 1.399 . S
C1673 H1659 0.929 . S
C1673 C1672 1.399 . S
C1673 C1674 1.385 . S
C1674 H1660 0.931 . S
C1674 C1673 1.385 . S
C1674 C1675 1.389 . S
C1675 C1674 1.389 . S
C1675 C1676 1.387 . S
C1676 H1661 0.930 . S
C1676 C1671 1.390 . S
C1676 C1675 1.387 . S
H1677 C1689 0.930 . S
H1678 C1691 0.930 . S
H1679 C1692 0.930 . S
H1680 C1696 0.959 . S
H1681 C1696 0.959 . S
H1682 C1696 0.961 . S
H1683 C1697 0.960 . S
H1684 C1697 0.961 . S
H1685 C1697 0.959 . S
H1686 C1700 0.929 . S
H1687 C1701 0.931 . S
H1688 C1703 0.930 . S
C1689 H1677 0.930 . S
C1689 C1690 1.399 . S
C1689 C1694 1.399 . S
C1690 C1689 1.399 . S
C1690 C1691 1.376 . S
C1691 H1678 0.930 . S
C1691 C1690 1.376 . S
C1691 C1692 1.388 . S
C1692 H1679 0.930 . S
C1692 C1691 1.388 . S
C1692 C1693 1.390 . S
C1693 C1692 1.390 . S
C1693 C1694 1.394 . S
C1693 C1699 1.465 . S
C1694 C1689 1.399 . S
C1694 C1693 1.394 . S
C1694 C1695 1.516 . S
C1695 C1694 1.516 . S
C1695 C1696 1.502 . S
C1695 C1697 1.561 . S
C1695 C1698 1.526 . S
C1696 H1680 0.959 . S
C1696 H1681 0.959 . S
C1696 H1682 0.961 . S
C1696 C1695 1.502 . S
C1697 H1683 0.960 . S
C1697 H1684 0.961 . S
C1697 H1685 0.959 . S
C1697 C1695 1.561 . S
C1698 C1695 1.526 . S
C1698 C1699 1.396 . S
C1698 C1703 1.390 . S
C1699 C1693 1.465 . S
C1699 C1698 1.396 . S
C1699 C1700 1.399 . S
C1700 H1686 0.929 . S
C1700 C1699 1.399 . S
C1700 C1701 1.385 . S
C1701 H1687 0.931 . S
C1701 C1700 1.385 . S
C1701 C1702 1.389 . S
C1702 C1701 1.389 . S
C1702 C1703 1.387 . S
C1703 H1688 0.930 . S
C1703 C1698 1.390 . S
C1703 C1702 1.387 . S
H1704 C1716 0.930 . S
H1705 C1718 0.930 . S
H1706 C1719 0.930 . S
H1707 C1723 0.959 . S
H1708 C1723 0.959 . S
H1709 C1723 0.961 . S
H1710 C1724 0.960 . S
H1711 C1724 0.961 . S
H1712 C1724 0.959 . S
H1713 C1727 0.929 . S
H1714 C1728 0.931 . S
H1715 C1730 0.930 . S
C1716 H1704 0.930 . S
C1716 C1717 1.399 . S
C1716 C1721 1.399 . S
C1717 C1716 1.399 . S
C1717 C1718 1.376 . S
C1718 H1705 0.930 . S
C1718 C1717 1.376 . S
C1718 C1719 1.388 . S
C1719 H1706 0.930 . S
C1719 C1718 1.388 . S
C1719 C1720 1.390 . S
C1720 C1719 1.390 . S
C1720 C1721 1.394 . S
C1720 C1726 1.465 . S
C1721 C1716 1.399 . S
C1721 C1720 1.394 . S
C1721 C1722 1.516 . S
C1722 C1721 1.516 . S
C1722 C1723 1.502 . S
C1722 C1724 1.561 . S
C1722 C1725 1.526 . S
C1723 H1707 0.959 . S
C1723 H1708 0.959 . S
C1723 H1709 0.961 . S
C1723 C1722 1.502 . S
C1724 H1710 0.960 . S
C1724 H1711 0.961 . S
C1724 H1712 0.959 . S
C1724 C1722 1.561 . S
C1725 C1722 1.526 . S
C1725 C1726 1.396 . S
C1725 C1730 1.390 . S
C1726 C1720 1.465 . S
C1726 C1725 1.396 . S
C1726 C1727 1.399 . S
C1727 H1713 0.929 . S
C1727 C1726 1.399 . S
C1727 C1728 1.385 . S
C1728 H1714 0.931 . S
C1728 C1727 1.385 . S
C1728 C1729 1.389 . S
C1729 C1728 1.389 . S
C1729 C1730 1.387 . S
C1730 H1715 0.930 . S
C1730 C1725 1.390 . S
C1730 C1729 1.387 . S
H1731 C1743 0.930 . S
H1732 C1745 0.930 . S
H1733 C1746 0.930 . S
H1734 C1750 0.959 . S
H1735 C1750 0.959 . S
H1736 C1750 0.961 . S
H1737 C1751 0.960 . S
H1738 C1751 0.961 . S
H1739 C1751 0.959 . S
H1740 C1754 0.929 . S
H1741 C1755 0.931 . S
H1742 C1757 0.930 . S
C1743 H1731 0.930 . S
C1743 C1744 1.399 . S
C1743 C1748 1.399 . S
C1744 C1743 1.399 . S
C1744 C1745 1.376 . S
C1745 H1732 0.930 . S
C1745 C1744 1.376 . S
C1745 C1746 1.388 . S
C1746 H1733 0.930 . S
C1746 C1745 1.388 . S
C1746 C1747 1.390 . S
C1747 C1746 1.390 . S
C1747 C1748 1.394 . S
C1747 C1753 1.465 . S
C1748 C1743 1.399 . S
C1748 C1747 1.394 . S
C1748 C1749 1.516 . S
C1749 C1748 1.516 . S
C1749 C1750 1.502 . S
C1749 C1751 1.561 . S
C1749 C1752 1.526 . S
C1750 H1734 0.959 . S
C1750 H1735 0.959 . S
C1750 H1736 0.961 . S
C1750 C1749 1.502 . S
C1751 H1737 0.960 . S
C1751 H1738 0.961 . S
C1751 H1739 0.959 . S
C1751 C1749 1.561 . S
C1752 C1749 1.526 . S
C1752 C1753 1.396 . S
C1752 C1757 1.390 . S
C1753 C1747 1.465 . S
C1753 C1752 1.396 . S
C1753 C1754 1.399 . S
C1754 H1740 0.929 . S
C1754 C1753 1.399 . S
C1754 C1755 1.385 . S
C1755 H1741 0.931 . S
C1755 C1754 1.385 . S
C1755 C1756 1.389 . S
C1756 C1755 1.389 . S
C1756 C1757 1.387 . S
C1757 H1742 0.930 . S
C1757 C1752 1.390 . S
C1757 C1756 1.387 . S
H1758 C1770 0.930 . S
H1759 C1772 0.930 . S
H1760 C1773 0.930 . S
H1761 C1777 0.959 . S
H1762 C1777 0.959 . S
H1763 C1777 0.961 . S
H1764 C1778 0.960 . S
H1765 C1778 0.961 . S
H1766 C1778 0.959 . S
H1767 C1781 0.929 . S
H1768 C1782 0.931 . S
H1769 C1784 0.930 . S
C1770 H1758 0.930 . S
C1770 C1771 1.399 . S
C1770 C1775 1.399 . S
C1771 C1770 1.399 . S
C1771 C1772 1.376 . S
C1772 H1759 0.930 . S
C1772 C1771 1.376 . S
C1772 C1773 1.388 . S
C1773 H1760 0.930 . S
C1773 C1772 1.388 . S
C1773 C1774 1.390 . S
C1774 C1773 1.390 . S
C1774 C1775 1.394 . S
C1774 C1780 1.465 . S
C1775 C1770 1.399 . S
C1775 C1774 1.394 . S
C1775 C1776 1.516 . S
C1776 C1775 1.516 . S
C1776 C1777 1.502 . S
C1776 C1778 1.561 . S
C1776 C1779 1.526 . S
C1777 H1761 0.959 . S
C1777 H1762 0.959 . S
C1777 H1763 0.961 . S
C1777 C1776 1.502 . S
C1778 H1764 0.960 . S
C1778 H1765 0.961 . S
C1778 H1766 0.959 . S
C1778 C1776 1.561 . S
C1779 C1776 1.526 . S
C1779 C1780 1.396 . S
C1779 C1784 1.390 . S
C1780 C1774 1.465 . S
C1780 C1779 1.396 . S
C1780 C1781 1.399 . S
C1781 H1767 0.929 . S
C1781 C1780 1.399 . S
C1781 C1782 1.385 . S
C1782 H1768 0.931 . S
C1782 C1781 1.385 . S
C1782 C1783 1.389 . S
C1783 C1782 1.389 . S
C1783 C1784 1.387 . S
C1784 H1769 0.930 . S
C1784 C1779 1.390 . S
C1784 C1783 1.387 . S
H1785 C1797 0.930 . S
H1786 C1799 0.930 . S
H1787 C1800 0.930 . S
H1788 C1804 0.959 . S
H1789 C1804 0.959 . S
H1790 C1804 0.961 . S
H1791 C1805 0.960 . S
H1792 C1805 0.961 . S
H1793 C1805 0.959 . S
H1794 C1808 0.929 . S
H1795 C1809 0.931 . S
H1796 C1811 0.930 . S
C1797 H1785 0.930 . S
C1797 C1798 1.399 . S
C1797 C1802 1.399 . S
C1798 C1797 1.399 . S
C1798 C1799 1.376 . S
C1799 H1786 0.930 . S
C1799 C1798 1.376 . S
C1799 C1800 1.388 . S
C1800 H1787 0.930 . S
C1800 C1799 1.388 . S
C1800 C1801 1.390 . S
C1801 C1800 1.390 . S
C1801 C1802 1.394 . S
C1801 C1807 1.465 . S
C1802 C1797 1.399 . S
C1802 C1801 1.394 . S
C1802 C1803 1.516 . S
C1803 C1802 1.516 . S
C1803 C1804 1.502 . S
C1803 C1805 1.561 . S
C1803 C1806 1.526 . S
C1804 H1788 0.959 . S
C1804 H1789 0.959 . S
C1804 H1790 0.961 . S
C1804 C1803 1.502 . S
C1805 H1791 0.960 . S
C1805 H1792 0.961 . S
C1805 H1793 0.959 . S
C1805 C1803 1.561 . S
C1806 C1803 1.526 . S
C1806 C1807 1.396 . S
C1806 C1811 1.390 . S
C1807 C1801 1.465 . S
C1807 C1806 1.396 . S
C1807 C1808 1.399 . S
C1808 H1794 0.929 . S
C1808 C1807 1.399 . S
C1808 C1809 1.385 . S
C1809 H1795 0.931 . S
C1809 C1808 1.385 . S
C1809 C1810 1.389 . S
C1810 C1809 1.389 . S
C1810 C1811 1.387 . S
C1811 H1796 0.930 . S
C1811 C1806 1.390 . S
C1811 C1810 1.387 . S
H1812 C1824 0.930 . S
H1813 C1826 0.930 . S
H1814 C1827 0.930 . S
H1815 C1831 0.959 . S
H1816 C1831 0.959 . S
H1817 C1831 0.961 . S
H1818 C1832 0.960 . S
H1819 C1832 0.961 . S
H1820 C1832 0.959 . S
H1821 C1835 0.929 . S
H1822 C1836 0.931 . S
H1823 C1838 0.930 . S
C1824 H1812 0.930 . S
C1824 C1825 1.399 . S
C1824 C1829 1.399 . S
C1825 C1824 1.399 . S
C1825 C1826 1.376 . S
C1826 H1813 0.930 . S
C1826 C1825 1.376 . S
C1826 C1827 1.388 . S
C1827 H1814 0.930 . S
C1827 C1826 1.388 . S
C1827 C1828 1.390 . S
C1828 C1827 1.390 . S
C1828 C1829 1.394 . S
C1828 C1834 1.465 . S
C1829 C1824 1.399 . S
C1829 C1828 1.394 . S
C1829 C1830 1.516 . S
C1830 C1829 1.516 . S
C1830 C1831 1.502 . S
C1830 C1832 1.561 . S
C1830 C1833 1.526 . S
C1831 H1815 0.959 . S
C1831 H1816 0.959 . S
C1831 H1817 0.961 . S
C1831 C1830 1.502 . S
C1832 H1818 0.960 . S
C1832 H1819 0.961 . S
C1832 H1820 0.959 . S
C1832 C1830 1.561 . S
C1833 C1830 1.526 . S
C1833 C1834 1.396 . S
C1833 C1838 1.390 . S
C1834 C1828 1.465 . S
C1834 C1833 1.396 . S
C1834 C1835 1.399 . S
C1835 H1821 0.929 . S
C1835 C1834 1.399 . S
C1835 C1836 1.385 . S
C1836 H1822 0.931 . S
C1836 C1835 1.385 . S
C1836 C1837 1.389 . S
C1837 C1836 1.389 . S
C1837 C1838 1.387 . S
C1838 H1823 0.930 . S
C1838 C1833 1.390 . S
C1838 C1837 1.387 . S
H1839 C1851 0.930 . S
H1840 C1853 0.930 . S
H1841 C1854 0.930 . S
H1842 C1858 0.959 . S
H1843 C1858 0.959 . S
H1844 C1858 0.961 . S
H1845 C1859 0.960 . S
H1846 C1859 0.961 . S
H1847 C1859 0.959 . S
H1848 C1862 0.929 . S
H1849 C1863 0.931 . S
H1850 C1865 0.930 . S
C1851 H1839 0.930 . S
C1851 C1852 1.399 . S
C1851 C1856 1.399 . S
C1852 C1851 1.399 . S
C1852 C1853 1.376 . S
C1853 H1840 0.930 . S
C1853 C1852 1.376 . S
C1853 C1854 1.388 . S
C1854 H1841 0.930 . S
C1854 C1853 1.388 . S
C1854 C1855 1.390 . S
C1855 C1854 1.390 . S
C1855 C1856 1.394 . S
C1855 C1861 1.465 . S
C1856 C1851 1.399 . S
C1856 C1855 1.394 . S
C1856 C1857 1.516 . S
C1857 C1856 1.516 . S
C1857 C1858 1.502 . S
C1857 C1859 1.561 . S
C1857 C1860 1.526 . S
C1858 H1842 0.959 . S
C1858 H1843 0.959 . S
C1858 H1844 0.961 . S
C1858 C1857 1.502 . S
C1859 H1845 0.960 . S
C1859 H1846 0.961 . S
C1859 H1847 0.959 . S
C1859 C1857 1.561 . S
C1860 C1857 1.526 . S
C1860 C1861 1.396 . S
C1860 C1865 1.390 . S
C1861 C1855 1.465 . S
C1861 C1860 1.396 . S
C1861 C1862 1.399 . S
C1862 H1848 0.929 . S
C1862 C1861 1.399 . S
C1862 C1863 1.385 . S
C1863 H1849 0.931 . S
C1863 C1862 1.385 . S
C1863 C1864 1.389 . S
C1864 C1863 1.389 . S
C1864 C1865 1.387 . S
C1865 H1850 0.930 . S
C1865 C1860 1.390 . S
C1865 C1864 1.387 . S
H1866 C1878 0.930 . S
H1867 C1880 0.930 . S
H1868 C1881 0.930 . S
H1869 C1885 0.959 . S
H1870 C1885 0.959 . S
H1871 C1885 0.961 . S
H1872 C1886 0.960 . S
H1873 C1886 0.961 . S
H1874 C1886 0.959 . S
H1875 C1889 0.929 . S
H1876 C1890 0.931 . S
H1877 C1892 0.930 . S
C1878 H1866 0.930 . S
C1878 C1879 1.399 . S
C1878 C1883 1.399 . S
C1879 C1878 1.399 . S
C1879 C1880 1.376 . S
C1880 H1867 0.930 . S
C1880 C1879 1.376 . S
C1880 C1881 1.388 . S
C1881 H1868 0.930 . S
C1881 C1880 1.388 . S
C1881 C1882 1.390 . S
C1882 C1881 1.390 . S
C1882 C1883 1.394 . S
C1882 C1888 1.465 . S
C1883 C1878 1.399 . S
C1883 C1882 1.394 . S
C1883 C1884 1.516 . S
C1884 C1883 1.516 . S
C1884 C1885 1.502 . S
C1884 C1886 1.561 . S
C1884 C1887 1.526 . S
C1885 H1869 0.959 . S
C1885 H1870 0.959 . S
C1885 H1871 0.961 . S
C1885 C1884 1.502 . S
C1886 H1872 0.960 . S
C1886 H1873 0.961 . S
C1886 H1874 0.959 . S
C1886 C1884 1.561 . S
C1887 C1884 1.526 . S
C1887 C1888 1.396 . S
C1887 C1892 1.390 . S
C1888 C1882 1.465 . S
C1888 C1887 1.396 . S
C1888 C1889 1.399 . S
C1889 H1875 0.929 . S
C1889 C1888 1.399 . S
C1889 C1890 1.385 . S
C1890 H1876 0.931 . S
C1890 C1889 1.385 . S
C1890 C1891 1.389 . S
C1891 C1890 1.389 . S
C1891 C1892 1.387 . S
C1892 H1877 0.930 . S
C1892 C1887 1.390 . S
C1892 C1891 1.387 . S
H1893 C1905 0.930 . S
H1894 C1907 0.930 . S
H1895 C1908 0.930 . S
H1896 C1912 0.959 . S
H1897 C1912 0.959 . S
H1898 C1912 0.961 . S
H1899 C1913 0.960 . S
H1900 C1913 0.961 . S
H1901 C1913 0.959 . S
H1902 C1916 0.929 . S
H1903 C1917 0.931 . S
H1904 C1919 0.930 . S
C1905 H1893 0.930 . S
C1905 C1906 1.399 . S
C1905 C1910 1.399 . S
C1906 C1905 1.399 . S
C1906 C1907 1.376 . S
C1907 H1894 0.930 . S
C1907 C1906 1.376 . S
C1907 C1908 1.388 . S
C1908 H1895 0.930 . S
C1908 C1907 1.388 . S
C1908 C1909 1.390 . S
C1909 C1908 1.390 . S
C1909 C1910 1.394 . S
C1909 C1915 1.465 . S
C1910 C1905 1.399 . S
C1910 C1909 1.394 . S
C1910 C1911 1.516 . S
C1911 C1910 1.516 . S
C1911 C1912 1.502 . S
C1911 C1913 1.561 . S
C1911 C1914 1.526 . S
C1912 H1896 0.959 . S
C1912 H1897 0.959 . S
C1912 H1898 0.961 . S
C1912 C1911 1.502 . S
C1913 H1899 0.960 . S
C1913 H1900 0.961 . S
C1913 H1901 0.959 . S
C1913 C1911 1.561 . S
C1914 C1911 1.526 . S
C1914 C1915 1.396 . S
C1914 C1919 1.390 . S
C1915 C1909 1.465 . S
C1915 C1914 1.396 . S
C1915 C1916 1.399 . S
C1916 H1902 0.929 . S
C1916 C1915 1.399 . S
C1916 C1917 1.385 . S
C1917 H1903 0.931 . S
C1917 C1916 1.385 . S
C1917 C1918 1.389 . S
C1918 C1917 1.389 . S
C1918 C1919 1.387 . S
C1919 H1904 0.930 . S
C1919 C1914 1.390 . S
C1919 C1918 1.387 . S
H1920 C1932 0.930 . S
H1921 C1934 0.930 . S
H1922 C1935 0.930 . S
H1923 C1939 0.959 . S
H1924 C1939 0.959 . S
H1925 C1939 0.961 . S
H1926 C1940 0.960 . S
H1927 C1940 0.961 . S
H1928 C1940 0.959 . S
H1929 C1943 0.929 . S
H1930 C1944 0.931 . S
H1931 C1946 0.930 . S
C1932 H1920 0.930 . S
C1932 C1933 1.399 . S
C1932 C1937 1.399 . S
C1933 C1932 1.399 . S
C1933 C1934 1.376 . S
C1934 H1921 0.930 . S
C1934 C1933 1.376 . S
C1934 C1935 1.388 . S
C1935 H1922 0.930 . S
C1935 C1934 1.388 . S
C1935 C1936 1.390 . S
C1936 C1935 1.390 . S
C1936 C1937 1.394 . S
C1936 C1942 1.465 . S
C1937 C1932 1.399 . S
C1937 C1936 1.394 . S
C1937 C1938 1.516 . S
C1938 C1937 1.516 . S
C1938 C1939 1.502 . S
C1938 C1940 1.561 . S
C1938 C1941 1.526 . S
C1939 H1923 0.959 . S
C1939 H1924 0.959 . S
C1939 H1925 0.961 . S
C1939 C1938 1.502 . S
C1940 H1926 0.960 . S
C1940 H1927 0.961 . S
C1940 H1928 0.959 . S
C1940 C1938 1.561 . S
C1941 C1938 1.526 . S
C1941 C1942 1.396 . S
C1941 C1946 1.390 . S
C1942 C1936 1.465 . S
C1942 C1941 1.396 . S
C1942 C1943 1.399 . S
C1943 H1929 0.929 . S
C1943 C1942 1.399 . S
C1943 C1944 1.385 . S
C1944 H1930 0.931 . S
C1944 C1943 1.385 . S
C1944 C1945 1.389 . S
C1945 C1944 1.389 . S
C1945 C1946 1.387 . S
C1946 H1931 0.930 . S
C1946 C1941 1.390 . S
C1946 C1945 1.387 . S
H1947 C1959 0.930 . S
H1948 C1961 0.930 . S
H1949 C1962 0.930 . S
H1950 C1966 0.959 . S
H1951 C1966 0.959 . S
H1952 C1966 0.961 . S
H1953 C1967 0.960 . S
H1954 C1967 0.961 . S
H1955 C1967 0.959 . S
H1956 C1970 0.929 . S
H1957 C1971 0.931 . S
H1958 C1973 0.930 . S
C1959 H1947 0.930 . S
C1959 C1960 1.399 . S
C1959 C1964 1.399 . S
C1960 C1959 1.399 . S
C1960 C1961 1.376 . S
C1961 H1948 0.930 . S
C1961 C1960 1.376 . S
C1961 C1962 1.388 . S
C1962 H1949 0.930 . S
C1962 C1961 1.388 . S
C1962 C1963 1.390 . S
C1963 C1962 1.390 . S
C1963 C1964 1.394 . S
C1963 C1969 1.465 . S
C1964 C1959 1.399 . S
C1964 C1963 1.394 . S
C1964 C1965 1.516 . S
C1965 C1964 1.516 . S
C1965 C1966 1.502 . S
C1965 C1967 1.561 . S
C1965 C1968 1.526 . S
C1966 H1950 0.959 . S
C1966 H1951 0.959 . S
C1966 H1952 0.961 . S
C1966 C1965 1.502 . S
C1967 H1953 0.960 . S
C1967 H1954 0.961 . S
C1967 H1955 0.959 . S
C1967 C1965 1.561 . S
C1968 C1965 1.526 . S
C1968 C1969 1.396 . S
C1968 C1973 1.390 . S
C1969 C1963 1.465 . S
C1969 C1968 1.396 . S
C1969 C1970 1.399 . S
C1970 H1956 0.929 . S
C1970 C1969 1.399 . S
C1970 C1971 1.385 . S
C1971 H1957 0.931 . S
C1971 C1970 1.385 . S
C1971 C1972 1.389 . S
C1972 C1971 1.389 . S
C1972 C1973 1.387 . S
C1973 H1958 0.930 . S
C1973 C1968 1.390 . S
C1973 C1972 1.387 . S
H1974 C1986 0.930 . S
H1975 C1988 0.930 . S
H1976 C1989 0.930 . S
H1977 C1993 0.959 . S
H1978 C1993 0.959 . S
H1979 C1993 0.961 . S
H1980 C1994 0.960 . S
H1981 C1994 0.961 . S
H1982 C1994 0.959 . S
H1983 C1997 0.929 . S
H1984 C1998 0.931 . S
H1985 C2000 0.930 . S
C1986 H1974 0.930 . S
C1986 C1987 1.399 . S
C1986 C1991 1.399 . S
C1987 C1986 1.399 . S
C1987 C1988 1.376 . S
C1988 H1975 0.930 . S
C1988 C1987 1.376 . S
C1988 C1989 1.388 . S
C1989 H1976 0.930 . S
C1989 C1988 1.388 . S
C1989 C1990 1.390 . S
C1990 C1989 1.390 . S
C1990 C1991 1.394 . S
C1990 C1996 1.465 . S
C1991 C1986 1.399 . S
C1991 C1990 1.394 . S
C1991 C1992 1.516 . S
C1992 C1991 1.516 . S
C1992 C1993 1.502 . S
C1992 C1994 1.561 . S
C1992 C1995 1.526 . S
C1993 H1977 0.959 . S
C1993 H1978 0.959 . S
C1993 H1979 0.961 . S
C1993 C1992 1.502 . S
C1994 H1980 0.960 . S
C1994 H1981 0.961 . S
C1994 H1982 0.959 . S
C1994 C1992 1.561 . S
C1995 C1992 1.526 . S
C1995 C1996 1.396 . S
C1995 C2000 1.390 . S
C1996 C1990 1.465 . S
C1996 C1995 1.396 . S
C1996 C1997 1.399 . S
C1997 H1983 0.929 . S
C1997 C1996 1.399 . S
C1997 C1998 1.385 . S
C1998 H1984 0.931 . S
C1998 C1997 1.385 . S
C1998 C1999 1.389 . S
C1999 C1998 1.389 . S
C1999 C2000 1.387 . S
C2000 H1985 0.930 . S
C2000 C1995 1.390 . S
C2000 C1999 1.387 . S
H2001 C2013 0.930 . S
H2002 C2015 0.930 . S
H2003 C2016 0.930 . S
H2004 C2020 0.959 . S
H2005 C2020 0.959 . S
H2006 C2020 0.961 . S
H2007 C2021 0.960 . S
H2008 C2021 0.961 . S
H2009 C2021 0.959 . S
H2010 C2024 0.929 . S
H2011 C2025 0.931 . S
H2012 C2027 0.930 . S
C2013 H2001 0.930 . S
C2013 C2014 1.399 . S
C2013 C2018 1.399 . S
C2014 C2013 1.399 . S
C2014 C2015 1.376 . S
C2015 H2002 0.930 . S
C2015 C2014 1.376 . S
C2015 C2016 1.388 . S
C2016 H2003 0.930 . S
C2016 C2015 1.388 . S
C2016 C2017 1.390 . S
C2017 C2016 1.390 . S
C2017 C2018 1.394 . S
C2017 C2023 1.465 . S
C2018 C2013 1.399 . S
C2018 C2017 1.394 . S
C2018 C2019 1.516 . S
C2019 C2018 1.516 . S
C2019 C2020 1.502 . S
C2019 C2021 1.561 . S
C2019 C2022 1.526 . S
C2020 H2004 0.959 . S
C2020 H2005 0.959 . S
C2020 H2006 0.961 . S
C2020 C2019 1.502 . S
C2021 H2007 0.960 . S
C2021 H2008 0.961 . S
C2021 H2009 0.959 . S
C2021 C2019 1.561 . S
C2022 C2019 1.526 . S
C2022 C2023 1.396 . S
C2022 C2027 1.390 . S
C2023 C2017 1.465 . S
C2023 C2022 1.396 . S
C2023 C2024 1.399 . S
C2024 H2010 0.929 . S
C2024 C2023 1.399 . S
C2024 C2025 1.385 . S
C2025 H2011 0.931 . S
C2025 C2024 1.385 . S
C2025 C2026 1.389 . S
C2026 C2025 1.389 . S
C2026 C2027 1.387 . S
C2027 H2012 0.930 . S
C2027 C2022 1.390 . S
C2027 C2026 1.387 . S
H2028 C2040 0.930 . S
H2029 C2042 0.930 . S
H2030 C2043 0.930 . S
H2031 C2047 0.959 . S
H2032 C2047 0.959 . S
H2033 C2047 0.961 . S
H2034 C2048 0.960 . S
H2035 C2048 0.961 . S
H2036 C2048 0.959 . S
H2037 C2051 0.929 . S
H2038 C2052 0.931 . S
H2039 C2054 0.930 . S
C2040 H2028 0.930 . S
C2040 C2041 1.399 . S
C2040 C2045 1.399 . S
C2041 C2040 1.399 . S
C2041 C2042 1.376 . S
C2042 H2029 0.930 . S
C2042 C2041 1.376 . S
C2042 C2043 1.388 . S
C2043 H2030 0.930 . S
C2043 C2042 1.388 . S
C2043 C2044 1.390 . S
C2044 C2043 1.390 . S
C2044 C2045 1.394 . S
C2044 C2050 1.465 . S
C2045 C2040 1.399 . S
C2045 C2044 1.394 . S
C2045 C2046 1.516 . S
C2046 C2045 1.516 . S
C2046 C2047 1.502 . S
C2046 C2048 1.561 . S
C2046 C2049 1.526 . S
C2047 H2031 0.959 . S
C2047 H2032 0.959 . S
C2047 H2033 0.961 . S
C2047 C2046 1.502 . S
C2048 H2034 0.960 . S
C2048 H2035 0.961 . S
C2048 H2036 0.959 . S
C2048 C2046 1.561 . S
C2049 C2046 1.526 . S
C2049 C2050 1.396 . S
C2049 C2054 1.390 . S
C2050 C2044 1.465 . S
C2050 C2049 1.396 . S
C2050 C2051 1.399 . S
C2051 H2037 0.929 . S
C2051 C2050 1.399 . S
C2051 C2052 1.385 . S
C2052 H2038 0.931 . S
C2052 C2051 1.385 . S
C2052 C2053 1.389 . S
C2053 C2052 1.389 . S
C2053 C2054 1.387 . S
C2054 H2039 0.930 . S
C2054 C2049 1.390 . S
C2054 C2053 1.387 . S
H2055 C2067 0.930 . S
H2056 C2069 0.930 . S
H2057 C2070 0.930 . S
H2058 C2074 0.959 . S
H2059 C2074 0.959 . S
H2060 C2074 0.961 . S
H2061 C2075 0.960 . S
H2062 C2075 0.961 . S
H2063 C2075 0.959 . S
H2064 C2078 0.929 . S
H2065 C2079 0.931 . S
H2066 C2081 0.930 . S
C2067 H2055 0.930 . S
C2067 C2068 1.399 . S
C2067 C2072 1.399 . S
C2068 C2067 1.399 . S
C2068 C2069 1.376 . S
C2069 H2056 0.930 . S
C2069 C2068 1.376 . S
C2069 C2070 1.388 . S
C2070 H2057 0.930 . S
C2070 C2069 1.388 . S
C2070 C2071 1.390 . S
C2071 C2070 1.390 . S
C2071 C2072 1.394 . S
C2071 C2077 1.465 . S
C2072 C2067 1.399 . S
C2072 C2071 1.394 . S
C2072 C2073 1.516 . S
C2073 C2072 1.516 . S
C2073 C2074 1.502 . S
C2073 C2075 1.561 . S
C2073 C2076 1.526 . S
C2074 H2058 0.959 . S
C2074 H2059 0.959 . S
C2074 H2060 0.961 . S
C2074 C2073 1.502 . S
C2075 H2061 0.960 . S
C2075 H2062 0.961 . S
C2075 H2063 0.959 . S
C2075 C2073 1.561 . S
C2076 C2073 1.526 . S
C2076 C2077 1.396 . S
C2076 C2081 1.390 . S
C2077 C2071 1.465 . S
C2077 C2076 1.396 . S
C2077 C2078 1.399 . S
C2078 H2064 0.929 . S
C2078 C2077 1.399 . S
C2078 C2079 1.385 . S
C2079 H2065 0.931 . S
C2079 C2078 1.385 . S
C2079 C2080 1.389 . S
C2080 C2079 1.389 . S
C2080 C2081 1.387 . S
C2081 H2066 0.930 . S
C2081 C2076 1.390 . S
C2081 C2080 1.387 . S
H2082 C2094 0.930 . S
H2083 C2096 0.930 . S
H2084 C2097 0.930 . S
H2085 C2101 0.959 . S
H2086 C2101 0.959 . S
H2087 C2101 0.961 . S
H2088 C2102 0.960 . S
H2089 C2102 0.961 . S
H2090 C2102 0.959 . S
H2091 C2105 0.929 . S
H2092 C2106 0.931 . S
H2093 C2108 0.930 . S
C2094 H2082 0.930 . S
C2094 C2095 1.399 . S
C2094 C2099 1.399 . S
C2095 C2094 1.399 . S
C2095 C2096 1.376 . S
C2096 H2083 0.930 . S
C2096 C2095 1.376 . S
C2096 C2097 1.388 . S
C2097 H2084 0.930 . S
C2097 C2096 1.388 . S
C2097 C2098 1.390 . S
C2098 C2097 1.390 . S
C2098 C2099 1.394 . S
C2098 C2104 1.465 . S
C2099 C2094 1.399 . S
C2099 C2098 1.394 . S
C2099 C2100 1.516 . S
C2100 C2099 1.516 . S
C2100 C2101 1.502 . S
C2100 C2102 1.561 . S
C2100 C2103 1.526 . S
C2101 H2085 0.959 . S
C2101 H2086 0.959 . S
C2101 H2087 0.961 . S
C2101 C2100 1.502 . S
C2102 H2088 0.960 . S
C2102 H2089 0.961 . S
C2102 H2090 0.959 . S
C2102 C2100 1.561 . S
C2103 C2100 1.526 . S
C2103 C2104 1.396 . S
C2103 C2108 1.390 . S
C2104 C2098 1.465 . S
C2104 C2103 1.396 . S
C2104 C2105 1.399 . S
C2105 H2091 0.929 . S
C2105 C2104 1.399 . S
C2105 C2106 1.385 . S
C2106 H2092 0.931 . S
C2106 C2105 1.385 . S
C2106 C2107 1.389 . S
C2107 C2106 1.389 . S
C2107 C2108 1.387 . S
C2108 H2093 0.930 . S
C2108 C2103 1.390 . S
C2108 C2107 1.387 . S
H2109 C2121 0.930 . S
H2110 C2123 0.930 . S
H2111 C2124 0.930 . S
H2112 C2128 0.959 . S
H2113 C2128 0.959 . S
H2114 C2128 0.961 . S
H2115 C2129 0.960 . S
H2116 C2129 0.961 . S
H2117 C2129 0.959 . S
H2118 C2132 0.929 . S
H2119 C2133 0.931 . S
H2120 C2135 0.930 . S
C2121 H2109 0.930 . S
C2121 C2122 1.399 . S
C2121 C2126 1.399 . S
C2122 C2121 1.399 . S
C2122 C2123 1.376 . S
C2123 H2110 0.930 . S
C2123 C2122 1.376 . S
C2123 C2124 1.388 . S
C2124 H2111 0.930 . S
C2124 C2123 1.388 . S
C2124 C2125 1.390 . S
C2125 C2124 1.390 . S
C2125 C2126 1.394 . S
C2125 C2131 1.465 . S
C2126 C2121 1.399 . S
C2126 C2125 1.394 . S
C2126 C2127 1.516 . S
C2127 C2126 1.516 . S
C2127 C2128 1.502 . S
C2127 C2129 1.561 . S
C2127 C2130 1.526 . S
C2128 H2112 0.959 . S
C2128 H2113 0.959 . S
C2128 H2114 0.961 . S
C2128 C2127 1.502 . S
C2129 H2115 0.960 . S
C2129 H2116 0.961 . S
C2129 H2117 0.959 . S
C2129 C2127 1.561 . S
C2130 C2127 1.526 . S
C2130 C2131 1.396 . S
C2130 C2135 1.390 . S
C2131 C2125 1.465 . S
C2131 C2130 1.396 . S
C2131 C2132 1.399 . S
C2132 H2118 0.929 . S
C2132 C2131 1.399 . S
C2132 C2133 1.385 . S
C2133 H2119 0.931 . S
C2133 C2132 1.385 . S
C2133 C2134 1.389 . S
C2134 C2133 1.389 . S
C2134 C2135 1.387 . S
C2135 H2120 0.930 . S
C2135 C2130 1.390 . S
C2135 C2134 1.387 . S
H2136 C2148 0.930 . S
H2137 C2150 0.930 . S
H2138 C2151 0.930 . S
H2139 C2155 0.959 . S
H2140 C2155 0.959 . S
H2141 C2155 0.961 . S
H2142 C2156 0.960 . S
H2143 C2156 0.961 . S
H2144 C2156 0.959 . S
H2145 C2159 0.929 . S
H2146 C2160 0.931 . S
H2147 C2162 0.930 . S
C2148 H2136 0.930 . S
C2148 C2149 1.399 . S
C2148 C2153 1.399 . S
C2149 C2148 1.399 . S
C2149 C2150 1.376 . S
C2150 H2137 0.930 . S
C2150 C2149 1.376 . S
C2150 C2151 1.388 . S
C2151 H2138 0.930 . S
C2151 C2150 1.388 . S
C2151 C2152 1.390 . S
C2152 C2151 1.390 . S
C2152 C2153 1.394 . S
C2152 C2158 1.465 . S
C2153 C2148 1.399 . S
C2153 C2152 1.394 . S
C2153 C2154 1.516 . S
C2154 C2153 1.516 . S
C2154 C2155 1.502 . S
C2154 C2156 1.561 . S
C2154 C2157 1.526 . S
C2155 H2139 0.959 . S
C2155 H2140 0.959 . S
C2155 H2141 0.961 . S
C2155 C2154 1.502 . S
C2156 H2142 0.960 . S
C2156 H2143 0.961 . S
C2156 H2144 0.959 . S
C2156 C2154 1.561 . S
C2157 C2154 1.526 . S
C2157 C2158 1.396 . S
C2157 C2162 1.390 . S
C2158 C2152 1.465 . S
C2158 C2157 1.396 . S
C2158 C2159 1.399 . S
C2159 H2145 0.929 . S
C2159 C2158 1.399 . S
C2159 C2160 1.385 . S
C2160 H2146 0.931 . S
C2160 C2159 1.385 . S
C2160 C2161 1.389 . S
C2161 C2160 1.389 . S
C2161 C2162 1.387 . S
C2162 H2147 0.930 . S
C2162 C2157 1.390 . S
C2162 C2161 1.387 . S
H2163 C2175 0.930 . S
H2164 C2177 0.930 . S
H2165 C2178 0.930 . S
H2166 C2182 0.959 . S
H2167 C2182 0.959 . S
H2168 C2182 0.961 . S
H2169 C2183 0.960 . S
H2170 C2183 0.961 . S
H2171 C2183 0.959 . S
H2172 C2186 0.929 . S
H2173 C2187 0.931 . S
H2174 C2189 0.930 . S
C2175 H2163 0.930 . S
C2175 C2176 1.399 . S
C2175 C2180 1.399 . S
C2176 C2175 1.399 . S
C2176 C2177 1.376 . S
C2177 H2164 0.930 . S
C2177 C2176 1.376 . S
C2177 C2178 1.388 . S
C2178 H2165 0.930 . S
C2178 C2177 1.388 . S
C2178 C2179 1.390 . S
C2179 C2178 1.390 . S
C2179 C2180 1.394 . S
C2179 C2185 1.465 . S
C2180 C2175 1.399 . S
C2180 C2179 1.394 . S
C2180 C2181 1.516 . S
C2181 C2180 1.516 . S
C2181 C2182 1.502 . S
C2181 C2183 1.561 . S
C2181 C2184 1.526 . S
C2182 H2166 0.959 . S
C2182 H2167 0.959 . S
C2182 H2168 0.961 . S
C2182 C2181 1.502 . S
C2183 H2169 0.960 . S
C2183 H2170 0.961 . S
C2183 H2171 0.959 . S
C2183 C2181 1.561 . S
C2184 C2181 1.526 . S
C2184 C2185 1.396 . S
C2184 C2189 1.390 . S
C2185 C2179 1.465 . S
C2185 C2184 1.396 . S
C2185 C2186 1.399 . S
C2186 H2172 0.929 . S
C2186 C2185 1.399 . S
C2186 C2187 1.385 . S
C2187 H2173 0.931 . S
C2187 C2186 1.385 . S
C2187 C2188 1.389 . S
C2188 C2187 1.389 . S
C2188 C2189 1.387 . S
C2189 H2174 0.930 . S
C2189 C2184 1.390 . S
C2189 C2188 1.387 . S
H2190 C2202 0.930 . S
H2191 C2204 0.930 . S
H2192 C2205 0.930 . S
H2193 C2209 0.959 . S
H2194 C2209 0.959 . S
H2195 C2209 0.961 . S
H2196 C2210 0.960 . S
H2197 C2210 0.961 . S
H2198 C2210 0.959 . S
H2199 C2213 0.929 . S
H2200 C2214 0.931 . S
H2201 C2216 0.930 . S
C2202 H2190 0.930 . S
C2202 C2203 1.399 . S
C2202 C2207 1.399 . S
C2203 C2202 1.399 . S
C2203 C2204 1.376 . S
C2204 H2191 0.930 . S
C2204 C2203 1.376 . S
C2204 C2205 1.388 . S
C2205 H2192 0.930 . S
C2205 C2204 1.388 . S
C2205 C2206 1.390 . S
C2206 C2205 1.390 . S
C2206 C2207 1.394 . S
C2206 C2212 1.465 . S
C2207 C2202 1.399 . S
C2207 C2206 1.394 . S
C2207 C2208 1.516 . S
C2208 C2207 1.516 . S
C2208 C2209 1.502 . S
C2208 C2210 1.561 . S
C2208 C2211 1.526 . S
C2209 H2193 0.959 . S
C2209 H2194 0.959 . S
C2209 H2195 0.961 . S
C2209 C2208 1.502 . S
C2210 H2196 0.960 . S
C2210 H2197 0.961 . S
C2210 H2198 0.959 . S
C2210 C2208 1.561 . S
C2211 C2208 1.526 . S
C2211 C2212 1.396 . S
C2211 C2216 1.390 . S
C2212 C2206 1.465 . S
C2212 C2211 1.396 . S
C2212 C2213 1.399 . S
C2213 H2199 0.929 . S
C2213 C2212 1.399 . S
C2213 C2214 1.385 . S
C2214 H2200 0.931 . S
C2214 C2213 1.385 . S
C2214 C2215 1.389 . S
C2215 C2214 1.389 . S
C2215 C2216 1.387 . S
C2216 H2201 0.930 . S
C2216 C2211 1.390 . S
C2216 C2215 1.387 . S
H2217 C2229 0.930 . S
H2218 C2231 0.930 . S
H2219 C2232 0.930 . S
H2220 C2236 0.959 . S
H2221 C2236 0.959 . S
H2222 C2236 0.961 . S
H2223 C2237 0.960 . S
H2224 C2237 0.961 . S
H2225 C2237 0.959 . S
H2226 C2240 0.929 . S
H2227 C2241 0.931 . S
H2228 C2243 0.930 . S
C2229 H2217 0.930 . S
C2229 C2230 1.399 . S
C2229 C2234 1.399 . S
C2230 C2229 1.399 . S
C2230 C2231 1.376 . S
C2231 H2218 0.930 . S
C2231 C2230 1.376 . S
C2231 C2232 1.388 . S
C2232 H2219 0.930 . S
C2232 C2231 1.388 . S
C2232 C2233 1.390 . S
C2233 C2232 1.390 . S
C2233 C2234 1.394 . S
C2233 C2239 1.465 . S
C2234 C2229 1.399 . S
C2234 C2233 1.394 . S
C2234 C2235 1.516 . S
C2235 C2234 1.516 . S
C2235 C2236 1.502 . S
C2235 C2237 1.561 . S
C2235 C2238 1.526 . S
C2236 H2220 0.959 . S
C2236 H2221 0.959 . S
C2236 H2222 0.961 . S
C2236 C2235 1.502 . S
C2237 H2223 0.960 . S
C2237 H2224 0.961 . S
C2237 H2225 0.959 . S
C2237 C2235 1.561 . S
C2238 C2235 1.526 . S
C2238 C2239 1.396 . S
C2238 C2243 1.390 . S
C2239 C2233 1.465 . S
C2239 C2238 1.396 . S
C2239 C2240 1.399 . S
C2240 H2226 0.929 . S
C2240 C2239 1.399 . S
C2240 C2241 1.385 . S
C2241 H2227 0.931 . S
C2241 C2240 1.385 . S
C2241 C2242 1.389 . S
C2242 C2241 1.389 . S
C2242 C2243 1.387 . S
C2243 H2228 0.930 . S
C2243 C2238 1.390 . S
C2243 C2242 1.387 . S
H2244 C2256 0.930 . S
H2245 C2258 0.930 . S
H2246 C2259 0.930 . S
H2247 C2263 0.959 . S
H2248 C2263 0.959 . S
H2249 C2263 0.961 . S
H2250 C2264 0.960 . S
H2251 C2264 0.961 . S
H2252 C2264 0.959 . S
H2253 C2267 0.929 . S
H2254 C2268 0.931 . S
H2255 C2270 0.930 . S
C2256 H2244 0.930 . S
C2256 C2257 1.399 . S
C2256 C2261 1.399 . S
C2257 C2256 1.399 . S
C2257 C2258 1.376 . S
C2258 H2245 0.930 . S
C2258 C2257 1.376 . S
C2258 C2259 1.388 . S
C2259 H2246 0.930 . S
C2259 C2258 1.388 . S
C2259 C2260 1.390 . S
C2260 C2259 1.390 . S
C2260 C2261 1.394 . S
C2260 C2266 1.465 . S
C2261 C2256 1.399 . S
C2261 C2260 1.394 . S
C2261 C2262 1.516 . S
C2262 C2261 1.516 . S
C2262 C2263 1.502 . S
C2262 C2264 1.561 . S
C2262 C2265 1.526 . S
C2263 H2247 0.959 . S
C2263 H2248 0.959 . S
C2263 H2249 0.961 . S
C2263 C2262 1.502 . S
C2264 H2250 0.960 . S
C2264 H2251 0.961 . S
C2264 H2252 0.959 . S
C2264 C2262 1.561 . S
C2265 C2262 1.526 . S
C2265 C2266 1.396 . S
C2265 C2270 1.390 . S
C2266 C2260 1.465 . S
C2266 C2265 1.396 . S
C2266 C2267 1.399 . S
C2267 H2253 0.929 . S
C2267 C2266 1.399 . S
C2267 C2268 1.385 . S
C2268 H2254 0.931 . S
C2268 C2267 1.385 . S
C2268 C2269 1.389 . S
C2269 C2268 1.389 . S
C2269 C2270 1.387 . S
C2270 H2255 0.930 . S
C2270 C2265 1.390 . S
C2270 C2269 1.387 . S
H2271 C2283 0.930 . S
H2272 C2285 0.930 . S
H2273 C2286 0.930 . S
H2274 C2290 0.959 . S
H2275 C2290 0.959 . S
H2276 C2290 0.961 . S
H2277 C2291 0.960 . S
H2278 C2291 0.961 . S
H2279 C2291 0.959 . S
H2280 C2294 0.929 . S
H2281 C2295 0.931 . S
H2282 C2297 0.930 . S
C2283 H2271 0.930 . S
C2283 C2284 1.399 . S
C2283 C2288 1.399 . S
C2284 C2283 1.399 . S
C2284 C2285 1.376 . S
C2285 H2272 0.930 . S
C2285 C2284 1.376 . S
C2285 C2286 1.388 . S
C2286 H2273 0.930 . S
C2286 C2285 1.388 . S
C2286 C2287 1.390 . S
C2287 C2286 1.390 . S
C2287 C2288 1.394 . S
C2287 C2293 1.465 . S
C2288 C2283 1.399 . S
C2288 C2287 1.394 . S
C2288 C2289 1.516 . S
C2289 C2288 1.516 . S
C2289 C2290 1.502 . S
C2289 C2291 1.561 . S
C2289 C2292 1.526 . S
C2290 H2274 0.959 . S
C2290 H2275 0.959 . S
C2290 H2276 0.961 . S
C2290 C2289 1.502 . S
C2291 H2277 0.960 . S
C2291 H2278 0.961 . S
C2291 H2279 0.959 . S
C2291 C2289 1.561 . S
C2292 C2289 1.526 . S
C2292 C2293 1.396 . S
C2292 C2297 1.390 . S
C2293 C2287 1.465 . S
C2293 C2292 1.396 . S
C2293 C2294 1.399 . S
C2294 H2280 0.929 . S
C2294 C2293 1.399 . S
C2294 C2295 1.385 . S
C2295 H2281 0.931 . S
C2295 C2294 1.385 . S
C2295 C2296 1.389 . S
C2296 C2295 1.389 . S
C2296 C2297 1.387 . S
C2297 H2282 0.930 . S
C2297 C2292 1.390 . S
C2297 C2296 1.387 . S
H2298 C2310 0.930 . S
H2299 C2312 0.930 . S
H2300 C2313 0.930 . S
H2301 C2317 0.959 . S
H2302 C2317 0.959 . S
H2303 C2317 0.961 . S
H2304 C2318 0.960 . S
H2305 C2318 0.961 . S
H2306 C2318 0.959 . S
H2307 C2321 0.929 . S
H2308 C2322 0.931 . S
H2309 C2324 0.930 . S
C2310 H2298 0.930 . S
C2310 C2311 1.399 . S
C2310 C2315 1.399 . S
C2311 C2310 1.399 . S
C2311 C2312 1.376 . S
C2312 H2299 0.930 . S
C2312 C2311 1.376 . S
C2312 C2313 1.388 . S
C2313 H2300 0.930 . S
C2313 C2312 1.388 . S
C2313 C2314 1.390 . S
C2314 C2313 1.390 . S
C2314 C2315 1.394 . S
C2314 C2320 1.465 . S
C2315 C2310 1.399 . S
C2315 C2314 1.394 . S
C2315 C2316 1.516 . S
C2316 C2315 1.516 . S
C2316 C2317 1.502 . S
C2316 C2318 1.561 . S
C2316 C2319 1.526 . S
C2317 H2301 0.959 . S
C2317 H2302 0.959 . S
C2317 H2303 0.961 . S
C2317 C2316 1.502 . S
C2318 H2304 0.960 . S
C2318 H2305 0.961 . S
C2318 H2306 0.959 . S
C2318 C2316 1.561 . S
C2319 C2316 1.526 . S
C2319 C2320 1.396 . S
C2319 C2324 1.390 . S
C2320 C2314 1.465 . S
C2320 C2319 1.396 . S
C2320 C2321 1.399 . S
C2321 H2307 0.929 . S
C2321 C2320 1.399 . S
C2321 C2322 1.385 . S
C2322 H2308 0.931 . S
C2322 C2321 1.385 . S
C2322 C2323 1.389 . S
C2323 C2322 1.389 . S
C2323 C2324 1.387 . S
C2324 H2309 0.930 . S
C2324 C2319 1.390 . S
C2324 C2323 1.387 . S
H2325 C2337 0.930 . S
H2326 C2339 0.930 . S
H2327 C2340 0.930 . S
H2328 C2344 0.959 . S
H2329 C2344 0.959 . S
H2330 C2344 0.961 . S
H2331 C2345 0.960 . S
H2332 C2345 0.961 . S
H2333 C2345 0.959 . S
H2334 C2348 0.929 . S
H2335 C2349 0.931 . S
H2336 C2351 0.930 . S
C2337 H2325 0.930 . S
C2337 C2338 1.399 . S
C2337 C2342 1.399 . S
C2338 C2337 1.399 . S
C2338 C2339 1.376 . S
C2339 H2326 0.930 . S
C2339 C2338 1.376 . S
C2339 C2340 1.388 . S
C2340 H2327 0.930 . S
C2340 C2339 1.388 . S
C2340 C2341 1.390 . S
C2341 C2340 1.390 . S
C2341 C2342 1.394 . S
C2341 C2347 1.465 . S
C2342 C2337 1.399 . S
C2342 C2341 1.394 . S
C2342 C2343 1.516 . S
C2343 C2342 1.516 . S
C2343 C2344 1.502 . S
C2343 C2345 1.561 . S
C2343 C2346 1.526 . S
C2344 H2328 0.959 . S
C2344 H2329 0.959 . S
C2344 H2330 0.961 . S
C2344 C2343 1.502 . S
C2345 H2331 0.960 . S
C2345 H2332 0.961 . S
C2345 H2333 0.959 . S
C2345 C2343 1.561 . S
C2346 C2343 1.526 . S
C2346 C2347 1.396 . S
C2346 C2351 1.390 . S
C2347 C2341 1.465 . S
C2347 C2346 1.396 . S
C2347 C2348 1.399 . S
C2348 H2334 0.929 . S
C2348 C2347 1.399 . S
C2348 C2349 1.385 . S
C2349 H2335 0.931 . S
C2349 C2348 1.385 . S
C2349 C2350 1.389 . S
C2350 C2349 1.389 . S
C2350 C2351 1.387 . S
C2351 H2336 0.930 . S
C2351 C2346 1.390 . S
C2351 C2350 1.387 . S
H2352 C2364 0.930 . S
H2353 C2366 0.930 . S
H2354 C2367 0.930 . S
H2355 C2371 0.959 . S
H2356 C2371 0.959 . S
H2357 C2371 0.961 . S
H2358 C2372 0.960 . S
H2359 C2372 0.961 . S
H2360 C2372 0.959 . S
H2361 C2375 0.929 . S
H2362 C2376 0.931 . S
H2363 C2378 0.930 . S
C2364 H2352 0.930 . S
C2364 C2365 1.399 . S
C2364 C2369 1.399 . S
C2365 C2364 1.399 . S
C2365 C2366 1.376 . S
C2366 H2353 0.930 . S
C2366 C2365 1.376 . S
C2366 C2367 1.388 . S
C2367 H2354 0.930 . S
C2367 C2366 1.388 . S
C2367 C2368 1.390 . S
C2368 C2367 1.390 . S
C2368 C2369 1.394 . S
C2368 C2374 1.465 . S
C2369 C2364 1.399 . S
C2369 C2368 1.394 . S
C2369 C2370 1.516 . S
C2370 C2369 1.516 . S
C2370 C2371 1.502 . S
C2370 C2372 1.561 . S
C2370 C2373 1.526 . S
C2371 H2355 0.959 . S
C2371 H2356 0.959 . S
C2371 H2357 0.961 . S
C2371 C2370 1.502 . S
C2372 H2358 0.960 . S
C2372 H2359 0.961 . S
C2372 H2360 0.959 . S
C2372 C2370 1.561 . S
C2373 C2370 1.526 . S
C2373 C2374 1.396 . S
C2373 C2378 1.390 . S
C2374 C2368 1.465 . S
C2374 C2373 1.396 . S
C2374 C2375 1.399 . S
C2375 H2361 0.929 . S
C2375 C2374 1.399 . S
C2375 C2376 1.385 . S
C2376 H2362 0.931 . S
C2376 C2375 1.385 . S
C2376 C2377 1.389 . S
C2377 C2376 1.389 . S
C2377 C2378 1.387 . S
C2378 H2363 0.930 . S
C2378 C2373 1.390 . S
C2378 C2377 1.387 . S
H2379 C2391 0.930 . S
H2380 C2393 0.930 . S
H2381 C2394 0.930 . S
H2382 C2398 0.959 . S
H2383 C2398 0.959 . S
H2384 C2398 0.961 . S
H2385 C2399 0.960 . S
H2386 C2399 0.961 . S
H2387 C2399 0.959 . S
H2388 C2402 0.929 . S
H2389 C2403 0.931 . S
H2390 C2405 0.930 . S
C2391 H2379 0.930 . S
C2391 C2392 1.399 . S
C2391 C2396 1.399 . S
C2392 C2391 1.399 . S
C2392 C2393 1.376 . S
C2393 H2380 0.930 . S
C2393 C2392 1.376 . S
C2393 C2394 1.388 . S
C2394 H2381 0.930 . S
C2394 C2393 1.388 . S
C2394 C2395 1.390 . S
C2395 C2394 1.390 . S
C2395 C2396 1.394 . S
C2395 C2401 1.465 . S
C2396 C2391 1.399 . S
C2396 C2395 1.394 . S
C2396 C2397 1.516 . S
C2397 C2396 1.516 . S
C2397 C2398 1.502 . S
C2397 C2399 1.561 . S
C2397 C2400 1.526 . S
C2398 H2382 0.959 . S
C2398 H2383 0.959 . S
C2398 H2384 0.961 . S
C2398 C2397 1.502 . S
C2399 H2385 0.960 . S
C2399 H2386 0.961 . S
C2399 H2387 0.959 . S
C2399 C2397 1.561 . S
C2400 C2397 1.526 . S
C2400 C2401 1.396 . S
C2400 C2405 1.390 . S
C2401 C2395 1.465 . S
C2401 C2400 1.396 . S
C2401 C2402 1.399 . S
C2402 H2388 0.929 . S
C2402 C2401 1.399 . S
C2402 C2403 1.385 . S
C2403 H2389 0.931 . S
C2403 C2402 1.385 . S
C2403 C2404 1.389 . S
C2404 C2403 1.389 . S
C2404 C2405 1.387 . S
C2405 H2390 0.930 . S
C2405 C2400 1.390 . S
C2405 C2404 1.387 . S
H2406 C2418 0.930 . S
H2407 C2420 0.930 . S
H2408 C2421 0.930 . S
H2409 C2425 0.959 . S
H2410 C2425 0.959 . S
H2411 C2425 0.961 . S
H2412 C2426 0.960 . S
H2413 C2426 0.961 . S
H2414 C2426 0.959 . S
H2415 C2429 0.929 . S
H2416 C2430 0.931 . S
H2417 C2432 0.930 . S
C2418 H2406 0.930 . S
C2418 C2419 1.399 . S
C2418 C2423 1.399 . S
C2419 C2418 1.399 . S
C2419 C2420 1.376 . S
C2420 H2407 0.930 . S
C2420 C2419 1.376 . S
C2420 C2421 1.388 . S
C2421 H2408 0.930 . S
C2421 C2420 1.388 . S
C2421 C2422 1.390 . S
C2422 C2421 1.390 . S
C2422 C2423 1.394 . S
C2422 C2428 1.465 . S
C2423 C2418 1.399 . S
C2423 C2422 1.394 . S
C2423 C2424 1.516 . S
C2424 C2423 1.516 . S
C2424 C2425 1.502 . S
C2424 C2426 1.561 . S
C2424 C2427 1.526 . S
C2425 H2409 0.959 . S
C2425 H2410 0.959 . S
C2425 H2411 0.961 . S
C2425 C2424 1.502 . S
C2426 H2412 0.960 . S
C2426 H2413 0.961 . S
C2426 H2414 0.959 . S
C2426 C2424 1.561 . S
C2427 C2424 1.526 . S
C2427 C2428 1.396 . S
C2427 C2432 1.390 . S
C2428 C2422 1.465 . S
C2428 C2427 1.396 . S
C2428 C2429 1.399 . S
C2429 H2415 0.929 . S
C2429 C2428 1.399 . S
C2429 C2430 1.385 . S
C2430 H2416 0.931 . S
C2430 C2429 1.385 . S
C2430 C2431 1.389 . S
C2431 C2430 1.389 . S
C2431 C2432 1.387 . S
C2432 H2417 0.930 . S
C2432 C2427 1.390 . S
C2432 C2431 1.387 . S
H2433 C2445 0.930 . S
H2434 C2447 0.930 . S
H2435 C2448 0.930 . S
H2436 C2452 0.959 . S
H2437 C2452 0.959 . S
H2438 C2452 0.961 . S
H2439 C2453 0.960 . S
H2440 C2453 0.961 . S
H2441 C2453 0.959 . S
H2442 C2456 0.929 . S
H2443 C2457 0.931 . S
H2444 C2459 0.930 . S
C2445 H2433 0.930 . S
C2445 C2446 1.399 . S
C2445 C2450 1.399 . S
C2446 C2445 1.399 . S
C2446 C2447 1.376 . S
C2447 H2434 0.930 . S
C2447 C2446 1.376 . S
C2447 C2448 1.388 . S
C2448 H2435 0.930 . S
C2448 C2447 1.388 . S
C2448 C2449 1.390 . S
C2449 C2448 1.390 . S
C2449 C2450 1.394 . S
C2449 C2455 1.465 . S
C2450 C2445 1.399 . S
C2450 C2449 1.394 . S
C2450 C2451 1.516 . S
C2451 C2450 1.516 . S
C2451 C2452 1.502 . S
C2451 C2453 1.561 . S
C2451 C2454 1.526 . S
C2452 H2436 0.959 . S
C2452 H2437 0.959 . S
C2452 H2438 0.961 . S
C2452 C2451 1.502 . S
C2453 H2439 0.960 . S
C2453 H2440 0.961 . S
C2453 H2441 0.959 . S
C2453 C2451 1.561 . S
C2454 C2451 1.526 . S
C2454 C2455 1.396 . S
C2454 C2459 1.390 . S
C2455 C2449 1.465 . S
C2455 C2454 1.396 . S
C2455 C2456 1.399 . S
C2456 H2442 0.929 . S
C2456 C2455 1.399 . S
C2456 C2457 1.385 . S
C2457 H2443 0.931 . S
C2457 C2456 1.385 . S
C2457 C2458 1.389 . S
C2458 C2457 1.389 . S
C2458 C2459 1.387 . S
C2459 H2444 0.930 . S
C2459 C2454 1.390 . S
C2459 C2458 1.387 . S
H2460 C2472 0.930 . S
H2461 C2474 0.930 . S
H2462 C2475 0.930 . S
H2463 C2479 0.959 . S
H2464 C2479 0.959 . S
H2465 C2479 0.961 . S
H2466 C2480 0.960 . S
H2467 C2480 0.961 . S
H2468 C2480 0.959 . S
H2469 C2483 0.929 . S
H2470 C2484 0.931 . S
H2471 C2486 0.930 . S
C2472 H2460 0.930 . S
C2472 C2473 1.399 . S
C2472 C2477 1.399 . S
C2473 C2472 1.399 . S
C2473 C2474 1.376 . S
C2474 H2461 0.930 . S
C2474 C2473 1.376 . S
C2474 C2475 1.388 . S
C2475 H2462 0.930 . S
C2475 C2474 1.388 . S
C2475 C2476 1.390 . S
C2476 C2475 1.390 . S
C2476 C2477 1.394 . S
C2476 C2482 1.465 . S
C2477 C2472 1.399 . S
C2477 C2476 1.394 . S
C2477 C2478 1.516 . S
C2478 C2477 1.516 . S
C2478 C2479 1.502 . S
C2478 C2480 1.561 . S
C2478 C2481 1.526 . S
C2479 H2463 0.959 . S
C2479 H2464 0.959 . S
C2479 H2465 0.961 . S
C2479 C2478 1.502 . S
C2480 H2466 0.960 . S
C2480 H2467 0.961 . S
C2480 H2468 0.959 . S
C2480 C2478 1.561 . S
C2481 C2478 1.526 . S
C2481 C2482 1.396 . S
C2481 C2486 1.390 . S
C2482 C2476 1.465 . S
C2482 C2481 1.396 . S
C2482 C2483 1.399 . S
C2483 H2469 0.929 . S
C2483 C2482 1.399 . S
C2483 C2484 1.385 . S
C2484 H2470 0.931 . S
C2484 C2483 1.385 . S
C2484 C2485 1.389 . S
C2485 C2484 1.389 . S
C2485 C2486 1.387 . S
C2486 H2471 0.930 . S
C2486 C2481 1.390 . S
C2486 C2485 1.387 . S
H2487 C2499 0.930 . S
H2488 C2501 0.930 . S
H2489 C2502 0.930 . S
H2490 C2506 0.959 . S
H2491 C2506 0.959 . S
H2492 C2506 0.961 . S
H2493 C2507 0.960 . S
H2494 C2507 0.961 . S
H2495 C2507 0.959 . S
H2496 C2510 0.929 . S
H2497 C2511 0.931 . S
H2498 C2513 0.930 . S
C2499 H2487 0.930 . S
C2499 C2500 1.399 . S
C2499 C2504 1.399 . S
C2500 C2499 1.399 . S
C2500 C2501 1.376 . S
C2501 H2488 0.930 . S
C2501 C2500 1.376 . S
C2501 C2502 1.388 . S
C2502 H2489 0.930 . S
C2502 C2501 1.388 . S
C2502 C2503 1.390 . S
C2503 C2502 1.390 . S
C2503 C2504 1.394 . S
C2503 C2509 1.465 . S
C2504 C2499 1.399 . S
C2504 C2503 1.394 . S
C2504 C2505 1.516 . S
C2505 C2504 1.516 . S
C2505 C2506 1.502 . S
C2505 C2507 1.561 . S
C2505 C2508 1.526 . S
C2506 H2490 0.959 . S
C2506 H2491 0.959 . S
C2506 H2492 0.961 . S
C2506 C2505 1.502 . S
C2507 H2493 0.960 . S
C2507 H2494 0.961 . S
C2507 H2495 0.959 . S
C2507 C2505 1.561 . S
C2508 C2505 1.526 . S
C2508 C2509 1.396 . S
C2508 C2513 1.390 . S
C2509 C2503 1.465 . S
C2509 C2508 1.396 . S
C2509 C2510 1.399 . S
C2510 H2496 0.929 . S
C2510 C2509 1.399 . S
C2510 C2511 1.385 . S
C2511 H2497 0.931 . S
C2511 C2510 1.385 . S
C2511 C2512 1.389 . S
C2512 C2511 1.389 . S
C2512 C2513 1.387 . S
C2513 H2498 0.930 . S
C2513 C2508 1.390 . S
C2513 C2512 1.387 . S
H2514 C2526 0.930 . S
H2515 C2528 0.930 . S
H2516 C2529 0.930 . S
H2517 C2533 0.959 . S
H2518 C2533 0.959 . S
H2519 C2533 0.961 . S
H2520 C2534 0.960 . S
H2521 C2534 0.961 . S
H2522 C2534 0.959 . S
H2523 C2537 0.929 . S
H2524 C2538 0.931 . S
H2525 C2540 0.930 . S
C2526 H2514 0.930 . S
C2526 C2527 1.399 . S
C2526 C2531 1.399 . S
C2527 C2526 1.399 . S
C2527 C2528 1.376 . S
C2528 H2515 0.930 . S
C2528 C2527 1.376 . S
C2528 C2529 1.388 . S
C2529 H2516 0.930 . S
C2529 C2528 1.388 . S
C2529 C2530 1.390 . S
C2530 C2529 1.390 . S
C2530 C2531 1.394 . S
C2530 C2536 1.465 . S
C2531 C2526 1.399 . S
C2531 C2530 1.394 . S
C2531 C2532 1.516 . S
C2532 C2531 1.516 . S
C2532 C2533 1.502 . S
C2532 C2534 1.561 . S
C2532 C2535 1.526 . S
C2533 H2517 0.959 . S
C2533 H2518 0.959 . S
C2533 H2519 0.961 . S
C2533 C2532 1.502 . S
C2534 H2520 0.960 . S
C2534 H2521 0.961 . S
C2534 H2522 0.959 . S
C2534 C2532 1.561 . S
C2535 C2532 1.526 . S
C2535 C2536 1.396 . S
C2535 C2540 1.390 . S
C2536 C2530 1.465 . S
C2536 C2535 1.396 . S
C2536 C2537 1.399 . S
C2537 H2523 0.929 . S
C2537 C2536 1.399 . S
C2537 C2538 1.385 . S
C2538 H2524 0.931 . S
C2538 C2537 1.385 . S
C2538 C2539 1.389 . S
C2539 C2538 1.389 . S
C2539 C2540 1.387 . S
C2540 H2525 0.930 . S
C2540 C2535 1.390 . S
C2540 C2539 1.387 . S
H2541 C2553 0.930 . S
H2542 C2555 0.930 . S
H2543 C2556 0.930 . S
H2544 C2560 0.959 . S
H2545 C2560 0.959 . S
H2546 C2560 0.961 . S
H2547 C2561 0.960 . S
H2548 C2561 0.961 . S
H2549 C2561 0.959 . S
H2550 C2564 0.929 . S
H2551 C2565 0.931 . S
H2552 C2567 0.930 . S
C2553 H2541 0.930 . S
C2553 C2554 1.399 . S
C2553 C2558 1.399 . S
C2554 C2553 1.399 . S
C2554 C2555 1.376 . S
C2555 H2542 0.930 . S
C2555 C2554 1.376 . S
C2555 C2556 1.388 . S
C2556 H2543 0.930 . S
C2556 C2555 1.388 . S
C2556 C2557 1.390 . S
C2557 C2556 1.390 . S
C2557 C2558 1.394 . S
C2557 C2563 1.465 . S
C2558 C2553 1.399 . S
C2558 C2557 1.394 . S
C2558 C2559 1.516 . S
C2559 C2558 1.516 . S
C2559 C2560 1.502 . S
C2559 C2561 1.561 . S
C2559 C2562 1.526 . S
C2560 H2544 0.959 . S
C2560 H2545 0.959 . S
C2560 H2546 0.961 . S
C2560 C2559 1.502 . S
C2561 H2547 0.960 . S
C2561 H2548 0.961 . S
C2561 H2549 0.959 . S
C2561 C2559 1.561 . S
C2562 C2559 1.526 . S
C2562 C2563 1.396 . S
C2562 C2567 1.390 . S
C2563 C2557 1.465 . S
C2563 C2562 1.396 . S
C2563 C2564 1.399 . S
C2564 H2550 0.929 . S
C2564 C2563 1.399 . S
C2564 C2565 1.385 . S
C2565 H2551 0.931 . S
C2565 C2564 1.385 . S
C2565 C2566 1.389 . S
C2566 C2565 1.389 . S
C2566 C2567 1.387 . S
C2567 H2552 0.930 . S
C2567 C2562 1.390 . S
C2567 C2566 1.387 . S
H2568 C2580 0.930 . S
H2569 C2582 0.930 . S
H2570 C2583 0.930 . S
H2571 C2587 0.962 . S
H2572 C2587 0.977 . S
H2573 C2587 0.942 1_554 S
H2574 C2588 0.962 1_554 S
H2575 C2588 0.959 . S
H2576 C2588 0.959 . S
H2577 C2591 0.929 . S
H2578 C2592 0.931 . S
H2579 C2594 0.930 . S
C2580 H2568 0.930 . S
C2580 C2581 1.399 . S
C2580 C2585 1.399 . S
C2581 C2580 1.399 . S
C2581 C2582 1.376 . S
C2582 H2569 0.930 . S
C2582 C2581 1.376 . S
C2582 C2583 1.388 . S
C2583 H2570 0.930 . S
C2583 C2582 1.388 . S
C2583 C2584 1.390 . S
C2584 C2583 1.390 . S
C2584 C2585 1.394 . S
C2584 C2590 1.465 1_554 S
C2585 C2580 1.399 . S
C2585 C2584 1.394 . S
C2585 C2586 1.520 1_554 S
C2586 C2585 1.520 1_556 S
C2586 C2587 1.501 . S
C2586 C2588 1.561 . S
C2586 C2589 1.522 . S
C2587 H2571 0.962 . S
C2587 H2572 0.977 . S
C2587 H2573 0.942 1_556 S
C2587 C2586 1.501 . S
C2588 H2574 0.962 1_556 S
C2588 H2575 0.959 . S
C2588 H2576 0.959 . S
C2588 C2586 1.561 . S
C2589 C2586 1.522 . S
C2589 C2590 1.396 . S
C2589 C2594 1.390 . S
C2590 C2584 1.465 1_556 S
C2590 C2589 1.396 . S
C2590 C2591 1.399 . S
C2591 H2577 0.929 . S
C2591 C2590 1.399 . S
C2591 C2592 1.385 . S
C2592 H2578 0.931 . S
C2592 C2591 1.385 . S
C2592 C2593 1.389 . S
C2593 C2592 1.389 . S
C2593 C2594 1.387 . S
C2594 H2579 0.930 . S
C2594 C2589 1.390 . S
C2594 C2593 1.387 . S
H2595 C2607 0.930 . S
H2596 C2609 0.930 . S
H2597 C2610 0.930 . S
H2598 C2614 0.961 . S
H2599 C2614 0.972 . S
H2600 C2614 0.946 1_556 S
H2601 C2615 0.963 1_556 S
H2602 C2615 0.958 . S
H2603 C2615 0.959 . S
H2604 C2618 0.929 . S
H2605 C2619 0.931 . S
H2606 C2621 0.930 . S
C2607 H2595 0.930 . S
C2607 C2608 1.399 . S
C2607 C2612 1.399 . S
C2608 C2607 1.399 . S
C2608 C2609 1.376 . S
C2609 H2596 0.930 . S
C2609 C2608 1.376 . S
C2609 C2610 1.388 . S
C2610 H2597 0.930 . S
C2610 C2609 1.388 . S
C2610 C2611 1.390 . S
C2611 C2610 1.390 . S
C2611 C2612 1.394 . S
C2611 C2617 1.465 1_556 S
C2612 C2607 1.399 . S
C2612 C2611 1.394 . S
C2612 C2613 1.512 . S
C2613 C2612 1.512 . S
C2613 C2614 1.502 1_556 S
C2613 C2615 1.561 1_556 S
C2613 C2616 1.530 1_556 S
C2614 H2598 0.961 . S
C2614 H2599 0.972 . S
C2614 H2600 0.946 1_554 S
C2614 C2613 1.502 1_554 S
C2615 H2601 0.963 1_554 S
C2615 H2602 0.958 . S
C2615 H2603 0.959 . S
C2615 C2613 1.561 1_554 S
C2616 C2613 1.530 1_554 S
C2616 C2617 1.396 . S
C2616 C2621 1.390 . S
C2617 C2611 1.465 1_554 S
C2617 C2616 1.396 . S
C2617 C2618 1.399 . S
C2618 H2604 0.929 . S
C2618 C2617 1.399 . S
C2618 C2619 1.385 . S
C2619 H2605 0.931 . S
C2619 C2618 1.385 . S
C2619 C2620 1.389 . S
C2620 C2619 1.389 . S
C2620 C2621 1.387 . S
C2621 H2606 0.930 . S
C2621 C2616 1.390 . S
C2621 C2620 1.387 . S
H2622 C2634 0.930 . S
H2623 C2636 0.930 . S
H2624 C2637 0.930 . S
H2625 C2641 0.961 . S
H2626 C2641 0.969 . S
H2627 C2641 0.950 1_554 S
H2628 C2642 0.958 . S
H2629 C2642 0.963 1_556 S
H2630 C2642 0.959 1_556 S
H2631 C2645 0.929 . S
H2632 C2646 0.931 . S
H2633 C2648 0.930 . S
C2634 H2622 0.930 . S
C2634 C2635 1.399 . S
C2634 C2639 1.399 . S
C2635 C2634 1.399 . S
C2635 C2636 1.376 . S
C2636 H2623 0.930 . S
C2636 C2635 1.376 . S
C2636 C2637 1.388 . S
C2637 H2624 0.930 . S
C2637 C2636 1.388 . S
C2637 C2638 1.390 . S
C2638 C2637 1.390 . S
C2638 C2639 1.394 . S
C2638 C2644 1.465 1_554 S
C2639 C2634 1.399 . S
C2639 C2638 1.394 . S
C2639 C2640 1.517 . S
C2640 C2639 1.517 . S
C2640 C2641 1.502 1_554 S
C2640 C2642 1.561 . S
C2640 C2643 1.525 1_554 S
C2641 H2625 0.961 . S
C2641 H2626 0.969 . S
C2641 H2627 0.950 1_556 S
C2641 C2640 1.502 1_556 S
C2642 H2628 0.958 . S
C2642 H2629 0.963 1_554 S
C2642 H2630 0.959 1_554 S
C2642 C2640 1.561 . S
C2643 C2640 1.525 1_556 S
C2643 C2644 1.396 . S
C2643 C2648 1.390 . S
C2644 C2638 1.465 1_556 S
C2644 C2643 1.396 . S
C2644 C2645 1.399 . S
C2645 H2631 0.929 . S
C2645 C2644 1.399 . S
C2645 C2646 1.385 . S
C2646 H2632 0.931 . S
C2646 C2645 1.385 . S
C2646 C2647 1.389 . S
C2647 C2646 1.389 . S
C2647 C2648 1.387 . S
C2648 H2633 0.930 . S
C2648 C2643 1.390 . S
C2648 C2647 1.387 . S
H2649 C2661 0.930 . S
H2650 C2663 0.930 . S
H2651 C2664 0.930 . S
H2652 C2668 0.962 . S
H2653 C2668 0.979 . S
H2654 C2668 0.940 1_554 S
H2655 C2669 0.958 1_554 S
H2656 C2669 0.963 . S
H2657 C2669 0.959 . S
H2658 C2672 0.929 . S
H2659 C2673 0.931 . S
H2660 C2675 0.930 . S
C2661 H2649 0.930 . S
C2661 C2662 1.399 . S
C2661 C2666 1.399 . S
C2662 C2661 1.399 . S
C2662 C2663 1.376 . S
C2663 H2650 0.930 . S
C2663 C2662 1.376 . S
C2663 C2664 1.388 . S
C2664 H2651 0.930 . S
C2664 C2663 1.388 . S
C2664 C2665 1.390 . S
C2665 C2664 1.390 . S
C2665 C2666 1.394 . S
C2665 C2671 1.465 1_554 S
C2666 C2661 1.399 . S
C2666 C2665 1.394 . S
C2666 C2667 1.518 1_554 S
C2667 C2666 1.518 1_556 S
C2667 C2668 1.501 . S
C2667 C2669 1.561 . S
C2667 C2670 1.524 . S
C2668 H2652 0.962 . S
C2668 H2653 0.979 . S
C2668 H2654 0.940 1_556 S
C2668 C2667 1.501 . S
C2669 H2655 0.958 1_556 S
C2669 H2656 0.963 . S
C2669 H2657 0.959 . S
C2669 C2667 1.561 . S
C2670 C2667 1.524 . S
C2670 C2671 1.396 . S
C2670 C2675 1.390 . S
C2671 C2665 1.465 1_556 S
C2671 C2670 1.396 . S
C2671 C2672 1.399 . S
C2672 H2658 0.929 . S
C2672 C2671 1.399 . S
C2672 C2673 1.385 . S
C2673 H2659 0.931 . S
C2673 C2672 1.385 . S
C2673 C2674 1.389 . S
C2674 C2673 1.389 . S
C2674 C2675 1.387 . S
C2675 H2660 0.930 . S
C2675 C2670 1.390 . S
C2675 C2674 1.387 . S
H2676 C2688 0.930 . S
H2677 C2690 0.930 . S
H2678 C2691 0.930 . S
H2679 C2695 0.961 . S
H2680 C2695 0.971 . S
H2681 C2695 0.948 1_556 S
H2682 C2696 0.964 1_556 S
H2683 C2696 0.957 . S
H2684 C2696 0.958 . S
H2685 C2699 0.929 . S
H2686 C2700 0.931 . S
H2687 C2702 0.930 . S
C2688 H2676 0.930 . S
C2688 C2689 1.399 . S
C2688 C2693 1.399 . S
C2689 C2688 1.399 . S
C2689 C2690 1.376 . S
C2690 H2677 0.930 . S
C2690 C2689 1.376 . S
C2690 C2691 1.388 . S
C2691 H2678 0.930 . S
C2691 C2690 1.388 . S
C2691 C2692 1.390 . S
C2692 C2691 1.390 . S
C2692 C2693 1.394 . S
C2692 C2698 1.465 1_556 S
C2693 C2688 1.399 . S
C2693 C2692 1.394 . S
C2693 C2694 1.513 . S
C2694 C2693 1.513 . S
C2694 C2695 1.502 1_556 S
C2694 C2696 1.561 1_556 S
C2694 C2697 1.529 1_556 S
C2695 H2679 0.961 . S
C2695 H2680 0.971 . S
C2695 H2681 0.948 1_554 S
C2695 C2694 1.502 1_554 S
C2696 H2682 0.964 1_554 S
C2696 H2683 0.957 . S
C2696 H2684 0.958 . S
C2696 C2694 1.561 1_554 S
C2697 C2694 1.529 1_554 S
C2697 C2698 1.396 . S
C2697 C2702 1.390 . S
C2698 C2692 1.465 1_554 S
C2698 C2697 1.396 . S
C2698 C2699 1.399 . S
C2699 H2685 0.929 . S
C2699 C2698 1.399 . S
C2699 C2700 1.385 . S
C2700 H2686 0.931 . S
C2700 C2699 1.385 . S
C2700 C2701 1.389 . S
C2701 C2700 1.389 . S
C2701 C2702 1.387 . S
C2702 H2687 0.930 . S
C2702 C2697 1.390 . S
C2702 C2701 1.387 . S
H2703 C2715 0.930 . S
H2704 C2717 0.930 . S
H2705 C2718 0.930 . S
H2706 C2722 0.962 . S
H2707 C2722 0.979 . S
H2708 C2722 0.939 1_554 S
H2709 C2723 0.958 1_554 S
H2710 C2723 0.963 . S
H2711 C2723 0.959 . S
H2712 C2726 0.929 . S
H2713 C2727 0.931 . S
H2714 C2729 0.930 . S
C2715 H2703 0.930 . S
C2715 C2716 1.399 . S
C2715 C2720 1.399 . S
C2716 C2715 1.399 . S
C2716 C2717 1.376 . S
C2717 H2704 0.930 . S
C2717 C2716 1.376 . S
C2717 C2718 1.388 . S
C2718 H2705 0.930 . S
C2718 C2717 1.388 . S
C2718 C2719 1.390 . S
C2719 C2718 1.390 . S
C2719 C2720 1.394 . S
C2719 C2725 1.465 1_554 S
C2720 C2715 1.399 . S
C2720 C2719 1.394 . S
C2720 C2721 1.517 1_554 S
C2721 C2720 1.517 1_556 S
C2721 C2722 1.502 . S
C2721 C2723 1.561 . S
C2721 C2724 1.525 . S
C2722 H2706 0.962 . S
C2722 H2707 0.979 . S
C2722 H2708 0.939 1_556 S
C2722 C2721 1.502 . S
C2723 H2709 0.958 1_556 S
C2723 H2710 0.963 . S
C2723 H2711 0.959 . S
C2723 C2721 1.561 . S
C2724 C2721 1.525 . S
C2724 C2725 1.396 . S
C2724 C2729 1.390 . S
C2725 C2719 1.465 1_556 S
C2725 C2724 1.396 . S
C2725 C2726 1.399 . S
C2726 H2712 0.929 . S
C2726 C2725 1.399 . S
C2726 C2727 1.385 . S
C2727 H2713 0.931 . S
C2727 C2726 1.385 . S
C2727 C2728 1.389 . S
C2728 C2727 1.389 . S
C2728 C2729 1.387 . S
C2729 H2714 0.930 . S
C2729 C2724 1.390 . S
C2729 C2728 1.387 . S
H2730 C2742 0.930 . S
H2731 C2744 0.930 . S
H2732 C2745 0.930 . S
H2733 C2749 0.962 . S
H2734 C2749 0.977 . S
H2735 C2749 0.941 1_556 S
H2736 C2750 0.961 1_556 S
H2737 C2750 0.960 . S
H2738 C2750 0.959 . S
H2739 C2753 0.929 . S
H2740 C2754 0.931 . S
H2741 C2756 0.930 . S
C2742 H2730 0.930 . S
C2742 C2743 1.399 . S
C2742 C2747 1.399 . S
C2743 C2742 1.399 . S
C2743 C2744 1.376 . S
C2744 H2731 0.930 . S
C2744 C2743 1.376 . S
C2744 C2745 1.388 . S
C2745 H2732 0.930 . S
C2745 C2744 1.388 . S
C2745 C2746 1.390 . S
C2746 C2745 1.390 . S
C2746 C2747 1.394 . S
C2746 C2752 1.465 1_556 S
C2747 C2742 1.399 . S
C2747 C2746 1.394 . S
C2747 C2748 1.519 1_556 S
C2748 C2747 1.519 1_554 S
C2748 C2749 1.501 . S
C2748 C2750 1.561 . S
C2748 C2751 1.523 . S
C2749 H2733 0.962 . S
C2749 H2734 0.977 . S
C2749 H2735 0.941 1_554 S
C2749 C2748 1.501 . S
C2750 H2736 0.961 1_554 S
C2750 H2737 0.960 . S
C2750 H2738 0.959 . S
C2750 C2748 1.561 . S
C2751 C2748 1.523 . S
C2751 C2752 1.396 . S
C2751 C2756 1.390 . S
C2752 C2746 1.465 1_554 S
C2752 C2751 1.396 . S
C2752 C2753 1.399 . S
C2753 H2739 0.929 . S
C2753 C2752 1.399 . S
C2753 C2754 1.385 . S
C2754 H2740 0.931 . S
C2754 C2753 1.385 . S
C2754 C2755 1.389 . S
C2755 C2754 1.389 . S
C2755 C2756 1.387 . S
C2756 H2741 0.930 . S
C2756 C2751 1.390 . S
C2756 C2755 1.387 . S
H2757 C2769 0.930 . S
H2758 C2771 0.930 . S
H2759 C2772 0.930 . S
H2760 C2776 0.960 . S
H2761 C2776 0.968 . S
H2762 C2776 0.952 1_554 S
H2763 C2777 0.956 . S
H2764 C2777 0.964 1_556 S
H2765 C2777 0.959 1_556 S
H2766 C2780 0.929 . S
H2767 C2781 0.931 . S
H2768 C2783 0.930 . S
C2769 H2757 0.930 . S
C2769 C2770 1.399 . S
C2769 C2774 1.399 . S
C2770 C2769 1.399 . S
C2770 C2771 1.376 . S
C2771 H2758 0.930 . S
C2771 C2770 1.376 . S
C2771 C2772 1.388 . S
C2772 H2759 0.930 . S
C2772 C2771 1.388 . S
C2772 C2773 1.390 . S
C2773 C2772 1.390 . S
C2773 C2774 1.394 . S
C2773 C2779 1.465 1_554 S
C2774 C2769 1.399 . S
C2774 C2773 1.394 . S
C2774 C2775 1.517 . S
C2775 C2774 1.517 . S
C2775 C2776 1.502 1_554 S
C2775 C2777 1.561 . S
C2775 C2778 1.525 1_554 S
C2776 H2760 0.960 . S
C2776 H2761 0.968 . S
C2776 H2762 0.952 1_556 S
C2776 C2775 1.502 1_556 S
C2777 H2763 0.956 . S
C2777 H2764 0.964 1_554 S
C2777 H2765 0.959 1_554 S
C2777 C2775 1.561 . S
C2778 C2775 1.525 1_556 S
C2778 C2779 1.396 . S
C2778 C2783 1.390 . S
C2779 C2773 1.465 1_556 S
C2779 C2778 1.396 . S
C2779 C2780 1.399 . S
C2780 H2766 0.929 . S
C2780 C2779 1.399 . S
C2780 C2781 1.385 . S
C2781 H2767 0.931 . S
C2781 C2780 1.385 . S
C2781 C2782 1.389 . S
C2782 C2781 1.389 . S
C2782 C2783 1.387 . S
C2783 H2768 0.930 . S
C2783 C2778 1.390 . S
C2783 C2782 1.387 . S
H2784 C2796 0.930 . S
H2785 C2798 0.930 . S
H2786 C2799 0.930 . S
H2787 C2803 0.961 . S
H2788 C2803 0.973 . S
H2789 C2803 0.946 1_455 S
H2790 C2804 0.959 1_455 S
H2791 C2804 0.962 . S
H2792 C2804 0.959 . S
H2793 C2807 0.929 . S
H2794 C2808 0.931 . S
H2795 C2810 0.930 . S
C2796 H2784 0.930 . S
C2796 C2797 1.399 . S
C2796 C2801 1.399 . S
C2797 C2796 1.399 . S
C2797 C2798 1.376 . S
C2798 H2785 0.930 . S
C2798 C2797 1.376 . S
C2798 C2799 1.388 . S
C2799 H2786 0.930 . S
C2799 C2798 1.388 . S
C2799 C2800 1.390 . S
C2800 C2799 1.390 . S
C2800 C2801 1.394 . S
C2800 C2806 1.465 1_455 S
C2801 C2796 1.399 . S
C2801 C2800 1.394 . S
C2801 C2802 1.521 1_455 S
C2802 C2801 1.521 1_655 S
C2802 C2803 1.502 . S
C2802 C2804 1.561 . S
C2802 C2805 1.521 . S
C2803 H2787 0.961 . S
C2803 H2788 0.973 . S
C2803 H2789 0.946 1_655 S
C2803 C2802 1.502 . S
C2804 H2790 0.959 1_655 S
C2804 H2791 0.962 . S
C2804 H2792 0.959 . S
C2804 C2802 1.561 . S
C2805 C2802 1.521 . S
C2805 C2806 1.396 . S
C2805 C2810 1.390 . S
C2806 C2800 1.465 1_655 S
C2806 C2805 1.396 . S
C2806 C2807 1.399 . S
C2807 H2793 0.929 . S
C2807 C2806 1.399 . S
C2807 C2808 1.385 . S
C2808 H2794 0.931 . S
C2808 C2807 1.385 . S
C2808 C2809 1.389 . S
C2809 C2808 1.389 . S
C2809 C2810 1.387 . S
C2810 H2795 0.930 . S
C2810 C2805 1.390 . S
C2810 C2809 1.387 . S
H2811 C2823 0.930 . S
H2812 C2825 0.930 . S
H2813 C2826 0.930 . S
H2814 C2830 0.961 . S
H2815 C2830 0.972 . S
H2816 C2830 0.947 1_565 S
H2817 C2831 0.962 1_565 S
H2818 C2831 0.959 . S
H2819 C2831 0.959 . S
H2820 C2834 0.929 . S
H2821 C2835 0.931 . S
H2822 C2837 0.930 . S
C2823 H2811 0.930 . S
C2823 C2824 1.399 . S
C2823 C2828 1.399 . S
C2824 C2823 1.399 . S
C2824 C2825 1.376 . S
C2825 H2812 0.930 . S
C2825 C2824 1.376 . S
C2825 C2826 1.388 . S
C2826 H2813 0.930 . S
C2826 C2825 1.388 . S
C2826 C2827 1.390 . S
C2827 C2826 1.390 . S
C2827 C2828 1.394 . S
C2827 C2833 1.465 1_565 S
C2828 C2823 1.399 . S
C2828 C2827 1.394 . S
C2828 C2829 1.511 . S
C2829 C2828 1.511 . S
C2829 C2830 1.502 1_565 S
C2829 C2831 1.561 1_565 S
C2829 C2832 1.531 1_565 S
C2830 H2814 0.961 . S
C2830 H2815 0.972 . S
C2830 H2816 0.947 1_545 S
C2830 C2829 1.502 1_545 S
C2831 H2817 0.962 1_545 S
C2831 H2818 0.959 . S
C2831 H2819 0.959 . S
C2831 C2829 1.561 1_545 S
C2832 C2829 1.531 1_545 S
C2832 C2833 1.396 . S
C2832 C2837 1.390 . S
C2833 C2827 1.465 1_545 S
C2833 C2832 1.396 . S
C2833 C2834 1.399 . S
C2834 H2820 0.929 . S
C2834 C2833 1.399 . S
C2834 C2835 1.385 . S
C2835 H2821 0.931 . S
C2835 C2834 1.385 . S
C2835 C2836 1.389 . S
C2836 C2835 1.389 . S
C2836 C2837 1.387 . S
C2837 H2822 0.930 . S
C2837 C2832 1.390 . S
C2837 C2836 1.387 . S
H2838 C2850 0.930 . S
H2839 C2852 0.930 . S
H2840 C2853 0.930 . S
H2841 C2857 0.962 . S
H2842 C2857 0.979 . S
H2843 C2857 0.939 1_455 S
H2844 C2858 0.953 1_455 S
H2845 C2858 0.967 . S
H2846 C2858 0.960 . S
H2847 C2861 0.929 . S
H2848 C2862 0.931 . S
H2849 C2864 0.930 . S
C2850 H2838 0.930 . S
C2850 C2851 1.399 . S
C2850 C2855 1.399 . S
C2851 C2850 1.399 . S
C2851 C2852 1.376 . S
C2852 H2839 0.930 . S
C2852 C2851 1.376 . S
C2852 C2853 1.388 . S
C2853 H2840 0.930 . S
C2853 C2852 1.388 . S
C2853 C2854 1.390 . S
C2854 C2853 1.390 . S
C2854 C2855 1.394 . S
C2854 C2860 1.465 1_455 S
C2855 C2850 1.399 . S
C2855 C2854 1.394 . S
C2855 C2856 1.514 1_455 S
C2856 C2855 1.514 1_655 S
C2856 C2857 1.502 . S
C2856 C2858 1.561 . S
C2856 C2859 1.528 . S
C2857 H2841 0.962 . S
C2857 H2842 0.979 . S
C2857 H2843 0.939 1_655 S
C2857 C2856 1.502 . S
C2858 H2844 0.953 1_655 S
C2858 H2845 0.967 . S
C2858 H2846 0.960 . S
C2858 C2856 1.561 . S
C2859 C2856 1.528 . S
C2859 C2860 1.396 . S
C2859 C2864 1.390 . S
C2860 C2854 1.465 1_655 S
C2860 C2859 1.396 . S
C2860 C2861 1.399 . S
C2861 H2847 0.929 . S
C2861 C2860 1.399 . S
C2861 C2862 1.385 . S
C2862 H2848 0.931 . S
C2862 C2861 1.385 . S
C2862 C2863 1.389 . S
C2863 C2862 1.389 . S
C2863 C2864 1.387 . S
C2864 H2849 0.930 . S
C2864 C2859 1.390 . S
C2864 C2863 1.387 . S
H2865 C2877 0.930 . S
H2866 C2879 0.930 . S
H2867 C2880 0.930 . S
H2868 C2884 0.960 . S
H2869 C2884 0.959 . S
H2870 C2884 0.960 1_565 S
H2871 C2885 0.966 . S
H2872 C2885 0.956 1_545 S
H2873 C2885 0.956 1_545 S
H2874 C2888 0.929 . S
H2875 C2889 0.931 . S
H2876 C2891 0.930 . S
C2877 H2865 0.930 . S
C2877 C2878 1.399 . S
C2877 C2882 1.399 . S
C2878 C2877 1.399 . S
C2878 C2879 1.376 . S
C2879 H2866 0.930 . S
C2879 C2878 1.376 . S
C2879 C2880 1.388 . S
C2880 H2867 0.930 . S
C2880 C2879 1.388 . S
C2880 C2881 1.390 . S
C2881 C2880 1.390 . S
C2881 C2882 1.394 . S
C2881 C2887 1.465 1_565 S
C2882 C2877 1.399 . S
C2882 C2881 1.394 . S
C2882 C2883 1.523 . S
C2883 C2882 1.523 . S
C2883 C2884 1.502 1_565 S
C2883 C2885 1.561 . S
C2883 C2886 1.519 1_565 S
C2884 H2868 0.960 . S
C2884 H2869 0.959 . S
C2884 H2870 0.960 1_545 S
C2884 C2883 1.502 1_545 S
C2885 H2871 0.966 . S
C2885 H2872 0.956 1_565 S
C2885 H2873 0.956 1_565 S
C2885 C2883 1.561 . S
C2886 C2883 1.519 1_545 S
C2886 C2887 1.396 . S
C2886 C2891 1.390 . S
C2887 C2881 1.465 1_545 S
C2887 C2886 1.396 . S
C2887 C2888 1.399 . S
C2888 H2874 0.929 . S
C2888 C2887 1.399 . S
C2888 C2889 1.385 . S
C2889 H2875 0.931 . S
C2889 C2888 1.385 . S
C2889 C2890 1.389 . S
C2890 C2889 1.389 . S
C2890 C2891 1.387 . S
C2891 H2876 0.930 . S
C2891 C2886 1.390 . S
C2891 C2890 1.387 . S
H2892 C2904 0.930 . S
H2893 C2906 0.930 . S
H2894 C2907 0.930 . S
H2895 C2911 0.960 . S
H2896 C2911 0.964 . S
H2897 C2911 0.955 1_655 S
H2898 C2912 0.954 . S
H2899 C2912 0.966 1_455 S
H2900 C2912 0.959 1_455 S
H2901 C2915 0.929 . S
H2902 C2916 0.931 . S
H2903 C2918 0.930 . S
C2904 H2892 0.930 . S
C2904 C2905 1.399 . S
C2904 C2909 1.399 . S
C2905 C2904 1.399 . S
C2905 C2906 1.376 . S
C2906 H2893 0.930 . S
C2906 C2905 1.376 . S
C2906 C2907 1.388 . S
C2907 H2894 0.930 . S
C2907 C2906 1.388 . S
C2907 C2908 1.390 . S
C2908 C2907 1.390 . S
C2908 C2909 1.394 . S
C2908 C2914 1.465 1_655 S
C2909 C2904 1.399 . S
C2909 C2908 1.394 . S
C2909 C2910 1.516 . S
C2910 C2909 1.516 . S
C2910 C2911 1.502 1_655 S
C2910 C2912 1.561 . S
C2910 C2913 1.526 1_655 S
C2911 H2895 0.960 . S
C2911 H2896 0.964 . S
C2911 H2897 0.955 1_455 S
C2911 C2910 1.502 1_455 S
C2912 H2898 0.954 . S
C2912 H2899 0.966 1_655 S
C2912 H2900 0.959 1_655 S
C2912 C2910 1.561 . S
C2913 C2910 1.526 1_455 S
C2913 C2914 1.396 . S
C2913 C2918 1.390 . S
C2914 C2908 1.465 1_455 S
C2914 C2913 1.396 . S
C2914 C2915 1.399 . S
C2915 H2901 0.929 . S
C2915 C2914 1.399 . S
C2915 C2916 1.385 . S
C2916 H2902 0.931 . S
C2916 C2915 1.385 . S
C2916 C2917 1.389 . S
C2917 C2916 1.389 . S
C2917 C2918 1.387 . S
C2918 H2903 0.930 . S
C2918 C2913 1.390 . S
C2918 C2917 1.387 . S
H2919 C2931 0.930 . S
H2920 C2933 0.930 . S
H2921 C2934 0.930 . S
H2922 C2938 0.959 . S
H2923 C2938 0.959 . S
H2924 C2938 0.961 1_545 S
H2925 C2939 0.972 . S
H2926 C2939 0.950 1_565 S
H2927 C2939 0.956 1_565 S
H2928 C2942 0.929 . S
H2929 C2943 0.931 . S
H2930 C2945 0.930 . S
C2931 H2919 0.930 . S
C2931 C2932 1.399 . S
C2931 C2936 1.399 . S
C2932 C2931 1.399 . S
C2932 C2933 1.376 . S
C2933 H2920 0.930 . S
C2933 C2932 1.376 . S
C2933 C2934 1.388 . S
C2934 H2921 0.930 . S
C2934 C2933 1.388 . S
C2934 C2935 1.390 . S
C2935 C2934 1.390 . S
C2935 C2936 1.394 . S
C2935 C2941 1.465 1_545 S
C2936 C2931 1.399 . S
C2936 C2935 1.394 . S
C2936 C2937 1.528 . S
C2937 C2936 1.528 . S
C2937 C2938 1.502 1_545 S
C2937 C2939 1.561 . S
C2937 C2940 1.514 1_545 S
C2938 H2922 0.959 . S
C2938 H2923 0.959 . S
C2938 H2924 0.961 1_565 S
C2938 C2937 1.502 1_565 S
C2939 H2925 0.972 . S
C2939 H2926 0.950 1_545 S
C2939 H2927 0.956 1_545 S
C2939 C2937 1.561 . S
C2940 C2937 1.514 1_565 S
C2940 C2941 1.396 . S
C2940 C2945 1.390 . S
C2941 C2935 1.465 1_565 S
C2941 C2940 1.396 . S
C2941 C2942 1.399 . S
C2942 H2928 0.929 . S
C2942 C2941 1.399 . S
C2942 C2943 1.385 . S
C2943 H2929 0.931 . S
C2943 C2942 1.385 . S
C2943 C2944 1.389 . S
C2944 C2943 1.389 . S
C2944 C2945 1.387 . S
C2945 H2930 0.930 . S
C2945 C2940 1.390 . S
C2945 C2944 1.387 . S
H2946 C2958 0.930 . S
H2947 C2960 0.930 . S
H2948 C2961 0.930 . S
H2949 C2965 0.960 1_655 S
H2950 C2965 0.964 1_655 S
H2951 C2965 0.956 . S
H2952 C2966 0.969 . S
H2953 C2966 0.953 1_655 S
H2954 C2966 0.955 1_655 S
H2955 C2969 0.929 . S
H2956 C2970 0.931 . S
H2957 C2972 0.930 . S
C2958 H2946 0.930 . S
C2958 C2959 1.399 . S
C2958 C2963 1.399 . S
C2959 C2958 1.399 . S
C2959 C2960 1.376 . S
C2960 H2947 0.930 . S
C2960 C2959 1.376 . S
C2960 C2961 1.388 . S
C2961 H2948 0.930 . S
C2961 C2960 1.388 . S
C2961 C2962 1.390 . S
C2962 C2961 1.390 . S
C2962 C2963 1.394 . S
C2962 C2968 1.465 1_455 S
C2963 C2958 1.399 . S
C2963 C2962 1.394 . S
C2963 C2964 1.530 . S
C2964 C2963 1.530 . S
C2964 C2965 1.502 . S
C2964 C2966 1.561 . S
C2964 C2967 1.512 1_455 S
C2965 H2949 0.960 1_455 S
C2965 H2950 0.964 1_455 S
C2965 H2951 0.956 . S
C2965 C2964 1.502 . S
C2966 H2952 0.969 . S
C2966 H2953 0.953 1_455 S
C2966 H2954 0.955 1_455 S
C2966 C2964 1.561 . S
C2967 C2964 1.512 1_655 S
C2967 C2968 1.396 . S
C2967 C2972 1.390 . S
C2968 C2962 1.465 1_655 S
C2968 C2967 1.396 . S
C2968 C2969 1.399 . S
C2969 H2955 0.929 . S
C2969 C2968 1.399 . S
C2969 C2970 1.385 . S
C2970 H2956 0.931 . S
C2970 C2969 1.385 . S
C2970 C2971 1.389 . S
C2971 C2970 1.389 . S
C2971 C2972 1.387 . S
C2972 H2957 0.930 . S
C2972 C2967 1.390 . S
C2972 C2971 1.387 . S
H2973 C2985 0.930 . S
H2974 C2987 0.930 . S
H2975 C2988 0.930 . S
H2976 C2992 0.962 . S
H2977 C2992 0.979 . S
H2978 C2992 0.940 1_545 S
H2979 C2993 0.950 1_545 S
H2980 C2993 0.970 . S
H2981 C2993 0.960 . S
H2982 C2996 0.929 . S
H2983 C2997 0.931 . S
H2984 C2999 0.930 . S
C2985 H2973 0.930 . S
C2985 C2986 1.399 . S
C2985 C2990 1.399 . S
C2986 C2985 1.399 . S
C2986 C2987 1.376 . S
C2987 H2974 0.930 . S
C2987 C2986 1.376 . S
C2987 C2988 1.388 . S
C2988 H2975 0.930 . S
C2988 C2987 1.388 . S
C2988 C2989 1.390 . S
C2989 C2988 1.390 . S
C2989 C2990 1.394 . S
C2989 C2995 1.465 1_545 S
C2990 C2985 1.399 . S
C2990 C2989 1.394 . S
C2990 C2991 1.513 1_545 S
C2991 C2990 1.513 1_565 S
C2991 C2992 1.502 . S
C2991 C2993 1.561 . S
C2991 C2994 1.529 . S
C2992 H2976 0.962 . S
C2992 H2977 0.979 . S
C2992 H2978 0.940 1_565 S
C2992 C2991 1.502 . S
C2993 H2979 0.950 1_565 S
C2993 H2980 0.970 . S
C2993 H2981 0.960 . S
C2993 C2991 1.561 . S
C2994 C2991 1.529 . S
C2994 C2995 1.396 . S
C2994 C2999 1.390 . S
C2995 C2989 1.465 1_565 S
C2995 C2994 1.396 . S
C2995 C2996 1.399 . S
C2996 H2982 0.929 . S
C2996 C2995 1.399 . S
C2996 C2997 1.385 . S
C2997 H2983 0.931 . S
C2997 C2996 1.385 . S
C2997 C2998 1.389 . S
C2998 C2997 1.389 . S
C2998 C2999 1.387 . S
C2999 H2984 0.930 . S
C2999 C2994 1.390 . S
C2999 C2998 1.387 . S
H3000 C3012 0.930 . S
H3001 C3014 0.930 . S
H3002 C3015 0.930 . S
H3003 C3019 0.961 . S
H3004 C3019 0.969 . S
H3005 C3019 0.950 1_545 S
H3006 C3020 0.955 . S
H3007 C3020 0.966 1_565 S
H3008 C3020 0.959 1_565 S
H3009 C3023 0.929 . S
H3010 C3024 0.931 . S
H3011 C3026 0.930 . S
C3012 H3000 0.930 . S
C3012 C3013 1.399 . S
C3012 C3017 1.399 . S
C3013 C3012 1.399 . S
C3013 C3014 1.376 . S
C3014 H3001 0.930 . S
C3014 C3013 1.376 . S
C3014 C3015 1.388 . S
C3015 H3002 0.930 . S
C3015 C3014 1.388 . S
C3015 C3016 1.390 . S
C3016 C3015 1.390 . S
C3016 C3017 1.394 . S
C3016 C3022 1.465 1_545 S
C3017 C3012 1.399 . S
C3017 C3016 1.394 . S
C3017 C3018 1.512 . S
C3018 C3017 1.512 . S
C3018 C3019 1.502 1_545 S
C3018 C3020 1.561 . S
C3018 C3021 1.530 1_545 S
C3019 H3003 0.961 . S
C3019 H3004 0.969 . S
C3019 H3005 0.950 1_565 S
C3019 C3018 1.502 1_565 S
C3020 H3006 0.955 . S
C3020 H3007 0.966 1_545 S
C3020 H3008 0.959 1_545 S
C3020 C3018 1.561 . S
C3021 C3018 1.530 1_565 S
C3021 C3022 1.396 . S
C3021 C3026 1.390 . S
C3022 C3016 1.465 1_565 S
C3022 C3021 1.396 . S
C3022 C3023 1.399 . S
C3023 H3009 0.929 . S
C3023 C3022 1.399 . S
C3023 C3024 1.385 . S
C3024 H3010 0.931 . S
C3024 C3023 1.385 . S
C3024 C3025 1.389 . S
C3025 C3024 1.389 . S
C3025 C3026 1.387 . S
C3026 H3011 0.930 . S
C3026 C3021 1.390 . S
C3026 C3025 1.387 . S
H3027 C3039 0.930 . S
H3028 C3041 0.930 . S
H3029 C3042 0.930 . S
H3030 C3046 0.963 . S
H3031 C3046 0.989 . S
H3032 C3046 0.929 1_545 S
H3033 C3047 0.944 1_545 S
H3034 C3047 0.976 . S
H3035 C3047 0.961 . S
H3036 C3050 0.929 . S
H3037 C3051 0.931 . S
H3038 C3053 0.930 . S
C3039 H3027 0.930 . S
C3039 C3040 1.399 . S
C3039 C3044 1.399 . S
C3040 C3039 1.399 . S
C3040 C3041 1.376 . S
C3041 H3028 0.930 . S
C3041 C3040 1.376 . S
C3041 C3042 1.388 . S
C3042 H3029 0.930 . S
C3042 C3041 1.388 . S
C3042 C3043 1.390 . S
C3043 C3042 1.390 . S
C3043 C3044 1.394 . S
C3043 C3049 1.465 1_545 S
C3044 C3039 1.399 . S
C3044 C3043 1.394 . S
C3044 C3045 1.506 1_545 S
C3045 C3044 1.506 1_565 S
C3045 C3046 1.501 . S
C3045 C3047 1.561 . S
C3045 C3048 1.536 . S
C3046 H3030 0.963 . S
C3046 H3031 0.989 . S
C3046 H3032 0.929 1_565 S
C3046 C3045 1.501 . S
C3047 H3033 0.944 1_565 S
C3047 H3034 0.976 . S
C3047 H3035 0.961 . S
C3047 C3045 1.561 . S
C3048 C3045 1.536 . S
C3048 C3049 1.396 . S
C3048 C3053 1.390 . S
C3049 C3043 1.465 1_565 S
C3049 C3048 1.396 . S
C3049 C3050 1.399 . S
C3050 H3036 0.929 . S
C3050 C3049 1.399 . S
C3050 C3051 1.385 . S
C3051 H3037 0.931 . S
C3051 C3050 1.385 . S
C3051 C3052 1.389 . S
C3052 C3051 1.389 . S
C3052 C3053 1.387 . S
C3053 H3038 0.930 . S
C3053 C3048 1.390 . S
C3053 C3052 1.387 . S
H3054 C3066 0.930 . S
H3055 C3068 0.930 . S
H3056 C3069 0.930 . S
H3057 C3073 0.959 . S
H3058 C3073 0.958 . S
H3059 C3073 0.962 1_655 S
H3060 C3074 0.964 . S
H3061 C3074 0.957 1_455 S
H3062 C3074 0.956 1_455 S
H3063 C3077 0.929 . S
H3064 C3078 0.931 . S
H3065 C3080 0.930 . S
C3066 H3054 0.930 . S
C3066 C3067 1.399 . S
C3066 C3071 1.399 . S
C3067 C3066 1.399 . S
C3067 C3068 1.376 . S
C3068 H3055 0.930 . S
C3068 C3067 1.376 . S
C3068 C3069 1.388 . S
C3069 H3056 0.930 . S
C3069 C3068 1.388 . S
C3069 C3070 1.390 . S
C3070 C3069 1.390 . S
C3070 C3071 1.394 . S
C3070 C3076 1.465 1_655 S
C3071 C3066 1.399 . S
C3071 C3070 1.394 . S
C3071 C3072 1.525 . S
C3072 C3071 1.525 . S
C3072 C3073 1.502 1_655 S
C3072 C3074 1.561 . S
C3072 C3075 1.517 1_655 S
C3073 H3057 0.959 . S
C3073 H3058 0.958 . S
C3073 H3059 0.962 1_455 S
C3073 C3072 1.502 1_455 S
C3074 H3060 0.964 . S
C3074 H3061 0.957 1_655 S
C3074 H3062 0.956 1_655 S
C3074 C3072 1.561 . S
C3075 C3072 1.517 1_455 S
C3075 C3076 1.396 . S
C3075 C3080 1.390 . S
C3076 C3070 1.465 1_455 S
C3076 C3075 1.396 . S
C3076 C3077 1.399 . S
C3077 H3063 0.929 . S
C3077 C3076 1.399 . S
C3077 C3078 1.385 . S
C3078 H3064 0.931 . S
C3078 C3077 1.385 . S
C3078 C3079 1.389 . S
C3079 C3078 1.389 . S
C3079 C3080 1.387 . S
C3080 H3065 0.930 . S
C3080 C3075 1.390 . S
C3080 C3079 1.387 . S
H3081 C3093 0.930 . S
H3082 C3095 0.930 . S
H3083 C3096 0.930 . S
H3084 C3100 0.960 . S
H3085 C3100 0.962 . S
H3086 C3100 0.957 1_545 S
H3087 C3101 0.960 . S
H3088 C3101 0.961 1_565 S
H3089 C3101 0.959 1_565 S
H3090 C3104 0.929 . S
H3091 C3105 0.931 . S
H3092 C3107 0.930 . S
C3093 H3081 0.930 . S
C3093 C3094 1.399 . S
C3093 C3098 1.399 . S
C3094 C3093 1.399 . S
C3094 C3095 1.376 . S
C3095 H3082 0.930 . S
C3095 C3094 1.376 . S
C3095 C3096 1.388 . S
C3096 H3083 0.930 . S
C3096 C3095 1.388 . S
C3096 C3097 1.390 . S
C3097 C3096 1.390 . S
C3097 C3098 1.394 . S
C3097 C3103 1.465 1_545 S
C3098 C3093 1.399 . S
C3098 C3097 1.394 . S
C3098 C3099 1.519 . S
C3099 C3098 1.519 . S
C3099 C3100 1.502 1_545 S
C3099 C3101 1.561 . S
C3099 C3102 1.523 1_545 S
C3100 H3084 0.960 . S
C3100 H3085 0.962 . S
C3100 H3086 0.957 1_565 S
C3100 C3099 1.502 1_565 S
C3101 H3087 0.960 . S
C3101 H3088 0.961 1_545 S
C3101 H3089 0.959 1_545 S
C3101 C3099 1.561 . S
C3102 C3099 1.523 1_565 S
C3102 C3103 1.396 . S
C3102 C3107 1.390 . S
C3103 C3097 1.465 1_565 S
C3103 C3102 1.396 . S
C3103 C3104 1.399 . S
C3104 H3090 0.929 . S
C3104 C3103 1.399 . S
C3104 C3105 1.385 . S
C3105 H3091 0.931 . S
C3105 C3104 1.385 . S
C3105 C3106 1.389 . S
C3106 C3105 1.389 . S
C3106 C3107 1.387 . S
C3107 H3092 0.930 . S
C3107 C3102 1.390 . S
C3107 C3106 1.387 . S
H3108 C3120 0.930 . S
H3109 C3122 0.930 . S
H3110 C3123 0.930 . S
H3111 C3127 0.960 . S
H3112 C3127 0.963 . S
H3113 C3127 0.956 1_455 S
H3114 C3128 0.958 . S
H3115 C3128 0.962 1_655 S
H3116 C3128 0.959 1_655 S
H3117 C3131 0.929 . S
H3118 C3132 0.931 . S
H3119 C3134 0.930 . S
C3120 H3108 0.930 . S
C3120 C3121 1.399 . S
C3120 C3125 1.399 . S
C3121 C3120 1.399 . S
C3121 C3122 1.376 . S
C3122 H3109 0.930 . S
C3122 C3121 1.376 . S
C3122 C3123 1.388 . S
C3123 H3110 0.930 . S
C3123 C3122 1.388 . S
C3123 C3124 1.390 . S
C3124 C3123 1.390 . S
C3124 C3125 1.394 . S
C3124 C3130 1.465 1_455 S
C3125 C3120 1.399 . S
C3125 C3124 1.394 . S
C3125 C3126 1.518 . S
C3126 C3125 1.518 . S
C3126 C3127 1.502 1_455 S
C3126 C3128 1.561 . S
C3126 C3129 1.524 1_455 S
C3127 H3111 0.960 . S
C3127 H3112 0.963 . S
C3127 H3113 0.956 1_655 S
C3127 C3126 1.502 1_655 S
C3128 H3114 0.958 . S
C3128 H3115 0.962 1_455 S
C3128 H3116 0.959 1_455 S
C3128 C3126 1.561 . S
C3129 C3126 1.524 1_655 S
C3129 C3130 1.396 . S
C3129 C3134 1.390 . S
C3130 C3124 1.465 1_655 S
C3130 C3129 1.396 . S
C3130 C3131 1.399 . S
C3131 H3117 0.929 . S
C3131 C3130 1.399 . S
C3131 C3132 1.385 . S
C3132 H3118 0.931 . S
C3132 C3131 1.385 . S
C3132 C3133 1.389 . S
C3133 C3132 1.389 . S
C3133 C3134 1.387 . S
C3134 H3119 0.930 . S
C3134 C3129 1.390 . S
C3134 C3133 1.387 . S
H3135 C3147 0.930 . S
H3136 C3149 0.930 . S
H3137 C3150 0.930 . S
H3138 C3154 0.960 . S
H3139 C3154 0.967 . S
H3140 C3154 0.952 1_545 S
H3141 C3155 0.955 . S
H3142 C3155 0.966 1_565 S
H3143 C3155 0.959 1_565 S
H3144 C3158 0.929 . S
H3145 C3159 0.931 . S
H3146 C3161 0.930 . S
C3147 H3135 0.930 . S
C3147 C3148 1.399 . S
C3147 C3152 1.399 . S
C3148 C3147 1.399 . S
C3148 C3149 1.376 . S
C3149 H3136 0.930 . S
C3149 C3148 1.376 . S
C3149 C3150 1.388 . S
C3150 H3137 0.930 . S
C3150 C3149 1.388 . S
C3150 C3151 1.390 . S
C3151 C3150 1.390 . S
C3151 C3152 1.394 . S
C3151 C3157 1.465 1_545 S
C3152 C3147 1.399 . S
C3152 C3151 1.394 . S
C3152 C3153 1.517 . S
C3153 C3152 1.517 . S
C3153 C3154 1.502 1_545 S
C3153 C3155 1.561 . S
C3153 C3156 1.525 1_545 S
C3154 H3138 0.960 . S
C3154 H3139 0.967 . S
C3154 H3140 0.952 1_565 S
C3154 C3153 1.502 1_565 S
C3155 H3141 0.955 . S
C3155 H3142 0.966 1_545 S
C3155 H3143 0.959 1_545 S
C3155 C3153 1.561 . S
C3156 C3153 1.525 1_565 S
C3156 C3157 1.396 . S
C3156 C3161 1.390 . S
C3157 C3151 1.465 1_565 S
C3157 C3156 1.396 . S
C3157 C3158 1.399 . S
C3158 H3144 0.929 . S
C3158 C3157 1.399 . S
C3158 C3159 1.385 . S
C3159 H3145 0.931 . S
C3159 C3158 1.385 . S
C3159 C3160 1.389 . S
C3160 C3159 1.389 . S
C3160 C3161 1.387 . S
C3161 H3146 0.930 . S
C3161 C3156 1.390 . S
C3161 C3160 1.387 . S
H3162 C3174 0.930 . S
H3163 C3176 0.930 . S
H3164 C3177 0.930 . S
H3165 C3181 0.963 . S
H3166 C3181 0.986 . S
H3167 C3181 0.932 1_655 S
H3168 C3182 0.944 1_655 S
H3169 C3182 0.976 . S
H3170 C3182 0.961 . S
H3171 C3185 0.929 . S
H3172 C3186 0.931 . S
H3173 C3188 0.930 . S
C3174 H3162 0.930 . S
C3174 C3175 1.399 . S
C3174 C3179 1.399 . S
C3175 C3174 1.399 . S
C3175 C3176 1.376 . S
C3176 H3163 0.930 . S
C3176 C3175 1.376 . S
C3176 C3177 1.388 . S
C3177 H3164 0.930 . S
C3177 C3176 1.388 . S
C3177 C3178 1.390 . S
C3178 C3177 1.390 . S
C3178 C3179 1.394 . S
C3178 C3184 1.465 1_655 S
C3179 C3174 1.399 . S
C3179 C3178 1.394 . S
C3179 C3180 1.508 1_655 S
C3180 C3179 1.508 1_455 S
C3180 C3181 1.501 . S
C3180 C3182 1.561 . S
C3180 C3183 1.534 . S
C3181 H3165 0.963 . S
C3181 H3166 0.986 . S
C3181 H3167 0.932 1_455 S
C3181 C3180 1.501 . S
C3182 H3168 0.944 1_455 S
C3182 H3169 0.976 . S
C3182 H3170 0.961 . S
C3182 C3180 1.561 . S
C3183 C3180 1.534 . S
C3183 C3184 1.396 . S
C3183 C3188 1.390 . S
C3184 C3178 1.465 1_455 S
C3184 C3183 1.396 . S
C3184 C3185 1.399 . S
C3185 H3171 0.929 . S
C3185 C3184 1.399 . S
C3185 C3186 1.385 . S
C3186 H3172 0.931 . S
C3186 C3185 1.385 . S
C3186 C3187 1.389 . S
C3187 C3186 1.389 . S
C3187 C3188 1.387 . S
C3188 H3173 0.930 . S
C3188 C3183 1.390 . S
C3188 C3187 1.387 . S
H3189 C3201 0.930 . S
H3190 C3203 0.930 . S
H3191 C3204 0.930 . S
H3192 C3208 0.963 . S
H3193 C3208 0.985 . S
H3194 C3208 0.933 1_455 S
H3195 C3209 0.943 1_455 S
H3196 C3209 0.977 . S
H3197 C3209 0.961 . S
H3198 C3212 0.929 . S
H3199 C3213 0.931 . S
H3200 C3215 0.930 . S
C3201 H3189 0.930 . S
C3201 C3202 1.399 . S
C3201 C3206 1.399 . S
C3202 C3201 1.399 . S
C3202 C3203 1.376 . S
C3203 H3190 0.930 . S
C3203 C3202 1.376 . S
C3203 C3204 1.388 . S
C3204 H3191 0.930 . S
C3204 C3203 1.388 . S
C3204 C3205 1.390 . S
C3205 C3204 1.390 . S
C3205 C3206 1.394 . S
C3205 C3211 1.465 1_455 S
C3206 C3201 1.399 . S
C3206 C3205 1.394 . S
C3206 C3207 1.507 1_455 S
C3207 C3206 1.507 1_655 S
C3207 C3208 1.502 . S
C3207 C3209 1.561 . S
C3207 C3210 1.535 . S
C3208 H3192 0.963 . S
C3208 H3193 0.985 . S
C3208 H3194 0.933 1_655 S
C3208 C3207 1.502 . S
C3209 H3195 0.943 1_655 S
C3209 H3196 0.977 . S
C3209 H3197 0.961 . S
C3209 C3207 1.561 . S
C3210 C3207 1.535 . S
C3210 C3211 1.396 . S
C3210 C3215 1.390 . S
C3211 C3205 1.465 1_655 S
C3211 C3210 1.396 . S
C3211 C3212 1.399 . S
C3212 H3198 0.929 . S
C3212 C3211 1.399 . S
C3212 C3213 1.385 . S
C3213 H3199 0.931 . S
C3213 C3212 1.385 . S
C3213 C3214 1.389 . S
C3214 C3213 1.389 . S
C3214 C3215 1.387 . S
C3215 H3200 0.930 . S
C3215 C3210 1.390 . S
C3215 C3214 1.387 . S
C637 C517 1.390 . S
C649 C3 1.388 . S
C664 C17 1.388 . S
C676 C471 1.390 . S
C691 C31 1.385 . S
C703 C485 1.384 . S
C718 C498 1.385 . S
C730 C43 1.387 . S
C745 C439 1.361 . S
C757 C56 1.365 . S
C772 C70 1.390 . S
C784 C445 1.392 . S
C799 C88 1.363 . S
C811 C458 1.371 . S
C826 C94 1.383 . S
C838 C421 1.381 . S
C853 C114 1.387 . S
C865 C406 1.384 . S
C880 C374 1.364 . S
C892 C121 1.366 . S
C907 C380 1.387 . S
C919 C140 1.389 . S
C934 C146 1.385 . S
C946 C400 1.383 . S
C961 C161 1.377 . S
C973 C329 1.378 . S
C988 C172 1.377 . S
C1000 C341 1.377 . S
C1015 C355 1.379 . S
C1027 C186 1.380 . S
C1042 C315 1.384 . S
C1054 C199 1.377 . S
C1069 C218 1.373 . S
C1081 C576 1.371 . S
C1096 C616 1.375 . S
C1108 C224 1.374 . S
C1123 C589 1.386 . S
C1135 C238 1.386 . S
C1150 C603 1.389 . S
C1162 C252 1.390 . S
C1177 C530 1.388 . S
C1189 C270 1.389 . S
C1204 C550 1.367 . S
C1216 C277 1.367 . S
C1231 C291 1.386 . S
C1243 C564 1.387 . S
C1258 C536 1.376 . S
C1270 C302 1.379 . S
C1285 C426 1.388 . S
C1297 C265 1.387 . S
C1312 C225 1.381 . S
C1324 C434 1.385 . S
C1339 C446 1.384 . S
C1351 C237 1.383 . S
C1366 C459 1.362 . S
C1378 C257 1.360 . S
C1393 C303 1.375 . S
C1405 C472 1.372 . S
C1420 C484 1.392 . S
C1432 C276 1.394 . S
C1447 C296 1.382 . S
C1459 C497 1.379 . S
C1474 C213 1.383 . S
C1486 C512 1.381 . S
C1501 C525 1.381 . S
C1513 C198 1.381 . S
C1528 C166 1.363 . S
C1540 C621 1.367 . S
C1555 C588 1.377 . S
C1567 C173 1.370 . S
C1582 C185 1.388 . S
C1594 C608 1.387 . S
C1609 C120 1.372 . S
C1621 C537 1.367 . S
C1636 C135 1.382 . S
C1648 C549 1.380 . S
C1663 C147 1.357 . S
C1675 C569 1.356 . S
C1690 C575 1.396 . S
C1702 C109 1.395 . S
C1717 C316 1.388 . S
C1729 C95 1.389 . S
C1744 C369 1.390 . S
C1756 C16 1.391 . S
C1771 C381 1.364 . S
C1783 C36 1.363 . S
C1798 C395 1.374 . S
C1810 C42 1.374 . S
C1825 C407 1.365 . S
C1837 C4 1.364 . S
C1852 C75 1.385 . S
C1864 C342 1.388 . S
C1879 C354 1.372 . S
C1891 C83 1.372 . S
C1906 C328 1.388 . S
C1918 C55 1.389 . S
C1933 C10 1.564 . S
C1945 C348 1.563 . S
C1960 C356 1.577 . S
C1972 C18 1.579 . S
C1987 C30 1.563 . S
C1999 C322 1.562 . S
C2014 C44 1.563 . S
C2026 C330 1.560 . S
C2041 C57 1.557 . S
C2053 C393 1.559 . S
C2068 C413 1.550 . S
C2080 C69 1.549 . S
C2095 C81 1.557 . S
C2107 C367 1.559 . S
C2122 C387 1.563 . S
C2134 C101 1.565 . S
C2149 C107 1.571 . S
C2161 C478 1.570 . S
C2176 C486 1.575 . S
C2188 C122 1.572 . S
C2203 C133 1.574 . S
C2215 C499 1.577 . S
C2230 C153 1.561 . S
C2242 C510 1.554 . S
C2257 C160 1.562 . S
C2269 C420 1.563 . S
C2284 C179 1.571 . S
C2296 C432 1.573 . S
C2311 C452 1.563 . S
C2323 C187 1.562 . S
C2338 C200 1.571 . S
C2350 C465 1.570 . S
C2365 C563 1.570 . S
C2377 C211 1.572 . S
C2392 C231 1.567 . S
C2404 C590 1.569 . S
C2419 C239 1.563 . S
C2431 C602 1.563 . S
C2446 C523 1.569 . S
C2458 C251 1.571 . S
C2473 C615 1.565 . S
C2485 C263 1.564 . S
C2500 C278 1.546 . S
C2512 C543 1.552 . S
C2527 C551 1.569 . S
C2539 C290 1.567 . S
C2554 C309 1.558 . S
C2566 C577 1.556 . S
C2581 C556 1.561 . S
C2593 C264 1.559 . S
C2608 C226 1.571 . S
C2620 C562 1.575 . S
C2635 C582 1.561 . S
C2647 C244 1.558 . S
C2662 C538 1.578 . S
C2674 C250 1.579 . S
C2689 C601 1.561 . S
C2701 C304 1.564 . S
C2716 C283 1.555 . S
C2728 C524 1.553 . S
C2743 C614 1.561 . S
C2755 C289 1.565 . S
C2770 C212 1.561 . S
C2782 C595 1.563 . S
C2797 C433 1.553 . S
C2809 C205 1.555 . S
C2824 C159 1.559 . S
C2836 C447 1.562 . S
C2851 C174 1.583 . S
C2863 C460 1.583 . S
C2878 C419 1.571 . S
C2890 C192 1.570 . S
C2905 C127 1.547 . S
C2917 C511 1.548 . S
C2932 C473 1.570 . S
C2944 C134 1.568 . S
C2959 C148 1.555 . S
C2971 C491 1.562 . S
C2986 C108 1.563 . S
C2998 C504 1.562 . S
C3013 C361 1.556 . S
C3025 C96 1.550 . S
C3040 C23 1.567 . S
C3052 C382 1.569 . S
C3067 C29 1.555 . S
C3079 C394 1.558 . S
C3094 C408 1.575 . S
C3106 C49 1.576 . S
C3121 C5 1.574 . S
C3133 C368 1.573 . S
C3148 C68 1.550 . S
C3160 C335 1.554 . S
C3175 C82 1.562 . S
C3187 C343 1.564 . S
C3202 C62 1.564 . S
C3214 C317 1.565 . S
