# Generated by pormake.
# Topology vby, (6)-cn, num edge types: 1
# Building blocks:
#     Node 0, Type 0, BuildingBlock: FUNLAD_clean_sbu_0, # of connection points: 6
#     Node 1, Type 0, BuildingBlock: FUNLAD_clean_sbu_0, # of connection points: 6
#     Node 2, Type 0, BuildingBlock: FUNLAD_clean_sbu_0, # of connection points: 6
#     Node 3, Type 0, BuildingBlock: FUNLAD_clean_sbu_0, # of connection points: 6
#     Node 4, Type 0, BuildingBlock: FUNLAD_clean_sbu_0, # of connection points: 6
#     Node 5, Type 0, BuildingBlock: FUNLAD_clean_sbu_0, # of connection points: 6
#     Node 6, Type 0, BuildingBlock: FUNLAD_clean_sbu_0, # of connection points: 6
#     Node 7, Type 0, BuildingBlock: FUNLAD_clean_sbu_0, # of connection points: 6
#     Edge 8, Type (0, 0), None
#     Edge 9, Type (0, 0), None
#     Edge 10, Type (0, 0), None
#     Edge 11, Type (0, 0), None
#     Edge 12, Type (0, 0), None
#     Edge 13, Type (0, 0), None
#     Edge 14, Type (0, 0), None
#     Edge 15, Type (0, 0), None
#     Edge 16, Type (0, 0), None
#     Edge 17, Type (0, 0), None
#     Edge 18, Type (0, 0), None
#     Edge 19, Type (0, 0), None
#     Edge 20, Type (0, 0), None
#     Edge 21, Type (0, 0), None
#     Edge 22, Type (0, 0), None
#     Edge 23, Type (0, 0), None
#     Edge 24, Type (0, 0), None
#     Edge 25, Type (0, 0), None
#     Edge 26, Type (0, 0), None
#     Edge 27, Type (0, 0), None
#     Edge 28, Type (0, 0), None
#     Edge 29, Type (0, 0), None
#     Edge 30, Type (0, 0), None
#     Edge 31, Type (0, 0), None
# Relax obj value: 0.025
# Max RMSD: 0.106
# Mean RMSD: 0.101
data_MOF--net-vby--node1-FUNLAD_clean_sbu_0--edge1-none
_symmetry_space_group_name_H-M    P1
_symmetry_Int_Tables_number       1
_symmetry_cell_setting            triclinic
loop_
_symmetry_equiv_pos_as_xyz
'x, y, z'
_cell_length_a     6.740425
_cell_length_b     27.05334
_cell_length_c     26.502767
_cell_angle_alpha  89.479721
_cell_angle_beta   90.042857
_cell_angle_gamma 89.999791
loop_
_atom_site_label
_atom_site_type_symbol
_atom_site_fract_x
_atom_site_fract_y
_atom_site_fract_z
_atom_type_partial_charge
C0 C 0.00323 0.45029 0.04618 0.0
N1 N 0.06852 0.34886 0.16587 0.0
C2 C 0.12943 0.38819 0.19364 0.0
C3 C 0.09033 0.38977 0.24548 0.0
C4 C -0.00892 0.35011 0.26885 0.0
C5 C 0.93501 0.30952 0.23963 0.0
C6 C -0.0268 0.30991 0.18795 0.0
Zn7 Zn 0.08179 0.34987 0.08849 0.0
C8 C 0.67826 0.34721 0.0463 0.0
N9 N 0.06702 0.35017 0.92667 0.0
C10 C 0.12696 0.38941 0.89795 0.0
C11 C -0.02748 0.31096 0.90551 0.0
C12 C 0.93519 0.31005 0.85383 0.0
C13 C -0.00901 0.35041 0.82356 0.0
C14 C 0.08859 0.39048 0.846 0.0
Zn15 Zn 0.08171 0.35076 1.00406 0.0
O16 O 0.03119 0.42729 0.08757 0.0
C17 C 0.48459 0.35366 0.04625 0.0
O18 O 0.03102 0.42824 1.00463 0.0
H19 H 0.91988 0.28083 0.92896 0.0
H20 H 0.2035 0.41898 0.17542 0.0
H21 H 0.19994 0.42046 0.91545 0.0
O22 O 0.39213 0.35604 0.08799 0.0
O23 O 0.39216 0.35692 1.00446 0.0
H24 H 0.92045 0.27966 0.1652 0.0
O25 O 0.13906 0.27333 1.00505 0.0
O26 O 0.13881 0.27236 0.08788 0.0
O27 O 0.77106 0.34474 1.0049 0.0
O28 O 0.77102 0.34387 0.08775 0.0
C29 C 0.175 0.25095 0.04639 0.0
H30 H 0.13723 0.42153 0.26706 0.0
H31 H 0.85694 0.27843 0.25634 0.0
H32 H 0.85796 0.27872 0.83788 0.0
H33 H 0.13482 0.42214 0.82361 0.0
C34 C 0.9352 0.50182 0.04639 0.0
N35 N 0.87141 0.60193 0.16591 0.0
C36 C 0.81147 0.56269 0.19462 0.0
C37 C 0.84984 0.56162 0.24657 0.0
C38 C 0.94743 0.60169 0.26901 0.0
C39 C 0.00324 0.64205 0.23875 0.0
C40 C 0.96591 0.64114 0.18706 0.0
Zn41 Zn 0.85672 0.60135 0.08852 0.0
C42 C 0.26017 0.6049 0.04627 0.0
N43 N 0.86991 0.60326 0.9267 0.0
C44 C 0.80897 0.56393 0.89893 0.0
C45 C 0.96524 0.6422 0.90463 0.0
C46 C 0.00343 0.64259 0.85295 0.0
C47 C 0.94733 0.60201 0.82372 0.0
C48 C 0.84806 0.56235 0.8471 0.0
Zn49 Zn 0.85664 0.60224 1.00408 0.0
O50 O 0.90741 0.52387 0.08794 0.0
C51 C 0.45384 0.59845 0.04633 0.0
O52 O 0.90724 0.52482 1.00499 0.0
H53 H 0.01801 0.67245 0.92738 0.0
H54 H 0.73849 0.53164 0.17712 0.0
H55 H 0.73488 0.53315 0.91715 0.0
O56 O 0.54627 0.59519 0.08811 0.0
O57 O 0.5463 0.59607 1.00458 0.0
H58 H 0.01856 0.67128 0.16362 0.0
O59 O 0.79962 0.67975 1.0047 0.0
O60 O 0.79937 0.67877 0.08753 0.0
O61 O 0.16741 0.60824 1.00483 0.0
O62 O 0.16737 0.60737 0.08767 0.0
C63 C 0.76343 0.70115 0.04619 0.0
H64 H 0.80361 0.52996 0.26896 0.0
H65 H 0.08046 0.67338 0.25469 0.0
H66 H 0.08152 0.67368 0.83624 0.0
H67 H 0.80114 0.5306 0.82551 0.0
C68 C 0.00318 0.50182 0.54641 0.0
N69 N 0.06797 0.60324 0.42675 0.0
C70 C 0.12917 0.56394 0.39901 0.0
C71 C 0.09026 0.56235 0.34716 0.0
C72 C -0.00909 0.60199 0.32373 0.0
C73 C 0.9345 0.64255 0.35293 0.0
C74 C -0.02749 0.64216 0.40464 0.0
Zn75 Zn 0.08147 0.60225 0.50412 0.0
C76 C 0.67821 0.6049 0.5463 0.0
N77 N 0.06746 0.60195 0.66595 0.0
C78 C 0.12712 0.56268 0.6947 0.0
C79 C -0.0269 0.64119 0.68706 0.0
C80 C 0.9356 0.64209 0.73873 0.0
C81 C -0.00892 0.60171 0.76902 0.0
C82 C 0.08858 0.56162 0.74663 0.0
Zn83 Zn 0.08192 0.60135 0.58855 0.0
O84 O 0.03091 0.52483 0.50502 0.0
C85 C 0.48454 0.59845 0.54637 0.0
O86 O 0.0312 0.52386 0.58797 0.0
H87 H 0.92062 0.67133 0.6636 0.0
H88 H 0.20339 0.53317 0.41726 0.0
H89 H 0.19996 0.53161 0.67723 0.0
O90 O 0.39179 0.59608 0.50463 0.0
O91 O 0.39239 0.59518 0.58816 0.0
H92 H 0.91959 0.67239 0.42736 0.0
O93 O 0.13931 0.67878 0.58754 0.0
O94 O 0.13845 0.67974 0.50471 0.0
O95 O 0.77129 0.60737 0.58769 0.0
O96 O 0.77069 0.60824 0.50485 0.0
C97 C 0.17495 0.70115 0.54619 0.0
H98 H 0.1374 0.53062 0.32559 0.0
H99 H 0.85636 0.67362 0.33617 0.0
H100 H 0.85844 0.67344 0.75463 0.0
H101 H 0.13457 0.52994 0.76904 0.0
C102 C 0.76338 0.25095 0.54638 0.0
N103 N 0.87086 0.35017 0.42662 0.0
C104 C 0.96527 0.31093 0.40551 0.0
C105 C 0.0028 0.31003 0.35385 0.0
C106 C 0.94732 0.35041 0.32356 0.0
C107 C 0.8498 0.3905 0.34594 0.0
C108 C 0.81123 0.38944 0.39787 0.0
Zn109 Zn 0.85641 0.35076 0.50402 0.0
C110 C 0.45379 0.35366 0.54621 0.0
N111 N 0.87035 0.34886 0.66583 0.0
C112 C 0.96583 0.30994 0.68794 0.0
C113 C 0.80919 0.38817 0.69357 0.0
C114 C 0.84813 0.38975 0.74542 0.0
C115 C 0.94748 0.35011 0.76884 0.0
C116 C 0.00387 0.30955 0.73964 0.0
Zn117 Zn 0.85686 0.34986 0.58846 0.0
O118 O 0.79902 0.27333 0.50503 0.0
C119 C 0.26012 0.34721 0.54628 0.0
O120 O 0.79988 0.27236 0.58786 0.0
H121 H 0.73497 0.41893 0.67532 0.0
H122 H 0.01774 0.28079 0.42898 0.0
H123 H 0.01874 0.27971 0.66521 0.0
O124 O 0.16704 0.34474 0.50488 0.0
O125 O 0.16765 0.34387 0.58773 0.0
H126 H 0.73839 0.42051 0.41534 0.0
O127 O 0.90742 0.42728 0.58756 0.0
O128 O 0.90713 0.42825 0.50461 0.0
O129 O 0.54654 0.35603 0.58794 0.0
O130 O 0.54594 0.35693 0.50442 0.0
C131 C 0.93515 0.45029 0.54617 0.0
H132 H 0.07998 0.27868 0.33795 0.0
H133 H 0.80382 0.42218 0.32353 0.0
H134 H 0.80101 0.42149 0.76699 0.0
H135 H 0.08202 0.27848 0.75639 0.0
C136 C 0.50323 0.95029 0.04618 0.0
N137 N 0.56852 0.84886 0.16587 0.0
C138 C 0.62942 0.88819 0.19364 0.0
C139 C 0.59033 0.88977 0.24548 0.0
C140 C 0.49108 0.85011 0.26885 0.0
C141 C 0.43501 0.80952 0.23963 0.0
C142 C 0.4732 0.80991 0.18795 0.0
Zn143 Zn 0.58178 0.84987 0.08849 0.0
C144 C 0.17826 0.84721 0.0463 0.0
N145 N 0.56702 0.85017 0.92667 0.0
C146 C 0.62696 0.88941 0.89795 0.0
C147 C 0.47252 0.81096 0.90551 0.0
C148 C 0.43519 0.81005 0.85383 0.0
C149 C 0.49099 0.85041 0.82356 0.0
C150 C 0.58859 0.89048 0.846 0.0
Zn151 Zn 0.58171 0.85076 1.00406 0.0
O152 O 0.53119 0.92729 0.08757 0.0
C153 C -0.01541 0.85366 0.04625 0.0
O154 O 0.53102 0.92824 1.00463 0.0
H155 H 0.41988 0.78083 0.92896 0.0
H156 H 0.7035 0.91898 0.17542 0.0
H157 H 0.69994 0.92046 0.91545 0.0
O158 O 0.89212 0.85604 0.08799 0.0
O159 O 0.89216 0.85692 1.00446 0.0
H160 H 0.42045 0.77966 0.1652 0.0
O161 O 0.63906 0.77333 1.00505 0.0
O162 O 0.63881 0.77236 0.08788 0.0
O163 O 0.27106 0.84474 1.0049 0.0
O164 O 0.27102 0.84387 0.08775 0.0
C165 C 0.675 0.75095 0.04639 0.0
H166 H 0.63723 0.92153 0.26706 0.0
H167 H 0.35694 0.77843 0.25634 0.0
H168 H 0.35796 0.77872 0.83788 0.0
H169 H 0.63481 0.92214 0.82361 0.0
C170 C 0.4352 0.00182 0.04639 0.0
N171 N 0.37141 0.10193 0.16591 0.0
C172 C 0.31147 0.06269 0.19462 0.0
C173 C 0.34984 0.06162 0.24657 0.0
C174 C 0.44743 0.10169 0.26901 0.0
C175 C 0.50324 0.14205 0.23875 0.0
C176 C 0.46591 0.14114 0.18706 0.0
Zn177 Zn 0.35672 0.10135 0.08852 0.0
C178 C 0.76017 0.1049 0.04627 0.0
N179 N 0.36991 0.10326 0.9267 0.0
C180 C 0.30897 0.06393 0.89893 0.0
C181 C 0.46524 0.1422 0.90463 0.0
C182 C 0.50343 0.14259 0.85295 0.0
C183 C 0.44733 0.10201 0.82372 0.0
C184 C 0.34806 0.06235 0.8471 0.0
Zn185 Zn 0.35664 0.10224 1.00408 0.0
O186 O 0.40741 0.02387 0.08794 0.0
C187 C 0.95384 0.09845 0.04633 0.0
O188 O 0.40724 0.02482 1.00499 0.0
H189 H 0.51801 0.17245 0.92738 0.0
H190 H 0.23849 0.03164 0.17712 0.0
H191 H 0.23488 0.03315 0.91715 0.0
O192 O 0.04627 0.09519 0.08811 0.0
O193 O 0.0463 0.09607 1.00458 0.0
H194 H 0.51856 0.17128 0.16362 0.0
O195 O 0.29962 0.17975 1.0047 0.0
O196 O 0.29937 0.17877 0.08753 0.0
O197 O 0.66741 0.10824 1.00483 0.0
O198 O 0.66737 0.10737 0.08767 0.0
C199 C 0.26342 0.20115 0.04619 0.0
H200 H 0.30361 0.02996 0.26896 0.0
H201 H 0.58046 0.17338 0.25469 0.0
H202 H 0.58152 0.17368 0.83624 0.0
H203 H 0.30114 0.0306 0.82551 0.0
C204 C 0.50318 0.00182 0.54641 0.0
N205 N 0.56797 0.10324 0.42675 0.0
C206 C 0.62917 0.06394 0.39901 0.0
C207 C 0.59026 0.06235 0.34716 0.0
C208 C 0.49091 0.10199 0.32373 0.0
C209 C 0.43451 0.14255 0.35293 0.0
C210 C 0.47251 0.14216 0.40464 0.0
Zn211 Zn 0.58147 0.10225 0.50412 0.0
C212 C 0.17821 0.1049 0.5463 0.0
N213 N 0.56746 0.10195 0.66595 0.0
C214 C 0.62712 0.06268 0.6947 0.0
C215 C 0.4731 0.14119 0.68706 0.0
C216 C 0.4356 0.14209 0.73873 0.0
C217 C 0.49108 0.10171 0.76902 0.0
C218 C 0.58858 0.06162 0.74663 0.0
Zn219 Zn 0.58192 0.10135 0.58855 0.0
O220 O 0.53091 0.02483 0.50502 0.0
C221 C -0.01546 0.09845 0.54637 0.0
O222 O 0.5312 0.02386 0.58797 0.0
H223 H 0.42062 0.17133 0.6636 0.0
H224 H 0.70339 0.03317 0.41726 0.0
H225 H 0.69996 0.03161 0.67723 0.0
O226 O 0.8918 0.09608 0.50463 0.0
O227 O 0.89239 0.09518 0.58816 0.0
H228 H 0.41959 0.17239 0.42736 0.0
O229 O 0.63931 0.17878 0.58754 0.0
O230 O 0.63846 0.17974 0.50471 0.0
O231 O 0.27129 0.10737 0.58769 0.0
O232 O 0.27069 0.10824 0.50485 0.0
C233 C 0.67496 0.20115 0.54619 0.0
H234 H 0.6374 0.03062 0.32559 0.0
H235 H 0.35636 0.17362 0.33617 0.0
H236 H 0.35844 0.17344 0.75463 0.0
H237 H 0.63457 0.02994 0.76904 0.0
C238 C 0.26338 0.75095 0.54638 0.0
N239 N 0.37086 0.85017 0.42662 0.0
C240 C 0.46527 0.81093 0.40551 0.0
C241 C 0.5028 0.81003 0.35385 0.0
C242 C 0.44732 0.85041 0.32356 0.0
C243 C 0.3498 0.8905 0.34594 0.0
C244 C 0.31123 0.88944 0.39787 0.0
Zn245 Zn 0.35641 0.85076 0.50402 0.0
C246 C 0.95379 0.85366 0.54621 0.0
N247 N 0.37035 0.84886 0.66583 0.0
C248 C 0.46583 0.80994 0.68794 0.0
C249 C 0.30919 0.88817 0.69357 0.0
C250 C 0.34813 0.88975 0.74542 0.0
C251 C 0.44748 0.85011 0.76884 0.0
C252 C 0.50386 0.80955 0.73964 0.0
Zn253 Zn 0.35686 0.84986 0.58846 0.0
O254 O 0.29902 0.77333 0.50503 0.0
C255 C 0.76012 0.84721 0.54628 0.0
O256 O 0.29988 0.77236 0.58786 0.0
H257 H 0.23497 0.91893 0.67532 0.0
H258 H 0.51774 0.78079 0.42898 0.0
H259 H 0.51874 0.77971 0.66521 0.0
O260 O 0.66704 0.84474 0.50488 0.0
O261 O 0.66765 0.84387 0.58773 0.0
H262 H 0.23839 0.92051 0.41534 0.0
O263 O 0.40742 0.92728 0.58756 0.0
O264 O 0.40713 0.92825 0.50461 0.0
O265 O 0.04654 0.85603 0.58794 0.0
O266 O 0.04594 0.85693 0.50442 0.0
C267 C 0.43515 0.95029 0.54617 0.0
H268 H 0.57998 0.77868 0.33795 0.0
H269 H 0.30382 0.92218 0.32353 0.0
H270 H 0.30101 0.92149 0.76699 0.0
H271 H 0.58202 0.77848 0.75639 0.0
loop_
_geom_bond_atom_site_label_1
_geom_bond_atom_site_label_2
_geom_bond_distance
_geom_bond_site_symmetry_2
_ccdc_geom_bond_type
C0 O16 1.251 1_655 S
C0 O18 1.254 1_654 S
N1 C2 1.333 . S
N1 C6 1.307 1_455 S
N1 Zn7 2.020 . S
C2 N1 1.333 . S
C2 C3 1.379 . S
C2 H20 0.952 . S
C3 C2 1.379 . S
C3 C4 1.390 . S
C3 H30 0.949 . S
C4 C3 1.390 . S
C4 C5 1.356 1_455 S
C5 C4 1.356 1_655 S
C5 C6 1.370 . S
C5 H31 0.951 . S
C6 N1 1.307 1_655 S
C6 C5 1.370 . S
C6 H24 0.948 . S
Zn7 N1 2.020 . S
Zn7 O16 2.039 . S
Zn7 O22 2.034 . S
Zn7 O26 2.025 . S
Zn7 O28 2.024 1_455 S
C8 O27 1.246 1_554 S
C8 O28 1.249 . S
N9 C10 1.307 . S
N9 C11 1.333 . S
N9 Zn15 2.020 . S
C10 N9 1.307 . S
C10 C14 1.370 . S
C10 H21 0.948 . S
C11 N9 1.333 . S
C11 C12 1.379 1_455 S
C11 H19 0.952 1_455 S
C12 C11 1.379 1_655 S
C12 C13 1.390 1_655 S
C12 H32 0.949 . S
C13 C12 1.390 1_455 S
C13 C14 1.357 . S
C14 C10 1.370 . S
C14 C13 1.357 . S
C14 H33 0.950 . S
Zn15 N9 2.020 . S
Zn15 O18 2.025 . S
Zn15 O23 2.024 . S
Zn15 O25 2.039 . S
Zn15 O27 2.034 1_455 S
O16 C0 1.251 1_455 S
O16 Zn7 2.039 . S
C17 O22 1.246 . S
C17 O23 1.249 1_554 S
O18 C0 1.254 1_456 S
O18 Zn15 2.025 . S
H19 C11 0.952 1_655 S
H20 C2 0.952 . S
H21 C10 0.948 . S
O22 Zn7 2.034 . S
O22 C17 1.246 . S
O23 Zn15 2.024 . S
O23 C17 1.249 1_556 S
H24 C6 0.948 . S
O25 Zn15 2.039 . S
O25 C29 1.251 1_556 S
O26 Zn7 2.025 . S
O26 C29 1.254 . S
O27 C8 1.246 1_556 S
O27 Zn15 2.034 1_655 S
O28 Zn7 2.024 1_655 S
O28 C8 1.249 . S
C29 O25 1.251 1_554 S
C29 O26 1.254 . S
H30 C3 0.949 . S
H31 C5 0.951 . S
H32 C12 0.949 . S
H33 C14 0.950 . S
C34 O50 1.251 1_455 S
C34 O52 1.254 1_454 S
N35 C36 1.333 . S
N35 C40 1.307 1_655 S
N35 Zn41 2.020 . S
C36 N35 1.333 . S
C36 C37 1.379 . S
C36 H54 0.952 . S
C37 C36 1.379 . S
C37 C38 1.390 . S
C37 H64 0.949 . S
C38 C37 1.390 . S
C38 C39 1.357 1_655 S
C39 C38 1.357 1_455 S
C39 C40 1.370 . S
C39 H65 0.950 . S
C40 N35 1.307 1_455 S
C40 C39 1.370 . S
C40 H58 0.948 . S
Zn41 N35 2.020 . S
Zn41 O50 2.039 . S
Zn41 O56 2.034 . S
Zn41 O60 2.025 . S
Zn41 O62 2.024 1_655 S
C42 O61 1.246 1_554 S
C42 O62 1.249 . S
N43 C44 1.307 . S
N43 C45 1.333 . S
N43 Zn49 2.020 . S
C44 N43 1.307 . S
C44 C48 1.370 . S
C44 H55 0.948 . S
C45 N43 1.333 . S
C45 C46 1.379 . S
C45 H53 0.952 1_655 S
C46 C45 1.379 . S
C46 C47 1.390 . S
C46 H66 0.949 1_655 S
C47 C46 1.390 . S
C47 C48 1.357 . S
C48 C44 1.370 . S
C48 C47 1.357 . S
C48 H67 0.950 . S
Zn49 N43 2.020 . S
Zn49 O52 2.025 . S
Zn49 O57 2.024 . S
Zn49 O59 2.039 . S
Zn49 O61 2.034 1_655 S
O50 C34 1.251 1_655 S
O50 Zn41 2.039 . S
C51 O56 1.246 . S
C51 O57 1.249 1_554 S
O52 C34 1.254 1_656 S
O52 Zn49 2.025 . S
H53 C45 0.952 1_455 S
H54 C36 0.952 . S
H55 C44 0.948 . S
O56 Zn41 2.034 . S
O56 C51 1.246 . S
O57 Zn49 2.024 . S
O57 C51 1.249 1_556 S
H58 C40 0.948 . S
O59 Zn49 2.039 . S
O59 C63 1.251 1_556 S
O60 Zn41 2.025 . S
O60 C63 1.254 . S
O61 C42 1.246 1_556 S
O61 Zn49 2.034 1_455 S
O62 Zn41 2.024 1_455 S
O62 C42 1.249 . S
C63 O59 1.251 1_554 S
C63 O60 1.254 . S
H64 C37 0.949 . S
H65 C39 0.950 . S
H66 C46 0.949 1_455 S
H67 C48 0.950 . S
C68 O84 1.251 1_655 S
C68 O86 1.254 1_655 S
N69 C70 1.333 . S
N69 C74 1.307 1_455 S
N69 Zn75 2.020 . S
C70 N69 1.333 . S
C70 C71 1.379 . S
C70 H88 0.952 . S
C71 C70 1.379 . S
C71 C72 1.390 . S
C71 H98 0.949 . S
C72 C71 1.390 . S
C72 C73 1.357 1_455 S
C73 C72 1.357 1_655 S
C73 C74 1.370 . S
C73 H99 0.950 . S
C74 N69 1.307 1_655 S
C74 C73 1.370 . S
C74 H92 0.948 . S
Zn75 N69 2.020 . S
Zn75 O84 2.039 . S
Zn75 O90 2.034 . S
Zn75 O94 2.025 . S
Zn75 O96 2.024 1_455 S
C76 O95 1.246 . S
C76 O96 1.249 . S
N77 C78 1.307 . S
N77 C79 1.333 . S
N77 Zn83 2.020 . S
C78 N77 1.307 . S
C78 C82 1.370 . S
C78 H89 0.948 . S
C79 N77 1.333 . S
C79 C80 1.379 1_455 S
C79 H87 0.952 1_455 S
C80 C79 1.379 1_655 S
C80 C81 1.390 1_655 S
C80 H100 0.949 . S
C81 C80 1.390 1_455 S
C81 C82 1.357 . S
C82 C78 1.370 . S
C82 C81 1.357 . S
C82 H101 0.950 . S
Zn83 N77 2.020 . S
Zn83 O86 2.025 . S
Zn83 O91 2.024 . S
Zn83 O93 2.039 . S
Zn83 O95 2.034 1_455 S
O84 C68 1.251 1_455 S
O84 Zn75 2.039 . S
C85 O90 1.246 . S
C85 O91 1.249 . S
O86 C68 1.254 1_455 S
O86 Zn83 2.025 . S
H87 C79 0.952 1_655 S
H88 C70 0.952 . S
H89 C78 0.948 . S
O90 Zn75 2.034 . S
O90 C85 1.246 . S
O91 Zn83 2.024 . S
O91 C85 1.249 . S
H92 C74 0.948 . S
O93 Zn83 2.039 . S
O93 C97 1.251 . S
O94 Zn75 2.025 . S
O94 C97 1.254 . S
O95 C76 1.246 . S
O95 Zn83 2.034 1_655 S
O96 Zn75 2.024 1_655 S
O96 C76 1.249 . S
C97 O93 1.251 . S
C97 O94 1.254 . S
H98 C71 0.949 . S
H99 C73 0.950 . S
H100 C80 0.949 . S
H101 C82 0.950 . S
C102 O118 1.251 . S
C102 O120 1.254 . S
N103 C104 1.333 . S
N103 C108 1.307 . S
N103 Zn109 2.020 . S
C104 N103 1.333 . S
C104 C105 1.379 1_655 S
C104 H122 0.952 1_655 S
C105 C104 1.379 1_455 S
C105 C106 1.390 1_455 S
C105 H132 0.949 . S
C106 C105 1.390 1_655 S
C106 C107 1.357 . S
C107 C106 1.357 . S
C107 C108 1.370 . S
C107 H133 0.950 . S
C108 N103 1.307 . S
C108 C107 1.370 . S
C108 H126 0.948 . S
Zn109 N103 2.020 . S
Zn109 O118 2.039 . S
Zn109 O124 2.034 1_655 S
Zn109 O128 2.025 . S
Zn109 O130 2.024 . S
C110 O129 1.246 . S
C110 O130 1.249 . S
N111 C112 1.307 1_655 S
N111 C113 1.333 . S
N111 Zn117 2.020 . S
C112 N111 1.307 1_455 S
C112 C116 1.370 . S
C112 H123 0.948 . S
C113 N111 1.333 . S
C113 C114 1.379 . S
C113 H121 0.952 . S
C114 C113 1.379 . S
C114 C115 1.390 . S
C114 H134 0.949 . S
C115 C114 1.390 . S
C115 C116 1.357 1_655 S
C116 C112 1.370 . S
C116 C115 1.357 1_455 S
C116 H135 0.950 . S
Zn117 N111 2.020 . S
Zn117 O120 2.025 . S
Zn117 O125 2.024 1_655 S
Zn117 O127 2.039 . S
Zn117 O129 2.034 . S
O118 C102 1.251 . S
O118 Zn109 2.039 . S
C119 O124 1.246 . S
C119 O125 1.249 . S
O120 C102 1.254 . S
O120 Zn117 2.025 . S
H121 C113 0.952 . S
H122 C104 0.952 1_455 S
H123 C112 0.948 . S
O124 Zn109 2.034 1_455 S
O124 C119 1.246 . S
O125 Zn117 2.024 1_455 S
O125 C119 1.249 . S
H126 C108 0.948 . S
O127 Zn117 2.039 . S
O127 C131 1.251 1_655 S
O128 Zn109 2.025 . S
O128 C131 1.254 1_655 S
O129 C110 1.246 . S
O129 Zn117 2.034 . S
O130 Zn109 2.024 . S
O130 C110 1.249 . S
C131 O127 1.251 1_455 S
C131 O128 1.254 1_455 S
H132 C105 0.949 . S
H133 C107 0.950 . S
H134 C114 0.949 . S
H135 C116 0.950 . S
C136 O152 1.251 . S
C136 O154 1.254 1_554 S
N137 C138 1.333 . S
N137 C142 1.307 . S
N137 Zn143 2.020 . S
C138 N137 1.333 . S
C138 C139 1.379 . S
C138 H156 0.952 . S
C139 C138 1.379 . S
C139 C140 1.390 . S
C139 H166 0.949 . S
C140 C139 1.390 . S
C140 C141 1.357 . S
C141 C140 1.357 . S
C141 C142 1.370 . S
C141 H167 0.950 . S
C142 N137 1.307 . S
C142 C141 1.370 . S
C142 H160 0.948 . S
Zn143 N137 2.020 . S
Zn143 O152 2.039 . S
Zn143 O158 2.034 . S
Zn143 O162 2.025 . S
Zn143 O164 2.024 . S
C144 O163 1.246 1_554 S
C144 O164 1.249 . S
N145 C146 1.307 . S
N145 C147 1.333 . S
N145 Zn151 2.020 . S
C146 N145 1.307 . S
C146 C150 1.370 . S
C146 H157 0.948 . S
C147 N145 1.333 . S
C147 C148 1.379 . S
C147 H155 0.952 . S
C148 C147 1.379 . S
C148 C149 1.390 . S
C148 H168 0.949 . S
C149 C148 1.390 . S
C149 C150 1.357 . S
C150 C146 1.370 . S
C150 C149 1.357 . S
C150 H169 0.950 . S
Zn151 N145 2.020 . S
Zn151 O154 2.025 . S
Zn151 O159 2.024 . S
Zn151 O161 2.039 . S
Zn151 O163 2.034 . S
O152 C136 1.251 . S
O152 Zn143 2.039 . S
C153 O158 1.246 . S
C153 O159 1.249 1_554 S
O154 C136 1.254 1_556 S
O154 Zn151 2.025 . S
H155 C147 0.952 . S
H156 C138 0.952 . S
H157 C146 0.948 . S
O158 Zn143 2.034 . S
O158 C153 1.246 . S
O159 Zn151 2.024 . S
O159 C153 1.249 1_556 S
H160 C142 0.948 . S
O161 Zn151 2.039 . S
O161 C165 1.251 1_556 S
O162 Zn143 2.025 . S
O162 C165 1.254 . S
O163 C144 1.246 1_556 S
O163 Zn151 2.034 . S
O164 Zn143 2.024 . S
O164 C144 1.249 . S
C165 O161 1.251 1_554 S
C165 O162 1.254 . S
H166 C139 0.949 . S
H167 C141 0.950 . S
H168 C148 0.949 . S
H169 C150 0.950 . S
C170 O186 1.251 . S
C170 O188 1.254 1_554 S
N171 C172 1.333 . S
N171 C176 1.307 . S
N171 Zn177 2.020 . S
C172 N171 1.333 . S
C172 C173 1.379 . S
C172 H190 0.952 . S
C173 C172 1.379 . S
C173 C174 1.390 . S
C173 H200 0.949 . S
C174 C173 1.390 . S
C174 C175 1.357 . S
C175 C174 1.357 . S
C175 C176 1.370 . S
C175 H201 0.950 . S
C176 N171 1.307 . S
C176 C175 1.370 . S
C176 H194 0.948 . S
Zn177 N171 2.020 . S
Zn177 O186 2.039 . S
Zn177 O192 2.034 . S
Zn177 O196 2.025 . S
Zn177 O198 2.024 . S
C178 O197 1.246 1_554 S
C178 O198 1.249 . S
N179 C180 1.307 . S
N179 C181 1.333 . S
N179 Zn185 2.020 . S
C180 N179 1.307 . S
C180 C184 1.370 . S
C180 H191 0.948 . S
C181 N179 1.333 . S
C181 C182 1.379 . S
C181 H189 0.952 . S
C182 C181 1.379 . S
C182 C183 1.390 . S
C182 H202 0.949 . S
C183 C182 1.390 . S
C183 C184 1.357 . S
C184 C180 1.370 . S
C184 C183 1.357 . S
C184 H203 0.950 . S
Zn185 N179 2.020 . S
Zn185 O188 2.025 . S
Zn185 O193 2.024 . S
Zn185 O195 2.039 . S
Zn185 O197 2.034 . S
O186 C170 1.251 . S
O186 Zn177 2.039 . S
C187 O192 1.246 . S
C187 O193 1.249 1_554 S
O188 C170 1.254 1_556 S
O188 Zn185 2.025 . S
H189 C181 0.952 . S
H190 C172 0.952 . S
H191 C180 0.948 . S
O192 Zn177 2.034 . S
O192 C187 1.246 . S
O193 Zn185 2.024 . S
O193 C187 1.249 1_556 S
H194 C176 0.948 . S
O195 Zn185 2.039 . S
O195 C199 1.251 1_556 S
O196 Zn177 2.025 . S
O196 C199 1.254 . S
O197 C178 1.246 1_556 S
O197 Zn185 2.034 . S
O198 Zn177 2.024 . S
O198 C178 1.249 . S
C199 O195 1.251 1_554 S
C199 O196 1.254 . S
H200 C173 0.949 . S
H201 C175 0.950 . S
H202 C182 0.949 . S
H203 C184 0.950 . S
C204 O220 1.251 . S
C204 O222 1.254 . S
N205 C206 1.333 . S
N205 C210 1.307 . S
N205 Zn211 2.020 . S
C206 N205 1.333 . S
C206 C207 1.379 . S
C206 H224 0.952 . S
C207 C206 1.379 . S
C207 C208 1.390 . S
C207 H234 0.949 . S
C208 C207 1.390 . S
C208 C209 1.357 . S
C209 C208 1.357 . S
C209 C210 1.370 . S
C209 H235 0.950 . S
C210 N205 1.307 . S
C210 C209 1.370 . S
C210 H228 0.948 . S
Zn211 N205 2.020 . S
Zn211 O220 2.039 . S
Zn211 O226 2.034 . S
Zn211 O230 2.025 . S
Zn211 O232 2.024 . S
C212 O231 1.246 . S
C212 O232 1.249 . S
N213 C214 1.307 . S
N213 C215 1.333 . S
N213 Zn219 2.020 . S
C214 N213 1.307 . S
C214 C218 1.370 . S
C214 H225 0.948 . S
C215 N213 1.333 . S
C215 C216 1.379 . S
C215 H223 0.952 . S
C216 C215 1.379 . S
C216 C217 1.390 . S
C216 H236 0.949 . S
C217 C216 1.390 . S
C217 C218 1.357 . S
C218 C214 1.370 . S
C218 C217 1.357 . S
C218 H237 0.950 . S
Zn219 N213 2.020 . S
Zn219 O222 2.025 . S
Zn219 O227 2.024 . S
Zn219 O229 2.039 . S
Zn219 O231 2.034 . S
O220 C204 1.251 . S
O220 Zn211 2.039 . S
C221 O226 1.246 . S
C221 O227 1.249 . S
O222 C204 1.254 . S
O222 Zn219 2.025 . S
H223 C215 0.952 . S
H224 C206 0.952 . S
H225 C214 0.948 . S
O226 Zn211 2.034 . S
O226 C221 1.246 . S
O227 Zn219 2.024 . S
O227 C221 1.249 . S
H228 C210 0.948 . S
O229 Zn219 2.039 . S
O229 C233 1.251 . S
O230 Zn211 2.025 . S
O230 C233 1.254 . S
O231 C212 1.246 . S
O231 Zn219 2.034 . S
O232 Zn211 2.024 . S
O232 C212 1.249 . S
C233 O229 1.251 . S
C233 O230 1.254 . S
H234 C207 0.949 . S
H235 C209 0.950 . S
H236 C216 0.949 . S
H237 C218 0.950 . S
C238 O254 1.251 . S
C238 O256 1.254 . S
N239 C240 1.333 . S
N239 C244 1.307 . S
N239 Zn245 2.020 . S
C240 N239 1.333 . S
C240 C241 1.379 . S
C240 H258 0.952 . S
C241 C240 1.379 . S
C241 C242 1.390 . S
C241 H268 0.949 . S
C242 C241 1.390 . S
C242 C243 1.357 . S
C243 C242 1.357 . S
C243 C244 1.370 . S
C243 H269 0.950 . S
C244 N239 1.307 . S
C244 C243 1.370 . S
C244 H262 0.948 . S
Zn245 N239 2.020 . S
Zn245 O254 2.039 . S
Zn245 O260 2.034 . S
Zn245 O264 2.025 . S
Zn245 O266 2.024 . S
C246 O265 1.246 . S
C246 O266 1.249 . S
N247 C248 1.307 . S
N247 C249 1.333 . S
N247 Zn253 2.020 . S
C248 N247 1.307 . S
C248 C252 1.370 . S
C248 H259 0.948 . S
C249 N247 1.333 . S
C249 C250 1.379 . S
C249 H257 0.952 . S
C250 C249 1.379 . S
C250 C251 1.390 . S
C250 H270 0.949 . S
C251 C250 1.390 . S
C251 C252 1.357 . S
C252 C248 1.370 . S
C252 C251 1.357 . S
C252 H271 0.950 . S
Zn253 N247 2.020 . S
Zn253 O256 2.025 . S
Zn253 O261 2.024 . S
Zn253 O263 2.039 . S
Zn253 O265 2.034 . S
O254 C238 1.251 . S
O254 Zn245 2.039 . S
C255 O260 1.246 . S
C255 O261 1.249 . S
O256 C238 1.254 . S
O256 Zn253 2.025 . S
H257 C249 0.952 . S
H258 C240 0.952 . S
H259 C248 0.948 . S
O260 Zn245 2.034 . S
O260 C255 1.246 . S
O261 Zn253 2.024 . S
O261 C255 1.249 . S
H262 C244 0.948 . S
O263 Zn253 2.039 . S
O263 C267 1.251 . S
O264 Zn245 2.025 . S
O264 C267 1.254 . S
O265 C246 1.246 . S
O265 Zn253 2.034 . S
O266 Zn245 2.024 . S
O266 C246 1.249 . S
C267 O263 1.251 . S
C267 O264 1.254 . S
H268 C241 0.949 . S
H269 C243 0.950 . S
H270 C250 0.949 . S
H271 C252 0.950 . S
C17 C8 1.341 . S
C42 C51 1.340 . S
C76 C85 1.341 . S
C110 C119 1.341 . S
C153 C144 1.341 1_655 S
C187 C178 1.340 1_455 S
C212 C221 1.341 1_455 S
C255 C246 1.341 1_655 S
C34 C0 1.558 1_455 S
C131 C68 1.555 1_455 S
C136 C170 1.558 1_565 S
C204 C267 1.556 1_545 S
C29 C199 1.963 . S
C165 C63 1.963 . S
C97 C238 1.960 . S
C102 C233 1.960 . S
C4 C106 1.681 1_455 S
C38 C72 1.729 1_655 S
C47 C81 1.651 1_655 S
C115 C13 1.665 1_655 S
C140 C242 1.681 . S
C174 C208 1.729 . S
C183 C217 1.650 . S
C251 C149 1.665 . S
