# Generated by pormake.
# Topology ure, (4)-cn, num edge types: 1
# Building blocks:
#     Node 0, Type 0, BuildingBlock: UXUYUI_clean_sbu_0, # of connection points: 4
#     Node 1, Type 0, BuildingBlock: UXUYUI_clean_sbu_0, # of connection points: 4
#     Node 2, Type 0, BuildingBlock: UXUYUI_clean_sbu_0, # of connection points: 4
#     Node 3, Type 0, BuildingBlock: UXUYUI_clean_sbu_0, # of connection points: 4
#     Node 4, Type 0, BuildingBlock: UXUYUI_clean_sbu_0, # of connection points: 4
#     Node 5, Type 0, BuildingBlock: UXUYUI_clean_sbu_0, # of connection points: 4
#     Node 6, Type 0, BuildingBlock: UXUYUI_clean_sbu_0, # of connection points: 4
#     Node 7, Type 0, BuildingBlock: UXUYUI_clean_sbu_0, # of connection points: 4
#     Node 8, Type 0, BuildingBlock: UXUYUI_clean_sbu_0, # of connection points: 4
#     Node 9, Type 0, BuildingBlock: UXUYUI_clean_sbu_0, # of connection points: 4
#     Node 10, Type 0, BuildingBlock: UXUYUI_clean_sbu_0, # of connection points: 4
#     Node 11, Type 0, BuildingBlock: UXUYUI_clean_sbu_0, # of connection points: 4
#     Node 12, Type 0, BuildingBlock: UXUYUI_clean_sbu_0, # of connection points: 4
#     Node 13, Type 0, BuildingBlock: UXUYUI_clean_sbu_0, # of connection points: 4
#     Node 14, Type 0, BuildingBlock: UXUYUI_clean_sbu_0, # of connection points: 4
#     Node 15, Type 0, BuildingBlock: UXUYUI_clean_sbu_0, # of connection points: 4
#     Edge 16, Type (0, 0), BuildingBlock: ZUJKAS_clean_linker_0, # of connection points: 2
#     Edge 17, Type (0, 0), BuildingBlock: ZUJKAS_clean_linker_0, # of connection points: 2
#     Edge 18, Type (0, 0), BuildingBlock: ZUJKAS_clean_linker_0, # of connection points: 2
#     Edge 19, Type (0, 0), BuildingBlock: ZUJKAS_clean_linker_0, # of connection points: 2
#     Edge 20, Type (0, 0), BuildingBlock: ZUJKAS_clean_linker_0, # of connection points: 2
#     Edge 21, Type (0, 0), BuildingBlock: ZUJKAS_clean_linker_0, # of connection points: 2
#     Edge 22, Type (0, 0), BuildingBlock: ZUJKAS_clean_linker_0, # of connection points: 2
#     Edge 23, Type (0, 0), BuildingBlock: ZUJKAS_clean_linker_0, # of connection points: 2
#     Edge 24, Type (0, 0), BuildingBlock: ZUJKAS_clean_linker_0, # of connection points: 2
#     Edge 25, Type (0, 0), BuildingBlock: ZUJKAS_clean_linker_0, # of connection points: 2
#     Edge 26, Type (0, 0), BuildingBlock: ZUJKAS_clean_linker_0, # of connection points: 2
#     Edge 27, Type (0, 0), BuildingBlock: ZUJKAS_clean_linker_0, # of connection points: 2
#     Edge 28, Type (0, 0), BuildingBlock: ZUJKAS_clean_linker_0, # of connection points: 2
#     Edge 29, Type (0, 0), BuildingBlock: ZUJKAS_clean_linker_0, # of connection points: 2
#     Edge 30, Type (0, 0), BuildingBlock: ZUJKAS_clean_linker_0, # of connection points: 2
#     Edge 31, Type (0, 0), BuildingBlock: ZUJKAS_clean_linker_0, # of connection points: 2
#     Edge 32, Type (0, 0), BuildingBlock: ZUJKAS_clean_linker_0, # of connection points: 2
#     Edge 33, Type (0, 0), BuildingBlock: ZUJKAS_clean_linker_0, # of connection points: 2
#     Edge 34, Type (0, 0), BuildingBlock: ZUJKAS_clean_linker_0, # of connection points: 2
#     Edge 35, Type (0, 0), BuildingBlock: ZUJKAS_clean_linker_0, # of connection points: 2
#     Edge 36, Type (0, 0), BuildingBlock: ZUJKAS_clean_linker_0, # of connection points: 2
#     Edge 37, Type (0, 0), BuildingBlock: ZUJKAS_clean_linker_0, # of connection points: 2
#     Edge 38, Type (0, 0), BuildingBlock: ZUJKAS_clean_linker_0, # of connection points: 2
#     Edge 39, Type (0, 0), BuildingBlock: ZUJKAS_clean_linker_0, # of connection points: 2
#     Edge 40, Type (0, 0), BuildingBlock: ZUJKAS_clean_linker_0, # of connection points: 2
#     Edge 41, Type (0, 0), BuildingBlock: ZUJKAS_clean_linker_0, # of connection points: 2
#     Edge 42, Type (0, 0), BuildingBlock: ZUJKAS_clean_linker_0, # of connection points: 2
#     Edge 43, Type (0, 0), BuildingBlock: ZUJKAS_clean_linker_0, # of connection points: 2
#     Edge 44, Type (0, 0), BuildingBlock: ZUJKAS_clean_linker_0, # of connection points: 2
#     Edge 45, Type (0, 0), BuildingBlock: ZUJKAS_clean_linker_0, # of connection points: 2
#     Edge 46, Type (0, 0), BuildingBlock: ZUJKAS_clean_linker_0, # of connection points: 2
#     Edge 47, Type (0, 0), BuildingBlock: ZUJKAS_clean_linker_0, # of connection points: 2
# Relax obj value: 0.164
# Max RMSD: 0.090
# Mean RMSD: 0.090
data_MOF--net-ure--node1-UXUYUI_clean_sbu_0--edge1-ZUJKAS_clean_linker_0
_symmetry_space_group_name_H-M    P1
_symmetry_Int_Tables_number       1
_symmetry_cell_setting            triclinic
loop_
_symmetry_equiv_pos_as_xyz
'x, y, z'
_cell_length_a     55.893115
_cell_length_b     55.800267
_cell_length_c     55.81612
_cell_angle_alpha  90.075092
_cell_angle_beta   90.110188
_cell_angle_gamma 90.241163
loop_
_atom_site_label
_atom_site_type_symbol
_atom_site_fract_x
_atom_site_fract_y
_atom_site_fract_z
_atom_type_partial_charge
Li0 Li 0.25671 0.28887 0.26242 0.0
Li1 Li 0.2601 0.25657 0.29023 0.0
Li2 Li 0.2894 0.26015 0.25863 0.0
Li3 Li 0.24717 0.24604 0.25009 0.0
C4 C 0.2925 0.30482 0.28954 0.0
N5 N 0.31048 0.35022 0.29825 0.0
C6 C 0.28702 0.31669 0.3109 0.0
C7 C 0.30726 0.31599 0.2727 0.0
C8 C 0.29625 0.33965 0.31495 0.0
C9 C 0.31614 0.33895 0.27741 0.0
C10 C 0.21222 0.26321 0.28902 0.0
C11 C 0.17796 0.2401 0.30173 0.0
N12 N 0.17506 0.25521 0.32064 0.0
C13 C 0.20883 0.27857 0.30851 0.0
C14 C 0.19664 0.24384 0.28554 0.0
C15 C 0.18998 0.27419 0.32433 0.0
C16 C 0.24968 0.33195 0.2362 0.0
N17 N 0.24813 0.32165 0.25819 0.0
C18 C 0.23733 0.35909 0.27586 0.0
C19 C 0.24159 0.33456 0.27775 0.0
C20 C 0.23953 0.37046 0.25352 0.0
C21 C 0.24543 0.35645 0.23343 0.0
H22 H 0.25451 0.32121 0.22085 0.0
H23 H 0.24041 0.32599 0.29501 0.0
C24 C 0.27632 0.25712 0.33742 0.0
N25 N 0.2581 0.24852 0.32369 0.0
C26 C 0.27633 0.25363 0.36213 0.0
C27 C 0.23948 0.2312 0.35819 0.0
C28 C 0.24022 0.23511 0.33347 0.0
C29 C 0.25749 0.24095 0.37291 0.0
H30 H 0.29089 0.26683 0.32917 0.0
H31 H 0.22641 0.22758 0.32219 0.0
C32 C 0.27853 0.27113 0.21166 0.0
N33 N 0.30265 0.2707 0.16848 0.0
C34 C 0.27553 0.25197 0.19575 0.0
C35 C 0.29363 0.29018 0.20549 0.0
C36 C 0.28791 0.25207 0.17403 0.0
C37 C 0.30573 0.28958 0.18362 0.0
C38 C 0.27533 0.21282 0.28559 0.0
C39 C 0.2967 0.21104 0.29848 0.0
C40 C 0.25649 0.19702 0.29043 0.0
C41 C 0.29883 0.19347 0.31616 0.0
C42 C 0.25935 0.17967 0.30822 0.0
N43 N 0.28027 0.17829 0.32063 0.0
C44 C 0.33792 0.26298 0.26938 0.0
C45 C 0.33083 0.24607 0.23106 0.0
C46 C 0.36256 0.26072 0.26641 0.0
N47 N 0.32262 0.25603 0.25171 0.0
C48 C 0.35542 0.24358 0.22725 0.0
C49 C 0.37163 0.25098 0.2451 0.0
H50 H 0.33098 0.27022 0.28592 0.0
H51 H 0.31838 0.2398 0.21764 0.0
C52 C 0.20856 0.23665 0.21915 0.0
N53 N 0.22762 0.22648 0.23028 0.0
C54 C 0.19374 0.22288 0.20434 0.0
C55 C 0.21858 0.18848 0.21264 0.0
C56 C 0.23295 0.20294 0.22723 0.0
C57 C 0.19864 0.19842 0.20097 0.0
H58 H 0.20484 0.25547 0.22191 0.0
H59 H 0.24845 0.19544 0.23603 0.0
O60 O 0.28328 0.28248 0.28504 0.0
O61 O 0.23043 0.2673 0.27318 0.0
O62 O 0.26645 0.2714 0.23297 0.0
O63 O 0.27269 0.2303 0.26868 0.0
H64 H 0.27543 0.30843 0.32405 0.0
H65 H 0.31181 0.30702 0.25617 0.0
H66 H 0.29202 0.3491 0.33132 0.0
H67 H 0.32752 0.34782 0.26448 0.0
H68 H 0.16582 0.22515 0.29931 0.0
H69 H 0.22084 0.29346 0.31163 0.0
H70 H 0.19901 0.23171 0.27062 0.0
H71 H 0.18725 0.28583 0.33958 0.0
H72 H 0.23316 0.36914 0.29191 0.0
H73 H 0.2469 0.36435 0.21578 0.0
H74 H 0.29096 0.26085 0.37269 0.0
H75 H 0.22466 0.22121 0.36572 0.0
H76 H 0.26393 0.23709 0.20015 0.0
H77 H 0.29596 0.30529 0.2174 0.0
H78 H 0.28584 0.23731 0.1616 0.0
H79 H 0.31753 0.30416 0.17867 0.0
H80 H 0.31139 0.22324 0.29502 0.0
H81 H 0.23972 0.19839 0.28082 0.0
H82 H 0.31522 0.19195 0.32637 0.0
H83 H 0.24488 0.16741 0.31227 0.0
H84 H 0.37438 0.26676 0.28059 0.0
H85 H 0.36166 0.23556 0.21074 0.0
H86 H 0.17844 0.23121 0.1959 0.0
H87 H 0.22322 0.1698 0.21025 0.0
Li88 Li 0.98829 0.04036 0.50306 0.0
Li89 Li 0.95942 0.00735 0.50395 0.0
Li90 Li 0.99168 0.01004 0.53519 0.0
Li91 Li 0.00033 0.9976 0.4939 0.0
C92 C 0.95904 0.05204 0.5418 0.0
N93 N 0.94719 0.09185 0.56874 0.0
C94 C 0.93639 0.06234 0.53958 0.0
C95 C 0.97551 0.06179 0.558 0.0
C96 C 0.93078 0.08253 0.55327 0.0
C97 C 0.96923 0.08195 0.57139 0.0
C98 C 0.96219 0.01735 0.45764 0.0
C99 C 0.93874 0.99318 0.43043 0.0
N100 N 0.92898 0.01343 0.42111 0.0
C101 C 0.95213 0.03792 0.44764 0.0
C102 C 0.95564 0.9948 0.44884 0.0
C103 C 0.9353 0.03556 0.42924 0.0
C104 C 0.01335 0.08403 0.49355 0.0
N105 N 0.9915 0.07347 0.49564 0.0
C106 C 0.97203 0.11093 0.48914 0.0
C107 C 0.97105 0.08628 0.49309 0.0
C108 C 0.99432 0.12261 0.48786 0.0
C109 C 0.0152 0.10873 0.48982 0.0
H110 H 0.02936 0.07335 0.49514 0.0
H111 H 0.95391 0.07731 0.49425 0.0
C112 C 0.9172 0.97867 0.50473 0.0
N113 N 0.92644 0.00053 0.49918 0.0
C114 C 0.89257 0.97455 0.50301 0.0
C115 C 0.88762 0.0154 0.48953 0.0
C116 C 0.91227 0.01871 0.49154 0.0
C117 C 0.87739 0.9932 0.49566 0.0
H118 H 0.92887 0.96464 0.51109 0.0
H119 H 0.9201 0.03598 0.48747 0.0
C120 C 0.03834 0.02736 0.52516 0.0
N121 N 0.08084 0.03723 0.5487 0.0
C122 C 0.05738 0.01124 0.52393 0.0
C123 C 0.04107 0.04866 0.53811 0.0
C124 C 0.07868 0.01651 0.53602 0.0
C125 C 0.06264 0.05328 0.54996 0.0
C126 C 0.98525 0.95777 0.51802 0.0
C127 C 0.99979 0.94873 0.53628 0.0
C128 C 0.97681 0.94241 0.50007 0.0
C129 C 0.00598 0.9245 0.53603 0.0
C130 C 0.98345 0.9183 0.50043 0.0
N131 N 0.99779 0.90993 0.51824 0.0
C132 C 0.97703 0.00509 0.58219 0.0
C133 C 0.01925 0.00377 0.5789 0.0
C134 C 0.97849 0.00334 0.60706 0.0
N135 N 0.99723 0.00567 0.56868 0.0
C136 C 0.02156 0.00211 0.60378 0.0
C137 C 0.001 0.00217 0.61825 0.0
H138 H 0.95973 0.00631 0.57357 0.0
H139 H 0.03506 0.00369 0.56791 0.0
C140 C 0.01963 0.9819 0.44997 0.0
N141 N 0.02007 0.97797 0.474 0.0
C142 C 0.03348 0.96791 0.4346 0.0
C143 C 0.04818 0.94618 0.46898 0.0
C144 C 0.03416 0.96067 0.48368 0.0
C145 C 0.04793 0.94968 0.44407 0.0
H146 H 0.00852 0.99594 0.4427 0.0
H147 H 0.03469 0.9582 0.50284 0.0
O148 O 0.96488 0.03234 0.5284 0.0
O149 O 0.9784 0.01926 0.47595 0.0
O150 O 0.01737 0.02245 0.51339 0.0
O151 O 0.97903 0.98145 0.51796 0.0
H152 H 0.92329 0.05492 0.52735 0.0
H153 H 0.99287 0.05376 0.56039 0.0
H154 H 0.91337 0.09076 0.5516 0.0
H155 H 0.98185 0.08969 0.58395 0.0
H156 H 0.93339 0.97583 0.42356 0.0
H157 H 0.95718 0.05552 0.45405 0.0
H158 H 0.96346 0.97874 0.45621 0.0
H159 H 0.92725 0.05133 0.42142 0.0
H160 H 0.95546 0.12071 0.48713 0.0
H161 H 0.03278 0.11689 0.48909 0.0
H162 H 0.88542 0.95725 0.50816 0.0
H163 H 0.87667 0.03016 0.48345 0.0
H164 H 0.05575 0.9948 0.51384 0.0
H165 H 0.02679 0.06162 0.53889 0.0
H166 H 0.0935 0.00412 0.53531 0.0
H167 H 0.06494 0.06967 0.5601 0.0
H168 H 0.0064 0.96033 0.55036 0.0
H169 H 0.9653 0.94901 0.486 0.0
H170 H 0.01735 0.9173 0.54996 0.0
H171 H 0.97717 0.90624 0.48657 0.0
H172 H 0.96212 0.0029 0.6174 0.0
H173 H 0.03929 0.00135 0.61157 0.0
H174 H 0.03265 0.97113 0.41548 0.0
H175 H 0.05939 0.93262 0.47707 0.0
Li176 Li 0.21154 0.74191 0.7585 0.0
Li177 Li 0.25154 0.75413 0.74979 0.0
Li178 Li 0.2433 0.71171 0.76143 0.0
Li179 Li 0.24113 0.74567 0.79076 0.0
C180 C 0.22641 0.73719 0.70997 0.0
N181 N 0.21537 0.75329 0.66451 0.0
C182 C 0.21373 0.7585 0.70695 0.0
C183 C 0.23343 0.72402 0.68989 0.0
C184 C 0.20834 0.76636 0.68382 0.0
C185 C 0.22768 0.73247 0.66705 0.0
C186 C 0.23223 0.79498 0.76882 0.0
C187 C 0.25846 0.82882 0.77521 0.0
N188 N 0.24187 0.84343 0.7651 0.0
C189 C 0.21537 0.81034 0.75859 0.0
C190 C 0.25389 0.80429 0.7773 0.0
C191 C 0.2206 0.83478 0.75684 0.0
C192 C 0.16529 0.76067 0.76466 0.0
N193 N 0.17832 0.74471 0.75179 0.0
C194 C 0.14305 0.72977 0.73259 0.0
C195 C 0.16783 0.72953 0.73582 0.0
C196 C 0.12902 0.74562 0.74611 0.0
C197 C 0.14047 0.76141 0.76211 0.0
H198 H 0.17415 0.7723 0.77743 0.0
H199 H 0.17865 0.71676 0.72614 0.0
C200 C 0.29481 0.76755 0.72738 0.0
N201 N 0.27136 0.77357 0.72956 0.0
C202 C 0.31017 0.78138 0.71323 0.0
C203 C 0.27694 0.80724 0.70367 0.0
C204 C 0.26222 0.79282 0.71781 0.0
C205 C 0.30128 0.80165 0.70132 0.0
H206 H 0.30162 0.75205 0.73675 0.0
H207 H 0.24351 0.79715 0.71942 0.0
C208 C 0.19622 0.71324 0.79301 0.0
N209 N 0.15007 0.70285 0.80734 0.0
C210 C 0.18539 0.72687 0.81095 0.0
C211 C 0.18369 0.69424 0.78245 0.0
C212 C 0.16201 0.72134 0.81793 0.0
C213 C 0.16034 0.6893 0.78992 0.0
C214 C 0.28763 0.7316 0.7886 0.0
C215 C 0.29135 0.70999 0.80063 0.0
C216 C 0.30269 0.75113 0.79319 0.0
C217 C 0.30981 0.70842 0.81746 0.0
C218 C 0.32097 0.74885 0.81013 0.0
N219 N 0.3241 0.72773 0.82184 0.0
C220 C 0.26129 0.66944 0.73886 0.0
C221 C 0.24268 0.66439 0.77667 0.0
C222 C 0.26487 0.6447 0.73694 0.0
N223 N 0.25018 0.67865 0.75844 0.0
C224 C 0.24575 0.63965 0.77545 0.0
C225 C 0.25673 0.62947 0.75527 0.0
H226 H 0.26703 0.68126 0.72462 0.0
H227 H 0.23409 0.67226 0.79212 0.0
C228 C 0.24181 0.77453 0.83325 0.0
N229 N 0.24514 0.75225 0.82397 0.0
C230 C 0.24324 0.77826 0.85798 0.0
C231 C 0.25126 0.73605 0.86309 0.0
C232 C 0.24955 0.73312 0.83833 0.0
C233 C 0.24798 0.75884 0.87324 0.0
H234 H 0.23752 0.78932 0.82159 0.0
H235 H 0.25117 0.71545 0.83056 0.0
O236 O 0.23188 0.72909 0.73244 0.0
O237 O 0.2275 0.77097 0.77048 0.0
O238 O 0.21875 0.71891 0.78532 0.0
O239 O 0.26959 0.7335 0.77212 0.0
H240 H 0.20824 0.76897 0.72227 0.0
H241 H 0.24321 0.70745 0.69195 0.0
H242 H 0.19861 0.78288 0.68123 0.0
H243 H 0.23301 0.72247 0.65133 0.0
H244 H 0.2752 0.83624 0.78164 0.0
H245 H 0.1985 0.80343 0.75194 0.0
H246 H 0.26701 0.79266 0.78541 0.0
H247 H 0.20777 0.84687 0.74889 0.0
H248 H 0.1349 0.71709 0.72031 0.0
H249 H 0.13032 0.77404 0.77273 0.0
H250 H 0.32886 0.77651 0.71196 0.0
H251 H 0.26928 0.82248 0.69448 0.0
H252 H 0.1948 0.74175 0.81916 0.0
H253 H 0.19179 0.68366 0.76839 0.0
H254 H 0.15333 0.73182 0.83169 0.0
H255 H 0.15035 0.67476 0.78179 0.0
H256 H 0.27997 0.69464 0.79719 0.0
H257 H 0.30043 0.76783 0.78366 0.0
H258 H 0.31277 0.69186 0.82705 0.0
H259 H 0.33271 0.76385 0.81391 0.0
H260 H 0.27328 0.63752 0.72102 0.0
H261 H 0.23956 0.6286 0.79013 0.0
H262 H 0.24057 0.79613 0.86507 0.0
H263 H 0.25439 0.72048 0.87421 0.0
Li264 Li 0.50664 0.98964 0.03909 0.0
Li265 Li 0.50829 0.96112 0.00673 0.0
Li266 Li 0.53881 0.99221 0.01017 0.0
Li267 Li 0.49718 0.00208 0.99666 0.0
C268 C 0.53708 0.95724 0.05458 0.0
N269 N 0.54653 0.94028 0.1001 0.0
C270 C 0.52759 0.93526 0.06201 0.0
C271 C 0.55149 0.97052 0.07026 0.0
C272 C 0.53258 0.927 0.08509 0.0
C273 C 0.556 0.96168 0.09322 0.0
C274 C 0.4591 0.96706 0.01264 0.0
C275 C 0.42666 0.95781 0.98551 0.0
N276 N 0.41705 0.9429 0.0022 0.0
C277 C 0.44883 0.9517 0.02955 0.0
C278 C 0.44789 0.97018 0.99044 0.0
C279 C 0.4276 0.93962 0.02392 0.0
C280 C 0.5046 0.0153 0.08304 0.0
N281 N 0.49898 0.99423 0.07211 0.0
C282 C 0.48647 0.9773 0.10936 0.0
C283 C 0.48957 0.97558 0.08463 0.0
C284 C 0.49291 0.99853 0.1213 0.0
C285 C 0.50165 0.01788 0.10777 0.0
H286 H 0.51195 0.02991 0.07268 0.0
H287 H 0.48528 0.95902 0.07556 0.0
C288 C 0.52688 0.91567 0.00126 0.0
N289 N 0.50587 0.92761 0.99877 0.0
C290 C 0.52796 0.89102 0.99738 0.0
C291 C 0.48584 0.89126 0.98769 0.0
C292 C 0.48565 0.91602 0.99152 0.0
C293 C 0.50714 0.87832 0.991 0.0
H294 H 0.54284 0.92534 0.00656 0.0
H295 H 0.46928 0.92573 0.98888 0.0
C296 C 0.532 0.03834 0.02084 0.0
N297 N 0.56205 0.07774 0.019 0.0
C298 C 0.52948 0.05522 0.00253 0.0
C299 C 0.54969 0.04158 0.0383 0.0
C300 C 0.54486 0.07501 0.00191 0.0
C301 C 0.56475 0.06158 0.03702 0.0
C302 C 0.52519 0.96543 0.9633 0.0
C303 C 0.54782 0.95534 0.96029 0.0
C304 C 0.50611 0.95762 0.94903 0.0
C305 C 0.55095 0.93739 0.94312 0.0
C306 C 0.50996 0.93961 0.93208 0.0
N307 N 0.53211 0.92994 0.92951 0.0
C308 C 0.58733 0.98328 0.01729 0.0
C309 C 0.58046 0.01659 0.99194 0.0
C310 C 0.61198 0.9863 0.01525 0.0
N311 N 0.57212 0.99848 0.00598 0.0
C312 C 0.6051 0.02042 0.98955 0.0
C313 C 0.62118 0.00509 0.00129 0.0
H314 H 0.58033 0.96862 0.02779 0.0
H315 H 0.56802 0.02801 0.98255 0.0
C316 C 0.46208 0.03699 0.98808 0.0
N317 N 0.47847 0.02269 0.97728 0.0
C318 C 0.44779 0.05223 0.97438 0.0
C319 C 0.4675 0.03765 0.93873 0.0
C320 C 0.48153 0.02281 0.95313 0.0
C321 C 0.45034 0.05261 0.94934 0.0
H322 H 0.46008 0.03644 0.00735 0.0
H323 H 0.49483 0.01136 0.94507 0.0
O324 O 0.53208 0.96586 0.03217 0.0
O325 O 0.47967 0.97934 0.01802 0.0
O326 O 0.51719 0.01878 0.02169 0.0
O327 O 0.52162 0.9825 0.98049 0.0
H328 H 0.51616 0.92486 0.05025 0.0
H329 H 0.55893 0.98758 0.06482 0.0
H330 H 0.52524 0.91009 0.09113 0.0
H331 H 0.567 0.97184 0.10558 0.0
H332 H 0.41787 0.96002 0.96838 0.0
H333 H 0.45717 0.94903 0.0468 0.0
H334 H 0.45555 0.98182 0.97704 0.0
H335 H 0.41952 0.92763 0.03682 0.0
H336 H 0.47939 0.96206 0.11906 0.0
H337 H 0.50695 0.03453 0.1163 0.0
H338 H 0.54494 0.88201 0.99952 0.0
H339 H 0.46931 0.8823 0.98284 0.0
H340 H 0.51591 0.05301 0.98887 0.0
H341 H 0.55192 0.02868 0.05256 0.0
H342 H 0.54318 0.08817 0.9878 0.0
H343 H 0.57861 0.06423 0.05032 0.0
H344 H 0.56275 0.96112 0.97127 0.0
H345 H 0.48845 0.96517 0.95124 0.0
H346 H 0.56834 0.92931 0.94067 0.0
H347 H 0.49533 0.93327 0.92103 0.0
H348 H 0.62373 0.97415 0.02471 0.0
H349 H 0.61149 0.03492 0.97834 0.0
H350 H 0.43462 0.0633 0.98326 0.0
H351 H 0.47023 0.03761 0.91952 0.0
Li352 Li 0.24956 0.75293 0.25212 0.0
Li353 Li 0.26137 0.7095 0.24228 0.0
Li354 Li 0.29054 0.74194 0.24428 0.0
Li355 Li 0.26292 0.74093 0.21208 0.0
C356 C 0.2856 0.72847 0.28919 0.0
N357 N 0.31908 0.72609 0.32558 0.0
C358 C 0.29604 0.70656 0.29515 0.0
C359 C 0.29192 0.7491 0.30197 0.0
C360 C 0.313 0.70574 0.31355 0.0
C361 C 0.30896 0.74755 0.32024 0.0
C362 C 0.21861 0.72674 0.21116 0.0
C363 C 0.20222 0.70377 0.17835 0.0
N364 N 0.18866 0.72291 0.17191 0.0
C365 C 0.20446 0.74615 0.20429 0.0
C366 C 0.21747 0.70535 0.19815 0.0
C367 C 0.18946 0.74387 0.18436 0.0
C368 C 0.21757 0.79126 0.25944 0.0
N369 N 0.22838 0.77228 0.2701 0.0
C370 C 0.2098 0.78146 0.30747 0.0
C371 C 0.22481 0.76713 0.2936 0.0
C372 C 0.19831 0.80125 0.29701 0.0
C373 C 0.20235 0.80603 0.27261 0.0
H374 H 0.22096 0.79502 0.24074 0.0
H375 H 0.23382 0.75201 0.30162 0.0
C376 C 0.27484 0.66171 0.24586 0.0
N377 N 0.25567 0.6765 0.24734 0.0
C378 C 0.27177 0.63696 0.24748 0.0
C379 C 0.22926 0.64312 0.25238 0.0
C380 C 0.23318 0.66783 0.25079 0.0
C381 C 0.2487 0.6273 0.25043 0.0
H382 H 0.29251 0.6692 0.24312 0.0
H383 H 0.21825 0.68007 0.25166 0.0
C384 C 0.28146 0.79175 0.23376 0.0
N385 N 0.29986 0.83744 0.23967 0.0
C386 C 0.29267 0.8034 0.21464 0.0
C387 C 0.27934 0.80349 0.25579 0.0
C388 C 0.30194 0.82645 0.21802 0.0
C389 C 0.28882 0.82654 0.25844 0.0
C390 C 0.30534 0.71646 0.20337 0.0
C391 C 0.31569 0.738 0.19588 0.0
C392 C 0.3136 0.69479 0.194 0.0
C393 C 0.3342 0.73754 0.17912 0.0
C394 C 0.33215 0.69507 0.17725 0.0
N395 N 0.34198 0.71626 0.17022 0.0
C396 C 0.33613 0.72559 0.25466 0.0
C397 C 0.33474 0.76798 0.25524 0.0
C398 C 0.36067 0.72596 0.25918 0.0
N399 N 0.32369 0.74637 0.2526 0.0
C400 C 0.35935 0.76921 0.25956 0.0
C401 C 0.37273 0.748 0.26132 0.0
H402 H 0.32696 0.70861 0.25247 0.0
H403 H 0.32475 0.78433 0.25357 0.0
C404 C 0.25319 0.76843 0.1704 0.0
N405 N 0.25863 0.74622 0.17869 0.0
C406 C 0.25105 0.77247 0.14578 0.0
C407 C 0.25975 0.73062 0.13887 0.0
C408 C 0.26163 0.72739 0.16356 0.0
C409 C 0.25466 0.75345 0.12967 0.0
H410 H 0.25074 0.78304 0.1829 0.0
H411 H 0.26559 0.70984 0.17069 0.0
O412 O 0.26939 0.72972 0.27084 0.0
O413 O 0.23395 0.72886 0.23015 0.0
O414 O 0.27202 0.76929 0.23061 0.0
O415 O 0.28713 0.71644 0.21973 0.0
H416 H 0.29128 0.6904 0.28554 0.0
H417 H 0.28386 0.76615 0.29777 0.0
H418 H 0.32136 0.68893 0.31823 0.0
H419 H 0.31414 0.76341 0.33016 0.0
H420 H 0.20125 0.68737 0.16802 0.0
H421 H 0.20525 0.76287 0.21409 0.0
H422 H 0.22851 0.69025 0.20307 0.0
H423 H 0.1785 0.75878 0.17875 0.0
H424 H 0.20756 0.77731 0.32628 0.0
H425 H 0.1937 0.8209 0.26372 0.0
H426 H 0.28733 0.62552 0.24631 0.0
H427 H 0.21114 0.63648 0.2544 0.0
H428 H 0.29418 0.79478 0.19734 0.0
H429 H 0.27057 0.79493 0.27073 0.0
H430 H 0.31075 0.83562 0.2034 0.0
H431 H 0.28739 0.83578 0.27543 0.0
H432 H 0.30955 0.75488 0.20299 0.0
H433 H 0.30572 0.67795 0.19955 0.0
H434 H 0.34238 0.7541 0.1732 0.0
H435 H 0.33872 0.67843 0.16983 0.0
H436 H 0.37007 0.70912 0.26083 0.0
H437 H 0.36788 0.78663 0.2608 0.0
H438 H 0.24721 0.79037 0.13941 0.0
H439 H 0.26221 0.71537 0.12712 0.0
Li440 Li 0.5393 0.00662 0.49034 0.0
Li441 Li 0.51273 0.0397 0.49432 0.0
Li442 Li 0.49944 0.99762 0.50307 0.0
Li443 Li 0.50843 0.01107 0.46156 0.0
C444 C 0.53946 0.01761 0.53801 0.0
N445 N 0.57304 0.01711 0.57436 0.0
C446 C 0.55824 0.03421 0.53805 0.0
C447 C 0.5376 0.00089 0.55654 0.0
C448 C 0.5751 0.03361 0.55655 0.0
C449 C 0.55479 0.00091 0.57475 0.0
C450 C 0.53369 0.05215 0.45191 0.0
C451 C 0.51034 0.08129 0.43024 0.0
N452 N 0.5307 0.09002 0.42014 0.0
C453 C 0.55439 0.06149 0.44135 0.0
C454 C 0.51147 0.0622 0.44635 0.0
C455 C 0.5525 0.08061 0.42533 0.0
C456 C 0.58594 0.00398 0.47356 0.0
N457 N 0.57234 0.99757 0.49268 0.0
C458 C 0.60639 0.98024 0.51197 0.0
C459 C 0.58197 0.98547 0.51151 0.0
C460 C 0.62098 0.98729 0.49273 0.0
C461 C 0.61037 0.99908 0.47323 0.0
H462 H 0.57779 0.01304 0.45856 0.0
H463 H 0.57079 0.97983 0.5262 0.0
C464 C 0.48845 0.08191 0.50914 0.0
N465 N 0.50998 0.07252 0.50302 0.0
C466 C 0.48631 0.10648 0.5136 0.0
C467 C 0.52863 0.11101 0.50587 0.0
C468 C 0.52993 0.08643 0.50154 0.0
C469 C 0.50656 0.12141 0.51176 0.0
H470 H 0.47289 0.07039 0.51016 0.0
H471 H 0.54677 0.07853 0.49635 0.0
C472 C 0.53207 0.96129 0.48096 0.0
N473 N 0.56176 0.92235 0.48758 0.0
C474 C 0.54504 0.952 0.46172 0.0
C475 C 0.53415 0.95072 0.50357 0.0
C476 C 0.55999 0.93234 0.46544 0.0
C477 C 0.54923 0.93104 0.50654 0.0
C478 C 0.46045 0.01469 0.47745 0.0
C479 C 0.45769 0.99151 0.46827 0.0
C480 C 0.44035 0.02918 0.48047 0.0
C481 C 0.43483 0.9832 0.46231 0.0
C482 C 0.41779 0.02023 0.47428 0.0
N483 N 0.41552 0.99761 0.46542 0.0
C484 C 0.47055 0.98806 0.5433 0.0
C485 C 0.47321 0.95591 0.51566 0.0
C486 C 0.45569 0.97449 0.55818 0.0
N487 N 0.47904 0.97855 0.52259 0.0
C488 C 0.45847 0.94169 0.53 0.0
C489 C 0.44952 0.9509 0.55164 0.0
H490 H 0.47538 0.0062 0.54824 0.0
H491 H 0.48017 0.94882 0.49904 0.0
C492 C 0.51956 -3e-05 0.41438 0.0
N493 N 0.50143 0.00842 0.42814 0.0
C494 C 0.51703 0.99856 0.38955 0.0
C495 C 0.47736 0.01517 0.39334 0.0
C496 C 0.48065 0.01622 0.41815 0.0
C497 C 0.49571 0.00623 0.3787 0.0
H498 H 0.53626 0.99493 0.42269 0.0
H499 H 0.4668 0.02375 0.42927 0.0
O500 O 0.52279 0.01785 0.52008 0.0
O501 O 0.53541 0.03348 0.46774 0.0
O502 O 0.51767 0.98082 0.47783 0.0
O503 O 0.48262 0.02321 0.48365 0.0
H504 H 0.55997 0.04718 0.52378 0.0
H505 H 0.52312 0.98795 0.55678 0.0
H506 H 0.58984 0.04623 0.55673 0.0
H507 H 0.55365 0.98801 0.58916 0.0
H508 H 0.49326 0.08919 0.42579 0.0
H509 H 0.57177 0.05412 0.44556 0.0
H510 H 0.49524 0.05547 0.45439 0.0
H511 H 0.56839 0.08798 0.41705 0.0
H512 H 0.61375 0.97073 0.52717 0.0
H513 H 0.62093 0.00501 0.45809 0.0
H514 H 0.469 0.11371 0.51832 0.0
H515 H 0.54462 0.12185 0.50384 0.0
H516 H 0.54365 0.95986 0.4441 0.0
H517 H 0.52461 0.95791 0.51878 0.0
H518 H 0.57019 0.92502 0.45071 0.0
H519 H 0.55112 0.92279 0.52397 0.0
H520 H 0.47301 0.98007 0.46561 0.0
H521 H 0.44215 0.04718 0.48752 0.0
H522 H 0.43246 0.96531 0.45519 0.0
H523 H 0.40208 0.03125 0.47653 0.0
H524 H 0.44894 0.98248 0.57449 0.0
H525 H 0.45446 0.92353 0.52436 0.0
H526 H 0.53188 0.99214 0.37892 0.0
H527 H 0.46065 0.02132 0.38572 0.0
Li528 Li 0.25014 0.24857 0.75446 0.0
Li529 Li 0.23987 0.2899 0.73932 0.0
Li530 Li 0.20948 0.25919 0.74327 0.0
Li531 Li 0.23792 0.25672 0.71165 0.0
C532 C 0.21321 0.27741 0.78638 0.0
N533 N 0.17768 0.28482 0.81987 0.0
C534 C 0.20077 0.29907 0.7868 0.0
C535 C 0.20768 0.25954 0.80303 0.0
C536 C 0.18283 0.30246 0.80386 0.0
C537 C 0.18964 0.26364 0.81982 0.0
C538 C 0.28624 0.28318 0.73058 0.0
C539 C 0.30929 0.31658 0.71558 0.0
N540 N 0.32531 0.31356 0.73368 0.0
C541 C 0.30297 0.28037 0.74899 0.0
C542 C 0.28945 0.30138 0.71367 0.0
C543 C 0.3226 0.29591 0.75026 0.0
C544 C 0.28362 0.21264 0.76428 0.0
N545 N 0.27042 0.23026 0.77455 0.0
C546 C 0.2862 0.22084 0.8132 0.0
C547 C 0.27156 0.23473 0.79845 0.0
C548 C 0.29991 0.20227 0.80318 0.0
C549 C 0.29857 0.19838 0.77831 0.0
H550 H 0.28243 0.20966 0.74516 0.0
H551 H 0.26104 0.24904 0.80609 0.0
C552 C 0.23055 0.33825 0.73086 0.0
N553 N 0.24565 0.32348 0.74288 0.0
C554 C 0.23332 0.36303 0.73237 0.0
C555 C 0.26694 0.35714 0.75898 0.0
C556 C 0.26335 0.33238 0.75715 0.0
C557 C 0.25176 0.37279 0.74648 0.0
H558 H 0.21621 0.3308 0.72018 0.0
H559 H 0.27468 0.32027 0.76709 0.0
C560 C 0.21292 0.21127 0.73769 0.0
N561 N 0.18303 0.17264 0.74628 0.0
C562 C 0.19286 0.20732 0.7232 0.0
C563 C 0.21779 0.19553 0.75654 0.0
C564 C 0.17795 0.18771 0.72785 0.0
C565 C 0.20247 0.17611 0.76059 0.0
C566 C 0.20662 0.28534 0.69381 0.0
C567 C 0.18633 0.27342 0.68511 0.0
C568 C 0.21988 0.30003 0.67846 0.0
C569 C 0.17972 0.27632 0.66114 0.0
C570 C 0.21272 0.30241 0.65459 0.0
N571 N 0.19296 0.2906 0.6465 0.0
C572 C 0.162 0.27425 0.74439 0.0
C573 C 0.16726 0.2378 0.76539 0.0
C574 C 0.13758 0.27405 0.74938 0.0
N575 N 0.17625 0.25606 0.75193 0.0
C576 C 0.14282 0.23671 0.77055 0.0
C577 C 0.12765 0.25494 0.76234 0.0
H578 H 0.16963 0.289 0.73441 0.0
H579 H 0.179 0.22412 0.77226 0.0
C580 C 0.26323 0.25662 0.66771 0.0
N581 N 0.24357 0.24777 0.679 0.0
C582 C 0.2663 0.25303 0.64316 0.0
C583 C 0.22943 0.23028 0.64247 0.0
C584 C 0.22711 0.2343 0.66704 0.0
C585 C 0.249 0.24011 0.63011 0.0
H586 H 0.27623 0.26699 0.67763 0.0
H587 H 0.21163 0.22749 0.67633 0.0
O588 O 0.23033 0.27351 0.76939 0.0
O589 O 0.26687 0.26816 0.72908 0.0
O590 O 0.22796 0.23016 0.73327 0.0
O591 O 0.21376 0.28225 0.71708 0.0
H592 H 0.20474 0.313 0.77392 0.0
H593 H 0.21692 0.24254 0.80271 0.0
H594 H 0.17295 0.31908 0.80432 0.0
H595 H 0.18505 0.24993 0.83271 0.0
H596 H 0.3119 0.33084 0.70273 0.0
H597 H 0.30083 0.2664 0.76223 0.0
H598 H 0.27659 0.304 0.69944 0.0
H599 H 0.33566 0.29397 0.76445 0.0
H600 H 0.28646 0.22436 0.83227 0.0
H601 H 0.3091 0.1846 0.76971 0.0
H602 H 0.22127 0.37444 0.72237 0.0
H603 H 0.28116 0.36399 0.77032 0.0
H604 H 0.18848 0.21954 0.70888 0.0
H605 H 0.23318 0.19829 0.76799 0.0
H606 H 0.16227 0.18456 0.71689 0.0
H607 H 0.20602 0.16382 0.77513 0.0
H608 H 0.17599 0.26176 0.69662 0.0
H609 H 0.23572 0.30927 0.68483 0.0
H610 H 0.16414 0.2671 0.65414 0.0
H611 H 0.22293 0.31358 0.64248 0.0
H612 H 0.12649 0.28847 0.74271 0.0
H613 H 0.13589 0.2219 0.78101 0.0
H614 H 0.28189 0.26057 0.63443 0.0
H615 H 0.21553 0.22043 0.63313 0.0
Li616 Li 0.99156 0.99006 0.9586 0.0
Li617 Li 0.00085 0.00361 0.99955 0.0
Li618 Li 0.9888 0.96062 0.99129 0.0
Li619 Li 0.95942 0.99304 0.99016 0.0
C620 C 0.03839 0.97536 0.96775 0.0
N621 N 0.08026 0.9689 0.94231 0.0
C622 C 0.05691 0.9922 0.96945 0.0
C623 C 0.04132 0.95507 0.95334 0.0
C624 C 0.0779 0.98865 0.9564 0.0
C625 C 0.06257 0.95218 0.94055 0.0
C626 C 0.98327 0.04292 0.97475 0.0
C627 C 0.9776 0.08265 0.99077 0.0
N628 N 0.99168 0.09172 0.97309 0.0
C629 C 0.99747 0.05265 0.95659 0.0
C630 C 0.97303 0.05804 0.99184 0.0
C631 C 0.00158 0.07736 0.95611 0.0
C632 C 0.9774 0.99038 0.91089 0.0
N633 N 0.99695 0.99385 0.92501 0.0
C634 C 0.02124 0.00146 0.89059 0.0
C635 C 0.01855 0.9997 0.91541 0.0
C636 C 0.0014 0.99757 0.87558 0.0
C637 C 0.97922 0.99213 0.88604 0.0
H638 H 0.96035 0.98609 0.91898 0.0
H639 H 0.03368 0.00322 0.92691 0.0
C640 C 0.02253 0.01839 0.04268 0.0
N641 N 0.02081 0.02373 0.01898 0.0
C642 C 0.03674 0.03241 0.05785 0.0
C643 C 0.04753 0.05698 0.02392 0.0
C644 C 0.03313 0.04246 0.00941 0.0
C645 C 0.04945 0.05207 0.04854 0.0
H646 H 0.01299 0.00311 0.0498 0.0
H647 H 0.03207 0.04602 0.99045 0.0
C648 C 0.95802 0.94666 0.95539 0.0
N649 N 0.94434 0.90392 0.93425 0.0
C650 C 0.93571 0.93653 0.96058 0.0
C651 C 0.97319 0.93525 0.93915 0.0
C652 C 0.92918 0.91485 0.9498 0.0
C653 C 0.96601 0.91361 0.92872 0.0
C654 C 0.96494 0.98528 0.03769 0.0
C655 C 0.95553 0.96548 0.04981 0.0
C656 C 0.96001 0.00839 0.04593 0.0
C657 C 0.94095 0.96917 0.06977 0.0
C658 C 0.94536 0.01134 0.06596 0.0
N659 N 0.93618 0.99183 0.07735 0.0
C660 C 0.0145 0.91735 0.99903 0.0
C661 C 0.97256 0.91487 0.00465 0.0
C662 C 0.0168 0.89277 0.00311 0.0
N663 N 0.99256 0.92774 0.99938 0.0
C664 C 0.97401 0.89028 0.00884 0.0
C665 C 0.99632 0.87883 0.00777 0.0
H666 H 0.0302 0.92808 0.99534 0.0
H667 H 0.95538 0.92367 0.00518 0.0
C668 C 0.91666 0.02001 0.98617 0.0
N669 N 0.92653 0.99971 0.99521 0.0
C670 C 0.89202 0.02384 0.98798 0.0
C671 C 0.88835 0.98601 0.00874 0.0
C672 C 0.91297 0.98288 0.00643 0.0
C673 C 0.87747 0.00653 0.9991 0.0
H674 H 0.9278 0.03288 0.97692 0.0
H675 H 0.92119 0.96668 0.01301 0.0
O676 O 0.0177 0.97858 0.98042 0.0
O677 O 0.979 0.01877 0.97545 0.0
O678 O 0.96486 0.96773 0.96602 0.0
O679 O 0.97904 0.98205 0.01795 0.0
H680 H 0.05509 0.00787 0.98066 0.0
H681 H 0.02742 0.94162 0.95213 0.0
H682 H 0.09232 0.00161 0.95747 0.0
H683 H 0.06502 0.93661 0.92926 0.0
H684 H 0.96988 0.09454 0.00394 0.0
H685 H 0.0054 0.04125 0.94313 0.0
H686 H 0.96161 0.05089 0.00572 0.0
H687 H 0.01267 0.08512 0.94225 0.0
H688 H 0.03856 0.00613 0.88324 0.0
H689 H 0.9635 0.98885 0.87511 0.0
H690 H 0.03804 0.02763 0.07661 0.0
H691 H 0.05689 0.072 0.01595 0.0
H692 H 0.92364 0.9452 0.97292 0.0
H693 H 0.99025 0.94309 0.93452 0.0
H694 H 0.91204 0.90672 0.9538 0.0
H695 H 0.97763 0.90456 0.91619 0.0
H696 H 0.95936 0.94747 0.04382 0.0
H697 H 0.96747 0.02385 0.03699 0.0
H698 H 0.93342 0.95402 0.07924 0.0
H699 H 0.94131 0.02913 0.07246 0.0
H700 H 0.0344 0.88476 0.00257 0.0
H701 H 0.95773 0.88025 0.0122 0.0
H702 H 0.88438 0.03975 0.98 0.0
H703 H 0.87792 0.97233 0.01772 0.0
Li704 Li 0.74903 0.25254 0.75346 0.0
Li705 Li 0.75687 0.21259 0.74043 0.0
Li706 Li 0.78926 0.2413 0.74423 0.0
Li707 Li 0.76012 0.2441 0.71005 0.0
C708 C 0.76212 0.23107 0.79316 0.0
N709 N 0.7474 0.23779 0.83994 0.0
C710 C 0.74716 0.21424 0.80417 0.0
C711 C 0.76966 0.25126 0.80601 0.0
C712 C 0.73992 0.21796 0.82783 0.0
C713 C 0.76198 0.25437 0.82961 0.0
C714 C 0.71097 0.22062 0.72627 0.0
C715 C 0.67949 0.20331 0.70212 0.0
N716 N 0.67008 0.19292 0.72203 0.0
C717 C 0.70097 0.20978 0.74649 0.0
C718 C 0.70017 0.21737 0.70388 0.0
C719 C 0.68031 0.19582 0.74398 0.0
C720 C 0.73241 0.2971 0.77097 0.0
N721 N 0.72929 0.27299 0.7727 0.0
C722 C 0.69838 0.27834 0.80176 0.0
C723 C 0.71248 0.26348 0.78752 0.0
C724 C 0.70125 0.30334 0.8005 0.0
C725 C 0.71854 0.31267 0.78475 0.0
H726 H 0.74557 0.30429 0.75875 0.0
H727 H 0.71013 0.24434 0.78856 0.0
C728 C 0.76223 0.16697 0.76096 0.0
N729 N 0.7504 0.17886 0.74333 0.0
C730 C 0.76053 0.14207 0.76272 0.0
C731 C 0.73436 0.142 0.72822 0.0
C732 C 0.73682 0.16687 0.72694 0.0
C733 C 0.7465 0.12928 0.74615 0.0
H734 H 0.77362 0.17679 0.77324 0.0
H735 H 0.72859 0.17643 0.71231 0.0
C736 C 0.79062 0.28578 0.73116 0.0
N737 N 0.83006 0.31574 0.7295 0.0
C738 C 0.80281 0.28926 0.70961 0.0
C739 C 0.79837 0.29768 0.75184 0.0
C740 C 0.82273 0.30446 0.70914 0.0
C741 C 0.81838 0.31271 0.75064 0.0
C742 C 0.79017 0.19673 0.71055 0.0
C743 C 0.80714 0.18431 0.72406 0.0
C744 C 0.77967 0.18577 0.69059 0.0
C745 C 0.8132 0.16096 0.71745 0.0
C746 C 0.78623 0.1624 0.68456 0.0
N747 N 0.80269 0.15057 0.69801 0.0
C748 C 0.8313 0.24829 0.77308 0.0
C749 C 0.83736 0.24293 0.7314 0.0
C750 C 0.85597 0.25006 0.77691 0.0
N751 N 0.82257 0.24479 0.75059 0.0
C752 C 0.86209 0.24439 0.73441 0.0
C753 C 0.87169 0.24789 0.75742 0.0
H754 H 0.8192 0.24942 0.78807 0.0
H755 H 0.82988 0.24014 0.71371 0.0
C756 C 0.73732 0.26405 0.66895 0.0
N757 N 0.75678 0.2521 0.67725 0.0
C758 C 0.73516 0.2692 0.64452 0.0
C759 C 0.77334 0.25009 0.63791 0.0
C760 C 0.7747 0.24527 0.66236 0.0
C761 C 0.75332 0.26211 0.62864 0.0
H762 H 0.72342 0.26942 0.68128 0.0
H763 H 0.79005 0.23593 0.66952 0.0
O764 O 0.76933 0.22779 0.76996 0.0
O765 O 0.73121 0.23433 0.7283 0.0
O766 O 0.77155 0.27036 0.73214 0.0
O767 O 0.78345 0.21931 0.71718 0.0
H768 H 0.74093 0.19861 0.79451 0.0
H769 H 0.78098 0.26461 0.79773 0.0
H770 H 0.72827 0.20514 0.83652 0.0
H771 H 0.76755 0.27001 0.83967 0.0
H772 H 0.67096 0.20062 0.6849 0.0
H773 H 0.70939 0.21161 0.76382 0.0
H774 H 0.70774 0.2255 0.68802 0.0
H775 H 0.67249 0.18719 0.75946 0.0
H776 H 0.68557 0.27024 0.81385 0.0
H777 H 0.72112 0.33181 0.78281 0.0
H778 H 0.77023 0.13289 0.77677 0.0
H779 H 0.72381 0.13272 0.71477 0.0
H780 H 0.79711 0.28015 0.69346 0.0
H781 H 0.78916 0.29517 0.76868 0.0
H782 H 0.83242 0.30721 0.69261 0.0
H783 H 0.82466 0.32191 0.76654 0.0
H784 H 0.81529 0.19251 0.73967 0.0
H785 H 0.76631 0.19508 0.6801 0.0
H786 H 0.82618 0.15106 0.72783 0.0
H787 H 0.77813 0.15361 0.66926 0.0
H788 H 0.86269 0.25254 0.79496 0.0
H789 H 0.87358 0.2429 0.71888 0.0
H790 H 0.71954 0.27869 0.63815 0.0
H791 H 0.7876 0.24401 0.62631 0.0
Li792 Li 0.01214 0.53938 0.99386 0.0
Li793 Li 0.0404 0.5059 0.9924 0.0
Li794 Li 0.00799 0.50933 0.96127 0.0
Li795 Li 0.99951 0.49666 0.0024 0.0
C796 C 0.04246 0.54989 0.95413 0.0
N797 N 0.05722 0.58747 0.92539 0.0
C798 C 0.06592 0.55856 0.95567 0.0
C799 C 0.02666 0.5601 0.93764 0.0
C800 C 0.073 0.57765 0.9411 0.0
C801 C 0.03442 0.57912 0.92335 0.0
C802 C 0.03865 0.51719 0.03846 0.0
C803 C 0.06428 0.49491 0.06508 0.0
N804 N 0.07312 0.51586 0.07397 0.0
C805 C 0.04783 0.5385 0.04801 0.0
C806 C 0.04677 0.49521 0.04719 0.0
C807 C 0.0653 0.53745 0.0659 0.0
C808 C 0.98815 0.58286 0.00628 0.0
N809 N 0.00962 0.57253 0.00156 0.0
C810 C 0.02955 0.61032 0.00509 0.0
C811 C 0.03017 0.58561 0.00149 0.0
C812 C 0.00753 0.62173 0.00894 0.0
C813 C 0.98666 0.6076 0.00994 0.0
H814 H 0.97211 0.57197 0.0067 0.0
H815 H 0.0471 0.57682 0.99852 0.0
C816 C 0.08204 0.47671 0.9911 0.0
N817 N 0.07332 0.49868 0.99684 0.0
C818 C 0.10662 0.4723 0.9925 0.0
C819 C 0.11255 0.51303 0.00617 0.0
C820 C 0.08794 0.51664 0.00448 0.0
C821 C 0.12225 0.49075 0.99973 0.0
H822 H 0.07001 0.46283 0.98482 0.0
H823 H 0.08053 0.53398 0.00876 0.0
C824 C 0.96241 0.52959 0.97204 0.0
N825 N 0.92136 0.54528 0.94931 0.0
C826 C 0.94153 0.51573 0.97267 0.0
C827 C 0.96225 0.55163 0.96017 0.0
C828 C 0.921 0.52391 0.96099 0.0
C829 C 0.94138 0.5592 0.9487 0.0
C830 C 0.01273 0.45707 0.97863 0.0
C831 C 0.99734 0.44827 0.96089 0.0
C832 C 0.02047 0.44188 0.99693 0.0
C833 C 0.98964 0.42444 0.96197 0.0
C834 C 0.01233 0.41818 0.99742 0.0
N835 N 0.9972 0.41003 0.98008 0.0
C836 C 0.02193 0.50412 0.914 0.0
C837 C 0.97975 0.50495 0.91789 0.0
C838 C 0.02003 0.50307 0.8891 0.0
N839 N 0.00199 0.50548 0.92781 0.0
C840 C 0.977 0.504 0.89302 0.0
C841 C 0.99733 0.50339 0.87824 0.0
H842 H 0.0394 0.5043 0.92238 0.0
H843 H 0.96412 0.50555 0.92914 0.0
C844 C 0.98249 0.47686 0.04584 0.0
N845 N 0.97946 0.47664 0.02167 0.0
C846 C 0.96859 0.46201 0.06041 0.0
C847 C 0.9484 0.44723 0.02501 0.0
C848 C 0.96273 0.46232 0.01113 0.0
C849 C 0.95128 0.44689 0.05001 0.0
H850 H 0.99568 0.48861 0.05384 0.0
H851 H 0.96061 0.46246 0.99189 0.0
O852 O 0.03525 0.5312 0.96833 0.0
O853 O 0.02177 0.51786 0.02069 0.0
O854 O 0.98269 0.52177 0.98336 0.0
O855 O 0.02029 0.48039 0.97798 0.0
H856 H 0.07854 0.55074 0.96804 0.0
H857 H 0.00871 0.55322 0.9356 0.0
H858 H 0.09105 0.58462 0.94226 0.0
H859 H 0.02233 0.58718 0.91055 0.0
H860 H 0.07085 0.47802 0.07187 0.0
H861 H 0.04158 0.55566 0.04163 0.0
H862 H 0.03975 0.47857 0.04009 0.0
H863 H 0.07265 0.5538 0.07337 0.0
H864 H 0.04615 0.62039 0.0048 0.0
H865 H 0.9693 0.61564 0.01282 0.0
H866 H 0.11336 0.45494 0.98714 0.0
H867 H 0.12388 0.52765 0.01216 0.0
H868 H 0.94114 0.4988 0.98201 0.0
H869 H 0.97796 0.56295 0.96001 0.0
H870 H 0.90478 0.51328 0.96123 0.0
H871 H 0.94107 0.5762 0.9394 0.0
H872 H 0.99123 0.45977 0.94656 0.0
H873 H 0.03253 0.44835 0.01068 0.0
H874 H 0.97761 0.41743 0.94845 0.0
H875 H 0.01804 0.40627 0.01157 0.0
H876 H 0.03619 0.50209 0.87849 0.0
H877 H 0.95914 0.50437 0.88546 0.0
H878 H 0.97116 0.4626 0.07964 0.0
H879 H 0.93545 0.4357 0.01621 0.0
Li880 Li 0.75108 0.74691 0.25312 0.0
Li881 Li 0.74233 0.78907 0.24163 0.0
Li882 Li 0.7113 0.76002 0.24435 0.0
Li883 Li 0.73824 0.75772 0.21135 0.0
C884 C 0.71727 0.76811 0.28964 0.0
N885 N 0.68525 0.7612 0.32667 0.0
C886 C 0.70461 0.78751 0.29901 0.0
C887 C 0.71372 0.74521 0.29916 0.0
C888 C 0.68846 0.78364 0.3177 0.0
C889 C 0.69746 0.74209 0.31788 0.0
C890 C 0.79041 0.77307 0.23721 0.0
C891 C 0.83302 0.77657 0.23142 0.0
N892 N 0.83556 0.78355 0.25465 0.0
C893 C 0.79343 0.78029 0.26103 0.0
C894 C 0.81034 0.77117 0.22227 0.0
C895 C 0.81641 0.7855 0.2695 0.0
C896 C 0.78216 0.70786 0.26074 0.0
N897 N 0.77133 0.72675 0.27152 0.0
C898 C 0.79025 0.71758 0.30879 0.0
C899 C 0.77515 0.7319 0.29502 0.0
C900 C 0.80179 0.69789 0.29822 0.0
C901 C 0.79756 0.69312 0.27381 0.0
H902 H 0.77895 0.70437 0.24193 0.0
H903 H 0.76649 0.74721 0.30308 0.0
C904 C 0.73045 0.83598 0.2526 0.0
N905 N 0.74931 0.82238 0.24567 0.0
C906 C 0.73271 0.86083 0.25427 0.0
C907 C 0.77382 0.85737 0.24147 0.0
C908 C 0.7707 0.83256 0.2399 0.0
C909 C 0.75462 0.8719 0.24862 0.0
H910 H 0.71337 0.82753 0.25608 0.0
H911 H 0.78522 0.82162 0.23348 0.0
C912 C 0.71194 0.71253 0.23004 0.0
N913 N 0.67966 0.67511 0.22633 0.0
C914 C 0.69366 0.71332 0.21296 0.0
C915 C 0.71395 0.69266 0.24512 0.0
C916 C 0.67746 0.69424 0.21141 0.0
C917 C 0.69742 0.67393 0.24298 0.0
C918 C 0.71728 0.80085 0.20112 0.0
C919 C 0.69662 0.81212 0.19271 0.0
C920 C 0.73949 0.80691 0.19128 0.0
C921 C 0.69853 0.82932 0.17463 0.0
C922 C 0.74065 0.8242 0.17324 0.0
N923 N 0.72032 0.83496 0.16536 0.0
C924 C 0.66479 0.77696 0.24865 0.0
C925 C 0.66811 0.73688 0.26214 0.0
C926 C 0.64027 0.77686 0.25325 0.0
N927 N 0.67811 0.75705 0.25274 0.0
C928 C 0.64358 0.73589 0.26678 0.0
C929 C 0.62931 0.75601 0.26211 0.0
H930 H 0.67324 0.79294 0.24168 0.0
H931 H 0.67908 0.72152 0.26609 0.0
C932 C 0.76215 0.74377 0.16838 0.0
N933 N 0.74098 0.75059 0.17818 0.0
C934 C 0.764 0.74033 0.14361 0.0
C935 C 0.7222 0.75067 0.13973 0.0
C936 C 0.72113 0.75375 0.16447 0.0
C937 C 0.7439 0.74416 0.12894 0.0
H938 H 0.77765 0.74144 0.17974 0.0
H939 H 0.70453 0.75917 0.17273 0.0
O940 O 0.73275 0.77139 0.27096 0.0
O941 O 0.76815 0.76748 0.22856 0.0
O942 O 0.72798 0.73097 0.23191 0.0
O943 O 0.71555 0.78397 0.21885 0.0
H944 H 0.70715 0.80535 0.29192 0.0
H945 H 0.72308 0.72993 0.29186 0.0
H946 H 0.67847 0.79847 0.32507 0.0
H947 H 0.69442 0.72445 0.32531 0.0
H948 H 0.84861 0.77518 0.22005 0.0
H949 H 0.77823 0.782 0.27284 0.0
H950 H 0.80831 0.76558 0.20381 0.0
H951 H 0.819 0.79112 0.28788 0.0
H952 H 0.79265 0.72181 0.32758 0.0
H953 H 0.80632 0.67839 0.26478 0.0
H954 H 0.71721 0.8713 0.25922 0.0
H955 H 0.79104 0.86507 0.23697 0.0
H956 H 0.6918 0.72863 0.20127 0.0
H957 H 0.72806 0.6918 0.25841 0.0
H958 H 0.66311 0.69467 0.19839 0.0
H959 H 0.69868 0.65847 0.25458 0.0
H960 H 0.67927 0.80759 0.20002 0.0
H961 H 0.7557 0.7984 0.1974 0.0
H962 H 0.68268 0.83817 0.16796 0.0
H963 H 0.75772 0.82906 0.1655 0.0
H964 H 0.62989 0.79274 0.24933 0.0
H965 H 0.63587 0.71961 0.27402 0.0
H966 H 0.78109 0.73544 0.13597 0.0
H967 H 0.7062 0.75346 0.12912 0.0
Li968 Li 0.0081 0.48991 0.53886 0.0
Li969 Li 0.01039 0.46147 0.50704 0.0
Li970 Li 0.04046 0.49266 0.51049 0.0
Li971 Li 0.99872 0.50196 0.49614 0.0
C972 C 0.03818 0.45908 0.5558 0.0
N973 N 0.0458 0.44516 0.60269 0.0
C974 C 0.02754 0.43815 0.56457 0.0
C975 C 0.05279 0.47286 0.57085 0.0
C976 C 0.03162 0.43141 0.58833 0.0
C977 C 0.05637 0.46556 0.59451 0.0
C978 C 0.96248 0.46416 0.51386 0.0
C979 C 0.92671 0.45323 0.49211 0.0
N980 N 0.92401 0.43373 0.50646 0.0
C981 C 0.95931 0.44404 0.52843 0.0
C982 C 0.94603 0.46883 0.49555 0.0
C983 C 0.93977 0.42886 0.52438 0.0
C984 C 0.00711 0.51579 0.58269 0.0
N985 N 0.99983 0.49524 0.57174 0.0
C986 C 0.98474 0.47996 0.60877 0.0
C987 C 0.9883 0.47773 0.58414 0.0
C988 C 0.99287 0.50059 0.62079 0.0
C989 C 0.00379 0.51887 0.60731 0.0
H990 H 0.01594 0.5296 0.57244 0.0
H991 H 0.9827 0.46156 0.57512 0.0
C992 C 0.02613 0.41411 0.50517 0.0
N993 N 0.00754 0.42817 0.4983 0.0
C994 C 0.02591 0.3896 0.50024 0.0
C995 C 0.98779 0.39447 0.48042 0.0
C996 C 0.98891 0.41898 0.48545 0.0
C997 C 0.00637 0.37944 0.48807 0.0
H998 H 0.04115 0.42192 0.51462 0.0
H999 H 0.97491 0.43059 0.47904 0.0
C1000 C 0.03284 0.53893 0.51984 0.0
N1001 N 0.06222 0.57877 0.51686 0.0
C1002 C 0.02955 0.55563 0.5015 0.0
C1003 C 0.05099 0.54257 0.53675 0.0
C1004 C 0.0446 0.57565 0.5003 0.0
C1005 C 0.0657 0.56278 0.5349 0.0
C1006 C 0.02806 0.46543 0.46382 0.0
C1007 C 0.05019 0.45389 0.46322 0.0
C1008 C 0.01022 0.45896 0.44743 0.0
C1009 C 0.05408 0.43592 0.44623 0.0
C1010 C 0.01482 0.44091 0.43071 0.0
N1011 N 0.03646 0.42985 0.43048 0.0
C1012 C 0.08937 0.485 0.51767 0.0
C1013 C 0.08131 0.51735 0.49143 0.0
C1014 C 0.11393 0.4885 0.51507 0.0
N1015 N 0.07364 0.49948 0.50613 0.0
C1016 C 0.1058 0.5217 0.48854 0.0
C1017 C 0.12242 0.50708 0.50041 0.0
H1018 H 0.08286 0.4705 0.5287 0.0
H1019 H 0.06845 0.52814 0.48186 0.0
C1020 C 0.96239 0.53529 0.48604 0.0
N1021 N 0.97987 0.52172 0.47603 0.0
C1022 C 0.94805 0.54985 0.47166 0.0
C1023 C 0.97004 0.5362 0.43699 0.0
C1024 C 0.98408 0.52207 0.45207 0.0
C1025 C 0.95171 0.5503 0.44676 0.0
H1026 H 0.95953 0.53466 0.5052 0.0
H1027 H 0.99838 0.51142 0.44466 0.0
O1028 O 0.03401 0.46627 0.53273 0.0
O1029 O 0.9813 0.47945 0.51768 0.0
O1030 O 0.01834 0.51916 0.52125 0.0
O1031 O 0.02369 0.48257 0.48076 0.0
H1032 H 0.01592 0.42741 0.55332 0.0
H1033 H 0.06107 0.48916 0.56441 0.0
H1034 H 0.02339 0.41533 0.59539 0.0
H1035 H 0.0675 0.47615 0.6064 0.0
H1036 H 0.91387 0.45662 0.47799 0.0
H1037 H 0.97209 0.43982 0.54231 0.0
H1038 H 0.94817 0.48428 0.48408 0.0
H1039 H 0.93722 0.41312 0.53539 0.0
H1040 H 0.97651 0.46525 0.61839 0.0
H1041 H 0.00994 0.53528 0.6157 0.0
H1042 H 0.04062 0.37863 0.50643 0.0
H1043 H 0.97265 0.38735 0.47053 0.0
H1044 H 0.01561 0.55315 0.48827 0.0
H1045 H 0.0539 0.52978 0.55098 0.0
H1046 H 0.0423 0.58869 0.48616 0.0
H1047 H 0.07991 0.56573 0.54776 0.0
H1048 H 0.06411 0.45857 0.4759 0.0
H1049 H 0.99286 0.46747 0.44791 0.0
H1050 H 0.07107 0.42673 0.44563 0.0
H1051 H 0.00114 0.4356 0.41802 0.0
H1052 H 0.12617 0.47685 0.52456 0.0
H1053 H 0.11167 0.53598 0.47679 0.0
H1054 H 0.93399 0.56033 0.47987 0.0
H1055 H 0.97367 0.53632 0.41794 0.0
Li1056 Li 0.49058 0.5397 0.00595 0.0
Li1057 Li 0.46009 0.50622 0.00767 0.0
Li1058 Li 0.49105 0.51003 0.03731 0.0
Li1059 Li 0.50199 0.49719 0.99822 0.0
C1060 C 0.4606 0.54247 0.05186 0.0
N1061 N 0.45255 0.55946 0.09762 0.0
C1062 C 0.44282 0.5321 0.06608 0.0
C1063 C 0.47416 0.5616 0.0608 0.0
C1064 C 0.43907 0.5409 0.08921 0.0
C1065 C 0.46983 0.56991 0.084 0.0
C1066 C 0.47192 0.52106 0.95721 0.0
C1067 C 0.46691 0.50722 0.91652 0.0
N1068 N 0.45621 0.5283 0.91079 0.0
C1069 C 0.46102 0.54264 0.95086 0.0
C1070 C 0.47502 0.50324 0.93986 0.0
C1071 C 0.45313 0.54593 0.92733 0.0
C1072 C 0.51686 0.58118 0.99207 0.0
N1073 N 0.49495 0.57241 0.99805 0.0
C1074 C 0.47772 0.61139 0.99526 0.0
C1075 C 0.47555 0.5869 0.99974 0.0
C1076 C 0.50015 0.62109 0.98932 0.0
C1077 C 0.5199 0.60567 0.98768 0.0
H1078 H 0.53199 0.5692 0.99103 0.0
H1079 H 0.45842 0.57941 0.00484 0.0
C1080 C 0.41642 0.48485 0.01986 0.0
N1081 N 0.4272 0.49849 0.00281 0.0
C1082 C 0.39192 0.47999 0.01857 0.0
C1083 C 0.39017 0.50278 0.98183 0.0
C1084 C 0.41467 0.50727 0.9839 0.0
C1085 C 0.37838 0.48929 0.99952 0.0
H1086 H 0.42681 0.47821 0.0348 0.0
H1087 H 0.42352 0.51815 0.97064 0.0
C1088 C 0.53978 0.51226 0.02643 0.0
N1089 N 0.58233 0.49283 0.04235 0.0
C1090 C 0.5403 0.48891 0.03547 0.0
C1091 C 0.56089 0.52573 0.02553 0.0
C1092 C 0.56199 0.47941 0.04341 0.0
C1093 C 0.58222 0.51559 0.03366 0.0
C1094 C 0.47327 0.45841 0.01268 0.0
C1095 C 0.47526 0.43807 0.02711 0.0
C1096 C 0.46412 0.45625 0.98947 0.0
C1097 C 0.46821 0.41581 0.01796 0.0
C1098 C 0.45725 0.43369 0.98098 0.0
N1099 N 0.45944 0.4141 0.99527 0.0
C1100 C 0.48322 0.49012 0.0828 0.0
C1101 C 0.51282 0.5207 0.08219 0.0
C1102 C 0.48525 0.48814 0.10764 0.0
N1103 N 0.49672 0.50638 0.07072 0.0
C1104 C 0.51553 0.51923 0.10702 0.0
C1105 C 0.50143 0.50298 0.12009 0.0
H1106 H 0.47046 0.4791 0.07317 0.0
H1107 H 0.52309 0.53369 0.07212 0.0
C1108 C 0.53328 0.48876 0.95988 0.0
N1109 N 0.52286 0.47812 0.97914 0.0
C1110 C 0.54852 0.47571 0.945 0.0
C1111 C 0.54237 0.44112 0.97031 0.0
C1112 C 0.52739 0.45488 0.98478 0.0
C1113 C 0.55305 0.45149 0.95004 0.0
H1114 H 0.52956 0.50736 0.95599 0.0
H1115 H 0.51952 0.44698 0.00056 0.0
O1116 O 0.4651 0.5336 0.02948 0.0
O1117 O 0.48004 0.51764 0.98011 0.0
O1118 O 0.51881 0.52201 0.01844 0.0
O1119 O 0.48022 0.48026 0.02147 0.0
H1120 H 0.43224 0.51722 0.05945 0.0
H1121 H 0.48813 0.56969 0.05007 0.0
H1122 H 0.4255 0.53294 0.1005 0.0
H1123 H 0.4803 0.58459 0.09123 0.0
H1124 H 0.46916 0.49357 0.90294 0.0
H1125 H 0.45837 0.55658 0.964 0.0
H1126 H 0.48364 0.4865 0.94429 0.0
H1127 H 0.44454 0.5625 0.92223 0.0
H1128 H 0.46213 0.62271 0.9971 0.0
H1129 H 0.53747 0.61248 0.98308 0.0
H1130 H 0.38358 0.46976 0.03277 0.0
H1131 H 0.38054 0.51002 0.96664 0.0
H1132 H 0.52418 0.4782 0.0364 0.0
H1133 H 0.56078 0.54384 0.01861 0.0
H1134 H 0.56265 0.46136 0.05043 0.0
H1135 H 0.59869 0.52582 0.03306 0.0
H1136 H 0.48229 0.43947 0.04515 0.0
H1137 H 0.46216 0.47181 0.97822 0.0
H1138 H 0.46972 0.39989 0.02889 0.0
H1139 H 0.45014 0.43177 0.96303 0.0
H1140 H 0.47422 0.47522 0.11702 0.0
H1141 H 0.52799 0.53118 0.11595 0.0
H1142 H 0.55633 0.48435 0.9295 0.0
H1143 H 0.54577 0.42264 0.97509 0.0
Li1144 Li 0.75822 0.78939 0.75864 0.0
Li1145 Li 0.75733 0.75858 0.7898 0.0
Li1146 Li 0.78986 0.76028 0.75847 0.0
Li1147 Li 0.74922 0.74699 0.74768 0.0
C1148 C 0.78606 0.80603 0.79276 0.0
N1149 N 0.79249 0.85239 0.80904 0.0
C1150 C 0.77446 0.81376 0.81352 0.0
C1151 C 0.80111 0.82179 0.78041 0.0
C1152 C 0.77793 0.83728 0.82145 0.0
C1153 C 0.80405 0.84519 0.78887 0.0
C1154 C 0.70837 0.76228 0.77648 0.0
C1155 C 0.6801 0.73116 0.78664 0.0
N1156 N 0.66355 0.74815 0.79197 0.0
C1157 C 0.69103 0.77943 0.78186 0.0
C1158 C 0.70283 0.73795 0.77874 0.0
C1159 C 0.6685 0.77193 0.78974 0.0
C1160 C 0.76119 0.83399 0.73442 0.0
N1161 N 0.75107 0.82231 0.75322 0.0
C1162 C 0.73473 0.85891 0.76814 0.0
C1163 C 0.73767 0.83412 0.76971 0.0
C1164 C 0.74582 0.87161 0.74947 0.0
C1165 C 0.75886 0.85879 0.73224 0.0
H1166 H 0.77166 0.82418 0.72152 0.0
H1167 H 0.73013 0.82441 0.78467 0.0
C1168 C 0.77019 0.74103 0.83456 0.0
N1169 N 0.75201 0.75205 0.82278 0.0
C1170 C 0.76872 0.73698 0.85918 0.0
C1171 C 0.7297 0.75548 0.85908 0.0
C1172 C 0.73197 0.75926 0.83446 0.0
C1173 C 0.74835 0.74443 0.87185 0.0
H1174 H 0.78607 0.73582 0.82483 0.0
H1175 H 0.71797 0.76843 0.82485 0.0
C1176 C 0.78541 0.76922 0.71192 0.0
N1177 N 0.81729 0.76572 0.67431 0.0
C1178 C 0.78266 0.75115 0.69475 0.0
C1179 C 0.80428 0.78562 0.70986 0.0
C1180 C 0.79898 0.74967 0.67589 0.0
C1181 C 0.82024 0.7835 0.69075 0.0
C1182 C 0.77218 0.70813 0.77483 0.0
C1183 C 0.78914 0.6938 0.76337 0.0
C1184 C 0.75614 0.69766 0.79095 0.0
C1185 C 0.78939 0.66916 0.76778 0.0
C1186 C 0.75697 0.67296 0.79491 0.0
N1187 N 0.77342 0.65934 0.78331 0.0
C1188 C 0.83832 0.76732 0.76898 0.0
C1189 C 0.83195 0.74052 0.73661 0.0
C1190 C 0.86303 0.76497 0.76674 0.0
N1191 N 0.82334 0.75533 0.75393 0.0
C1192 C 0.8566 0.73764 0.73372 0.0
C1193 C 0.87251 0.74997 0.74893 0.0
H1194 H 0.83107 0.77875 0.78278 0.0
H1195 H 0.8197 0.731 0.72498 0.0
C1196 C 0.70967 0.73561 0.71857 0.0
N1197 N 0.73044 0.72661 0.72745 0.0
C1198 C 0.69492 0.72151 0.704 0.0
C1199 C 0.72339 0.68924 0.70759 0.0
C1200 C 0.73759 0.70398 0.72206 0.0
C1201 C 0.70165 0.69791 0.6984 0.0
H1202 H 0.70455 0.75378 0.72288 0.0
H1203 H 0.75435 0.69735 0.72888 0.0
O1204 O 0.78238 0.78326 0.78435 0.0
O1205 O 0.73054 0.7694 0.76882 0.0
O1206 O 0.76962 0.77091 0.73054 0.0
O1207 O 0.77188 0.73235 0.77086 0.0
H1208 H 0.76271 0.80183 0.82326 0.0
H1209 H 0.81016 0.8161 0.76427 0.0
H1210 H 0.76896 0.84356 0.83741 0.0
H1211 H 0.81546 0.85765 0.77937 0.0
H1212 H 0.67559 0.71238 0.78846 0.0
H1213 H 0.69492 0.79834 0.78002 0.0
H1214 H 0.7158 0.72446 0.77416 0.0
H1215 H 0.65495 0.78501 0.79407 0.0
H1216 H 0.72475 0.86815 0.78194 0.0
H1217 H 0.76744 0.8679 0.71742 0.0
H1218 H 0.78372 0.72878 0.86828 0.0
H1219 H 0.71358 0.76134 0.86803 0.0
H1220 H 0.76811 0.73839 0.69599 0.0
H1221 H 0.80682 0.79958 0.72309 0.0
H1222 H 0.79711 0.73573 0.66252 0.0
H1223 H 0.83504 0.79594 0.68905 0.0
H1224 H 0.80183 0.70155 0.75101 0.0
H1225 H 0.7433 0.70844 0.80053 0.0
H1226 H 0.8023 0.65786 0.75887 0.0
H1227 H 0.74461 0.66465 0.80728 0.0
H1228 H 0.87459 0.77505 0.77869 0.0
H1229 H 0.86311 0.72566 0.71993 0.0
H1230 H 0.67855 0.72911 0.69699 0.0
H1231 H 0.72925 0.67114 0.70391 0.0
Li1232 Li 0.7524 0.25387 0.24994 0.0
Li1233 Li 0.7104 0.24123 0.25781 0.0
Li1234 Li 0.73855 0.24481 0.28941 0.0
Li1235 Li 0.74222 0.21188 0.26237 0.0
C1236 C 0.73051 0.29029 0.28282 0.0
N1237 N 0.73747 0.32849 0.31365 0.0
C1238 C 0.71146 0.2991 0.29635 0.0
C1239 C 0.75309 0.30096 0.28492 0.0
C1240 C 0.71535 0.3184 0.31187 0.0
C1241 C 0.75625 0.32026 0.30059 0.0
C1242 C 0.72734 0.23801 0.2101 0.0
C1243 C 0.72631 0.23389 0.16708 0.0
N1244 N 0.71732 0.25642 0.16526 0.0
C1245 C 0.71808 0.26114 0.20778 0.0
C1246 C 0.73151 0.22427 0.18959 0.0
C1247 C 0.71313 0.27012 0.18497 0.0
C1248 C 0.79364 0.26295 0.22232 0.0
N1249 N 0.77271 0.27256 0.22998 0.0
C1250 C 0.78051 0.30873 0.20845 0.0
C1251 C 0.7659 0.29495 0.22335 0.0
C1252 C 0.80235 0.29937 0.20033 0.0
C1253 C 0.80887 0.27614 0.20747 0.0
H1254 H 0.79847 0.245 0.22776 0.0
H1255 H 0.74911 0.30213 0.22968 0.0
C1256 C 0.66318 0.2522 0.26838 0.0
N1257 N 0.6772 0.24432 0.25017 0.0
C1258 C 0.63839 0.25306 0.26569 0.0
C1259 C 0.64277 0.23749 0.22553 0.0
C1260 C 0.66752 0.23687 0.22903 0.0
C1261 C 0.62784 0.24546 0.2441 0.0
H1262 H 0.67126 0.25712 0.28529 0.0
H1263 H 0.67882 0.22964 0.21515 0.0
C1264 C 0.78604 0.23394 0.29032 0.0
N1265 N 0.82196 0.23566 0.32435 0.0
C1266 C 0.78625 0.21748 0.30916 0.0
C1267 C 0.80421 0.25114 0.28864 0.0
C1268 C 0.80452 0.2187 0.32624 0.0
C1269 C 0.8222 0.25174 0.30605 0.0
C1270 C 0.69924 0.20006 0.28225 0.0
C1271 C 0.68827 0.19052 0.30262 0.0
C1272 C 0.69378 0.19046 0.25971 0.0
C1273 C 0.6719 0.17169 0.3001 0.0
C1274 C 0.67732 0.17165 0.25794 0.0
N1275 N 0.66679 0.16273 0.278 0.0
C1276 C 0.72119 0.24628 0.33599 0.0
C1277 C 0.75902 0.26527 0.33304 0.0
C1278 C 0.72074 0.25016 0.36066 0.0
N1279 N 0.74037 0.25328 0.32279 0.0
C1280 C 0.75935 0.26952 0.35773 0.0
C1281 C 0.74019 0.26153 0.37194 0.0
H1282 H 0.70621 0.23757 0.32734 0.0
H1283 H 0.77379 0.27136 0.32221 0.0
C1284 C 0.75373 0.16866 0.23776 0.0
N1285 N 0.74967 0.17883 0.2595 0.0
C1286 C 0.7566 0.14386 0.23579 0.0
C1287 C 0.75172 0.14068 0.2787 0.0
C1288 C 0.74883 0.16546 0.2798 0.0
C1289 C 0.75525 0.12947 0.25643 0.0
H1290 H 0.75407 0.17973 0.2219 0.0
H1291 H 0.74521 0.17398 0.2968 0.0
O1292 O 0.72722 0.27109 0.26787 0.0
O1293 O 0.73269 0.22891 0.23223 0.0
O1294 O 0.76839 0.23301 0.27337 0.0
O1295 O 0.71546 0.21844 0.28458 0.0
H1296 H 0.69387 0.29112 0.29498 0.0
H1297 H 0.76815 0.29415 0.27493 0.0
H1298 H 0.70078 0.32534 0.32251 0.0
H1299 H 0.77366 0.32859 0.30249 0.0
H1300 H 0.72945 0.22344 0.15106 0.0
H1301 H 0.71459 0.27203 0.2234 0.0
H1302 H 0.7387 0.20636 0.19101 0.0
H1303 H 0.70595 0.28797 0.18293 0.0
H1304 H 0.77491 0.32664 0.20361 0.0
H1305 H 0.82539 0.26813 0.20139 0.0
H1306 H 0.62758 0.2594 0.28046 0.0
H1307 H 0.63535 0.23098 0.20879 0.0
H1308 H 0.77228 0.20413 0.31077 0.0
H1309 H 0.80435 0.26399 0.27414 0.0
H1310 H 0.8048 0.20619 0.34103 0.0
H1311 H 0.83632 0.26501 0.30504 0.0
H1312 H 0.69241 0.19748 0.32025 0.0
H1313 H 0.70217 0.19733 0.24371 0.0
H1314 H 0.66328 0.16417 0.31573 0.0
H1315 H 0.67293 0.16411 0.24061 0.0
H1316 H 0.70531 0.24425 0.37081 0.0
H1317 H 0.77472 0.27838 0.36565 0.0
H1318 H 0.759 0.13599 0.21823 0.0
H1319 H 0.75089 0.1304 0.29512 0.0
Li1320 Li 0.49982 0.50235 0.50238 0.0
Li1321 Li 0.49126 0.48927 0.46056 0.0
Li1322 Li 0.46027 0.49249 0.48919 0.0
Li1323 Li 0.4876 0.46006 0.49286 0.0
C1324 C 0.46638 0.53816 0.48053 0.0
N1325 N 0.43583 0.57639 0.48731 0.0
C1326 C 0.45277 0.54688 0.46143 0.0
C1327 C 0.46449 0.54894 0.50307 0.0
C1328 C 0.4374 0.56619 0.46523 0.0
C1329 C 0.44897 0.56825 0.50613 0.0
C1330 C 0.53933 0.4865 0.47684 0.0
C1331 C 0.58216 0.48202 0.47446 0.0
N1332 N 0.58402 0.50474 0.46584 0.0
C1333 C 0.54167 0.50981 0.46793 0.0
C1334 C 0.55973 0.47248 0.48013 0.0
C1335 C 0.56441 0.5187 0.46249 0.0
C1336 C 0.52856 0.512 0.54288 0.0
N1337 N 0.51994 0.52152 0.52222 0.0
C1338 C 0.54088 0.55824 0.52951 0.0
C1339 C 0.5258 0.54414 0.51531 0.0
C1340 C 0.55011 0.54894 0.55101 0.0
C1341 C 0.54372 0.52547 0.55764 0.0
H1342 H 0.52371 0.49387 0.5478 0.0
H1343 H 0.51874 0.55125 0.49874 0.0
C1344 C 0.47928 0.50007 0.41368 0.0
N1345 N 0.49808 0.49271 0.42721 0.0
C1346 C 0.48145 0.50196 0.38887 0.0
C1347 C 0.52225 0.4882 0.39218 0.0
C1348 C 0.51926 0.48652 0.41698 0.0
C1349 C 0.50316 0.496 0.37776 0.0
H1350 H 0.46235 0.50384 0.42216 0.0
H1351 H 0.53371 0.4798 0.42789 0.0
C1352 C 0.4599 0.48118 0.53643 0.0
N1353 N 0.42556 0.48091 0.57193 0.0
C1354 C 0.44151 0.46414 0.53598 0.0
C1355 C 0.46099 0.49794 0.55503 0.0
C1356 C 0.42426 0.46436 0.55406 0.0
C1357 C 0.44342 0.49753 0.5728 0.0
C1358 C 0.46735 0.44757 0.4501 0.0
C1359 C 0.44704 0.43746 0.4394 0.0
C1360 C 0.48997 0.43855 0.44442 0.0
C1361 C 0.44969 0.41863 0.42311 0.0
C1362 C 0.49186 0.41971 0.42804 0.0
N1363 N 0.47186 0.41023 0.4178 0.0
C1364 C 0.41336 0.49288 0.47277 0.0
C1365 C 0.4171 0.51305 0.50995 0.0
C1366 C 0.38874 0.49675 0.47254 0.0
N1367 N 0.42695 0.50055 0.49149 0.0
C1368 C 0.3925 0.51746 0.51041 0.0
C1369 C 0.37796 0.50892 0.49168 0.0
H1370 H 0.42167 0.48369 0.45795 0.0
H1371 H 0.42823 0.51953 0.52441 0.0
C1372 C 0.51275 0.41849 0.50799 0.0
N1373 N 0.49113 0.42727 0.50124 0.0
C1374 C 0.51543 0.39403 0.51265 0.0
C1375 C 0.47345 0.38831 0.5037 0.0
C1376 C 0.47161 0.41281 0.49923 0.0
C1377 C 0.49562 0.37855 0.51035 0.0
H1378 H 0.52796 0.43044 0.50948 0.0
H1379 H 0.45467 0.42025 0.49363 0.0
O1380 O 0.48126 0.51902 0.47729 0.0
O1381 O 0.51729 0.47747 0.48263 0.0
O1382 O 0.47695 0.4813 0.51893 0.0
O1383 O 0.46489 0.466 0.46618 0.0
H1384 H 0.454 0.53883 0.44386 0.0
H1385 H 0.47453 0.54218 0.51818 0.0
H1386 H 0.4267 0.57306 0.45062 0.0
H1387 H 0.44723 0.57665 0.52351 0.0
H1388 H 0.5981 0.47137 0.47693 0.0
H1389 H 0.52611 0.52088 0.46507 0.0
H1390 H 0.55825 0.45442 0.487 0.0
H1391 H 0.56647 0.53669 0.45558 0.0
H1392 H 0.54505 0.57632 0.52382 0.0
H1393 H 0.55065 0.51745 0.57388 0.0
H1394 H 0.46604 0.5074 0.37845 0.0
H1395 H 0.5393 0.48339 0.3844 0.0
H1396 H 0.4404 0.45111 0.52166 0.0
H1397 H 0.47517 0.5112 0.55564 0.0
H1398 H 0.40981 0.4514 0.55385 0.0
H1399 H 0.44396 0.51046 0.58726 0.0
H1400 H 0.42936 0.44399 0.4437 0.0
H1401 H 0.50594 0.44588 0.45254 0.0
H1402 H 0.4341 0.41067 0.41472 0.0
H1403 H 0.50926 0.41262 0.42348 0.0
H1404 H 0.37826 0.49035 0.45748 0.0
H1405 H 0.38489 0.52693 0.5255 0.0
H1406 H 0.53279 0.38732 0.51797 0.0
H1407 H 0.4578 0.37704 0.5013 0.0
H1408 H 0.1794 0.21 0.15737 0.0
H1409 H 0.15366 0.18519 0.13186 0.0
H1410 H 0.15701 0.12802 0.18366 0.0
H1411 H 0.18276 0.15272 0.20929 0.0
H1412 H 0.16438 0.11242 0.13735 0.0
H1413 H 0.08322 0.16908 0.14259 0.0
H1414 H 0.10948 0.18492 0.13286 0.0
H1415 H 0.10831 0.17279 0.16268 0.0
C1416 C 0.17445 0.19224 0.16346 0.0
C1417 C 0.18304 0.18337 0.18541 0.0
C1418 C 0.15972 0.1781 0.14887 0.0
C1419 C 0.15312 0.1549 0.15605 0.0
C1420 C 0.16184 0.1459 0.17783 0.0
H1421 H 0.04002 0.06717 0.09428 0.0
H1422 H 0.0656 0.09137 0.1205 0.0
C1423 C 0.17663 0.16 0.19239 0.0
C1424 C 0.13755 0.1398 0.14062 0.0
H1425 H 0.0825 0.1374 0.11406 0.0
C1426 C 0.14645 0.11783 0.13231 0.0
C1427 C 0.11406 0.14677 0.13433 0.0
C1428 C 0.10306 0.16956 0.14374 0.0
C1429 C 0.13261 0.10278 0.11756 0.0
C1430 C 0.10942 0.11013 0.1106 0.0
C1431 C 0.10038 0.13193 0.11923 0.0
C1432 C 0.09411 0.09533 0.09464 0.0
C1433 C 0.1428 0.07897 0.10991 0.0
C1434 C 0.10155 0.08974 0.0713 0.0
C1435 C 0.08709 0.07572 0.05634 0.0
C1436 C 0.06478 0.06717 0.06436 0.0
C1437 C 0.05725 0.07311 0.08766 0.0
C1438 C 0.07176 0.08709 0.10262 0.0
H1439 H 0.15772 0.07328 0.12177 0.0
H1440 H 0.12882 0.06478 0.10995 0.0
H1441 H 0.14992 0.08057 0.09143 0.0
H1442 H 0.11854 0.09629 0.06462 0.0
H1443 H 0.09353 0.07135 0.03859 0.0
H1444 H 0.07511 0.96389 0.40586 0.0
H1445 H 0.09982 0.93879 0.37981 0.0
H1446 H 0.07951 0.87631 0.42047 0.0
H1447 H 0.05444 0.90118 0.44633 0.0
H1448 H 0.13872 0.9084 0.39481 0.0
H1449 H 0.06569 0.85761 0.34968 0.0
H1450 H 0.0606 0.88548 0.36531 0.0
H1451 H 0.06432 0.85816 0.38185 0.0
C1452 C 0.07568 0.94477 0.40907 0.0
C1453 C 0.06276 0.9345 0.42811 0.0
C1454 C 0.08989 0.93049 0.39427 0.0
C1455 C 0.09124 0.90569 0.39807 0.0
C1456 C 0.07842 0.89538 0.41705 0.0
H1457 H 0.16627 0.78776 0.33165 0.0
H1458 H 0.14099 0.8136 0.3562 0.0
C1459 C 0.0643 0.90964 0.43193 0.0
C1460 C 0.10664 0.89069 0.38264 0.0
H1461 H 0.10531 0.8445 0.34251 0.0
C1462 C 0.13146 0.8945 0.38326 0.0
C1463 C 0.09705 0.87255 0.36771 0.0
C1464 C 0.07044 0.86824 0.36586 0.0
C1465 C 0.14705 0.88027 0.36968 0.0
C1466 C 0.13747 0.86213 0.35469 0.0
C1467 C 0.11261 0.85841 0.35402 0.0
C1468 C 0.15293 0.84662 0.33974 0.0
C1469 C 0.17366 0.88437 0.37205 0.0
C1470 C 0.16782 0.85659 0.32213 0.0
C1471 C 0.18252 0.8419 0.30825 0.0
C1472 C 0.18243 0.81689 0.31154 0.0
C1473 C 0.16713 0.80696 0.32892 0.0
C1474 C 0.15251 0.82168 0.34285 0.0
H1475 H 0.17822 0.89417 0.3888 0.0
H1476 H 0.18351 0.86713 0.37189 0.0
H1477 H 0.17998 0.89531 0.35671 0.0
H1478 H 0.16807 0.87575 0.31909 0.0
H1479 H 0.19419 0.85019 0.29518 0.0
H1480 H 0.41408 0.91947 0.53819 0.0
H1481 H 0.38936 0.89422 0.56401 0.0
H1482 H 0.42444 0.92361 0.62641 0.0
H1483 H 0.44997 0.94821 0.60068 0.0
H1484 H 0.42028 0.8748 0.6285 0.0
H1485 H 0.33306 0.91539 0.60462 0.0
H1486 H 0.34952 0.90479 0.57916 0.0
H1487 H 0.36129 0.9291 0.59686 0.0
C1488 C 0.41668 0.92047 0.5574 0.0
C1489 C 0.434 0.93595 0.56735 0.0
C1490 C 0.40231 0.90622 0.57215 0.0
C1491 C 0.40477 0.90733 0.59715 0.0
C1492 C 0.42212 0.92262 0.60716 0.0
H1493 H 0.30344 0.85054 0.7004 0.0
H1494 H 0.32923 0.87593 0.67568 0.0
C1495 C 0.43656 0.93682 0.59242 0.0
C1496 C 0.38966 0.89214 0.61288 0.0
H1497 H 0.33168 0.87943 0.62741 0.0
C1498 C 0.40091 0.87586 0.62835 0.0
C1499 C 0.36441 0.89378 0.61287 0.0
C1500 C 0.35133 0.91187 0.59767 0.0
C1501 C 0.38757 0.86092 0.64358 0.0
C1502 C 0.36228 0.86195 0.64294 0.0
C1503 C 0.35106 0.87848 0.62771 0.0
C1504 C 0.34708 0.84635 0.65819 0.0
C1505 C 0.40073 0.84452 0.66052 0.0
C1506 C 0.34842 0.82128 0.65647 0.0
C1507 C 0.33376 0.80673 0.67066 0.0
C1508 C 0.31725 0.817 0.68658 0.0
C1509 C 0.31583 0.84211 0.68813 0.0
C1510 C 0.3306 0.85663 0.67408 0.0
H1511 H 0.41942 0.85066 0.66361 0.0
H1512 H 0.39149 0.84336 0.67807 0.0
H1513 H 0.40145 0.82627 0.65265 0.0
H1514 H 0.36057 0.81296 0.6439 0.0
H1515 H 0.335 0.78745 0.66881 0.0
H1516 H 0.42764 0.04144 0.90732 0.0
H1517 H 0.40241 0.06751 0.88273 0.0
H1518 H 0.41296 0.12526 0.93308 0.0
H1519 H 0.43846 0.09942 0.95764 0.0
H1520 H 0.3592 0.09276 0.89892 0.0
H1521 H 0.43091 0.15368 0.86587 0.0
H1522 H 0.43713 0.12426 0.87778 0.0
H1523 H 0.43012 0.14852 0.89766 0.0
C1524 C 0.42479 0.05977 0.91303 0.0
C1525 C 0.43511 0.06841 0.93438 0.0
C1526 C 0.41028 0.07457 0.89904 0.0
C1527 C 0.40605 0.09833 0.906 0.0
C1528 C 0.41625 0.10703 0.9273 0.0
H1529 H 0.32741 0.21593 0.84169 0.0
H1530 H 0.35221 0.19054 0.86724 0.0
C1531 C 0.43064 0.0922 0.94139 0.0
C1532 C 0.39054 0.11387 0.8912 0.0
H1533 H 0.39114 0.16358 0.85565 0.0
C1534 C 0.36613 0.10822 0.88939 0.0
C1535 C 0.3997 0.13406 0.87897 0.0
C1536 C 0.42592 0.14051 0.87993 0.0
C1537 C 0.3505 0.12247 0.87585 0.0
C1538 C 0.35969 0.14253 0.86332 0.0
C1539 C 0.38413 0.1482 0.86525 0.0
C1540 C 0.34431 0.15777 0.84797 0.0
C1541 C 0.32421 0.11619 0.87557 0.0
C1542 C 0.33183 0.14784 0.82848 0.0
C1543 C 0.31739 0.16224 0.81402 0.0
C1544 C 0.31536 0.18697 0.81856 0.0
C1545 C 0.3282 0.19691 0.83791 0.0
C1546 C 0.34255 0.18246 0.85243 0.0
H1547 H 0.31915 0.10507 0.89128 0.0
H1548 H 0.31299 0.13257 0.8755 0.0
H1549 H 0.32009 0.10571 0.85916 0.0
H1550 H 0.33332 0.12894 0.82437 0.0
H1551 H 0.30762 0.15391 0.79944 0.0
H1552 H 0.71464 0.34519 0.82291 0.0
H1553 H 0.68993 0.37131 0.8479 0.0
H1554 H 0.62962 0.32403 0.83766 0.0
H1555 H 0.65382 0.29819 0.81203 0.0
H1556 H 0.64137 0.39277 0.83392 0.0
H1557 H 0.6407 0.33229 0.91314 0.0
H1558 H 0.66371 0.331 0.89048 0.0
H1559 H 0.63454 0.3189 0.88441 0.0
C1560 C 0.69604 0.34046 0.82569 0.0
C1561 C 0.68628 0.31948 0.81549 0.0
C1562 C 0.68202 0.35535 0.84009 0.0
C1563 C 0.65809 0.34941 0.84475 0.0
C1564 C 0.64818 0.3287 0.83447 0.0
H1565 H 0.54525 0.40598 0.93366 0.0
H1566 H 0.57103 0.38208 0.90764 0.0
C1567 C 0.6621 0.3139 0.81994 0.0
C1568 C 0.64337 0.36485 0.86036 0.0
H1569 H 0.61623 0.3666 0.91502 0.0
C1570 C 0.63593 0.38719 0.85171 0.0
C1571 C 0.63629 0.35734 0.88344 0.0
C1572 C 0.64428 0.33365 0.89362 0.0
C1573 C 0.62103 0.40208 0.8654 0.0
C1574 C 0.61398 0.39462 0.88859 0.0
C1575 C 0.62164 0.37231 0.89726 0.0
C1576 C 0.59833 0.40945 0.90407 0.0
C1577 C 0.61241 0.42527 0.85458 0.0
C1578 C 0.60522 0.43271 0.91091 0.0
C1579 C 0.59046 0.44646 0.92569 0.0
C1580 C 0.5687 0.43704 0.9342 0.0
C1581 C 0.562 0.41365 0.92756 0.0
C1582 C 0.57667 0.4 0.91263 0.0
H1583 H 0.61378 0.42508 0.83472 0.0
H1584 H 0.59354 0.42887 0.85958 0.0
H1585 H 0.62366 0.44025 0.86135 0.0
H1586 H 0.62215 0.44015 0.90505 0.0
H1587 H 0.59626 0.46428 0.93082 0.0
H1588 H 0.96537 0.41989 0.08842 0.0
H1589 H 0.94056 0.39377 0.11343 0.0
H1590 H 0.8786 0.41181 0.07108 0.0
H1591 H 0.90326 0.43792 0.04598 0.0
H1592 H 0.90132 0.40543 0.14094 0.0
H1593 H 0.87621 0.33888 0.07128 0.0
H1594 H 0.90012 0.36032 0.06717 0.0
H1595 H 0.86949 0.36924 0.06318 0.0
C1596 C 0.94644 0.41835 0.08447 0.0
C1597 C 0.9363 0.43091 0.06515 0.0
C1598 C 0.93232 0.40334 0.09871 0.0
C1599 C 0.90782 0.40053 0.09387 0.0
C1600 C 0.89759 0.41322 0.07476 0.0
H1601 H 0.78949 0.32734 0.16222 0.0
H1602 H 0.81557 0.35184 0.13686 0.0
C1603 C 0.9117 0.42817 0.06046 0.0
C1604 C 0.89283 0.38494 0.1093 0.0
H1605 H 0.85528 0.3365 0.1083 0.0
C1606 C 0.89138 0.39025 0.13385 0.0
C1607 C 0.87988 0.36516 0.09999 0.0
C1608 C 0.88163 0.35788 0.07401 0.0
C1609 C 0.8769 0.37663 0.14925 0.0
C1610 C 0.86379 0.35701 0.13988 0.0
C1611 C 0.86532 0.35161 0.11538 0.0
C1612 C 0.84819 0.342 0.15522 0.0
C1613 C 0.87528 0.38368 0.1753 0.0
C1614 C 0.85796 0.32813 0.17372 0.0
C1615 C 0.84312 0.31416 0.18829 0.0
C1616 C 0.81821 0.31381 0.18457 0.0
C1617 C 0.80855 0.3275 0.16578 0.0
C1618 C 0.82342 0.34139 0.15118 0.0
H1619 H 0.88207 0.40216 0.17848 0.0
H1620 H 0.85652 0.38252 0.18173 0.0
H1621 H 0.88622 0.37118 0.18617 0.0
H1622 H 0.87709 0.32809 0.1769 0.0
H1623 H 0.8511 0.30394 0.20269 0.0
H1624 H 0.9379 0.59673 0.4539 0.0
H1625 H 0.91261 0.62138 0.42785 0.0
H1626 H 0.90592 0.56255 0.37813 0.0
H1627 H 0.9311 0.53774 0.40409 0.0
H1628 H 0.92208 0.62975 0.3736 0.0
H1629 H 0.83517 0.58663 0.39707 0.0
H1630 H 0.86063 0.58618 0.41707 0.0
H1631 H 0.86031 0.56749 0.39093 0.0
C1632 C 0.9309 0.58901 0.4375 0.0
C1633 C 0.93644 0.5653 0.43104 0.0
C1634 C 0.91659 0.60313 0.42261 0.0
C1635 C 0.90736 0.59368 0.40121 0.0
C1636 C 0.91283 0.57006 0.39467 0.0
H1637 H 0.80715 0.64904 0.29592 0.0
H1638 H 0.83388 0.62395 0.31973 0.0
C1639 C 0.9273 0.556 0.40943 0.0
C1640 C 0.89215 0.6086 0.38556 0.0
H1641 H 0.83442 0.61664 0.36745 0.0
C1642 C 0.90291 0.62697 0.37222 0.0
C1643 C 0.86725 0.60468 0.38374 0.0
C1644 C 0.85497 0.58528 0.398 0.0
C1645 C 0.88935 0.64149 0.35684 0.0
C1646 C 0.86428 0.63792 0.35534 0.0
C1647 C 0.85361 0.61939 0.36863 0.0
C1648 C 0.84873 0.65335 0.34033 0.0
C1649 C 0.90212 0.66014 0.34198 0.0
C1650 C 0.84808 0.67821 0.34408 0.0
C1651 C 0.8331 0.69266 0.33024 0.0
C1652 C 0.81813 0.68252 0.31259 0.0
C1653 C 0.8187 0.65755 0.30904 0.0
C1654 C 0.83383 0.64313 0.32278 0.0
H1655 H 0.92132 0.65568 0.3396 0.0
H1656 H 0.89375 0.66199 0.32403 0.0
H1657 H 0.90117 0.67771 0.35124 0.0
H1658 H 0.859 0.68646 0.35788 0.0
H1659 H 0.83336 0.71182 0.33333 0.0
H1660 H 0.58613 0.57911 0.53669 0.0
H1661 H 0.61218 0.60389 0.56188 0.0
H1662 H 0.57708 0.57684 0.62508 0.0
H1663 H 0.55068 0.55222 0.60003 0.0
H1664 H 0.59839 0.63972 0.59509 0.0
H1665 H 0.64897 0.56616 0.63873 0.0
H1666 H 0.63144 0.56169 0.61187 0.0
H1667 H 0.61697 0.56349 0.64052 0.0
C1668 C 0.58383 0.57851 0.55594 0.0
C1669 C 0.5663 0.56365 0.56634 0.0
C1670 C 0.59882 0.5926 0.5703 0.0
C1671 C 0.59673 0.59197 0.59533 0.0
C1672 C 0.57928 0.57722 0.60581 0.0
H1673 H 0.65271 0.69441 0.69869 0.0
H1674 H 0.62731 0.6691 0.67335 0.0
C1675 C 0.56423 0.56314 0.59146 0.0
C1676 C 0.61242 0.60729 0.6104 0.0
H1677 H 0.6556 0.60545 0.65372 0.0
C1678 C 0.61093 0.63226 0.60789 0.0
C1679 C 0.62891 0.59744 0.62689 0.0
C1680 C 0.63191 0.57073 0.6296 0.0
C1681 C 0.62529 0.6477 0.6217 0.0
C1682 C 0.64136 0.63787 0.6386 0.0
C1683 C 0.6431 0.6129 0.64087 0.0
C1684 C 0.65672 0.65326 0.65391 0.0
C1685 C 0.62341 0.67439 0.61788 0.0
C1686 C 0.68168 0.65243 0.65162 0.0
C1687 C 0.69627 0.66696 0.66598 0.0
C1688 C 0.68615 0.68247 0.68306 0.0
C1689 C 0.66109 0.68303 0.68544 0.0
C1690 C 0.64653 0.66854 0.67101 0.0
H1691 H 0.61434 0.67875 0.60071 0.0
H1692 H 0.61285 0.68236 0.63268 0.0
H1693 H 0.6414 0.6829 0.61798 0.0
H1694 H 0.68987 0.64072 0.63852 0.0
H1695 H 0.71545 0.66627 0.66345 0.0
H1696 H 0.26767 0.27528 0.40628 0.0
H1697 H 0.26596 0.27186 0.44982 0.0
H1698 H 0.24202 0.19857 0.44325 0.0
H1699 H 0.24439 0.2016 0.39949 0.0
H1700 H 0.22555 0.26074 0.47758 0.0
H1701 H 0.29835 0.19434 0.49084 0.0
H1702 H 0.2947 0.21082 0.46326 0.0
H1703 H 0.27534 0.18595 0.46987 0.0
C1704 C 0.2624 0.25829 0.41406 0.0
C1705 C 0.25637 0.23864 0.3994 0.0
C1706 C 0.26127 0.25643 0.43895 0.0
C1707 C 0.25415 0.23489 0.44974 0.0
C1708 C 0.24794 0.21524 0.43525 0.0
H1709 H 0.239 0.20091 0.60199 0.0
H1710 H 0.2393 0.19866 0.55813 0.0
C1711 C 0.24906 0.21709 0.41027 0.0
C1712 C 0.25263 0.23346 0.47618 0.0
H1713 H 0.27734 0.20677 0.52534 0.0
C1714 C 0.23682 0.2489 0.48803 0.0
C1715 C 0.26729 0.2179 0.48971 0.0
C1716 C 0.28504 0.20141 0.47787 0.0
C1717 C 0.23538 0.24935 0.5131 0.0
C1718 C 0.25047 0.23425 0.52667 0.0
C1719 C 0.26587 0.21837 0.51484 0.0
C1720 C 0.251 0.23531 0.55317 0.0
C1721 C 0.21762 0.26592 0.52484 0.0
C1722 C 0.25796 0.25651 0.56484 0.0
C1723 C 0.25769 0.2579 0.58981 0.0
C1724 C 0.25062 0.23804 0.60362 0.0
C1725 C 0.24424 0.21661 0.59186 0.0
C1726 C 0.24452 0.21525 0.56684 0.0
H1727 H 0.20314 0.27119 0.51226 0.0
H1728 H 0.20941 0.25741 0.54083 0.0
H1729 H 0.22699 0.28248 0.53074 0.0
H1730 H 0.2634 0.27207 0.5546 0.0
H1731 H 0.26247 0.27474 0.59825 0.0
H1732 H 0.0367 0.97875 0.84747 0.0
H1733 H 0.03966 0.98009 0.80364 0.0
H1734 H 0.97421 0.02057 0.80028 0.0
H1735 H 0.97124 0.01955 0.84401 0.0
H1736 H 0.00285 0.96254 0.77032 0.0
H1737 H 0.02349 0.05938 0.75924 0.0
H1738 H 0.02816 0.04367 0.78714 0.0
H1739 H 0.99857 0.05262 0.77844 0.0
C1740 C 0.02312 0.9882 0.83739 0.0
C1741 C 0.00375 0.99907 0.84915 0.0
C1742 C 0.02478 0.98884 0.8124 0.0
C1743 C 0.00728 0.00062 0.79883 0.0
C1744 C 0.98804 0.01164 0.8105 0.0
H1745 H 0.97401 0.02659 0.65097 0.0
H1746 H 0.97659 0.02501 0.69457 0.0
C1747 C 0.98627 0.01087 0.83544 0.0
C1748 C 0.00852 0.00065 0.77237 0.0
H1749 H 0.01345 0.03766 0.72402 0.0
C1750 C 0.00539 0.97889 0.76013 0.0
C1751 C 0.01175 0.02205 0.75926 0.0
C1752 C 0.01588 0.04577 0.77162 0.0
C1753 C 0.00458 0.97807 0.735 0.0
C1754 C 0.00756 0.99954 0.72183 0.0
C1755 C 0.01115 0.02123 0.73414 0.0
C1756 C 0.00614 9e-05 0.69531 0.0
C1757 C 0.99961 0.95438 0.72284 0.0
C1758 C 0.02204 0.98676 0.6812 0.0
C1759 C 0.02038 0.98732 0.6562 0.0
C1760 C 0.00293 0.00145 0.64483 0.0
C1761 C 0.98732 0.01511 0.65908 0.0
C1762 C 0.98892 0.01441 0.68403 0.0
H1763 H 0.99168 0.94112 0.73539 0.0
H1764 H 0.98725 0.95666 0.70742 0.0
H1765 H 0.01665 0.94689 0.71603 0.0
H1766 H 0.0358 0.97597 0.68952 0.0
H1767 H 0.0326 0.97648 0.64582 0.0
H1768 H 0.27976 0.73942 0.90494 0.0
H1769 H 0.27951 0.74267 0.94865 0.0
H1770 H 0.21809 0.78903 0.94498 0.0
H1771 H 0.21784 0.78541 0.90124 0.0
H1772 H 0.28252 0.7844 0.97818 0.0
H1773 H 0.19697 0.73459 0.99057 0.0
H1774 H 0.21349 0.73388 0.96282 0.0
H1775 H 0.19596 0.75967 0.97042 0.0
C1776 C 0.26613 0.75022 0.91344 0.0
C1777 C 0.24872 0.76203 0.89964 0.0
C1778 C 0.2661 0.75217 0.93838 0.0
C1779 C 0.24859 0.76582 0.95002 0.0
C1780 C 0.23154 0.77812 0.93633 0.0
H1781 H 0.22206 0.77979 0.10418 0.0
H1782 H 0.22042 0.78555 0.06063 0.0
C1783 C 0.23158 0.77623 0.91134 0.0
C1784 C 0.24818 0.76687 0.97651 0.0
H1785 H 0.21588 0.74937 0.02537 0.0
C1786 C 0.26792 0.77686 0.98852 0.0
C1787 C 0.22902 0.7571 0.9899 0.0
C1788 C 0.2077 0.74552 0.97787 0.0
C1789 C 0.26914 0.77711 0.01363 0.0
C1790 C 0.25031 0.76672 0.02701 0.0
C1791 C 0.23027 0.75733 0.01502 0.0
C1792 C 0.25174 0.7641 0.05336 0.0
C1793 C 0.29057 0.78849 0.02563 0.0
C1794 C 0.26975 0.74998 0.0636 0.0
C1795 C 0.27075 0.7467 0.08836 0.0
C1796 C 0.25366 0.75737 0.10339 0.0
C1797 C 0.23562 0.77155 0.09309 0.0
C1798 C 0.23459 0.77477 0.06825 0.0
H1799 H 0.29967 0.80149 0.01361 0.0
H1800 H 0.28534 0.79788 0.04236 0.0
H1801 H 0.30364 0.77433 0.03033 0.0
H1802 H 0.2829 0.74124 0.05239 0.0
H1803 H 0.28499 0.73586 0.09575 0.0
H1804 H 0.47631 0.04043 0.34944 0.0
H1805 H 0.47303 0.03959 0.30568 0.0
H1806 H 0.50651 0.97013 0.30433 0.0
H1807 H 0.50932 0.97053 0.34806 0.0
H1808 H 0.51129 0.03548 0.27277 0.0
H1809 H 0.4463 0.96064 0.26282 0.0
H1810 H 0.45088 0.97625 0.29083 0.0
H1811 H 0.47174 0.95378 0.28124 0.0
C1812 C 0.4826 0.02479 0.33985 0.0
C1813 C 0.49299 0.00549 0.35223 0.0
C1814 C 0.48085 0.02442 0.31486 0.0
C1815 C 0.48925 0.00467 0.30183 0.0
C1816 C 0.49956 0.98536 0.3141 0.0
H1817 H 0.50642 0.96478 0.15391 0.0
H1818 H 0.50475 0.96739 0.19759 0.0
C1819 C 0.50137 0.98573 0.33906 0.0
C1820 C 0.48817 0.00464 0.27531 0.0
H1821 H 0.46593 0.97371 0.22736 0.0
C1822 C 0.50121 0.02213 0.26279 0.0
C1823 C 0.47505 0.98715 0.26243 0.0
C1824 C 0.46001 0.9685 0.27497 0.0
C1825 C 0.50209 0.02214 0.23765 0.0
C1826 C 0.48916 0.00448 0.22475 0.0
C1827 C 0.47584 0.98721 0.2373 0.0
C1828 C 0.48981 0.0031 0.19823 0.0
C1829 C 0.51752 0.04054 0.2252 0.0
C1830 C 0.48168 0.02221 0.18409 0.0
C1831 C 0.48263 0.02077 0.15908 0.0
C1832 C 0.49145 7e-05 0.14781 0.0
C1833 C 0.49924 0.98085 0.16205 0.0
C1834 C 0.4984 0.98235 0.18701 0.0
H1835 H 0.5308 0.04876 0.2376 0.0
H1836 H 0.52724 0.03243 0.20988 0.0
H1837 H 0.50599 0.05507 0.21815 0.0
H1838 H 0.47447 0.03817 0.19238 0.0
H1839 H 0.47621 0.03574 0.14857 0.0
H1840 H 0.40455 0.23543 0.27771 0.0
H1841 H 0.44798 0.23357 0.2731 0.0
H1842 H 0.44152 0.25835 0.20025 0.0
H1843 H 0.39797 0.26082 0.20489 0.0
H1844 H 0.47562 0.20743 0.23918 0.0
H1845 H 0.48917 0.30602 0.23155 0.0
H1846 H 0.46171 0.29302 0.24262 0.0
H1847 H 0.46799 0.29283 0.21109 0.0
C1848 C 0.41237 0.24064 0.26074 0.0
C1849 C 0.39785 0.24851 0.24174 0.0
C1850 C 0.43715 0.23941 0.2581 0.0
C1851 C 0.44794 0.24614 0.23646 0.0
C1852 C 0.43353 0.25342 0.21721 0.0
H1853 H 0.60115 0.25879 0.20508 0.0
H1854 H 0.55746 0.25769 0.2009 0.0
C1855 C 0.40866 0.25461 0.21982 0.0
C1856 C 0.47434 0.24568 0.23434 0.0
H1857 H 0.52351 0.28182 0.22925 0.0
C1858 C 0.48611 0.22366 0.23686 0.0
C1859 C 0.48792 0.26689 0.23124 0.0
C1860 C 0.47616 0.2911 0.22914 0.0
C1861 C 0.51117 0.22232 0.23666 0.0
C1862 C 0.52476 0.24362 0.2343 0.0
C1863 C 0.513 0.26554 0.23107 0.0
C1864 C 0.55118 0.24369 0.23647 0.0
C1865 C 0.52287 0.19811 0.23898 0.0
C1866 C 0.56203 0.23643 0.25793 0.0
C1867 C 0.58688 0.23698 0.26035 0.0
C1868 C 0.6014 0.24496 0.24139 0.0
C1869 C 0.59047 0.25232 0.21991 0.0
C1870 C 0.56554 0.25181 0.21753 0.0
H1871 H 0.5105 0.1834 0.23363 0.0
H1872 H 0.53927 0.19705 0.22784 0.0
H1873 H 0.52803 0.19518 0.25796 0.0
H1874 H 0.55124 0.23051 0.27292 0.0
H1875 H 0.59474 0.23095 0.27703 0.0
H1876 H 0.96848 0.34967 0.49631 0.0
H1877 H 0.96748 0.30592 0.49313 0.0
H1878 H 0.04023 0.30632 0.46741 0.0
H1879 H 0.04149 0.35005 0.47112 0.0
H1880 H 0.97321 0.27515 0.45621 0.0
H1881 H 0.04518 0.26113 0.52338 0.0
H1882 H 0.03143 0.28992 0.51867 0.0
H1883 H 0.05421 0.2794 0.49854 0.0
C1884 C 0.98418 0.34042 0.48978 0.0
C1885 C 0.00514 0.3532 0.48416 0.0
C1886 C 0.98361 0.31544 0.48803 0.0
C1887 C 0.00395 0.30281 0.48053 0.0
C1888 C 0.02456 0.31563 0.47391 0.0
H1889 H 0.0268 0.14901 0.46183 0.0
H1890 H 0.02952 0.19272 0.45863 0.0
C1891 C 0.02523 0.34059 0.47593 0.0
C1892 C 0.00359 0.27623 0.48002 0.0
H1893 H 0.03087 0.22661 0.50308 0.0
C1894 C 0.98583 0.26456 0.46645 0.0
C1895 C 0.02002 0.2624 0.49349 0.0
C1896 C 0.03864 0.27382 0.50953 0.0
C1897 C 0.98409 0.23946 0.46598 0.0
C1898 C 0.00051 0.22576 0.47939 0.0
C1899 C 0.01845 0.2373 0.49268 0.0
C1900 C 0.9986 0.1994 0.48081 0.0
C1901 C 0.9647 0.22766 0.45124 0.0
C1902 C 0.98044 0.18885 0.49454 0.0
C1903 C 0.97904 0.16397 0.49674 0.0
C1904 C 0.99571 0.14911 0.48511 0.0
C1905 C 0.01385 0.15985 0.47126 0.0
C1906 C 0.01534 0.1848 0.46925 0.0
H1907 H 0.95584 0.2405 0.43892 0.0
H1908 H 0.9722 0.21267 0.44055 0.0
H1909 H 0.95094 0.22004 0.46339 0.0
H1910 H 0.96757 0.19992 0.50385 0.0
H1911 H 0.96514 0.15642 0.50796 0.0
H1912 H 0.90583 0.74608 0.78462 0.0
H1913 H 0.94925 0.74383 0.7806 0.0
H1914 H 0.94227 0.74445 0.70365 0.0
H1915 H 0.89876 0.74764 0.70749 0.0
H1916 H 0.97724 0.70959 0.75811 0.0
H1917 H 0.98948 0.7992 0.71624 0.0
H1918 H 0.96188 0.79026 0.73045 0.0
H1919 H 0.96902 0.77949 0.70098 0.0
C1920 C 0.91351 0.74601 0.76682 0.0
C1921 C 0.89882 0.74732 0.74638 0.0
C1922 C 0.93832 0.74452 0.76456 0.0
C1923 C 0.94899 0.74435 0.74184 0.0
C1924 C 0.93441 0.74502 0.72136 0.0
H1925 H 0.10149 0.74265 0.70553 0.0
H1926 H 0.05768 0.74084 0.70297 0.0
C1927 C 0.90954 0.74656 0.72359 0.0
C1928 C 0.9754 0.7435 0.73984 0.0
H1929 H 0.0241 0.77566 0.72134 0.0
C1930 C 0.98749 0.72399 0.74999 0.0
C1931 C 0.9887 0.7623 0.72917 0.0
C1932 C 0.97669 0.78412 0.71875 0.0
C1933 C 0.01255 0.72287 0.74999 0.0
C1934 C 0.02583 0.74191 0.73984 0.0
C1935 C 0.01379 0.76111 0.7291 0.0
C1936 C 0.05225 0.74278 0.74128 0.0
C1937 C 0.02465 0.70135 0.76089 0.0
C1938 C 0.06358 0.74478 0.76364 0.0
C1939 C 0.08849 0.74585 0.76516 0.0
C1940 C 0.10255 0.74498 0.74431 0.0
C1941 C 0.09113 0.74313 0.7219 0.0
C1942 C 0.06616 0.74219 0.7204 0.0
H1943 H 0.01226 0.68578 0.76222 0.0
H1944 H 0.0405 0.696 0.7502 0.0
H1945 H 0.03084 0.70594 0.77924 0.0
H1946 H 0.05311 0.7456 0.77994 0.0
H1947 H 0.09676 0.74701 0.78269 0.0
H1948 H 0.47139 0.65109 0.96354 0.0
H1949 H 0.47399 0.69489 0.96102 0.0
H1950 H 0.53735 0.69412 0.00515 0.0
H1951 H 0.53487 0.65033 0.00783 0.0
H1952 H 0.49491 0.72523 0.01986 0.0
H1953 H 0.52693 0.73865 0.92638 0.0
H1954 H 0.50354 0.71691 0.9314 0.0
H1955 H 0.53295 0.71154 0.943 0.0
C1956 C 0.48599 0.66025 0.97254 0.0
C1957 C 0.50292 0.64731 0.98591 0.0
C1958 C 0.48752 0.68521 0.97094 0.0
C1959 C 0.50594 0.69761 0.98277 0.0
C1960 C 0.52312 0.68477 0.99577 0.0
H1961 H 0.53241 0.84633 0.01818 0.0
H1962 H 0.53255 0.8028 0.01518 0.0
C1963 C 0.52173 0.65979 0.99719 0.0
C1964 C 0.50624 0.72409 0.98307 0.0
H1965 H 0.51715 0.77332 0.94852 0.0
C1966 C 0.49984 0.7358 0.00432 0.0
C1967 C 0.51236 0.73766 0.96264 0.0
C1968 C 0.51947 0.72569 0.93951 0.0
C1969 C 0.49925 0.76089 0.00568 0.0
C1970 C 0.50594 0.77459 0.98541 0.0
C1971 C 0.51214 0.76281 0.96406 0.0
C1972 C 0.50685 0.80116 0.98617 0.0
C1973 C 0.4909 0.77242 0.02866 0.0
C1974 C 0.49316 0.8148 0.97014 0.0
C1975 C 0.49347 0.83985 0.97141 0.0
C1976 C 0.5075 0.85173 0.98875 0.0
C1977 C 0.52158 0.83791 0.00442 0.0
C1978 C 0.52141 0.81294 0.00298 0.0
H1979 H 0.47969 0.75995 0.0394 0.0
H1980 H 0.5067 0.77741 0.03968 0.0
H1981 H 0.48041 0.78888 0.02504 0.0
H1982 H 0.48198 0.80606 0.95685 0.0
H1983 H 0.48274 0.84987 0.95877 0.0
H1984 H 0.5985 0.72033 0.24877 0.0
H1985 H 0.55487 0.71994 0.25213 0.0
H1986 H 0.55716 0.78894 0.28703 0.0
H1987 H 0.60082 0.78961 0.28335 0.0
H1988 H 0.52493 0.72183 0.29046 0.0
H1989 H 0.51131 0.80142 0.23243 0.0
H1990 H 0.53978 0.78653 0.23488 0.0
H1991 H 0.53023 0.80697 0.25787 0.0
C1992 C 0.58971 0.73532 0.25735 0.0
C1993 C 0.60303 0.75509 0.26564 0.0
C1994 C 0.56479 0.73512 0.25919 0.0
C1995 C 0.55272 0.75462 0.2694 0.0
C1996 C 0.56604 0.77399 0.27849 0.0
H1997 H 0.39942 0.77933 0.28864 0.0
H1998 H 0.44307 0.78123 0.29235 0.0
C1999 C 0.59097 0.77432 0.27646 0.0
C2000 C 0.5262 0.75467 0.27025 0.0
H2001 H 0.47687 0.78509 0.25093 0.0
C2002 C 0.51443 0.73568 0.28185 0.0
C2003 C 0.51252 0.77276 0.25895 0.0
C2004 C 0.52405 0.79296 0.24513 0.0
C2005 C 0.48936 0.73425 0.28239 0.0
C2006 C 0.47577 0.75223 0.27098 0.0
C2007 C 0.48744 0.77144 0.25977 0.0
C2008 C 0.4494 0.75072 0.26935 0.0
C2009 C 0.47752 0.71355 0.29513 0.0
C2010 C 0.43865 0.73309 0.25498 0.0
C2011 C 0.41381 0.73215 0.25252 0.0
C2012 C 0.39918 0.74879 0.26448 0.0
C2013 C 0.4101 0.76641 0.27897 0.0
C2014 C 0.43501 0.76744 0.28125 0.0
H2015 H 0.49016 0.70408 0.3072 0.0
H2016 H 0.462 0.71983 0.30578 0.0
H2017 H 0.47079 0.70051 0.28165 0.0
H2018 H 0.44953 0.72031 0.24531 0.0
H2019 H 0.40613 0.71868 0.24079 0.0
H2020 H 0.47103 0.15094 0.49559 0.0
H2021 H 0.46936 0.19465 0.49821 0.0
H2022 H 0.53632 0.19546 0.5367 0.0
H2023 H 0.5378 0.15166 0.53481 0.0
H2024 H 0.50169 0.22691 0.55569 0.0
H2025 H 0.51264 0.2383 0.4575 0.0
H2026 H 0.48813 0.2192 0.46595 0.0
H2027 H 0.51829 0.21025 0.47249 0.0
C2028 C 0.48522 0.16036 0.50496 0.0
C2029 C 0.50464 0.1478 0.51485 0.0
C2030 C 0.48436 0.18536 0.50621 0.0
C2031 C 0.50294 0.19828 0.51726 0.0
C2032 C 0.5219 0.18581 0.52792 0.0
H2033 H 0.53235 0.34967 0.49583 0.0
H2034 H 0.53524 0.30612 0.49953 0.0
C2035 C 0.52279 0.16081 0.52668 0.0
C2036 C 0.5029 0.22483 0.5172 0.0
H2037 H 0.50395 0.27328 0.47994 0.0
C2038 C 0.50223 0.23709 0.53916 0.0
C2039 C 0.50402 0.23802 0.4956 0.0
C2040 C 0.50604 0.22583 0.47154 0.0
C2041 C 0.50215 0.26225 0.54007 0.0
C2042 C 0.50245 0.27542 0.51843 0.0
C2043 C 0.50357 0.26314 0.49651 0.0
C2044 C 0.50147 0.30196 0.51798 0.0
C2045 C 0.50209 0.27451 0.56418 0.0
C2046 C 0.48157 0.31409 0.52722 0.0
C2047 C 0.47995 0.339 0.52531 0.0
C2048 C 0.49813 0.35227 0.51393 0.0
C2049 C 0.5182 0.34007 0.505 0.0
C2050 C 0.5198 0.31516 0.50694 0.0
H2051 H 0.50844 0.26239 0.57861 0.0
H2052 H 0.51356 0.29081 0.56401 0.0
H2053 H 0.48356 0.28002 0.56859 0.0
H2054 H 0.46701 0.30423 0.53543 0.0
H2055 H 0.46435 0.34785 0.53256 0.0
H2056 H 0.09848 0.29094 0.77779 0.0
H2057 H 0.05487 0.28993 0.78183 0.0
H2058 H 0.05419 0.21586 0.75952 0.0
H2059 H 0.09779 0.21666 0.75597 0.0
H2060 H 0.02289 0.28251 0.74722 0.0
H2061 H 0.01068 0.21269 0.81652 0.0
H2062 H 0.03943 0.22617 0.81039 0.0
H2063 H 0.02822 0.20221 0.7918 0.0
C2064 C 0.08901 0.27438 0.77401 0.0
C2065 C 0.1015 0.25385 0.76663 0.0
C2066 C 0.06413 0.2738 0.77637 0.0
C2067 C 0.05126 0.25272 0.77133 0.0
C2068 C 0.06375 0.23213 0.76418 0.0
H2069 H 0.90526 0.21819 0.73822 0.0
H2070 H 0.94877 0.22026 0.74323 0.0
C2071 C 0.08866 0.23263 0.76207 0.0
C2072 C 0.0247 0.25279 0.77179 0.0
H2073 H 0.97586 0.22286 0.79343 0.0
C2074 C 0.01263 0.26967 0.7576 0.0
C2075 C 0.01129 0.23605 0.78535 0.0
C2076 C 0.02307 0.21843 0.80206 0.0
C2077 C 0.98758 0.26977 0.75604 0.0
C2078 C 0.9743 0.25256 0.76896 0.0
C2079 C 0.98622 0.23595 0.78348 0.0
C2080 C 0.94801 0.25102 0.76679 0.0
C2081 C 0.97537 0.2878 0.74009 0.0
C2082 C 0.93331 0.26756 0.77857 0.0
C2083 C 0.90845 0.26642 0.77579 0.0
C2084 C 0.89798 0.24881 0.76101 0.0
C2085 C 0.91284 0.23214 0.74945 0.0
C2086 C 0.93763 0.23318 0.75241 0.0
H2087 H 0.98836 0.29874 0.7297 0.0
H2088 H 0.96315 0.27849 0.72739 0.0
H2089 H 0.96437 0.30001 0.75121 0.0
H2090 H 0.9411 0.28144 0.78976 0.0
H2091 H 0.89746 0.27958 0.78478 0.0
H2092 H 0.02386 0.84761 0.98211 0.0
H2093 H 0.02541 0.80399 0.9857 0.0
H2094 H 0.97415 0.80654 0.04327 0.0
H2095 H 0.97262 0.85026 0.03996 0.0
H2096 H 0.03737 0.7752 0.0257 0.0
H2097 H 0.94388 0.75933 0.99507 0.0
H2098 H 0.95905 0.78764 0.99091 0.0
H2099 H 0.94724 0.77977 0.01977 0.0
C2100 C 0.01312 0.83895 0.99574 0.0
C2101 C 0.99804 0.85242 0.0107 0.0
C2102 C 0.01394 0.81401 0.99767 0.0
C2103 C 0.99963 0.80204 0.0145 0.0
C2104 C 0.98496 0.81542 0.02983 0.0
H2105 H 0.98007 0.64842 0.03972 0.0
H2106 H 0.97826 0.69221 0.04283 0.0
C2107 C 0.98411 0.84038 0.02791 0.0
C2108 C 0.00012 0.77555 0.01586 0.0
H2109 H 0.96596 0.72541 0.00702 0.0
C2110 C 0.02176 0.7643 0.02167 0.0
C2111 C 0.97967 0.76141 0.01068 0.0
C2112 C 0.95616 0.77256 0.00356 0.0
C2113 C 0.02355 0.73923 0.02239 0.0
C2114 C 0.00324 0.72509 0.01671 0.0
C2115 C 0.98147 0.73633 0.01138 0.0
C2116 C 0.00452 0.69862 0.01513 0.0
C2117 C 0.04711 0.72811 0.02934 0.0
C2118 C 0.01959 0.68779 0.99827 0.0
C2119 C 0.02058 0.66288 0.99636 0.0
C2120 C 0.00641 0.64824 0.01121 0.0
C2121 C 0.9911 0.65917 0.02792 0.0
C2122 C 0.99012 0.68416 0.02981 0.0
H2123 H 0.05853 0.74085 0.03962 0.0
H2124 H 0.04433 0.71172 0.04028 0.0
H2125 H 0.05696 0.72298 0.01288 0.0
H2126 H 0.03038 0.69864 0.98633 0.0
H2127 H 0.03215 0.65508 0.98293 0.0
H2128 H 0.2071 0.39923 0.27655 0.0
H2129 H 0.20474 0.443 0.2755 0.0
H2130 H 0.26295 0.44528 0.225 0.0
H2131 H 0.26587 0.40164 0.22631 0.0
H2132 H 0.24348 0.47506 0.28753 0.0
H2133 H 0.21061 0.48834 0.19459 0.0
H2134 H 0.20781 0.46011 0.21017 0.0
H2135 H 0.23595 0.46878 0.19722 0.0
C2136 C 0.21941 0.40902 0.2652 0.0
C2137 C 0.23669 0.39688 0.25151 0.0
C2138 C 0.21793 0.43401 0.26454 0.0
C2139 C 0.23349 0.4473 0.24998 0.0
C2140 C 0.25047 0.43528 0.236 0.0
H2141 H 0.27078 0.59364 0.22265 0.0
H2142 H 0.26558 0.55023 0.22371 0.0
C2143 C 0.25206 0.41032 0.23673 0.0
C2144 C 0.233 0.4738 0.25043 0.0
H2145 H 0.22528 0.52292 0.21495 0.0
C2146 C 0.23925 0.48559 0.27177 0.0
C2147 C 0.22752 0.48737 0.2298 0.0
C2148 C 0.21988 0.47557 0.20667 0.0
C2149 C 0.24107 0.51067 0.27279 0.0
C2150 C 0.23598 0.52427 0.25203 0.0
C2151 C 0.2292 0.51245 0.23083 0.0
C2152 C 0.23872 0.55069 0.25156 0.0
C2153 C 0.24938 0.5223 0.2958 0.0
C2154 C 0.22515 0.5654 0.26671 0.0
C2155 C 0.22831 0.59028 0.26638 0.0
C2156 C 0.24499 0.6009 0.25076 0.0
C2157 C 0.25817 0.58607 0.23527 0.0
C2158 C 0.25506 0.56125 0.23568 0.0
H2159 H 0.25797 0.5092 0.30805 0.0
H2160 H 0.26231 0.537 0.29213 0.0
H2161 H 0.23375 0.53006 0.3052 0.0
H2162 H 0.21211 0.55764 0.27879 0.0
H2163 H 0.21793 0.60116 0.27859 0.0
H2164 H 0.7836 0.0981 0.75114 0.0
H2165 H 0.7819 0.05427 0.7514 0.0
H2166 H 0.70513 0.0568 0.74371 0.0
H2167 H 0.70682 0.10067 0.74289 0.0
H2168 H 0.76028 0.02375 0.78159 0.0
H2169 H 0.72246 0.01158 0.69038 0.0
H2170 H 0.7338 0.04004 0.70087 0.0
H2171 H 0.70435 0.03006 0.70933 0.0
C2172 C 0.76636 0.08928 0.74958 0.0
C2173 C 0.74534 0.10275 0.74692 0.0
C2174 C 0.76541 0.06426 0.74965 0.0
C2175 C 0.74344 0.05222 0.74714 0.0
C2176 C 0.72235 0.06566 0.74499 0.0
H2177 H 0.70677 0.90034 0.75613 0.0
H2178 H 0.70562 0.94433 0.75594 0.0
C2179 C 0.72332 0.09071 0.74465 0.0
C2180 C 0.74267 0.02563 0.74727 0.0
H2181 H 0.72509 0.97671 0.71464 0.0
C2182 C 0.75264 0.01349 0.76691 0.0
C2183 C 0.73273 0.01223 0.72807 0.0
C2184 C 0.72294 0.02411 0.70586 0.0
C2185 C 0.75282 0.98837 0.76793 0.0
C2186 C 0.74279 0.97508 0.74883 0.0
C2187 C 0.73263 0.98709 0.72929 0.0
C2188 C 0.74336 0.94861 0.74858 0.0
C2189 C 0.76365 0.97611 0.78941 0.0
C2190 C 0.76491 0.93663 0.74424 0.0
C2191 C 0.76561 0.91162 0.74422 0.0
C2192 C 0.74475 0.89815 0.74864 0.0
C2193 C 0.72313 0.91026 0.75284 0.0
C2194 C 0.72242 0.93531 0.75265 0.0
H2195 H 0.76733 0.98886 0.80429 0.0
H2196 H 0.75154 0.96174 0.79601 0.0
H2197 H 0.78076 0.9676 0.78413 0.0
H2198 H 0.78122 0.94667 0.74097 0.0
H2199 H 0.78258 0.9028 0.74122 0.0
H2200 H 0.34457 0.52206 0.98644 0.0
H2201 H 0.30118 0.51705 0.98593 0.0
H2202 H 0.3087 0.44433 0.01072 0.0
H2203 H 0.35233 0.449 0.0109 0.0
H2204 H 0.27323 0.48163 0.9603 0.0
H2205 H 0.26206 0.47625 0.0593 0.0
H2206 H 0.28894 0.48791 0.04561 0.0
H2207 H 0.28335 0.45622 0.04591 0.0
C2208 C 0.33709 0.50487 0.99148 0.0
C2209 C 0.35198 0.48591 0.99868 0.0
C2210 C 0.31226 0.5021 0.99132 0.0
C2211 C 0.30178 0.48042 0.99852 0.0
C2212 C 0.31648 0.46133 0.00547 0.0
H2213 H 0.14786 0.45155 0.01461 0.0
H2214 H 0.19141 0.44617 0.01337 0.0
C2215 C 0.34138 0.46406 0.00558 0.0
C2216 C 0.2754 0.47804 0.99864 0.0
H2217 H 0.22709 0.47426 0.03582 0.0
C2218 C 0.26312 0.47983 0.97678 0.0
C2219 C 0.26234 0.47553 0.02017 0.0
C2220 C 0.27473 0.47401 0.04415 0.0
C2221 C 0.23804 0.47966 0.97591 0.0
C2222 C 0.22495 0.47815 0.99752 0.0
C2223 C 0.23721 0.47547 0.01931 0.0
C2224 C 0.19862 0.48102 0.99799 0.0
C2225 C 0.22579 0.48123 0.95185 0.0
C2226 C 0.18836 0.50249 0.99006 0.0
C2227 C 0.16362 0.50557 0.99067 0.0
C2228 C 0.14859 0.48731 0.99942 0.0
C2229 C 0.15894 0.46584 0.00754 0.0
C2230 C 0.18378 0.46279 0.00696 0.0
H2231 H 0.23763 0.47494 0.93718 0.0
H2232 H 0.20903 0.47046 0.95155 0.0
H2233 H 0.22115 0.50019 0.94818 0.0
H2234 H 0.19953 0.51696 0.98349 0.0
H2235 H 0.15625 0.52221 0.98401 0.0
H2236 H 0.78427 0.10215 0.22765 0.0
H2237 H 0.7852 0.05836 0.22444 0.0
H2238 H 0.73075 0.05297 0.27882 0.0
H2239 H 0.72889 0.09651 0.28137 0.0
H2240 H 0.79567 0.02435 0.2586 0.0
H2241 H 0.70289 0.01208 0.22558 0.0
H2242 H 0.71754 0.04096 0.22615 0.0
H2243 H 0.70427 0.02893 0.25294 0.0
C2244 C 0.77227 0.09164 0.2387 0.0
C2245 C 0.75647 0.10289 0.25473 0.0
C2246 C 0.77296 0.06663 0.23696 0.0
C2247 C 0.75776 0.05244 0.2511 0.0
C2248 C 0.74228 0.06358 0.26737 0.0
H2249 H 0.73567 0.90298 0.28152 0.0
H2250 H 0.7377 0.94676 0.28134 0.0
C2251 C 0.7415 0.08852 0.26905 0.0
C2252 C 0.7583 0.02594 0.24925 0.0
H2253 H 0.72273 0.97693 0.23967 0.0
C2254 C 0.7798 0.01397 0.25421 0.0
C2255 C 0.73758 0.01245 0.24342 0.0
C2256 C 0.71433 0.02426 0.23648 0.0
C2257 C 0.7809 0.98883 0.2543 0.0
C2258 C 0.76001 0.97542 0.24918 0.0
C2259 C 0.73865 0.98735 0.24379 0.0
C2260 C 0.75979 0.94894 0.24966 0.0
C2261 C 0.80417 0.97669 0.26047 0.0
C2262 C 0.77151 0.93576 0.23184 0.0
C2263 C 0.77016 0.91073 0.23169 0.0
C2264 C 0.75705 0.89845 0.2494 0.0
C2265 C 0.74562 0.91183 0.26742 0.0
C2266 C 0.74687 0.93683 0.26745 0.0
H2267 H 0.81769 0.98953 0.26757 0.0
H2268 H 0.80114 0.96239 0.27397 0.0
H2269 H 0.81157 0.96812 0.24415 0.0
H2270 H 0.78128 0.94486 0.21776 0.0
H2271 H 0.77884 0.90107 0.21731 0.0
H2272 H 0.85128 0.04738 0.00712 0.0
H2273 H 0.80756 0.0512 0.00792 0.0
H2274 H 0.8003 0.97567 0.99317 0.0
H2275 H 0.84371 0.97172 0.99187 0.0
H2276 H 0.77306 0.03808 0.97061 0.0
H2277 H 0.76032 0.98705 0.05491 0.0
H2278 H 0.78883 0.99969 0.04628 0.0
H2279 H 0.77855 0.97209 0.03309 0.0
C2280 C 0.84036 0.03161 0.00391 0.0
C2281 C 0.85102 0.00918 0.9997 0.0
C2282 C 0.81543 0.03383 0.00446 0.0
C2283 C 0.80079 0.01364 0.00097 0.0
C2284 C 0.81133 0.99136 0.99639 0.0
H2285 H 0.65473 0.97059 0.99382 0.0
H2286 H 0.69819 0.97529 0.99337 0.0
C2287 C 0.83616 0.98914 0.99577 0.0
C2288 C 0.77442 0.01561 0.00189 0.0
H2289 H 0.72551 0.99373 0.03119 0.0
C2290 C 0.76259 0.02868 0.984 0.0
C2291 C 0.76093 0.00336 0.01945 0.0
C2292 C 0.77277 0.98992 0.03967 0.0
C2293 C 0.73747 0.02884 0.98254 0.0
C2294 C 0.72401 0.01587 0.99964 0.0
C2295 C 0.7359 0.00352 0.018 0.0
C2296 C 0.69762 0.01375 0.99828 0.0
C2297 C 0.72559 0.04198 0.96217 0.0
C2298 C 0.68287 0.03388 0.00099 0.0
C2299 C 0.65795 0.03123 0.00125 0.0
C2300 C 0.64744 0.00838 0.99908 0.0
C2301 C 0.6623 0.98837 0.99588 0.0
C2302 C 0.68712 0.99104 0.99553 0.0
H2303 H 0.73852 0.04685 0.94786 0.0
H2304 H 0.71105 0.03093 0.95417 0.0
H2305 H 0.71751 0.05874 0.96909 0.0
H2306 H 0.69063 0.05151 0.00356 0.0
H2307 H 0.64695 0.04693 0.004 0.0
H2308 H 0.22266 0.59592 0.76526 0.0
H2309 H 0.22603 0.55233 0.76259 0.0
H2310 H 0.29865 0.55951 0.73766 0.0
H2311 H 0.29551 0.60335 0.74047 0.0
H2312 H 0.24051 0.52528 0.71802 0.0
H2313 H 0.29945 0.51159 0.79748 0.0
H2314 H 0.28098 0.53791 0.79432 0.0
H2315 H 0.30724 0.53464 0.77626 0.0
C2316 C 0.23943 0.58825 0.7594 0.0
C2317 C 0.25888 0.60305 0.75322 0.0
C2318 C 0.24127 0.56337 0.75778 0.0
C2319 C 0.26264 0.55279 0.75014 0.0
C2320 C 0.28209 0.56742 0.74379 0.0
H2321 H 0.29339 0.39874 0.74359 0.0
H2322 H 0.29778 0.44254 0.74348 0.0
C2323 C 0.28021 0.59239 0.74525 0.0
C2324 C 0.26413 0.52641 0.74848 0.0
H2325 H 0.28616 0.4771 0.77701 0.0
C2326 C 0.25062 0.51471 0.73077 0.0
C2327 C 0.27751 0.51279 0.76505 0.0
C2328 C 0.2921 0.52472 0.78448 0.0
C2329 C 0.2498 0.48962 0.72943 0.0
C2330 C 0.26231 0.47591 0.74668 0.0
C2331 C 0.27648 0.48765 0.76391 0.0
C2332 C 0.25996 0.44946 0.74772 0.0
C2333 C 0.23556 0.47806 0.70949 0.0
C2334 C 0.23736 0.43889 0.75087 0.0
C2335 C 0.23481 0.41401 0.75087 0.0
C2336 C 0.25487 0.39916 0.74805 0.0
C2337 C 0.27764 0.40975 0.74587 0.0
C2338 C 0.28016 0.43472 0.7457 0.0
H2339 H 0.23357 0.49032 0.69395 0.0
H2340 H 0.24412 0.46125 0.70325 0.0
H2341 H 0.21737 0.47365 0.71612 0.0
H2342 H 0.22163 0.44991 0.75319 0.0
H2343 H 0.21711 0.40636 0.75309 0.0
H2344 H 0.14756 0.54924 0.5026 0.0
H2345 H 0.1911 0.55469 0.49924 0.0
H2346 H 0.19941 0.4787 0.48816 0.0
H2347 H 0.15611 0.47314 0.49142 0.0
H2348 H 0.22702 0.52898 0.52963 0.0
H2349 H 0.23691 0.51259 0.432 0.0
H2350 H 0.20899 0.52179 0.44539 0.0
H2351 H 0.21858 0.4912 0.44766 0.0
C2352 C 0.1587 0.53378 0.49917 0.0
C2353 C 0.1485 0.51076 0.49731 0.0
C2354 C 0.18349 0.5369 0.49736 0.0
C2355 C 0.19834 0.51712 0.49326 0.0
C2356 C 0.18818 0.4942 0.49109 0.0
H2357 H 0.34378 0.47564 0.48097 0.0
H2358 H 0.3004 0.48052 0.48145 0.0
C2359 C 0.16349 0.49104 0.49312 0.0
C2360 C 0.22462 0.51998 0.49221 0.0
H2361 H 0.27249 0.51142 0.45544 0.0
C2362 C 0.23705 0.52552 0.51337 0.0
C2363 C 0.23748 0.51539 0.47096 0.0
C2364 C 0.22487 0.51009 0.44762 0.0
C2365 C 0.26217 0.52537 0.51413 0.0
C2366 C 0.27508 0.52006 0.49299 0.0
C2367 C 0.26257 0.51542 0.47163 0.0
C2368 C 0.30148 0.51757 0.49292 0.0
C2369 C 0.27461 0.52971 0.53777 0.0
C2370 C 0.31652 0.53684 0.49911 0.0
C2371 C 0.3414 0.53406 0.49893 0.0
C2372 C 0.35162 0.51206 0.49224 0.0
C2373 C 0.33647 0.49289 0.48591 0.0
C2374 C 0.31168 0.49563 0.48625 0.0
H2375 H 0.26211 0.52815 0.55315 0.0
H2376 H 0.28947 0.51683 0.5404 0.0
H2377 H 0.28228 0.54808 0.53793 0.0
H2378 H 0.30905 0.55408 0.50384 0.0
H2379 H 0.35265 0.54922 0.50359 0.0
H2380 H 0.76374 0.70656 0.89917 0.0
H2381 H 0.76313 0.70305 0.94291 0.0
H2382 H 0.72943 0.7722 0.94813 0.0
H2383 H 0.73044 0.77617 0.9046 0.0
H2384 H 0.78452 0.7363 0.97687 0.0
H2385 H 0.68635 0.72684 0.98865 0.0
H2386 H 0.70105 0.72149 0.96035 0.0
H2387 H 0.69536 0.75161 0.97016 0.0
C2388 C 0.75627 0.72107 0.90962 0.0
C2389 C 0.74704 0.74161 0.89832 0.0
C2390 C 0.75583 0.71896 0.93458 0.0
C2391 C 0.74597 0.73723 0.94867 0.0
C2392 C 0.7367 0.7577 0.93751 0.0
H2393 H 0.7256 0.7747 0.09564 0.0
H2394 H 0.72716 0.77113 0.05207 0.0
C2395 C 0.73722 0.75988 0.9126 0.0
C2396 C 0.74606 0.73544 0.97511 0.0
H2397 H 0.70921 0.73494 0.02375 0.0
C2398 C 0.7681 0.73573 0.98719 0.0
C2399 C 0.72459 0.73468 0.98841 0.0
C2400 C 0.70047 0.73342 0.97628 0.0
C2401 C 0.76922 0.73634 0.01233 0.0
C2402 C 0.7477 0.73615 0.02565 0.0
C2403 C 0.72568 0.73517 0.01351 0.0
C2404 C 0.74745 0.73819 0.05213 0.0
C2405 C 0.79336 0.7382 0.02436 0.0
C2406 C 0.75832 0.72081 0.06667 0.0
C2407 C 0.7575 0.72284 0.09165 0.0
C2408 C 0.74552 0.74213 0.10248 0.0
C2409 C 0.73469 0.75947 0.08784 0.0
C2410 C 0.73563 0.7575 0.06294 0.0
H2411 H 0.80757 0.74381 0.01163 0.0
H2412 H 0.7929 0.75119 0.03944 0.0
H2413 H 0.79832 0.72042 0.0317 0.0
H2414 H 0.76712 0.70549 0.05871 0.0
H2415 H 0.76577 0.70907 0.10249 0.0
H2416 H 0.48571 0.53039 0.34754 0.0
H2417 H 0.48719 0.53094 0.30378 0.0
H2418 H 0.52806 0.46557 0.30418 0.0
H2419 H 0.52586 0.46433 0.34791 0.0
H2420 H 0.52549 0.53228 0.2726 0.0
H2421 H 0.47205 0.44906 0.26008 0.0
H2422 H 0.4741 0.46438 0.2885 0.0
H2423 H 0.4981 0.44549 0.27858 0.0
C2424 C 0.49485 0.516 0.33833 0.0
C2425 C 0.50547 0.49719 0.35125 0.0
C2426 C 0.49583 0.51645 0.31333 0.0
C2427 C 0.5074 0.49809 0.30073 0.0
C2428 C 0.51866 0.47968 0.31354 0.0
H2429 H 0.54178 0.50356 0.14802 0.0
H2430 H 0.54413 0.50236 0.19183 0.0
C2431 C 0.51763 0.47917 0.33856 0.0
C2432 C 0.50739 0.49819 0.27417 0.0
H2433 H 0.48878 0.4664 0.22522 0.0
C2434 C 0.51751 0.51788 0.26221 0.0
C2435 C 0.49666 0.47951 0.2607 0.0
C2436 C 0.4844 0.45851 0.27257 0.0
C2437 C 0.51725 0.51937 0.2371 0.0
C2438 C 0.50699 0.50043 0.22362 0.0
C2439 C 0.49683 0.48078 0.23559 0.0
C2440 C 0.50579 0.50102 0.19709 0.0
C2441 C 0.52736 0.5415 0.22528 0.0
C2442 C 0.4835 0.50006 0.1855 0.0
C2443 C 0.48212 0.50057 0.16053 0.0
C2444 C 0.50303 0.50201 0.14662 0.0
C2445 C 0.52536 0.50278 0.15826 0.0
C2446 C 0.52672 0.50215 0.18328 0.0
H2447 H 0.52888 0.55672 0.23806 0.0
H2448 H 0.54554 0.53753 0.21842 0.0
H2449 H 0.51606 0.54713 0.20991 0.0
H2450 H 0.46712 0.49916 0.19583 0.0
H2451 H 0.46464 0.50024 0.15211 0.0
H2452 H 0.72648 0.22866 0.40542 0.0
H2453 H 0.72788 0.23249 0.44896 0.0
H2454 H 0.75752 0.30362 0.44218 0.0
H2455 H 0.75556 0.30021 0.39842 0.0
H2456 H 0.76895 0.24046 0.47671 0.0
H2457 H 0.70164 0.31236 0.4898 0.0
H2458 H 0.70385 0.29537 0.46233 0.0
H2459 H 0.72496 0.3189 0.46862 0.0
C2460 C 0.73292 0.2453 0.41314 0.0
C2461 C 0.74076 0.2642 0.39843 0.0
C2462 C 0.73385 0.24738 0.43804 0.0
C2463 C 0.74253 0.26842 0.44877 0.0
C2464 C 0.75039 0.28737 0.43423 0.0
H2465 H 0.78839 0.27696 0.59781 0.0
H2466 H 0.78593 0.28029 0.55417 0.0
C2467 C 0.7495 0.28529 0.40924 0.0
C2468 C 0.74426 0.26992 0.47521 0.0
H2469 H 0.72277 0.29947 0.52426 0.0
C2470 C 0.75892 0.2534 0.48711 0.0
C2471 C 0.73096 0.28669 0.48869 0.0
C2472 C 0.71429 0.30425 0.47681 0.0
C2473 C 0.76064 0.25316 0.51217 0.0
C2474 C 0.74761 0.27013 0.52566 0.0
C2475 C 0.73289 0.28664 0.5138 0.0
C2476 C 0.74853 0.27036 0.55217 0.0
C2477 C 0.77594 0.23435 0.52405 0.0
C2478 C 0.72809 0.2645 0.56551 0.0
C2479 C 0.72943 0.26253 0.59045 0.0
C2480 C 0.75126 0.26646 0.60246 0.0
C2481 C 0.77144 0.27334 0.58906 0.0
C2482 C 0.77007 0.27532 0.56415 0.0
H2483 H 0.78048 0.21954 0.51156 0.0
H2484 H 0.79291 0.24272 0.53026 0.0
H2485 H 0.76672 0.22667 0.5399 0.0
H2486 H 0.7113 0.26064 0.55655 0.0
H2487 H 0.71361 0.25704 0.60021 0.0
H2488 H 0.02571 0.51932 0.65222 0.0
H2489 H 0.02338 0.52064 0.69593 0.0
H2490 H 0.954 0.48674 0.69335 0.0
H2491 H 0.95578 0.48591 0.64954 0.0
H2492 H 0.98443 0.54171 0.72624 0.0
H2493 H 0.99778 0.44352 0.73765 0.0
H2494 H 0.00624 0.45912 0.71061 0.0
H2495 H 0.97531 0.45291 0.71656 0.0
C2496 C 0.00974 0.51252 0.66086 0.0
C2497 C 0.99093 0.50247 0.64731 0.0
C2498 C 0.00854 0.51315 0.68585 0.0
C2499 C 0.98865 0.50356 0.69778 0.0
C2500 C 0.96964 0.49393 0.68441 0.0
H2501 H 0.96421 0.47983 0.85032 0.0
H2502 H 0.96032 0.48087 0.80665 0.0
C2503 C 0.97075 0.49341 0.6594 0.0
C2504 C 0.98801 0.50339 0.72425 0.0
H2505 H 0.99214 0.46635 0.77267 0.0
C2506 C 0.98604 0.52526 0.73645 0.0
C2507 C 0.98999 0.48186 0.73739 0.0
C2508 C 0.9926 0.45796 0.72501 0.0
C2509 C 0.98598 0.5262 0.76158 0.0
C2510 C 0.9886 0.50471 0.77478 0.0
C2511 C 0.99017 0.48279 0.76253 0.0
C2512 C 0.99052 0.50464 0.80128 0.0
C2513 C 0.98281 0.55015 0.77372 0.0
C2514 C 0.00894 0.51744 0.81273 0.0
C2515 C 0.01105 0.51709 0.83766 0.0
C2516 C 0.99497 0.50366 0.85168 0.0
C2517 C 0.97668 0.49063 0.84012 0.0
C2518 C 0.97452 0.49108 0.81515 0.0
H2519 H 0.97374 0.56319 0.76176 0.0
H2520 H 0.97223 0.54838 0.79045 0.0
H2521 H 0.00064 0.55764 0.77838 0.0
H2522 H 0.02183 0.52759 0.80237 0.0
H2523 H 0.02519 0.52755 0.84594 0.0
H2524 H 0.84344 0.02491 0.51054 0.0
H2525 H 0.80003 0.02005 0.50956 0.0
H2526 H 0.80797 0.94934 0.47944 0.0
H2527 H 0.8516 0.95413 0.48012 0.0
H2528 H 0.77134 0.01127 0.46895 0.0
H2529 H 0.76251 0.93909 0.53704 0.0
H2530 H 0.78933 0.95699 0.53396 0.0
H2531 H 0.7831 0.93332 0.51301 0.0
C2532 C 0.836 0.00837 0.50353 0.0
C2533 C 0.851 0.98994 0.49529 0.0
C2534 C 0.81119 0.00558 0.50313 0.0
C2535 C 0.80083 0.98427 0.49465 0.0
C2536 C 0.81566 0.96577 0.48645 0.0
H2537 H 0.6498 0.9727 0.45588 0.0
H2538 H 0.69349 0.96993 0.45583 0.0
C2539 C 0.84056 0.96854 0.48683 0.0
C2540 C 0.77445 0.98194 0.49375 0.0
H2541 H 0.72705 0.95134 0.51745 0.0
C2542 C 0.76164 0.9981 0.47946 0.0
C2543 C 0.76191 0.96487 0.50767 0.0
C2544 C 0.77482 0.94766 0.52396 0.0
C2545 C 0.73656 0.99776 0.47878 0.0
C2546 C 0.724 0.98056 0.49252 0.0
C2547 C 0.73679 0.96434 0.50679 0.0
C2548 C 0.69754 0.97998 0.49306 0.0
C2549 C 0.72368 0.01626 0.4639 0.0
C2550 C 0.68537 0.98573 0.51424 0.0
C2551 C 0.66042 0.98739 0.51433 0.0
C2552 C 0.64723 0.98324 0.49323 0.0
C2553 C 0.65948 0.97647 0.4723 0.0
C2554 C 0.68441 0.97482 0.47224 0.0
H2555 H 0.7357 0.03122 0.45854 0.0
H2556 H 0.71668 0.00766 0.44736 0.0
H2557 H 0.70827 0.02378 0.47389 0.0
H2558 H 0.69523 0.98976 0.53049 0.0
H2559 H 0.65157 0.99282 0.53069 0.0
loop_
_geom_bond_atom_site_label_1
_geom_bond_atom_site_label_2
_geom_bond_distance
_geom_bond_site_symmetry_2
_ccdc_geom_bond_type
Li0 N17 1.990 . S
Li0 O60 1.956 . S
Li0 O61 1.970 . S
Li0 O62 1.961 . S
Li1 N25 1.990 . S
Li1 O60 1.970 . S
Li1 O61 1.956 . S
Li1 O63 1.961 . S
Li2 N47 1.990 . S
Li2 O60 1.961 . S
Li2 O62 1.956 . S
Li2 O63 1.970 . S
Li3 N53 1.990 . S
Li3 O61 1.961 . S
Li3 O62 1.970 . S
Li3 O63 1.956 . S
C4 C6 1.348 . S
C4 C7 1.356 . S
C4 O60 1.325 . S
N5 C8 1.314 . S
N5 C9 1.279 . S
C6 C4 1.348 . S
C6 C8 1.353 . S
C6 H64 0.929 . S
C7 C4 1.356 . S
C7 C9 1.358 . S
C7 H65 0.930 . S
C8 N5 1.314 . S
C8 C6 1.353 . S
C8 H66 0.930 . S
C9 N5 1.279 . S
C9 C7 1.358 . S
C9 H67 0.930 . S
C10 C13 1.348 . S
C10 C14 1.356 . S
C10 O61 1.325 . S
C11 N12 1.279 . S
C11 C14 1.358 . S
C11 H68 0.930 . S
N12 C11 1.279 . S
N12 C15 1.314 . S
C13 C10 1.348 . S
C13 C15 1.353 . S
C13 H69 0.929 . S
C14 C10 1.356 . S
C14 C11 1.358 . S
C14 H70 0.930 . S
C15 N12 1.314 . S
C15 C13 1.353 . S
C15 H71 0.930 . S
C16 N17 1.314 . S
C16 C21 1.353 . S
C16 H22 0.930 . S
N17 Li0 1.990 . S
N17 C16 1.314 . S
N17 C19 1.279 . S
C18 C19 1.358 . S
C18 C20 1.356 . S
C18 H72 0.930 . S
C19 N17 1.279 . S
C19 C18 1.358 . S
C19 H23 0.930 . S
C20 C18 1.356 . S
C20 C21 1.348 . S
C21 C16 1.353 . S
C21 C20 1.348 . S
C21 H73 0.929 . S
H22 C16 0.930 . S
H23 C19 0.930 . S
C24 N25 1.314 . S
C24 C26 1.353 . S
C24 H30 0.930 . S
N25 Li1 1.990 . S
N25 C24 1.314 . S
N25 C28 1.279 . S
C26 C24 1.353 . S
C26 C29 1.348 . S
C26 H74 0.929 . S
C27 C28 1.358 . S
C27 C29 1.356 . S
C27 H75 0.930 . S
C28 N25 1.279 . S
C28 C27 1.358 . S
C28 H31 0.930 . S
C29 C26 1.348 . S
C29 C27 1.356 . S
H30 C24 0.930 . S
H31 C28 0.930 . S
C32 C34 1.348 . S
C32 C35 1.356 . S
C32 O62 1.325 . S
N33 C36 1.314 . S
N33 C37 1.279 . S
C34 C32 1.348 . S
C34 C36 1.353 . S
C34 H76 0.929 . S
C35 C32 1.356 . S
C35 C37 1.358 . S
C35 H77 0.930 . S
C36 N33 1.314 . S
C36 C34 1.353 . S
C36 H78 0.930 . S
C37 N33 1.279 . S
C37 C35 1.358 . S
C37 H79 0.930 . S
C38 C39 1.348 . S
C38 C40 1.356 . S
C38 O63 1.325 . S
C39 C38 1.348 . S
C39 C41 1.353 . S
C39 H80 0.929 . S
C40 C38 1.356 . S
C40 C42 1.358 . S
C40 H81 0.930 . S
C41 C39 1.353 . S
C41 N43 1.314 . S
C41 H82 0.930 . S
C42 C40 1.358 . S
C42 N43 1.279 . S
C42 H83 0.930 . S
N43 C41 1.314 . S
N43 C42 1.279 . S
C44 C46 1.353 . S
C44 N47 1.314 . S
C44 H50 0.930 . S
C45 N47 1.279 . S
C45 C48 1.358 . S
C45 H51 0.930 . S
C46 C44 1.353 . S
C46 C49 1.348 . S
C46 H84 0.929 . S
N47 Li2 1.990 . S
N47 C44 1.314 . S
N47 C45 1.279 . S
C48 C45 1.358 . S
C48 C49 1.356 . S
C48 H85 0.930 . S
C49 C46 1.348 . S
C49 C48 1.356 . S
H50 C44 0.930 . S
H51 C45 0.930 . S
C52 N53 1.314 . S
C52 C54 1.353 . S
C52 H58 0.930 . S
N53 Li3 1.990 . S
N53 C52 1.314 . S
N53 C56 1.279 . S
C54 C52 1.353 . S
C54 C57 1.348 . S
C54 H86 0.929 . S
C55 C56 1.358 . S
C55 C57 1.356 . S
C55 H87 0.930 . S
C56 N53 1.279 . S
C56 C55 1.358 . S
C56 H59 0.930 . S
C57 C54 1.348 . S
C57 C55 1.356 . S
H58 C52 0.930 . S
H59 C56 0.930 . S
O60 Li0 1.956 . S
O60 Li1 1.970 . S
O60 Li2 1.961 . S
O60 C4 1.325 . S
O61 Li0 1.970 . S
O61 Li1 1.956 . S
O61 Li3 1.961 . S
O61 C10 1.325 . S
O62 Li0 1.961 . S
O62 Li2 1.956 . S
O62 Li3 1.970 . S
O62 C32 1.325 . S
O63 Li1 1.961 . S
O63 Li2 1.970 . S
O63 Li3 1.956 . S
O63 C38 1.325 . S
H64 C6 0.929 . S
H65 C7 0.930 . S
H66 C8 0.930 . S
H67 C9 0.930 . S
H68 C11 0.930 . S
H69 C13 0.929 . S
H70 C14 0.930 . S
H71 C15 0.930 . S
H72 C18 0.930 . S
H73 C21 0.929 . S
H74 C26 0.929 . S
H75 C27 0.930 . S
H76 C34 0.929 . S
H77 C35 0.930 . S
H78 C36 0.930 . S
H79 C37 0.930 . S
H80 C39 0.929 . S
H81 C40 0.930 . S
H82 C41 0.930 . S
H83 C42 0.930 . S
H84 C46 0.929 . S
H85 C48 0.930 . S
H86 C54 0.929 . S
H87 C55 0.930 . S
Li88 N105 1.990 . S
Li88 O148 1.956 . S
Li88 O149 1.970 . S
Li88 O150 1.961 1_655 S
Li89 N113 1.990 . S
Li89 O148 1.970 . S
Li89 O149 1.956 . S
Li89 O151 1.961 1_545 S
Li90 N135 1.990 . S
Li90 O148 1.961 . S
Li90 O150 1.956 1_655 S
Li90 O151 1.970 1_545 S
Li91 N141 1.990 1_645 S
Li91 O149 1.961 . S
Li91 O150 1.970 1_655 S
Li91 O151 1.956 1_545 S
C92 C94 1.348 . S
C92 C95 1.356 . S
C92 O148 1.325 . S
N93 C96 1.314 . S
N93 C97 1.279 . S
C94 C92 1.348 . S
C94 C96 1.353 . S
C94 H152 0.929 . S
C95 C92 1.356 . S
C95 C97 1.358 . S
C95 H153 0.930 . S
C96 N93 1.314 . S
C96 C94 1.353 . S
C96 H154 0.930 . S
C97 N93 1.279 . S
C97 C95 1.358 . S
C97 H155 0.930 . S
C98 C101 1.348 . S
C98 C102 1.356 . S
C98 O149 1.325 . S
C99 N100 1.279 . S
C99 C102 1.358 . S
C99 H156 0.930 . S
N100 C99 1.279 . S
N100 C103 1.314 . S
C101 C98 1.348 . S
C101 C103 1.353 . S
C101 H157 0.929 . S
C102 C98 1.356 . S
C102 C99 1.358 . S
C102 H158 0.978 . S
C103 N100 1.314 . S
C103 C101 1.353 . S
C103 H159 0.930 . S
C104 N105 1.314 1_455 S
C104 C109 1.353 . S
C104 H110 0.930 . S
N105 Li88 1.990 . S
N105 C104 1.314 1_655 S
N105 C107 1.279 . S
C106 C107 1.358 . S
C106 C108 1.356 1_655 S
C106 H160 0.930 . S
C107 N105 1.279 . S
C107 C106 1.358 . S
C107 H111 0.930 . S
C108 C106 1.356 1_455 S
C108 C109 1.348 . S
C109 C104 1.353 . S
C109 C108 1.348 . S
C109 H161 0.929 . S
H110 C104 0.930 . S
H111 C107 0.930 . S
C112 N113 1.314 1_565 S
C112 C114 1.353 . S
C112 H118 0.930 . S
N113 Li89 1.990 . S
N113 C112 1.314 1_545 S
N113 C116 1.279 . S
C114 C112 1.353 . S
C114 C117 1.348 1_565 S
C114 H162 0.929 . S
C115 C116 1.358 . S
C115 C117 1.356 . S
C115 H163 0.930 . S
C116 N113 1.279 . S
C116 C115 1.358 . S
C116 H119 0.930 . S
C117 C114 1.348 1_545 S
C117 C115 1.356 . S
H118 C112 0.930 . S
H119 C116 0.930 . S
C120 C122 1.348 . S
C120 C123 1.356 . S
C120 O150 1.325 . S
N121 C124 1.314 . S
N121 C125 1.279 . S
C122 C120 1.348 . S
C122 C124 1.353 . S
C122 H164 0.896 1_545 S
C123 C120 1.356 . S
C123 C125 1.358 . S
C123 H165 0.930 . S
C124 N121 1.314 . S
C124 C122 1.353 . S
C124 H166 0.930 . S
C125 N121 1.279 . S
C125 C123 1.358 . S
C125 H167 0.930 . S
C126 C127 1.348 . S
C126 C128 1.356 . S
C126 O151 1.325 . S
C127 C126 1.348 . S
C127 C129 1.353 . S
C127 H168 0.929 . S
C128 C126 1.356 . S
C128 C130 1.358 . S
C128 H169 0.930 . S
C129 C127 1.353 . S
C129 N131 1.314 . S
C129 H170 0.930 . S
C130 C128 1.358 . S
C130 N131 1.279 . S
C130 H171 0.930 . S
N131 C129 1.314 . S
N131 C130 1.279 . S
C132 C134 1.353 1_545 S
C132 N135 1.314 . S
C132 H138 0.930 . S
C133 N135 1.279 1_455 S
C133 C136 1.358 1_545 S
C133 H139 0.930 . S
C134 C132 1.353 1_565 S
C134 C137 1.348 . S
C134 H172 0.929 . S
N135 Li90 1.990 . S
N135 C132 1.314 . S
N135 C133 1.279 1_655 S
C136 C133 1.358 1_565 S
C136 C137 1.356 1_455 S
C136 H173 0.930 . S
C137 C134 1.348 . S
C137 C136 1.356 1_655 S
H138 C132 0.930 . S
H139 C133 0.930 . S
C140 N141 1.314 . S
C140 C142 1.353 . S
C140 H146 0.930 1_565 S
N141 Li91 1.990 1_465 S
N141 C140 1.314 . S
N141 C144 1.279 . S
C142 C140 1.353 . S
C142 C145 1.348 . S
C142 H174 0.929 . S
C143 C144 1.358 . S
C143 C145 1.356 . S
C143 H175 0.930 . S
C144 N141 1.279 . S
C144 C143 1.358 . S
C144 H147 0.930 . S
C145 C142 1.348 . S
C145 C143 1.356 . S
H146 C140 0.930 1_545 S
H147 C144 0.930 . S
O148 Li88 1.956 . S
O148 Li89 1.970 . S
O148 Li90 1.961 . S
O148 C92 1.325 . S
O149 Li88 1.970 . S
O149 Li89 1.956 . S
O149 Li91 1.961 . S
O149 C98 1.325 . S
O150 Li88 1.961 1_455 S
O150 Li90 1.956 1_455 S
O150 Li91 1.970 1_455 S
O150 C120 1.325 . S
O151 Li89 1.961 1_565 S
O151 Li90 1.970 1_565 S
O151 Li91 1.956 1_565 S
O151 C126 1.325 . S
H152 C94 0.929 . S
H153 C95 0.930 . S
H154 C96 0.930 . S
H155 C97 0.930 . S
H156 C99 0.930 . S
H157 C101 0.929 . S
H158 C102 0.978 . S
H159 C103 0.930 . S
H160 C106 0.930 . S
H161 C109 0.929 . S
H162 C114 0.929 . S
H163 C115 0.930 . S
H164 C122 0.896 1_565 S
H165 C123 0.930 . S
H166 C124 0.930 . S
H167 C125 0.930 . S
H168 C127 0.929 . S
H169 C128 0.930 . S
H170 C129 0.930 . S
H171 C130 0.930 . S
H172 C134 0.929 . S
H173 C136 0.930 . S
H174 C142 0.929 . S
H175 C143 0.930 . S
Li176 N193 1.990 . S
Li176 O236 1.956 . S
Li176 O237 1.970 . S
Li176 O238 1.961 . S
Li177 N201 1.990 . S
Li177 O236 1.970 . S
Li177 O237 1.956 . S
Li177 O239 1.961 . S
Li178 N223 1.990 . S
Li178 O236 1.961 . S
Li178 O238 1.956 . S
Li178 O239 1.970 . S
Li179 N229 1.990 . S
Li179 O237 1.961 . S
Li179 O238 1.970 . S
Li179 O239 1.956 . S
C180 C182 1.348 . S
C180 C183 1.356 . S
C180 O236 1.325 . S
N181 C184 1.314 . S
N181 C185 1.279 . S
C182 C180 1.348 . S
C182 C184 1.353 . S
C182 H240 0.929 . S
C183 C180 1.356 . S
C183 C185 1.358 . S
C183 H241 0.930 . S
C184 N181 1.314 . S
C184 C182 1.353 . S
C184 H242 0.930 . S
C185 N181 1.279 . S
C185 C183 1.358 . S
C185 H243 0.930 . S
C186 C189 1.348 . S
C186 C190 1.356 . S
C186 O237 1.325 . S
C187 N188 1.279 . S
C187 C190 1.358 . S
C187 H244 0.930 . S
N188 C187 1.279 . S
N188 C191 1.314 . S
C189 C186 1.348 . S
C189 C191 1.353 . S
C189 H245 0.929 . S
C190 C186 1.356 . S
C190 C187 1.358 . S
C190 H246 0.930 . S
C191 N188 1.314 . S
C191 C189 1.353 . S
C191 H247 0.930 . S
C192 N193 1.314 . S
C192 C197 1.353 . S
C192 H198 0.930 . S
N193 Li176 1.990 . S
N193 C192 1.314 . S
N193 C195 1.279 . S
C194 C195 1.358 . S
C194 C196 1.356 . S
C194 H248 0.930 . S
C195 N193 1.279 . S
C195 C194 1.358 . S
C195 H199 0.930 . S
C196 C194 1.356 . S
C196 C197 1.348 . S
C197 C192 1.353 . S
C197 C196 1.348 . S
C197 H249 0.929 . S
H198 C192 0.930 . S
H199 C195 0.930 . S
C200 N201 1.314 . S
C200 C202 1.353 . S
C200 H206 0.930 . S
N201 Li177 1.990 . S
N201 C200 1.314 . S
N201 C204 1.279 . S
C202 C200 1.353 . S
C202 C205 1.348 . S
C202 H250 0.929 . S
C203 C204 1.358 . S
C203 C205 1.356 . S
C203 H251 0.930 . S
C204 N201 1.279 . S
C204 C203 1.358 . S
C204 H207 0.930 . S
C205 C202 1.348 . S
C205 C203 1.356 . S
H206 C200 0.930 . S
H207 C204 0.930 . S
C208 C210 1.348 . S
C208 C211 1.356 . S
C208 O238 1.325 . S
N209 C212 1.314 . S
N209 C213 1.279 . S
C210 C208 1.348 . S
C210 C212 1.353 . S
C210 H252 0.929 . S
C211 C208 1.356 . S
C211 C213 1.358 . S
C211 H253 0.930 . S
C212 N209 1.314 . S
C212 C210 1.353 . S
C212 H254 0.930 . S
C213 N209 1.279 . S
C213 C211 1.358 . S
C213 H255 0.930 . S
C214 C215 1.348 . S
C214 C216 1.356 . S
C214 O239 1.325 . S
C215 C214 1.348 . S
C215 C217 1.353 . S
C215 H256 0.929 . S
C216 C214 1.356 . S
C216 C218 1.358 . S
C216 H257 0.930 . S
C217 C215 1.353 . S
C217 N219 1.314 . S
C217 H258 0.930 . S
C218 C216 1.358 . S
C218 N219 1.279 . S
C218 H259 0.930 . S
N219 C217 1.314 . S
N219 C218 1.279 . S
C220 C222 1.353 . S
C220 N223 1.314 . S
C220 H226 0.930 . S
C221 N223 1.279 . S
C221 C224 1.358 . S
C221 H227 0.930 . S
C222 C220 1.353 . S
C222 C225 1.348 . S
C222 H260 0.929 . S
N223 Li178 1.990 . S
N223 C220 1.314 . S
N223 C221 1.279 . S
C224 C221 1.358 . S
C224 C225 1.356 . S
C224 H261 0.930 . S
C225 C222 1.348 . S
C225 C224 1.356 . S
H226 C220 0.930 . S
H227 C221 0.930 . S
C228 N229 1.314 . S
C228 C230 1.353 . S
C228 H234 0.930 . S
N229 Li179 1.990 . S
N229 C228 1.314 . S
N229 C232 1.279 . S
C230 C228 1.353 . S
C230 C233 1.348 . S
C230 H262 0.929 . S
C231 C232 1.358 . S
C231 C233 1.356 . S
C231 H263 0.930 . S
C232 N229 1.279 . S
C232 C231 1.358 . S
C232 H235 0.930 . S
C233 C230 1.348 . S
C233 C231 1.356 . S
H234 C228 0.930 . S
H235 C232 0.930 . S
O236 Li176 1.956 . S
O236 Li177 1.970 . S
O236 Li178 1.961 . S
O236 C180 1.325 . S
O237 Li176 1.970 . S
O237 Li177 1.956 . S
O237 Li179 1.961 . S
O237 C186 1.325 . S
O238 Li176 1.961 . S
O238 Li178 1.956 . S
O238 Li179 1.970 . S
O238 C208 1.325 . S
O239 Li177 1.961 . S
O239 Li178 1.970 . S
O239 Li179 1.956 . S
O239 C214 1.325 . S
H240 C182 0.929 . S
H241 C183 0.930 . S
H242 C184 0.930 . S
H243 C185 0.930 . S
H244 C187 0.930 . S
H245 C189 0.929 . S
H246 C190 0.930 . S
H247 C191 0.930 . S
H248 C194 0.930 . S
H249 C197 0.929 . S
H250 C202 0.929 . S
H251 C203 0.930 . S
H252 C210 0.929 . S
H253 C211 0.930 . S
H254 C212 0.930 . S
H255 C213 0.930 . S
H256 C215 0.929 . S
H257 C216 0.930 . S
H258 C217 0.930 . S
H259 C218 0.930 . S
H260 C222 0.929 . S
H261 C224 0.930 . S
H262 C230 0.929 . S
H263 C231 0.930 . S
Li264 N281 1.990 . S
Li264 O324 1.956 . S
Li264 O325 1.970 . S
Li264 O326 1.961 1_565 S
Li265 N289 1.990 . S
Li265 O324 1.970 . S
Li265 O325 1.956 . S
Li265 O327 1.961 1_554 S
Li266 N311 1.990 . S
Li266 O324 1.961 . S
Li266 O326 1.956 1_565 S
Li266 O327 1.970 1_554 S
Li267 N317 1.990 1_564 S
Li267 O325 1.961 . S
Li267 O326 1.970 1_565 S
Li267 O327 1.956 1_554 S
C268 C270 1.348 . S
C268 C271 1.356 . S
C268 O324 1.325 . S
N269 C272 1.314 . S
N269 C273 1.279 . S
C270 C268 1.348 . S
C270 C272 1.353 . S
C270 H328 0.929 . S
C271 C268 1.356 . S
C271 C273 1.358 . S
C271 H329 0.930 . S
C272 N269 1.314 . S
C272 C270 1.353 . S
C272 H330 0.930 . S
C273 N269 1.279 . S
C273 C271 1.358 . S
C273 H331 0.930 . S
C274 C277 1.348 . S
C274 C278 1.356 . S
C274 O325 1.325 . S
C275 N276 1.279 . S
C275 C278 1.358 . S
C275 H332 0.930 . S
N276 C275 1.279 . S
N276 C279 1.314 . S
C277 C274 1.348 . S
C277 C279 1.353 . S
C277 H333 0.929 . S
C278 C274 1.356 . S
C278 C275 1.358 . S
C278 H334 0.931 . S
C279 N276 1.314 . S
C279 C277 1.353 . S
C279 H335 0.930 . S
C280 N281 1.314 1_545 S
C280 C285 1.353 . S
C280 H286 0.930 . S
N281 Li264 1.990 . S
N281 C280 1.314 1_565 S
N281 C283 1.279 . S
C282 C283 1.358 . S
C282 C284 1.356 1_565 S
C282 H336 0.930 . S
C283 N281 1.279 . S
C283 C282 1.358 . S
C283 H287 0.930 . S
C284 C282 1.356 1_545 S
C284 C285 1.348 . S
C285 C280 1.353 . S
C285 C284 1.348 . S
C285 H337 0.929 . S
H286 C280 0.930 . S
H287 C283 0.930 . S
C288 N289 1.314 1_556 S
C288 C290 1.353 . S
C288 H294 0.930 . S
N289 Li265 1.990 . S
N289 C288 1.314 1_554 S
N289 C292 1.279 . S
C290 C288 1.353 . S
C290 C293 1.348 1_556 S
C290 H338 0.929 . S
C291 C292 1.358 . S
C291 C293 1.356 . S
C291 H339 0.930 . S
C292 N289 1.279 . S
C292 C291 1.358 . S
C292 H295 0.930 . S
C293 C290 1.348 1_554 S
C293 C291 1.356 . S
H294 C288 0.930 . S
H295 C292 0.930 . S
C296 C298 1.348 . S
C296 C299 1.356 . S
C296 O326 1.325 . S
N297 C300 1.314 . S
N297 C301 1.279 . S
C298 C296 1.348 . S
C298 C300 1.353 . S
C298 H340 0.929 1_554 S
C299 C296 1.356 . S
C299 C301 1.358 . S
C299 H341 0.930 . S
C300 N297 1.314 . S
C300 C298 1.353 . S
C300 H342 0.930 . S
C301 N297 1.279 . S
C301 C299 1.358 . S
C301 H343 0.930 . S
C302 C303 1.348 . S
C302 C304 1.356 . S
C302 O327 1.325 . S
C303 C302 1.348 . S
C303 C305 1.353 . S
C303 H344 0.929 . S
C304 C302 1.356 . S
C304 C306 1.358 . S
C304 H345 0.930 . S
C305 C303 1.353 . S
C305 N307 1.314 . S
C305 H346 0.930 . S
C306 C304 1.358 . S
C306 N307 1.279 . S
C306 H347 0.930 . S
N307 C305 1.314 . S
N307 C306 1.279 . S
C308 C310 1.353 1_554 S
C308 N311 1.314 . S
C308 H314 0.930 . S
C309 N311 1.279 1_545 S
C309 C312 1.358 1_554 S
C309 H315 0.930 . S
C310 C308 1.353 1_556 S
C310 C313 1.348 . S
C310 H348 0.929 . S
N311 Li266 1.990 . S
N311 C308 1.314 . S
N311 C309 1.279 1_565 S
C312 C309 1.358 1_556 S
C312 C313 1.356 1_545 S
C312 H349 0.930 . S
C313 C310 1.348 . S
C313 C312 1.356 1_565 S
H314 C308 0.930 . S
H315 C309 0.930 . S
C316 N317 1.314 . S
C316 C318 1.353 . S
C316 H322 0.930 1_556 S
N317 Li267 1.990 1_546 S
N317 C316 1.314 . S
N317 C320 1.279 . S
C318 C316 1.353 . S
C318 C321 1.348 . S
C318 H350 0.929 . S
C319 C320 1.358 . S
C319 C321 1.356 . S
C319 H351 0.930 . S
C320 N317 1.279 . S
C320 C319 1.358 . S
C320 H323 0.930 . S
C321 C318 1.348 . S
C321 C319 1.356 . S
H322 C316 0.930 1_554 S
H323 C320 0.930 . S
O324 Li264 1.956 . S
O324 Li265 1.970 . S
O324 Li266 1.961 . S
O324 C268 1.325 . S
O325 Li264 1.970 . S
O325 Li265 1.956 . S
O325 Li267 1.961 . S
O325 C274 1.325 . S
O326 Li264 1.961 1_545 S
O326 Li266 1.956 1_545 S
O326 Li267 1.970 1_545 S
O326 C296 1.325 . S
O327 Li265 1.961 1_556 S
O327 Li266 1.970 1_556 S
O327 Li267 1.956 1_556 S
O327 C302 1.325 . S
H328 C270 0.929 . S
H329 C271 0.930 . S
H330 C272 0.930 . S
H331 C273 0.930 . S
H332 C275 0.930 . S
H333 C277 0.929 . S
H334 C278 0.931 . S
H335 C279 0.930 . S
H336 C282 0.930 . S
H337 C285 0.929 . S
H338 C290 0.929 . S
H339 C291 0.930 . S
H340 C298 0.929 1_556 S
H341 C299 0.930 . S
H342 C300 0.930 . S
H343 C301 0.930 . S
H344 C303 0.929 . S
H345 C304 0.930 . S
H346 C305 0.930 . S
H347 C306 0.930 . S
H348 C310 0.929 . S
H349 C312 0.930 . S
H350 C318 0.929 . S
H351 C319 0.930 . S
Li352 N369 1.990 . S
Li352 O412 1.956 . S
Li352 O413 1.970 . S
Li352 O414 1.961 . S
Li353 N377 1.990 . S
Li353 O412 1.970 . S
Li353 O413 1.956 . S
Li353 O415 1.961 . S
Li354 N399 1.990 . S
Li354 O412 1.961 . S
Li354 O414 1.956 . S
Li354 O415 1.970 . S
Li355 N405 1.990 . S
Li355 O413 1.961 . S
Li355 O414 1.970 . S
Li355 O415 1.956 . S
C356 C358 1.348 . S
C356 C359 1.356 . S
C356 O412 1.325 . S
N357 C360 1.314 . S
N357 C361 1.279 . S
C358 C356 1.348 . S
C358 C360 1.353 . S
C358 H416 0.929 . S
C359 C356 1.356 . S
C359 C361 1.358 . S
C359 H417 0.930 . S
C360 N357 1.314 . S
C360 C358 1.353 . S
C360 H418 0.930 . S
C361 N357 1.279 . S
C361 C359 1.358 . S
C361 H419 0.930 . S
C362 C365 1.348 . S
C362 C366 1.356 . S
C362 O413 1.325 . S
C363 N364 1.279 . S
C363 C366 1.358 . S
C363 H420 0.930 . S
N364 C363 1.279 . S
N364 C367 1.314 . S
C365 C362 1.348 . S
C365 C367 1.353 . S
C365 H421 0.929 . S
C366 C362 1.356 . S
C366 C363 1.358 . S
C366 H422 0.930 . S
C367 N364 1.314 . S
C367 C365 1.353 . S
C367 H423 0.930 . S
C368 N369 1.314 . S
C368 C373 1.353 . S
C368 H374 0.930 . S
N369 Li352 1.990 . S
N369 C368 1.314 . S
N369 C371 1.279 . S
C370 C371 1.358 . S
C370 C372 1.356 . S
C370 H424 0.930 . S
C371 N369 1.279 . S
C371 C370 1.358 . S
C371 H375 0.930 . S
C372 C370 1.356 . S
C372 C373 1.348 . S
C373 C368 1.353 . S
C373 C372 1.348 . S
C373 H425 0.929 . S
H374 C368 0.930 . S
H375 C371 0.930 . S
C376 N377 1.314 . S
C376 C378 1.353 . S
C376 H382 0.930 . S
N377 Li353 1.990 . S
N377 C376 1.314 . S
N377 C380 1.279 . S
C378 C376 1.353 . S
C378 C381 1.348 . S
C378 H426 0.929 . S
C379 C380 1.358 . S
C379 C381 1.356 . S
C379 H427 0.930 . S
C380 N377 1.279 . S
C380 C379 1.358 . S
C380 H383 0.930 . S
C381 C378 1.348 . S
C381 C379 1.356 . S
H382 C376 0.930 . S
H383 C380 0.930 . S
C384 C386 1.348 . S
C384 C387 1.356 . S
C384 O414 1.325 . S
N385 C388 1.314 . S
N385 C389 1.279 . S
C386 C384 1.348 . S
C386 C388 1.353 . S
C386 H428 0.929 . S
C387 C384 1.356 . S
C387 C389 1.358 . S
C387 H429 0.930 . S
C388 N385 1.314 . S
C388 C386 1.353 . S
C388 H430 0.930 . S
C389 N385 1.279 . S
C389 C387 1.358 . S
C389 H431 0.930 . S
C390 C391 1.348 . S
C390 C392 1.356 . S
C390 O415 1.325 . S
C391 C390 1.348 . S
C391 C393 1.353 . S
C391 H432 0.929 . S
C392 C390 1.356 . S
C392 C394 1.358 . S
C392 H433 0.930 . S
C393 C391 1.353 . S
C393 N395 1.314 . S
C393 H434 0.930 . S
C394 C392 1.358 . S
C394 N395 1.279 . S
C394 H435 0.930 . S
N395 C393 1.314 . S
N395 C394 1.279 . S
C396 C398 1.353 . S
C396 N399 1.314 . S
C396 H402 0.930 . S
C397 N399 1.279 . S
C397 C400 1.358 . S
C397 H403 0.930 . S
C398 C396 1.353 . S
C398 C401 1.348 . S
C398 H436 0.929 . S
N399 Li354 1.990 . S
N399 C396 1.314 . S
N399 C397 1.279 . S
C400 C397 1.358 . S
C400 C401 1.356 . S
C400 H437 0.930 . S
C401 C398 1.348 . S
C401 C400 1.356 . S
H402 C396 0.930 . S
H403 C397 0.930 . S
C404 N405 1.314 . S
C404 C406 1.353 . S
C404 H410 0.930 . S
N405 Li355 1.990 . S
N405 C404 1.314 . S
N405 C408 1.279 . S
C406 C404 1.353 . S
C406 C409 1.348 . S
C406 H438 0.929 . S
C407 C408 1.358 . S
C407 C409 1.356 . S
C407 H439 0.930 . S
C408 N405 1.279 . S
C408 C407 1.358 . S
C408 H411 0.930 . S
C409 C406 1.348 . S
C409 C407 1.356 . S
H410 C404 0.930 . S
H411 C408 0.930 . S
O412 Li352 1.956 . S
O412 Li353 1.970 . S
O412 Li354 1.961 . S
O412 C356 1.325 . S
O413 Li352 1.970 . S
O413 Li353 1.956 . S
O413 Li355 1.961 . S
O413 C362 1.325 . S
O414 Li352 1.961 . S
O414 Li354 1.956 . S
O414 Li355 1.970 . S
O414 C384 1.325 . S
O415 Li353 1.961 . S
O415 Li354 1.970 . S
O415 Li355 1.956 . S
O415 C390 1.325 . S
H416 C358 0.929 . S
H417 C359 0.930 . S
H418 C360 0.930 . S
H419 C361 0.930 . S
H420 C363 0.930 . S
H421 C365 0.929 . S
H422 C366 0.930 . S
H423 C367 0.930 . S
H424 C370 0.930 . S
H425 C373 0.929 . S
H426 C378 0.929 . S
H427 C379 0.930 . S
H428 C386 0.929 . S
H429 C387 0.930 . S
H430 C388 0.930 . S
H431 C389 0.930 . S
H432 C391 0.929 . S
H433 C392 0.930 . S
H434 C393 0.930 . S
H435 C394 0.930 . S
H436 C398 0.929 . S
H437 C400 0.930 . S
H438 C406 0.929 . S
H439 C407 0.930 . S
Li440 N457 1.990 . S
Li440 O500 1.956 . S
Li440 O501 1.970 . S
Li440 O502 1.961 1_545 S
Li441 N465 1.990 . S
Li441 O500 1.970 . S
Li441 O501 1.956 . S
Li441 O503 1.961 . S
Li442 N487 1.990 1_545 S
Li442 O500 1.961 . S
Li442 O502 1.956 1_545 S
Li442 O503 1.970 . S
Li443 N493 1.990 . S
Li443 O501 1.961 . S
Li443 O502 1.970 1_545 S
Li443 O503 1.956 . S
C444 C446 1.348 . S
C444 C447 1.356 . S
C444 O500 1.325 . S
N445 C448 1.314 . S
N445 C449 1.279 . S
C446 C444 1.348 . S
C446 C448 1.353 . S
C446 H504 0.929 . S
C447 C444 1.356 . S
C447 C449 1.358 . S
C447 H505 0.930 . S
C448 N445 1.314 . S
C448 C446 1.353 . S
C448 H506 0.930 . S
C449 N445 1.279 . S
C449 C447 1.358 . S
C449 H507 0.930 . S
C450 C453 1.348 . S
C450 C454 1.356 . S
C450 O501 1.325 . S
C451 N452 1.279 . S
C451 C454 1.358 . S
C451 H508 0.930 . S
N452 C451 1.279 . S
N452 C455 1.314 . S
C453 C450 1.348 . S
C453 C455 1.353 . S
C453 H509 0.929 . S
C454 C450 1.356 . S
C454 C451 1.358 . S
C454 H510 0.930 . S
C455 N452 1.314 . S
C455 C453 1.353 . S
C455 H511 0.930 . S
C456 N457 1.314 1_565 S
C456 C461 1.353 . S
C456 H462 0.930 . S
N457 Li440 1.990 . S
N457 C456 1.314 1_545 S
N457 C459 1.279 . S
C458 C459 1.358 . S
C458 C460 1.356 . S
C458 H512 0.930 . S
C459 N457 1.279 . S
C459 C458 1.358 . S
C459 H463 0.930 . S
C460 C458 1.356 . S
C460 C461 1.348 1_545 S
C461 C456 1.353 . S
C461 C460 1.348 1_565 S
C461 H513 0.929 . S
H462 C456 0.930 . S
H463 C459 0.930 . S
C464 N465 1.314 . S
C464 C466 1.353 . S
C464 H470 0.930 . S
N465 Li441 1.990 . S
N465 C464 1.314 . S
N465 C468 1.279 . S
C466 C464 1.353 . S
C466 C469 1.348 . S
C466 H514 0.929 . S
C467 C468 1.358 . S
C467 C469 1.356 . S
C467 H515 0.930 . S
C468 N465 1.279 . S
C468 C467 1.358 . S
C468 H471 0.930 . S
C469 C466 1.348 . S
C469 C467 1.356 . S
H470 C464 0.930 . S
H471 C468 0.930 . S
C472 C474 1.348 . S
C472 C475 1.356 . S
C472 O502 1.325 . S
N473 C476 1.314 . S
N473 C477 1.279 . S
C474 C472 1.348 . S
C474 C476 1.353 . S
C474 H516 0.929 . S
C475 C472 1.356 . S
C475 C477 1.358 . S
C475 H517 0.930 . S
C476 N473 1.314 . S
C476 C474 1.353 . S
C476 H518 0.930 . S
C477 N473 1.279 . S
C477 C475 1.358 . S
C477 H519 0.930 . S
C478 C479 1.348 . S
C478 C480 1.356 . S
C478 O503 1.325 . S
C479 C478 1.348 . S
C479 C481 1.353 . S
C479 H520 0.929 1_545 S
C480 C478 1.356 . S
C480 C482 1.358 . S
C480 H521 0.930 . S
C481 C479 1.353 . S
C481 N483 1.314 . S
C481 H522 0.930 . S
C482 C480 1.358 . S
C482 N483 1.279 . S
C482 H523 0.930 . S
N483 C481 1.314 . S
N483 C482 1.279 . S
C484 C486 1.353 . S
C484 N487 1.314 . S
C484 H490 0.930 1_565 S
C485 N487 1.279 . S
C485 C488 1.358 . S
C485 H491 0.930 . S
C486 C484 1.353 . S
C486 C489 1.348 . S
C486 H524 0.929 . S
N487 Li442 1.990 1_565 S
N487 C484 1.314 . S
N487 C485 1.279 . S
C488 C485 1.358 . S
C488 C489 1.356 . S
C488 H525 0.930 . S
C489 C486 1.348 . S
C489 C488 1.356 . S
H490 C484 0.930 1_545 S
H491 C485 0.930 . S
C492 N493 1.314 . S
C492 C494 1.353 1_545 S
C492 H498 0.930 . S
N493 Li443 1.990 . S
N493 C492 1.314 . S
N493 C496 1.279 . S
C494 C492 1.353 1_565 S
C494 C497 1.348 . S
C494 H526 0.929 . S
C495 C496 1.358 1_565 S
C495 C497 1.356 . S
C495 H527 0.930 . S
C496 N493 1.279 . S
C496 C495 1.358 1_545 S
C496 H499 0.930 . S
C497 C494 1.348 . S
C497 C495 1.356 . S
H498 C492 0.930 . S
H499 C496 0.930 . S
O500 Li440 1.956 . S
O500 Li441 1.970 . S
O500 Li442 1.961 . S
O500 C444 1.325 . S
O501 Li440 1.970 . S
O501 Li441 1.956 . S
O501 Li443 1.961 . S
O501 C450 1.325 . S
O502 Li440 1.961 1_565 S
O502 Li442 1.956 1_565 S
O502 Li443 1.970 1_565 S
O502 C472 1.325 . S
O503 Li441 1.961 . S
O503 Li442 1.970 . S
O503 Li443 1.956 . S
O503 C478 1.325 . S
H504 C446 0.929 . S
H505 C447 0.930 . S
H506 C448 0.930 . S
H507 C449 0.930 . S
H508 C451 0.930 . S
H509 C453 0.929 . S
H510 C454 0.930 . S
H511 C455 0.930 . S
H512 C458 0.930 . S
H513 C461 0.929 . S
H514 C466 0.929 . S
H515 C467 0.930 . S
H516 C474 0.929 . S
H517 C475 0.930 . S
H518 C476 0.930 . S
H519 C477 0.930 . S
H520 C479 0.929 1_565 S
H521 C480 0.930 . S
H522 C481 0.930 . S
H523 C482 0.930 . S
H524 C486 0.929 . S
H525 C488 0.930 . S
H526 C494 0.929 . S
H527 C495 0.930 . S
Li528 N545 1.990 . S
Li528 O588 1.956 . S
Li528 O589 1.970 . S
Li528 O590 1.961 . S
Li529 N553 1.990 . S
Li529 O588 1.970 . S
Li529 O589 1.956 . S
Li529 O591 1.961 . S
Li530 N575 1.990 . S
Li530 O588 1.961 . S
Li530 O590 1.956 . S
Li530 O591 1.970 . S
Li531 N581 1.990 . S
Li531 O589 1.961 . S
Li531 O590 1.970 . S
Li531 O591 1.956 . S
C532 C534 1.348 . S
C532 C535 1.356 . S
C532 O588 1.325 . S
N533 C536 1.314 . S
N533 C537 1.279 . S
C534 C532 1.348 . S
C534 C536 1.353 . S
C534 H592 0.929 . S
C535 C532 1.356 . S
C535 C537 1.358 . S
C535 H593 0.930 . S
C536 N533 1.314 . S
C536 C534 1.353 . S
C536 H594 0.930 . S
C537 N533 1.279 . S
C537 C535 1.358 . S
C537 H595 0.930 . S
C538 C541 1.348 . S
C538 C542 1.356 . S
C538 O589 1.325 . S
C539 N540 1.279 . S
C539 C542 1.358 . S
C539 H596 0.930 . S
N540 C539 1.279 . S
N540 C543 1.314 . S
C541 C538 1.348 . S
C541 C543 1.353 . S
C541 H597 0.929 . S
C542 C538 1.356 . S
C542 C539 1.358 . S
C542 H598 0.930 . S
C543 N540 1.314 . S
C543 C541 1.353 . S
C543 H599 0.930 . S
C544 N545 1.314 . S
C544 C549 1.353 . S
C544 H550 0.930 . S
N545 Li528 1.990 . S
N545 C544 1.314 . S
N545 C547 1.279 . S
C546 C547 1.358 . S
C546 C548 1.356 . S
C546 H600 0.930 . S
C547 N545 1.279 . S
C547 C546 1.358 . S
C547 H551 0.930 . S
C548 C546 1.356 . S
C548 C549 1.348 . S
C549 C544 1.353 . S
C549 C548 1.348 . S
C549 H601 0.929 . S
H550 C544 0.930 . S
H551 C547 0.930 . S
C552 N553 1.314 . S
C552 C554 1.353 . S
C552 H558 0.930 . S
N553 Li529 1.990 . S
N553 C552 1.314 . S
N553 C556 1.279 . S
C554 C552 1.353 . S
C554 C557 1.348 . S
C554 H602 0.929 . S
C555 C556 1.358 . S
C555 C557 1.356 . S
C555 H603 0.930 . S
C556 N553 1.279 . S
C556 C555 1.358 . S
C556 H559 0.930 . S
C557 C554 1.348 . S
C557 C555 1.356 . S
H558 C552 0.930 . S
H559 C556 0.930 . S
C560 C562 1.348 . S
C560 C563 1.356 . S
C560 O590 1.325 . S
N561 C564 1.314 . S
N561 C565 1.279 . S
C562 C560 1.348 . S
C562 C564 1.353 . S
C562 H604 0.929 . S
C563 C560 1.356 . S
C563 C565 1.358 . S
C563 H605 0.930 . S
C564 N561 1.314 . S
C564 C562 1.353 . S
C564 H606 0.930 . S
C565 N561 1.279 . S
C565 C563 1.358 . S
C565 H607 0.930 . S
C566 C567 1.348 . S
C566 C568 1.356 . S
C566 O591 1.325 . S
C567 C566 1.348 . S
C567 C569 1.353 . S
C567 H608 0.929 . S
C568 C566 1.356 . S
C568 C570 1.358 . S
C568 H609 0.930 . S
C569 C567 1.353 . S
C569 N571 1.314 . S
C569 H610 0.930 . S
C570 C568 1.358 . S
C570 N571 1.279 . S
C570 H611 0.930 . S
N571 C569 1.314 . S
N571 C570 1.279 . S
C572 C574 1.353 . S
C572 N575 1.314 . S
C572 H578 0.930 . S
C573 N575 1.279 . S
C573 C576 1.358 . S
C573 H579 0.930 . S
C574 C572 1.353 . S
C574 C577 1.348 . S
C574 H612 0.929 . S
N575 Li530 1.990 . S
N575 C572 1.314 . S
N575 C573 1.279 . S
C576 C573 1.358 . S
C576 C577 1.356 . S
C576 H613 0.930 . S
C577 C574 1.348 . S
C577 C576 1.356 . S
H578 C572 0.930 . S
H579 C573 0.930 . S
C580 N581 1.314 . S
C580 C582 1.353 . S
C580 H586 0.930 . S
N581 Li531 1.990 . S
N581 C580 1.314 . S
N581 C584 1.279 . S
C582 C580 1.353 . S
C582 C585 1.348 . S
C582 H614 0.929 . S
C583 C584 1.358 . S
C583 C585 1.356 . S
C583 H615 0.930 . S
C584 N581 1.279 . S
C584 C583 1.358 . S
C584 H587 0.930 . S
C585 C582 1.348 . S
C585 C583 1.356 . S
H586 C580 0.930 . S
H587 C584 0.930 . S
O588 Li528 1.956 . S
O588 Li529 1.970 . S
O588 Li530 1.961 . S
O588 C532 1.325 . S
O589 Li528 1.970 . S
O589 Li529 1.956 . S
O589 Li531 1.961 . S
O589 C538 1.325 . S
O590 Li528 1.961 . S
O590 Li530 1.956 . S
O590 Li531 1.970 . S
O590 C560 1.325 . S
O591 Li529 1.961 . S
O591 Li530 1.970 . S
O591 Li531 1.956 . S
O591 C566 1.325 . S
H592 C534 0.929 . S
H593 C535 0.930 . S
H594 C536 0.930 . S
H595 C537 0.930 . S
H596 C539 0.930 . S
H597 C541 0.929 . S
H598 C542 0.930 . S
H599 C543 0.930 . S
H600 C546 0.930 . S
H601 C549 0.929 . S
H602 C554 0.929 . S
H603 C555 0.930 . S
H604 C562 0.929 . S
H605 C563 0.930 . S
H606 C564 0.930 . S
H607 C565 0.930 . S
H608 C567 0.929 . S
H609 C568 0.930 . S
H610 C569 0.930 . S
H611 C570 0.930 . S
H612 C574 0.929 . S
H613 C576 0.930 . S
H614 C582 0.929 . S
H615 C583 0.930 . S
Li616 N633 1.990 . S
Li616 O676 1.956 1_655 S
Li616 O677 1.970 1_565 S
Li616 O678 1.961 . S
Li617 N641 1.990 1_666 S
Li617 O676 1.970 1_655 S
Li617 O677 1.956 1_565 S
Li617 O679 1.961 1_556 S
Li618 N663 1.990 . S
Li618 O676 1.961 1_655 S
Li618 O678 1.956 . S
Li618 O679 1.970 1_556 S
Li619 N669 1.990 . S
Li619 O677 1.961 1_565 S
Li619 O678 1.970 . S
Li619 O679 1.956 1_556 S
C620 C622 1.348 . S
C620 C623 1.356 . S
C620 O676 1.325 . S
N621 C624 1.314 . S
N621 C625 1.279 . S
C622 C620 1.348 . S
C622 C624 1.353 . S
C622 H680 0.902 1_565 S
C623 C620 1.356 . S
C623 C625 1.358 . S
C623 H681 0.930 . S
C624 N621 1.314 . S
C624 C622 1.353 . S
C624 H682 0.930 . S
C625 N621 1.279 . S
C625 C623 1.358 . S
C625 H683 0.930 . S
C626 C629 1.348 . S
C626 C630 1.356 . S
C626 O677 1.325 . S
C627 N628 1.279 . S
C627 C630 1.358 . S
C627 H684 0.930 . S
N628 C627 1.279 . S
N628 C631 1.314 . S
C629 C626 1.348 . S
C629 C631 1.353 . S
C629 H685 0.929 . S
C630 C626 1.356 . S
C630 C627 1.358 . S
C630 H686 0.930 1_556 S
C631 N628 1.314 . S
C631 C629 1.353 . S
C631 H687 0.930 . S
C632 N633 1.314 . S
C632 C637 1.353 1_565 S
C632 H638 0.930 . S
N633 Li616 1.990 . S
N633 C632 1.314 . S
N633 C635 1.279 1_655 S
C634 C635 1.358 1_545 S
C634 C636 1.356 1_455 S
C634 H688 0.930 . S
C635 N633 1.279 1_455 S
C635 C634 1.358 1_565 S
C635 H639 0.930 . S
C636 C634 1.356 1_655 S
C636 C637 1.348 . S
C637 C632 1.353 1_545 S
C637 C636 1.348 . S
C637 H689 0.929 . S
H638 C632 0.930 . S
H639 C635 0.930 . S
C640 N641 1.314 . S
C640 C642 1.353 . S
C640 H646 0.930 1_545 S
N641 Li617 1.990 1_444 S
N641 C640 1.314 . S
N641 C644 1.279 . S
C642 C640 1.353 . S
C642 C645 1.348 . S
C642 H690 0.929 . S
C643 C644 1.358 . S
C643 C645 1.356 . S
C643 H691 0.930 . S
C644 N641 1.279 . S
C644 C643 1.358 . S
C644 H647 0.930 . S
C645 C642 1.348 . S
C645 C643 1.356 . S
H646 C640 0.930 1_565 S
H647 C644 0.930 . S
C648 C650 1.348 . S
C648 C651 1.356 . S
C648 O678 1.325 . S
N649 C652 1.314 . S
N649 C653 1.279 . S
C650 C648 1.348 . S
C650 C652 1.353 . S
C650 H692 0.929 . S
C651 C648 1.356 . S
C651 C653 1.358 . S
C651 H693 0.930 . S
C652 N649 1.314 . S
C652 C650 1.353 . S
C652 H694 0.930 . S
C653 N649 1.279 . S
C653 C651 1.358 . S
C653 H695 0.930 . S
C654 C655 1.348 . S
C654 C656 1.356 . S
C654 O679 1.325 . S
C655 C654 1.348 . S
C655 C657 1.353 . S
C655 H696 0.929 . S
C656 C654 1.356 . S
C656 C658 1.358 . S
C656 H697 0.930 . S
C657 C655 1.353 . S
C657 N659 1.314 . S
C657 H698 0.930 . S
C658 C656 1.358 . S
C658 N659 1.279 . S
C658 H699 0.930 . S
N659 C657 1.314 . S
N659 C658 1.279 . S
C660 C662 1.350 1_556 S
C660 N663 1.314 1_455 S
C660 H666 0.922 1_556 S
C661 N663 1.279 . S
C661 C664 1.358 . S
C661 H667 0.930 . S
C662 C660 1.350 1_554 S
C662 C665 1.344 1_554 S
C662 H700 0.936 . S
N663 Li618 1.990 . S
N663 C660 1.314 1_655 S
N663 C661 1.279 . S
C664 C661 1.358 . S
C664 C665 1.356 1_655 S
C664 H701 0.930 . S
C665 C662 1.344 1_556 S
C665 C664 1.356 1_455 S
H666 C660 0.922 1_554 S
H667 C661 0.930 . S
C668 N669 1.314 1_545 S
C668 C670 1.353 . S
C668 H674 0.930 . S
N669 Li619 1.990 . S
N669 C668 1.314 1_565 S
N669 C672 1.279 1_556 S
C670 C668 1.353 . S
C670 C673 1.348 1_546 S
C670 H702 0.929 . S
C671 C672 1.358 . S
C671 C673 1.356 . S
C671 H703 0.930 . S
C672 N669 1.279 1_554 S
C672 C671 1.358 . S
C672 H675 0.930 . S
C673 C670 1.348 1_564 S
C673 C671 1.356 . S
H674 C668 0.930 . S
H675 C672 0.930 . S
O676 Li616 1.956 1_455 S
O676 Li617 1.970 1_455 S
O676 Li618 1.961 1_455 S
O676 C620 1.325 . S
O677 Li616 1.970 1_545 S
O677 Li617 1.956 1_545 S
O677 Li619 1.961 1_545 S
O677 C626 1.325 . S
O678 Li616 1.961 . S
O678 Li618 1.956 . S
O678 Li619 1.970 . S
O678 C648 1.325 . S
O679 Li617 1.961 1_554 S
O679 Li618 1.970 1_554 S
O679 Li619 1.956 1_554 S
O679 C654 1.325 . S
H680 C622 0.902 1_545 S
H681 C623 0.930 . S
H682 C624 0.930 . S
H683 C625 0.930 . S
H684 C627 0.930 . S
H685 C629 0.929 . S
H686 C630 0.930 1_554 S
H687 C631 0.930 . S
H688 C634 0.930 . S
H689 C637 0.929 . S
H690 C642 0.929 . S
H691 C643 0.930 . S
H692 C650 0.929 . S
H693 C651 0.930 . S
H694 C652 0.930 . S
H695 C653 0.930 . S
H696 C655 0.929 . S
H697 C656 0.930 . S
H698 C657 0.930 . S
H699 C658 0.930 . S
H700 C662 0.936 . S
H701 C664 0.930 . S
H702 C670 0.929 . S
H703 C671 0.930 . S
Li704 N721 1.990 . S
Li704 O764 1.956 . S
Li704 O765 1.970 . S
Li704 O766 1.961 . S
Li705 N729 1.990 . S
Li705 O764 1.970 . S
Li705 O765 1.956 . S
Li705 O767 1.961 . S
Li706 N751 1.990 . S
Li706 O764 1.961 . S
Li706 O766 1.956 . S
Li706 O767 1.970 . S
Li707 N757 1.990 . S
Li707 O765 1.961 . S
Li707 O766 1.970 . S
Li707 O767 1.956 . S
C708 C710 1.348 . S
C708 C711 1.356 . S
C708 O764 1.325 . S
N709 C712 1.314 . S
N709 C713 1.279 . S
C710 C708 1.348 . S
C710 C712 1.353 . S
C710 H768 0.929 . S
C711 C708 1.356 . S
C711 C713 1.358 . S
C711 H769 0.930 . S
C712 N709 1.314 . S
C712 C710 1.353 . S
C712 H770 0.930 . S
C713 N709 1.279 . S
C713 C711 1.358 . S
C713 H771 0.930 . S
C714 C717 1.348 . S
C714 C718 1.356 . S
C714 O765 1.325 . S
C715 N716 1.279 . S
C715 C718 1.358 . S
C715 H772 0.930 . S
N716 C715 1.279 . S
N716 C719 1.314 . S
C717 C714 1.348 . S
C717 C719 1.353 . S
C717 H773 0.929 . S
C718 C714 1.356 . S
C718 C715 1.358 . S
C718 H774 0.930 . S
C719 N716 1.314 . S
C719 C717 1.353 . S
C719 H775 0.930 . S
C720 N721 1.314 . S
C720 C725 1.353 . S
C720 H726 0.930 . S
N721 Li704 1.990 . S
N721 C720 1.314 . S
N721 C723 1.279 . S
C722 C723 1.358 . S
C722 C724 1.356 . S
C722 H776 0.930 . S
C723 N721 1.279 . S
C723 C722 1.358 . S
C723 H727 0.930 . S
C724 C722 1.356 . S
C724 C725 1.348 . S
C725 C720 1.353 . S
C725 C724 1.348 . S
C725 H777 0.929 . S
H726 C720 0.930 . S
H727 C723 0.930 . S
C728 N729 1.314 . S
C728 C730 1.353 . S
C728 H734 0.930 . S
N729 Li705 1.990 . S
N729 C728 1.314 . S
N729 C732 1.279 . S
C730 C728 1.353 . S
C730 C733 1.348 . S
C730 H778 0.929 . S
C731 C732 1.358 . S
C731 C733 1.356 . S
C731 H779 0.930 . S
C732 N729 1.279 . S
C732 C731 1.358 . S
C732 H735 0.930 . S
C733 C730 1.348 . S
C733 C731 1.356 . S
H734 C728 0.930 . S
H735 C732 0.930 . S
C736 C738 1.348 . S
C736 C739 1.356 . S
C736 O766 1.325 . S
N737 C740 1.314 . S
N737 C741 1.279 . S
C738 C736 1.348 . S
C738 C740 1.353 . S
C738 H780 0.929 . S
C739 C736 1.356 . S
C739 C741 1.358 . S
C739 H781 0.930 . S
C740 N737 1.314 . S
C740 C738 1.353 . S
C740 H782 0.930 . S
C741 N737 1.279 . S
C741 C739 1.358 . S
C741 H783 0.930 . S
C742 C743 1.348 . S
C742 C744 1.356 . S
C742 O767 1.325 . S
C743 C742 1.348 . S
C743 C745 1.353 . S
C743 H784 0.929 . S
C744 C742 1.356 . S
C744 C746 1.358 . S
C744 H785 0.930 . S
C745 C743 1.353 . S
C745 N747 1.314 . S
C745 H786 0.930 . S
C746 C744 1.358 . S
C746 N747 1.279 . S
C746 H787 0.930 . S
N747 C745 1.314 . S
N747 C746 1.279 . S
C748 C750 1.353 . S
C748 N751 1.314 . S
C748 H754 0.930 . S
C749 N751 1.279 . S
C749 C752 1.358 . S
C749 H755 0.930 . S
C750 C748 1.353 . S
C750 C753 1.348 . S
C750 H788 0.929 . S
N751 Li706 1.990 . S
N751 C748 1.314 . S
N751 C749 1.279 . S
C752 C749 1.358 . S
C752 C753 1.356 . S
C752 H789 0.930 . S
C753 C750 1.348 . S
C753 C752 1.356 . S
H754 C748 0.930 . S
H755 C749 0.930 . S
C756 N757 1.314 . S
C756 C758 1.353 . S
C756 H762 0.930 . S
N757 Li707 1.990 . S
N757 C756 1.314 . S
N757 C760 1.279 . S
C758 C756 1.353 . S
C758 C761 1.348 . S
C758 H790 0.929 . S
C759 C760 1.358 . S
C759 C761 1.356 . S
C759 H791 0.930 . S
C760 N757 1.279 . S
C760 C759 1.358 . S
C760 H763 0.930 . S
C761 C758 1.348 . S
C761 C759 1.356 . S
H762 C756 0.930 . S
H763 C760 0.930 . S
O764 Li704 1.956 . S
O764 Li705 1.970 . S
O764 Li706 1.961 . S
O764 C708 1.325 . S
O765 Li704 1.970 . S
O765 Li705 1.956 . S
O765 Li707 1.961 . S
O765 C714 1.325 . S
O766 Li704 1.961 . S
O766 Li706 1.956 . S
O766 Li707 1.970 . S
O766 C736 1.325 . S
O767 Li705 1.961 . S
O767 Li706 1.970 . S
O767 Li707 1.956 . S
O767 C742 1.325 . S
H768 C710 0.929 . S
H769 C711 0.930 . S
H770 C712 0.930 . S
H771 C713 0.930 . S
H772 C715 0.930 . S
H773 C717 0.929 . S
H774 C718 0.930 . S
H775 C719 0.930 . S
H776 C722 0.930 . S
H777 C725 0.929 . S
H778 C730 0.929 . S
H779 C731 0.930 . S
H780 C738 0.929 . S
H781 C739 0.930 . S
H782 C740 0.930 . S
H783 C741 0.930 . S
H784 C743 0.929 . S
H785 C744 0.930 . S
H786 C745 0.930 . S
H787 C746 0.930 . S
H788 C750 0.929 . S
H789 C752 0.930 . S
H790 C758 0.929 . S
H791 C759 0.930 . S
Li792 N809 1.990 . S
Li792 O852 1.956 . S
Li792 O853 1.970 1_556 S
Li792 O854 1.961 1_455 S
Li793 N817 1.990 . S
Li793 O852 1.970 . S
Li793 O853 1.956 1_556 S
Li793 O855 1.961 . S
Li794 N839 1.990 . S
Li794 O852 1.961 . S
Li794 O854 1.956 1_455 S
Li794 O855 1.970 . S
Li795 N845 1.990 1_456 S
Li795 O853 1.961 1_556 S
Li795 O854 1.970 1_455 S
Li795 O855 1.956 . S
C796 C798 1.348 . S
C796 C799 1.356 . S
C796 O852 1.325 . S
N797 C800 1.314 . S
N797 C801 1.279 . S
C798 C796 1.348 . S
C798 C800 1.353 . S
C798 H856 0.929 . S
C799 C796 1.356 . S
C799 C801 1.358 . S
C799 H857 0.930 . S
C800 N797 1.314 . S
C800 C798 1.353 . S
C800 H858 0.930 . S
C801 N797 1.279 . S
C801 C799 1.358 . S
C801 H859 0.930 . S
C802 C805 1.348 . S
C802 C806 1.356 . S
C802 O853 1.325 . S
C803 N804 1.279 . S
C803 C806 1.358 . S
C803 H860 0.930 . S
N804 C803 1.279 . S
N804 C807 1.314 . S
C805 C802 1.348 . S
C805 C807 1.353 . S
C805 H861 0.929 . S
C806 C802 1.356 . S
C806 C803 1.358 . S
C806 H862 0.930 . S
C807 N804 1.314 . S
C807 C805 1.353 . S
C807 H863 0.930 . S
C808 N809 1.314 1_655 S
C808 C813 1.348 1_556 S
C808 H814 0.919 1_556 S
N809 Li792 1.990 . S
N809 C808 1.314 1_455 S
N809 C811 1.279 . S
C810 C811 1.358 . S
C810 C812 1.356 1_455 S
C810 H864 0.930 . S
C811 N809 1.279 . S
C811 C810 1.358 . S
C811 H815 0.930 . S
C812 C810 1.356 1_655 S
C812 C813 1.342 1_556 S
C813 C808 1.348 1_554 S
C813 C812 1.342 1_554 S
C813 H865 0.941 . S
H814 C808 0.919 1_554 S
H815 C811 0.930 . S
C816 N817 1.314 . S
C816 C818 1.353 . S
C816 H822 0.930 . S
N817 Li793 1.990 . S
N817 C816 1.314 . S
N817 C820 1.279 1_556 S
C818 C816 1.353 . S
C818 C821 1.348 1_556 S
C818 H866 0.929 . S
C819 C820 1.358 . S
C819 C821 1.356 . S
C819 H867 0.930 . S
C820 N817 1.279 1_554 S
C820 C819 1.358 . S
C820 H823 0.930 . S
C821 C818 1.348 1_554 S
C821 C819 1.356 . S
H822 C816 0.930 . S
H823 C820 0.930 . S
C824 C826 1.348 . S
C824 C827 1.356 . S
C824 O854 1.325 . S
N825 C828 1.314 . S
N825 C829 1.279 . S
C826 C824 1.348 . S
C826 C828 1.353 . S
C826 H868 0.929 . S
C827 C824 1.356 . S
C827 C829 1.358 . S
C827 H869 0.930 . S
C828 N825 1.314 . S
C828 C826 1.353 . S
C828 H870 0.930 . S
C829 N825 1.279 . S
C829 C827 1.358 . S
C829 H871 0.930 . S
C830 C831 1.348 . S
C830 C832 1.356 . S
C830 O855 1.325 . S
C831 C830 1.348 . S
C831 C833 1.353 . S
C831 H872 0.929 . S
C832 C830 1.356 . S
C832 C834 1.358 . S
C832 H873 0.930 1_556 S
C833 C831 1.353 . S
C833 N835 1.314 . S
C833 H874 0.930 . S
C834 C832 1.358 . S
C834 N835 1.279 . S
C834 H875 0.930 . S
N835 C833 1.314 . S
N835 C834 1.279 . S
C836 C838 1.353 . S
C836 N839 1.314 . S
C836 H842 0.930 . S
C837 N839 1.279 1_655 S
C837 C840 1.358 . S
C837 H843 0.930 . S
C838 C836 1.353 . S
C838 C841 1.348 . S
C838 H876 0.929 . S
N839 Li794 1.990 . S
N839 C836 1.314 . S
N839 C837 1.279 1_455 S
C840 C837 1.358 . S
C840 C841 1.356 1_655 S
C840 H877 0.930 . S
C841 C838 1.348 . S
C841 C840 1.356 1_455 S
H842 C836 0.930 . S
H843 C837 0.930 . S
C844 N845 1.314 . S
C844 C846 1.353 . S
C844 H850 0.930 . S
N845 Li795 1.990 1_654 S
N845 C844 1.314 . S
N845 C848 1.279 . S
C846 C844 1.353 . S
C846 C849 1.348 . S
C846 H878 0.929 . S
C847 C848 1.358 . S
C847 C849 1.356 . S
C847 H879 0.930 . S
C848 N845 1.279 . S
C848 C847 1.358 . S
C848 H851 0.930 . S
C849 C846 1.348 . S
C849 C847 1.356 . S
H850 C844 0.930 . S
H851 C848 0.930 . S
O852 Li792 1.956 . S
O852 Li793 1.970 . S
O852 Li794 1.961 . S
O852 C796 1.325 . S
O853 Li792 1.970 1_554 S
O853 Li793 1.956 1_554 S
O853 Li795 1.961 1_554 S
O853 C802 1.325 . S
O854 Li792 1.961 1_655 S
O854 Li794 1.956 1_655 S
O854 Li795 1.970 1_655 S
O854 C824 1.325 . S
O855 Li793 1.961 . S
O855 Li794 1.970 . S
O855 Li795 1.956 . S
O855 C830 1.325 . S
H856 C798 0.929 . S
H857 C799 0.930 . S
H858 C800 0.930 . S
H859 C801 0.930 . S
H860 C803 0.930 . S
H861 C805 0.929 . S
H862 C806 0.930 . S
H863 C807 0.930 . S
H864 C810 0.930 . S
H865 C813 0.941 . S
H866 C818 0.929 . S
H867 C819 0.930 . S
H868 C826 0.929 . S
H869 C827 0.930 . S
H870 C828 0.930 . S
H871 C829 0.930 . S
H872 C831 0.929 . S
H873 C832 0.930 1_554 S
H874 C833 0.930 . S
H875 C834 0.930 . S
H876 C838 0.929 . S
H877 C840 0.930 . S
H878 C846 0.929 . S
H879 C847 0.930 . S
Li880 N897 1.990 . S
Li880 O940 1.956 . S
Li880 O941 1.970 . S
Li880 O942 1.961 . S
Li881 N905 1.990 . S
Li881 O940 1.970 . S
Li881 O941 1.956 . S
Li881 O943 1.961 . S
Li882 N927 1.990 . S
Li882 O940 1.961 . S
Li882 O942 1.956 . S
Li882 O943 1.970 . S
Li883 N933 1.990 . S
Li883 O941 1.961 . S
Li883 O942 1.970 . S
Li883 O943 1.956 . S
C884 C886 1.348 . S
C884 C887 1.356 . S
C884 O940 1.325 . S
N885 C888 1.314 . S
N885 C889 1.279 . S
C886 C884 1.348 . S
C886 C888 1.353 . S
C886 H944 0.929 . S
C887 C884 1.356 . S
C887 C889 1.358 . S
C887 H945 0.930 . S
C888 N885 1.314 . S
C888 C886 1.353 . S
C888 H946 0.930 . S
C889 N885 1.279 . S
C889 C887 1.358 . S
C889 H947 0.930 . S
C890 C893 1.348 . S
C890 C894 1.356 . S
C890 O941 1.325 . S
C891 N892 1.279 . S
C891 C894 1.358 . S
C891 H948 0.930 . S
N892 C891 1.279 . S
N892 C895 1.314 . S
C893 C890 1.348 . S
C893 C895 1.353 . S
C893 H949 0.929 . S
C894 C890 1.356 . S
C894 C891 1.358 . S
C894 H950 0.930 . S
C895 N892 1.314 . S
C895 C893 1.353 . S
C895 H951 0.930 . S
C896 N897 1.314 . S
C896 C901 1.353 . S
C896 H902 0.930 . S
N897 Li880 1.990 . S
N897 C896 1.314 . S
N897 C899 1.279 . S
C898 C899 1.358 . S
C898 C900 1.356 . S
C898 H952 0.930 . S
C899 N897 1.279 . S
C899 C898 1.358 . S
C899 H903 0.930 . S
C900 C898 1.356 . S
C900 C901 1.348 . S
C901 C896 1.353 . S
C901 C900 1.348 . S
C901 H953 0.929 . S
H902 C896 0.930 . S
H903 C899 0.930 . S
C904 N905 1.314 . S
C904 C906 1.353 . S
C904 H910 0.930 . S
N905 Li881 1.990 . S
N905 C904 1.314 . S
N905 C908 1.279 . S
C906 C904 1.353 . S
C906 C909 1.348 . S
C906 H954 0.929 . S
C907 C908 1.358 . S
C907 C909 1.356 . S
C907 H955 0.930 . S
C908 N905 1.279 . S
C908 C907 1.358 . S
C908 H911 0.930 . S
C909 C906 1.348 . S
C909 C907 1.356 . S
H910 C904 0.930 . S
H911 C908 0.930 . S
C912 C914 1.348 . S
C912 C915 1.356 . S
C912 O942 1.325 . S
N913 C916 1.314 . S
N913 C917 1.279 . S
C914 C912 1.348 . S
C914 C916 1.353 . S
C914 H956 0.929 . S
C915 C912 1.356 . S
C915 C917 1.358 . S
C915 H957 0.930 . S
C916 N913 1.314 . S
C916 C914 1.353 . S
C916 H958 0.930 . S
C917 N913 1.279 . S
C917 C915 1.358 . S
C917 H959 0.930 . S
C918 C919 1.348 . S
C918 C920 1.356 . S
C918 O943 1.325 . S
C919 C918 1.348 . S
C919 C921 1.353 . S
C919 H960 0.929 . S
C920 C918 1.356 . S
C920 C922 1.358 . S
C920 H961 0.930 . S
C921 C919 1.353 . S
C921 N923 1.314 . S
C921 H962 0.930 . S
C922 C920 1.358 . S
C922 N923 1.279 . S
C922 H963 0.930 . S
N923 C921 1.314 . S
N923 C922 1.279 . S
C924 C926 1.353 . S
C924 N927 1.314 . S
C924 H930 0.930 . S
C925 N927 1.279 . S
C925 C928 1.358 . S
C925 H931 0.930 . S
C926 C924 1.353 . S
C926 C929 1.348 . S
C926 H964 0.929 . S
N927 Li882 1.990 . S
N927 C924 1.314 . S
N927 C925 1.279 . S
C928 C925 1.358 . S
C928 C929 1.356 . S
C928 H965 0.930 . S
C929 C926 1.348 . S
C929 C928 1.356 . S
H930 C924 0.930 . S
H931 C925 0.930 . S
C932 N933 1.314 . S
C932 C934 1.353 . S
C932 H938 0.930 . S
N933 Li883 1.990 . S
N933 C932 1.314 . S
N933 C936 1.279 . S
C934 C932 1.353 . S
C934 C937 1.348 . S
C934 H966 0.929 . S
C935 C936 1.358 . S
C935 C937 1.356 . S
C935 H967 0.930 . S
C936 N933 1.279 . S
C936 C935 1.358 . S
C936 H939 0.930 . S
C937 C934 1.348 . S
C937 C935 1.356 . S
H938 C932 0.930 . S
H939 C936 0.930 . S
O940 Li880 1.956 . S
O940 Li881 1.970 . S
O940 Li882 1.961 . S
O940 C884 1.325 . S
O941 Li880 1.970 . S
O941 Li881 1.956 . S
O941 Li883 1.961 . S
O941 C890 1.325 . S
O942 Li880 1.961 . S
O942 Li882 1.956 . S
O942 Li883 1.970 . S
O942 C912 1.325 . S
O943 Li881 1.961 . S
O943 Li882 1.970 . S
O943 Li883 1.956 . S
O943 C918 1.325 . S
H944 C886 0.929 . S
H945 C887 0.930 . S
H946 C888 0.930 . S
H947 C889 0.930 . S
H948 C891 0.930 . S
H949 C893 0.929 . S
H950 C894 0.930 . S
H951 C895 0.930 . S
H952 C898 0.930 . S
H953 C901 0.929 . S
H954 C906 0.929 . S
H955 C907 0.930 . S
H956 C914 0.929 . S
H957 C915 0.930 . S
H958 C916 0.930 . S
H959 C917 0.930 . S
H960 C919 0.929 . S
H961 C920 0.930 . S
H962 C921 0.930 . S
H963 C922 0.930 . S
H964 C926 0.929 . S
H965 C928 0.930 . S
H966 C934 0.929 . S
H967 C935 0.930 . S
Li968 N985 1.990 . S
Li968 O1028 1.956 . S
Li968 O1029 1.970 1_455 S
Li968 O1030 1.961 . S
Li969 N993 1.990 . S
Li969 O1028 1.970 . S
Li969 O1029 1.956 1_455 S
Li969 O1031 1.961 . S
Li970 N1015 1.990 . S
Li970 O1028 1.961 . S
Li970 O1030 1.956 . S
Li970 O1031 1.970 . S
Li971 N1021 1.990 1_455 S
Li971 O1029 1.961 1_455 S
Li971 O1030 1.970 . S
Li971 O1031 1.956 . S
C972 C974 1.348 . S
C972 C975 1.356 . S
C972 O1028 1.325 . S
N973 C976 1.314 . S
N973 C977 1.279 . S
C974 C972 1.348 . S
C974 C976 1.353 . S
C974 H1032 0.929 . S
C975 C972 1.356 . S
C975 C977 1.358 . S
C975 H1033 0.930 . S
C976 N973 1.314 . S
C976 C974 1.353 . S
C976 H1034 0.930 . S
C977 N973 1.279 . S
C977 C975 1.358 . S
C977 H1035 0.930 . S
C978 C981 1.348 . S
C978 C982 1.356 . S
C978 O1029 1.325 . S
C979 N980 1.279 . S
C979 C982 1.358 . S
C979 H1036 0.930 . S
N980 C979 1.279 . S
N980 C983 1.314 . S
C981 C978 1.348 . S
C981 C983 1.353 . S
C981 H1037 0.929 . S
C982 C978 1.356 . S
C982 C979 1.358 . S
C982 H1038 0.930 . S
C983 N980 1.314 . S
C983 C981 1.353 . S
C983 H1039 0.930 . S
C984 N985 1.314 . S
C984 C989 1.351 1_455 S
C984 H990 0.924 1_455 S
N985 Li968 1.990 . S
N985 C984 1.314 . S
N985 C987 1.279 . S
C986 C987 1.358 . S
C986 C988 1.356 . S
C986 H1040 0.930 . S
C987 N985 1.279 . S
C987 C986 1.358 . S
C987 H991 0.930 . S
C988 C986 1.356 . S
C988 C989 1.346 1_455 S
C989 C984 1.351 1_655 S
C989 C988 1.346 1_655 S
C989 H1041 0.933 . S
H990 C984 0.924 1_655 S
H991 C987 0.930 . S
C992 N993 1.314 . S
C992 C994 1.353 . S
C992 H998 0.930 . S
N993 Li969 1.990 . S
N993 C992 1.314 . S
N993 C996 1.279 1_455 S
C994 C992 1.353 . S
C994 C997 1.348 1_455 S
C994 H1042 0.929 . S
C995 C996 1.358 . S
C995 C997 1.356 . S
C995 H1043 0.930 . S
C996 N993 1.279 1_655 S
C996 C995 1.358 . S
C996 H999 0.930 . S
C997 C994 1.348 1_655 S
C997 C995 1.356 . S
H998 C992 0.930 . S
H999 C996 0.930 . S
C1000 C1002 1.348 . S
C1000 C1003 1.356 . S
C1000 O1030 1.325 . S
N1001 C1004 1.314 . S
N1001 C1005 1.279 . S
C1002 C1000 1.348 . S
C1002 C1004 1.353 . S
C1002 H1044 0.929 . S
C1003 C1000 1.356 . S
C1003 C1005 1.358 . S
C1003 H1045 0.930 . S
C1004 N1001 1.314 . S
C1004 C1002 1.353 . S
C1004 H1046 0.930 . S
C1005 N1001 1.279 . S
C1005 C1003 1.358 . S
C1005 H1047 0.930 . S
C1006 C1007 1.348 . S
C1006 C1008 1.356 . S
C1006 O1031 1.325 . S
C1007 C1006 1.348 . S
C1007 C1009 1.353 . S
C1007 H1048 0.929 . S
C1008 C1006 1.356 . S
C1008 C1010 1.358 . S
C1008 H1049 0.930 1_455 S
C1009 C1007 1.353 . S
C1009 N1011 1.314 . S
C1009 H1050 0.930 . S
C1010 C1008 1.358 . S
C1010 N1011 1.279 . S
C1010 H1051 0.930 . S
N1011 C1009 1.314 . S
N1011 C1010 1.279 . S
C1012 C1014 1.353 . S
C1012 N1015 1.314 . S
C1012 H1018 0.930 . S
C1013 N1015 1.279 . S
C1013 C1016 1.358 . S
C1013 H1019 0.930 . S
C1014 C1012 1.353 . S
C1014 C1017 1.348 . S
C1014 H1052 0.929 . S
N1015 Li970 1.990 . S
N1015 C1012 1.314 . S
N1015 C1013 1.279 . S
C1016 C1013 1.358 . S
C1016 C1017 1.356 . S
C1016 H1053 0.930 . S
C1017 C1014 1.348 . S
C1017 C1016 1.356 . S
H1018 C1012 0.930 . S
H1019 C1013 0.930 . S
C1020 N1021 1.314 . S
C1020 C1022 1.353 . S
C1020 H1026 0.930 . S
N1021 Li971 1.990 1_655 S
N1021 C1020 1.314 . S
N1021 C1024 1.279 . S
C1022 C1020 1.353 . S
C1022 C1025 1.348 . S
C1022 H1054 0.929 . S
C1023 C1024 1.358 . S
C1023 C1025 1.356 . S
C1023 H1055 0.930 . S
C1024 N1021 1.279 . S
C1024 C1023 1.358 . S
C1024 H1027 0.930 . S
C1025 C1022 1.348 . S
C1025 C1023 1.356 . S
H1026 C1020 0.930 . S
H1027 C1024 0.930 . S
O1028 Li968 1.956 . S
O1028 Li969 1.970 . S
O1028 Li970 1.961 . S
O1028 C972 1.325 . S
O1029 Li968 1.970 1_655 S
O1029 Li969 1.956 1_655 S
O1029 Li971 1.961 1_655 S
O1029 C978 1.325 . S
O1030 Li968 1.961 . S
O1030 Li970 1.956 . S
O1030 Li971 1.970 . S
O1030 C1000 1.325 . S
O1031 Li969 1.961 . S
O1031 Li970 1.970 . S
O1031 Li971 1.956 . S
O1031 C1006 1.325 . S
H1032 C974 0.929 . S
H1033 C975 0.930 . S
H1034 C976 0.930 . S
H1035 C977 0.930 . S
H1036 C979 0.930 . S
H1037 C981 0.929 . S
H1038 C982 0.930 . S
H1039 C983 0.930 . S
H1040 C986 0.930 . S
H1041 C989 0.933 . S
H1042 C994 0.929 . S
H1043 C995 0.930 . S
H1044 C1002 0.929 . S
H1045 C1003 0.930 . S
H1046 C1004 0.930 . S
H1047 C1005 0.930 . S
H1048 C1007 0.929 . S
H1049 C1008 0.930 1_655 S
H1050 C1009 0.930 . S
H1051 C1010 0.930 . S
H1052 C1014 0.929 . S
H1053 C1016 0.930 . S
H1054 C1022 0.929 . S
H1055 C1023 0.930 . S
Li1056 N1073 1.990 . S
Li1056 O1116 1.956 . S
Li1056 O1117 1.970 1_554 S
Li1056 O1118 1.961 . S
Li1057 N1081 1.990 . S
Li1057 O1116 1.970 . S
Li1057 O1117 1.956 1_554 S
Li1057 O1119 1.961 . S
Li1058 N1103 1.990 . S
Li1058 O1116 1.961 . S
Li1058 O1118 1.956 . S
Li1058 O1119 1.970 . S
Li1059 N1109 1.990 1_554 S
Li1059 O1117 1.961 1_554 S
Li1059 O1118 1.970 . S
Li1059 O1119 1.956 . S
C1060 C1062 1.348 . S
C1060 C1063 1.356 . S
C1060 O1116 1.325 . S
N1061 C1064 1.314 . S
N1061 C1065 1.279 . S
C1062 C1060 1.348 . S
C1062 C1064 1.353 . S
C1062 H1120 0.929 . S
C1063 C1060 1.356 . S
C1063 C1065 1.358 . S
C1063 H1121 0.930 . S
C1064 N1061 1.314 . S
C1064 C1062 1.353 . S
C1064 H1122 0.930 . S
C1065 N1061 1.279 . S
C1065 C1063 1.358 . S
C1065 H1123 0.930 . S
C1066 C1069 1.348 . S
C1066 C1070 1.356 . S
C1066 O1117 1.325 . S
C1067 N1068 1.279 . S
C1067 C1070 1.358 . S
C1067 H1124 0.930 . S
N1068 C1067 1.279 . S
N1068 C1071 1.314 . S
C1069 C1066 1.348 . S
C1069 C1071 1.353 . S
C1069 H1125 0.929 . S
C1070 C1066 1.356 . S
C1070 C1067 1.358 . S
C1070 H1126 0.930 . S
C1071 N1068 1.314 . S
C1071 C1069 1.353 . S
C1071 H1127 0.930 . S
C1072 N1073 1.314 . S
C1072 C1077 1.353 1_554 S
C1072 H1078 0.930 1_554 S
N1073 Li1056 1.990 . S
N1073 C1072 1.314 . S
N1073 C1075 1.279 . S
C1074 C1075 1.358 . S
C1074 C1076 1.356 . S
C1074 H1128 0.930 . S
C1075 N1073 1.279 . S
C1075 C1074 1.358 . S
C1075 H1079 0.930 . S
C1076 C1074 1.356 . S
C1076 C1077 1.348 1_554 S
C1077 C1072 1.353 1_556 S
C1077 C1076 1.348 1_556 S
C1077 H1129 0.929 . S
H1078 C1072 0.930 1_556 S
H1079 C1075 0.930 . S
C1080 N1081 1.314 . S
C1080 C1082 1.353 . S
C1080 H1086 0.930 . S
N1081 Li1057 1.990 . S
N1081 C1080 1.314 . S
N1081 C1084 1.279 1_554 S
C1082 C1080 1.353 . S
C1082 C1085 1.348 1_554 S
C1082 H1130 0.929 . S
C1083 C1084 1.358 . S
C1083 C1085 1.356 . S
C1083 H1131 0.930 . S
C1084 N1081 1.279 1_556 S
C1084 C1083 1.358 . S
C1084 H1087 0.930 . S
C1085 C1082 1.348 1_556 S
C1085 C1083 1.356 . S
H1086 C1080 0.930 . S
H1087 C1084 0.930 . S
C1088 C1090 1.348 . S
C1088 C1091 1.356 . S
C1088 O1118 1.325 . S
N1089 C1092 1.314 . S
N1089 C1093 1.279 . S
C1090 C1088 1.348 . S
C1090 C1092 1.353 . S
C1090 H1132 0.929 . S
C1091 C1088 1.356 . S
C1091 C1093 1.358 . S
C1091 H1133 0.930 . S
C1092 N1089 1.314 . S
C1092 C1090 1.353 . S
C1092 H1134 0.930 . S
C1093 N1089 1.279 . S
C1093 C1091 1.358 . S
C1093 H1135 0.930 . S
C1094 C1095 1.348 . S
C1094 C1096 1.356 . S
C1094 O1119 1.325 . S
C1095 C1094 1.348 . S
C1095 C1097 1.353 . S
C1095 H1136 0.929 . S
C1096 C1094 1.356 . S
C1096 C1098 1.358 . S
C1096 H1137 0.930 1_554 S
C1097 C1095 1.353 . S
C1097 N1099 1.314 . S
C1097 H1138 0.930 . S
C1098 C1096 1.358 . S
C1098 N1099 1.279 . S
C1098 H1139 0.930 . S
N1099 C1097 1.314 . S
N1099 C1098 1.279 . S
C1100 C1102 1.353 . S
C1100 N1103 1.314 . S
C1100 H1106 0.930 . S
C1101 N1103 1.279 . S
C1101 C1104 1.358 . S
C1101 H1107 0.930 . S
C1102 C1100 1.353 . S
C1102 C1105 1.348 . S
C1102 H1140 0.929 . S
N1103 Li1058 1.990 . S
N1103 C1100 1.314 . S
N1103 C1101 1.279 . S
C1104 C1101 1.358 . S
C1104 C1105 1.356 . S
C1104 H1141 0.930 . S
C1105 C1102 1.348 . S
C1105 C1104 1.356 . S
H1106 C1100 0.930 . S
H1107 C1101 0.930 . S
C1108 N1109 1.314 . S
C1108 C1110 1.353 . S
C1108 H1114 0.930 . S
N1109 Li1059 1.990 1_556 S
N1109 C1108 1.314 . S
N1109 C1112 1.279 . S
C1110 C1108 1.353 . S
C1110 C1113 1.348 . S
C1110 H1142 0.929 . S
C1111 C1112 1.358 . S
C1111 C1113 1.356 . S
C1111 H1143 0.930 . S
C1112 N1109 1.279 . S
C1112 C1111 1.358 . S
C1112 H1115 0.930 . S
C1113 C1110 1.348 . S
C1113 C1111 1.356 . S
H1114 C1108 0.930 . S
H1115 C1112 0.930 . S
O1116 Li1056 1.956 . S
O1116 Li1057 1.970 . S
O1116 Li1058 1.961 . S
O1116 C1060 1.325 . S
O1117 Li1056 1.970 1_556 S
O1117 Li1057 1.956 1_556 S
O1117 Li1059 1.961 1_556 S
O1117 C1066 1.325 . S
O1118 Li1056 1.961 . S
O1118 Li1058 1.956 . S
O1118 Li1059 1.970 . S
O1118 C1088 1.325 . S
O1119 Li1057 1.961 . S
O1119 Li1058 1.970 . S
O1119 Li1059 1.956 . S
O1119 C1094 1.325 . S
H1120 C1062 0.929 . S
H1121 C1063 0.930 . S
H1122 C1064 0.930 . S
H1123 C1065 0.930 . S
H1124 C1067 0.930 . S
H1125 C1069 0.929 . S
H1126 C1070 0.930 . S
H1127 C1071 0.930 . S
H1128 C1074 0.930 . S
H1129 C1077 0.929 . S
H1130 C1082 0.929 . S
H1131 C1083 0.930 . S
H1132 C1090 0.929 . S
H1133 C1091 0.930 . S
H1134 C1092 0.930 . S
H1135 C1093 0.930 . S
H1136 C1095 0.929 . S
H1137 C1096 0.930 1_556 S
H1138 C1097 0.930 . S
H1139 C1098 0.930 . S
H1140 C1102 0.929 . S
H1141 C1104 0.930 . S
H1142 C1110 0.929 . S
H1143 C1111 0.930 . S
Li1144 N1161 1.990 . S
Li1144 O1204 1.956 . S
Li1144 O1205 1.970 . S
Li1144 O1206 1.961 . S
Li1145 N1169 1.990 . S
Li1145 O1204 1.970 . S
Li1145 O1205 1.956 . S
Li1145 O1207 1.961 . S
Li1146 N1191 1.990 . S
Li1146 O1204 1.961 . S
Li1146 O1206 1.956 . S
Li1146 O1207 1.970 . S
Li1147 N1197 1.990 . S
Li1147 O1205 1.961 . S
Li1147 O1206 1.970 . S
Li1147 O1207 1.956 . S
C1148 C1150 1.348 . S
C1148 C1151 1.356 . S
C1148 O1204 1.325 . S
N1149 C1152 1.314 . S
N1149 C1153 1.279 . S
C1150 C1148 1.348 . S
C1150 C1152 1.353 . S
C1150 H1208 0.929 . S
C1151 C1148 1.356 . S
C1151 C1153 1.358 . S
C1151 H1209 0.930 . S
C1152 N1149 1.314 . S
C1152 C1150 1.353 . S
C1152 H1210 0.930 . S
C1153 N1149 1.279 . S
C1153 C1151 1.358 . S
C1153 H1211 0.930 . S
C1154 C1157 1.348 . S
C1154 C1158 1.356 . S
C1154 O1205 1.325 . S
C1155 N1156 1.279 . S
C1155 C1158 1.358 . S
C1155 H1212 0.930 . S
N1156 C1155 1.279 . S
N1156 C1159 1.314 . S
C1157 C1154 1.348 . S
C1157 C1159 1.353 . S
C1157 H1213 0.929 . S
C1158 C1154 1.356 . S
C1158 C1155 1.358 . S
C1158 H1214 0.930 . S
C1159 N1156 1.314 . S
C1159 C1157 1.353 . S
C1159 H1215 0.930 . S
C1160 N1161 1.314 . S
C1160 C1165 1.353 . S
C1160 H1166 0.930 . S
N1161 Li1144 1.990 . S
N1161 C1160 1.314 . S
N1161 C1163 1.279 . S
C1162 C1163 1.358 . S
C1162 C1164 1.356 . S
C1162 H1216 0.930 . S
C1163 N1161 1.279 . S
C1163 C1162 1.358 . S
C1163 H1167 0.930 . S
C1164 C1162 1.356 . S
C1164 C1165 1.348 . S
C1165 C1160 1.353 . S
C1165 C1164 1.348 . S
C1165 H1217 0.929 . S
H1166 C1160 0.930 . S
H1167 C1163 0.930 . S
C1168 N1169 1.314 . S
C1168 C1170 1.353 . S
C1168 H1174 0.930 . S
N1169 Li1145 1.990 . S
N1169 C1168 1.314 . S
N1169 C1172 1.279 . S
C1170 C1168 1.353 . S
C1170 C1173 1.348 . S
C1170 H1218 0.929 . S
C1171 C1172 1.358 . S
C1171 C1173 1.356 . S
C1171 H1219 0.930 . S
C1172 N1169 1.279 . S
C1172 C1171 1.358 . S
C1172 H1175 0.930 . S
C1173 C1170 1.348 . S
C1173 C1171 1.356 . S
H1174 C1168 0.930 . S
H1175 C1172 0.930 . S
C1176 C1178 1.348 . S
C1176 C1179 1.356 . S
C1176 O1206 1.325 . S
N1177 C1180 1.314 . S
N1177 C1181 1.279 . S
C1178 C1176 1.348 . S
C1178 C1180 1.353 . S
C1178 H1220 0.929 . S
C1179 C1176 1.356 . S
C1179 C1181 1.358 . S
C1179 H1221 0.930 . S
C1180 N1177 1.314 . S
C1180 C1178 1.353 . S
C1180 H1222 0.930 . S
C1181 N1177 1.279 . S
C1181 C1179 1.358 . S
C1181 H1223 0.930 . S
C1182 C1183 1.348 . S
C1182 C1184 1.356 . S
C1182 O1207 1.325 . S
C1183 C1182 1.348 . S
C1183 C1185 1.353 . S
C1183 H1224 0.929 . S
C1184 C1182 1.356 . S
C1184 C1186 1.358 . S
C1184 H1225 0.930 . S
C1185 C1183 1.353 . S
C1185 N1187 1.314 . S
C1185 H1226 0.930 . S
C1186 C1184 1.358 . S
C1186 N1187 1.279 . S
C1186 H1227 0.930 . S
N1187 C1185 1.314 . S
N1187 C1186 1.279 . S
C1188 C1190 1.353 . S
C1188 N1191 1.314 . S
C1188 H1194 0.930 . S
C1189 N1191 1.279 . S
C1189 C1192 1.358 . S
C1189 H1195 0.930 . S
C1190 C1188 1.353 . S
C1190 C1193 1.348 . S
C1190 H1228 0.929 . S
N1191 Li1146 1.990 . S
N1191 C1188 1.314 . S
N1191 C1189 1.279 . S
C1192 C1189 1.358 . S
C1192 C1193 1.356 . S
C1192 H1229 0.930 . S
C1193 C1190 1.348 . S
C1193 C1192 1.356 . S
H1194 C1188 0.930 . S
H1195 C1189 0.930 . S
C1196 N1197 1.314 . S
C1196 C1198 1.353 . S
C1196 H1202 0.930 . S
N1197 Li1147 1.990 . S
N1197 C1196 1.314 . S
N1197 C1200 1.279 . S
C1198 C1196 1.353 . S
C1198 C1201 1.348 . S
C1198 H1230 0.929 . S
C1199 C1200 1.358 . S
C1199 C1201 1.356 . S
C1199 H1231 0.930 . S
C1200 N1197 1.279 . S
C1200 C1199 1.358 . S
C1200 H1203 0.930 . S
C1201 C1198 1.348 . S
C1201 C1199 1.356 . S
H1202 C1196 0.930 . S
H1203 C1200 0.930 . S
O1204 Li1144 1.956 . S
O1204 Li1145 1.970 . S
O1204 Li1146 1.961 . S
O1204 C1148 1.325 . S
O1205 Li1144 1.970 . S
O1205 Li1145 1.956 . S
O1205 Li1147 1.961 . S
O1205 C1154 1.325 . S
O1206 Li1144 1.961 . S
O1206 Li1146 1.956 . S
O1206 Li1147 1.970 . S
O1206 C1176 1.325 . S
O1207 Li1145 1.961 . S
O1207 Li1146 1.970 . S
O1207 Li1147 1.956 . S
O1207 C1182 1.325 . S
H1208 C1150 0.929 . S
H1209 C1151 0.930 . S
H1210 C1152 0.930 . S
H1211 C1153 0.930 . S
H1212 C1155 0.930 . S
H1213 C1157 0.929 . S
H1214 C1158 0.930 . S
H1215 C1159 0.930 . S
H1216 C1162 0.930 . S
H1217 C1165 0.929 . S
H1218 C1170 0.929 . S
H1219 C1171 0.930 . S
H1220 C1178 0.929 . S
H1221 C1179 0.930 . S
H1222 C1180 0.930 . S
H1223 C1181 0.930 . S
H1224 C1183 0.929 . S
H1225 C1184 0.930 . S
H1226 C1185 0.930 . S
H1227 C1186 0.930 . S
H1228 C1190 0.929 . S
H1229 C1192 0.930 . S
H1230 C1198 0.929 . S
H1231 C1199 0.930 . S
Li1232 N1249 1.990 . S
Li1232 O1292 1.956 . S
Li1232 O1293 1.970 . S
Li1232 O1294 1.961 . S
Li1233 N1257 1.990 . S
Li1233 O1292 1.970 . S
Li1233 O1293 1.956 . S
Li1233 O1295 1.961 . S
Li1234 N1279 1.990 . S
Li1234 O1292 1.961 . S
Li1234 O1294 1.956 . S
Li1234 O1295 1.970 . S
Li1235 N1285 1.990 . S
Li1235 O1293 1.961 . S
Li1235 O1294 1.970 . S
Li1235 O1295 1.956 . S
C1236 C1238 1.348 . S
C1236 C1239 1.356 . S
C1236 O1292 1.325 . S
N1237 C1240 1.314 . S
N1237 C1241 1.279 . S
C1238 C1236 1.348 . S
C1238 C1240 1.353 . S
C1238 H1296 0.929 . S
C1239 C1236 1.356 . S
C1239 C1241 1.358 . S
C1239 H1297 0.930 . S
C1240 N1237 1.314 . S
C1240 C1238 1.353 . S
C1240 H1298 0.930 . S
C1241 N1237 1.279 . S
C1241 C1239 1.358 . S
C1241 H1299 0.930 . S
C1242 C1245 1.348 . S
C1242 C1246 1.356 . S
C1242 O1293 1.325 . S
C1243 N1244 1.279 . S
C1243 C1246 1.358 . S
C1243 H1300 0.930 . S
N1244 C1243 1.279 . S
N1244 C1247 1.314 . S
C1245 C1242 1.348 . S
C1245 C1247 1.353 . S
C1245 H1301 0.929 . S
C1246 C1242 1.356 . S
C1246 C1243 1.358 . S
C1246 H1302 0.930 . S
C1247 N1244 1.314 . S
C1247 C1245 1.353 . S
C1247 H1303 0.930 . S
C1248 N1249 1.314 . S
C1248 C1253 1.353 . S
C1248 H1254 0.930 . S
N1249 Li1232 1.990 . S
N1249 C1248 1.314 . S
N1249 C1251 1.279 . S
C1250 C1251 1.358 . S
C1250 C1252 1.356 . S
C1250 H1304 0.930 . S
C1251 N1249 1.279 . S
C1251 C1250 1.358 . S
C1251 H1255 0.930 . S
C1252 C1250 1.356 . S
C1252 C1253 1.348 . S
C1253 C1248 1.353 . S
C1253 C1252 1.348 . S
C1253 H1305 0.929 . S
H1254 C1248 0.930 . S
H1255 C1251 0.930 . S
C1256 N1257 1.314 . S
C1256 C1258 1.353 . S
C1256 H1262 0.930 . S
N1257 Li1233 1.990 . S
N1257 C1256 1.314 . S
N1257 C1260 1.279 . S
C1258 C1256 1.353 . S
C1258 C1261 1.348 . S
C1258 H1306 0.929 . S
C1259 C1260 1.358 . S
C1259 C1261 1.356 . S
C1259 H1307 0.930 . S
C1260 N1257 1.279 . S
C1260 C1259 1.358 . S
C1260 H1263 0.930 . S
C1261 C1258 1.348 . S
C1261 C1259 1.356 . S
H1262 C1256 0.930 . S
H1263 C1260 0.930 . S
C1264 C1266 1.348 . S
C1264 C1267 1.356 . S
C1264 O1294 1.325 . S
N1265 C1268 1.314 . S
N1265 C1269 1.279 . S
C1266 C1264 1.348 . S
C1266 C1268 1.353 . S
C1266 H1308 0.929 . S
C1267 C1264 1.356 . S
C1267 C1269 1.358 . S
C1267 H1309 0.930 . S
C1268 N1265 1.314 . S
C1268 C1266 1.353 . S
C1268 H1310 0.930 . S
C1269 N1265 1.279 . S
C1269 C1267 1.358 . S
C1269 H1311 0.930 . S
C1270 C1271 1.348 . S
C1270 C1272 1.356 . S
C1270 O1295 1.325 . S
C1271 C1270 1.348 . S
C1271 C1273 1.353 . S
C1271 H1312 0.929 . S
C1272 C1270 1.356 . S
C1272 C1274 1.358 . S
C1272 H1313 0.930 . S
C1273 C1271 1.353 . S
C1273 N1275 1.314 . S
C1273 H1314 0.930 . S
C1274 C1272 1.358 . S
C1274 N1275 1.279 . S
C1274 H1315 0.930 . S
N1275 C1273 1.314 . S
N1275 C1274 1.279 . S
C1276 C1278 1.353 . S
C1276 N1279 1.314 . S
C1276 H1282 0.930 . S
C1277 N1279 1.279 . S
C1277 C1280 1.358 . S
C1277 H1283 0.930 . S
C1278 C1276 1.353 . S
C1278 C1281 1.348 . S
C1278 H1316 0.929 . S
N1279 Li1234 1.990 . S
N1279 C1276 1.314 . S
N1279 C1277 1.279 . S
C1280 C1277 1.358 . S
C1280 C1281 1.356 . S
C1280 H1317 0.930 . S
C1281 C1278 1.348 . S
C1281 C1280 1.356 . S
H1282 C1276 0.930 . S
H1283 C1277 0.930 . S
C1284 N1285 1.314 . S
C1284 C1286 1.353 . S
C1284 H1290 0.930 . S
N1285 Li1235 1.990 . S
N1285 C1284 1.314 . S
N1285 C1288 1.279 . S
C1286 C1284 1.353 . S
C1286 C1289 1.348 . S
C1286 H1318 0.929 . S
C1287 C1288 1.358 . S
C1287 C1289 1.356 . S
C1287 H1319 0.930 . S
C1288 N1285 1.279 . S
C1288 C1287 1.358 . S
C1288 H1291 0.930 . S
C1289 C1286 1.348 . S
C1289 C1287 1.356 . S
H1290 C1284 0.930 . S
H1291 C1288 0.930 . S
O1292 Li1232 1.956 . S
O1292 Li1233 1.970 . S
O1292 Li1234 1.961 . S
O1292 C1236 1.325 . S
O1293 Li1232 1.970 . S
O1293 Li1233 1.956 . S
O1293 Li1235 1.961 . S
O1293 C1242 1.325 . S
O1294 Li1232 1.961 . S
O1294 Li1234 1.956 . S
O1294 Li1235 1.970 . S
O1294 C1264 1.325 . S
O1295 Li1233 1.961 . S
O1295 Li1234 1.970 . S
O1295 Li1235 1.956 . S
O1295 C1270 1.325 . S
H1296 C1238 0.929 . S
H1297 C1239 0.930 . S
H1298 C1240 0.930 . S
H1299 C1241 0.930 . S
H1300 C1243 0.930 . S
H1301 C1245 0.929 . S
H1302 C1246 0.930 . S
H1303 C1247 0.930 . S
H1304 C1250 0.930 . S
H1305 C1253 0.929 . S
H1306 C1258 0.929 . S
H1307 C1259 0.930 . S
H1308 C1266 0.929 . S
H1309 C1267 0.930 . S
H1310 C1268 0.930 . S
H1311 C1269 0.930 . S
H1312 C1271 0.929 . S
H1313 C1272 0.930 . S
H1314 C1273 0.930 . S
H1315 C1274 0.930 . S
H1316 C1278 0.929 . S
H1317 C1280 0.930 . S
H1318 C1286 0.929 . S
H1319 C1287 0.930 . S
Li1320 N1337 1.990 . S
Li1320 O1380 1.956 . S
Li1320 O1381 1.970 . S
Li1320 O1382 1.961 . S
Li1321 N1345 1.990 . S
Li1321 O1380 1.970 . S
Li1321 O1381 1.956 . S
Li1321 O1383 1.961 . S
Li1322 N1367 1.990 . S
Li1322 O1380 1.961 . S
Li1322 O1382 1.956 . S
Li1322 O1383 1.970 . S
Li1323 N1373 1.990 . S
Li1323 O1381 1.961 . S
Li1323 O1382 1.970 . S
Li1323 O1383 1.956 . S
C1324 C1326 1.348 . S
C1324 C1327 1.356 . S
C1324 O1380 1.325 . S
N1325 C1328 1.314 . S
N1325 C1329 1.279 . S
C1326 C1324 1.348 . S
C1326 C1328 1.353 . S
C1326 H1384 0.929 . S
C1327 C1324 1.356 . S
C1327 C1329 1.358 . S
C1327 H1385 0.930 . S
C1328 N1325 1.314 . S
C1328 C1326 1.353 . S
C1328 H1386 0.930 . S
C1329 N1325 1.279 . S
C1329 C1327 1.358 . S
C1329 H1387 0.930 . S
C1330 C1333 1.348 . S
C1330 C1334 1.356 . S
C1330 O1381 1.325 . S
C1331 N1332 1.279 . S
C1331 C1334 1.358 . S
C1331 H1388 0.930 . S
N1332 C1331 1.279 . S
N1332 C1335 1.314 . S
C1333 C1330 1.348 . S
C1333 C1335 1.353 . S
C1333 H1389 0.929 . S
C1334 C1330 1.356 . S
C1334 C1331 1.358 . S
C1334 H1390 0.930 . S
C1335 N1332 1.314 . S
C1335 C1333 1.353 . S
C1335 H1391 0.930 . S
C1336 N1337 1.314 . S
C1336 C1341 1.353 . S
C1336 H1342 0.930 . S
N1337 Li1320 1.990 . S
N1337 C1336 1.314 . S
N1337 C1339 1.279 . S
C1338 C1339 1.358 . S
C1338 C1340 1.356 . S
C1338 H1392 0.930 . S
C1339 N1337 1.279 . S
C1339 C1338 1.358 . S
C1339 H1343 0.930 . S
C1340 C1338 1.356 . S
C1340 C1341 1.348 . S
C1341 C1336 1.353 . S
C1341 C1340 1.348 . S
C1341 H1393 0.929 . S
H1342 C1336 0.930 . S
H1343 C1339 0.930 . S
C1344 N1345 1.314 . S
C1344 C1346 1.353 . S
C1344 H1350 0.930 . S
N1345 Li1321 1.990 . S
N1345 C1344 1.314 . S
N1345 C1348 1.279 . S
C1346 C1344 1.353 . S
C1346 C1349 1.348 . S
C1346 H1394 0.929 . S
C1347 C1348 1.358 . S
C1347 C1349 1.356 . S
C1347 H1395 0.930 . S
C1348 N1345 1.279 . S
C1348 C1347 1.358 . S
C1348 H1351 0.930 . S
C1349 C1346 1.348 . S
C1349 C1347 1.356 . S
H1350 C1344 0.930 . S
H1351 C1348 0.930 . S
C1352 C1354 1.348 . S
C1352 C1355 1.356 . S
C1352 O1382 1.325 . S
N1353 C1356 1.314 . S
N1353 C1357 1.279 . S
C1354 C1352 1.348 . S
C1354 C1356 1.353 . S
C1354 H1396 0.929 . S
C1355 C1352 1.356 . S
C1355 C1357 1.358 . S
C1355 H1397 0.930 . S
C1356 N1353 1.314 . S
C1356 C1354 1.353 . S
C1356 H1398 0.930 . S
C1357 N1353 1.279 . S
C1357 C1355 1.358 . S
C1357 H1399 0.930 . S
C1358 C1359 1.348 . S
C1358 C1360 1.356 . S
C1358 O1383 1.325 . S
C1359 C1358 1.348 . S
C1359 C1361 1.353 . S
C1359 H1400 0.929 . S
C1360 C1358 1.356 . S
C1360 C1362 1.358 . S
C1360 H1401 0.930 . S
C1361 C1359 1.353 . S
C1361 N1363 1.314 . S
C1361 H1402 0.930 . S
C1362 C1360 1.358 . S
C1362 N1363 1.279 . S
C1362 H1403 0.930 . S
N1363 C1361 1.314 . S
N1363 C1362 1.279 . S
C1364 C1366 1.353 . S
C1364 N1367 1.314 . S
C1364 H1370 0.930 . S
C1365 N1367 1.279 . S
C1365 C1368 1.358 . S
C1365 H1371 0.930 . S
C1366 C1364 1.353 . S
C1366 C1369 1.348 . S
C1366 H1404 0.929 . S
N1367 Li1322 1.990 . S
N1367 C1364 1.314 . S
N1367 C1365 1.279 . S
C1368 C1365 1.358 . S
C1368 C1369 1.356 . S
C1368 H1405 0.930 . S
C1369 C1366 1.348 . S
C1369 C1368 1.356 . S
H1370 C1364 0.930 . S
H1371 C1365 0.930 . S
C1372 N1373 1.314 . S
C1372 C1374 1.353 . S
C1372 H1378 0.930 . S
N1373 Li1323 1.990 . S
N1373 C1372 1.314 . S
N1373 C1376 1.279 . S
C1374 C1372 1.353 . S
C1374 C1377 1.348 . S
C1374 H1406 0.929 . S
C1375 C1376 1.358 . S
C1375 C1377 1.356 . S
C1375 H1407 0.930 . S
C1376 N1373 1.279 . S
C1376 C1375 1.358 . S
C1376 H1379 0.930 . S
C1377 C1374 1.348 . S
C1377 C1375 1.356 . S
H1378 C1372 0.930 . S
H1379 C1376 0.930 . S
O1380 Li1320 1.956 . S
O1380 Li1321 1.970 . S
O1380 Li1322 1.961 . S
O1380 C1324 1.325 . S
O1381 Li1320 1.970 . S
O1381 Li1321 1.956 . S
O1381 Li1323 1.961 . S
O1381 C1330 1.325 . S
O1382 Li1320 1.961 . S
O1382 Li1322 1.956 . S
O1382 Li1323 1.970 . S
O1382 C1352 1.325 . S
O1383 Li1321 1.961 . S
O1383 Li1322 1.970 . S
O1383 Li1323 1.956 . S
O1383 C1358 1.325 . S
H1384 C1326 0.929 . S
H1385 C1327 0.930 . S
H1386 C1328 0.930 . S
H1387 C1329 0.930 . S
H1388 C1331 0.930 . S
H1389 C1333 0.929 . S
H1390 C1334 0.930 . S
H1391 C1335 0.930 . S
H1392 C1338 0.930 . S
H1393 C1341 0.929 . S
H1394 C1346 0.929 . S
H1395 C1347 0.930 . S
H1396 C1354 0.929 . S
H1397 C1355 0.930 . S
H1398 C1356 0.930 . S
H1399 C1357 0.930 . S
H1400 C1359 0.929 . S
H1401 C1360 0.930 . S
H1402 C1361 0.930 . S
H1403 C1362 0.930 . S
H1404 C1366 0.929 . S
H1405 C1368 0.930 . S
H1406 C1374 0.929 . S
H1407 C1375 0.930 . S
H1408 C1416 0.929 . S
H1409 C1418 0.930 . S
H1410 C1420 0.930 . S
H1411 C1423 0.929 . S
H1412 C1426 0.930 . S
H1413 C1428 0.960 . S
H1414 C1428 0.960 . S
H1415 C1428 0.960 . S
C1416 H1408 0.929 . S
C1416 C1417 1.377 . S
C1416 C1418 1.384 . S
C1417 C1416 1.377 . S
C1417 C1423 1.390 . S
C1418 H1409 0.930 . S
C1418 C1416 1.384 . S
C1418 C1419 1.372 . S
C1419 C1418 1.372 . S
C1419 C1420 1.400 . S
C1419 C1424 1.490 . S
C1420 H1410 0.930 . S
C1420 C1419 1.400 . S
C1420 C1423 1.386 . S
H1421 C1437 0.930 . S
H1422 C1438 0.931 . S
C1423 H1411 0.929 . S
C1423 C1417 1.390 . S
C1423 C1420 1.386 . S
C1424 C1419 1.490 . S
C1424 C1426 1.395 . S
C1424 C1427 1.403 . S
H1425 C1431 0.930 . S
C1426 H1412 0.930 . S
C1426 C1424 1.395 . S
C1426 C1429 1.403 . S
C1427 C1424 1.403 . S
C1427 C1428 1.524 . S
C1427 C1431 1.400 . S
C1428 H1413 0.960 . S
C1428 H1414 0.960 . S
C1428 H1415 0.960 . S
C1428 C1427 1.524 . S
C1429 C1426 1.403 . S
C1429 C1430 1.392 . S
C1429 C1433 1.495 . S
C1430 C1429 1.392 . S
C1430 C1431 1.385 . S
C1430 C1432 1.478 . S
C1431 H1425 0.930 . S
C1431 C1427 1.400 . S
C1431 C1430 1.385 . S
C1432 C1430 1.478 . S
C1432 C1434 1.381 . S
C1432 C1438 1.383 . S
C1433 C1429 1.495 . S
C1433 H1439 0.959 . S
C1433 H1440 0.961 . S
C1433 H1441 0.960 . S
C1434 C1432 1.381 . S
C1434 C1435 1.394 . S
C1434 H1442 0.930 . S
C1435 C1434 1.394 . S
C1435 C1436 1.383 . S
C1435 H1443 0.929 . S
C1436 C1435 1.383 . S
C1436 C1437 1.377 . S
C1437 H1421 0.930 . S
C1437 C1436 1.377 . S
C1437 C1438 1.379 . S
C1438 H1422 0.931 . S
C1438 C1432 1.383 . S
C1438 C1437 1.379 . S
H1439 C1433 0.959 . S
H1440 C1433 0.961 . S
H1441 C1433 0.960 . S
H1442 C1434 0.930 . S
H1443 C1435 0.929 . S
H1444 C1452 0.929 . S
H1445 C1454 0.930 . S
H1446 C1456 0.930 . S
H1447 C1459 0.929 . S
H1448 C1462 0.930 . S
H1449 C1464 0.960 . S
H1450 C1464 0.960 . S
H1451 C1464 0.960 . S
C1452 H1444 0.929 . S
C1452 C1453 1.377 . S
C1452 C1454 1.384 . S
C1453 C1452 1.377 . S
C1453 C1459 1.390 . S
C1454 H1445 0.930 . S
C1454 C1452 1.384 . S
C1454 C1455 1.372 . S
C1455 C1454 1.372 . S
C1455 C1456 1.400 . S
C1455 C1460 1.490 . S
C1456 H1446 0.930 . S
C1456 C1455 1.400 . S
C1456 C1459 1.386 . S
H1457 C1473 0.930 . S
H1458 C1474 0.931 . S
C1459 H1447 0.929 . S
C1459 C1453 1.390 . S
C1459 C1456 1.386 . S
C1460 C1455 1.490 . S
C1460 C1462 1.395 . S
C1460 C1463 1.403 . S
H1461 C1467 0.930 . S
C1462 H1448 0.930 . S
C1462 C1460 1.395 . S
C1462 C1465 1.403 . S
C1463 C1460 1.403 . S
C1463 C1464 1.524 . S
C1463 C1467 1.400 . S
C1464 H1449 0.960 . S
C1464 H1450 0.960 . S
C1464 H1451 0.960 . S
C1464 C1463 1.524 . S
C1465 C1462 1.403 . S
C1465 C1466 1.392 . S
C1465 C1469 1.495 . S
C1466 C1465 1.392 . S
C1466 C1467 1.385 . S
C1466 C1468 1.478 . S
C1467 H1461 0.930 . S
C1467 C1463 1.400 . S
C1467 C1466 1.385 . S
C1468 C1466 1.478 . S
C1468 C1470 1.381 . S
C1468 C1474 1.383 . S
C1469 C1465 1.495 . S
C1469 H1475 0.959 . S
C1469 H1476 0.961 . S
C1469 H1477 0.960 . S
C1470 C1468 1.381 . S
C1470 C1471 1.394 . S
C1470 H1478 0.930 . S
C1471 C1470 1.394 . S
C1471 C1472 1.383 . S
C1471 H1479 0.929 . S
C1472 C1471 1.383 . S
C1472 C1473 1.377 . S
C1473 H1457 0.930 . S
C1473 C1472 1.377 . S
C1473 C1474 1.379 . S
C1474 H1458 0.931 . S
C1474 C1468 1.383 . S
C1474 C1473 1.379 . S
H1475 C1469 0.959 . S
H1476 C1469 0.961 . S
H1477 C1469 0.960 . S
H1478 C1470 0.930 . S
H1479 C1471 0.929 . S
H1480 C1488 0.929 . S
H1481 C1490 0.930 . S
H1482 C1492 0.930 . S
H1483 C1495 0.929 . S
H1484 C1498 0.930 . S
H1485 C1500 0.960 . S
H1486 C1500 0.960 . S
H1487 C1500 0.960 . S
C1488 H1480 0.929 . S
C1488 C1489 1.377 . S
C1488 C1490 1.384 . S
C1489 C1488 1.377 . S
C1489 C1495 1.390 . S
C1490 H1481 0.930 . S
C1490 C1488 1.384 . S
C1490 C1491 1.372 . S
C1491 C1490 1.372 . S
C1491 C1492 1.400 . S
C1491 C1496 1.490 . S
C1492 H1482 0.930 . S
C1492 C1491 1.400 . S
C1492 C1495 1.386 . S
H1493 C1509 0.930 . S
H1494 C1510 0.931 . S
C1495 H1483 0.929 . S
C1495 C1489 1.390 . S
C1495 C1492 1.386 . S
C1496 C1491 1.490 . S
C1496 C1498 1.395 . S
C1496 C1499 1.403 . S
H1497 C1503 0.930 . S
C1498 H1484 0.930 . S
C1498 C1496 1.395 . S
C1498 C1501 1.403 . S
C1499 C1496 1.403 . S
C1499 C1500 1.524 . S
C1499 C1503 1.400 . S
C1500 H1485 0.960 . S
C1500 H1486 0.960 . S
C1500 H1487 0.960 . S
C1500 C1499 1.524 . S
C1501 C1498 1.403 . S
C1501 C1502 1.392 . S
C1501 C1505 1.495 . S
C1502 C1501 1.392 . S
C1502 C1503 1.385 . S
C1502 C1504 1.478 . S
C1503 H1497 0.930 . S
C1503 C1499 1.400 . S
C1503 C1502 1.385 . S
C1504 C1502 1.478 . S
C1504 C1506 1.381 . S
C1504 C1510 1.383 . S
C1505 C1501 1.495 . S
C1505 H1511 0.959 . S
C1505 H1512 0.961 . S
C1505 H1513 0.960 . S
C1506 C1504 1.381 . S
C1506 C1507 1.394 . S
C1506 H1514 0.930 . S
C1507 C1506 1.394 . S
C1507 C1508 1.383 . S
C1507 H1515 0.929 . S
C1508 C1507 1.383 . S
C1508 C1509 1.377 . S
C1509 H1493 0.930 . S
C1509 C1508 1.377 . S
C1509 C1510 1.379 . S
C1510 H1494 0.931 . S
C1510 C1504 1.383 . S
C1510 C1509 1.379 . S
H1511 C1505 0.959 . S
H1512 C1505 0.961 . S
H1513 C1505 0.960 . S
H1514 C1506 0.930 . S
H1515 C1507 0.929 . S
H1516 C1524 0.929 . S
H1517 C1526 0.930 . S
H1518 C1528 0.930 . S
H1519 C1531 0.929 . S
H1520 C1534 0.930 . S
H1521 C1536 0.960 . S
H1522 C1536 0.960 . S
H1523 C1536 0.960 . S
C1524 H1516 0.929 . S
C1524 C1525 1.377 . S
C1524 C1526 1.384 . S
C1525 C1524 1.377 . S
C1525 C1531 1.390 . S
C1526 H1517 0.930 . S
C1526 C1524 1.384 . S
C1526 C1527 1.372 . S
C1527 C1526 1.372 . S
C1527 C1528 1.400 . S
C1527 C1532 1.490 . S
C1528 H1518 0.930 . S
C1528 C1527 1.400 . S
C1528 C1531 1.386 . S
H1529 C1545 0.930 . S
H1530 C1546 0.931 . S
C1531 H1519 0.929 . S
C1531 C1525 1.390 . S
C1531 C1528 1.386 . S
C1532 C1527 1.490 . S
C1532 C1534 1.395 . S
C1532 C1535 1.403 . S
H1533 C1539 0.930 . S
C1534 H1520 0.930 . S
C1534 C1532 1.395 . S
C1534 C1537 1.403 . S
C1535 C1532 1.403 . S
C1535 C1536 1.524 . S
C1535 C1539 1.400 . S
C1536 H1521 0.960 . S
C1536 H1522 0.960 . S
C1536 H1523 0.960 . S
C1536 C1535 1.524 . S
C1537 C1534 1.403 . S
C1537 C1538 1.392 . S
C1537 C1541 1.495 . S
C1538 C1537 1.392 . S
C1538 C1539 1.385 . S
C1538 C1540 1.478 . S
C1539 H1533 0.930 . S
C1539 C1535 1.400 . S
C1539 C1538 1.385 . S
C1540 C1538 1.478 . S
C1540 C1542 1.381 . S
C1540 C1546 1.383 . S
C1541 C1537 1.495 . S
C1541 H1547 0.959 . S
C1541 H1548 0.961 . S
C1541 H1549 0.960 . S
C1542 C1540 1.381 . S
C1542 C1543 1.394 . S
C1542 H1550 0.930 . S
C1543 C1542 1.394 . S
C1543 C1544 1.383 . S
C1543 H1551 0.929 . S
C1544 C1543 1.383 . S
C1544 C1545 1.377 . S
C1545 H1529 0.930 . S
C1545 C1544 1.377 . S
C1545 C1546 1.379 . S
C1546 H1530 0.931 . S
C1546 C1540 1.383 . S
C1546 C1545 1.379 . S
H1547 C1541 0.959 . S
H1548 C1541 0.961 . S
H1549 C1541 0.960 . S
H1550 C1542 0.930 . S
H1551 C1543 0.929 . S
H1552 C1560 0.929 . S
H1553 C1562 0.930 . S
H1554 C1564 0.930 . S
H1555 C1567 0.929 . S
H1556 C1570 0.930 . S
H1557 C1572 0.960 . S
H1558 C1572 0.960 . S
H1559 C1572 0.960 . S
C1560 H1552 0.929 . S
C1560 C1561 1.377 . S
C1560 C1562 1.384 . S
C1561 C1560 1.377 . S
C1561 C1567 1.390 . S
C1562 H1553 0.930 . S
C1562 C1560 1.384 . S
C1562 C1563 1.372 . S
C1563 C1562 1.372 . S
C1563 C1564 1.400 . S
C1563 C1568 1.490 . S
C1564 H1554 0.930 . S
C1564 C1563 1.400 . S
C1564 C1567 1.386 . S
H1565 C1581 0.930 . S
H1566 C1582 0.931 . S
C1567 H1555 0.929 . S
C1567 C1561 1.390 . S
C1567 C1564 1.386 . S
C1568 C1563 1.490 . S
C1568 C1570 1.395 . S
C1568 C1571 1.403 . S
H1569 C1575 0.930 . S
C1570 H1556 0.930 . S
C1570 C1568 1.395 . S
C1570 C1573 1.403 . S
C1571 C1568 1.403 . S
C1571 C1572 1.524 . S
C1571 C1575 1.400 . S
C1572 H1557 0.960 . S
C1572 H1558 0.960 . S
C1572 H1559 0.960 . S
C1572 C1571 1.524 . S
C1573 C1570 1.403 . S
C1573 C1574 1.392 . S
C1573 C1577 1.495 . S
C1574 C1573 1.392 . S
C1574 C1575 1.385 . S
C1574 C1576 1.478 . S
C1575 H1569 0.930 . S
C1575 C1571 1.400 . S
C1575 C1574 1.385 . S
C1576 C1574 1.478 . S
C1576 C1578 1.381 . S
C1576 C1582 1.383 . S
C1577 C1573 1.495 . S
C1577 H1583 0.959 . S
C1577 H1584 0.961 . S
C1577 H1585 0.960 . S
C1578 C1576 1.381 . S
C1578 C1579 1.394 . S
C1578 H1586 0.930 . S
C1579 C1578 1.394 . S
C1579 C1580 1.383 . S
C1579 H1587 0.929 . S
C1580 C1579 1.383 . S
C1580 C1581 1.377 . S
C1581 H1565 0.930 . S
C1581 C1580 1.377 . S
C1581 C1582 1.379 . S
C1582 H1566 0.931 . S
C1582 C1576 1.383 . S
C1582 C1581 1.379 . S
H1583 C1577 0.959 . S
H1584 C1577 0.961 . S
H1585 C1577 0.960 . S
H1586 C1578 0.930 . S
H1587 C1579 0.929 . S
H1588 C1596 0.929 . S
H1589 C1598 0.930 . S
H1590 C1600 0.930 . S
H1591 C1603 0.929 . S
H1592 C1606 0.930 . S
H1593 C1608 0.960 . S
H1594 C1608 0.960 . S
H1595 C1608 0.960 . S
C1596 H1588 0.929 . S
C1596 C1597 1.377 . S
C1596 C1598 1.384 . S
C1597 C1596 1.377 . S
C1597 C1603 1.390 . S
C1598 H1589 0.930 . S
C1598 C1596 1.384 . S
C1598 C1599 1.372 . S
C1599 C1598 1.372 . S
C1599 C1600 1.400 . S
C1599 C1604 1.490 . S
C1600 H1590 0.930 . S
C1600 C1599 1.400 . S
C1600 C1603 1.386 . S
H1601 C1617 0.930 . S
H1602 C1618 0.931 . S
C1603 H1591 0.929 . S
C1603 C1597 1.390 . S
C1603 C1600 1.386 . S
C1604 C1599 1.490 . S
C1604 C1606 1.395 . S
C1604 C1607 1.403 . S
H1605 C1611 0.930 . S
C1606 H1592 0.930 . S
C1606 C1604 1.395 . S
C1606 C1609 1.403 . S
C1607 C1604 1.403 . S
C1607 C1608 1.524 . S
C1607 C1611 1.400 . S
C1608 H1593 0.960 . S
C1608 H1594 0.960 . S
C1608 H1595 0.960 . S
C1608 C1607 1.524 . S
C1609 C1606 1.403 . S
C1609 C1610 1.392 . S
C1609 C1613 1.495 . S
C1610 C1609 1.392 . S
C1610 C1611 1.385 . S
C1610 C1612 1.478 . S
C1611 H1605 0.930 . S
C1611 C1607 1.400 . S
C1611 C1610 1.385 . S
C1612 C1610 1.478 . S
C1612 C1614 1.381 . S
C1612 C1618 1.383 . S
C1613 C1609 1.495 . S
C1613 H1619 0.959 . S
C1613 H1620 0.961 . S
C1613 H1621 0.960 . S
C1614 C1612 1.381 . S
C1614 C1615 1.394 . S
C1614 H1622 0.930 . S
C1615 C1614 1.394 . S
C1615 C1616 1.383 . S
C1615 H1623 0.929 . S
C1616 C1615 1.383 . S
C1616 C1617 1.377 . S
C1617 H1601 0.930 . S
C1617 C1616 1.377 . S
C1617 C1618 1.379 . S
C1618 H1602 0.931 . S
C1618 C1612 1.383 . S
C1618 C1617 1.379 . S
H1619 C1613 0.959 . S
H1620 C1613 0.961 . S
H1621 C1613 0.960 . S
H1622 C1614 0.930 . S
H1623 C1615 0.929 . S
H1624 C1632 0.929 . S
H1625 C1634 0.930 . S
H1626 C1636 0.930 . S
H1627 C1639 0.929 . S
H1628 C1642 0.930 . S
H1629 C1644 0.960 . S
H1630 C1644 0.960 . S
H1631 C1644 0.960 . S
C1632 H1624 0.929 . S
C1632 C1633 1.377 . S
C1632 C1634 1.384 . S
C1633 C1632 1.377 . S
C1633 C1639 1.390 . S
C1634 H1625 0.930 . S
C1634 C1632 1.384 . S
C1634 C1635 1.372 . S
C1635 C1634 1.372 . S
C1635 C1636 1.400 . S
C1635 C1640 1.490 . S
C1636 H1626 0.930 . S
C1636 C1635 1.400 . S
C1636 C1639 1.386 . S
H1637 C1653 0.930 . S
H1638 C1654 0.931 . S
C1639 H1627 0.929 . S
C1639 C1633 1.390 . S
C1639 C1636 1.386 . S
C1640 C1635 1.490 . S
C1640 C1642 1.395 . S
C1640 C1643 1.403 . S
H1641 C1647 0.930 . S
C1642 H1628 0.930 . S
C1642 C1640 1.395 . S
C1642 C1645 1.403 . S
C1643 C1640 1.403 . S
C1643 C1644 1.524 . S
C1643 C1647 1.400 . S
C1644 H1629 0.960 . S
C1644 H1630 0.960 . S
C1644 H1631 0.960 . S
C1644 C1643 1.524 . S
C1645 C1642 1.403 . S
C1645 C1646 1.392 . S
C1645 C1649 1.495 . S
C1646 C1645 1.392 . S
C1646 C1647 1.385 . S
C1646 C1648 1.478 . S
C1647 H1641 0.930 . S
C1647 C1643 1.400 . S
C1647 C1646 1.385 . S
C1648 C1646 1.478 . S
C1648 C1650 1.381 . S
C1648 C1654 1.383 . S
C1649 C1645 1.495 . S
C1649 H1655 0.959 . S
C1649 H1656 0.961 . S
C1649 H1657 0.960 . S
C1650 C1648 1.381 . S
C1650 C1651 1.394 . S
C1650 H1658 0.930 . S
C1651 C1650 1.394 . S
C1651 C1652 1.383 . S
C1651 H1659 0.929 . S
C1652 C1651 1.383 . S
C1652 C1653 1.377 . S
C1653 H1637 0.930 . S
C1653 C1652 1.377 . S
C1653 C1654 1.379 . S
C1654 H1638 0.931 . S
C1654 C1648 1.383 . S
C1654 C1653 1.379 . S
H1655 C1649 0.959 . S
H1656 C1649 0.961 . S
H1657 C1649 0.960 . S
H1658 C1650 0.930 . S
H1659 C1651 0.929 . S
H1660 C1668 0.929 . S
H1661 C1670 0.930 . S
H1662 C1672 0.930 . S
H1663 C1675 0.929 . S
H1664 C1678 0.930 . S
H1665 C1680 0.960 . S
H1666 C1680 0.960 . S
H1667 C1680 0.960 . S
C1668 H1660 0.929 . S
C1668 C1669 1.377 . S
C1668 C1670 1.384 . S
C1669 C1668 1.377 . S
C1669 C1675 1.390 . S
C1670 H1661 0.930 . S
C1670 C1668 1.384 . S
C1670 C1671 1.372 . S
C1671 C1670 1.372 . S
C1671 C1672 1.400 . S
C1671 C1676 1.490 . S
C1672 H1662 0.930 . S
C1672 C1671 1.400 . S
C1672 C1675 1.386 . S
H1673 C1689 0.930 . S
H1674 C1690 0.931 . S
C1675 H1663 0.929 . S
C1675 C1669 1.390 . S
C1675 C1672 1.386 . S
C1676 C1671 1.490 . S
C1676 C1678 1.395 . S
C1676 C1679 1.403 . S
H1677 C1683 0.930 . S
C1678 H1664 0.930 . S
C1678 C1676 1.395 . S
C1678 C1681 1.403 . S
C1679 C1676 1.403 . S
C1679 C1680 1.524 . S
C1679 C1683 1.400 . S
C1680 H1665 0.960 . S
C1680 H1666 0.960 . S
C1680 H1667 0.960 . S
C1680 C1679 1.524 . S
C1681 C1678 1.403 . S
C1681 C1682 1.392 . S
C1681 C1685 1.495 . S
C1682 C1681 1.392 . S
C1682 C1683 1.385 . S
C1682 C1684 1.478 . S
C1683 H1677 0.930 . S
C1683 C1679 1.400 . S
C1683 C1682 1.385 . S
C1684 C1682 1.478 . S
C1684 C1686 1.381 . S
C1684 C1690 1.383 . S
C1685 C1681 1.495 . S
C1685 H1691 0.959 . S
C1685 H1692 0.961 . S
C1685 H1693 0.960 . S
C1686 C1684 1.381 . S
C1686 C1687 1.394 . S
C1686 H1694 0.930 . S
C1687 C1686 1.394 . S
C1687 C1688 1.383 . S
C1687 H1695 0.929 . S
C1688 C1687 1.383 . S
C1688 C1689 1.377 . S
C1689 H1673 0.930 . S
C1689 C1688 1.377 . S
C1689 C1690 1.379 . S
C1690 H1674 0.931 . S
C1690 C1684 1.383 . S
C1690 C1689 1.379 . S
H1691 C1685 0.959 . S
H1692 C1685 0.961 . S
H1693 C1685 0.960 . S
H1694 C1686 0.930 . S
H1695 C1687 0.929 . S
H1696 C1704 0.929 . S
H1697 C1706 0.930 . S
H1698 C1708 0.930 . S
H1699 C1711 0.929 . S
H1700 C1714 0.930 . S
H1701 C1716 0.960 . S
H1702 C1716 0.960 . S
H1703 C1716 0.960 . S
C1704 H1696 0.929 . S
C1704 C1705 1.377 . S
C1704 C1706 1.384 . S
C1705 C1704 1.377 . S
C1705 C1711 1.390 . S
C1706 H1697 0.930 . S
C1706 C1704 1.384 . S
C1706 C1707 1.372 . S
C1707 C1706 1.372 . S
C1707 C1708 1.400 . S
C1707 C1712 1.490 . S
C1708 H1698 0.930 . S
C1708 C1707 1.400 . S
C1708 C1711 1.386 . S
H1709 C1725 0.930 . S
H1710 C1726 0.931 . S
C1711 H1699 0.929 . S
C1711 C1705 1.390 . S
C1711 C1708 1.386 . S
C1712 C1707 1.490 . S
C1712 C1714 1.395 . S
C1712 C1715 1.403 . S
H1713 C1719 0.930 . S
C1714 H1700 0.930 . S
C1714 C1712 1.395 . S
C1714 C1717 1.403 . S
C1715 C1712 1.403 . S
C1715 C1716 1.524 . S
C1715 C1719 1.400 . S
C1716 H1701 0.960 . S
C1716 H1702 0.960 . S
C1716 H1703 0.960 . S
C1716 C1715 1.524 . S
C1717 C1714 1.403 . S
C1717 C1718 1.392 . S
C1717 C1721 1.495 . S
C1718 C1717 1.392 . S
C1718 C1719 1.385 . S
C1718 C1720 1.478 . S
C1719 H1713 0.930 . S
C1719 C1715 1.400 . S
C1719 C1718 1.385 . S
C1720 C1718 1.478 . S
C1720 C1722 1.381 . S
C1720 C1726 1.383 . S
C1721 C1717 1.495 . S
C1721 H1727 0.959 . S
C1721 H1728 0.961 . S
C1721 H1729 0.960 . S
C1722 C1720 1.381 . S
C1722 C1723 1.394 . S
C1722 H1730 0.930 . S
C1723 C1722 1.394 . S
C1723 C1724 1.383 . S
C1723 H1731 0.929 . S
C1724 C1723 1.383 . S
C1724 C1725 1.377 . S
C1725 H1709 0.930 . S
C1725 C1724 1.377 . S
C1725 C1726 1.379 . S
C1726 H1710 0.931 . S
C1726 C1720 1.383 . S
C1726 C1725 1.379 . S
H1727 C1721 0.959 . S
H1728 C1721 0.961 . S
H1729 C1721 0.960 . S
H1730 C1722 0.930 . S
H1731 C1723 0.929 . S
H1732 C1740 0.929 . S
H1733 C1742 0.930 . S
H1734 C1744 0.930 . S
H1735 C1747 0.929 . S
H1736 C1750 0.930 . S
H1737 C1752 0.960 . S
H1738 C1752 0.960 . S
H1739 C1752 0.960 1_655 S
C1740 H1732 0.929 . S
C1740 C1741 1.377 1_465 S
C1740 C1742 1.384 . S
C1741 C1740 1.377 1_645 S
C1741 C1747 1.390 . S
C1742 H1733 0.930 . S
C1742 C1740 1.384 . S
C1742 C1743 1.372 1_465 S
C1743 C1742 1.372 1_645 S
C1743 C1744 1.400 . S
C1743 C1748 1.497 . S
C1744 H1734 0.930 . S
C1744 C1743 1.400 . S
C1744 C1747 1.386 . S
H1745 C1761 0.930 1_545 S
H1746 C1762 0.921 1_545 S
C1747 H1735 0.929 . S
C1747 C1741 1.390 . S
C1747 C1744 1.386 . S
C1748 C1743 1.497 . S
C1748 C1750 1.352 1_545 S
C1748 C1751 1.439 1_655 S
H1749 C1755 0.929 1_455 S
C1750 H1736 0.930 . S
C1750 C1748 1.352 1_565 S
C1750 C1753 1.403 . S
C1751 C1748 1.439 1_455 S
C1751 C1752 1.523 . S
C1751 C1755 1.399 1_455 S
C1752 H1737 0.960 . S
C1752 H1738 0.960 . S
C1752 H1739 0.960 1_455 S
C1752 C1751 1.523 . S
C1753 C1750 1.403 . S
C1753 C1754 1.392 . S
C1753 C1757 1.495 . S
C1754 C1753 1.392 . S
C1754 C1755 1.389 1_565 S
C1754 C1756 1.478 . S
C1755 H1749 0.929 1_655 S
C1755 C1751 1.399 1_655 S
C1755 C1754 1.389 1_545 S
C1756 C1754 1.478 . S
C1756 C1758 1.381 1_655 S
C1756 C1762 1.392 . S
C1757 C1753 1.495 . S
C1757 H1763 0.959 . S
C1757 H1764 0.961 . S
C1757 H1765 0.960 1_655 S
C1758 C1756 1.381 1_455 S
C1758 C1759 1.394 . S
C1758 H1766 0.930 . S
C1759 C1758 1.394 . S
C1759 C1760 1.383 1_455 S
C1759 H1767 0.929 . S
C1760 C1759 1.383 1_655 S
C1760 C1761 1.377 . S
C1761 H1745 0.930 1_565 S
C1761 C1760 1.377 . S
C1761 C1762 1.380 . S
C1762 H1746 0.921 1_565 S
C1762 C1756 1.392 . S
C1762 C1761 1.380 . S
H1763 C1757 0.959 . S
H1764 C1757 0.961 . S
H1765 C1757 0.960 1_455 S
H1766 C1758 0.930 . S
H1767 C1759 0.929 . S
H1768 C1776 0.929 . S
H1769 C1778 0.930 . S
H1770 C1780 0.930 . S
H1771 C1783 0.929 . S
H1772 C1786 0.930 . S
H1773 C1788 0.960 . S
H1774 C1788 0.960 . S
H1775 C1788 0.960 . S
C1776 H1768 0.929 . S
C1776 C1777 1.377 . S
C1776 C1778 1.384 . S
C1777 C1776 1.377 . S
C1777 C1783 1.390 . S
C1778 H1769 0.930 . S
C1778 C1776 1.384 . S
C1778 C1779 1.372 . S
C1779 C1778 1.372 . S
C1779 C1780 1.400 . S
C1779 C1784 1.490 . S
C1780 H1770 0.930 . S
C1780 C1779 1.400 . S
C1780 C1783 1.386 . S
H1781 C1797 0.930 . S
H1782 C1798 0.931 . S
C1783 H1771 0.929 . S
C1783 C1777 1.390 . S
C1783 C1780 1.386 . S
C1784 C1779 1.490 . S
C1784 C1786 1.395 . S
C1784 C1787 1.403 . S
H1785 C1791 0.930 . S
C1786 H1772 0.930 . S
C1786 C1784 1.395 . S
C1786 C1789 1.403 1_556 S
C1787 C1784 1.403 . S
C1787 C1788 1.524 . S
C1787 C1791 1.400 1_556 S
C1788 H1773 0.960 . S
C1788 H1774 0.960 . S
C1788 H1775 0.960 . S
C1788 C1787 1.524 . S
C1789 C1786 1.403 1_554 S
C1789 C1790 1.392 . S
C1789 C1793 1.495 . S
C1790 C1789 1.392 . S
C1790 C1791 1.385 . S
C1790 C1792 1.478 . S
C1791 H1785 0.930 . S
C1791 C1787 1.400 1_554 S
C1791 C1790 1.385 . S
C1792 C1790 1.478 . S
C1792 C1794 1.381 . S
C1792 C1798 1.383 . S
C1793 C1789 1.495 . S
C1793 H1799 0.959 . S
C1793 H1800 0.961 . S
C1793 H1801 0.960 . S
C1794 C1792 1.381 . S
C1794 C1795 1.394 . S
C1794 H1802 0.930 . S
C1795 C1794 1.394 . S
C1795 C1796 1.383 . S
C1795 H1803 0.929 . S
C1796 C1795 1.383 . S
C1796 C1797 1.377 . S
C1797 H1781 0.930 . S
C1797 C1796 1.377 . S
C1797 C1798 1.379 . S
C1798 H1782 0.931 . S
C1798 C1792 1.383 . S
C1798 C1797 1.379 . S
H1799 C1793 0.959 . S
H1800 C1793 0.961 . S
H1801 C1793 0.960 . S
H1802 C1794 0.930 . S
H1803 C1795 0.929 . S
H1804 C1812 0.944 . S
H1805 C1814 0.930 . S
H1806 C1816 0.930 . S
H1807 C1819 0.929 . S
H1808 C1822 0.930 . S
H1809 C1824 0.960 . S
H1810 C1824 0.960 . S
H1811 C1824 0.960 . S
C1812 H1804 0.944 . S
C1812 C1813 1.360 1_545 S
C1812 C1814 1.389 . S
C1813 C1812 1.360 1_565 S
C1813 C1819 1.390 . S
C1814 H1805 0.930 . S
C1814 C1812 1.389 . S
C1814 C1815 1.372 1_545 S
C1815 C1814 1.372 1_565 S
C1815 C1816 1.400 . S
C1815 C1820 1.490 . S
C1816 H1806 0.930 . S
C1816 C1815 1.400 . S
C1816 C1819 1.386 . S
H1817 C1833 0.930 1_565 S
H1818 C1834 0.931 1_565 S
C1819 H1807 0.929 . S
C1819 C1813 1.390 . S
C1819 C1816 1.386 . S
C1820 C1815 1.490 . S
C1820 C1822 1.395 1_565 S
C1820 C1823 1.403 . S
H1821 C1827 0.930 . S
C1822 H1808 0.930 . S
C1822 C1820 1.395 1_545 S
C1822 C1825 1.403 . S
C1823 C1820 1.403 . S
C1823 C1824 1.524 . S
C1823 C1827 1.400 . S
C1824 H1809 0.960 . S
C1824 H1810 0.960 . S
C1824 H1811 0.960 . S
C1824 C1823 1.524 . S
C1825 C1822 1.403 . S
C1825 C1826 1.392 . S
C1825 C1829 1.495 . S
C1826 C1825 1.392 . S
C1826 C1827 1.385 1_545 S
C1826 C1828 1.478 . S
C1827 H1821 0.930 . S
C1827 C1823 1.400 . S
C1827 C1826 1.385 1_565 S
C1828 C1826 1.478 . S
C1828 C1830 1.381 . S
C1828 C1834 1.383 . S
C1829 C1825 1.495 . S
C1829 H1835 0.959 . S
C1829 H1836 0.961 . S
C1829 H1837 0.960 . S
C1830 C1828 1.381 . S
C1830 C1831 1.394 . S
C1830 H1838 0.930 . S
C1831 C1830 1.394 . S
C1831 C1832 1.383 . S
C1831 H1839 0.929 . S
C1832 C1831 1.383 . S
C1832 C1833 1.377 . S
C1833 H1817 0.930 1_545 S
C1833 C1832 1.377 . S
C1833 C1834 1.379 . S
C1834 H1818 0.931 1_545 S
C1834 C1828 1.383 . S
C1834 C1833 1.379 . S
H1835 C1829 0.959 . S
H1836 C1829 0.961 . S
H1837 C1829 0.960 . S
H1838 C1830 0.930 . S
H1839 C1831 0.929 . S
H1840 C1848 0.929 . S
H1841 C1850 0.930 . S
H1842 C1852 0.930 . S
H1843 C1855 0.929 . S
H1844 C1858 0.930 . S
H1845 C1860 0.960 . S
H1846 C1860 0.960 . S
H1847 C1860 0.960 . S
C1848 H1840 0.929 . S
C1848 C1849 1.377 . S
C1848 C1850 1.384 . S
C1849 C1848 1.377 . S
C1849 C1855 1.390 . S
C1850 H1841 0.930 . S
C1850 C1848 1.384 . S
C1850 C1851 1.372 . S
C1851 C1850 1.372 . S
C1851 C1852 1.400 . S
C1851 C1856 1.490 . S
C1852 H1842 0.930 . S
C1852 C1851 1.400 . S
C1852 C1855 1.386 . S
H1853 C1869 0.930 . S
H1854 C1870 0.931 . S
C1855 H1843 0.929 . S
C1855 C1849 1.390 . S
C1855 C1852 1.386 . S
C1856 C1851 1.490 . S
C1856 C1858 1.395 . S
C1856 C1859 1.403 . S
H1857 C1863 0.930 . S
C1858 H1844 0.930 . S
C1858 C1856 1.395 . S
C1858 C1861 1.403 . S
C1859 C1856 1.403 . S
C1859 C1860 1.524 . S
C1859 C1863 1.400 . S
C1860 H1845 0.960 . S
C1860 H1846 0.960 . S
C1860 H1847 0.960 . S
C1860 C1859 1.524 . S
C1861 C1858 1.403 . S
C1861 C1862 1.392 . S
C1861 C1865 1.495 . S
C1862 C1861 1.392 . S
C1862 C1863 1.385 . S
C1862 C1864 1.478 . S
C1863 H1857 0.930 . S
C1863 C1859 1.400 . S
C1863 C1862 1.385 . S
C1864 C1862 1.478 . S
C1864 C1866 1.381 . S
C1864 C1870 1.383 . S
C1865 C1861 1.495 . S
C1865 H1871 0.959 . S
C1865 H1872 0.961 . S
C1865 H1873 0.960 . S
C1866 C1864 1.381 . S
C1866 C1867 1.394 . S
C1866 H1874 0.930 . S
C1867 C1866 1.394 . S
C1867 C1868 1.383 . S
C1867 H1875 0.929 . S
C1868 C1867 1.383 . S
C1868 C1869 1.377 . S
C1869 H1853 0.930 . S
C1869 C1868 1.377 . S
C1869 C1870 1.379 . S
C1870 H1854 0.931 . S
C1870 C1864 1.383 . S
C1870 C1869 1.379 . S
H1871 C1865 0.959 . S
H1872 C1865 0.961 . S
H1873 C1865 0.960 . S
H1874 C1866 0.930 . S
H1875 C1867 0.929 . S
H1876 C1884 0.929 . S
H1877 C1886 0.930 . S
H1878 C1888 0.930 . S
H1879 C1891 0.929 . S
H1880 C1894 0.930 . S
H1881 C1896 0.960 . S
H1882 C1896 0.960 . S
H1883 C1896 0.960 . S
C1884 H1876 0.929 . S
C1884 C1885 1.377 . S
C1884 C1886 1.384 . S
C1885 C1884 1.377 . S
C1885 C1891 1.390 1_655 S
C1886 H1877 0.930 . S
C1886 C1884 1.384 . S
C1886 C1887 1.372 . S
C1887 C1886 1.372 . S
C1887 C1888 1.400 1_655 S
C1887 C1892 1.490 . S
C1888 H1878 0.930 . S
C1888 C1887 1.400 1_455 S
C1888 C1891 1.386 . S
H1889 C1905 0.930 . S
H1890 C1906 0.931 . S
C1891 H1879 0.929 . S
C1891 C1885 1.390 1_455 S
C1891 C1888 1.386 . S
C1892 C1887 1.490 . S
C1892 C1894 1.395 . S
C1892 C1895 1.403 1_655 S
H1893 C1899 0.930 . S
C1894 H1880 0.930 . S
C1894 C1892 1.395 . S
C1894 C1897 1.403 . S
C1895 C1892 1.403 1_455 S
C1895 C1896 1.524 . S
C1895 C1899 1.400 . S
C1896 H1881 0.960 . S
C1896 H1882 0.960 . S
C1896 H1883 0.960 . S
C1896 C1895 1.524 . S
C1897 C1894 1.403 . S
C1897 C1898 1.392 . S
C1897 C1901 1.495 . S
C1898 C1897 1.392 . S
C1898 C1899 1.385 1_655 S
C1898 C1900 1.477 1_655 S
C1899 H1893 0.930 . S
C1899 C1895 1.400 . S
C1899 C1898 1.385 1_455 S
C1900 C1898 1.477 1_455 S
C1900 C1902 1.380 1_455 S
C1900 C1906 1.385 . S
C1901 C1897 1.495 . S
C1901 H1907 0.959 . S
C1901 H1908 0.961 . S
C1901 H1909 0.960 . S
C1902 C1900 1.380 1_655 S
C1902 C1903 1.394 . S
C1902 H1910 0.930 . S
C1903 C1902 1.394 . S
C1903 C1904 1.383 1_655 S
C1903 H1911 0.929 . S
C1904 C1903 1.383 1_455 S
C1904 C1905 1.377 . S
C1905 H1889 0.930 . S
C1905 C1904 1.377 . S
C1905 C1906 1.379 . S
C1906 H1890 0.931 . S
C1906 C1900 1.385 . S
C1906 C1905 1.379 . S
H1907 C1901 0.959 . S
H1908 C1901 0.961 . S
H1909 C1901 0.960 . S
H1910 C1902 0.930 . S
H1911 C1903 0.929 . S
H1912 C1920 0.929 . S
H1913 C1922 0.930 . S
H1914 C1924 0.930 . S
H1915 C1927 0.929 . S
H1916 C1930 0.930 . S
H1917 C1932 0.960 . S
H1918 C1932 0.960 . S
H1919 C1932 0.960 . S
C1920 H1912 0.929 . S
C1920 C1921 1.377 . S
C1920 C1922 1.384 . S
C1921 C1920 1.377 . S
C1921 C1927 1.390 . S
C1922 H1913 0.930 . S
C1922 C1920 1.384 . S
C1922 C1923 1.372 . S
C1923 C1922 1.372 . S
C1923 C1924 1.400 . S
C1923 C1928 1.490 . S
C1924 H1914 0.930 . S
C1924 C1923 1.400 . S
C1924 C1927 1.386 . S
H1925 C1941 0.930 . S
H1926 C1942 0.931 . S
C1927 H1915 0.929 . S
C1927 C1921 1.390 . S
C1927 C1924 1.386 . S
C1928 C1923 1.490 . S
C1928 C1930 1.395 . S
C1928 C1931 1.403 . S
H1929 C1935 0.930 . S
C1930 H1916 0.930 . S
C1930 C1928 1.395 . S
C1930 C1933 1.403 1_655 S
C1931 C1928 1.403 . S
C1931 C1932 1.524 . S
C1931 C1935 1.400 1_655 S
C1932 H1917 0.960 . S
C1932 H1918 0.960 . S
C1932 H1919 0.960 . S
C1932 C1931 1.524 . S
C1933 C1930 1.403 1_455 S
C1933 C1934 1.392 . S
C1933 C1937 1.495 . S
C1934 C1933 1.392 . S
C1934 C1935 1.385 . S
C1934 C1936 1.478 . S
C1935 H1929 0.930 . S
C1935 C1931 1.400 1_455 S
C1935 C1934 1.385 . S
C1936 C1934 1.478 . S
C1936 C1938 1.381 . S
C1936 C1942 1.383 . S
C1937 C1933 1.495 . S
C1937 H1943 0.959 . S
C1937 H1944 0.961 . S
C1937 H1945 0.960 . S
C1938 C1936 1.381 . S
C1938 C1939 1.394 . S
C1938 H1946 0.930 . S
C1939 C1938 1.394 . S
C1939 C1940 1.383 . S
C1939 H1947 0.929 . S
C1940 C1939 1.383 . S
C1940 C1941 1.377 . S
C1941 H1925 0.930 . S
C1941 C1940 1.377 . S
C1941 C1942 1.379 . S
C1942 H1926 0.931 . S
C1942 C1936 1.383 . S
C1942 C1941 1.379 . S
H1943 C1937 0.959 . S
H1944 C1937 0.961 . S
H1945 C1937 0.960 . S
H1946 C1938 0.930 . S
H1947 C1939 0.929 . S
H1948 C1956 0.929 . S
H1949 C1958 0.930 . S
H1950 C1960 0.930 . S
H1951 C1963 0.929 . S
H1952 C1966 0.930 . S
H1953 C1968 0.960 . S
H1954 C1968 0.960 . S
H1955 C1968 0.960 . S
C1956 H1948 0.929 . S
C1956 C1957 1.377 . S
C1956 C1958 1.384 . S
C1957 C1956 1.377 . S
C1957 C1963 1.390 1_554 S
C1958 H1949 0.930 . S
C1958 C1956 1.384 . S
C1958 C1959 1.372 . S
C1959 C1958 1.372 . S
C1959 C1960 1.400 1_554 S
C1959 C1964 1.490 . S
C1960 H1950 0.930 . S
C1960 C1959 1.400 1_556 S
C1960 C1963 1.386 . S
H1961 C1977 0.930 . S
H1962 C1978 0.933 . S
C1963 H1951 0.929 . S
C1963 C1957 1.390 1_556 S
C1963 C1960 1.386 . S
C1964 C1959 1.490 . S
C1964 C1966 1.395 . S
C1964 C1967 1.403 1_554 S
H1965 C1971 0.930 . S
C1966 H1952 0.930 . S
C1966 C1964 1.395 . S
C1966 C1969 1.403 . S
C1967 C1964 1.403 1_556 S
C1967 C1968 1.524 . S
C1967 C1971 1.400 . S
C1968 H1953 0.960 . S
C1968 H1954 0.960 . S
C1968 H1955 0.960 . S
C1968 C1967 1.524 . S
C1969 C1966 1.403 . S
C1969 C1970 1.392 . S
C1969 C1973 1.495 . S
C1970 C1969 1.392 . S
C1970 C1971 1.385 1_554 S
C1970 C1972 1.478 . S
C1971 H1965 0.930 . S
C1971 C1967 1.400 . S
C1971 C1970 1.385 1_556 S
C1972 C1970 1.478 . S
C1972 C1974 1.381 . S
C1972 C1978 1.380 1_554 S
C1973 C1969 1.495 . S
C1973 H1979 0.959 . S
C1973 H1980 0.961 . S
C1973 H1981 0.960 . S
C1974 C1972 1.381 . S
C1974 C1975 1.394 . S
C1974 H1982 0.930 . S
C1975 C1974 1.394 . S
C1975 C1976 1.383 . S
C1975 H1983 0.929 . S
C1976 C1975 1.383 . S
C1976 C1977 1.377 1_554 S
C1977 H1961 0.930 . S
C1977 C1976 1.377 1_556 S
C1977 C1978 1.380 . S
C1978 H1962 0.933 . S
C1978 C1972 1.380 1_556 S
C1978 C1977 1.380 . S
H1979 C1973 0.959 . S
H1980 C1973 0.961 . S
H1981 C1973 0.960 . S
H1982 C1974 0.930 . S
H1983 C1975 0.929 . S
H1984 C1992 0.929 . S
H1985 C1994 0.930 . S
H1986 C1996 0.930 . S
H1987 C1999 0.929 . S
H1988 C2002 0.930 . S
H1989 C2004 0.960 . S
H1990 C2004 0.960 . S
H1991 C2004 0.960 . S
C1992 H1984 0.929 . S
C1992 C1993 1.377 . S
C1992 C1994 1.384 . S
C1993 C1992 1.377 . S
C1993 C1999 1.390 . S
C1994 H1985 0.930 . S
C1994 C1992 1.384 . S
C1994 C1995 1.372 . S
C1995 C1994 1.372 . S
C1995 C1996 1.400 . S
C1995 C2000 1.490 . S
C1996 H1986 0.930 . S
C1996 C1995 1.400 . S
C1996 C1999 1.386 . S
H1997 C2013 0.930 . S
H1998 C2014 0.931 . S
C1999 H1987 0.929 . S
C1999 C1993 1.390 . S
C1999 C1996 1.386 . S
C2000 C1995 1.490 . S
C2000 C2002 1.395 . S
C2000 C2003 1.403 . S
H2001 C2007 0.930 . S
C2002 H1988 0.930 . S
C2002 C2000 1.395 . S
C2002 C2005 1.403 . S
C2003 C2000 1.403 . S
C2003 C2004 1.524 . S
C2003 C2007 1.400 . S
C2004 H1989 0.960 . S
C2004 H1990 0.960 . S
C2004 H1991 0.960 . S
C2004 C2003 1.524 . S
C2005 C2002 1.403 . S
C2005 C2006 1.392 . S
C2005 C2009 1.495 . S
C2006 C2005 1.392 . S
C2006 C2007 1.385 . S
C2006 C2008 1.478 . S
C2007 H2001 0.930 . S
C2007 C2003 1.400 . S
C2007 C2006 1.385 . S
C2008 C2006 1.478 . S
C2008 C2010 1.381 . S
C2008 C2014 1.383 . S
C2009 C2005 1.495 . S
C2009 H2015 0.959 . S
C2009 H2016 0.961 . S
C2009 H2017 0.960 . S
C2010 C2008 1.381 . S
C2010 C2011 1.394 . S
C2010 H2018 0.930 . S
C2011 C2010 1.394 . S
C2011 C2012 1.383 . S
C2011 H2019 0.929 . S
C2012 C2011 1.383 . S
C2012 C2013 1.377 . S
C2013 H1997 0.930 . S
C2013 C2012 1.377 . S
C2013 C2014 1.379 . S
C2014 H1998 0.931 . S
C2014 C2008 1.383 . S
C2014 C2013 1.379 . S
H2015 C2009 0.959 . S
H2016 C2009 0.961 . S
H2017 C2009 0.960 . S
H2018 C2010 0.930 . S
H2019 C2011 0.929 . S
H2020 C2028 0.929 . S
H2021 C2030 0.930 . S
H2022 C2032 0.930 . S
H2023 C2035 0.929 . S
H2024 C2038 0.930 . S
H2025 C2040 0.960 . S
H2026 C2040 0.960 . S
H2027 C2040 0.960 . S
C2028 H2020 0.929 . S
C2028 C2029 1.377 . S
C2028 C2030 1.384 . S
C2029 C2028 1.377 . S
C2029 C2035 1.390 . S
C2030 H2021 0.930 . S
C2030 C2028 1.384 . S
C2030 C2031 1.372 . S
C2031 C2030 1.372 . S
C2031 C2032 1.400 . S
C2031 C2036 1.490 . S
C2032 H2022 0.930 . S
C2032 C2031 1.400 . S
C2032 C2035 1.386 . S
H2033 C2049 0.930 . S
H2034 C2050 0.931 . S
C2035 H2023 0.929 . S
C2035 C2029 1.390 . S
C2035 C2032 1.386 . S
C2036 C2031 1.490 . S
C2036 C2038 1.395 . S
C2036 C2039 1.403 . S
H2037 C2043 0.930 . S
C2038 H2024 0.930 . S
C2038 C2036 1.395 . S
C2038 C2041 1.403 . S
C2039 C2036 1.403 . S
C2039 C2040 1.524 . S
C2039 C2043 1.400 . S
C2040 H2025 0.960 . S
C2040 H2026 0.960 . S
C2040 H2027 0.960 . S
C2040 C2039 1.524 . S
C2041 C2038 1.403 . S
C2041 C2042 1.392 . S
C2041 C2045 1.495 . S
C2042 C2041 1.392 . S
C2042 C2043 1.385 . S
C2042 C2044 1.478 . S
C2043 H2037 0.930 . S
C2043 C2039 1.400 . S
C2043 C2042 1.385 . S
C2044 C2042 1.478 . S
C2044 C2046 1.381 . S
C2044 C2050 1.383 . S
C2045 C2041 1.495 . S
C2045 H2051 0.959 . S
C2045 H2052 0.961 . S
C2045 H2053 0.960 . S
C2046 C2044 1.381 . S
C2046 C2047 1.394 . S
C2046 H2054 0.930 . S
C2047 C2046 1.394 . S
C2047 C2048 1.383 . S
C2047 H2055 0.929 . S
C2048 C2047 1.383 . S
C2048 C2049 1.377 . S
C2049 H2033 0.930 . S
C2049 C2048 1.377 . S
C2049 C2050 1.379 . S
C2050 H2034 0.931 . S
C2050 C2044 1.383 . S
C2050 C2049 1.379 . S
H2051 C2045 0.959 . S
H2052 C2045 0.961 . S
H2053 C2045 0.960 . S
H2054 C2046 0.930 . S
H2055 C2047 0.929 . S
H2056 C2064 0.929 . S
H2057 C2066 0.930 . S
H2058 C2068 0.930 . S
H2059 C2071 0.929 . S
H2060 C2074 0.930 . S
H2061 C2076 0.960 . S
H2062 C2076 0.960 . S
H2063 C2076 0.960 . S
C2064 H2056 0.929 . S
C2064 C2065 1.377 . S
C2064 C2066 1.384 . S
C2065 C2064 1.377 . S
C2065 C2071 1.390 . S
C2066 H2057 0.930 . S
C2066 C2064 1.384 . S
C2066 C2067 1.372 . S
C2067 C2066 1.372 . S
C2067 C2068 1.400 . S
C2067 C2072 1.490 . S
C2068 H2058 0.930 . S
C2068 C2067 1.400 . S
C2068 C2071 1.386 . S
H2069 C2085 0.930 . S
H2070 C2086 0.931 . S
C2071 H2059 0.929 . S
C2071 C2065 1.390 . S
C2071 C2068 1.386 . S
C2072 C2067 1.490 . S
C2072 C2074 1.395 . S
C2072 C2075 1.403 . S
H2073 C2079 0.930 . S
C2074 H2060 0.930 . S
C2074 C2072 1.395 . S
C2074 C2077 1.403 1_455 S
C2075 C2072 1.403 . S
C2075 C2076 1.524 . S
C2075 C2079 1.400 1_455 S
C2076 H2061 0.960 . S
C2076 H2062 0.960 . S
C2076 H2063 0.960 . S
C2076 C2075 1.524 . S
C2077 C2074 1.403 1_655 S
C2077 C2078 1.392 . S
C2077 C2081 1.495 . S
C2078 C2077 1.392 . S
C2078 C2079 1.385 . S
C2078 C2080 1.478 . S
C2079 H2073 0.930 . S
C2079 C2075 1.400 1_655 S
C2079 C2078 1.385 . S
C2080 C2078 1.478 . S
C2080 C2082 1.381 . S
C2080 C2086 1.383 . S
C2081 C2077 1.495 . S
C2081 H2087 0.959 . S
C2081 H2088 0.961 . S
C2081 H2089 0.960 . S
C2082 C2080 1.381 . S
C2082 C2083 1.394 . S
C2082 H2090 0.930 . S
C2083 C2082 1.394 . S
C2083 C2084 1.383 . S
C2083 H2091 0.929 . S
C2084 C2083 1.383 . S
C2084 C2085 1.377 . S
C2085 H2069 0.930 . S
C2085 C2084 1.377 . S
C2085 C2086 1.379 . S
C2086 H2070 0.931 . S
C2086 C2080 1.383 . S
C2086 C2085 1.379 . S
H2087 C2081 0.959 . S
H2088 C2081 0.961 . S
H2089 C2081 0.960 . S
H2090 C2082 0.930 . S
H2091 C2083 0.929 . S
H2092 C2100 0.929 . S
H2093 C2102 0.930 . S
H2094 C2104 0.930 . S
H2095 C2107 0.929 . S
H2096 C2110 0.933 . S
H2097 C2112 0.960 . S
H2098 C2112 0.960 . S
H2099 C2112 0.985 . S
C2100 H2092 0.929 . S
C2100 C2101 1.377 . S
C2100 C2102 1.384 . S
C2101 C2100 1.377 . S
C2101 C2107 1.390 1_456 S
C2102 H2093 0.930 . S
C2102 C2100 1.384 . S
C2102 C2103 1.372 . S
C2103 C2102 1.372 . S
C2103 C2104 1.400 1_456 S
C2103 C2108 1.490 . S
C2104 H2094 0.930 . S
C2104 C2103 1.400 1_654 S
C2104 C2107 1.386 . S
H2105 C2121 0.930 . S
H2106 C2122 0.931 . S
C2107 H2095 0.929 . S
C2107 C2101 1.390 1_654 S
C2107 C2104 1.386 . S
C2108 C2103 1.490 . S
C2108 C2110 1.391 1_556 S
C2108 C2111 1.403 1_455 S
H2109 C2115 0.930 . S
C2110 H2096 0.933 . S
C2110 C2108 1.391 1_554 S
C2110 C2113 1.404 . S
C2111 C2108 1.403 1_655 S
C2111 C2112 1.524 . S
C2111 C2115 1.400 . S
C2112 H2097 0.960 . S
C2112 H2098 0.960 . S
C2112 H2099 0.985 . S
C2112 C2111 1.524 . S
C2113 C2110 1.404 . S
C2113 C2114 1.392 1_554 S
C2113 C2117 1.495 . S
C2114 C2113 1.392 1_556 S
C2114 C2115 1.385 1_455 S
C2114 C2116 1.476 1_455 S
C2115 H2109 0.930 . S
C2115 C2111 1.400 . S
C2115 C2114 1.385 1_655 S
C2116 C2114 1.476 1_655 S
C2116 C2118 1.375 1_655 S
C2116 C2122 1.391 1_556 S
C2117 C2113 1.495 . S
C2117 H2123 0.959 . S
C2117 H2124 0.961 . S
C2117 H2125 0.960 1_554 S
C2118 C2116 1.375 1_455 S
C2118 C2119 1.394 . S
C2118 H2126 0.930 . S
C2119 C2118 1.394 . S
C2119 C2120 1.383 1_455 S
C2119 H2127 0.929 . S
C2120 C2119 1.383 1_655 S
C2120 C2121 1.377 1_556 S
C2121 H2105 0.930 . S
C2121 C2120 1.377 1_554 S
C2121 C2122 1.379 . S
C2122 H2106 0.931 . S
C2122 C2116 1.391 1_554 S
C2122 C2121 1.379 . S
H2123 C2117 0.959 . S
H2124 C2117 0.961 . S
H2125 C2117 0.960 1_556 S
H2126 C2118 0.930 . S
H2127 C2119 0.929 . S
H2128 C2136 0.929 . S
H2129 C2138 0.930 . S
H2130 C2140 0.930 . S
H2131 C2143 0.929 . S
H2132 C2146 0.930 . S
H2133 C2148 0.960 . S
H2134 C2148 0.960 . S
H2135 C2148 0.960 . S
C2136 H2128 0.929 . S
C2136 C2137 1.377 . S
C2136 C2138 1.384 . S
C2137 C2136 1.377 . S
C2137 C2143 1.390 . S
C2138 H2129 0.930 . S
C2138 C2136 1.384 . S
C2138 C2139 1.372 . S
C2139 C2138 1.372 . S
C2139 C2140 1.400 . S
C2139 C2144 1.490 . S
C2140 H2130 0.930 . S
C2140 C2139 1.400 . S
C2140 C2143 1.386 . S
H2141 C2157 0.930 . S
H2142 C2158 0.931 . S
C2143 H2131 0.929 . S
C2143 C2137 1.390 . S
C2143 C2140 1.386 . S
C2144 C2139 1.490 . S
C2144 C2146 1.395 . S
C2144 C2147 1.403 . S
H2145 C2151 0.930 . S
C2146 H2132 0.930 . S
C2146 C2144 1.395 . S
C2146 C2149 1.403 . S
C2147 C2144 1.403 . S
C2147 C2148 1.524 . S
C2147 C2151 1.400 . S
C2148 H2133 0.960 . S
C2148 H2134 0.960 . S
C2148 H2135 0.960 . S
C2148 C2147 1.524 . S
C2149 C2146 1.403 . S
C2149 C2150 1.392 . S
C2149 C2153 1.495 . S
C2150 C2149 1.392 . S
C2150 C2151 1.385 . S
C2150 C2152 1.478 . S
C2151 H2145 0.930 . S
C2151 C2147 1.400 . S
C2151 C2150 1.385 . S
C2152 C2150 1.478 . S
C2152 C2154 1.381 . S
C2152 C2158 1.383 . S
C2153 C2149 1.495 . S
C2153 H2159 0.959 . S
C2153 H2160 0.961 . S
C2153 H2161 0.960 . S
C2154 C2152 1.381 . S
C2154 C2155 1.394 . S
C2154 H2162 0.930 . S
C2155 C2154 1.394 . S
C2155 C2156 1.383 . S
C2155 H2163 0.929 . S
C2156 C2155 1.383 . S
C2156 C2157 1.377 . S
C2157 H2141 0.930 . S
C2157 C2156 1.377 . S
C2157 C2158 1.379 . S
C2158 H2142 0.931 . S
C2158 C2152 1.383 . S
C2158 C2157 1.379 . S
H2159 C2153 0.959 . S
H2160 C2153 0.961 . S
H2161 C2153 0.960 . S
H2162 C2154 0.930 . S
H2163 C2155 0.929 . S
H2164 C2172 0.929 . S
H2165 C2174 0.930 . S
H2166 C2176 0.930 . S
H2167 C2179 0.929 . S
H2168 C2182 0.930 . S
H2169 C2184 0.960 . S
H2170 C2184 0.960 . S
H2171 C2184 0.960 . S
C2172 H2164 0.929 . S
C2172 C2173 1.377 . S
C2172 C2174 1.384 . S
C2173 C2172 1.377 . S
C2173 C2179 1.390 . S
C2174 H2165 0.930 . S
C2174 C2172 1.384 . S
C2174 C2175 1.372 . S
C2175 C2174 1.372 . S
C2175 C2176 1.400 . S
C2175 C2180 1.490 . S
C2176 H2166 0.930 . S
C2176 C2175 1.400 . S
C2176 C2179 1.386 . S
H2177 C2193 0.930 . S
H2178 C2194 0.931 . S
C2179 H2167 0.929 . S
C2179 C2173 1.390 . S
C2179 C2176 1.386 . S
C2180 C2175 1.490 . S
C2180 C2182 1.395 . S
C2180 C2183 1.403 . S
H2181 C2187 0.930 . S
C2182 H2168 0.930 . S
C2182 C2180 1.395 . S
C2182 C2185 1.403 1_545 S
C2183 C2180 1.403 . S
C2183 C2184 1.524 . S
C2183 C2187 1.400 1_545 S
C2184 H2169 0.960 . S
C2184 H2170 0.960 . S
C2184 H2171 0.960 . S
C2184 C2183 1.524 . S
C2185 C2182 1.403 1_565 S
C2185 C2186 1.392 . S
C2185 C2189 1.495 . S
C2186 C2185 1.392 . S
C2186 C2187 1.385 . S
C2186 C2188 1.478 . S
C2187 H2181 0.930 . S
C2187 C2183 1.400 1_565 S
C2187 C2186 1.385 . S
C2188 C2186 1.478 . S
C2188 C2190 1.381 . S
C2188 C2194 1.383 . S
C2189 C2185 1.495 . S
C2189 H2195 0.959 . S
C2189 H2196 0.961 . S
C2189 H2197 0.960 . S
C2190 C2188 1.381 . S
C2190 C2191 1.394 . S
C2190 H2198 0.930 . S
C2191 C2190 1.394 . S
C2191 C2192 1.383 . S
C2191 H2199 0.929 . S
C2192 C2191 1.383 . S
C2192 C2193 1.377 . S
C2193 H2177 0.930 . S
C2193 C2192 1.377 . S
C2193 C2194 1.379 . S
C2194 H2178 0.931 . S
C2194 C2188 1.383 . S
C2194 C2193 1.379 . S
H2195 C2189 0.959 . S
H2196 C2189 0.961 . S
H2197 C2189 0.960 . S
H2198 C2190 0.930 . S
H2199 C2191 0.929 . S
H2200 C2208 0.929 . S
H2201 C2210 0.930 . S
H2202 C2212 0.924 1_554 S
H2203 C2215 0.929 . S
H2204 C2218 0.930 . S
H2205 C2220 0.960 . S
H2206 C2220 0.960 . S
H2207 C2220 0.960 . S
C2208 H2200 0.929 . S
C2208 C2209 1.377 . S
C2208 C2210 1.384 . S
C2209 C2208 1.377 . S
C2209 C2215 1.390 . S
C2210 H2201 0.930 . S
C2210 C2208 1.384 . S
C2210 C2211 1.372 . S
C2211 C2210 1.372 . S
C2211 C2212 1.400 . S
C2211 C2216 1.490 . S
C2212 H2202 0.924 1_556 S
C2212 C2211 1.400 . S
C2212 C2215 1.386 . S
H2213 C2229 0.930 . S
H2214 C2230 0.931 . S
C2215 H2203 0.929 . S
C2215 C2209 1.390 . S
C2215 C2212 1.386 . S
C2216 C2211 1.490 . S
C2216 C2218 1.395 . S
C2216 C2219 1.403 1_556 S
H2217 C2223 0.930 . S
C2218 H2204 0.930 . S
C2218 C2216 1.395 . S
C2218 C2221 1.403 . S
C2219 C2216 1.403 1_554 S
C2219 C2220 1.524 . S
C2219 C2223 1.400 . S
C2220 H2205 0.960 . S
C2220 H2206 0.960 . S
C2220 H2207 0.960 . S
C2220 C2219 1.524 . S
C2221 C2218 1.403 . S
C2221 C2222 1.392 . S
C2221 C2225 1.495 . S
C2222 C2221 1.392 . S
C2222 C2223 1.385 1_556 S
C2222 C2224 1.477 . S
C2223 H2217 0.930 . S
C2223 C2219 1.400 . S
C2223 C2222 1.385 1_554 S
C2224 C2222 1.477 . S
C2224 C2226 1.380 1_556 S
C2224 C2230 1.383 1_556 S
C2225 C2221 1.495 . S
C2225 H2231 0.959 . S
C2225 H2232 0.961 . S
C2225 H2233 0.960 . S
C2226 C2224 1.380 1_554 S
C2226 C2227 1.401 . S
C2226 H2234 0.926 1_554 S
C2227 C2226 1.401 . S
C2227 C2228 1.383 . S
C2227 H2235 0.929 . S
C2228 C2227 1.383 . S
C2228 C2229 1.377 . S
C2229 H2213 0.930 . S
C2229 C2228 1.377 . S
C2229 C2230 1.379 . S
C2230 H2214 0.931 . S
C2230 C2224 1.383 1_554 S
C2230 C2229 1.379 . S
H2231 C2225 0.959 . S
H2232 C2225 0.961 . S
H2233 C2225 0.960 . S
H2234 C2226 0.926 1_556 S
H2235 C2227 0.929 . S
H2236 C2244 0.929 . S
H2237 C2246 0.930 . S
H2238 C2248 0.930 . S
H2239 C2251 0.929 . S
H2240 C2254 0.930 . S
H2241 C2256 0.960 . S
H2242 C2256 0.960 . S
H2243 C2256 0.960 . S
C2244 H2236 0.929 . S
C2244 C2245 1.377 . S
C2244 C2246 1.384 . S
C2245 C2244 1.377 . S
C2245 C2251 1.390 . S
C2246 H2237 0.930 . S
C2246 C2244 1.384 . S
C2246 C2247 1.372 . S
C2247 C2246 1.372 . S
C2247 C2248 1.400 . S
C2247 C2252 1.490 . S
C2248 H2238 0.930 . S
C2248 C2247 1.400 . S
C2248 C2251 1.386 . S
H2249 C2265 0.930 . S
H2250 C2266 0.931 . S
C2251 H2239 0.929 . S
C2251 C2245 1.390 . S
C2251 C2248 1.386 . S
C2252 C2247 1.490 . S
C2252 C2254 1.395 . S
C2252 C2255 1.403 . S
H2253 C2259 0.930 . S
C2254 H2240 0.930 . S
C2254 C2252 1.395 . S
C2254 C2257 1.403 1_545 S
C2255 C2252 1.403 . S
C2255 C2256 1.524 . S
C2255 C2259 1.400 1_545 S
C2256 H2241 0.960 . S
C2256 H2242 0.960 . S
C2256 H2243 0.960 . S
C2256 C2255 1.524 . S
C2257 C2254 1.403 1_565 S
C2257 C2258 1.392 . S
C2257 C2261 1.495 . S
C2258 C2257 1.392 . S
C2258 C2259 1.385 . S
C2258 C2260 1.478 . S
C2259 H2253 0.930 . S
C2259 C2255 1.400 1_565 S
C2259 C2258 1.385 . S
C2260 C2258 1.478 . S
C2260 C2262 1.381 . S
C2260 C2266 1.383 . S
C2261 C2257 1.495 . S
C2261 H2267 0.959 . S
C2261 H2268 0.961 . S
C2261 H2269 0.960 . S
C2262 C2260 1.381 . S
C2262 C2263 1.394 . S
C2262 H2270 0.930 . S
C2263 C2262 1.394 . S
C2263 C2264 1.383 . S
C2263 H2271 0.929 . S
C2264 C2263 1.383 . S
C2264 C2265 1.377 . S
C2265 H2249 0.930 . S
C2265 C2264 1.377 . S
C2265 C2266 1.379 . S
C2266 H2250 0.931 . S
C2266 C2260 1.383 . S
C2266 C2265 1.379 . S
H2267 C2261 0.959 . S
H2268 C2261 0.961 . S
H2269 C2261 0.960 . S
H2270 C2262 0.930 . S
H2271 C2263 0.929 . S
H2272 C2280 0.929 . S
H2273 C2282 0.930 . S
H2274 C2284 0.930 . S
H2275 C2287 0.937 . S
H2276 C2290 0.930 . S
H2277 C2292 0.960 . S
H2278 C2292 0.960 . S
H2279 C2292 0.960 . S
C2280 H2272 0.929 . S
C2280 C2281 1.377 1_545 S
C2280 C2282 1.384 . S
C2281 C2280 1.377 1_565 S
C2281 C2287 1.380 1_554 S
C2282 H2273 0.930 . S
C2282 C2280 1.384 . S
C2282 C2283 1.372 1_545 S
C2283 C2282 1.372 1_565 S
C2283 C2284 1.400 1_554 S
C2283 C2288 1.490 . S
C2284 H2274 0.930 . S
C2284 C2283 1.400 1_556 S
C2284 C2287 1.388 . S
H2285 C2301 0.930 . S
H2286 C2302 0.931 . S
C2287 H2275 0.937 . S
C2287 C2281 1.380 1_556 S
C2287 C2284 1.388 . S
C2288 C2283 1.490 . S
C2288 C2290 1.395 1_564 S
C2288 C2291 1.403 . S
H2289 C2295 0.930 . S
C2290 H2276 0.930 . S
C2290 C2288 1.395 1_546 S
C2290 C2293 1.403 . S
C2291 C2288 1.403 . S
C2291 C2292 1.524 . S
C2291 C2295 1.400 . S
C2292 H2277 0.960 . S
C2292 H2278 0.960 . S
C2292 H2279 0.960 . S
C2292 C2291 1.524 . S
C2293 C2290 1.403 . S
C2293 C2294 1.416 . S
C2293 C2297 1.495 . S
C2294 C2293 1.416 . S
C2294 C2295 1.360 1_546 S
C2294 C2296 1.478 . S
C2295 H2289 0.930 . S
C2295 C2291 1.400 . S
C2295 C2294 1.360 1_564 S
C2296 C2294 1.478 . S
C2296 C2298 1.388 1_556 S
C2296 C2302 1.368 1_545 S
C2297 C2293 1.495 . S
C2297 H2303 0.959 . S
C2297 H2304 0.961 . S
C2297 H2305 0.960 . S
C2298 C2296 1.388 1_554 S
C2298 C2299 1.392 1_554 S
C2298 H2306 0.939 . S
C2299 C2298 1.392 1_556 S
C2299 C2300 1.405 1_545 S
C2299 H2307 0.912 1_556 S
C2300 C2299 1.405 1_565 S
C2300 C2301 1.377 . S
C2301 H2285 0.930 . S
C2301 C2300 1.377 . S
C2301 C2302 1.379 . S
C2302 H2286 0.931 . S
C2302 C2296 1.368 1_565 S
C2302 C2301 1.379 . S
H2303 C2297 0.959 . S
H2304 C2297 0.961 . S
H2305 C2297 0.960 . S
H2306 C2298 0.939 . S
H2307 C2299 0.912 1_554 S
H2308 C2316 0.929 . S
H2309 C2318 0.930 . S
H2310 C2320 0.930 . S
H2311 C2323 0.929 . S
H2312 C2326 0.930 . S
H2313 C2328 0.960 . S
H2314 C2328 0.960 . S
H2315 C2328 0.960 . S
C2316 H2308 0.929 . S
C2316 C2317 1.377 . S
C2316 C2318 1.384 . S
C2317 C2316 1.377 . S
C2317 C2323 1.390 . S
C2318 H2309 0.930 . S
C2318 C2316 1.384 . S
C2318 C2319 1.372 . S
C2319 C2318 1.372 . S
C2319 C2320 1.400 . S
C2319 C2324 1.490 . S
C2320 H2310 0.930 . S
C2320 C2319 1.400 . S
C2320 C2323 1.386 . S
H2321 C2337 0.930 . S
H2322 C2338 0.931 . S
C2323 H2311 0.929 . S
C2323 C2317 1.390 . S
C2323 C2320 1.386 . S
C2324 C2319 1.490 . S
C2324 C2326 1.395 . S
C2324 C2327 1.403 . S
H2325 C2331 0.930 . S
C2326 H2312 0.930 . S
C2326 C2324 1.395 . S
C2326 C2329 1.403 . S
C2327 C2324 1.403 . S
C2327 C2328 1.524 . S
C2327 C2331 1.400 . S
C2328 H2313 0.960 . S
C2328 H2314 0.960 . S
C2328 H2315 0.960 . S
C2328 C2327 1.524 . S
C2329 C2326 1.403 . S
C2329 C2330 1.392 . S
C2329 C2333 1.495 . S
C2330 C2329 1.392 . S
C2330 C2331 1.385 . S
C2330 C2332 1.478 . S
C2331 H2325 0.930 . S
C2331 C2327 1.400 . S
C2331 C2330 1.385 . S
C2332 C2330 1.478 . S
C2332 C2334 1.381 . S
C2332 C2338 1.383 . S
C2333 C2329 1.495 . S
C2333 H2339 0.959 . S
C2333 H2340 0.961 . S
C2333 H2341 0.960 . S
C2334 C2332 1.381 . S
C2334 C2335 1.394 . S
C2334 H2342 0.930 . S
C2335 C2334 1.394 . S
C2335 C2336 1.383 . S
C2335 H2343 0.929 . S
C2336 C2335 1.383 . S
C2336 C2337 1.377 . S
C2337 H2321 0.930 . S
C2337 C2336 1.377 . S
C2337 C2338 1.379 . S
C2338 H2322 0.931 . S
C2338 C2332 1.383 . S
C2338 C2337 1.379 . S
H2339 C2333 0.959 . S
H2340 C2333 0.961 . S
H2341 C2333 0.960 . S
H2342 C2334 0.930 . S
H2343 C2335 0.929 . S
H2344 C2352 0.929 . S
H2345 C2354 0.930 . S
H2346 C2356 0.930 . S
H2347 C2359 0.929 . S
H2348 C2362 0.930 . S
H2349 C2364 0.960 . S
H2350 C2364 0.960 . S
H2351 C2364 0.960 . S
C2352 H2344 0.929 . S
C2352 C2353 1.377 . S
C2352 C2354 1.384 . S
C2353 C2352 1.377 . S
C2353 C2359 1.390 . S
C2354 H2345 0.930 . S
C2354 C2352 1.384 . S
C2354 C2355 1.372 . S
C2355 C2354 1.372 . S
C2355 C2356 1.400 . S
C2355 C2360 1.490 . S
C2356 H2346 0.930 . S
C2356 C2355 1.400 . S
C2356 C2359 1.386 . S
H2357 C2373 0.930 . S
H2358 C2374 0.931 . S
C2359 H2347 0.929 . S
C2359 C2353 1.390 . S
C2359 C2356 1.386 . S
C2360 C2355 1.490 . S
C2360 C2362 1.395 . S
C2360 C2363 1.403 . S
H2361 C2367 0.930 . S
C2362 H2348 0.930 . S
C2362 C2360 1.395 . S
C2362 C2365 1.403 . S
C2363 C2360 1.403 . S
C2363 C2364 1.524 . S
C2363 C2367 1.400 . S
C2364 H2349 0.960 . S
C2364 H2350 0.960 . S
C2364 H2351 0.960 . S
C2364 C2363 1.524 . S
C2365 C2362 1.403 . S
C2365 C2366 1.392 . S
C2365 C2369 1.495 . S
C2366 C2365 1.392 . S
C2366 C2367 1.385 . S
C2366 C2368 1.478 . S
C2367 H2361 0.930 . S
C2367 C2363 1.400 . S
C2367 C2366 1.385 . S
C2368 C2366 1.478 . S
C2368 C2370 1.381 . S
C2368 C2374 1.383 . S
C2369 C2365 1.495 . S
C2369 H2375 0.959 . S
C2369 H2376 0.961 . S
C2369 H2377 0.960 . S
C2370 C2368 1.381 . S
C2370 C2371 1.394 . S
C2370 H2378 0.930 . S
C2371 C2370 1.394 . S
C2371 C2372 1.383 . S
C2371 H2379 0.929 . S
C2372 C2371 1.383 . S
C2372 C2373 1.377 . S
C2373 H2357 0.930 . S
C2373 C2372 1.377 . S
C2373 C2374 1.379 . S
C2374 H2358 0.931 . S
C2374 C2368 1.383 . S
C2374 C2373 1.379 . S
H2375 C2369 0.959 . S
H2376 C2369 0.961 . S
H2377 C2369 0.960 . S
H2378 C2370 0.930 . S
H2379 C2371 0.929 . S
H2380 C2388 0.929 . S
H2381 C2390 0.930 . S
H2382 C2392 0.930 . S
H2383 C2395 0.929 . S
H2384 C2398 0.930 . S
H2385 C2400 0.960 . S
H2386 C2400 0.960 . S
H2387 C2400 0.960 . S
C2388 H2380 0.929 . S
C2388 C2389 1.377 . S
C2388 C2390 1.384 . S
C2389 C2388 1.377 . S
C2389 C2395 1.390 . S
C2390 H2381 0.930 . S
C2390 C2388 1.384 . S
C2390 C2391 1.372 . S
C2391 C2390 1.372 . S
C2391 C2392 1.400 . S
C2391 C2396 1.490 . S
C2392 H2382 0.930 . S
C2392 C2391 1.400 . S
C2392 C2395 1.386 . S
H2393 C2409 0.930 . S
H2394 C2410 0.931 . S
C2395 H2383 0.929 . S
C2395 C2389 1.390 . S
C2395 C2392 1.386 . S
C2396 C2391 1.490 . S
C2396 C2398 1.395 . S
C2396 C2399 1.403 . S
H2397 C2403 0.930 . S
C2398 H2384 0.930 . S
C2398 C2396 1.395 . S
C2398 C2401 1.403 1_556 S
C2399 C2396 1.403 . S
C2399 C2400 1.524 . S
C2399 C2403 1.400 1_556 S
C2400 H2385 0.960 . S
C2400 H2386 0.960 . S
C2400 H2387 0.960 . S
C2400 C2399 1.524 . S
C2401 C2398 1.403 1_554 S
C2401 C2402 1.392 . S
C2401 C2405 1.495 . S
C2402 C2401 1.392 . S
C2402 C2403 1.385 . S
C2402 C2404 1.478 . S
C2403 H2397 0.930 . S
C2403 C2399 1.400 1_554 S
C2403 C2402 1.385 . S
C2404 C2402 1.478 . S
C2404 C2406 1.381 . S
C2404 C2410 1.383 . S
C2405 C2401 1.495 . S
C2405 H2411 0.959 . S
C2405 H2412 0.961 . S
C2405 H2413 0.960 . S
C2406 C2404 1.381 . S
C2406 C2407 1.394 . S
C2406 H2414 0.930 . S
C2407 C2406 1.394 . S
C2407 C2408 1.383 . S
C2407 H2415 0.929 . S
C2408 C2407 1.383 . S
C2408 C2409 1.377 . S
C2409 H2393 0.930 . S
C2409 C2408 1.377 . S
C2409 C2410 1.379 . S
C2410 H2394 0.931 . S
C2410 C2404 1.383 . S
C2410 C2409 1.379 . S
H2411 C2405 0.959 . S
H2412 C2405 0.961 . S
H2413 C2405 0.960 . S
H2414 C2406 0.930 . S
H2415 C2407 0.929 . S
H2416 C2424 0.929 . S
H2417 C2426 0.930 . S
H2418 C2428 0.930 . S
H2419 C2431 0.929 . S
H2420 C2434 0.930 . S
H2421 C2436 0.960 . S
H2422 C2436 0.960 . S
H2423 C2436 0.960 . S
C2424 H2416 0.929 . S
C2424 C2425 1.377 . S
C2424 C2426 1.384 . S
C2425 C2424 1.377 . S
C2425 C2431 1.390 . S
C2426 H2417 0.930 . S
C2426 C2424 1.384 . S
C2426 C2427 1.372 . S
C2427 C2426 1.372 . S
C2427 C2428 1.400 . S
C2427 C2432 1.490 . S
C2428 H2418 0.930 . S
C2428 C2427 1.400 . S
C2428 C2431 1.386 . S
H2429 C2445 0.930 . S
H2430 C2446 0.931 . S
C2431 H2419 0.929 . S
C2431 C2425 1.390 . S
C2431 C2428 1.386 . S
C2432 C2427 1.490 . S
C2432 C2434 1.395 . S
C2432 C2435 1.403 . S
H2433 C2439 0.930 . S
C2434 H2420 0.930 . S
C2434 C2432 1.395 . S
C2434 C2437 1.403 . S
C2435 C2432 1.403 . S
C2435 C2436 1.524 . S
C2435 C2439 1.400 . S
C2436 H2421 0.960 . S
C2436 H2422 0.960 . S
C2436 H2423 0.960 . S
C2436 C2435 1.524 . S
C2437 C2434 1.403 . S
C2437 C2438 1.392 . S
C2437 C2441 1.495 . S
C2438 C2437 1.392 . S
C2438 C2439 1.385 . S
C2438 C2440 1.478 . S
C2439 H2433 0.930 . S
C2439 C2435 1.400 . S
C2439 C2438 1.385 . S
C2440 C2438 1.478 . S
C2440 C2442 1.381 . S
C2440 C2446 1.383 . S
C2441 C2437 1.495 . S
C2441 H2447 0.959 . S
C2441 H2448 0.961 . S
C2441 H2449 0.960 . S
C2442 C2440 1.381 . S
C2442 C2443 1.394 . S
C2442 H2450 0.930 . S
C2443 C2442 1.394 . S
C2443 C2444 1.383 . S
C2443 H2451 0.929 . S
C2444 C2443 1.383 . S
C2444 C2445 1.377 . S
C2445 H2429 0.930 . S
C2445 C2444 1.377 . S
C2445 C2446 1.379 . S
C2446 H2430 0.931 . S
C2446 C2440 1.383 . S
C2446 C2445 1.379 . S
H2447 C2441 0.959 . S
H2448 C2441 0.961 . S
H2449 C2441 0.960 . S
H2450 C2442 0.930 . S
H2451 C2443 0.929 . S
H2452 C2460 0.929 . S
H2453 C2462 0.930 . S
H2454 C2464 0.930 . S
H2455 C2467 0.929 . S
H2456 C2470 0.930 . S
H2457 C2472 0.960 . S
H2458 C2472 0.960 . S
H2459 C2472 0.960 . S
C2460 H2452 0.929 . S
C2460 C2461 1.377 . S
C2460 C2462 1.384 . S
C2461 C2460 1.377 . S
C2461 C2467 1.390 . S
C2462 H2453 0.930 . S
C2462 C2460 1.384 . S
C2462 C2463 1.372 . S
C2463 C2462 1.372 . S
C2463 C2464 1.400 . S
C2463 C2468 1.490 . S
C2464 H2454 0.930 . S
C2464 C2463 1.400 . S
C2464 C2467 1.386 . S
H2465 C2481 0.930 . S
H2466 C2482 0.931 . S
C2467 H2455 0.929 . S
C2467 C2461 1.390 . S
C2467 C2464 1.386 . S
C2468 C2463 1.490 . S
C2468 C2470 1.395 . S
C2468 C2471 1.403 . S
H2469 C2475 0.930 . S
C2470 H2456 0.930 . S
C2470 C2468 1.395 . S
C2470 C2473 1.403 . S
C2471 C2468 1.403 . S
C2471 C2472 1.524 . S
C2471 C2475 1.400 . S
C2472 H2457 0.960 . S
C2472 H2458 0.960 . S
C2472 H2459 0.960 . S
C2472 C2471 1.524 . S
C2473 C2470 1.403 . S
C2473 C2474 1.392 . S
C2473 C2477 1.495 . S
C2474 C2473 1.392 . S
C2474 C2475 1.385 . S
C2474 C2476 1.478 . S
C2475 H2469 0.930 . S
C2475 C2471 1.400 . S
C2475 C2474 1.385 . S
C2476 C2474 1.478 . S
C2476 C2478 1.381 . S
C2476 C2482 1.383 . S
C2477 C2473 1.495 . S
C2477 H2483 0.959 . S
C2477 H2484 0.961 . S
C2477 H2485 0.960 . S
C2478 C2476 1.381 . S
C2478 C2479 1.394 . S
C2478 H2486 0.930 . S
C2479 C2478 1.394 . S
C2479 C2480 1.383 . S
C2479 H2487 0.929 . S
C2480 C2479 1.383 . S
C2480 C2481 1.377 . S
C2481 H2465 0.930 . S
C2481 C2480 1.377 . S
C2481 C2482 1.379 . S
C2482 H2466 0.931 . S
C2482 C2476 1.383 . S
C2482 C2481 1.379 . S
H2483 C2477 0.959 . S
H2484 C2477 0.961 . S
H2485 C2477 0.960 . S
H2486 C2478 0.930 . S
H2487 C2479 0.929 . S
H2488 C2496 0.929 . S
H2489 C2498 0.930 . S
H2490 C2500 0.930 . S
H2491 C2503 0.929 . S
H2492 C2506 0.930 . S
H2493 C2508 0.960 . S
H2494 C2508 0.960 . S
H2495 C2508 0.960 1_655 S
C2496 H2488 0.929 . S
C2496 C2497 1.377 . S
C2496 C2498 1.384 . S
C2497 C2496 1.377 . S
C2497 C2503 1.390 1_455 S
C2498 H2489 0.930 . S
C2498 C2496 1.384 . S
C2498 C2499 1.372 . S
C2499 C2498 1.372 . S
C2499 C2500 1.400 1_455 S
C2499 C2504 1.490 . S
C2500 H2490 0.930 . S
C2500 C2499 1.400 1_655 S
C2500 C2503 1.386 . S
H2501 C2517 0.930 . S
H2502 C2518 0.931 . S
C2503 H2491 0.929 . S
C2503 C2497 1.390 1_655 S
C2503 C2500 1.386 . S
C2504 C2499 1.490 . S
C2504 C2506 1.395 . S
C2504 C2507 1.403 . S
H2505 C2511 0.930 . S
C2506 H2492 0.930 . S
C2506 C2504 1.395 . S
C2506 C2509 1.403 . S
C2507 C2504 1.403 . S
C2507 C2508 1.524 . S
C2507 C2511 1.400 . S
C2508 H2493 0.960 . S
C2508 H2494 0.960 . S
C2508 H2495 0.960 1_455 S
C2508 C2507 1.524 . S
C2509 C2506 1.403 . S
C2509 C2510 1.392 . S
C2509 C2513 1.495 . S
C2510 C2509 1.392 . S
C2510 C2511 1.385 . S
C2510 C2512 1.478 . S
C2511 H2505 0.930 . S
C2511 C2507 1.400 . S
C2511 C2510 1.385 . S
C2512 C2510 1.478 . S
C2512 C2514 1.381 . S
C2512 C2518 1.383 1_455 S
C2513 C2509 1.495 . S
C2513 H2519 0.959 . S
C2513 H2520 0.961 1_455 S
C2513 H2521 0.960 . S
C2514 C2512 1.381 . S
C2514 C2515 1.394 . S
C2514 H2522 0.930 . S
C2515 C2514 1.394 . S
C2515 C2516 1.383 . S
C2515 H2523 0.929 . S
C2516 C2515 1.383 . S
C2516 C2517 1.377 1_455 S
C2517 H2501 0.930 . S
C2517 C2516 1.377 1_655 S
C2517 C2518 1.379 . S
C2518 H2502 0.931 . S
C2518 C2512 1.383 1_655 S
C2518 C2517 1.379 . S
H2519 C2513 0.959 . S
H2520 C2513 0.961 1_655 S
H2521 C2513 0.960 . S
H2522 C2514 0.930 . S
H2523 C2515 0.929 . S
H2524 C2532 0.929 . S
H2525 C2534 0.930 . S
H2526 C2536 0.930 . S
H2527 C2539 0.929 . S
H2528 C2542 0.930 . S
H2529 C2544 0.960 . S
H2530 C2544 0.960 . S
H2531 C2544 0.960 . S
C2532 H2524 0.929 . S
C2532 C2533 1.377 . S
C2532 C2534 1.384 . S
C2533 C2532 1.377 . S
C2533 C2539 1.390 1_545 S
C2534 H2525 0.930 . S
C2534 C2532 1.384 . S
C2534 C2535 1.372 . S
C2535 C2534 1.372 . S
C2535 C2536 1.400 1_545 S
C2535 C2540 1.490 . S
C2536 H2526 0.930 . S
C2536 C2535 1.400 1_565 S
C2536 C2539 1.386 . S
H2537 C2553 0.930 . S
H2538 C2554 0.931 . S
C2539 H2527 0.929 . S
C2539 C2533 1.390 1_565 S
C2539 C2536 1.386 . S
C2540 C2535 1.490 . S
C2540 C2542 1.395 . S
C2540 C2543 1.403 1_545 S
H2541 C2547 0.930 . S
C2542 H2528 0.930 . S
C2542 C2540 1.395 . S
C2542 C2545 1.403 . S
C2543 C2540 1.403 1_565 S
C2543 C2544 1.524 . S
C2543 C2547 1.400 . S
C2544 H2529 0.960 . S
C2544 H2530 0.960 . S
C2544 H2531 0.960 . S
C2544 C2543 1.524 . S
C2545 C2542 1.403 . S
C2545 C2546 1.392 . S
C2545 C2549 1.495 . S
C2546 C2545 1.392 . S
C2546 C2547 1.385 1_545 S
C2546 C2548 1.478 . S
C2547 H2541 0.930 . S
C2547 C2543 1.400 . S
C2547 C2546 1.385 1_565 S
C2548 C2546 1.478 . S
C2548 C2550 1.381 . S
C2548 C2554 1.383 1_545 S
C2549 C2545 1.495 . S
C2549 H2555 0.959 . S
C2549 H2556 0.961 . S
C2549 H2557 0.960 . S
C2550 C2548 1.381 . S
C2550 C2551 1.394 . S
C2550 H2558 0.930 . S
C2551 C2550 1.394 . S
C2551 C2552 1.383 . S
C2551 H2559 0.929 . S
C2552 C2551 1.383 . S
C2552 C2553 1.377 1_545 S
C2553 H2537 0.930 . S
C2553 C2552 1.377 1_565 S
C2553 C2554 1.379 . S
C2554 H2538 0.931 . S
C2554 C2548 1.383 1_565 S
C2554 C2553 1.379 . S
H2555 C2549 0.959 . S
H2556 C2549 0.961 . S
H2557 C2549 0.960 . S
H2558 C2550 0.930 . S
H2559 C2551 0.929 . S
C1417 C57 2.000 . S
C1436 C645 1.997 . S
C1453 C145 2.004 . S
C1472 C372 1.999 . S
C1489 C489 1.999 . S
C1508 C205 1.995 . S
C1525 C321 2.002 . S
C1544 C548 1.996 . S
C1561 C724 2.004 . S
C1580 C1113 1.999 . S
C1597 C849 1.999 . S
C1616 C1252 1.994 . S
C1633 C1025 2.002 . S
C1652 C900 1.999 . S
C1669 C1340 2.000 . S
C1688 C1201 1.997 . S
C1705 C29 0.970 . S
C1724 C585 0.953 . S
C1741 C636 0.989 . S
C1760 C137 1.010 . S
C1777 C233 0.968 . S
C1796 C409 0.958 . S
C1813 C497 1.006 . S
C1832 C284 1.025 . S
C1849 C49 0.976 . S
C1868 C1261 0.952 . S
C1885 C997 0.956 . S
C1904 C108 0.931 . S
C1921 C1193 0.976 . S
C1940 C196 0.952 . S
C1957 C1076 0.953 . S
C1976 C293 0.949 . S
C1993 C929 1.005 . S
C2012 C401 0.990 . S
C2029 C469 0.978 . S
C2048 C1377 0.985 . S
C2065 C577 1.010 . S
C2084 C753 1.026 . S
C2101 C665 0.972 . S
C2120 C812 0.953 . S
C2137 C20 0.992 . S
C2156 C381 1.004 . S
C2173 C733 0.985 . S
C2192 C1164 0.962 . S
C2209 C1085 0.986 . S
C2228 C821 0.965 . S
C2245 C1289 0.984 . S
C2264 C909 0.999 . S
C2281 C673 0.988 . S
C2300 C313 1.003 . S
C2317 C225 0.973 . S
C2336 C557 0.949 . S
C2353 C1017 0.981 . S
C2372 C1369 0.999 . S
C2389 C1173 0.979 . S
C2408 C937 0.998 . S
C2425 C1349 0.987 . S
C2444 C1105 0.977 . S
C2461 C1281 0.965 . S
C2480 C761 0.947 . S
C2497 C988 0.998 . S
C2516 C841 0.974 . S
C2533 C117 0.986 . S
C2552 C460 0.966 . S
