# Generated by pormake.
# Topology wju, (5)-cn, num edge types: 1
# Building blocks:
#     Node 0, Type 0, BuildingBlock: XOMCOT_clean_sbu_1, # of connection points: 5
#     Node 1, Type 0, BuildingBlock: XOMCOT_clean_sbu_1, # of connection points: 5
#     Node 2, Type 0, BuildingBlock: XOMCOT_clean_sbu_1, # of connection points: 5
#     Node 3, Type 0, BuildingBlock: XOMCOT_clean_sbu_1, # of connection points: 5
#     Node 4, Type 0, BuildingBlock: XOMCOT_clean_sbu_1, # of connection points: 5
#     Node 5, Type 0, BuildingBlock: XOMCOT_clean_sbu_1, # of connection points: 5
#     Node 6, Type 0, BuildingBlock: XOMCOT_clean_sbu_1, # of connection points: 5
#     Node 7, Type 0, BuildingBlock: XOMCOT_clean_sbu_1, # of connection points: 5
#     Node 8, Type 0, BuildingBlock: XOMCOT_clean_sbu_1, # of connection points: 5
#     Node 9, Type 0, BuildingBlock: XOMCOT_clean_sbu_1, # of connection points: 5
#     Node 10, Type 0, BuildingBlock: XOMCOT_clean_sbu_1, # of connection points: 5
#     Node 11, Type 0, BuildingBlock: XOMCOT_clean_sbu_1, # of connection points: 5
#     Edge 12, Type (0, 0), BuildingBlock: UVAHIK_clean_linker_0, # of connection points: 2
#     Edge 13, Type (0, 0), BuildingBlock: UVAHIK_clean_linker_0, # of connection points: 2
#     Edge 14, Type (0, 0), BuildingBlock: UVAHIK_clean_linker_0, # of connection points: 2
#     Edge 15, Type (0, 0), BuildingBlock: UVAHIK_clean_linker_0, # of connection points: 2
#     Edge 16, Type (0, 0), BuildingBlock: UVAHIK_clean_linker_0, # of connection points: 2
#     Edge 17, Type (0, 0), BuildingBlock: UVAHIK_clean_linker_0, # of connection points: 2
#     Edge 18, Type (0, 0), BuildingBlock: UVAHIK_clean_linker_0, # of connection points: 2
#     Edge 19, Type (0, 0), BuildingBlock: UVAHIK_clean_linker_0, # of connection points: 2
#     Edge 20, Type (0, 0), BuildingBlock: UVAHIK_clean_linker_0, # of connection points: 2
#     Edge 21, Type (0, 0), BuildingBlock: UVAHIK_clean_linker_0, # of connection points: 2
#     Edge 22, Type (0, 0), BuildingBlock: UVAHIK_clean_linker_0, # of connection points: 2
#     Edge 23, Type (0, 0), BuildingBlock: UVAHIK_clean_linker_0, # of connection points: 2
#     Edge 24, Type (0, 0), BuildingBlock: UVAHIK_clean_linker_0, # of connection points: 2
#     Edge 25, Type (0, 0), BuildingBlock: UVAHIK_clean_linker_0, # of connection points: 2
#     Edge 26, Type (0, 0), BuildingBlock: UVAHIK_clean_linker_0, # of connection points: 2
#     Edge 27, Type (0, 0), BuildingBlock: UVAHIK_clean_linker_0, # of connection points: 2
#     Edge 28, Type (0, 0), BuildingBlock: UVAHIK_clean_linker_0, # of connection points: 2
#     Edge 29, Type (0, 0), BuildingBlock: UVAHIK_clean_linker_0, # of connection points: 2
#     Edge 30, Type (0, 0), BuildingBlock: UVAHIK_clean_linker_0, # of connection points: 2
#     Edge 31, Type (0, 0), BuildingBlock: UVAHIK_clean_linker_0, # of connection points: 2
#     Edge 32, Type (0, 0), BuildingBlock: UVAHIK_clean_linker_0, # of connection points: 2
#     Edge 33, Type (0, 0), BuildingBlock: UVAHIK_clean_linker_0, # of connection points: 2
#     Edge 34, Type (0, 0), BuildingBlock: UVAHIK_clean_linker_0, # of connection points: 2
#     Edge 35, Type (0, 0), BuildingBlock: UVAHIK_clean_linker_0, # of connection points: 2
#     Edge 36, Type (0, 0), BuildingBlock: UVAHIK_clean_linker_0, # of connection points: 2
#     Edge 37, Type (0, 0), BuildingBlock: UVAHIK_clean_linker_0, # of connection points: 2
#     Edge 38, Type (0, 0), BuildingBlock: UVAHIK_clean_linker_0, # of connection points: 2
#     Edge 39, Type (0, 0), BuildingBlock: UVAHIK_clean_linker_0, # of connection points: 2
#     Edge 40, Type (0, 0), BuildingBlock: UVAHIK_clean_linker_0, # of connection points: 2
#     Edge 41, Type (0, 0), BuildingBlock: UVAHIK_clean_linker_0, # of connection points: 2
# Relax obj value: 0.079
# Max RMSD: 0.118
# Mean RMSD: 0.118
data_MOF--net-wju--node1-XOMCOT_clean_sbu_1--edge1-UVAHIK_clean_linker_0
_symmetry_space_group_name_H-M    P1
_symmetry_Int_Tables_number       1
_symmetry_cell_setting            triclinic
loop_
_symmetry_equiv_pos_as_xyz
'x, y, z'
_cell_length_a     35.454297
_cell_length_b     35.418408
_cell_length_c     128.07748
_cell_angle_alpha  89.975382
_cell_angle_beta   90.02125
_cell_angle_gamma 119.93138
loop_
_atom_site_label
_atom_site_type_symbol
_atom_site_fract_x
_atom_site_fract_y
_atom_site_fract_z
_atom_type_partial_charge
C0 C 0.26673 0.14783 0.11006 0.0
C1 C 0.26348 0.15103 0.12064 0.0
N2 N 0.29103 0.14058 0.1253 0.0
N3 N 0.2963 0.13552 0.10797 0.0
C4 C 0.3104 0.13087 0.11748 0.0
H5 H 0.25059 0.15677 0.10422 0.0
Co6 Co 0.31589 0.1386 0.09432 0.0
C7 C 0.38432 0.11469 0.09494 0.0
O8 O 0.40714 0.14932 0.08913 0.0
N9 N 0.33466 0.14242 0.08003 0.0
C10 C 0.36323 0.16794 0.06429 0.0
C11 C 0.36452 0.17785 0.07468 0.0
C12 C 0.31659 0.11102 0.07257 0.0
N13 N 0.33275 0.12601 0.06294 0.0
O14 O 0.26168 0.08642 0.09118 0.0
H15 H 0.38612 0.20951 0.07794 0.0
H16 H 0.29035 0.07826 0.07402 0.0
O17 O 0.34606 0.10536 0.09798 0.0
C18 C 0.23801 0.09965 0.08674 0.0
O19 O 0.25641 0.14099 0.08412 0.0
N20 N 0.36376 0.19282 0.09773 0.0
C21 C 0.41191 0.27772 0.10535 0.0
C22 C 0.42087 0.24526 0.10873 0.0
C23 C 0.39578 0.2026 0.10496 0.0
C24 C 0.35488 0.22412 0.09444 0.0
C25 C 0.37912 0.26678 0.09791 0.0
H26 H 0.40028 0.17732 0.1084 0.0
H27 H 0.3277 0.21546 0.08926 0.0
H28 H 0.33657 0.12391 0.11862 0.0
H29 H 0.24387 0.16217 0.12462 0.0
H30 H 0.38271 0.19018 0.05816 0.0
H31 H 0.44522 0.25215 0.11467 0.0
H32 H 0.37125 0.29073 0.09499 0.0
C33 C 0.13041 0.28751 0.44215 0.0
C34 C 0.1173 0.28068 0.45239 0.0
N35 N 0.15273 0.29425 0.45849 0.0
N36 N 0.17399 0.30544 0.44171 0.0
C37 C 0.18672 0.30848 0.4518 0.0
H38 H 0.10966 0.28127 0.43543 0.0
Co39 Co 0.20479 0.32397 0.42911 0.0
C40 C 0.2886 0.39482 0.43917 0.0
O41 O 0.27855 0.42525 0.43754 0.0
N42 N 0.23572 0.34158 0.41621 0.0
C43 C 0.28262 0.38207 0.40379 0.0
C44 C 0.26854 0.38184 0.41378 0.0
C45 C 0.23019 0.3181 0.40739 0.0
N46 N 0.25845 0.34195 0.39976 0.0
O47 O 0.20695 0.27098 0.42899 0.0
H48 H 0.28089 0.41 0.41876 0.0
H49 H 0.20615 0.28411 0.40651 0.0
O50 O 0.2623 0.35523 0.43644 0.0
C51 C 0.17162 0.24293 0.42459 0.0
O52 O 0.14638 0.25622 0.42042 0.0
N53 N 0.1953 0.37226 0.42892 0.0
C54 C 0.15169 0.41981 0.42875 0.0
C55 C 0.17164 0.41655 0.43787 0.0
C56 C 0.19252 0.39207 0.43784 0.0
C57 C 0.17708 0.37638 0.4199 0.0
C58 C 0.15579 0.40052 0.4196 0.0
H59 H 0.20439 0.38722 0.44519 0.0
H60 H 0.17571 0.35807 0.41303 0.0
H61 H 0.22037 0.32307 0.45421 0.0
H62 H 0.08419 0.26734 0.45513 0.0
H63 H 0.30791 0.41 0.3997 0.0
H64 H 0.16836 0.42998 0.44518 0.0
H65 H 0.14056 0.40197 0.4124 0.0
C66 C 0.84636 0.11881 0.77502 0.0
C67 C 0.84409 0.11014 0.7855 0.0
N68 N 0.85808 0.14774 0.79076 0.0
N69 N 0.86195 0.16174 0.77356 0.0
C70 C 0.86928 0.17878 0.78332 0.0
H71 H 0.83561 0.0949 0.76884 0.0
Co72 Co 0.86267 0.18333 0.7602 0.0
C73 C 0.8857 0.27488 0.76319 0.0
O74 O 0.8505 0.26511 0.75781 0.0
N75 N 0.86313 0.20417 0.74618 0.0
C76 C 0.84395 0.22055 0.73095 0.0
C77 C 0.83142 0.20738 0.74105 0.0
C78 C 0.89493 0.21635 0.73886 0.0
N79 N 0.88382 0.22574 0.72949 0.0
O80 O 0.91513 0.1814 0.75744 0.0
H81 H 0.80084 0.2012 0.74433 0.0
H82 H 0.92534 0.2171 0.74024 0.0
O83 O 0.89546 0.24515 0.76513 0.0
C84 C 0.90195 0.14516 0.75268 0.0
O85 O 0.86124 0.12392 0.74952 0.0
N86 N 0.8078 0.17649 0.76311 0.0
C87 C 0.72121 0.13703 0.7696 0.0
C88 C 0.75333 0.17471 0.77461 0.0
C89 C 0.79675 0.1936 0.77135 0.0
C90 C 0.77676 0.14017 0.75817 0.0
C91 C 0.73332 0.12067 0.76108 0.0
H92 H 0.82154 0.21988 0.77592 0.0
H93 H 0.78618 0.12513 0.75214 0.0
H94 H 0.88015 0.21265 0.78496 0.0
H95 H 0.83213 0.07833 0.78898 0.0
H96 H 0.82485 0.22584 0.72516 0.0
H97 H 0.74549 0.18775 0.78139 0.0
H98 H 0.70967 0.09188 0.75693 0.0
C99 C 0.75185 0.87143 0.11083 0.0
C100 C 0.7546 0.86872 0.12146 0.0
N101 N 0.72221 0.87254 0.12586 0.0
N102 N 0.71792 0.87701 0.10845 0.0
C103 C 0.7006 0.87806 0.11782 0.0
H104 H 0.77179 0.86686 0.10516 0.0
Co105 Co 0.69836 0.87121 0.0947 0.0
C106 C 0.62567 0.88908 0.09459 0.0
O107 O 0.60538 0.85442 0.08864 0.0
N108 N 0.6797 0.86481 0.08036 0.0
C109 C 0.65403 0.83729 0.06457 0.0
C110 C 0.6541 0.82779 0.07496 0.0
C111 C 0.69394 0.89651 0.07296 0.0
N112 N 0.6795 0.88049 0.06328 0.0
O113 O 0.75035 0.92541 0.0914 0.0
H114 H 0.63662 0.79538 0.07817 0.0
H115 H 0.71636 0.93056 0.07452 0.0
O116 O 0.6641 0.90062 0.09796 0.0
C117 C 0.77585 0.91477 0.08685 0.0
O118 O 0.76035 0.87366 0.08433 0.0
N119 N 0.65315 0.81559 0.09824 0.0
C120 C 0.61057 0.73094 0.10614 0.0
C121 C 0.59617 0.76019 0.10873 0.0
C122 C 0.61861 0.80296 0.10486 0.0
C123 C 0.66709 0.78726 0.09567 0.0
C124 C 0.64592 0.74478 0.09935 0.0
H125 H 0.6099 0.82615 0.10777 0.0
H126 H 0.69598 0.79834 0.09096 0.0
H127 H 0.67103 0.87955 0.1187 0.0
H128 H 0.77763 0.86266 0.12562 0.0
H129 H 0.63704 0.81396 0.05841 0.0
H130 H 0.56953 0.75088 0.11416 0.0
H131 H 0.65797 0.72325 0.09708 0.0
C132 C 0.88736 0.76299 0.44497 0.0
C133 C 0.89224 0.76302 0.45558 0.0
N134 N 0.8581 0.72685 0.45948 0.0
N135 N 0.85025 0.727 0.44211 0.0
C136 C 0.83281 0.70549 0.45117 0.0
H137 H 0.91093 0.78639 0.4396 0.0
Co138 Co 0.83901 0.71129 0.42808 0.0
C139 C 0.74657 0.6421 0.42606 0.0
O140 O 0.75914 0.6254 0.4186 0.0
N141 N 0.82996 0.69686 0.41353 0.0
C142 C 0.83403 0.67377 0.39762 0.0
C143 C 0.84491 0.6747 0.40792 0.0
C144 C 0.81008 0.70914 0.40631 0.0
N145 N 0.8124 0.6958 0.39653 0.0
O146 O 0.83684 0.76377 0.42551 0.0
H147 H 0.86277 0.65987 0.41096 0.0
H148 H 0.79518 0.72851 0.40818 0.0
O149 O 0.77507 0.67664 0.4308 0.0
C150 C 0.87167 0.79152 0.42086 0.0
O151 O 0.89876 0.77894 0.41755 0.0
N152 N 0.84784 0.66456 0.43092 0.0
C153 C 0.88154 0.61037 0.43545 0.0
C154 C 0.83711 0.59564 0.43689 0.0
C155 C 0.82096 0.6238 0.43483 0.0
C156 C 0.89128 0.67967 0.42991 0.0
C157 C 0.90876 0.6531 0.43202 0.0
H158 H 0.78749 0.61294 0.4367 0.0
H159 H 0.91241 0.71273 0.42727 0.0
H160 H 0.80414 0.67348 0.45159 0.0
H161 H 0.91977 0.78683 0.46007 0.0
H162 H 0.84161 0.65786 0.39143 0.0
H163 H 0.81541 0.56315 0.43982 0.0
H164 H 0.94325 0.66573 0.43081 0.0
C165 C 0.11873 0.8807 0.777 0.0
C166 C 0.11941 0.88563 0.78763 0.0
N167 N 0.11895 0.85102 0.79211 0.0
N168 N 0.11762 0.84304 0.7747 0.0
C169 C 0.11738 0.82531 0.7841 0.0
H170 H 0.12137 0.90441 0.77131 0.0
Co171 Co 0.12599 0.83035 0.76105 0.0
C172 C 0.10902 0.73997 0.76075 0.0
O173 O 0.14363 0.75478 0.75478 0.0
N174 N 0.13486 0.81912 0.74686 0.0
C175 C 0.16416 0.82075 0.73135 0.0
C176 C 0.17267 0.83268 0.74166 0.0
C177 C 0.10383 0.79862 0.73944 0.0
N178 N 0.12078 0.79968 0.72989 0.0
O179 O 0.07188 0.82741 0.7572 0.0
H180 H 0.20486 0.85035 0.74497 0.0
H181 H 0.0694 0.7846 0.74094 0.0
O182 O 0.09712 0.76654 0.76419 0.0
C183 C 0.08215 0.86314 0.75248 0.0
O184 O 0.12327 0.88911 0.75008 0.0
N185 N 0.1813 0.84126 0.76509 0.0
C186 C 0.26606 0.88183 0.77285 0.0
C187 C 0.237 0.83777 0.77504 0.0
C188 C 0.19414 0.81822 0.77129 0.0
C189 C 0.20921 0.88413 0.76305 0.0
C190 C 0.25172 0.90482 0.76669 0.0
H191 H 0.17123 0.7857 0.77387 0.0
H192 H 0.1979 0.90265 0.75867 0.0
H193 H 0.11904 0.79582 0.78506 0.0
H194 H 0.12164 0.91336 0.79175 0.0
H195 H 0.18836 0.82745 0.72541 0.0
H196 H 0.24669 0.81931 0.78001 0.0
H197 H 0.27308 0.93883 0.76478 0.0
C198 C 0.85243 0.72295 0.586 0.0
C199 C 0.84809 0.72715 0.57548 0.0
N200 N 0.86099 0.70237 0.57036 0.0
N201 N 0.86795 0.69559 0.58757 0.0
C202 C 0.8734 0.68386 0.57786 0.0
H203 H 0.843 0.73742 0.59216 0.0
Co204 Co 0.87019 0.67646 0.60101 0.0
C205 C 0.88464 0.6019 0.59778 0.0
O206 O 0.84945 0.57824 0.60332 0.0
N207 N 0.87218 0.65772 0.61512 0.0
C208 C 0.85358 0.62303 0.63046 0.0
C209 C 0.84071 0.62313 0.62038 0.0
C210 C 0.90423 0.67776 0.62238 0.0
N211 N 0.89345 0.65778 0.63181 0.0
O212 O 0.92606 0.72754 0.60266 0.0
H213 H 0.80982 0.59876 0.61723 0.0
H214 H 0.93461 0.70727 0.62091 0.0
O215 O 0.89682 0.64198 0.59588 0.0
C216 C 0.91973 0.75574 0.60734 0.0
O217 O 0.88108 0.7433 0.61129 0.0
N218 N 0.81281 0.63163 0.5991 0.0
C219 C 0.72447 0.58956 0.59419 0.0
C220 C 0.75287 0.58008 0.58864 0.0
C221 C 0.79728 0.60218 0.59109 0.0
C222 C 0.78541 0.64079 0.60458 0.0
C223 C 0.74113 0.61949 0.60243 0.0
H224 H 0.81931 0.59776 0.5861 0.0
H225 H 0.7985 0.66633 0.61039 0.0
H226 H 0.88358 0.66022 0.57633 0.0
H227 H 0.83541 0.7462 0.57188 0.0
H228 H 0.83464 0.599 0.63633 0.0
H229 H 0.74141 0.558 0.58205 0.0
H230 H 0.72038 0.62771 0.60693 0.0
C231 C 0.11232 0.83375 0.92 0.0
C232 C 0.09988 0.82449 0.90973 0.0
N233 N 0.13536 0.84683 0.90368 0.0
N234 N 0.15555 0.86154 0.92047 0.0
C235 C 0.16867 0.86956 0.91039 0.0
H236 H 0.09141 0.82018 0.92673 0.0
Co237 Co 0.18637 0.87998 0.93307 0.0
C238 C 0.26907 0.88463 0.92457 0.0
O239 O 0.25793 0.84609 0.92836 0.0
N240 N 0.21725 0.89965 0.94596 0.0
C241 C 0.25977 0.90701 0.95954 0.0
C242 C 0.24868 0.89191 0.94953 0.0
C243 C 0.2103 0.92021 0.95406 0.0
N244 N 0.23555 0.92468 0.96241 0.0
O245 O 0.18974 0.9353 0.93096 0.0
H246 H 0.26133 0.87408 0.94549 0.0
H247 H 0.18587 0.92995 0.95407 0.0
O248 O 0.24378 0.90067 0.92577 0.0
C249 C 0.1538 0.93051 0.93444 0.0
O250 O 0.12745 0.89434 0.93942 0.0
N251 N 0.17573 0.82231 0.93544 0.0
C252 C 0.13942 0.73271 0.93898 0.0
C253 C 0.15504 0.75061 0.92908 0.0
C254 C 0.17242 0.79513 0.92745 0.0
C255 C 0.15993 0.80512 0.94508 0.0
C256 C 0.14275 0.76079 0.94708 0.0
H257 H 0.18266 0.80761 0.91964 0.0
H258 H 0.15844 0.82523 0.95122 0.0
H259 H 0.20217 0.89018 0.90802 0.0
H260 H 0.06724 0.80273 0.90693 0.0
H261 H 0.28325 0.90435 0.96444 0.0
H262 H 0.15193 0.7302 0.92247 0.0
H263 H 0.13078 0.74851 0.95484 0.0
C264 C 0.24657 0.11924 0.25166 0.0
C265 C 0.24314 0.11155 0.24111 0.0
N266 N 0.27437 0.14733 0.23628 0.0
N267 N 0.27973 0.15972 0.25355 0.0
C268 C 0.29586 0.17637 0.24399 0.0
H269 H 0.22743 0.09598 0.25764 0.0
Co270 Co 0.29943 0.17781 0.26709 0.0
C271 C 0.37164 0.26824 0.26576 0.0
O272 O 0.3929 0.25622 0.27207 0.0
N273 N 0.31841 0.19483 0.28126 0.0
C274 C 0.34988 0.20441 0.2969 0.0
C275 C 0.34703 0.18857 0.28698 0.0
C276 C 0.30435 0.21463 0.28806 0.0
N277 N 0.32278 0.22049 0.2976 0.0
O278 O 0.24788 0.18131 0.26961 0.0
H279 H 0.3656 0.17402 0.28425 0.0
H280 H 0.28093 0.22461 0.2861 0.0
O281 O 0.33311 0.24012 0.26273 0.0
C282 C 0.22098 0.14808 0.2749 0.0
O283 O 0.23439 0.12264 0.2789 0.0
N284 N 0.34496 0.16697 0.2643 0.0
C285 C 0.39244 0.12712 0.25837 0.0
C286 C 0.40334 0.16838 0.25447 0.0
C287 C 0.37857 0.18747 0.25737 0.0
C288 C 0.3336 0.12658 0.26796 0.0
C289 C 0.35738 0.10652 0.26531 0.0
H290 H 0.38506 0.21726 0.25356 0.0
H291 H 0.30518 0.10951 0.27288 0.0
H292 H 0.32441 0.20794 0.24275 0.0
H293 H 0.22017 0.08144 0.2373 0.0
H294 H 0.36957 0.20319 0.30321 0.0
H295 H 0.42933 0.18478 0.24884 0.0
H296 H 0.34783 0.07475 0.26855 0.0
C297 C 0.1176 0.22886 0.58511 0.0
C298 C 0.1164 0.22307 0.57451 0.0
N299 N 0.11517 0.25657 0.56986 0.0
N300 N 0.11665 0.26559 0.58725 0.0
C301 C 0.11534 0.28202 0.57778 0.0
H302 H 0.12079 0.20844 0.5909 0.0
Co303 Co 0.12333 0.28636 0.60087 0.0
C304 C 0.10513 0.35885 0.60084 0.0
O305 O 0.13892 0.37909 0.60705 0.0
N306 N 0.13044 0.30617 0.61507 0.0
C307 C 0.158 0.33414 0.63069 0.0
C308 C 0.16763 0.33082 0.62048 0.0
C309 C 0.09862 0.29536 0.6223 0.0
N310 N 0.11452 0.3114 0.63191 0.0
O311 O 0.06887 0.23536 0.60433 0.0
H312 H 0.20018 0.34584 0.61738 0.0
H313 H 0.06437 0.27473 0.62062 0.0
O314 O 0.09433 0.32068 0.59741 0.0
C315 C 0.07609 0.20884 0.60954 0.0
O316 O 0.11578 0.22227 0.61294 0.0
N317 N 0.17874 0.33125 0.59713 0.0
C318 C 0.26493 0.38035 0.59054 0.0
C319 C 0.2342 0.39249 0.58771 0.0
C320 C 0.19083 0.36682 0.59089 0.0
C321 C 0.2079 0.31821 0.59954 0.0
C322 C 0.2512 0.34263 0.59653 0.0
H323 H 0.16716 0.37469 0.5879 0.0
H324 H 0.19718 0.28839 0.6039 0.0
H325 H 0.11567 0.31248 0.57672 0.0
H326 H 0.11855 0.19726 0.57053 0.0
H327 H 0.18153 0.35194 0.63675 0.0
H328 H 0.24324 0.42059 0.58278 0.0
H329 H 0.2737 0.33195 0.59891 0.0
C330 C 0.8865 0.15818 0.91913 0.0
C331 C 0.89875 0.16589 0.90882 0.0
N332 N 0.86269 0.14582 0.90285 0.0
N333 N 0.84285 0.1335 0.91973 0.0
C334 C 0.8292 0.12581 0.90967 0.0
H335 H 0.90794 0.1708 0.9258 0.0
Co336 Co 0.81265 0.11867 0.93245 0.0
C337 C 0.73103 0.11559 0.92371 0.0
O338 O 0.74379 0.15524 0.92696 0.0
N339 N 0.78229 0.10264 0.9455 0.0
C340 C 0.74122 0.10019 0.95897 0.0
C341 C 0.75288 0.11365 0.94886 0.0
C342 C 0.78746 0.08188 0.95384 0.0
N343 N 0.76307 0.08034 0.96213 0.0
O344 O 0.80695 0.06208 0.93108 0.0
H345 H 0.7421 0.13259 0.94458 0.0
H346 H 0.80998 0.06973 0.95406 0.0
O347 O 0.75518 0.09846 0.92524 0.0
C348 C 0.842 0.06582 0.9349 0.0
O349 O 0.86886 0.10207 0.93977 0.0
N350 N 0.82583 0.17751 0.93403 0.0
C351 C 0.86833 0.26803 0.93624 0.0
C352 C 0.85032 0.24851 0.92665 0.0
C353 C 0.82974 0.20338 0.92567 0.0
C354 C 0.84351 0.19641 0.94343 0.0
C355 C 0.86391 0.24147 0.94477 0.0
H356 H 0.81781 0.18937 0.91806 0.0
H357 H 0.84448 0.177 0.94982 0.0
H358 H 0.79531 0.10772 0.9074 0.0
H359 H 0.93172 0.18521 0.90596 0.0
H360 H 0.71896 0.10543 0.96371 0.0
H361 H 0.85349 0.26811 0.91985 0.0
H362 H 0.87872 0.25556 0.95222 0.0
C363 C 0.73987 0.8816 0.25245 0.0
C364 C 0.74351 0.89012 0.24194 0.0
N365 N 0.71502 0.85348 0.23691 0.0
N366 N 0.70916 0.8398 0.25412 0.0
C367 C 0.69478 0.82315 0.24446 0.0
H368 H 0.75684 0.90513 0.25856 0.0
Co369 Co 0.68937 0.82055 0.26763 0.0
C370 C 0.61633 0.7306 0.26557 0.0
O371 O 0.59406 0.7425 0.27155 0.0
N372 N 0.67014 0.80243 0.28183 0.0
C373 C 0.63745 0.79226 0.29731 0.0
C374 C 0.63829 0.80467 0.28715 0.0
C375 C 0.68778 0.7879 0.28914 0.0
N376 N 0.66908 0.78225 0.29868 0.0
O377 O 0.74078 0.81659 0.26993 0.0
H378 H 0.61614 0.81422 0.28395 0.0
H379 H 0.71489 0.78288 0.2876 0.0
O380 O 0.65552 0.75867 0.263 0.0
C381 C 0.768 0.8507 0.27491 0.0
O382 O 0.75461 0.87636 0.27876 0.0
N383 N 0.64432 0.83219 0.26504 0.0
C384 C 0.60087 0.87603 0.25905 0.0
C385 C 0.58947 0.83538 0.25468 0.0
C386 C 0.61235 0.8143 0.25762 0.0
C387 C 0.65544 0.87155 0.26934 0.0
C388 C 0.63368 0.89359 0.26662 0.0
H389 H 0.60622 0.78536 0.25343 0.0
H390 H 0.68265 0.88666 0.27468 0.0
H391 H 0.66801 0.79062 0.24302 0.0
H392 H 0.76437 0.92132 0.23828 0.0
H393 H 0.61508 0.79101 0.30322 0.0
H394 H 0.56502 0.82138 0.24861 0.0
H395 H 0.64345 0.92485 0.2702 0.0
C396 C 0.3035 0.05961 0.05198 0.0
C397 C 0.31719 0.10405 0.05306 0.0
C398 C 0.28983 0.03907 0.04224 0.0
C399 C 0.29617 0.06517 1.01377 0.0
H400 H 0.20824 0.94324 1.01145 0.0
C401 C 0.23336 0.98019 0.97374 0.0
C402 C 0.23546 0.94186 0.9726 0.0
C403 C 0.23824 0.99919 0.98363 0.0
C404 C 0.23282 0.97736 1.01199 0.0
H405 H 0.32506 0.16122 0.04497 0.0
H406 H 0.30008 0.12551 0.02816 0.0
H407 H 0.22679 0.97786 0.02861 0.0
H408 H 0.24165 0.89196 0.98091 0.0
H409 H 0.24943 0.92456 0.99813 0.0
H410 H 0.30179 0.06458 0.99712 0.0
C411 C 0.30143 0.10661 0.03465 0.0
C412 C 0.24374 0.99718 0.02183 0.0
C413 C 0.31567 0.12717 0.04431 0.0
C414 C 0.24038 0.92179 0.98156 0.0
C415 C 0.24449 0.94026 0.99142 0.0
C416 C 0.28482 0.0455 1.00393 0.0
C417 C 0.2889 0.06241 0.0334 0.0
C418 C 0.27593 0.04131 0.02289 0.0
C419 C 0.24438 0.97963 0.99255 0.0
C420 C 0.25338 1.00127 1.00293 0.0
H421 H 0.30448 0.04109 0.0586 0.0
H422 H 0.28099 0.00516 0.0416 0.0
H423 H 0.32174 0.09891 1.01422 0.0
H424 H 0.22971 0.99631 0.96695 0.0
H425 H 0.23776 0.02943 0.98428 0.0
C426 C 0.22508 0.29753 0.38388 0.0
C427 C 0.26205 0.32835 0.38936 0.0
C428 C 0.22868 0.28657 0.37355 0.0
C429 C 0.30485 0.32737 0.35077 0.0
H430 H 0.2341 0.20942 0.34047 0.0
C431 C 0.34728 0.26243 0.31397 0.0
C432 C 0.31362 0.2372 0.30692 0.0
C433 C 0.33828 0.27544 0.3235 0.0
C434 C 0.25369 0.24263 0.34321 0.0
H435 H 0.33193 0.37027 0.38849 0.0
H436 H 0.33859 0.35041 0.37071 0.0
H437 H 0.22382 0.227 0.35831 0.0
H438 H 0.24417 0.20603 0.30427 0.0
H439 H 0.22814 0.22827 0.32111 0.0
H440 H 0.3358 0.34243 0.33578 0.0
C441 C 0.30647 0.33576 0.37416 0.0
C442 C 0.24779 0.25279 0.35344 0.0
C443 C 0.30276 0.34703 0.3844 0.0
C444 C 0.27073 0.22584 0.30953 0.0
C445 C 0.26156 0.23821 0.31918 0.0
C446 C 0.31109 0.31706 0.34062 0.0
C447 C 0.26944 0.30586 0.3685 0.0
C448 C 0.27374 0.29521 0.35742 0.0
C449 C 0.29527 0.26291 0.32629 0.0
C450 C 0.28595 0.27449 0.33676 0.0
H451 H 0.19323 0.28288 0.38747 0.0
H452 H 0.19934 0.26374 0.36945 0.0
H453 H 0.32466 0.36067 0.35341 0.0
H454 H 0.3806 0.27168 0.31212 0.0
H455 H 0.36489 0.2942 0.32884 0.0
C456 C 0.88581 0.22918 0.71013 0.0
C457 C 0.90763 0.23578 0.71973 0.0
C458 C 0.90828 0.238 0.70067 0.0
C459 C 0.01903 0.29829 0.68913 0.0
H460 H 0.96332 0.22113 0.66562 0.0
C461 C 0.1119 0.3079 0.65126 0.0
C462 C 0.09083 0.30345 0.64163 0.0
C463 C 0.08939 0.30022 0.66069 0.0
C464 C 0.97915 0.24329 0.67207 0.0
H465 H 0.9709 0.25743 0.72674 0.0
H466 H 0.00989 0.27175 0.71023 0.0
H467 H 0.92526 0.20635 0.68227 0.0
H468 H 0.02907 0.28735 0.63452 0.0
H469 H 0.98964 0.27358 0.65101 0.0
H470 H 0.07312 0.33492 0.67892 0.0
C471 C 0.97529 0.26027 0.71005 0.0
C472 C 0.95732 0.23485 0.68164 0.0
C473 C 0.95278 0.25157 0.71955 0.0
C474 C 0.04635 0.29072 0.64173 0.0
C475 C 0.02372 0.28284 0.6512 0.0
C476 C 0.04092 0.30661 0.67956 0.0
C477 C 0.95329 0.25346 0.70047 0.0
C478 C 0.97691 0.26226 0.6903 0.0
C479 C 0.04504 0.28763 0.6608 0.0
C480 C 0.02128 0.27922 0.67091 0.0
H481 H 0.85108 0.21655 0.70984 0.0
H482 H 0.89026 0.23294 0.69348 0.0
H483 H 0.03491 0.32054 0.69555 0.0
H484 H 0.14577 0.31661 0.65156 0.0
H485 H 0.10666 0.3034 0.66791 0.0
C486 C 0.76355 0.02543 0.97407 0.0
C487 C 0.76204 0.06389 0.9725 0.0
C488 C 0.75846 0.0077 0.98413 0.0
C489 C 0.71505 0.0121 1.01039 0.0
H490 H 0.7723 0.94846 0.01914 0.0
C491 C 0.70173 0.94695 0.05265 0.0
C492 C 0.69225 0.90349 0.05344 0.0
C493 C 0.71317 0.96858 0.043 0.0
C494 C 0.75594 0.96602 0.01679 0.0
H495 H 0.75695 0.11544 0.98027 0.0
H496 H 0.7495 0.08564 0.99774 0.0
H497 H 0.78769 0.98242 1.0019 0.0
H498 H 0.68898 0.84933 0.04479 0.0
H499 H 0.70882 0.88689 0.02804 0.0
H500 H 0.6836 0.99591 0.02533 0.0
C501 C 0.75279 0.06795 0.99124 0.0
C502 C 0.76462 0.98536 1.00688 0.0
C503 C 0.75728 0.08523 0.98122 0.0
C504 C 0.69539 0.88255 0.04442 0.0
C505 C 0.70728 0.90426 0.03484 0.0
C506 C 0.70674 0.99315 0.02033 0.0
C507 C 0.75232 0.02841 0.99284 0.0
C508 C 0.7441 0.0085 1.0035 0.0
C509 C 0.71601 0.94742 0.03397 0.0
C510 C 0.72681 0.9696 0.02362 0.0
H511 H 0.76698 0.00824 0.96748 0.0
H512 H 0.75794 0.97704 0.985 0.0
H513 H 0.69781 0.02877 1.00805 0.0
H514 H 0.69952 0.96389 0.05945 0.0
H515 H 0.71998 0.00195 0.0426 0.0
C516 C 0.66806 0.77982 0.31807 0.0
C517 C 0.68221 0.77167 0.30848 0.0
C518 C 0.68133 0.7708 0.32757 0.0
C519 C 0.72954 0.70851 0.33938 0.0
H520 H 0.75287 0.78742 0.36262 0.0
C521 C 0.81413 0.70064 0.37718 0.0
C522 C 0.79714 0.70454 0.38681 0.0
C523 C 0.79919 0.70823 0.36776 0.0
C524 C 0.74602 0.7648 0.35625 0.0
H525 H 0.72156 0.74692 0.3016 0.0
H526 H 0.74572 0.73249 0.31816 0.0
H527 H 0.72986 0.802 0.34589 0.0
H528 H 0.75092 0.72001 0.39391 0.0
H529 H 0.72537 0.73399 0.37741 0.0
H530 H 0.74656 0.67182 0.34974 0.0
C531 C 0.72363 0.74527 0.31829 0.0
C532 C 0.73275 0.7731 0.34663 0.0
C533 C 0.71009 0.75404 0.30875 0.0
C534 C 0.76512 0.71699 0.38671 0.0
C535 C 0.75039 0.72496 0.37723 0.0
C536 C 0.74313 0.70042 0.34898 0.0
C537 C 0.70956 0.75371 0.32784 0.0
C538 C 0.72423 0.74503 0.33806 0.0
C539 C 0.76709 0.72038 0.36765 0.0
C540 C 0.75155 0.72847 0.35753 0.0
H541 H 0.64711 0.79382 0.31835 0.0
H542 H 0.66914 0.77709 0.33472 0.0
H543 H 0.7226 0.68572 0.33305 0.0
H544 H 0.8395 0.69222 0.37686 0.0
H545 H 0.81339 0.70525 0.36054 0.0
C546 C 0.05364 0.75281 0.71967 0.0
C547 C 0.09801 0.78473 0.72003 0.0
C548 C 0.03181 0.73892 0.71009 0.0
C549 C 0.04 0.77188 0.68216 0.0
H550 H 0.95472 0.65011 0.67796 0.0
C551 C 0.96265 0.70141 0.64165 0.0
C552 C 0.91752 0.67194 0.64154 0.0
C553 C 0.98541 0.71523 0.65113 0.0
C554 C 0.97822 0.68431 0.67903 0.0
H555 H 0.15374 0.82739 0.71043 0.0
H556 H 0.1163 0.80239 0.69388 0.0
H557 H 0.99216 0.67385 0.69468 0.0
H558 H 0.86116 0.63504 0.65151 0.0
H559 H 0.90071 0.65851 0.66783 0.0
H560 H 0.02615 0.78218 0.66646 0.0
C561 C 0.09809 0.7884 0.70099 0.0
C562 C 0.99961 0.69797 0.68864 0.0
C563 C 0.11983 0.80233 0.71054 0.0
C564 C 0.89593 0.65686 0.65117 0.0
C565 C 0.91866 0.67043 0.6606 0.0
C566 C 0.01874 0.75816 0.67253 0.0
C567 C 0.05376 0.75657 0.70061 0.0
C568 C 0.03074 0.74197 0.69036 0.0
C569 C 0.96366 0.69976 0.66072 0.0
C570 C 0.98744 0.71423 0.67085 0.0
H571 H 0.03575 0.73825 0.72677 0.0
H572 H 0.99754 0.71468 0.71013 0.0
H573 H 0.06323 0.80614 0.68323 0.0
H574 H 0.9806 0.71351 0.63444 0.0
H575 H 0.02018 0.73758 0.65094 0.0
C576 C 0.55573 0.88757 0.09798 0.0
C577 C 0.60147 0.91159 0.0977 0.0
C578 C 0.53126 0.90805 0.0996 0.0
C579 C 0.53744 0.01251 0.10773 0.0
H580 H 0.43211 0.9675 0.09115 0.0
C581 C 0.45122 0.11089 0.09883 0.0
C582 C 0.4055 0.0894 0.09822 0.0
C583 C 0.47306 0.08774 0.10051 0.0
C584 C 0.46096 0.98008 0.09599 0.0
H585 H 0.65747 0.9761 0.09932 0.0
H586 H 0.61467 0.01254 0.10191 0.0
H587 H 0.47524 0.93156 0.09056 0.0
H588 H 0.34677 0.02658 0.09925 0.0
H589 H 0.38513 0.98556 0.1021 0.0
H590 H 0.5236 0.06202 0.11285 0.0
C591 C 0.59763 0.97748 0.10103 0.0
C592 C 0.4859 0.95943 0.09566 0.0
C593 C 0.6223 0.95668 0.09953 0.0
C594 C 0.38196 0.04407 0.09973 0.0
C595 C 0.404 0.02063 0.10127 0.0
C596 C 0.51259 0.03337 0.108 0.0
C597 C 0.55163 0.95349 0.10085 0.0
C598 C 0.5247 0.97539 0.10148 0.0
C599 C 0.44994 0.04219 0.10151 0.0
C600 C 0.47417 0.01764 0.10206 0.0
H601 H 0.53857 0.85263 0.09677 0.0
H602 H 0.49614 0.88809 0.09974 0.0
H603 H 0.5666 0.02548 0.11246 0.0
H604 H 0.47042 0.14585 0.09776 0.0
H605 H 0.50831 0.1055 0.10054 0.0
C606 C 0.35657 0.44654 0.44847 0.0
C607 C 0.33438 0.40977 0.44202 0.0
C608 C 0.40197 0.46885 0.4491 0.0
C609 C 0.50199 0.46523 0.44149 0.0
H610 H 0.5526 0.59072 0.43973 0.0
C611 C 0.6726 0.57634 0.42481 0.0
C612 C 0.70044 0.61676 0.42957 0.0
C613 C 0.62948 0.55085 0.42801 0.0
C614 C 0.53916 0.55584 0.4404 0.0
H615 H 0.34221 0.3661 0.43161 0.0
H616 H 0.42171 0.40522 0.43258 0.0
H617 H 0.4746 0.54475 0.44251 0.0
H618 H 0.70415 0.66201 0.44145 0.0
H619 H 0.62781 0.61732 0.44698 0.0
H620 H 0.56654 0.47646 0.439 0.0
C621 C 0.40406 0.41659 0.43731 0.0
C622 C 0.4943 0.52932 0.44201 0.0
C623 C 0.3584 0.39392 0.43677 0.0
C624 C 0.68364 0.63115 0.43761 0.0
C625 C 0.63995 0.60556 0.44076 0.0
C626 C 0.5468 0.49176 0.43983 0.0
C627 C 0.42652 0.45535 0.44317 0.0
C628 C 0.47492 0.48355 0.44242 0.0
C629 C 0.61249 0.56491 0.43603 0.0
C630 C 0.56583 0.53734 0.43906 0.0
H631 H 0.33883 0.45945 0.45262 0.0
H632 H 0.4179 0.49775 0.45393 0.0
H633 H 0.48851 0.4303 0.44194 0.0
H634 H 0.68405 0.56398 0.41857 0.0
H635 H 0.60917 0.52025 0.42403 0.0
C636 C 0.04336 0.66953 0.76684 0.0
C637 C 0.08739 0.69332 0.76391 0.0
C638 C 0.02322 0.62428 0.76861 0.0
C639 C 0.03788 0.52973 0.7619 0.0
H640 H 0.9471 0.46784 0.78237 0.0
C641 C 0.95792 0.34262 0.76676 0.0
C642 C 0.91223 0.32055 0.76686 0.0
C643 C 0.98178 0.3881 0.76816 0.0
C644 C 0.9724 0.48462 0.7766 0.0
H645 H 0.1454 0.68865 0.76126 0.0
H646 H 0.1111 0.61122 0.76457 0.0
H647 H 0.98245 0.54722 0.78125 0.0
H648 H 0.85589 0.32822 0.76923 0.0
H649 H 0.89702 0.40656 0.77176 0.0
H650 H 0.02757 0.46732 0.75715 0.0
C651 C 0.09138 0.62662 0.76515 0.0
C652 C 0.99254 0.53021 0.77592 0.0
C653 C 0.11119 0.67133 0.7633 0.0
C654 C 0.89111 0.34432 0.76907 0.0
C655 C 0.91477 0.38936 0.77058 0.0
C656 C 0.01792 0.48431 0.7626 0.0
C657 C 0.04685 0.60206 0.76756 0.0
C658 C 0.02544 0.55345 0.76851 0.0
C659 C 0.96037 0.41219 0.76983 0.0
C660 C 0.98461 0.46099 0.76989 0.0
H661 H 0.02414 0.68549 0.76737 0.0
H662 H 0.98882 0.60652 0.77043 0.0
H663 H 0.0624 0.54613 0.75594 0.0
H664 H 0.97506 0.32523 0.765 0.0
H665 H 0.01693 0.40457 0.76765 0.0
C666 C 0.03905 0.36268 0.59486 0.0
C667 C 0.08363 0.38331 0.59724 0.0
C668 C 0.01895 0.38762 0.59285 0.0
C669 C 0.03643 0.49883 0.59808 0.0
H670 H 0.93913 0.46412 0.57923 0.0
C671 C 0.95506 0.60438 0.59317 0.0
C672 C 0.90955 0.58094 0.59416 0.0
C673 C 0.9783 0.58225 0.59162 0.0
C674 C 0.96632 0.47427 0.58453 0.0
H675 H 0.14266 0.44602 0.59859 0.0
H676 H 0.10838 0.48893 0.59477 0.0
H677 H 0.97493 0.42043 0.58029 0.0
H678 H 0.85257 0.51641 0.59357 0.0
H679 H 0.89271 0.47825 0.5908 0.0
H680 H 0.02759 0.55225 0.60242 0.0
C681 C 0.08826 0.45378 0.59485 0.0
C682 C 0.98671 0.44906 0.58518 0.0
C683 C 0.10804 0.42906 0.59698 0.0
C684 C 0.88768 0.53542 0.5929 0.0
C685 C 0.91072 0.51348 0.59124 0.0
C686 C 0.01626 0.52407 0.59739 0.0
C687 C 0.04321 0.43361 0.59308 0.0
C688 C 0.02189 0.46081 0.59203 0.0
C689 C 0.95639 0.53638 0.59089 0.0
C690 C 0.98064 0.51193 0.5907 0.0
H691 H 0.01944 0.32749 0.59503 0.0
H692 H 0.98414 0.37085 0.59154 0.0
H693 H 0.06275 0.50858 0.60362 0.0
H694 H 0.97279 0.63943 0.59414 0.0
H695 H 0.01349 0.60094 0.59127 0.0
C696 C 0.66126 0.04441 0.92045 0.0
C697 C 0.6856 0.09011 0.91978 0.0
C698 C 0.61604 0.02234 0.91866 0.0
C699 C 0.52429 0.0413 0.92145 0.0
H700 H 0.45825 0.93707 0.90489 0.0
C701 C 0.33622 0.95638 0.92003 0.0
C702 C 0.31416 0.91066 0.92045 0.0
C703 C 0.3812 0.97991 0.91796 0.0
C704 C 0.47601 0.9659 0.90966 0.0
H705 H 0.68203 0.14792 0.91586 0.0
H706 H 0.60402 0.1097 0.91287 0.0
H707 H 0.53756 0.97231 0.90536 0.0
H708 H 0.32163 0.85391 0.91832 0.0
H709 H 0.39884 0.89418 0.91512 0.0
H710 H 0.46334 0.03422 0.92621 0.0
C711 C 0.61947 0.09093 0.91492 0.0
C712 C 0.52156 0.9861 0.90989 0.0
C713 C 0.6643 0.11276 0.91661 0.0
C714 C 0.33749 0.88914 0.91815 0.0
C715 C 0.38212 0.91244 0.91619 0.0
C716 C 0.47881 0.02076 0.92139 0.0
C717 C 0.59456 0.04568 0.91624 0.0
C718 C 0.54618 0.02395 0.91581 0.0
C719 C 0.40507 0.95821 0.91633 0.0
C720 C 0.45382 0.98248 0.91556 0.0
H721 H 0.67661 0.02602 0.92292 0.0
H722 H 0.59759 0.98734 0.91971 0.0
H723 H 0.54239 0.07026 0.92618 0.0
H724 H 0.31926 0.97397 0.92175 0.0
H725 H 0.39739 0.01514 0.91791 0.0
C726 C 0.44031 0.3339 0.26036 0.0
C727 C 0.39505 0.31358 0.2618 0.0
C728 C 0.46496 0.37848 0.25834 0.0
C729 C 0.45916 0.47801 0.25147 0.0
H730 H 0.56804 0.53596 0.26679 0.0
C731 C 0.54843 0.66115 0.26154 0.0
C732 C 0.5942 0.68481 0.26184 0.0
C733 C 0.52601 0.61652 0.25945 0.0
C734 C 0.53821 0.52037 0.26229 0.0
H735 H 0.33973 0.32369 0.26175 0.0
H736 H 0.383 0.40238 0.25844 0.0
H737 H 0.52426 0.45702 0.26715 0.0
H738 H 0.65241 0.68034 0.25973 0.0
H739 H 0.61305 0.60165 0.25611 0.0
H740 H 0.47274 0.5419 0.24693 0.0
C741 C 0.39944 0.38358 0.25872 0.0
C742 C 0.51291 0.47489 0.26249 0.0
C743 C 0.37453 0.33849 0.26062 0.0
C744 C 0.61717 0.66303 0.25953 0.0
C745 C 0.59459 0.61794 0.25755 0.0
C746 C 0.48444 0.52363 0.25131 0.0
C747 C 0.44522 0.40438 0.25786 0.0
C748 C 0.47281 0.45296 0.25716 0.0
C749 C 0.54865 0.59401 0.25768 0.0
C750 C 0.52408 0.54544 0.25682 0.0
H751 H 0.457 0.3154 0.26109 0.0
H752 H 0.4998 0.39281 0.2574 0.0
H753 H 0.42889 0.46242 0.24715 0.0
H754 H 0.52966 0.67695 0.26321 0.0
H755 H 0.49078 0.5993 0.25972 0.0
C756 C 0.30076 0.19098 0.22004 0.0
C757 C 0.28498 0.15112 0.22531 0.0
C758 C 0.3084 0.19356 0.20925 0.0
C759 C 0.32636 0.13727 0.18703 0.0
H760 H 0.27521 0.19173 0.17045 0.0
C761 C 0.30086 0.11239 0.14214 0.0
C762 C 0.30171 0.14614 0.13624 0.0
C763 C 0.3049 0.11589 0.15305 0.0
C764 C 0.29057 0.17712 0.17492 0.0
H765 H 0.26712 0.08335 0.22351 0.0
H766 H 0.28048 0.08784 0.20477 0.0
H767 H 0.27245 0.19398 0.18938 0.0
H768 H 0.31061 0.21107 0.13687 0.0
H769 H 0.31963 0.21826 0.15575 0.0
H770 H 0.34456 0.1204 0.17257 0.0
C771 C 0.28672 0.11705 0.20892 0.0
C772 C 0.28884 0.17837 0.18581 0.0
C773 C 0.27857 0.11436 0.21965 0.0
C774 C 0.30922 0.18438 0.14131 0.0
C775 C 0.31399 0.18824 0.15214 0.0
C776 C 0.32852 0.13639 0.17611 0.0
C777 C 0.30112 0.15649 0.20356 0.0
C778 C 0.30627 0.15807 0.192 0.0
C779 C 0.3105 0.15355 0.15823 0.0
C780 C 0.31029 0.15599 0.16989 0.0
H781 H 0.30597 0.21977 0.22421 0.0
H782 H 0.3198 0.22451 0.20534 0.0
H783 H 0.34044 0.12163 0.1916 0.0
H784 H 0.29485 0.08255 0.13836 0.0
H785 H 0.30174 0.08833 0.15744 0.0
C786 C 0.1218 0.3008 0.47525 0.0
C787 C 0.15374 0.29633 0.46977 0.0
C788 C 0.12151 0.3014 0.48616 0.0
C789 C 0.1575 0.26471 0.50898 0.0
H790 H 0.12441 0.3383 0.52426 0.0
C791 C 0.10186 0.22948 0.55171 0.0
C792 C 0.11783 0.2646 0.55875 0.0
C793 C 0.10831 0.23665 0.54098 0.0
C794 C 0.13406 0.3178 0.52013 0.0
H795 H 0.21102 0.28989 0.47151 0.0
H796 H 0.21068 0.29104 0.49064 0.0
H797 H 0.1346 0.34652 0.50535 0.0
H798 H 0.152 0.33502 0.55992 0.0
H799 H 0.16298 0.34766 0.54107 0.0
H800 H 0.15692 0.23594 0.52372 0.0
C801 C 0.1856 0.29375 0.48645 0.0
C802 C 0.13954 0.32223 0.50928 0.0
C803 C 0.18603 0.29342 0.47549 0.0
C804 C 0.13898 0.30725 0.55472 0.0
C805 C 0.1454 0.31447 0.54392 0.0
C806 C 0.15184 0.26016 0.51981 0.0
C807 C 0.15312 0.29746 0.49191 0.0
C808 C 0.15078 0.29534 0.50355 0.0
C809 C 0.13086 0.27918 0.53694 0.0
C810 C 0.13942 0.28618 0.5255 0.0
H811 H 0.09688 0.30392 0.47112 0.0
H812 H 0.09576 0.30386 0.49008 0.0
H813 H 0.16584 0.24324 0.50483 0.0
H814 H 0.08461 0.19624 0.55452 0.0
H815 H 0.09565 0.20871 0.53583 0.0
C816 C 0.82539 0.11726 0.80794 0.0
C817 C 0.85695 0.15201 0.80196 0.0
C818 C 0.82518 0.11984 0.81882 0.0
C819 C 0.89669 0.17509 0.8412 0.0
H820 H 0.78793 0.12643 0.85649 0.0
C821 C 0.89278 0.18483 0.88619 0.0
C822 C 0.8607 0.14832 0.89162 0.0
C823 C 0.89161 0.18729 0.87532 0.0
C824 C 0.81858 0.13972 0.85236 0.0
H825 H 0.91248 0.21722 0.80275 0.0
H826 H 0.91217 0.22193 0.82187 0.0
H827 H 0.78729 0.12862 0.83746 0.0
H828 H 0.80203 0.08582 0.88978 0.0
H829 H 0.80014 0.08973 0.87075 0.0
H830 H 0.92799 0.18551 0.85605 0.0
C831 C 0.88775 0.19246 0.81808 0.0
C832 C 0.81823 0.14113 0.84143 0.0
C833 C 0.88776 0.18997 0.80714 0.0
C834 C 0.82703 0.11451 0.88586 0.0
C835 C 0.82595 0.11687 0.87494 0.0
C836 C 0.89705 0.17355 0.85212 0.0
C837 C 0.85657 0.15725 0.82406 0.0
C838 C 0.85725 0.15851 0.8357 0.0
C839 C 0.85839 0.15324 0.86951 0.0
C840 C 0.85797 0.15559 0.85786 0.0
H841 H 0.8007 0.08781 0.80422 0.0
H842 H 0.80094 0.09196 0.82314 0.0
H843 H 0.92728 0.18809 0.83704 0.0
H844 H 0.91866 0.21193 0.89037 0.0
H845 H 0.9166 0.21623 0.87146 0.0
C846 C 0.69797 0.89277 0.14199 0.0
C847 C 0.71057 0.86601 0.13675 0.0
C848 C 0.69111 0.88889 0.15283 0.0
C849 C 0.66946 0.81525 0.17537 0.0
H850 H 0.73391 0.92171 0.19129 0.0
C851 C 0.70005 0.81489 0.21998 0.0
C852 C 0.70501 0.8503 0.22594 0.0
C853 C 0.69506 0.81463 0.2091 0.0
C854 C 0.71485 0.89162 0.18704 0.0
H855 H 0.72325 0.81256 0.13858 0.0
H856 H 0.7107 0.80532 0.15739 0.0
H857 H 0.73316 0.92502 0.17235 0.0
H858 H 0.70555 0.9116 0.22537 0.0
H859 H 0.69496 0.91051 0.20659 0.0
H860 H 0.65087 0.78173 0.19003 0.0
C861 C 0.70653 0.82957 0.15321 0.0
C862 C 0.71457 0.89363 0.17613 0.0
C863 C 0.7141 0.83397 0.14245 0.0
C864 C 0.70264 0.8843 0.22091 0.0
C865 C 0.69687 0.88374 0.21012 0.0
C866 C 0.66922 0.81324 0.18631 0.0
C867 C 0.6958 0.85752 0.15857 0.0
C868 C 0.69236 0.85546 0.17016 0.0
C869 C 0.69416 0.84951 0.20398 0.0
C870 C 0.69235 0.85138 0.19231 0.0
H871 H 0.6951 0.9177 0.13776 0.0
H872 H 0.68261 0.91071 0.15675 0.0
H873 H 0.65178 0.78526 0.17098 0.0
H874 H 0.70194 0.78841 0.22369 0.0
H875 H 0.69349 0.78783 0.20468 0.0
C876 C 0.89042 0.71465 0.47519 0.0
C877 C 0.85418 0.71222 0.47012 0.0
C878 C 0.88915 0.70592 0.48586 0.0
C879 C 0.81509 0.66184 0.50904 0.0
H880 H 0.92173 0.73678 0.52411 0.0
C881 C 0.82306 0.69298 0.55357 0.0
C882 C 0.85788 0.69474 0.55924 0.0
C883 C 0.82119 0.68877 0.54271 0.0
C884 C 0.89187 0.71514 0.52002 0.0
H885 H 0.78769 0.69738 0.47208 0.0
H886 H 0.78552 0.68348 0.4909 0.0
H887 H 0.92042 0.74152 0.50521 0.0
H888 H 0.91746 0.69233 0.558 0.0
H889 H 0.91473 0.68568 0.53887 0.0
H890 H 0.78628 0.63704 0.52404 0.0
C891 C 0.8148 0.69117 0.48661 0.0
C892 C 0.89105 0.7177 0.50913 0.0
C893 C 0.8159 0.69919 0.47584 0.0
C894 C 0.89028 0.69099 0.55382 0.0
C895 C 0.88879 0.68746 0.54289 0.0
C896 C 0.81581 0.6597 0.51997 0.0
C897 C 0.85183 0.6954 0.49182 0.0
C898 C 0.85263 0.69121 0.50345 0.0
C899 C 0.8544 0.68674 0.53721 0.0
C900 C 0.85418 0.68649 0.52558 0.0
H901 H 0.92011 0.72406 0.47089 0.0
H902 H 0.91785 0.70818 0.48945 0.0
H903 H 0.78507 0.6404 0.50499 0.0
H904 H 0.79732 0.69522 0.55756 0.0
H905 H 0.79444 0.68861 0.53858 0.0
C906 C 0.10839 0.8058 0.88717 0.0
C907 C 0.1371 0.84445 0.89245 0.0
C908 C 0.10884 0.80351 0.87628 0.0
C909 C 0.17517 0.86052 0.85277 0.0
H910 H 0.06436 0.79558 0.83849 0.0
C911 C 0.15148 0.88327 0.80914 0.0
C912 C 0.12467 0.84631 0.80309 0.0
C913 C 0.15529 0.8798 0.8199 0.0
C914 C 0.09562 0.8133 0.84236 0.0
H915 H 0.1891 0.91095 0.89041 0.0
H916 H 0.18937 0.90752 0.87135 0.0
H917 H 0.06648 0.79688 0.85751 0.0
H918 H 0.08166 0.77652 0.80353 0.0
H919 H 0.0878 0.77031 0.82251 0.0
H920 H 0.20397 0.87807 0.83755 0.0
C921 C 0.167 0.87854 0.87564 0.0
C922 C 0.09692 0.81408 0.85329 0.0
C923 C 0.16682 0.88065 0.88657 0.0
C924 C 0.10253 0.80547 0.80801 0.0
C925 C 0.10586 0.80203 0.81886 0.0
C926 C 0.17379 0.86005 0.84184 0.0
C927 C 0.13777 0.83998 0.87033 0.0
C928 C 0.13668 0.83799 0.85866 0.0
C929 C 0.13207 0.83929 0.82493 0.0
C930 C 0.13396 0.83676 0.83651 0.0
H931 H 0.08572 0.77704 0.89149 0.0
H932 H 0.08657 0.77294 0.87254 0.0
H933 H 0.20648 0.87856 0.85659 0.0
H934 H 0.16945 0.9151 0.80554 0.0
H935 H 0.17547 0.90916 0.82434 0.0
C936 C 0.61784 0.67081 0.11426 0.0
C937 C 0.59078 0.68665 0.1107 0.0
C938 C 0.60038 0.6271 0.11692 0.0
C939 C 0.50027 0.5245 0.12296 0.0
H940 H 0.55466 0.47198 0.1068 0.0
C941 C 0.41109 0.34378 0.11191 0.0
C942 C 0.43465 0.32239 0.10979 0.0
C943 C 0.43247 0.38759 0.11473 0.0
C944 C 0.53962 0.48596 0.11161 0.0
H945 H 0.52396 0.67003 0.10797 0.0
H946 H 0.49313 0.5931 0.11272 0.0
H947 H 0.58696 0.55061 0.10705 0.0
H948 H 0.4989 0.3293 0.10984 0.0
H949 H 0.53641 0.40577 0.11516 0.0
H950 H 0.45271 0.45979 0.12748 0.0
C951 C 0.52794 0.61471 0.11339 0.0
C952 C 0.55808 0.53114 0.1117 0.0
C953 C 0.54551 0.65864 0.11067 0.0
C954 C 0.47989 0.34497 0.11134 0.0
C955 C 0.50137 0.38891 0.11428 0.0
C956 C 0.48208 0.47921 0.123 0.0
C957 C 0.55543 0.5983 0.11618 0.0
C958 C 0.53807 0.5508 0.11717 0.0
C959 C 0.47801 0.41113 0.11568 0.0
C960 C 0.50087 0.45927 0.11708 0.0
H961 H 0.65281 0.69197 0.11461 0.0
H962 H 0.6222 0.61544 0.11922 0.0
H963 H 0.48451 0.53893 0.12734 0.0
H964 H 0.37602 0.32697 0.11107 0.0
H965 H 0.41325 0.40339 0.11565 0.0
C966 C 0.08127 0.41634 0.42434 0.0
C967 C 0.12235 0.43834 0.42917 0.0
C968 C 0.05158 0.43096 0.4256 0.0
C969 C 0.02513 0.49648 0.44327 0.0
H970 H 0.95741 0.49955 0.41985 0.0
C971 C 0.93947 0.59764 0.44273 0.0
C972 C 0.90013 0.58175 0.43725 0.0
C973 C 0.96141 0.57418 0.44289 0.0
C974 C 0.97542 0.49806 0.42652 0.0
H975 H 0.16502 0.4937 0.43881 0.0
H976 H 0.11323 0.51955 0.44093 0.0
H977 H 0.00789 0.47254 0.4173 0.0
H978 H 0.85139 0.52778 0.42819 0.0
H979 H 0.88971 0.48629 0.42853 0.0
H980 H 0.99324 0.52284 0.45243 0.0
C981 C 0.10375 0.49051 0.43633 0.0
C982 C 0.0045 0.48278 0.42505 0.0
C983 C 0.13347 0.47587 0.43508 0.0
C984 C 0.88165 0.54064 0.43249 0.0
C985 C 0.90377 0.51718 0.4326 0.0
C986 C 0.99605 0.51177 0.44474 0.0
C987 C 0.06228 0.46786 0.43172 0.0
C988 C 0.03013 0.48244 0.43337 0.0
C989 C 0.9445 0.53437 0.43754 0.0
C990 C 0.97136 0.51331 0.43634 0.0
H991 H 0.07134 0.3868 0.41992 0.0
H992 H 0.01972 0.41255 0.42204 0.0
H993 H 0.04378 0.49574 0.44989 0.0
H994 H 0.95415 0.62912 0.44654 0.0
H995 H 0.99282 0.58846 0.44671 0.0
C996 C 0.3279 0.9469 0.78123 0.0
C997 C 0.31102 0.90488 0.77701 0.0
C998 C 0.37212 0.97218 0.78349 0.0
C999 C 0.4753 0.97137 0.78666 0.0
H1000 H 0.52559 0.08452 0.77326 0.0
C1001 C 0.65387 0.06688 0.77387 0.0
C1002 C 0.67585 0.11267 0.77357 0.0
C1003 C 0.6102 0.04321 0.77674 0.0
C1004 C 0.51223 0.05357 0.77727 0.0
H1005 H 0.32641 0.8551 0.77259 0.0
H1006 H 0.40413 0.89945 0.77656 0.0
H1007 H 0.44703 0.03866 0.77415 0.0
H1008 H 0.66984 0.16957 0.77666 0.0
H1009 H 0.59342 0.12811 0.78195 0.0
H1010 H 0.54063 0.98605 0.78964 0.0
C1011 C 0.38303 0.91275 0.77812 0.0
C1012 C 0.46709 0.02716 0.77776 0.0
C1013 C 0.33861 0.88736 0.77584 0.0
C1014 C 0.65372 0.13433 0.77677 0.0
C1015 C 0.60987 0.11054 0.7797 0.0
C1016 C 0.52055 0.99799 0.78626 0.0
C1017 C 0.40041 0.95596 0.78162 0.0
C1018 C 0.44815 0.98543 0.78225 0.0
C1019 C 0.58735 0.06465 0.77951 0.0
C1020 C 0.53957 0.03899 0.78133 0.0
H1021 H 0.30711 0.96085 0.78242 0.0
H1022 H 0.38445 0.00503 0.78637 0.0
H1023 H 0.46155 0.93956 0.79028 0.0
H1024 H 0.67027 0.04915 0.77171 0.0
H1025 H 0.59399 0.008 0.77638 0.0
C1026 C 0.65979 0.59816 0.59076 0.0
C1027 C 0.67837 0.57117 0.59103 0.0
C1028 C 0.61575 0.5809 0.58854 0.0
C1029 C 0.51863 0.48638 0.57746 0.0
H1030 H 0.45683 0.51889 0.5972 0.0
C1031 C 0.33397 0.38523 0.58419 0.0
C1032 C 0.31116 0.40631 0.58732 0.0
C1033 C 0.37882 0.40889 0.58258 0.0
C1034 C 0.47356 0.51015 0.59146 0.0
H1035 H 0.66582 0.50531 0.58869 0.0
H1036 H 0.58835 0.4749 0.5848 0.0
H1037 H 0.53549 0.55296 0.59829 0.0
H1038 H 0.31698 0.46908 0.59053 0.0
H1039 H 0.39539 0.51073 0.58747 0.0
H1040 H 0.45645 0.44304 0.57072 0.0
C1041 C 0.60811 0.50951 0.58629 0.0
C1042 C 0.51871 0.52957 0.59212 0.0
C1043 C 0.65236 0.52684 0.58854 0.0
C1044 C 0.33369 0.45193 0.58814 0.0
C1045 C 0.37865 0.47569 0.58649 0.0
C1046 C 0.47338 0.46709 0.57675 0.0
C1047 C 0.58925 0.53628 0.58649 0.0
C1048 C 0.54166 0.51746 0.58523 0.0
C1049 C 0.40191 0.45426 0.58401 0.0
C1050 C 0.45025 0.47825 0.58386 0.0
H1051 H 0.67928 0.63272 0.59236 0.0
H1052 H 0.60229 0.60246 0.58854 0.0
H1053 H 0.53559 0.47686 0.57197 0.0
H1054 H 0.31733 0.35016 0.58328 0.0
H1055 H 0.3956 0.39123 0.58074 0.0
C1056 C 0.07864 0.66416 0.94678 0.0
C1057 C 0.11619 0.6847 0.9405 0.0
C1058 C 0.0539 0.61878 0.94726 0.0
C1059 C 0.02382 0.525 0.93105 0.0
H1060 H 0.98247 0.45672 0.95644 0.0
C1061 C 0.92925 0.33839 0.92977 0.0
C1062 C 0.89575 0.31584 0.93703 0.0
C1063 C 0.95666 0.38325 0.93064 0.0
C1064 C 0.99315 0.47536 0.94927 0.0
H1065 H 0.15849 0.67339 0.93031 0.0
H1066 H 0.1143 0.5941 0.93088 0.0
H1067 H 0.03084 0.53555 0.95753 0.0
H1068 H 0.86425 0.32212 0.95086 0.0
H1069 H 0.91113 0.40116 0.95218 0.0
H1070 H 0.98521 0.46576 0.92273 0.0
C1071 C 0.10418 0.61337 0.9354 0.0
C1072 C 0.02108 0.52038 0.94992 0.0
C1073 C 0.12929 0.65871 0.93504 0.0
C1074 C 0.88996 0.33893 0.94517 0.0
C1075 C 0.91702 0.38407 0.94596 0.0
C1076 C 0.99542 0.48023 0.93039 0.0
C1077 C 0.06588 0.59309 0.94135 0.0
C1078 C 0.03688 0.54544 0.9408 0.0
C1079 C 0.9508 0.40677 0.9387 0.0
C1080 C 0.97999 0.45472 0.93949 0.0
H1081 H 0.06709 0.68298 0.95097 0.0
H1082 H 0.02426 0.60379 0.95184 0.0
H1083 H 0.03494 0.54384 0.92391 0.0
H1084 H 0.93493 0.32112 0.92354 0.0
H1085 H 0.98293 0.39931 0.92506 0.0
C1086 C 0.53562 0.88285 0.25448 0.0
C1087 C 0.58095 0.90178 0.25541 0.0
C1088 C 0.51716 0.90885 0.25225 0.0
C1089 C 0.54145 0.02077 0.2561 0.0
H1090 H 0.44076 0.98777 0.23851 0.0
C1091 C 0.46179 0.12733 0.25419 0.0
C1092 C 0.41622 0.1046 0.25504 0.0
C1093 C 0.48411 0.10498 0.25203 0.0
C1094 C 0.4688 0.99736 0.24348 0.0
H1095 H 0.64267 0.96179 0.25384 0.0
H1096 H 0.61052 0.00702 0.24998 0.0
H1097 H 0.47501 0.94257 0.23879 0.0
H1098 H 0.35815 0.04115 0.25349 0.0
H1099 H 0.39694 0.00211 0.25014 0.0
H1100 H 0.53449 0.07435 0.26116 0.0
C1101 C 0.58919 0.97241 0.25121 0.0
C1102 C 0.48836 0.97149 0.24363 0.0
C1103 C 0.60754 0.94654 0.25344 0.0
C1104 C 0.39336 0.05948 0.25314 0.0
C1105 C 0.41561 0.03716 0.25104 0.0
C1106 C 0.52177 0.04639 0.25602 0.0
C1107 C 0.54382 0.9541 0.25088 0.0
C1108 C 0.5246 0.98272 0.25004 0.0
C1109 C 0.4613 0.05945 0.25069 0.0
C1110 C 0.48484 0.03471 0.24982 0.0
H1111 H 0.51444 0.84841 0.25596 0.0
H1112 H 0.48204 0.89391 0.25209 0.0
H1113 H 0.56893 0.02989 0.26125 0.0
H1114 H 0.48032 0.1621 0.25559 0.0
H1115 H 0.51931 0.12325 0.25164 0.0
C1116 C 0.16487 0.03834 0.09266 0.0
C1117 C 0.19001 0.07309 0.08584 0.0
C1118 C 0.11945 0.02058 0.09313 0.0
C1119 C 0.03734 0.05324 0.08873 0.0
H1120 H 0.9527 0.93027 0.08668 0.0
C1121 C 0.84764 0.97545 0.09346 0.0
C1122 C 0.82336 0.94411 0.08583 0.0
C1123 C 0.89314 0.9939 0.09389 0.0
C1124 C 0.97603 0.96474 0.08731 0.0
H1125 H 0.18698 0.11424 0.07369 0.0
H1126 H 0.10867 0.08358 0.07457 0.0
H1127 H 0.03051 0.954 0.0868 0.0
H1128 H 0.82777 0.91015 0.07221 0.0
H1129 H 0.90641 0.94224 0.07294 0.0
H1130 H 0.98285 0.064 0.08914 0.0
C1131 C 0.12378 0.07052 0.07966 0.0
C1132 C 0.02048 0.97821 0.08745 0.0
C1133 C 0.16867 0.08779 0.07911 0.0
C1134 C 0.84557 0.93404 0.07823 0.0
C1135 C 0.89058 0.95203 0.0787 0.0
C1136 C 0.99287 0.03971 0.08875 0.0
C1137 C 0.09879 0.03768 0.08688 0.0
C1138 C 0.05161 0.02267 0.08791 0.0
C1139 C 0.91471 0.98089 0.08674 0.0
C1140 C 0.96178 0.99539 0.08779 0.0
H1141 H 0.18042 0.02662 0.098 0.0
H1142 H 0.1008 0.99499 0.09872 0.0
H1143 H 0.0607 0.08775 0.0892 0.0
H1144 H 0.83133 0.98335 0.0995 0.0
H1145 H 0.91109 0.01635 0.10014 0.0
C1146 C 0.14238 0.17176 0.41585 0.0
C1147 C 0.15434 0.19568 0.42517 0.0
C1148 C 0.11172 0.12732 0.4159 0.0
C1149 C 0.04571 0.03036 0.43285 0.0
H1150 H 0.96365 0.99818 0.40994 0.0
C1151 C 0.89105 0.85995 0.43055 0.0
C1152 C 0.88775 0.83872 0.42105 0.0
C1153 C 0.9195 0.90499 0.43148 0.0
C1154 C 0.98625 0.00662 0.41639 0.0
H1155 H 0.14507 0.19198 0.4419 0.0
H1156 H 0.0912 0.11415 0.44206 0.0
H1157 H 0.02565 0.07174 0.41085 0.0
H1158 H 0.90897 0.84787 0.40496 0.0
H1159 H 0.95701 0.92631 0.40643 0.0
H1160 H 0.0058 0.96487 0.43836 0.0
C1161 C 0.10611 0.12933 0.4347 0.0
C1162 C 0.02214 0.04873 0.41687 0.0
C1163 C 0.13734 0.17385 0.43465 0.0
C1164 C 0.91043 0.86364 0.41232 0.0
C1165 C 0.93815 0.90856 0.41319 0.0
C1166 C 0.00954 0.98817 0.4324 0.0
C1167 C 0.09145 0.10599 0.42526 0.0
C1168 C 0.05286 0.06103 0.42499 0.0
C1169 C 0.94444 0.92951 0.42288 0.0
C1170 C 0.97976 0.97565 0.42407 0.0
H1171 H 0.15447 0.18814 0.40843 0.0
H1172 H 0.10224 0.11022 0.40851 0.0
H1173 H 0.06864 0.03853 0.43921 0.0
H1174 H 0.8746 0.84131 0.43746 0.0
H1175 H 0.92336 0.92032 0.43903 0.0
C1176 C 0.91249 0.0865 0.74519 0.0
C1177 C 0.92754 0.12253 0.75193 0.0
C1178 C 0.92905 0.05822 0.74577 0.0
C1179 C 0.02036 0.04546 0.75342 0.0
H1180 H 0.93373 0.92247 0.75512 0.0
C1181 C 0.06236 0.91325 0.74382 0.0
C1182 C 0.05259 0.88114 0.75145 0.0
C1183 C 0.04463 0.94056 0.74436 0.0
C1184 C 0.95824 0.95665 0.75473 0.0
H1185 H 0.97386 0.15855 0.76418 0.0
H1186 H 0.0043 0.1094 0.76493 0.0
H1187 H 0.91082 0.97734 0.75535 0.0
H1188 H 0.01411 0.85045 0.76526 0.0
H1189 H 0.98153 0.89768 0.766 0.0
H1190 H 0.06767 0.02474 0.75245 0.0
C1191 C 0.97894 0.10299 0.75932 0.0
C1192 C 0.94521 0.98804 0.75481 0.0
C1193 C 0.96185 0.1313 0.75882 0.0
C1194 C 0.02172 0.87448 0.75918 0.0
C1195 C 0.00353 0.90182 0.75967 0.0
C1196 C 0.03334 0.01405 0.75316 0.0
C1197 C 0.96156 0.06537 0.75302 0.0
C1198 C 0.97608 0.03273 0.75399 0.0
C1199 C 0.01634 0.93629 0.7525 0.0
C1200 C 0.00236 0.9693 0.75365 0.0
H1201 H 0.88639 0.07895 0.73971 0.0
H1202 H 0.91578 0.03014 0.74065 0.0
H1203 H 0.0448 0.07958 0.75276 0.0
H1204 H 0.08593 0.91906 0.73774 0.0
H1205 H 0.05427 0.96612 0.73858 0.0
C1206 C 0.9603 0.82669 0.61632 0.0
C1207 C 0.95094 0.80274 0.60702 0.0
C1208 C 0.97721 0.87174 0.61605 0.0
C1209 C 0.97039 0.95287 0.60008 0.0
H1210 H 0.05876 0.03566 0.61881 0.0
C1211 C 0.02907 0.13889 0.60025 0.0
C1212 C 0.04564 0.1615 0.60966 0.0
C1213 C 0.01465 0.09415 0.59966 0.0
C1214 C 0.03339 0.01289 0.61365 0.0
H1215 H 0.95281 0.80683 0.59016 0.0
H1216 H 0.98236 0.88601 0.58966 0.0
H1217 H 0.0457 0.96148 0.61789 0.0
H1218 H 0.05626 0.15478 0.62602 0.0
H1219 H 0.02836 0.07657 0.62522 0.0
H1220 H 0.95711 0.00385 0.59606 0.0
C1221 C 0.9771 0.86995 0.59715 0.0
C1222 C 0.02632 0.97044 0.61305 0.0
C1223 C 0.96096 0.82485 0.59743 0.0
C1224 C 0.04344 0.13799 0.61868 0.0
C1225 C 0.02829 0.09331 0.61815 0.0
C1226 C 0.97713 0.99532 0.60076 0.0
C1227 C 0.98407 0.89359 0.60647 0.0
C1228 C 0.99453 0.93983 0.60633 0.0
C1229 C 0.01604 0.07122 0.60852 0.0
C1230 C 0.0084 0.02581 0.60766 0.0
H1231 H 0.95181 0.8101 0.62379 0.0
H1232 H 0.98193 0.88893 0.62336 0.0
H1233 H 0.9452 0.92978 0.59492 0.0
H1234 H 0.03113 0.15643 0.59314 0.0
H1235 H 0.00543 0.0784 0.59211 0.0
C1236 C 0.86372 0.0115 0.93962 0.0
C1237 C 0.85921 0.03716 0.93194 0.0
C1238 C 0.89428 0.99771 0.93842 0.0
C1239 C 0.97694 0.9976 0.91985 0.0
H1240 H 0.03385 0.99915 0.9458 0.0
C1241 C 0.1056 0.94255 0.92274 0.0
C1242 C 0.13548 0.95771 0.93103 0.0
C1243 C 0.07483 0.95609 0.92169 0.0
C1244 C 0.01909 0.99939 0.93842 0.0
H1245 H 0.88208 0.0677 0.91688 0.0
H1246 H 0.93592 0.04474 0.91482 0.0
H1247 H 0.97192 0.01019 0.94609 0.0
H1248 H 0.15825 1.00047 0.94441 0.0
H1249 H 0.10677 0.0268 0.9422 0.0
H1250 H 0.02571 0.989 0.91214 0.0
C1251 C 0.91517 0.03371 0.92164 0.0
C1252 C 0.98252 0.00466 0.93861 0.0
C1253 C 0.88396 0.04669 0.92276 0.0
C1254 C 0.13624 0.98915 0.9378 0.0
C1255 C 0.10591 0.00333 0.93665 0.0
C1256 C 0.01401 0.99297 0.91964 0.0
C1257 C 0.92214 0.01058 0.92966 0.0
C1258 C 0.96052 0.00349 0.92935 0.0
C1259 C 0.07329 0.98534 0.92889 0.0
C1260 C 0.03559 0.99353 0.92893 0.0
H1261 H 0.84577 0.00466 0.94687 0.0
H1262 H 0.89749 0.97881 0.94464 0.0
H1263 H 0.96103 0.9962 0.91253 0.0
H1264 H 0.10352 0.91725 0.91761 0.0
H1265 H 0.05032 0.94096 0.91567 0.0
C1266 C 0.1516 0.12393 0.26524 0.0
C1267 C 0.17375 0.13149 0.27479 0.0
C1268 C 0.10655 0.09517 0.26475 0.0
C1269 C 0.00632 0.03677 0.2806 0.0
H1270 H 0.9722 0.94309 0.26058 0.0
C1271 C 0.83894 0.88445 0.28394 0.0
C1272 C 0.81523 0.8676 0.2747 0.0
C1273 C 0.88356 0.91419 0.28361 0.0
C1274 C 0.98094 0.96917 0.26614 0.0
H1275 H 0.16634 0.11739 0.29133 0.0
H1276 H 0.0877 0.06892 0.29059 0.0
H1277 H 0.04627 0.00527 0.26029 0.0
H1278 H 0.8196 0.86684 0.25787 0.0
H1279 H 0.89758 0.91939 0.2572 0.0
H1280 H 0.94132 1.00146 0.28642 0.0
C1281 C 0.10483 0.08469 0.28347 0.0
C1282 C 0.02339 0.00492 0.26594 0.0
C1283 C 0.14981 0.11264 0.28392 0.0
C1284 C 0.83744 0.87857 0.26512 0.0
C1285 C 0.88211 0.90904 0.26476 0.0
C1286 C 0.96389 1.00137 0.28074 0.0
C1287 C 0.08295 0.07422 0.27383 0.0
C1288 C 0.03669 0.03882 0.27327 0.0
C1289 C 0.90533 0.92874 0.27399 0.0
C1290 C 0.95072 0.96663 0.27363 0.0
H1291 H 0.16952 0.13729 0.25806 0.0
H1292 H 0.09046 0.08796 0.25723 0.0
H1293 H 0.01546 0.06257 0.28628 0.0
H1294 H 0.82236 0.87681 0.29141 0.0
H1295 H 0.9005 0.92743 0.29091 0.0
loop_
_geom_bond_atom_site_label_1
_geom_bond_atom_site_label_2
_geom_bond_distance
_geom_bond_site_symmetry_2
_ccdc_geom_bond_type
C0 C1 1.351 . S
C0 N3 1.368 . S
C0 H5 0.931 . S
C1 C0 1.351 . S
C1 N2 1.373 . S
C1 H29 0.930 . S
N2 C1 1.373 . S
N2 C4 1.340 . S
N3 C0 1.368 . S
N3 C4 1.321 . S
N3 Co6 2.135 . S
C4 N2 1.340 . S
C4 N3 1.321 . S
C4 H28 0.930 . S
H5 C0 0.931 . S
Co6 N3 2.135 . S
Co6 N9 2.121 . S
Co6 O14 2.055 . S
Co6 O17 2.039 . S
Co6 N20 2.140 . S
C7 O8 1.227 . S
C7 O17 1.265 . S
O8 C7 1.227 . S
N9 Co6 2.121 . S
N9 C11 1.375 . S
N9 C12 1.313 . S
C10 C11 1.338 . S
C10 N13 1.377 . S
C10 H30 0.930 . S
C11 N9 1.375 . S
C11 C10 1.338 . S
C11 H15 0.931 . S
C12 N9 1.313 . S
C12 N13 1.344 . S
C12 H16 0.930 . S
N13 C10 1.377 . S
N13 C12 1.344 . S
O14 Co6 2.055 . S
O14 C18 1.253 . S
H15 C11 0.931 . S
H16 C12 0.930 . S
O17 Co6 2.039 . S
O17 C7 1.265 . S
C18 O14 1.253 . S
C18 O19 1.227 . S
O19 C18 1.227 . S
N20 Co6 2.140 . S
N20 C23 1.346 . S
N20 C24 1.345 . S
C21 C22 1.387 . S
C21 C25 1.391 . S
C22 C21 1.387 . S
C22 C23 1.369 . S
C22 H31 0.929 . S
C23 N20 1.346 . S
C23 C22 1.369 . S
C23 H26 0.928 . S
C24 N20 1.345 . S
C24 C25 1.371 . S
C24 H27 0.931 . S
C25 C21 1.391 . S
C25 C24 1.371 . S
C25 H32 0.930 . S
H26 C23 0.928 . S
H27 C24 0.931 . S
H28 C4 0.930 . S
H29 C1 0.930 . S
H30 C10 0.930 . S
H31 C22 0.929 . S
H32 C25 0.930 . S
C33 C34 1.351 . S
C33 N36 1.368 . S
C33 H38 0.931 . S
C34 C33 1.351 . S
C34 N35 1.373 . S
C34 H62 0.930 . S
N35 C34 1.373 . S
N35 C37 1.340 . S
N36 C33 1.368 . S
N36 C37 1.321 . S
N36 Co39 2.135 . S
C37 N35 1.340 . S
C37 N36 1.321 . S
C37 H61 0.930 . S
H38 C33 0.931 . S
Co39 N36 2.135 . S
Co39 N42 2.121 . S
Co39 O47 2.055 . S
Co39 O50 2.039 . S
Co39 N53 2.140 . S
C40 O41 1.227 . S
C40 O50 1.265 . S
O41 C40 1.227 . S
N42 Co39 2.121 . S
N42 C44 1.375 . S
N42 C45 1.313 . S
C43 C44 1.338 . S
C43 N46 1.377 . S
C43 H63 0.930 . S
C44 N42 1.375 . S
C44 C43 1.338 . S
C44 H48 0.931 . S
C45 N42 1.313 . S
C45 N46 1.344 . S
C45 H49 0.930 . S
N46 C43 1.377 . S
N46 C45 1.344 . S
O47 Co39 2.055 . S
O47 C51 1.253 . S
H48 C44 0.931 . S
H49 C45 0.930 . S
O50 Co39 2.039 . S
O50 C40 1.265 . S
C51 O47 1.253 . S
C51 O52 1.227 . S
O52 C51 1.227 . S
N53 Co39 2.140 . S
N53 C56 1.346 . S
N53 C57 1.345 . S
C54 C55 1.387 . S
C54 C58 1.391 . S
C55 C54 1.387 . S
C55 C56 1.369 . S
C55 H64 0.929 . S
C56 N53 1.346 . S
C56 C55 1.369 . S
C56 H59 0.928 . S
C57 N53 1.345 . S
C57 C58 1.371 . S
C57 H60 0.931 . S
C58 C54 1.391 . S
C58 C57 1.371 . S
C58 H65 0.930 . S
H59 C56 0.928 . S
H60 C57 0.931 . S
H61 C37 0.930 . S
H62 C34 0.930 . S
H63 C43 0.930 . S
H64 C55 0.929 . S
H65 C58 0.930 . S
C66 C67 1.351 . S
C66 N69 1.368 . S
C66 H71 0.931 . S
C67 C66 1.351 . S
C67 N68 1.373 . S
C67 H95 0.930 . S
N68 C67 1.373 . S
N68 C70 1.340 . S
N69 C66 1.368 . S
N69 C70 1.321 . S
N69 Co72 2.135 . S
C70 N68 1.340 . S
C70 N69 1.321 . S
C70 H94 0.930 . S
H71 C66 0.931 . S
Co72 N69 2.135 . S
Co72 N75 2.121 . S
Co72 O80 2.055 . S
Co72 O83 2.039 . S
Co72 N86 2.140 . S
C73 O74 1.227 . S
C73 O83 1.265 . S
O74 C73 1.227 . S
N75 Co72 2.121 . S
N75 C77 1.375 . S
N75 C78 1.313 . S
C76 C77 1.338 . S
C76 N79 1.377 . S
C76 H96 0.930 . S
C77 N75 1.375 . S
C77 C76 1.338 . S
C77 H81 0.931 . S
C78 N75 1.313 . S
C78 N79 1.344 . S
C78 H82 0.930 . S
N79 C76 1.377 . S
N79 C78 1.344 . S
O80 Co72 2.055 . S
O80 C84 1.253 . S
H81 C77 0.931 . S
H82 C78 0.930 . S
O83 Co72 2.039 . S
O83 C73 1.265 . S
C84 O80 1.253 . S
C84 O85 1.227 . S
O85 C84 1.227 . S
N86 Co72 2.140 . S
N86 C89 1.346 . S
N86 C90 1.345 . S
C87 C88 1.387 . S
C87 C91 1.391 . S
C88 C87 1.387 . S
C88 C89 1.369 . S
C88 H97 0.929 . S
C89 N86 1.346 . S
C89 C88 1.369 . S
C89 H92 0.928 . S
C90 N86 1.345 . S
C90 C91 1.371 . S
C90 H93 0.931 . S
C91 C87 1.391 . S
C91 C90 1.371 . S
C91 H98 0.930 . S
H92 C89 0.928 . S
H93 C90 0.931 . S
H94 C70 0.930 . S
H95 C67 0.930 . S
H96 C76 0.930 . S
H97 C88 0.929 . S
H98 C91 0.930 . S
C99 C100 1.351 . S
C99 N102 1.368 . S
C99 H104 0.931 . S
C100 C99 1.351 . S
C100 N101 1.373 . S
C100 H128 0.930 . S
N101 C100 1.373 . S
N101 C103 1.340 . S
N102 C99 1.368 . S
N102 C103 1.321 . S
N102 Co105 2.135 . S
C103 N101 1.340 . S
C103 N102 1.321 . S
C103 H127 0.930 . S
H104 C99 0.931 . S
Co105 N102 2.135 . S
Co105 N108 2.121 . S
Co105 O113 2.055 . S
Co105 O116 2.039 . S
Co105 N119 2.140 . S
C106 O107 1.227 . S
C106 O116 1.265 . S
O107 C106 1.227 . S
N108 Co105 2.121 . S
N108 C110 1.375 . S
N108 C111 1.313 . S
C109 C110 1.338 . S
C109 N112 1.377 . S
C109 H129 0.930 . S
C110 N108 1.375 . S
C110 C109 1.338 . S
C110 H114 0.931 . S
C111 N108 1.313 . S
C111 N112 1.344 . S
C111 H115 0.930 . S
N112 C109 1.377 . S
N112 C111 1.344 . S
O113 Co105 2.055 . S
O113 C117 1.253 . S
H114 C110 0.931 . S
H115 C111 0.930 . S
O116 Co105 2.039 . S
O116 C106 1.265 . S
C117 O113 1.253 . S
C117 O118 1.227 . S
O118 C117 1.227 . S
N119 Co105 2.140 . S
N119 C122 1.346 . S
N119 C123 1.345 . S
C120 C121 1.387 . S
C120 C124 1.391 . S
C121 C120 1.387 . S
C121 C122 1.369 . S
C121 H130 0.929 . S
C122 N119 1.346 . S
C122 C121 1.369 . S
C122 H125 0.928 . S
C123 N119 1.345 . S
C123 C124 1.371 . S
C123 H126 0.931 . S
C124 C120 1.391 . S
C124 C123 1.371 . S
C124 H131 0.930 . S
H125 C122 0.928 . S
H126 C123 0.931 . S
H127 C103 0.930 . S
H128 C100 0.930 . S
H129 C109 0.930 . S
H130 C121 0.929 . S
H131 C124 0.930 . S
C132 C133 1.351 . S
C132 N135 1.368 . S
C132 H137 0.931 . S
C133 C132 1.351 . S
C133 N134 1.373 . S
C133 H161 0.930 . S
N134 C133 1.373 . S
N134 C136 1.340 . S
N135 C132 1.368 . S
N135 C136 1.321 . S
N135 Co138 2.135 . S
C136 N134 1.340 . S
C136 N135 1.321 . S
C136 H160 0.930 . S
H137 C132 0.931 . S
Co138 N135 2.135 . S
Co138 N141 2.121 . S
Co138 O146 2.055 . S
Co138 O149 2.039 . S
Co138 N152 2.140 . S
C139 O140 1.227 . S
C139 O149 1.265 . S
O140 C139 1.227 . S
N141 Co138 2.121 . S
N141 C143 1.375 . S
N141 C144 1.313 . S
C142 C143 1.338 . S
C142 N145 1.377 . S
C142 H162 0.930 . S
C143 N141 1.375 . S
C143 C142 1.338 . S
C143 H147 0.931 . S
C144 N141 1.313 . S
C144 N145 1.344 . S
C144 H148 0.930 . S
N145 C142 1.377 . S
N145 C144 1.344 . S
O146 Co138 2.055 . S
O146 C150 1.253 . S
H147 C143 0.931 . S
H148 C144 0.930 . S
O149 Co138 2.039 . S
O149 C139 1.265 . S
C150 O146 1.253 . S
C150 O151 1.227 . S
O151 C150 1.227 . S
N152 Co138 2.140 . S
N152 C155 1.346 . S
N152 C156 1.345 . S
C153 C154 1.387 . S
C153 C157 1.391 . S
C154 C153 1.387 . S
C154 C155 1.369 . S
C154 H163 0.929 . S
C155 N152 1.346 . S
C155 C154 1.369 . S
C155 H158 0.928 . S
C156 N152 1.345 . S
C156 C157 1.371 . S
C156 H159 0.931 . S
C157 C153 1.391 . S
C157 C156 1.371 . S
C157 H164 0.930 . S
H158 C155 0.928 . S
H159 C156 0.931 . S
H160 C136 0.930 . S
H161 C133 0.930 . S
H162 C142 0.930 . S
H163 C154 0.929 . S
H164 C157 0.930 . S
C165 C166 1.351 . S
C165 N168 1.368 . S
C165 H170 0.931 . S
C166 C165 1.351 . S
C166 N167 1.373 . S
C166 H194 0.930 . S
N167 C166 1.373 . S
N167 C169 1.340 . S
N168 C165 1.368 . S
N168 C169 1.321 . S
N168 Co171 2.135 . S
C169 N167 1.340 . S
C169 N168 1.321 . S
C169 H193 0.930 . S
H170 C165 0.931 . S
Co171 N168 2.135 . S
Co171 N174 2.121 . S
Co171 O179 2.055 . S
Co171 O182 2.039 . S
Co171 N185 2.140 . S
C172 O173 1.227 . S
C172 O182 1.265 . S
O173 C172 1.227 . S
N174 Co171 2.121 . S
N174 C176 1.375 . S
N174 C177 1.313 . S
C175 C176 1.338 . S
C175 N178 1.377 . S
C175 H195 0.930 . S
C176 N174 1.375 . S
C176 C175 1.338 . S
C176 H180 0.931 . S
C177 N174 1.313 . S
C177 N178 1.344 . S
C177 H181 0.930 . S
N178 C175 1.377 . S
N178 C177 1.344 . S
O179 Co171 2.055 . S
O179 C183 1.253 . S
H180 C176 0.931 . S
H181 C177 0.930 . S
O182 Co171 2.039 . S
O182 C172 1.265 . S
C183 O179 1.253 . S
C183 O184 1.227 . S
O184 C183 1.227 . S
N185 Co171 2.140 . S
N185 C188 1.346 . S
N185 C189 1.345 . S
C186 C187 1.387 . S
C186 C190 1.391 . S
C187 C186 1.387 . S
C187 C188 1.369 . S
C187 H196 0.929 . S
C188 N185 1.346 . S
C188 C187 1.369 . S
C188 H191 0.928 . S
C189 N185 1.345 . S
C189 C190 1.371 . S
C189 H192 0.931 . S
C190 C186 1.391 . S
C190 C189 1.371 . S
C190 H197 0.930 . S
H191 C188 0.928 . S
H192 C189 0.931 . S
H193 C169 0.930 . S
H194 C166 0.930 . S
H195 C175 0.930 . S
H196 C187 0.929 . S
H197 C190 0.930 . S
C198 C199 1.351 . S
C198 N201 1.368 . S
C198 H203 0.931 . S
C199 C198 1.351 . S
C199 N200 1.373 . S
C199 H227 0.930 . S
N200 C199 1.373 . S
N200 C202 1.340 . S
N201 C198 1.368 . S
N201 C202 1.321 . S
N201 Co204 2.135 . S
C202 N200 1.340 . S
C202 N201 1.321 . S
C202 H226 0.930 . S
H203 C198 0.931 . S
Co204 N201 2.135 . S
Co204 N207 2.121 . S
Co204 O212 2.055 . S
Co204 O215 2.039 . S
Co204 N218 2.140 . S
C205 O206 1.227 . S
C205 O215 1.265 . S
O206 C205 1.227 . S
N207 Co204 2.121 . S
N207 C209 1.375 . S
N207 C210 1.313 . S
C208 C209 1.338 . S
C208 N211 1.377 . S
C208 H228 0.930 . S
C209 N207 1.375 . S
C209 C208 1.338 . S
C209 H213 0.931 . S
C210 N207 1.313 . S
C210 N211 1.344 . S
C210 H214 0.930 . S
N211 C208 1.377 . S
N211 C210 1.344 . S
O212 Co204 2.055 . S
O212 C216 1.253 . S
H213 C209 0.931 . S
H214 C210 0.930 . S
O215 Co204 2.039 . S
O215 C205 1.265 . S
C216 O212 1.253 . S
C216 O217 1.227 . S
O217 C216 1.227 . S
N218 Co204 2.140 . S
N218 C221 1.346 . S
N218 C222 1.345 . S
C219 C220 1.387 . S
C219 C223 1.391 . S
C220 C219 1.387 . S
C220 C221 1.369 . S
C220 H229 0.929 . S
C221 N218 1.346 . S
C221 C220 1.369 . S
C221 H224 0.928 . S
C222 N218 1.345 . S
C222 C223 1.371 . S
C222 H225 0.931 . S
C223 C219 1.391 . S
C223 C222 1.371 . S
C223 H230 0.930 . S
H224 C221 0.928 . S
H225 C222 0.931 . S
H226 C202 0.930 . S
H227 C199 0.930 . S
H228 C208 0.930 . S
H229 C220 0.929 . S
H230 C223 0.930 . S
C231 C232 1.351 . S
C231 N234 1.368 . S
C231 H236 0.931 . S
C232 C231 1.351 . S
C232 N233 1.373 . S
C232 H260 0.930 . S
N233 C232 1.373 . S
N233 C235 1.340 . S
N234 C231 1.368 . S
N234 C235 1.321 . S
N234 Co237 2.135 . S
C235 N233 1.340 . S
C235 N234 1.321 . S
C235 H259 0.930 . S
H236 C231 0.931 . S
Co237 N234 2.135 . S
Co237 N240 2.121 . S
Co237 O245 2.055 . S
Co237 O248 2.039 . S
Co237 N251 2.140 . S
C238 O239 1.227 . S
C238 O248 1.265 . S
O239 C238 1.227 . S
N240 Co237 2.121 . S
N240 C242 1.375 . S
N240 C243 1.313 . S
C241 C242 1.338 . S
C241 N244 1.377 . S
C241 H261 0.930 . S
C242 N240 1.375 . S
C242 C241 1.338 . S
C242 H246 0.931 . S
C243 N240 1.313 . S
C243 N244 1.344 . S
C243 H247 0.930 . S
N244 C241 1.377 . S
N244 C243 1.344 . S
O245 Co237 2.055 . S
O245 C249 1.253 . S
H246 C242 0.931 . S
H247 C243 0.930 . S
O248 Co237 2.039 . S
O248 C238 1.265 . S
C249 O245 1.253 . S
C249 O250 1.227 . S
O250 C249 1.227 . S
N251 Co237 2.140 . S
N251 C254 1.346 . S
N251 C255 1.345 . S
C252 C253 1.387 . S
C252 C256 1.391 . S
C253 C252 1.387 . S
C253 C254 1.369 . S
C253 H262 0.929 . S
C254 N251 1.346 . S
C254 C253 1.369 . S
C254 H257 0.928 . S
C255 N251 1.345 . S
C255 C256 1.371 . S
C255 H258 0.931 . S
C256 C252 1.391 . S
C256 C255 1.371 . S
C256 H263 0.930 . S
H257 C254 0.928 . S
H258 C255 0.931 . S
H259 C235 0.930 . S
H260 C232 0.930 . S
H261 C241 0.930 . S
H262 C253 0.929 . S
H263 C256 0.930 . S
C264 C265 1.351 . S
C264 N267 1.368 . S
C264 H269 0.931 . S
C265 C264 1.351 . S
C265 N266 1.373 . S
C265 H293 0.930 . S
N266 C265 1.373 . S
N266 C268 1.340 . S
N267 C264 1.368 . S
N267 C268 1.321 . S
N267 Co270 2.135 . S
C268 N266 1.340 . S
C268 N267 1.321 . S
C268 H292 0.930 . S
H269 C264 0.931 . S
Co270 N267 2.135 . S
Co270 N273 2.121 . S
Co270 O278 2.055 . S
Co270 O281 2.039 . S
Co270 N284 2.140 . S
C271 O272 1.227 . S
C271 O281 1.265 . S
O272 C271 1.227 . S
N273 Co270 2.121 . S
N273 C275 1.375 . S
N273 C276 1.313 . S
C274 C275 1.338 . S
C274 N277 1.377 . S
C274 H294 0.930 . S
C275 N273 1.375 . S
C275 C274 1.338 . S
C275 H279 0.931 . S
C276 N273 1.313 . S
C276 N277 1.344 . S
C276 H280 0.930 . S
N277 C274 1.377 . S
N277 C276 1.344 . S
O278 Co270 2.055 . S
O278 C282 1.253 . S
H279 C275 0.931 . S
H280 C276 0.930 . S
O281 Co270 2.039 . S
O281 C271 1.265 . S
C282 O278 1.253 . S
C282 O283 1.227 . S
O283 C282 1.227 . S
N284 Co270 2.140 . S
N284 C287 1.346 . S
N284 C288 1.345 . S
C285 C286 1.387 . S
C285 C289 1.391 . S
C286 C285 1.387 . S
C286 C287 1.369 . S
C286 H295 0.929 . S
C287 N284 1.346 . S
C287 C286 1.369 . S
C287 H290 0.928 . S
C288 N284 1.345 . S
C288 C289 1.371 . S
C288 H291 0.931 . S
C289 C285 1.391 . S
C289 C288 1.371 . S
C289 H296 0.930 . S
H290 C287 0.928 . S
H291 C288 0.931 . S
H292 C268 0.930 . S
H293 C265 0.930 . S
H294 C274 0.930 . S
H295 C286 0.929 . S
H296 C289 0.930 . S
C297 C298 1.351 . S
C297 N300 1.368 . S
C297 H302 0.931 . S
C298 C297 1.351 . S
C298 N299 1.373 . S
C298 H326 0.930 . S
N299 C298 1.373 . S
N299 C301 1.340 . S
N300 C297 1.368 . S
N300 C301 1.321 . S
N300 Co303 2.135 . S
C301 N299 1.340 . S
C301 N300 1.321 . S
C301 H325 0.930 . S
H302 C297 0.931 . S
Co303 N300 2.135 . S
Co303 N306 2.121 . S
Co303 O311 2.055 . S
Co303 O314 2.039 . S
Co303 N317 2.140 . S
C304 O305 1.227 . S
C304 O314 1.265 . S
O305 C304 1.227 . S
N306 Co303 2.121 . S
N306 C308 1.375 . S
N306 C309 1.313 . S
C307 C308 1.338 . S
C307 N310 1.377 . S
C307 H327 0.930 . S
C308 N306 1.375 . S
C308 C307 1.338 . S
C308 H312 0.931 . S
C309 N306 1.313 . S
C309 N310 1.344 . S
C309 H313 0.930 . S
N310 C307 1.377 . S
N310 C309 1.344 . S
O311 Co303 2.055 . S
O311 C315 1.253 . S
H312 C308 0.931 . S
H313 C309 0.930 . S
O314 Co303 2.039 . S
O314 C304 1.265 . S
C315 O311 1.253 . S
C315 O316 1.227 . S
O316 C315 1.227 . S
N317 Co303 2.140 . S
N317 C320 1.346 . S
N317 C321 1.345 . S
C318 C319 1.387 . S
C318 C322 1.391 . S
C319 C318 1.387 . S
C319 C320 1.369 . S
C319 H328 0.929 . S
C320 N317 1.346 . S
C320 C319 1.369 . S
C320 H323 0.928 . S
C321 N317 1.345 . S
C321 C322 1.371 . S
C321 H324 0.931 . S
C322 C318 1.391 . S
C322 C321 1.371 . S
C322 H329 0.930 . S
H323 C320 0.928 . S
H324 C321 0.931 . S
H325 C301 0.930 . S
H326 C298 0.930 . S
H327 C307 0.930 . S
H328 C319 0.929 . S
H329 C322 0.930 . S
C330 C331 1.351 . S
C330 N333 1.368 . S
C330 H335 0.931 . S
C331 C330 1.351 . S
C331 N332 1.373 . S
C331 H359 0.930 . S
N332 C331 1.373 . S
N332 C334 1.340 . S
N333 C330 1.368 . S
N333 C334 1.321 . S
N333 Co336 2.135 . S
C334 N332 1.340 . S
C334 N333 1.321 . S
C334 H358 0.930 . S
H335 C330 0.931 . S
Co336 N333 2.135 . S
Co336 N339 2.121 . S
Co336 O344 2.055 . S
Co336 O347 2.039 . S
Co336 N350 2.140 . S
C337 O338 1.227 . S
C337 O347 1.265 . S
O338 C337 1.227 . S
N339 Co336 2.121 . S
N339 C341 1.375 . S
N339 C342 1.313 . S
C340 C341 1.338 . S
C340 N343 1.377 . S
C340 H360 0.930 . S
C341 N339 1.375 . S
C341 C340 1.338 . S
C341 H345 0.931 . S
C342 N339 1.313 . S
C342 N343 1.344 . S
C342 H346 0.930 . S
N343 C340 1.377 . S
N343 C342 1.344 . S
O344 Co336 2.055 . S
O344 C348 1.253 . S
H345 C341 0.931 . S
H346 C342 0.930 . S
O347 Co336 2.039 . S
O347 C337 1.265 . S
C348 O344 1.253 . S
C348 O349 1.227 . S
O349 C348 1.227 . S
N350 Co336 2.140 . S
N350 C353 1.346 . S
N350 C354 1.345 . S
C351 C352 1.387 . S
C351 C355 1.391 . S
C352 C351 1.387 . S
C352 C353 1.369 . S
C352 H361 0.929 . S
C353 N350 1.346 . S
C353 C352 1.369 . S
C353 H356 0.928 . S
C354 N350 1.345 . S
C354 C355 1.371 . S
C354 H357 0.931 . S
C355 C351 1.391 . S
C355 C354 1.371 . S
C355 H362 0.930 . S
H356 C353 0.928 . S
H357 C354 0.931 . S
H358 C334 0.930 . S
H359 C331 0.930 . S
H360 C340 0.930 . S
H361 C352 0.929 . S
H362 C355 0.930 . S
C363 C364 1.351 . S
C363 N366 1.368 . S
C363 H368 0.931 . S
C364 C363 1.351 . S
C364 N365 1.373 . S
C364 H392 0.930 . S
N365 C364 1.373 . S
N365 C367 1.340 . S
N366 C363 1.368 . S
N366 C367 1.321 . S
N366 Co369 2.135 . S
C367 N365 1.340 . S
C367 N366 1.321 . S
C367 H391 0.930 . S
H368 C363 0.931 . S
Co369 N366 2.135 . S
Co369 N372 2.121 . S
Co369 O377 2.055 . S
Co369 O380 2.039 . S
Co369 N383 2.140 . S
C370 O371 1.227 . S
C370 O380 1.265 . S
O371 C370 1.227 . S
N372 Co369 2.121 . S
N372 C374 1.375 . S
N372 C375 1.313 . S
C373 C374 1.338 . S
C373 N376 1.377 . S
C373 H393 0.930 . S
C374 N372 1.375 . S
C374 C373 1.338 . S
C374 H378 0.931 . S
C375 N372 1.313 . S
C375 N376 1.344 . S
C375 H379 0.930 . S
N376 C373 1.377 . S
N376 C375 1.344 . S
O377 Co369 2.055 . S
O377 C381 1.253 . S
H378 C374 0.931 . S
H379 C375 0.930 . S
O380 Co369 2.039 . S
O380 C370 1.265 . S
C381 O377 1.253 . S
C381 O382 1.227 . S
O382 C381 1.227 . S
N383 Co369 2.140 . S
N383 C386 1.346 . S
N383 C387 1.345 . S
C384 C385 1.387 . S
C384 C388 1.391 . S
C385 C384 1.387 . S
C385 C386 1.369 . S
C385 H394 0.929 . S
C386 N383 1.346 . S
C386 C385 1.369 . S
C386 H389 0.928 . S
C387 N383 1.345 . S
C387 C388 1.371 . S
C387 H390 0.931 . S
C388 C384 1.391 . S
C388 C387 1.371 . S
C388 H395 0.930 . S
H389 C386 0.928 . S
H390 C387 0.931 . S
H391 C367 0.930 . S
H392 C364 0.930 . S
H393 C373 0.930 . S
H394 C385 0.929 . S
H395 C388 0.930 . S
C396 C397 1.349 . S
C396 C398 1.327 . S
C396 H421 0.950 . S
C397 C396 1.349 . S
C397 C413 1.349 . S
C398 C396 1.327 . S
C398 C417 1.429 . S
C398 H422 0.950 1_545 S
C399 C416 1.574 1_554 S
C399 C418 1.368 . S
C399 H423 0.949 . S
H400 C404 0.949 . S
C401 C402 1.349 . S
C401 C403 1.327 . S
C401 H424 0.950 . S
C402 C401 1.349 . S
C402 C414 1.349 . S
C403 C401 1.327 . S
C403 C419 1.429 . S
C403 H425 0.950 1_565 S
C404 H400 0.949 . S
C404 C412 1.574 1_556 S
C404 C420 1.368 . S
H405 C413 0.950 . S
H406 C411 0.950 . S
H407 C412 0.949 . S
H408 C414 0.950 . S
H409 C415 0.950 . S
H410 C416 0.949 . S
C411 H406 0.950 . S
C411 C413 1.327 . S
C411 C417 1.429 . S
C412 C404 1.574 1_554 S
C412 H407 0.949 . S
C412 C418 1.368 1_565 S
C413 C397 1.349 . S
C413 H405 0.950 . S
C413 C411 1.327 . S
C414 C402 1.349 . S
C414 H408 0.950 . S
C414 C415 1.327 . S
C415 H409 0.950 . S
C415 C414 1.327 . S
C415 C419 1.429 . S
C416 C399 1.574 1_556 S
C416 H410 0.949 . S
C416 C420 1.368 1_545 S
C417 C398 1.429 . S
C417 C411 1.429 . S
C417 C418 1.523 . S
C418 C399 1.368 . S
C418 C412 1.368 1_545 S
C418 C417 1.523 . S
C419 C403 1.429 . S
C419 C415 1.429 . S
C419 C420 1.523 . S
C420 C404 1.368 . S
C420 C416 1.368 1_565 S
C420 C419 1.523 . S
H421 C396 0.950 . S
H422 C398 0.950 1_565 S
H423 C399 0.949 . S
H424 C401 0.950 . S
H425 C403 0.950 1_545 S
C426 C427 1.349 . S
C426 C428 1.327 . S
C426 H451 0.950 . S
C427 C426 1.349 . S
C427 C443 1.349 . S
C428 C426 1.327 . S
C428 C447 1.429 . S
C428 H452 0.950 . S
C429 C446 1.574 . S
C429 C448 1.368 . S
C429 H453 0.949 . S
H430 C434 0.949 . S
C431 C432 1.349 . S
C431 C433 1.327 . S
C431 H454 0.950 . S
C432 C431 1.349 . S
C432 C444 1.349 . S
C433 C431 1.327 . S
C433 C449 1.429 . S
C433 H455 0.950 . S
C434 H430 0.949 . S
C434 C442 1.574 . S
C434 C450 1.368 . S
H435 C443 0.950 . S
H436 C441 0.950 . S
H437 C442 0.949 . S
H438 C444 0.950 . S
H439 C445 0.950 . S
H440 C446 0.949 . S
C441 H436 0.950 . S
C441 C443 1.327 . S
C441 C447 1.429 . S
C442 C434 1.574 . S
C442 H437 0.949 . S
C442 C448 1.368 . S
C443 C427 1.349 . S
C443 H435 0.950 . S
C443 C441 1.327 . S
C444 C432 1.349 . S
C444 H438 0.950 . S
C444 C445 1.327 . S
C445 H439 0.950 . S
C445 C444 1.327 . S
C445 C449 1.429 . S
C446 C429 1.574 . S
C446 H440 0.949 . S
C446 C450 1.368 . S
C447 C428 1.429 . S
C447 C441 1.429 . S
C447 C448 1.523 . S
C448 C429 1.368 . S
C448 C442 1.368 . S
C448 C447 1.523 . S
C449 C433 1.429 . S
C449 C445 1.429 . S
C449 C450 1.523 . S
C450 C434 1.368 . S
C450 C446 1.368 . S
C450 C449 1.523 . S
H451 C426 0.950 . S
H452 C428 0.950 . S
H453 C429 0.949 . S
H454 C431 0.950 . S
H455 C433 0.950 . S
C456 C457 1.349 . S
C456 C458 1.327 . S
C456 H481 0.950 . S
C457 C456 1.349 . S
C457 C473 1.349 . S
C458 C456 1.327 . S
C458 C477 1.429 . S
C458 H482 0.950 . S
C459 C476 1.574 . S
C459 C478 1.368 1_455 S
C459 H483 0.949 . S
H460 C464 0.949 . S
C461 C462 1.349 . S
C461 C463 1.327 . S
C461 H484 0.950 . S
C462 C461 1.349 . S
C462 C474 1.349 . S
C463 C461 1.327 . S
C463 C479 1.429 . S
C463 H485 0.950 . S
C464 H460 0.949 . S
C464 C472 1.574 . S
C464 C480 1.368 1_655 S
H465 C473 0.950 . S
H466 C471 0.950 . S
H467 C472 0.949 . S
H468 C474 0.950 . S
H469 C475 0.950 . S
H470 C476 0.949 . S
C471 H466 0.950 . S
C471 C473 1.327 . S
C471 C477 1.429 . S
C472 C464 1.574 . S
C472 H467 0.949 . S
C472 C478 1.368 . S
C473 C457 1.349 . S
C473 H465 0.950 . S
C473 C471 1.327 . S
C474 C462 1.349 . S
C474 H468 0.950 . S
C474 C475 1.327 . S
C475 H469 0.950 . S
C475 C474 1.327 . S
C475 C479 1.429 . S
C476 C459 1.574 . S
C476 H470 0.949 . S
C476 C480 1.368 . S
C477 C458 1.429 . S
C477 C471 1.429 . S
C477 C478 1.523 . S
C478 C459 1.368 1_655 S
C478 C472 1.368 . S
C478 C477 1.523 . S
C479 C463 1.429 . S
C479 C475 1.429 . S
C479 C480 1.523 . S
C480 C464 1.368 1_455 S
C480 C476 1.368 . S
C480 C479 1.523 . S
H481 C456 0.950 . S
H482 C458 0.950 . S
H483 C459 0.949 . S
H484 C461 0.950 . S
H485 C463 0.950 . S
C486 C487 1.349 . S
C486 C488 1.327 . S
C486 H511 0.950 . S
C487 C486 1.349 . S
C487 C503 1.349 . S
C488 C486 1.327 . S
C488 C507 1.429 . S
C488 H512 0.950 1_545 S
C489 C506 1.574 1_556 S
C489 C508 1.368 . S
C489 H513 0.949 . S
H490 C494 0.949 . S
C491 C492 1.349 . S
C491 C493 1.327 . S
C491 H514 0.950 . S
C492 C491 1.349 . S
C492 C504 1.349 . S
C493 C491 1.327 . S
C493 C509 1.429 . S
C493 H515 0.950 1_565 S
C494 H490 0.949 . S
C494 C502 1.574 1_554 S
C494 C510 1.368 . S
H495 C503 0.950 . S
H496 C501 0.950 . S
H497 C502 0.949 . S
H498 C504 0.950 . S
H499 C505 0.950 . S
H500 C506 0.949 . S
C501 H496 0.950 . S
C501 C503 1.327 . S
C501 C507 1.429 . S
C502 C494 1.574 1_556 S
C502 H497 0.949 . S
C502 C508 1.368 1_565 S
C503 C487 1.349 . S
C503 H495 0.950 . S
C503 C501 1.327 . S
C504 C492 1.349 . S
C504 H498 0.950 . S
C504 C505 1.327 . S
C505 H499 0.950 . S
C505 C504 1.327 . S
C505 C509 1.429 . S
C506 C489 1.574 1_554 S
C506 H500 0.949 . S
C506 C510 1.368 1_545 S
C507 C488 1.429 . S
C507 C501 1.429 . S
C507 C508 1.523 . S
C508 C489 1.368 . S
C508 C502 1.368 1_545 S
C508 C507 1.523 . S
C509 C493 1.429 . S
C509 C505 1.429 . S
C509 C510 1.523 . S
C510 C494 1.368 . S
C510 C506 1.368 1_565 S
C510 C509 1.523 . S
H511 C486 0.950 . S
H512 C488 0.950 1_565 S
H513 C489 0.949 . S
H514 C491 0.950 . S
H515 C493 0.950 1_545 S
C516 C517 1.349 . S
C516 C518 1.327 . S
C516 H541 0.950 . S
C517 C516 1.349 . S
C517 C533 1.349 . S
C518 C516 1.327 . S
C518 C537 1.429 . S
C518 H542 0.950 . S
C519 C536 1.574 . S
C519 C538 1.368 . S
C519 H543 0.949 . S
H520 C524 0.949 . S
C521 C522 1.349 . S
C521 C523 1.327 . S
C521 H544 0.950 . S
C522 C521 1.349 . S
C522 C534 1.349 . S
C523 C521 1.327 . S
C523 C539 1.429 . S
C523 H545 0.950 . S
C524 H520 0.949 . S
C524 C532 1.574 . S
C524 C540 1.368 . S
H525 C533 0.950 . S
H526 C531 0.950 . S
H527 C532 0.949 . S
H528 C534 0.950 . S
H529 C535 0.950 . S
H530 C536 0.949 . S
C531 H526 0.950 . S
C531 C533 1.327 . S
C531 C537 1.429 . S
C532 C524 1.574 . S
C532 H527 0.949 . S
C532 C538 1.368 . S
C533 C517 1.349 . S
C533 H525 0.950 . S
C533 C531 1.327 . S
C534 C522 1.349 . S
C534 H528 0.950 . S
C534 C535 1.327 . S
C535 H529 0.950 . S
C535 C534 1.327 . S
C535 C539 1.429 . S
C536 C519 1.574 . S
C536 H530 0.949 . S
C536 C540 1.368 . S
C537 C518 1.429 . S
C537 C531 1.429 . S
C537 C538 1.523 . S
C538 C519 1.368 . S
C538 C532 1.368 . S
C538 C537 1.523 . S
C539 C523 1.429 . S
C539 C535 1.429 . S
C539 C540 1.523 . S
C540 C524 1.368 . S
C540 C536 1.368 . S
C540 C539 1.523 . S
H541 C516 0.950 . S
H542 C518 0.950 . S
H543 C519 0.949 . S
H544 C521 0.950 . S
H545 C523 0.950 . S
C546 C547 1.349 . S
C546 C548 1.327 . S
C546 H571 0.950 . S
C547 C546 1.349 . S
C547 C563 1.349 . S
C548 C546 1.327 . S
C548 C567 1.429 . S
C548 H572 0.950 1_455 S
C549 C566 1.574 . S
C549 C568 1.368 . S
C549 H573 0.949 . S
H550 C554 0.949 . S
C551 C552 1.349 . S
C551 C553 1.327 . S
C551 H574 0.950 . S
C552 C551 1.349 . S
C552 C564 1.349 . S
C553 C551 1.327 . S
C553 C569 1.429 . S
C553 H575 0.950 1_655 S
C554 H550 0.949 . S
C554 C562 1.574 . S
C554 C570 1.368 . S
H555 C563 0.950 . S
H556 C561 0.950 . S
H557 C562 0.949 . S
H558 C564 0.950 . S
H559 C565 0.950 . S
H560 C566 0.949 . S
C561 H556 0.950 . S
C561 C563 1.327 . S
C561 C567 1.429 . S
C562 C554 1.574 . S
C562 H557 0.949 . S
C562 C568 1.368 1_655 S
C563 C547 1.349 . S
C563 H555 0.950 . S
C563 C561 1.327 . S
C564 C552 1.349 . S
C564 H558 0.950 . S
C564 C565 1.327 . S
C565 H559 0.950 . S
C565 C564 1.327 . S
C565 C569 1.429 . S
C566 C549 1.574 . S
C566 H560 0.949 . S
C566 C570 1.368 1_455 S
C567 C548 1.429 . S
C567 C561 1.429 . S
C567 C568 1.523 . S
C568 C549 1.368 . S
C568 C562 1.368 1_455 S
C568 C567 1.523 . S
C569 C553 1.429 . S
C569 C565 1.429 . S
C569 C570 1.523 . S
C570 C554 1.368 . S
C570 C566 1.368 1_655 S
C570 C569 1.523 . S
H571 C546 0.950 . S
H572 C548 0.950 1_655 S
H573 C549 0.949 . S
H574 C551 0.950 . S
H575 C553 0.950 1_455 S
C576 C577 1.349 . S
C576 C578 1.327 . S
C576 H601 0.950 . S
C577 C576 1.349 . S
C577 C593 1.349 . S
C578 C576 1.327 . S
C578 C597 1.429 . S
C578 H602 0.950 . S
C579 C596 1.574 . S
C579 C598 1.368 1_545 S
C579 H603 0.949 . S
H580 C584 0.949 . S
C581 C582 1.349 . S
C581 C583 1.327 . S
C581 H604 0.950 . S
C582 C581 1.349 . S
C582 C594 1.349 . S
C583 C581 1.327 . S
C583 C599 1.429 . S
C583 H605 0.950 . S
C584 H580 0.949 . S
C584 C592 1.574 . S
C584 C600 1.368 1_565 S
H585 C593 0.950 . S
H586 C591 0.950 . S
H587 C592 0.949 . S
H588 C594 0.950 . S
H589 C595 0.950 . S
H590 C596 0.949 . S
C591 H586 0.950 . S
C591 C593 1.327 . S
C591 C597 1.429 . S
C592 C584 1.574 . S
C592 H587 0.949 . S
C592 C598 1.368 . S
C593 C577 1.349 . S
C593 H585 0.950 . S
C593 C591 1.327 . S
C594 C582 1.349 . S
C594 H588 0.950 . S
C594 C595 1.327 . S
C595 H589 0.950 . S
C595 C594 1.327 . S
C595 C599 1.429 . S
C596 C579 1.574 . S
C596 H590 0.949 . S
C596 C600 1.368 . S
C597 C578 1.429 . S
C597 C591 1.429 . S
C597 C598 1.523 . S
C598 C579 1.368 1_565 S
C598 C592 1.368 . S
C598 C597 1.523 . S
C599 C583 1.429 . S
C599 C595 1.429 . S
C599 C600 1.523 . S
C600 C584 1.368 1_545 S
C600 C596 1.368 . S
C600 C599 1.523 . S
H601 C576 0.950 . S
H602 C578 0.950 . S
H603 C579 0.949 . S
H604 C581 0.950 . S
H605 C583 0.950 . S
C606 C607 1.349 . S
C606 C608 1.327 . S
C606 H631 0.950 . S
C607 C606 1.349 . S
C607 C623 1.349 . S
C608 C606 1.327 . S
C608 C627 1.429 . S
C608 H632 0.950 . S
C609 C626 1.574 . S
C609 C628 1.368 . S
C609 H633 0.949 . S
H610 C614 0.949 . S
C611 C612 1.349 . S
C611 C613 1.327 . S
C611 H634 0.950 . S
C612 C611 1.349 . S
C612 C624 1.349 . S
C613 C611 1.327 . S
C613 C629 1.429 . S
C613 H635 0.950 . S
C614 H610 0.949 . S
C614 C622 1.574 . S
C614 C630 1.368 . S
H615 C623 0.950 . S
H616 C621 0.950 . S
H617 C622 0.949 . S
H618 C624 0.950 . S
H619 C625 0.950 . S
H620 C626 0.949 . S
C621 H616 0.950 . S
C621 C623 1.327 . S
C621 C627 1.429 . S
C622 C614 1.574 . S
C622 H617 0.949 . S
C622 C628 1.368 . S
C623 C607 1.349 . S
C623 H615 0.950 . S
C623 C621 1.327 . S
C624 C612 1.349 . S
C624 H618 0.950 . S
C624 C625 1.327 . S
C625 H619 0.950 . S
C625 C624 1.327 . S
C625 C629 1.429 . S
C626 C609 1.574 . S
C626 H620 0.949 . S
C626 C630 1.368 . S
C627 C608 1.429 . S
C627 C621 1.429 . S
C627 C628 1.523 . S
C628 C609 1.368 . S
C628 C622 1.368 . S
C628 C627 1.523 . S
C629 C613 1.429 . S
C629 C625 1.429 . S
C629 C630 1.523 . S
C630 C614 1.368 . S
C630 C626 1.368 . S
C630 C629 1.523 . S
H631 C606 0.950 . S
H632 C608 0.950 . S
H633 C609 0.949 . S
H634 C611 0.950 . S
H635 C613 0.950 . S
C636 C637 1.349 . S
C636 C638 1.327 . S
C636 H661 0.950 . S
C637 C636 1.349 . S
C637 C653 1.349 . S
C638 C636 1.327 . S
C638 C657 1.429 . S
C638 H662 0.950 . S
C639 C656 1.574 . S
C639 C658 1.368 . S
C639 H663 0.949 . S
H640 C644 0.949 . S
C641 C642 1.349 . S
C641 C643 1.327 . S
C641 H664 0.950 . S
C642 C641 1.349 . S
C642 C654 1.349 . S
C643 C641 1.327 . S
C643 C659 1.429 . S
C643 H665 0.950 . S
C644 H640 0.949 . S
C644 C652 1.574 . S
C644 C660 1.368 . S
H645 C653 0.950 . S
H646 C651 0.950 . S
H647 C652 0.949 . S
H648 C654 0.950 . S
H649 C655 0.950 . S
H650 C656 0.949 . S
C651 H646 0.950 . S
C651 C653 1.327 . S
C651 C657 1.429 . S
C652 C644 1.574 . S
C652 H647 0.949 . S
C652 C658 1.368 1_655 S
C653 C637 1.349 . S
C653 H645 0.950 . S
C653 C651 1.327 . S
C654 C642 1.349 . S
C654 H648 0.950 . S
C654 C655 1.327 . S
C655 H649 0.950 . S
C655 C654 1.327 . S
C655 C659 1.429 . S
C656 C639 1.574 . S
C656 H650 0.949 . S
C656 C660 1.368 1_455 S
C657 C638 1.429 . S
C657 C651 1.429 . S
C657 C658 1.523 . S
C658 C639 1.368 . S
C658 C652 1.368 1_455 S
C658 C657 1.523 . S
C659 C643 1.429 . S
C659 C655 1.429 . S
C659 C660 1.523 . S
C660 C644 1.368 . S
C660 C656 1.368 1_655 S
C660 C659 1.523 . S
H661 C636 0.950 . S
H662 C638 0.950 . S
H663 C639 0.949 . S
H664 C641 0.950 . S
H665 C643 0.950 . S
C666 C667 1.349 . S
C666 C668 1.327 . S
C666 H691 0.950 . S
C667 C666 1.349 . S
C667 C683 1.349 . S
C668 C666 1.327 . S
C668 C687 1.429 . S
C668 H692 0.950 . S
C669 C686 1.574 . S
C669 C688 1.368 . S
C669 H693 0.949 . S
H670 C674 0.949 . S
C671 C672 1.349 . S
C671 C673 1.327 . S
C671 H694 0.950 . S
C672 C671 1.349 . S
C672 C684 1.349 . S
C673 C671 1.327 . S
C673 C689 1.429 . S
C673 H695 0.950 . S
C674 H670 0.949 . S
C674 C682 1.574 . S
C674 C690 1.368 . S
H675 C683 0.950 . S
H676 C681 0.950 . S
H677 C682 0.949 . S
H678 C684 0.950 . S
H679 C685 0.950 . S
H680 C686 0.949 . S
C681 H676 0.950 . S
C681 C683 1.327 . S
C681 C687 1.429 . S
C682 C674 1.574 . S
C682 H677 0.949 . S
C682 C688 1.368 1_655 S
C683 C667 1.349 . S
C683 H675 0.950 . S
C683 C681 1.327 . S
C684 C672 1.349 . S
C684 H678 0.950 . S
C684 C685 1.327 . S
C685 H679 0.950 . S
C685 C684 1.327 . S
C685 C689 1.429 . S
C686 C669 1.574 . S
C686 H680 0.949 . S
C686 C690 1.368 1_455 S
C687 C668 1.429 . S
C687 C681 1.429 . S
C687 C688 1.523 . S
C688 C669 1.368 . S
C688 C682 1.368 1_455 S
C688 C687 1.523 . S
C689 C673 1.429 . S
C689 C685 1.429 . S
C689 C690 1.523 . S
C690 C674 1.368 . S
C690 C686 1.368 1_655 S
C690 C689 1.523 . S
H691 C666 0.950 . S
H692 C668 0.950 . S
H693 C669 0.949 . S
H694 C671 0.950 . S
H695 C673 0.950 . S
C696 C697 1.349 . S
C696 C698 1.327 . S
C696 H721 0.950 . S
C697 C696 1.349 . S
C697 C713 1.349 . S
C698 C696 1.327 . S
C698 C717 1.429 . S
C698 H722 0.950 . S
C699 C716 1.574 . S
C699 C718 1.368 . S
C699 H723 0.949 . S
H700 C704 0.949 . S
C701 C702 1.349 . S
C701 C703 1.327 . S
C701 H724 0.950 . S
C702 C701 1.349 . S
C702 C714 1.349 . S
C703 C701 1.327 . S
C703 C719 1.429 . S
C703 H725 0.950 . S
C704 H700 0.949 . S
C704 C712 1.574 . S
C704 C720 1.368 . S
H705 C713 0.950 . S
H706 C711 0.950 . S
H707 C712 0.949 . S
H708 C714 0.950 . S
H709 C715 0.950 . S
H710 C716 0.949 . S
C711 H706 0.950 . S
C711 C713 1.327 . S
C711 C717 1.429 . S
C712 C704 1.574 . S
C712 H707 0.949 . S
C712 C718 1.368 1_565 S
C713 C697 1.349 . S
C713 H705 0.950 . S
C713 C711 1.327 . S
C714 C702 1.349 . S
C714 H708 0.950 . S
C714 C715 1.327 . S
C715 H709 0.950 . S
C715 C714 1.327 . S
C715 C719 1.429 . S
C716 C699 1.574 . S
C716 H710 0.949 . S
C716 C720 1.368 1_545 S
C717 C698 1.429 . S
C717 C711 1.429 . S
C717 C718 1.523 . S
C718 C699 1.368 . S
C718 C712 1.368 1_545 S
C718 C717 1.523 . S
C719 C703 1.429 . S
C719 C715 1.429 . S
C719 C720 1.523 . S
C720 C704 1.368 . S
C720 C716 1.368 1_565 S
C720 C719 1.523 . S
H721 C696 0.950 . S
H722 C698 0.950 . S
H723 C699 0.949 . S
H724 C701 0.950 . S
H725 C703 0.950 . S
C726 C727 1.349 . S
C726 C728 1.327 . S
C726 H751 0.950 . S
C727 C726 1.349 . S
C727 C743 1.349 . S
C728 C726 1.327 . S
C728 C747 1.429 . S
C728 H752 0.950 . S
C729 C746 1.574 . S
C729 C748 1.368 . S
C729 H753 0.949 . S
H730 C734 0.949 . S
C731 C732 1.349 . S
C731 C733 1.327 . S
C731 H754 0.950 . S
C732 C731 1.349 . S
C732 C744 1.349 . S
C733 C731 1.327 . S
C733 C749 1.429 . S
C733 H755 0.950 . S
C734 H730 0.949 . S
C734 C742 1.574 . S
C734 C750 1.368 . S
H735 C743 0.950 . S
H736 C741 0.950 . S
H737 C742 0.949 . S
H738 C744 0.950 . S
H739 C745 0.950 . S
H740 C746 0.949 . S
C741 H736 0.950 . S
C741 C743 1.327 . S
C741 C747 1.429 . S
C742 C734 1.574 . S
C742 H737 0.949 . S
C742 C748 1.368 . S
C743 C727 1.349 . S
C743 H735 0.950 . S
C743 C741 1.327 . S
C744 C732 1.349 . S
C744 H738 0.950 . S
C744 C745 1.327 . S
C745 H739 0.950 . S
C745 C744 1.327 . S
C745 C749 1.429 . S
C746 C729 1.574 . S
C746 H740 0.949 . S
C746 C750 1.368 . S
C747 C728 1.429 . S
C747 C741 1.429 . S
C747 C748 1.523 . S
C748 C729 1.368 . S
C748 C742 1.368 . S
C748 C747 1.523 . S
C749 C733 1.429 . S
C749 C745 1.429 . S
C749 C750 1.523 . S
C750 C734 1.368 . S
C750 C746 1.368 . S
C750 C749 1.523 . S
H751 C726 0.950 . S
H752 C728 0.950 . S
H753 C729 0.949 . S
H754 C731 0.950 . S
H755 C733 0.950 . S
C756 C757 1.349 . S
C756 C758 1.327 . S
C756 H781 0.950 . S
C757 C756 1.349 . S
C757 C773 1.349 . S
C758 C756 1.327 . S
C758 C777 1.429 . S
C758 H782 0.950 . S
C759 C776 1.574 . S
C759 C778 1.368 . S
C759 H783 0.949 . S
H760 C764 0.949 . S
C761 C762 1.349 . S
C761 C763 1.327 . S
C761 H784 0.950 . S
C762 C761 1.349 . S
C762 C774 1.349 . S
C763 C761 1.327 . S
C763 C779 1.429 . S
C763 H785 0.950 . S
C764 H760 0.949 . S
C764 C772 1.574 . S
C764 C780 1.368 . S
H765 C773 0.950 . S
H766 C771 0.950 . S
H767 C772 0.949 . S
H768 C774 0.950 . S
H769 C775 0.950 . S
H770 C776 0.949 . S
C771 H766 0.950 . S
C771 C773 1.327 . S
C771 C777 1.429 . S
C772 C764 1.574 . S
C772 H767 0.949 . S
C772 C778 1.368 . S
C773 C757 1.349 . S
C773 H765 0.950 . S
C773 C771 1.327 . S
C774 C762 1.349 . S
C774 H768 0.950 . S
C774 C775 1.327 . S
C775 H769 0.950 . S
C775 C774 1.327 . S
C775 C779 1.429 . S
C776 C759 1.574 . S
C776 H770 0.949 . S
C776 C780 1.368 . S
C777 C758 1.429 . S
C777 C771 1.429 . S
C777 C778 1.523 . S
C778 C759 1.368 . S
C778 C772 1.368 . S
C778 C777 1.523 . S
C779 C763 1.429 . S
C779 C775 1.429 . S
C779 C780 1.523 . S
C780 C764 1.368 . S
C780 C776 1.368 . S
C780 C779 1.523 . S
H781 C756 0.950 . S
H782 C758 0.950 . S
H783 C759 0.949 . S
H784 C761 0.950 . S
H785 C763 0.950 . S
C786 C787 1.349 . S
C786 C788 1.327 . S
C786 H811 0.950 . S
C787 C786 1.349 . S
C787 C803 1.349 . S
C788 C786 1.327 . S
C788 C807 1.429 . S
C788 H812 0.950 . S
C789 C806 1.574 . S
C789 C808 1.368 . S
C789 H813 0.949 . S
H790 C794 0.949 . S
C791 C792 1.349 . S
C791 C793 1.327 . S
C791 H814 0.950 . S
C792 C791 1.349 . S
C792 C804 1.349 . S
C793 C791 1.327 . S
C793 C809 1.429 . S
C793 H815 0.950 . S
C794 H790 0.949 . S
C794 C802 1.574 . S
C794 C810 1.368 . S
H795 C803 0.950 . S
H796 C801 0.950 . S
H797 C802 0.949 . S
H798 C804 0.950 . S
H799 C805 0.950 . S
H800 C806 0.949 . S
C801 H796 0.950 . S
C801 C803 1.327 . S
C801 C807 1.429 . S
C802 C794 1.574 . S
C802 H797 0.949 . S
C802 C808 1.368 . S
C803 C787 1.349 . S
C803 H795 0.950 . S
C803 C801 1.327 . S
C804 C792 1.349 . S
C804 H798 0.950 . S
C804 C805 1.327 . S
C805 H799 0.950 . S
C805 C804 1.327 . S
C805 C809 1.429 . S
C806 C789 1.574 . S
C806 H800 0.949 . S
C806 C810 1.368 . S
C807 C788 1.429 . S
C807 C801 1.429 . S
C807 C808 1.523 . S
C808 C789 1.368 . S
C808 C802 1.368 . S
C808 C807 1.523 . S
C809 C793 1.429 . S
C809 C805 1.429 . S
C809 C810 1.523 . S
C810 C794 1.368 . S
C810 C806 1.368 . S
C810 C809 1.523 . S
H811 C786 0.950 . S
H812 C788 0.950 . S
H813 C789 0.949 . S
H814 C791 0.950 . S
H815 C793 0.950 . S
C816 C817 1.349 . S
C816 C818 1.327 . S
C816 H841 0.950 . S
C817 C816 1.349 . S
C817 C833 1.349 . S
C818 C816 1.327 . S
C818 C837 1.429 . S
C818 H842 0.950 . S
C819 C836 1.574 . S
C819 C838 1.368 . S
C819 H843 0.949 . S
H820 C824 0.949 . S
C821 C822 1.349 . S
C821 C823 1.327 . S
C821 H844 0.950 . S
C822 C821 1.349 . S
C822 C834 1.349 . S
C823 C821 1.327 . S
C823 C839 1.429 . S
C823 H845 0.950 . S
C824 H820 0.949 . S
C824 C832 1.574 . S
C824 C840 1.368 . S
H825 C833 0.950 . S
H826 C831 0.950 . S
H827 C832 0.949 . S
H828 C834 0.950 . S
H829 C835 0.950 . S
H830 C836 0.949 . S
C831 H826 0.950 . S
C831 C833 1.327 . S
C831 C837 1.429 . S
C832 C824 1.574 . S
C832 H827 0.949 . S
C832 C838 1.368 . S
C833 C817 1.349 . S
C833 H825 0.950 . S
C833 C831 1.327 . S
C834 C822 1.349 . S
C834 H828 0.950 . S
C834 C835 1.327 . S
C835 H829 0.950 . S
C835 C834 1.327 . S
C835 C839 1.429 . S
C836 C819 1.574 . S
C836 H830 0.949 . S
C836 C840 1.368 . S
C837 C818 1.429 . S
C837 C831 1.429 . S
C837 C838 1.523 . S
C838 C819 1.368 . S
C838 C832 1.368 . S
C838 C837 1.523 . S
C839 C823 1.429 . S
C839 C835 1.429 . S
C839 C840 1.523 . S
C840 C824 1.368 . S
C840 C836 1.368 . S
C840 C839 1.523 . S
H841 C816 0.950 . S
H842 C818 0.950 . S
H843 C819 0.949 . S
H844 C821 0.950 . S
H845 C823 0.950 . S
C846 C847 1.349 . S
C846 C848 1.327 . S
C846 H871 0.950 . S
C847 C846 1.349 . S
C847 C863 1.349 . S
C848 C846 1.327 . S
C848 C867 1.429 . S
C848 H872 0.950 . S
C849 C866 1.574 . S
C849 C868 1.368 . S
C849 H873 0.949 . S
H850 C854 0.949 . S
C851 C852 1.349 . S
C851 C853 1.327 . S
C851 H874 0.950 . S
C852 C851 1.349 . S
C852 C864 1.349 . S
C853 C851 1.327 . S
C853 C869 1.429 . S
C853 H875 0.950 . S
C854 H850 0.949 . S
C854 C862 1.574 . S
C854 C870 1.368 . S
H855 C863 0.950 . S
H856 C861 0.950 . S
H857 C862 0.949 . S
H858 C864 0.950 . S
H859 C865 0.950 . S
H860 C866 0.949 . S
C861 H856 0.950 . S
C861 C863 1.327 . S
C861 C867 1.429 . S
C862 C854 1.574 . S
C862 H857 0.949 . S
C862 C868 1.368 . S
C863 C847 1.349 . S
C863 H855 0.950 . S
C863 C861 1.327 . S
C864 C852 1.349 . S
C864 H858 0.950 . S
C864 C865 1.327 . S
C865 H859 0.950 . S
C865 C864 1.327 . S
C865 C869 1.429 . S
C866 C849 1.574 . S
C866 H860 0.949 . S
C866 C870 1.368 . S
C867 C848 1.429 . S
C867 C861 1.429 . S
C867 C868 1.523 . S
C868 C849 1.368 . S
C868 C862 1.368 . S
C868 C867 1.523 . S
C869 C853 1.429 . S
C869 C865 1.429 . S
C869 C870 1.523 . S
C870 C854 1.368 . S
C870 C866 1.368 . S
C870 C869 1.523 . S
H871 C846 0.950 . S
H872 C848 0.950 . S
H873 C849 0.949 . S
H874 C851 0.950 . S
H875 C853 0.950 . S
C876 C877 1.349 . S
C876 C878 1.327 . S
C876 H901 0.950 . S
C877 C876 1.349 . S
C877 C893 1.349 . S
C878 C876 1.327 . S
C878 C897 1.429 . S
C878 H902 0.950 . S
C879 C896 1.574 . S
C879 C898 1.368 . S
C879 H903 0.949 . S
H880 C884 0.949 . S
C881 C882 1.349 . S
C881 C883 1.327 . S
C881 H904 0.950 . S
C882 C881 1.349 . S
C882 C894 1.349 . S
C883 C881 1.327 . S
C883 C899 1.429 . S
C883 H905 0.950 . S
C884 H880 0.949 . S
C884 C892 1.574 . S
C884 C900 1.368 . S
H885 C893 0.950 . S
H886 C891 0.950 . S
H887 C892 0.949 . S
H888 C894 0.950 . S
H889 C895 0.950 . S
H890 C896 0.949 . S
C891 H886 0.950 . S
C891 C893 1.327 . S
C891 C897 1.429 . S
C892 C884 1.574 . S
C892 H887 0.949 . S
C892 C898 1.368 . S
C893 C877 1.349 . S
C893 H885 0.950 . S
C893 C891 1.327 . S
C894 C882 1.349 . S
C894 H888 0.950 . S
C894 C895 1.327 . S
C895 H889 0.950 . S
C895 C894 1.327 . S
C895 C899 1.429 . S
C896 C879 1.574 . S
C896 H890 0.949 . S
C896 C900 1.368 . S
C897 C878 1.429 . S
C897 C891 1.429 . S
C897 C898 1.523 . S
C898 C879 1.368 . S
C898 C892 1.368 . S
C898 C897 1.523 . S
C899 C883 1.429 . S
C899 C895 1.429 . S
C899 C900 1.523 . S
C900 C884 1.368 . S
C900 C896 1.368 . S
C900 C899 1.523 . S
H901 C876 0.950 . S
H902 C878 0.950 . S
H903 C879 0.949 . S
H904 C881 0.950 . S
H905 C883 0.950 . S
C906 C907 1.349 . S
C906 C908 1.327 . S
C906 H931 0.950 . S
C907 C906 1.349 . S
C907 C923 1.349 . S
C908 C906 1.327 . S
C908 C927 1.429 . S
C908 H932 0.950 . S
C909 C926 1.574 . S
C909 C928 1.368 . S
C909 H933 0.949 . S
H910 C914 0.949 . S
C911 C912 1.349 . S
C911 C913 1.327 . S
C911 H934 0.950 . S
C912 C911 1.349 . S
C912 C924 1.349 . S
C913 C911 1.327 . S
C913 C929 1.429 . S
C913 H935 0.950 . S
C914 H910 0.949 . S
C914 C922 1.574 . S
C914 C930 1.368 . S
H915 C923 0.950 . S
H916 C921 0.950 . S
H917 C922 0.949 . S
H918 C924 0.950 . S
H919 C925 0.950 . S
H920 C926 0.949 . S
C921 H916 0.950 . S
C921 C923 1.327 . S
C921 C927 1.429 . S
C922 C914 1.574 . S
C922 H917 0.949 . S
C922 C928 1.368 . S
C923 C907 1.349 . S
C923 H915 0.950 . S
C923 C921 1.327 . S
C924 C912 1.349 . S
C924 H918 0.950 . S
C924 C925 1.327 . S
C925 H919 0.950 . S
C925 C924 1.327 . S
C925 C929 1.429 . S
C926 C909 1.574 . S
C926 H920 0.949 . S
C926 C930 1.368 . S
C927 C908 1.429 . S
C927 C921 1.429 . S
C927 C928 1.523 . S
C928 C909 1.368 . S
C928 C922 1.368 . S
C928 C927 1.523 . S
C929 C913 1.429 . S
C929 C925 1.429 . S
C929 C930 1.523 . S
C930 C914 1.368 . S
C930 C926 1.368 . S
C930 C929 1.523 . S
H931 C906 0.950 . S
H932 C908 0.950 . S
H933 C909 0.949 . S
H934 C911 0.950 . S
H935 C913 0.950 . S
C936 C937 1.349 . S
C936 C938 1.327 . S
C936 H961 0.950 . S
C937 C936 1.349 . S
C937 C953 1.349 . S
C938 C936 1.327 . S
C938 C957 1.429 . S
C938 H962 0.950 . S
C939 C956 1.574 . S
C939 C958 1.368 . S
C939 H963 0.949 . S
H940 C944 0.949 . S
C941 C942 1.349 . S
C941 C943 1.327 . S
C941 H964 0.950 . S
C942 C941 1.349 . S
C942 C954 1.349 . S
C943 C941 1.327 . S
C943 C959 1.429 . S
C943 H965 0.950 . S
C944 H940 0.949 . S
C944 C952 1.574 . S
C944 C960 1.368 . S
H945 C953 0.950 . S
H946 C951 0.950 . S
H947 C952 0.949 . S
H948 C954 0.950 . S
H949 C955 0.950 . S
H950 C956 0.949 . S
C951 H946 0.950 . S
C951 C953 1.327 . S
C951 C957 1.429 . S
C952 C944 1.574 . S
C952 H947 0.949 . S
C952 C958 1.368 . S
C953 C937 1.349 . S
C953 H945 0.950 . S
C953 C951 1.327 . S
C954 C942 1.349 . S
C954 H948 0.950 . S
C954 C955 1.327 . S
C955 H949 0.950 . S
C955 C954 1.327 . S
C955 C959 1.429 . S
C956 C939 1.574 . S
C956 H950 0.949 . S
C956 C960 1.368 . S
C957 C938 1.429 . S
C957 C951 1.429 . S
C957 C958 1.523 . S
C958 C939 1.368 . S
C958 C952 1.368 . S
C958 C957 1.523 . S
C959 C943 1.429 . S
C959 C955 1.429 . S
C959 C960 1.523 . S
C960 C944 1.368 . S
C960 C956 1.368 . S
C960 C959 1.523 . S
H961 C936 0.950 . S
H962 C938 0.950 . S
H963 C939 0.949 . S
H964 C941 0.950 . S
H965 C943 0.950 . S
C966 C967 1.349 . S
C966 C968 1.327 . S
C966 H991 0.950 . S
C967 C966 1.349 . S
C967 C983 1.349 . S
C968 C966 1.327 . S
C968 C987 1.429 . S
C968 H992 0.950 . S
C969 C986 1.574 . S
C969 C988 1.368 . S
C969 H993 0.949 . S
H970 C974 0.949 . S
C971 C972 1.349 . S
C971 C973 1.327 . S
C971 H994 0.950 . S
C972 C971 1.349 . S
C972 C984 1.349 . S
C973 C971 1.327 . S
C973 C989 1.429 . S
C973 H995 0.950 . S
C974 H970 0.949 . S
C974 C982 1.574 . S
C974 C990 1.368 . S
H975 C983 0.950 . S
H976 C981 0.950 . S
H977 C982 0.949 . S
H978 C984 0.950 . S
H979 C985 0.950 . S
H980 C986 0.949 . S
C981 H976 0.950 . S
C981 C983 1.327 . S
C981 C987 1.429 . S
C982 C974 1.574 . S
C982 H977 0.949 . S
C982 C988 1.368 1_655 S
C983 C967 1.349 . S
C983 H975 0.950 . S
C983 C981 1.327 . S
C984 C972 1.349 . S
C984 H978 0.950 . S
C984 C985 1.327 . S
C985 H979 0.950 . S
C985 C984 1.327 . S
C985 C989 1.429 . S
C986 C969 1.574 . S
C986 H980 0.949 . S
C986 C990 1.368 1_455 S
C987 C968 1.429 . S
C987 C981 1.429 . S
C987 C988 1.523 . S
C988 C969 1.368 . S
C988 C982 1.368 1_455 S
C988 C987 1.523 . S
C989 C973 1.429 . S
C989 C985 1.429 . S
C989 C990 1.523 . S
C990 C974 1.368 . S
C990 C986 1.368 1_655 S
C990 C989 1.523 . S
H991 C966 0.950 . S
H992 C968 0.950 . S
H993 C969 0.949 . S
H994 C971 0.950 . S
H995 C973 0.950 . S
C996 C997 1.349 . S
C996 C998 1.327 . S
C996 H1021 0.950 . S
C997 C996 1.349 . S
C997 C1013 1.349 . S
C998 C996 1.327 . S
C998 C1017 1.429 . S
C998 H1022 0.950 . S
C999 C1016 1.574 . S
C999 C1018 1.368 . S
C999 H1023 0.949 . S
H1000 C1004 0.949 . S
C1001 C1002 1.349 . S
C1001 C1003 1.327 . S
C1001 H1024 0.950 . S
C1002 C1001 1.349 . S
C1002 C1014 1.349 . S
C1003 C1001 1.327 . S
C1003 C1019 1.429 . S
C1003 H1025 0.950 . S
C1004 H1000 0.949 . S
C1004 C1012 1.574 . S
C1004 C1020 1.368 . S
H1005 C1013 0.950 . S
H1006 C1011 0.950 . S
H1007 C1012 0.949 . S
H1008 C1014 0.950 . S
H1009 C1015 0.950 . S
H1010 C1016 0.949 . S
C1011 H1006 0.950 . S
C1011 C1013 1.327 . S
C1011 C1017 1.429 . S
C1012 C1004 1.574 . S
C1012 H1007 0.949 . S
C1012 C1018 1.368 1_545 S
C1013 C997 1.349 . S
C1013 H1005 0.950 . S
C1013 C1011 1.327 . S
C1014 C1002 1.349 . S
C1014 H1008 0.950 . S
C1014 C1015 1.327 . S
C1015 H1009 0.950 . S
C1015 C1014 1.327 . S
C1015 C1019 1.429 . S
C1016 C999 1.574 . S
C1016 H1010 0.949 . S
C1016 C1020 1.368 1_565 S
C1017 C998 1.429 . S
C1017 C1011 1.429 . S
C1017 C1018 1.523 . S
C1018 C999 1.368 . S
C1018 C1012 1.368 1_565 S
C1018 C1017 1.523 . S
C1019 C1003 1.429 . S
C1019 C1015 1.429 . S
C1019 C1020 1.523 . S
C1020 C1004 1.368 . S
C1020 C1016 1.368 1_545 S
C1020 C1019 1.523 . S
H1021 C996 0.950 . S
H1022 C998 0.950 . S
H1023 C999 0.949 . S
H1024 C1001 0.950 . S
H1025 C1003 0.950 . S
C1026 C1027 1.349 . S
C1026 C1028 1.327 . S
C1026 H1051 0.950 . S
C1027 C1026 1.349 . S
C1027 C1043 1.349 . S
C1028 C1026 1.327 . S
C1028 C1047 1.429 . S
C1028 H1052 0.950 . S
C1029 C1046 1.574 . S
C1029 C1048 1.368 . S
C1029 H1053 0.949 . S
H1030 C1034 0.949 . S
C1031 C1032 1.349 . S
C1031 C1033 1.327 . S
C1031 H1054 0.950 . S
C1032 C1031 1.349 . S
C1032 C1044 1.349 . S
C1033 C1031 1.327 . S
C1033 C1049 1.429 . S
C1033 H1055 0.950 . S
C1034 H1030 0.949 . S
C1034 C1042 1.574 . S
C1034 C1050 1.368 . S
H1035 C1043 0.950 . S
H1036 C1041 0.950 . S
H1037 C1042 0.949 . S
H1038 C1044 0.950 . S
H1039 C1045 0.950 . S
H1040 C1046 0.949 . S
C1041 H1036 0.950 . S
C1041 C1043 1.327 . S
C1041 C1047 1.429 . S
C1042 C1034 1.574 . S
C1042 H1037 0.949 . S
C1042 C1048 1.368 . S
C1043 C1027 1.349 . S
C1043 H1035 0.950 . S
C1043 C1041 1.327 . S
C1044 C1032 1.349 . S
C1044 H1038 0.950 . S
C1044 C1045 1.327 . S
C1045 H1039 0.950 . S
C1045 C1044 1.327 . S
C1045 C1049 1.429 . S
C1046 C1029 1.574 . S
C1046 H1040 0.949 . S
C1046 C1050 1.368 . S
C1047 C1028 1.429 . S
C1047 C1041 1.429 . S
C1047 C1048 1.523 . S
C1048 C1029 1.368 . S
C1048 C1042 1.368 . S
C1048 C1047 1.523 . S
C1049 C1033 1.429 . S
C1049 C1045 1.429 . S
C1049 C1050 1.523 . S
C1050 C1034 1.368 . S
C1050 C1046 1.368 . S
C1050 C1049 1.523 . S
H1051 C1026 0.950 . S
H1052 C1028 0.950 . S
H1053 C1029 0.949 . S
H1054 C1031 0.950 . S
H1055 C1033 0.950 . S
C1056 C1057 1.349 . S
C1056 C1058 1.327 . S
C1056 H1081 0.950 . S
C1057 C1056 1.349 . S
C1057 C1073 1.349 . S
C1058 C1056 1.327 . S
C1058 C1077 1.429 . S
C1058 H1082 0.950 . S
C1059 C1076 1.574 . S
C1059 C1078 1.368 . S
C1059 H1083 0.949 . S
H1060 C1064 0.949 . S
C1061 C1062 1.349 . S
C1061 C1063 1.327 . S
C1061 H1084 0.950 . S
C1062 C1061 1.349 . S
C1062 C1074 1.349 . S
C1063 C1061 1.327 . S
C1063 C1079 1.429 . S
C1063 H1085 0.950 . S
C1064 H1060 0.949 . S
C1064 C1072 1.574 . S
C1064 C1080 1.368 . S
H1065 C1073 0.950 . S
H1066 C1071 0.950 . S
H1067 C1072 0.949 . S
H1068 C1074 0.950 . S
H1069 C1075 0.950 . S
H1070 C1076 0.949 . S
C1071 H1066 0.950 . S
C1071 C1073 1.327 . S
C1071 C1077 1.429 . S
C1072 C1064 1.574 . S
C1072 H1067 0.949 . S
C1072 C1078 1.368 1_655 S
C1073 C1057 1.349 . S
C1073 H1065 0.950 . S
C1073 C1071 1.327 . S
C1074 C1062 1.349 . S
C1074 H1068 0.950 . S
C1074 C1075 1.327 . S
C1075 H1069 0.950 . S
C1075 C1074 1.327 . S
C1075 C1079 1.429 . S
C1076 C1059 1.574 . S
C1076 H1070 0.949 . S
C1076 C1080 1.368 1_455 S
C1077 C1058 1.429 . S
C1077 C1071 1.429 . S
C1077 C1078 1.523 . S
C1078 C1059 1.368 . S
C1078 C1072 1.368 1_455 S
C1078 C1077 1.523 . S
C1079 C1063 1.429 . S
C1079 C1075 1.429 . S
C1079 C1080 1.523 . S
C1080 C1064 1.368 . S
C1080 C1076 1.368 1_655 S
C1080 C1079 1.523 . S
H1081 C1056 0.950 . S
H1082 C1058 0.950 . S
H1083 C1059 0.949 . S
H1084 C1061 0.950 . S
H1085 C1063 0.950 . S
C1086 C1087 1.349 . S
C1086 C1088 1.327 . S
C1086 H1111 0.950 . S
C1087 C1086 1.349 . S
C1087 C1103 1.349 . S
C1088 C1086 1.327 . S
C1088 C1107 1.429 . S
C1088 H1112 0.950 . S
C1089 C1106 1.574 . S
C1089 C1108 1.368 1_545 S
C1089 H1113 0.949 . S
H1090 C1094 0.949 . S
C1091 C1092 1.349 . S
C1091 C1093 1.327 . S
C1091 H1114 0.950 . S
C1092 C1091 1.349 . S
C1092 C1104 1.349 . S
C1093 C1091 1.327 . S
C1093 C1109 1.429 . S
C1093 H1115 0.950 . S
C1094 H1090 0.949 . S
C1094 C1102 1.574 . S
C1094 C1110 1.368 1_565 S
H1095 C1103 0.950 . S
H1096 C1101 0.950 . S
H1097 C1102 0.949 . S
H1098 C1104 0.950 . S
H1099 C1105 0.950 . S
H1100 C1106 0.949 . S
C1101 H1096 0.950 . S
C1101 C1103 1.327 . S
C1101 C1107 1.429 . S
C1102 C1094 1.574 . S
C1102 H1097 0.949 . S
C1102 C1108 1.368 . S
C1103 C1087 1.349 . S
C1103 H1095 0.950 . S
C1103 C1101 1.327 . S
C1104 C1092 1.349 . S
C1104 H1098 0.950 . S
C1104 C1105 1.327 . S
C1105 H1099 0.950 . S
C1105 C1104 1.327 . S
C1105 C1109 1.429 . S
C1106 C1089 1.574 . S
C1106 H1100 0.949 . S
C1106 C1110 1.368 . S
C1107 C1088 1.429 . S
C1107 C1101 1.429 . S
C1107 C1108 1.523 . S
C1108 C1089 1.368 1_565 S
C1108 C1102 1.368 . S
C1108 C1107 1.523 . S
C1109 C1093 1.429 . S
C1109 C1105 1.429 . S
C1109 C1110 1.523 . S
C1110 C1094 1.368 1_545 S
C1110 C1106 1.368 . S
C1110 C1109 1.523 . S
H1111 C1086 0.950 . S
H1112 C1088 0.950 . S
H1113 C1089 0.949 . S
H1114 C1091 0.950 . S
H1115 C1093 0.950 . S
C1116 C1117 1.349 . S
C1116 C1118 1.327 . S
C1116 H1141 0.950 . S
C1117 C1116 1.349 . S
C1117 C1133 1.349 . S
C1118 C1116 1.327 . S
C1118 C1137 1.429 . S
C1118 H1142 0.950 . S
C1119 C1136 1.574 1_455 S
C1119 C1138 1.368 . S
C1119 H1143 0.949 . S
H1120 C1124 0.949 . S
C1121 C1122 1.349 . S
C1121 C1123 1.327 . S
C1121 H1144 0.950 . S
C1122 C1121 1.349 . S
C1122 C1134 1.349 . S
C1123 C1121 1.327 . S
C1123 C1139 1.429 . S
C1123 H1145 0.950 . S
C1124 H1120 0.949 . S
C1124 C1132 1.574 1_655 S
C1124 C1140 1.368 . S
H1125 C1133 0.950 . S
H1126 C1131 0.950 . S
H1127 C1132 0.949 . S
H1128 C1134 0.950 . S
H1129 C1135 0.950 . S
H1130 C1136 0.949 . S
C1131 H1126 0.950 . S
C1131 C1133 1.327 . S
C1131 C1137 1.429 . S
C1132 C1124 1.574 1_455 S
C1132 H1127 0.949 . S
C1132 C1138 1.368 1_565 S
C1133 C1117 1.349 . S
C1133 H1125 0.950 . S
C1133 C1131 1.327 . S
C1134 C1122 1.349 . S
C1134 H1128 0.950 . S
C1134 C1135 1.327 . S
C1135 H1129 0.950 . S
C1135 C1134 1.327 . S
C1135 C1139 1.429 . S
C1136 C1119 1.574 1_655 S
C1136 H1130 0.949 . S
C1136 C1140 1.368 1_545 S
C1137 C1118 1.429 . S
C1137 C1131 1.429 . S
C1137 C1138 1.523 . S
C1138 C1119 1.368 . S
C1138 C1132 1.368 1_545 S
C1138 C1137 1.523 . S
C1139 C1123 1.429 . S
C1139 C1135 1.429 . S
C1139 C1140 1.523 . S
C1140 C1124 1.368 . S
C1140 C1136 1.368 1_565 S
C1140 C1139 1.523 . S
H1141 C1116 0.950 . S
H1142 C1118 0.950 . S
H1143 C1119 0.949 . S
H1144 C1121 0.950 . S
H1145 C1123 0.950 . S
C1146 C1147 1.349 . S
C1146 C1148 1.327 . S
C1146 H1171 0.950 . S
C1147 C1146 1.349 . S
C1147 C1163 1.349 . S
C1148 C1146 1.327 . S
C1148 C1167 1.429 . S
C1148 H1172 0.950 . S
C1149 C1166 1.574 1_545 S
C1149 C1168 1.368 1_655 S
C1149 H1173 0.949 . S
H1150 C1154 0.949 . S
C1151 C1152 1.349 . S
C1151 C1153 1.327 . S
C1151 H1174 0.950 . S
C1152 C1151 1.349 . S
C1152 C1164 1.349 . S
C1153 C1151 1.327 . S
C1153 C1169 1.429 . S
C1153 H1175 0.950 . S
C1154 H1150 0.949 . S
C1154 C1162 1.574 1_565 S
C1154 C1170 1.368 1_455 S
H1155 C1163 0.950 . S
H1156 C1161 0.950 . S
H1157 C1162 0.949 . S
H1158 C1164 0.950 . S
H1159 C1165 0.950 . S
H1160 C1166 0.949 . S
C1161 H1156 0.950 . S
C1161 C1163 1.327 . S
C1161 C1167 1.429 . S
C1162 C1154 1.574 1_545 S
C1162 H1157 0.949 . S
C1162 C1168 1.368 . S
C1163 C1147 1.349 . S
C1163 H1155 0.950 . S
C1163 C1161 1.327 . S
C1164 C1152 1.349 . S
C1164 H1158 0.950 . S
C1164 C1165 1.327 . S
C1165 H1159 0.950 . S
C1165 C1164 1.327 . S
C1165 C1169 1.429 . S
C1166 C1149 1.574 1_565 S
C1166 H1160 0.949 . S
C1166 C1170 1.368 . S
C1167 C1148 1.429 . S
C1167 C1161 1.429 . S
C1167 C1168 1.523 . S
C1168 C1149 1.368 1_455 S
C1168 C1162 1.368 . S
C1168 C1167 1.523 . S
C1169 C1153 1.429 . S
C1169 C1165 1.429 . S
C1169 C1170 1.523 . S
C1170 C1154 1.368 1_655 S
C1170 C1166 1.368 . S
C1170 C1169 1.523 . S
H1171 C1146 0.950 . S
H1172 C1148 0.950 . S
H1173 C1149 0.949 . S
H1174 C1151 0.950 . S
H1175 C1153 0.950 . S
C1176 C1177 1.349 . S
C1176 C1178 1.327 . S
C1176 H1201 0.950 . S
C1177 C1176 1.349 . S
C1177 C1193 1.349 . S
C1178 C1176 1.327 . S
C1178 C1197 1.429 . S
C1178 H1202 0.950 . S
C1179 C1196 1.574 . S
C1179 C1198 1.368 1_455 S
C1179 H1203 0.949 . S
H1180 C1184 0.949 . S
C1181 C1182 1.349 . S
C1181 C1183 1.327 . S
C1181 H1204 0.950 . S
C1182 C1181 1.349 . S
C1182 C1194 1.349 . S
C1183 C1181 1.327 . S
C1183 C1199 1.429 . S
C1183 H1205 0.950 . S
C1184 H1180 0.949 . S
C1184 C1192 1.574 . S
C1184 C1200 1.368 1_655 S
H1185 C1193 0.950 . S
H1186 C1191 0.950 . S
H1187 C1192 0.949 . S
H1188 C1194 0.950 . S
H1189 C1195 0.950 . S
H1190 C1196 0.949 . S
C1191 H1186 0.950 . S
C1191 C1193 1.327 . S
C1191 C1197 1.429 . S
C1192 C1184 1.574 . S
C1192 H1187 0.949 . S
C1192 C1198 1.368 1_565 S
C1193 C1177 1.349 . S
C1193 H1185 0.950 . S
C1193 C1191 1.327 . S
C1194 C1182 1.349 . S
C1194 H1188 0.950 . S
C1194 C1195 1.327 . S
C1195 H1189 0.950 . S
C1195 C1194 1.327 . S
C1195 C1199 1.429 . S
C1196 C1179 1.574 . S
C1196 H1190 0.949 . S
C1196 C1200 1.368 1_545 S
C1197 C1178 1.429 . S
C1197 C1191 1.429 . S
C1197 C1198 1.523 . S
C1198 C1179 1.368 1_655 S
C1198 C1192 1.368 1_545 S
C1198 C1197 1.523 . S
C1199 C1183 1.429 . S
C1199 C1195 1.429 . S
C1199 C1200 1.523 . S
C1200 C1184 1.368 1_455 S
C1200 C1196 1.368 1_565 S
C1200 C1199 1.523 . S
H1201 C1176 0.950 . S
H1202 C1178 0.950 . S
H1203 C1179 0.949 . S
H1204 C1181 0.950 . S
H1205 C1183 0.950 . S
C1206 C1207 1.349 . S
C1206 C1208 1.327 . S
C1206 H1231 0.950 . S
C1207 C1206 1.349 . S
C1207 C1223 1.349 . S
C1208 C1206 1.327 . S
C1208 C1227 1.429 . S
C1208 H1232 0.950 . S
C1209 C1226 1.574 1_565 S
C1209 C1228 1.368 . S
C1209 H1233 0.949 . S
H1210 C1214 0.949 . S
C1211 C1212 1.349 . S
C1211 C1213 1.327 . S
C1211 H1234 0.950 . S
C1212 C1211 1.349 . S
C1212 C1224 1.349 . S
C1213 C1211 1.327 . S
C1213 C1229 1.429 . S
C1213 H1235 0.950 . S
C1214 H1210 0.949 . S
C1214 C1222 1.574 1_545 S
C1214 C1230 1.368 . S
H1215 C1223 0.950 . S
H1216 C1221 0.950 . S
H1217 C1222 0.949 . S
H1218 C1224 0.950 . S
H1219 C1225 0.950 . S
H1220 C1226 0.949 . S
C1221 H1216 0.950 . S
C1221 C1223 1.327 . S
C1221 C1227 1.429 . S
C1222 C1214 1.574 1_565 S
C1222 H1217 0.949 . S
C1222 C1228 1.368 1_455 S
C1223 C1207 1.349 . S
C1223 H1215 0.950 . S
C1223 C1221 1.327 . S
C1224 C1212 1.349 . S
C1224 H1218 0.950 . S
C1224 C1225 1.327 . S
C1225 H1219 0.950 . S
C1225 C1224 1.327 . S
C1225 C1229 1.429 . S
C1226 C1209 1.574 1_545 S
C1226 H1220 0.949 . S
C1226 C1230 1.368 1_655 S
C1227 C1208 1.429 . S
C1227 C1221 1.429 . S
C1227 C1228 1.523 . S
C1228 C1209 1.368 . S
C1228 C1222 1.368 1_655 S
C1228 C1227 1.523 . S
C1229 C1213 1.429 . S
C1229 C1225 1.429 . S
C1229 C1230 1.523 . S
C1230 C1214 1.368 . S
C1230 C1226 1.368 1_455 S
C1230 C1229 1.523 . S
H1231 C1206 0.950 . S
H1232 C1208 0.950 . S
H1233 C1209 0.949 . S
H1234 C1211 0.950 . S
H1235 C1213 0.950 . S
C1236 C1237 1.349 . S
C1236 C1238 1.327 . S
C1236 H1261 0.950 . S
C1237 C1236 1.349 . S
C1237 C1253 1.349 . S
C1238 C1236 1.327 . S
C1238 C1257 1.429 . S
C1238 H1262 0.950 . S
C1239 C1256 1.574 . S
C1239 C1258 1.368 1_455 S
C1239 H1263 0.949 . S
H1240 C1244 0.949 . S
C1241 C1242 1.349 . S
C1241 C1243 1.327 . S
C1241 H1264 0.950 . S
C1242 C1241 1.349 . S
C1242 C1254 1.349 . S
C1243 C1241 1.327 . S
C1243 C1259 1.429 . S
C1243 H1265 0.950 . S
C1244 H1240 0.949 . S
C1244 C1252 1.574 . S
C1244 C1260 1.368 1_655 S
H1245 C1253 0.950 . S
H1246 C1251 0.950 . S
H1247 C1252 0.949 . S
H1248 C1254 0.950 . S
H1249 C1255 0.950 . S
H1250 C1256 0.949 . S
C1251 H1246 0.950 . S
C1251 C1253 1.327 . S
C1251 C1257 1.429 . S
C1252 C1244 1.574 . S
C1252 H1247 0.949 . S
C1252 C1258 1.368 1_565 S
C1253 C1237 1.349 . S
C1253 H1245 0.950 . S
C1253 C1251 1.327 . S
C1254 C1242 1.349 . S
C1254 H1248 0.950 . S
C1254 C1255 1.327 . S
C1255 H1249 0.950 . S
C1255 C1254 1.327 . S
C1255 C1259 1.429 . S
C1256 C1239 1.574 . S
C1256 H1250 0.949 . S
C1256 C1260 1.368 1_545 S
C1257 C1238 1.429 . S
C1257 C1251 1.429 . S
C1257 C1258 1.523 . S
C1258 C1239 1.368 1_655 S
C1258 C1252 1.368 1_545 S
C1258 C1257 1.523 . S
C1259 C1243 1.429 . S
C1259 C1255 1.429 . S
C1259 C1260 1.523 . S
C1260 C1244 1.368 1_455 S
C1260 C1256 1.368 1_565 S
C1260 C1259 1.523 . S
H1261 C1236 0.950 . S
H1262 C1238 0.950 . S
H1263 C1239 0.949 . S
H1264 C1241 0.950 . S
H1265 C1243 0.950 . S
C1266 C1267 1.349 . S
C1266 C1268 1.327 . S
C1266 H1291 0.950 . S
C1267 C1266 1.349 . S
C1267 C1283 1.349 . S
C1268 C1266 1.327 . S
C1268 C1287 1.429 . S
C1268 H1292 0.950 . S
C1269 C1286 1.574 1_455 S
C1269 C1288 1.368 . S
C1269 H1293 0.949 . S
H1270 C1274 0.949 . S
C1271 C1272 1.349 . S
C1271 C1273 1.327 . S
C1271 H1294 0.950 . S
C1272 C1271 1.349 . S
C1272 C1284 1.349 . S
C1273 C1271 1.327 . S
C1273 C1289 1.429 . S
C1273 H1295 0.950 . S
C1274 H1270 0.949 . S
C1274 C1282 1.574 1_655 S
C1274 C1290 1.368 . S
H1275 C1283 0.950 . S
H1276 C1281 0.950 . S
H1277 C1282 0.949 . S
H1278 C1284 0.950 . S
H1279 C1285 0.950 . S
H1280 C1286 0.949 . S
C1281 H1276 0.950 . S
C1281 C1283 1.327 . S
C1281 C1287 1.429 . S
C1282 C1274 1.574 1_455 S
C1282 H1277 0.949 . S
C1282 C1288 1.368 1_565 S
C1283 C1267 1.349 . S
C1283 H1275 0.950 . S
C1283 C1281 1.327 . S
C1284 C1272 1.349 . S
C1284 H1278 0.950 . S
C1284 C1285 1.327 . S
C1285 H1279 0.950 . S
C1285 C1284 1.327 . S
C1285 C1289 1.429 . S
C1286 C1269 1.574 1_655 S
C1286 H1280 0.949 . S
C1286 C1290 1.368 1_545 S
C1287 C1268 1.429 . S
C1287 C1281 1.429 . S
C1287 C1288 1.523 . S
C1288 C1269 1.368 . S
C1288 C1282 1.368 1_545 S
C1288 C1287 1.523 . S
C1289 C1273 1.429 . S
C1289 C1285 1.429 . S
C1289 C1290 1.523 . S
C1290 C1274 1.368 . S
C1290 C1286 1.368 1_565 S
C1290 C1289 1.523 . S
H1291 C1266 0.950 . S
H1292 C1268 0.950 . S
H1293 C1269 0.949 . S
H1294 C1271 0.950 . S
H1295 C1273 0.950 . S
C397 N13 1.582 . S
C402 N244 1.582 . S
C427 N46 1.582 . S
C432 N277 1.582 . S
C457 N79 1.582 . S
C462 N310 1.582 . S
C487 N343 1.582 . S
C492 N112 1.582 . S
C517 N376 1.582 . S
C522 N145 1.582 . S
C547 N178 1.582 . S
C552 N211 1.582 . S
C577 C106 1.669 . S
C582 C7 1.669 . S
C607 C40 1.669 . S
C612 C139 1.669 . S
C637 C172 1.669 . S
C642 C73 1.669 . S
C667 C304 1.669 . S
C672 C205 1.669 . S
C697 C337 1.669 . S
C702 C238 1.669 . S
C727 C271 1.669 . S
C732 C370 1.669 . S
C757 N266 1.514 . S
C762 N2 1.514 . S
C787 N35 1.514 . S
C792 N299 1.514 . S
C817 N68 1.514 . S
C822 N332 1.514 . S
C847 N101 1.514 . S
C852 N365 1.514 . S
C877 N134 1.514 . S
C882 N200 1.514 . S
C907 N233 1.514 . S
C912 N167 1.514 . S
C937 C120 1.226 . S
C942 C21 1.226 . S
C967 C54 1.225 . S
C972 C153 1.225 . S
C997 C186 1.225 . S
C1002 C87 1.225 . S
C1027 C219 1.226 . S
C1032 C318 1.226 . S
C1057 C252 1.225 . S
C1062 C351 1.225 . S
C1087 C384 1.225 . S
C1092 C285 1.225 . S
C1117 C18 0.981 . S
C1122 C117 0.981 . S
C1147 C51 0.981 . S
C1152 C150 0.981 . S
C1177 C84 0.981 . S
C1182 C183 0.981 . S
C1207 C216 0.981 . S
C1212 C315 0.981 . S
C1237 C348 0.981 . S
C1242 C249 0.981 . S
C1267 C282 0.981 . S
C1272 C381 0.981 . S
