# Generated by pormake.
# Topology uki, (4)-cn, num edge types: 1
# Building blocks:
#     Node 0, Type 0, BuildingBlock: QUQFOY_clean_sbu_1, # of connection points: 4
#     Node 1, Type 0, BuildingBlock: QUQFOY_clean_sbu_1, # of connection points: 4
#     Node 2, Type 0, BuildingBlock: QUQFOY_clean_sbu_1, # of connection points: 4
#     Node 3, Type 0, BuildingBlock: QUQFOY_clean_sbu_1, # of connection points: 4
#     Node 4, Type 0, BuildingBlock: QUQFOY_clean_sbu_1, # of connection points: 4
#     Node 5, Type 0, BuildingBlock: QUQFOY_clean_sbu_1, # of connection points: 4
#     Node 6, Type 0, BuildingBlock: QUQFOY_clean_sbu_1, # of connection points: 4
#     Node 7, Type 0, BuildingBlock: QUQFOY_clean_sbu_1, # of connection points: 4
#     Node 8, Type 0, BuildingBlock: QUQFOY_clean_sbu_1, # of connection points: 4
#     Node 9, Type 0, BuildingBlock: QUQFOY_clean_sbu_1, # of connection points: 4
#     Node 10, Type 0, BuildingBlock: QUQFOY_clean_sbu_1, # of connection points: 4
#     Node 11, Type 0, BuildingBlock: QUQFOY_clean_sbu_1, # of connection points: 4
#     Node 12, Type 0, BuildingBlock: QUQFOY_clean_sbu_1, # of connection points: 4
#     Node 13, Type 0, BuildingBlock: QUQFOY_clean_sbu_1, # of connection points: 4
#     Node 14, Type 0, BuildingBlock: QUQFOY_clean_sbu_1, # of connection points: 4
#     Node 15, Type 0, BuildingBlock: QUQFOY_clean_sbu_1, # of connection points: 4
#     Edge 16, Type (0, 0), BuildingBlock: ZUJKAS_clean_linker_0, # of connection points: 2
#     Edge 17, Type (0, 0), BuildingBlock: ZUJKAS_clean_linker_0, # of connection points: 2
#     Edge 18, Type (0, 0), BuildingBlock: ZUJKAS_clean_linker_0, # of connection points: 2
#     Edge 19, Type (0, 0), BuildingBlock: ZUJKAS_clean_linker_0, # of connection points: 2
#     Edge 20, Type (0, 0), BuildingBlock: ZUJKAS_clean_linker_0, # of connection points: 2
#     Edge 21, Type (0, 0), BuildingBlock: ZUJKAS_clean_linker_0, # of connection points: 2
#     Edge 22, Type (0, 0), BuildingBlock: ZUJKAS_clean_linker_0, # of connection points: 2
#     Edge 23, Type (0, 0), BuildingBlock: ZUJKAS_clean_linker_0, # of connection points: 2
#     Edge 24, Type (0, 0), BuildingBlock: ZUJKAS_clean_linker_0, # of connection points: 2
#     Edge 25, Type (0, 0), BuildingBlock: ZUJKAS_clean_linker_0, # of connection points: 2
#     Edge 26, Type (0, 0), BuildingBlock: ZUJKAS_clean_linker_0, # of connection points: 2
#     Edge 27, Type (0, 0), BuildingBlock: ZUJKAS_clean_linker_0, # of connection points: 2
#     Edge 28, Type (0, 0), BuildingBlock: ZUJKAS_clean_linker_0, # of connection points: 2
#     Edge 29, Type (0, 0), BuildingBlock: ZUJKAS_clean_linker_0, # of connection points: 2
#     Edge 30, Type (0, 0), BuildingBlock: ZUJKAS_clean_linker_0, # of connection points: 2
#     Edge 31, Type (0, 0), BuildingBlock: ZUJKAS_clean_linker_0, # of connection points: 2
#     Edge 32, Type (0, 0), BuildingBlock: ZUJKAS_clean_linker_0, # of connection points: 2
#     Edge 33, Type (0, 0), BuildingBlock: ZUJKAS_clean_linker_0, # of connection points: 2
#     Edge 34, Type (0, 0), BuildingBlock: ZUJKAS_clean_linker_0, # of connection points: 2
#     Edge 35, Type (0, 0), BuildingBlock: ZUJKAS_clean_linker_0, # of connection points: 2
#     Edge 36, Type (0, 0), BuildingBlock: ZUJKAS_clean_linker_0, # of connection points: 2
#     Edge 37, Type (0, 0), BuildingBlock: ZUJKAS_clean_linker_0, # of connection points: 2
#     Edge 38, Type (0, 0), BuildingBlock: ZUJKAS_clean_linker_0, # of connection points: 2
#     Edge 39, Type (0, 0), BuildingBlock: ZUJKAS_clean_linker_0, # of connection points: 2
#     Edge 40, Type (0, 0), BuildingBlock: ZUJKAS_clean_linker_0, # of connection points: 2
#     Edge 41, Type (0, 0), BuildingBlock: ZUJKAS_clean_linker_0, # of connection points: 2
#     Edge 42, Type (0, 0), BuildingBlock: ZUJKAS_clean_linker_0, # of connection points: 2
#     Edge 43, Type (0, 0), BuildingBlock: ZUJKAS_clean_linker_0, # of connection points: 2
#     Edge 44, Type (0, 0), BuildingBlock: ZUJKAS_clean_linker_0, # of connection points: 2
#     Edge 45, Type (0, 0), BuildingBlock: ZUJKAS_clean_linker_0, # of connection points: 2
#     Edge 46, Type (0, 0), BuildingBlock: ZUJKAS_clean_linker_0, # of connection points: 2
#     Edge 47, Type (0, 0), BuildingBlock: ZUJKAS_clean_linker_0, # of connection points: 2
# Relax obj value: 0.031
# Max RMSD: 0.132
# Mean RMSD: 0.132
data_MOF--net-uki--node1-QUQFOY_clean_sbu_1--edge1-ZUJKAS_clean_linker_0
_symmetry_space_group_name_H-M    P1
_symmetry_Int_Tables_number       1
_symmetry_cell_setting            triclinic
loop_
_symmetry_equiv_pos_as_xyz
'x, y, z'
_cell_length_a     41.928437
_cell_length_b     41.923722
_cell_length_c     94.218029
_cell_angle_alpha  89.97991
_cell_angle_beta   90.005188
_cell_angle_gamma 89.972776
loop_
_atom_site_label
_atom_site_type_symbol
_atom_site_fract_x
_atom_site_fract_y
_atom_site_fract_z
_atom_type_partial_charge
O0 O 0.1273 0.27256 0.28878 0.0
Cd1 Cd 0.10134 0.25231 0.30509 0.0
Cd2 Cd 0.08806 0.21015 0.28438 0.0
O3 O 0.12303 0.23383 0.27304 0.0
O4 O 0.12051 0.26937 0.32297 0.0
O5 O 0.12356 0.21861 0.31674 0.0
C6 C 0.13138 0.24111 0.32545 0.0
C7 C 0.08197 0.1549 0.28517 0.0
C8 C 0.1343 0.26073 0.27675 0.0
C9 C 0.03414 0.25132 0.29512 0.0
O10 O 0.04481 0.23267 0.28563 0.0
O11 O 0.05235 0.26103 0.30504 0.0
O12 O 0.07751 0.17071 0.2736 0.0
O13 O 0.09257 0.17021 0.29609 0.0
O14 O 0.27364 0.88439 0.71907 0.0
Cd15 Cd 0.25507 0.91006 0.70228 0.0
Cd16 Cd 0.21192 0.92562 0.72278 0.0
O17 O 0.23524 0.89147 0.73479 0.0
O18 O 0.27449 0.89 0.6851 0.0
O19 O 0.22282 0.88817 0.68968 0.0
C20 C 0.2465 0.87971 0.68173 0.0
C21 C 0.15665 0.93237 0.72249 0.0
C22 C 0.2617 0.87894 0.73123 0.0
C23 C 0.25458 0.97799 0.71135 0.0
O24 O 0.23489 0.96845 0.72067 0.0
O25 O 0.265 0.95878 0.70197 0.0
O26 O 0.17321 0.93781 0.73375 0.0
O27 O 0.17122 0.92057 0.7116 0.0
O28 O 0.88672 0.73115 0.29179 0.0
Cd29 Cd 0.91025 0.75283 0.30834 0.0
Cd30 Cd 0.92249 0.79641 0.28793 0.0
O31 O 0.88979 0.77023 0.27617 0.0
O32 O 0.89021 0.7363 0.32612 0.0
O33 O 0.88635 0.78661 0.31922 0.0
C34 C 0.8785 0.76444 0.3281 0.0
C35 C 0.9256 0.85197 0.28774 0.0
C36 C 0.87993 0.7426 0.27966 0.0
C37 C 0.97779 0.7578 0.2996 0.0
O38 O 0.96711 0.77692 0.29029 0.0
O39 O 0.9593 0.74573 0.30886 0.0
O40 O 0.93194 0.83536 0.27659 0.0
O41 O 0.91476 0.83714 0.29876 0.0
O42 O 0.73036 0.11855 0.71732 0.0
Cd43 Cd 0.75451 0.09517 0.70133 0.0
Cd44 Cd 0.79596 0.08745 0.72235 0.0
O45 O 0.76966 0.12215 0.73276 0.0
O46 O 0.73687 0.11294 0.68329 0.0
O47 O 0.7868 0.12031 0.69011 0.0
C48 C 0.76421 0.12625 0.68115 0.0
C49 C 0.85145 0.08495 0.72154 0.0
C50 C 0.74126 0.12885 0.72905 0.0
C51 C 0.76022 0.02943 0.71201 0.0
O52 O 0.77634 0.0426 0.7218 0.0
O53 O 0.75072 0.04577 0.70143 0.0
O54 O 0.83608 0.08064 0.73324 0.0
O55 O 0.83537 0.09348 0.71046 0.0
O56 O 0.12523 0.23592 0.97179 0.0
Cd57 Cd 0.09984 0.25405 0.95482 0.0
Cd58 Cd 0.08349 0.29737 0.97506 0.0
O59 O 0.11717 0.2743 0.98742 0.0
O60 O 0.12054 0.23466 0.93779 0.0
O61 O 0.1216 0.28642 0.94223 0.0
C62 C 0.13054 0.26274 0.93439 0.0
C63 C 0.07696 0.35266 0.97433 0.0
C64 C 0.13005 0.24793 0.98399 0.0
C65 C 0.0317 0.25412 0.96358 0.0
O66 O 0.0408 0.27423 0.9728 0.0
O67 O 0.05125 0.24357 0.95437 0.0
O68 O 0.07099 0.33652 0.98566 0.0
O69 O 0.08907 0.33766 0.96363 0.0
O70 O 0.22971 0.88756 0.04278 0.0
Cd71 Cd 0.25363 0.91166 0.05868 0.0
Cd72 Cd 0.29386 0.92136 0.03722 0.0
O73 O 0.26816 0.88642 0.02682 0.0
O74 O 0.23839 0.89289 0.07698 0.0
O75 O 0.28779 0.88729 0.06912 0.0
C76 C 0.26635 0.88044 0.0785 0.0
C77 C 0.34925 0.92651 0.03651 0.0
C78 C 0.24035 0.87829 0.03082 0.0
C79 C 0.25636 0.9778 0.04821 0.0
O80 O 0.27244 0.96523 0.03826 0.0
O81 O 0.24809 0.96108 0.05888 0.0
O82 O 0.33198 0.93089 0.02537 0.0
O83 O 0.33526 0.91639 0.04788 0.0
O84 O 0.88401 0.77689 0.96698 0.0
Cd85 Cd 0.90779 0.75282 0.95109 0.0
Cd86 Cd 0.91618 0.71156 0.9721 0.0
O87 O 0.88083 0.73735 0.98234 0.0
O88 O 0.88956 0.7683 0.93273 0.0
O89 O 0.88322 0.71898 0.94061 0.0
C90 C 0.87683 0.74048 0.93118 0.0
C91 C 0.92048 0.6561 0.97191 0.0
C92 C 0.87378 0.76572 0.97868 0.0
C93 C 0.97349 0.74857 0.96183 0.0
O94 O 0.96051 0.73227 0.97162 0.0
O95 O 0.95712 0.7576 0.95119 0.0
O96 O 0.924 0.67223 0.98345 0.0
O97 O 0.91164 0.67129 0.96064 0.0
O98 O 0.77636 0.11607 0.0444 0.0
Cd99 Cd 0.75299 0.09357 0.06081 0.0
Cd100 Cd 0.71122 0.07975 0.03957 0.0
O101 O 0.73922 0.11114 0.02793 0.0
O102 O 0.76792 0.11372 0.07885 0.0
O103 O 0.71868 0.11894 0.07066 0.0
C104 C 0.73994 0.12628 0.08005 0.0
C105 C 0.65582 0.07627 0.03749 0.0
C106 C 0.7663 0.12158 0.0319 0.0
C107 C 0.7484 0.02535 0.05293 0.0
O108 O 0.73003 0.03531 0.04319 0.0
O109 O 0.75988 0.04454 0.06204 0.0
O110 O 0.67445 0.06872 0.02715 0.0
O111 O 0.66857 0.08863 0.0487 0.0
O112 O 0.61993 0.77578 0.79251 0.0
Cd113 Cd 0.5951 0.75212 0.80825 0.0
Cd114 Cd 0.58725 0.71132 0.78723 0.0
O115 O 0.62338 0.73617 0.77721 0.0
O116 O 0.61266 0.76775 0.82672 0.0
O117 O 0.61911 0.7183 0.81902 0.0
C118 C 0.62529 0.7399 0.82842 0.0
C119 C 0.58249 0.65598 0.78818 0.0
C120 C 0.63061 0.76443 0.78092 0.0
C121 C 0.52994 0.74901 0.79671 0.0
O122 O 0.54342 0.73299 0.78697 0.0
O123 O 0.54565 0.7571 0.8077 0.0
O124 O 0.57964 0.67128 0.77638 0.0
O125 O 0.59079 0.67193 0.79932 0.0
O126 O 0.77602 0.3923 0.2162 0.0
Cd127 Cd 0.7506 0.41521 0.20044 0.0
Cd128 Cd 0.71116 0.4256 0.22206 0.0
O129 O 0.73831 0.3916 0.23252 0.0
O130 O 0.76487 0.39699 0.18187 0.0
O131 O 0.71661 0.38916 0.19076 0.0
C132 C 0.73734 0.38337 0.18093 0.0
C133 C 0.65567 0.42926 0.22226 0.0
C134 C 0.76609 0.38363 0.22836 0.0
C135 C 0.74687 0.48202 0.21031 0.0
O136 O 0.73123 0.47003 0.22053 0.0
O137 O 0.75525 0.46463 0.19988 0.0
O138 O 0.67223 0.43392 0.2336 0.0
O139 O 0.67048 0.41953 0.21104 0.0
O140 O 0.38805 0.232 0.79275 0.0
Cd141 Cd 0.41142 0.2525 0.80964 0.0
Cd142 Cd 0.42616 0.29604 0.78915 0.0
O143 O 0.39462 0.2699 0.77677 0.0
O144 O 0.39061 0.23383 0.82681 0.0
O145 O 0.38775 0.28508 0.8214 0.0
C146 C 0.37932 0.26178 0.82958 0.0
C147 C 0.42933 0.35162 0.78875 0.0
C148 C 0.38317 0.24297 0.78036 0.0
C149 C 0.47977 0.2564 0.80176 0.0
O150 O 0.4703 0.27623 0.79248 0.0
O151 O 0.46025 0.24411 0.81053 0.0
O152 O 0.43693 0.33469 0.77785 0.0
O153 O 0.4174 0.33707 0.79961 0.0
O154 O 0.23144 0.61976 0.21575 0.0
Cd155 Cd 0.25709 0.59594 0.20033 0.0
Cd156 Cd 0.29665 0.59005 0.22183 0.0
O157 O 0.27048 0.6263 0.23114 0.0
O158 O 0.24206 0.61297 0.18164 0.0
O159 O 0.29063 0.62133 0.19003 0.0
C160 C 0.26947 0.62671 0.18034 0.0
C161 C 0.35208 0.58588 0.22128 0.0
C162 C 0.24193 0.63177 0.22724 0.0
C163 C 0.2614 0.5314 0.21223 0.0
O164 O 0.27575 0.54585 0.22221 0.0
O165 O 0.25416 0.54636 0.20092 0.0
O166 O 0.33645 0.58345 0.23302 0.0
O167 O 0.33639 0.59361 0.20998 0.0
O168 O 0.61065 0.72836 0.464 0.0
Cd169 Cd 0.58877 0.75364 0.44795 0.0
Cd170 Cd 0.57851 0.79356 0.46941 0.0
O171 O 0.61232 0.76649 0.48008 0.0
O172 O 0.60823 0.73807 0.42986 0.0
O173 O 0.61488 0.78716 0.43794 0.0
C174 C 0.62162 0.76565 0.42858 0.0
C175 C 0.5756 0.84912 0.46963 0.0
C176 C 0.61957 0.7384 0.4761 0.0
C177 C 0.52198 0.75791 0.4574 0.0
O178 O 0.53392 0.77367 0.46761 0.0
O179 O 0.53948 0.7492 0.44706 0.0
O180 O 0.57024 0.83257 0.48092 0.0
O181 O 0.58535 0.8342 0.45844 0.0
O182 O 0.7298 0.38378 0.53997 0.0
Cd183 Cd 0.7481 0.40786 0.55715 0.0
Cd184 Cd 0.7926 0.42495 0.53704 0.0
O185 O 0.76802 0.39272 0.52437 0.0
O186 O 0.72925 0.38618 0.57405 0.0
O187 O 0.78093 0.38577 0.56938 0.0
C188 C 0.7575 0.37633 0.57726 0.0
C189 C 0.84797 0.43113 0.5358 0.0
C190 C 0.74155 0.37983 0.52766 0.0
C191 C 0.74975 0.47646 0.54965 0.0
O192 O 0.77087 0.46808 0.54075 0.0
O193 O 0.73729 0.45616 0.55802 0.0
O194 O 0.82967 0.43878 0.52537 0.0
O195 O 0.83503 0.41756 0.54669 0.0
O196 O 0.39459 0.27851 0.46367 0.0
Cd197 Cd 0.41652 0.25333 0.44761 0.0
Cd198 Cd 0.42671 0.21314 0.46903 0.0
O199 O 0.39302 0.24027 0.47973 0.0
O200 O 0.39719 0.26898 0.42949 0.0
O201 O 0.39049 0.21986 0.43753 0.0
C202 C 0.38386 0.2414 0.42815 0.0
C203 C 0.42931 0.15756 0.46927 0.0
C204 C 0.38573 0.26838 0.47577 0.0
C205 C 0.48334 0.24874 0.45706 0.0
O206 O 0.47139 0.23284 0.46723 0.0
O207 O 0.46583 0.2577 0.44676 0.0
O208 O 0.43482 0.17409 0.48055 0.0
O209 O 0.41964 0.17252 0.45808 0.0
O210 O 0.27654 0.62144 0.54058 0.0
Cd211 Cd 0.25802 0.59768 0.55781 0.0
Cd212 Cd 0.21339 0.58089 0.53769 0.0
O213 O 0.23805 0.61311 0.52504 0.0
O214 O 0.27694 0.61955 0.57465 0.0
O215 O 0.22529 0.62026 0.5699 0.0
C216 C 0.24875 0.62976 0.57775 0.0
C217 C 0.15802 0.57473 0.53632 0.0
C218 C 0.26471 0.62564 0.5283 0.0
C219 C 0.25605 0.52914 0.55032 0.0
O220 O 0.23506 0.5377 0.54138 0.0
O221 O 0.26849 0.5493 0.55875 0.0
O222 O 0.17644 0.56712 0.52593 0.0
O223 O 0.17084 0.58822 0.54724 0.0
H224 H 0.13513 0.25709 0.2477 0.0
H225 H 0.16066 0.29462 0.23119 0.0
H226 H 0.20149 0.34543 0.26655 0.0
H227 H 0.17577 0.30859 0.28307 0.0
H228 H 0.14842 0.36649 0.23433 0.0
H229 H 0.2759 0.33101 0.23603 0.0
H230 H 0.24372 0.30342 0.2396 0.0
H231 H 0.25574 0.33165 0.25289 0.0
C232 C 0.1501 0.27587 0.25193 0.0
C233 C 0.1534 0.27995 0.26669 0.0
C234 C 0.16455 0.29729 0.24249 0.0
C235 C 0.18306 0.32259 0.24768 0.0
C236 C 0.18753 0.32583 0.26236 0.0
H237 H 0.27381 0.49474 0.23537 0.0
H238 H 0.25507 0.44128 0.24047 0.0
C239 C 0.17274 0.30482 0.27177 0.0
C240 C 0.19536 0.34766 0.23808 0.0
H241 H 0.26454 0.38392 0.22804 0.0
C242 C 0.17375 0.37005 0.2326 0.0
C243 C 0.22837 0.35205 0.23592 0.0
C244 C 0.25238 0.32816 0.24131 0.0
C245 C 0.18443 0.39815 0.226 0.0
C246 C 0.21764 0.40348 0.22455 0.0
C247 C 0.23911 0.37987 0.22915 0.0
C248 C 0.23065 0.43512 0.22043 0.0
C249 C 0.16017 0.42291 0.22166 0.0
C250 C 0.2237 0.44945 0.20728 0.0
C251 C 0.2342 0.48056 0.20434 0.0
C252 C 0.25205 0.49762 0.21445 0.0
C253 C 0.25997 0.48253 0.22733 0.0
C254 C 0.24937 0.45177 0.23027 0.0
H255 H 0.13595 0.41736 0.22575 0.0
H256 H 0.16721 0.44687 0.22558 0.0
H257 H 0.15886 0.42395 0.20991 0.0
H258 H 0.20982 0.43679 0.1994 0.0
H259 H 0.22789 0.4914 0.19429 0.0
H260 H 0.49162 0.73473 0.77434 0.0
H261 H 0.43872 0.75496 0.76916 0.0
H262 H 0.43807 0.80614 0.80887 0.0
H263 H 0.49213 0.78653 0.81403 0.0
H264 H 0.3816 0.74987 0.78226 0.0
H265 H 0.42055 0.87692 0.78064 0.0
H266 H 0.4487 0.84445 0.78148 0.0
H267 H 0.4269 0.85605 0.79706 0.0
C268 C 0.48036 0.75019 0.78207 0.0
C269 C 0.4964 0.7593 0.79455 0.0
C270 C 0.44992 0.76165 0.77909 0.0
C271 C 0.43453 0.78245 0.78851 0.0
C272 C 0.44976 0.79063 0.8013 0.0
H273 H 0.25911 0.88162 0.76029 0.0
H274 H 0.29633 0.85661 0.77711 0.0
C275 C 0.48055 0.77924 0.80428 0.0
C276 C 0.40328 0.79626 0.78428 0.0
H277 H 0.36874 0.86558 0.77293 0.0
C278 C 0.37857 0.77525 0.78049 0.0
C279 C 0.39928 0.82941 0.78195 0.0
C280 C 0.42525 0.85311 0.78538 0.0
C281 C 0.35089 0.78627 0.77368 0.0
C282 C 0.34776 0.81909 0.77067 0.0
C283 C 0.37131 0.8404 0.77532 0.0
C284 C 0.32273 0.83116 0.76098 0.0
C285 C 0.32575 0.76265 0.76918 0.0
C286 C 0.32516 0.82478 0.74641 0.0
C287 C 0.30433 0.83926 0.73681 0.0
C288 C 0.28045 0.86017 0.74161 0.0
C289 C 0.2771 0.86539 0.75629 0.0
C290 C 0.29836 0.85125 0.7659 0.0
H291 H 0.32798 0.73972 0.77501 0.0
H292 H 0.30149 0.77255 0.77093 0.0
H293 H 0.32841 0.75772 0.75766 0.0
H294 H 0.34403 0.80957 0.74242 0.0
H295 H 0.30751 0.83475 0.72558 0.0
H296 H 0.72166 0.52772 0.22736 0.0
H297 H 0.74371 0.57993 0.23271 0.0
H298 H 0.81752 0.56537 0.20149 0.0
H299 H 0.79562 0.51237 0.19615 0.0
H300 H 0.84149 0.58008 0.22725 0.0
H301 H 0.74692 0.66698 0.21464 0.0
H302 H 0.73116 0.63485 0.22505 0.0
H303 H 0.74686 0.62689 0.2076 0.0
C304 C 0.74218 0.53582 0.22137 0.0
C305 C 0.75705 0.51577 0.2114 0.0
C306 C 0.75457 0.56593 0.22435 0.0
C307 C 0.78203 0.57685 0.21738 0.0
C308 C 0.79611 0.55755 0.20689 0.0
H309 H 0.8678 0.75451 0.2514 0.0
H310 H 0.84521 0.71726 0.23394 0.0
C311 C 0.78355 0.52731 0.20384 0.0
C312 C 0.79827 0.60597 0.22269 0.0
H313 H 0.78334 0.68214 0.2338 0.0
C314 C 0.82907 0.60265 0.22833 0.0
C315 C 0.78228 0.63559 0.22402 0.0
C316 C 0.7501 0.64137 0.21736 0.0
C317 C 0.84322 0.62722 0.23622 0.0
C318 C 0.82598 0.65568 0.23867 0.0
C319 C 0.79628 0.66006 0.2321 0.0
C320 C 0.8372 0.67947 0.24916 0.0
C321 C 0.87604 0.62204 0.24237 0.0
C322 C 0.83907 0.67089 0.26351 0.0
C323 C 0.85174 0.69197 0.27346 0.0
C324 C 0.86281 0.72223 0.26928 0.0
C325 C 0.85955 0.73139 0.25497 0.0
C326 C 0.84673 0.71015 0.24498 0.0
H327 H 0.88944 0.60351 0.23641 0.0
H328 H 0.89006 0.64451 0.24232 0.0
H329 H 0.87372 0.61388 0.25353 0.0
H330 H 0.83129 0.6475 0.26697 0.0
H331 H 0.85359 0.68415 0.28438 0.0
H332 H 0.50235 0.19551 0.80258 0.0
H333 H 0.55497 0.17788 0.79455 0.0
H334 H 0.5852 0.27602 0.79116 0.0
H335 H 0.532 0.29353 0.79832 0.0
H336 H 0.59481 0.24893 0.76762 0.0
H337 H 0.6436 0.1676 0.80815 0.0
H338 H 0.60432 0.15508 0.80318 0.0
H339 H 0.60991 0.1932 0.8117 0.0
C340 C 0.52065 0.2132 0.80061 0.0
C341 C 0.51325 0.24582 0.80106 0.0
C342 C 0.55084 0.20313 0.79607 0.0
C343 C 0.57434 0.22557 0.79231 0.0
C344 C 0.56757 0.2582 0.79394 0.0
H345 H 0.75495 0.15522 0.75514 0.0
H346 H 0.71771 0.18215 0.77132 0.0
C347 C 0.53723 0.26822 0.79811 0.0
C348 C 0.60366 0.21546 0.78458 0.0
H349 H 0.66332 0.15988 0.78406 0.0
C350 C 0.61011 0.22989 0.77142 0.0
C351 C 0.62409 0.19089 0.78949 0.0
C352 C 0.6203 0.1761 0.80398 0.0
C353 C 0.63523 0.21948 0.76277 0.0
C354 C 0.65387 0.19312 0.76713 0.0
C355 C 0.64868 0.17976 0.78061 0.0
C356 C 0.67698 0.17768 0.75736 0.0
C357 C 0.64124 0.23669 0.74895 0.0
C358 C 0.66642 0.16607 0.74421 0.0
C359 C 0.68755 0.15108 0.73494 0.0
C360 C 0.71976 0.14682 0.73867 0.0
C361 C 0.73037 0.1583 0.7519 0.0
C362 C 0.7091 0.17357 0.76118 0.0
H363 H 0.63332 0.26196 0.74955 0.0
H364 H 0.66689 0.2362 0.74603 0.0
H365 H 0.62738 0.225 0.74038 0.0
H366 H 0.64159 0.16819 0.74118 0.0
H367 H 0.67837 0.14226 0.72494 0.0
H368 H 0.21684 0.01359 0.06554 0.0
H369 H 0.1973 0.06801 0.06105 0.0
H370 H 0.25294 0.07188 0.02258 0.0
H371 H 0.27309 0.01869 0.02713 0.0
H372 H 0.25555 0.12778 0.03671 0.0
H373 H 0.12951 0.08707 0.03162 0.0
H374 H 0.1487 0.07968 0.04835 0.0
H375 H 0.1623 0.05934 0.0327 0.0
C376 C 0.22514 0.02626 0.05622 0.0
C377 C 0.24626 0.01157 0.04662 0.0
C378 C 0.2138 0.05725 0.05362 0.0
C379 C 0.22322 0.07384 0.04133 0.0
C380 C 0.24526 0.05962 0.03211 0.0
H381 H 0.1752 0.20278 0.97881 0.0
H382 H 0.19926 0.16598 0.99586 0.0
C383 C 0.25666 0.02899 0.03472 0.0
C384 C 0.20938 0.10524 0.03734 0.0
H385 H 0.14095 0.13944 0.02477 0.0
C386 C 0.23037 0.13055 0.03438 0.0
C387 C 0.17649 0.10889 0.03427 0.0
C388 C 0.15286 0.08232 0.03678 0.0
C389 C 0.21971 0.15848 0.02766 0.0
C390 C 0.18727 0.16127 0.02389 0.0
C391 C 0.16584 0.13711 0.02774 0.0
C392 C 0.176 0.18661 0.01417 0.0
C393 C 0.2434 0.18424 0.02399 0.0
C394 C 0.15539 0.21074 0.01889 0.0
C395 C 0.14192 0.23219 0.00917 0.0
C396 C 0.14832 0.22924 0.99456 0.0
C397 C 0.1698 0.20564 0.98998 0.0
C398 C 0.18362 0.18465 0.99971 0.0
H399 H 0.26577 0.18187 0.03023 0.0
H400 H 0.24948 0.18255 0.01255 0.0
H401 H 0.23297 0.20821 0.02591 0.0
H402 H 0.14908 0.21242 0.03002 0.0
H403 H 0.12523 0.24994 0.01299 0.0
H404 H 0.18213 0.85297 0.03701 0.0
H405 H 0.14369 0.82982 0.02058 0.0
H406 H 0.21049 0.84095 0.98615 0.0
H407 H 0.24951 0.86406 1.00261 0.0
H408 H 0.11975 0.86326 0.9965 0.0
H409 H 0.17692 0.74788 0.98191 0.0
H410 H 0.18814 0.7698 0.99763 0.0
H411 H 0.20065 0.78351 0.98048 0.0
C412 C 0.18895 0.85012 0.02599 0.0
C413 C 0.21891 0.8605 0.02113 0.0
C414 C 0.16688 0.83692 0.01661 0.0
C415 C 0.17423 0.83367 1.00216 0.0
C416 C 0.20448 0.84295 0.99729 0.0
H417 H 0.00626 0.79613 0.94785 0.0
H418 H 0.05897 0.81751 0.95415 0.0
C419 C 0.22672 0.85616 0.00672 0.0
C420 C 0.14921 0.82234 0.99226 0.0
H421 H 0.12605 0.75827 0.97243 0.0
C422 C 0.12124 0.84053 0.99104 0.0
C423 C 0.15137 0.79272 0.98518 0.0
C424 C 0.18075 0.77211 0.98636 0.0
C425 C 0.09471 0.82921 0.9835 0.0
C426 C 0.09642 0.79906 0.97679 0.0
C427 C 0.12494 0.78149 0.97747 0.0
C428 C 0.06744 0.78345 0.97102 0.0
C429 C 0.06442 0.8487 0.98357 0.0
C430 C 0.05555 0.75632 0.9779 0.0
C431 C 0.02574 0.74407 0.97431 0.0
C432 C 0.0071 0.75863 0.96371 0.0
C433 C 0.01996 0.78449 0.95611 0.0
C434 C 0.04997 0.79683 0.95975 0.0
H435 H 0.06565 0.86902 0.99112 0.0
H436 H 0.06016 0.85849 0.97279 0.0
H437 H 0.04366 0.83359 0.98645 0.0
H438 H 0.06865 0.74554 0.98659 0.0
H439 H 0.01677 0.72387 0.98027 0.0
H440 H 0.84756 0.75127 0.00472 0.0
H441 H 0.8208 0.78803 0.02115 0.0
H442 H 0.83421 0.86498 0.99136 0.0
H443 H 0.85996 0.82864 0.97486 0.0
H444 H 0.84322 0.84168 0.03415 0.0
H445 H 0.74083 0.87352 1.00018 0.0
H446 H 0.76643 0.84003 0.99629 0.0
H447 H 0.77765 0.87976 0.99093 0.0
C448 C 0.84436 0.77593 1.0016 0.0
C449 C 0.85567 0.7869 0.9884 0.0
C450 C 0.8292 0.79692 0.01103 0.0
C451 C 0.82501 0.82915 0.00739 0.0
C452 C 0.83638 0.84006 0.99426 0.0
H453 H 0.80894 1.00211 0.05388 0.0
H454 H 0.82603 0.94954 0.04559 0.0
C455 C 0.85127 0.81919 0.98483 0.0
C456 C 0.80983 0.852 0.01737 0.0
H457 H 0.75434 0.91131 0.01848 0.0
C458 C 0.82338 0.85656 0.03086 0.0
C459 C 0.78351 0.87094 0.01324 0.0
C460 C 0.76606 0.86556 0.99943 0.0
C461 C 0.81247 0.88083 0.03997 0.0
C462 C 0.78796 0.90159 0.03529 0.0
C463 C 0.77334 0.89575 0.02211 0.0
C464 C 0.77815 0.93069 0.04326 0.0
C465 C 0.82746 0.88392 0.05446 0.0
C466 C 0.7456 0.93773 0.04497 0.0
C467 C 0.73589 0.96808 0.04929 0.0
C468 C 0.75853 0.99174 0.05235 0.0
C469 C 0.79107 0.98401 0.05186 0.0
C470 C 0.80083 0.95385 0.04716 0.0
H471 H 0.83577 0.86038 0.05842 0.0
H472 H 0.84863 0.89971 0.05372 0.0
H473 H 0.81055 0.89418 0.06229 0.0
H474 H 0.7276 0.92037 0.04208 0.0
H475 H 0.71064 0.97361 0.04949 0.0
H476 H 0.8216 0.15299 0.03779 0.0
H477 H 0.86036 0.17427 0.02102 0.0
H478 H 0.79939 0.14781 0.98611 0.0
H479 H 0.76 0.12662 1.00291 0.0
H480 H 0.89039 0.13697 1.0 0.0
H481 H 0.82594 0.2408 0.9768 0.0
H482 H 0.81389 0.22258 0.99332 0.0
H483 H 0.80571 0.20295 0.9768 0.0
C484 C 0.81611 0.15204 0.02656 0.0
C485 C 0.78769 0.13798 0.0217 0.0
C486 C 0.83837 0.16418 0.01698 0.0
C487 C 0.83278 0.16263 1.00233 0.0
C488 C 0.80401 0.14957 0.99739 0.0
H489 H 0.00651 0.19962 0.95163 0.0
H490 H 0.95478 0.17515 0.95728 0.0
C491 C 0.78155 0.13745 0.00701 0.0
C492 C 0.8582 0.17312 0.99242 0.0
H493 H 0.87882 0.23244 0.96935 0.0
C494 C 0.88779 0.15755 0.99311 0.0
C495 C 0.8546 0.19992 0.98346 0.0
C496 C 0.82344 0.21778 0.98253 0.0
C497 C 0.91442 0.16903 0.98569 0.0
C498 C 0.91118 0.19653 0.97708 0.0
C499 C 0.88115 0.21119 0.97584 0.0
C500 C 0.93958 0.21318 0.97128 0.0
C501 C 0.94623 0.15287 0.98789 0.0
C502 C 0.94733 0.2434 0.97661 0.0
C503 C 0.97654 0.25742 0.97334 0.0
C504 C 0.99874 0.24156 0.96465 0.0
C505 C 0.99001 0.21234 0.95842 0.0
C506 C 0.96057 0.19825 0.96172 0.0
H507 H 0.94553 0.13514 0.99666 0.0
H508 H 0.95318 0.14021 0.97803 0.0
H509 H 0.965 0.17073 0.99033 0.0
H510 H 0.93148 0.25544 0.98395 0.0
H511 H 0.98228 0.28015 0.97817 0.0
H512 H 0.65233 0.82448 0.78633 0.0
H513 H 0.67556 0.86217 0.76957 0.0
H514 H 0.67285 0.79085 0.73666 0.0
H515 H 0.64951 0.75258 0.75344 0.0
H516 H 0.73113 0.8295 0.73795 0.0
H517 H 0.62062 0.90192 0.73714 0.0
H518 H 0.63461 0.89348 0.75476 0.0
H519 H 0.62161 0.86131 0.74354 0.0
C520 C 0.65692 0.81656 0.77558 0.0
C521 C 0.64872 0.78555 0.77121 0.0
C522 C 0.67007 0.83823 0.766 0.0
C523 C 0.67525 0.82947 0.75183 0.0
C524 C 0.66873 0.7981 0.74754 0.0
H525 H 0.7137 0.99583 0.69781 0.0
H526 H 0.69386 0.94231 0.70367 0.0
C527 C 0.65548 0.77628 0.75716 0.0
C528 C 0.68658 0.85372 0.74157 0.0
H529 H 0.66825 0.92779 0.72902 0.0
C530 C 0.71723 0.85076 0.73575 0.0
C531 C 0.66809 0.88105 0.73844 0.0
C532 C 0.63426 0.88457 0.74367 0.0
C533 C 0.73076 0.8756 0.72774 0.0
C534 C 0.71332 0.90419 0.72573 0.0
C535 C 0.68178 0.90603 0.73064 0.0
C536 C 0.72841 0.93384 0.72033 0.0
C537 C 0.76391 0.87129 0.72184 0.0
C538 C 0.75464 0.94664 0.72759 0.0
C539 C 0.7659 0.97703 0.7243 0.0
C540 C 0.75104 0.99552 0.71373 0.0
C541 C 0.72571 0.98216 0.70597 0.0
C542 C 0.71434 0.95161 0.70932 0.0
H543 H 0.76879 0.84577 0.7195 0.0
H544 H 0.76744 0.88542 0.71199 0.0
H545 H 0.78159 0.87925 0.72985 0.0
H546 H 0.76541 0.93385 0.73635 0.0
H547 H 0.78553 0.98652 0.73046 0.0
H548 H 0.00586 0.30317 0.30799 0.0
H549 H 0.95313 0.32574 0.30256 0.0
H550 H 0.9354 0.24859 0.27334 0.0
H551 H 0.9872 0.22584 0.27883 0.0
H552 H 0.93629 0.34715 0.2767 0.0
H553 H 0.85006 0.25459 0.29258 0.0
H554 H 0.89076 0.25477 0.29889 0.0
H555 H 0.88104 0.23751 0.28191 0.0
C556 C 0.99032 0.29062 0.30071 0.0
C557 C 1.00082 0.26282 0.29378 0.0
C558 C 0.96024 0.30355 0.29759 0.0
C559 C 0.94007 0.28863 0.28768 0.0
C560 C 0.95006 0.26015 0.28128 0.0
H561 H 0.82508 0.36008 0.22213 0.0
H562 H 0.86447 0.33842 0.23853 0.0
C563 C 0.97997 0.24734 0.28433 0.0
C564 C 0.91064 0.30454 0.28247 0.0
H565 H 0.83335 0.28934 0.27312 0.0
C566 C 0.91358 0.3348 0.27623 0.0
C567 C 0.88082 0.2887 0.28197 0.0
C568 C 0.87541 0.25724 0.28935 0.0
C569 C 0.8883 0.34853 0.26862 0.0
C570 C 0.85951 0.33133 0.267 0.0
C571 C 0.85567 0.30221 0.27413 0.0
C572 C 0.8343 0.34223 0.25707 0.0
C573 C 0.89299 0.381 0.26202 0.0
C574 C 0.80367 0.35014 0.26195 0.0
C575 C 0.78084 0.36243 0.25253 0.0
C576 C 0.78831 0.36682 0.23809 0.0
C577 C 0.81855 0.35734 0.23319 0.0
C578 C 0.84122 0.34511 0.24257 0.0
H579 H 0.91171 0.39481 0.26767 0.0
H580 H 0.90072 0.37806 0.25083 0.0
H581 H 0.87047 0.39497 0.26211 0.0
H582 H 0.79777 0.34776 0.27309 0.0
H583 H 0.75777 0.36943 0.25666 0.0
H584 H 0.30837 0.00415 0.69916 0.0
H585 H 0.33202 0.05634 0.70468 0.0
H586 H 0.25204 0.07815 0.73178 0.0
H587 H 0.22816 0.02686 0.72617 0.0
H588 H 0.27394 0.13136 0.71681 0.0
H589 H 0.37247 0.06628 0.74405 0.0
H590 H 0.36705 0.05833 0.72546 0.0
H591 H 0.33701 0.04624 0.73794 0.0
C592 C 0.29554 0.02041 0.70603 0.0
C593 C 0.26667 0.01113 0.71242 0.0
C594 C 0.30915 0.05012 0.70924 0.0
C595 C 0.29407 0.07086 0.71886 0.0
C596 C 0.26418 0.06252 0.72437 0.0
H597 H 0.34916 0.18896 0.7856 0.0
H598 H 0.32845 0.15087 0.76842 0.0
C599 C 0.25065 0.03302 0.72121 0.0
C600 C 0.31032 0.09957 0.72457 0.0
H601 H 0.36938 0.12129 0.74757 0.0
C602 C 0.29521 0.12938 0.7233 0.0
C603 C 0.33787 0.09678 0.73318 0.0
C604 C 0.35455 0.06522 0.73537 0.0
C605 C 0.30608 0.15611 0.73091 0.0
C606 C 0.3328 0.1529 0.73993 0.0
C607 C 0.34887 0.12358 0.74062 0.0
C608 C 0.34248 0.17826 0.75 0.0
C609 C 0.28787 0.18707 0.72996 0.0
C610 C 0.35657 0.20677 0.74532 0.0
C611 C 0.36843 0.22885 0.75519 0.0
C612 C 0.36655 0.22255 0.76985 0.0
C613 C 0.3512 0.19454 0.77441 0.0
C614 C 0.33937 0.17267 0.7646 0.0
H615 H 0.26565 0.18468 0.72362 0.0
H616 H 0.2816 0.19567 0.74075 0.0
H617 H 0.30314 0.20547 0.72491 0.0
H618 H 0.35943 0.21138 0.73409 0.0
H619 H 0.38025 0.2501 0.75132 0.0
H620 H 1.00198 0.69752 0.30103 0.0
H621 H 0.05455 0.68052 0.29264 0.0
H622 H 0.0819 0.77902 0.28711 0.0
H623 H 0.02874 0.79581 0.29466 0.0
H624 H 0.09115 0.74986 0.26398 0.0
H625 H 0.14404 0.67412 0.30566 0.0
H626 H 0.10494 0.66009 0.30125 0.0
H627 H 0.1098 0.69912 0.309 0.0
C628 C 0.01966 0.71548 0.29849 0.0
C629 C 0.01144 0.74793 0.29848 0.0
C630 C 0.04982 0.70578 0.29374 0.0
C631 C 0.07248 0.72845 0.2893 0.0
C632 C 0.06492 0.76102 0.29042 0.0
H633 H 0.25469 0.66133 0.25274 0.0
H634 H 0.21651 0.68831 0.26844 0.0
C635 C 0.0346 0.77063 0.2948 0.0
C636 C 0.10175 0.71842 0.28151 0.0
H637 H 0.16342 0.66508 0.28167 0.0
C638 C 0.10724 0.73175 0.26804 0.0
C639 C 0.12319 0.69509 0.28674 0.0
C640 C 0.12037 0.68158 0.30153 0.0
C641 C 0.1325 0.72146 0.25944 0.0
C642 C 0.15227 0.6963 0.26418 0.0
C643 C 0.14793 0.68403 0.27793 0.0
C644 C 0.17593 0.68098 0.25462 0.0
C645 C 0.1375 0.73757 0.24528 0.0
C646 C 0.16579 0.66779 0.24171 0.0
C647 C 0.18747 0.65276 0.2327 0.0
C648 C 0.21982 0.65005 0.23648 0.0
C649 C 0.23001 0.66319 0.24946 0.0
C650 C 0.20821 0.67848 0.25847 0.0
H651 H 0.12855 0.76252 0.24544 0.0
H652 H 0.16308 0.73785 0.24224 0.0
H653 H 0.12395 0.72451 0.237 0.0
H654 H 0.14089 0.66865 0.23867 0.0
H655 H 0.17862 0.64265 0.22288 0.0
H656 H 0.68778 0.49611 0.54954 0.0
H657 H 0.66834 0.54771 0.5408 0.0
H658 H 0.76503 0.58265 0.53905 0.0
H659 H 0.78455 0.5306 0.54699 0.0
H660 H 0.67067 0.61117 0.54663 0.0
H661 H 0.74047 0.58506 0.49792 0.0
H662 H 0.73585 0.5564 0.512 0.0
H663 H 0.76456 0.58813 0.51358 0.0
C664 C 0.70474 0.51516 0.54769 0.0
C665 C 0.73763 0.5094 0.54877 0.0
C666 C 0.69365 0.5446 0.54265 0.0
C667 C 0.71533 0.56871 0.53883 0.0
C668 C 0.74795 0.56407 0.54149 0.0
H669 H 0.6465 0.75104 0.50221 0.0
H670 H 0.67166 0.7127 0.51844 0.0
C671 C 0.75906 0.53446 0.54616 0.0
C672 C 0.70425 0.59685 0.53057 0.0
H673 H 0.71274 0.63368 0.49846 0.0
C674 C 0.67995 0.61625 0.53613 0.0
C675 C 0.71604 0.60314 0.51675 0.0
C676 C 0.74042 0.58194 0.50963 0.0
C677 C 0.66681 0.64146 0.52816 0.0
C678 C 0.67889 0.64788 0.51441 0.0
C679 C 0.70368 0.62892 0.50903 0.0
C680 C 0.66428 0.67186 0.50476 0.0
C681 C 0.63922 0.66001 0.53428 0.0
C682 C 0.6528 0.66194 0.49149 0.0
C683 C 0.63911 0.68376 0.48214 0.0
C684 C 0.63631 0.71614 0.48583 0.0
C685 C 0.64818 0.72625 0.49906 0.0
C686 C 0.66227 0.70431 0.50841 0.0
H687 H 0.62816 0.64747 0.54343 0.0
H688 H 0.6479 0.68352 0.53806 0.0
H689 H 0.62059 0.66425 0.52612 0.0
H690 H 0.65412 0.63708 0.4884 0.0
H691 H 0.63017 0.67501 0.47208 0.0
H692 H 0.75299 0.37405 0.49896 0.0
H693 H 0.71689 0.35148 0.48101 0.0
H694 H 0.65086 0.32467 0.51396 0.0
H695 H 0.68643 0.34678 0.53187 0.0
H696 H 0.68394 0.2839 0.48023 0.0
H697 H 0.60406 0.38907 0.48483 0.0
H698 H 0.64579 0.39031 0.48962 0.0
H699 H 0.61726 0.37251 0.50144 0.0
C700 C 0.73103 0.36286 0.50239 0.0
C701 C 0.7225 0.3625 0.51686 0.0
C702 C 0.71046 0.35006 0.49213 0.0
C703 C 0.68112 0.33685 0.4962 0.0
C704 C 0.6733 0.33508 0.51063 0.0
H705 H 0.52926 0.22265 0.47376 0.0
H706 H 0.58165 0.24431 0.4791 0.0
C707 C 0.69373 0.34773 0.52085 0.0
C708 C 0.65746 0.32623 0.48555 0.0
H709 H 0.58166 0.34215 0.47453 0.0
C710 C 0.66182 0.29688 0.47869 0.0
C711 C 0.62892 0.3435 0.48339 0.0
C712 C 0.62369 0.37576 0.4901 0.0
C713 C 0.63726 0.28325 0.47054 0.0
C714 C 0.6076 0.29926 0.46944 0.0
C715 C 0.60429 0.32975 0.4754 0.0
C716 C 0.57842 0.28323 0.46406 0.0
C717 C 0.64297 0.2514 0.46356 0.0
C718 C 0.559 0.29776 0.45374 0.0
C719 C 0.52868 0.28541 0.45069 0.0
C720 C 0.51716 0.25867 0.4581 0.0
C721 C 0.53734 0.24335 0.46789 0.0
C722 C 0.56755 0.25553 0.47086 0.0
H723 H 0.66855 0.24833 0.46079 0.0
H724 H 0.63648 0.2321 0.47108 0.0
H725 H 0.6284 0.24865 0.45379 0.0
H726 H 0.56679 0.31936 0.44847 0.0
H727 H 0.51365 0.29783 0.44315 0.0
H728 H 0.31798 0.50936 0.55025 0.0
H729 H 0.33739 0.45797 0.54129 0.0
H730 H 0.24066 0.42326 0.53921 0.0
H731 H 0.22118 0.47512 0.5474 0.0
H732 H 0.33487 0.39431 0.54677 0.0
H733 H 0.26555 0.42206 0.49809 0.0
H734 H 0.27014 0.45029 0.51234 0.0
H735 H 0.24131 0.4186 0.51369 0.0
C736 C 0.30101 0.49039 0.5483 0.0
C737 C 0.26811 0.49618 0.54936 0.0
C738 C 0.31207 0.46108 0.54312 0.0
C739 C 0.29038 0.43712 0.53914 0.0
C740 C 0.25775 0.44174 0.54177 0.0
H741 H 0.35865 0.25543 0.50182 0.0
H742 H 0.33363 0.29358 0.51815 0.0
C743 C 0.24666 0.47123 0.54659 0.0
C744 C 0.30146 0.4092 0.53074 0.0
H745 H 0.29307 0.3733 0.49842 0.0
C746 C 0.32565 0.38955 0.53622 0.0
C747 C 0.28976 0.40335 0.51686 0.0
C748 C 0.26551 0.42484 0.50982 0.0
C749 C 0.33875 0.36451 0.52815 0.0
C750 C 0.32674 0.35851 0.51435 0.0
C751 C 0.30208 0.37773 0.50903 0.0
C752 C 0.34124 0.33464 0.50462 0.0
C753 C 0.36622 0.34569 0.53422 0.0
C754 C 0.35279 0.34474 0.49138 0.0
C755 C 0.3664 0.32302 0.48196 0.0
C756 C 0.36905 0.29056 0.48556 0.0
C757 C 0.3571 0.28027 0.49875 0.0
C758 C 0.34308 0.30211 0.50816 0.0
H759 H 0.37734 0.358 0.54341 0.0
H760 H 0.3574 0.32217 0.53792 0.0
H761 H 0.38485 0.34148 0.52605 0.0
H762 H 0.3516 0.36966 0.48837 0.0
H763 H 0.37541 0.3319 0.47194 0.0
H764 H 0.49191 0.70869 0.44349 0.0
H765 H 0.43894 0.68681 0.44886 0.0
H766 H 0.42372 0.76176 0.47948 0.0
H767 H 0.47596 0.78376 0.4741 0.0
H768 H 0.42446 0.66394 0.47496 0.0
H769 H 0.33672 0.75703 0.46127 0.0
H770 H 0.3768 0.75701 0.45422 0.0
H771 H 0.36874 0.77355 0.47151 0.0
C772 C 0.47683 0.72101 0.45104 0.0
C773 C 0.48821 0.74782 0.45844 0.0
C774 C 0.4466 0.70847 0.45412 0.0
C775 C 0.42715 0.72286 0.46445 0.0
C776 C 0.43786 0.75064 0.47123 0.0
H777 H 0.32042 0.65774 0.53243 0.0
H778 H 0.35589 0.67987 0.51449 0.0
C779 C 0.46797 0.76302 0.46824 0.0
C780 C 0.39813 0.70662 0.46988 0.0
H781 H 0.32177 0.72139 0.48077 0.0
C782 C 0.40173 0.67616 0.47586 0.0
C783 C 0.36836 0.72239 0.47101 0.0
C784 C 0.36234 0.75417 0.46401 0.0
C785 C 0.37728 0.66224 0.4839 0.0
C786 C 0.34863 0.6793 0.4861 0.0
C787 C 0.34398 0.70858 0.47921 0.0
C788 C 0.32513 0.66853 0.49679 0.0
C789 C 0.38282 0.63001 0.49059 0.0
C790 C 0.29553 0.65582 0.49277 0.0
C791 C 0.275 0.64301 0.50306 0.0
C792 C 0.28384 0.64289 0.51749 0.0
C793 C 0.31288 0.65716 0.52143 0.0
C794 C 0.33327 0.6698 0.51119 0.0
H795 H 0.40227 0.61673 0.48517 0.0
H796 H 0.38972 0.6333 0.50187 0.0
H797 H 0.36075 0.61539 0.4903 0.0
H798 H 0.28883 0.65481 0.48168 0.0
H799 H 0.25281 0.63223 0.49966 0.0
H800 H 0.36857 0.28051 0.40596 0.0
H801 H 0.3253 0.27403 0.38881 0.0
H802 H 0.30109 0.18337 0.40751 0.0
H803 H 0.34441 0.18967 0.42479 0.0
H804 H 0.31234 0.22387 0.36873 0.0
H805 H 0.21728 0.23674 0.40954 0.0
H806 H 0.25813 0.24822 0.41279 0.0
H807 H 0.24713 0.20685 0.4129 0.0
C808 C 0.35428 0.25902 0.40637 0.0
C809 C 0.3599 0.23568 0.41681 0.0
C810 C 0.32953 0.25536 0.39654 0.0
C811 C 0.30968 0.22845 0.397 0.0
C812 C 0.31584 0.20455 0.40709 0.0
H813 H 0.16685 0.18741 0.33091 0.0
H814 H 0.20925 0.18115 0.34864 0.0
C815 C 0.34075 0.2081 0.4169 0.0
C816 C 0.28208 0.22607 0.38714 0.0
H817 H 0.20059 0.22855 0.38594 0.0
C818 C 0.28789 0.22458 0.37248 0.0
C819 C 0.25021 0.2274 0.39206 0.0
C820 C 0.2426 0.23013 0.40767 0.0
C821 C 0.26272 0.2246 0.36261 0.0
C822 C 0.23084 0.22594 0.36754 0.0
C823 C 0.22502 0.22721 0.3822 0.0
C824 C 0.20342 0.22832 0.35758 0.0
C825 C 0.27041 0.22433 0.34697 0.0
C826 C 0.18534 0.25646 0.35704 0.0
C827 C 0.16112 0.2601 0.34695 0.0
C828 C 0.15427 0.23554 0.33724 0.0
C829 C 0.17149 0.20679 0.33821 0.0
C830 C 0.19588 0.20325 0.34828 0.0
H831 H 0.29606 0.22908 0.34491 0.0
H832 H 0.26447 0.20058 0.3425 0.0
H833 H 0.25595 0.24245 0.34125 0.0
H834 H 0.19065 0.27607 0.36415 0.0
H835 H 0.14832 0.28253 0.34653 0.0
H836 H 0.29461 0.65777 0.59408 0.0
H837 H 0.28811 0.70078 0.61132 0.0
H838 H 0.18642 0.69942 0.6047 0.0
H839 H 0.19266 0.6563 0.58727 0.0
H840 H 0.25503 0.76293 0.604 0.0
H841 H 0.2022 0.69678 0.6496 0.0
H842 H 0.22617 0.67706 0.63629 0.0
H843 H 0.18647 0.68977 0.63207 0.0
C844 C 0.27076 0.66626 0.59638 0.0
C845 C 0.24413 0.65352 0.58927 0.0
C846 C 0.26713 0.69094 0.60622 0.0
C847 C 0.23681 0.70322 0.60931 0.0
C848 C 0.21002 0.69009 0.60254 0.0
H849 H 0.19122 0.85172 0.67215 0.0
H850 H 0.1859 0.81092 0.65362 0.0
C851 C 0.21364 0.66547 0.59259 0.0
C852 C 0.23374 0.73082 0.61908 0.0
H853 H 0.21191 0.75158 0.65276 0.0
C854 C 0.24541 0.76054 0.61463 0.0
C855 C 0.22086 0.7277 0.63287 0.0
C856 C 0.20826 0.69615 0.63812 0.0
C857 C 0.24503 0.78716 0.62369 0.0
C858 C 0.23349 0.78377 0.63774 0.0
C859 C 0.22085 0.75422 0.64203 0.0
C860 C 0.23615 0.80992 0.64839 0.0
C861 C 0.25691 0.8187 0.61806 0.0
C862 C 0.26611 0.82296 0.65164 0.0
C863 C 0.26917 0.84638 0.6621 0.0
C864 C 0.24238 0.85708 0.66973 0.0
C865 C 0.2123 0.84419 0.66642 0.0
C866 C 0.20924 0.82077 0.65587 0.0
H867 H 0.2544 0.82007 0.60633 0.0
H868 H 0.24382 0.83902 0.62287 0.0
H869 H 0.28261 0.82124 0.62062 0.0
H870 H 0.28737 0.81446 0.64632 0.0
H871 H 0.29275 0.85549 0.66446 0.0
H872 H 0.6375 0.72641 0.40652 0.0
H873 H 0.68132 0.73274 0.38965 0.0
H874 H 0.7049 0.82358 0.40831 0.0
H875 H 0.66105 0.81742 0.42532 0.0
H876 H 0.69518 0.7823 0.36953 0.0
H877 H 0.78854 0.77047 0.41117 0.0
H878 H 0.74754 0.75919 0.41417 0.0
H879 H 0.75866 0.80053 0.41415 0.0
C880 C 0.65176 0.74792 0.40697 0.0
C881 C 0.64583 0.77134 0.41734 0.0
C882 C 0.67682 0.75149 0.3973 0.0
C883 C 0.69668 0.7784 0.39785 0.0
C884 C 0.69017 0.8024 0.40784 0.0
H885 H 0.84209 0.81792 0.33267 0.0
H886 H 0.79876 0.82451 0.34992 0.0
C887 C 0.66495 0.79893 0.41749 0.0
C888 C 0.72467 0.78061 0.3882 0.0
H889 H 0.8062 0.77829 0.38769 0.0
C890 C 0.71946 0.78173 0.37349 0.0
C891 C 0.75634 0.77947 0.39339 0.0
C892 C 0.76332 0.77711 0.40907 0.0
C893 C 0.74505 0.7815 0.36383 0.0
C894 C 0.77671 0.78035 0.36902 0.0
C895 C 0.78193 0.77948 0.38374 0.0
C896 C 0.80456 0.77777 0.35932 0.0
C897 C 0.73799 0.78132 0.34813 0.0
C898 C 0.82293 0.74979 0.3592 0.0
C899 C 0.84769 0.74597 0.34939 0.0
C900 C 0.85481 0.77019 0.33955 0.0
C901 C 0.83724 0.79879 0.34009 0.0
C902 C 0.81232 0.80252 0.34987 0.0
H903 H 0.71246 0.7763 0.34589 0.0
H904 H 0.74389 0.80502 0.34358 0.0
H905 H 0.75282 0.7632 0.34262 0.0
H906 H 0.81746 0.73044 0.36643 0.0
H907 H 0.86075 0.72367 0.34931 0.0
H908 H 0.71917 0.14745 0.66246 0.0
H909 H 0.72415 0.19045 0.64508 0.0
H910 H 0.82325 0.20189 0.65604 0.0
H911 H 0.81851 0.15889 0.67363 0.0
H912 H 0.7522 0.25779 0.65448 0.0
H913 H 0.81225 0.19538 0.6096 0.0
H914 H 0.78652 0.17418 0.62176 0.0
H915 H 0.8248 0.18778 0.62761 0.0
C916 C 0.74219 0.15874 0.66107 0.0
C917 C 0.76845 0.14969 0.66947 0.0
C918 C 0.74494 0.18338 0.65114 0.0
C919 C 0.77404 0.19928 0.64928 0.0
C920 C 0.80062 0.18976 0.65729 0.0
H921 H 0.81373 0.3505 0.58699 0.0
H922 H 0.82042 0.30955 0.60538 0.0
C923 C 0.79786 0.16518 0.66732 0.0
C924 C 0.77582 0.22702 0.63954 0.0
H925 H 0.79762 0.249 0.60602 0.0
C926 C 0.76233 0.256 0.64392 0.0
C927 C 0.78936 0.22464 0.62587 0.0
C928 C 0.80408 0.19388 0.62079 0.0
C929 C 0.76152 0.28263 0.63486 0.0
C930 C 0.77373 0.27991 0.62089 0.0
C931 C 0.78815 0.25112 0.61669 0.0
C932 C 0.7701 0.30596 0.61025 0.0
C933 C 0.74771 0.31344 0.64041 0.0
C934 C 0.73964 0.31757 0.60681 0.0
C935 C 0.73579 0.34109 0.59644 0.0
C936 C 0.76229 0.35331 0.58907 0.0
C937 C 0.79284 0.34176 0.59252 0.0
C938 C 0.79669 0.31826 0.60299 0.0
H939 H 0.74969 0.31488 0.65216 0.0
H940 H 0.75984 0.33447 0.63571 0.0
H941 H 0.722 0.3146 0.63766 0.0
H942 H 0.71865 0.30791 0.61195 0.0
H943 H 0.71188 0.34912 0.59396 0.0
H944 H 0.15661 0.21648 0.91765 0.0
H945 H 0.19809 0.2223 0.8997 0.0
H946 H 0.19787 0.3242 0.90595 0.0
H947 H 0.15675 0.31846 0.92429 0.0
H948 H 0.20012 0.25366 0.87472 0.0
H949 H 0.29141 0.30374 0.9112 0.0
H950 H 0.25465 0.28652 0.91753 0.0
H951 H 0.25501 0.3262 0.91029 0.0
C952 C 0.16521 0.2402 0.91519 0.0
C953 C 0.15344 0.267 0.92249 0.0
C954 C 0.189 0.24348 0.9049 0.0
C955 C 0.20164 0.27361 0.90164 0.0
C956 C 0.18913 0.3006 0.90852 0.0
H957 H 0.3507 0.31738 0.83847 0.0
H958 H 0.30756 0.32301 0.85596 0.0
C959 C 0.16538 0.29732 0.91891 0.0
C960 C 0.22796 0.27629 0.89107 0.0
H961 H 0.30606 0.29843 0.8871 0.0
C962 C 0.2232 0.26361 0.87743 0.0
C963 C 0.2582 0.28924 0.89458 0.0
C964 C 0.26535 0.30196 0.90922 0.0
C965 C 0.24783 0.26313 0.86732 0.0
C966 C 0.27811 0.27552 0.87093 0.0
C967 C 0.28275 0.28903 0.88439 0.0
C968 C 0.30562 0.27278 0.86108 0.0
C969 C 0.24147 0.24903 0.85287 0.0
C970 C 0.31929 0.24283 0.85847 0.0
C971 C 0.344 0.23956 0.84862 0.0
C972 C 0.35553 0.26619 0.84111 0.0
C973 C 0.34241 0.29639 0.84407 0.0
C974 C 0.31775 0.29966 0.85403 0.0
H975 H 0.21554 0.24629 0.85077 0.0
H976 H 0.25206 0.26419 0.84442 0.0
H977 H 0.25275 0.22512 0.85221 0.0
H978 H 0.31044 0.22183 0.8639 0.0
H979 H 0.35349 0.21594 0.84663 0.0
H980 H 0.23092 0.64027 0.1577 0.0
H981 H 0.23732 0.68288 0.14023 0.0
H982 H 0.32689 0.70936 0.15933 0.0
H983 H 0.32064 0.66675 0.17694 0.0
H984 H 0.28438 0.76088 0.15546 0.0
H985 H 0.29747 0.69082 0.10591 0.0
H986 H 0.2636 0.67953 0.11643 0.0
H987 H 0.30317 0.67357 0.12329 0.0
C988 C 0.25227 0.65478 0.15807 0.0
C989 C 0.27531 0.64999 0.16872 0.0
C990 C 0.25594 0.6791 0.14802 0.0
C991 C 0.28273 0.69916 0.14837 0.0
C992 C 0.3061 0.69408 0.15881 0.0
H993 H 0.319 0.84238 0.08218 0.0
H994 H 0.32627 0.79973 0.09972 0.0
C995 C 0.30254 0.66961 0.16883 0.0
C996 C 0.28516 0.72665 0.13843 0.0
H997 H 0.28575 0.74629 0.10322 0.0
C998 C 0.28503 0.75769 0.14404 0.0
C999 C 0.28631 0.72252 0.12353 0.0
C1000 C 0.28796 0.68982 0.1169 0.0
C1001 C 0.2848 0.78465 0.13515 0.0
C1002 C 0.28443 0.7805 0.12025 0.0
C1003 C 0.2858 0.74948 0.11464 0.0
C1004 C 0.28122 0.80789 0.1103 0.0
C1005 C 0.28483 0.81739 0.14179 0.0
C1006 C 0.25357 0.82678 0.11046 0.0
C1007 C 0.24931 0.85109 0.10045 0.0
C1008 C 0.27262 0.85706 0.09004 0.0
C1009 C 0.30067 0.83859 0.09011 0.0
C1010 C 0.30481 0.81411 0.10008 0.0
H1011 H 0.29394 0.81676 0.15286 0.0
H1012 H 0.29962 0.83425 0.13552 0.0
H1013 H 0.26006 0.82669 0.14206 0.0
H1014 H 0.23479 0.82211 0.11807 0.0
H1015 H 0.22735 0.8647 0.10067 0.0
H1016 H 0.83808 0.68842 0.92751 0.0
H1017 H 0.79571 0.68156 0.90982 0.0
H1018 H 0.81998 0.77232 0.89123 0.0
H1019 H 0.86228 0.77936 0.9088 0.0
H1020 H 0.74306 0.72348 0.90602 0.0
H1021 H 0.81425 0.71215 0.85667 0.0
H1022 H 0.83121 0.70632 0.87411 0.0
H1023 H 0.82479 0.74595 0.8674 0.0
C1024 C 0.83476 0.70667 0.91951 0.0
C1025 C 0.85365 0.73441 0.91956 0.0
C1026 C 0.81045 0.70276 0.90944 0.0
C1027 C 0.80484 0.72629 0.89912 0.0
C1028 C 0.82418 0.75361 0.89894 0.0
H1029 H 0.63972 0.7792 0.85067 0.0
H1030 H 0.68187 0.77236 0.86833 0.0
C1031 C 0.84831 0.75764 0.90904 0.0
C1032 C 0.77759 0.72339 0.8891 0.0
H1033 H 0.75862 0.72266 0.85383 0.0
C1034 C 0.74646 0.72295 0.89461 0.0
C1035 C 0.78201 0.72241 0.87422 0.0
C1036 C 0.81487 0.72143 0.86771 0.0
C1037 C 0.71966 0.72278 0.88563 0.0
C1038 C 0.7241 0.72329 0.87074 0.0
C1039 C 0.75522 0.72249 0.86524 0.0
C1040 C 0.69686 0.72606 0.8607 0.0
C1041 C 0.68681 0.72221 0.89214 0.0
C1042 C 0.69121 0.70231 0.85049 0.0
C1043 C 0.66699 0.7061 0.84037 0.0
C1044 C 0.64823 0.73395 0.84015 0.0
C1045 C 0.65358 0.75739 0.85057 0.0
C1046 C 0.67763 0.75348 0.86072 0.0
H1047 H 0.68738 0.71322 0.90323 0.0
H1048 H 0.67704 0.74681 0.89232 0.0
H1049 H 0.67037 0.70705 0.88583 0.0
H1050 H 0.70586 0.68103 0.85024 0.0
H1051 H 0.66367 0.68768 0.83245 0.0
H1052 H 0.69792 0.17608 0.07907 0.0
H1053 H 0.69371 0.22051 0.09585 0.0
H1054 H 0.76234 0.17467 0.12323 0.0
H1055 H 0.76809 0.13133 0.10605 0.0
H1056 H 0.67663 0.22998 0.12174 0.0
H1057 H 0.80525 0.25772 0.11886 0.0
H1058 H 0.7869 0.22867 0.10741 0.0
H1059 H 0.79901 0.21791 0.12515 0.0
C1060 C 0.71191 0.1754 0.08874 0.0
C1061 C 0.73361 0.15043 0.09118 0.0
C1062 C 0.70954 0.20086 0.09832 0.0
C1063 C 0.72847 0.20162 0.11065 0.0
C1064 C 0.74845 0.17546 0.11355 0.0
H1065 H 0.69852 0.33122 0.18209 0.0
H1066 H 0.69447 0.28812 0.16472 0.0
C1067 C 0.75145 0.15046 0.1038 0.0
C1068 C 0.7279 0.23 0.12024 0.0
H1069 H 0.77619 0.28307 0.1374 0.0
C1070 C 0.69841 0.24174 0.12507 0.0
C1071 C 0.75619 0.24605 0.12437 0.0
C1072 C 0.78855 0.23716 0.11854 0.0
C1073 C 0.69647 0.26852 0.13406 0.0
C1074 C 0.7249 0.28328 0.1389 0.0
C1075 C 0.75431 0.27177 0.13388 0.0
C1076 C 0.72509 0.31061 0.14911 0.0
C1077 C 0.66386 0.28108 0.1379 0.0
C1078 C 0.74417 0.33756 0.14642 0.0
C1079 C 0.74736 0.36169 0.15658 0.0
C1080 C 0.731 0.35983 0.16955 0.0
C1081 C 0.71096 0.33357 0.17207 0.0
C1082 C 0.70847 0.30896 0.16207 0.0
H1083 H 0.646 0.27505 0.12961 0.0
H1084 H 0.6559 0.26981 0.14795 0.0
H1085 H 0.66407 0.30736 0.13933 0.0
H1086 H 0.75727 0.3396 0.13655 0.0
H1087 H 0.76303 0.38162 0.15435 0.0
H1088 H 0.94207 0.89049 0.26561 0.0
H1089 H 0.96704 0.94306 0.26689 0.0
H1090 H 0.95613 0.94296 0.31239 0.0
H1091 H 0.93105 0.89017 0.31122 0.0
H1092 H 0.94586 1.00317 0.27961 0.0
H1093 H 0.05447 0.95202 0.30493 0.0
H1094 H 0.02539 0.92756 0.29591 0.0
H1095 H 0.0168 0.94328 0.3132 0.0
C1096 C 0.94441 0.90186 0.27588 0.0
C1097 C 0.93473 0.88606 0.28833 0.0
C1098 C 0.95875 0.93188 0.27659 0.0
C1099 C 0.96395 0.94657 0.28975 0.0
C1100 C 0.95274 0.93175 0.30214 0.0
H1101 H 0.07268 0.11927 0.30921 0.0
H1102 H 0.04453 0.06817 0.31093 0.0
C1103 C 0.93815 0.90173 0.30144 0.0
C1104 C 0.98244 0.97665 0.29042 0.0
H1105 H 0.05474 0.00718 0.30021 0.0
C1106 C 0.96959 0.00414 0.28417 0.0
C1107 C 0.01338 0.97776 0.29641 0.0
C1108 C 0.02858 0.9486 0.30293 0.0
C1109 C 0.98688 0.03279 0.28371 0.0
C1110 C 0.01823 0.0337 0.28932 0.0
C1111 C 0.03082 0.00637 0.29585 0.0
C1112 C 0.03837 0.06273 0.28826 0.0
C1113 C 0.97125 0.0619 0.27735 0.0
C1114 C 0.04563 0.07578 0.27493 0.0
C1115 C 0.06161 0.10491 0.27392 0.0
C1116 C 0.07103 0.12139 0.28622 0.0
C1117 C 0.06578 0.10716 0.29954 0.0
C1118 C 0.04955 0.07804 0.30054 0.0
H1119 H 0.94483 0.05983 0.27738 0.0
H1120 H 0.97806 0.08386 0.28319 0.0
H1121 H 0.97907 0.06451 0.26615 0.0
H1122 H 0.03805 0.0639 0.2653 0.0
H1123 H 0.06553 0.11508 0.26349 0.0
H1124 H 0.88751 0.07678 0.69756 0.0
H1125 H 0.94055 0.05234 0.69605 0.0
H1126 H 0.94508 0.04749 0.74171 0.0
H1127 H 0.89226 0.07188 0.74333 0.0
H1128 H 1.00352 0.06768 0.72745 0.0
H1129 H 0.95214 0.95541 0.70572 0.0
H1130 H 0.94206 0.99181 0.69664 0.0
H1131 H 0.92797 0.98527 0.71439 0.0
C1132 C 0.90008 0.07114 0.70728 0.0
C1133 C 0.88558 0.0761 0.72057 0.0
C1134 C 0.93024 0.05691 0.70639 0.0
C1135 C 0.9464 0.04757 0.71877 0.0
C1136 C 0.93287 0.05431 0.73204 0.0
H1137 H 0.11849 0.95126 0.74435 0.0
H1138 H 0.06694 0.97813 0.74275 0.0
C1139 C 0.90269 0.06832 0.73294 0.0
C1140 C 0.97673 0.02947 0.718 0.0
H1141 H 0.00771 0.95662 0.7093 0.0
C1142 C 0.00452 0.04347 0.72342 0.0
C1143 C 0.97789 0.99789 0.71271 0.0
C1144 C 0.94845 0.98147 0.7071 0.0
C1145 C 0.03351 0.0267 0.72374 0.0
C1146 C 0.03451 0.99477 0.71884 0.0
C1147 C 0.00685 0.98101 0.71312 0.0
C1148 C 0.06395 0.97521 0.71986 0.0
C1149 C 0.06287 0.04349 0.72921 0.0
C1150 C 0.07843 0.96282 0.7076 0.0
C1151 C 0.10778 0.94695 0.7085 0.0
C1152 C 0.12308 0.94326 0.72169 0.0
C1153 C 0.1075 0.95396 0.73401 0.0
C1154 C 0.07815 0.9696 0.73311 0.0
H1155 H 0.06032 0.06984 0.72861 0.0
H1156 H 0.06662 0.03701 0.74051 0.0
H1157 H 0.08441 0.03635 0.72313 0.0
H1158 H 0.06767 0.96656 0.69728 0.0
H1159 H 0.11919 0.93903 0.69881 0.0
H1160 H 0.05757 0.39163 0.99582 0.0
H1161 H 0.03195 0.44377 0.99373 0.0
H1162 H 0.04605 0.44195 0.94842 0.0
H1163 H 0.0718 0.38955 0.95039 0.0
H1164 H 0.05401 0.50319 0.98101 0.0
H1165 H 0.94738 0.45183 0.95423 0.0
H1166 H 0.97565 0.42749 0.96381 0.0
H1167 H 0.98564 0.44274 0.94658 0.0
C1168 C 0.0557 0.40249 0.98542 0.0
C1169 C 0.06658 0.38636 0.97326 0.0
C1170 C 0.04099 0.43228 0.98425 0.0
C1171 C 0.0366 0.4464 0.97091 0.0
C1172 C 0.04879 0.43116 0.9588 0.0
H1173 H 0.93132 0.61936 0.94834 0.0
H1174 H 0.95884 0.56779 0.94753 0.0
C1175 C 0.06375 0.40138 0.95996 0.0
C1176 C 0.01824 0.47653 0.96975 0.0
H1177 H 0.94702 0.50719 0.95852 0.0
C1178 C 0.03069 0.50414 0.97604 0.0
C1179 C 0.98785 0.47763 0.96324 0.0
C1180 C 0.97308 0.44836 0.95664 0.0
C1181 C 0.01353 0.53291 0.97601 0.0
C1182 C 0.9827 0.53383 0.96986 0.0
C1183 C 0.97054 0.50636 0.9633 0.0
C1184 C 0.96272 0.56308 0.97034 0.0
C1185 C 0.02878 0.56214 0.98245 0.0
C1186 C 0.95436 0.57672 0.98342 0.0
C1187 C 0.93872 0.60612 0.98391 0.0
C1188 C 0.93077 0.62231 0.97133 0.0
C1189 C 0.93707 0.60749 0.95823 0.0
C1190 C 0.95294 0.5781 0.95774 0.0
H1191 H 0.05516 0.55986 0.98292 0.0
H1192 H 0.0227 0.58392 0.9763 0.0
H1193 H 0.01992 0.56524 0.99346 0.0
H1194 H 0.96086 0.56509 0.99327 0.0
H1195 H 0.93399 0.61675 0.99418 0.0
H1196 H 0.38296 0.95252 0.01465 0.0
H1197 H 0.43529 0.9779 0.01575 0.0
H1198 H 0.44438 0.9505 0.05966 0.0
H1199 H 0.39166 0.92511 0.05873 0.0
H1200 H 0.44948 0.02944 0.03761 0.0
H1201 H 0.53111 0.92448 0.03829 0.0
H1202 H 0.49151 0.92243 0.03077 0.0
H1203 H 0.49651 0.92383 0.04965 0.0
C1204 C 0.39624 0.95132 0.0245 0.0
C1205 C 0.38307 0.9368 0.03663 0.0
C1206 C 0.4261 0.96599 0.02511 0.0
C1207 C 0.44355 0.96615 0.03779 0.0
C1208 C 0.43123 0.9505 0.04976 0.0
H1209 H 0.61084 0.08235 0.05853 0.0
H1210 H 0.55769 0.05783 0.05907 0.0
C1211 C 0.40118 0.93593 0.04919 0.0
C1212 C 0.4738 0.98425 0.03858 0.0
H1213 H 0.55469 0.97544 0.03944 0.0
C1214 C 0.47252 0.01771 0.03811 0.0
C1215 C 0.50368 0.96877 0.03916 0.0
C1216 C 0.50611 0.93288 0.03944 0.0
C1217 C 0.5005 0.03614 0.03812 0.0
C1218 C 0.53038 0.02064 0.03858 0.0
C1219 C 0.53165 0.98719 0.03914 0.0
C1220 C 0.56074 0.03858 0.03782 0.0
C1221 C 0.4981 0.07198 0.03727 0.0
C1222 C 0.57958 0.03647 0.02558 0.0
C1223 C 0.60971 0.05061 0.02518 0.0
C1224 C 0.62175 0.06688 0.0371 0.0
C1225 C 0.60221 0.07015 0.04915 0.0
C1226 C 0.5719 0.05608 0.0495 0.0
H1227 H 0.47326 0.08015 0.03536 0.0
H1228 H 0.50662 0.08255 0.04737 0.0
H1229 H 0.51361 0.08113 0.02862 0.0
H1230 H 0.5713 0.02311 0.01645 0.0
H1231 H 0.62408 0.04758 0.01573 0.0
H1232 H 0.43292 0.39046 0.81207 0.0
H1233 H 0.45697 0.44373 0.81324 0.0
H1234 H 0.47086 0.44262 0.76791 0.0
H1235 H 0.44695 0.38962 0.76663 0.0
H1236 H 0.52117 0.45617 0.80381 0.0
H1237 H 0.43272 0.53184 0.77575 0.0
H1238 H 0.4227 0.49342 0.78321 0.0
H1239 H 0.44324 0.49588 0.7665 0.0
C1240 C 0.44033 0.40192 0.80231 0.0
C1241 C 0.438 0.38583 0.78926 0.0
C1242 C 0.45425 0.43225 0.80302 0.0
C1243 C 0.46557 0.44715 0.79066 0.0
C1244 C 0.46191 0.43175 0.77755 0.0
H1245 H 0.56956 0.61523 0.76637 0.0
H1246 H 0.54339 0.5633 0.76782 0.0
C1247 C 0.44827 0.4014 0.77685 0.0
C1248 C 0.48356 0.47753 0.79148 0.0
H1249 H 0.48436 0.55409 0.77921 0.0
C1250 C 0.51302 0.47774 0.79858 0.0
C1251 C 0.47293 0.50548 0.78456 0.0
C1252 C 0.44104 0.50688 0.77717 0.0
C1253 C 0.53267 0.5049 0.79853 0.0
C1254 C 0.52224 0.53276 0.79142 0.0
C1255 C 0.49246 0.53267 0.78457 0.0
C1256 C 0.54178 0.56228 0.79077 0.0
C1257 C 0.56488 0.50313 0.80563 0.0
C1258 C 0.55039 0.57864 0.80321 0.0
C1259 C 0.56573 0.60825 0.80241 0.0
C1260 C 0.57231 0.62222 0.78915 0.0
C1261 C 0.56485 0.60515 0.77675 0.0
C1262 C 0.54974 0.57551 0.77756 0.0
H1263 H 0.57279 0.47806 0.80715 0.0
H1264 H 0.58323 0.51596 0.79933 0.0
H1265 H 0.56339 0.5145 0.81624 0.0
H1266 H 0.54399 0.56921 0.81352 0.0
H1267 H 0.57083 0.62093 0.81216 0.0
H1268 H 0.61772 0.43675 0.1988 0.0
H1269 H 0.56607 0.46402 0.19774 0.0
H1270 H 0.56558 0.47238 0.24334 0.0
H1271 H 0.61733 0.44572 0.2445 0.0
H1272 H 0.50601 0.45355 0.20968 0.0
H1273 H 0.55963 0.56513 0.23039 0.0
H1274 H 0.58343 0.53183 0.22445 0.0
H1275 H 0.56553 0.53137 0.24181 0.0
C1276 C 0.60633 0.44383 0.20863 0.0
C1277 C 0.62181 0.43936 0.22173 0.0
C1278 C 0.57688 0.45956 0.20799 0.0
C1279 C 0.56244 0.47105 0.22043 0.0
C1280 C 0.57674 0.46453 0.23358 0.0
H1281 H 0.39184 0.57204 0.2434 0.0
H1282 H 0.44394 0.54601 0.24221 0.0
C1283 C 0.6062 0.449 0.23423 0.0
C1284 C 0.53312 0.49089 0.21966 0.0
H1285 H 0.50302 0.56394 0.22868 0.0
C1286 C 0.50539 0.47777 0.21372 0.0
C1287 C 0.53245 0.52261 0.22485 0.0
C1288 C 0.56192 0.53873 0.23061 0.0
C1289 C 0.4767 0.49511 0.21329 0.0
C1290 C 0.47589 0.52654 0.21877 0.0
C1291 C 0.50373 0.53984 0.22449 0.0
C1292 C 0.44593 0.54536 0.21928 0.0
C1293 C 0.44719 0.47933 0.2074 0.0
C1294 C 0.4304 0.55483 0.20677 0.0
C1295 C 0.40065 0.56997 0.2074 0.0
C1296 C 0.38593 0.5758 0.22057 0.0
C1297 C 0.40244 0.56785 0.23308 0.0
C1298 C 0.4322 0.55288 0.23243 0.0
H1299 H 0.45033 0.45317 0.20615 0.0
H1300 H 0.42636 0.48377 0.21441 0.0
H1301 H 0.44173 0.48959 0.19681 0.0
H1302 H 0.44089 0.54974 0.19651 0.0
H1303 H 0.38857 0.57575 0.19757 0.0
H1304 H 0.43577 0.11927 0.4459 0.0
H1305 H 0.4594 0.06579 0.44506 0.0
H1306 H 0.46738 0.06552 0.49068 0.0
H1307 H 0.44387 0.1188 0.49163 0.0
H1308 H 0.52232 0.05212 0.45626 0.0
H1309 H 0.42863 0.9771 0.48113 0.0
H1310 H 0.4203 0.01584 0.47358 0.0
H1311 H 0.4385 0.01271 0.49078 0.0
C1312 C 0.44181 0.1075 0.45577 0.0
C1313 C 0.4379 0.12328 0.46883 0.0
C1314 C 0.4555 0.07704 0.45526 0.0
C1315 C 0.46503 0.06167 0.46781 0.0
C1316 C 0.45984 0.07678 0.48089 0.0
H1317 H 0.56072 0.88785 0.49194 0.0
H1318 H 0.53647 0.94078 0.49093 0.0
C1319 C 0.44642 0.10728 0.4814 0.0
C1320 C 0.4826 0.03098 0.46725 0.0
H1321 H 0.47979 0.95359 0.47839 0.0
C1322 C 0.51296 0.03045 0.46097 0.0
C1323 C 0.4704 1.0029 0.47351 0.0
C1324 C 0.43756 1.00193 0.48004 0.0
C1325 C 0.53188 1.00275 0.46114 0.0
C1326 C 0.51977 0.97466 0.46749 0.0
C1327 C 0.48917 0.97516 0.47359 0.0
C1328 C 0.53826 0.94441 0.46803 0.0
C1329 C 0.56503 0.00415 0.45494 0.0
C1330 C 0.54816 0.92913 0.45552 0.0
C1331 C 0.56244 0.89894 0.45607 0.0
C1332 C 0.56663 0.8833 0.46915 0.0
C1333 C 0.55787 0.89923 0.48169 0.0
C1334 C 0.54385 0.92945 0.48113 0.0
H1335 H 0.57391 0.02907 0.45422 0.0
H1336 H 0.58209 0.98998 0.46138 0.0
H1337 H 0.5646 0.99411 0.44404 0.0
H1338 H 0.54357 0.93987 0.44526 0.0
H1339 H 0.56856 0.88717 0.44621 0.0
H1340 H 0.88001 0.46161 0.51463 0.0
H1341 H 0.93303 0.48544 0.51573 0.0
H1342 H 0.94568 0.44835 0.55804 0.0
H1343 H 0.89231 0.42436 0.55708 0.0
H1344 H 0.95126 0.53171 0.53786 0.0
H1345 H 0.02933 0.42432 0.53539 0.0
H1346 H 0.98866 0.42398 0.52906 0.0
H1347 H 0.99659 0.42356 0.54776 0.0
C1348 C 0.89419 0.458 0.5241 0.0
C1349 C 0.88188 0.44108 0.53578 0.0
C1350 C 0.92445 0.47178 0.52472 0.0
C1351 C 0.94318 0.4687 0.53696 0.0
C1352 C 0.93161 0.45081 0.54846 0.0
H1353 H 0.11346 0.58122 0.55752 0.0
H1354 H 0.06007 0.55725 0.5583 0.0
C1355 C 0.90116 0.43707 0.54788 0.0
C1356 C 0.97408 0.48569 0.53784 0.0
H1357 H 0.05467 0.47421 0.53784 0.0
C1358 C 0.97391 0.51919 0.53796 0.0
C1359 C 1.00347 0.46921 0.53787 0.0
C1360 C 0.00482 0.43328 0.53743 0.0
C1361 C 1.00247 0.5367 0.53799 0.0
C1362 C 0.03185 0.52023 0.53795 0.0
C1363 C 0.03203 0.48672 0.53794 0.0
C1364 C 0.06276 0.53723 0.53718 0.0
C1365 C 1.00112 0.57264 0.53767 0.0
C1366 C 0.08162 0.53431 0.52497 0.0
C1367 C 0.1119 0.54808 0.52445 0.0
C1368 C 0.1241 0.56482 0.5362 0.0
C1369 C 0.1047 0.56866 0.54826 0.0
C1370 C 0.07424 0.55494 0.54874 0.0
H1371 H 0.97663 0.58164 0.53561 0.0
H1372 H 0.00923 0.58216 0.54806 0.0
H1373 H 0.01737 0.5821 0.52937 0.0
H1374 H 0.07312 0.5208 0.51593 0.0
H1375 H 0.12617 0.5446 0.51499 0.0
loop_
_geom_bond_atom_site_label_1
_geom_bond_atom_site_label_2
_geom_bond_distance
_geom_bond_site_symmetry_2
_ccdc_geom_bond_type
O0 Cd1 2.223 . S
O0 C8 1.315 . S
Cd1 O0 2.223 . S
Cd1 O4 2.297 . S
Cd1 O5 2.439 . S
Cd1 O11 2.240 . S
Cd2 O3 2.240 . S
Cd2 O10 2.223 . S
Cd2 O12 2.297 . S
Cd2 O13 2.439 . S
O3 Cd2 2.240 . S
O3 C8 1.279 . S
O4 Cd1 2.297 . S
O4 C6 1.247 . S
O5 Cd1 2.439 . S
O5 C6 1.208 . S
C6 O4 1.247 . S
C6 O5 1.208 . S
C7 O12 1.247 . S
C7 O13 1.208 . S
C8 O0 1.315 . S
C8 O3 1.279 . S
C9 O10 1.315 . S
C9 O11 1.279 . S
O10 Cd2 2.223 . S
O10 C9 1.315 . S
O11 Cd1 2.240 . S
O11 C9 1.279 . S
O12 Cd2 2.297 . S
O12 C7 1.247 . S
O13 Cd2 2.439 . S
O13 C7 1.208 . S
O14 Cd15 2.223 . S
O14 C22 1.315 . S
Cd15 O14 2.223 . S
Cd15 O18 2.297 . S
Cd15 O19 2.439 . S
Cd15 O25 2.240 . S
Cd16 O17 2.240 . S
Cd16 O24 2.223 . S
Cd16 O26 2.297 . S
Cd16 O27 2.439 . S
O17 Cd16 2.240 . S
O17 C22 1.279 . S
O18 Cd15 2.297 . S
O18 C20 1.247 . S
O19 Cd15 2.439 . S
O19 C20 1.208 . S
C20 O18 1.247 . S
C20 O19 1.208 . S
C21 O26 1.247 . S
C21 O27 1.208 . S
C22 O14 1.315 . S
C22 O17 1.279 . S
C23 O24 1.315 . S
C23 O25 1.279 . S
O24 Cd16 2.223 . S
O24 C23 1.315 . S
O25 Cd15 2.240 . S
O25 C23 1.279 . S
O26 Cd16 2.297 . S
O26 C21 1.247 . S
O27 Cd16 2.439 . S
O27 C21 1.208 . S
O28 Cd29 2.223 . S
O28 C36 1.315 . S
Cd29 O28 2.223 . S
Cd29 O32 2.297 . S
Cd29 O33 2.439 . S
Cd29 O39 2.240 . S
Cd30 O31 2.240 . S
Cd30 O38 2.223 . S
Cd30 O40 2.297 . S
Cd30 O41 2.439 . S
O31 Cd30 2.240 . S
O31 C36 1.279 . S
O32 Cd29 2.297 . S
O32 C34 1.247 . S
O33 Cd29 2.439 . S
O33 C34 1.208 . S
C34 O32 1.247 . S
C34 O33 1.208 . S
C35 O40 1.247 . S
C35 O41 1.208 . S
C36 O28 1.315 . S
C36 O31 1.279 . S
C37 O38 1.315 . S
C37 O39 1.279 . S
O38 Cd30 2.223 . S
O38 C37 1.315 . S
O39 Cd29 2.240 . S
O39 C37 1.279 . S
O40 Cd30 2.297 . S
O40 C35 1.247 . S
O41 Cd30 2.439 . S
O41 C35 1.208 . S
O42 Cd43 2.223 . S
O42 C50 1.315 . S
Cd43 O42 2.223 . S
Cd43 O46 2.297 . S
Cd43 O47 2.439 . S
Cd43 O53 2.240 . S
Cd44 O45 2.240 . S
Cd44 O52 2.223 . S
Cd44 O54 2.297 . S
Cd44 O55 2.439 . S
O45 Cd44 2.240 . S
O45 C50 1.279 . S
O46 Cd43 2.297 . S
O46 C48 1.247 . S
O47 Cd43 2.439 . S
O47 C48 1.208 . S
C48 O46 1.247 . S
C48 O47 1.208 . S
C49 O54 1.247 . S
C49 O55 1.208 . S
C50 O42 1.315 . S
C50 O45 1.279 . S
C51 O52 1.315 . S
C51 O53 1.279 . S
O52 Cd44 2.223 . S
O52 C51 1.315 . S
O53 Cd43 2.240 . S
O53 C51 1.279 . S
O54 Cd44 2.297 . S
O54 C49 1.247 . S
O55 Cd44 2.439 . S
O55 C49 1.208 . S
O56 Cd57 2.223 . S
O56 C64 1.315 . S
Cd57 O56 2.223 . S
Cd57 O60 2.297 . S
Cd57 O61 2.439 . S
Cd57 O67 2.240 . S
Cd58 O59 2.240 . S
Cd58 O66 2.223 . S
Cd58 O68 2.297 . S
Cd58 O69 2.439 . S
O59 Cd58 2.240 . S
O59 C64 1.279 . S
O60 Cd57 2.297 . S
O60 C62 1.247 . S
O61 Cd57 2.439 . S
O61 C62 1.208 . S
C62 O60 1.247 . S
C62 O61 1.208 . S
C63 O68 1.247 . S
C63 O69 1.208 . S
C64 O56 1.315 . S
C64 O59 1.279 . S
C65 O66 1.315 . S
C65 O67 1.279 . S
O66 Cd58 2.223 . S
O66 C65 1.315 . S
O67 Cd57 2.240 . S
O67 C65 1.279 . S
O68 Cd58 2.297 . S
O68 C63 1.247 . S
O69 Cd58 2.439 . S
O69 C63 1.208 . S
O70 Cd71 2.223 . S
O70 C78 1.315 . S
Cd71 O70 2.223 . S
Cd71 O74 2.297 . S
Cd71 O75 2.439 . S
Cd71 O81 2.240 . S
Cd72 O73 2.240 . S
Cd72 O80 2.223 . S
Cd72 O82 2.297 . S
Cd72 O83 2.439 . S
O73 Cd72 2.240 . S
O73 C78 1.279 . S
O74 Cd71 2.297 . S
O74 C76 1.247 . S
O75 Cd71 2.439 . S
O75 C76 1.208 . S
C76 O74 1.247 . S
C76 O75 1.208 . S
C77 O82 1.247 . S
C77 O83 1.208 . S
C78 O70 1.315 . S
C78 O73 1.279 . S
C79 O80 1.315 . S
C79 O81 1.279 . S
O80 Cd72 2.223 . S
O80 C79 1.315 . S
O81 Cd71 2.240 . S
O81 C79 1.279 . S
O82 Cd72 2.297 . S
O82 C77 1.247 . S
O83 Cd72 2.439 . S
O83 C77 1.208 . S
O84 Cd85 2.223 . S
O84 C92 1.315 . S
Cd85 O84 2.223 . S
Cd85 O88 2.297 . S
Cd85 O89 2.439 . S
Cd85 O95 2.240 . S
Cd86 O87 2.240 . S
Cd86 O94 2.223 . S
Cd86 O96 2.297 . S
Cd86 O97 2.439 . S
O87 Cd86 2.240 . S
O87 C92 1.279 . S
O88 Cd85 2.297 . S
O88 C90 1.247 . S
O89 Cd85 2.439 . S
O89 C90 1.208 . S
C90 O88 1.247 . S
C90 O89 1.208 . S
C91 O96 1.247 . S
C91 O97 1.208 . S
C92 O84 1.315 . S
C92 O87 1.279 . S
C93 O94 1.315 . S
C93 O95 1.279 . S
O94 Cd86 2.223 . S
O94 C93 1.315 . S
O95 Cd85 2.240 . S
O95 C93 1.279 . S
O96 Cd86 2.297 . S
O96 C91 1.247 . S
O97 Cd86 2.439 . S
O97 C91 1.208 . S
O98 Cd99 2.223 . S
O98 C106 1.315 . S
Cd99 O98 2.223 . S
Cd99 O102 2.297 . S
Cd99 O103 2.439 . S
Cd99 O109 2.240 . S
Cd100 O101 2.240 . S
Cd100 O108 2.223 . S
Cd100 O110 2.297 . S
Cd100 O111 2.439 . S
O101 Cd100 2.240 . S
O101 C106 1.279 . S
O102 Cd99 2.297 . S
O102 C104 1.247 . S
O103 Cd99 2.439 . S
O103 C104 1.208 . S
C104 O102 1.247 . S
C104 O103 1.208 . S
C105 O110 1.247 . S
C105 O111 1.208 . S
C106 O98 1.315 . S
C106 O101 1.279 . S
C107 O108 1.315 . S
C107 O109 1.279 . S
O108 Cd100 2.223 . S
O108 C107 1.315 . S
O109 Cd99 2.240 . S
O109 C107 1.279 . S
O110 Cd100 2.297 . S
O110 C105 1.247 . S
O111 Cd100 2.439 . S
O111 C105 1.208 . S
O112 Cd113 2.223 . S
O112 C120 1.315 . S
Cd113 O112 2.223 . S
Cd113 O116 2.297 . S
Cd113 O117 2.439 . S
Cd113 O123 2.240 . S
Cd114 O115 2.240 . S
Cd114 O122 2.223 . S
Cd114 O124 2.297 . S
Cd114 O125 2.439 . S
O115 Cd114 2.240 . S
O115 C120 1.279 . S
O116 Cd113 2.297 . S
O116 C118 1.247 . S
O117 Cd113 2.439 . S
O117 C118 1.208 . S
C118 O116 1.247 . S
C118 O117 1.208 . S
C119 O124 1.247 . S
C119 O125 1.208 . S
C120 O112 1.315 . S
C120 O115 1.279 . S
C121 O122 1.315 . S
C121 O123 1.279 . S
O122 Cd114 2.223 . S
O122 C121 1.315 . S
O123 Cd113 2.240 . S
O123 C121 1.279 . S
O124 Cd114 2.297 . S
O124 C119 1.247 . S
O125 Cd114 2.439 . S
O125 C119 1.208 . S
O126 Cd127 2.223 . S
O126 C134 1.315 . S
Cd127 O126 2.223 . S
Cd127 O130 2.297 . S
Cd127 O131 2.439 . S
Cd127 O137 2.240 . S
Cd128 O129 2.240 . S
Cd128 O136 2.223 . S
Cd128 O138 2.297 . S
Cd128 O139 2.439 . S
O129 Cd128 2.240 . S
O129 C134 1.279 . S
O130 Cd127 2.297 . S
O130 C132 1.247 . S
O131 Cd127 2.439 . S
O131 C132 1.208 . S
C132 O130 1.247 . S
C132 O131 1.208 . S
C133 O138 1.247 . S
C133 O139 1.208 . S
C134 O126 1.315 . S
C134 O129 1.279 . S
C135 O136 1.315 . S
C135 O137 1.279 . S
O136 Cd128 2.223 . S
O136 C135 1.315 . S
O137 Cd127 2.240 . S
O137 C135 1.279 . S
O138 Cd128 2.297 . S
O138 C133 1.247 . S
O139 Cd128 2.439 . S
O139 C133 1.208 . S
O140 Cd141 2.223 . S
O140 C148 1.315 . S
Cd141 O140 2.223 . S
Cd141 O144 2.297 . S
Cd141 O145 2.439 . S
Cd141 O151 2.240 . S
Cd142 O143 2.240 . S
Cd142 O150 2.223 . S
Cd142 O152 2.297 . S
Cd142 O153 2.439 . S
O143 Cd142 2.240 . S
O143 C148 1.279 . S
O144 Cd141 2.297 . S
O144 C146 1.247 . S
O145 Cd141 2.439 . S
O145 C146 1.208 . S
C146 O144 1.247 . S
C146 O145 1.208 . S
C147 O152 1.247 . S
C147 O153 1.208 . S
C148 O140 1.315 . S
C148 O143 1.279 . S
C149 O150 1.315 . S
C149 O151 1.279 . S
O150 Cd142 2.223 . S
O150 C149 1.315 . S
O151 Cd141 2.240 . S
O151 C149 1.279 . S
O152 Cd142 2.297 . S
O152 C147 1.247 . S
O153 Cd142 2.439 . S
O153 C147 1.208 . S
O154 Cd155 2.223 . S
O154 C162 1.315 . S
Cd155 O154 2.223 . S
Cd155 O158 2.297 . S
Cd155 O159 2.439 . S
Cd155 O165 2.240 . S
Cd156 O157 2.240 . S
Cd156 O164 2.223 . S
Cd156 O166 2.297 . S
Cd156 O167 2.439 . S
O157 Cd156 2.240 . S
O157 C162 1.279 . S
O158 Cd155 2.297 . S
O158 C160 1.247 . S
O159 Cd155 2.439 . S
O159 C160 1.208 . S
C160 O158 1.247 . S
C160 O159 1.208 . S
C161 O166 1.247 . S
C161 O167 1.208 . S
C162 O154 1.315 . S
C162 O157 1.279 . S
C163 O164 1.315 . S
C163 O165 1.279 . S
O164 Cd156 2.223 . S
O164 C163 1.315 . S
O165 Cd155 2.240 . S
O165 C163 1.279 . S
O166 Cd156 2.297 . S
O166 C161 1.247 . S
O167 Cd156 2.439 . S
O167 C161 1.208 . S
O168 Cd169 2.223 . S
O168 C176 1.315 . S
Cd169 O168 2.223 . S
Cd169 O172 2.297 . S
Cd169 O173 2.439 . S
Cd169 O179 2.240 . S
Cd170 O171 2.240 . S
Cd170 O178 2.223 . S
Cd170 O180 2.297 . S
Cd170 O181 2.439 . S
O171 Cd170 2.240 . S
O171 C176 1.279 . S
O172 Cd169 2.297 . S
O172 C174 1.247 . S
O173 Cd169 2.439 . S
O173 C174 1.208 . S
C174 O172 1.247 . S
C174 O173 1.208 . S
C175 O180 1.247 . S
C175 O181 1.208 . S
C176 O168 1.315 . S
C176 O171 1.279 . S
C177 O178 1.315 . S
C177 O179 1.279 . S
O178 Cd170 2.223 . S
O178 C177 1.315 . S
O179 Cd169 2.240 . S
O179 C177 1.279 . S
O180 Cd170 2.297 . S
O180 C175 1.247 . S
O181 Cd170 2.439 . S
O181 C175 1.208 . S
O182 Cd183 2.223 . S
O182 C190 1.315 . S
Cd183 O182 2.223 . S
Cd183 O186 2.297 . S
Cd183 O187 2.439 . S
Cd183 O193 2.240 . S
Cd184 O185 2.240 . S
Cd184 O192 2.223 . S
Cd184 O194 2.297 . S
Cd184 O195 2.439 . S
O185 Cd184 2.240 . S
O185 C190 1.279 . S
O186 Cd183 2.297 . S
O186 C188 1.247 . S
O187 Cd183 2.439 . S
O187 C188 1.208 . S
C188 O186 1.247 . S
C188 O187 1.208 . S
C189 O194 1.247 . S
C189 O195 1.208 . S
C190 O182 1.315 . S
C190 O185 1.279 . S
C191 O192 1.315 . S
C191 O193 1.279 . S
O192 Cd184 2.223 . S
O192 C191 1.315 . S
O193 Cd183 2.240 . S
O193 C191 1.279 . S
O194 Cd184 2.297 . S
O194 C189 1.247 . S
O195 Cd184 2.439 . S
O195 C189 1.208 . S
O196 Cd197 2.223 . S
O196 C204 1.315 . S
Cd197 O196 2.223 . S
Cd197 O200 2.297 . S
Cd197 O201 2.439 . S
Cd197 O207 2.240 . S
Cd198 O199 2.240 . S
Cd198 O206 2.223 . S
Cd198 O208 2.297 . S
Cd198 O209 2.439 . S
O199 Cd198 2.240 . S
O199 C204 1.279 . S
O200 Cd197 2.297 . S
O200 C202 1.247 . S
O201 Cd197 2.439 . S
O201 C202 1.208 . S
C202 O200 1.247 . S
C202 O201 1.208 . S
C203 O208 1.247 . S
C203 O209 1.208 . S
C204 O196 1.315 . S
C204 O199 1.279 . S
C205 O206 1.315 . S
C205 O207 1.279 . S
O206 Cd198 2.223 . S
O206 C205 1.315 . S
O207 Cd197 2.240 . S
O207 C205 1.279 . S
O208 Cd198 2.297 . S
O208 C203 1.247 . S
O209 Cd198 2.439 . S
O209 C203 1.208 . S
O210 Cd211 2.223 . S
O210 C218 1.315 . S
Cd211 O210 2.223 . S
Cd211 O214 2.297 . S
Cd211 O215 2.439 . S
Cd211 O221 2.240 . S
Cd212 O213 2.240 . S
Cd212 O220 2.223 . S
Cd212 O222 2.297 . S
Cd212 O223 2.439 . S
O213 Cd212 2.240 . S
O213 C218 1.279 . S
O214 Cd211 2.297 . S
O214 C216 1.247 . S
O215 Cd211 2.439 . S
O215 C216 1.208 . S
C216 O214 1.247 . S
C216 O215 1.208 . S
C217 O222 1.247 . S
C217 O223 1.208 . S
C218 O210 1.315 . S
C218 O213 1.279 . S
C219 O220 1.315 . S
C219 O221 1.279 . S
O220 Cd212 2.223 . S
O220 C219 1.315 . S
O221 Cd211 2.240 . S
O221 C219 1.279 . S
O222 Cd212 2.297 . S
O222 C217 1.247 . S
O223 Cd212 2.439 . S
O223 C217 1.208 . S
H224 C232 0.929 . S
H225 C234 0.930 . S
H226 C236 0.930 . S
H227 C239 0.929 . S
H228 C242 0.930 . S
H229 C244 0.960 . S
H230 C244 0.960 . S
H231 C244 0.960 . S
C232 H224 0.929 . S
C232 C233 1.377 . S
C232 C234 1.384 . S
C233 C232 1.377 . S
C233 C239 1.390 . S
C234 H225 0.930 . S
C234 C232 1.384 . S
C234 C235 1.372 . S
C235 C234 1.372 . S
C235 C236 1.400 . S
C235 C240 1.490 . S
C236 H226 0.930 . S
C236 C235 1.400 . S
C236 C239 1.386 . S
H237 C253 0.930 . S
H238 C254 0.931 . S
C239 H227 0.929 . S
C239 C233 1.390 . S
C239 C236 1.386 . S
C240 C235 1.490 . S
C240 C242 1.395 . S
C240 C243 1.403 . S
H241 C247 0.930 . S
C242 H228 0.930 . S
C242 C240 1.395 . S
C242 C245 1.403 . S
C243 C240 1.403 . S
C243 C244 1.524 . S
C243 C247 1.400 . S
C244 H229 0.960 . S
C244 H230 0.960 . S
C244 H231 0.960 . S
C244 C243 1.524 . S
C245 C242 1.403 . S
C245 C246 1.392 . S
C245 C249 1.495 . S
C246 C245 1.392 . S
C246 C247 1.385 . S
C246 C248 1.478 . S
C247 H241 0.930 . S
C247 C243 1.400 . S
C247 C246 1.385 . S
C248 C246 1.478 . S
C248 C250 1.381 . S
C248 C254 1.383 . S
C249 C245 1.495 . S
C249 H255 0.959 . S
C249 H256 0.961 . S
C249 H257 0.960 . S
C250 C248 1.381 . S
C250 C251 1.394 . S
C250 H258 0.930 . S
C251 C250 1.394 . S
C251 C252 1.383 . S
C251 H259 0.929 . S
C252 C251 1.383 . S
C252 C253 1.377 . S
C253 H237 0.930 . S
C253 C252 1.377 . S
C253 C254 1.379 . S
C254 H238 0.931 . S
C254 C248 1.383 . S
C254 C253 1.379 . S
H255 C249 0.959 . S
H256 C249 0.961 . S
H257 C249 0.960 . S
H258 C250 0.930 . S
H259 C251 0.929 . S
H260 C268 0.929 . S
H261 C270 0.930 . S
H262 C272 0.930 . S
H263 C275 0.929 . S
H264 C278 0.930 . S
H265 C280 0.960 . S
H266 C280 0.960 . S
H267 C280 0.960 . S
C268 H260 0.929 . S
C268 C269 1.377 . S
C268 C270 1.384 . S
C269 C268 1.377 . S
C269 C275 1.390 . S
C270 H261 0.930 . S
C270 C268 1.384 . S
C270 C271 1.372 . S
C271 C270 1.372 . S
C271 C272 1.400 . S
C271 C276 1.490 . S
C272 H262 0.930 . S
C272 C271 1.400 . S
C272 C275 1.386 . S
H273 C289 0.930 . S
H274 C290 0.931 . S
C275 H263 0.929 . S
C275 C269 1.390 . S
C275 C272 1.386 . S
C276 C271 1.490 . S
C276 C278 1.395 . S
C276 C279 1.403 . S
H277 C283 0.930 . S
C278 H264 0.930 . S
C278 C276 1.395 . S
C278 C281 1.403 . S
C279 C276 1.403 . S
C279 C280 1.524 . S
C279 C283 1.400 . S
C280 H265 0.960 . S
C280 H266 0.960 . S
C280 H267 0.960 . S
C280 C279 1.524 . S
C281 C278 1.403 . S
C281 C282 1.392 . S
C281 C285 1.495 . S
C282 C281 1.392 . S
C282 C283 1.385 . S
C282 C284 1.478 . S
C283 H277 0.930 . S
C283 C279 1.400 . S
C283 C282 1.385 . S
C284 C282 1.478 . S
C284 C286 1.381 . S
C284 C290 1.383 . S
C285 C281 1.495 . S
C285 H291 0.959 . S
C285 H292 0.961 . S
C285 H293 0.960 . S
C286 C284 1.381 . S
C286 C287 1.394 . S
C286 H294 0.930 . S
C287 C286 1.394 . S
C287 C288 1.383 . S
C287 H295 0.929 . S
C288 C287 1.383 . S
C288 C289 1.377 . S
C289 H273 0.930 . S
C289 C288 1.377 . S
C289 C290 1.379 . S
C290 H274 0.931 . S
C290 C284 1.383 . S
C290 C289 1.379 . S
H291 C285 0.959 . S
H292 C285 0.961 . S
H293 C285 0.960 . S
H294 C286 0.930 . S
H295 C287 0.929 . S
H296 C304 0.929 . S
H297 C306 0.930 . S
H298 C308 0.930 . S
H299 C311 0.929 . S
H300 C314 0.930 . S
H301 C316 0.960 . S
H302 C316 0.960 . S
H303 C316 0.960 . S
C304 H296 0.929 . S
C304 C305 1.377 . S
C304 C306 1.384 . S
C305 C304 1.377 . S
C305 C311 1.390 . S
C306 H297 0.930 . S
C306 C304 1.384 . S
C306 C307 1.372 . S
C307 C306 1.372 . S
C307 C308 1.400 . S
C307 C312 1.490 . S
C308 H298 0.930 . S
C308 C307 1.400 . S
C308 C311 1.386 . S
H309 C325 0.930 . S
H310 C326 0.931 . S
C311 H299 0.929 . S
C311 C305 1.390 . S
C311 C308 1.386 . S
C312 C307 1.490 . S
C312 C314 1.395 . S
C312 C315 1.403 . S
H313 C319 0.930 . S
C314 H300 0.930 . S
C314 C312 1.395 . S
C314 C317 1.403 . S
C315 C312 1.403 . S
C315 C316 1.524 . S
C315 C319 1.400 . S
C316 H301 0.960 . S
C316 H302 0.960 . S
C316 H303 0.960 . S
C316 C315 1.524 . S
C317 C314 1.403 . S
C317 C318 1.392 . S
C317 C321 1.495 . S
C318 C317 1.392 . S
C318 C319 1.385 . S
C318 C320 1.478 . S
C319 H313 0.930 . S
C319 C315 1.400 . S
C319 C318 1.385 . S
C320 C318 1.478 . S
C320 C322 1.381 . S
C320 C326 1.383 . S
C321 C317 1.495 . S
C321 H327 0.959 . S
C321 H328 0.961 . S
C321 H329 0.960 . S
C322 C320 1.381 . S
C322 C323 1.394 . S
C322 H330 0.930 . S
C323 C322 1.394 . S
C323 C324 1.383 . S
C323 H331 0.929 . S
C324 C323 1.383 . S
C324 C325 1.377 . S
C325 H309 0.930 . S
C325 C324 1.377 . S
C325 C326 1.379 . S
C326 H310 0.931 . S
C326 C320 1.383 . S
C326 C325 1.379 . S
H327 C321 0.959 . S
H328 C321 0.961 . S
H329 C321 0.960 . S
H330 C322 0.930 . S
H331 C323 0.929 . S
H332 C340 0.929 . S
H333 C342 0.930 . S
H334 C344 0.930 . S
H335 C347 0.929 . S
H336 C350 0.930 . S
H337 C352 0.960 . S
H338 C352 0.960 . S
H339 C352 0.960 . S
C340 H332 0.929 . S
C340 C341 1.377 . S
C340 C342 1.384 . S
C341 C340 1.377 . S
C341 C347 1.390 . S
C342 H333 0.930 . S
C342 C340 1.384 . S
C342 C343 1.372 . S
C343 C342 1.372 . S
C343 C344 1.400 . S
C343 C348 1.490 . S
C344 H334 0.930 . S
C344 C343 1.400 . S
C344 C347 1.386 . S
H345 C361 0.930 . S
H346 C362 0.931 . S
C347 H335 0.929 . S
C347 C341 1.390 . S
C347 C344 1.386 . S
C348 C343 1.490 . S
C348 C350 1.395 . S
C348 C351 1.403 . S
H349 C355 0.930 . S
C350 H336 0.930 . S
C350 C348 1.395 . S
C350 C353 1.403 . S
C351 C348 1.403 . S
C351 C352 1.524 . S
C351 C355 1.400 . S
C352 H337 0.960 . S
C352 H338 0.960 . S
C352 H339 0.960 . S
C352 C351 1.524 . S
C353 C350 1.403 . S
C353 C354 1.392 . S
C353 C357 1.495 . S
C354 C353 1.392 . S
C354 C355 1.385 . S
C354 C356 1.478 . S
C355 H349 0.930 . S
C355 C351 1.400 . S
C355 C354 1.385 . S
C356 C354 1.478 . S
C356 C358 1.381 . S
C356 C362 1.383 . S
C357 C353 1.495 . S
C357 H363 0.959 . S
C357 H364 0.961 . S
C357 H365 0.960 . S
C358 C356 1.381 . S
C358 C359 1.394 . S
C358 H366 0.930 . S
C359 C358 1.394 . S
C359 C360 1.383 . S
C359 H367 0.929 . S
C360 C359 1.383 . S
C360 C361 1.377 . S
C361 H345 0.930 . S
C361 C360 1.377 . S
C361 C362 1.379 . S
C362 H346 0.931 . S
C362 C356 1.383 . S
C362 C361 1.379 . S
H363 C357 0.959 . S
H364 C357 0.961 . S
H365 C357 0.960 . S
H366 C358 0.930 . S
H367 C359 0.929 . S
H368 C376 0.929 . S
H369 C378 0.930 . S
H370 C380 0.930 . S
H371 C383 0.929 . S
H372 C386 0.930 . S
H373 C388 0.960 . S
H374 C388 0.960 . S
H375 C388 0.960 . S
C376 H368 0.929 . S
C376 C377 1.377 1_545 S
C376 C378 1.384 . S
C377 C376 1.377 1_565 S
C377 C383 1.390 . S
C378 H369 0.930 . S
C378 C376 1.384 . S
C378 C379 1.372 . S
C379 C378 1.372 . S
C379 C380 1.400 . S
C379 C384 1.490 . S
C380 H370 0.930 . S
C380 C379 1.400 . S
C380 C383 1.386 1_545 S
H381 C397 0.930 . S
H382 C398 0.931 . S
C383 H371 0.929 . S
C383 C377 1.390 . S
C383 C380 1.386 1_565 S
C384 C379 1.490 . S
C384 C386 1.395 . S
C384 C387 1.403 . S
H385 C391 0.930 . S
C386 H372 0.930 . S
C386 C384 1.395 . S
C386 C389 1.403 1_554 S
C387 C384 1.403 . S
C387 C388 1.524 . S
C387 C391 1.400 . S
C388 H373 0.960 . S
C388 H374 0.960 . S
C388 H375 0.960 . S
C388 C387 1.524 . S
C389 C386 1.403 1_556 S
C389 C390 1.392 . S
C389 C393 1.495 . S
C390 C389 1.392 . S
C390 C391 1.385 1_556 S
C390 C392 1.478 . S
C391 H385 0.930 . S
C391 C387 1.400 . S
C391 C390 1.385 1_554 S
C392 C390 1.478 . S
C392 C394 1.381 . S
C392 C398 1.383 . S
C393 C389 1.495 . S
C393 H399 0.959 . S
C393 H400 0.961 . S
C393 H401 0.960 . S
C394 C392 1.381 . S
C394 C395 1.394 . S
C394 H402 0.930 1_556 S
C395 C394 1.394 . S
C395 C396 1.383 . S
C395 H403 0.929 . S
C396 C395 1.383 . S
C396 C397 1.377 . S
C397 H381 0.930 . S
C397 C396 1.377 . S
C397 C398 1.379 . S
C398 H382 0.931 . S
C398 C392 1.383 . S
C398 C397 1.379 . S
H399 C393 0.959 . S
H400 C393 0.961 . S
H401 C393 0.960 . S
H402 C394 0.930 1_554 S
H403 C395 0.929 . S
H404 C412 0.929 . S
H405 C414 0.930 . S
H406 C416 0.998 . S
H407 C419 0.929 1_556 S
H408 C422 0.930 . S
H409 C424 0.960 . S
H410 C424 0.960 1_554 S
H411 C424 0.960 . S
C412 H404 0.929 . S
C412 C413 1.377 . S
C412 C414 1.384 . S
C413 C412 1.377 . S
C413 C419 1.390 . S
C414 H405 0.930 . S
C414 C412 1.384 . S
C414 C415 1.372 . S
C415 C414 1.372 . S
C415 C416 1.357 1_554 S
C415 C420 1.490 . S
C416 H406 0.998 . S
C416 C415 1.357 1_556 S
C416 C419 1.364 1_556 S
H417 C433 0.931 . S
H418 C434 0.931 . S
C419 H407 0.929 1_554 S
C419 C413 1.390 . S
C419 C416 1.364 1_554 S
C420 C415 1.490 . S
C420 C422 1.395 . S
C420 C423 1.403 1_554 S
H421 C427 0.930 . S
C422 H408 0.930 . S
C422 C420 1.395 . S
C422 C425 1.378 1_554 S
C423 C420 1.403 1_556 S
C423 C424 1.524 . S
C423 C427 1.400 . S
C424 H409 0.960 . S
C424 H410 0.960 1_556 S
C424 H411 0.960 . S
C424 C423 1.524 . S
C425 C422 1.378 1_556 S
C425 C426 1.429 . S
C425 C429 1.490 1_556 S
C426 C425 1.429 . S
C426 C427 1.385 . S
C426 C428 1.478 . S
C427 H421 0.930 . S
C427 C423 1.400 . S
C427 C426 1.385 . S
C428 C426 1.478 . S
C428 C430 1.381 . S
C428 C434 1.383 . S
C429 C425 1.490 1_554 S
C429 H435 0.971 . S
C429 H436 0.938 1_554 S
C429 H437 0.974 . S
C430 C428 1.381 . S
C430 C431 1.394 1_455 S
C430 H438 0.930 1_556 S
C431 C430 1.394 1_655 S
C431 C432 1.383 . S
C431 H439 0.929 . S
C432 C431 1.383 . S
C432 C433 1.377 1_655 S
C433 H417 0.931 . S
C433 C432 1.377 1_455 S
C433 C434 1.379 . S
C434 H418 0.931 . S
C434 C428 1.383 . S
C434 C433 1.379 . S
H435 C429 0.971 . S
H436 C429 0.938 1_556 S
H437 C429 0.974 . S
H438 C430 0.930 1_554 S
H439 C431 0.929 . S
H440 C448 0.929 . S
H441 C450 0.930 . S
H442 C452 0.930 . S
H443 C455 0.929 . S
H444 C458 0.930 . S
H445 C460 0.960 . S
H446 C460 0.960 . S
H447 C460 0.960 . S
C448 H440 0.929 . S
C448 C449 1.377 . S
C448 C450 1.384 . S
C449 C448 1.377 . S
C449 C455 1.390 . S
C450 H441 0.930 . S
C450 C448 1.384 . S
C450 C451 1.372 . S
C451 C450 1.372 . S
C451 C452 1.400 . S
C451 C456 1.490 . S
C452 H442 0.930 . S
C452 C451 1.400 . S
C452 C455 1.386 . S
H453 C469 0.930 . S
H454 C470 0.931 . S
C455 H443 0.929 . S
C455 C449 1.390 . S
C455 C452 1.386 . S
C456 C451 1.490 . S
C456 C458 1.395 1_556 S
C456 C459 1.403 . S
H457 C463 0.930 . S
C458 H444 0.930 . S
C458 C456 1.395 1_554 S
C458 C461 1.403 . S
C459 C456 1.403 . S
C459 C460 1.524 . S
C459 C463 1.400 . S
C460 H445 0.960 . S
C460 H446 0.960 . S
C460 H447 0.960 . S
C460 C459 1.524 . S
C461 C458 1.403 . S
C461 C462 1.392 . S
C461 C465 1.495 . S
C462 C461 1.392 . S
C462 C463 1.385 1_554 S
C462 C464 1.478 . S
C463 H457 0.930 . S
C463 C459 1.400 . S
C463 C462 1.385 1_556 S
C464 C462 1.478 . S
C464 C466 1.381 . S
C464 C470 1.383 . S
C465 C461 1.495 . S
C465 H471 0.959 . S
C465 H472 0.961 . S
C465 H473 0.960 . S
C466 C464 1.381 . S
C466 C467 1.394 . S
C466 H474 0.930 . S
C467 C466 1.394 . S
C467 C468 1.383 1_565 S
C467 H475 0.934 . S
C468 C467 1.383 1_545 S
C468 C469 1.377 . S
C469 H453 0.930 . S
C469 C468 1.377 . S
C469 C470 1.379 1_545 S
C470 H454 0.931 . S
C470 C464 1.383 . S
C470 C469 1.379 1_565 S
H471 C465 0.959 . S
H472 C465 0.961 . S
H473 C465 0.960 . S
H474 C466 0.930 . S
H475 C467 0.934 . S
H476 C484 0.929 . S
H477 C486 0.930 . S
H478 C488 0.930 1_556 S
H479 C491 0.929 . S
H480 C494 0.930 . S
H481 C496 0.960 . S
H482 C496 0.960 . S
H483 C496 0.960 . S
C484 H476 0.929 . S
C484 C485 1.377 . S
C484 C486 1.384 . S
C485 C484 1.377 . S
C485 C491 1.390 . S
C486 H477 0.930 . S
C486 C484 1.384 . S
C486 C487 1.372 . S
C487 C486 1.372 . S
C487 C488 1.400 . S
C487 C492 1.490 . S
C488 H478 0.930 1_554 S
C488 C487 1.400 . S
C488 C491 1.386 . S
H489 C505 0.930 . S
H490 C506 0.931 . S
C491 H479 0.929 . S
C491 C485 1.390 . S
C491 C488 1.386 . S
C492 C487 1.490 . S
C492 C494 1.395 1_554 S
C492 C495 1.403 . S
H493 C499 0.930 . S
C494 H480 0.930 . S
C494 C492 1.395 1_556 S
C494 C497 1.403 . S
C495 C492 1.403 . S
C495 C496 1.524 . S
C495 C499 1.400 1_554 S
C496 H481 0.960 . S
C496 H482 0.960 . S
C496 H483 0.960 . S
C496 C495 1.524 . S
C497 C494 1.403 . S
C497 C498 1.392 . S
C497 C501 1.495 . S
C498 C497 1.392 . S
C498 C499 1.385 . S
C498 C500 1.478 . S
C499 H493 0.930 . S
C499 C495 1.400 1_556 S
C499 C498 1.385 . S
C500 C498 1.478 . S
C500 C502 1.381 . S
C500 C506 1.383 . S
C501 C497 1.495 . S
C501 H507 0.959 . S
C501 H508 0.961 . S
C501 H509 0.960 . S
C502 C500 1.381 . S
C502 C503 1.394 1_655 S
C502 H510 0.930 . S
C503 C502 1.394 1_455 S
C503 C504 1.383 . S
C503 H511 0.929 . S
C504 C503 1.383 . S
C504 C505 1.377 1_455 S
C505 H489 0.930 . S
C505 C504 1.377 1_655 S
C505 C506 1.379 . S
C506 H490 0.931 . S
C506 C500 1.383 . S
C506 C505 1.379 . S
H507 C501 0.959 . S
H508 C501 0.961 . S
H509 C501 0.960 . S
H510 C502 0.930 . S
H511 C503 0.929 . S
H512 C520 0.929 . S
H513 C522 0.930 . S
H514 C524 0.930 . S
H515 C527 0.929 . S
H516 C530 0.930 . S
H517 C532 0.960 . S
H518 C532 0.960 . S
H519 C532 0.960 . S
C520 H512 0.929 . S
C520 C521 1.377 . S
C520 C522 1.384 . S
C521 C520 1.377 . S
C521 C527 1.390 . S
C522 H513 0.930 . S
C522 C520 1.384 . S
C522 C523 1.372 . S
C523 C522 1.372 . S
C523 C524 1.400 . S
C523 C528 1.490 . S
C524 H514 0.930 . S
C524 C523 1.400 . S
C524 C527 1.386 . S
H525 C541 0.930 . S
H526 C542 0.931 . S
C527 H515 0.929 . S
C527 C521 1.390 . S
C527 C524 1.386 . S
C528 C523 1.490 . S
C528 C530 1.395 . S
C528 C531 1.403 . S
H529 C535 0.930 . S
C530 H516 0.930 . S
C530 C528 1.395 . S
C530 C533 1.403 . S
C531 C528 1.403 . S
C531 C532 1.524 . S
C531 C535 1.400 . S
C532 H517 0.960 . S
C532 H518 0.960 . S
C532 H519 0.960 . S
C532 C531 1.524 . S
C533 C530 1.403 . S
C533 C534 1.392 . S
C533 C537 1.495 . S
C534 C533 1.392 . S
C534 C535 1.385 . S
C534 C536 1.478 . S
C535 H529 0.930 . S
C535 C531 1.400 . S
C535 C534 1.385 . S
C536 C534 1.478 . S
C536 C538 1.381 . S
C536 C542 1.383 . S
C537 C533 1.495 . S
C537 H543 0.959 . S
C537 H544 0.961 . S
C537 H545 0.960 . S
C538 C536 1.381 . S
C538 C539 1.394 1_565 S
C538 H546 0.930 . S
C539 C538 1.394 1_545 S
C539 C540 1.383 . S
C539 H547 0.929 . S
C540 C539 1.383 . S
C540 C541 1.377 1_545 S
C541 H525 0.930 . S
C541 C540 1.377 1_565 S
C541 C542 1.379 . S
C542 H526 0.931 . S
C542 C536 1.383 . S
C542 C541 1.379 . S
H543 C537 0.959 . S
H544 C537 0.961 . S
H545 C537 0.960 . S
H546 C538 0.930 . S
H547 C539 0.929 . S
H548 C556 0.929 . S
H549 C558 0.930 . S
H550 C560 0.930 . S
H551 C563 0.929 . S
H552 C566 0.930 . S
H553 C568 0.960 . S
H554 C568 0.960 . S
H555 C568 0.960 . S
C556 H548 0.929 . S
C556 C557 1.377 1_655 S
C556 C558 1.384 . S
C557 C556 1.377 1_455 S
C557 C563 1.390 . S
C558 H549 0.930 . S
C558 C556 1.384 . S
C558 C559 1.372 . S
C559 C558 1.372 . S
C559 C560 1.400 . S
C559 C564 1.490 . S
C560 H550 0.930 . S
C560 C559 1.400 . S
C560 C563 1.386 1_655 S
H561 C577 0.930 . S
H562 C578 0.931 . S
C563 H551 0.929 . S
C563 C557 1.390 . S
C563 C560 1.386 1_455 S
C564 C559 1.490 . S
C564 C566 1.395 . S
C564 C567 1.403 . S
H565 C571 0.930 . S
C566 H552 0.930 . S
C566 C564 1.395 . S
C566 C569 1.403 . S
C567 C564 1.403 . S
C567 C568 1.524 . S
C567 C571 1.400 . S
C568 H553 0.960 . S
C568 H554 0.960 . S
C568 H555 0.960 . S
C568 C567 1.524 . S
C569 C566 1.403 . S
C569 C570 1.392 . S
C569 C573 1.495 . S
C570 C569 1.392 . S
C570 C571 1.385 . S
C570 C572 1.478 . S
C571 H565 0.930 . S
C571 C567 1.400 . S
C571 C570 1.385 . S
C572 C570 1.478 . S
C572 C574 1.381 . S
C572 C578 1.383 . S
C573 C569 1.495 . S
C573 H579 0.959 . S
C573 H580 0.961 . S
C573 H581 0.960 . S
C574 C572 1.381 . S
C574 C575 1.394 . S
C574 H582 0.930 . S
C575 C574 1.394 . S
C575 C576 1.383 . S
C575 H583 0.929 . S
C576 C575 1.383 . S
C576 C577 1.377 . S
C577 H561 0.930 . S
C577 C576 1.377 . S
C577 C578 1.379 . S
C578 H562 0.931 . S
C578 C572 1.383 . S
C578 C577 1.379 . S
H579 C573 0.959 . S
H580 C573 0.961 . S
H581 C573 0.960 . S
H582 C574 0.930 . S
H583 C575 0.929 . S
H584 C592 0.929 . S
H585 C594 0.930 . S
H586 C596 0.930 . S
H587 C599 0.929 . S
H588 C602 0.930 . S
H589 C604 0.960 . S
H590 C604 0.960 . S
H591 C604 0.960 . S
C592 H584 0.929 . S
C592 C593 1.377 1_545 S
C592 C594 1.384 . S
C593 C592 1.377 1_565 S
C593 C599 1.390 . S
C594 H585 0.930 . S
C594 C592 1.384 . S
C594 C595 1.372 . S
C595 C594 1.372 . S
C595 C596 1.400 . S
C595 C600 1.490 . S
C596 H586 0.930 . S
C596 C595 1.400 . S
C596 C599 1.386 1_545 S
H597 C613 0.930 . S
H598 C614 0.931 . S
C599 H587 0.929 . S
C599 C593 1.390 . S
C599 C596 1.386 1_565 S
C600 C595 1.490 . S
C600 C602 1.395 . S
C600 C603 1.403 . S
H601 C607 0.930 . S
C602 H588 0.930 . S
C602 C600 1.395 . S
C602 C605 1.403 . S
C603 C600 1.403 . S
C603 C604 1.524 . S
C603 C607 1.400 . S
C604 H589 0.960 . S
C604 H590 0.960 . S
C604 H591 0.960 . S
C604 C603 1.524 . S
C605 C602 1.403 . S
C605 C606 1.392 . S
C605 C609 1.495 . S
C606 C605 1.392 . S
C606 C607 1.385 . S
C606 C608 1.478 . S
C607 H601 0.930 . S
C607 C603 1.400 . S
C607 C606 1.385 . S
C608 C606 1.478 . S
C608 C610 1.381 . S
C608 C614 1.383 . S
C609 C605 1.495 . S
C609 H615 0.959 . S
C609 H616 0.961 . S
C609 H617 0.960 . S
C610 C608 1.381 . S
C610 C611 1.394 . S
C610 H618 0.930 . S
C611 C610 1.394 . S
C611 C612 1.383 . S
C611 H619 0.929 . S
C612 C611 1.383 . S
C612 C613 1.377 . S
C613 H597 0.930 . S
C613 C612 1.377 . S
C613 C614 1.379 . S
C614 H598 0.931 . S
C614 C608 1.383 . S
C614 C613 1.379 . S
H615 C609 0.959 . S
H616 C609 0.961 . S
H617 C609 0.960 . S
H618 C610 0.930 . S
H619 C611 0.929 . S
H620 C628 0.929 . S
H621 C630 0.930 . S
H622 C632 0.930 . S
H623 C635 0.929 . S
H624 C638 0.930 . S
H625 C640 0.960 . S
H626 C640 0.960 . S
H627 C640 0.960 . S
C628 H620 0.929 . S
C628 C629 1.377 . S
C628 C630 1.384 1_655 S
C629 C628 1.377 . S
C629 C635 1.390 1_655 S
C630 H621 0.930 . S
C630 C628 1.384 1_455 S
C630 C631 1.372 . S
C631 C630 1.372 . S
C631 C632 1.400 . S
C631 C636 1.490 . S
C632 H622 0.930 . S
C632 C631 1.400 . S
C632 C635 1.386 . S
H633 C649 0.930 . S
H634 C650 0.931 . S
C635 H623 0.929 . S
C635 C629 1.390 1_455 S
C635 C632 1.386 . S
C636 C631 1.490 . S
C636 C638 1.395 . S
C636 C639 1.403 . S
H637 C643 0.930 . S
C638 H624 0.930 . S
C638 C636 1.395 . S
C638 C641 1.403 . S
C639 C636 1.403 . S
C639 C640 1.524 . S
C639 C643 1.400 . S
C640 H625 0.960 . S
C640 H626 0.960 . S
C640 H627 0.960 . S
C640 C639 1.524 . S
C641 C638 1.403 . S
C641 C642 1.392 . S
C641 C645 1.495 . S
C642 C641 1.392 . S
C642 C643 1.385 . S
C642 C644 1.478 . S
C643 H637 0.930 . S
C643 C639 1.400 . S
C643 C642 1.385 . S
C644 C642 1.478 . S
C644 C646 1.381 . S
C644 C650 1.383 . S
C645 C641 1.495 . S
C645 H651 0.959 . S
C645 H652 0.961 . S
C645 H653 0.960 . S
C646 C644 1.381 . S
C646 C647 1.394 . S
C646 H654 0.930 . S
C647 C646 1.394 . S
C647 C648 1.383 . S
C647 H655 0.929 . S
C648 C647 1.383 . S
C648 C649 1.377 . S
C649 H633 0.930 . S
C649 C648 1.377 . S
C649 C650 1.379 . S
C650 H634 0.931 . S
C650 C644 1.383 . S
C650 C649 1.379 . S
H651 C645 0.959 . S
H652 C645 0.961 . S
H653 C645 0.960 . S
H654 C646 0.930 . S
H655 C647 0.929 . S
H656 C664 0.929 . S
H657 C666 0.930 . S
H658 C668 0.930 . S
H659 C671 0.929 . S
H660 C674 0.930 . S
H661 C676 0.960 . S
H662 C676 0.960 . S
H663 C676 0.960 . S
C664 H656 0.929 . S
C664 C665 1.377 . S
C664 C666 1.384 . S
C665 C664 1.377 . S
C665 C671 1.390 . S
C666 H657 0.930 . S
C666 C664 1.384 . S
C666 C667 1.372 . S
C667 C666 1.372 . S
C667 C668 1.400 . S
C667 C672 1.490 . S
C668 H658 0.930 . S
C668 C667 1.400 . S
C668 C671 1.386 . S
H669 C685 0.930 . S
H670 C686 0.931 . S
C671 H659 0.929 . S
C671 C665 1.390 . S
C671 C668 1.386 . S
C672 C667 1.490 . S
C672 C674 1.395 . S
C672 C675 1.403 . S
H673 C679 0.930 . S
C674 H660 0.930 . S
C674 C672 1.395 . S
C674 C677 1.403 . S
C675 C672 1.403 . S
C675 C676 1.524 . S
C675 C679 1.400 . S
C676 H661 0.960 . S
C676 H662 0.960 . S
C676 H663 0.960 . S
C676 C675 1.524 . S
C677 C674 1.403 . S
C677 C678 1.392 . S
C677 C681 1.495 . S
C678 C677 1.392 . S
C678 C679 1.385 . S
C678 C680 1.478 . S
C679 H673 0.930 . S
C679 C675 1.400 . S
C679 C678 1.385 . S
C680 C678 1.478 . S
C680 C682 1.381 . S
C680 C686 1.383 . S
C681 C677 1.495 . S
C681 H687 0.959 . S
C681 H688 0.961 . S
C681 H689 0.960 . S
C682 C680 1.381 . S
C682 C683 1.394 . S
C682 H690 0.930 . S
C683 C682 1.394 . S
C683 C684 1.383 . S
C683 H691 0.929 . S
C684 C683 1.383 . S
C684 C685 1.377 . S
C685 H669 0.930 . S
C685 C684 1.377 . S
C685 C686 1.379 . S
C686 H670 0.931 . S
C686 C680 1.383 . S
C686 C685 1.379 . S
H687 C681 0.959 . S
H688 C681 0.961 . S
H689 C681 0.960 . S
H690 C682 0.930 . S
H691 C683 0.929 . S
H692 C700 0.929 . S
H693 C702 0.930 . S
H694 C704 0.930 . S
H695 C707 0.929 . S
H696 C710 0.930 . S
H697 C712 0.960 . S
H698 C712 0.960 . S
H699 C712 0.960 . S
C700 H692 0.929 . S
C700 C701 1.377 . S
C700 C702 1.384 . S
C701 C700 1.377 . S
C701 C707 1.390 . S
C702 H693 0.930 . S
C702 C700 1.384 . S
C702 C703 1.372 . S
C703 C702 1.372 . S
C703 C704 1.400 . S
C703 C708 1.490 . S
C704 H694 0.930 . S
C704 C703 1.400 . S
C704 C707 1.386 . S
H705 C721 0.930 . S
H706 C722 0.931 . S
C707 H695 0.929 . S
C707 C701 1.390 . S
C707 C704 1.386 . S
C708 C703 1.490 . S
C708 C710 1.395 . S
C708 C711 1.403 . S
H709 C715 0.930 . S
C710 H696 0.930 . S
C710 C708 1.395 . S
C710 C713 1.403 . S
C711 C708 1.403 . S
C711 C712 1.524 . S
C711 C715 1.400 . S
C712 H697 0.960 . S
C712 H698 0.960 . S
C712 H699 0.960 . S
C712 C711 1.524 . S
C713 C710 1.403 . S
C713 C714 1.392 . S
C713 C717 1.495 . S
C714 C713 1.392 . S
C714 C715 1.385 . S
C714 C716 1.478 . S
C715 H709 0.930 . S
C715 C711 1.400 . S
C715 C714 1.385 . S
C716 C714 1.478 . S
C716 C718 1.381 . S
C716 C722 1.383 . S
C717 C713 1.495 . S
C717 H723 0.959 . S
C717 H724 0.961 . S
C717 H725 0.960 . S
C718 C716 1.381 . S
C718 C719 1.394 . S
C718 H726 0.930 . S
C719 C718 1.394 . S
C719 C720 1.383 . S
C719 H727 0.929 . S
C720 C719 1.383 . S
C720 C721 1.377 . S
C721 H705 0.930 . S
C721 C720 1.377 . S
C721 C722 1.379 . S
C722 H706 0.931 . S
C722 C716 1.383 . S
C722 C721 1.379 . S
H723 C717 0.959 . S
H724 C717 0.961 . S
H725 C717 0.960 . S
H726 C718 0.930 . S
H727 C719 0.929 . S
H728 C736 0.929 . S
H729 C738 0.930 . S
H730 C740 0.930 . S
H731 C743 0.929 . S
H732 C746 0.930 . S
H733 C748 0.960 . S
H734 C748 0.960 . S
H735 C748 0.960 . S
C736 H728 0.929 . S
C736 C737 1.377 . S
C736 C738 1.384 . S
C737 C736 1.377 . S
C737 C743 1.390 . S
C738 H729 0.930 . S
C738 C736 1.384 . S
C738 C739 1.372 . S
C739 C738 1.372 . S
C739 C740 1.400 . S
C739 C744 1.490 . S
C740 H730 0.930 . S
C740 C739 1.400 . S
C740 C743 1.386 . S
H741 C757 0.930 . S
H742 C758 0.931 . S
C743 H731 0.929 . S
C743 C737 1.390 . S
C743 C740 1.386 . S
C744 C739 1.490 . S
C744 C746 1.395 . S
C744 C747 1.403 . S
H745 C751 0.930 . S
C746 H732 0.930 . S
C746 C744 1.395 . S
C746 C749 1.403 . S
C747 C744 1.403 . S
C747 C748 1.524 . S
C747 C751 1.400 . S
C748 H733 0.960 . S
C748 H734 0.960 . S
C748 H735 0.960 . S
C748 C747 1.524 . S
C749 C746 1.403 . S
C749 C750 1.392 . S
C749 C753 1.495 . S
C750 C749 1.392 . S
C750 C751 1.385 . S
C750 C752 1.478 . S
C751 H745 0.930 . S
C751 C747 1.400 . S
C751 C750 1.385 . S
C752 C750 1.478 . S
C752 C754 1.381 . S
C752 C758 1.383 . S
C753 C749 1.495 . S
C753 H759 0.959 . S
C753 H760 0.961 . S
C753 H761 0.960 . S
C754 C752 1.381 . S
C754 C755 1.394 . S
C754 H762 0.930 . S
C755 C754 1.394 . S
C755 C756 1.383 . S
C755 H763 0.929 . S
C756 C755 1.383 . S
C756 C757 1.377 . S
C757 H741 0.930 . S
C757 C756 1.377 . S
C757 C758 1.379 . S
C758 H742 0.931 . S
C758 C752 1.383 . S
C758 C757 1.379 . S
H759 C753 0.959 . S
H760 C753 0.961 . S
H761 C753 0.960 . S
H762 C754 0.930 . S
H763 C755 0.929 . S
H764 C772 0.929 . S
H765 C774 0.930 . S
H766 C776 0.930 . S
H767 C779 0.929 . S
H768 C782 0.930 . S
H769 C784 0.960 . S
H770 C784 0.960 . S
H771 C784 0.960 . S
C772 H764 0.929 . S
C772 C773 1.377 . S
C772 C774 1.384 . S
C773 C772 1.377 . S
C773 C779 1.390 . S
C774 H765 0.930 . S
C774 C772 1.384 . S
C774 C775 1.372 . S
C775 C774 1.372 . S
C775 C776 1.400 . S
C775 C780 1.490 . S
C776 H766 0.930 . S
C776 C775 1.400 . S
C776 C779 1.386 . S
H777 C793 0.930 . S
H778 C794 0.931 . S
C779 H767 0.929 . S
C779 C773 1.390 . S
C779 C776 1.386 . S
C780 C775 1.490 . S
C780 C782 1.395 . S
C780 C783 1.403 . S
H781 C787 0.930 . S
C782 H768 0.930 . S
C782 C780 1.395 . S
C782 C785 1.403 . S
C783 C780 1.403 . S
C783 C784 1.524 . S
C783 C787 1.400 . S
C784 H769 0.960 . S
C784 H770 0.960 . S
C784 H771 0.960 . S
C784 C783 1.524 . S
C785 C782 1.403 . S
C785 C786 1.392 . S
C785 C789 1.495 . S
C786 C785 1.392 . S
C786 C787 1.385 . S
C786 C788 1.478 . S
C787 H781 0.930 . S
C787 C783 1.400 . S
C787 C786 1.385 . S
C788 C786 1.478 . S
C788 C790 1.381 . S
C788 C794 1.383 . S
C789 C785 1.495 . S
C789 H795 0.959 . S
C789 H796 0.961 . S
C789 H797 0.960 . S
C790 C788 1.381 . S
C790 C791 1.394 . S
C790 H798 0.930 . S
C791 C790 1.394 . S
C791 C792 1.383 . S
C791 H799 0.929 . S
C792 C791 1.383 . S
C792 C793 1.377 . S
C793 H777 0.930 . S
C793 C792 1.377 . S
C793 C794 1.379 . S
C794 H778 0.931 . S
C794 C788 1.383 . S
C794 C793 1.379 . S
H795 C789 0.959 . S
H796 C789 0.961 . S
H797 C789 0.960 . S
H798 C790 0.930 . S
H799 C791 0.929 . S
H800 C808 0.929 . S
H801 C810 0.930 . S
H802 C812 0.930 . S
H803 C815 0.929 . S
H804 C818 0.930 . S
H805 C820 0.960 . S
H806 C820 0.960 . S
H807 C820 0.960 . S
C808 H800 0.929 . S
C808 C809 1.377 . S
C808 C810 1.384 . S
C809 C808 1.377 . S
C809 C815 1.390 . S
C810 H801 0.930 . S
C810 C808 1.384 . S
C810 C811 1.372 . S
C811 C810 1.372 . S
C811 C812 1.400 . S
C811 C816 1.490 . S
C812 H802 0.930 . S
C812 C811 1.400 . S
C812 C815 1.386 . S
H813 C829 0.930 . S
H814 C830 0.931 . S
C815 H803 0.929 . S
C815 C809 1.390 . S
C815 C812 1.386 . S
C816 C811 1.490 . S
C816 C818 1.395 . S
C816 C819 1.403 . S
H817 C823 0.930 . S
C818 H804 0.930 . S
C818 C816 1.395 . S
C818 C821 1.403 . S
C819 C816 1.403 . S
C819 C820 1.524 . S
C819 C823 1.400 . S
C820 H805 0.960 . S
C820 H806 0.960 . S
C820 H807 0.960 . S
C820 C819 1.524 . S
C821 C818 1.403 . S
C821 C822 1.392 . S
C821 C825 1.495 . S
C822 C821 1.392 . S
C822 C823 1.385 . S
C822 C824 1.478 . S
C823 H817 0.930 . S
C823 C819 1.400 . S
C823 C822 1.385 . S
C824 C822 1.478 . S
C824 C826 1.381 . S
C824 C830 1.383 . S
C825 C821 1.495 . S
C825 H831 0.959 . S
C825 H832 0.961 . S
C825 H833 0.960 . S
C826 C824 1.381 . S
C826 C827 1.394 . S
C826 H834 0.930 . S
C827 C826 1.394 . S
C827 C828 1.383 . S
C827 H835 0.929 . S
C828 C827 1.383 . S
C828 C829 1.377 . S
C829 H813 0.930 . S
C829 C828 1.377 . S
C829 C830 1.379 . S
C830 H814 0.931 . S
C830 C824 1.383 . S
C830 C829 1.379 . S
H831 C825 0.959 . S
H832 C825 0.961 . S
H833 C825 0.960 . S
H834 C826 0.930 . S
H835 C827 0.929 . S
H836 C844 0.929 . S
H837 C846 0.930 . S
H838 C848 0.930 . S
H839 C851 0.929 . S
H840 C854 0.930 . S
H841 C856 0.960 . S
H842 C856 0.960 . S
H843 C856 0.960 . S
C844 H836 0.929 . S
C844 C845 1.377 . S
C844 C846 1.384 . S
C845 C844 1.377 . S
C845 C851 1.390 . S
C846 H837 0.930 . S
C846 C844 1.384 . S
C846 C847 1.372 . S
C847 C846 1.372 . S
C847 C848 1.400 . S
C847 C852 1.490 . S
C848 H838 0.930 . S
C848 C847 1.400 . S
C848 C851 1.386 . S
H849 C865 0.930 . S
H850 C866 0.931 . S
C851 H839 0.929 . S
C851 C845 1.390 . S
C851 C848 1.386 . S
C852 C847 1.490 . S
C852 C854 1.395 . S
C852 C855 1.403 . S
H853 C859 0.930 . S
C854 H840 0.930 . S
C854 C852 1.395 . S
C854 C857 1.403 . S
C855 C852 1.403 . S
C855 C856 1.524 . S
C855 C859 1.400 . S
C856 H841 0.960 . S
C856 H842 0.960 . S
C856 H843 0.960 . S
C856 C855 1.524 . S
C857 C854 1.403 . S
C857 C858 1.392 . S
C857 C861 1.495 . S
C858 C857 1.392 . S
C858 C859 1.385 . S
C858 C860 1.478 . S
C859 H853 0.930 . S
C859 C855 1.400 . S
C859 C858 1.385 . S
C860 C858 1.478 . S
C860 C862 1.381 . S
C860 C866 1.383 . S
C861 C857 1.495 . S
C861 H867 0.959 . S
C861 H868 0.961 . S
C861 H869 0.960 . S
C862 C860 1.381 . S
C862 C863 1.394 . S
C862 H870 0.930 . S
C863 C862 1.394 . S
C863 C864 1.383 . S
C863 H871 0.929 . S
C864 C863 1.383 . S
C864 C865 1.377 . S
C865 H849 0.930 . S
C865 C864 1.377 . S
C865 C866 1.379 . S
C866 H850 0.931 . S
C866 C860 1.383 . S
C866 C865 1.379 . S
H867 C861 0.959 . S
H868 C861 0.961 . S
H869 C861 0.960 . S
H870 C862 0.930 . S
H871 C863 0.929 . S
H872 C880 0.929 . S
H873 C882 0.930 . S
H874 C884 0.930 . S
H875 C887 0.929 . S
H876 C890 0.930 . S
H877 C892 0.960 . S
H878 C892 0.960 . S
H879 C892 0.960 . S
C880 H872 0.929 . S
C880 C881 1.377 . S
C880 C882 1.384 . S
C881 C880 1.377 . S
C881 C887 1.390 . S
C882 H873 0.930 . S
C882 C880 1.384 . S
C882 C883 1.372 . S
C883 C882 1.372 . S
C883 C884 1.400 . S
C883 C888 1.490 . S
C884 H874 0.930 . S
C884 C883 1.400 . S
C884 C887 1.386 . S
H885 C901 0.930 . S
H886 C902 0.931 . S
C887 H875 0.929 . S
C887 C881 1.390 . S
C887 C884 1.386 . S
C888 C883 1.490 . S
C888 C890 1.395 . S
C888 C891 1.403 . S
H889 C895 0.930 . S
C890 H876 0.930 . S
C890 C888 1.395 . S
C890 C893 1.403 . S
C891 C888 1.403 . S
C891 C892 1.524 . S
C891 C895 1.400 . S
C892 H877 0.960 . S
C892 H878 0.960 . S
C892 H879 0.960 . S
C892 C891 1.524 . S
C893 C890 1.403 . S
C893 C894 1.392 . S
C893 C897 1.495 . S
C894 C893 1.392 . S
C894 C895 1.385 . S
C894 C896 1.478 . S
C895 H889 0.930 . S
C895 C891 1.400 . S
C895 C894 1.385 . S
C896 C894 1.478 . S
C896 C898 1.381 . S
C896 C902 1.383 . S
C897 C893 1.495 . S
C897 H903 0.959 . S
C897 H904 0.961 . S
C897 H905 0.960 . S
C898 C896 1.381 . S
C898 C899 1.394 . S
C898 H906 0.930 . S
C899 C898 1.394 . S
C899 C900 1.383 . S
C899 H907 0.929 . S
C900 C899 1.383 . S
C900 C901 1.377 . S
C901 H885 0.930 . S
C901 C900 1.377 . S
C901 C902 1.379 . S
C902 H886 0.931 . S
C902 C896 1.383 . S
C902 C901 1.379 . S
H903 C897 0.959 . S
H904 C897 0.961 . S
H905 C897 0.960 . S
H906 C898 0.930 . S
H907 C899 0.929 . S
H908 C916 0.929 . S
H909 C918 0.930 . S
H910 C920 0.930 . S
H911 C923 0.929 . S
H912 C926 0.930 . S
H913 C928 0.960 . S
H914 C928 0.960 . S
H915 C928 0.960 . S
C916 H908 0.929 . S
C916 C917 1.377 . S
C916 C918 1.384 . S
C917 C916 1.377 . S
C917 C923 1.390 . S
C918 H909 0.930 . S
C918 C916 1.384 . S
C918 C919 1.372 . S
C919 C918 1.372 . S
C919 C920 1.400 . S
C919 C924 1.490 . S
C920 H910 0.930 . S
C920 C919 1.400 . S
C920 C923 1.386 . S
H921 C937 0.930 . S
H922 C938 0.931 . S
C923 H911 0.929 . S
C923 C917 1.390 . S
C923 C920 1.386 . S
C924 C919 1.490 . S
C924 C926 1.395 . S
C924 C927 1.403 . S
H925 C931 0.930 . S
C926 H912 0.930 . S
C926 C924 1.395 . S
C926 C929 1.403 . S
C927 C924 1.403 . S
C927 C928 1.524 . S
C927 C931 1.400 . S
C928 H913 0.960 . S
C928 H914 0.960 . S
C928 H915 0.960 . S
C928 C927 1.524 . S
C929 C926 1.403 . S
C929 C930 1.392 . S
C929 C933 1.495 . S
C930 C929 1.392 . S
C930 C931 1.385 . S
C930 C932 1.478 . S
C931 H925 0.930 . S
C931 C927 1.400 . S
C931 C930 1.385 . S
C932 C930 1.478 . S
C932 C934 1.381 . S
C932 C938 1.383 . S
C933 C929 1.495 . S
C933 H939 0.959 . S
C933 H940 0.961 . S
C933 H941 0.960 . S
C934 C932 1.381 . S
C934 C935 1.394 . S
C934 H942 0.930 . S
C935 C934 1.394 . S
C935 C936 1.383 . S
C935 H943 0.929 . S
C936 C935 1.383 . S
C936 C937 1.377 . S
C937 H921 0.930 . S
C937 C936 1.377 . S
C937 C938 1.379 . S
C938 H922 0.931 . S
C938 C932 1.383 . S
C938 C937 1.379 . S
H939 C933 0.959 . S
H940 C933 0.961 . S
H941 C933 0.960 . S
H942 C934 0.930 . S
H943 C935 0.929 . S
H944 C952 0.929 . S
H945 C954 0.930 . S
H946 C956 0.930 . S
H947 C959 0.929 . S
H948 C962 0.930 . S
H949 C964 0.960 . S
H950 C964 0.960 . S
H951 C964 0.960 . S
C952 H944 0.929 . S
C952 C953 1.377 . S
C952 C954 1.384 . S
C953 C952 1.377 . S
C953 C959 1.390 . S
C954 H945 0.930 . S
C954 C952 1.384 . S
C954 C955 1.372 . S
C955 C954 1.372 . S
C955 C956 1.400 . S
C955 C960 1.490 . S
C956 H946 0.930 . S
C956 C955 1.400 . S
C956 C959 1.386 . S
H957 C973 0.930 . S
H958 C974 0.931 . S
C959 H947 0.929 . S
C959 C953 1.390 . S
C959 C956 1.386 . S
C960 C955 1.490 . S
C960 C962 1.395 . S
C960 C963 1.403 . S
H961 C967 0.930 . S
C962 H948 0.930 . S
C962 C960 1.395 . S
C962 C965 1.403 . S
C963 C960 1.403 . S
C963 C964 1.524 . S
C963 C967 1.400 . S
C964 H949 0.960 . S
C964 H950 0.960 . S
C964 H951 0.960 . S
C964 C963 1.524 . S
C965 C962 1.403 . S
C965 C966 1.392 . S
C965 C969 1.495 . S
C966 C965 1.392 . S
C966 C967 1.385 . S
C966 C968 1.478 . S
C967 H961 0.930 . S
C967 C963 1.400 . S
C967 C966 1.385 . S
C968 C966 1.478 . S
C968 C970 1.381 . S
C968 C974 1.383 . S
C969 C965 1.495 . S
C969 H975 0.959 . S
C969 H976 0.961 . S
C969 H977 0.960 . S
C970 C968 1.381 . S
C970 C971 1.394 . S
C970 H978 0.930 . S
C971 C970 1.394 . S
C971 C972 1.383 . S
C971 H979 0.929 . S
C972 C971 1.383 . S
C972 C973 1.377 . S
C973 H957 0.930 . S
C973 C972 1.377 . S
C973 C974 1.379 . S
C974 H958 0.931 . S
C974 C968 1.383 . S
C974 C973 1.379 . S
H975 C969 0.959 . S
H976 C969 0.961 . S
H977 C969 0.960 . S
H978 C970 0.930 . S
H979 C971 0.929 . S
H980 C988 0.929 . S
H981 C990 0.930 . S
H982 C992 0.930 . S
H983 C995 0.929 . S
H984 C998 0.930 . S
H985 C1000 0.960 . S
H986 C1000 0.960 . S
H987 C1000 0.960 . S
C988 H980 0.929 . S
C988 C989 1.377 . S
C988 C990 1.384 . S
C989 C988 1.377 . S
C989 C995 1.390 . S
C990 H981 0.930 . S
C990 C988 1.384 . S
C990 C991 1.372 . S
C991 C990 1.372 . S
C991 C992 1.400 . S
C991 C996 1.490 . S
C992 H982 0.930 . S
C992 C991 1.400 . S
C992 C995 1.386 . S
H993 C1009 0.930 . S
H994 C1010 0.931 . S
C995 H983 0.929 . S
C995 C989 1.390 . S
C995 C992 1.386 . S
C996 C991 1.490 . S
C996 C998 1.395 . S
C996 C999 1.403 . S
H997 C1003 0.930 . S
C998 H984 0.930 . S
C998 C996 1.395 . S
C998 C1001 1.403 . S
C999 C996 1.403 . S
C999 C1000 1.524 . S
C999 C1003 1.400 . S
C1000 H985 0.960 . S
C1000 H986 0.960 . S
C1000 H987 0.960 . S
C1000 C999 1.524 . S
C1001 C998 1.403 . S
C1001 C1002 1.392 . S
C1001 C1005 1.495 . S
C1002 C1001 1.392 . S
C1002 C1003 1.385 . S
C1002 C1004 1.478 . S
C1003 H997 0.930 . S
C1003 C999 1.400 . S
C1003 C1002 1.385 . S
C1004 C1002 1.478 . S
C1004 C1006 1.381 . S
C1004 C1010 1.383 . S
C1005 C1001 1.495 . S
C1005 H1011 0.959 . S
C1005 H1012 0.961 . S
C1005 H1013 0.960 . S
C1006 C1004 1.381 . S
C1006 C1007 1.394 . S
C1006 H1014 0.930 . S
C1007 C1006 1.394 . S
C1007 C1008 1.383 . S
C1007 H1015 0.929 . S
C1008 C1007 1.383 . S
C1008 C1009 1.377 . S
C1009 H993 0.930 . S
C1009 C1008 1.377 . S
C1009 C1010 1.379 . S
C1010 H994 0.931 . S
C1010 C1004 1.383 . S
C1010 C1009 1.379 . S
H1011 C1005 0.959 . S
H1012 C1005 0.961 . S
H1013 C1005 0.960 . S
H1014 C1006 0.930 . S
H1015 C1007 0.929 . S
H1016 C1024 0.929 . S
H1017 C1026 0.930 . S
H1018 C1028 0.930 . S
H1019 C1031 0.929 . S
H1020 C1034 0.930 . S
H1021 C1036 0.960 . S
H1022 C1036 0.960 . S
H1023 C1036 0.960 . S
C1024 H1016 0.929 . S
C1024 C1025 1.377 . S
C1024 C1026 1.384 . S
C1025 C1024 1.377 . S
C1025 C1031 1.390 . S
C1026 H1017 0.930 . S
C1026 C1024 1.384 . S
C1026 C1027 1.372 . S
C1027 C1026 1.372 . S
C1027 C1028 1.400 . S
C1027 C1032 1.490 . S
C1028 H1018 0.930 . S
C1028 C1027 1.400 . S
C1028 C1031 1.386 . S
H1029 C1045 0.930 . S
H1030 C1046 0.931 . S
C1031 H1019 0.929 . S
C1031 C1025 1.390 . S
C1031 C1028 1.386 . S
C1032 C1027 1.490 . S
C1032 C1034 1.395 . S
C1032 C1035 1.403 . S
H1033 C1039 0.930 . S
C1034 H1020 0.930 . S
C1034 C1032 1.395 . S
C1034 C1037 1.403 . S
C1035 C1032 1.403 . S
C1035 C1036 1.524 . S
C1035 C1039 1.400 . S
C1036 H1021 0.960 . S
C1036 H1022 0.960 . S
C1036 H1023 0.960 . S
C1036 C1035 1.524 . S
C1037 C1034 1.403 . S
C1037 C1038 1.392 . S
C1037 C1041 1.495 . S
C1038 C1037 1.392 . S
C1038 C1039 1.385 . S
C1038 C1040 1.478 . S
C1039 H1033 0.930 . S
C1039 C1035 1.400 . S
C1039 C1038 1.385 . S
C1040 C1038 1.478 . S
C1040 C1042 1.381 . S
C1040 C1046 1.383 . S
C1041 C1037 1.495 . S
C1041 H1047 0.959 . S
C1041 H1048 0.961 . S
C1041 H1049 0.960 . S
C1042 C1040 1.381 . S
C1042 C1043 1.394 . S
C1042 H1050 0.930 . S
C1043 C1042 1.394 . S
C1043 C1044 1.383 . S
C1043 H1051 0.929 . S
C1044 C1043 1.383 . S
C1044 C1045 1.377 . S
C1045 H1029 0.930 . S
C1045 C1044 1.377 . S
C1045 C1046 1.379 . S
C1046 H1030 0.931 . S
C1046 C1040 1.383 . S
C1046 C1045 1.379 . S
H1047 C1041 0.959 . S
H1048 C1041 0.961 . S
H1049 C1041 0.960 . S
H1050 C1042 0.930 . S
H1051 C1043 0.929 . S
H1052 C1060 0.929 . S
H1053 C1062 0.930 . S
H1054 C1064 0.930 . S
H1055 C1067 0.929 . S
H1056 C1070 0.930 . S
H1057 C1072 0.960 . S
H1058 C1072 0.960 . S
H1059 C1072 0.960 . S
C1060 H1052 0.929 . S
C1060 C1061 1.377 . S
C1060 C1062 1.384 . S
C1061 C1060 1.377 . S
C1061 C1067 1.390 . S
C1062 H1053 0.930 . S
C1062 C1060 1.384 . S
C1062 C1063 1.372 . S
C1063 C1062 1.372 . S
C1063 C1064 1.400 . S
C1063 C1068 1.490 . S
C1064 H1054 0.930 . S
C1064 C1063 1.400 . S
C1064 C1067 1.386 . S
H1065 C1081 0.930 . S
H1066 C1082 0.931 . S
C1067 H1055 0.929 . S
C1067 C1061 1.390 . S
C1067 C1064 1.386 . S
C1068 C1063 1.490 . S
C1068 C1070 1.395 . S
C1068 C1071 1.403 . S
H1069 C1075 0.930 . S
C1070 H1056 0.930 . S
C1070 C1068 1.395 . S
C1070 C1073 1.403 . S
C1071 C1068 1.403 . S
C1071 C1072 1.524 . S
C1071 C1075 1.400 . S
C1072 H1057 0.960 . S
C1072 H1058 0.960 . S
C1072 H1059 0.960 . S
C1072 C1071 1.524 . S
C1073 C1070 1.403 . S
C1073 C1074 1.392 . S
C1073 C1077 1.495 . S
C1074 C1073 1.392 . S
C1074 C1075 1.385 . S
C1074 C1076 1.478 . S
C1075 H1069 0.930 . S
C1075 C1071 1.400 . S
C1075 C1074 1.385 . S
C1076 C1074 1.478 . S
C1076 C1078 1.381 . S
C1076 C1082 1.383 . S
C1077 C1073 1.495 . S
C1077 H1083 0.959 . S
C1077 H1084 0.961 . S
C1077 H1085 0.960 . S
C1078 C1076 1.381 . S
C1078 C1079 1.394 . S
C1078 H1086 0.930 . S
C1079 C1078 1.394 . S
C1079 C1080 1.383 . S
C1079 H1087 0.929 . S
C1080 C1079 1.383 . S
C1080 C1081 1.377 . S
C1081 H1065 0.930 . S
C1081 C1080 1.377 . S
C1081 C1082 1.379 . S
C1082 H1066 0.931 . S
C1082 C1076 1.383 . S
C1082 C1081 1.379 . S
H1083 C1077 0.959 . S
H1084 C1077 0.961 . S
H1085 C1077 0.960 . S
H1086 C1078 0.930 . S
H1087 C1079 0.929 . S
H1088 C1096 0.929 . S
H1089 C1098 0.930 . S
H1090 C1100 0.930 . S
H1091 C1103 0.929 . S
H1092 C1106 0.930 . S
H1093 C1108 0.960 . S
H1094 C1108 0.960 . S
H1095 C1108 0.960 . S
C1096 H1088 0.929 . S
C1096 C1097 1.377 . S
C1096 C1098 1.384 . S
C1097 C1096 1.377 . S
C1097 C1103 1.390 . S
C1098 H1089 0.930 . S
C1098 C1096 1.384 . S
C1098 C1099 1.372 . S
C1099 C1098 1.372 . S
C1099 C1100 1.400 . S
C1099 C1104 1.490 . S
C1100 H1090 0.930 . S
C1100 C1099 1.400 . S
C1100 C1103 1.386 . S
H1101 C1117 0.930 . S
H1102 C1118 0.931 . S
C1103 H1091 0.929 . S
C1103 C1097 1.390 . S
C1103 C1100 1.386 . S
C1104 C1099 1.490 . S
C1104 C1106 1.395 . S
C1104 C1107 1.403 1_655 S
H1105 C1111 0.930 . S
C1106 H1092 0.930 . S
C1106 C1104 1.395 . S
C1106 C1109 1.403 1_565 S
C1107 C1104 1.403 1_455 S
C1107 C1108 1.524 . S
C1107 C1111 1.400 1_565 S
C1108 H1093 0.960 . S
C1108 H1094 0.960 . S
C1108 H1095 0.960 . S
C1108 C1107 1.524 . S
C1109 C1106 1.403 1_545 S
C1109 C1110 1.392 1_655 S
C1109 C1113 1.495 . S
C1110 C1109 1.392 1_455 S
C1110 C1111 1.385 . S
C1110 C1112 1.478 . S
C1111 H1105 0.930 . S
C1111 C1107 1.400 1_545 S
C1111 C1110 1.385 . S
C1112 C1110 1.478 . S
C1112 C1114 1.381 . S
C1112 C1118 1.383 . S
C1113 C1109 1.495 . S
C1113 H1119 0.959 . S
C1113 H1120 0.961 . S
C1113 H1121 0.960 . S
C1114 C1112 1.381 . S
C1114 C1115 1.394 . S
C1114 H1122 0.930 . S
C1115 C1114 1.394 . S
C1115 C1116 1.383 . S
C1115 H1123 0.929 . S
C1116 C1115 1.383 . S
C1116 C1117 1.377 . S
C1117 H1101 0.930 . S
C1117 C1116 1.377 . S
C1117 C1118 1.379 . S
C1118 H1102 0.931 . S
C1118 C1112 1.383 . S
C1118 C1117 1.379 . S
H1119 C1113 0.959 . S
H1120 C1113 0.961 . S
H1121 C1113 0.960 . S
H1122 C1114 0.930 . S
H1123 C1115 0.929 . S
H1124 C1132 0.929 . S
H1125 C1134 0.930 . S
H1126 C1136 0.930 1_565 S
H1127 C1139 0.929 . S
H1128 C1142 0.930 . S
H1129 C1144 0.960 . S
H1130 C1144 0.960 . S
H1131 C1144 0.960 . S
C1132 H1124 0.929 . S
C1132 C1133 1.377 . S
C1132 C1134 1.384 . S
C1133 C1132 1.377 . S
C1133 C1139 1.390 . S
C1134 H1125 0.930 . S
C1134 C1132 1.384 . S
C1134 C1135 1.372 . S
C1135 C1134 1.372 . S
C1135 C1136 1.400 . S
C1135 C1140 1.490 . S
C1136 H1126 0.930 1_545 S
C1136 C1135 1.400 . S
C1136 C1139 1.386 . S
H1137 C1153 0.930 . S
H1138 C1154 0.931 . S
C1139 H1127 0.929 . S
C1139 C1133 1.390 . S
C1139 C1136 1.386 . S
C1140 C1135 1.490 . S
C1140 C1142 1.395 . S
C1140 C1143 1.403 1_545 S
H1141 C1147 0.930 . S
C1142 H1128 0.930 . S
C1142 C1140 1.395 . S
C1142 C1145 1.403 1_655 S
C1143 C1140 1.403 1_565 S
C1143 C1144 1.524 . S
C1143 C1147 1.400 1_655 S
C1144 H1129 0.960 . S
C1144 H1130 0.960 . S
C1144 H1131 0.960 . S
C1144 C1143 1.524 . S
C1145 C1142 1.403 1_455 S
C1145 C1146 1.392 1_545 S
C1145 C1149 1.495 . S
C1146 C1145 1.392 1_565 S
C1146 C1147 1.385 . S
C1146 C1148 1.478 . S
C1147 H1141 0.930 . S
C1147 C1143 1.400 1_455 S
C1147 C1146 1.385 . S
C1148 C1146 1.478 . S
C1148 C1150 1.381 . S
C1148 C1154 1.383 . S
C1149 C1145 1.495 . S
C1149 H1155 0.959 . S
C1149 H1156 0.961 . S
C1149 H1157 0.960 . S
C1150 C1148 1.381 . S
C1150 C1151 1.394 . S
C1150 H1158 0.930 1_565 S
C1151 C1150 1.394 . S
C1151 C1152 1.383 . S
C1151 H1159 0.929 . S
C1152 C1151 1.383 . S
C1152 C1153 1.377 . S
C1153 H1137 0.930 . S
C1153 C1152 1.377 . S
C1153 C1154 1.379 . S
C1154 H1138 0.931 . S
C1154 C1148 1.383 . S
C1154 C1153 1.379 . S
H1155 C1149 0.959 . S
H1156 C1149 0.961 . S
H1157 C1149 0.960 . S
H1158 C1150 0.930 1_545 S
H1159 C1151 0.929 . S
H1160 C1168 0.929 . S
H1161 C1170 0.930 . S
H1162 C1172 0.930 . S
H1163 C1175 0.929 . S
H1164 C1178 0.930 . S
H1165 C1180 0.960 . S
H1166 C1180 0.960 . S
H1167 C1180 0.960 . S
C1168 H1160 0.929 . S
C1168 C1169 1.377 . S
C1168 C1170 1.384 . S
C1169 C1168 1.377 . S
C1169 C1175 1.390 . S
C1170 H1161 0.930 . S
C1170 C1168 1.384 . S
C1170 C1171 1.372 . S
C1171 C1170 1.372 . S
C1171 C1172 1.400 . S
C1171 C1176 1.490 . S
C1172 H1162 0.930 . S
C1172 C1171 1.400 . S
C1172 C1175 1.386 . S
H1173 C1189 0.930 . S
H1174 C1190 0.931 . S
C1175 H1163 0.929 . S
C1175 C1169 1.390 . S
C1175 C1172 1.386 . S
C1176 C1171 1.490 . S
C1176 C1178 1.395 . S
C1176 C1179 1.403 1_455 S
H1177 C1183 0.930 . S
C1178 H1164 0.930 . S
C1178 C1176 1.395 . S
C1178 C1181 1.403 . S
C1179 C1176 1.403 1_655 S
C1179 C1180 1.524 . S
C1179 C1183 1.400 . S
C1180 H1165 0.960 . S
C1180 H1166 0.960 . S
C1180 H1167 0.960 . S
C1180 C1179 1.524 . S
C1181 C1178 1.403 . S
C1181 C1182 1.392 1_455 S
C1181 C1185 1.495 . S
C1182 C1181 1.392 1_655 S
C1182 C1183 1.385 . S
C1182 C1184 1.478 . S
C1183 H1177 0.930 . S
C1183 C1179 1.400 . S
C1183 C1182 1.385 . S
C1184 C1182 1.478 . S
C1184 C1186 1.381 . S
C1184 C1190 1.383 . S
C1185 C1181 1.495 . S
C1185 H1191 0.959 . S
C1185 H1192 0.961 . S
C1185 H1193 0.960 . S
C1186 C1184 1.381 . S
C1186 C1187 1.394 . S
C1186 H1194 0.930 . S
C1187 C1186 1.394 . S
C1187 C1188 1.383 . S
C1187 H1195 0.929 . S
C1188 C1187 1.383 . S
C1188 C1189 1.377 . S
C1189 H1173 0.930 . S
C1189 C1188 1.377 . S
C1189 C1190 1.379 . S
C1190 H1174 0.931 . S
C1190 C1184 1.383 . S
C1190 C1189 1.379 . S
H1191 C1185 0.959 . S
H1192 C1185 0.961 . S
H1193 C1185 0.960 . S
H1194 C1186 0.930 . S
H1195 C1187 0.929 . S
H1196 C1204 0.929 . S
H1197 C1206 0.930 . S
H1198 C1208 0.930 . S
H1199 C1211 0.929 . S
H1200 C1214 0.930 . S
H1201 C1216 0.960 . S
H1202 C1216 0.960 . S
H1203 C1216 0.960 . S
C1204 H1196 0.929 . S
C1204 C1205 1.377 . S
C1204 C1206 1.384 . S
C1205 C1204 1.377 . S
C1205 C1211 1.390 . S
C1206 H1197 0.930 . S
C1206 C1204 1.384 . S
C1206 C1207 1.372 . S
C1207 C1206 1.372 . S
C1207 C1208 1.400 . S
C1207 C1212 1.490 . S
C1208 H1198 0.930 . S
C1208 C1207 1.400 . S
C1208 C1211 1.386 . S
H1209 C1225 0.930 . S
H1210 C1226 0.931 . S
C1211 H1199 0.929 . S
C1211 C1205 1.390 . S
C1211 C1208 1.386 . S
C1212 C1207 1.490 . S
C1212 C1214 1.395 1_565 S
C1212 C1215 1.403 . S
H1213 C1219 0.930 . S
C1214 H1200 0.930 . S
C1214 C1212 1.395 1_545 S
C1214 C1217 1.403 . S
C1215 C1212 1.403 . S
C1215 C1216 1.524 . S
C1215 C1219 1.400 . S
C1216 H1201 0.960 . S
C1216 H1202 0.960 . S
C1216 H1203 0.960 . S
C1216 C1215 1.524 . S
C1217 C1214 1.403 . S
C1217 C1218 1.392 . S
C1217 C1221 1.495 . S
C1218 C1217 1.392 . S
C1218 C1219 1.385 1_545 S
C1218 C1220 1.478 . S
C1219 H1213 0.930 . S
C1219 C1215 1.400 . S
C1219 C1218 1.385 1_565 S
C1220 C1218 1.478 . S
C1220 C1222 1.381 . S
C1220 C1226 1.383 . S
C1221 C1217 1.495 . S
C1221 H1227 0.959 . S
C1221 H1228 0.961 . S
C1221 H1229 0.960 . S
C1222 C1220 1.381 . S
C1222 C1223 1.394 . S
C1222 H1230 0.930 . S
C1223 C1222 1.394 . S
C1223 C1224 1.383 . S
C1223 H1231 0.929 . S
C1224 C1223 1.383 . S
C1224 C1225 1.377 . S
C1225 H1209 0.930 . S
C1225 C1224 1.377 . S
C1225 C1226 1.379 . S
C1226 H1210 0.931 . S
C1226 C1220 1.383 . S
C1226 C1225 1.379 . S
H1227 C1221 0.959 . S
H1228 C1221 0.961 . S
H1229 C1221 0.960 . S
H1230 C1222 0.930 . S
H1231 C1223 0.929 . S
H1232 C1240 0.929 . S
H1233 C1242 0.930 . S
H1234 C1244 0.930 . S
H1235 C1247 0.929 . S
H1236 C1250 0.930 . S
H1237 C1252 0.960 . S
H1238 C1252 0.960 . S
H1239 C1252 0.960 . S
C1240 H1232 0.929 . S
C1240 C1241 1.377 . S
C1240 C1242 1.384 . S
C1241 C1240 1.377 . S
C1241 C1247 1.390 . S
C1242 H1233 0.930 . S
C1242 C1240 1.384 . S
C1242 C1243 1.372 . S
C1243 C1242 1.372 . S
C1243 C1244 1.400 . S
C1243 C1248 1.490 . S
C1244 H1234 0.930 . S
C1244 C1243 1.400 . S
C1244 C1247 1.386 . S
H1245 C1261 0.930 . S
H1246 C1262 0.931 . S
C1247 H1235 0.929 . S
C1247 C1241 1.390 . S
C1247 C1244 1.386 . S
C1248 C1243 1.490 . S
C1248 C1250 1.395 . S
C1248 C1251 1.403 . S
H1249 C1255 0.930 . S
C1250 H1236 0.930 . S
C1250 C1248 1.395 . S
C1250 C1253 1.403 . S
C1251 C1248 1.403 . S
C1251 C1252 1.524 . S
C1251 C1255 1.400 . S
C1252 H1237 0.960 . S
C1252 H1238 0.960 . S
C1252 H1239 0.960 . S
C1252 C1251 1.524 . S
C1253 C1250 1.403 . S
C1253 C1254 1.392 . S
C1253 C1257 1.495 . S
C1254 C1253 1.392 . S
C1254 C1255 1.385 . S
C1254 C1256 1.478 . S
C1255 H1249 0.930 . S
C1255 C1251 1.400 . S
C1255 C1254 1.385 . S
C1256 C1254 1.478 . S
C1256 C1258 1.381 . S
C1256 C1262 1.383 . S
C1257 C1253 1.495 . S
C1257 H1263 0.959 . S
C1257 H1264 0.961 . S
C1257 H1265 0.960 . S
C1258 C1256 1.381 . S
C1258 C1259 1.394 . S
C1258 H1266 0.930 . S
C1259 C1258 1.394 . S
C1259 C1260 1.383 . S
C1259 H1267 0.929 . S
C1260 C1259 1.383 . S
C1260 C1261 1.377 . S
C1261 H1245 0.930 . S
C1261 C1260 1.377 . S
C1261 C1262 1.379 . S
C1262 H1246 0.931 . S
C1262 C1256 1.383 . S
C1262 C1261 1.379 . S
H1263 C1257 0.959 . S
H1264 C1257 0.961 . S
H1265 C1257 0.960 . S
H1266 C1258 0.930 . S
H1267 C1259 0.929 . S
H1268 C1276 0.929 . S
H1269 C1278 0.930 . S
H1270 C1280 0.930 . S
H1271 C1283 0.929 . S
H1272 C1286 0.930 . S
H1273 C1288 0.960 . S
H1274 C1288 0.960 . S
H1275 C1288 0.960 . S
C1276 H1268 0.929 . S
C1276 C1277 1.377 . S
C1276 C1278 1.384 . S
C1277 C1276 1.377 . S
C1277 C1283 1.390 . S
C1278 H1269 0.930 . S
C1278 C1276 1.384 . S
C1278 C1279 1.372 . S
C1279 C1278 1.372 . S
C1279 C1280 1.400 . S
C1279 C1284 1.490 . S
C1280 H1270 0.930 . S
C1280 C1279 1.400 . S
C1280 C1283 1.386 . S
H1281 C1297 0.930 . S
H1282 C1298 0.931 . S
C1283 H1271 0.929 . S
C1283 C1277 1.390 . S
C1283 C1280 1.386 . S
C1284 C1279 1.490 . S
C1284 C1286 1.395 . S
C1284 C1287 1.403 . S
H1285 C1291 0.930 . S
C1286 H1272 0.930 . S
C1286 C1284 1.395 . S
C1286 C1289 1.403 . S
C1287 C1284 1.403 . S
C1287 C1288 1.524 . S
C1287 C1291 1.400 . S
C1288 H1273 0.960 . S
C1288 H1274 0.960 . S
C1288 H1275 0.960 . S
C1288 C1287 1.524 . S
C1289 C1286 1.403 . S
C1289 C1290 1.392 . S
C1289 C1293 1.495 . S
C1290 C1289 1.392 . S
C1290 C1291 1.385 . S
C1290 C1292 1.478 . S
C1291 H1285 0.930 . S
C1291 C1287 1.400 . S
C1291 C1290 1.385 . S
C1292 C1290 1.478 . S
C1292 C1294 1.381 . S
C1292 C1298 1.383 . S
C1293 C1289 1.495 . S
C1293 H1299 0.959 . S
C1293 H1300 0.961 . S
C1293 H1301 0.960 . S
C1294 C1292 1.381 . S
C1294 C1295 1.394 . S
C1294 H1302 0.930 . S
C1295 C1294 1.394 . S
C1295 C1296 1.383 . S
C1295 H1303 0.929 . S
C1296 C1295 1.383 . S
C1296 C1297 1.377 . S
C1297 H1281 0.930 . S
C1297 C1296 1.377 . S
C1297 C1298 1.379 . S
C1298 H1282 0.931 . S
C1298 C1292 1.383 . S
C1298 C1297 1.379 . S
H1299 C1293 0.959 . S
H1300 C1293 0.961 . S
H1301 C1293 0.960 . S
H1302 C1294 0.930 . S
H1303 C1295 0.929 . S
H1304 C1312 0.929 . S
H1305 C1314 0.930 . S
H1306 C1316 0.930 . S
H1307 C1319 0.929 . S
H1308 C1322 0.930 . S
H1309 C1324 0.960 . S
H1310 C1324 0.960 . S
H1311 C1324 0.960 . S
C1312 H1304 0.929 . S
C1312 C1313 1.377 . S
C1312 C1314 1.384 . S
C1313 C1312 1.377 . S
C1313 C1319 1.390 . S
C1314 H1305 0.930 . S
C1314 C1312 1.384 . S
C1314 C1315 1.372 . S
C1315 C1314 1.372 . S
C1315 C1316 1.400 . S
C1315 C1320 1.490 . S
C1316 H1306 0.930 . S
C1316 C1315 1.400 . S
C1316 C1319 1.386 . S
H1317 C1333 0.930 . S
H1318 C1334 0.931 . S
C1319 H1307 0.929 . S
C1319 C1313 1.390 . S
C1319 C1316 1.386 . S
C1320 C1315 1.490 . S
C1320 C1322 1.395 . S
C1320 C1323 1.403 . S
H1321 C1327 0.930 . S
C1322 H1308 0.930 . S
C1322 C1320 1.395 . S
C1322 C1325 1.403 1_545 S
C1323 C1320 1.403 . S
C1323 C1324 1.524 . S
C1323 C1327 1.400 1_545 S
C1324 H1309 0.960 . S
C1324 H1310 0.960 . S
C1324 H1311 0.960 . S
C1324 C1323 1.524 . S
C1325 C1322 1.403 1_565 S
C1325 C1326 1.392 . S
C1325 C1329 1.495 . S
C1326 C1325 1.392 . S
C1326 C1327 1.385 . S
C1326 C1328 1.478 . S
C1327 H1321 0.930 . S
C1327 C1323 1.400 1_565 S
C1327 C1326 1.385 . S
C1328 C1326 1.478 . S
C1328 C1330 1.381 . S
C1328 C1334 1.383 . S
C1329 C1325 1.495 . S
C1329 H1335 0.959 . S
C1329 H1336 0.961 . S
C1329 H1337 0.960 . S
C1330 C1328 1.381 . S
C1330 C1331 1.394 . S
C1330 H1338 0.930 . S
C1331 C1330 1.394 . S
C1331 C1332 1.383 . S
C1331 H1339 0.929 . S
C1332 C1331 1.383 . S
C1332 C1333 1.377 . S
C1333 H1317 0.930 . S
C1333 C1332 1.377 . S
C1333 C1334 1.379 . S
C1334 H1318 0.931 . S
C1334 C1328 1.383 . S
C1334 C1333 1.379 . S
H1335 C1329 0.959 . S
H1336 C1329 0.961 . S
H1337 C1329 0.960 . S
H1338 C1330 0.930 . S
H1339 C1331 0.929 . S
H1340 C1348 0.929 . S
H1341 C1350 0.930 . S
H1342 C1352 0.930 . S
H1343 C1355 0.929 . S
H1344 C1358 0.930 . S
H1345 C1360 0.956 1_455 S
H1346 C1360 0.962 . S
H1347 C1360 0.962 . S
C1348 H1340 0.929 . S
C1348 C1349 1.377 . S
C1348 C1350 1.384 . S
C1349 C1348 1.377 . S
C1349 C1355 1.390 . S
C1350 H1341 0.930 . S
C1350 C1348 1.384 . S
C1350 C1351 1.372 . S
C1351 C1350 1.372 . S
C1351 C1352 1.400 . S
C1351 C1356 1.490 . S
C1352 H1342 0.930 . S
C1352 C1351 1.400 . S
C1352 C1355 1.386 . S
H1353 C1369 0.930 . S
H1354 C1370 0.931 . S
C1355 H1343 0.929 . S
C1355 C1349 1.390 . S
C1355 C1352 1.386 . S
C1356 C1351 1.490 . S
C1356 C1358 1.395 . S
C1356 C1359 1.403 . S
H1357 C1363 0.930 . S
C1358 H1344 0.930 . S
C1358 C1356 1.395 . S
C1358 C1361 1.403 . S
C1359 C1356 1.403 . S
C1359 C1360 1.524 . S
C1359 C1363 1.400 1_655 S
C1360 H1345 0.956 1_655 S
C1360 H1346 0.962 . S
C1360 H1347 0.962 . S
C1360 C1359 1.524 . S
C1361 C1358 1.403 . S
C1361 C1362 1.392 1_655 S
C1361 C1365 1.495 . S
C1362 C1361 1.392 1_455 S
C1362 C1363 1.385 . S
C1362 C1364 1.478 . S
C1363 H1357 0.930 . S
C1363 C1359 1.400 1_455 S
C1363 C1362 1.385 . S
C1364 C1362 1.478 . S
C1364 C1366 1.381 . S
C1364 C1370 1.383 . S
C1365 C1361 1.495 . S
C1365 H1371 0.959 . S
C1365 H1372 0.961 1_655 S
C1365 H1373 0.960 1_655 S
C1366 C1364 1.381 . S
C1366 C1367 1.394 . S
C1366 H1374 0.930 . S
C1367 C1366 1.394 . S
C1367 C1368 1.383 . S
C1367 H1375 0.929 . S
C1368 C1367 1.383 . S
C1368 C1369 1.377 . S
C1369 H1353 0.930 . S
C1369 C1368 1.377 . S
C1369 C1370 1.379 . S
C1370 H1354 0.931 . S
C1370 C1364 1.383 . S
C1370 C1369 1.379 . S
H1371 C1365 0.959 . S
H1372 C1365 0.961 1_455 S
H1373 C1365 0.960 1_455 S
H1374 C1366 0.930 . S
H1375 C1367 0.929 . S
C233 C8 1.234 . S
C252 C163 1.279 . S
C269 C121 1.259 . S
C288 C22 1.224 . S
C305 C135 1.253 . S
C324 C36 1.226 . S
C341 C149 1.263 . S
C360 C50 1.195 . S
C377 C79 1.262 . S
C396 C64 1.228 . S
C413 C78 1.229 . S
C432 C93 1.266 . S
C449 C92 1.229 . S
C468 C107 1.268 . S
C485 C106 1.225 . S
C504 C65 1.277 . S
C521 C120 1.230 . S
C540 C51 1.232 . S
C557 C9 1.256 . S
C576 C134 1.245 . S
C593 C23 1.263 . S
C612 C148 1.237 . S
C629 C37 1.263 . S
C648 C162 1.195 . S
C665 C191 1.258 . S
C684 C176 1.257 . S
C701 C190 1.237 . S
C720 C205 1.239 . S
C737 C219 1.256 . S
C756 C204 1.249 . S
C773 C177 1.262 . S
C792 C218 1.203 . S
C809 C202 1.468 . S
C828 C6 1.475 . S
C845 C216 1.467 . S
C864 C20 1.458 . S
C881 C174 1.468 . S
C900 C34 1.474 . S
C917 C48 1.470 . S
C936 C188 1.453 . S
C953 C62 1.471 . S
C972 C146 1.459 . S
C989 C160 1.467 . S
C1008 C76 1.468 . S
C1025 C90 1.472 . S
C1044 C118 1.459 . S
C1061 C104 1.469 . S
C1080 C132 1.477 . S
C1097 C35 1.334 . S
C1116 C7 1.320 . S
C1133 C49 1.339 . S
C1152 C21 1.320 . S
C1169 C63 1.334 . S
C1188 C91 1.329 . S
C1205 C77 1.334 . S
C1224 C105 1.344 . S
C1241 C147 1.339 . S
C1260 C119 1.346 . S
C1277 C133 1.336 . S
C1296 C161 1.338 . S
C1313 C203 1.337 . S
C1332 C175 1.347 . S
C1349 C189 1.335 . S
C1368 C217 1.343 . S
