# Generated by pormake.
# Topology uow, (4)-cn, num edge types: 1
# Building blocks:
#     Node 0, Type 0, BuildingBlock: QUQFOY_clean_sbu_3, # of connection points: 4
#     Node 1, Type 0, BuildingBlock: QUQFOY_clean_sbu_3, # of connection points: 4
#     Node 2, Type 0, BuildingBlock: QUQFOY_clean_sbu_3, # of connection points: 4
#     Node 3, Type 0, BuildingBlock: QUQFOY_clean_sbu_3, # of connection points: 4
#     Node 4, Type 0, BuildingBlock: QUQFOY_clean_sbu_3, # of connection points: 4
#     Node 5, Type 0, BuildingBlock: QUQFOY_clean_sbu_3, # of connection points: 4
#     Node 6, Type 0, BuildingBlock: QUQFOY_clean_sbu_3, # of connection points: 4
#     Node 7, Type 0, BuildingBlock: QUQFOY_clean_sbu_3, # of connection points: 4
#     Node 8, Type 0, BuildingBlock: QUQFOY_clean_sbu_3, # of connection points: 4
#     Node 9, Type 0, BuildingBlock: QUQFOY_clean_sbu_3, # of connection points: 4
#     Node 10, Type 0, BuildingBlock: QUQFOY_clean_sbu_3, # of connection points: 4
#     Node 11, Type 0, BuildingBlock: QUQFOY_clean_sbu_3, # of connection points: 4
#     Node 12, Type 0, BuildingBlock: QUQFOY_clean_sbu_3, # of connection points: 4
#     Node 13, Type 0, BuildingBlock: QUQFOY_clean_sbu_3, # of connection points: 4
#     Node 14, Type 0, BuildingBlock: QUQFOY_clean_sbu_3, # of connection points: 4
#     Node 15, Type 0, BuildingBlock: QUQFOY_clean_sbu_3, # of connection points: 4
#     Node 16, Type 0, BuildingBlock: QUQFOY_clean_sbu_3, # of connection points: 4
#     Node 17, Type 0, BuildingBlock: QUQFOY_clean_sbu_3, # of connection points: 4
#     Node 18, Type 0, BuildingBlock: QUQFOY_clean_sbu_3, # of connection points: 4
#     Node 19, Type 0, BuildingBlock: QUQFOY_clean_sbu_3, # of connection points: 4
#     Node 20, Type 0, BuildingBlock: QUQFOY_clean_sbu_3, # of connection points: 4
#     Node 21, Type 0, BuildingBlock: QUQFOY_clean_sbu_3, # of connection points: 4
#     Node 22, Type 0, BuildingBlock: QUQFOY_clean_sbu_3, # of connection points: 4
#     Node 23, Type 0, BuildingBlock: QUQFOY_clean_sbu_3, # of connection points: 4
#     Node 24, Type 0, BuildingBlock: QUQFOY_clean_sbu_3, # of connection points: 4
#     Node 25, Type 0, BuildingBlock: QUQFOY_clean_sbu_3, # of connection points: 4
#     Node 26, Type 0, BuildingBlock: QUQFOY_clean_sbu_3, # of connection points: 4
#     Node 27, Type 0, BuildingBlock: QUQFOY_clean_sbu_3, # of connection points: 4
#     Node 28, Type 0, BuildingBlock: QUQFOY_clean_sbu_3, # of connection points: 4
#     Node 29, Type 0, BuildingBlock: QUQFOY_clean_sbu_3, # of connection points: 4
#     Node 30, Type 0, BuildingBlock: QUQFOY_clean_sbu_3, # of connection points: 4
#     Node 31, Type 0, BuildingBlock: QUQFOY_clean_sbu_3, # of connection points: 4
#     Edge 32, Type (0, 0), BuildingBlock: AJUNOK_clean_linker_0, # of connection points: 2
#     Edge 33, Type (0, 0), BuildingBlock: AJUNOK_clean_linker_0, # of connection points: 2
#     Edge 34, Type (0, 0), BuildingBlock: AJUNOK_clean_linker_0, # of connection points: 2
#     Edge 35, Type (0, 0), BuildingBlock: AJUNOK_clean_linker_0, # of connection points: 2
#     Edge 36, Type (0, 0), BuildingBlock: AJUNOK_clean_linker_0, # of connection points: 2
#     Edge 37, Type (0, 0), BuildingBlock: AJUNOK_clean_linker_0, # of connection points: 2
#     Edge 38, Type (0, 0), BuildingBlock: AJUNOK_clean_linker_0, # of connection points: 2
#     Edge 39, Type (0, 0), BuildingBlock: AJUNOK_clean_linker_0, # of connection points: 2
#     Edge 40, Type (0, 0), BuildingBlock: AJUNOK_clean_linker_0, # of connection points: 2
#     Edge 41, Type (0, 0), BuildingBlock: AJUNOK_clean_linker_0, # of connection points: 2
#     Edge 42, Type (0, 0), BuildingBlock: AJUNOK_clean_linker_0, # of connection points: 2
#     Edge 43, Type (0, 0), BuildingBlock: AJUNOK_clean_linker_0, # of connection points: 2
#     Edge 44, Type (0, 0), BuildingBlock: AJUNOK_clean_linker_0, # of connection points: 2
#     Edge 45, Type (0, 0), BuildingBlock: AJUNOK_clean_linker_0, # of connection points: 2
#     Edge 46, Type (0, 0), BuildingBlock: AJUNOK_clean_linker_0, # of connection points: 2
#     Edge 47, Type (0, 0), BuildingBlock: AJUNOK_clean_linker_0, # of connection points: 2
#     Edge 48, Type (0, 0), BuildingBlock: AJUNOK_clean_linker_0, # of connection points: 2
#     Edge 49, Type (0, 0), BuildingBlock: AJUNOK_clean_linker_0, # of connection points: 2
#     Edge 50, Type (0, 0), BuildingBlock: AJUNOK_clean_linker_0, # of connection points: 2
#     Edge 51, Type (0, 0), BuildingBlock: AJUNOK_clean_linker_0, # of connection points: 2
#     Edge 52, Type (0, 0), BuildingBlock: AJUNOK_clean_linker_0, # of connection points: 2
#     Edge 53, Type (0, 0), BuildingBlock: AJUNOK_clean_linker_0, # of connection points: 2
#     Edge 54, Type (0, 0), BuildingBlock: AJUNOK_clean_linker_0, # of connection points: 2
#     Edge 55, Type (0, 0), BuildingBlock: AJUNOK_clean_linker_0, # of connection points: 2
#     Edge 56, Type (0, 0), BuildingBlock: AJUNOK_clean_linker_0, # of connection points: 2
#     Edge 57, Type (0, 0), BuildingBlock: AJUNOK_clean_linker_0, # of connection points: 2
#     Edge 58, Type (0, 0), BuildingBlock: AJUNOK_clean_linker_0, # of connection points: 2
#     Edge 59, Type (0, 0), BuildingBlock: AJUNOK_clean_linker_0, # of connection points: 2
#     Edge 60, Type (0, 0), BuildingBlock: AJUNOK_clean_linker_0, # of connection points: 2
#     Edge 61, Type (0, 0), BuildingBlock: AJUNOK_clean_linker_0, # of connection points: 2
#     Edge 62, Type (0, 0), BuildingBlock: AJUNOK_clean_linker_0, # of connection points: 2
#     Edge 63, Type (0, 0), BuildingBlock: AJUNOK_clean_linker_0, # of connection points: 2
#     Edge 64, Type (0, 0), BuildingBlock: AJUNOK_clean_linker_0, # of connection points: 2
#     Edge 65, Type (0, 0), BuildingBlock: AJUNOK_clean_linker_0, # of connection points: 2
#     Edge 66, Type (0, 0), BuildingBlock: AJUNOK_clean_linker_0, # of connection points: 2
#     Edge 67, Type (0, 0), BuildingBlock: AJUNOK_clean_linker_0, # of connection points: 2
#     Edge 68, Type (0, 0), BuildingBlock: AJUNOK_clean_linker_0, # of connection points: 2
#     Edge 69, Type (0, 0), BuildingBlock: AJUNOK_clean_linker_0, # of connection points: 2
#     Edge 70, Type (0, 0), BuildingBlock: AJUNOK_clean_linker_0, # of connection points: 2
#     Edge 71, Type (0, 0), BuildingBlock: AJUNOK_clean_linker_0, # of connection points: 2
#     Edge 72, Type (0, 0), BuildingBlock: AJUNOK_clean_linker_0, # of connection points: 2
#     Edge 73, Type (0, 0), BuildingBlock: AJUNOK_clean_linker_0, # of connection points: 2
#     Edge 74, Type (0, 0), BuildingBlock: AJUNOK_clean_linker_0, # of connection points: 2
#     Edge 75, Type (0, 0), BuildingBlock: AJUNOK_clean_linker_0, # of connection points: 2
#     Edge 76, Type (0, 0), BuildingBlock: AJUNOK_clean_linker_0, # of connection points: 2
#     Edge 77, Type (0, 0), BuildingBlock: AJUNOK_clean_linker_0, # of connection points: 2
#     Edge 78, Type (0, 0), BuildingBlock: AJUNOK_clean_linker_0, # of connection points: 2
#     Edge 79, Type (0, 0), BuildingBlock: AJUNOK_clean_linker_0, # of connection points: 2
#     Edge 80, Type (0, 0), BuildingBlock: AJUNOK_clean_linker_0, # of connection points: 2
#     Edge 81, Type (0, 0), BuildingBlock: AJUNOK_clean_linker_0, # of connection points: 2
#     Edge 82, Type (0, 0), BuildingBlock: AJUNOK_clean_linker_0, # of connection points: 2
#     Edge 83, Type (0, 0), BuildingBlock: AJUNOK_clean_linker_0, # of connection points: 2
#     Edge 84, Type (0, 0), BuildingBlock: AJUNOK_clean_linker_0, # of connection points: 2
#     Edge 85, Type (0, 0), BuildingBlock: AJUNOK_clean_linker_0, # of connection points: 2
#     Edge 86, Type (0, 0), BuildingBlock: AJUNOK_clean_linker_0, # of connection points: 2
#     Edge 87, Type (0, 0), BuildingBlock: AJUNOK_clean_linker_0, # of connection points: 2
#     Edge 88, Type (0, 0), BuildingBlock: AJUNOK_clean_linker_0, # of connection points: 2
#     Edge 89, Type (0, 0), BuildingBlock: AJUNOK_clean_linker_0, # of connection points: 2
#     Edge 90, Type (0, 0), BuildingBlock: AJUNOK_clean_linker_0, # of connection points: 2
#     Edge 91, Type (0, 0), BuildingBlock: AJUNOK_clean_linker_0, # of connection points: 2
#     Edge 92, Type (0, 0), BuildingBlock: AJUNOK_clean_linker_0, # of connection points: 2
#     Edge 93, Type (0, 0), BuildingBlock: AJUNOK_clean_linker_0, # of connection points: 2
#     Edge 94, Type (0, 0), BuildingBlock: AJUNOK_clean_linker_0, # of connection points: 2
#     Edge 95, Type (0, 0), BuildingBlock: AJUNOK_clean_linker_0, # of connection points: 2
# Relax obj value: 0.097
# Max RMSD: 0.129
# Mean RMSD: 0.129
data_MOF--net-uow--node1-QUQFOY_clean_sbu_3--edge1-AJUNOK_clean_linker_0
_symmetry_space_group_name_H-M    P1
_symmetry_Int_Tables_number       1
_symmetry_cell_setting            triclinic
loop_
_symmetry_equiv_pos_as_xyz
'x, y, z'
_cell_length_a     49.666492
_cell_length_b     49.706201
_cell_length_c     30.810692
_cell_angle_alpha  90.050951
_cell_angle_beta   90.320081
_cell_angle_gamma 89.925999
loop_
_atom_site_label
_atom_site_type_symbol
_atom_site_fract_x
_atom_site_fract_y
_atom_site_fract_z
_atom_type_partial_charge
C0 C -0.01618 0.3435 0.29843 0.0
O1 O -0.01491 0.32777 0.26602 0.0
Cd2 Cd 0.0234 0.31409 0.22709 0.0
O3 O 0.00443 0.35685 0.31089 0.0
Cd4 Cd 0.04926 0.36621 0.27434 0.0
C5 C 0.07294 0.31378 0.31367 0.0
O6 O 0.03845 0.35386 0.19839 0.0
O7 O 0.08013 0.35099 0.21635 0.0
O8 O 0.02933 0.4093 0.26559 0.0
C9 C 0.06236 0.34939 0.1868 0.0
O10 O 0.0561 0.30795 0.28397 0.0
C11 C 0.05083 0.42256 0.27074 0.0
O12 O 0.0766 0.33825 0.32432 0.0
O13 O 0.07175 0.4097 0.28279 0.0
C14 C 0.86096 0.73435 0.55044 0.0
O15 O 0.87939 0.73643 0.52212 0.0
Cd16 Cd 0.89374 0.77474 0.48286 0.0
O17 O 0.84554 0.75413 0.55981 0.0
Cd18 Cd 0.83447 0.79953 0.52774 0.0
C19 C 0.88528 0.82304 0.56935 0.0
O20 O 0.85242 0.78801 0.45369 0.0
O21 O 0.84454 0.82971 0.46598 0.0
O22 O 0.7923 0.77768 0.51346 0.0
C23 C 0.85211 0.8118 0.4393 0.0
O24 O 0.88756 0.80613 0.53911 0.0
C25 C 0.77723 0.79741 0.52243 0.0
O26 O 0.86155 0.82796 0.58211 0.0
O27 O 0.78849 0.81827 0.53811 0.0
C28 C 0.46632 0.60957 0.80322 0.0
O29 O 0.46622 0.62652 0.77246 0.0
Cd30 Cd 0.42703 0.64056 0.73382 0.0
O31 O 0.44555 0.59566 0.81215 0.0
Cd32 Cd 0.4024 0.58485 0.77413 0.0
C33 C 0.37744 0.63794 0.81699 0.0
O34 O 0.41284 0.60106 0.70138 0.0
O35 O 0.37055 0.59725 0.716 0.0
O36 O 0.42487 0.54339 0.76375 0.0
C37 C 0.38871 0.60267 0.68865 0.0
O38 O 0.39286 0.64829 0.78868 0.0
C39 C 0.40461 0.52825 0.76796 0.0
O40 O 0.3773 0.6127 0.82423 0.0
O41 O 0.38293 0.53924 0.78116 0.0
C42 C 0.59257 0.21585 0.05047 0.0
O43 O 0.57678 0.2139 0.01802 0.0
Cd44 Cd 0.5622 0.17575 0.97866 0.0
O45 O 0.60656 0.19578 0.06323 0.0
Cd46 Cd 0.61685 0.1514 0.02687 0.0
C47 C 0.56405 0.12833 0.06717 0.0
O48 O 0.60167 0.15997 0.95099 0.0
O49 O 0.60517 0.11865 0.97046 0.0
O50 O 0.65773 0.17408 0.01428 0.0
C51 C 0.60001 0.13543 0.94062 0.0
O52 O 0.55774 0.14443 0.03686 0.0
C53 C 0.67293 0.15387 0.01931 0.0
O54 O 0.58869 0.12504 0.07763 0.0
O55 O 0.66246 0.13251 0.03462 0.0
C56 C -0.01532 0.61029 0.15553 0.0
O57 O -0.01475 0.62715 0.18653 0.0
Cd58 Cd 0.02373 0.64001 0.2282 0.0
O59 O 0.00495 0.59549 0.14687 0.0
Cd60 Cd 0.04777 0.58382 0.18574 0.0
C61 C 0.07476 0.63666 0.14655 0.0
O62 O 0.03687 0.59986 0.25913 0.0
O63 O 0.07882 0.59521 0.24427 0.0
O64 O 0.02704 0.54136 0.19603 0.0
C65 C 0.06103 0.60132 0.27191 0.0
O66 O 0.05863 0.64633 0.17449 0.0
C67 C 0.0479 0.52717 0.19 0.0
O68 O 0.07504 0.61157 0.13812 0.0
O69 O 0.06876 0.53927 0.17631 0.0
C70 C 0.59259 0.73306 0.40998 0.0
O71 O 0.57587 0.73271 0.44101 0.0
Cd72 Cd 0.56068 0.7711 0.4807 0.0
O73 O 0.60563 0.7543 0.4002 0.0
Cd74 Cd 0.6161 0.79831 0.43639 0.0
C75 C 0.56297 0.82118 0.39526 0.0
O76 O 0.60003 0.78744 0.50998 0.0
O77 O 0.60483 0.82937 0.49542 0.0
O78 O 0.65834 0.7771 0.44879 0.0
C79 C 0.59825 0.81153 0.52275 0.0
O80 O 0.55655 0.8041 0.424 0.0
C81 C 0.6727 0.79746 0.44066 0.0
O82 O 0.58767 0.82518 0.38648 0.0
O83 O 0.66087 0.81831 0.42599 0.0
C84 C 0.46719 0.34136 0.65774 0.0
O85 O 0.46615 0.32369 0.68736 0.0
Cd86 Cd 0.42755 0.31044 0.7278 0.0
O87 O 0.44708 0.35637 0.64929 0.0
Cd88 Cd 0.40429 0.3657 0.68789 0.0
C89 C 0.37738 0.31226 0.64603 0.0
O90 O 0.41285 0.34911 0.76223 0.0
O91 O 0.37136 0.35348 0.74195 0.0
O92 O 0.42444 0.40872 0.69807 0.0
C93 C 0.3881 0.34799 0.77184 0.0
O94 O 0.39189 0.3012 0.67522 0.0
C95 C 0.40328 0.42232 0.69106 0.0
O96 O 0.37931 0.33728 0.6376 0.0
O97 O 0.38231 0.40963 0.67886 0.0
C98 C 0.85781 0.2168 0.91218 0.0
O99 O 0.87132 0.2158 0.94714 0.0
Cd100 Cd 0.88694 0.17664 -0.01958 0.0
O101 O 0.84565 0.19605 0.89745 0.0
Cd102 Cd 0.8335 0.15189 0.9333 0.0
C103 C 0.88529 0.12897 0.89084 0.0
O104 O 0.84741 0.16178 0.0092 0.0
O105 O 0.84778 0.12018 -0.00885 0.0
O106 O 0.79036 0.17297 0.9421 0.0
C107 C 0.85103 0.13771 0.02065 0.0
O108 O 0.8911 0.14491 0.92171 0.0
C109 C 0.77673 0.15169 0.93703 0.0
O110 O 0.86073 0.12579 0.8799 0.0
O111 O 0.78931 0.13047 0.92602 0.0
C112 C 0.96647 0.60368 0.66164 0.0
O113 O 0.96678 0.61456 0.69876 0.0
Cd114 Cd 0.92786 0.63448 0.72741 0.0
O115 O 0.94434 0.59577 0.64484 0.0
Cd116 Cd 0.90147 0.58419 0.684 0.0
C117 C 0.87941 0.63718 0.64025 0.0
O118 O 0.9105 0.59707 0.75984 0.0
O119 O 0.86903 0.60036 0.73966 0.0
O120 O 0.92427 0.54289 0.69501 0.0
C121 C 0.88638 0.60165 0.76992 0.0
O122 O 0.89528 0.64522 0.6702 0.0
C123 C 0.90386 0.52782 0.69146 0.0
O124 O 0.87698 0.61219 0.63178 0.0
O125 O 0.88213 0.53865 0.67775 0.0
C126 C 0.0947 0.21756 0.41074 0.0
O127 O 0.07846 0.21661 0.44232 0.0
Cd128 Cd 0.06123 0.1779 0.47643 0.0
O129 O 0.10712 0.19655 0.39814 0.0
Cd130 Cd 0.11541 0.15239 0.43514 0.0
C131 C 0.0623 0.12908 0.39079 0.0
O132 O 0.09907 0.16125 0.5095 0.0
O133 O 0.10283 0.11952 0.49129 0.0
O134 O 0.15726 0.17341 0.44787 0.0
C135 C 0.09708 0.13681 0.52006 0.0
O136 O 0.05342 0.14455 0.42039 0.0
C137 C 0.17196 0.15307 0.44089 0.0
O138 O 0.08738 0.128 0.38236 0.0
O139 O 0.16037 0.13186 0.427 0.0
C140 C 0.48465 0.33932 0.15479 0.0
O141 O 0.48678 0.3205 0.18258 0.0
Cd142 Cd 0.52419 0.30501 0.22427 0.0
O143 O 0.50434 0.3551 0.14709 0.0
Cd144 Cd 0.54879 0.3646 0.18449 0.0
C145 C 0.57546 0.31434 0.14339 0.0
O146 O 0.53745 0.34462 0.25654 0.0
O147 O 0.57905 0.35439 0.24517 0.0
O148 O 0.52674 0.40678 0.19723 0.0
C149 C 0.56141 0.34505 0.27053 0.0
O150 O 0.55788 0.30771 0.17085 0.0
C151 C 0.5471 0.42153 0.19102 0.0
O152 O 0.57849 0.33908 0.13417 0.0
O153 O 0.56845 0.40995 0.17793 0.0
C154 C 0.35946 0.73525 0.90757 0.0
O155 O 0.37655 0.74015 0.93709 0.0
Cd156 Cd 0.38936 0.77576 -0.01908 0.0
O157 O 0.34255 0.75317 0.8959 0.0
Cd158 Cd 0.33378 0.79738 0.93241 0.0
C159 C 0.38733 0.82384 0.89537 0.0
O160 O 0.34788 0.78689 0.00758 0.0
O161 O 0.34741 0.82874 -0.00915 0.0
O162 O 0.29173 0.77755 0.94768 0.0
C163 C 0.35038 0.81093 0.01992 0.0
O164 O 0.39498 0.80869 0.92615 0.0
C165 C 0.27773 0.79831 0.94019 0.0
O166 O 0.36285 0.82355 0.88263 0.0
O167 O 0.28941 0.81858 0.9235 0.0
C168 C 0.96722 0.34216 0.79966 0.0
O169 O 0.96705 0.32491 0.76923 0.0
Cd170 Cd 0.92841 0.31026 0.72977 0.0
O171 O 0.94631 0.3558 0.80922 0.0
Cd172 Cd 0.90206 0.36619 0.77412 0.0
C173 C 0.87917 0.31295 0.81565 0.0
O174 O 0.91288 0.34995 0.70067 0.0
O175 O 0.87096 0.35489 0.71568 0.0
O176 O 0.92311 0.40925 0.76666 0.0
C177 C 0.88868 0.34844 0.68814 0.0
O178 O 0.89575 0.30557 0.7867 0.0
C179 C 0.90187 0.42295 0.77181 0.0
O180 O 0.87603 0.33782 0.82425 0.0
O181 O 0.88057 0.41034 0.78211 0.0
C182 C 0.35891 0.21632 0.5533 0.0
O183 O 0.37681 0.21283 0.52457 0.0
Cd184 Cd 0.38985 0.17481 0.48375 0.0
O185 O 0.34281 0.19732 0.56295 0.0
Cd186 Cd 0.3343 0.15272 0.52636 0.0
C187 C 0.38777 0.12679 0.56857 0.0
O188 O 0.35012 0.16098 0.45148 0.0
O189 O 0.34685 0.11953 0.4703 0.0
O190 O 0.29282 0.17396 0.51237 0.0
C191 C 0.35212 0.13649 0.44086 0.0
O192 O 0.39742 0.1411 0.53823 0.0
C193 C 0.27771 0.15405 0.5198 0.0
O194 O 0.36283 0.1279 0.57809 0.0
O195 O 0.28889 0.13295 0.5351 0.0
C196 C 0.48399 0.60877 0.30051 0.0
O197 O 0.48424 0.62591 0.26993 0.0
Cd198 Cd 0.52292 0.64214 0.23351 0.0
O199 O 0.5051 0.59541 0.31093 0.0
Cd200 Cd 0.55028 0.58433 0.27709 0.0
C201 C 0.57219 0.6343 0.31992 0.0
O202 O 0.53922 0.60268 0.20376 0.0
O203 O 0.58131 0.59575 0.21693 0.0
O204 O 0.52713 0.54322 0.2632 0.0
C205 C 0.56322 0.60346 0.19055 0.0
O206 O 0.55503 0.6367 0.28983 0.0
C207 C 0.54685 0.52753 0.26929 0.0
O208 O 0.57814 0.61057 0.33199 0.0
O209 O 0.56844 0.53807 0.28395 0.0
C210 C 0.09193 0.73405 0.0527 0.0
O211 O 0.07391 0.73898 0.02422 0.0
Cd212 Cd 0.06114 0.77722 -0.01915 0.0
O213 O 0.10954 0.7517 0.06207 0.0
Cd214 Cd 0.118 0.79562 0.02511 0.0
C215 C 0.06291 0.82458 0.06348 0.0
O216 O 0.10182 0.7883 0.9505 0.0
O217 O 0.10757 0.82943 0.96938 0.0
O218 O 0.16052 0.77653 0.01009 0.0
C219 C 0.10106 0.81284 0.9399 0.0
O220 O 0.05152 0.81223 0.03226 0.0
C221 C 0.17437 0.79667 0.02176 0.0
O222 O 0.08757 0.82035 0.07333 0.0
O223 O 0.1621 0.81626 0.03958 0.0
C224 C 0.48424 0.83915 0.8051 0.0
O225 O 0.48502 0.82001 0.77763 0.0
Cd226 Cd 0.52319 0.80356 0.73928 0.0
O227 O 0.50454 0.85439 0.8121 0.0
Cd228 Cd 0.54951 0.86484 0.77867 0.0
C229 C 0.57304 0.81579 0.82257 0.0
O230 O 0.53771 0.84329 0.70758 0.0
O231 O 0.57924 0.85441 0.71712 0.0
O232 O 0.52741 0.90645 0.76239 0.0
C233 C 0.56136 0.84414 0.69277 0.0
O234 O 0.55558 0.81199 0.79342 0.0
C235 C 0.54761 0.92154 0.76818 0.0
O236 O 0.57793 0.83993 0.83372 0.0
O237 O 0.56869 0.91082 0.78427 0.0
C238 C 0.35947 0.23299 0.05509 0.0
O239 O 0.37793 0.23504 0.02691 0.0
Cd240 Cd 0.39141 0.27307 -0.0146 0.0
O241 O 0.34352 0.25248 0.0627 0.0
Cd242 Cd 0.33492 0.29588 0.02484 0.0
C243 C 0.38804 0.32372 0.06556 0.0
O244 O 0.35204 0.28646 0.95098 0.0
O245 O 0.34602 0.32811 0.96841 0.0
O246 O 0.29122 0.27698 0.012 0.0
C247 C 0.35215 0.31094 0.93972 0.0
O248 O 0.39868 0.3089 0.03666 0.0
C249 C 0.27821 0.29838 0.01945 0.0
O250 O 0.36315 0.32176 0.07492 0.0
O251 O 0.29134 0.31858 0.03347 0.0
C252 C 0.96585 0.10948 0.30084 0.0
O253 O 0.96332 0.12811 0.27293 0.0
Cd254 Cd 0.92424 0.14139 0.23359 0.0
O255 O 0.94639 0.09379 0.30974 0.0
Cd256 Cd 0.90235 0.08389 0.27431 0.0
C257 C 0.87444 0.13694 0.31534 0.0
O258 O 0.91239 0.10094 0.20182 0.0
O259 O 0.87023 0.09685 0.21639 0.0
O260 O 0.92302 0.04168 0.26 0.0
C261 C 0.8883 0.10255 0.18903 0.0
O262 O 0.88897 0.1481 0.28663 0.0
C263 C 0.90325 0.0269 0.26985 0.0
O264 O 0.87661 0.11192 0.32376 0.0
O265 O 0.88273 0.03845 0.28612 0.0
C266 C 0.09167 0.71604 0.54958 0.0
O267 O 0.07647 0.71548 0.51636 0.0
Cd268 Cd 0.06115 0.67677 0.47984 0.0
O269 O 0.10455 0.6951 0.56203 0.0
Cd270 Cd 0.11588 0.65059 0.52585 0.0
C271 C 0.06238 0.62844 0.56744 0.0
O272 O 0.1006 0.66102 0.45223 0.0
O273 O 0.10175 0.61884 0.46803 0.0
O274 O 0.15795 0.67186 0.51391 0.0
C275 C 0.09724 0.63704 0.44019 0.0
O276 O 0.055 0.64482 0.538 0.0
C277 C 0.17275 0.65145 0.52006 0.0
O278 O 0.08728 0.62487 0.5759 0.0
O279 O 0.16132 0.63033 0.53439 0.0
C280 C 0.48429 0.11 0.65942 0.0
O281 O 0.48732 0.12916 0.68632 0.0
Cd282 Cd 0.52603 0.14284 0.72653 0.0
O283 O 0.50331 0.09356 0.65137 0.0
Cd284 Cd 0.54756 0.08404 0.68585 0.0
C285 C 0.57448 0.13817 0.64334 0.0
O286 O 0.53789 0.10249 0.75823 0.0
O287 O 0.57948 0.0938 0.74419 0.0
O288 O 0.52749 0.04072 0.69888 0.0
C289 C 0.56204 0.1018 0.77113 0.0
O290 O 0.56026 0.1493 0.67249 0.0
C291 C 0.54792 0.02679 0.68904 0.0
O292 O 0.57263 0.11299 0.63564 0.0
O293 O 0.56827 0.0393 0.67437 0.0
C294 C 0.0893 0.23465 0.9057 0.0
O295 O 0.07191 0.23492 0.93584 0.0
Cd296 Cd 0.05776 0.27347 0.9752 0.0
O297 O 0.10385 0.25523 0.89727 0.0
Cd298 Cd 0.11588 0.30009 0.93155 0.0
C299 C 0.06646 0.32229 0.88947 0.0
O300 O 0.0983 0.28844 0.00516 0.0
O301 O 0.10214 0.33065 -0.00904 0.0
O302 O 0.15781 0.27831 0.94678 0.0
C303 C 0.09645 0.31246 0.01822 0.0
O304 O 0.06462 0.30521 0.9195 0.0
C305 C 0.1729 0.29832 0.93983 0.0
O306 O 0.09 0.32842 0.87701 0.0
O307 O 0.16184 0.3193 0.92414 0.0
C308 C 0.96647 0.84051 0.15669 0.0
O309 O 0.9632 0.82225 0.18503 0.0
Cd310 Cd 0.9262 0.80725 0.22562 0.0
O311 O 0.94723 0.85661 0.14702 0.0
Cd312 Cd 0.90148 0.86524 0.18207 0.0
C313 C 0.87774 0.81469 0.13957 0.0
O314 O 0.91188 0.84697 0.25595 0.0
O315 O 0.86987 0.8525 0.24119 0.0
O316 O 0.92184 0.90764 0.19841 0.0
C317 C 0.88777 0.84571 0.26851 0.0
O318 O 0.89449 0.81018 0.16954 0.0
C319 C 0.90123 0.92186 0.1908 0.0
O320 O 0.87371 0.83897 0.12817 0.0
O321 O 0.88062 0.91011 0.1751 0.0
C322 C 0.35801 0.7158 0.41154 0.0
O323 O 0.37303 0.71494 0.44507 0.0
Cd324 Cd 0.38919 0.67659 0.48221 0.0
O325 O 0.34508 0.69505 0.39839 0.0
Cd326 Cd 0.33347 0.64974 0.43204 0.0
C327 C 0.38509 0.6297 0.39214 0.0
O328 O 0.3493 0.65969 0.50763 0.0
O329 O 0.34532 0.61811 0.49014 0.0
O330 O 0.29042 0.67079 0.44178 0.0
C331 C 0.35142 0.63533 0.51886 0.0
O332 O 0.38602 0.64598 0.42349 0.0
C333 C 0.27689 0.64937 0.43767 0.0
O334 O 0.36189 0.62268 0.37888 0.0
O335 O 0.28933 0.62832 0.42549 0.0
C336 C 0.46695 0.10709 0.16139 0.0
O337 O 0.46623 0.12079 0.19603 0.0
Cd338 Cd 0.4269 0.13487 0.23103 0.0
O339 O 0.44604 0.09492 0.14741 0.0
Cd340 Cd 0.40265 0.08357 0.18543 0.0
C341 C 0.37801 0.13654 0.14527 0.0
O342 O 0.4115 0.0957 0.26168 0.0
O343 O 0.37035 0.1003 0.24069 0.0
O344 O 0.42316 0.04097 0.19581 0.0
C345 C 0.38736 0.10062 0.2715 0.0
O346 O 0.39329 0.14506 0.17563 0.0
C347 C 0.40227 0.02682 0.18996 0.0
O348 O 0.37765 0.11175 0.13475 0.0
O349 O 0.38126 0.03893 0.17621 0.0
C350 C 0.59037 0.7163 0.90922 0.0
O351 O 0.5726 0.71572 0.93878 0.0
Cd352 Cd 0.55732 0.6772 0.97733 0.0
O353 O 0.60474 0.69574 0.90002 0.0
Cd354 Cd 0.61578 0.65041 0.93202 0.0
C355 C 0.5658 0.62874 0.89143 0.0
O356 O 0.59754 0.66055 0.00643 0.0
O357 O 0.60485 0.61909 -0.00923 0.0
O358 O 0.65864 0.67133 0.94407 0.0
C359 C 0.59703 0.6362 0.01849 0.0
O360 O 0.56433 0.64579 0.9215 0.0
C361 C 0.67264 0.65034 0.93824 0.0
O362 O 0.58915 0.62319 0.87735 0.0
O363 O 0.66041 0.6296 0.92418 0.0
C364 C -0.01544 0.84147 0.66018 0.0
O365 O -0.0156 0.82395 0.69024 0.0
Cd366 Cd 0.02333 0.8069 0.72713 0.0
O367 O 0.00594 0.85441 0.65032 0.0
Cd368 Cd 0.0513 0.86515 0.68414 0.0
C369 C 0.0729 0.8152 0.64233 0.0
O370 O 0.03937 0.84668 0.75652 0.0
O371 O 0.08145 0.85481 0.74553 0.0
O372 O 0.02763 0.90605 0.69742 0.0
C373 C 0.06322 0.84665 0.7709 0.0
O374 O 0.05569 0.81317 0.67205 0.0
C375 C 0.04722 0.9219 0.6921 0.0
O376 O 0.08014 0.83873 0.63138 0.0
O377 O 0.06892 0.91156 0.67778 0.0
C378 C 0.85967 0.23452 0.40579 0.0
O379 O 0.87798 0.23811 0.43419 0.0
Cd380 Cd 0.89395 0.27456 0.47575 0.0
O381 O 0.84341 0.25354 0.3959 0.0
Cd382 Cd 0.83478 0.29864 0.43272 0.0
C383 C 0.8859 0.32458 0.39232 0.0
O384 O 0.85408 0.28753 0.50537 0.0
O385 O 0.8454 0.32927 0.49304 0.0
O386 O 0.79313 0.27676 0.44707 0.0
C387 C 0.85416 0.31148 0.51891 0.0
O388 O 0.89197 0.30736 0.42087 0.0
C389 C 0.77807 0.29689 0.4404 0.0
O390 O 0.86123 0.32791 0.38221 0.0
O391 O 0.78922 0.31815 0.42611 0.0
C392 C 0.46601 0.84151 0.29757 0.0
O393 O 0.46522 0.82812 0.26253 0.0
Cd394 Cd 0.42606 0.81451 0.22561 0.0
O395 O 0.44515 0.85382 0.31144 0.0
Cd396 Cd 0.40075 0.86558 0.27439 0.0
C397 C 0.37896 0.81265 0.3148 0.0
O398 O 0.40986 0.85406 0.19787 0.0
O399 O 0.3689 0.84911 0.2183 0.0
O400 O 0.42099 0.90886 0.26618 0.0
C401 C 0.38589 0.84835 0.18779 0.0
O402 O 0.39506 0.80681 0.28428 0.0
C403 C 0.39948 0.92218 0.27102 0.0
O404 O 0.37493 0.83716 0.32501 0.0
O405 O 0.37855 0.90935 0.28259 0.0
C406 C 0.85848 0.71688 0.04905 0.0
O407 O 0.87587 0.71683 0.01897 0.0
Cd408 Cd 0.89153 0.67812 -0.01868 0.0
O409 O 0.84508 0.69586 0.05887 0.0
Cd410 Cd 0.83457 0.65081 0.0266 0.0
C411 C 0.88548 0.62873 0.0675 0.0
O412 O 0.85198 0.66055 0.95239 0.0
O413 O 0.84648 0.61895 0.96919 0.0
O414 O 0.79206 0.67165 0.01388 0.0
C415 C 0.85352 0.63611 0.94107 0.0
O416 O 0.88926 0.64568 0.03765 0.0
C417 C 0.77775 0.65098 0.02026 0.0
O418 O 0.86156 0.62462 0.0804 0.0
O419 O 0.78976 0.63024 0.03494 0.0
C420 C -0.01706 0.10971 0.80055 0.0
O421 O -0.01658 0.12731 0.77064 0.0
Cd422 Cd 0.02222 0.14261 0.73267 0.0
O423 O 0.00366 0.09567 0.81031 0.0
Cd424 Cd 0.04865 0.08474 0.77782 0.0
C425 C 0.07141 0.13493 0.81874 0.0
O426 O 0.03887 0.10274 0.70287 0.0
O427 O 0.08032 0.09596 0.72035 0.0
O428 O 0.02666 0.04209 0.76661 0.0
C429 C 0.06337 0.10296 0.6916 0.0
O430 O 0.05427 0.13758 0.78875 0.0
C431 C 0.04741 0.02761 0.77181 0.0
O432 O 0.07595 0.11128 0.83252 0.0
O433 O 0.06884 0.03947 0.78408 0.0
C434 C 0.58733 0.23633 0.55165 0.0
O435 O 0.56948 0.24128 0.52303 0.0
Cd436 Cd 0.55469 0.27778 0.48089 0.0
O437 O 0.60487 0.25407 0.56218 0.0
Cd438 Cd 0.61655 0.29956 0.52929 0.0
C439 C 0.56661 0.32247 0.5678 0.0
O440 O 0.59704 0.28809 0.45579 0.0
O441 O 0.60776 0.32928 0.46678 0.0
O442 O 0.6577 0.27643 0.51588 0.0
C443 C 0.59866 0.31163 0.44085 0.0
O444 O 0.56676 0.30669 0.53613 0.0
C445 C 0.67323 0.2963 0.5215 0.0
O446 O 0.58955 0.32886 0.58297 0.0
O447 O 0.66262 0.31778 0.53621 0.0
C448 C 0.08908 0.31841 0.13975 0.0
C449 C 0.06838 0.3376 0.14392 0.0
C450 C 0.09694 0.30895 0.09879 0.0
C451 C 0.08486 0.31903 0.06082 0.0
H452 H 0.09967 0.31109 0.16823 0.0
H453 H 0.11354 0.29485 0.09672 0.0
S454 S 0.02611 0.36497 0.05463 0.0
N455 N 0.03292 0.36269 0.10707 0.0
N456 N 0.04861 0.34588 0.02996 0.0
C457 C 0.06282 0.33658 0.06467 0.0
C458 C 0.0543 0.3456 0.10638 0.0
C459 C 0.87752 0.85437 0.34582 0.0
C460 C 0.88079 0.83577 0.31209 0.0
C461 C 0.86885 0.84618 0.38693 0.0
C462 C 0.86315 0.819 0.39601 0.0
H463 H 0.88115 0.87556 0.34012 0.0
H464 H 0.86621 0.86145 0.41164 0.0
S465 S 0.87155 0.76182 0.31911 0.0
N466 N 0.87984 0.78869 0.29054 0.0
N467 N 0.86364 0.773 0.368 0.0
C468 C 0.86768 0.79987 0.36285 0.0
C469 C 0.87645 0.80833 0.32077 0.0
C470 C 0.3764 0.63862 0.6357 0.0
C471 C 0.38204 0.61148 0.64463 0.0
C472 C 0.36746 0.64651 0.59425 0.0
C473 C 0.3637 0.62737 0.5609 0.0
H474 H 0.37821 0.65362 0.66111 0.0
H475 H 0.36257 0.66749 0.58882 0.0
S476 S 0.38066 0.55463 0.56738 0.0
N477 N 0.38676 0.56627 0.61664 0.0
N478 N 0.37011 0.58071 0.53875 0.0
C479 C 0.37123 0.60051 0.56915 0.0
C480 C 0.38035 0.59265 0.61113 0.0
C481 C 0.56353 0.13572 0.8314 0.0
C482 C 0.56984 0.11003 0.81514 0.0
C483 C 0.57341 0.14406 0.87216 0.0
C484 C 0.58928 0.12667 0.89798 0.0
H485 H 0.55169 0.14962 0.81203 0.0
H486 H 0.56861 0.16415 0.88346 0.0
S487 S 0.60863 0.05659 0.87061 0.0
N488 N 0.59117 0.06702 0.82813 0.0
N489 N 0.60916 0.08213 0.90487 0.0
C490 C 0.59456 0.10063 0.88237 0.0
C491 C 0.58498 0.09246 0.84086 0.0
C492 C 0.0958 0.61957 0.322 0.0
C493 C 0.06856 0.61335 0.31413 0.0
C494 C 0.10457 0.62821 0.36276 0.0
C495 C 0.08649 0.63085 0.39708 0.0
H496 H 0.11073 0.61703 0.29682 0.0
H497 H 0.12585 0.63198 0.36788 0.0
S498 S 0.01226 0.62284 0.39176 0.0
N499 N 0.02278 0.61462 0.34267 0.0
N500 N 0.03962 0.63065 0.4199 0.0
C501 C 0.05886 0.62687 0.38924 0.0
C502 C 0.04978 0.6182 0.34744 0.0
C503 C 0.58659 0.84608 0.57798 0.0
C504 C 0.58643 0.81889 0.56522 0.0
C505 C 0.57769 0.85397 0.61901 0.0
C506 C 0.56777 0.83509 0.64859 0.0
H507 H 0.59444 0.86145 0.55661 0.0
H508 H 0.57898 0.87502 0.62797 0.0
S509 S 0.55968 0.76177 0.63001 0.0
N510 N 0.57325 0.77312 0.58469 0.0
N511 N 0.55603 0.78832 0.66182 0.0
C512 C 0.56587 0.80801 0.63575 0.0
C513 C 0.57534 0.7998 0.59399 0.0
C514 C 0.38414 0.30865 0.87727 0.0
C515 C 0.36087 0.31952 0.89639 0.0
C516 C 0.39327 0.31818 0.837 0.0
C517 C 0.37888 0.33825 0.81436 0.0
H518 H 0.39566 0.29324 0.89397 0.0
H519 H 0.41143 0.30963 0.82331 0.0
S520 S 0.31621 0.37195 0.8501 0.0
N521 N 0.32367 0.35091 0.88982 0.0
N522 N 0.33999 0.3679 0.81344 0.0
C523 C 0.35528 0.3486 0.8328 0.0
C524 C 0.3465 0.33949 0.87409 0.0
C525 C 0.87507 0.10535 0.06903 0.0
C526 C 0.86309 0.13079 0.0633 0.0
C527 C 0.88436 0.09695 0.10976 0.0
C528 C 0.88162 0.11352 0.14621 0.0
H529 H 0.87674 0.09148 0.04204 0.0
H530 H 0.89271 0.0769 0.1131 0.0
S531 S 0.85719 0.18408 0.14764 0.0
N532 N 0.85318 0.17426 0.09671 0.0
N533 N 0.87002 0.15792 0.17372 0.0
C534 C 0.87167 0.13979 0.14076 0.0
C535 C 0.86259 0.14859 0.09904 0.0
C536 C 0.87276 0.63781 0.82183 0.0
C537 C 0.87965 0.61083 0.8138 0.0
C538 C 0.86554 0.64628 0.86375 0.0
C539 C 0.86455 0.62785 0.89849 0.0
H540 H 0.87266 0.65229 0.79555 0.0
H541 H 0.85971 0.66708 0.86855 0.0
S542 S 0.88549 0.5561 0.89446 0.0
N543 N 0.88867 0.5668 0.84405 0.0
N544 N 0.87464 0.58222 0.92257 0.0
C545 C 0.87317 0.60124 0.89097 0.0
C546 C 0.88085 0.59286 0.8486 0.0
C547 C 0.06322 0.13628 0.58009 0.0
C548 C 0.08855 0.1288 0.56374 0.0
C549 C 0.05497 0.12776 0.62151 0.0
C550 C 0.0721 0.11209 0.64805 0.0
H551 H 0.0496 0.14831 0.56049 0.0
H552 H 0.03519 0.13361 0.63287 0.0
S553 S 0.14118 0.08935 0.6202 0.0
N554 N 0.13086 0.10609 0.57698 0.0
N555 N 0.11604 0.09063 0.65497 0.0
C556 C 0.09775 0.1053 0.63207 0.0
C557 C 0.10578 0.1135 0.58982 0.0
C558 C 0.59398 0.34457 0.38088 0.0
C559 C 0.58769 0.31907 0.39765 0.0
C560 C 0.58498 0.35261 0.33993 0.0
C561 C 0.5688 0.33579 0.31434 0.0
H562 H 0.60648 0.3584 0.39922 0.0
H563 H 0.59079 0.37229 0.32811 0.0
S564 S 0.54569 0.26699 0.34277 0.0
N565 N 0.56388 0.27671 0.38509 0.0
N566 N 0.54622 0.29244 0.30824 0.0
C567 C 0.5616 0.31035 0.33068 0.0
C568 C 0.57129 0.30181 0.37233 0.0
C569 C 0.38939 0.8477 0.10738 0.0
C570 C 0.37943 0.83604 0.14553 0.0
C571 C 0.3805 0.83883 0.06658 0.0
C572 C 0.36204 0.81751 0.06274 0.0
H573 H 0.40294 0.86474 0.10911 0.0
H574 H 0.3876 0.84918 0.03791 0.0
S575 S 0.33628 0.77532 0.15268 0.0
N576 N 0.35426 0.79895 0.17702 0.0
N577 N 0.33835 0.78155 0.1001 0.0
C578 C 0.35446 0.80364 0.10049 0.0
C579 C 0.36294 0.81314 0.14209 0.0
C580 C 0.85459 0.34185 0.63032 0.0
C581 C 0.88095 0.3373 0.64543 0.0
C582 C 0.84629 0.33297 0.58948 0.0
C583 C 0.86377 0.31864 0.56252 0.0
H584 H 0.8403 0.35301 0.64977 0.0
H585 H 0.82596 0.33749 0.57877 0.0
S586 S 0.93455 0.2995 0.58745 0.0
N587 N 0.92449 0.31636 0.63073 0.0
N588 N 0.90846 0.29903 0.55386 0.0
C589 C 0.89001 0.31288 0.57749 0.0
C590 C 0.89873 0.32242 0.61905 0.0
C591 C 0.3686 0.1361 0.32054 0.0
C592 C 0.38049 0.11064 0.31499 0.0
C593 C 0.36064 0.14496 0.36189 0.0
C594 C 0.3636 0.12826 0.39857 0.0
H595 H 0.36519 0.14905 0.29276 0.0
H596 H 0.35105 0.16447 0.36481 0.0
S597 S 0.39797 0.06186 0.40128 0.0
N598 N 0.39835 0.07065 0.34962 0.0
N599 N 0.38264 0.08663 0.42707 0.0
C600 C 0.37708 0.10352 0.39351 0.0
C601 C 0.38573 0.09489 0.3517 0.0
C602 C 0.57266 0.63933 0.13563 0.0
C603 C 0.56971 0.61197 0.14613 0.0
C604 C 0.58076 0.64719 0.09379 0.0
C605 C 0.58614 0.62789 0.06131 0.0
H606 H 0.56933 0.65462 0.16012 0.0
H607 H 0.5835 0.66842 0.08726 0.0
S608 S 0.57688 0.55398 0.07187 0.0
N609 N 0.56975 0.56598 0.12045 0.0
N610 N 0.58466 0.58035 0.04191 0.0
C611 C 0.58162 0.60058 0.0712 0.0
C612 C 0.57349 0.59272 0.11365 0.0
C613 C 0.07189 0.81062 0.8255 0.0
C614 C 0.06956 0.83803 0.81521 0.0
C615 C 0.08141 0.80254 0.86649 0.0
C616 C 0.08881 0.82168 0.89826 0.0
H617 H 0.0673 0.79545 0.80128 0.0
H618 H 0.08373 0.78122 0.87278 0.0
S619 S 0.08087 0.8958 0.88865 0.0
N620 N 0.0717 0.88403 0.84069 0.0
N621 N 0.08908 0.8692 0.91799 0.0
C622 C 0.08445 0.8491 0.88898 0.0
C623 C 0.07497 0.85719 0.84728 0.0
C624 C 0.06071 0.27273 0.35091 0.0
C625 C 0.08125 0.29109 0.34118 0.0
C626 C 0.06619 0.24839 0.37067 0.0
C627 C 0.09241 0.24136 0.38288 0.0
H628 H 0.0399 0.27707 0.34261 0.0
H629 H 0.04942 0.23511 0.3775 0.0
S630 S 0.15416 0.28161 0.36387 0.0
N631 N 0.12947 0.30038 0.3438 0.0
N632 N 0.13986 0.25399 0.38293 0.0
C633 C 0.11364 0.25914 0.37321 0.0
C634 C 0.108 0.28436 0.35227 0.0
C635 C 0.93518 0.82635 0.57172 0.0
C636 C 0.91025 0.83386 0.59001 0.0
C637 C 0.95957 0.83128 0.59301 0.0
C638 C 0.96011 0.84409 0.63338 0.0
H639 H 0.93594 0.81516 0.54157 0.0
H640 H -0.02206 0.82329 0.57918 0.0
S641 S 0.90189 0.87391 0.69106 0.0
N642 N 0.88835 0.85911 0.64803 0.0
N643 N 0.93468 0.86848 0.68794 0.0
C644 C 0.93587 0.85421 0.65035 0.0
C645 C 0.91078 0.84915 0.62863 0.0
C646 C 0.34347 0.70086 0.85258 0.0
C647 C 0.35975 0.70786 0.88843 0.0
C648 C 0.34655 0.67576 0.83209 0.0
C649 C 0.36551 0.6569 0.84744 0.0
H650 H 0.3295 0.71531 0.8388 0.0
H651 H 0.33562 0.6719 0.80219 0.0
S652 S 0.41149 0.66443 0.9415 0.0
N653 N 0.39431 0.69273 0.93968 0.0
N654 N 0.39945 0.64601 0.90133 0.0
C655 C 0.38022 0.66278 0.88498 0.0
C656 C 0.37757 0.68823 0.90533 0.0
C657 C 0.5327 0.09456 0.10151 0.0
C658 C 0.54172 0.1212 0.09594 0.0
C659 C 0.50751 0.08941 0.121 0.0
C660 C 0.49084 0.11087 0.1342 0.0
H661 H 0.54476 0.07787 0.08996 0.0
H662 H 0.50128 0.06881 0.12636 0.0
S663 S 0.50466 0.18378 0.12302 0.0
N664 N 0.53195 0.16879 0.10466 0.0
N665 N 0.48423 0.15922 0.13715 0.0
C666 C 0.49947 0.1373 0.12719 0.0
C667 C 0.52509 0.14244 0.10938 0.0
C668 C 0.06439 0.66712 0.08837 0.0
C669 C 0.08443 0.65624 0.11511 0.0
C670 C 0.0674 0.69221 0.0694 0.0
C671 C 0.09101 0.70748 0.07499 0.0
H672 H 0.04513 0.65704 0.08485 0.0
H673 H 0.05045 0.6999 0.05091 0.0
S674 S 0.15101 0.68625 0.13988 0.0
N675 N 0.12935 0.66127 0.14558 0.0
N676 N 0.13601 0.70866 0.10811 0.0
C677 C 0.11209 0.69623 0.10046 0.0
C678 C 0.10862 0.67045 0.12067 0.0
C679 C 0.50563 0.85952 0.34114 0.0
C680 C 0.4903 0.83785 0.32471 0.0
C681 C 0.53077 0.85483 0.36171 0.0
C682 C 0.54108 0.82848 0.36529 0.0
H683 H 0.49835 0.87997 0.3377 0.0
H684 H 0.5417 0.87158 0.3758 0.0
S685 S 0.50795 0.76539 0.32978 0.0
N686 N 0.48649 0.78941 0.31661 0.0
N687 N 0.53409 0.78097 0.35122 0.0
C688 C 0.52592 0.80709 0.34846 0.0
C689 C 0.50035 0.81165 0.32948 0.0
C690 C 0.37331 0.26404 0.5562 0.0
C691 C 0.35737 0.24333 0.57403 0.0
C692 C 0.37628 0.28881 0.57682 0.0
C693 C 0.36361 0.29388 0.61633 0.0
H694 H 0.38494 0.26075 0.52703 0.0
H695 H 0.39084 0.30293 0.56405 0.0
S696 S 0.31466 0.25002 0.6724 0.0
N697 N 0.32479 0.2319 0.63041 0.0
N698 N 0.33088 0.27896 0.66921 0.0
C699 C 0.34526 0.2749 0.63236 0.0
C700 C 0.34205 0.24942 0.6113 0.0
C701 C 0.95767 0.11189 0.86946 0.0
C702 C 0.95783 0.1065 0.82497 0.0
C703 C 0.93342 0.11638 0.89093 0.0
C704 C 0.90843 0.11609 0.86864 0.0
H705 H -0.02359 0.1147 0.88708 0.0
H706 H 0.93455 0.12201 0.92489 0.0
S707 S 0.8986 0.09538 0.75375 0.0
N708 N 0.93158 0.09525 0.76093 0.0
N709 N 0.8855 0.10453 0.80083 0.0
C710 C 0.90824 0.1075 0.82506 0.0
C711 C 0.93317 0.10264 0.80333 0.0
C712 C 0.85705 0.68153 0.63789 0.0
C713 C 0.86536 0.65828 0.61529 0.0
C714 C 0.85316 0.70607 0.61637 0.0
C715 C 0.85746 0.70795 0.57153 0.0
H716 H 0.85588 0.68132 0.67302 0.0
H717 H 0.84911 0.72396 0.63538 0.0
S718 S 0.87238 0.65185 0.49601 0.0
N719 N 0.87291 0.63778 0.54463 0.0
N720 N 0.86476 0.6838 0.50404 0.0
C721 C 0.86218 0.68417 0.54794 0.0
C722 C 0.86626 0.65922 0.56982 0.0
C723 C -0.00592 0.10198 0.36692 0.0
C724 C -0.00776 0.10601 0.32201 0.0
C725 C 0.01862 0.10584 0.38854 0.0
C726 C 0.04184 0.11407 0.36596 0.0
H727 H -0.02384 0.0982 0.38586 0.0
H728 H 0.01878 0.10499 0.42371 0.0
S729 S 0.04848 0.11924 0.24648 0.0
N730 N 0.01642 0.11214 0.25445 0.0
N731 N 0.06253 0.1204 0.29525 0.0
C732 C 0.041 0.11436 0.32044 0.0
C733 C 0.01603 0.11021 0.29844 0.0
C734 C 0.56545 0.25314 0.07766 0.0
C735 C 0.59096 0.24111 0.07562 0.0
C736 C 0.56185 0.27835 0.09574 0.0
C737 C 0.5834 0.29258 0.11418 0.0
H738 H 0.5478 0.24295 0.06492 0.0
H739 H 0.54152 0.2863 0.0972 0.0
S740 S 0.65448 0.26997 0.12004 0.0
N741 N 0.63867 0.24522 0.09443 0.0
N742 N 0.63132 0.29291 0.13108 0.0
C743 C 0.60922 0.28096 0.11346 0.0
C744 C 0.61312 0.255 0.09394 0.0
C745 C 0.40963 0.83887 0.82706 0.0
C746 C 0.40905 0.83815 0.87255 0.0
C747 C 0.43423 0.84154 0.80528 0.0
C748 C 0.45876 0.84368 0.82832 0.0
H749 H 0.39162 0.83455 0.80832 0.0
H750 H 0.43429 0.83996 0.77019 0.0
S751 S 0.46688 0.84769 0.94789 0.0
N752 N 0.43419 0.84434 0.93986 0.0
N753 N 0.48037 0.84843 0.89898 0.0
C754 C 0.45797 0.84616 0.87364 0.0
C755 C 0.433 0.84376 0.89571 0.0
C756 C 0.84019 0.25634 0.86853 0.0
C757 C 0.8617 0.24107 0.88571 0.0
C758 C 0.84511 0.28139 0.84833 0.0
C759 C 0.8715 0.2917 0.84608 0.0
H760 H 0.81972 0.24903 0.87096 0.0
H761 H 0.82855 0.2922 0.83335 0.0
S762 S 0.93425 0.25856 0.88372 0.0
N763 N 0.9101 0.23712 0.89558 0.0
N764 N 0.91887 0.28477 0.86217 0.0
C765 C 0.89272 0.27665 0.86386 0.0
C766 C 0.88797 0.25108 0.8822 0.0
C767 C 0.45534 0.09947 0.59503 0.0
C768 C 0.45768 0.10647 0.63898 0.0
C769 C 0.43062 0.10214 0.57344 0.0
C770 C 0.40771 0.11221 0.59502 0.0
H771 H 0.47302 0.09409 0.57646 0.0
H772 H 0.4301 0.09904 0.5386 0.0
S773 S 0.40247 0.12645 0.71275 0.0
N774 N 0.43427 0.11798 0.70547 0.0
N775 N 0.38796 0.12428 0.66445 0.0
C776 C 0.40908 0.11583 0.64011 0.0
C777 C 0.43419 0.11281 0.66214 0.0
C778 C 0.57745 0.70834 0.34544 0.0
C779 C 0.59401 0.70917 0.38214 0.0
C780 C 0.57196 0.68401 0.32478 0.0
C781 C 0.5826 0.65938 0.34019 0.0
H782 H 0.56723 0.72636 0.33427 0.0
H783 H 0.55802 0.68461 0.29763 0.0
S784 S 0.63215 0.65232 0.43023 0.0
N785 N 0.62464 0.68473 0.42952 0.0
N786 N 0.61422 0.63836 0.39077 0.0
C787 C 0.60124 0.66033 0.37479 0.0
C788 C 0.60692 0.68543 0.3958 0.0
C789 C 0.03826 0.82132 0.1308 0.0
C790 C 0.04448 0.83683 0.09451 0.0
C791 C 0.01338 0.82376 0.15095 0.0
C792 C -0.00645 0.84204 0.13606 0.0
H793 H 0.05159 0.80521 0.14108 0.0
H794 H 0.00939 0.81 0.17738 0.0
S795 S 0.0033 0.89165 0.04695 0.0
N796 N 0.03141 0.87383 0.04764 0.0
N797 N -0.01574 0.87929 0.08614 0.0
C798 C 0.00072 0.85974 0.10209 0.0
C799 C 0.02631 0.85693 0.08127 0.0
C800 C 0.58744 0.74243 0.84089 0.0
C801 C 0.59375 0.74155 0.88517 0.0
C802 C 0.58316 0.76709 0.82024 0.0
C803 C 0.58493 0.79169 0.84317 0.0
H804 H 0.58379 0.72401 0.82297 0.0
H805 H 0.57671 0.76673 0.78656 0.0
S806 S 0.6065 0.79959 0.95783 0.0
N807 N 0.60597 0.76673 0.94979 0.0
N808 N 0.59745 0.81343 0.91116 0.0
C809 C 0.59395 0.79106 0.88641 0.0
C810 C 0.59837 0.76582 0.90739 0.0
C811 C 0.43501 0.33386 0.15635 0.0
C812 C 0.45789 0.34339 0.13411 0.0
C813 C 0.40994 0.33182 0.13582 0.0
C814 C 0.40697 0.33914 0.09226 0.0
H815 H 0.43683 0.32616 0.18912 0.0
H816 H 0.39383 0.32148 0.1525 0.0
S817 S 0.45791 0.37147 0.02228 0.0
N818 N 0.47425 0.36496 0.06807 0.0
N819 N 0.42668 0.36125 0.02994 0.0
C820 C 0.4284 0.35226 0.07154 0.0
C821 C 0.45412 0.35422 0.09223 0.0
C822 C 0.8777 0.18826 0.39935 0.0
C823 C 0.85825 0.20726 0.38565 0.0
C824 C 0.87959 0.16291 0.38065 0.0
C825 C 0.8626 0.15544 0.34656 0.0
H826 H 0.89266 0.19317 0.42378 0.0
H827 H 0.89642 0.15018 0.38991 0.0
S828 S 0.80509 0.19441 0.30237 0.0
N829 N 0.81872 0.21463 0.33919 0.0
N830 N 0.82344 0.16664 0.3028 0.0
C831 C 0.84162 0.17288 0.33435 0.0
C832 C 0.83923 0.19894 0.35398 0.0
C833 C 0.03144 0.59339 0.59869 0.0
C834 C 0.04102 0.62006 0.59709 0.0
C835 C 0.00639 0.58758 0.61814 0.0
C836 C -0.00962 0.60849 0.63508 0.0
H837 H 0.04285 0.57727 0.58382 0.0
H838 H -0.00033 0.5669 0.62022 0.0
S839 S 0.00625 0.68122 0.63673 0.0
N840 N 0.03286 0.66694 0.61465 0.0
N841 N -0.01476 0.65643 0.64701 0.0
C842 C -0.00028 0.63498 0.63259 0.0
C843 C 0.02528 0.64064 0.61494 0.0
C844 C 0.60756 0.19966 0.59954 0.0
C845 C 0.587 0.20897 0.57147 0.0
C846 C 0.60578 0.17409 0.6192 0.0
C847 C 0.58395 0.15685 0.61019 0.0
H848 H 0.6244 0.21255 0.60781 0.0
H849 H 0.62046 0.16855 0.64379 0.0
S850 S 0.52478 0.1715 0.54073 0.0
N851 N 0.54367 0.19859 0.5376 0.0
N852 N 0.54194 0.15044 0.57155 0.0
C853 C 0.56442 0.16521 0.5803 0.0
C854 C 0.56542 0.19137 0.56202 0.0
C855 C -0.00748 0.32496 0.86196 0.0
C856 C -0.00891 0.34316 0.82759 0.0
C857 C 0.01696 0.31955 0.8824 0.0
C858 C 0.04114 0.33194 0.86908 0.0
H859 H 0.97489 0.31359 0.87145 0.0
H860 H 0.01686 0.30443 0.90771 0.0
S861 S 0.04658 0.38506 0.78485 0.0
N862 N 0.01444 0.37643 0.78416 0.0
N863 N 0.06111 0.36615 0.8225 0.0
C864 C 0.03959 0.35181 0.83656 0.0
C865 C 0.01433 0.35743 0.81582 0.0
C866 C 0.86614 0.74142 0.11719 0.0
C867 C 0.85577 0.74137 0.07505 0.0
C868 C 0.87078 0.76559 0.13871 0.0
C869 C 0.86576 0.79072 0.11861 0.0
H870 H 0.87244 0.7228 0.1325 0.0
H871 H 0.88003 0.76436 0.17059 0.0
S872 S 0.83229 0.80034 0.01189 0.0
N873 N 0.83579 0.76739 0.01656 0.0
N874 N 0.84521 0.81352 0.05673 0.0
C875 C 0.85273 0.79078 0.07803 0.0
C876 C 0.84773 0.76586 0.05623 0.0
C877 C 0.41403 0.59828 0.34655 0.0
C878 C 0.41071 0.62233 0.37038 0.0
C879 C 0.43883 0.59232 0.3263 0.0
C880 C 0.46082 0.61011 0.32991 0.0
H881 H 0.3974 0.58436 0.34301 0.0
H882 H 0.44045 0.57443 0.30634 0.0
S883 S 0.46257 0.67522 0.38805 0.0
N884 N 0.43176 0.66388 0.39526 0.0
N885 N 0.478 0.65183 0.35946 0.0
C886 C 0.45793 0.63342 0.35481 0.0
C887 C 0.43294 0.63978 0.37437 0.0
C888 C 0.36627 0.15864 0.07566 0.0
C889 C 0.36316 0.15709 0.12073 0.0
C890 C 0.36293 0.18325 0.05427 0.0
C891 C 0.35628 0.20688 0.07724 0.0
H892 H 0.37407 0.14163 0.05764 0.0
H893 H 0.3674 0.18415 0.01991 0.0
S894 S 0.33969 0.21108 0.19445 0.0
N895 N 0.34802 0.1793 0.18644 0.0
N896 N 0.34213 0.22587 0.14654 0.0
C897 C 0.34971 0.20469 0.12144 0.0
C898 C 0.35299 0.17956 0.14307 0.0
C899 C 0.51524 0.60015 0.81108 0.0
C900 C 0.49066 0.60761 0.83017 0.0
C901 C 0.53986 0.60501 0.83234 0.0
C902 C 0.54044 0.61797 0.8729 0.0
H903 H 0.51548 0.59195 0.77848 0.0
H904 H 0.55843 0.60031 0.81567 0.0
S905 S 0.48102 0.63817 0.93857 0.0
N906 N 0.46806 0.62568 0.89339 0.0
N907 N 0.5139 0.63508 0.93354 0.0
C908 C 0.51569 0.62338 0.8937 0.0
C909 C 0.49083 0.61815 0.87224 0.0
C910 C 0.10545 0.78306 0.60564 0.0
C911 C 0.07911 0.79065 0.6174 0.0
C912 C 0.11031 0.7578 0.58587 0.0
C913 C 0.08891 0.73981 0.57774 0.0
H914 H 0.1222 0.79645 0.61204 0.0
H915 H 0.13054 0.75272 0.57575 0.0
S916 S 0.01673 0.75072 0.6019 0.0
N917 N 0.03176 0.77844 0.61843 0.0
N918 N 0.04101 0.73127 0.58335 0.0
C919 C 0.06287 0.74723 0.59016 0.0
C920 C 0.05793 0.77263 0.60932 0.0
C921 C 0.92488 0.31094 0.35091 0.0
C922 C 0.9083 0.33229 0.3641 0.0
C923 C 0.94978 0.31543 0.33239 0.0
C924 C 0.95925 0.34153 0.32492 0.0
H925 H 0.91882 0.29023 0.35613 0.0
H926 H 0.96168 0.29805 0.32316 0.0
S927 S 0.92381 0.40496 0.35371 0.0
N928 N 0.90309 0.38089 0.36966 0.0
N929 N 0.95029 0.38962 0.3325 0.0
C930 C 0.94308 0.36349 0.33789 0.0
C931 C 0.91736 0.3588 0.35768 0.0
C932 C 0.34527 0.78195 0.35158 0.0
C933 C 0.37197 0.79009 0.3435 0.0
C934 C 0.34003 0.75697 0.37196 0.0
C935 C 0.36141 0.73964 0.38368 0.0
H936 H 0.32857 0.79454 0.3414 0.0
H937 H 0.31945 0.75143 0.37918 0.0
S938 S 0.43426 0.75144 0.36698 0.0
N939 N 0.41949 0.77907 0.34928 0.0
N940 N 0.40959 0.7317 0.38294 0.0
C941 C 0.38781 0.74749 0.37431 0.0
C942 C 0.39311 0.7729 0.35571 0.0
C943 C 0.935 0.60536 0.15263 0.0
C944 C 0.95957 0.60782 0.13034 0.0
C945 C 0.91027 0.60936 0.13131 0.0
C946 C 0.90961 0.61634 0.08722 0.0
H947 H 0.93499 0.60191 0.18735 0.0
H948 H 0.89194 0.60921 0.15018 0.0
S949 S 0.96811 0.62085 0.01276 0.0
N950 N -0.01846 0.61414 0.06076 0.0
N951 N 0.93528 0.62154 0.02049 0.0
C952 C 0.93396 0.61611 0.06373 0.0
C953 C 0.95899 0.61192 0.08536 0.0
C954 C 0.09576 0.18509 0.90254 0.0
C955 C 0.09218 0.20966 0.88045 0.0
C956 C 0.09165 0.16035 0.88146 0.0
C957 C 0.08328 0.1596 0.83786 0.0
H958 H 0.10018 0.18507 0.93703 0.0
H959 H 0.09286 0.14199 0.90028 0.0
S960 S 0.07508 0.21824 0.76405 0.0
N961 N 0.08308 0.23163 0.81151 0.0
N962 N 0.07535 0.18539 0.77171 0.0
C963 C 0.08221 0.18402 0.81447 0.0
C964 C 0.08661 0.20907 0.83584 0.0
C965 C 0.53721 0.35245 0.61396 0.0
C966 C 0.54053 0.32929 0.58816 0.0
C967 C 0.51235 0.35794 0.63403 0.0
C968 C 0.49034 0.34044 0.62856 0.0
H969 H 0.55396 0.36601 0.61936 0.0
H970 H 0.51074 0.37511 0.65555 0.0
S971 S 0.48801 0.27794 0.56347 0.0
N972 N 0.51906 0.28913 0.55801 0.0
N973 N 0.4727 0.30027 0.59436 0.0
C974 C 0.49301 0.31814 0.60133 0.0
C975 C 0.51807 0.31231 0.58152 0.0
C976 C 0.02912 0.46647 0.25659 0.0
C977 C 0.05207 0.45012 0.25396 0.0
C978 C 0.02756 0.49067 0.23379 0.0
C979 C 0.04889 0.49947 0.20733 0.0
H980 H 0.01204 0.4603 0.27592 0.0
H981 H 0.00958 0.50278 0.23772 0.0
S982 S 0.11214 0.46201 0.18577 0.0
N983 N 0.09575 0.44303 0.22071 0.0
N984 N 0.0929 0.48868 0.17743 0.0
C985 C 0.07174 0.48289 0.20357 0.0
C986 C 0.07337 0.45825 0.22721 0.0
C987 C 0.74797 0.79621 0.45759 0.0
C988 C 0.75016 0.79848 0.50311 0.0
C989 C 0.72286 0.79673 0.43667 0.0
C990 C 0.69928 0.7992 0.46095 0.0
H991 H 0.76591 0.79406 0.43799 0.0
H992 H 0.72186 0.79469 0.40169 0.0
S993 S 0.69362 0.80435 0.58055 0.0
N994 N 0.72641 0.8027 0.57166 0.0
N995 N 0.67907 0.80308 0.53226 0.0
C996 C 0.70108 0.80122 0.50637 0.0
C997 C 0.72662 0.80106 0.52763 0.0
C998 C 0.38178 0.4585 0.73405 0.0
C999 C 0.4023 0.45039 0.70561 0.0
C1000 C 0.38318 0.48322 0.7559 0.0
C1001 C 0.40514 0.50066 0.7499 0.0
H1002 H 0.36503 0.4452 0.74069 0.0
H1003 H 0.3669 0.48876 0.7774 0.0
S1004 S 0.46361 0.48877 0.67712 0.0
N1005 N 0.44472 0.46167 0.67145 0.0
N1006 N 0.44777 0.50798 0.71247 0.0
C1007 C 0.4258 0.49262 0.72129 0.0
C1008 C 0.42422 0.46759 0.69898 0.0
C1009 C 0.74581 0.13776 -0.00489 0.0
C1010 C 0.74953 0.15049 0.9548 0.0
C1011 C 0.72107 0.13918 0.01667 0.0
C1012 C 0.69953 0.1537 -0.00134 0.0
H1013 H 0.76237 0.12715 0.01051 0.0
H1014 H 0.71887 0.12912 0.04762 0.0
S1015 S 0.69874 0.1893 0.89255 0.0
N1016 N 0.7297 0.17735 0.89713 0.0
N1017 N 0.68301 0.17992 0.9371 0.0
C1018 C 0.70302 0.16636 0.9581 0.0
C1019 C 0.72814 0.16484 0.93626 0.0
C1020 C 0.88174 0.45787 0.72459 0.0
C1021 C 0.90108 0.45077 0.75607 0.0
C1022 C 0.88333 0.48238 0.7023 0.0
C1023 C 0.9043 0.50062 0.71086 0.0
H1024 H 0.8658 0.44395 0.71601 0.0
H1025 H 0.86799 0.4871 0.67834 0.0
S1026 S 0.95916 0.49186 0.79259 0.0
N1027 N 0.94128 0.46394 0.79589 0.0
N1028 N 0.94438 0.51014 0.7546 0.0
C1029 C 0.92371 0.49372 0.74272 0.0
C1030 C 0.92203 0.46878 0.76529 0.0
C1031 C 0.236 0.12997 0.49602 0.0
C1032 C 0.24975 0.15432 0.50321 0.0
C1033 C 0.21158 0.12941 0.47297 0.0
C1034 C 0.20001 0.1532 0.45661 0.0
H1035 H 0.24444 0.11112 0.50735 0.0
H1036 H 0.20131 0.11033 0.46912 0.0
S1037 S 0.22778 0.22229 0.46674 0.0
N1038 N 0.24954 0.20299 0.49284 0.0
N1039 N 0.20429 0.20171 0.44835 0.0
C1040 C 0.2136 0.17766 0.46337 0.0
C1041 C 0.23818 0.17831 0.48725 0.0
C1042 C 0.56983 0.4846 0.24884 0.0
C1043 C 0.54592 0.49965 0.25222 0.0
C1044 C 0.57041 0.46008 0.22634 0.0
C1045 C 0.54703 0.44954 0.20683 0.0
H1046 H 0.58843 0.49203 0.2629 0.0
H1047 H 0.58914 0.44892 0.22542 0.0
S1048 S 0.47912 0.48084 0.20598 0.0
N1049 N 0.49802 0.50188 0.23427 0.0
N1050 N 0.49937 0.45607 0.19153 0.0
C1051 C 0.52296 0.4643 0.20986 0.0
C1052 C 0.52229 0.48919 0.23289 0.0
C1053 C 0.20285 0.80091 0.95736 0.0
C1054 C 0.20107 0.79992 0.00296 0.0
C1055 C 0.2278 0.80149 0.9366 0.0
C1056 C 0.25156 0.80067 0.96109 0.0
H1057 H 0.18472 0.8008 0.93758 0.0
H1058 H 0.22852 0.80168 0.90146 0.0
S1059 S 0.25793 0.79788 0.08106 0.0
N1060 N 0.22508 0.79848 0.07187 0.0
N1061 N 0.27226 0.79896 0.03281 0.0
C1062 C 0.25011 0.79993 0.00669 0.0
C1063 C 0.22471 0.79974 0.02781 0.0
C1064 C 0.5587 0.97076 0.76949 0.0
C1065 C 0.54816 0.9483 0.74774 0.0
C1066 C 0.5594 -0.00403 0.74905 0.0
C1067 C 0.55014 -0.00069 0.7061 0.0
H1068 H 0.56592 0.96896 0.80261 0.0
H1069 H 0.56676 0.01316 0.76725 0.0
S1070 S 0.5228 0.94601 0.6342 0.0
N1071 N 0.52954 0.9305 0.68039 0.0
N1072 N 0.53116 -0.02214 0.64193 0.0
C1073 C 0.54014 -0.02312 0.68367 0.0
C1074 C 0.53912 0.95133 0.70459 0.0
C1075 C 0.22964 0.28668 0.01974 0.0
C1076 C 0.25098 0.30113 0.00166 0.0
C1077 C 0.20464 0.2856 -0.00139 0.0
C1078 C 0.20028 0.2987 0.95856 0.0
H1079 H 0.2324 0.27587 0.04997 0.0
H1080 H 0.1885 0.27461 0.01408 0.0
S1081 S 0.25131 0.33623 0.89562 0.0
N1082 N 0.26726 0.32699 0.9404 0.0
N1083 N 0.22017 0.3249 0.90034 0.0
C1084 C 0.22172 0.31282 0.93983 0.0
C1085 C 0.24715 0.314 0.96152 0.0
C1086 C 0.90828 -0.00341 0.20718 0.0
C1087 C 0.90188 -0.00035 0.25145 0.0
C1088 C 0.90707 0.97147 0.18677 0.0
C1089 C 0.89951 0.94864 0.21019 0.0
H1090 H 0.91414 0.01388 0.188 0.0
H1091 H 0.91247 0.96983 0.15285 0.0
S1092 S 0.88313 0.94499 0.32724 0.0
N1093 N 0.88892 -0.02269 0.31844 0.0
N1094 N 0.88713 0.92982 0.27997 0.0
C1095 C 0.89348 0.95119 0.25452 0.0
C1096 C 0.89445 -0.02317 0.2753 0.0
C1097 C 0.23088 0.668 0.44627 0.0
C1098 C 0.24985 0.64807 0.45637 0.0
C1099 C 0.20647 0.66941 0.46854 0.0
C1100 C 0.20027 0.65114 0.50209 0.0
H1101 H 0.23499 0.68264 0.42112 0.0
H1102 H 0.19213 0.68469 0.45862 0.0
S1103 S 0.24571 0.59823 0.54554 0.0
N1104 N 0.26253 0.61162 0.50484 0.0
N1105 N 0.21657 0.61432 0.54717 0.0
C1106 C 0.21963 0.63175 0.51361 0.0
C1107 C 0.24445 0.6302 0.49056 0.0
C1108 C 0.42096 -0.00813 0.23914 0.0
C1109 C 0.40144 -0.00076 0.20783 0.0
C1110 C 0.41936 0.96749 0.2615 0.0
C1111 C 0.39805 0.94964 0.25375 0.0
H1112 H 0.43747 0.00524 0.24717 0.0
H1113 H 0.43506 0.96241 0.28466 0.0
S1114 S 0.34388 0.95725 0.17142 0.0
N1115 N 0.36146 -0.01463 0.16768 0.0
N1116 N 0.35844 0.93945 0.21025 0.0
C1117 C 0.37871 0.95632 0.22208 0.0
C1118 C 0.38044 -0.01889 0.19888 0.0
C1119 C 0.7388 0.67384 -0.0149 0.0
C1120 C 0.74989 0.6502 0.00305 0.0
C1121 C 0.71457 0.67336 0.96188 0.0
C1122 C 0.70036 0.64923 0.95557 0.0
H1123 H 0.74912 0.69294 -0.01165 0.0
H1124 H 0.7067 0.69216 0.94925 0.0
S1125 S 0.71971 0.58194 -0.00229 0.0
N1126 N 0.74412 0.60207 0.01433 0.0
N1127 N 0.69857 0.60118 0.97016 0.0
C1128 C 0.71103 0.62543 0.97345 0.0
C1129 C 0.73566 0.62595 -0.00237 0.0
C1130 C 0.07017 -0.00987 0.73296 0.0
C1131 C 0.04753 -0.00031 0.75545 0.0
C1132 C 0.06942 0.96566 0.71031 0.0
C1133 C 0.04607 0.94967 0.70968 0.0
H1134 H 0.08841 0.00203 0.73172 0.0
H1135 H 0.08747 0.95903 0.69386 0.0
S1136 S -0.01871 0.96572 0.76431 0.0
N1137 N 0.00116 -0.0087 0.77633 0.0
N1138 N -0.00056 0.94548 0.7336 0.0
C1139 C 0.02313 0.95916 0.73195 0.0
C1140 C 0.02399 -0.01596 0.75507 0.0
C1141 C 0.71472 0.31993 0.49657 0.0
C1142 C 0.70083 0.29568 0.50363 0.0
C1143 C 0.7389 0.32041 0.47333 0.0
C1144 C 0.75022 0.29663 0.4567 0.0
H1145 H 0.70663 0.33882 0.5083 0.0
H1146 H 0.74922 0.33946 0.46962 0.0
S1147 S 0.72182 0.22778 0.46559 0.0
N1148 N 0.70035 0.24712 0.49194 0.0
N1149 N 0.74549 0.24821 0.44778 0.0
C1150 C 0.73649 0.27224 0.46318 0.0
C1151 C 0.71197 0.27169 0.48698 0.0
loop_
_geom_bond_atom_site_label_1
_geom_bond_atom_site_label_2
_geom_bond_distance
_geom_bond_site_symmetry_2
_ccdc_geom_bond_type
C0 O1 1.306 . S
C0 O3 1.160 . S
O1 C0 1.306 . S
O1 Cd2 2.228 . S
Cd2 O1 2.228 . S
Cd2 O6 2.273 . S
Cd2 O10 2.277 . S
O3 C0 1.160 . S
O3 Cd4 2.203 . S
Cd4 O3 2.203 . S
Cd4 O6 2.411 . S
Cd4 O7 2.333 . S
Cd4 O8 2.352 . S
Cd4 O12 2.277 . S
Cd4 O13 2.356 . S
C5 O10 1.209 . S
C5 O12 1.226 . S
O6 Cd2 2.273 . S
O6 Cd4 2.411 . S
O6 C9 1.320 . S
O7 Cd4 2.333 . S
O7 C9 1.214 . S
O8 Cd4 2.352 . S
O8 C11 1.258 . S
C9 O6 1.320 . S
C9 O7 1.214 . S
O10 Cd2 2.277 . S
O10 C5 1.209 . S
C11 O8 1.258 . S
C11 O13 1.282 . S
O12 Cd4 2.277 . S
O12 C5 1.226 . S
O13 Cd4 2.356 . S
O13 C11 1.282 . S
C14 O15 1.306 . S
C14 O17 1.160 . S
O15 C14 1.306 . S
O15 Cd16 2.228 . S
Cd16 O15 2.228 . S
Cd16 O20 2.273 . S
Cd16 O24 2.277 . S
O17 C14 1.160 . S
O17 Cd18 2.203 . S
Cd18 O17 2.203 . S
Cd18 O20 2.411 . S
Cd18 O21 2.333 . S
Cd18 O22 2.352 . S
Cd18 O26 2.277 . S
Cd18 O27 2.356 . S
C19 O24 1.209 . S
C19 O26 1.226 . S
O20 Cd16 2.273 . S
O20 Cd18 2.411 . S
O20 C23 1.320 . S
O21 Cd18 2.333 . S
O21 C23 1.214 . S
O22 Cd18 2.352 . S
O22 C25 1.258 . S
C23 O20 1.320 . S
C23 O21 1.214 . S
O24 Cd16 2.277 . S
O24 C19 1.209 . S
C25 O22 1.258 . S
C25 O27 1.282 . S
O26 Cd18 2.277 . S
O26 C19 1.226 . S
O27 Cd18 2.356 . S
O27 C25 1.282 . S
C28 O29 1.306 . S
C28 O31 1.160 . S
O29 C28 1.306 . S
O29 Cd30 2.228 . S
Cd30 O29 2.228 . S
Cd30 O34 2.273 . S
Cd30 O38 2.277 . S
O31 C28 1.160 . S
O31 Cd32 2.203 . S
Cd32 O31 2.203 . S
Cd32 O34 2.411 . S
Cd32 O35 2.333 . S
Cd32 O36 2.352 . S
Cd32 O40 2.277 . S
Cd32 O41 2.356 . S
C33 O38 1.209 . S
C33 O40 1.226 . S
O34 Cd30 2.273 . S
O34 Cd32 2.411 . S
O34 C37 1.320 . S
O35 Cd32 2.333 . S
O35 C37 1.214 . S
O36 Cd32 2.352 . S
O36 C39 1.258 . S
C37 O34 1.320 . S
C37 O35 1.214 . S
O38 Cd30 2.277 . S
O38 C33 1.209 . S
C39 O36 1.258 . S
C39 O41 1.282 . S
O40 Cd32 2.277 . S
O40 C33 1.226 . S
O41 Cd32 2.356 . S
O41 C39 1.282 . S
C42 O43 1.306 . S
C42 O45 1.160 . S
O43 C42 1.306 . S
O43 Cd44 2.228 . S
Cd44 O43 2.228 . S
Cd44 O48 2.273 1_554 S
Cd44 O52 2.277 . S
O45 C42 1.160 . S
O45 Cd46 2.203 . S
Cd46 O45 2.203 . S
Cd46 O48 2.411 1_554 S
Cd46 O49 2.333 1_554 S
Cd46 O50 2.352 . S
Cd46 O54 2.277 . S
Cd46 O55 2.356 . S
C47 O52 1.209 . S
C47 O54 1.226 . S
O48 Cd44 2.273 1_556 S
O48 Cd46 2.411 1_556 S
O48 C51 1.320 . S
O49 Cd46 2.333 1_556 S
O49 C51 1.214 . S
O50 Cd46 2.352 . S
O50 C53 1.258 . S
C51 O48 1.320 . S
C51 O49 1.214 . S
O52 Cd44 2.277 . S
O52 C47 1.209 . S
C53 O50 1.258 . S
C53 O55 1.282 . S
O54 Cd46 2.277 . S
O54 C47 1.226 . S
O55 Cd46 2.356 . S
O55 C53 1.282 . S
C56 O57 1.306 . S
C56 O59 1.160 . S
O57 C56 1.306 . S
O57 Cd58 2.228 . S
Cd58 O57 2.228 . S
Cd58 O62 2.273 . S
Cd58 O66 2.277 . S
O59 C56 1.160 . S
O59 Cd60 2.203 . S
Cd60 O59 2.203 . S
Cd60 O62 2.411 . S
Cd60 O63 2.333 . S
Cd60 O64 2.352 . S
Cd60 O68 2.277 . S
Cd60 O69 2.356 . S
C61 O66 1.209 . S
C61 O68 1.226 . S
O62 Cd58 2.273 . S
O62 Cd60 2.411 . S
O62 C65 1.320 . S
O63 Cd60 2.333 . S
O63 C65 1.214 . S
O64 Cd60 2.352 . S
O64 C67 1.258 . S
C65 O62 1.320 . S
C65 O63 1.214 . S
O66 Cd58 2.277 . S
O66 C61 1.209 . S
C67 O64 1.258 . S
C67 O69 1.282 . S
O68 Cd60 2.277 . S
O68 C61 1.226 . S
O69 Cd60 2.356 . S
O69 C67 1.282 . S
C70 O71 1.306 . S
C70 O73 1.160 . S
O71 C70 1.306 . S
O71 Cd72 2.228 . S
Cd72 O71 2.228 . S
Cd72 O76 2.273 . S
Cd72 O80 2.277 . S
O73 C70 1.160 . S
O73 Cd74 2.203 . S
Cd74 O73 2.203 . S
Cd74 O76 2.411 . S
Cd74 O77 2.333 . S
Cd74 O78 2.352 . S
Cd74 O82 2.277 . S
Cd74 O83 2.356 . S
C75 O80 1.209 . S
C75 O82 1.226 . S
O76 Cd72 2.273 . S
O76 Cd74 2.411 . S
O76 C79 1.320 . S
O77 Cd74 2.333 . S
O77 C79 1.214 . S
O78 Cd74 2.352 . S
O78 C81 1.258 . S
C79 O76 1.320 . S
C79 O77 1.214 . S
O80 Cd72 2.277 . S
O80 C75 1.209 . S
C81 O78 1.258 . S
C81 O83 1.282 . S
O82 Cd74 2.277 . S
O82 C75 1.226 . S
O83 Cd74 2.356 . S
O83 C81 1.282 . S
C84 O85 1.306 . S
C84 O87 1.160 . S
O85 C84 1.306 . S
O85 Cd86 2.228 . S
Cd86 O85 2.228 . S
Cd86 O90 2.273 . S
Cd86 O94 2.277 . S
O87 C84 1.160 . S
O87 Cd88 2.203 . S
Cd88 O87 2.203 . S
Cd88 O90 2.411 . S
Cd88 O91 2.333 . S
Cd88 O92 2.352 . S
Cd88 O96 2.277 . S
Cd88 O97 2.356 . S
C89 O94 1.209 . S
C89 O96 1.226 . S
O90 Cd86 2.273 . S
O90 Cd88 2.411 . S
O90 C93 1.320 . S
O91 Cd88 2.333 . S
O91 C93 1.214 . S
O92 Cd88 2.352 . S
O92 C95 1.258 . S
C93 O90 1.320 . S
C93 O91 1.214 . S
O94 Cd86 2.277 . S
O94 C89 1.209 . S
C95 O92 1.258 . S
C95 O97 1.282 . S
O96 Cd88 2.277 . S
O96 C89 1.226 . S
O97 Cd88 2.356 . S
O97 C95 1.282 . S
C98 O99 1.306 . S
C98 O101 1.160 . S
O99 C98 1.306 . S
O99 Cd100 2.228 . S
Cd100 O99 2.228 . S
Cd100 O104 2.273 1_556 S
Cd100 O108 2.277 . S
O101 C98 1.160 . S
O101 Cd102 2.203 . S
Cd102 O101 2.203 . S
Cd102 O104 2.411 1_556 S
Cd102 O105 2.333 1_556 S
Cd102 O106 2.352 . S
Cd102 O110 2.277 . S
Cd102 O111 2.356 . S
C103 O108 1.209 . S
C103 O110 1.226 . S
O104 Cd100 2.273 1_554 S
O104 Cd102 2.411 1_554 S
O104 C107 1.320 . S
O105 Cd102 2.333 1_554 S
O105 C107 1.214 . S
O106 Cd102 2.352 . S
O106 C109 1.258 . S
C107 O104 1.320 . S
C107 O105 1.214 . S
O108 Cd100 2.277 . S
O108 C103 1.209 . S
C109 O106 1.258 . S
C109 O111 1.282 . S
O110 Cd102 2.277 . S
O110 C103 1.226 . S
O111 Cd102 2.356 . S
O111 C109 1.282 . S
C112 O113 1.306 . S
C112 O115 1.160 . S
O113 C112 1.306 . S
O113 Cd114 2.228 . S
Cd114 O113 2.228 . S
Cd114 O118 2.273 . S
Cd114 O122 2.277 . S
O115 C112 1.160 . S
O115 Cd116 2.203 . S
Cd116 O115 2.203 . S
Cd116 O118 2.411 . S
Cd116 O119 2.333 . S
Cd116 O120 2.352 . S
Cd116 O124 2.277 . S
Cd116 O125 2.356 . S
C117 O122 1.209 . S
C117 O124 1.226 . S
O118 Cd114 2.273 . S
O118 Cd116 2.411 . S
O118 C121 1.320 . S
O119 Cd116 2.333 . S
O119 C121 1.214 . S
O120 Cd116 2.352 . S
O120 C123 1.258 . S
C121 O118 1.320 . S
C121 O119 1.214 . S
O122 Cd114 2.277 . S
O122 C117 1.209 . S
C123 O120 1.258 . S
C123 O125 1.282 . S
O124 Cd116 2.277 . S
O124 C117 1.226 . S
O125 Cd116 2.356 . S
O125 C123 1.282 . S
C126 O127 1.306 . S
C126 O129 1.160 . S
O127 C126 1.306 . S
O127 Cd128 2.228 . S
Cd128 O127 2.228 . S
Cd128 O132 2.273 . S
Cd128 O136 2.277 . S
O129 C126 1.160 . S
O129 Cd130 2.203 . S
Cd130 O129 2.203 . S
Cd130 O132 2.411 . S
Cd130 O133 2.333 . S
Cd130 O134 2.352 . S
Cd130 O138 2.277 . S
Cd130 O139 2.356 . S
C131 O136 1.209 . S
C131 O138 1.226 . S
O132 Cd128 2.273 . S
O132 Cd130 2.411 . S
O132 C135 1.320 . S
O133 Cd130 2.333 . S
O133 C135 1.214 . S
O134 Cd130 2.352 . S
O134 C137 1.258 . S
C135 O132 1.320 . S
C135 O133 1.214 . S
O136 Cd128 2.277 . S
O136 C131 1.209 . S
C137 O134 1.258 . S
C137 O139 1.282 . S
O138 Cd130 2.277 . S
O138 C131 1.226 . S
O139 Cd130 2.356 . S
O139 C137 1.282 . S
C140 O141 1.306 . S
C140 O143 1.160 . S
O141 C140 1.306 . S
O141 Cd142 2.228 . S
Cd142 O141 2.228 . S
Cd142 O146 2.273 . S
Cd142 O150 2.277 . S
O143 C140 1.160 . S
O143 Cd144 2.203 . S
Cd144 O143 2.203 . S
Cd144 O146 2.411 . S
Cd144 O147 2.333 . S
Cd144 O148 2.352 . S
Cd144 O152 2.277 . S
Cd144 O153 2.356 . S
C145 O150 1.209 . S
C145 O152 1.226 . S
O146 Cd142 2.273 . S
O146 Cd144 2.411 . S
O146 C149 1.320 . S
O147 Cd144 2.333 . S
O147 C149 1.214 . S
O148 Cd144 2.352 . S
O148 C151 1.258 . S
C149 O146 1.320 . S
C149 O147 1.214 . S
O150 Cd142 2.277 . S
O150 C145 1.209 . S
C151 O148 1.258 . S
C151 O153 1.282 . S
O152 Cd144 2.277 . S
O152 C145 1.226 . S
O153 Cd144 2.356 . S
O153 C151 1.282 . S
C154 O155 1.306 . S
C154 O157 1.160 . S
O155 C154 1.306 . S
O155 Cd156 2.228 . S
Cd156 O155 2.228 . S
Cd156 O160 2.273 1_556 S
Cd156 O164 2.277 . S
O157 C154 1.160 . S
O157 Cd158 2.203 . S
Cd158 O157 2.203 . S
Cd158 O160 2.411 1_556 S
Cd158 O161 2.333 1_556 S
Cd158 O162 2.352 . S
Cd158 O166 2.277 . S
Cd158 O167 2.356 . S
C159 O164 1.209 . S
C159 O166 1.226 . S
O160 Cd156 2.273 1_554 S
O160 Cd158 2.411 1_554 S
O160 C163 1.320 . S
O161 Cd158 2.333 1_554 S
O161 C163 1.214 . S
O162 Cd158 2.352 . S
O162 C165 1.258 . S
C163 O160 1.320 . S
C163 O161 1.214 . S
O164 Cd156 2.277 . S
O164 C159 1.209 . S
C165 O162 1.258 . S
C165 O167 1.282 . S
O166 Cd158 2.277 . S
O166 C159 1.226 . S
O167 Cd158 2.356 . S
O167 C165 1.282 . S
C168 O169 1.306 . S
C168 O171 1.160 . S
O169 C168 1.306 . S
O169 Cd170 2.228 . S
Cd170 O169 2.228 . S
Cd170 O174 2.273 . S
Cd170 O178 2.277 . S
O171 C168 1.160 . S
O171 Cd172 2.203 . S
Cd172 O171 2.203 . S
Cd172 O174 2.411 . S
Cd172 O175 2.333 . S
Cd172 O176 2.352 . S
Cd172 O180 2.277 . S
Cd172 O181 2.356 . S
C173 O178 1.209 . S
C173 O180 1.226 . S
O174 Cd170 2.273 . S
O174 Cd172 2.411 . S
O174 C177 1.320 . S
O175 Cd172 2.333 . S
O175 C177 1.214 . S
O176 Cd172 2.352 . S
O176 C179 1.258 . S
C177 O174 1.320 . S
C177 O175 1.214 . S
O178 Cd170 2.277 . S
O178 C173 1.209 . S
C179 O176 1.258 . S
C179 O181 1.282 . S
O180 Cd172 2.277 . S
O180 C173 1.226 . S
O181 Cd172 2.356 . S
O181 C179 1.282 . S
C182 O183 1.306 . S
C182 O185 1.160 . S
O183 C182 1.306 . S
O183 Cd184 2.228 . S
Cd184 O183 2.228 . S
Cd184 O188 2.273 . S
Cd184 O192 2.277 . S
O185 C182 1.160 . S
O185 Cd186 2.203 . S
Cd186 O185 2.203 . S
Cd186 O188 2.411 . S
Cd186 O189 2.333 . S
Cd186 O190 2.352 . S
Cd186 O194 2.277 . S
Cd186 O195 2.356 . S
C187 O192 1.209 . S
C187 O194 1.226 . S
O188 Cd184 2.273 . S
O188 Cd186 2.411 . S
O188 C191 1.320 . S
O189 Cd186 2.333 . S
O189 C191 1.214 . S
O190 Cd186 2.352 . S
O190 C193 1.258 . S
C191 O188 1.320 . S
C191 O189 1.214 . S
O192 Cd184 2.277 . S
O192 C187 1.209 . S
C193 O190 1.258 . S
C193 O195 1.282 . S
O194 Cd186 2.277 . S
O194 C187 1.226 . S
O195 Cd186 2.356 . S
O195 C193 1.282 . S
C196 O197 1.306 . S
C196 O199 1.160 . S
O197 C196 1.306 . S
O197 Cd198 2.228 . S
Cd198 O197 2.228 . S
Cd198 O202 2.273 . S
Cd198 O206 2.277 . S
O199 C196 1.160 . S
O199 Cd200 2.203 . S
Cd200 O199 2.203 . S
Cd200 O202 2.411 . S
Cd200 O203 2.333 . S
Cd200 O204 2.352 . S
Cd200 O208 2.277 . S
Cd200 O209 2.356 . S
C201 O206 1.209 . S
C201 O208 1.226 . S
O202 Cd198 2.273 . S
O202 Cd200 2.411 . S
O202 C205 1.320 . S
O203 Cd200 2.333 . S
O203 C205 1.214 . S
O204 Cd200 2.352 . S
O204 C207 1.258 . S
C205 O202 1.320 . S
C205 O203 1.214 . S
O206 Cd198 2.277 . S
O206 C201 1.209 . S
C207 O204 1.258 . S
C207 O209 1.282 . S
O208 Cd200 2.277 . S
O208 C201 1.226 . S
O209 Cd200 2.356 . S
O209 C207 1.282 . S
C210 O211 1.306 . S
C210 O213 1.160 . S
O211 C210 1.306 . S
O211 Cd212 2.228 . S
Cd212 O211 2.228 . S
Cd212 O216 2.273 1_554 S
Cd212 O220 2.277 . S
O213 C210 1.160 . S
O213 Cd214 2.203 . S
Cd214 O213 2.203 . S
Cd214 O216 2.411 1_554 S
Cd214 O217 2.333 1_554 S
Cd214 O218 2.352 . S
Cd214 O222 2.277 . S
Cd214 O223 2.356 . S
C215 O220 1.209 . S
C215 O222 1.226 . S
O216 Cd212 2.273 1_556 S
O216 Cd214 2.411 1_556 S
O216 C219 1.320 . S
O217 Cd214 2.333 1_556 S
O217 C219 1.214 . S
O218 Cd214 2.352 . S
O218 C221 1.258 . S
C219 O216 1.320 . S
C219 O217 1.214 . S
O220 Cd212 2.277 . S
O220 C215 1.209 . S
C221 O218 1.258 . S
C221 O223 1.282 . S
O222 Cd214 2.277 . S
O222 C215 1.226 . S
O223 Cd214 2.356 . S
O223 C221 1.282 . S
C224 O225 1.306 . S
C224 O227 1.160 . S
O225 C224 1.306 . S
O225 Cd226 2.228 . S
Cd226 O225 2.228 . S
Cd226 O230 2.273 . S
Cd226 O234 2.277 . S
O227 C224 1.160 . S
O227 Cd228 2.203 . S
Cd228 O227 2.203 . S
Cd228 O230 2.411 . S
Cd228 O231 2.333 . S
Cd228 O232 2.352 . S
Cd228 O236 2.277 . S
Cd228 O237 2.356 . S
C229 O234 1.209 . S
C229 O236 1.226 . S
O230 Cd226 2.273 . S
O230 Cd228 2.411 . S
O230 C233 1.320 . S
O231 Cd228 2.333 . S
O231 C233 1.214 . S
O232 Cd228 2.352 . S
O232 C235 1.258 . S
C233 O230 1.320 . S
C233 O231 1.214 . S
O234 Cd226 2.277 . S
O234 C229 1.209 . S
C235 O232 1.258 . S
C235 O237 1.282 . S
O236 Cd228 2.277 . S
O236 C229 1.226 . S
O237 Cd228 2.356 . S
O237 C235 1.282 . S
C238 O239 1.306 . S
C238 O241 1.160 . S
O239 C238 1.306 . S
O239 Cd240 2.228 . S
Cd240 O239 2.228 . S
Cd240 O244 2.273 1_554 S
Cd240 O248 2.277 . S
O241 C238 1.160 . S
O241 Cd242 2.203 . S
Cd242 O241 2.203 . S
Cd242 O244 2.411 1_554 S
Cd242 O245 2.333 1_554 S
Cd242 O246 2.352 . S
Cd242 O250 2.277 . S
Cd242 O251 2.356 . S
C243 O248 1.209 . S
C243 O250 1.226 . S
O244 Cd240 2.273 1_556 S
O244 Cd242 2.411 1_556 S
O244 C247 1.320 . S
O245 Cd242 2.333 1_556 S
O245 C247 1.214 . S
O246 Cd242 2.352 . S
O246 C249 1.258 . S
C247 O244 1.320 . S
C247 O245 1.214 . S
O248 Cd240 2.277 . S
O248 C243 1.209 . S
C249 O246 1.258 . S
C249 O251 1.282 . S
O250 Cd242 2.277 . S
O250 C243 1.226 . S
O251 Cd242 2.356 . S
O251 C249 1.282 . S
C252 O253 1.306 . S
C252 O255 1.160 . S
O253 C252 1.306 . S
O253 Cd254 2.228 . S
Cd254 O253 2.228 . S
Cd254 O258 2.273 . S
Cd254 O262 2.277 . S
O255 C252 1.160 . S
O255 Cd256 2.203 . S
Cd256 O255 2.203 . S
Cd256 O258 2.411 . S
Cd256 O259 2.333 . S
Cd256 O260 2.352 . S
Cd256 O264 2.277 . S
Cd256 O265 2.356 . S
C257 O262 1.209 . S
C257 O264 1.226 . S
O258 Cd254 2.273 . S
O258 Cd256 2.411 . S
O258 C261 1.320 . S
O259 Cd256 2.333 . S
O259 C261 1.214 . S
O260 Cd256 2.352 . S
O260 C263 1.258 . S
C261 O258 1.320 . S
C261 O259 1.214 . S
O262 Cd254 2.277 . S
O262 C257 1.209 . S
C263 O260 1.258 . S
C263 O265 1.282 . S
O264 Cd256 2.277 . S
O264 C257 1.226 . S
O265 Cd256 2.356 . S
O265 C263 1.282 . S
C266 O267 1.306 . S
C266 O269 1.160 . S
O267 C266 1.306 . S
O267 Cd268 2.228 . S
Cd268 O267 2.228 . S
Cd268 O272 2.273 . S
Cd268 O276 2.277 . S
O269 C266 1.160 . S
O269 Cd270 2.203 . S
Cd270 O269 2.203 . S
Cd270 O272 2.411 . S
Cd270 O273 2.333 . S
Cd270 O274 2.352 . S
Cd270 O278 2.277 . S
Cd270 O279 2.356 . S
C271 O276 1.209 . S
C271 O278 1.226 . S
O272 Cd268 2.273 . S
O272 Cd270 2.411 . S
O272 C275 1.320 . S
O273 Cd270 2.333 . S
O273 C275 1.214 . S
O274 Cd270 2.352 . S
O274 C277 1.258 . S
C275 O272 1.320 . S
C275 O273 1.214 . S
O276 Cd268 2.277 . S
O276 C271 1.209 . S
C277 O274 1.258 . S
C277 O279 1.282 . S
O278 Cd270 2.277 . S
O278 C271 1.226 . S
O279 Cd270 2.356 . S
O279 C277 1.282 . S
C280 O281 1.306 . S
C280 O283 1.160 . S
O281 C280 1.306 . S
O281 Cd282 2.228 . S
Cd282 O281 2.228 . S
Cd282 O286 2.273 . S
Cd282 O290 2.277 . S
O283 C280 1.160 . S
O283 Cd284 2.203 . S
Cd284 O283 2.203 . S
Cd284 O286 2.411 . S
Cd284 O287 2.333 . S
Cd284 O288 2.352 . S
Cd284 O292 2.277 . S
Cd284 O293 2.356 . S
C285 O290 1.209 . S
C285 O292 1.226 . S
O286 Cd282 2.273 . S
O286 Cd284 2.411 . S
O286 C289 1.320 . S
O287 Cd284 2.333 . S
O287 C289 1.214 . S
O288 Cd284 2.352 . S
O288 C291 1.258 . S
C289 O286 1.320 . S
C289 O287 1.214 . S
O290 Cd282 2.277 . S
O290 C285 1.209 . S
C291 O288 1.258 . S
C291 O293 1.282 . S
O292 Cd284 2.277 . S
O292 C285 1.226 . S
O293 Cd284 2.356 . S
O293 C291 1.282 . S
C294 O295 1.306 . S
C294 O297 1.160 . S
O295 C294 1.306 . S
O295 Cd296 2.228 . S
Cd296 O295 2.228 . S
Cd296 O300 2.273 1_556 S
Cd296 O304 2.277 . S
O297 C294 1.160 . S
O297 Cd298 2.203 . S
Cd298 O297 2.203 . S
Cd298 O300 2.411 1_556 S
Cd298 O301 2.333 1_556 S
Cd298 O302 2.352 . S
Cd298 O306 2.277 . S
Cd298 O307 2.356 . S
C299 O304 1.209 . S
C299 O306 1.226 . S
O300 Cd296 2.273 1_554 S
O300 Cd298 2.411 1_554 S
O300 C303 1.320 . S
O301 Cd298 2.333 1_554 S
O301 C303 1.214 . S
O302 Cd298 2.352 . S
O302 C305 1.258 . S
C303 O300 1.320 . S
C303 O301 1.214 . S
O304 Cd296 2.277 . S
O304 C299 1.209 . S
C305 O302 1.258 . S
C305 O307 1.282 . S
O306 Cd298 2.277 . S
O306 C299 1.226 . S
O307 Cd298 2.356 . S
O307 C305 1.282 . S
C308 O309 1.306 . S
C308 O311 1.160 . S
O309 C308 1.306 . S
O309 Cd310 2.228 . S
Cd310 O309 2.228 . S
Cd310 O314 2.273 . S
Cd310 O318 2.277 . S
O311 C308 1.160 . S
O311 Cd312 2.203 . S
Cd312 O311 2.203 . S
Cd312 O314 2.411 . S
Cd312 O315 2.333 . S
Cd312 O316 2.352 . S
Cd312 O320 2.277 . S
Cd312 O321 2.356 . S
C313 O318 1.209 . S
C313 O320 1.226 . S
O314 Cd310 2.273 . S
O314 Cd312 2.411 . S
O314 C317 1.320 . S
O315 Cd312 2.333 . S
O315 C317 1.214 . S
O316 Cd312 2.352 . S
O316 C319 1.258 . S
C317 O314 1.320 . S
C317 O315 1.214 . S
O318 Cd310 2.277 . S
O318 C313 1.209 . S
C319 O316 1.258 . S
C319 O321 1.282 . S
O320 Cd312 2.277 . S
O320 C313 1.226 . S
O321 Cd312 2.356 . S
O321 C319 1.282 . S
C322 O323 1.306 . S
C322 O325 1.160 . S
O323 C322 1.306 . S
O323 Cd324 2.228 . S
Cd324 O323 2.228 . S
Cd324 O328 2.273 . S
Cd324 O332 2.277 . S
O325 C322 1.160 . S
O325 Cd326 2.203 . S
Cd326 O325 2.203 . S
Cd326 O328 2.411 . S
Cd326 O329 2.333 . S
Cd326 O330 2.352 . S
Cd326 O334 2.277 . S
Cd326 O335 2.356 . S
C327 O332 1.209 . S
C327 O334 1.226 . S
O328 Cd324 2.273 . S
O328 Cd326 2.411 . S
O328 C331 1.320 . S
O329 Cd326 2.333 . S
O329 C331 1.214 . S
O330 Cd326 2.352 . S
O330 C333 1.258 . S
C331 O328 1.320 . S
C331 O329 1.214 . S
O332 Cd324 2.277 . S
O332 C327 1.209 . S
C333 O330 1.258 . S
C333 O335 1.282 . S
O334 Cd326 2.277 . S
O334 C327 1.226 . S
O335 Cd326 2.356 . S
O335 C333 1.282 . S
C336 O337 1.306 . S
C336 O339 1.160 . S
O337 C336 1.306 . S
O337 Cd338 2.228 . S
Cd338 O337 2.228 . S
Cd338 O342 2.273 . S
Cd338 O346 2.277 . S
O339 C336 1.160 . S
O339 Cd340 2.203 . S
Cd340 O339 2.203 . S
Cd340 O342 2.411 . S
Cd340 O343 2.333 . S
Cd340 O344 2.352 . S
Cd340 O348 2.277 . S
Cd340 O349 2.356 . S
C341 O346 1.209 . S
C341 O348 1.226 . S
O342 Cd338 2.273 . S
O342 Cd340 2.411 . S
O342 C345 1.320 . S
O343 Cd340 2.333 . S
O343 C345 1.214 . S
O344 Cd340 2.352 . S
O344 C347 1.258 . S
C345 O342 1.320 . S
C345 O343 1.214 . S
O346 Cd338 2.277 . S
O346 C341 1.209 . S
C347 O344 1.258 . S
C347 O349 1.282 . S
O348 Cd340 2.277 . S
O348 C341 1.226 . S
O349 Cd340 2.356 . S
O349 C347 1.282 . S
C350 O351 1.306 . S
C350 O353 1.160 . S
O351 C350 1.306 . S
O351 Cd352 2.228 . S
Cd352 O351 2.228 . S
Cd352 O356 2.273 1_556 S
Cd352 O360 2.277 . S
O353 C350 1.160 . S
O353 Cd354 2.203 . S
Cd354 O353 2.203 . S
Cd354 O356 2.411 1_556 S
Cd354 O357 2.333 1_556 S
Cd354 O358 2.352 . S
Cd354 O362 2.277 . S
Cd354 O363 2.356 . S
C355 O360 1.209 . S
C355 O362 1.226 . S
O356 Cd352 2.273 1_554 S
O356 Cd354 2.411 1_554 S
O356 C359 1.320 . S
O357 Cd354 2.333 1_554 S
O357 C359 1.214 . S
O358 Cd354 2.352 . S
O358 C361 1.258 . S
C359 O356 1.320 . S
C359 O357 1.214 . S
O360 Cd352 2.277 . S
O360 C355 1.209 . S
C361 O358 1.258 . S
C361 O363 1.282 . S
O362 Cd354 2.277 . S
O362 C355 1.226 . S
O363 Cd354 2.356 . S
O363 C361 1.282 . S
C364 O365 1.306 . S
C364 O367 1.160 . S
O365 C364 1.306 . S
O365 Cd366 2.228 . S
Cd366 O365 2.228 . S
Cd366 O370 2.273 . S
Cd366 O374 2.277 . S
O367 C364 1.160 . S
O367 Cd368 2.203 . S
Cd368 O367 2.203 . S
Cd368 O370 2.411 . S
Cd368 O371 2.333 . S
Cd368 O372 2.352 . S
Cd368 O376 2.277 . S
Cd368 O377 2.356 . S
C369 O374 1.209 . S
C369 O376 1.226 . S
O370 Cd366 2.273 . S
O370 Cd368 2.411 . S
O370 C373 1.320 . S
O371 Cd368 2.333 . S
O371 C373 1.214 . S
O372 Cd368 2.352 . S
O372 C375 1.258 . S
C373 O370 1.320 . S
C373 O371 1.214 . S
O374 Cd366 2.277 . S
O374 C369 1.209 . S
C375 O372 1.258 . S
C375 O377 1.282 . S
O376 Cd368 2.277 . S
O376 C369 1.226 . S
O377 Cd368 2.356 . S
O377 C375 1.282 . S
C378 O379 1.306 . S
C378 O381 1.160 . S
O379 C378 1.306 . S
O379 Cd380 2.228 . S
Cd380 O379 2.228 . S
Cd380 O384 2.273 . S
Cd380 O388 2.277 . S
O381 C378 1.160 . S
O381 Cd382 2.203 . S
Cd382 O381 2.203 . S
Cd382 O384 2.411 . S
Cd382 O385 2.333 . S
Cd382 O386 2.352 . S
Cd382 O390 2.277 . S
Cd382 O391 2.356 . S
C383 O388 1.209 . S
C383 O390 1.226 . S
O384 Cd380 2.273 . S
O384 Cd382 2.411 . S
O384 C387 1.320 . S
O385 Cd382 2.333 . S
O385 C387 1.214 . S
O386 Cd382 2.352 . S
O386 C389 1.258 . S
C387 O384 1.320 . S
C387 O385 1.214 . S
O388 Cd380 2.277 . S
O388 C383 1.209 . S
C389 O386 1.258 . S
C389 O391 1.282 . S
O390 Cd382 2.277 . S
O390 C383 1.226 . S
O391 Cd382 2.356 . S
O391 C389 1.282 . S
C392 O393 1.306 . S
C392 O395 1.160 . S
O393 C392 1.306 . S
O393 Cd394 2.228 . S
Cd394 O393 2.228 . S
Cd394 O398 2.273 . S
Cd394 O402 2.277 . S
O395 C392 1.160 . S
O395 Cd396 2.203 . S
Cd396 O395 2.203 . S
Cd396 O398 2.411 . S
Cd396 O399 2.333 . S
Cd396 O400 2.352 . S
Cd396 O404 2.277 . S
Cd396 O405 2.356 . S
C397 O402 1.209 . S
C397 O404 1.226 . S
O398 Cd394 2.273 . S
O398 Cd396 2.411 . S
O398 C401 1.320 . S
O399 Cd396 2.333 . S
O399 C401 1.214 . S
O400 Cd396 2.352 . S
O400 C403 1.258 . S
C401 O398 1.320 . S
C401 O399 1.214 . S
O402 Cd394 2.277 . S
O402 C397 1.209 . S
C403 O400 1.258 . S
C403 O405 1.282 . S
O404 Cd396 2.277 . S
O404 C397 1.226 . S
O405 Cd396 2.356 . S
O405 C403 1.282 . S
C406 O407 1.306 . S
C406 O409 1.160 . S
O407 C406 1.306 . S
O407 Cd408 2.228 . S
Cd408 O407 2.228 . S
Cd408 O412 2.273 1_554 S
Cd408 O416 2.277 . S
O409 C406 1.160 . S
O409 Cd410 2.203 . S
Cd410 O409 2.203 . S
Cd410 O412 2.411 1_554 S
Cd410 O413 2.333 1_554 S
Cd410 O414 2.352 . S
Cd410 O418 2.277 . S
Cd410 O419 2.356 . S
C411 O416 1.209 . S
C411 O418 1.226 . S
O412 Cd408 2.273 1_556 S
O412 Cd410 2.411 1_556 S
O412 C415 1.320 . S
O413 Cd410 2.333 1_556 S
O413 C415 1.214 . S
O414 Cd410 2.352 . S
O414 C417 1.258 . S
C415 O412 1.320 . S
C415 O413 1.214 . S
O416 Cd408 2.277 . S
O416 C411 1.209 . S
C417 O414 1.258 . S
C417 O419 1.282 . S
O418 Cd410 2.277 . S
O418 C411 1.226 . S
O419 Cd410 2.356 . S
O419 C417 1.282 . S
C420 O421 1.306 . S
C420 O423 1.160 . S
O421 C420 1.306 . S
O421 Cd422 2.228 . S
Cd422 O421 2.228 . S
Cd422 O426 2.273 . S
Cd422 O430 2.277 . S
O423 C420 1.160 . S
O423 Cd424 2.203 . S
Cd424 O423 2.203 . S
Cd424 O426 2.411 . S
Cd424 O427 2.333 . S
Cd424 O428 2.352 . S
Cd424 O432 2.277 . S
Cd424 O433 2.356 . S
C425 O430 1.209 . S
C425 O432 1.226 . S
O426 Cd422 2.273 . S
O426 Cd424 2.411 . S
O426 C429 1.320 . S
O427 Cd424 2.333 . S
O427 C429 1.214 . S
O428 Cd424 2.352 . S
O428 C431 1.258 . S
C429 O426 1.320 . S
C429 O427 1.214 . S
O430 Cd422 2.277 . S
O430 C425 1.209 . S
C431 O428 1.258 . S
C431 O433 1.282 . S
O432 Cd424 2.277 . S
O432 C425 1.226 . S
O433 Cd424 2.356 . S
O433 C431 1.282 . S
C434 O435 1.306 . S
C434 O437 1.160 . S
O435 C434 1.306 . S
O435 Cd436 2.228 . S
Cd436 O435 2.228 . S
Cd436 O440 2.273 . S
Cd436 O444 2.277 . S
O437 C434 1.160 . S
O437 Cd438 2.203 . S
Cd438 O437 2.203 . S
Cd438 O440 2.411 . S
Cd438 O441 2.333 . S
Cd438 O442 2.352 . S
Cd438 O446 2.277 . S
Cd438 O447 2.356 . S
C439 O444 1.209 . S
C439 O446 1.226 . S
O440 Cd436 2.273 . S
O440 Cd438 2.411 . S
O440 C443 1.320 . S
O441 Cd438 2.333 . S
O441 C443 1.214 . S
O442 Cd438 2.352 . S
O442 C445 1.258 . S
C443 O440 1.320 . S
C443 O441 1.214 . S
O444 Cd436 2.277 . S
O444 C439 1.209 . S
C445 O442 1.258 . S
C445 O447 1.282 . S
O446 Cd438 2.277 . S
O446 C439 1.226 . S
O447 Cd438 2.356 . S
O447 C445 1.282 . S
C448 C449 1.369 . S
C448 C450 1.419 . S
C448 H452 0.930 . S
C449 C448 1.369 . S
C449 C458 1.429 . S
C450 C448 1.419 . S
C450 C451 1.363 . S
C450 H453 0.929 . S
C451 C450 1.363 . S
C451 C457 1.428 . S
H452 C448 0.930 . S
H453 C450 0.929 . S
S454 N455 1.613 . S
S454 N456 1.610 . S
N455 S454 1.613 . S
N455 C458 1.350 . S
N456 S454 1.610 . S
N456 C457 1.351 . S
C457 C451 1.428 . S
C457 N456 1.351 . S
C457 C458 1.434 . S
C458 C449 1.429 . S
C458 N455 1.350 . S
C458 C457 1.434 . S
C459 C460 1.369 . S
C459 C461 1.419 . S
C459 H463 0.930 . S
C460 C459 1.369 . S
C460 C469 1.429 . S
C461 C459 1.419 . S
C461 C462 1.363 . S
C461 H464 0.929 . S
C462 C461 1.363 . S
C462 C468 1.428 . S
H463 C459 0.930 . S
H464 C461 0.929 . S
S465 N466 1.613 . S
S465 N467 1.610 . S
N466 S465 1.613 . S
N466 C469 1.350 . S
N467 S465 1.610 . S
N467 C468 1.351 . S
C468 C462 1.428 . S
C468 N467 1.351 . S
C468 C469 1.434 . S
C469 C460 1.429 . S
C469 N466 1.350 . S
C469 C468 1.434 . S
C470 C471 1.369 . S
C470 C472 1.419 . S
C470 H474 0.930 . S
C471 C470 1.369 . S
C471 C480 1.429 . S
C472 C470 1.419 . S
C472 C473 1.363 . S
C472 H475 0.929 . S
C473 C472 1.363 . S
C473 C479 1.428 . S
H474 C470 0.930 . S
H475 C472 0.929 . S
S476 N477 1.613 . S
S476 N478 1.610 . S
N477 S476 1.613 . S
N477 C480 1.350 . S
N478 S476 1.610 . S
N478 C479 1.351 . S
C479 C473 1.428 . S
C479 N478 1.351 . S
C479 C480 1.434 . S
C480 C471 1.429 . S
C480 N477 1.350 . S
C480 C479 1.434 . S
C481 C482 1.369 . S
C481 C483 1.419 . S
C481 H485 0.930 . S
C482 C481 1.369 . S
C482 C491 1.429 . S
C483 C481 1.419 . S
C483 C484 1.363 . S
C483 H486 0.929 . S
C484 C483 1.363 . S
C484 C490 1.428 . S
H485 C481 0.930 . S
H486 C483 0.929 . S
S487 N488 1.613 . S
S487 N489 1.610 . S
N488 S487 1.613 . S
N488 C491 1.350 . S
N489 S487 1.610 . S
N489 C490 1.351 . S
C490 C484 1.428 . S
C490 N489 1.351 . S
C490 C491 1.434 . S
C491 C482 1.429 . S
C491 N488 1.350 . S
C491 C490 1.434 . S
C492 C493 1.369 . S
C492 C494 1.419 . S
C492 H496 0.930 . S
C493 C492 1.369 . S
C493 C502 1.429 . S
C494 C492 1.419 . S
C494 C495 1.363 . S
C494 H497 0.929 . S
C495 C494 1.363 . S
C495 C501 1.428 . S
H496 C492 0.930 . S
H497 C494 0.929 . S
S498 N499 1.613 . S
S498 N500 1.610 . S
N499 S498 1.613 . S
N499 C502 1.350 . S
N500 S498 1.610 . S
N500 C501 1.351 . S
C501 C495 1.428 . S
C501 N500 1.351 . S
C501 C502 1.434 . S
C502 C493 1.429 . S
C502 N499 1.350 . S
C502 C501 1.434 . S
C503 C504 1.369 . S
C503 C505 1.419 . S
C503 H507 0.930 . S
C504 C503 1.369 . S
C504 C513 1.429 . S
C505 C503 1.419 . S
C505 C506 1.363 . S
C505 H508 0.929 . S
C506 C505 1.363 . S
C506 C512 1.428 . S
H507 C503 0.930 . S
H508 C505 0.929 . S
S509 N510 1.613 . S
S509 N511 1.610 . S
N510 S509 1.613 . S
N510 C513 1.350 . S
N511 S509 1.610 . S
N511 C512 1.351 . S
C512 C506 1.428 . S
C512 N511 1.351 . S
C512 C513 1.434 . S
C513 C504 1.429 . S
C513 N510 1.350 . S
C513 C512 1.434 . S
C514 C515 1.369 . S
C514 C516 1.419 . S
C514 H518 0.930 . S
C515 C514 1.369 . S
C515 C524 1.429 . S
C516 C514 1.419 . S
C516 C517 1.363 . S
C516 H519 0.929 . S
C517 C516 1.363 . S
C517 C523 1.428 . S
H518 C514 0.930 . S
H519 C516 0.929 . S
S520 N521 1.613 . S
S520 N522 1.610 . S
N521 S520 1.613 . S
N521 C524 1.350 . S
N522 S520 1.610 . S
N522 C523 1.351 . S
C523 C517 1.428 . S
C523 N522 1.351 . S
C523 C524 1.434 . S
C524 C515 1.429 . S
C524 N521 1.350 . S
C524 C523 1.434 . S
C525 C526 1.369 . S
C525 C527 1.419 . S
C525 H529 0.930 . S
C526 C525 1.369 . S
C526 C535 1.429 . S
C527 C525 1.419 . S
C527 C528 1.363 . S
C527 H530 0.929 . S
C528 C527 1.363 . S
C528 C534 1.428 . S
H529 C525 0.930 . S
H530 C527 0.929 . S
S531 N532 1.613 . S
S531 N533 1.610 . S
N532 S531 1.613 . S
N532 C535 1.350 . S
N533 S531 1.610 . S
N533 C534 1.351 . S
C534 C528 1.428 . S
C534 N533 1.351 . S
C534 C535 1.434 . S
C535 C526 1.429 . S
C535 N532 1.350 . S
C535 C534 1.434 . S
C536 C537 1.369 . S
C536 C538 1.419 . S
C536 H540 0.930 . S
C537 C536 1.369 . S
C537 C546 1.429 . S
C538 C536 1.419 . S
C538 C539 1.363 . S
C538 H541 0.929 . S
C539 C538 1.363 . S
C539 C545 1.428 . S
H540 C536 0.930 . S
H541 C538 0.929 . S
S542 N543 1.613 . S
S542 N544 1.610 . S
N543 S542 1.613 . S
N543 C546 1.350 . S
N544 S542 1.610 . S
N544 C545 1.351 . S
C545 C539 1.428 . S
C545 N544 1.351 . S
C545 C546 1.434 . S
C546 C537 1.429 . S
C546 N543 1.350 . S
C546 C545 1.434 . S
C547 C548 1.369 . S
C547 C549 1.419 . S
C547 H551 0.930 . S
C548 C547 1.369 . S
C548 C557 1.429 . S
C549 C547 1.419 . S
C549 C550 1.363 . S
C549 H552 0.929 . S
C550 C549 1.363 . S
C550 C556 1.428 . S
H551 C547 0.930 . S
H552 C549 0.929 . S
S553 N554 1.613 . S
S553 N555 1.610 . S
N554 S553 1.613 . S
N554 C557 1.350 . S
N555 S553 1.610 . S
N555 C556 1.351 . S
C556 C550 1.428 . S
C556 N555 1.351 . S
C556 C557 1.434 . S
C557 C548 1.429 . S
C557 N554 1.350 . S
C557 C556 1.434 . S
C558 C559 1.369 . S
C558 C560 1.419 . S
C558 H562 0.930 . S
C559 C558 1.369 . S
C559 C568 1.429 . S
C560 C558 1.419 . S
C560 C561 1.363 . S
C560 H563 0.929 . S
C561 C560 1.363 . S
C561 C567 1.428 . S
H562 C558 0.930 . S
H563 C560 0.929 . S
S564 N565 1.613 . S
S564 N566 1.610 . S
N565 S564 1.613 . S
N565 C568 1.350 . S
N566 S564 1.610 . S
N566 C567 1.351 . S
C567 C561 1.428 . S
C567 N566 1.351 . S
C567 C568 1.434 . S
C568 C559 1.429 . S
C568 N565 1.350 . S
C568 C567 1.434 . S
C569 C570 1.369 . S
C569 C571 1.419 . S
C569 H573 0.930 . S
C570 C569 1.369 . S
C570 C579 1.429 . S
C571 C569 1.419 . S
C571 C572 1.363 . S
C571 H574 0.929 . S
C572 C571 1.363 . S
C572 C578 1.428 . S
H573 C569 0.930 . S
H574 C571 0.929 . S
S575 N576 1.613 . S
S575 N577 1.610 . S
N576 S575 1.613 . S
N576 C579 1.350 . S
N577 S575 1.610 . S
N577 C578 1.351 . S
C578 C572 1.428 . S
C578 N577 1.351 . S
C578 C579 1.434 . S
C579 C570 1.429 . S
C579 N576 1.350 . S
C579 C578 1.434 . S
C580 C581 1.369 . S
C580 C582 1.419 . S
C580 H584 0.930 . S
C581 C580 1.369 . S
C581 C590 1.429 . S
C582 C580 1.419 . S
C582 C583 1.363 . S
C582 H585 0.929 . S
C583 C582 1.363 . S
C583 C589 1.428 . S
H584 C580 0.930 . S
H585 C582 0.929 . S
S586 N587 1.613 . S
S586 N588 1.610 . S
N587 S586 1.613 . S
N587 C590 1.350 . S
N588 S586 1.610 . S
N588 C589 1.351 . S
C589 C583 1.428 . S
C589 N588 1.351 . S
C589 C590 1.434 . S
C590 C581 1.429 . S
C590 N587 1.350 . S
C590 C589 1.434 . S
C591 C592 1.369 . S
C591 C593 1.419 . S
C591 H595 0.930 . S
C592 C591 1.369 . S
C592 C601 1.429 . S
C593 C591 1.419 . S
C593 C594 1.363 . S
C593 H596 0.929 . S
C594 C593 1.363 . S
C594 C600 1.428 . S
H595 C591 0.930 . S
H596 C593 0.929 . S
S597 N598 1.613 . S
S597 N599 1.610 . S
N598 S597 1.613 . S
N598 C601 1.350 . S
N599 S597 1.610 . S
N599 C600 1.351 . S
C600 C594 1.428 . S
C600 N599 1.351 . S
C600 C601 1.434 . S
C601 C592 1.429 . S
C601 N598 1.350 . S
C601 C600 1.434 . S
C602 C603 1.369 . S
C602 C604 1.419 . S
C602 H606 0.930 . S
C603 C602 1.369 . S
C603 C612 1.429 . S
C604 C602 1.419 . S
C604 C605 1.363 . S
C604 H607 0.929 . S
C605 C604 1.363 . S
C605 C611 1.428 . S
H606 C602 0.930 . S
H607 C604 0.929 . S
S608 N609 1.613 . S
S608 N610 1.610 . S
N609 S608 1.613 . S
N609 C612 1.350 . S
N610 S608 1.610 . S
N610 C611 1.351 . S
C611 C605 1.428 . S
C611 N610 1.351 . S
C611 C612 1.434 . S
C612 C603 1.429 . S
C612 N609 1.350 . S
C612 C611 1.434 . S
C613 C614 1.369 . S
C613 C615 1.419 . S
C613 H617 0.930 . S
C614 C613 1.369 . S
C614 C623 1.429 . S
C615 C613 1.419 . S
C615 C616 1.363 . S
C615 H618 0.929 . S
C616 C615 1.363 . S
C616 C622 1.428 . S
H617 C613 0.930 . S
H618 C615 0.929 . S
S619 N620 1.613 . S
S619 N621 1.610 . S
N620 S619 1.613 . S
N620 C623 1.350 . S
N621 S619 1.610 . S
N621 C622 1.351 . S
C622 C616 1.428 . S
C622 N621 1.351 . S
C622 C623 1.434 . S
C623 C614 1.429 . S
C623 N620 1.350 . S
C623 C622 1.434 . S
C624 C625 1.369 . S
C624 C626 1.419 . S
C624 H628 0.930 . S
C625 C624 1.369 . S
C625 C634 1.429 . S
C626 C624 1.419 . S
C626 C627 1.363 . S
C626 H629 0.929 . S
C627 C626 1.363 . S
C627 C633 1.428 . S
H628 C624 0.930 . S
H629 C626 0.929 . S
S630 N631 1.613 . S
S630 N632 1.610 . S
N631 S630 1.613 . S
N631 C634 1.350 . S
N632 S630 1.610 . S
N632 C633 1.351 . S
C633 C627 1.428 . S
C633 N632 1.351 . S
C633 C634 1.434 . S
C634 C625 1.429 . S
C634 N631 1.350 . S
C634 C633 1.434 . S
C635 C636 1.369 . S
C635 C637 1.419 . S
C635 H639 0.930 . S
C636 C635 1.369 . S
C636 C645 1.429 . S
C637 C635 1.419 . S
C637 C638 1.363 . S
C637 H640 0.942 . S
C638 C637 1.363 . S
C638 C644 1.428 . S
H639 C635 0.930 . S
H640 C637 0.942 . S
S641 N642 1.613 . S
S641 N643 1.610 . S
N642 S641 1.613 . S
N642 C645 1.350 . S
N643 S641 1.610 . S
N643 C644 1.351 . S
C644 C638 1.428 . S
C644 N643 1.351 . S
C644 C645 1.434 . S
C645 C636 1.429 . S
C645 N642 1.350 . S
C645 C644 1.434 . S
C646 C647 1.369 . S
C646 C648 1.419 . S
C646 H650 0.930 . S
C647 C646 1.369 . S
C647 C656 1.429 . S
C648 C646 1.419 . S
C648 C649 1.363 . S
C648 H651 0.929 . S
C649 C648 1.363 . S
C649 C655 1.428 . S
H650 C646 0.930 . S
H651 C648 0.929 . S
S652 N653 1.613 . S
S652 N654 1.610 . S
N653 S652 1.613 . S
N653 C656 1.350 . S
N654 S652 1.610 . S
N654 C655 1.351 . S
C655 C649 1.428 . S
C655 N654 1.351 . S
C655 C656 1.434 . S
C656 C647 1.429 . S
C656 N653 1.350 . S
C656 C655 1.434 . S
C657 C658 1.369 . S
C657 C659 1.419 . S
C657 H661 0.930 . S
C658 C657 1.369 . S
C658 C667 1.429 . S
C659 C657 1.419 . S
C659 C660 1.363 . S
C659 H662 0.929 . S
C660 C659 1.363 . S
C660 C666 1.428 . S
H661 C657 0.930 . S
H662 C659 0.929 . S
S663 N664 1.613 . S
S663 N665 1.610 . S
N664 S663 1.613 . S
N664 C667 1.350 . S
N665 S663 1.610 . S
N665 C666 1.351 . S
C666 C660 1.428 . S
C666 N665 1.351 . S
C666 C667 1.434 . S
C667 C658 1.429 . S
C667 N664 1.350 . S
C667 C666 1.434 . S
C668 C669 1.369 . S
C668 C670 1.419 . S
C668 H672 0.930 . S
C669 C668 1.369 . S
C669 C678 1.429 . S
C670 C668 1.419 . S
C670 C671 1.363 . S
C670 H673 0.929 . S
C671 C670 1.363 . S
C671 C677 1.428 . S
H672 C668 0.930 . S
H673 C670 0.929 . S
S674 N675 1.613 . S
S674 N676 1.610 . S
N675 S674 1.613 . S
N675 C678 1.350 . S
N676 S674 1.610 . S
N676 C677 1.351 . S
C677 C671 1.428 . S
C677 N676 1.351 . S
C677 C678 1.434 . S
C678 C669 1.429 . S
C678 N675 1.350 . S
C678 C677 1.434 . S
C679 C680 1.369 . S
C679 C681 1.419 . S
C679 H683 0.930 . S
C680 C679 1.369 . S
C680 C689 1.429 . S
C681 C679 1.419 . S
C681 C682 1.363 . S
C681 H684 0.929 . S
C682 C681 1.363 . S
C682 C688 1.428 . S
H683 C679 0.930 . S
H684 C681 0.929 . S
S685 N686 1.613 . S
S685 N687 1.610 . S
N686 S685 1.613 . S
N686 C689 1.350 . S
N687 S685 1.610 . S
N687 C688 1.351 . S
C688 C682 1.428 . S
C688 N687 1.351 . S
C688 C689 1.434 . S
C689 C680 1.429 . S
C689 N686 1.350 . S
C689 C688 1.434 . S
C690 C691 1.369 . S
C690 C692 1.419 . S
C690 H694 0.930 . S
C691 C690 1.369 . S
C691 C700 1.429 . S
C692 C690 1.419 . S
C692 C693 1.363 . S
C692 H695 0.929 . S
C693 C692 1.363 . S
C693 C699 1.428 . S
H694 C690 0.930 . S
H695 C692 0.929 . S
S696 N697 1.613 . S
S696 N698 1.610 . S
N697 S696 1.613 . S
N697 C700 1.350 . S
N698 S696 1.610 . S
N698 C699 1.351 . S
C699 C693 1.428 . S
C699 N698 1.351 . S
C699 C700 1.434 . S
C700 C691 1.429 . S
C700 N697 1.350 . S
C700 C699 1.434 . S
C701 C702 1.369 . S
C701 C703 1.419 . S
C701 H705 0.957 . S
C702 C701 1.369 . S
C702 C711 1.429 . S
C703 C701 1.419 . S
C703 C704 1.363 . S
C703 H706 0.929 . S
C704 C703 1.363 . S
C704 C710 1.428 . S
H705 C701 0.957 . S
H706 C703 0.929 . S
S707 N708 1.613 . S
S707 N709 1.610 . S
N708 S707 1.613 . S
N708 C711 1.350 . S
N709 S707 1.610 . S
N709 C710 1.351 . S
C710 C704 1.428 . S
C710 N709 1.351 . S
C710 C711 1.434 . S
C711 C702 1.429 . S
C711 N708 1.350 . S
C711 C710 1.434 . S
C712 C713 1.369 . S
C712 C714 1.419 . S
C712 H716 0.930 . S
C713 C712 1.369 . S
C713 C722 1.429 . S
C714 C712 1.419 . S
C714 C715 1.363 . S
C714 H717 0.929 . S
C715 C714 1.363 . S
C715 C721 1.428 . S
H716 C712 0.930 . S
H717 C714 0.929 . S
S718 N719 1.613 . S
S718 N720 1.610 . S
N719 S718 1.613 . S
N719 C722 1.350 . S
N720 S718 1.610 . S
N720 C721 1.351 . S
C721 C715 1.428 . S
C721 N720 1.351 . S
C721 C722 1.434 . S
C722 C713 1.429 . S
C722 N719 1.350 . S
C722 C721 1.434 . S
C723 C724 1.369 . S
C723 C725 1.419 . S
C723 H727 0.930 . S
C724 C723 1.369 . S
C724 C733 1.429 . S
C725 C723 1.419 . S
C725 C726 1.363 . S
C725 H728 0.929 . S
C726 C725 1.363 . S
C726 C732 1.428 . S
H727 C723 0.930 . S
H728 C725 0.929 . S
S729 N730 1.613 . S
S729 N731 1.610 . S
N730 S729 1.613 . S
N730 C733 1.350 . S
N731 S729 1.610 . S
N731 C732 1.351 . S
C732 C726 1.428 . S
C732 N731 1.351 . S
C732 C733 1.434 . S
C733 C724 1.429 . S
C733 N730 1.350 . S
C733 C732 1.434 . S
C734 C735 1.369 . S
C734 C736 1.419 . S
C734 H738 0.930 . S
C735 C734 1.369 . S
C735 C744 1.429 . S
C736 C734 1.419 . S
C736 C737 1.363 . S
C736 H739 0.929 . S
C737 C736 1.363 . S
C737 C743 1.428 . S
H738 C734 0.930 . S
H739 C736 0.929 . S
S740 N741 1.613 . S
S740 N742 1.610 . S
N741 S740 1.613 . S
N741 C744 1.350 . S
N742 S740 1.610 . S
N742 C743 1.351 . S
C743 C737 1.428 . S
C743 N742 1.351 . S
C743 C744 1.434 . S
C744 C735 1.429 . S
C744 N741 1.350 . S
C744 C743 1.434 . S
C745 C746 1.369 . S
C745 C747 1.419 . S
C745 H749 0.930 . S
C746 C745 1.369 . S
C746 C755 1.429 . S
C747 C745 1.419 . S
C747 C748 1.363 . S
C747 H750 0.929 . S
C748 C747 1.363 . S
C748 C754 1.428 . S
H749 C745 0.930 . S
H750 C747 0.929 . S
S751 N752 1.613 . S
S751 N753 1.610 . S
N752 S751 1.613 . S
N752 C755 1.350 . S
N753 S751 1.610 . S
N753 C754 1.351 . S
C754 C748 1.428 . S
C754 N753 1.351 . S
C754 C755 1.434 . S
C755 C746 1.429 . S
C755 N752 1.350 . S
C755 C754 1.434 . S
C756 C757 1.369 . S
C756 C758 1.419 . S
C756 H760 0.930 . S
C757 C756 1.369 . S
C757 C766 1.429 . S
C758 C756 1.419 . S
C758 C759 1.363 . S
C758 H761 0.929 . S
C759 C758 1.363 . S
C759 C765 1.428 . S
H760 C756 0.930 . S
H761 C758 0.929 . S
S762 N763 1.613 . S
S762 N764 1.610 . S
N763 S762 1.613 . S
N763 C766 1.350 . S
N764 S762 1.610 . S
N764 C765 1.351 . S
C765 C759 1.428 . S
C765 N764 1.351 . S
C765 C766 1.434 . S
C766 C757 1.429 . S
C766 N763 1.350 . S
C766 C765 1.434 . S
C767 C768 1.369 . S
C767 C769 1.419 . S
C767 H771 0.930 . S
C768 C767 1.369 . S
C768 C777 1.429 . S
C769 C767 1.419 . S
C769 C770 1.363 . S
C769 H772 0.929 . S
C770 C769 1.363 . S
C770 C776 1.428 . S
H771 C767 0.930 . S
H772 C769 0.929 . S
S773 N774 1.613 . S
S773 N775 1.610 . S
N774 S773 1.613 . S
N774 C777 1.350 . S
N775 S773 1.610 . S
N775 C776 1.351 . S
C776 C770 1.428 . S
C776 N775 1.351 . S
C776 C777 1.434 . S
C777 C768 1.429 . S
C777 N774 1.350 . S
C777 C776 1.434 . S
C778 C779 1.369 . S
C778 C780 1.419 . S
C778 H782 0.930 . S
C779 C778 1.369 . S
C779 C788 1.429 . S
C780 C778 1.419 . S
C780 C781 1.363 . S
C780 H783 0.929 . S
C781 C780 1.363 . S
C781 C787 1.428 . S
H782 C778 0.930 . S
H783 C780 0.929 . S
S784 N785 1.613 . S
S784 N786 1.610 . S
N785 S784 1.613 . S
N785 C788 1.350 . S
N786 S784 1.610 . S
N786 C787 1.351 . S
C787 C781 1.428 . S
C787 N786 1.351 . S
C787 C788 1.434 . S
C788 C779 1.429 . S
C788 N785 1.350 . S
C788 C787 1.434 . S
C789 C790 1.369 . S
C789 C791 1.419 . S
C789 H793 0.930 . S
C790 C789 1.369 . S
C790 C799 1.429 . S
C791 C789 1.419 . S
C791 C792 1.363 . S
C791 H794 0.929 . S
C792 C791 1.363 . S
C792 C798 1.428 . S
H793 C789 0.930 . S
H794 C791 0.929 . S
S795 N796 1.613 . S
S795 N797 1.610 . S
N796 S795 1.613 . S
N796 C799 1.350 . S
N797 S795 1.610 . S
N797 C798 1.351 . S
C798 C792 1.428 . S
C798 N797 1.351 . S
C798 C799 1.434 . S
C799 C790 1.429 . S
C799 N796 1.350 . S
C799 C798 1.434 . S
C800 C801 1.369 . S
C800 C802 1.419 . S
C800 H804 0.930 . S
C801 C800 1.369 . S
C801 C810 1.429 . S
C802 C800 1.419 . S
C802 C803 1.363 . S
C802 H805 0.929 . S
C803 C802 1.363 . S
C803 C809 1.428 . S
H804 C800 0.930 . S
H805 C802 0.929 . S
S806 N807 1.613 . S
S806 N808 1.610 . S
N807 S806 1.613 . S
N807 C810 1.350 . S
N808 S806 1.610 . S
N808 C809 1.351 . S
C809 C803 1.428 . S
C809 N808 1.351 . S
C809 C810 1.434 . S
C810 C801 1.429 . S
C810 N807 1.350 . S
C810 C809 1.434 . S
C811 C812 1.369 . S
C811 C813 1.419 . S
C811 H815 0.930 . S
C812 C811 1.369 . S
C812 C821 1.429 . S
C813 C811 1.419 . S
C813 C814 1.363 . S
C813 H816 0.929 . S
C814 C813 1.363 . S
C814 C820 1.428 . S
H815 C811 0.930 . S
H816 C813 0.929 . S
S817 N818 1.613 . S
S817 N819 1.610 . S
N818 S817 1.613 . S
N818 C821 1.350 . S
N819 S817 1.610 . S
N819 C820 1.351 . S
C820 C814 1.428 . S
C820 N819 1.351 . S
C820 C821 1.434 . S
C821 C812 1.429 . S
C821 N818 1.350 . S
C821 C820 1.434 . S
C822 C823 1.369 . S
C822 C824 1.419 . S
C822 H826 0.930 . S
C823 C822 1.369 . S
C823 C832 1.429 . S
C824 C822 1.419 . S
C824 C825 1.363 . S
C824 H827 0.929 . S
C825 C824 1.363 . S
C825 C831 1.428 . S
H826 C822 0.930 . S
H827 C824 0.929 . S
S828 N829 1.613 . S
S828 N830 1.610 . S
N829 S828 1.613 . S
N829 C832 1.350 . S
N830 S828 1.610 . S
N830 C831 1.351 . S
C831 C825 1.428 . S
C831 N830 1.351 . S
C831 C832 1.434 . S
C832 C823 1.429 . S
C832 N829 1.350 . S
C832 C831 1.434 . S
C833 C834 1.369 . S
C833 C835 1.419 . S
C833 H837 0.930 . S
C834 C833 1.369 . S
C834 C843 1.429 . S
C835 C833 1.419 . S
C835 C836 1.363 . S
C835 H838 0.929 . S
C836 C835 1.363 . S
C836 C842 1.428 . S
H837 C833 0.930 . S
H838 C835 0.929 . S
S839 N840 1.613 . S
S839 N841 1.610 . S
N840 S839 1.613 . S
N840 C843 1.350 . S
N841 S839 1.610 . S
N841 C842 1.351 . S
C842 C836 1.428 . S
C842 N841 1.351 . S
C842 C843 1.434 . S
C843 C834 1.429 . S
C843 N840 1.350 . S
C843 C842 1.434 . S
C844 C845 1.369 . S
C844 C846 1.419 . S
C844 H848 0.930 . S
C845 C844 1.369 . S
C845 C854 1.429 . S
C846 C844 1.419 . S
C846 C847 1.363 . S
C846 H849 0.929 . S
C847 C846 1.363 . S
C847 C853 1.428 . S
H848 C844 0.930 . S
H849 C846 0.929 . S
S850 N851 1.613 . S
S850 N852 1.610 . S
N851 S850 1.613 . S
N851 C854 1.350 . S
N852 S850 1.610 . S
N852 C853 1.351 . S
C853 C847 1.428 . S
C853 N852 1.351 . S
C853 C854 1.434 . S
C854 C845 1.429 . S
C854 N851 1.350 . S
C854 C853 1.434 . S
C855 C856 1.369 . S
C855 C857 1.419 . S
C855 H859 0.930 . S
C856 C855 1.369 . S
C856 C865 1.429 . S
C857 C855 1.419 . S
C857 C858 1.363 . S
C857 H860 0.929 . S
C858 C857 1.363 . S
C858 C864 1.428 . S
H859 C855 0.930 . S
H860 C857 0.929 . S
S861 N862 1.613 . S
S861 N863 1.610 . S
N862 S861 1.613 . S
N862 C865 1.350 . S
N863 S861 1.610 . S
N863 C864 1.351 . S
C864 C858 1.428 . S
C864 N863 1.351 . S
C864 C865 1.434 . S
C865 C856 1.429 . S
C865 N862 1.350 . S
C865 C864 1.434 . S
C866 C867 1.369 . S
C866 C868 1.419 . S
C866 H870 0.930 . S
C867 C866 1.369 . S
C867 C876 1.429 . S
C868 C866 1.419 . S
C868 C869 1.363 . S
C868 H871 0.929 . S
C869 C868 1.363 . S
C869 C875 1.428 . S
H870 C866 0.930 . S
H871 C868 0.929 . S
S872 N873 1.613 . S
S872 N874 1.610 . S
N873 S872 1.613 . S
N873 C876 1.350 . S
N874 S872 1.610 . S
N874 C875 1.351 . S
C875 C869 1.428 . S
C875 N874 1.351 . S
C875 C876 1.434 . S
C876 C867 1.429 . S
C876 N873 1.350 . S
C876 C875 1.434 . S
C877 C878 1.369 . S
C877 C879 1.419 . S
C877 H881 0.930 . S
C878 C877 1.369 . S
C878 C887 1.429 . S
C879 C877 1.419 . S
C879 C880 1.363 . S
C879 H882 0.929 . S
C880 C879 1.363 . S
C880 C886 1.428 . S
H881 C877 0.930 . S
H882 C879 0.929 . S
S883 N884 1.613 . S
S883 N885 1.610 . S
N884 S883 1.613 . S
N884 C887 1.350 . S
N885 S883 1.610 . S
N885 C886 1.351 . S
C886 C880 1.428 . S
C886 N885 1.351 . S
C886 C887 1.434 . S
C887 C878 1.429 . S
C887 N884 1.350 . S
C887 C886 1.434 . S
C888 C889 1.369 . S
C888 C890 1.419 . S
C888 H892 0.930 . S
C889 C888 1.369 . S
C889 C898 1.429 . S
C890 C888 1.419 . S
C890 C891 1.363 . S
C890 H893 0.929 . S
C891 C890 1.363 . S
C891 C897 1.428 . S
H892 C888 0.930 . S
H893 C890 0.929 . S
S894 N895 1.613 . S
S894 N896 1.610 . S
N895 S894 1.613 . S
N895 C898 1.350 . S
N896 S894 1.610 . S
N896 C897 1.351 . S
C897 C891 1.428 . S
C897 N896 1.351 . S
C897 C898 1.434 . S
C898 C889 1.429 . S
C898 N895 1.350 . S
C898 C897 1.434 . S
C899 C900 1.369 . S
C899 C901 1.419 . S
C899 H903 0.930 . S
C900 C899 1.369 . S
C900 C909 1.429 . S
C901 C899 1.419 . S
C901 C902 1.363 . S
C901 H904 0.929 . S
C902 C901 1.363 . S
C902 C908 1.428 . S
H903 C899 0.930 . S
H904 C901 0.929 . S
S905 N906 1.613 . S
S905 N907 1.610 . S
N906 S905 1.613 . S
N906 C909 1.350 . S
N907 S905 1.610 . S
N907 C908 1.351 . S
C908 C902 1.428 . S
C908 N907 1.351 . S
C908 C909 1.434 . S
C909 C900 1.429 . S
C909 N906 1.350 . S
C909 C908 1.434 . S
C910 C911 1.369 . S
C910 C912 1.419 . S
C910 H914 0.930 . S
C911 C910 1.369 . S
C911 C920 1.429 . S
C912 C910 1.419 . S
C912 C913 1.363 . S
C912 H915 0.929 . S
C913 C912 1.363 . S
C913 C919 1.428 . S
H914 C910 0.930 . S
H915 C912 0.929 . S
S916 N917 1.613 . S
S916 N918 1.610 . S
N917 S916 1.613 . S
N917 C920 1.350 . S
N918 S916 1.610 . S
N918 C919 1.351 . S
C919 C913 1.428 . S
C919 N918 1.351 . S
C919 C920 1.434 . S
C920 C911 1.429 . S
C920 N917 1.350 . S
C920 C919 1.434 . S
C921 C922 1.369 . S
C921 C923 1.419 . S
C921 H925 0.930 . S
C922 C921 1.369 . S
C922 C931 1.429 . S
C923 C921 1.419 . S
C923 C924 1.363 . S
C923 H926 0.929 . S
C924 C923 1.363 . S
C924 C930 1.428 . S
H925 C921 0.930 . S
H926 C923 0.929 . S
S927 N928 1.613 . S
S927 N929 1.610 . S
N928 S927 1.613 . S
N928 C931 1.350 . S
N929 S927 1.610 . S
N929 C930 1.351 . S
C930 C924 1.428 . S
C930 N929 1.351 . S
C930 C931 1.434 . S
C931 C922 1.429 . S
C931 N928 1.350 . S
C931 C930 1.434 . S
C932 C933 1.369 . S
C932 C934 1.419 . S
C932 H936 0.930 . S
C933 C932 1.369 . S
C933 C942 1.429 . S
C934 C932 1.419 . S
C934 C935 1.363 . S
C934 H937 0.929 . S
C935 C934 1.363 . S
C935 C941 1.428 . S
H936 C932 0.930 . S
H937 C934 0.929 . S
S938 N939 1.613 . S
S938 N940 1.610 . S
N939 S938 1.613 . S
N939 C942 1.350 . S
N940 S938 1.610 . S
N940 C941 1.351 . S
C941 C935 1.428 . S
C941 N940 1.351 . S
C941 C942 1.434 . S
C942 C933 1.429 . S
C942 N939 1.350 . S
C942 C941 1.434 . S
C943 C944 1.369 . S
C943 C945 1.419 . S
C943 H947 0.930 . S
C944 C943 1.369 . S
C944 C953 1.429 . S
C945 C943 1.419 . S
C945 C946 1.363 . S
C945 H948 0.929 . S
C946 C945 1.363 . S
C946 C952 1.428 . S
H947 C943 0.930 . S
H948 C945 0.929 . S
S949 N950 1.613 1_655 S
S949 N951 1.610 . S
N950 S949 1.613 1_455 S
N950 C953 1.350 1_455 S
N951 S949 1.610 . S
N951 C952 1.351 . S
C952 C946 1.428 . S
C952 N951 1.351 . S
C952 C953 1.434 . S
C953 C944 1.429 . S
C953 N950 1.350 1_655 S
C953 C952 1.434 . S
C954 C955 1.369 . S
C954 C956 1.419 . S
C954 H958 0.930 . S
C955 C954 1.369 . S
C955 C964 1.429 . S
C956 C954 1.419 . S
C956 C957 1.363 . S
C956 H959 0.929 . S
C957 C956 1.363 . S
C957 C963 1.428 . S
H958 C954 0.930 . S
H959 C956 0.929 . S
S960 N961 1.613 . S
S960 N962 1.610 . S
N961 S960 1.613 . S
N961 C964 1.350 . S
N962 S960 1.610 . S
N962 C963 1.351 . S
C963 C957 1.428 . S
C963 N962 1.351 . S
C963 C964 1.434 . S
C964 C955 1.429 . S
C964 N961 1.350 . S
C964 C963 1.434 . S
C965 C966 1.369 . S
C965 C967 1.419 . S
C965 H969 0.930 . S
C966 C965 1.369 . S
C966 C975 1.429 . S
C967 C965 1.419 . S
C967 C968 1.363 . S
C967 H970 0.929 . S
C968 C967 1.363 . S
C968 C974 1.428 . S
H969 C965 0.930 . S
H970 C967 0.929 . S
S971 N972 1.613 . S
S971 N973 1.610 . S
N972 S971 1.613 . S
N972 C975 1.350 . S
N973 S971 1.610 . S
N973 C974 1.351 . S
C974 C968 1.428 . S
C974 N973 1.351 . S
C974 C975 1.434 . S
C975 C966 1.429 . S
C975 N972 1.350 . S
C975 C974 1.434 . S
C976 C977 1.369 . S
C976 C978 1.419 . S
C976 H980 0.930 . S
C977 C976 1.369 . S
C977 C986 1.429 . S
C978 C976 1.419 . S
C978 C979 1.363 . S
C978 H981 0.929 . S
C979 C978 1.363 . S
C979 C985 1.428 . S
H980 C976 0.930 . S
H981 C978 0.929 . S
S982 N983 1.613 . S
S982 N984 1.610 . S
N983 S982 1.613 . S
N983 C986 1.350 . S
N984 S982 1.610 . S
N984 C985 1.351 . S
C985 C979 1.428 . S
C985 N984 1.351 . S
C985 C986 1.434 . S
C986 C977 1.429 . S
C986 N983 1.350 . S
C986 C985 1.434 . S
C987 C988 1.369 . S
C987 C989 1.419 . S
C987 H991 0.930 . S
C988 C987 1.369 . S
C988 C997 1.429 . S
C989 C987 1.419 . S
C989 C990 1.363 . S
C989 H992 0.929 . S
C990 C989 1.363 . S
C990 C996 1.428 . S
H991 C987 0.930 . S
H992 C989 0.929 . S
S993 N994 1.613 . S
S993 N995 1.610 . S
N994 S993 1.613 . S
N994 C997 1.350 . S
N995 S993 1.610 . S
N995 C996 1.351 . S
C996 C990 1.428 . S
C996 N995 1.351 . S
C996 C997 1.434 . S
C997 C988 1.429 . S
C997 N994 1.350 . S
C997 C996 1.434 . S
C998 C999 1.369 . S
C998 C1000 1.419 . S
C998 H1002 0.930 . S
C999 C998 1.369 . S
C999 C1008 1.429 . S
C1000 C998 1.419 . S
C1000 C1001 1.363 . S
C1000 H1003 0.929 . S
C1001 C1000 1.363 . S
C1001 C1007 1.428 . S
H1002 C998 0.930 . S
H1003 C1000 0.929 . S
S1004 N1005 1.613 . S
S1004 N1006 1.610 . S
N1005 S1004 1.613 . S
N1005 C1008 1.350 . S
N1006 S1004 1.610 . S
N1006 C1007 1.351 . S
C1007 C1001 1.428 . S
C1007 N1006 1.351 . S
C1007 C1008 1.434 . S
C1008 C999 1.429 . S
C1008 N1005 1.350 . S
C1008 C1007 1.434 . S
C1009 C1010 1.369 1_554 S
C1009 C1011 1.419 . S
C1009 H1013 0.930 . S
C1010 C1009 1.369 1_556 S
C1010 C1019 1.429 . S
C1011 C1009 1.419 . S
C1011 C1012 1.363 . S
C1011 H1014 0.929 . S
C1012 C1011 1.363 . S
C1012 C1018 1.428 1_554 S
H1013 C1009 0.930 . S
H1014 C1011 0.929 . S
S1015 N1016 1.613 . S
S1015 N1017 1.610 . S
N1016 S1015 1.613 . S
N1016 C1019 1.350 . S
N1017 S1015 1.610 . S
N1017 C1018 1.351 . S
C1018 C1012 1.428 1_556 S
C1018 N1017 1.351 . S
C1018 C1019 1.434 . S
C1019 C1010 1.429 . S
C1019 N1016 1.350 . S
C1019 C1018 1.434 . S
C1020 C1021 1.369 . S
C1020 C1022 1.419 . S
C1020 H1024 0.930 . S
C1021 C1020 1.369 . S
C1021 C1030 1.429 . S
C1022 C1020 1.419 . S
C1022 C1023 1.363 . S
C1022 H1025 0.929 . S
C1023 C1022 1.363 . S
C1023 C1029 1.428 . S
H1024 C1020 0.930 . S
H1025 C1022 0.929 . S
S1026 N1027 1.613 . S
S1026 N1028 1.610 . S
N1027 S1026 1.613 . S
N1027 C1030 1.350 . S
N1028 S1026 1.610 . S
N1028 C1029 1.351 . S
C1029 C1023 1.428 . S
C1029 N1028 1.351 . S
C1029 C1030 1.434 . S
C1030 C1021 1.429 . S
C1030 N1027 1.350 . S
C1030 C1029 1.434 . S
C1031 C1032 1.369 . S
C1031 C1033 1.419 . S
C1031 H1035 0.930 . S
C1032 C1031 1.369 . S
C1032 C1041 1.429 . S
C1033 C1031 1.419 . S
C1033 C1034 1.363 . S
C1033 H1036 0.929 . S
C1034 C1033 1.363 . S
C1034 C1040 1.428 . S
H1035 C1031 0.930 . S
H1036 C1033 0.929 . S
S1037 N1038 1.613 . S
S1037 N1039 1.610 . S
N1038 S1037 1.613 . S
N1038 C1041 1.350 . S
N1039 S1037 1.610 . S
N1039 C1040 1.351 . S
C1040 C1034 1.428 . S
C1040 N1039 1.351 . S
C1040 C1041 1.434 . S
C1041 C1032 1.429 . S
C1041 N1038 1.350 . S
C1041 C1040 1.434 . S
C1042 C1043 1.369 . S
C1042 C1044 1.419 . S
C1042 H1046 0.930 . S
C1043 C1042 1.369 . S
C1043 C1052 1.429 . S
C1044 C1042 1.419 . S
C1044 C1045 1.363 . S
C1044 H1047 0.929 . S
C1045 C1044 1.363 . S
C1045 C1051 1.428 . S
H1046 C1042 0.930 . S
H1047 C1044 0.929 . S
S1048 N1049 1.613 . S
S1048 N1050 1.610 . S
N1049 S1048 1.613 . S
N1049 C1052 1.350 . S
N1050 S1048 1.610 . S
N1050 C1051 1.351 . S
C1051 C1045 1.428 . S
C1051 N1050 1.351 . S
C1051 C1052 1.434 . S
C1052 C1043 1.429 . S
C1052 N1049 1.350 . S
C1052 C1051 1.434 . S
C1053 C1054 1.369 1_556 S
C1053 C1055 1.419 . S
C1053 H1057 0.930 . S
C1054 C1053 1.369 1_554 S
C1054 C1063 1.429 . S
C1055 C1053 1.419 . S
C1055 C1056 1.363 . S
C1055 H1058 0.929 . S
C1056 C1055 1.363 . S
C1056 C1062 1.428 1_556 S
H1057 C1053 0.930 . S
H1058 C1055 0.929 . S
S1059 N1060 1.613 . S
S1059 N1061 1.610 . S
N1060 S1059 1.613 . S
N1060 C1063 1.350 . S
N1061 S1059 1.610 . S
N1061 C1062 1.351 . S
C1062 C1056 1.428 1_554 S
C1062 N1061 1.351 . S
C1062 C1063 1.434 . S
C1063 C1054 1.429 . S
C1063 N1060 1.350 . S
C1063 C1062 1.434 . S
C1064 C1065 1.369 . S
C1064 C1066 1.419 1_565 S
C1064 H1068 0.930 . S
C1065 C1064 1.369 . S
C1065 C1074 1.429 . S
C1066 C1064 1.419 1_545 S
C1066 C1067 1.363 . S
C1066 H1069 0.929 . S
C1067 C1066 1.363 . S
C1067 C1073 1.447 . S
H1068 C1064 0.930 . S
H1069 C1066 0.929 . S
S1070 N1071 1.613 . S
S1070 N1072 1.610 . S
N1071 S1070 1.613 . S
N1071 C1074 1.350 . S
N1072 S1070 1.610 . S
N1072 C1073 1.349 1_565 S
C1073 C1067 1.447 . S
C1073 N1072 1.349 1_545 S
C1073 C1074 1.415 1_545 S
C1074 C1065 1.429 . S
C1074 N1071 1.350 . S
C1074 C1073 1.415 1_565 S
C1075 C1076 1.369 . S
C1075 C1077 1.419 . S
C1075 H1079 0.930 . S
C1076 C1075 1.369 . S
C1076 C1085 1.429 1_554 S
C1077 C1075 1.419 . S
C1077 C1078 1.363 1_554 S
C1077 H1080 0.929 . S
C1078 C1077 1.363 1_556 S
C1078 C1084 1.428 . S
H1079 C1075 0.930 . S
H1080 C1077 0.929 . S
S1081 N1082 1.613 . S
S1081 N1083 1.610 . S
N1082 S1081 1.613 . S
N1082 C1085 1.350 . S
N1083 S1081 1.610 . S
N1083 C1084 1.351 . S
C1084 C1078 1.428 . S
C1084 N1083 1.351 . S
C1084 C1085 1.434 . S
C1085 C1076 1.429 1_556 S
C1085 N1082 1.350 . S
C1085 C1084 1.434 . S
C1086 C1087 1.369 . S
C1086 C1088 1.419 1_545 S
C1086 H1090 0.930 . S
C1087 C1086 1.369 . S
C1087 C1096 1.426 . S
C1088 C1086 1.419 1_565 S
C1088 C1089 1.363 . S
C1088 H1091 0.930 . S
C1089 C1088 1.363 . S
C1089 C1095 1.428 . S
H1090 C1086 0.930 . S
H1091 C1088 0.930 . S
S1092 N1093 1.613 . S
S1092 N1094 1.610 . S
N1093 S1092 1.613 . S
N1093 C1096 1.350 1_565 S
N1094 S1092 1.610 . S
N1094 C1095 1.351 . S
C1095 C1089 1.428 . S
C1095 N1094 1.351 . S
C1095 C1096 1.436 1_565 S
C1096 C1087 1.426 . S
C1096 N1093 1.350 1_545 S
C1096 C1095 1.436 1_545 S
C1097 C1098 1.369 . S
C1097 C1099 1.419 . S
C1097 H1101 0.930 . S
C1098 C1097 1.369 . S
C1098 C1107 1.429 . S
C1099 C1097 1.419 . S
C1099 C1100 1.363 . S
C1099 H1102 0.929 . S
C1100 C1099 1.363 . S
C1100 C1106 1.428 . S
H1101 C1097 0.930 . S
H1102 C1099 0.929 . S
S1103 N1104 1.613 . S
S1103 N1105 1.610 . S
N1104 S1103 1.613 . S
N1104 C1107 1.350 . S
N1105 S1103 1.610 . S
N1105 C1106 1.351 . S
C1106 C1100 1.428 . S
C1106 N1105 1.351 . S
C1106 C1107 1.434 . S
C1107 C1098 1.429 . S
C1107 N1104 1.350 . S
C1107 C1106 1.434 . S
C1108 C1109 1.369 . S
C1108 C1110 1.419 1_545 S
C1108 H1112 0.930 . S
C1109 C1108 1.369 . S
C1109 C1118 1.429 . S
C1110 C1108 1.419 1_565 S
C1110 C1111 1.363 . S
C1110 H1113 0.929 . S
C1111 C1110 1.363 . S
C1111 C1117 1.428 . S
H1112 C1108 0.930 . S
H1113 C1110 0.929 . S
S1114 N1115 1.613 1_565 S
S1114 N1116 1.610 . S
N1115 S1114 1.613 1_545 S
N1115 C1118 1.350 . S
N1116 S1114 1.610 . S
N1116 C1117 1.351 . S
C1117 C1111 1.428 . S
C1117 N1116 1.351 . S
C1117 C1118 1.434 1_565 S
C1118 C1109 1.429 . S
C1118 N1115 1.350 . S
C1118 C1117 1.434 1_545 S
C1119 C1120 1.369 . S
C1119 C1121 1.419 1_554 S
C1119 H1123 0.930 . S
C1120 C1119 1.369 . S
C1120 C1129 1.429 . S
C1121 C1119 1.419 1_556 S
C1121 C1122 1.363 . S
C1121 H1124 0.929 . S
C1122 C1121 1.363 . S
C1122 C1128 1.428 . S
H1123 C1119 0.930 . S
H1124 C1121 0.929 . S
S1125 N1126 1.613 . S
S1125 N1127 1.610 1_554 S
N1126 S1125 1.613 . S
N1126 C1129 1.350 . S
N1127 S1125 1.610 1_556 S
N1127 C1128 1.351 . S
C1128 C1122 1.428 . S
C1128 N1127 1.351 . S
C1128 C1129 1.434 1_556 S
C1129 C1120 1.429 . S
C1129 N1126 1.350 . S
C1129 C1128 1.434 1_554 S
C1130 C1131 1.369 . S
C1130 C1132 1.419 1_545 S
C1130 H1134 0.930 . S
C1131 C1130 1.369 . S
C1131 C1140 1.429 . S
C1132 C1130 1.419 1_565 S
C1132 C1133 1.363 . S
C1132 H1135 0.929 . S
C1133 C1132 1.363 . S
C1133 C1139 1.428 . S
H1134 C1130 0.930 . S
H1135 C1132 0.929 . S
S1136 N1137 1.613 1_565 S
S1136 N1138 1.610 . S
N1137 S1136 1.613 1_545 S
N1137 C1140 1.350 . S
N1138 S1136 1.610 . S
N1138 C1139 1.351 . S
C1139 C1133 1.428 . S
C1139 N1138 1.351 . S
C1139 C1140 1.434 1_565 S
C1140 C1131 1.429 . S
C1140 N1137 1.350 . S
C1140 C1139 1.434 1_545 S
C1141 C1142 1.369 . S
C1141 C1143 1.419 . S
C1141 H1145 0.930 . S
C1142 C1141 1.369 . S
C1142 C1151 1.429 . S
C1143 C1141 1.419 . S
C1143 C1144 1.363 . S
C1143 H1146 0.929 . S
C1144 C1143 1.363 . S
C1144 C1150 1.428 . S
H1145 C1141 0.930 . S
H1146 C1143 0.929 . S
S1147 N1148 1.613 . S
S1147 N1149 1.610 . S
N1148 S1147 1.613 . S
N1148 C1151 1.350 . S
N1149 S1147 1.610 . S
N1149 C1150 1.351 . S
C1150 C1144 1.428 . S
C1150 N1149 1.351 . S
C1150 C1151 1.434 . S
C1151 C1142 1.429 . S
C1151 N1148 1.350 . S
C1151 C1150 1.434 . S
C449 C9 1.407 . S
C451 C303 1.407 . S
C460 C317 1.407 . S
C462 C23 1.407 . S
C471 C37 1.407 . S
C473 C331 1.406 . S
C482 C289 1.406 . S
C484 C51 1.406 . S
C493 C65 1.408 . S
C495 C275 1.407 . S
C504 C79 1.408 . S
C506 C233 1.408 . S
C515 C247 1.406 . S
C517 C93 1.406 . S
C526 C107 1.408 . S
C528 C261 1.407 . S
C537 C121 1.406 . S
C539 C415 1.406 . S
C548 C135 1.406 . S
C550 C429 1.406 . S
C559 C443 1.408 . S
C561 C149 1.407 . S
C570 C401 1.407 . S
C572 C163 1.407 . S
C581 C177 1.408 . S
C583 C387 1.407 . S
C592 C345 1.406 . S
C594 C191 1.406 . S
C603 C205 1.406 . S
C605 C359 1.406 . S
C614 C373 1.406 . S
C616 C219 1.406 . S
C625 C5 1.397 . S
C627 C126 1.414 . S
C636 C19 1.398 . S
C638 C364 1.413 1_655 S
C647 C154 1.410 . S
C649 C33 1.393 . S
C658 C47 1.393 . S
C660 C336 1.410 . S
C669 C61 1.395 . S
C671 C210 1.414 . S
C680 C392 1.410 . S
C682 C75 1.392 . S
C691 C182 1.415 . S
C693 C89 1.396 . S
C702 C420 1.411 1_655 S
C704 C103 1.396 . S
C713 C117 1.395 . S
C715 C14 1.411 . S
C724 C252 1.412 1_455 S
C726 C131 1.397 . S
C735 C42 1.415 . S
C737 C145 1.396 . S
C746 C159 1.394 . S
C748 C224 1.413 . S
C757 C98 1.410 . S
C759 C173 1.393 . S
C768 C280 1.412 . S
C770 C187 1.397 . S
C779 C70 1.414 . S
C781 C201 1.398 . S
C790 C215 1.397 . S
C792 C308 1.414 1_455 S
C801 C350 1.411 . S
C803 C229 1.396 . S
C812 C140 1.414 . S
C814 C243 1.395 . S
C823 C378 1.415 . S
C825 C257 1.396 . S
C834 C271 1.393 . S
C836 C112 1.410 1_455 S
C845 C434 1.410 . S
C847 C285 1.393 . S
C856 C168 1.413 1_455 S
C858 C299 1.397 . S
C867 C406 1.412 . S
C869 C313 1.397 . S
C878 C327 1.391 . S
C880 C196 1.410 . S
C889 C341 1.395 . S
C891 C238 1.414 . S
C900 C28 1.411 . S
C902 C355 1.392 . S
C911 C369 1.391 . S
C913 C266 1.411 . S
C922 C383 1.398 . S
C924 C0 1.414 1_655 S
C933 C397 1.391 . S
C935 C322 1.410 . S
C944 C56 1.411 1_655 S
C946 C411 1.392 . S
C955 C294 1.411 . S
C957 C425 1.392 . S
C966 C439 1.391 . S
C968 C84 1.411 . S
C977 C11 1.398 . S
C979 C67 1.399 . S
C988 C25 1.402 . S
C990 C81 1.395 . S
C999 C95 1.399 . S
C1001 C39 1.398 . S
C1010 C109 1.401 . S
C1012 C53 1.396 . S
C1021 C179 1.402 . S
C1023 C123 1.396 . S
C1032 C193 1.399 . S
C1034 C137 1.398 . S
C1043 C207 1.399 . S
C1045 C151 1.398 . S
C1054 C221 1.402 . S
C1056 C165 1.395 . S
C1065 C235 1.394 . S
C1067 C291 1.402 . S
C1076 C249 1.395 . S
C1078 C305 1.400 . S
C1087 C263 1.403 . S
C1089 C319 1.395 . S
C1098 C333 1.397 . S
C1100 C277 1.399 . S
C1109 C347 1.399 . S
C1111 C403 1.397 . S
C1120 C417 1.397 . S
C1122 C361 1.398 . S
C1131 C431 1.401 . S
C1133 C375 1.396 . S
C1142 C445 1.399 . S
C1144 C389 1.398 . S
