# Generated by pormake.
# Topology uky, (4)-cn, num edge types: 1
# Building blocks:
#     Node 0, Type 0, BuildingBlock: GALJAG_clean_sbu_0, # of connection points: 4
#     Node 1, Type 0, BuildingBlock: GALJAG_clean_sbu_0, # of connection points: 4
#     Node 2, Type 0, BuildingBlock: GALJAG_clean_sbu_0, # of connection points: 4
#     Node 3, Type 0, BuildingBlock: GALJAG_clean_sbu_0, # of connection points: 4
#     Node 4, Type 0, BuildingBlock: GALJAG_clean_sbu_0, # of connection points: 4
#     Node 5, Type 0, BuildingBlock: GALJAG_clean_sbu_0, # of connection points: 4
#     Node 6, Type 0, BuildingBlock: GALJAG_clean_sbu_0, # of connection points: 4
#     Node 7, Type 0, BuildingBlock: GALJAG_clean_sbu_0, # of connection points: 4
#     Node 8, Type 0, BuildingBlock: GALJAG_clean_sbu_0, # of connection points: 4
#     Node 9, Type 0, BuildingBlock: GALJAG_clean_sbu_0, # of connection points: 4
#     Node 10, Type 0, BuildingBlock: GALJAG_clean_sbu_0, # of connection points: 4
#     Node 11, Type 0, BuildingBlock: GALJAG_clean_sbu_0, # of connection points: 4
#     Node 12, Type 0, BuildingBlock: GALJAG_clean_sbu_0, # of connection points: 4
#     Node 13, Type 0, BuildingBlock: GALJAG_clean_sbu_0, # of connection points: 4
#     Node 14, Type 0, BuildingBlock: GALJAG_clean_sbu_0, # of connection points: 4
#     Node 15, Type 0, BuildingBlock: GALJAG_clean_sbu_0, # of connection points: 4
#     Node 16, Type 0, BuildingBlock: GALJAG_clean_sbu_0, # of connection points: 4
#     Node 17, Type 0, BuildingBlock: GALJAG_clean_sbu_0, # of connection points: 4
#     Node 18, Type 0, BuildingBlock: GALJAG_clean_sbu_0, # of connection points: 4
#     Node 19, Type 0, BuildingBlock: GALJAG_clean_sbu_0, # of connection points: 4
#     Node 20, Type 0, BuildingBlock: GALJAG_clean_sbu_0, # of connection points: 4
#     Node 21, Type 0, BuildingBlock: GALJAG_clean_sbu_0, # of connection points: 4
#     Node 22, Type 0, BuildingBlock: GALJAG_clean_sbu_0, # of connection points: 4
#     Node 23, Type 0, BuildingBlock: GALJAG_clean_sbu_0, # of connection points: 4
#     Node 24, Type 0, BuildingBlock: GALJAG_clean_sbu_0, # of connection points: 4
#     Node 25, Type 0, BuildingBlock: GALJAG_clean_sbu_0, # of connection points: 4
#     Node 26, Type 0, BuildingBlock: GALJAG_clean_sbu_0, # of connection points: 4
#     Node 27, Type 0, BuildingBlock: GALJAG_clean_sbu_0, # of connection points: 4
#     Node 28, Type 0, BuildingBlock: GALJAG_clean_sbu_0, # of connection points: 4
#     Node 29, Type 0, BuildingBlock: GALJAG_clean_sbu_0, # of connection points: 4
#     Node 30, Type 0, BuildingBlock: GALJAG_clean_sbu_0, # of connection points: 4
#     Node 31, Type 0, BuildingBlock: GALJAG_clean_sbu_0, # of connection points: 4
#     Node 32, Type 0, BuildingBlock: GALJAG_clean_sbu_0, # of connection points: 4
#     Node 33, Type 0, BuildingBlock: GALJAG_clean_sbu_0, # of connection points: 4
#     Node 34, Type 0, BuildingBlock: GALJAG_clean_sbu_0, # of connection points: 4
#     Node 35, Type 0, BuildingBlock: GALJAG_clean_sbu_0, # of connection points: 4
#     Node 36, Type 0, BuildingBlock: GALJAG_clean_sbu_0, # of connection points: 4
#     Node 37, Type 0, BuildingBlock: GALJAG_clean_sbu_0, # of connection points: 4
#     Node 38, Type 0, BuildingBlock: GALJAG_clean_sbu_0, # of connection points: 4
#     Node 39, Type 0, BuildingBlock: GALJAG_clean_sbu_0, # of connection points: 4
#     Node 40, Type 0, BuildingBlock: GALJAG_clean_sbu_0, # of connection points: 4
#     Node 41, Type 0, BuildingBlock: GALJAG_clean_sbu_0, # of connection points: 4
#     Node 42, Type 0, BuildingBlock: GALJAG_clean_sbu_0, # of connection points: 4
#     Node 43, Type 0, BuildingBlock: GALJAG_clean_sbu_0, # of connection points: 4
#     Node 44, Type 0, BuildingBlock: GALJAG_clean_sbu_0, # of connection points: 4
#     Node 45, Type 0, BuildingBlock: GALJAG_clean_sbu_0, # of connection points: 4
#     Node 46, Type 0, BuildingBlock: GALJAG_clean_sbu_0, # of connection points: 4
#     Node 47, Type 0, BuildingBlock: GALJAG_clean_sbu_0, # of connection points: 4
#     Edge 48, Type (0, 0), BuildingBlock: ZUJKAS_clean_linker_0, # of connection points: 2
#     Edge 49, Type (0, 0), BuildingBlock: ZUJKAS_clean_linker_0, # of connection points: 2
#     Edge 50, Type (0, 0), BuildingBlock: ZUJKAS_clean_linker_0, # of connection points: 2
#     Edge 51, Type (0, 0), BuildingBlock: ZUJKAS_clean_linker_0, # of connection points: 2
#     Edge 52, Type (0, 0), BuildingBlock: ZUJKAS_clean_linker_0, # of connection points: 2
#     Edge 53, Type (0, 0), BuildingBlock: ZUJKAS_clean_linker_0, # of connection points: 2
#     Edge 54, Type (0, 0), BuildingBlock: ZUJKAS_clean_linker_0, # of connection points: 2
#     Edge 55, Type (0, 0), BuildingBlock: ZUJKAS_clean_linker_0, # of connection points: 2
#     Edge 56, Type (0, 0), BuildingBlock: ZUJKAS_clean_linker_0, # of connection points: 2
#     Edge 57, Type (0, 0), BuildingBlock: ZUJKAS_clean_linker_0, # of connection points: 2
#     Edge 58, Type (0, 0), BuildingBlock: ZUJKAS_clean_linker_0, # of connection points: 2
#     Edge 59, Type (0, 0), BuildingBlock: ZUJKAS_clean_linker_0, # of connection points: 2
#     Edge 60, Type (0, 0), BuildingBlock: ZUJKAS_clean_linker_0, # of connection points: 2
#     Edge 61, Type (0, 0), BuildingBlock: ZUJKAS_clean_linker_0, # of connection points: 2
#     Edge 62, Type (0, 0), BuildingBlock: ZUJKAS_clean_linker_0, # of connection points: 2
#     Edge 63, Type (0, 0), BuildingBlock: ZUJKAS_clean_linker_0, # of connection points: 2
#     Edge 64, Type (0, 0), BuildingBlock: ZUJKAS_clean_linker_0, # of connection points: 2
#     Edge 65, Type (0, 0), BuildingBlock: ZUJKAS_clean_linker_0, # of connection points: 2
#     Edge 66, Type (0, 0), BuildingBlock: ZUJKAS_clean_linker_0, # of connection points: 2
#     Edge 67, Type (0, 0), BuildingBlock: ZUJKAS_clean_linker_0, # of connection points: 2
#     Edge 68, Type (0, 0), BuildingBlock: ZUJKAS_clean_linker_0, # of connection points: 2
#     Edge 69, Type (0, 0), BuildingBlock: ZUJKAS_clean_linker_0, # of connection points: 2
#     Edge 70, Type (0, 0), BuildingBlock: ZUJKAS_clean_linker_0, # of connection points: 2
#     Edge 71, Type (0, 0), BuildingBlock: ZUJKAS_clean_linker_0, # of connection points: 2
#     Edge 72, Type (0, 0), BuildingBlock: ZUJKAS_clean_linker_0, # of connection points: 2
#     Edge 73, Type (0, 0), BuildingBlock: ZUJKAS_clean_linker_0, # of connection points: 2
#     Edge 74, Type (0, 0), BuildingBlock: ZUJKAS_clean_linker_0, # of connection points: 2
#     Edge 75, Type (0, 0), BuildingBlock: ZUJKAS_clean_linker_0, # of connection points: 2
#     Edge 76, Type (0, 0), BuildingBlock: ZUJKAS_clean_linker_0, # of connection points: 2
#     Edge 77, Type (0, 0), BuildingBlock: ZUJKAS_clean_linker_0, # of connection points: 2
#     Edge 78, Type (0, 0), BuildingBlock: ZUJKAS_clean_linker_0, # of connection points: 2
#     Edge 79, Type (0, 0), BuildingBlock: ZUJKAS_clean_linker_0, # of connection points: 2
#     Edge 80, Type (0, 0), BuildingBlock: ZUJKAS_clean_linker_0, # of connection points: 2
#     Edge 81, Type (0, 0), BuildingBlock: ZUJKAS_clean_linker_0, # of connection points: 2
#     Edge 82, Type (0, 0), BuildingBlock: ZUJKAS_clean_linker_0, # of connection points: 2
#     Edge 83, Type (0, 0), BuildingBlock: ZUJKAS_clean_linker_0, # of connection points: 2
#     Edge 84, Type (0, 0), BuildingBlock: ZUJKAS_clean_linker_0, # of connection points: 2
#     Edge 85, Type (0, 0), BuildingBlock: ZUJKAS_clean_linker_0, # of connection points: 2
#     Edge 86, Type (0, 0), BuildingBlock: ZUJKAS_clean_linker_0, # of connection points: 2
#     Edge 87, Type (0, 0), BuildingBlock: ZUJKAS_clean_linker_0, # of connection points: 2
#     Edge 88, Type (0, 0), BuildingBlock: ZUJKAS_clean_linker_0, # of connection points: 2
#     Edge 89, Type (0, 0), BuildingBlock: ZUJKAS_clean_linker_0, # of connection points: 2
#     Edge 90, Type (0, 0), BuildingBlock: ZUJKAS_clean_linker_0, # of connection points: 2
#     Edge 91, Type (0, 0), BuildingBlock: ZUJKAS_clean_linker_0, # of connection points: 2
#     Edge 92, Type (0, 0), BuildingBlock: ZUJKAS_clean_linker_0, # of connection points: 2
#     Edge 93, Type (0, 0), BuildingBlock: ZUJKAS_clean_linker_0, # of connection points: 2
#     Edge 94, Type (0, 0), BuildingBlock: ZUJKAS_clean_linker_0, # of connection points: 2
#     Edge 95, Type (0, 0), BuildingBlock: ZUJKAS_clean_linker_0, # of connection points: 2
#     Edge 96, Type (0, 0), BuildingBlock: ZUJKAS_clean_linker_0, # of connection points: 2
#     Edge 97, Type (0, 0), BuildingBlock: ZUJKAS_clean_linker_0, # of connection points: 2
#     Edge 98, Type (0, 0), BuildingBlock: ZUJKAS_clean_linker_0, # of connection points: 2
#     Edge 99, Type (0, 0), BuildingBlock: ZUJKAS_clean_linker_0, # of connection points: 2
#     Edge 100, Type (0, 0), BuildingBlock: ZUJKAS_clean_linker_0, # of connection points: 2
#     Edge 101, Type (0, 0), BuildingBlock: ZUJKAS_clean_linker_0, # of connection points: 2
#     Edge 102, Type (0, 0), BuildingBlock: ZUJKAS_clean_linker_0, # of connection points: 2
#     Edge 103, Type (0, 0), BuildingBlock: ZUJKAS_clean_linker_0, # of connection points: 2
#     Edge 104, Type (0, 0), BuildingBlock: ZUJKAS_clean_linker_0, # of connection points: 2
#     Edge 105, Type (0, 0), BuildingBlock: ZUJKAS_clean_linker_0, # of connection points: 2
#     Edge 106, Type (0, 0), BuildingBlock: ZUJKAS_clean_linker_0, # of connection points: 2
#     Edge 107, Type (0, 0), BuildingBlock: ZUJKAS_clean_linker_0, # of connection points: 2
#     Edge 108, Type (0, 0), BuildingBlock: ZUJKAS_clean_linker_0, # of connection points: 2
#     Edge 109, Type (0, 0), BuildingBlock: ZUJKAS_clean_linker_0, # of connection points: 2
#     Edge 110, Type (0, 0), BuildingBlock: ZUJKAS_clean_linker_0, # of connection points: 2
#     Edge 111, Type (0, 0), BuildingBlock: ZUJKAS_clean_linker_0, # of connection points: 2
#     Edge 112, Type (0, 0), BuildingBlock: ZUJKAS_clean_linker_0, # of connection points: 2
#     Edge 113, Type (0, 0), BuildingBlock: ZUJKAS_clean_linker_0, # of connection points: 2
#     Edge 114, Type (0, 0), BuildingBlock: ZUJKAS_clean_linker_0, # of connection points: 2
#     Edge 115, Type (0, 0), BuildingBlock: ZUJKAS_clean_linker_0, # of connection points: 2
#     Edge 116, Type (0, 0), BuildingBlock: ZUJKAS_clean_linker_0, # of connection points: 2
#     Edge 117, Type (0, 0), BuildingBlock: ZUJKAS_clean_linker_0, # of connection points: 2
#     Edge 118, Type (0, 0), BuildingBlock: ZUJKAS_clean_linker_0, # of connection points: 2
#     Edge 119, Type (0, 0), BuildingBlock: ZUJKAS_clean_linker_0, # of connection points: 2
#     Edge 120, Type (0, 0), BuildingBlock: ZUJKAS_clean_linker_0, # of connection points: 2
#     Edge 121, Type (0, 0), BuildingBlock: ZUJKAS_clean_linker_0, # of connection points: 2
#     Edge 122, Type (0, 0), BuildingBlock: ZUJKAS_clean_linker_0, # of connection points: 2
#     Edge 123, Type (0, 0), BuildingBlock: ZUJKAS_clean_linker_0, # of connection points: 2
#     Edge 124, Type (0, 0), BuildingBlock: ZUJKAS_clean_linker_0, # of connection points: 2
#     Edge 125, Type (0, 0), BuildingBlock: ZUJKAS_clean_linker_0, # of connection points: 2
#     Edge 126, Type (0, 0), BuildingBlock: ZUJKAS_clean_linker_0, # of connection points: 2
#     Edge 127, Type (0, 0), BuildingBlock: ZUJKAS_clean_linker_0, # of connection points: 2
#     Edge 128, Type (0, 0), BuildingBlock: ZUJKAS_clean_linker_0, # of connection points: 2
#     Edge 129, Type (0, 0), BuildingBlock: ZUJKAS_clean_linker_0, # of connection points: 2
#     Edge 130, Type (0, 0), BuildingBlock: ZUJKAS_clean_linker_0, # of connection points: 2
#     Edge 131, Type (0, 0), BuildingBlock: ZUJKAS_clean_linker_0, # of connection points: 2
#     Edge 132, Type (0, 0), BuildingBlock: ZUJKAS_clean_linker_0, # of connection points: 2
#     Edge 133, Type (0, 0), BuildingBlock: ZUJKAS_clean_linker_0, # of connection points: 2
#     Edge 134, Type (0, 0), BuildingBlock: ZUJKAS_clean_linker_0, # of connection points: 2
#     Edge 135, Type (0, 0), BuildingBlock: ZUJKAS_clean_linker_0, # of connection points: 2
#     Edge 136, Type (0, 0), BuildingBlock: ZUJKAS_clean_linker_0, # of connection points: 2
#     Edge 137, Type (0, 0), BuildingBlock: ZUJKAS_clean_linker_0, # of connection points: 2
#     Edge 138, Type (0, 0), BuildingBlock: ZUJKAS_clean_linker_0, # of connection points: 2
#     Edge 139, Type (0, 0), BuildingBlock: ZUJKAS_clean_linker_0, # of connection points: 2
#     Edge 140, Type (0, 0), BuildingBlock: ZUJKAS_clean_linker_0, # of connection points: 2
#     Edge 141, Type (0, 0), BuildingBlock: ZUJKAS_clean_linker_0, # of connection points: 2
#     Edge 142, Type (0, 0), BuildingBlock: ZUJKAS_clean_linker_0, # of connection points: 2
#     Edge 143, Type (0, 0), BuildingBlock: ZUJKAS_clean_linker_0, # of connection points: 2
# Relax obj value: 0.129
# Max RMSD: 0.165
# Mean RMSD: 0.165
data_MOF--net-uky--node1-GALJAG_clean_sbu_0--edge1-ZUJKAS_clean_linker_0
_symmetry_space_group_name_H-M    P1
_symmetry_Int_Tables_number       1
_symmetry_cell_setting            triclinic
loop_
_symmetry_equiv_pos_as_xyz
'x, y, z'
_cell_length_a     80.789624
_cell_length_b     80.773321
_cell_length_c     80.79667
_cell_angle_alpha  89.981464
_cell_angle_beta   89.995411
_cell_angle_gamma 89.99709
loop_
_atom_site_label
_atom_site_type_symbol
_atom_site_fract_x
_atom_site_fract_y
_atom_site_fract_z
_atom_type_partial_charge
In0 In 0.23523 0.19945 0.3782 0.0
O1 O 0.21959 0.17647 0.37281 0.0
O2 O 0.20789 0.19732 0.38387 0.0
C3 C 0.26354 0.19098 0.36258 0.0
C4 C 0.24195 0.1996 0.41091 0.0
C5 C 0.22625 0.22586 0.35986 0.0
O6 O 0.25076 0.18202 0.36219 0.0
O7 O 0.26214 0.2039 0.3712 0.0
O8 O 0.23251 0.22731 0.3741 0.0
O9 O 0.22469 0.21115 0.35488 0.0
C10 C 0.2064 0.18281 0.37831 0.0
O11 O 0.23871 0.21259 0.40288 0.0
O12 O 0.24209 0.18652 0.40239 0.0
In13 In 0.04756 0.98011 0.63147 0.0
O14 O 0.06837 0.96329 0.64045 0.0
O15 O 0.0578 0.95814 0.61697 0.0
C16 C 0.05724 0.00593 0.61254 0.0
C17 C 0.04619 0.98834 0.6638 0.0
C18 C 0.01746 0.9705 0.62053 0.0
O19 O 0.06304 0.99155 0.61076 0.0
O20 O 0.04699 0.00738 0.62421 0.0
O21 O 0.02642 0.96134 0.62946 0.0
O22 O 0.02349 0.98457 0.61753 0.0
C23 C 0.06812 0.954 0.62791 0.0
O24 O 0.03427 0.98158 0.65634 0.0
O25 O 0.05874 0.99111 0.65492 0.0
In26 In 0.2643 0.79904 0.8801 0.0
O27 O 0.25769 0.78752 0.90492 0.0
O28 O 0.25598 0.8137 0.90277 0.0
C29 C 0.27371 0.77111 0.86447 0.0
C30 C 0.29355 0.81473 0.88275 0.0
C31 C 0.23804 0.80728 0.86114 0.0
O32 O 0.26654 0.77089 0.87836 0.0
O33 O 0.27597 0.78535 0.8585 0.0
O34 O 0.25184 0.81447 0.85989 0.0
O35 O 0.23738 0.79636 0.87226 0.0
C36 C 0.25453 0.80111 0.91193 0.0
O37 O 0.28095 0.82177 0.8767 0.0
O38 O 0.29123 0.80003 0.88747 0.0
In39 In 0.44502 0.02723 0.12476 0.0
O40 O 0.41838 0.03712 0.12433 0.0
O41 O 0.4382 0.05435 0.12288 0.0
C42 C 0.43925 -0.00036 0.10673 0.0
C43 C 0.44608 0.02324 0.1579 0.0
C44 C 0.47425 0.03547 0.11095 0.0
O45 O 0.43476 0.01383 0.10203 0.0
O46 O 0.4462 -0.00066 0.12068 0.0
O47 O 0.4732 0.02558 0.12301 0.0
O48 O 0.46061 0.04117 0.10595 0.0
C49 C 0.42278 0.05208 0.12321 0.0
O50 O 0.45648 0.03192 0.15013 0.0
O51 O 0.43512 0.01664 0.14896 0.0
In52 In 0.22737 0.80531 0.12094 0.0
O53 O 0.22842 0.79274 0.0958 0.0
O54 O 0.2341 0.81842 0.09682 0.0
C55 C 0.21965 0.77655 0.13607 0.0
C56 C 0.19964 0.82382 0.12159 0.0
C57 C 0.25538 0.81281 0.13766 0.0
O58 O 0.22701 0.77706 0.1223 0.0
O59 O 0.21631 0.79051 0.14221 0.0
O60 O 0.24124 0.8173 0.14247 0.0
O61 O 0.25544 0.80499 0.12418 0.0
C62 C 0.23244 0.80564 0.08798 0.0
O63 O 0.2138 0.8301 0.12374 0.0
O64 O 0.19962 0.80841 0.11915 0.0
In65 In 0.45795 0.97408 0.36235 0.0
O66 O 0.43267 0.9617 0.36539 0.0
O67 O 0.45181 0.94831 0.35319 0.0
C68 C 0.45285 -0.0001 0.38288 0.0
C69 C 0.45759 0.9854 0.33098 0.0
C70 C 0.48463 0.96124 0.37785 0.0
O71 O 0.44454 0.9867 0.38377 0.0
O72 O 0.46337 0.00021 0.37136 0.0
O73 O 0.48592 0.97096 0.36569 0.0
O74 O 0.46997 0.95787 0.38197 0.0
C75 C 0.43702 0.9485 0.35822 0.0
O76 O 0.46961 0.97734 0.33687 0.0
O77 O 0.44586 0.98792 0.34098 0.0
In78 In 0.26876 0.20259 0.61994 0.0
O79 O 0.28315 0.17819 0.62165 0.0
O80 O 0.29623 0.20022 0.61548 0.0
C81 C 0.24166 0.19506 0.638 0.0
C82 C 0.26133 0.20224 0.58745 0.0
C83 C 0.27796 0.23005 0.63641 0.0
O84 O 0.2556 0.18859 0.64075 0.0
O85 O 0.24131 0.20479 0.62582 0.0
O86 O 0.26984 0.23071 0.62307 0.0
O87 O 0.28134 0.21563 0.64135 0.0
C88 C 0.29685 0.18484 0.61804 0.0
O89 O 0.26588 0.2152 0.59489 0.0
O90 O 0.26023 0.18953 0.59647 0.0
In91 In 0.05243 0.02143 0.87205 0.0
O92 O 0.03785 0.01671 0.8483 0.0
O93 O 0.06407 0.01756 0.84665 0.0
C94 C 0.02225 0.02977 0.88355 0.0
C95 C 0.07171 0.04833 0.8772 0.0
C96 C 0.06255 0.99383 0.8881 0.0
O97 O 0.029 0.03732 0.87164 0.0
O98 O 0.0306 0.01793 0.8894 0.0
O99 O 0.06652 0.00819 0.89272 0.0
O100 O 0.05395 0.99338 0.8751 0.0
C101 C 0.05048 0.01579 0.83918 0.0
O102 O 0.07518 0.03738 0.86665 0.0
O103 O 0.0588 0.04548 0.88544 0.0
In104 In 0.37637 0.22752 0.19667 0.0
O105 O 0.4013 0.2272 0.20993 0.0
O106 O 0.40059 0.23631 0.18526 0.0
C107 C 0.36564 0.21727 0.2266 0.0
C108 C 0.37052 0.20294 0.17472 0.0
C109 C 0.36009 0.25579 0.18928 0.0
O110 O 0.37505 0.20854 0.21768 0.0
O111 O 0.36198 0.23119 0.22054 0.0
O112 O 0.35575 0.24188 0.18365 0.0
O113 O 0.37287 0.25546 0.19821 0.0
C114 C 0.40925 0.23312 0.19786 0.0
O115 O 0.3831 0.21213 0.17401 0.0
O116 O 0.36062 0.20642 0.18625 0.0
In117 In 0.02471 0.12751 0.44717 0.0
O118 O 0.02111 0.15243 0.45974 0.0
O119 O 0.01544 0.15081 0.4341 0.0
C120 C 0.03496 0.11166 0.4747 0.0
C121 C 0.05244 0.12956 0.42889 0.0
C122 C 0.99822 0.10834 0.44016 0.0
O123 O 0.02629 0.12465 0.4753 0.0
O124 O 0.03838 0.10674 0.4603 0.0
O125 O 0.01207 0.10641 0.43323 0.0
O126 O 0.99758 0.12033 0.4501 0.0
C127 C 0.0163 0.15981 0.44685 0.0
O128 O 0.0388 0.12507 0.42269 0.0
O129 O 0.05192 0.13312 0.44408 0.0
In130 In 0.10982 0.77106 0.70206 0.0
O131 O 0.11399 0.78442 0.67743 0.0
O132 O 0.10009 0.79665 0.69618 0.0
C133 C 0.12935 0.74467 0.69588 0.0
C134 C 0.07803 0.76092 0.70228 0.0
C135 C 0.12612 0.78338 0.72854 0.0
O136 O 0.12989 0.75771 0.6873 0.0
O137 O 0.11864 0.74478 0.70723 0.0
O138 O 0.11412 0.77349 0.72996 0.0
O139 O 0.12977 0.78709 0.71384 0.0
C140 C 0.10607 0.79719 0.68176 0.0
O141 O 0.08457 0.76851 0.71425 0.0
O142 O 0.08763 0.75814 0.69027 0.0
In143 In 0.47875 0.86172 0.95637 0.0
O144 O 0.46362 0.86625 0.93283 0.0
O145 O 0.45201 0.85415 0.95315 0.0
C146 C 0.50626 0.87941 0.94973 0.0
C147 C 0.48813 0.82972 0.95528 0.0
C148 C 0.46805 0.87904 0.9828 0.0
O149 O 0.49349 0.88011 0.94075 0.0
O150 O 0.50526 0.86946 0.96172 0.0
O151 O 0.47468 0.86495 0.98423 0.0
O152 O 0.46689 0.88428 0.96815 0.0
C153 C 0.45064 0.85974 0.93863 0.0
O154 O 0.48293 0.83652 0.96835 0.0
O155 O 0.48881 0.83913 0.94283 0.0
In156 In 0.37398 0.76914 0.29842 0.0
O157 O 0.37829 0.7843 0.32193 0.0
O158 O 0.36269 0.79454 0.3035 0.0
C159 C 0.35755 0.74176 0.30848 0.0
C160 C 0.40679 0.76301 0.29692 0.0
C161 C 0.36235 0.77733 0.26827 0.0
O162 O 0.35307 0.75618 0.31242 0.0
O163 O 0.3706 0.74115 0.29997 0.0
O164 O 0.37533 0.78374 0.2742 0.0
O165 O 0.35546 0.76675 0.27746 0.0
C166 C 0.36956 0.7964 0.31736 0.0
O167 O 0.39762 0.76262 0.2843 0.0
O168 O 0.39939 0.76634 0.31025 0.0
In169 In 0.48056 0.12378 0.54946 0.0
O170 O 0.48133 0.14872 0.53622 0.0
O171 O 0.48909 0.14797 0.56131 0.0
C172 C 0.47407 0.10687 0.52155 0.0
C173 C 0.45147 0.12395 0.56581 0.0
C174 C 0.50725 0.106 0.559 0.0
O175 O 0.48088 0.12096 0.52132 0.0
O176 O 0.4707 0.1014 0.53579 0.0
O177 O 0.49323 0.10432 0.56564 0.0
O178 O 0.50794 0.11709 0.54805 0.0
C179 C 0.48663 0.15665 0.54857 0.0
O180 O 0.46514 0.12486 0.57332 0.0
O181 O 0.45257 0.12307 0.55029 0.0
In182 In 0.11623 0.23077 0.79977 0.0
O183 O 0.09147 0.2341 0.78684 0.0
O184 O 0.09327 0.24187 0.81193 0.0
C185 C 0.13141 0.22026 0.77191 0.0
C186 C 0.11257 0.20412 0.81946 0.0
C187 C 0.13596 0.25678 0.80707 0.0
O188 O 0.11924 0.23004 0.77166 0.0
O189 O 0.13588 0.21579 0.78617 0.0
O190 O 0.13873 0.24237 0.81238 0.0
O191 O 0.12302 0.25815 0.79849 0.0
C192 C 0.08427 0.24027 0.79925 0.0
O193 O 0.11858 0.21755 0.82475 0.0
O194 O 0.10848 0.20425 0.8044 0.0
In195 In 0.01934 0.8691 0.04526 0.0
O196 O 0.03466 0.87726 0.06763 0.0
O197 O 0.04619 0.86219 0.04938 0.0
C198 C 0.99138 0.88646 0.05116 0.0
C199 C 0.01039 0.83704 0.04819 0.0
C200 C 0.03073 0.88384 0.01755 0.0
O201 O 0.00343 0.88633 0.06108 0.0
O202 O 0.99329 0.87753 0.03852 0.0
O203 O 0.02581 0.86901 0.01772 0.0
O204 O 0.02973 0.89121 0.03127 0.0
C205 C 0.04764 0.87 0.06281 0.0
O206 O 0.01269 0.84396 0.0344 0.0
O207 O 0.01231 0.84636 0.06056 0.0
In208 In 0.19919 0.37951 0.2236 0.0
O209 O 0.17419 0.37556 0.2107 0.0
O210 O 0.19501 0.3825 0.19618 0.0
C211 C 0.19379 0.35992 0.2501 0.0
C212 C 0.19683 0.41207 0.23067 0.0
C213 C 0.22826 0.36602 0.21434 0.0
O214 O 0.18686 0.35755 0.23632 0.0
O215 O 0.20299 0.37251 0.25068 0.0
O216 O 0.2275 0.37886 0.22323 0.0
O217 O 0.21443 0.36005 0.21028 0.0
C218 C 0.17986 0.37883 0.1965 0.0
O219 O 0.18601 0.40174 0.23519 0.0
O220 O 0.20886 0.40591 0.22289 0.0
In221 In 0.6998 0.11479 0.76934 0.0
O222 O 0.71259 0.09017 0.76433 0.0
O223 O 0.68658 0.09153 0.76046 0.0
C224 C 0.72628 0.13209 0.77983 0.0
C225 C 0.68301 0.11181 0.79789 0.0
C226 C 0.69211 0.13302 0.74242 0.0
O227 O 0.72774 0.11861 0.77203 0.0
O228 O 0.71159 0.13679 0.78213 0.0
O229 O 0.6842 0.1342 0.75584 0.0
O230 O 0.70346 0.12232 0.74249 0.0
C231 C 0.69948 0.08272 0.76024 0.0
O232 O 0.67617 0.11715 0.78486 0.0
O233 O 0.69804 0.10789 0.79631 0.0
In234 In 0.12841 0.45299 0.01808 0.0
O235 O 0.15345 0.46561 0.01569 0.0
O236 O 0.15162 0.44061 0.0077 0.0
C237 C 0.11126 0.47913 0.02989 0.0
C238 C 0.12998 0.43358 0.04504 0.0
C239 C 0.11077 0.44677 0.99042 0.0
O240 O 0.12418 0.48084 0.02129 0.0
O241 O 0.10703 0.46434 0.03244 0.0
O242 O 0.11029 0.43747 0.00295 0.0
O243 O 0.12051 0.45889 0.99169 0.0
C244 C 0.16072 0.45316 0.00971 0.0
O245 O 0.12281 0.42894 0.03194 0.0
O246 O 0.13649 0.44776 0.04433 0.0
In247 In 0.79967 0.87354 0.27526 0.0
O248 O 0.78651 0.89837 0.27363 0.0
O249 O 0.81142 0.89719 0.26522 0.0
C250 C 0.77114 0.85902 0.28477 0.0
C251 C 0.81964 0.87529 0.30185 0.0
C252 C 0.80744 0.8539 0.2493 0.0
O253 O 0.77169 0.86949 0.2732 0.0
O254 O 0.7849 0.85588 0.29138 0.0
O255 O 0.81043 0.8499 0.26408 0.0
O256 O 0.80096 0.86799 0.24759 0.0
C257 C 0.79871 0.90598 0.26756 0.0
O258 O 0.82492 0.87052 0.28792 0.0
O259 O 0.80457 0.87931 0.30212 0.0
In260 In 0.87614 0.05454 0.01934 0.0
O261 O 0.85227 0.03948 0.01826 0.0
O262 O 0.85084 0.06511 0.01258 0.0
C263 C 0.88781 0.02427 0.02728 0.0
C264 C 0.88055 0.07518 0.04534 0.0
C265 C 0.89285 0.06438 0.99205 0.0
O266 O 0.87863 0.03248 0.03691 0.0
O267 O 0.89078 0.0312 0.0136 0.0
O268 O 0.8979 0.0673 0.00652 0.0
O269 O 0.87911 0.05704 0.99136 0.0
C270 C 0.84325 0.05157 0.01423 0.0
O271 O 0.86924 0.07718 0.03478 0.0
O272 O 0.88998 0.06311 0.04248 0.0
In273 In 0.2946 0.62096 0.72592 0.0
O274 O 0.2829 0.59537 0.72737 0.0
O275 O 0.30764 0.59804 0.73595 0.0
C276 C 0.26677 0.63682 0.71655 0.0
C277 C 0.31346 0.62001 0.69849 0.0
C278 C 0.30109 0.63887 0.75335 0.0
O279 O 0.26641 0.6235 0.72472 0.0
O280 O 0.28108 0.64204 0.71318 0.0
O281 O 0.30758 0.64209 0.73952 0.0
O282 O 0.29176 0.62637 0.75341 0.0
C283 C 0.29551 0.5885 0.73353 0.0
O284 O 0.31931 0.62425 0.71236 0.0
O285 O 0.29832 0.6162 0.69864 0.0
In286 In 0.12797 0.55093 0.47472 0.0
O287 O 0.1518 0.53706 0.4803 0.0
O288 O 0.15101 0.56285 0.48576 0.0
C289 C 0.11707 0.52141 0.46322 0.0
C290 C 0.13004 0.57322 0.44994 0.0
C291 C 0.1068 0.55901 0.49932 0.0
O292 O 0.12129 0.52365 0.47807 0.0
O293 O 0.11861 0.53396 0.4541 0.0
O294 O 0.10237 0.55769 0.48443 0.0
O295 O 0.12204 0.55678 0.50178 0.0
C296 C 0.1594 0.54965 0.48562 0.0
O297 O 0.11804 0.57311 0.45994 0.0
O298 O 0.14082 0.56227 0.45254 0.0
In299 In 0.36877 0.45179 0.9742 0.0
O300 O 0.38427 0.43448 0.95803 0.0
O301 O 0.35811 0.43168 0.95774 0.0
C302 C 0.38723 0.44831 0.00193 0.0
C303 C 0.33622 0.4535 0.98143 0.0
C304 C 0.38013 0.47909 0.95852 0.0
O305 O 0.38253 0.43605 0.99351 0.0
O306 O 0.38245 0.4621 0.99649 0.0
O307 O 0.37158 0.47985 0.97156 0.0
O308 O 0.38261 0.46463 0.95323 0.0
C309 C 0.37191 0.42691 0.9522 0.0
O310 O 0.34268 0.46147 0.96966 0.0
O311 O 0.34621 0.4448 0.9897 0.0
In312 In 0.7225 0.70217 0.88115 0.0
O313 O 0.71716 0.71232 0.9069 0.0
O314 O 0.73571 0.69379 0.90465 0.0
C315 C 0.70857 0.731 0.87134 0.0
C316 C 0.70161 0.67654 0.87659 0.0
C317 C 0.74965 0.69829 0.86193 0.0
O318 O 0.72396 0.72927 0.87326 0.0
O319 O 0.70016 0.71832 0.87474 0.0
O320 O 0.7363 0.69066 0.85934 0.0
O321 O 0.7495 0.70744 0.87454 0.0
C322 C 0.72768 0.70331 0.9141 0.0
O323 O 0.71062 0.67789 0.88927 0.0
O324 O 0.70351 0.68786 0.866 0.0
In325 In 0.54799 0.47813 0.12761 0.0
O326 O 0.53518 0.48571 0.1516 0.0
O327 O 0.56138 0.48392 0.15182 0.0
C328 C 0.52104 0.46737 0.11121 0.0
C329 C 0.56586 0.44998 0.12674 0.0
C330 C 0.5547 0.50619 0.11081 0.0
O331 O 0.52146 0.46849 0.12679 0.0
O332 O 0.53419 0.4717 0.10396 0.0
O333 O 0.5643 0.49386 0.11069 0.0
O334 O 0.54204 0.5045 0.11979 0.0
C335 C 0.54835 0.48687 0.15988 0.0
O336 O 0.57198 0.46377 0.12262 0.0
O337 O 0.55096 0.45054 0.1313 0.0
In338 In 0.77555 0.29833 0.37216 0.0
O339 O 0.78947 0.32299 0.37013 0.0
O340 O 0.80337 0.30096 0.37383 0.0
C341 C 0.74836 0.30773 0.35519 0.0
C342 C 0.77061 0.29765 0.40515 0.0
C343 C 0.781 0.26958 0.3561 0.0
O344 O 0.7628 0.3118 0.35086 0.0
O345 O 0.74763 0.29935 0.36833 0.0
O346 O 0.7727 0.27032 0.36931 0.0
O347 O 0.78651 0.28329 0.35107 0.0
C348 C 0.80355 0.31644 0.37195 0.0
O349 O 0.77709 0.28579 0.39733 0.0
O350 O 0.76649 0.30986 0.3963 0.0
In351 In 0.94779 0.52128 0.62739 0.0
O352 O 0.9237 0.536 0.62467 0.0
O353 O 0.9456 0.54888 0.63153 0.0
C354 C 0.94059 0.49378 0.60981 0.0
C355 C 0.94702 0.51331 0.65979 0.0
C356 C 0.97502 0.53114 0.61086 0.0
O357 O 0.93299 0.50727 0.60783 0.0
O358 O 0.95139 0.494 0.62107 0.0
O359 O 0.97558 0.5263 0.62572 0.0
O360 O 0.9608 0.53088 0.60442 0.0
C361 C 0.93035 0.54966 0.62834 0.0
O362 O 0.96033 0.516 0.65208 0.0
O363 O 0.9341 0.51424 0.65106 0.0
In364 In 0.73233 0.28939 0.61203 0.0
O365 O 0.73562 0.27738 0.58676 0.0
O366 O 0.74436 0.30201 0.58986 0.0
C367 C 0.72006 0.26332 0.6289 0.0
C368 C 0.70514 0.30831 0.60882 0.0
C369 C 0.75918 0.29522 0.63095 0.0
O370 O 0.72855 0.26155 0.61588 0.0
O371 O 0.71788 0.27811 0.63332 0.0
O372 O 0.74662 0.30451 0.63115 0.0
O373 O 0.75835 0.28333 0.62089 0.0
C374 C 0.74237 0.28987 0.58023 0.0
O375 O 0.71806 0.31362 0.61587 0.0
O376 O 0.70615 0.29373 0.60335 0.0
In377 In 0.9466 0.48284 0.86815 0.0
O378 O 0.9228 0.46776 0.87101 0.0
O379 O 0.94386 0.45616 0.86022 0.0
C380 C 0.93814 0.50832 0.88811 0.0
C381 C 0.94621 0.49219 0.83611 0.0
C382 C 0.97431 0.47277 0.88384 0.0
O383 O 0.93156 0.49421 0.88923 0.0
O384 O 0.94856 0.50971 0.87659 0.0
O385 O 0.97464 0.48303 0.87207 0.0
O386 O 0.96007 0.46771 0.88768 0.0
C387 C 0.92899 0.45481 0.86478 0.0
O388 O 0.9591 0.48712 0.84331 0.0
O389 O 0.93352 0.49293 0.84519 0.0
In390 In 0.76356 0.69823 0.12131 0.0
O391 O 0.76042 0.71199 0.09704 0.0
O392 O 0.75089 0.68745 0.09847 0.0
C393 C 0.77845 0.72412 0.13635 0.0
C394 C 0.78914 0.67681 0.11962 0.0
C395 C 0.73525 0.6936 0.13849 0.0
O396 O 0.77135 0.72541 0.12251 0.0
O397 O 0.77813 0.70978 0.14251 0.0
O398 O 0.7448 0.68177 0.13492 0.0
O399 O 0.73986 0.7075 0.13316 0.0
C400 C 0.75313 0.70025 0.08975 0.0
O401 O 0.7798 0.67759 0.1321 0.0
O402 O 0.78543 0.68659 0.10806 0.0
In403 In 0.54663 0.52307 0.36736 0.0
O404 O 0.57133 0.53601 0.37268 0.0
O405 O 0.55345 0.54847 0.35788 0.0
C406 C 0.55391 0.49743 0.3876 0.0
C407 C 0.54645 0.51391 0.33534 0.0
C408 C 0.51795 0.53378 0.38089 0.0
O409 O 0.55639 0.5123 0.39162 0.0
O410 O 0.54823 0.49548 0.37322 0.0
O411 O 0.5187 0.52116 0.37174 0.0
O412 O 0.53158 0.54101 0.38308 0.0
C413 C 0.56759 0.5488 0.36448 0.0
O414 O 0.53385 0.51972 0.34251 0.0
O415 O 0.5591 0.51244 0.34441 0.0
In416 In 0.86917 0.73256 0.69364 0.0
O417 O 0.89422 0.72882 0.70608 0.0
O418 O 0.89366 0.74206 0.68334 0.0
C419 C 0.85355 0.7269 0.72253 0.0
C420 C 0.86783 0.70463 0.67537 0.0
C421 C 0.85239 0.76007 0.68464 0.0
O422 O 0.86773 0.73349 0.72194 0.0
O423 O 0.84736 0.72339 0.70864 0.0
O424 O 0.84887 0.7459 0.67912 0.0
O425 O 0.86469 0.76042 0.69421 0.0
C426 C 0.9023 0.73633 0.69502 0.0
O427 O 0.87148 0.71844 0.66904 0.0
O428 O 0.86482 0.70505 0.69064 0.0
In429 In 0.52348 0.6219 0.94236 0.0
O430 O 0.53635 0.62131 0.91707 0.0
O431 O 0.5509 0.61698 0.93849 0.0
C432 C 0.49563 0.60579 0.93325 0.0
C433 C 0.51697 0.65472 0.94408 0.0
C434 C 0.53235 0.6073 0.97103 0.0
O435 O 0.50969 0.60227 0.92746 0.0
O436 O 0.49556 0.6177 0.94335 0.0
O437 O 0.53673 0.62185 0.96734 0.0
O438 O 0.52351 0.60019 0.96029 0.0
C439 C 0.55049 0.61828 0.92297 0.0
O440 O 0.51596 0.64526 0.95644 0.0
O441 O 0.52109 0.64763 0.93082 0.0
In442 In 0.61682 0.27004 0.20086 0.0
O443 O 0.62245 0.28484 0.17739 0.0
O444 O 0.61084 0.29724 0.1975 0.0
C445 C 0.6334 0.24193 0.19365 0.0
C446 C 0.58458 0.26134 0.20016 0.0
C447 C 0.63346 0.28084 0.22769 0.0
O448 O 0.63395 0.25459 0.18453 0.0
O449 O 0.62423 0.24335 0.20619 0.0
O450 O 0.6184 0.27674 0.22827 0.0
O451 O 0.6401 0.27938 0.21365 0.0
C452 C 0.61667 0.29821 0.18305 0.0
O453 O 0.59247 0.26344 0.21346 0.0
O454 O 0.593 0.26342 0.18718 0.0
In455 In 0.98328 0.36796 0.44963 0.0
O456 O 0.96815 0.37395 0.42648 0.0
O457 O 0.95673 0.35997 0.44569 0.0
C458 C 0.01089 0.38553 0.44278 0.0
C459 C 0.99198 0.33572 0.44871 0.0
C460 C 0.97206 0.38468 0.47627 0.0
O461 O -0.00143 0.38524 0.4332 0.0
O462 O 0.0094 0.37668 0.45553 0.0
O463 O 0.97992 0.37124 0.47755 0.0
O464 O 0.96999 0.38967 0.46163 0.0
C465 C 0.95531 0.36667 0.43165 0.0
O466 O 0.98742 0.34287 0.46181 0.0
O467 O 0.99245 0.3449 0.43609 0.0
In468 In 0.87553 0.27083 0.80185 0.0
O469 O 0.88128 0.28468 0.82602 0.0
O470 O 0.86583 0.29637 0.80832 0.0
C471 C 0.85805 0.24334 0.8096 0.0
C472 C 0.90864 0.26705 0.80091 0.0
C473 C 0.86217 0.2786 0.77228 0.0
O474 O 0.85664 0.25667 0.81757 0.0
O475 O 0.86859 0.24377 0.79814 0.0
O476 O 0.87584 0.27108 0.77344 0.0
O477 O 0.85545 0.2821 0.78591 0.0
C478 C 0.87293 0.29729 0.82214 0.0
O479 O 0.90114 0.27745 0.79196 0.0
O480 O 0.89942 0.25856 0.81024 0.0
In481 In 0.97306 0.62998 0.05294 0.0
O482 O 0.95848 0.6241 0.07649 0.0
O483 O 0.94805 0.64096 0.05911 0.0
C484 C -0.00017 0.61112 0.05979 0.0
C485 C 0.98287 0.66182 0.05318 0.0
C486 C 0.96121 0.61435 0.02577 0.0
O487 O 0.98639 0.60975 0.0676 0.0
O488 O -0.00011 0.62229 0.04891 0.0
O489 O 0.97122 0.62628 0.0249 0.0
O490 O 0.95713 0.61038 0.04027 0.0
C491 C 0.94652 0.63344 0.07271 0.0
O492 O 0.97672 0.65493 0.04059 0.0
O493 O 0.98438 0.65254 0.06568 0.0
In494 In 0.61463 0.72754 0.2998 0.0
O495 O 0.58957 0.72585 0.28699 0.0
O496 O 0.59079 0.73893 0.30976 0.0
C497 C 0.62568 0.71645 0.27022 0.0
C498 C 0.61887 0.7033 0.32233 0.0
C499 C 0.63287 0.75443 0.30783 0.0
O500 O 0.62003 0.70689 0.28118 0.0
O501 O 0.62552 0.73157 0.27408 0.0
O502 O 0.63474 0.74061 0.31481 0.0
O503 O 0.62151 0.7548 0.29717 0.0
C504 C 0.58194 0.73402 0.29787 0.0
O505 O 0.60569 0.71162 0.32128 0.0
O506 O 0.63007 0.70749 0.31228 0.0
In507 In 0.52009 0.36493 0.54507 0.0
O508 O 0.51357 0.34046 0.53263 0.0
O509 O 0.51323 0.3413 0.55892 0.0
C510 C 0.52872 0.38249 0.51801 0.0
C511 C 0.54944 0.36354 0.56078 0.0
C512 C 0.49293 0.38213 0.55408 0.0
O513 O 0.52402 0.3676 0.51714 0.0
O514 O 0.529 0.38841 0.53244 0.0
O515 O 0.50653 0.38332 0.56166 0.0
O516 O 0.49291 0.37184 0.54235 0.0
C517 C 0.51133 0.33272 0.54602 0.0
O518 O 0.5365 0.36875 0.56785 0.0
O519 O 0.54743 0.35895 0.546 0.0
In520 In 0.68877 0.8742 0.73152 0.0
O521 O 0.70372 0.89799 0.73404 0.0
O522 O 0.678 0.89904 0.73947 0.0
C523 C 0.71779 0.86177 0.72067 0.0
C524 C 0.66825 0.86984 0.70541 0.0
C525 C 0.68032 0.85903 0.76012 0.0
O526 O 0.71166 0.87491 0.71484 0.0
O527 O 0.70934 0.85504 0.73194 0.0
O528 O 0.67203 0.8573 0.74699 0.0
O529 O 0.69249 0.86869 0.75886 0.0
C530 C 0.69154 0.90675 0.73835 0.0
O531 O 0.66795 0.88257 0.71439 0.0
O532 O 0.67854 0.85902 0.70989 0.0
In533 In 0.19767 0.6193 0.26746 0.0
O534 O 0.20871 0.59374 0.26378 0.0
O535 O 0.18327 0.59687 0.25785 0.0
C536 C 0.22586 0.63367 0.27808 0.0
C537 C 0.17928 0.61886 0.29527 0.0
C538 C 0.19239 0.63802 0.24027 0.0
O539 O 0.22567 0.61953 0.27146 0.0
O540 O 0.21189 0.64055 0.27918 0.0
O541 O 0.18468 0.64028 0.25365 0.0
O542 O 0.20232 0.62599 0.24044 0.0
C543 C 0.19548 0.58715 0.25876 0.0
O544 O 0.1735 0.62397 0.28167 0.0
O545 O 0.19404 0.61385 0.29464 0.0
In546 In 0.63235 0.94504 0.52186 0.0
O547 O 0.65748 0.95727 0.51838 0.0
O548 O 0.65498 0.93219 0.51082 0.0
C549 C 0.61646 0.97169 0.53438 0.0
C550 C 0.63508 0.92482 0.54819 0.0
C551 C 0.61374 0.93938 0.49466 0.0
O552 O 0.62931 0.97296 0.52561 0.0
O553 O 0.61168 0.95705 0.53683 0.0
O554 O 0.61263 0.93066 0.50756 0.0
O555 O 0.62448 0.95066 0.49535 0.0
C556 C 0.66434 0.94461 0.51234 0.0
O557 O 0.6274 0.92059 0.53524 0.0
O558 O 0.64134 0.93912 0.54774 0.0
In559 In 0.29942 0.38152 0.77519 0.0
O560 O 0.32519 0.37906 0.78685 0.0
O561 O 0.30462 0.3833 0.80266 0.0
C562 C 0.30476 0.36356 0.74758 0.0
C563 C 0.29939 0.41422 0.76828 0.0
C564 C 0.27155 0.36581 0.7847 0.0
O565 O 0.3128 0.3613 0.76077 0.0
O566 O 0.29438 0.3752 0.74817 0.0
O567 O 0.27132 0.37987 0.77787 0.0
O568 O 0.2858 0.35975 0.78672 0.0
C569 C 0.31999 0.38096 0.80145 0.0
O570 O 0.31057 0.40458 0.76317 0.0
O571 O 0.28827 0.40735 0.77681 0.0
In572 In 0.36725 0.54382 0.52013 0.0
O573 O 0.37289 0.56733 0.53485 0.0
O574 O 0.36059 0.54748 0.54707 0.0
C575 C 0.38455 0.55077 0.49238 0.0
C576 C 0.33478 0.54464 0.51232 0.0
C577 C 0.38404 0.51694 0.53062 0.0
O578 O 0.38487 0.55998 0.50497 0.0
O579 O 0.3752 0.53835 0.49365 0.0
O580 O 0.37063 0.51585 0.52268 0.0
O581 O 0.38897 0.53153 0.53314 0.0
C582 C 0.36663 0.56185 0.54809 0.0
O583 O 0.34202 0.53164 0.51704 0.0
O584 O 0.34398 0.55722 0.51127 0.0
In585 In 0.79012 0.11149 0.22078 0.0
O586 O 0.81587 0.1162 0.20995 0.0
O587 O 0.79811 0.10362 0.19512 0.0
C588 C 0.79476 0.13202 0.24672 0.0
C589 C 0.79084 0.07951 0.23026 0.0
C590 C 0.76224 0.12538 0.2086 0.0
O591 O 0.80131 0.13449 0.23276 0.0
O592 O 0.78623 0.11899 0.24769 0.0
O593 O 0.76199 0.11468 0.21997 0.0
O594 O 0.77647 0.12887 0.20328 0.0
C595 C 0.8126 0.10933 0.1963 0.0
O596 O 0.77937 0.08546 0.22149 0.0
O597 O 0.80186 0.08977 0.23445 0.0
In598 In 0.63552 0.0388 0.98251 0.0
O599 O 0.63083 0.06189 0.96686 0.0
O600 O 0.64332 0.04153 0.95573 0.0
C601 C 0.6165 0.04661 0.00886 0.0
C602 C 0.66749 0.04006 0.99211 0.0
C603 C 0.61911 0.01167 0.97207 0.0
O604 O 0.61688 0.05529 0.9959 0.0
O605 O 0.62607 0.03429 0.00871 0.0
O606 O 0.63218 0.01072 0.98058 0.0
O607 O 0.61438 0.02621 0.96894 0.0
C608 C 0.63747 0.05592 0.95403 0.0
O609 O 0.66063 0.02688 0.98733 0.0
O610 O 0.65815 0.05257 0.99232 0.0
In611 In 0.8729 0.94618 0.48095 0.0
O612 O 0.87891 0.92279 0.46611 0.0
O613 O 0.86825 0.94333 0.45352 0.0
C614 C 0.88812 0.93935 0.50992 0.0
C615 C 0.84011 0.94513 0.48725 0.0
C616 C 0.89042 0.97292 0.47136 0.0
O617 O 0.88965 0.93025 0.49732 0.0
O618 O 0.87861 0.95156 0.50799 0.0
O619 O 0.87568 0.97399 0.47647 0.0
O620 O 0.89628 0.95845 0.47128 0.0
C621 C 0.87388 0.9288 0.45258 0.0
O622 O 0.84774 0.95844 0.48437 0.0
O623 O 0.84906 0.93233 0.48722 0.0
H624 H 0.25462 0.17522 0.56834 0.0
H625 H 0.25108 0.17435 0.53824 0.0
H626 H 0.25777 0.22726 0.5358 0.0
H627 H 0.26135 0.22825 0.5659 0.0
H628 H 0.22954 0.2132 0.51714 0.0
H629 H 0.28984 0.1824 0.5044 0.0
H630 H 0.27695 0.17299 0.51993 0.0
H631 H 0.28563 0.1931 0.52358 0.0
C632 C 0.25526 0.18667 0.5614 0.0
C633 C 0.25831 0.2018 0.56944 0.0
C634 C 0.25332 0.18614 0.54423 0.0
C635 C 0.25437 0.20071 0.53486 0.0
C636 C 0.25701 0.21588 0.54287 0.0
H637 H 0.24415 0.22643 0.43124 0.0
H638 H 0.24721 0.22655 0.46134 0.0
C639 C 0.25904 0.21642 0.56003 0.0
C640 C 0.25275 0.20016 0.51666 0.0
H641 H 0.27215 0.18685 0.48158 0.0
C642 C 0.23884 0.20747 0.50932 0.0
C643 C 0.2649 0.19259 0.5066 0.0
C644 C 0.28026 0.1849 0.51394 0.0
C645 C 0.23663 0.20727 0.4921 0.0
C646 C 0.24891 0.19991 0.48199 0.0
C647 C 0.26278 0.1925 0.48937 0.0
C648 C 0.24763 0.19985 0.46371 0.0
C649 C 0.22102 0.21461 0.48494 0.0
C650 C 0.24751 0.18482 0.455 0.0
C651 C 0.24598 0.18472 0.43777 0.0
C652 C 0.24457 0.19967 0.42898 0.0
C653 C 0.24509 0.21472 0.4377 0.0
C654 C 0.24671 0.2148 0.4549 0.0
H655 H 0.21099 0.21535 0.49433 0.0
H656 H 0.22362 0.22737 0.48057 0.0
H657 H 0.2165 0.20723 0.47427 0.0
H658 H 0.24833 0.17315 0.46157 0.0
H659 H 0.24563 0.17295 0.43137 0.0
H660 H 0.07129 0.00032 0.68292 0.0
H661 H 0.07097 0.00522 0.7128 0.0
H662 H 0.01979 0.99015 0.71483 0.0
H663 H 0.02012 0.98488 0.685 0.0
H664 H 0.05174 0.02617 0.73164 0.0
H665 H 0.04111 0.96067 0.74965 0.0
H666 H 0.047 0.96662 0.72895 0.0
H667 H 0.02589 0.96883 0.73566 0.0
C668 C 0.05997 0.99806 0.68973 0.0
C669 C 0.04576 0.9921 0.68167 0.0
C670 C 0.0598 0.00087 0.70679 0.0
C671 C 0.04545 0.99776 0.71606 0.0
C672 C 0.03111 0.99225 0.70796 0.0
H673 H 0.02294 0.00897 0.82082 0.0
H674 H 0.02133 0.00498 0.79078 0.0
C675 C 0.03128 0.98935 0.69091 0.0
C676 C 0.04553 0.00037 0.7342 0.0
H677 H 0.04025 0.98058 0.77119 0.0
C678 C 0.04926 0.0162 0.74029 0.0
C679 C 0.0423 0.98732 0.74544 0.0
C680 C 0.039 0.96986 0.73964 0.0
C681 C 0.04974 0.01937 0.75736 0.0
C682 C 0.04653 0.00633 0.76856 0.0
C683 C 0.04265 0.99054 0.7625 0.0
C684 C 0.04751 0.00875 0.78665 0.0
C685 C 0.05351 0.03667 0.76331 0.0
C686 C 0.06281 0.01196 0.7942 0.0
C687 C 0.06379 0.01413 0.81131 0.0
C688 C 0.04946 0.01315 0.82114 0.0
C689 C 0.03417 0.00983 0.81355 0.0
C690 C 0.03322 0.00755 0.79642 0.0
H691 H 0.05223 0.04596 0.75326 0.0
H692 H 0.04517 0.04016 0.77367 0.0
H693 H 0.06643 0.03713 0.76795 0.0
H694 H 0.074 0.0127 0.78684 0.0
H695 H 0.07574 0.01665 0.81683 0.0
H696 H 0.24957 0.77566 0.9335 0.0
H697 H 0.2447 0.77744 0.96331 0.0
H698 H 0.24603 0.83075 0.96043 0.0
H699 H 0.25059 0.82907 0.93052 0.0
H700 H 0.26561 0.79143 0.98615 0.0
H701 H 0.20438 0.82264 0.98758 0.0
H702 H 0.21268 0.81331 0.96905 0.0
H703 H 0.21979 0.83334 0.97566 0.0
C704 C 0.24861 0.78777 0.93918 0.0
C705 C 0.25042 0.80223 0.92969 0.0
C706 C 0.24585 0.78876 0.95621 0.0
C707 C 0.24482 0.80423 0.96405 0.0
C708 C 0.24643 0.8187 0.95457 0.0
H709 H 0.23849 0.8323 0.06802 0.0
H710 H 0.2419 0.83233 0.03785 0.0
C711 C 0.24912 0.81772 0.93751 0.0
C712 C 0.24305 0.80511 0.98227 0.0
H713 H 0.21831 0.81965 0.01331 0.0
C714 C 0.25524 0.79755 0.99208 0.0
C715 C 0.22955 0.81318 0.98996 0.0
C716 C 0.21576 0.82096 0.98004 0.0
C717 C 0.25433 0.79789 0.00941 0.0
C718 C 0.24079 0.80586 0.01708 0.0
C719 C 0.22869 0.81359 0.00732 0.0
C720 C 0.23876 0.80586 0.03526 0.0
C721 C 0.26793 0.78988 0.01939 0.0
C722 C 0.23573 0.79098 0.04368 0.0
C723 C 0.23375 0.79093 0.06084 0.0
C724 C 0.23476 0.80576 0.06986 0.0
C725 C 0.23773 0.82067 0.06139 0.0
C726 C 0.23963 0.82072 0.04418 0.0
H727 H 0.27922 0.78769 0.01184 0.0
H728 H 0.27129 0.79767 0.0302 0.0
H729 H 0.26354 0.77774 0.0241 0.0
H730 H 0.2348 0.77943 0.03694 0.0
H731 H 0.2314 0.77926 0.06702 0.0
H732 H 0.43243 0.0016 0.31535 0.0
H733 H 0.4307 0.00903 0.28602 0.0
H734 H 0.47957 0.98911 0.278 0.0
H735 H 0.48132 0.98143 0.30726 0.0
H736 H 0.45103 0.02934 0.26644 0.0
H737 H 0.45081 0.96426 0.24424 0.0
H738 H 0.44742 0.96967 0.26565 0.0
H739 H 0.46804 0.96948 0.25729 0.0
C740 C 0.44283 -0.00114 0.30735 0.0
C741 C 0.45696 0.99082 0.31355 0.0
C742 C 0.44183 0.00312 0.29062 0.0
C743 C 0.4549 -0.00062 0.27983 0.0
C744 C 0.46923 0.99181 0.28609 0.0
H745 H 0.46918 0.03528 0.17942 0.0
H746 H 0.47106 0.03011 0.20921 0.0
C747 C 0.47023 0.98751 0.3028 0.0
C748 C 0.45341 0.00317 0.26198 0.0
H749 H 0.45257 0.9852 0.22377 0.0
C750 C 0.45135 0.01972 0.25708 0.0
C751 C 0.45359 0.99053 0.24987 0.0
C752 C 0.45493 0.97247 0.25448 0.0
C753 C 0.44969 0.02399 0.24033 0.0
C754 C 0.45034 0.01139 0.22819 0.0
C755 C 0.4522 0.99484 0.23312 0.0
C756 C 0.44894 0.01503 0.2103 0.0
C757 C 0.44695 0.0419 0.23577 0.0
C758 C 0.43604 0.00804 0.20101 0.0
C759 C 0.435 0.01087 0.184 0.0
C760 C 0.4469 0.02069 0.17596 0.0
C761 C 0.45978 0.02774 0.18529 0.0
C762 C 0.46082 0.02488 0.20232 0.0
H763 H 0.44255 0.04928 0.24651 0.0
H764 H 0.45882 0.04733 0.23148 0.0
H765 H 0.4378 0.04305 0.22559 0.0
H766 H 0.42679 0.00035 0.20695 0.0
H767 H 0.42495 0.00527 0.17712 0.0
H768 H 0.56433 0.25964 0.17319 0.0
H769 H 0.53447 0.25439 0.17288 0.0
H770 H 0.53473 0.24896 0.22597 0.0
H771 H 0.56459 0.25423 0.22642 0.0
H772 H 0.51678 0.22335 0.20658 0.0
H773 H 0.4992 0.28818 0.19127 0.0
H774 H 0.51489 0.27891 0.17848 0.0
H775 H 0.51911 0.28284 0.19993 0.0
C776 C 0.55804 0.25726 0.18479 0.0
C777 C 0.56676 0.2574 0.19984 0.0
C778 C 0.541 0.25434 0.18459 0.0
C779 C 0.53245 0.25148 0.19942 0.0
C780 C 0.54116 0.25122 0.21442 0.0
H781 H 0.43006 0.2292 0.22418 0.0
H782 H 0.46004 0.2335 0.22475 0.0
C783 C 0.55818 0.25424 0.21465 0.0
C784 C 0.51436 0.24886 0.1993 0.0
H785 H 0.47768 0.26841 0.19192 0.0
C786 C 0.50818 0.23317 0.20343 0.0
C787 C 0.50329 0.26174 0.19514 0.0
C788 C 0.50937 0.27893 0.19106 0.0
C789 C 0.49112 0.22992 0.20321 0.0
C790 C 0.48001 0.24284 0.19913 0.0
C791 C 0.48623 0.25854 0.19504 0.0
C792 C 0.46186 0.24033 0.1989 0.0
C793 C 0.4852 0.21259 0.20693 0.0
C794 C 0.45288 0.24324 0.18432 0.0
C795 C 0.43575 0.241 0.18401 0.0
C796 C 0.4273 0.23582 0.1983 0.0
C797 C 0.43627 0.23309 0.21295 0.0
C798 C 0.4534 0.23543 0.21327 0.0
H799 H 0.49524 0.20333 0.2053 0.0
H800 H 0.48098 0.21197 0.21999 0.0
H801 H 0.47466 0.20912 0.19884 0.0
H802 H 0.45917 0.24713 0.17313 0.0
H803 H 0.42915 0.24322 0.17256 0.0
H804 H 0.99405 0.31422 0.47463 0.0
H805 H -0.00136 0.28431 0.47349 0.0
H806 H 0.00198 0.2868 0.42025 0.0
H807 H 0.99781 0.31679 0.42134 0.0
H808 H 0.97935 0.26122 0.45843 0.0
H809 H 0.04261 0.25983 0.43167 0.0
H810 H 0.03349 0.27848 0.43992 0.0
H811 H 0.02804 0.2714 0.41953 0.0
C812 C 0.99596 0.30842 0.4627 0.0
C813 C 0.99565 0.31783 0.44808 0.0
C814 C -0.00145 0.29134 0.46206 0.0
C815 C 0.00086 0.28336 0.44681 0.0
C816 C 0.00061 0.29275 0.43219 0.0
H817 H 0.00982 0.17926 0.41995 0.0
H818 H 0.00528 0.20929 0.41959 0.0
C819 C 0.99814 0.30986 0.43282 0.0
C820 C 0.00274 0.26512 0.44621 0.0
H821 H 0.0285 0.23408 0.43356 0.0
C822 C 0.99013 0.25529 0.45305 0.0
C823 C 0.01679 0.25742 0.43913 0.0
C824 C 0.03108 0.26731 0.43228 0.0
C825 C 0.99115 0.23796 0.45292 0.0
C826 C 0.00519 0.2303 0.44587 0.0
C827 C 0.01773 0.24007 0.43888 0.0
C828 C 0.00734 0.21214 0.44613 0.0
C829 C 0.97717 0.22794 0.4602 0.0
C830 C 0.01002 0.20391 0.46117 0.0
C831 C 0.01269 0.18684 0.46141 0.0
C832 C 0.01268 0.17771 0.4466 0.0
C833 C 0.00982 0.18597 0.43156 0.0
C834 C 0.00727 0.20309 0.43132 0.0
H835 H 0.9658 0.23549 0.46193 0.0
H836 H 0.97419 0.2172 0.45215 0.0
H837 H 0.981 0.22308 0.47246 0.0
H838 H 0.01032 0.21075 0.4727 0.0
H839 H 0.01491 0.18081 0.47318 0.0
H840 H 0.06098 0.74532 0.67759 0.0
H841 H 0.03111 0.7402 0.67627 0.0
H842 H 0.02519 0.76162 0.7248 0.0
H843 H 0.05498 0.7669 0.72618 0.0
H844 H 0.00984 0.722 0.69811 0.0
H845 H 0.9937 0.78878 0.69477 0.0
H846 H 0.0144 0.78119 0.69112 0.0
H847 H 0.00675 0.78318 0.7119 0.0
C848 C 0.05332 0.74884 0.68802 0.0
C849 C 0.06028 0.75661 0.70194 0.0
C850 C 0.03629 0.7459 0.68725 0.0
C851 C 0.02596 0.75077 0.70033 0.0
C852 C 0.03294 0.75803 0.71446 0.0
H853 H 0.9234 0.72496 0.71883 0.0
H854 H 0.95354 0.72799 0.71976 0.0
C855 C 0.04996 0.76096 0.71526 0.0
C856 C 0.00784 0.74856 0.69908 0.0
H857 H 0.97143 0.76995 0.69795 0.0
C858 C 0.00141 0.73246 0.69804 0.0
C859 C 0.99695 0.76226 0.69875 0.0
C860 C 0.00325 0.77985 0.69904 0.0
C861 C 0.98429 0.72968 0.697 0.0
C862 C 0.97337 0.74338 0.69721 0.0
C863 C 0.97984 0.75948 0.69794 0.0
C864 C 0.95519 0.74131 0.69657 0.0
C865 C 0.97803 0.71215 0.69546 0.0
C866 C 0.94612 0.74813 0.68342 0.0
C867 C 0.92891 0.74651 0.68291 0.0
C868 C 0.92048 0.73813 0.69561 0.0
C869 C 0.92958 0.73142 0.70884 0.0
C870 C 0.94679 0.73304 0.70933 0.0
H871 H 0.98793 0.70355 0.6913 0.0
H872 H 0.97356 0.70786 0.70772 0.0
H873 H 0.96755 0.71144 0.6866 0.0
H874 H 0.95238 0.75464 0.6735 0.0
H875 H 0.92222 0.75182 0.67257 0.0
H876 H 0.4871 0.80702 0.98029 0.0
H877 H 0.4928 0.77731 0.97847 0.0
H878 H 0.50443 0.78262 0.92664 0.0
H879 H 0.49859 0.81231 0.92831 0.0
H880 H 0.48207 0.75687 0.93372 0.0
H881 H 0.53763 0.75369 0.97407 0.0
H882 H 0.52009 0.76381 0.98325 0.0
H883 H 0.53003 0.77291 0.96555 0.0
C884 C 0.49102 0.80188 0.96854 0.0
C885 C 0.49244 0.81198 0.95444 0.0
C886 C 0.49435 0.78493 0.96755 0.0
C887 C 0.49923 0.77783 0.95247 0.0
C888 C 0.50075 0.7879 0.9384 0.0
H889 H 0.5192 0.67748 0.91923 0.0
H890 H 0.51471 0.70739 0.92113 0.0
C891 C 0.49744 0.80485 0.93939 0.0
C892 C 0.502 0.75977 0.95118 0.0
H893 H 0.52578 0.72808 0.96585 0.0
C894 C 0.49169 0.75057 0.94066 0.0
C895 C 0.5145 0.75162 0.96032 0.0
C896 C 0.52631 0.761 0.97133 0.0
C897 C 0.49336 0.73334 0.93925 0.0
C898 C 0.50587 0.72518 0.94838 0.0
C899 C 0.51619 0.73439 0.95889 0.0
C900 C 0.50848 0.70709 0.94718 0.0
C901 C 0.48149 0.72397 0.92828 0.0
C902 C 0.50678 0.69708 0.96128 0.0
C903 C 0.50942 0.68002 0.96025 0.0
C904 C 0.51388 0.6727 0.94511 0.0
C905 C 0.51566 0.68277 0.93103 0.0
C906 C 0.51303 0.69983 0.93208 0.0
H907 H 0.47017 0.73131 0.92557 0.0
H908 H 0.48765 0.72114 0.91634 0.0
H909 H 0.47775 0.71208 0.93409 0.0
H910 H 0.50335 0.70248 0.97306 0.0
H911 H 0.50802 0.67257 0.97131 0.0
H912 H 0.56233 0.74842 0.32128 0.0
H913 H 0.53245 0.75323 0.31988 0.0
H914 H 0.53131 0.73237 0.27074 0.0
H915 H 0.56111 0.72716 0.27221 0.0
H916 H 0.51441 0.77203 0.29813 0.0
H917 H 0.49551 0.70605 0.29412 0.0
H918 H 0.51622 0.71227 0.29973 0.0
H919 H 0.50989 0.71233 0.27839 0.0
C920 C 0.5557 0.74482 0.3102 0.0
C921 C 0.564 0.73731 0.2969 0.0
C922 C 0.53865 0.74759 0.30941 0.0
C923 C 0.52963 0.74289 0.29532 0.0
C924 C 0.53797 0.73571 0.28189 0.0
H925 H 0.42513 0.75321 0.27025 0.0
H926 H 0.45514 0.74869 0.26918 0.0
C927 C 0.555 0.73284 0.28271 0.0
C928 C 0.51154 0.74575 0.29466 0.0
H929 H 0.47433 0.72608 0.29068 0.0
C930 C 0.50564 0.76199 0.29653 0.0
C931 C 0.50015 0.7326 0.29255 0.0
C932 C 0.50572 0.71481 0.29123 0.0
C933 C 0.48864 0.76544 0.29629 0.0
C934 C 0.47729 0.7523 0.29426 0.0
C935 C 0.48314 0.7361 0.29218 0.0
C936 C 0.45923 0.75507 0.29486 0.0
C937 C 0.4829 0.78313 0.29809 0.0
C938 C 0.45168 0.75992 0.3097 0.0
C939 C 0.4346 0.76241 0.31038 0.0
C940 C 0.4248 0.76009 0.2962 0.0
C941 C 0.43239 0.75512 0.28135 0.0
C942 C 0.44949 0.75253 0.28072 0.0
H943 H 0.49311 0.79208 0.2959 0.0
H944 H 0.47266 0.78585 0.28934 0.0
H945 H 0.47818 0.78506 0.31085 0.0
H946 H 0.45901 0.76171 0.32079 0.0
H947 H 0.42908 0.76621 0.32199 0.0
H948 H 0.50908 0.31288 0.57328 0.0
H949 H 0.50435 0.28293 0.57397 0.0
H950 H 0.50045 0.28221 0.52075 0.0
H951 H 0.50517 0.31216 0.51993 0.0
H952 H 0.47487 0.26388 0.53927 0.0
H953 H 0.53933 0.24814 0.55773 0.0
H954 H 0.52908 0.26364 0.57001 0.0
H955 H 0.53388 0.26788 0.54873 0.0
C956 C 0.50714 0.30636 0.56173 0.0
C957 C 0.50756 0.31484 0.54654 0.0
C958 C 0.50451 0.28926 0.56215 0.0
C959 C 0.50226 0.28039 0.5474 0.0
C960 C 0.50224 0.28887 0.53225 0.0
H961 H 0.48376 0.17751 0.52215 0.0
H962 H 0.48742 0.20758 0.52188 0.0
C963 C 0.50495 0.30595 0.53181 0.0
C964 C 0.50006 0.26223 0.54775 0.0
H965 H 0.52018 0.22611 0.55643 0.0
C966 C 0.48476 0.25558 0.54298 0.0
C967 C 0.513 0.25152 0.55266 0.0
C968 C 0.52981 0.25807 0.55747 0.0
C969 C 0.48195 0.23843 0.54321 0.0
C970 C 0.49495 0.22768 0.54796 0.0
C971 C 0.51025 0.23437 0.55278 0.0
C972 C 0.49296 0.20944 0.54803 0.0
C973 C 0.46498 0.23203 0.53874 0.0
C974 C 0.49543 0.20045 0.56269 0.0
C975 C 0.49356 0.18325 0.56283 0.0
C976 C 0.48921 0.17475 0.5483 0.0
C977 C 0.48701 0.18375 0.53357 0.0
C978 C 0.48897 0.20093 0.53342 0.0
H979 H 0.45538 0.2418 0.53999 0.0
H980 H 0.46504 0.22785 0.52566 0.0
H981 H 0.46146 0.22136 0.54666 0.0
H982 H 0.49863 0.20677 0.57407 0.0
H983 H 0.49534 0.17664 0.57436 0.0
H984 H 0.92726 0.24626 0.81984 0.0
H985 H 0.95735 0.243 0.81958 0.0
H986 H 0.96111 0.27972 0.78099 0.0
H987 H 0.93099 0.28324 0.78135 0.0
H988 H 0.97733 0.23322 0.79367 0.0
H989 H 0.99442 0.29614 0.81541 0.0
H990 H 0.97365 0.28806 0.81707 0.0
H991 H 0.98109 0.29591 0.79762 0.0
C992 C 0.9345 0.25369 0.81134 0.0
C993 C 0.9268 0.26505 0.80065 0.0
C994 C 0.95167 0.25181 0.81121 0.0
C995 C 0.96146 0.26128 0.80044 0.0
C996 C 0.9538 0.27254 0.78964 0.0
H997 H 0.06296 0.23861 0.77315 0.0
H998 H 0.03321 0.24426 0.77324 0.0
C999 C 0.9366 0.27446 0.78979 0.0
C1000 C 0.97963 0.25896 0.80019 0.0
H1001 H 0.0164 0.27893 0.80617 0.0
C1002 C 0.98589 0.2432 0.79642 0.0
C1003 C 0.99072 0.27197 0.80399 0.0
C1004 C 0.98467 0.28894 0.8089 0.0
C1005 C 0.00296 0.24012 0.79618 0.0
C1006 C 0.01407 0.25324 0.7995 0.0
C1007 C 0.00783 0.26896 0.80346 0.0
C1008 C 0.03222 0.25076 0.7992 0.0
C1009 C 0.00895 0.22276 0.79268 0.0
C1010 C 0.04159 0.25313 0.81363 0.0
C1011 C 0.05861 0.25003 0.81359 0.0
C1012 C 0.06652 0.24458 0.79909 0.0
C1013 C 0.05718 0.24269 0.78454 0.0
C1014 C 0.04018 0.24583 0.78459 0.0
H1015 H -0.001 0.21345 0.79459 0.0
H1016 H 0.01305 0.22195 0.7796 0.0
H1017 H 0.01961 0.21951 0.80072 0.0
H1018 H 0.03566 0.25702 0.82501 0.0
H1019 H 0.06551 0.25163 0.82498 0.0
H1020 H 0.98246 0.68331 0.02724 0.0
H1021 H 0.98767 0.7131 0.02784 0.0
H1022 H 0.99732 0.71045 0.08029 0.0
H1023 H 0.99245 0.68051 0.07971 0.0
H1024 H 0.9703 0.73625 0.04564 0.0
H1025 H 0.03671 0.73702 0.06349 0.0
H1026 H 0.02644 0.71854 0.05626 0.0
H1027 H 0.0236 0.72544 0.07721 0.0
C1028 C 0.98589 0.68903 0.03887 0.0
C1029 C 0.98709 0.6796 0.05342 0.0
C1030 C 0.98883 0.70605 0.03919 0.0
C1031 C 0.99304 0.71395 0.05406 0.0
C1032 C 0.99442 0.70454 0.06861 0.0
H1033 H 0.00852 0.81858 0.07647 0.0
H1034 H 0.0035 0.78872 0.07869 0.0
C1035 C 0.99156 0.68747 0.06828 0.0
C1036 C 0.99516 0.73216 0.05438 0.0
H1037 H 0.02298 0.76293 0.06248 0.0
C1038 C 0.98182 0.74208 0.04931 0.0
C1039 C 0.01018 0.73972 0.05925 0.0
C1040 C 0.02512 0.72966 0.06423 0.0
C1041 C 0.98312 0.75939 0.04892 0.0
C1042 C 0.99818 0.76692 0.05359 0.0
C1043 C 0.01143 0.75705 0.05895 0.0
C1044 C 0.00065 0.785 0.05233 0.0
C1045 C 0.96834 0.7695 0.0436 0.0
C1046 C 0.00075 0.7927 0.03678 0.0
C1047 C 0.00365 0.80969 0.03546 0.0
C1048 C 0.00651 0.81925 0.0497 0.0
C1049 C 0.00627 0.81153 0.0653 0.0
C1050 C 0.00346 0.7945 0.06659 0.0
H1051 H 0.95668 0.76224 0.04424 0.0
H1052 H 0.96702 0.78072 0.05142 0.0
H1053 H 0.97011 0.77358 0.0306 0.0
H1054 H -0.00117 0.78551 0.02562 0.0
H1055 H 0.00383 0.81529 0.02328 0.0
H1056 H 0.21733 0.43644 0.21969 0.0
H1057 H 0.21489 0.46623 0.22447 0.0
H1058 H 0.17067 0.45814 0.25325 0.0
H1059 H 0.17301 0.42822 0.24853 0.0
H1060 H 0.18652 0.4874 0.21651 0.0
H1061 H 0.20258 0.48586 0.28353 0.0
H1062 H 0.20746 0.46902 0.26966 0.0
H1063 H 0.1866 0.47194 0.27669 0.0
C1064 C 0.20711 0.44098 0.22709 0.0
C1065 C 0.1954 0.43001 0.23381 0.0
C1066 C 0.20571 0.45799 0.22974 0.0
C1067 C 0.19267 0.46432 0.23928 0.0
C1068 C 0.18091 0.45344 0.24598 0.0
H1069 H 0.16833 0.56977 0.24832 0.0
H1070 H 0.16647 0.53988 0.24323 0.0
C1071 C 0.18225 0.43639 0.24326 0.0
C1072 C 0.19152 0.48234 0.24219 0.0
H1073 H 0.19627 0.51189 0.27197 0.0
C1074 C 0.18853 0.49279 0.22864 0.0
C1075 C 0.19429 0.48924 0.25801 0.0
C1076 C 0.19803 0.47851 0.27284 0.0
C1077 C 0.18837 0.51007 0.23049 0.0
C1078 C 0.19119 0.51697 0.24631 0.0
C1079 C 0.19403 0.5065 0.25988 0.0
C1080 C 0.1922 0.53506 0.24892 0.0
C1081 C 0.18573 0.52083 0.21545 0.0
C1082 C 0.20723 0.54215 0.25391 0.0
C1083 C 0.20832 0.55913 0.25684 0.0
C1084 C 0.19435 0.56933 0.25491 0.0
C1085 C 0.1793 0.56222 0.24983 0.0
C1086 C 0.17823 0.54519 0.24687 0.0
H1087 H 0.18676 0.51368 0.20375 0.0
H1088 H 0.17317 0.52637 0.216 0.0
H1089 H 0.19486 0.5311 0.21519 0.0
H1090 H 0.21813 0.53451 0.25557 0.0
H1091 H 0.22007 0.56424 0.26077 0.0
H1092 H 0.72576 0.06168 0.75748 0.0
H1093 H 0.72499 0.03179 0.75254 0.0
H1094 H 0.67168 0.03353 0.74999 0.0
H1095 H 0.67238 0.06344 0.75455 0.0
H1096 H 0.71043 0.00828 0.77184 0.0
H1097 H 0.68295 0.00708 0.70898 0.0
H1098 H 0.69119 0.02573 0.71811 0.0
H1099 H 0.6708 0.01862 0.72355 0.0
C1100 C 0.71389 0.05571 0.75566 0.0
C1101 C 0.69913 0.06488 0.75633 0.0
C1102 C 0.71348 0.03865 0.75286 0.0
C1103 C 0.6983 0.03048 0.75066 0.0
C1104 C 0.68355 0.03964 0.75125 0.0
H1105 H 0.6665 0.92856 0.74445 0.0
H1106 H 0.66864 0.95863 0.74781 0.0
C1107 C 0.68396 0.05671 0.75395 0.0
C1108 C 0.69784 0.01226 0.74867 0.0
H1109 H 0.68381 0.98135 0.7235 0.0
C1110 C 0.70474 0.00239 0.7612 0.0
C1111 C 0.69041 0.00462 0.73478 0.0
C1112 C 0.68356 0.01456 0.72051 0.0
C1113 C 0.70407 0.98505 0.7604 0.0
C1114 C 0.69639 0.97746 0.74666 0.0
C1115 C 0.6896 0.98729 0.73406 0.0
C1116 C 0.69526 0.95927 0.74512 0.0
C1117 C 0.71123 0.97497 0.77439 0.0
C1118 C 0.70955 0.94978 0.74248 0.0
C1119 C 0.70837 0.93264 0.7405 0.0
C1120 C 0.69288 0.92475 0.74116 0.0
C1121 C 0.67861 0.9343 0.74395 0.0
C1122 C 0.67979 0.95145 0.74583 0.0
H1123 H 0.71386 0.98267 0.78547 0.0
H1124 H 0.70262 0.96486 0.77796 0.0
H1125 H 0.723 0.96921 0.77026 0.0
H1126 H 0.72158 0.95566 0.74171 0.0
H1127 H 0.71957 0.92559 0.73831 0.0
H1128 H 0.17962 0.42716 -0.00079 0.0
H1129 H 0.2096 0.42687 0.99462 0.0
H1130 H 0.21207 0.47874 0.00707 0.0
H1131 H 0.18221 0.47906 0.01196 0.0
H1132 H 0.22896 0.44491 0.97293 0.0
H1133 H 0.24631 0.45824 0.03799 0.0
H1134 H 0.22565 0.45215 0.03206 0.0
H1135 H 0.23238 0.4732 0.02929 0.0
C1136 C 0.18656 0.4385 0.00094 0.0
C1137 C 0.17861 0.4531 0.00605 0.0
C1138 C 0.20367 0.43832 -0.00168 0.0
C1139 C 0.21307 0.45271 0.00081 0.0
C1140 C 0.20509 0.46741 0.00546 0.0
H1141 H 0.31267 0.47208 0.96594 0.0
H1142 H 0.28277 0.47165 0.9707 0.0
C1143 C 0.18802 0.46759 0.00815 0.0
C1144 C 0.23124 0.45239 -0.0016 0.0
H1145 H 0.26793 0.45966 0.01804 0.0
C1146 C 0.2375 0.44806 0.9828 0.0
C1147 C 0.24234 0.45627 0.01138 0.0
C1148 C 0.23637 0.46007 0.02867 0.0
C1149 C 0.25459 0.44785 0.97971 0.0
C1150 C 0.26565 0.45239 0.9925 0.0
C1151 C 0.2594 0.45638 0.0082 0.0
C1152 C 0.28378 0.45297 0.98988 0.0
C1153 C 0.26063 0.44251 0.96286 0.0
C1154 C 0.2943 0.44303 -0.0005 0.0
C1155 C 0.3114 0.44339 0.99693 0.0
C1156 C 0.31825 0.45372 0.98473 0.0
C1157 C 0.30772 0.46391 0.97535 0.0
C1158 C 0.29064 0.4636 0.97797 0.0
H1159 H 0.25114 0.43516 0.95616 0.0
H1160 H 0.26344 0.45365 0.95533 0.0
H1161 H 0.2721 0.435 0.96387 0.0
H1162 H 0.28925 0.43483 0.00883 0.0
H1163 H 0.31922 0.43541 0.00435 0.0
H1164 H 0.81406 0.06405 0.24932 0.0
H1165 H 0.81589 0.03447 0.25578 0.0
H1166 H 0.77125 0.02553 0.22792 0.0
H1167 H 0.76937 0.05505 0.22132 0.0
H1168 H 0.79219 0.01382 0.27194 0.0
H1169 H 0.80559 0.99323 0.20772 0.0
H1170 H 0.80766 0.01452 0.21423 0.0
H1171 H 0.78756 0.00608 0.20985 0.0
C1172 C 0.80463 0.05578 0.24459 0.0
C1173 C 0.79161 0.06183 0.23476 0.0
C1174 C 0.80569 0.03892 0.2483 0.0
C1175 C 0.79384 0.02784 0.24212 0.0
C1176 C 0.78067 0.03388 0.23256 0.0
H1177 H 0.77299 0.92727 0.27234 0.0
H1178 H 0.77223 0.95696 0.2664 0.0
C1179 C 0.77957 0.05074 0.22888 0.0
C1180 C 0.7952 0.00995 0.24575 0.0
H1181 H 0.80015 0.97218 0.2275 0.0
C1182 C 0.79398 0.0047 0.26226 0.0
C1183 C 0.79774 0.99816 0.23308 0.0
C1184 C 0.79987 0.00323 0.21523 0.0
C1185 C 0.79489 0.98785 0.2664 0.0
C1186 C 0.7969 0.97602 0.25366 0.0
C1187 C 0.79847 0.9813 0.2372 0.0
C1188 C 0.79735 0.95806 0.25717 0.0
C1189 C 0.79387 0.98287 0.28437 0.0
C1190 C 0.8116 0.94881 0.25358 0.0
C1191 C 0.81205 0.93183 0.2569 0.0
C1192 C 0.7982 0.92384 0.26375 0.0
C1193 C 0.78387 0.93311 0.26712 0.0
C1194 C 0.78344 0.95008 0.26383 0.0
H1195 H 0.79646 0.99346 0.29275 0.0
H1196 H 0.78121 0.97831 0.28708 0.0
H1197 H 0.80274 0.97274 0.28717 0.0
H1198 H 0.82242 0.95476 0.24834 0.0
H1199 H 0.82325 0.92499 0.25414 0.0
H1200 H 0.68936 0.01445 0.99443 0.0
H1201 H 0.71914 0.01607 -0.00026 0.0
H1202 H 0.71559 0.06921 0.00376 0.0
H1203 H 0.68576 0.06765 -0.00114 0.0
H1204 H 0.74218 0.03175 0.98107 0.0
H1205 H 0.74231 0.05787 0.04451 0.0
H1206 H 0.72393 0.04935 0.0351 0.0
H1207 H 0.73056 0.07003 0.03012 0.0
C1208 C 0.6949 0.02646 0.99666 0.0
C1209 C 0.68525 0.04092 0.9963 0.0
C1210 C 0.7119 0.02736 -0.00033 0.0
C1211 C 0.71955 0.04273 0.00238 0.0
C1212 C 0.7099 0.05718 0.00211 0.0
H1213 H 0.82101 0.07641 0.00888 0.0
H1214 H 0.79092 0.07392 0.0059 0.0
C1215 C 0.69287 0.05628 -0.00079 0.0
C1216 C 0.73774 0.0437 0.00449 0.0
H1217 H 0.76816 0.05787 0.0302 0.0
C1218 C 0.74786 0.03733 0.99188 0.0
C1219 C 0.74511 0.05102 0.01859 0.0
C1220 C 0.73493 0.05731 0.03293 0.0
C1221 C 0.76516 0.03837 0.99284 0.0
C1222 C 0.77249 0.04587 0.00682 0.0
C1223 C 0.76242 0.05219 0.01947 0.0
C1224 C 0.79064 0.04727 0.00852 0.0
C1225 C 0.77551 0.03173 0.97878 0.0
C1226 C 0.80033 0.0331 0.01106 0.0
C1227 C 0.81748 0.03448 0.01282 0.0
C1228 C 0.82518 0.05006 0.01203 0.0
C1229 C 0.81541 0.06424 0.00947 0.0
C1230 C 0.79826 0.06285 0.00781 0.0
H1231 H 0.76795 0.02909 0.9676 0.0
H1232 H 0.7854 0.04067 0.97543 0.0
H1233 H 0.78157 0.02005 0.98274 0.0
H1234 H 0.79461 0.02099 0.0118 0.0
H1235 H 0.82469 0.02336 0.01484 0.0
H1236 H 0.27695 0.43716 0.77865 0.0
H1237 H 0.27664 0.46681 0.7725 0.0
H1238 H 0.32127 0.46143 0.74372 0.0
H1239 H 0.32161 0.43169 0.74971 0.0
H1240 H 0.3014 0.49059 0.77959 0.0
H1241 H 0.2889 0.48538 0.71215 0.0
H1242 H 0.28577 0.46838 0.72632 0.0
H1243 H 0.30628 0.47359 0.71948 0.0
C1244 C 0.28667 0.44228 0.77097 0.0
C1245 C 0.29927 0.43211 0.76459 0.0
C1246 C 0.28649 0.45921 0.7675 0.0
C1247 C 0.29882 0.46624 0.75751 0.0
C1248 C 0.3115 0.45616 0.75123 0.0
H1249 H 0.32119 0.57106 0.7469 0.0
H1250 H 0.32215 0.54137 0.75295 0.0
C1251 C 0.31171 0.43922 0.75472 0.0
C1252 C 0.2985 0.48419 0.75389 0.0
H1253 H 0.29465 0.51221 0.7225 0.0
C1254 C 0.29993 0.49534 0.76712 0.0
C1255 C 0.29639 0.49029 0.73763 0.0
C1256 C 0.2941 0.47882 0.72306 0.0
C1257 C 0.29946 0.51251 0.7645 0.0
C1258 C 0.2977 0.51861 0.74819 0.0
C1259 C 0.29612 0.50745 0.73498 0.0
C1260 C 0.29716 0.53656 0.7446 0.0
C1261 C 0.30053 0.52396 0.77921 0.0
C1262 C 0.2829 0.54359 0.73762 0.0
C1263 C 0.28233 0.56051 0.7341 0.0
C1264 C 0.29607 0.57065 0.73741 0.0
C1265 C 0.31038 0.56356 0.7443 0.0
C1266 C 0.31094 0.54663 0.74783 0.0
H1267 H 0.29793 0.51739 0.79101 0.0
H1268 H 0.3132 0.52919 0.77995 0.0
H1269 H 0.29168 0.53441 0.77793 0.0
H1270 H 0.27218 0.53598 0.73498 0.0
H1271 H 0.27115 0.56562 0.72875 0.0
H1272 H 0.31324 0.51869 0.51147 0.0
H1273 H 0.28327 0.51973 0.50715 0.0
H1274 H 0.28575 0.57277 0.50167 0.0
H1275 H 0.31579 0.57186 0.50592 0.0
H1276 H 0.2607 0.55915 0.52524 0.0
H1277 H 0.25881 0.53104 0.4624 0.0
H1278 H 0.27107 0.52041 0.47766 0.0
H1279 H 0.27723 0.54061 0.47075 0.0
C1280 C 0.30743 0.53056 0.50923 0.0
C1281 C 0.31684 0.54519 0.50898 0.0
C1282 C 0.29033 0.53112 0.50673 0.0
C1283 C 0.28239 0.54631 0.50399 0.0
C1284 C 0.29173 0.56094 0.50372 0.0
H1285 H 0.17954 0.57575 0.49295 0.0
H1286 H 0.20934 0.57503 0.49825 0.0
C1287 C 0.30885 0.56038 0.5061 0.0
C1288 C 0.26425 0.54693 0.50185 0.0
H1289 H 0.23316 0.53575 0.4756 0.0
C1290 C 0.25463 0.55411 0.51438 0.0
C1291 C 0.25648 0.54023 0.48771 0.0
C1292 C 0.26638 0.53272 0.47376 0.0
C1293 C 0.23729 0.55451 0.51327 0.0
C1294 C 0.22949 0.5479 0.49905 0.0
C1295 C 0.23917 0.54077 0.48651 0.0
C1296 C 0.21129 0.54834 0.4968 0.0
C1297 C 0.22751 0.56161 0.52751 0.0
C1298 C 0.20254 0.5336 0.49399 0.0
C1299 C 0.18557 0.53399 0.49075 0.0
C1300 C 0.17705 0.54915 0.49028 0.0
C1301 C 0.18576 0.56388 0.49338 0.0
C1302 C 0.20277 0.56348 0.4965 0.0
H1303 H 0.23481 0.5616 0.53917 0.0
H1304 H 0.22418 0.57462 0.52465 0.0
H1305 H 0.21591 0.55454 0.52959 0.0
H1306 H 0.2089 0.52178 0.49411 0.0
H1307 H 0.17917 0.52245 0.48838 0.0
H1308 H 0.75539 0.727 0.06936 0.0
H1309 H 0.74951 0.72814 0.0397 0.0
H1310 H 0.7352 0.67669 0.04048 0.0
H1311 H 0.74075 0.67554 0.07025 0.0
H1312 H 0.76478 0.71002 0.01559 0.0
H1313 H 0.69716 0.69805 0.01521 0.0
H1314 H 0.70828 0.70362 0.03377 0.0
H1315 H 0.70891 0.6827 0.02618 0.0
C1316 C 0.75079 0.71598 0.06325 0.0
C1317 C 0.74849 0.70118 0.07211 0.0
C1318 C 0.74746 0.71665 0.04632 0.0
C1319 C 0.74175 0.70256 0.03793 0.0
C1320 C 0.73926 0.6878 0.04678 0.0
H1321 H 0.74876 0.68428 0.93241 0.0
H1322 H 0.7522 0.68434 0.96251 0.0
C1323 C 0.74252 0.68714 0.06376 0.0
C1324 C 0.73937 0.70309 0.01977 0.0
H1325 H 0.71091 0.69706 0.98914 0.0
C1326 C 0.75298 0.70726 0.0098 0.0
C1327 C 0.72393 0.69965 0.01228 0.0
C1328 C 0.70869 0.6959 0.0224 0.0
C1329 C 0.75164 0.70785 0.99251 0.0
C1330 C 0.73635 0.70386 0.985 0.0
C1331 C 0.72266 0.69995 0.99496 0.0
C1332 C 0.73428 0.70379 0.9668 0.0
C1333 C 0.76653 0.71299 0.98246 0.0
C1334 C 0.72282 0.71447 0.9593 0.0
C1335 C 0.72076 0.7144 0.94214 0.0
C1336 C 0.73009 0.70359 0.9322 0.0
C1337 C 0.74149 0.69283 0.93975 0.0
C1338 C 0.74352 0.6929 0.95692 0.0
H1339 H 0.77574 0.71975 0.9901 0.0
H1340 H 0.77264 0.70178 0.9774 0.0
H1341 H 0.76284 0.72099 0.97191 0.0
H1342 H 0.71553 0.72292 0.96674 0.0
H1343 H 0.71184 0.72278 0.93667 0.0
H1344 H 0.52054 0.5152 0.31377 0.0
H1345 H 0.52109 0.50997 0.28395 0.0
H1346 H 0.57327 0.49898 0.28676 0.0
H1347 H 0.57275 0.5039 0.31664 0.0
H1348 H 0.53954 0.52664 0.26058 0.0
H1349 H 0.5554 0.45978 0.26063 0.0
H1350 H 0.5483 0.47045 0.27893 0.0
H1351 H 0.56947 0.4724 0.27232 0.0
C1352 C 0.53209 0.51149 0.30806 0.0
C1353 C 0.54659 0.50989 0.31753 0.0
C1354 C 0.53239 0.50854 0.29104 0.0
C1355 C 0.54717 0.50389 0.28319 0.0
C1356 C 0.56165 0.50221 0.29263 0.0
H1357 H 0.57494 0.48749 0.1807 0.0
H1358 H 0.57479 0.49234 0.21064 0.0
C1359 C 0.56135 0.5051 0.30968 0.0
C1360 C 0.54756 0.5016 0.26502 0.0
H1361 H 0.55629 0.47355 0.23465 0.0
C1362 C 0.54312 0.51501 0.2549 0.0
C1363 C 0.55229 0.48642 0.25768 0.0
C1364 C 0.55649 0.47138 0.26793 0.0
C1365 C 0.54348 0.51373 0.23759 0.0
C1366 C 0.54823 0.49857 0.23027 0.0
C1367 C 0.55272 0.48517 0.24036 0.0
C1368 C 0.54834 0.49627 0.21212 0.0
C1369 C 0.53904 0.52865 0.22727 0.0
C1370 C 0.53351 0.49685 0.20313 0.0
C1371 C 0.53355 0.49407 0.18607 0.0
C1372 C 0.54843 0.49063 0.17775 0.0
C1373 C 0.56329 0.49019 0.18678 0.0
C1374 C 0.56323 0.49291 0.20386 0.0
H1375 H 0.53947 0.54027 0.23461 0.0
H1376 H 0.54755 0.52988 0.21654 0.0
H1377 H 0.52628 0.52715 0.22242 0.0
H1378 H 0.52186 0.49918 0.20936 0.0
H1379 H 0.5219 0.49441 0.17944 0.0
H1380 H 0.75582 0.32109 0.42449 0.0
H1381 H 0.75202 0.32045 0.45458 0.0
H1382 H 0.77604 0.27281 0.45669 0.0
H1383 H 0.77995 0.27338 0.42666 0.0
H1384 H 0.73491 0.29587 0.47338 0.0
H1385 H 0.80106 0.30121 0.49137 0.0
H1386 H 0.79365 0.30646 0.47094 0.0
H1387 H 0.79664 0.28517 0.47662 0.0
C1388 C 0.76033 0.31051 0.43138 0.0
C1389 C 0.76822 0.2973 0.42326 0.0
C1390 C 0.75815 0.31016 0.44854 0.0
C1391 C 0.76396 0.29669 0.45783 0.0
C1392 C 0.77174 0.28345 0.44975 0.0
H1393 H 0.73689 0.26622 0.55679 0.0
H1394 H 0.74242 0.26813 0.52706 0.0
C1395 C 0.77387 0.28376 0.4326 0.0
C1396 C 0.76143 0.29623 0.47595 0.0
H1397 H 0.78198 0.29484 0.51285 0.0
C1398 C 0.74518 0.29571 0.48203 0.0
C1399 C 0.77488 0.2962 0.48715 0.0
C1400 C 0.79255 0.29743 0.48125 0.0
C1401 C 0.74201 0.29478 0.49907 0.0
C1402 C 0.75547 0.29421 0.51025 0.0
C1403 C 0.77172 0.29511 0.50419 0.0
C1404 C 0.75286 0.29276 0.52829 0.0
C1405 C 0.72431 0.29456 0.50502 0.0
C1406 C 0.75735 0.30581 0.53882 0.0
C1407 C 0.75423 0.30475 0.5558 0.0
C1408 C 0.7467 0.29056 0.5625 0.0
C1409 C 0.74267 0.27732 0.55197 0.0
C1410 C 0.74574 0.27842 0.53499 0.0
H1411 H 0.71557 0.29877 0.49527 0.0
H1412 H 0.72089 0.28173 0.50856 0.0
H1413 H 0.72278 0.30257 0.51609 0.0
H1414 H 0.76294 0.31694 0.53385 0.0
H1415 H 0.75749 0.31513 0.56363 0.0
H1416 H 0.91974 0.51051 0.67953 0.0
H1417 H 0.91906 0.50765 0.7097 0.0
H1418 H 0.97242 0.50629 0.71084 0.0
H1419 H 0.97321 0.50949 0.68074 0.0
H1420 H 0.93127 0.48323 0.73019 0.0
H1421 H 0.96186 0.54328 0.74334 0.0
H1422 H 0.95395 0.53801 0.72312 0.0
H1423 H 0.97364 0.5301 0.72988 0.0
C1424 C 0.93132 0.50955 0.68622 0.0
C1425 C 0.94653 0.51034 0.67781 0.0
C1426 C 0.93091 0.50793 0.70343 0.0
C1427 C 0.94569 0.50711 0.71252 0.0
C1428 C 0.96088 0.50734 0.70409 0.0
H1429 H 0.97227 0.49269 0.81472 0.0
H1430 H 0.97144 0.49683 0.78473 0.0
C1431 C 0.96131 0.50903 0.68689 0.0
C1432 C 0.94522 0.50593 0.7308 0.0
H1433 H 0.95844 0.52495 0.76616 0.0
C1434 C 0.93709 0.4924 0.73807 0.0
C1435 C 0.95278 0.51798 0.74104 0.0
C1436 C 0.96091 0.53325 0.73398 0.0
C1437 C 0.93672 0.49035 0.75532 0.0
C1438 C 0.94453 0.50225 0.7655 0.0
C1439 C 0.9525 0.51586 0.75827 0.0
C1440 C 0.94494 0.50051 0.78371 0.0
C1441 C 0.92837 0.47527 0.76252 0.0
C1442 C 0.93034 0.50158 0.79305 0.0
C1443 C 0.93078 0.4993 0.8102 0.0
C1444 C 0.94584 0.4959 0.81823 0.0
C1445 C 0.96049 0.49526 0.80887 0.0
C1446 C 0.96004 0.49761 0.79175 0.0
H1447 H 0.92577 0.46575 0.75294 0.0
H1448 H 0.93616 0.46965 0.77235 0.0
H1449 H 0.91644 0.47899 0.76821 0.0
H1450 H 0.91861 0.50404 0.78705 0.0
H1451 H 0.91931 0.49988 0.81711 0.0
H1452 H 0.82053 0.91773 0.49018 0.0
H1453 H 0.79037 0.91687 0.49316 0.0
H1454 H 0.78883 0.97026 0.49346 0.0
H1455 H 0.81889 0.97121 0.4901 0.0
H1456 H 0.77043 0.92901 0.51757 0.0
H1457 H 0.75532 0.95924 0.45786 0.0
H1458 H 0.77579 0.95168 0.46264 0.0
H1459 H 0.76895 0.97138 0.47049 0.0
C1460 C 0.81375 0.92928 0.49087 0.0
C1461 C 0.82203 0.94454 0.48981 0.0
C1462 C 0.79653 0.92877 0.49256 0.0
C1463 C 0.78733 0.9435 0.49318 0.0
C1464 C 0.79564 0.95875 0.49255 0.0
H1465 H 0.68613 0.97036 0.51255 0.0
H1466 H 0.71596 0.96933 0.50727 0.0
C1467 C 0.81283 0.95927 0.49076 0.0
C1468 C 0.76908 0.94294 0.49487 0.0
H1469 H 0.73311 0.95633 0.47714 0.0
C1470 C 0.76226 0.93484 0.50866 0.0
C1471 C 0.75845 0.95051 0.48317 0.0
C1472 C 0.76498 0.95855 0.46762 0.0
C1473 C 0.7451 0.93455 0.51131 0.0
C1474 C 0.73454 0.94245 0.49982 0.0
C1475 C 0.74131 0.95035 0.48593 0.0
C1476 C 0.71643 0.94303 0.50229 0.0
C1477 C 0.73836 0.92618 0.52659 0.0
C1478 C 0.70686 0.92861 0.50091 0.0
C1479 C 0.68981 0.92917 0.50381 0.0
C1480 C 0.68213 0.94416 0.5082 0.0
C1481 C 0.69173 0.95863 0.50923 0.0
C1482 C 0.70874 0.95807 0.50622 0.0
H1483 H 0.74829 0.92303 0.53557 0.0
H1484 H 0.72914 0.93425 0.53282 0.0
H1485 H 0.73199 0.91456 0.52297 0.0
H1486 H 0.7126 0.91692 0.4977 0.0
H1487 H 0.68271 0.91783 0.50292 0.0
H1488 H 0.17831 0.32994 0.24996 0.0
H1489 H 0.18085 0.30799 0.27068 0.0
H1490 H 0.21018 0.34025 0.30145 0.0
H1491 H 0.20775 0.36229 0.28077 0.0
H1492 H 0.21396 0.29653 0.27989 0.0
H1493 H 0.1766 0.3172 0.33391 0.0
H1494 H 0.17279 0.32456 0.31313 0.0
H1495 H 0.19009 0.33235 0.32467 0.0
C1496 C 0.18497 0.3325 0.26131 0.0
C1497 C 0.1929 0.34779 0.26373 0.0
C1498 C 0.18641 0.31995 0.27311 0.0
C1499 C 0.19562 0.32257 0.28759 0.0
C1500 C 0.20283 0.33809 0.29044 0.0
H1501 H 0.23175 0.25866 0.36606 0.0
H1502 H 0.22397 0.28225 0.34861 0.0
C1503 C 0.20148 0.35063 0.2786 0.0
C1504 C 0.19936 0.30851 0.29866 0.0
H1505 H 0.19355 0.29355 0.33773 0.0
C1506 C 0.20942 0.29579 0.2925 0.0
C1507 C 0.19358 0.3078 0.31514 0.0
C1508 C 0.18257 0.32113 0.32216 0.0
C1509 C 0.21406 0.28238 0.30247 0.0
C1510 C 0.20808 0.28147 0.31891 0.0
C1511 C 0.19805 0.29426 0.3251 0.0
C1512 C 0.21214 0.2673 0.3298 0.0
C1513 C 0.2257 0.26956 0.29542 0.0
C1514 C 0.20777 0.25115 0.32514 0.0
C1515 C 0.21235 0.23769 0.33496 0.0
C1516 C 0.22114 0.24017 0.34975 0.0
C1517 C 0.22504 0.25639 0.35468 0.0
C1518 C 0.22058 0.26986 0.34476 0.0
H1519 H 0.23277 0.27448 0.2847 0.0
H1520 H 0.23462 0.26518 0.30491 0.0
H1521 H 0.21841 0.25877 0.29104 0.0
H1522 H 0.20091 0.24894 0.31384 0.0
H1523 H 0.209 0.22534 0.33095 0.0
H1524 H 0.00277 0.94009 0.62352 0.0
H1525 H 0.97876 0.92976 0.60799 0.0
H1526 H 0.9733 0.97746 0.58468 0.0
H1527 H 0.99715 0.98788 0.60008 0.0
H1528 H 0.94358 0.9446 0.60415 0.0
H1529 H 0.9818 0.941 0.54709 0.0
H1530 H 0.99071 0.94131 0.5676 0.0
H1531 H 0.98334 0.96014 0.55836 0.0
C1532 C 0.99628 0.94843 0.61527 0.0
C1533 C 0.00189 0.96475 0.6129 0.0
C1534 C 0.9826 0.94252 0.60645 0.0
C1535 C 0.97444 0.95284 0.59513 0.0
C1536 C 0.97956 0.96932 0.59331 0.0
H1537 H 0.88815 0.95868 0.5375 0.0
H1538 H 0.90809 0.9581 0.56014 0.0
C1539 C 0.99316 0.97524 0.60212 0.0
C1540 C 0.96127 0.94628 0.5843 0.0
H1541 H 0.95265 0.93922 0.54365 0.0
C1542 C 0.94555 0.94316 0.59095 0.0
C1543 C 0.96403 0.94414 0.56718 0.0
C1544 C 0.98091 0.94667 0.55959 0.0
C1545 C 0.93221 0.93882 0.58067 0.0
C1546 C 0.93472 0.93783 0.56336 0.0
C1547 C 0.9507 0.94003 0.55691 0.0
C1548 C 0.92086 0.93619 0.55146 0.0
C1549 C 0.91553 0.9356 0.5884 0.0
C1550 C 0.92132 0.92401 0.53907 0.0
C1551 C 0.91002 0.92443 0.52597 0.0
C1552 C 0.89815 0.93711 0.52503 0.0
C1553 C 0.89714 0.94874 0.53792 0.0
C1554 C 0.90845 0.94833 0.55097 0.0
H1555 H 0.91683 0.93113 0.60134 0.0
H1556 H 0.90838 0.94733 0.58873 0.0
H1557 H 0.90836 0.92635 0.5812 0.0
H1558 H 0.93087 0.9146 0.53916 0.0
H1559 H 0.91108 0.9153 0.51621 0.0
H1560 H 0.26785 0.73897 0.87333 0.0
H1561 H 0.27581 0.71395 0.85807 0.0
H1562 H 0.29931 0.7441 0.82081 0.0
H1563 H 0.29146 0.76908 0.83593 0.0
H1564 H 0.26601 0.70733 0.82496 0.0
H1565 H 0.33436 0.70828 0.83121 0.0
H1566 H 0.32081 0.71973 0.84484 0.0
H1567 H 0.32557 0.7276 0.82458 0.0
C1568 C 0.27486 0.74023 0.86197 0.0
C1569 C 0.27902 0.75596 0.85578 0.0
C1570 C 0.27942 0.72596 0.85331 0.0
C1571 C 0.28837 0.7272 0.83848 0.0
C1572 C 0.29272 0.74288 0.83242 0.0
H1573 H 0.31496 0.66963 0.75443 0.0
H1574 H 0.31309 0.68965 0.77708 0.0
C1575 C 0.2881 0.75713 0.841 0.0
C1576 C 0.29193 0.71228 0.82851 0.0
H1577 H 0.32325 0.69072 0.81009 0.0
C1578 C 0.27851 0.70349 0.82191 0.0
C1579 C 0.30826 0.70745 0.82452 0.0
C1580 C 0.3231 0.71615 0.83177 0.0
C1581 C 0.28096 0.69044 0.81075 0.0
C1582 C 0.29731 0.68579 0.80645 0.0
C1583 C 0.31075 0.69429 0.81345 0.0
C1584 C 0.30056 0.67291 0.79385 0.0
C1585 C 0.266 0.6823 0.80305 0.0
C1586 C 0.29476 0.65669 0.79605 0.0
C1587 C 0.29567 0.6453 0.78308 0.0
C1588 C 0.30261 0.6499 0.76781 0.0
C1589 C 0.3095 0.66577 0.76605 0.0
C1590 C 0.30845 0.6772 0.77898 0.0
H1591 H 0.2546 0.68982 0.80474 0.0
H1592 H 0.26791 0.68026 0.78959 0.0
H1593 H 0.26391 0.67009 0.80898 0.0
H1594 H 0.28898 0.65303 0.80758 0.0
H1595 H 0.29041 0.63308 0.78483 0.0
H1596 H 0.61235 0.02847 0.03703 0.0
H1597 H 0.58945 0.03041 0.05678 0.0
H1598 H 0.57035 0.07285 0.03064 0.0
H1599 H 0.59314 0.07095 0.01075 0.0
H1600 H 0.57623 0.05748 0.07754 0.0
H1601 H 0.53374 0.03634 0.02759 0.0
H1602 H 0.55594 0.03443 0.02604 0.0
H1603 H 0.54621 0.05418 0.02293 0.0
C1604 C 0.60344 0.0384 0.03567 0.0
C1605 C 0.6044 0.04944 0.02225 0.0
C1606 C 0.59041 0.0395 0.04697 0.0
C1607 C 0.57814 0.05162 0.04499 0.0
C1608 C 0.57963 0.0633 0.03223 0.0
H1609 H 0.47954 0.05849 0.08692 0.0
H1610 H 0.50537 0.06422 0.07224 0.0
C1611 C 0.59266 0.06222 0.02092 0.0
C1612 C 0.56306 0.05104 0.05531 0.0
H1613 H 0.52186 0.04204 0.0535 0.0
C1614 C 0.5643 0.05419 0.07233 0.0
C1615 C 0.54758 0.04667 0.04841 0.0
C1616 C 0.5457 0.04257 0.03027 0.0
C1617 C 0.55035 0.0532 0.08268 0.0
C1618 C 0.53491 0.04862 0.0758 0.0
C1619 C 0.5337 0.04562 0.05873 0.0
C1620 C 0.51984 0.04636 0.08599 0.0
C1621 C 0.55224 0.05727 0.1008 0.0
C1622 C 0.51944 0.03447 0.09867 0.0
C1623 C 0.5047 0.03122 0.10714 0.0
C1624 C 0.4901 0.03967 0.10291 0.0
C1625 C 0.4906 0.05176 0.09042 0.0
C1626 C 0.50534 0.05507 0.08204 0.0
H1627 H 0.56327 0.06517 0.10307 0.0
H1628 H 0.54111 0.06373 0.10563 0.0
H1629 H 0.55388 0.04562 0.10789 0.0
H1630 H 0.53037 0.02731 0.10164 0.0
H1631 H 0.50464 0.02178 0.11666 0.0
H1632 H 0.20247 0.77275 0.16483 0.0
H1633 H 0.19579 0.74687 0.17909 0.0
H1634 H 0.22003 0.71915 0.14045 0.0
H1635 H 0.22683 0.74503 0.12609 0.0
H1636 H 0.17786 0.71771 0.16646 0.0
H1637 H 0.24315 0.70502 0.18463 0.0
H1638 H 0.23629 0.72527 0.17811 0.0
H1639 H 0.23932 0.70919 0.1631 0.0
C1640 C 0.20636 0.76115 0.15935 0.0
C1641 C 0.21528 0.7609 0.14441 0.0
C1642 C 0.20248 0.74639 0.16747 0.0
C1643 C 0.20753 0.73117 0.16086 0.0
C1644 C 0.21617 0.73083 0.1458 0.0
H1645 H 0.20704 0.63512 0.20999 0.0
H1646 H 0.20881 0.6563 0.1884 0.0
C1647 C 0.22002 0.74559 0.13763 0.0
C1648 C 0.20418 0.71573 0.17009 0.0
H1649 H 0.22306 0.68585 0.19314 0.0
C1650 C 0.18772 0.71064 0.17221 0.0
C1651 C 0.21711 0.70656 0.17748 0.0
C1652 C 0.23498 0.71177 0.17587 0.0
C1653 C 0.1838 0.69662 0.18172 0.0
C1654 C 0.1967 0.68774 0.18958 0.0
C1655 C 0.21319 0.69263 0.18707 0.0
C1656 C 0.19346 0.67404 0.20135 0.0
C1657 C 0.16593 0.69144 0.1832 0.0
C1658 C 0.18399 0.67686 0.21565 0.0
C1659 C 0.18286 0.66474 0.22792 0.0
C1660 C 0.19138 0.64967 0.22622 0.0
C1661 C 0.20034 0.64661 0.21163 0.0
C1662 C 0.20137 0.6587 0.1993 0.0
H1663 H 0.15857 0.69572 0.17239 0.0
H1664 H 0.16473 0.67778 0.18423 0.0
H1665 H 0.1605 0.69714 0.19446 0.0
H1666 H 0.17812 0.68874 0.2177 0.0
H1667 H 0.17597 0.66749 0.23909 0.0
H1668 H 0.61382 0.95691 0.46582 0.0
H1669 H 0.59279 0.95646 0.44402 0.0
H1670 H 0.56685 0.91752 0.4697 0.0
H1671 H 0.58779 0.91792 0.49162 0.0
H1672 H 0.57932 0.92945 0.42318 0.0
H1673 H 0.53387 0.95747 0.46676 0.0
H1674 H 0.55586 0.95749 0.47074 0.0
H1675 H 0.54403 0.93891 0.47368 0.0
C1676 C 0.60377 0.94808 0.4667 0.0
C1677 C 0.60234 0.93757 0.48049 0.0
C1678 C 0.59181 0.94782 0.45423 0.0
C1679 C 0.57821 0.9371 0.4554 0.0
C1680 C 0.57719 0.92599 0.46871 0.0
H1681 H 0.48463 0.93845 0.40267 0.0
H1682 H 0.50789 0.93037 0.42026 0.0
C1683 C 0.58917 0.92622 0.48118 0.0
C1684 C 0.56449 0.93849 0.44338 0.0
H1685 H 0.52454 0.95162 0.43988 0.0
C1686 C 0.5673 0.93421 0.42679 0.0
C1687 C 0.54888 0.94475 0.44819 0.0
C1688 C 0.54542 0.95006 0.46577 0.0
C1689 C 0.55478 0.93595 0.41484 0.0
C1690 C 0.53924 0.94247 0.41961 0.0
C1691 C 0.53644 0.94656 0.43626 0.0
C1692 C 0.5258 0.94575 0.40758 0.0
C1693 C 0.55826 0.93063 0.39728 0.0
C1694 C 0.52819 0.95694 0.39448 0.0
C1695 C 0.51492 0.9615 0.38434 0.0
C1696 C 0.49902 0.95512 0.3873 0.0
C1697 C 0.49675 0.94359 0.40013 0.0
C1698 C 0.51002 0.93896 0.41017 0.0
H1699 H 0.5685 0.92147 0.39673 0.0
H1700 H 0.54709 0.92513 0.39145 0.0
H1701 H 0.56202 0.9416 0.38991 0.0
H1702 H 0.54016 0.96264 0.39249 0.0
H1703 H 0.517 0.97048 0.3746 0.0
H1704 H 0.29901 0.23145 0.6626 0.0
H1705 H 0.30615 0.25563 0.67927 0.0
H1706 H 0.27512 0.28627 0.64844 0.0
H1707 H 0.26821 0.2621 0.63138 0.0
H1708 H 0.30519 0.30135 0.65689 0.0
H1709 H 0.2737 0.27558 0.71222 0.0
H1710 H 0.28919 0.26205 0.70385 0.0
H1711 H 0.27109 0.2669 0.69182 0.0
C1712 C 0.29375 0.24335 0.65932 0.0
C1713 C 0.2829 0.24489 0.64582 0.0
C1714 C 0.29781 0.25713 0.66888 0.0
C1715 C 0.29089 0.27264 0.66528 0.0
C1716 C 0.28051 0.27436 0.65146 0.0
H1717 H 0.28828 0.36563 0.71816 0.0
H1718 H 0.28677 0.34441 0.69659 0.0
C1719 C 0.27655 0.26057 0.64177 0.0
C1720 C 0.29407 0.28688 0.67634 0.0
H1721 H 0.28999 0.29964 0.71637 0.0
C1722 C 0.30182 0.30104 0.66988 0.0
C1723 C 0.28954 0.28644 0.69325 0.0
C1724 C 0.28027 0.272 0.70068 0.0
C1725 C 0.30551 0.31466 0.68005 0.0
C1726 C 0.30126 0.31403 0.69699 0.0
C1727 C 0.29341 0.29995 0.70339 0.0
C1728 C 0.30432 0.32799 0.70839 0.0
C1729 C 0.31414 0.32951 0.67273 0.0
C1730 C 0.31487 0.32583 0.722 0.0
C1731 C 0.31576 0.3379 0.73433 0.0
C1732 C 0.30595 0.35223 0.73331 0.0
C1733 C 0.29599 0.35472 0.71926 0.0
C1734 C 0.29517 0.34266 0.70689 0.0
H1735 H 0.31949 0.32677 0.66036 0.0
H1736 H 0.3051 0.33976 0.67133 0.0
H1737 H 0.32417 0.33386 0.68106 0.0
H1738 H 0.32194 0.31451 0.72339 0.0
H1739 H 0.32354 0.33565 0.74502 0.0
H1740 H 0.92526 0.07356 0.99115 0.0
H1741 H 0.94382 0.0722 0.96742 0.0
H1742 H 0.90268 0.05962 0.93577 0.0
H1743 H 0.88409 0.06041 0.95967 0.0
H1744 H 0.92616 0.03779 0.93266 0.0
H1745 H 0.95522 0.09928 0.92778 0.0
H1746 H 0.957 0.09178 0.94857 0.0
H1747 H 0.9368 0.09579 0.93995 0.0
C1748 C 0.92008 0.07096 0.97906 0.0
C1749 C 0.90325 0.06699 0.97727 0.0
C1750 C 0.93071 0.0703 0.96545 0.0
C1751 C 0.92465 0.06599 0.94973 0.0
C1752 C 0.90763 0.06303 0.94775 0.0
H1753 H 0.00178 0.0548 0.87332 0.0
H1754 H 0.97601 0.06402 0.88652 0.0
C1755 C 0.89702 0.06351 0.96141 0.0
C1756 C 0.93639 0.06222 0.93612 0.0
H1757 H 0.97172 0.07607 0.91756 0.0
C1758 C 0.93589 0.04633 0.92908 0.0
C1759 C 0.94895 0.07339 0.93118 0.0
C1760 C 0.9494 0.09107 0.93715 0.0
C1761 C 0.94825 0.04092 0.91818 0.0
C1762 C 0.96169 0.05152 0.91456 0.0
C1763 C 0.96156 0.06782 0.92059 0.0
C1764 C 0.97664 0.04547 0.90584 0.0
C1765 C 0.94694 0.02374 0.91095 0.0
C1766 C 0.98555 0.03206 0.91238 0.0
C1767 C 0.00014 0.02674 0.90486 0.0
C1768 C 0.00625 0.03486 0.89075 0.0
C1769 C 0.99731 0.04827 0.88415 0.0
C1770 C 0.98263 0.05356 0.89167 0.0
H1771 H 0.93381 0.01977 0.90995 0.0
H1772 H 0.95272 0.02307 0.8985 0.0
H1773 H 0.95335 0.01485 0.91923 0.0
H1774 H 0.98142 0.02592 0.92356 0.0
H1775 H 0.00682 0.01647 0.91032 0.0
H1776 H 0.37107 0.18759 0.24213 0.0
H1777 H 0.35713 0.17713 0.26708 0.0
H1778 H 0.33021 0.22303 0.27126 0.0
H1779 H 0.34402 0.23357 0.24652 0.0
H1780 H 0.35403 0.19331 0.30138 0.0
H1781 H 0.29515 0.18372 0.26731 0.0
H1782 H 0.31499 0.18504 0.25706 0.0
H1783 H 0.30471 0.20354 0.26391 0.0
C1784 C 0.3623 0.1955 0.24849 0.0
C1785 C 0.35854 0.21135 0.24234 0.0
C1786 C 0.35439 0.18951 0.26271 0.0
C1787 C 0.34257 0.19928 0.27082 0.0
C1788 C 0.33922 0.21529 0.26503 0.0
H1789 H 0.29098 0.21025 0.35938 0.0
H1790 H 0.31244 0.20797 0.33832 0.0
C1791 C 0.34714 0.22129 0.25092 0.0
C1792 C 0.33304 0.19273 0.28497 0.0
H1793 H 0.29342 0.18454 0.29675 0.0
C1794 C 0.34083 0.19107 0.30039 0.0
C1795 C 0.31593 0.18952 0.2835 0.0
C1796 C 0.30718 0.19038 0.26703 0.0
C1797 C 0.33163 0.18734 0.31467 0.0
C1798 C 0.31425 0.18549 0.31342 0.0
C1799 C 0.30673 0.18603 0.29776 0.0
C1800 C 0.30331 0.18492 0.32813 0.0
C1801 C 0.34056 0.18578 0.33098 0.0
C1802 C 0.29106 0.17266 0.32952 0.0
C1803 C 0.27859 0.17407 0.34145 0.0
C1804 C 0.27817 0.1878 0.35211 0.0
C1805 C 0.291 0.19951 0.35136 0.0
C1806 C 0.30339 0.19814 0.3394 0.0
H1807 H 0.35345 0.18135 0.32915 0.0
H1808 H 0.34122 0.19813 0.33696 0.0
H1809 H 0.33407 0.17714 0.33948 0.0
H1810 H 0.29069 0.16242 0.32088 0.0
H1811 H 0.26887 0.16484 0.34177 0.0
H1812 H 0.0764 0.00469 0.58478 0.0
H1813 H 0.07725 0.02504 0.56235 0.0
H1814 H 0.04537 0.05741 0.59038 0.0
H1815 H 0.04457 0.03722 0.6129 0.0
H1816 H 0.04775 0.03375 0.5464 0.0
H1817 H 0.07969 0.08951 0.57069 0.0
H1818 H 0.08196 0.06928 0.57999 0.0
H1819 H 0.06378 0.08146 0.58398 0.0
C1820 C 0.06994 0.01634 0.58635 0.0
C1821 C 0.06033 0.01934 0.60053 0.0
C1822 C 0.07044 0.02793 0.57353 0.0
C1823 C 0.06146 0.04275 0.57476 0.0
C1824 C 0.05263 0.04619 0.58931 0.0
H1825 H 0.02589 0.11723 0.50682 0.0
H1826 H 0.03355 0.10079 0.53117 0.0
C1827 C 0.05211 0.03459 0.60212 0.0
C1828 C 0.0594 0.05345 0.56005 0.0
H1829 H 0.06429 0.0929 0.54569 0.0
C1830 C 0.05155 0.04663 0.54615 0.0
C1831 C 0.06417 0.07028 0.5599 0.0
C1832 C 0.073 0.07807 0.57438 0.0
C1833 C 0.04797 0.05629 0.5322 0.0
C1834 C 0.05274 0.07314 0.53202 0.0
C1835 C 0.0607 0.07996 0.54587 0.0
C1836 C 0.04924 0.08386 0.51759 0.0
C1837 C 0.03861 0.04848 0.51804 0.0
C1838 C 0.05586 0.07999 0.50201 0.0
C1839 C 0.05138 0.08921 0.48811 0.0
C1840 C 0.04039 0.10261 0.4896 0.0
C1841 C 0.03433 0.10692 0.50532 0.0
C1842 C 0.03872 0.09759 0.51922 0.0
H1843 H 0.03219 0.03694 0.52189 0.0
H1844 H 0.02929 0.05717 0.51289 0.0
H1845 H 0.04744 0.04524 0.50803 0.0
H1846 H 0.06427 0.06964 0.50056 0.0
H1847 H 0.0564 0.08573 0.47618 0.0
H1848 H 0.15052 0.80665 0.72839 0.0
H1849 H 0.16789 0.81529 0.75162 0.0
H1850 H 0.14108 0.78239 0.78403 0.0
H1851 H 0.12339 0.77394 0.76089 0.0
H1852 H 0.14825 0.81326 0.79844 0.0
H1853 H 0.20403 0.78499 0.76976 0.0
H1854 H 0.19374 0.80003 0.75705 0.0
H1855 H 0.18339 0.78103 0.76225 0.0
C1856 C 0.14824 0.80135 0.74049 0.0
C1857 C 0.13572 0.7895 0.74282 0.0
C1858 C 0.15821 0.80625 0.75373 0.0
C1859 C 0.15596 0.79924 0.76945 0.0
C1860 C 0.14305 0.78789 0.77196 0.0
H1861 H 0.20745 0.7931 0.86163 0.0
H1862 H 0.18655 0.79399 0.8398 0.0
C1863 C 0.13298 0.78306 0.75874 0.0
C1864 C 0.16755 0.80312 0.7831 0.0
H1865 H 0.20797 0.79944 0.79476 0.0
C1866 C 0.16132 0.81031 0.79764 0.0
C1867 C 0.18458 0.79921 0.782 0.0
C1868 C 0.19186 0.79076 0.767 0.0
C1869 C 0.17172 0.81369 0.81116 0.0
C1870 C 0.1887 0.8096 0.8101 0.0
C1871 C 0.19496 0.80269 0.79546 0.0
C1872 C 0.20008 0.8112 0.82436 0.0
C1873 C 0.16448 0.82163 0.82642 0.0
C1874 C 0.21458 0.82067 0.82296 0.0
C1875 C 0.22659 0.82014 0.8354 0.0
C1876 C 0.22435 0.80998 0.84934 0.0
C1877 C 0.2095 0.80108 0.85104 0.0
C1878 C 0.19749 0.80165 0.83863 0.0
H1879 H 0.15277 0.82826 0.8236 0.0
H1880 H 0.16169 0.81186 0.83568 0.0
H1881 H 0.17335 0.83048 0.83207 0.0
H1882 H 0.21684 0.82803 0.81198 0.0
H1883 H 0.23793 0.8271 0.83374 0.0
H1884 H 0.4713 0.87179 0.01574 0.0
H1885 H 0.46294 0.8891 0.03926 0.0
H1886 H 0.44389 0.92584 0.00552 0.0
H1887 H 0.45207 0.90866 0.98206 0.0
H1888 H 0.47447 0.92138 0.04501 0.0
H1889 H 0.40615 0.92062 0.03913 0.0
H1890 H 0.41928 0.90551 0.02916 0.0
H1891 H 0.4166 0.92571 0.02019 0.0
C1892 C 0.46515 0.88347 0.01337 0.0
C1893 C 0.46234 0.88889 0.99708 0.0
C1894 C 0.46038 0.89331 0.02679 0.0
C1895 C 0.45256 0.9086 0.02411 0.0
C1896 C 0.44956 0.91391 0.00786 0.0
H1897 H 0.42913 0.99812 0.07455 0.0
H1898 H 0.43112 0.97435 0.05587 0.0
C1899 C 0.45437 0.90413 0.99447 0.0
C1900 C 0.44879 0.91973 0.03815 0.0
H1901 H 0.41772 0.94217 0.05595 0.0
C1902 C 0.46204 0.92573 0.04762 0.0
C1903 C 0.43256 0.92541 0.04141 0.0
C1904 C 0.4178 0.91887 0.03204 0.0
C1905 C 0.45961 0.93788 0.05977 0.0
C1906 C 0.44343 0.94389 0.06276 0.0
C1907 C 0.4301 0.93752 0.05362 0.0
C1908 C 0.44033 0.95753 0.07458 0.0
C1909 C 0.47452 0.94474 0.06873 0.0
C1910 C 0.44428 0.95575 0.0914 0.0
C1911 C 0.44326 0.96932 0.10206 0.0
C1912 C 0.4381 0.98484 0.09609 0.0
C1913 C 0.43319 0.98633 0.07948 0.0
C1914 C 0.43431 0.97277 0.06881 0.0
H1915 H 0.48629 0.94147 0.06241 0.0
H1916 H 0.47375 0.95843 0.06974 0.0
H1917 H 0.47495 0.93954 0.08143 0.0
H1918 H 0.44862 0.94399 0.09616 0.0
H1919 H 0.44698 0.96779 0.11484 0.0
H1920 H 0.33422 0.76569 0.25401 0.0
H1921 H 0.32147 0.77477 0.22823 0.0
H1922 H 0.36148 0.80922 0.22026 0.0
H1923 H 0.37427 0.80035 0.24637 0.0
H1924 H 0.33103 0.82344 0.21556 0.0
H1925 H 0.33458 0.76466 0.18094 0.0
H1926 H 0.32528 0.76157 0.20084 0.0
H1927 H 0.34649 0.76834 0.19949 0.0
C1928 C 0.34042 0.77508 0.24671 0.0
C1929 C 0.35527 0.78227 0.25217 0.0
C1930 C 0.33317 0.78018 0.23191 0.0
C1931 C 0.34069 0.79244 0.22217 0.0
C1932 C 0.35556 0.79964 0.22754 0.0
H1933 H 0.28732 0.80588 0.12912 0.0
H1934 H 0.31124 0.8044 0.14765 0.0
C1935 C 0.36285 0.79455 0.24242 0.0
C1936 C 0.33235 0.79823 0.20692 0.0
H1937 H 0.31314 0.78373 0.17231 0.0
C1938 C 0.32739 0.81486 0.2059 0.0
C1939 C 0.32796 0.78715 0.19412 0.0
C1940 C 0.33402 0.76948 0.1938 0.0
C1941 C 0.31708 0.82038 0.19304 0.0
C1942 C 0.31133 0.80887 0.18116 0.0
C1943 C 0.31733 0.79255 0.18152 0.0
C1944 C 0.29788 0.81284 0.1693 0.0
C1945 C 0.31224 0.8384 0.19252 0.0
C1946 C 0.28253 0.81848 0.17519 0.0
C1947 C 0.26892 0.81951 0.16459 0.0
C1948 C 0.27034 0.81462 0.14798 0.0
C1949 C 0.28587 0.80971 0.14189 0.0
C1950 C 0.29954 0.80885 0.15246 0.0
H1951 H 0.32215 0.84632 0.19784 0.0
H1952 H 0.30965 0.84259 0.17969 0.0
H1953 H 0.30095 0.84027 0.20012 0.0
H1954 H 0.28078 0.82119 0.18819 0.0
H1955 H 0.25707 0.82323 0.16966 0.0
H1956 H 0.46926 0.0294 0.38314 0.0
H1957 H 0.47039 0.0495 0.4058 0.0
H1958 H 0.43529 0.02039 0.43351 0.0
H1959 H 0.43404 0.00021 0.41092 0.0
H1960 H 0.44288 0.06763 0.42455 0.0
H1961 H 0.48028 0.02267 0.46107 0.0
H1962 H 0.47805 0.02118 0.43888 0.0
H1963 H 0.46133 0.01507 0.45216 0.0
C1964 C 0.46156 0.02743 0.39394 0.0
C1965 C 0.45167 0.01317 0.39535 0.0
C1966 C 0.46221 0.03893 0.40683 0.0
C1967 C 0.45305 0.03628 0.42131 0.0
C1968 C 0.44251 0.02253 0.42242 0.0
H1969 H 0.45677 0.0781 0.51937 0.0
H1970 H 0.45075 0.06198 0.49453 0.0
C1971 C 0.4418 0.01106 0.40951 0.0
C1972 C 0.45559 0.0471 0.43579 0.0
H1973 H 0.47324 0.04774 0.47411 0.0
C1974 C 0.4495 0.06335 0.43542 0.0
C1975 C 0.4643 0.0414 0.44984 0.0
C1976 C 0.4715 0.02417 0.45058 0.0
C1977 C 0.45161 0.07402 0.44899 0.0
C1978 C 0.46036 0.06831 0.46306 0.0
C1979 C 0.46651 0.05206 0.46332 0.0
C1980 C 0.46319 0.07881 0.4778 0.0
C1981 C 0.44415 0.09112 0.4483 0.0
C1982 C 0.47222 0.09362 0.47663 0.0
C1983 C 0.47561 0.10292 0.49083 0.0
C1984 C 0.4702 0.09743 0.50642 0.0
C1985 C 0.46114 0.08263 0.50753 0.0
C1986 C 0.45766 0.07342 0.49335 0.0
H1987 H 0.43424 0.09197 0.4388 0.0
H1988 H 0.43889 0.09471 0.46048 0.0
H1989 H 0.45393 0.10019 0.44501 0.0
H1990 H 0.47693 0.09781 0.4648 0.0
H1991 H 0.48269 0.11425 0.48963 0.0
H1992 H 0.12502 0.22948 0.74003 0.0
H1993 H 0.14062 0.22183 0.71519 0.0
H1994 H 0.17315 0.19159 0.74483 0.0
H1995 H 0.15756 0.19904 0.76966 0.0
H1996 H 0.17414 0.22857 0.71077 0.0
H1997 H 0.16214 0.16116 0.70569 0.0
H1998 H 0.14943 0.17477 0.71807 0.0
H1999 H 0.16903 0.16762 0.72581 0.0
C2000 C 0.13536 0.22102 0.74121 0.0
C2001 C 0.1401 0.21487 0.75677 0.0
C2002 C 0.14424 0.21666 0.72702 0.0
C2003 C 0.15788 0.20596 0.72815 0.0
C2004 C 0.16244 0.19957 0.74364 0.0
H2005 H 0.24092 0.17907 0.66778 0.0
H2006 H 0.21893 0.18046 0.68861 0.0
C2007 C 0.1536 0.20395 0.75783 0.0
C2008 C 0.16828 0.20272 0.71343 0.0
H2009 H 0.18442 0.1719 0.68941 0.0
C2010 C 0.17622 0.21622 0.70594 0.0
C2011 C 0.17104 0.18656 0.70729 0.0
C2012 C 0.16235 0.1717 0.71452 0.0
C2013 C 0.18728 0.21396 0.69278 0.0
C2014 C 0.1902 0.19778 0.68673 0.0
C2015 C 0.18209 0.18428 0.69406 0.0
C2016 C 0.20223 0.19473 0.67328 0.0
C2017 C 0.19624 0.22886 0.68589 0.0
C2018 C 0.19979 0.20169 0.65757 0.0
C2019 C 0.21233 0.20099 0.6457 0.0
C2020 C 0.22746 0.19319 0.64933 0.0
C2021 C 0.22941 0.1852 0.66466 0.0
C2022 C 0.21687 0.18598 0.67656 0.0
H2023 H 0.19542 0.23971 0.6943 0.0
H2024 H 0.2095 0.22601 0.68369 0.0
H2025 H 0.19058 0.23238 0.67388 0.0
H2026 H 0.18844 0.20823 0.65472 0.0
H2027 H 0.21043 0.20714 0.63394 0.0
H2028 H 0.04364 0.91485 0.01504 0.0
H2029 H 0.0533 0.92889 0.99003 0.0
H2030 H 0.04208 0.88544 0.96113 0.0
H2031 H 0.03233 0.87126 0.98616 0.0
H2032 H 0.07872 0.91825 0.96548 0.0
H2033 H 0.01479 0.92454 0.94022 0.0
H2034 H 0.01862 0.92016 0.96179 0.0
H2035 H 0.02152 0.90427 0.94657 0.0
C2036 C 0.04329 0.90825 0.00338 0.0
C2037 C 0.03711 0.89201 0.00251 0.0
C2038 C 0.04888 0.91625 0.98914 0.0
C2039 C 0.0483 0.9082 0.97378 0.0
C2040 C 0.0425 0.89186 0.97289 0.0
H2041 H 0.0557 0.96168 0.88033 0.0
H2042 H 0.05555 0.93803 0.89926 0.0
C2043 C 0.03695 0.8838 0.98717 0.0
C2044 C 0.05296 0.91739 0.95868 0.0
H2045 H 0.03616 0.9375 0.92563 0.0
C2046 C 0.06949 0.9223 0.9566 0.0
C2047 C 0.04089 0.9225 0.94711 0.0
C2048 C 0.02292 0.91773 0.94897 0.0
C2049 C 0.07419 0.93266 0.94346 0.0
C2050 C 0.06195 0.93854 0.93241 0.0
C2051 C 0.04556 0.93297 0.93409 0.0
C2052 C 0.0653 0.95175 0.92011 0.0
C2053 C 0.09218 0.93732 0.94166 0.0
C2054 C 0.07127 0.96719 0.9254 0.0
C2055 C 0.0715 0.98067 0.91457 0.0
C2056 C 0.0655 0.97899 0.89835 0.0
C2057 C 0.06038 0.96333 0.89279 0.0
C2058 C 0.06028 0.94981 0.90359 0.0
H2059 H 0.10036 0.92746 0.94667 0.0
H2060 H 0.09552 0.9396 0.92853 0.0
H2061 H 0.09461 0.94877 0.94884 0.0
H2062 H 0.07482 0.96912 0.93818 0.0
H2063 H 0.07543 0.99261 0.91923 0.0
H2064 H 0.25967 0.3751 0.22319 0.0
H2065 H 0.28562 0.36121 0.21566 0.0
H2066 H 0.25821 0.32569 0.18672 0.0
H2067 H 0.23237 0.33951 0.19404 0.0
H2068 H 0.29284 0.32846 0.22315 0.0
H2069 H 0.2959 0.33845 0.15546 0.0
H2070 H 0.28285 0.3507 0.16887 0.0
H2071 H 0.27623 0.33055 0.16208 0.0
C2072 C 0.25923 0.36446 0.21505 0.0
C2073 C 0.24402 0.35836 0.20922 0.0
C2074 C 0.27403 0.35658 0.21074 0.0
C2075 C 0.27384 0.34262 0.2004 0.0
C2076 C 0.25867 0.33669 0.19437 0.0
H2077 H 0.32983 0.25844 0.17457 0.0
H2078 H 0.3109 0.28203 0.17603 0.0
C2079 C 0.24391 0.34451 0.1987 0.0
C2080 C 0.28918 0.33315 0.19719 0.0
H2081 H 0.31209 0.3158 0.16622 0.0
C2082 C 0.29729 0.32595 0.21074 0.0
C2083 C 0.29488 0.3299 0.18097 0.0
C2084 C 0.28711 0.33794 0.16602 0.0
C2085 C 0.31037 0.31477 0.20846 0.0
C2086 C 0.31565 0.31099 0.19219 0.0
C2087 C 0.30799 0.31873 0.17866 0.0
C2088 C 0.32809 0.29792 0.18904 0.0
C2089 C 0.31775 0.30639 0.22345 0.0
C2090 C 0.34424 0.29933 0.19526 0.0
C2091 C 0.35503 0.28584 0.19454 0.0
C2092 C 0.34987 0.27081 0.18745 0.0
C2093 C 0.33411 0.26985 0.18016 0.0
C2094 C 0.3233 0.28331 0.18097 0.0
H2095 H 0.31008 0.30823 0.23472 0.0
H2096 H 0.31917 0.29288 0.22129 0.0
H2097 H 0.33021 0.31163 0.2259 0.0
H2098 H 0.34825 0.31063 0.20125 0.0
H2099 H 0.36717 0.28698 0.20013 0.0
H2100 H 0.7258 0.15797 0.80129 0.0
H2101 H 0.74916 0.17486 0.81039 0.0
H2102 H 0.78229 0.14522 0.7808 0.0
H2103 H 0.75895 0.1279 0.772 0.0
H2104 H 0.7954 0.15307 0.81156 0.0
H2105 H 0.77041 0.20907 0.78051 0.0
H2106 H 0.75636 0.20007 0.79516 0.0
H2107 H 0.7621 0.18867 0.77692 0.0
C2108 C 0.73807 0.15501 0.79675 0.0
C2109 C 0.74056 0.14176 0.78578 0.0
C2110 C 0.75138 0.1647 0.80193 0.0
C2111 C 0.76738 0.1615 0.79599 0.0
C2112 C 0.77 0.14794 0.78545 0.0
H2113 H 0.85982 0.21316 0.7947 0.0
H2114 H 0.83839 0.1918 0.79429 0.0
C2115 C 0.75669 0.1381 0.7804 0.0
C2116 C 0.78123 0.17268 0.80032 0.0
H2117 H 0.794 0.21283 0.7974 0.0
C2118 C 0.79512 0.16614 0.80848 0.0
C2119 C 0.78083 0.18971 0.7962 0.0
C2120 C 0.76671 0.19729 0.78657 0.0
C2121 C 0.80859 0.17626 0.81276 0.0
C2122 C 0.80811 0.19326 0.8087 0.0
C2123 C 0.79419 0.1998 0.80067 0.0
C2124 C 0.82229 0.20444 0.81155 0.0
C2125 C 0.82321 0.16877 0.82162 0.0
C2126 C 0.82043 0.21846 0.82163 0.0
C2127 C 0.83265 0.23069 0.8219 0.0
C2128 C 0.8468 0.22915 0.81189 0.0
C2129 C 0.84904 0.21466 0.80253 0.0
C2130 C 0.83686 0.2024 0.80236 0.0
H2131 H 0.82007 0.15664 0.82731 0.0
H2132 H 0.8334 0.16677 0.81263 0.0
H2133 H 0.82782 0.17723 0.83142 0.0
H2134 H 0.80919 0.22027 0.82872 0.0
H2135 H 0.83059 0.24174 0.82921 0.0
H2136 H 0.00061 0.58315 0.07874 0.0
H2137 H 0.02175 0.56143 0.0783 0.0
H2138 H 0.05109 0.59055 0.04452 0.0
H2139 H 0.03007 0.61231 0.0449 0.0
H2140 H 0.02985 0.54584 0.04777 0.0
H2141 H 0.08551 0.57247 0.078 0.0
H2142 H 0.0649 0.58048 0.08142 0.0
H2143 H 0.07593 0.58559 0.0628 0.0
C2144 C 0.01176 0.5851 0.07154 0.0
C2145 C 0.01367 0.59937 0.06178 0.0
C2146 C 0.0238 0.57269 0.07131 0.0
C2147 C 0.03801 0.57446 0.06148 0.0
C2148 C 0.04035 0.58908 0.0524 0.0
H2149 H 0.11482 0.51187 0.02214 0.0
H2150 H 0.09724 0.5349 0.03119 0.0
C2151 C 0.02828 0.60145 0.05256 0.0
C2152 C 0.04926 0.56026 0.05895 0.0
H2153 H 0.08951 0.54785 0.06218 0.0
C2154 C 0.04286 0.54616 0.05111 0.0
C2155 C 0.06622 0.56087 0.06315 0.0
C2156 C 0.07357 0.5756 0.07194 0.0
C2157 C 0.05307 0.5328 0.04688 0.0
C2158 C 0.07008 0.5334 0.05102 0.0
C2159 C 0.07646 0.54742 0.05907 0.0
C2160 C 0.08146 0.51972 0.04664 0.0
C2161 C 0.04565 0.51847 0.03745 0.0
C2162 C 0.07864 0.50368 0.05266 0.0
C2163 C 0.0885 0.49052 0.04737 0.0
C2164 C 0.10153 0.49324 0.03617 0.0
C2165 C 0.10481 0.50943 0.03073 0.0
C2166 C 0.09482 0.52257 0.03591 0.0
H2167 H 0.03373 0.52189 0.03151 0.0
H2168 H 0.05425 0.51398 0.02771 0.0
H2169 H 0.0432 0.50811 0.04613 0.0
H2170 H 0.06863 0.50129 0.06125 0.0
H2171 H 0.08582 0.4782 0.05194 0.0
H2172 H 0.65872 0.75616 0.32948 0.0
H2173 H 0.68061 0.77709 0.33005 0.0
H2174 H 0.65542 0.80458 0.29181 0.0
H2175 H 0.63337 0.7839 0.2914 0.0
H2176 H 0.69962 0.78239 0.30266 0.0
H2177 H 0.67086 0.84146 0.32237 0.0
H2178 H 0.66121 0.8216 0.32594 0.0
H2179 H 0.65981 0.83135 0.30597 0.0
C2180 C 0.65763 0.7669 0.32152 0.0
C2181 C 0.64441 0.76836 0.31032 0.0
C2182 C 0.67013 0.77884 0.32186 0.0
C2183 C 0.66958 0.79244 0.31106 0.0
C2184 C 0.65593 0.79438 0.3005 0.0
H2185 H 0.7405 0.86118 0.27054 0.0
H2186 H 0.71555 0.84569 0.27827 0.0
C2187 C 0.64339 0.78248 0.3002 0.0
C2188 C 0.68427 0.8032 0.30913 0.0
H2189 H 0.69724 0.84345 0.30888 0.0
C2190 C 0.69917 0.79572 0.30425 0.0
C2191 C 0.68356 0.8206 0.31102 0.0
C2192 C 0.66804 0.82923 0.31676 0.0
C2193 C 0.71327 0.80516 0.30079 0.0
C2194 C 0.71255 0.82256 0.30254 0.0
C2195 C 0.69772 0.83009 0.30757 0.0
C2196 C 0.72708 0.83305 0.29888 0.0
C2197 C 0.72869 0.79647 0.29476 0.0
C2198 C 0.74163 0.83133 0.30817 0.0
C2199 C 0.75588 0.84001 0.30372 0.0
C2200 C 0.75575 0.8507 0.28999 0.0
C2201 C 0.74096 0.85296 0.28112 0.0
C2202 C 0.72671 0.84418 0.28555 0.0
H2203 H 0.72601 0.78372 0.29036 0.0
H2204 H 0.73459 0.80349 0.28452 0.0
H2205 H 0.73771 0.79558 0.30507 0.0
H2206 H 0.74206 0.82299 0.31867 0.0
H2207 H 0.76705 0.83817 0.3109 0.0
H2208 H 0.88345 0.00679 0.056 0.0
H2209 H 0.89805 0.98149 0.0645 0.0
H2210 H 0.92387 0.98069 0.01781 0.0
H2211 H 0.90939 0.00582 0.00921 0.0
H2212 H 0.90119 0.94841 0.04632 0.0
H2213 H 0.95991 0.98277 0.05625 0.0
H2214 H 0.93993 0.99282 0.05596 0.0
H2215 H 0.94972 0.98691 0.0369 0.0
C2216 C 0.89212 0.00111 0.0475 0.0
C2217 C 0.89537 0.00832 0.03198 0.0
C2218 C 0.9004 0.98669 0.05236 0.0
C2219 C 0.9121 0.9794 0.04182 0.0
C2220 C 0.91496 0.98626 0.02614 0.0
H2221 H 0.96537 0.89043 0.03008 0.0
H2222 H 0.94412 0.91186 0.03112 0.0
C2223 C 0.90666 0.00059 0.02125 0.0
C2224 C 0.92199 0.96504 0.04729 0.0
H2225 H 0.96178 0.95343 0.05501 0.0
C2226 C 0.9144 0.94947 0.04847 0.0
C2227 C 0.93912 0.96658 0.05036 0.0
C2228 C 0.94769 0.98318 0.04996 0.0
C2229 C 0.92376 0.93518 0.05176 0.0
C2230 C 0.94112 0.9366 0.05372 0.0
C2231 C 0.94849 0.95233 0.05344 0.0
C2232 C 0.95215 0.92198 0.0546 0.0
C2233 C 0.91503 0.91872 0.0529 0.0
C2234 C 0.96373 0.92048 0.06748 0.0
C2235 C 0.97603 0.90833 0.06682 0.0
C2236 C 0.97699 0.89754 0.05321 0.0
C2237 C 0.96491 0.89854 0.04075 0.0
C2238 C 0.95265 0.91071 0.0414 0.0
H2239 H 0.90193 0.92029 0.05678 0.0
H2240 H 0.91504 0.91276 0.04053 0.0
H2241 H 0.92132 0.91032 0.06177 0.0
H2242 H 0.96362 0.92912 0.07773 0.0
H2243 H 0.98518 0.90784 0.07661 0.0
H2244 H 0.2348 0.63068 0.72582 0.0
H2245 H 0.21024 0.64711 0.719 0.0
H2246 H 0.24025 0.67969 0.68915 0.0
H2247 H 0.26485 0.6636 0.69623 0.0
H2248 H 0.22126 0.6964 0.71086 0.0
H2249 H 0.18264 0.65068 0.67727 0.0
H2250 H 0.18927 0.64364 0.69727 0.0
H2251 H 0.20437 0.64737 0.68133 0.0
C2252 C 0.2361 0.64124 0.71765 0.0
C2253 C 0.25172 0.6459 0.71159 0.0
C2254 C 0.22205 0.65053 0.71366 0.0
C2255 C 0.22338 0.66448 0.70336 0.0
C2256 C 0.23893 0.66893 0.69704 0.0
H2257 H 0.15575 0.74335 0.67484 0.0
H2258 H 0.17814 0.7229 0.6749 0.0
C2259 C 0.25297 0.65973 0.70112 0.0
C2260 C 0.20889 0.67528 0.70029 0.0
H2261 H 0.16926 0.67578 0.6855 0.0
C2262 C 0.20996 0.69193 0.70515 0.0
C2263 C 0.19414 0.66939 0.69289 0.0
C2264 C 0.19254 0.65183 0.68674 0.0
C2265 C 0.19658 0.70277 0.70315 0.0
C2266 C 0.18179 0.69684 0.69594 0.0
C2267 C 0.18068 0.68024 0.69098 0.0
C2268 C 0.16723 0.70772 0.69408 0.0
C2269 C 0.19819 0.7204 0.70913 0.0
C2270 C 0.15347 0.70554 0.7044 0.0
C2271 C 0.14069 0.71719 0.70442 0.0
C2272 C 0.14148 0.73114 0.69404 0.0
C2273 C 0.15484 0.73275 0.68301 0.0
C2274 C 0.16763 0.72112 0.68304 0.0
H2275 H 0.20932 0.72219 0.71701 0.0
H2276 H 0.1992 0.72879 0.6983 0.0
H2277 H 0.18707 0.7241 0.71631 0.0
H2278 H 0.15298 0.69524 0.71299 0.0
H2279 H 0.13052 0.7156 0.71302 0.0
H2280 H 0.01642 0.40662 0.41689 0.0
H2281 H 0.03824 0.42758 0.41472 0.0
H2282 H 0.05886 0.41088 0.46106 0.0
H2283 H 0.0374 0.38976 0.46311 0.0
H2284 H 0.04167 0.45238 0.43656 0.0
H2285 H 0.10033 0.4173 0.43411 0.0
H2286 H 0.0805 0.40776 0.43014 0.0
H2287 H 0.08762 0.4107 0.45107 0.0
C2288 C 0.02585 0.40718 0.4264 0.0
C2289 C 0.0252 0.39659 0.44019 0.0
C2290 C 0.0383 0.41914 0.42514 0.0
C2291 C 0.05031 0.42066 0.43761 0.0
C2292 C 0.05001 0.40967 0.45107 0.0
H2293 H 0.11232 0.49301 0.48083 0.0
H2294 H 0.09745 0.46816 0.47195 0.0
C2295 C 0.03763 0.39769 0.4523 0.0
C2296 C 0.06181 0.43495 0.43775 0.0
H2297 H 0.10227 0.44561 0.44381 0.0
C2298 C 0.05496 0.45092 0.43777 0.0
C2299 C 0.07914 0.43301 0.43939 0.0
C2300 C 0.08734 0.41626 0.43851 0.0
C2301 C 0.06484 0.46495 0.44031 0.0
C2302 C 0.08206 0.46295 0.44269 0.0
C2303 C 0.08904 0.44706 0.44203 0.0
C2304 C 0.09271 0.47713 0.44716 0.0
C2305 C 0.05668 0.48174 0.44129 0.0
C2306 C 0.09533 0.49016 0.43599 0.0
C2307 C 0.1038 0.50438 0.44103 0.0
C2308 C 0.10978 0.50574 0.45732 0.0
C2309 C 0.10779 0.49234 0.46823 0.0
C2310 C 0.09935 0.47813 0.46317 0.0
H2311 H 0.04297 0.48082 0.44194 0.0
H2312 H 0.06115 0.48864 0.45231 0.0
H2313 H 0.05996 0.48904 0.43013 0.0
H2314 H 0.09044 0.48951 0.42353 0.0
H2315 H 0.10522 0.51449 0.43234 0.0
H2316 H 0.49279 0.5798 0.91189 0.0
H2317 H 0.46988 0.56008 0.91008 0.0
H2318 H 0.44264 0.58835 0.94628 0.0
H2319 H 0.46531 0.60828 0.94787 0.0
H2320 H 0.46093 0.54178 0.9364 0.0
H2321 H 0.40625 0.57646 0.91404 0.0
H2322 H 0.42711 0.58421 0.91183 0.0
H2323 H 0.41624 0.58648 0.93115 0.0
C2324 C 0.48173 0.58204 0.91913 0.0
C2325 C 0.48086 0.59552 0.93009 0.0
C2326 C 0.46865 0.57078 0.91808 0.0
C2327 C 0.45448 0.57281 0.92793 0.0
C2328 C 0.45326 0.58672 0.93827 0.0
H2329 H 0.37993 0.51089 0.96998 0.0
H2330 H 0.39684 0.53399 0.95999 0.0
C2331 C 0.4663 0.59804 0.93926 0.0
C2332 C 0.44215 0.55929 0.9292 0.0
H2333 H 0.40074 0.55078 0.92823 0.0
C2334 C 0.4478 0.54367 0.93431 0.0
C2335 C 0.42502 0.56183 0.92663 0.0
C2336 C 0.4183 0.57812 0.92045 0.0
C2337 C 0.43676 0.5307 0.93754 0.0
C2338 C 0.4196 0.53334 0.93533 0.0
C2339 C 0.41392 0.54883 0.92988 0.0
C2340 C 0.40745 0.52032 0.93956 0.0
C2341 C 0.44351 0.5145 0.94398 0.0
C2342 C 0.40739 0.50522 0.93099 0.0
C2343 C 0.39784 0.492 0.93671 0.0
C2344 C 0.38812 0.49372 0.95104 0.0
C2345 C 0.38736 0.50919 0.95895 0.0
C2346 C 0.39697 0.5224 0.95324 0.0
H2347 H 0.45656 0.51563 0.94818 0.0
H2348 H 0.43592 0.50988 0.95447 0.0
H2349 H 0.44307 0.5051 0.93397 0.0
H2350 H 0.41525 0.50348 0.92026 0.0
H2351 H 0.39857 0.48025 0.93028 0.0
H2352 H 0.67639 0.73604 0.86232 0.0
H2353 H 0.66513 0.75981 0.84715 0.0
H2354 H 0.71281 0.7837 0.84904 0.0
H2355 H 0.72417 0.76004 0.86415 0.0
H2356 H 0.68204 0.80493 0.85502 0.0
H2357 H 0.68186 0.76645 0.79769 0.0
H2358 H 0.67208 0.75823 0.81596 0.0
H2359 H 0.69411 0.76094 0.81555 0.0
C2360 C 0.68439 0.74649 0.85975 0.0
C2361 C 0.7012 0.74614 0.86427 0.0
C2362 C 0.67794 0.76002 0.85109 0.0
C2363 C 0.68819 0.77339 0.84692 0.0
C2364 C 0.70472 0.77347 0.8522 0.0
H2365 H 0.69891 0.85836 0.78814 0.0
H2366 H 0.69698 0.83865 0.81086 0.0
C2367 C 0.7112 0.75993 0.86077 0.0
C2368 C 0.68229 0.78657 0.83572 0.0
H2369 H 0.67559 0.79454 0.79485 0.0
C2370 C 0.68037 0.80268 0.84189 0.0
C2371 C 0.68002 0.7835 0.81866 0.0
C2372 C 0.68217 0.76639 0.81144 0.0
C2373 C 0.67671 0.81596 0.83128 0.0
C2374 C 0.67541 0.81305 0.81405 0.0
C2375 C 0.67656 0.79678 0.80805 0.0
C2376 C 0.67477 0.8267 0.80178 0.0
C2377 C 0.67446 0.83297 0.83864 0.0
C2378 C 0.66295 0.82657 0.78903 0.0
C2379 C 0.6642 0.8377 0.77582 0.0
C2380 C 0.67732 0.8491 0.77515 0.0
C2381 C 0.68862 0.84976 0.78835 0.0
C2382 C 0.68744 0.83858 0.80146 0.0
H2383 H 0.66951 0.83218 0.85145 0.0
H2384 H 0.68666 0.83925 0.83929 0.0
H2385 H 0.66595 0.84067 0.83108 0.0
H2386 H 0.65313 0.81743 0.78897 0.0
H2387 H 0.65531 0.83691 0.76581 0.0
H2388 H 0.49301 0.45329 0.12389 0.0
H2389 H 0.46844 0.44419 0.10858 0.0
H2390 H 0.49115 0.46001 0.06289 0.0
H2391 H 0.51584 0.46857 0.078 0.0
H2392 H 0.4475 0.46185 0.09106 0.0
H2393 H 0.47498 0.41521 0.0496 0.0
H2394 H 0.48597 0.42335 0.06726 0.0
H2395 H 0.48607 0.43432 0.04782 0.0
C2396 C 0.4928 0.45464 0.11056 0.0
C2397 C 0.50634 0.46156 0.10211 0.0
C2398 C 0.47879 0.44942 0.10183 0.0
C2399 C 0.4781 0.45107 0.08454 0.0
C2400 C 0.4916 0.45809 0.07615 0.0
H2401 H 0.40102 0.47346 0.0194 0.0
H2402 H 0.42117 0.47152 0.04169 0.0
C2403 C 0.50565 0.46313 0.08482 0.0
C2404 C 0.46285 0.44674 0.07531 0.0
H2405 H 0.44965 0.42823 0.03975 0.0
C2406 C 0.44789 0.45421 0.08003 0.0
C2407 C 0.46319 0.4364 0.06117 0.0
C2408 C 0.4784 0.42672 0.0563 0.0
C2409 C 0.43361 0.45267 0.07029 0.0
C2410 C 0.43448 0.44383 0.0552 0.0
C2411 C 0.44906 0.43529 0.05116 0.0
C2412 C 0.42112 0.44472 0.04265 0.0
C2413 C 0.41785 0.4608 0.07614 0.0
C2414 C 0.41462 0.43028 0.03546 0.0
C2415 C 0.40325 0.43136 0.02244 0.0
C2416 C 0.39824 0.44691 0.01642 0.0
C2417 C 0.40453 0.4613 0.02386 0.0
C2418 C 0.41595 0.46022 0.03673 0.0
H2419 H 0.41732 0.46118 0.08988 0.0
H2420 H 0.41752 0.47378 0.07164 0.0
H2421 H 0.40672 0.45423 0.07148 0.0
H2422 H 0.41856 0.4182 0.03973 0.0
H2423 H 0.39861 0.42007 0.0169 0.0
H2424 H 0.76917 0.23875 0.36354 0.0
H2425 H 0.77338 0.21314 0.3478 0.0
H2426 H 0.80327 0.23973 0.31244 0.0
H2427 H 0.79925 0.26528 0.32811 0.0
H2428 H 0.76433 0.20805 0.31463 0.0
H2429 H 0.8318 0.19911 0.32339 0.0
H2430 H 0.81964 0.21264 0.33639 0.0
H2431 H 0.82634 0.21946 0.31629 0.0
C2432 C 0.77677 0.23908 0.35249 0.0
C2433 C 0.78391 0.25399 0.34705 0.0
C2434 C 0.77916 0.22447 0.34354 0.0
C2435 C 0.78885 0.22451 0.32913 0.0
C2436 C 0.79606 0.23936 0.32374 0.0
H2437 H 0.81029 0.162 0.24655 0.0
H2438 H 0.80929 0.1833 0.26806 0.0
C2439 C 0.79364 0.25397 0.33264 0.0
C2440 C 0.79056 0.20933 0.31905 0.0
H2441 H 0.81909 0.18339 0.30175 0.0
C2442 C 0.77626 0.20249 0.31199 0.0
C2443 C 0.80617 0.20218 0.31562 0.0
C2444 C 0.82186 0.20861 0.32344 0.0
C2445 C 0.7772 0.18908 0.301 0.0
C2446 C 0.79285 0.18216 0.29727 0.0
C2447 C 0.80712 0.18875 0.30465 0.0
C2448 C 0.79467 0.16865 0.28506 0.0
C2449 C 0.76151 0.1829 0.29295 0.0
C2450 C 0.7872 0.1532 0.28774 0.0
C2451 C 0.78771 0.14103 0.27546 0.0
C2452 C 0.7958 0.1441 0.26037 0.0
C2453 C 0.80393 0.1593 0.25804 0.0
C2454 C 0.80338 0.17147 0.27031 0.0
H2455 H 0.75114 0.19184 0.29434 0.0
H2456 H 0.76349 0.18054 0.27956 0.0
H2457 H 0.75774 0.17108 0.29885 0.0
H2458 H 0.78069 0.15069 0.29919 0.0
H2459 H 0.78142 0.12939 0.27764 0.0
H2460 H 0.00701 0.53284 0.62185 0.0
H2461 H 0.0314 0.54184 0.60615 0.0
H2462 H 0.00063 0.55082 0.56346 0.0
H2463 H 0.97627 0.54208 0.57905 0.0
H2464 H 0.04338 0.52765 0.57741 0.0
H2465 H 0.02755 0.5934 0.5664 0.0
H2466 H 0.01728 0.58097 0.5819 0.0
H2467 H 0.01118 0.57959 0.56052 0.0
C2468 C 0.00545 0.53688 0.60916 0.0
C2469 C 0.98975 0.53679 0.60167 0.0
C2470 C 0.01937 0.54203 0.60024 0.0
C2471 C 0.01775 0.5473 0.58376 0.0
C2472 C 0.00208 0.54722 0.57629 0.0
H2473 H 0.07341 0.56282 0.49678 0.0
H2474 H 0.05314 0.562 0.51922 0.0
C2475 C 0.9882 0.54208 0.58518 0.0
C2476 C 0.03252 0.55172 0.57388 0.0
H2477 H 0.04819 0.5816 0.54842 0.0
C2478 C 0.04463 0.53955 0.57131 0.0
C2479 C 0.03408 0.56727 0.56597 0.0
C2480 C 0.02191 0.58111 0.56896 0.0
C2481 C 0.05778 0.54216 0.56029 0.0
C2482 C 0.05895 0.55747 0.55184 0.0
C2483 C 0.04722 0.56989 0.55491 0.0
C2484 C 0.07141 0.56017 0.53871 0.0
C2485 C 0.0698 0.52821 0.55709 0.0
C2486 C 0.08839 0.56 0.54232 0.0
C2487 C 0.10002 0.56044 0.52951 0.0
C2488 C 0.09479 0.5611 0.51293 0.0
C2489 C 0.0778 0.56224 0.50944 0.0
C2490 C 0.0662 0.56179 0.52223 0.0
H2491 H 0.06541 0.51627 0.56233 0.0
H2492 H 0.07185 0.52658 0.54359 0.0
H2493 H 0.08189 0.53121 0.56287 0.0
H2494 H 0.09263 0.55902 0.555 0.0
H2495 H 0.11305 0.55963 0.53257 0.0
H2496 H 0.72659 0.23036 0.62469 0.0
H2497 H 0.71721 0.20743 0.64217 0.0
H2498 H 0.68918 0.24163 0.67211 0.0
H2499 H 0.69882 0.26461 0.65497 0.0
H2500 H 0.70882 0.2221 0.69048 0.0
H2501 H 0.67347 0.18333 0.64634 0.0
H2502 H 0.69403 0.18793 0.63931 0.0
H2503 H 0.67927 0.20444 0.64181 0.0
C2504 C 0.71826 0.23294 0.63488 0.0
C2505 C 0.71349 0.24926 0.63853 0.0
C2506 C 0.7128 0.21982 0.64477 0.0
C2507 C 0.70229 0.22279 0.6583 0.0
C2508 C 0.69721 0.23905 0.66168 0.0
H2509 H 0.67168 0.15996 0.74096 0.0
H2510 H 0.67154 0.18156 0.71965 0.0
C2511 C 0.70276 0.25216 0.6519 0.0
C2512 C 0.69787 0.20926 0.66985 0.0
H2513 H 0.68091 0.17057 0.67211 0.0
C2514 C 0.7025 0.21094 0.68651 0.0
C2515 C 0.68966 0.19469 0.66462 0.0
C2516 C 0.68367 0.19252 0.64708 0.0
C2517 C 0.69966 0.19825 0.69797 0.0
C2518 C 0.69178 0.18355 0.69268 0.0
C2519 C 0.68689 0.18191 0.6761 0.0
C2520 C 0.68961 0.1694 0.70407 0.0
C2521 C 0.70566 0.2004 0.71554 0.0
C2522 C 0.69926 0.15515 0.70193 0.0
C2523 C 0.69937 0.14282 0.71405 0.0
C2524 C 0.68976 0.14455 0.72845 0.0
C2525 C 0.67925 0.15833 0.73002 0.0
C2526 C 0.67919 0.17069 0.7179 0.0
H2527 H 0.71406 0.21121 0.71686 0.0
H2528 H 0.69486 0.20234 0.72381 0.0
H2529 H 0.71228 0.18914 0.71981 0.0
H2530 H 0.70736 0.15396 0.69131 0.0
H2531 H 0.70753 0.1323 0.71246 0.0
H2532 H 0.08566 0.42444 0.98705 0.0
H2533 H 0.06385 0.42465 0.96603 0.0
H2534 H 0.08796 0.46535 0.94127 0.0
H2535 H 0.10982 0.46521 0.96219 0.0
H2536 H 0.04446 0.45378 0.96204 0.0
H2537 H 0.07357 0.43457 0.90282 0.0
H2538 H 0.08233 0.42954 0.92278 0.0
H2539 H 0.08485 0.44994 0.91429 0.0
C2540 C 0.08654 0.43315 0.97689 0.0
C2541 C 0.09937 0.44488 0.9763 0.0
C2542 C 0.07408 0.43325 0.96491 0.0
C2543 C 0.07438 0.44493 0.95206 0.0
C2544 C 0.08766 0.45605 0.95093 0.0
H2545 H 0.00563 0.48523 0.8812 0.0
H2546 H 0.03001 0.47719 0.89739 0.0
C2547 C 0.10008 0.45601 0.96294 0.0
C2548 C 0.05976 0.44707 0.94129 0.0
H2549 H 0.04703 0.44742 0.90102 0.0
C2550 C 0.04493 0.45218 0.94871 0.0
C2551 C 0.06056 0.44519 0.92393 0.0
C2552 C 0.07614 0.43938 0.91545 0.0
C2553 C 0.03094 0.45592 0.93919 0.0
C2554 C 0.0317 0.45407 0.9218 0.0
C2555 C 0.0465 0.44877 0.91436 0.0
C2556 C 0.01733 0.45801 0.91115 0.0
C2557 C 0.01569 0.46244 0.94783 0.0
C2558 C 0.00228 0.44962 0.91328 0.0
C2559 C 0.98834 0.45431 0.90423 0.0
C2560 C 0.98929 0.46731 0.8927 0.0
C2561 C 0.00455 0.47523 0.89006 0.0
C2562 C 0.01847 0.47062 0.89925 0.0
H2563 H 0.01859 0.46724 0.96039 0.0
H2564 H 0.0098 0.47251 0.94055 0.0
H2565 H 0.00659 0.45225 0.94923 0.0
H2566 H 0.00125 0.43961 0.92214 0.0
H2567 H 0.97679 0.44785 0.90636 0.0
H2568 H 0.80321 0.86031 0.2164 0.0
H2569 H 0.80283 0.84017 0.19377 0.0
H2570 H 0.81547 0.80124 0.22807 0.0
H2571 H 0.81626 0.82135 0.25068 0.0
H2572 H 0.83125 0.79808 0.19724 0.0
H2573 H 0.76351 0.80855 0.19049 0.0
H2574 H 0.77615 0.82668 0.18809 0.0
H2575 H 0.77515 0.81644 0.20782 0.0
C2576 C 0.80618 0.8475 0.21906 0.0
C2577 C 0.80957 0.84235 0.23533 0.0
C2578 C 0.80588 0.83601 0.20614 0.0
C2579 C 0.80876 0.81918 0.20933 0.0
C2580 C 0.81313 0.81418 0.22538 0.0
H2581 H 0.79401 0.72406 0.16627 0.0
H2582 H 0.8035 0.74801 0.18209 0.0
C2583 C 0.81355 0.82567 0.23828 0.0
C2584 C 0.806 0.80657 0.19633 0.0
H2585 H 0.77566 0.78901 0.17277 0.0
C2586 C 0.81914 0.79616 0.19178 0.0
C2587 C 0.79015 0.80409 0.18927 0.0
C2588 C 0.77538 0.81441 0.19423 0.0
C2589 C 0.81681 0.78319 0.18044 0.0
C2590 C 0.80088 0.78048 0.17371 0.0
C2591 C 0.78787 0.79119 0.17791 0.0
C2592 C 0.797 0.76594 0.16326 0.0
C2593 C 0.83137 0.77246 0.17583 0.0
C2594 C 0.79009 0.76809 0.14747 0.0
C2595 C 0.78454 0.75442 0.13844 0.0
C2596 C 0.78569 0.7384 0.14514 0.0
C2597 C 0.79301 0.73625 0.16077 0.0
C2598 C 0.79857 0.74992 0.16977 0.0
H2599 H 0.84329 0.77899 0.1779 0.0
H2600 H 0.83132 0.76118 0.18367 0.0
H2601 H 0.83069 0.76855 0.16267 0.0
H2602 H 0.78865 0.78039 0.14231 0.0
H2603 H 0.77894 0.75644 0.12643 0.0
H2604 H 0.38772 0.53096 0.46528 0.0
H2605 H 0.40886 0.53272 0.44371 0.0
H2606 H 0.42734 0.5779 0.46531 0.0
H2607 H 0.40637 0.57608 0.48715 0.0
H2608 H 0.41832 0.55714 0.42007 0.0
H2609 H 0.46686 0.54585 0.46764 0.0
H2610 H 0.44512 0.54297 0.47182 0.0
H2611 H 0.45378 0.56345 0.47128 0.0
C2612 C 0.39612 0.54141 0.4653 0.0
C2613 C 0.39555 0.55327 0.47802 0.0
C2614 C 0.40816 0.54241 0.45295 0.0
C2615 C 0.41982 0.55527 0.45311 0.0
C2616 C 0.41862 0.56772 0.46517 0.0
H2617 H 0.51353 0.56106 0.4002 0.0
H2618 H 0.48887 0.56858 0.41608 0.0
C2619 C 0.40661 0.5667 0.47758 0.0
C2620 C 0.43397 0.55479 0.44151 0.0
H2621 H 0.47575 0.54889 0.44017 0.0
C2622 C 0.43091 0.55547 0.42442 0.0
C2623 C 0.45035 0.55253 0.44728 0.0
C2624 C 0.45429 0.55101 0.46549 0.0
C2625 C 0.44384 0.55387 0.41291 0.0
C2626 C 0.46016 0.55127 0.4187 0.0
C2627 C 0.46323 0.55097 0.43578 0.0
C2628 C 0.47419 0.54793 0.4074 0.0
C2629 C 0.43994 0.55501 0.39469 0.0
C2630 C 0.47405 0.5339 0.39714 0.0
C2631 C 0.48811 0.52959 0.38803 0.0
C2632 C 0.50259 0.53915 0.38918 0.0
C2633 C 0.50255 0.55344 0.3991 0.0
C2634 C 0.48848 0.55777 0.40815 0.0
H2635 H 0.42823 0.56189 0.39247 0.0
H2636 H 0.45009 0.56121 0.38781 0.0
H2637 H 0.4384 0.54234 0.38962 0.0
H2638 H 0.46329 0.52591 0.39668 0.0
H2639 H 0.48781 0.51848 0.38054 0.0
H2640 H 0.77883 0.71528 0.86393 0.0
H2641 H 0.79938 0.71887 0.84188 0.0
H2642 H 0.772 0.68527 0.81079 0.0
H2643 H 0.75143 0.68156 0.83271 0.0
H2644 H 0.81831 0.69247 0.81989 0.0
H2645 H 0.77319 0.73416 0.78862 0.0
H2646 H 0.77234 0.72985 0.81054 0.0
H2647 H 0.76546 0.71459 0.79596 0.0
C2648 C 0.77738 0.70837 0.85253 0.0
C2649 C 0.76345 0.69825 0.84996 0.0
C2650 C 0.78913 0.71043 0.83999 0.0
C2651 C 0.78706 0.70243 0.82474 0.0
C2652 C 0.77371 0.69157 0.8225 0.0
H2653 H 0.82431 0.71074 0.72619 0.0
H2654 H 0.80953 0.70475 0.75182 0.0
C2655 C 0.762 0.68947 0.83502 0.0
C2656 C 0.7978 0.70666 0.81059 0.0
H2657 H 0.79754 0.7276 0.77396 0.0
C2658 C 0.81389 0.70022 0.80986 0.0
C2659 C 0.7919 0.71684 0.79766 0.0
C2660 C 0.77482 0.7244 0.79817 0.0
C2661 C 0.82411 0.70325 0.7961 0.0
C2662 C 0.81809 0.71322 0.78301 0.0
C2663 C 0.8021 0.71994 0.784 0.0
C2664 C 0.82774 0.71627 0.76773 0.0
C2665 C 0.841 0.69532 0.79542 0.0
C2666 C 0.84288 0.72479 0.76818 0.0
C2667 C 0.85142 0.72819 0.75349 0.0
C2668 C 0.84484 0.72326 0.73816 0.0
C2669 C 0.82969 0.71473 0.7378 0.0
C2670 C 0.82123 0.71128 0.75244 0.0
H2671 H 0.84226 0.68514 0.80458 0.0
H2672 H 0.84355 0.69032 0.78288 0.0
H2673 H 0.85055 0.70479 0.79824 0.0
H2674 H 0.84794 0.72904 0.77984 0.0
H2675 H 0.86305 0.73483 0.75412 0.0
H2676 H 0.58172 0.51386 0.09194 0.0
H2677 H 0.5835 0.53519 0.07046 0.0
H2678 H 0.53398 0.55128 0.08243 0.0
H2679 H 0.53242 0.53054 0.10424 0.0
H2680 H 0.56557 0.53557 0.04401 0.0
H2681 H 0.55509 0.59511 0.07549 0.0
H2682 H 0.56006 0.57646 0.08676 0.0
H2683 H 0.53896 0.58091 0.08094 0.0
C2684 C 0.57141 0.52227 0.09027 0.0
C2685 C 0.55693 0.52054 0.09973 0.0
C2686 C 0.57243 0.53444 0.078 0.0
C2687 C 0.55896 0.54501 0.07493 0.0
C2688 C 0.54474 0.54366 0.08484 0.0
H2689 H 0.52144 0.57777 0.98293 0.0
H2690 H 0.53013 0.56367 0.00819 0.0
C2691 C 0.5438 0.53167 0.09723 0.0
C2692 C 0.55874 0.5558 0.06005 0.0
H2693 H 0.54684 0.594 0.04643 0.0
C2694 C 0.56182 0.54846 0.0446 0.0
C2695 C 0.55414 0.57269 0.06073 0.0
C2696 C 0.55207 0.58176 0.07692 0.0
C2697 C 0.5594 0.55721 0.02983 0.0
C2698 C 0.55322 0.57358 0.03049 0.0
C2699 C 0.55122 0.58131 0.04592 0.0
C2700 C 0.54786 0.58246 0.01536 0.0
C2701 C 0.56326 0.54871 0.01365 0.0
C2702 C 0.55443 0.59803 0.01135 0.0
C2703 C 0.54928 0.60626 0.99701 0.0
C2704 C 0.53746 0.59901 0.98648 0.0
C2705 C 0.53069 0.58357 0.99071 0.0
C2706 C 0.53574 0.57545 0.00508 0.0
H2707 H 0.57294 0.53907 0.01528 0.0
H2708 H 0.55194 0.54247 0.009 0.0
H2709 H 0.56753 0.55768 0.00414 0.0
H2710 H 0.56368 0.60373 0.01921 0.0
H2711 H 0.55467 0.61818 0.99406 0.0
H2712 H 0.6653 0.29182 0.22873 0.0
H2713 H 0.68102 0.30059 0.25307 0.0
H2714 H 0.63825 0.29222 0.28389 0.0
H2715 H 0.62239 0.28338 0.25956 0.0
H2716 H 0.67307 0.32665 0.27806 0.0
H2717 H 0.67642 0.26238 0.30304 0.0
H2718 H 0.67139 0.26657 0.28168 0.0
H2719 H 0.65633 0.2703 0.29755 0.0
C2720 C 0.65921 0.29192 0.24067 0.0
C2721 C 0.64267 0.28679 0.24229 0.0
C2722 C 0.66817 0.297 0.25453 0.0
C2723 C 0.66079 0.29694 0.27023 0.0
C2724 C 0.64416 0.29222 0.27186 0.0
H2725 H 0.71601 0.30177 0.36277 0.0
H2726 H 0.69243 0.30234 0.34377 0.0
C2727 C 0.63515 0.28718 0.25798 0.0
C2728 C 0.67087 0.30098 0.28492 0.0
H2729 H 0.69079 0.28299 0.31744 0.0
C2730 C 0.67683 0.31718 0.28682 0.0
C2731 C 0.67561 0.2886 0.29631 0.0
C2732 C 0.66973 0.27094 0.2946 0.0
C2733 C 0.68775 0.32126 0.2997 0.0
C2734 C 0.69313 0.30869 0.31064 0.0
C2735 C 0.68664 0.29263 0.30907 0.0
C2736 C 0.70656 0.31134 0.32286 0.0
C2737 C 0.69346 0.33896 0.30138 0.0
C2738 C 0.72225 0.31659 0.31753 0.0
C2739 C 0.73569 0.31642 0.32839 0.0
C2740 C 0.73373 0.31071 0.34469 0.0
C2741 C 0.71788 0.30619 0.35025 0.0
C2742 C 0.7044 0.30651 0.33942 0.0
H2743 H 0.68406 0.3477 0.29644 0.0
H2744 H 0.69605 0.34219 0.31449 0.0
H2745 H 0.70498 0.34069 0.2941 0.0
H2746 H 0.72433 0.31995 0.30472 0.0
H2747 H 0.74778 0.31987 0.32374 0.0
H2748 H 0.92167 0.4923 0.5819 0.0
H2749 H 0.92284 0.47114 0.56026 0.0
H2750 H 0.95687 0.44257 0.58984 0.0
H2751 H 0.95579 0.46366 0.61154 0.0
H2752 H 0.95467 0.46405 0.54566 0.0
H2753 H 0.92421 0.4075 0.57034 0.0
H2754 H 0.91978 0.42799 0.57817 0.0
H2755 H 0.93853 0.41763 0.58404 0.0
C2756 C 0.92905 0.4813 0.58399 0.0
C2757 C 0.93874 0.47967 0.59835 0.0
C2758 C 0.92971 0.46924 0.57162 0.0
C2759 C 0.93987 0.45529 0.57352 0.0
C2760 C 0.94876 0.45314 0.58827 0.0
H2761 H 0.97937 0.3796 0.5089 0.0
H2762 H 0.97055 0.39646 0.53254 0.0
C2763 C 0.94819 0.46523 0.60061 0.0
C2764 C 0.94304 0.44431 0.55924 0.0
H2765 H 0.93989 0.40444 0.54562 0.0
C2766 C 0.95129 0.45105 0.54555 0.0
C2767 C 0.93883 0.42734 0.55932 0.0
C2768 C 0.92973 0.41964 0.57369 0.0
C2769 C 0.95577 0.44121 0.532 0.0
C2770 C 0.95145 0.42423 0.53197 0.0
C2771 C 0.94312 0.41747 0.54566 0.0
C2772 C 0.95575 0.41332 0.51788 0.0
C2773 C 0.96561 0.449 0.51814 0.0
C2774 C 0.95002 0.41698 0.5019 0.0
C2775 C 0.95521 0.40753 0.4884 0.0
C2776 C 0.96598 0.39408 0.49069 0.0
C2777 C 0.97112 0.38996 0.50679 0.0
C2778 C 0.96606 0.39954 0.52028 0.0
H2779 H 0.9718 0.4606 0.52217 0.0
H2780 H 0.97519 0.44036 0.51339 0.0
H2781 H 0.95714 0.45215 0.5078 0.0
H2782 H 0.94173 0.42731 0.49983 0.0
H2783 H 0.95086 0.41085 0.47616 0.0
H2784 H 0.8713 0.26857 0.74118 0.0
H2785 H 0.85646 0.27376 0.71519 0.0
H2786 H 0.8205 0.30313 0.74156 0.0
H2787 H 0.83498 0.29773 0.76749 0.0
H2788 H 0.8064 0.27924 0.72247 0.0
H2789 H 0.85252 0.31473 0.68581 0.0
H2790 H 0.85996 0.2954 0.69392 0.0
H2791 H 0.85439 0.31178 0.70789 0.0
C2792 C 0.86035 0.2763 0.74136 0.0
C2793 C 0.85424 0.28268 0.75634 0.0
C2794 C 0.85196 0.27935 0.72651 0.0
C2795 C 0.83748 0.28899 0.72643 0.0
C2796 C 0.83167 0.2957 0.74134 0.0
H2797 H 0.76172 0.31717 0.6565 0.0
H2798 H 0.78222 0.31684 0.67883 0.0
C2799 C 0.83995 0.29258 0.75615 0.0
C2800 C 0.82751 0.29099 0.71119 0.0
H2801 H 0.82811 0.30615 0.67169 0.0
C2802 C 0.81114 0.2852 0.71141 0.0
C2803 C 0.83376 0.2987 0.69675 0.0
C2804 C 0.85108 0.30565 0.69605 0.0
C2805 C 0.80083 0.28687 0.69758 0.0
C2806 C 0.80704 0.29462 0.6832 0.0
C2807 C 0.82344 0.30028 0.68283 0.0
C2808 C 0.79647 0.29669 0.66847 0.0
C2809 C 0.78338 0.28023 0.69835 0.0
C2810 C 0.79809 0.28579 0.65508 0.0
C2811 C 0.78638 0.28589 0.64236 0.0
C2812 C 0.77293 0.29693 0.64286 0.0
C2813 C 0.77193 0.30851 0.6558 0.0
C2814 C 0.78361 0.30835 0.66855 0.0
H2815 H 0.78124 0.27253 0.70954 0.0
H2816 H 0.77453 0.29074 0.69856 0.0
H2817 H 0.78065 0.27268 0.6872 0.0
H2818 H 0.80794 0.27669 0.65488 0.0
H2819 H 0.78748 0.27686 0.63251 0.0
H2820 H 0.91853 0.50707 0.91559 0.0
H2821 H 0.91757 0.52715 0.93826 0.0
H2822 H 0.95115 0.55897 0.9116 0.0
H2823 H 0.95204 0.53907 0.88884 0.0
H2824 H 0.94594 0.53538 0.95576 0.0
H2825 H 0.91692 0.59177 0.92952 0.0
H2826 H 0.91487 0.57162 0.92003 0.0
H2827 H 0.93341 0.58358 0.91707 0.0
C2828 C 0.92538 0.51853 0.91439 0.0
C2829 C 0.93541 0.52149 0.90048 0.0
C2830 C 0.92483 0.52998 0.92735 0.0
C2831 C 0.93417 0.5446 0.92654 0.0
C2832 C 0.94358 0.54792 0.91233 0.0
H2833 H 0.97097 0.61836 0.99366 0.0
H2834 H 0.96276 0.60165 0.96973 0.0
C2835 C 0.94416 0.53649 0.89938 0.0
C2836 C 0.93576 0.55533 0.94131 0.0
H2837 H 0.93188 0.59516 0.95489 0.0
C2838 C 0.94264 0.5484 0.95567 0.0
C2839 C 0.93159 0.57232 0.94106 0.0
C2840 C 0.92365 0.58026 0.92614 0.0
C2841 C 0.94601 0.55813 0.96963 0.0
C2842 C 0.94204 0.57518 0.96933 0.0
C2843 C 0.93488 0.58208 0.95507 0.0
C2844 C 0.94584 0.58612 0.98353 0.0
C2845 C 0.95441 0.55017 0.98432 0.0
C2846 C 0.93873 0.58317 -0.00091 0.0
C2847 C 0.94349 0.59259 0.01278 0.0
C2848 C 0.95531 0.60524 0.01108 0.0
C2849 C 0.96188 0.60864 0.99534 0.0
C2850 C 0.95718 0.59915 0.98167 0.0
H2851 H 0.96019 0.53813 0.98103 0.0
H2852 H 0.96411 0.55842 0.98949 0.0
H2853 H 0.9451 0.54784 0.99414 0.0
H2854 H 0.9297 0.57338 0.00071 0.0
H2855 H 0.9381 0.58979 0.02473 0.0
H2856 H 0.63572 0.73492 0.24392 0.0
H2857 H 0.64996 0.72529 0.21905 0.0
H2858 H 0.64641 0.67488 0.2363 0.0
H2859 H 0.63206 0.68445 0.2613 0.0
H2860 H 0.67882 0.68562 0.22773 0.0
H2861 H 0.63395 0.69954 0.17785 0.0
H2862 H 0.63694 0.71648 0.19192 0.0
H2863 H 0.62794 0.6975 0.1993 0.0
C2864 C 0.63772 0.72176 0.2423 0.0
C2865 C 0.63281 0.71043 0.25453 0.0
C2866 C 0.64575 0.71627 0.22803 0.0
C2867 C 0.64901 0.69936 0.22575 0.0
C2868 C 0.64383 0.68796 0.23778 0.0
H2869 H 0.72339 0.66534 0.15311 0.0
H2870 H 0.70058 0.66328 0.17309 0.0
C2871 C 0.63566 0.69344 0.25203 0.0
C2872 C 0.65934 0.694 0.21163 0.0
H2873 H 0.66251 0.69704 0.16965 0.0
C2874 C 0.67517 0.68772 0.21498 0.0
C2875 C 0.65447 0.69678 0.19507 0.0
C2876 C 0.63733 0.7028 0.19077 0.0
C2877 C 0.68674 0.6853 0.20227 0.0
C2878 C 0.68217 0.68895 0.18575 0.0
C2879 C 0.66599 0.69428 0.18232 0.0
C2880 C 0.69456 0.68938 0.17226 0.0
C2881 C 0.70409 0.67999 0.20675 0.0
C2882 C 0.69821 0.70456 0.16468 0.0
C2883 C 0.71106 0.70574 0.15323 0.0
C2884 C 0.72052 0.69174 0.14913 0.0
C2885 C 0.71637 0.67635 0.15613 0.0
C2886 C 0.70342 0.67517 0.16759 0.0
H2887 H 0.70634 0.6805 0.22031 0.0
H2888 H 0.7061 0.66705 0.20261 0.0
H2889 H 0.71338 0.68795 0.20048 0.0
H2890 H 0.69151 0.71567 0.16809 0.0
H2891 H 0.71391 0.71775 0.14799 0.0
H2892 H 0.56257 0.4991 0.42018 0.0
H2893 H 0.56179 0.47669 0.44048 0.0
H2894 H 0.54861 0.44209 0.40201 0.0
H2895 H 0.54907 0.46454 0.38166 0.0
H2896 H 0.52736 0.44123 0.42808 0.0
H2897 H 0.5918 0.43791 0.45109 0.0
H2898 H 0.58356 0.45852 0.45181 0.0
H2899 H 0.58635 0.44845 0.43213 0.0
C2900 C 0.55984 0.48666 0.41598 0.0
C2901 C 0.55583 0.48357 0.39935 0.0
C2902 C 0.55951 0.47384 0.42758 0.0
C2903 C 0.55534 0.45768 0.42272 0.0
C2904 C 0.55194 0.45446 0.406 0.0
H2905 H 0.52907 0.37273 0.48558 0.0
H2906 H 0.5365 0.38954 0.4614 0.0
C2907 C 0.55222 0.46729 0.39439 0.0
C2908 C 0.55278 0.44463 0.43535 0.0
H2909 H 0.57096 0.4255 0.46834 0.0
C2910 C 0.53696 0.43756 0.43672 0.0
C2911 C 0.56532 0.43993 0.44661 0.0
C2912 C 0.58276 0.44648 0.44525 0.0
C2913 C 0.53313 0.42647 0.44951 0.0
C2914 C 0.54553 0.42218 0.46108 0.0
C2915 C 0.56148 0.42886 0.45944 0.0
C2916 C 0.54185 0.41162 0.47558 0.0
C2917 C 0.51565 0.42003 0.45099 0.0
C2918 C 0.54279 0.41839 0.49153 0.0
C2919 C 0.53861 0.40885 0.50531 0.0
C2920 C 0.53349 0.39233 0.50338 0.0
C2921 C 0.53288 0.38546 0.48741 0.0
C2922 C 0.53707 0.39504 0.47361 0.0
H2923 H 0.50687 0.42702 0.44303 0.0
H2924 H 0.51534 0.40685 0.44713 0.0
H2925 H 0.5113 0.42073 0.46401 0.0
H2926 H 0.54647 0.43117 0.49329 0.0
H2927 H 0.53926 0.41447 0.51746 0.0
H2928 H 0.7321 0.83299 0.73058 0.0
H2929 H 0.7579 0.82081 0.72074 0.0
H2930 H 0.76498 0.86206 0.68756 0.0
H2931 H 0.73886 0.87426 0.6972 0.0
H2932 H 0.77097 0.83184 0.67259 0.0
H2933 H 0.80453 0.83589 0.732 0.0
H2934 H 0.78492 0.82578 0.73452 0.0
H2935 H 0.78561 0.84715 0.72813 0.0
C2936 C 0.73916 0.83953 0.72125 0.0
C2937 C 0.73352 0.85463 0.71473 0.0
C2938 C 0.75396 0.8326 0.7157 0.0
C2939 C 0.76352 0.84071 0.70368 0.0
C2940 C 0.75784 0.85569 0.69696 0.0
H2941 H 0.8592 0.79231 0.69197 0.0
H2942 H 0.83951 0.8153 0.69285 0.0
C2943 C 0.74296 0.86264 0.70248 0.0
C2944 C 0.77917 0.8331 0.69794 0.0
H2945 H 0.81453 0.81548 0.71263 0.0
C2946 C 0.78068 0.82852 0.68125 0.0
C2947 C 0.79203 0.82917 0.70913 0.0
C2948 C 0.79179 0.83493 0.7269 0.0
C2949 C 0.79418 0.81903 0.67573 0.0
C2950 C 0.8062 0.81371 0.68731 0.0
C2951 C 0.80524 0.81934 0.70373 0.0
C2952 C 0.81891 0.80106 0.6833 0.0
C2953 C 0.79524 0.81464 0.65762 0.0
C2954 C 0.81406 0.78554 0.67712 0.0
C2955 C 0.82536 0.77248 0.67636 0.0
C2956 C 0.84161 0.7746 0.68213 0.0
C2957 C 0.84672 0.79034 0.68748 0.0
C2958 C 0.83548 0.80347 0.688 0.0
H2959 H 0.7896 0.82448 0.64984 0.0
H2960 H 0.80824 0.81275 0.65361 0.0
H2961 H 0.7882 0.80306 0.65537 0.0
H2962 H 0.80128 0.78318 0.67385 0.0
H2963 H 0.82105 0.76045 0.6723 0.0
H2964 H 0.22875 0.66366 0.29313 0.0
H2965 H 0.25414 0.67744 0.30212 0.0
H2966 H 0.28287 0.63551 0.28582 0.0
H2967 H 0.25747 0.62164 0.27663 0.0
H2968 H 0.27976 0.66658 0.32489 0.0
H2969 H 0.30223 0.67572 0.26031 0.0
H2970 H 0.28105 0.67032 0.26489 0.0
H2971 H 0.29701 0.65493 0.26633 0.0
C2972 C 0.24046 0.65734 0.2915 0.0
C2973 C 0.24116 0.64165 0.28404 0.0
C2974 C 0.25493 0.66519 0.29672 0.0
C2975 C 0.27034 0.65753 0.29451 0.0
C2976 C 0.27108 0.64167 0.28746 0.0
H2977 H 0.36462 0.70963 0.30087 0.0
H2978 H 0.34526 0.68634 0.30057 0.0
C2979 C 0.25658 0.63379 0.28224 0.0
C2980 C 0.28559 0.66662 0.29888 0.0
H2981 H 0.31813 0.68719 0.28162 0.0
C2982 C 0.2883 0.67094 0.31549 0.0
C2983 C 0.2967 0.67218 0.28657 0.0
C2984 C 0.29414 0.66819 0.2685 0.0
C2985 C 0.30164 0.68109 0.32007 0.0
C2986 C 0.31229 0.6873 0.30765 0.0
C2987 C 0.30997 0.68237 0.29114 0.0
C2988 C 0.32487 0.70021 0.31103 0.0
C2989 C 0.30408 0.68517 0.33811 0.0
C2990 C 0.31997 0.7156 0.31745 0.0
C2991 C 0.33103 0.72889 0.31773 0.0
C2992 C 0.3471 0.72706 0.31136 0.0
C2993 C 0.35229 0.7114 0.30583 0.0
C2994 C 0.34125 0.69809 0.30564 0.0
H2995 H 0.29908 0.67522 0.34618 0.0
H2996 H 0.31737 0.68703 0.34109 0.0
H2997 H 0.2973 0.69674 0.34107 0.0
H2998 H 0.3073 0.71766 0.32131 0.0
H2999 H 0.32666 0.74082 0.32199 0.0
H3000 H 0.53777 0.10611 0.54458 0.0
H3001 H 0.55834 0.08389 0.54538 0.0
H3002 H 0.5284 0.05725 0.58062 0.0
H3003 H 0.50766 0.07936 0.57981 0.0
H3004 H 0.57655 0.06662 0.57188 0.0
H3005 H 0.53079 0.02741 0.53845 0.0
H3006 H 0.52853 0.04956 0.54023 0.0
H3007 H 0.52384 0.03645 0.55755 0.0
C3008 C 0.53573 0.0957 0.55278 0.0
C3009 C 0.52102 0.09435 0.56198 0.0
C3010 C 0.5475 0.08304 0.55323 0.0
C3011 C 0.54472 0.06886 0.56285 0.0
C3012 C 0.53063 0.06803 0.57297 0.0
H3013 H 0.59021 0.97164 0.55553 0.0
H3014 H 0.57389 0.99542 0.56475 0.0
C3015 C 0.51884 0.08069 0.57252 0.0
C3016 C 0.55563 0.0543 0.56091 0.0
H3017 H 0.55652 0.01541 0.54453 0.0
C3018 C 0.5722 0.05536 0.56601 0.0
C3019 C 0.54987 0.0397 0.55317 0.0
C3020 C 0.53233 0.03815 0.5469 0.0
C3021 C 0.58319 0.04208 0.56361 0.0
C3022 C 0.57748 0.02759 0.5556 0.0
C3023 C 0.56085 0.02651 0.55072 0.0
C3024 C 0.58855 0.01354 0.55152 0.0
C3025 C 0.60073 0.04366 0.5698 0.0
C3026 C 0.60227 0.01584 0.54109 0.0
C3027 C 0.61166 0.00227 0.53587 0.0
C3028 C 0.60735 0.98616 0.54082 0.0
C3029 C 0.5938 0.98392 0.55149 0.0
C3030 C 0.58449 0.99748 0.55678 0.0
H3031 H 0.6017 0.05298 0.57986 0.0
H3032 H 0.60547 0.03162 0.57445 0.0
H3033 H 0.6088 0.04777 0.55947 0.0
H3034 H 0.60538 0.02806 0.53653 0.0
H3035 H 0.62199 0.00436 0.52758 0.0
H3036 H 0.26937 0.33557 0.79947 0.0
H3037 H 0.24424 0.32008 0.8062 0.0
H3038 H 0.21436 0.36038 0.78795 0.0
H3039 H 0.23948 0.37594 0.78102 0.0
H3040 H 0.21632 0.32868 0.82677 0.0
H3041 H 0.19953 0.31966 0.76055 0.0
H3042 H 0.21988 0.32631 0.76694 0.0
H3043 H 0.20292 0.34069 0.76699 0.0
C3044 C 0.25745 0.34117 0.79695 0.0
C3045 C 0.25637 0.3569 0.78958 0.0
C3046 C 0.24313 0.33233 0.80086 0.0
C3047 C 0.2275 0.33903 0.7974 0.0
C3048 C 0.22635 0.35493 0.7905 0.0
H3049 H 0.13204 0.28895 0.7976 0.0
H3050 H 0.15307 0.31074 0.79759 0.0
C3051 C 0.24068 0.3638 0.78659 0.0
C3052 C 0.21248 0.329 0.8004 0.0
H3053 H 0.18158 0.30836 0.78041 0.0
C3054 C 0.20863 0.32431 0.81667 0.0
C3055 C 0.20251 0.32337 0.78718 0.0
C3056 C 0.20642 0.32762 0.7694 0.0
C3057 C 0.19506 0.31399 0.82008 0.0
C3058 C 0.18534 0.30799 0.8068 0.0
C3059 C 0.189 0.31303 0.79058 0.0
C3060 C 0.17195 0.29569 0.80918 0.0
C3061 C 0.19124 0.30965 0.83783 0.0
C3062 C 0.1755 0.28009 0.81597 0.0
C3063 C 0.16348 0.26765 0.81609 0.0
C3064 C 0.14778 0.27055 0.8092 0.0
C3065 C 0.14404 0.28636 0.80298 0.0
C3066 C 0.15604 0.29881 0.80296 0.0
H3067 H 0.19612 0.31918 0.84647 0.0
H3068 H 0.17771 0.30835 0.83987 0.0
H3069 H 0.19726 0.2977 0.84095 0.0
H3070 H 0.18781 0.27726 0.82048 0.0
H3071 H 0.16674 0.25555 0.82088 0.0
H3072 H 0.40997 0.51642 0.55209 0.0
H3073 H 0.42651 0.4925 0.56048 0.0
H3074 H 0.39619 0.46074 0.53009 0.0
H3075 H 0.37924 0.48459 0.52205 0.0
H3076 H 0.40399 0.44645 0.56015 0.0
H3077 H 0.46024 0.47176 0.52982 0.0
H3078 H 0.45153 0.48531 0.5451 0.0
H3079 H 0.43997 0.48056 0.52667 0.0
C3080 C 0.40679 0.50433 0.54726 0.0
C3081 C 0.39346 0.50237 0.53627 0.0
C3082 C 0.41627 0.49069 0.55201 0.0
C3083 C 0.41279 0.47492 0.54562 0.0
C3084 C 0.39913 0.47284 0.53509 0.0
H3085 H 0.46251 0.38164 0.53947 0.0
H3086 H 0.44158 0.4035 0.54038 0.0
C3087 C 0.3895 0.48646 0.53047 0.0
C3088 C 0.42377 0.46075 0.54939 0.0
H3089 H 0.4636 0.44728 0.54542 0.0
C3090 C 0.41703 0.44661 0.55696 0.0
C3091 C 0.44076 0.46099 0.54513 0.0
C3092 C 0.44855 0.47539 0.53609 0.0
C3093 C 0.42689 0.43272 0.56047 0.0
C3094 C 0.44385 0.43303 0.55622 0.0
C3095 C 0.45061 0.44721 0.54883 0.0
C3096 C 0.45474 0.41848 0.55825 0.0
C3097 C 0.41918 0.41785 0.56869 0.0
C3098 C 0.4689 0.41956 0.56823 0.0
C3099 C 0.48087 0.40709 0.56775 0.0
C3100 C 0.47895 0.39349 0.55709 0.0
C3101 C 0.46431 0.39199 0.54781 0.0
C3102 C 0.4523 0.40441 0.54838 0.0
H3103 H 0.40719 0.42097 0.57466 0.0
H3104 H 0.41686 0.40816 0.55924 0.0
H3105 H 0.42764 0.41258 0.57816 0.0
H3106 H 0.47102 0.4304 0.57584 0.0
H3107 H 0.49204 0.40859 0.57502 0.0
H3108 H 0.63526 0.21403 0.21254 0.0
H3109 H 0.65551 0.19163 0.21016 0.0
H3110 H 0.67552 0.21425 0.16614 0.0
H3111 H 0.65539 0.23681 0.1685 0.0
H3112 H 0.6646 0.16871 0.18363 0.0
H3113 H 0.71417 0.21365 0.20019 0.0
H3114 H 0.69248 0.21818 0.20303 0.0
H3115 H 0.70148 0.21906 0.18273 0.0
C3116 C 0.6438 0.2141 0.2022 0.0
C3117 C 0.6439 0.22726 0.19082 0.0
C3118 C 0.65531 0.20128 0.20084 0.0
C3119 C 0.66711 0.20145 0.18812 0.0
C3120 C 0.66661 0.21404 0.17616 0.0
H3121 H 0.75973 0.14693 0.1828 0.0
H3122 H 0.73576 0.16377 0.17519 0.0
C3123 C 0.6551 0.22688 0.17751 0.0
C3124 C 0.68081 0.18933 0.18832 0.0
H3125 H 0.72222 0.18613 0.19575 0.0
C3126 C 0.67724 0.17247 0.18615 0.0
C3127 C 0.69723 0.19435 0.19165 0.0
C3128 C 0.70165 0.21227 0.19467 0.0
C3129 C 0.68974 0.16043 0.18727 0.0
C3130 C 0.70611 0.16543 0.19099 0.0
C3131 C 0.70968 0.18234 0.19282 0.0
C3132 C 0.71966 0.15345 0.19396 0.0
C3133 C 0.68532 0.14252 0.18441 0.0
C3134 C 0.71849 0.14188 0.20689 0.0
C3135 C 0.73215 0.13218 0.2112 0.0
C3136 C 0.74726 0.13406 0.2028 0.0
C3137 C 0.74825 0.14525 0.18952 0.0
C3138 C 0.73456 0.15486 0.18514 0.0
H3139 H 0.67401 0.14132 0.17669 0.0
H3140 H 0.6956 0.13576 0.17828 0.0
H3141 H 0.6828 0.13651 0.1965 0.0
H3142 H 0.70726 0.14087 0.21413 0.0
H3143 H 0.73107 0.12371 0.22154 0.0
H3144 H 0.62359 0.97941 0.98126 0.0
H3145 H 0.60651 0.95559 0.97352 0.0
H3146 H 0.57666 0.98709 0.94237 0.0
H3147 H 0.59337 0.01097 0.95041 0.0
H3148 H 0.55816 0.96907 0.96312 0.0
H3149 H 0.60336 0.92793 0.93196 0.0
H3150 H 0.60985 0.9342 0.95224 0.0
H3151 H 0.60763 0.94946 0.93617 0.0
C3152 C 0.61351 0.98119 0.97261 0.0
C3153 C 0.60975 0.99703 0.96649 0.0
C3154 C 0.60385 0.96755 0.96808 0.0
C3155 C 0.59046 0.96952 0.95717 0.0
C3156 C 0.58698 0.98528 0.95074 0.0
H3157 H 0.50949 0.90465 0.92747 0.0
H3158 H 0.53103 0.926 0.92713 0.0
C3159 C 0.59652 -0.00109 0.95537 0.0
C3160 C 0.57912 0.95555 0.95367 0.0
H3161 H 0.57741 0.91569 0.93959 0.0
C3162 C 0.56235 0.95748 0.95777 0.0
C3163 C 0.58462 0.94042 0.94675 0.0
C3164 C 0.60232 0.9379 0.94137 0.0
C3165 C 0.551 0.94457 0.95555 0.0
C3166 C 0.55654 0.92937 0.9489 0.0
C3167 C 0.57325 0.92742 0.94464 0.0
C3168 C 0.54515 0.9152 0.94716 0.0
C3169 C 0.53323 0.9471 0.96079 0.0
C3170 C 0.54639 0.90179 0.9581 0.0
C3171 C 0.53412 0.88962 0.95835 0.0
C3172 C 0.52047 0.89067 0.9476 0.0
C3173 C 0.51983 0.90356 0.93593 0.0
C3174 C 0.53209 0.91576 0.93573 0.0
H3175 H 0.53159 0.95855 0.96822 0.0
H3176 H 0.5253 0.94807 0.94961 0.0
H3177 H 0.52881 0.93637 0.96817 0.0
H3178 H 0.5564 0.90119 0.96699 0.0
H3179 H 0.53497 0.87978 0.96742 0.0
H3180 H 0.96753 0.10984 0.45416 0.0
H3181 H 0.94721 0.0874 0.45592 0.0
H3182 H 0.97813 0.05681 0.42503 0.0
H3183 H -0.00149 0.07918 0.42313 0.0
H3184 H 0.93116 0.06468 0.42818 0.0
H3185 H 0.97344 0.03518 0.47404 0.0
H3186 H 0.97413 0.05708 0.46957 0.0
H3187 H 0.9823 0.04252 0.45494 0.0
C3188 C 0.96982 0.09848 0.44742 0.0
C3189 C 0.98467 0.09619 0.43863 0.0
C3190 C 0.9582 0.08571 0.44842 0.0
C3191 C 0.9613 0.07049 0.4407 0.0
C3192 C 0.9756 0.06851 0.43107 0.0
H3193 H 0.92075 0.97282 0.45676 0.0
H3194 H 0.93711 0.99668 0.44794 0.0
C3195 C 0.98719 0.08129 0.43 0.0
C3196 C 0.95058 0.05615 0.44427 0.0
H3197 H 0.94901 0.02091 0.46744 0.0
C3198 C 0.935 0.05506 0.43672 0.0
C3199 C 0.95573 0.04372 0.45544 0.0
C3200 C 0.97227 0.0446 0.46409 0.0
C3201 C 0.92444 0.0416 0.43992 0.0
C3202 C 0.92953 0.02922 0.45124 0.0
C3203 C 0.94515 0.03039 0.45875 0.0
C3204 C 0.91897 0.01487 0.45557 0.0
C3205 C 0.90812 0.0406 0.43091 0.0
C3206 C 0.90334 0.01717 0.46283 0.0
C3207 C 0.89392 0.00352 0.46781 0.0
C3208 C 0.90008 0.98738 0.4658 0.0
C3209 C 0.9157 0.98512 0.4585 0.0
C3210 C 0.92504 -0.00127 0.45343 0.0
H3211 H 0.90818 0.04824 0.41947 0.0
H3212 H 0.90511 0.02762 0.42753 0.0
H3213 H 0.89815 0.04534 0.43908 0.0
H3214 H 0.89859 0.02952 0.46499 0.0
H3215 H 0.88195 0.00562 0.47347 0.0
H3216 H 0.05698 0.12453 0.39559 0.0
H3217 H 0.08301 0.12718 0.38004 0.0
H3218 H 0.1086 0.13973 0.42519 0.0
H3219 H 0.08294 0.13698 0.44068 0.0
H3220 H 0.1021 0.15518 0.37712 0.0
H3221 H 0.1393 0.10536 0.40515 0.0
H3222 H 0.11701 0.10608 0.4069 0.0
H3223 H 0.12984 0.11768 0.42099 0.0
C3224 C 0.06823 0.12767 0.40217 0.0
C3225 C 0.06796 0.13055 0.41933 0.0
C3226 C 0.08305 0.12913 0.3933 0.0
C3227 C 0.09779 0.13327 0.40153 0.0
C3228 C 0.09748 0.13604 0.41866 0.0
H3229 H 0.17693 0.19464 0.3892 0.0
H3230 H 0.15046 0.18029 0.39013 0.0
C3231 C 0.08275 0.13464 0.42748 0.0
C3232 C 0.11331 0.13634 0.39233 0.0
H3233 H 0.15483 0.12953 0.3954 0.0
C3234 C 0.1136 0.14926 0.38074 0.0
C3235 C 0.12826 0.12834 0.3967 0.0
C3236 C 0.12856 0.11347 0.40798 0.0
C3237 C 0.12864 0.15554 0.37476 0.0
C3238 C 0.14367 0.14891 0.38083 0.0
C3239 C 0.1433 0.13484 0.39101 0.0
C3240 C 0.15958 0.15776 0.37882 0.0
C3241 C 0.12828 0.16971 0.3626 0.0
C3242 C 0.17364 0.1497 0.37256 0.0
C3243 C 0.18893 0.15786 0.37219 0.0
C3244 C 0.19034 0.17412 0.37822 0.0
C3245 C 0.17622 0.18213 0.3844 0.0
C3246 C 0.16102 0.17401 0.38477 0.0
H3247 H 0.1171 0.16905 0.35463 0.0
H3248 H 0.12776 0.18158 0.3695 0.0
H3249 H 0.13945 0.16977 0.3546 0.0
H3250 H 0.17282 0.13707 0.36813 0.0
H3251 H 0.19964 0.15139 0.36737 0.0
H3252 H 0.08885 0.94132 0.65125 0.0
H3253 H 0.10011 0.91336 0.65227 0.0
H3254 H 0.08003 0.90332 0.60382 0.0
H3255 H 0.06838 0.93128 0.60288 0.0
H3256 H 0.06958 0.88141 0.62586 0.0
H3257 H 0.13724 0.88686 0.63246 0.0
H3258 H 0.1271 0.9002 0.64699 0.0
H3259 H 0.12458 0.90378 0.6251 0.0
C3260 C 0.08721 0.93333 0.64062 0.0
C3261 C 0.07761 0.93842 0.62706 0.0
C3262 C 0.0938 0.91737 0.64114 0.0
C3263 C 0.0911 0.90628 0.62803 0.0
C3264 C 0.08236 0.91171 0.61402 0.0
H3265 H 0.12111 0.80358 0.652 0.0
H3266 H 0.11819 0.82867 0.63497 0.0
C3267 C 0.0757 0.92767 0.61351 0.0
C3268 C 0.09494 0.8885 0.63031 0.0
H3269 H 0.12456 0.86259 0.64568 0.0
C3270 C 0.08173 0.87721 0.62973 0.0
C3271 C 0.11082 0.88289 0.63513 0.0
C3272 C 0.12576 0.89408 0.63477 0.0
C3273 C 0.08364 0.8609 0.63527 0.0
C3274 C 0.09907 0.85584 0.64175 0.0
C3275 C 0.11266 0.86661 0.64094 0.0
C3276 C 0.10064 0.84041 0.65142 0.0
C3277 C 0.06891 0.84943 0.63491 0.0
C3278 C 0.09186 0.83887 0.66631 0.0
C3279 C 0.09356 0.82474 0.67603 0.0
C3280 C 0.10408 0.81184 0.67105 0.0
C3281 C 0.11285 0.81332 0.65608 0.0
C3282 C 0.11123 0.8276 0.64637 0.0
H3283 H 0.05991 0.85314 0.62519 0.0
H3284 H 0.07279 0.83643 0.63266 0.0
H3285 H 0.06248 0.84996 0.64704 0.0
H3286 H 0.08385 0.84876 0.67055 0.0
H3287 H 0.08668 0.82397 0.68752 0.0
H3288 H 0.42172 0.8465 0.94933 0.0
H3289 H 0.39559 0.8446 0.93442 0.0
H3290 H 0.41749 0.8692 0.89239 0.0
H3291 H 0.44397 0.87102 0.90729 0.0
H3292 H 0.37603 0.87071 0.92057 0.0
H3293 H 0.39825 0.82536 0.8735 0.0
H3294 H 0.40959 0.82927 0.89234 0.0
H3295 H 0.40961 0.84435 0.87604 0.0
C3296 C 0.42103 0.85151 0.93692 0.0
C3297 C 0.43491 0.85882 0.92943 0.0
C3298 C 0.40606 0.85048 0.92844 0.0
C3299 C 0.40465 0.8567 0.9123 0.0
C3300 C 0.41841 0.8642 0.90479 0.0
H3301 H 0.30205 0.84661 0.8745 0.0
H3302 H 0.3292 0.85987 0.8782 0.0
C3303 C 0.43347 0.86524 0.91331 0.0
C3304 C 0.38875 0.85471 0.9035 0.0
H3305 H 0.36971 0.83021 0.87488 0.0
C3306 C 0.37462 0.86217 0.9103 0.0
C3307 C 0.38706 0.84355 0.89014 0.0
C3308 C 0.40187 0.83506 0.88255 0.0
C3309 C 0.3587 0.85787 0.90488 0.0
C3310 C 0.35697 0.84595 0.89219 0.0
C3311 C 0.37115 0.83938 0.88459 0.0
C3312 C 0.34083 0.83811 0.88865 0.0
C3313 C 0.34385 0.86512 0.9136 0.0
C3314 C 0.33855 0.82147 0.89299 0.0
C3315 C 0.32321 0.81392 0.89089 0.0
C3316 C 0.30981 0.82287 0.88436 0.0
C3317 C 0.31216 0.83946 0.87965 0.0
C3318 C 0.32761 0.84705 0.88177 0.0
H3319 H 0.34741 0.87279 0.92444 0.0
H3320 H 0.33683 0.87304 0.90484 0.0
H3321 H 0.33546 0.8551 0.91787 0.0
H3322 H 0.3486 0.81438 0.89836 0.0
H3323 H 0.32182 0.8011 0.89457 0.0
H3324 H 0.34505 0.18061 0.17463 0.0
H3325 H 0.34456 0.15364 0.16069 0.0
H3326 H 0.39158 0.16461 0.13789 0.0
H3327 H 0.39196 0.19161 0.15137 0.0
H3328 H 0.37023 0.14695 0.11707 0.0
H3329 H 0.37495 0.11807 0.17964 0.0
H3330 H 0.35713 0.13078 0.17571 0.0
H3331 H 0.37732 0.14005 0.17657 0.0
C3332 C 0.3551 0.17738 0.16636 0.0
C3333 C 0.36867 0.18808 0.16426 0.0
C3334 C 0.35483 0.16197 0.15847 0.0
C3335 C 0.3682 0.15701 0.14856 0.0
C3336 C 0.38116 0.16817 0.14554 0.0
H3337 H 0.42936 0.08399 0.11524 0.0
H3338 H 0.41126 0.10788 0.11852 0.0
C3339 C 0.38139 0.18359 0.1533 0.0
C3340 C 0.36988 0.13971 0.14274 0.0
H3341 H 0.37963 0.1011 0.15683 0.0
C3342 C 0.37192 0.13682 0.12573 0.0
C3343 C 0.37199 0.12649 0.15406 0.0
C3344 C 0.37035 0.12891 0.17252 0.0
C3345 C 0.37707 0.12131 0.11983 0.0
C3346 C 0.38041 0.1085 0.13127 0.0
C3347 C 0.37705 0.11098 0.14811 0.0
C3348 C 0.39004 0.09364 0.12661 0.0
C3349 C 0.37959 0.11898 0.10149 0.0
C3350 C 0.38413 0.07766 0.13008 0.0
C3351 C 0.39452 0.06391 0.12822 0.0
C3352 C 0.41103 0.06605 0.12318 0.0
C3353 C 0.4167 0.08198 0.11918 0.0
C3354 C 0.4063 0.09564 0.12087 0.0
H3355 H 0.37125 0.1272 0.09427 0.0
H3356 H 0.39253 0.12228 0.09826 0.0
H3357 H 0.37736 0.10594 0.09775 0.0
H3358 H 0.37167 0.07591 0.13474 0.0
H3359 H 0.38987 0.05175 0.13143 0.0
H3360 H 0.19624 0.85761 0.12244 0.0
H3361 H 0.1705 0.87347 0.11901 0.0
H3362 H 0.14293 0.82783 0.11594 0.0
H3363 H 0.1683 0.81207 0.11955 0.0
H3364 H 0.15119 0.87243 0.09193 0.0
H3365 H 0.11323 0.85468 0.1456 0.0
H3366 H 0.13538 0.8516 0.14514 0.0
H3367 H 0.12164 0.83644 0.13621 0.0
C3368 C 0.18461 0.85102 0.12137 0.0
C3369 C 0.18425 0.83362 0.1212 0.0
C3370 C 0.16995 0.86008 0.11945 0.0
C3371 C 0.15476 0.85184 0.11755 0.0
C3372 C 0.15441 0.83448 0.11788 0.0
H3373 H 0.07668 0.8556 0.0541 0.0
H3374 H 0.10279 0.85607 0.06912 0.0
C3375 C 0.16898 0.82547 0.11975 0.0
C3376 C 0.13951 0.86093 0.11301 0.0
H3377 H 0.09787 0.8601 0.11979 0.0
C3378 C 0.13958 0.87018 0.0983 0.0
C3379 C 0.1244 0.85839 0.12149 0.0
C3380 C 0.12371 0.84989 0.13809 0.0
C3381 C 0.12475 0.87534 0.09094 0.0
C3382 C 0.10954 0.87082 0.09832 0.0
C3383 C 0.10954 0.86323 0.11394 0.0
C3384 C 0.09379 0.87162 0.08901 0.0
C3385 C 0.12551 0.88485 0.07489 0.0
C3386 C 0.07988 0.8798 0.09547 0.0
C3387 C 0.0648 0.87941 0.08693 0.0
C3388 C 0.06343 0.87068 0.07194 0.0
C3389 C 0.07737 0.86248 0.06558 0.0
C3390 C 0.09236 0.86289 0.07407 0.0
H3391 H 0.13692 0.8925 0.07423 0.0
H3392 H 0.12584 0.876 0.0644 0.0
H3393 H 0.11457 0.89305 0.07337 0.0
H3394 H 0.0807 0.88641 0.1071 0.0
H3395 H 0.05423 0.88581 0.09211 0.0
H3396 H 0.44397 0.9196 0.34258 0.0
H3397 H 0.42564 0.89601 0.33828 0.0
H3398 H 0.38642 0.92144 0.36407 0.0
H3399 H 0.40485 0.94525 0.36855 0.0
H3400 H 0.39113 0.88737 0.37361 0.0
H3401 H 0.38622 0.89493 0.30573 0.0
H3402 H 0.40729 0.89527 0.31276 0.0
H3403 H 0.39326 0.91133 0.3192 0.0
C3404 C 0.43144 0.92023 0.34732 0.0
C3405 C 0.4258 0.9343 0.35581 0.0
C3406 C 0.42097 0.90677 0.34479 0.0
C3407 C 0.40463 0.90713 0.35063 0.0
C3408 C 0.39898 0.92102 0.35938 0.0
H3409 H 0.34994 0.82317 0.31118 0.0
H3410 H 0.35349 0.85118 0.32212 0.0
C3411 C 0.40948 0.93458 0.36189 0.0
C3412 C 0.39374 0.89275 0.34762 0.0
H3413 H 0.38051 0.86772 0.31643 0.0
C3414 C 0.38846 0.88319 0.36113 0.0
C3415 C 0.38994 0.88756 0.33137 0.0
C3416 C 0.39432 0.89791 0.31644 0.0
C3417 C 0.38059 0.86787 0.35872 0.0
C3418 C 0.37826 0.86193 0.34241 0.0
C3419 C 0.38241 0.87215 0.32896 0.0
C3420 C 0.37341 0.8446 0.33879 0.0
C3421 C 0.3752 0.85808 0.37367 0.0
C3422 C 0.38303 0.83148 0.34494 0.0
C3423 C 0.38089 0.81545 0.33884 0.0
C3424 C 0.36932 0.81233 0.32626 0.0
C3425 C 0.359 0.82524 0.32083 0.0
C3426 C 0.36101 0.84124 0.32708 0.0
H3427 H 0.37177 0.86644 0.38404 0.0
H3428 H 0.36449 0.84994 0.37082 0.0
H3429 H 0.38564 0.85025 0.37795 0.0
H3430 H 0.39296 0.83378 0.35363 0.0
H3431 H 0.38907 0.80575 0.34318 0.0
H3432 H 0.44456 0.13618 0.59658 0.0
H3433 H 0.41706 0.14133 0.60829 0.0
H3434 H 0.39458 0.11826 0.56567 0.0
H3435 H 0.42194 0.11371 0.55369 0.0
H3436 H 0.38286 0.14807 0.57017 0.0
H3437 H 0.38076 0.1152 0.63021 0.0
H3438 H 0.39858 0.12833 0.62853 0.0
H3439 H 0.39635 0.11094 0.61476 0.0
C3440 C 0.43374 0.1319 0.58992 0.0
C3441 C 0.43531 0.12472 0.57418 0.0
C3442 C 0.41804 0.13471 0.59668 0.0
C3443 C 0.40375 0.13003 0.58793 0.0
C3444 C 0.40543 0.12196 0.57265 0.0
H3445 H 0.30111 0.15114 0.61764 0.0
H3446 H 0.32681 0.13608 0.61135 0.0
C3447 C 0.42105 0.11941 0.56579 0.0
C3448 C 0.38717 0.13565 0.59341 0.0
H3449 H 0.36072 0.1371 0.62639 0.0
C3450 C 0.37795 0.14542 0.58238 0.0
C3451 C 0.38067 0.13213 0.6093 0.0
C3452 C 0.38954 0.12093 0.62131 0.0
C3453 C 0.36272 0.15224 0.58698 0.0
C3454 C 0.35672 0.14956 0.60317 0.0
C3455 C 0.36553 0.13927 0.61404 0.0
C3456 C 0.34174 0.15819 0.60908 0.0
C3457 C 0.35328 0.16247 0.57451 0.0
C3458 C 0.34186 0.17549 0.61033 0.0
C3459 C 0.32731 0.18406 0.61377 0.0
C3460 C 0.31239 0.17546 0.61615 0.0
C3461 C 0.31244 0.15806 0.61579 0.0
C3462 C 0.32707 0.14946 0.61225 0.0
H3463 H 0.35726 0.15975 0.56163 0.0
H3464 H 0.33975 0.16022 0.57551 0.0
H3465 H 0.35558 0.1758 0.57693 0.0
H3466 H 0.35315 0.18239 0.60811 0.0
H3467 H 0.32769 0.19746 0.61416 0.0
H3468 H 0.09801 0.17516 0.81072 0.0
H3469 H 0.09384 0.15062 0.8278 0.0
H3470 H 0.11784 0.17479 0.86888 0.0
H3471 H 0.12209 0.19963 0.85176 0.0
H3472 H 0.12838 0.14027 0.86142 0.0
H3473 H 0.06049 0.14782 0.86745 0.0
H3474 H 0.06777 0.15005 0.84655 0.0
H3475 H 0.0741 0.16473 0.86204 0.0
C3476 C 0.1024 0.17531 0.82339 0.0
C3477 C 0.1103 0.18934 0.82994 0.0
C3478 C 0.09996 0.1613 0.83314 0.0
C3479 C 0.10536 0.16103 0.84962 0.0
C3480 C 0.11351 0.17487 0.85619 0.0
H3481 H 0.06658 0.07348 0.89914 0.0
H3482 H 0.07763 0.10163 0.89743 0.0
C3483 C 0.1159 0.189 0.84643 0.0
C3484 C 0.10241 0.14605 0.85968 0.0
H3485 H 0.07117 0.12039 0.87154 0.0
C3486 C 0.11591 0.13602 0.86401 0.0
C3487 C 0.08616 0.14074 0.86332 0.0
C3488 C 0.07129 0.15147 0.85975 0.0
C3489 C 0.11346 0.12017 0.87074 0.0
C3490 C 0.09712 0.11423 0.87289 0.0
C3491 C 0.08371 0.12485 0.86977 0.0
C3492 C 0.09342 0.0966 0.87638 0.0
C3493 C 0.12837 0.10981 0.87503 0.0
C3494 C 0.09899 0.0843 0.86543 0.0
C3495 C 0.09277 0.06821 0.86644 0.0
C3496 C 0.08068 0.06421 0.87827 0.0
C3497 C 0.07585 0.07624 0.88986 0.0
C3498 C 0.08217 0.09232 0.88891 0.0
H3499 H 0.13898 0.11774 0.87873 0.0
H3500 H 0.12564 0.101 0.88523 0.0
H3501 H 0.13222 0.10264 0.86397 0.0
H3502 H 0.10733 0.08738 0.85539 0.0
H3503 H 0.09668 0.0592 0.85731 0.0
H3504 H 0.19049 0.38453 0.16527 0.0
H3505 H 0.17397 0.38663 0.14023 0.0
H3506 H 0.12989 0.37476 0.16795 0.0
H3507 H 0.14649 0.3729 0.19342 0.0
H3508 H 0.15276 0.36449 0.12377 0.0
H3509 H 0.11957 0.42022 0.14757 0.0
H3510 H 0.13764 0.41216 0.1579 0.0
H3511 H 0.11832 0.40127 0.15921 0.0
C3512 C 0.1773 0.38225 0.16608 0.0
C3513 C 0.16973 0.37877 0.18133 0.0
C3514 C 0.16788 0.38335 0.15172 0.0
C3515 C 0.1507 0.38097 0.15226 0.0
C3516 C 0.14312 0.37682 0.16734 0.0
H3517 H 0.11426 0.40408 0.05122 0.0
H3518 H 0.11448 0.38829 0.07726 0.0
C3519 C 0.15259 0.37574 0.18183 0.0
C3520 C 0.14105 0.38436 0.13709 0.0
H3521 H 0.11918 0.41564 0.11909 0.0
C3522 C 0.14497 0.37538 0.12274 0.0
C3523 C 0.13086 0.39854 0.13589 0.0
C3524 C 0.12633 0.40871 0.15089 0.0
C3525 C 0.14041 0.38117 0.10701 0.0
C3526 C 0.1315 0.39617 0.10576 0.0
C3527 C 0.12609 0.40418 0.12018 0.0
C3528 C 0.13062 0.40544 0.09001 0.0
C3529 C 0.14645 0.37208 0.09186 0.0
C3530 C 0.1395 0.42029 0.08868 0.0
C3531 C 0.13935 0.42929 0.074 0.0
C3532 C 0.13033 0.42359 0.0603 0.0
C3533 C 0.12141 0.40868 0.06158 0.0
C3534 C 0.12152 0.39966 0.0764 0.0
H3535 H 0.15435 0.36129 0.09504 0.0
H3536 H 0.13568 0.36758 0.08463 0.0
H3537 H 0.15365 0.38058 0.0838 0.0
H3538 H 0.14668 0.42489 0.09904 0.0
H3539 H 0.14633 0.44072 0.0734 0.0
H3540 H 0.64998 0.11635 0.8045 0.0
H3541 H 0.636 0.11272 0.83132 0.0
H3542 H 0.68272 0.10005 0.85385 0.0
H3543 H 0.69664 0.10369 0.82741 0.0
H3544 H 0.63512 0.08362 0.84988 0.0
H3545 H 0.66373 0.13379 0.88633 0.0
H3546 H 0.66396 0.13356 0.86396 0.0
H3547 H 0.67914 0.12202 0.87553 0.0
C3548 C 0.65724 0.11297 0.81525 0.0
C3549 C 0.67438 0.11029 0.81389 0.0
C3550 C 0.64927 0.11094 0.83052 0.0
C3551 C 0.6584 0.10647 0.84461 0.0
C3552 C 0.67551 0.10394 0.84323 0.0
H3553 H 0.65012 0.04467 0.92501 0.0
H3554 H 0.65114 0.05901 0.8985 0.0
C3555 C 0.68343 0.10586 0.82806 0.0
C3556 C 0.65018 0.10287 0.86055 0.0
H3557 H 0.65481 0.10953 0.90196 0.0
C3558 C 0.63905 0.08957 0.86125 0.0
C3559 C 0.65504 0.11085 0.87535 0.0
C3560 C 0.66599 0.12597 0.87525 0.0
C3561 C 0.63393 0.08302 0.87649 0.0
C3562 C 0.64034 0.08983 0.89129 0.0
C3563 C 0.65015 0.10413 0.89059 0.0
C3564 C 0.63879 0.08111 0.90731 0.0
C3565 C 0.62227 0.06844 0.87658 0.0
C3566 C 0.63194 0.08898 0.92119 0.0
C3567 C 0.63146 0.08082 0.93647 0.0
C3568 C 0.63799 0.06476 0.93807 0.0
C3569 C 0.64494 0.05701 0.92416 0.0
C3570 C 0.64538 0.06512 0.90895 0.0
H3571 H 0.61418 0.0685 0.86546 0.0
H3572 H 0.62957 0.05681 0.87637 0.0
H3573 H 0.61436 0.06841 0.88783 0.0
H3574 H 0.627 0.10141 0.9202 0.0
H3575 H 0.62605 0.08709 0.94701 0.0
H3576 H 0.8529 0.86877 0.30486 0.0
H3577 H 0.86972 0.87074 0.33018 0.0
H3578 H 0.82642 0.88563 0.35765 0.0
H3579 H 0.80969 0.88357 0.33274 0.0
H3580 H 0.87498 0.89848 0.34913 0.0
H3581 H 0.84585 0.8504 0.38765 0.0
H3582 H 0.84331 0.85109 0.36543 0.0
H3583 H 0.83021 0.86335 0.37872 0.0
C3584 C 0.847 0.8723 0.31637 0.0
C3585 C 0.83 0.87601 0.31686 0.0
C3586 C 0.85659 0.87336 0.33079 0.0
C3587 C 0.84922 0.87793 0.34586 0.0
C3588 C 0.83226 0.88158 0.34628 0.0
H3589 H 0.86445 0.94015 0.42245 0.0
H3590 H 0.86372 0.92506 0.39643 0.0
C3591 C 0.82274 0.88058 0.33197 0.0
C3592 C 0.85918 0.88054 0.36099 0.0
H3593 H 0.85669 0.87455 0.40266 0.0
C3594 C 0.87137 0.89289 0.3608 0.0
C3595 C 0.85487 0.87293 0.37616 0.0
C3596 C 0.84297 0.85856 0.37696 0.0
C3597 C 0.87792 0.89916 0.3756 0.0
C3598 C 0.87181 0.89313 0.39087 0.0
C3599 C 0.86112 0.87944 0.39096 0.0
C3600 C 0.87407 0.90245 0.40648 0.0
C3601 C 0.89066 0.91278 0.37474 0.0
C3602 C 0.87975 0.89463 0.42093 0.0
C3603 C 0.87999 0.90324 0.43598 0.0
C3604 C 0.87439 0.9197 0.43676 0.0
C3605 C 0.8689 0.92749 0.42224 0.0
C3606 C 0.86866 0.91894 0.40729 0.0
H3607 H 0.8986 0.91134 0.3636 0.0
H3608 H 0.88427 0.9249 0.37372 0.0
H3609 H 0.89866 0.91293 0.38592 0.0
H3610 H 0.88374 0.88183 0.42061 0.0
H3611 H 0.88428 0.89693 0.44701 0.0
H3612 H 0.80855 0.09291 0.16731 0.0
H3613 H 0.82808 0.09068 0.14442 0.0
H3614 H 0.86331 0.12056 0.17116 0.0
H3615 H 0.84369 0.12287 0.19434 0.0
H3616 H 0.85764 0.1298 0.13652 0.0
H3617 H 0.8717 0.06324 0.14442 0.0
H3618 H 0.84989 0.06744 0.14497 0.0
H3619 H 0.86312 0.0758 0.16082 0.0
C3620 C 0.82047 0.09897 0.16839 0.0
C3621 C 0.82463 0.10801 0.18263 0.0
C3622 C 0.83163 0.09762 0.15533 0.0
C3623 C 0.84719 0.10525 0.15624 0.0
C3624 C 0.85138 0.11448 0.17033 0.0
H3625 H 0.9031 0.07237 0.07037 0.0
H3626 H 0.90038 0.08337 0.09846 0.0
C3627 C 0.8402 0.11576 0.18352 0.0
C3628 C 0.85865 0.10373 0.14208 0.0
H3629 H 0.87539 0.07437 0.11696 0.0
C3630 C 0.86193 0.11776 0.13239 0.0
C3631 C 0.86455 0.0881 0.13695 0.0
C3632 C 0.86229 0.07281 0.14743 0.0
C3633 C 0.86967 0.11629 0.11689 0.0
C3634 C 0.87392 0.10037 0.11094 0.0
C3635 C 0.872 0.08659 0.12138 0.0
C3636 C 0.87802 0.09721 0.09333 0.0
C3637 C 0.8727 0.13173 0.10684 0.0
C3638 C 0.86669 0.1018 0.08097 0.0
C3639 C 0.86828 0.09563 0.06492 0.0
C3640 C 0.88108 0.08454 0.06101 0.0
C3641 C 0.89307 0.08086 0.07306 0.0
C3642 C 0.89154 0.08714 0.08911 0.0
H3643 H 0.87523 0.14248 0.11504 0.0
H3644 H 0.88326 0.13015 0.09818 0.0
H3645 H 0.86143 0.13466 0.09956 0.0
H3646 H 0.85592 0.10919 0.08397 0.0
H3647 H 0.85883 0.09866 0.0559 0.0
H3648 H 0.37827 0.59324 0.55371 0.0
H3649 H 0.37719 0.60882 0.57981 0.0
H3650 H 0.35322 0.56735 0.60345 0.0
H3651 H 0.35443 0.55178 0.5777 0.0
H3652 H 0.34961 0.61794 0.59691 0.0
H3653 H 0.38856 0.57892 0.63701 0.0
H3654 H 0.38908 0.57738 0.6147 0.0
H3655 H 0.37363 0.56637 0.62646 0.0
C3656 C 0.37294 0.58743 0.56455 0.0
C3657 C 0.36644 0.5713 0.5637 0.0
C3658 C 0.37238 0.59631 0.57942 0.0
C3659 C 0.36549 0.58908 0.59365 0.0
C3660 C 0.35905 0.57298 0.59276 0.0
H3661 H 0.30232 0.61336 0.66759 0.0
H3662 H 0.31847 0.61032 0.64239 0.0
C3663 C 0.35959 0.56415 0.57798 0.0
C3664 C 0.36343 0.59865 0.60912 0.0
H3665 H 0.36608 0.59384 0.65095 0.0
C3666 C 0.35361 0.61296 0.60872 0.0
C3667 C 0.36903 0.59247 0.62452 0.0
C3668 C 0.38082 0.57804 0.62568 0.0
C3669 C 0.34775 0.62015 0.62339 0.0
C3670 C 0.35156 0.6126 0.63872 0.0
C3671 C 0.36288 0.59944 0.63917 0.0
C3672 C 0.34195 0.61627 0.65386 0.0
C3673 C 0.33684 0.63527 0.62226 0.0
C3674 C 0.34983 0.6203 0.66882 0.0
C3675 C 0.34057 0.62191 0.6834 0.0
C3676 C 0.32337 0.6193 0.68319 0.0
C3677 C 0.31555 0.61548 0.66815 0.0
C3678 C 0.32475 0.61393 0.65367 0.0
H3679 H 0.3403 0.64302 0.61143 0.0
H3680 H 0.3238 0.63132 0.62055 0.0
H3681 H 0.33765 0.64293 0.63365 0.0
H3682 H 0.36313 0.62193 0.66926 0.0
H3683 H 0.3469 0.62483 0.69484 0.0
H3684 H 0.19019 0.60905 0.3254 0.0
H3685 H 0.1751 0.609 0.35146 0.0
H3686 H 0.13209 0.629 0.32696 0.0
H3687 H 0.14722 0.62898 0.3005 0.0
H3688 H 0.15922 0.63696 0.3679 0.0
H3689 H 0.11577 0.58597 0.35096 0.0
H3690 H 0.13462 0.58939 0.33946 0.0
H3691 H 0.11772 0.60365 0.3375 0.0
C3692 C 0.17752 0.61344 0.32549 0.0
C3693 C 0.16985 0.61894 0.3109 0.0
C3694 C 0.16894 0.61347 0.34041 0.0
C3695 C 0.15251 0.61896 0.3411 0.0
C3696 C 0.14475 0.62461 0.32661 0.0
H3697 H 0.10514 0.59109 0.43536 0.0
H3698 H 0.10696 0.60717 0.40953 0.0
C3699 C 0.15339 0.6246 0.31157 0.0
C3700 C 0.14373 0.61813 0.35712 0.0
H3701 H 0.11846 0.59243 0.37909 0.0
C3702 C 0.14993 0.62756 0.37031 0.0
C3703 C 0.1315 0.60599 0.36016 0.0
C3704 C 0.12446 0.59558 0.34635 0.0
C3705 C 0.14531 0.62415 0.38667 0.0
C3706 C 0.13439 0.61087 0.38984 0.0
C3707 C 0.12689 0.60257 0.37656 0.0
C3708 C 0.13327 0.60329 0.40645 0.0
C3709 C 0.15296 0.63406 0.40051 0.0
C3710 C 0.14745 0.59587 0.41317 0.0
C3711 C 0.14641 0.58658 0.42764 0.0
C3712 C 0.13118 0.58459 0.43573 0.0
C3713 C 0.11705 0.59253 0.42938 0.0
C3714 C 0.11806 0.60169 0.41468 0.0
H3715 H 0.15624 0.64674 0.3963 0.0
H3716 H 0.14446 0.63497 0.41127 0.0
H3717 H 0.16452 0.62787 0.40463 0.0
H3718 H 0.15924 0.59667 0.40681 0.0
H3719 H 0.15749 0.5806 0.43227 0.0
H3720 H 0.34743 0.40746 0.93995 0.0
H3721 H 0.34773 0.392 0.91412 0.0
H3722 H 0.39931 0.40406 0.90723 0.0
H3723 H 0.39902 0.41981 0.93319 0.0
H3724 H 0.38037 0.4138 0.88154 0.0
H3725 H 0.36504 0.34896 0.89571 0.0
H3726 H 0.35117 0.36245 0.90655 0.0
H3727 H 0.373 0.363 0.91121 0.0
C3728 C 0.35897 0.40645 0.93319 0.0
C3729 C 0.37316 0.41494 0.93849 0.0
C3730 C 0.35918 0.39744 0.91849 0.0
C3731 C 0.37361 0.39667 0.90884 0.0
C3732 C 0.3881 0.40435 0.91459 0.0
H3733 H 0.35388 0.37869 0.80243 0.0
H3734 H 0.37159 0.37936 0.82719 0.0
C3735 C 0.38791 0.41334 0.9294 0.0
C3736 C 0.37244 0.39042 0.89165 0.0
H3737 H 0.35391 0.35976 0.86937 0.0
C3738 C 0.37516 0.40174 0.87874 0.0
C3739 C 0.36578 0.37466 0.88802 0.0
C3740 C 0.36377 0.36154 0.90113 0.0
C3741 C 0.36962 0.39844 0.86263 0.0
C3742 C 0.36132 0.38337 0.85942 0.0
C3743 C 0.36014 0.37138 0.87194 0.0
C3744 C 0.35115 0.38127 0.84439 0.0
C3745 C 0.37124 0.41168 0.84955 0.0
C3746 C 0.33388 0.38181 0.84596 0.0
C3747 C 0.32383 0.3815 0.83198 0.0
C3748 C 0.33085 0.38056 0.81611 0.0
C3749 C 0.34816 0.37951 0.81452 0.0
C3750 C 0.35827 0.37988 0.82861 0.0
H3751 H 0.37709 0.42314 0.8544 0.0
H3752 H 0.37892 0.40697 0.83918 0.0
H3753 H 0.35886 0.41487 0.84449 0.0
H3754 H 0.32818 0.38296 0.85805 0.0
H3755 H 0.31054 0.38222 0.83361 0.0
H3756 H 0.5536 0.6246 0.88983 0.0
H3757 H 0.57946 0.62754 0.8742 0.0
H3758 H 0.60729 0.61413 0.91775 0.0
H3759 H 0.58165 0.61097 0.93329 0.0
H3760 H 0.60201 0.65064 0.88283 0.0
H3761 H 0.63267 0.58961 0.88225 0.0
H3762 H 0.61084 0.59203 0.88652 0.0
H3763 H 0.62591 0.59496 0.9027 0.0
C3764 C 0.56523 0.62187 0.89592 0.0
C3765 C 0.56564 0.61768 0.9128 0.0
C3766 C 0.57997 0.62351 0.88698 0.0
C3767 C 0.59529 0.62083 0.89474 0.0
C3768 C 0.59562 0.61584 0.91137 0.0
H3769 H 0.69189 0.65438 0.90007 0.0
H3770 H 0.66634 0.63823 0.90026 0.0
C3771 C 0.58094 0.61423 0.9203 0.0
C3772 C 0.61091 0.6258 0.88654 0.0
H3773 H 0.65094 0.6136 0.88071 0.0
C3774 C 0.61261 0.64245 0.8819 0.0
C3775 C 0.62471 0.61509 0.8854 0.0
C3776 C 0.62339 0.59689 0.88933 0.0
C3777 C 0.62803 0.64901 0.87744 0.0
C3778 C 0.64206 0.63851 0.87727 0.0
C3779 C 0.64017 0.62162 0.88089 0.0
C3780 C 0.65895 0.64538 0.87552 0.0
C3781 C 0.62935 0.66739 0.8742 0.0
C3782 C 0.66364 0.65408 0.86123 0.0
C3783 C 0.67816 0.66349 0.86117 0.0
C3784 C 0.68827 0.66413 0.87532 0.0
C3785 C 0.68429 0.65421 0.88903 0.0
C3786 C 0.66972 0.64493 0.88913 0.0
H3787 H 0.61789 0.67413 0.87771 0.0
H3788 H 0.63989 0.6728 0.88117 0.0
H3789 H 0.63157 0.6695 0.86081 0.0
H3790 H 0.65564 0.65431 0.85048 0.0
H3791 H 0.68103 0.67089 0.85036 0.0
H3792 H 0.62782 0.30363 0.15146 0.0
H3793 H 0.62696 0.32977 0.13592 0.0
H3794 H 0.60437 0.35388 0.17787 0.0
H3795 H 0.60538 0.32809 0.19342 0.0
H3796 H 0.59956 0.3474 0.12736 0.0
H3797 H 0.64012 0.38673 0.16549 0.0
H3798 H 0.6402 0.36442 0.16707 0.0
H3799 H 0.62522 0.37651 0.17836 0.0
C3800 C 0.62284 0.31458 0.15739 0.0
C3801 C 0.61667 0.31386 0.17365 0.0
C3802 C 0.62241 0.32948 0.14853 0.0
C3803 C 0.61596 0.34384 0.15588 0.0
C3804 C 0.60987 0.34308 0.17212 0.0
H3805 H 0.554 0.41923 0.13289 0.0
H3806 H 0.56956 0.39358 0.13528 0.0
C3807 C 0.61028 0.32827 0.18094 0.0
C3808 C 0.61402 0.35935 0.14634 0.0
H3809 H 0.61768 0.40112 0.15096 0.0
C3810 C 0.60391 0.35914 0.13222 0.0
C3811 C 0.62007 0.37463 0.15236 0.0
C3812 C 0.63217 0.37556 0.16655 0.0
C3813 C 0.59824 0.37392 0.1251 0.0
C3814 C 0.60254 0.38918 0.13252 0.0
C3815 C 0.61411 0.3894 0.14547 0.0
C3816 C 0.59321 0.40454 0.129 0.0
C3817 C 0.58703 0.373 0.1102 0.0
C3818 C 0.60137 0.41935 0.12495 0.0
C3819 C 0.59245 0.43418 0.12371 0.0
C3820 C 0.57532 0.43437 0.12673 0.0
C3821 C 0.56719 0.41947 0.13047 0.0
C3822 C 0.57605 0.40474 0.13165 0.0
H3823 H 0.59014 0.36211 0.1024 0.0
H3824 H 0.57404 0.37152 0.11439 0.0
H3825 H 0.58791 0.38437 0.10251 0.0
H3826 H 0.61465 0.41949 0.12308 0.0
H3827 H 0.59902 0.44551 0.12084 0.0
H3828 H 0.80744 0.35015 0.37062 0.0
H3829 H 0.83331 0.36572 0.37419 0.0
H3830 H 0.86019 0.31979 0.37883 0.0
H3831 H 0.83468 0.30431 0.375 0.0
H3832 H 0.85208 0.36531 0.4014 0.0
H3833 H 0.89078 0.34529 0.34906 0.0
H3834 H 0.86861 0.34232 0.34929 0.0
H3835 H 0.88214 0.32748 0.35907 0.0
C3836 C 0.81895 0.34343 0.37208 0.0
C3837 C 0.81907 0.32603 0.37258 0.0
C3838 C 0.83369 0.35232 0.37408 0.0
C3839 C 0.84873 0.34392 0.37644 0.0
C3840 C 0.84885 0.32655 0.37652 0.0
H3841 H 0.92668 0.35171 0.4408 0.0
H3842 H 0.90074 0.3505 0.42551 0.0
C3843 C 0.8342 0.3177 0.37452 0.0
C3844 C 0.86402 0.35295 0.38097 0.0
H3845 H 0.90576 0.35193 0.37473 0.0
C3846 C 0.86377 0.36279 0.39528 0.0
C3847 C 0.87924 0.35003 0.37282 0.0
C3848 C 0.88016 0.34085 0.3566 0.0
C3849 C 0.8785 0.36832 0.40257 0.0
C3850 C 0.89381 0.36358 0.39554 0.0
C3851 C 0.89401 0.35524 0.38032 0.0
C3852 C 0.9095 0.36517 0.40485 0.0
C3853 C 0.87752 0.37858 0.41815 0.0
C3854 C 0.92322 0.37338 0.39806 0.0
C3855 C 0.93821 0.37395 0.40675 0.0
C3856 C 0.93966 0.36618 0.42226 0.0
C3857 C 0.92592 0.35789 0.42892 0.0
C3858 C 0.91102 0.35733 0.42027 0.0
H3859 H 0.86599 0.38607 0.41841 0.0
H3860 H 0.87731 0.37022 0.42905 0.0
H3861 H 0.88832 0.38701 0.4193 0.0
H3862 H 0.92234 0.37931 0.38607 0.0
H3863 H 0.94863 0.3804 0.40132 0.0
H3864 H 0.88382 0.69808 0.64628 0.0
H3865 H 0.88924 0.67069 0.63447 0.0
H3866 H 0.85859 0.64834 0.67209 0.0
H3867 H 0.85361 0.67556 0.68421 0.0
H3868 H 0.88894 0.63594 0.67223 0.0
H3869 H 0.86546 0.63553 0.60786 0.0
H3870 H 0.87845 0.65305 0.61206 0.0
H3871 H 0.8591 0.65084 0.62287 0.0
C3872 C 0.87789 0.68735 0.65172 0.0
C3873 C 0.86845 0.68887 0.66624 0.0
C3874 C 0.88089 0.67172 0.6449 0.0
C3875 C 0.87423 0.65747 0.65233 0.0
C3876 C 0.86384 0.65917 0.66615 0.0
H3877 H 0.89688 0.55445 0.62542 0.0
H3878 H 0.88165 0.58041 0.63 0.0
C3879 C 0.86103 0.67471 0.67308 0.0
C3880 C 0.88015 0.64081 0.6475 0.0
H3881 H 0.88581 0.61472 0.6147 0.0
C3882 C 0.88799 0.63122 0.65969 0.0
C3883 C 0.87888 0.63462 0.63117 0.0
C3884 C 0.86986 0.64398 0.61777 0.0
C3885 C 0.8951 0.61591 0.65591 0.0
C3886 C 0.89463 0.61014 0.63942 0.0
C3887 C 0.88626 0.61933 0.6273 0.0
C3888 C 0.90362 0.59499 0.63464 0.0
C3889 C 0.90332 0.60612 0.66954 0.0
C3890 C 0.92095 0.59482 0.63536 0.0
C3891 C 0.9296 0.58012 0.63286 0.0
C3892 C 0.92108 0.56534 0.62952 0.0
C3893 C 0.90374 0.56567 0.62805 0.0
C3894 C 0.89505 0.58045 0.63059 0.0
H3895 H 0.89918 0.61023 0.68199 0.0
H3896 H 0.90068 0.59269 0.66822 0.0
H3897 H 0.91693 0.60787 0.66879 0.0
H3898 H 0.92774 0.60599 0.63834 0.0
H3899 H 0.94297 0.58028 0.63392 0.0
H3900 H 0.57826 0.35256 0.54754 0.0
H3901 H 0.60497 0.34966 0.56122 0.0
H3902 H 0.58441 0.36985 0.60617 0.0
H3903 H 0.55735 0.37257 0.59254 0.0
H3904 H 0.62562 0.37311 0.577 0.0
H3905 H 0.60273 0.32435 0.62022 0.0
H3906 H 0.59092 0.33076 0.60238 0.0
H3907 H 0.59223 0.34398 0.62018 0.0
C3908 C 0.57939 0.35644 0.56032 0.0
C3909 C 0.56569 0.36263 0.56903 0.0
C3910 C 0.59469 0.35487 0.56809 0.0
C3911 C 0.59662 0.35943 0.58472 0.0
C3912 C 0.5831 0.36608 0.59337 0.0
H3913 H 0.69905 0.33992 0.61983 0.0
H3914 H 0.67299 0.3555 0.61734 0.0
C3915 C 0.5677 0.36764 0.58558 0.0
C3916 C 0.61264 0.35614 0.59292 0.0
H3917 H 0.63133 0.32826 0.61853 0.0
C3918 C 0.62692 0.36361 0.5864 0.0
C3919 C 0.6142 0.34372 0.60515 0.0
C3920 C 0.59927 0.33512 0.6124 0.0
C3921 C 0.64277 0.35812 0.59091 0.0
C3922 C 0.64428 0.34497 0.60233 0.0
C3923 C 0.63004 0.33837 0.60979 0.0
C3924 C 0.66003 0.33593 0.60443 0.0
C3925 C 0.65772 0.3655 0.58249 0.0
C3926 C 0.66124 0.31982 0.59812 0.0
C3927 C 0.67595 0.31098 0.59952 0.0
C3928 C 0.68978 0.31806 0.6073 0.0
C3929 C 0.68859 0.33421 0.61371 0.0
C3930 C 0.67376 0.34311 0.61229 0.0
H3931 H 0.65429 0.37477 0.57293 0.0
H3932 H 0.66566 0.37166 0.59185 0.0
H3933 H 0.66518 0.35559 0.57656 0.0
H3934 H 0.65077 0.31412 0.59196 0.0
H3935 H 0.67646 0.29857 0.59448 0.0
H3936 H 0.8943 0.30625 0.84672 0.0
H3937 H 0.89772 0.33396 0.85838 0.0
H3938 H 0.85496 0.35081 0.83116 0.0
H3939 H 0.85182 0.32327 0.81907 0.0
H3940 H 0.88128 0.36864 0.82402 0.0
H3941 H 0.87666 0.36402 0.89209 0.0
H3942 H 0.89079 0.34898 0.88392 0.0
H3943 H 0.8692 0.34793 0.87847 0.0
C3944 C 0.88536 0.31575 0.84362 0.0
C3945 C 0.87291 0.31271 0.83188 0.0
C3946 C 0.88724 0.33156 0.85039 0.0
C3947 C 0.87651 0.34445 0.84574 0.0
C3948 C 0.86335 0.34105 0.83494 0.0
H3949 H 0.89725 0.44796 0.87469 0.0
H3950 H 0.88209 0.42182 0.87094 0.0
C3951 C 0.86159 0.32533 0.82803 0.0
C3952 C 0.88068 0.36183 0.84984 0.0
H3953 H 0.89246 0.38733 0.88142 0.0
C3954 C 0.88335 0.3728 0.83662 0.0
C3955 C 0.8833 0.36734 0.86625 0.0
C3956 C 0.87966 0.35648 0.88099 0.0
C3957 C 0.88948 0.38878 0.83929 0.0
C3958 C 0.89326 0.39382 0.85558 0.0
C3959 C 0.8897 0.38329 0.86892 0.0
C3960 C 0.90235 0.40935 0.85866 0.0
C3961 C 0.89237 0.39997 0.82461 0.0
C3962 C 0.91874 0.41079 0.85318 0.0
C3963 C 0.92736 0.42556 0.85528 0.0
C3964 C 0.91974 0.43919 0.86292 0.0
C3965 C 0.90338 0.43766 0.86868 0.0
C3966 C 0.89474 0.42278 0.86661 0.0
H3967 H 0.88495 0.39607 0.81371 0.0
H3968 H 0.88924 0.413 0.82767 0.0
H3969 H 0.90565 0.39948 0.82111 0.0
H3970 H 0.92483 0.40046 0.84716 0.0
H3971 H 0.93997 0.42633 0.8508 0.0
H3972 H 0.80657 0.66821 0.09228 0.0
H3973 H 0.8333 0.65419 0.09122 0.0
H3974 H 0.83258 0.6483 0.14427 0.0
H3975 H 0.80556 0.66225 0.14542 0.0
H3976 H 0.86106 0.66503 0.13071 0.0
H3977 H 0.8489 0.60574 0.09864 0.0
H3978 H 0.83884 0.62301 0.08892 0.0
H3979 H 0.83298 0.61707 0.10957 0.0
C3980 C 0.81192 0.66361 0.10369 0.0
C3981 C 0.80405 0.66633 0.11893 0.0
C3982 C 0.82713 0.6555 0.10306 0.0
C3983 C 0.83478 0.65005 0.11765 0.0
C3984 C 0.82673 0.65227 0.13287 0.0
H3985 H 0.93589 0.61308 0.09767 0.0
H3986 H 0.90967 0.61513 0.11306 0.0
C3987 C 0.81134 0.66021 0.1335 0.0
C3988 C 0.85205 0.64408 0.11688 0.0
H3989 H 0.87651 0.61717 0.09546 0.0
C3990 C 0.86448 0.65427 0.12344 0.0
C3991 C 0.85646 0.62998 0.10751 0.0
C3992 C 0.84358 0.61822 0.10089 0.0
C3993 C 0.88118 0.65158 0.11954 0.0
C3994 C 0.88542 0.63843 0.10885 0.0
C3995 C 0.87316 0.62733 0.10357 0.0
C3996 C 0.90182 0.63764 0.10088 0.0
C3997 C 0.89408 0.66341 0.12604 0.0
C3998 C 0.90592 0.6496 0.08899 0.0
C3999 C 0.92063 0.64835 0.0801 0.0
C4000 C 0.93157 0.63517 0.08302 0.0
C4001 C 0.92768 0.6234 0.09525 0.0
C4002 C 0.91276 0.62454 0.10401 0.0
H4003 H 0.88971 0.66992 0.13733 0.0
H4004 H 0.90578 0.65679 0.12891 0.0
H4005 H 0.89678 0.67285 0.11643 0.0
H4006 H 0.89749 0.65968 0.08627 0.0
H4007 H 0.92334 0.6576 0.07077 0.0
H4008 H 0.59539 0.6905 0.34281 0.0
H4009 H 0.59556 0.66332 0.35584 0.0
H4010 H 0.64556 0.65527 0.33887 0.0
H4011 H 0.64532 0.68244 0.32542 0.0
H4012 H 0.62577 0.63147 0.32868 0.0
H4013 H 0.61447 0.63997 0.3953 0.0
H4014 H 0.5998 0.65195 0.38377 0.0
H4015 H 0.62157 0.65668 0.38223 0.0
C4016 C 0.60659 0.68315 0.34224 0.0
C4017 C 0.62027 0.68851 0.33296 0.0
C4018 C 0.60674 0.66765 0.34986 0.0
C4019 C 0.62065 0.6573 0.34853 0.0
C4020 C 0.63474 0.66309 0.34016 0.0
H4021 H 0.59637 0.5554 0.38132 0.0
H4022 H 0.61384 0.58026 0.37872 0.0
C4023 C 0.63457 0.6786 0.33246 0.0
C4024 C 0.6192 0.63963 0.35325 0.0
H4025 H 0.60258 0.61465 0.383 0.0
C4026 C 0.62121 0.62772 0.34075 0.0
C4027 C 0.61351 0.63461 0.36904 0.0
C4028 C 0.61241 0.6465 0.38337 0.0
C4029 C 0.61608 0.61133 0.34309 0.0
C4030 C 0.60857 0.60683 0.35822 0.0
C4031 C 0.60811 0.61824 0.3713 0.0
C4032 C 0.59877 0.59146 0.35963 0.0
C4033 C 0.61781 0.5992 0.32901 0.0
C4034 C 0.58453 0.58973 0.34989 0.0
C4035 C 0.57456 0.57576 0.35143 0.0
C4036 C 0.57865 0.56322 0.36274 0.0
C4037 C 0.593 0.56487 0.37245 0.0
C4038 C 0.60295 0.57901 0.37101 0.0
H4039 H 0.62817 0.60269 0.32067 0.0
H4040 H 0.61995 0.58644 0.33368 0.0
H4041 H 0.60625 0.5992 0.3216 0.0
H4042 H 0.58096 0.59935 0.34125 0.0
H4043 H 0.56357 0.57485 0.34379 0.0
H4044 H 0.65342 0.93053 0.57572 0.0
H4045 H 0.65551 0.91336 0.60046 0.0
H4046 H 0.62208 0.87775 0.57891 0.0
H4047 H 0.61991 0.89499 0.5539 0.0
H4048 H 0.61449 0.88771 0.61253 0.0
H4049 H 0.67975 0.86835 0.60522 0.0
H4050 H 0.67705 0.89023 0.60241 0.0
H4051 H 0.66745 0.87603 0.58818 0.0
C4052 C 0.64658 0.91901 0.57617 0.0
C4053 C 0.63654 0.91407 0.56287 0.0
C4054 C 0.64786 0.90917 0.59027 0.0
C4055 C 0.63914 0.8942 0.59137 0.0
C4056 C 0.629 0.88922 0.57818 0.0
H4057 H 0.66901 0.84487 0.68259 0.0
H4058 H 0.65819 0.84586 0.6543 0.0
C4059 C 0.6278 0.89905 0.56395 0.0
C4060 C 0.64029 0.88433 0.60672 0.0
H4061 H 0.66902 0.8684 0.63312 0.0
C4062 C 0.6263 0.88308 0.61693 0.0
C4063 C 0.65562 0.87799 0.61225 0.0
C4064 C 0.67079 0.87805 0.60136 0.0
C4065 C 0.6276 0.87698 0.63315 0.0
C4066 C 0.64332 0.8723 0.63928 0.0
C4067 C 0.65697 0.87215 0.62852 0.0
C4068 C 0.64652 0.86981 0.65717 0.0
C4069 C 0.61224 0.87616 0.64372 0.0
C4070 C 0.64316 0.88272 0.6683 0.0
C4071 C 0.64927 0.88217 0.68444 0.0
C4072 C 0.65904 0.86877 0.68968 0.0
C4073 C 0.66153 0.85537 0.67888 0.0
C4074 C 0.65536 0.85591 0.66272 0.0
H4075 H 0.60111 0.87373 0.63601 0.0
H4076 H 0.61322 0.86636 0.65331 0.0
H4077 H 0.6104 0.88825 0.64996 0.0
H4078 H 0.63675 0.89377 0.66422 0.0
H4079 H 0.64717 0.8927 0.69247 0.0
loop_
_geom_bond_atom_site_label_1
_geom_bond_atom_site_label_2
_geom_bond_distance
_geom_bond_site_symmetry_2
_ccdc_geom_bond_type
In0 O1 2.294 . S
In0 O2 2.326 . S
In0 O6 2.266 . S
In0 O7 2.326 . S
In0 O8 2.266 . S
In0 O9 2.326 . S
In0 O11 2.294 . S
In0 O12 2.326 . S
O1 In0 2.294 . S
O1 C10 1.240 . S
O2 In0 2.326 . S
O2 C10 1.252 . S
C3 O6 1.252 . S
C3 O7 1.260 . S
C4 O11 1.240 . S
C4 O12 1.252 . S
C5 O8 1.252 . S
C5 O9 1.260 . S
O6 In0 2.266 . S
O6 C3 1.252 . S
O7 In0 2.326 . S
O7 C3 1.260 . S
O8 In0 2.266 . S
O8 C5 1.252 . S
O9 In0 2.326 . S
O9 C5 1.260 . S
C10 O1 1.240 . S
C10 O2 1.252 . S
O11 In0 2.294 . S
O11 C4 1.240 . S
O12 In0 2.326 . S
O12 C4 1.252 . S
In13 O14 2.294 . S
In13 O15 2.326 . S
In13 O19 2.266 . S
In13 O20 2.326 . S
In13 O21 2.266 . S
In13 O22 2.326 . S
In13 O24 2.294 . S
In13 O25 2.326 . S
O14 In13 2.294 . S
O14 C23 1.240 . S
O15 In13 2.326 . S
O15 C23 1.252 . S
C16 O19 1.252 . S
C16 O20 1.260 . S
C17 O24 1.240 . S
C17 O25 1.252 . S
C18 O21 1.252 . S
C18 O22 1.260 . S
O19 In13 2.266 . S
O19 C16 1.252 . S
O20 In13 2.326 . S
O20 C16 1.260 . S
O21 In13 2.266 . S
O21 C18 1.252 . S
O22 In13 2.326 . S
O22 C18 1.260 . S
C23 O14 1.240 . S
C23 O15 1.252 . S
O24 In13 2.294 . S
O24 C17 1.240 . S
O25 In13 2.326 . S
O25 C17 1.252 . S
In26 O27 2.294 . S
In26 O28 2.326 . S
In26 O32 2.266 . S
In26 O33 2.326 . S
In26 O34 2.266 . S
In26 O35 2.326 . S
In26 O37 2.294 . S
In26 O38 2.326 . S
O27 In26 2.294 . S
O27 C36 1.240 . S
O28 In26 2.326 . S
O28 C36 1.252 . S
C29 O32 1.252 . S
C29 O33 1.260 . S
C30 O37 1.240 . S
C30 O38 1.252 . S
C31 O34 1.252 . S
C31 O35 1.260 . S
O32 In26 2.266 . S
O32 C29 1.252 . S
O33 In26 2.326 . S
O33 C29 1.260 . S
O34 In26 2.266 . S
O34 C31 1.252 . S
O35 In26 2.326 . S
O35 C31 1.260 . S
C36 O27 1.240 . S
C36 O28 1.252 . S
O37 In26 2.294 . S
O37 C30 1.240 . S
O38 In26 2.326 . S
O38 C30 1.252 . S
In39 O40 2.294 . S
In39 O41 2.326 . S
In39 O45 2.266 . S
In39 O46 2.326 . S
In39 O47 2.266 . S
In39 O48 2.326 . S
In39 O50 2.294 . S
In39 O51 2.326 . S
O40 In39 2.294 . S
O40 C49 1.240 . S
O41 In39 2.326 . S
O41 C49 1.252 . S
C42 O45 1.252 . S
C42 O46 1.260 . S
C43 O50 1.240 . S
C43 O51 1.252 . S
C44 O47 1.252 . S
C44 O48 1.260 . S
O45 In39 2.266 . S
O45 C42 1.252 . S
O46 In39 2.326 . S
O46 C42 1.260 . S
O47 In39 2.266 . S
O47 C44 1.252 . S
O48 In39 2.326 . S
O48 C44 1.260 . S
C49 O40 1.240 . S
C49 O41 1.252 . S
O50 In39 2.294 . S
O50 C43 1.240 . S
O51 In39 2.326 . S
O51 C43 1.252 . S
In52 O53 2.294 . S
In52 O54 2.326 . S
In52 O58 2.266 . S
In52 O59 2.326 . S
In52 O60 2.266 . S
In52 O61 2.326 . S
In52 O63 2.294 . S
In52 O64 2.326 . S
O53 In52 2.294 . S
O53 C62 1.240 . S
O54 In52 2.326 . S
O54 C62 1.252 . S
C55 O58 1.252 . S
C55 O59 1.260 . S
C56 O63 1.240 . S
C56 O64 1.252 . S
C57 O60 1.252 . S
C57 O61 1.260 . S
O58 In52 2.266 . S
O58 C55 1.252 . S
O59 In52 2.326 . S
O59 C55 1.260 . S
O60 In52 2.266 . S
O60 C57 1.252 . S
O61 In52 2.326 . S
O61 C57 1.260 . S
C62 O53 1.240 . S
C62 O54 1.252 . S
O63 In52 2.294 . S
O63 C56 1.240 . S
O64 In52 2.326 . S
O64 C56 1.252 . S
In65 O66 2.294 . S
In65 O67 2.326 . S
In65 O71 2.266 . S
In65 O72 2.326 . S
In65 O73 2.266 . S
In65 O74 2.326 . S
In65 O76 2.294 . S
In65 O77 2.326 . S
O66 In65 2.294 . S
O66 C75 1.240 . S
O67 In65 2.326 . S
O67 C75 1.252 . S
C68 O71 1.252 . S
C68 O72 1.260 . S
C69 O76 1.240 . S
C69 O77 1.252 . S
C70 O73 1.252 . S
C70 O74 1.260 . S
O71 In65 2.266 . S
O71 C68 1.252 . S
O72 In65 2.326 . S
O72 C68 1.260 . S
O73 In65 2.266 . S
O73 C70 1.252 . S
O74 In65 2.326 . S
O74 C70 1.260 . S
C75 O66 1.240 . S
C75 O67 1.252 . S
O76 In65 2.294 . S
O76 C69 1.240 . S
O77 In65 2.326 . S
O77 C69 1.252 . S
In78 O79 2.294 . S
In78 O80 2.326 . S
In78 O84 2.266 . S
In78 O85 2.326 . S
In78 O86 2.266 . S
In78 O87 2.326 . S
In78 O89 2.294 . S
In78 O90 2.326 . S
O79 In78 2.294 . S
O79 C88 1.240 . S
O80 In78 2.326 . S
O80 C88 1.252 . S
C81 O84 1.252 . S
C81 O85 1.260 . S
C82 O89 1.240 . S
C82 O90 1.252 . S
C83 O86 1.252 . S
C83 O87 1.260 . S
O84 In78 2.266 . S
O84 C81 1.252 . S
O85 In78 2.326 . S
O85 C81 1.260 . S
O86 In78 2.266 . S
O86 C83 1.252 . S
O87 In78 2.326 . S
O87 C83 1.260 . S
C88 O79 1.240 . S
C88 O80 1.252 . S
O89 In78 2.294 . S
O89 C82 1.240 . S
O90 In78 2.326 . S
O90 C82 1.252 . S
In91 O92 2.294 . S
In91 O93 2.326 . S
In91 O97 2.266 . S
In91 O98 2.326 . S
In91 O99 2.266 . S
In91 O100 2.326 . S
In91 O102 2.294 . S
In91 O103 2.326 . S
O92 In91 2.294 . S
O92 C101 1.240 . S
O93 In91 2.326 . S
O93 C101 1.252 . S
C94 O97 1.252 . S
C94 O98 1.260 . S
C95 O102 1.240 . S
C95 O103 1.252 . S
C96 O99 1.252 . S
C96 O100 1.260 . S
O97 In91 2.266 . S
O97 C94 1.252 . S
O98 In91 2.326 . S
O98 C94 1.260 . S
O99 In91 2.266 . S
O99 C96 1.252 . S
O100 In91 2.326 . S
O100 C96 1.260 . S
C101 O92 1.240 . S
C101 O93 1.252 . S
O102 In91 2.294 . S
O102 C95 1.240 . S
O103 In91 2.326 . S
O103 C95 1.252 . S
In104 O105 2.294 . S
In104 O106 2.326 . S
In104 O110 2.266 . S
In104 O111 2.326 . S
In104 O112 2.266 . S
In104 O113 2.326 . S
In104 O115 2.294 . S
In104 O116 2.326 . S
O105 In104 2.294 . S
O105 C114 1.240 . S
O106 In104 2.326 . S
O106 C114 1.252 . S
C107 O110 1.252 . S
C107 O111 1.260 . S
C108 O115 1.240 . S
C108 O116 1.252 . S
C109 O112 1.252 . S
C109 O113 1.260 . S
O110 In104 2.266 . S
O110 C107 1.252 . S
O111 In104 2.326 . S
O111 C107 1.260 . S
O112 In104 2.266 . S
O112 C109 1.252 . S
O113 In104 2.326 . S
O113 C109 1.260 . S
C114 O105 1.240 . S
C114 O106 1.252 . S
O115 In104 2.294 . S
O115 C108 1.240 . S
O116 In104 2.326 . S
O116 C108 1.252 . S
In117 O118 2.294 . S
In117 O119 2.326 . S
In117 O123 2.266 . S
In117 O124 2.326 . S
In117 O125 2.266 . S
In117 O126 2.326 . S
In117 O128 2.294 . S
In117 O129 2.326 . S
O118 In117 2.294 . S
O118 C127 1.240 . S
O119 In117 2.326 . S
O119 C127 1.252 . S
C120 O123 1.252 . S
C120 O124 1.260 . S
C121 O128 1.240 . S
C121 O129 1.252 . S
C122 O125 1.252 . S
C122 O126 1.260 . S
O123 In117 2.266 . S
O123 C120 1.252 . S
O124 In117 2.326 . S
O124 C120 1.260 . S
O125 In117 2.266 . S
O125 C122 1.252 . S
O126 In117 2.326 . S
O126 C122 1.260 . S
C127 O118 1.240 . S
C127 O119 1.252 . S
O128 In117 2.294 . S
O128 C121 1.240 . S
O129 In117 2.326 . S
O129 C121 1.252 . S
In130 O131 2.294 . S
In130 O132 2.326 . S
In130 O136 2.266 . S
In130 O137 2.326 . S
In130 O138 2.266 . S
In130 O139 2.326 . S
In130 O141 2.294 . S
In130 O142 2.326 . S
O131 In130 2.294 . S
O131 C140 1.240 . S
O132 In130 2.326 . S
O132 C140 1.252 . S
C133 O136 1.252 . S
C133 O137 1.260 . S
C134 O141 1.240 . S
C134 O142 1.252 . S
C135 O138 1.252 . S
C135 O139 1.260 . S
O136 In130 2.266 . S
O136 C133 1.252 . S
O137 In130 2.326 . S
O137 C133 1.260 . S
O138 In130 2.266 . S
O138 C135 1.252 . S
O139 In130 2.326 . S
O139 C135 1.260 . S
C140 O131 1.240 . S
C140 O132 1.252 . S
O141 In130 2.294 . S
O141 C134 1.240 . S
O142 In130 2.326 . S
O142 C134 1.252 . S
In143 O144 2.294 . S
In143 O145 2.326 . S
In143 O149 2.266 . S
In143 O150 2.326 . S
In143 O151 2.266 . S
In143 O152 2.326 . S
In143 O154 2.294 . S
In143 O155 2.326 . S
O144 In143 2.294 . S
O144 C153 1.240 . S
O145 In143 2.326 . S
O145 C153 1.252 . S
C146 O149 1.252 . S
C146 O150 1.260 . S
C147 O154 1.240 . S
C147 O155 1.252 . S
C148 O151 1.252 . S
C148 O152 1.260 . S
O149 In143 2.266 . S
O149 C146 1.252 . S
O150 In143 2.326 . S
O150 C146 1.260 . S
O151 In143 2.266 . S
O151 C148 1.252 . S
O152 In143 2.326 . S
O152 C148 1.260 . S
C153 O144 1.240 . S
C153 O145 1.252 . S
O154 In143 2.294 . S
O154 C147 1.240 . S
O155 In143 2.326 . S
O155 C147 1.252 . S
In156 O157 2.294 . S
In156 O158 2.326 . S
In156 O162 2.266 . S
In156 O163 2.326 . S
In156 O164 2.266 . S
In156 O165 2.326 . S
In156 O167 2.294 . S
In156 O168 2.326 . S
O157 In156 2.294 . S
O157 C166 1.240 . S
O158 In156 2.326 . S
O158 C166 1.252 . S
C159 O162 1.252 . S
C159 O163 1.260 . S
C160 O167 1.240 . S
C160 O168 1.252 . S
C161 O164 1.252 . S
C161 O165 1.260 . S
O162 In156 2.266 . S
O162 C159 1.252 . S
O163 In156 2.326 . S
O163 C159 1.260 . S
O164 In156 2.266 . S
O164 C161 1.252 . S
O165 In156 2.326 . S
O165 C161 1.260 . S
C166 O157 1.240 . S
C166 O158 1.252 . S
O167 In156 2.294 . S
O167 C160 1.240 . S
O168 In156 2.326 . S
O168 C160 1.252 . S
In169 O170 2.294 . S
In169 O171 2.326 . S
In169 O175 2.266 . S
In169 O176 2.326 . S
In169 O177 2.266 . S
In169 O178 2.326 . S
In169 O180 2.294 . S
In169 O181 2.326 . S
O170 In169 2.294 . S
O170 C179 1.240 . S
O171 In169 2.326 . S
O171 C179 1.252 . S
C172 O175 1.252 . S
C172 O176 1.260 . S
C173 O180 1.240 . S
C173 O181 1.252 . S
C174 O177 1.252 . S
C174 O178 1.260 . S
O175 In169 2.266 . S
O175 C172 1.252 . S
O176 In169 2.326 . S
O176 C172 1.260 . S
O177 In169 2.266 . S
O177 C174 1.252 . S
O178 In169 2.326 . S
O178 C174 1.260 . S
C179 O170 1.240 . S
C179 O171 1.252 . S
O180 In169 2.294 . S
O180 C173 1.240 . S
O181 In169 2.326 . S
O181 C173 1.252 . S
In182 O183 2.294 . S
In182 O184 2.326 . S
In182 O188 2.266 . S
In182 O189 2.326 . S
In182 O190 2.266 . S
In182 O191 2.326 . S
In182 O193 2.294 . S
In182 O194 2.326 . S
O183 In182 2.294 . S
O183 C192 1.240 . S
O184 In182 2.326 . S
O184 C192 1.252 . S
C185 O188 1.252 . S
C185 O189 1.260 . S
C186 O193 1.240 . S
C186 O194 1.252 . S
C187 O190 1.252 . S
C187 O191 1.260 . S
O188 In182 2.266 . S
O188 C185 1.252 . S
O189 In182 2.326 . S
O189 C185 1.260 . S
O190 In182 2.266 . S
O190 C187 1.252 . S
O191 In182 2.326 . S
O191 C187 1.260 . S
C192 O183 1.240 . S
C192 O184 1.252 . S
O193 In182 2.294 . S
O193 C186 1.240 . S
O194 In182 2.326 . S
O194 C186 1.252 . S
In195 O196 2.294 . S
In195 O197 2.326 . S
In195 O201 2.266 . S
In195 O202 2.326 . S
In195 O203 2.266 . S
In195 O204 2.326 . S
In195 O206 2.294 . S
In195 O207 2.326 . S
O196 In195 2.294 . S
O196 C205 1.240 . S
O197 In195 2.326 . S
O197 C205 1.252 . S
C198 O201 1.252 . S
C198 O202 1.260 . S
C199 O206 1.240 . S
C199 O207 1.252 . S
C200 O203 1.252 . S
C200 O204 1.260 . S
O201 In195 2.266 . S
O201 C198 1.252 . S
O202 In195 2.326 . S
O202 C198 1.260 . S
O203 In195 2.266 . S
O203 C200 1.252 . S
O204 In195 2.326 . S
O204 C200 1.260 . S
C205 O196 1.240 . S
C205 O197 1.252 . S
O206 In195 2.294 . S
O206 C199 1.240 . S
O207 In195 2.326 . S
O207 C199 1.252 . S
In208 O209 2.294 . S
In208 O210 2.326 . S
In208 O214 2.266 . S
In208 O215 2.326 . S
In208 O216 2.266 . S
In208 O217 2.326 . S
In208 O219 2.294 . S
In208 O220 2.326 . S
O209 In208 2.294 . S
O209 C218 1.240 . S
O210 In208 2.326 . S
O210 C218 1.252 . S
C211 O214 1.252 . S
C211 O215 1.260 . S
C212 O219 1.240 . S
C212 O220 1.252 . S
C213 O216 1.252 . S
C213 O217 1.260 . S
O214 In208 2.266 . S
O214 C211 1.252 . S
O215 In208 2.326 . S
O215 C211 1.260 . S
O216 In208 2.266 . S
O216 C213 1.252 . S
O217 In208 2.326 . S
O217 C213 1.260 . S
C218 O209 1.240 . S
C218 O210 1.252 . S
O219 In208 2.294 . S
O219 C212 1.240 . S
O220 In208 2.326 . S
O220 C212 1.252 . S
In221 O222 2.294 . S
In221 O223 2.326 . S
In221 O227 2.266 . S
In221 O228 2.326 . S
In221 O229 2.266 . S
In221 O230 2.326 . S
In221 O232 2.294 . S
In221 O233 2.326 . S
O222 In221 2.294 . S
O222 C231 1.240 . S
O223 In221 2.326 . S
O223 C231 1.252 . S
C224 O227 1.252 . S
C224 O228 1.260 . S
C225 O232 1.240 . S
C225 O233 1.252 . S
C226 O229 1.252 . S
C226 O230 1.260 . S
O227 In221 2.266 . S
O227 C224 1.252 . S
O228 In221 2.326 . S
O228 C224 1.260 . S
O229 In221 2.266 . S
O229 C226 1.252 . S
O230 In221 2.326 . S
O230 C226 1.260 . S
C231 O222 1.240 . S
C231 O223 1.252 . S
O232 In221 2.294 . S
O232 C225 1.240 . S
O233 In221 2.326 . S
O233 C225 1.252 . S
In234 O235 2.294 . S
In234 O236 2.326 . S
In234 O240 2.266 . S
In234 O241 2.326 . S
In234 O242 2.266 . S
In234 O243 2.326 . S
In234 O245 2.294 . S
In234 O246 2.326 . S
O235 In234 2.294 . S
O235 C244 1.240 . S
O236 In234 2.326 . S
O236 C244 1.252 . S
C237 O240 1.252 . S
C237 O241 1.260 . S
C238 O245 1.240 . S
C238 O246 1.252 . S
C239 O242 1.252 . S
C239 O243 1.260 . S
O240 In234 2.266 . S
O240 C237 1.252 . S
O241 In234 2.326 . S
O241 C237 1.260 . S
O242 In234 2.266 . S
O242 C239 1.252 . S
O243 In234 2.326 . S
O243 C239 1.260 . S
C244 O235 1.240 . S
C244 O236 1.252 . S
O245 In234 2.294 . S
O245 C238 1.240 . S
O246 In234 2.326 . S
O246 C238 1.252 . S
In247 O248 2.294 . S
In247 O249 2.326 . S
In247 O253 2.266 . S
In247 O254 2.326 . S
In247 O255 2.266 . S
In247 O256 2.326 . S
In247 O258 2.294 . S
In247 O259 2.326 . S
O248 In247 2.294 . S
O248 C257 1.240 . S
O249 In247 2.326 . S
O249 C257 1.252 . S
C250 O253 1.252 . S
C250 O254 1.260 . S
C251 O258 1.240 . S
C251 O259 1.252 . S
C252 O255 1.252 . S
C252 O256 1.260 . S
O253 In247 2.266 . S
O253 C250 1.252 . S
O254 In247 2.326 . S
O254 C250 1.260 . S
O255 In247 2.266 . S
O255 C252 1.252 . S
O256 In247 2.326 . S
O256 C252 1.260 . S
C257 O248 1.240 . S
C257 O249 1.252 . S
O258 In247 2.294 . S
O258 C251 1.240 . S
O259 In247 2.326 . S
O259 C251 1.252 . S
In260 O261 2.294 . S
In260 O262 2.326 . S
In260 O266 2.266 . S
In260 O267 2.326 . S
In260 O268 2.266 . S
In260 O269 2.326 . S
In260 O271 2.294 . S
In260 O272 2.326 . S
O261 In260 2.294 . S
O261 C270 1.240 . S
O262 In260 2.326 . S
O262 C270 1.252 . S
C263 O266 1.252 . S
C263 O267 1.260 . S
C264 O271 1.240 . S
C264 O272 1.252 . S
C265 O268 1.252 . S
C265 O269 1.260 . S
O266 In260 2.266 . S
O266 C263 1.252 . S
O267 In260 2.326 . S
O267 C263 1.260 . S
O268 In260 2.266 . S
O268 C265 1.252 . S
O269 In260 2.326 . S
O269 C265 1.260 . S
C270 O261 1.240 . S
C270 O262 1.252 . S
O271 In260 2.294 . S
O271 C264 1.240 . S
O272 In260 2.326 . S
O272 C264 1.252 . S
In273 O274 2.294 . S
In273 O275 2.326 . S
In273 O279 2.266 . S
In273 O280 2.326 . S
In273 O281 2.266 . S
In273 O282 2.326 . S
In273 O284 2.294 . S
In273 O285 2.326 . S
O274 In273 2.294 . S
O274 C283 1.240 . S
O275 In273 2.326 . S
O275 C283 1.252 . S
C276 O279 1.252 . S
C276 O280 1.260 . S
C277 O284 1.240 . S
C277 O285 1.252 . S
C278 O281 1.252 . S
C278 O282 1.260 . S
O279 In273 2.266 . S
O279 C276 1.252 . S
O280 In273 2.326 . S
O280 C276 1.260 . S
O281 In273 2.266 . S
O281 C278 1.252 . S
O282 In273 2.326 . S
O282 C278 1.260 . S
C283 O274 1.240 . S
C283 O275 1.252 . S
O284 In273 2.294 . S
O284 C277 1.240 . S
O285 In273 2.326 . S
O285 C277 1.252 . S
In286 O287 2.294 . S
In286 O288 2.326 . S
In286 O292 2.266 . S
In286 O293 2.326 . S
In286 O294 2.266 . S
In286 O295 2.326 . S
In286 O297 2.294 . S
In286 O298 2.326 . S
O287 In286 2.294 . S
O287 C296 1.240 . S
O288 In286 2.326 . S
O288 C296 1.252 . S
C289 O292 1.252 . S
C289 O293 1.260 . S
C290 O297 1.240 . S
C290 O298 1.252 . S
C291 O294 1.252 . S
C291 O295 1.260 . S
O292 In286 2.266 . S
O292 C289 1.252 . S
O293 In286 2.326 . S
O293 C289 1.260 . S
O294 In286 2.266 . S
O294 C291 1.252 . S
O295 In286 2.326 . S
O295 C291 1.260 . S
C296 O287 1.240 . S
C296 O288 1.252 . S
O297 In286 2.294 . S
O297 C290 1.240 . S
O298 In286 2.326 . S
O298 C290 1.252 . S
In299 O300 2.294 . S
In299 O301 2.326 . S
In299 O305 2.266 . S
In299 O306 2.326 . S
In299 O307 2.266 . S
In299 O308 2.326 . S
In299 O310 2.294 . S
In299 O311 2.326 . S
O300 In299 2.294 . S
O300 C309 1.240 . S
O301 In299 2.326 . S
O301 C309 1.252 . S
C302 O305 1.252 . S
C302 O306 1.260 . S
C303 O310 1.240 . S
C303 O311 1.252 . S
C304 O307 1.252 . S
C304 O308 1.260 . S
O305 In299 2.266 . S
O305 C302 1.252 . S
O306 In299 2.326 . S
O306 C302 1.260 . S
O307 In299 2.266 . S
O307 C304 1.252 . S
O308 In299 2.326 . S
O308 C304 1.260 . S
C309 O300 1.240 . S
C309 O301 1.252 . S
O310 In299 2.294 . S
O310 C303 1.240 . S
O311 In299 2.326 . S
O311 C303 1.252 . S
In312 O313 2.294 . S
In312 O314 2.326 . S
In312 O318 2.266 . S
In312 O319 2.326 . S
In312 O320 2.266 . S
In312 O321 2.326 . S
In312 O323 2.294 . S
In312 O324 2.326 . S
O313 In312 2.294 . S
O313 C322 1.240 . S
O314 In312 2.326 . S
O314 C322 1.252 . S
C315 O318 1.252 . S
C315 O319 1.260 . S
C316 O323 1.240 . S
C316 O324 1.252 . S
C317 O320 1.252 . S
C317 O321 1.260 . S
O318 In312 2.266 . S
O318 C315 1.252 . S
O319 In312 2.326 . S
O319 C315 1.260 . S
O320 In312 2.266 . S
O320 C317 1.252 . S
O321 In312 2.326 . S
O321 C317 1.260 . S
C322 O313 1.240 . S
C322 O314 1.252 . S
O323 In312 2.294 . S
O323 C316 1.240 . S
O324 In312 2.326 . S
O324 C316 1.252 . S
In325 O326 2.294 . S
In325 O327 2.326 . S
In325 O331 2.266 . S
In325 O332 2.326 . S
In325 O333 2.266 . S
In325 O334 2.326 . S
In325 O336 2.294 . S
In325 O337 2.326 . S
O326 In325 2.294 . S
O326 C335 1.240 . S
O327 In325 2.326 . S
O327 C335 1.252 . S
C328 O331 1.252 . S
C328 O332 1.260 . S
C329 O336 1.240 . S
C329 O337 1.252 . S
C330 O333 1.252 . S
C330 O334 1.260 . S
O331 In325 2.266 . S
O331 C328 1.252 . S
O332 In325 2.326 . S
O332 C328 1.260 . S
O333 In325 2.266 . S
O333 C330 1.252 . S
O334 In325 2.326 . S
O334 C330 1.260 . S
C335 O326 1.240 . S
C335 O327 1.252 . S
O336 In325 2.294 . S
O336 C329 1.240 . S
O337 In325 2.326 . S
O337 C329 1.252 . S
In338 O339 2.294 . S
In338 O340 2.326 . S
In338 O344 2.266 . S
In338 O345 2.326 . S
In338 O346 2.266 . S
In338 O347 2.326 . S
In338 O349 2.294 . S
In338 O350 2.326 . S
O339 In338 2.294 . S
O339 C348 1.240 . S
O340 In338 2.326 . S
O340 C348 1.252 . S
C341 O344 1.252 . S
C341 O345 1.260 . S
C342 O349 1.240 . S
C342 O350 1.252 . S
C343 O346 1.252 . S
C343 O347 1.260 . S
O344 In338 2.266 . S
O344 C341 1.252 . S
O345 In338 2.326 . S
O345 C341 1.260 . S
O346 In338 2.266 . S
O346 C343 1.252 . S
O347 In338 2.326 . S
O347 C343 1.260 . S
C348 O339 1.240 . S
C348 O340 1.252 . S
O349 In338 2.294 . S
O349 C342 1.240 . S
O350 In338 2.326 . S
O350 C342 1.252 . S
In351 O352 2.294 . S
In351 O353 2.326 . S
In351 O357 2.266 . S
In351 O358 2.326 . S
In351 O359 2.266 . S
In351 O360 2.326 . S
In351 O362 2.294 . S
In351 O363 2.326 . S
O352 In351 2.294 . S
O352 C361 1.240 . S
O353 In351 2.326 . S
O353 C361 1.252 . S
C354 O357 1.252 . S
C354 O358 1.260 . S
C355 O362 1.240 . S
C355 O363 1.252 . S
C356 O359 1.252 . S
C356 O360 1.260 . S
O357 In351 2.266 . S
O357 C354 1.252 . S
O358 In351 2.326 . S
O358 C354 1.260 . S
O359 In351 2.266 . S
O359 C356 1.252 . S
O360 In351 2.326 . S
O360 C356 1.260 . S
C361 O352 1.240 . S
C361 O353 1.252 . S
O362 In351 2.294 . S
O362 C355 1.240 . S
O363 In351 2.326 . S
O363 C355 1.252 . S
In364 O365 2.294 . S
In364 O366 2.326 . S
In364 O370 2.266 . S
In364 O371 2.326 . S
In364 O372 2.266 . S
In364 O373 2.326 . S
In364 O375 2.294 . S
In364 O376 2.326 . S
O365 In364 2.294 . S
O365 C374 1.240 . S
O366 In364 2.326 . S
O366 C374 1.252 . S
C367 O370 1.252 . S
C367 O371 1.260 . S
C368 O375 1.240 . S
C368 O376 1.252 . S
C369 O372 1.252 . S
C369 O373 1.260 . S
O370 In364 2.266 . S
O370 C367 1.252 . S
O371 In364 2.326 . S
O371 C367 1.260 . S
O372 In364 2.266 . S
O372 C369 1.252 . S
O373 In364 2.326 . S
O373 C369 1.260 . S
C374 O365 1.240 . S
C374 O366 1.252 . S
O375 In364 2.294 . S
O375 C368 1.240 . S
O376 In364 2.326 . S
O376 C368 1.252 . S
In377 O378 2.294 . S
In377 O379 2.326 . S
In377 O383 2.266 . S
In377 O384 2.326 . S
In377 O385 2.266 . S
In377 O386 2.326 . S
In377 O388 2.294 . S
In377 O389 2.326 . S
O378 In377 2.294 . S
O378 C387 1.240 . S
O379 In377 2.326 . S
O379 C387 1.252 . S
C380 O383 1.252 . S
C380 O384 1.260 . S
C381 O388 1.240 . S
C381 O389 1.252 . S
C382 O385 1.252 . S
C382 O386 1.260 . S
O383 In377 2.266 . S
O383 C380 1.252 . S
O384 In377 2.326 . S
O384 C380 1.260 . S
O385 In377 2.266 . S
O385 C382 1.252 . S
O386 In377 2.326 . S
O386 C382 1.260 . S
C387 O378 1.240 . S
C387 O379 1.252 . S
O388 In377 2.294 . S
O388 C381 1.240 . S
O389 In377 2.326 . S
O389 C381 1.252 . S
In390 O391 2.294 . S
In390 O392 2.326 . S
In390 O396 2.266 . S
In390 O397 2.326 . S
In390 O398 2.266 . S
In390 O399 2.326 . S
In390 O401 2.294 . S
In390 O402 2.326 . S
O391 In390 2.294 . S
O391 C400 1.240 . S
O392 In390 2.326 . S
O392 C400 1.252 . S
C393 O396 1.252 . S
C393 O397 1.260 . S
C394 O401 1.240 . S
C394 O402 1.252 . S
C395 O398 1.252 . S
C395 O399 1.260 . S
O396 In390 2.266 . S
O396 C393 1.252 . S
O397 In390 2.326 . S
O397 C393 1.260 . S
O398 In390 2.266 . S
O398 C395 1.252 . S
O399 In390 2.326 . S
O399 C395 1.260 . S
C400 O391 1.240 . S
C400 O392 1.252 . S
O401 In390 2.294 . S
O401 C394 1.240 . S
O402 In390 2.326 . S
O402 C394 1.252 . S
In403 O404 2.294 . S
In403 O405 2.326 . S
In403 O409 2.266 . S
In403 O410 2.326 . S
In403 O411 2.266 . S
In403 O412 2.326 . S
In403 O414 2.294 . S
In403 O415 2.326 . S
O404 In403 2.294 . S
O404 C413 1.240 . S
O405 In403 2.326 . S
O405 C413 1.252 . S
C406 O409 1.252 . S
C406 O410 1.260 . S
C407 O414 1.240 . S
C407 O415 1.252 . S
C408 O411 1.252 . S
C408 O412 1.260 . S
O409 In403 2.266 . S
O409 C406 1.252 . S
O410 In403 2.326 . S
O410 C406 1.260 . S
O411 In403 2.266 . S
O411 C408 1.252 . S
O412 In403 2.326 . S
O412 C408 1.260 . S
C413 O404 1.240 . S
C413 O405 1.252 . S
O414 In403 2.294 . S
O414 C407 1.240 . S
O415 In403 2.326 . S
O415 C407 1.252 . S
In416 O417 2.294 . S
In416 O418 2.326 . S
In416 O422 2.266 . S
In416 O423 2.326 . S
In416 O424 2.266 . S
In416 O425 2.326 . S
In416 O427 2.294 . S
In416 O428 2.326 . S
O417 In416 2.294 . S
O417 C426 1.240 . S
O418 In416 2.326 . S
O418 C426 1.252 . S
C419 O422 1.252 . S
C419 O423 1.260 . S
C420 O427 1.240 . S
C420 O428 1.252 . S
C421 O424 1.252 . S
C421 O425 1.260 . S
O422 In416 2.266 . S
O422 C419 1.252 . S
O423 In416 2.326 . S
O423 C419 1.260 . S
O424 In416 2.266 . S
O424 C421 1.252 . S
O425 In416 2.326 . S
O425 C421 1.260 . S
C426 O417 1.240 . S
C426 O418 1.252 . S
O427 In416 2.294 . S
O427 C420 1.240 . S
O428 In416 2.326 . S
O428 C420 1.252 . S
In429 O430 2.294 . S
In429 O431 2.326 . S
In429 O435 2.266 . S
In429 O436 2.326 . S
In429 O437 2.266 . S
In429 O438 2.326 . S
In429 O440 2.294 . S
In429 O441 2.326 . S
O430 In429 2.294 . S
O430 C439 1.240 . S
O431 In429 2.326 . S
O431 C439 1.252 . S
C432 O435 1.252 . S
C432 O436 1.260 . S
C433 O440 1.240 . S
C433 O441 1.252 . S
C434 O437 1.252 . S
C434 O438 1.260 . S
O435 In429 2.266 . S
O435 C432 1.252 . S
O436 In429 2.326 . S
O436 C432 1.260 . S
O437 In429 2.266 . S
O437 C434 1.252 . S
O438 In429 2.326 . S
O438 C434 1.260 . S
C439 O430 1.240 . S
C439 O431 1.252 . S
O440 In429 2.294 . S
O440 C433 1.240 . S
O441 In429 2.326 . S
O441 C433 1.252 . S
In442 O443 2.294 . S
In442 O444 2.326 . S
In442 O448 2.266 . S
In442 O449 2.326 . S
In442 O450 2.266 . S
In442 O451 2.326 . S
In442 O453 2.294 . S
In442 O454 2.326 . S
O443 In442 2.294 . S
O443 C452 1.240 . S
O444 In442 2.326 . S
O444 C452 1.252 . S
C445 O448 1.252 . S
C445 O449 1.260 . S
C446 O453 1.240 . S
C446 O454 1.252 . S
C447 O450 1.252 . S
C447 O451 1.260 . S
O448 In442 2.266 . S
O448 C445 1.252 . S
O449 In442 2.326 . S
O449 C445 1.260 . S
O450 In442 2.266 . S
O450 C447 1.252 . S
O451 In442 2.326 . S
O451 C447 1.260 . S
C452 O443 1.240 . S
C452 O444 1.252 . S
O453 In442 2.294 . S
O453 C446 1.240 . S
O454 In442 2.326 . S
O454 C446 1.252 . S
In455 O456 2.294 . S
In455 O457 2.326 . S
In455 O461 2.266 . S
In455 O462 2.326 . S
In455 O463 2.266 . S
In455 O464 2.326 . S
In455 O466 2.294 . S
In455 O467 2.326 . S
O456 In455 2.294 . S
O456 C465 1.240 . S
O457 In455 2.326 . S
O457 C465 1.252 . S
C458 O461 1.252 . S
C458 O462 1.260 . S
C459 O466 1.240 . S
C459 O467 1.252 . S
C460 O463 1.252 . S
C460 O464 1.260 . S
O461 In455 2.266 . S
O461 C458 1.252 . S
O462 In455 2.326 . S
O462 C458 1.260 . S
O463 In455 2.266 . S
O463 C460 1.252 . S
O464 In455 2.326 . S
O464 C460 1.260 . S
C465 O456 1.240 . S
C465 O457 1.252 . S
O466 In455 2.294 . S
O466 C459 1.240 . S
O467 In455 2.326 . S
O467 C459 1.252 . S
In468 O469 2.294 . S
In468 O470 2.326 . S
In468 O474 2.266 . S
In468 O475 2.326 . S
In468 O476 2.266 . S
In468 O477 2.326 . S
In468 O479 2.294 . S
In468 O480 2.326 . S
O469 In468 2.294 . S
O469 C478 1.240 . S
O470 In468 2.326 . S
O470 C478 1.252 . S
C471 O474 1.252 . S
C471 O475 1.260 . S
C472 O479 1.240 . S
C472 O480 1.252 . S
C473 O476 1.252 . S
C473 O477 1.260 . S
O474 In468 2.266 . S
O474 C471 1.252 . S
O475 In468 2.326 . S
O475 C471 1.260 . S
O476 In468 2.266 . S
O476 C473 1.252 . S
O477 In468 2.326 . S
O477 C473 1.260 . S
C478 O469 1.240 . S
C478 O470 1.252 . S
O479 In468 2.294 . S
O479 C472 1.240 . S
O480 In468 2.326 . S
O480 C472 1.252 . S
In481 O482 2.294 . S
In481 O483 2.326 . S
In481 O487 2.266 . S
In481 O488 2.326 . S
In481 O489 2.266 . S
In481 O490 2.326 . S
In481 O492 2.294 . S
In481 O493 2.326 . S
O482 In481 2.294 . S
O482 C491 1.240 . S
O483 In481 2.326 . S
O483 C491 1.252 . S
C484 O487 1.252 . S
C484 O488 1.260 . S
C485 O492 1.240 . S
C485 O493 1.252 . S
C486 O489 1.252 . S
C486 O490 1.260 . S
O487 In481 2.266 . S
O487 C484 1.252 . S
O488 In481 2.326 . S
O488 C484 1.260 . S
O489 In481 2.266 . S
O489 C486 1.252 . S
O490 In481 2.326 . S
O490 C486 1.260 . S
C491 O482 1.240 . S
C491 O483 1.252 . S
O492 In481 2.294 . S
O492 C485 1.240 . S
O493 In481 2.326 . S
O493 C485 1.252 . S
In494 O495 2.294 . S
In494 O496 2.326 . S
In494 O500 2.266 . S
In494 O501 2.326 . S
In494 O502 2.266 . S
In494 O503 2.326 . S
In494 O505 2.294 . S
In494 O506 2.326 . S
O495 In494 2.294 . S
O495 C504 1.240 . S
O496 In494 2.326 . S
O496 C504 1.252 . S
C497 O500 1.252 . S
C497 O501 1.260 . S
C498 O505 1.240 . S
C498 O506 1.252 . S
C499 O502 1.252 . S
C499 O503 1.260 . S
O500 In494 2.266 . S
O500 C497 1.252 . S
O501 In494 2.326 . S
O501 C497 1.260 . S
O502 In494 2.266 . S
O502 C499 1.252 . S
O503 In494 2.326 . S
O503 C499 1.260 . S
C504 O495 1.240 . S
C504 O496 1.252 . S
O505 In494 2.294 . S
O505 C498 1.240 . S
O506 In494 2.326 . S
O506 C498 1.252 . S
In507 O508 2.294 . S
In507 O509 2.326 . S
In507 O513 2.266 . S
In507 O514 2.326 . S
In507 O515 2.266 . S
In507 O516 2.326 . S
In507 O518 2.294 . S
In507 O519 2.326 . S
O508 In507 2.294 . S
O508 C517 1.240 . S
O509 In507 2.326 . S
O509 C517 1.252 . S
C510 O513 1.252 . S
C510 O514 1.260 . S
C511 O518 1.240 . S
C511 O519 1.252 . S
C512 O515 1.252 . S
C512 O516 1.260 . S
O513 In507 2.266 . S
O513 C510 1.252 . S
O514 In507 2.326 . S
O514 C510 1.260 . S
O515 In507 2.266 . S
O515 C512 1.252 . S
O516 In507 2.326 . S
O516 C512 1.260 . S
C517 O508 1.240 . S
C517 O509 1.252 . S
O518 In507 2.294 . S
O518 C511 1.240 . S
O519 In507 2.326 . S
O519 C511 1.252 . S
In520 O521 2.294 . S
In520 O522 2.326 . S
In520 O526 2.266 . S
In520 O527 2.326 . S
In520 O528 2.266 . S
In520 O529 2.326 . S
In520 O531 2.294 . S
In520 O532 2.326 . S
O521 In520 2.294 . S
O521 C530 1.240 . S
O522 In520 2.326 . S
O522 C530 1.252 . S
C523 O526 1.252 . S
C523 O527 1.260 . S
C524 O531 1.240 . S
C524 O532 1.252 . S
C525 O528 1.252 . S
C525 O529 1.260 . S
O526 In520 2.266 . S
O526 C523 1.252 . S
O527 In520 2.326 . S
O527 C523 1.260 . S
O528 In520 2.266 . S
O528 C525 1.252 . S
O529 In520 2.326 . S
O529 C525 1.260 . S
C530 O521 1.240 . S
C530 O522 1.252 . S
O531 In520 2.294 . S
O531 C524 1.240 . S
O532 In520 2.326 . S
O532 C524 1.252 . S
In533 O534 2.294 . S
In533 O535 2.326 . S
In533 O539 2.266 . S
In533 O540 2.326 . S
In533 O541 2.266 . S
In533 O542 2.326 . S
In533 O544 2.294 . S
In533 O545 2.326 . S
O534 In533 2.294 . S
O534 C543 1.240 . S
O535 In533 2.326 . S
O535 C543 1.252 . S
C536 O539 1.252 . S
C536 O540 1.260 . S
C537 O544 1.240 . S
C537 O545 1.252 . S
C538 O541 1.252 . S
C538 O542 1.260 . S
O539 In533 2.266 . S
O539 C536 1.252 . S
O540 In533 2.326 . S
O540 C536 1.260 . S
O541 In533 2.266 . S
O541 C538 1.252 . S
O542 In533 2.326 . S
O542 C538 1.260 . S
C543 O534 1.240 . S
C543 O535 1.252 . S
O544 In533 2.294 . S
O544 C537 1.240 . S
O545 In533 2.326 . S
O545 C537 1.252 . S
In546 O547 2.294 . S
In546 O548 2.326 . S
In546 O552 2.266 . S
In546 O553 2.326 . S
In546 O554 2.266 . S
In546 O555 2.326 . S
In546 O557 2.294 . S
In546 O558 2.326 . S
O547 In546 2.294 . S
O547 C556 1.240 . S
O548 In546 2.326 . S
O548 C556 1.252 . S
C549 O552 1.252 . S
C549 O553 1.260 . S
C550 O557 1.240 . S
C550 O558 1.252 . S
C551 O554 1.252 . S
C551 O555 1.260 . S
O552 In546 2.266 . S
O552 C549 1.252 . S
O553 In546 2.326 . S
O553 C549 1.260 . S
O554 In546 2.266 . S
O554 C551 1.252 . S
O555 In546 2.326 . S
O555 C551 1.260 . S
C556 O547 1.240 . S
C556 O548 1.252 . S
O557 In546 2.294 . S
O557 C550 1.240 . S
O558 In546 2.326 . S
O558 C550 1.252 . S
In559 O560 2.294 . S
In559 O561 2.326 . S
In559 O565 2.266 . S
In559 O566 2.326 . S
In559 O567 2.266 . S
In559 O568 2.326 . S
In559 O570 2.294 . S
In559 O571 2.326 . S
O560 In559 2.294 . S
O560 C569 1.240 . S
O561 In559 2.326 . S
O561 C569 1.252 . S
C562 O565 1.252 . S
C562 O566 1.260 . S
C563 O570 1.240 . S
C563 O571 1.252 . S
C564 O567 1.252 . S
C564 O568 1.260 . S
O565 In559 2.266 . S
O565 C562 1.252 . S
O566 In559 2.326 . S
O566 C562 1.260 . S
O567 In559 2.266 . S
O567 C564 1.252 . S
O568 In559 2.326 . S
O568 C564 1.260 . S
C569 O560 1.240 . S
C569 O561 1.252 . S
O570 In559 2.294 . S
O570 C563 1.240 . S
O571 In559 2.326 . S
O571 C563 1.252 . S
In572 O573 2.294 . S
In572 O574 2.326 . S
In572 O578 2.266 . S
In572 O579 2.326 . S
In572 O580 2.266 . S
In572 O581 2.326 . S
In572 O583 2.294 . S
In572 O584 2.326 . S
O573 In572 2.294 . S
O573 C582 1.240 . S
O574 In572 2.326 . S
O574 C582 1.252 . S
C575 O578 1.252 . S
C575 O579 1.260 . S
C576 O583 1.240 . S
C576 O584 1.252 . S
C577 O580 1.252 . S
C577 O581 1.260 . S
O578 In572 2.266 . S
O578 C575 1.252 . S
O579 In572 2.326 . S
O579 C575 1.260 . S
O580 In572 2.266 . S
O580 C577 1.252 . S
O581 In572 2.326 . S
O581 C577 1.260 . S
C582 O573 1.240 . S
C582 O574 1.252 . S
O583 In572 2.294 . S
O583 C576 1.240 . S
O584 In572 2.326 . S
O584 C576 1.252 . S
In585 O586 2.294 . S
In585 O587 2.326 . S
In585 O591 2.266 . S
In585 O592 2.326 . S
In585 O593 2.266 . S
In585 O594 2.326 . S
In585 O596 2.294 . S
In585 O597 2.326 . S
O586 In585 2.294 . S
O586 C595 1.240 . S
O587 In585 2.326 . S
O587 C595 1.252 . S
C588 O591 1.252 . S
C588 O592 1.260 . S
C589 O596 1.240 . S
C589 O597 1.252 . S
C590 O593 1.252 . S
C590 O594 1.260 . S
O591 In585 2.266 . S
O591 C588 1.252 . S
O592 In585 2.326 . S
O592 C588 1.260 . S
O593 In585 2.266 . S
O593 C590 1.252 . S
O594 In585 2.326 . S
O594 C590 1.260 . S
C595 O586 1.240 . S
C595 O587 1.252 . S
O596 In585 2.294 . S
O596 C589 1.240 . S
O597 In585 2.326 . S
O597 C589 1.252 . S
In598 O599 2.294 . S
In598 O600 2.326 . S
In598 O604 2.266 . S
In598 O605 2.326 . S
In598 O606 2.266 . S
In598 O607 2.326 . S
In598 O609 2.294 . S
In598 O610 2.326 . S
O599 In598 2.294 . S
O599 C608 1.240 . S
O600 In598 2.326 . S
O600 C608 1.252 . S
C601 O604 1.252 . S
C601 O605 1.260 . S
C602 O609 1.240 . S
C602 O610 1.252 . S
C603 O606 1.252 . S
C603 O607 1.260 . S
O604 In598 2.266 . S
O604 C601 1.252 . S
O605 In598 2.326 . S
O605 C601 1.260 . S
O606 In598 2.266 . S
O606 C603 1.252 . S
O607 In598 2.326 . S
O607 C603 1.260 . S
C608 O599 1.240 . S
C608 O600 1.252 . S
O609 In598 2.294 . S
O609 C602 1.240 . S
O610 In598 2.326 . S
O610 C602 1.252 . S
In611 O612 2.294 . S
In611 O613 2.326 . S
In611 O617 2.266 . S
In611 O618 2.326 . S
In611 O619 2.266 . S
In611 O620 2.326 . S
In611 O622 2.294 . S
In611 O623 2.326 . S
O612 In611 2.294 . S
O612 C621 1.240 . S
O613 In611 2.326 . S
O613 C621 1.252 . S
C614 O617 1.252 . S
C614 O618 1.260 . S
C615 O622 1.240 . S
C615 O623 1.252 . S
C616 O619 1.252 . S
C616 O620 1.260 . S
O617 In611 2.266 . S
O617 C614 1.252 . S
O618 In611 2.326 . S
O618 C614 1.260 . S
O619 In611 2.266 . S
O619 C616 1.252 . S
O620 In611 2.326 . S
O620 C616 1.260 . S
C621 O612 1.240 . S
C621 O613 1.252 . S
O622 In611 2.294 . S
O622 C615 1.240 . S
O623 In611 2.326 . S
O623 C615 1.252 . S
H624 C632 0.929 . S
H625 C634 0.930 . S
H626 C636 0.930 . S
H627 C639 0.929 . S
H628 C642 0.930 . S
H629 C644 0.960 . S
H630 C644 0.960 . S
H631 C644 0.960 . S
C632 H624 0.929 . S
C632 C633 1.377 . S
C632 C634 1.384 . S
C633 C632 1.377 . S
C633 C639 1.390 . S
C634 H625 0.930 . S
C634 C632 1.384 . S
C634 C635 1.372 . S
C635 C634 1.372 . S
C635 C636 1.400 . S
C635 C640 1.490 . S
C636 H626 0.930 . S
C636 C635 1.400 . S
C636 C639 1.386 . S
H637 C653 0.930 . S
H638 C654 0.931 . S
C639 H627 0.929 . S
C639 C633 1.390 . S
C639 C636 1.386 . S
C640 C635 1.490 . S
C640 C642 1.395 . S
C640 C643 1.403 . S
H641 C647 0.930 . S
C642 H628 0.930 . S
C642 C640 1.395 . S
C642 C645 1.403 . S
C643 C640 1.403 . S
C643 C644 1.524 . S
C643 C647 1.400 . S
C644 H629 0.960 . S
C644 H630 0.960 . S
C644 H631 0.960 . S
C644 C643 1.524 . S
C645 C642 1.403 . S
C645 C646 1.392 . S
C645 C649 1.495 . S
C646 C645 1.392 . S
C646 C647 1.385 . S
C646 C648 1.478 . S
C647 H641 0.930 . S
C647 C643 1.400 . S
C647 C646 1.385 . S
C648 C646 1.478 . S
C648 C650 1.381 . S
C648 C654 1.383 . S
C649 C645 1.495 . S
C649 H655 0.959 . S
C649 H656 0.961 . S
C649 H657 0.960 . S
C650 C648 1.381 . S
C650 C651 1.394 . S
C650 H658 0.930 . S
C651 C650 1.394 . S
C651 C652 1.383 . S
C651 H659 0.929 . S
C652 C651 1.383 . S
C652 C653 1.377 . S
C653 H637 0.930 . S
C653 C652 1.377 . S
C653 C654 1.379 . S
C654 H638 0.931 . S
C654 C648 1.383 . S
C654 C653 1.379 . S
H655 C649 0.959 . S
H656 C649 0.961 . S
H657 C649 0.960 . S
H658 C650 0.930 . S
H659 C651 0.929 . S
H660 C668 0.934 . S
H661 C670 0.930 . S
H662 C672 0.930 . S
H663 C675 0.929 . S
H664 C678 0.930 . S
H665 C680 0.960 . S
H666 C680 0.960 . S
H667 C680 0.960 . S
C668 H660 0.934 . S
C668 C669 1.371 1_545 S
C668 C670 1.386 . S
C669 C668 1.371 1_565 S
C669 C675 1.390 . S
C670 H661 0.930 . S
C670 C668 1.386 . S
C670 C671 1.372 1_545 S
C671 C670 1.372 1_565 S
C671 C672 1.400 . S
C671 C676 1.490 . S
C672 H662 0.930 . S
C672 C671 1.400 . S
C672 C675 1.386 . S
H673 C689 0.930 1_565 S
H674 C690 0.932 1_565 S
C675 H663 0.929 . S
C675 C669 1.390 . S
C675 C672 1.386 . S
C676 C671 1.490 . S
C676 C678 1.395 1_565 S
C676 C679 1.403 . S
H677 C683 0.930 . S
C678 H664 0.930 . S
C678 C676 1.395 1_545 S
C678 C681 1.403 . S
C679 C676 1.403 . S
C679 C680 1.524 . S
C679 C683 1.400 . S
C680 H665 0.960 . S
C680 H666 0.960 . S
C680 H667 0.960 . S
C680 C679 1.524 . S
C681 C678 1.403 . S
C681 C682 1.392 . S
C681 C685 1.495 . S
C682 C681 1.392 . S
C682 C683 1.385 1_545 S
C682 C684 1.478 . S
C683 H677 0.930 . S
C683 C679 1.400 . S
C683 C682 1.385 1_565 S
C684 C682 1.478 . S
C684 C686 1.381 . S
C684 C690 1.382 . S
C685 C681 1.495 . S
C685 H691 0.959 . S
C685 H692 0.961 . S
C685 H693 0.960 . S
C686 C684 1.381 . S
C686 C687 1.394 . S
C686 H694 0.930 . S
C687 C686 1.394 . S
C687 C688 1.383 . S
C687 H695 0.929 . S
C688 C687 1.383 . S
C688 C689 1.377 . S
C689 H673 0.930 1_545 S
C689 C688 1.377 . S
C689 C690 1.379 . S
C690 H674 0.932 1_545 S
C690 C684 1.382 . S
C690 C689 1.379 . S
H691 C685 0.959 . S
H692 C685 0.961 . S
H693 C685 0.960 . S
H694 C686 0.930 . S
H695 C687 0.929 . S
H696 C704 0.929 . S
H697 C706 0.930 . S
H698 C708 0.930 . S
H699 C711 0.929 . S
H700 C714 0.930 . S
H701 C716 0.960 . S
H702 C716 0.960 . S
H703 C716 0.960 . S
C704 H696 0.929 . S
C704 C705 1.377 . S
C704 C706 1.384 . S
C705 C704 1.377 . S
C705 C711 1.390 . S
C706 H697 0.930 . S
C706 C704 1.384 . S
C706 C707 1.372 . S
C707 C706 1.372 . S
C707 C708 1.400 . S
C707 C712 1.490 . S
C708 H698 0.930 . S
C708 C707 1.400 . S
C708 C711 1.386 . S
H709 C725 0.930 . S
H710 C726 0.931 . S
C711 H699 0.929 . S
C711 C705 1.390 . S
C711 C708 1.386 . S
C712 C707 1.490 . S
C712 C714 1.395 . S
C712 C715 1.403 . S
H713 C719 0.930 . S
C714 H700 0.930 . S
C714 C712 1.395 . S
C714 C717 1.403 1_556 S
C715 C712 1.403 . S
C715 C716 1.524 . S
C715 C719 1.400 1_556 S
C716 H701 0.960 . S
C716 H702 0.960 . S
C716 H703 0.960 . S
C716 C715 1.524 . S
C717 C714 1.403 1_554 S
C717 C718 1.392 . S
C717 C721 1.495 . S
C718 C717 1.392 . S
C718 C719 1.385 . S
C718 C720 1.478 . S
C719 H713 0.930 . S
C719 C715 1.400 1_554 S
C719 C718 1.385 . S
C720 C718 1.478 . S
C720 C722 1.381 . S
C720 C726 1.383 . S
C721 C717 1.495 . S
C721 H727 0.959 . S
C721 H728 0.961 . S
C721 H729 0.960 . S
C722 C720 1.381 . S
C722 C723 1.394 . S
C722 H730 0.930 . S
C723 C722 1.394 . S
C723 C724 1.383 . S
C723 H731 0.929 . S
C724 C723 1.383 . S
C724 C725 1.377 . S
C725 H709 0.930 . S
C725 C724 1.377 . S
C725 C726 1.379 . S
C726 H710 0.931 . S
C726 C720 1.383 . S
C726 C725 1.379 . S
H727 C721 0.959 . S
H728 C721 0.961 . S
H729 C721 0.960 . S
H730 C722 0.930 . S
H731 C723 0.929 . S
H732 C740 0.929 . S
H733 C742 0.930 1_545 S
H734 C744 0.930 . S
H735 C747 0.929 . S
H736 C750 0.930 . S
H737 C752 0.960 . S
H738 C752 0.960 . S
H739 C752 0.960 . S
C740 H732 0.929 . S
C740 C741 1.377 . S
C740 C742 1.384 . S
C741 C740 1.377 . S
C741 C747 1.390 . S
C742 H733 0.930 1_565 S
C742 C740 1.384 . S
C742 C743 1.372 . S
C743 C742 1.372 . S
C743 C744 1.400 . S
C743 C748 1.490 . S
C744 H734 0.930 . S
C744 C743 1.400 . S
C744 C747 1.386 . S
H745 C761 0.930 . S
H746 C762 0.931 . S
C747 H735 0.929 . S
C747 C741 1.390 . S
C747 C744 1.386 . S
C748 C743 1.490 . S
C748 C750 1.395 1_565 S
C748 C751 1.403 . S
H749 C755 0.930 . S
C750 H736 0.930 . S
C750 C748 1.395 1_545 S
C750 C753 1.403 . S
C751 C748 1.403 . S
C751 C752 1.524 . S
C751 C755 1.400 . S
C752 H737 0.960 . S
C752 H738 0.960 . S
C752 H739 0.960 . S
C752 C751 1.524 . S
C753 C750 1.403 . S
C753 C754 1.392 . S
C753 C757 1.495 . S
C754 C753 1.392 . S
C754 C755 1.385 1_545 S
C754 C756 1.478 . S
C755 H749 0.930 . S
C755 C751 1.400 . S
C755 C754 1.385 1_565 S
C756 C754 1.478 . S
C756 C758 1.381 . S
C756 C762 1.383 . S
C757 C753 1.495 . S
C757 H763 0.959 . S
C757 H764 0.961 . S
C757 H765 0.960 . S
C758 C756 1.381 . S
C758 C759 1.394 . S
C758 H766 0.930 . S
C759 C758 1.394 . S
C759 C760 1.383 . S
C759 H767 0.929 . S
C760 C759 1.383 . S
C760 C761 1.377 . S
C761 H745 0.930 . S
C761 C760 1.377 . S
C761 C762 1.379 . S
C762 H746 0.931 . S
C762 C756 1.383 . S
C762 C761 1.379 . S
H763 C757 0.959 . S
H764 C757 0.961 . S
H765 C757 0.960 . S
H766 C758 0.930 . S
H767 C759 0.929 . S
H768 C776 0.929 . S
H769 C778 0.930 . S
H770 C780 0.930 . S
H771 C783 0.929 . S
H772 C786 0.930 . S
H773 C788 0.960 . S
H774 C788 0.960 . S
H775 C788 0.960 . S
C776 H768 0.929 . S
C776 C777 1.377 . S
C776 C778 1.384 . S
C777 C776 1.377 . S
C777 C783 1.390 . S
C778 H769 0.930 . S
C778 C776 1.384 . S
C778 C779 1.372 . S
C779 C778 1.372 . S
C779 C780 1.400 . S
C779 C784 1.490 . S
C780 H770 0.930 . S
C780 C779 1.400 . S
C780 C783 1.386 . S
H781 C797 0.930 . S
H782 C798 0.931 . S
C783 H771 0.929 . S
C783 C777 1.390 . S
C783 C780 1.386 . S
C784 C779 1.490 . S
C784 C786 1.395 . S
C784 C787 1.403 . S
H785 C791 0.930 . S
C786 H772 0.930 . S
C786 C784 1.395 . S
C786 C789 1.403 . S
C787 C784 1.403 . S
C787 C788 1.524 . S
C787 C791 1.400 . S
C788 H773 0.960 . S
C788 H774 0.960 . S
C788 H775 0.960 . S
C788 C787 1.524 . S
C789 C786 1.403 . S
C789 C790 1.392 . S
C789 C793 1.495 . S
C790 C789 1.392 . S
C790 C791 1.385 . S
C790 C792 1.478 . S
C791 H785 0.930 . S
C791 C787 1.400 . S
C791 C790 1.385 . S
C792 C790 1.478 . S
C792 C794 1.381 . S
C792 C798 1.383 . S
C793 C789 1.495 . S
C793 H799 0.959 . S
C793 H800 0.961 . S
C793 H801 0.960 . S
C794 C792 1.381 . S
C794 C795 1.394 . S
C794 H802 0.930 . S
C795 C794 1.394 . S
C795 C796 1.383 . S
C795 H803 0.929 . S
C796 C795 1.383 . S
C796 C797 1.377 . S
C797 H781 0.930 . S
C797 C796 1.377 . S
C797 C798 1.379 . S
C798 H782 0.931 . S
C798 C792 1.383 . S
C798 C797 1.379 . S
H799 C793 0.959 . S
H800 C793 0.961 . S
H801 C793 0.960 . S
H802 C794 0.930 . S
H803 C795 0.929 . S
H804 C812 0.906 1_455 S
H805 C814 0.930 . S
H806 C816 0.930 . S
H807 C819 0.929 . S
H808 C822 0.930 . S
H809 C824 0.960 . S
H810 C824 0.960 . S
H811 C824 0.960 1_655 S
C812 H804 0.906 1_655 S
C812 C813 1.410 . S
C812 C814 1.376 1_655 S
C813 C812 1.410 . S
C813 C819 1.390 . S
C814 H805 0.930 . S
C814 C812 1.376 1_455 S
C814 C815 1.372 1_455 S
C815 C814 1.372 1_655 S
C815 C816 1.400 . S
C815 C820 1.490 . S
C816 H806 0.930 . S
C816 C815 1.400 . S
C816 C819 1.386 . S
H817 C833 0.951 . S
H818 C834 0.931 . S
C819 H807 0.929 . S
C819 C813 1.390 . S
C819 C816 1.386 . S
C820 C815 1.490 . S
C820 C822 1.395 . S
C820 C823 1.403 1_655 S
H821 C827 0.930 . S
C822 H808 0.930 . S
C822 C820 1.395 . S
C822 C825 1.403 . S
C823 C820 1.403 1_455 S
C823 C824 1.524 . S
C823 C827 1.400 . S
C824 H809 0.960 . S
C824 H810 0.960 . S
C824 H811 0.960 1_455 S
C824 C823 1.524 . S
C825 C822 1.403 . S
C825 C826 1.392 1_655 S
C825 C829 1.495 . S
C826 C825 1.392 1_455 S
C826 C827 1.385 . S
C826 C828 1.478 . S
C827 H821 0.930 . S
C827 C823 1.400 . S
C827 C826 1.385 . S
C828 C826 1.478 . S
C828 C830 1.381 . S
C828 C834 1.383 1_455 S
C829 C825 1.495 . S
C829 H835 0.959 . S
C829 H836 0.961 . S
C829 H837 0.960 1_655 S
C830 C828 1.381 . S
C830 C831 1.394 . S
C830 H838 0.930 . S
C831 C830 1.394 . S
C831 C832 1.383 . S
C831 H839 0.929 . S
C832 C831 1.383 . S
C832 C833 1.349 1_455 S
C833 H817 0.951 . S
C833 C832 1.349 1_655 S
C833 C834 1.387 . S
C834 H818 0.931 . S
C834 C828 1.383 1_655 S
C834 C833 1.387 . S
H835 C829 0.959 . S
H836 C829 0.961 . S
H837 C829 0.960 1_455 S
H838 C830 0.930 . S
H839 C831 0.929 . S
H840 C848 0.929 . S
H841 C850 0.930 . S
H842 C852 0.930 . S
H843 C855 0.929 . S
H844 C858 0.930 . S
H845 C860 0.944 1_655 S
H846 C860 0.960 . S
H847 C860 0.960 . S
C848 H840 0.929 . S
C848 C849 1.377 . S
C848 C850 1.384 . S
C849 C848 1.377 . S
C849 C855 1.390 . S
C850 H841 0.930 . S
C850 C848 1.384 . S
C850 C851 1.372 . S
C851 C850 1.372 . S
C851 C852 1.400 . S
C851 C856 1.490 . S
C852 H842 0.930 . S
C852 C851 1.400 . S
C852 C855 1.386 . S
H853 C869 0.930 . S
H854 C870 0.931 . S
C855 H843 0.929 . S
C855 C849 1.390 . S
C855 C852 1.386 . S
C856 C851 1.490 . S
C856 C858 1.395 . S
C856 C859 1.403 . S
H857 C863 0.930 . S
C858 H844 0.930 . S
C858 C856 1.395 . S
C858 C861 1.403 1_455 S
C859 C856 1.403 . S
C859 C860 1.524 . S
C859 C863 1.400 1_455 S
C860 H845 0.944 1_455 S
C860 H846 0.960 . S
C860 H847 0.960 . S
C860 C859 1.524 . S
C861 C858 1.403 1_655 S
C861 C862 1.392 . S
C861 C865 1.495 . S
C862 C861 1.392 . S
C862 C863 1.385 . S
C862 C864 1.478 . S
C863 H857 0.930 . S
C863 C859 1.400 1_655 S
C863 C862 1.385 . S
C864 C862 1.478 . S
C864 C866 1.381 . S
C864 C870 1.383 . S
C865 C861 1.495 . S
C865 H871 0.937 1_655 S
C865 H872 0.961 . S
C865 H873 0.960 . S
C866 C864 1.381 . S
C866 C867 1.394 . S
C866 H874 0.930 . S
C867 C866 1.394 . S
C867 C868 1.383 . S
C867 H875 0.929 . S
C868 C867 1.383 . S
C868 C869 1.377 . S
C869 H853 0.930 . S
C869 C868 1.377 . S
C869 C870 1.379 . S
C870 H854 0.931 . S
C870 C864 1.383 . S
C870 C869 1.379 . S
H871 C865 0.937 1_455 S
H872 C865 0.961 . S
H873 C865 0.960 . S
H874 C866 0.930 . S
H875 C867 0.929 . S
H876 C884 0.929 . S
H877 C886 0.930 . S
H878 C888 0.930 . S
H879 C891 0.929 . S
H880 C894 0.930 . S
H881 C896 0.960 . S
H882 C896 0.960 . S
H883 C896 0.960 . S
C884 H876 0.929 . S
C884 C885 1.377 . S
C884 C886 1.384 . S
C885 C884 1.377 . S
C885 C891 1.390 . S
C886 H877 0.930 . S
C886 C884 1.384 . S
C886 C887 1.372 . S
C887 C886 1.372 . S
C887 C888 1.400 . S
C887 C892 1.490 . S
C888 H878 0.930 . S
C888 C887 1.400 . S
C888 C891 1.386 . S
H889 C905 0.930 . S
H890 C906 0.931 . S
C891 H879 0.929 . S
C891 C885 1.390 . S
C891 C888 1.386 . S
C892 C887 1.490 . S
C892 C894 1.395 . S
C892 C895 1.403 . S
H893 C899 0.930 . S
C894 H880 0.930 . S
C894 C892 1.395 . S
C894 C897 1.403 . S
C895 C892 1.403 . S
C895 C896 1.524 . S
C895 C899 1.400 . S
C896 H881 0.960 . S
C896 H882 0.960 . S
C896 H883 0.960 . S
C896 C895 1.524 . S
C897 C894 1.403 . S
C897 C898 1.392 . S
C897 C901 1.495 . S
C898 C897 1.392 . S
C898 C899 1.385 . S
C898 C900 1.478 . S
C899 H893 0.930 . S
C899 C895 1.400 . S
C899 C898 1.385 . S
C900 C898 1.478 . S
C900 C902 1.381 . S
C900 C906 1.383 . S
C901 C897 1.495 . S
C901 H907 0.959 . S
C901 H908 0.961 . S
C901 H909 0.960 . S
C902 C900 1.381 . S
C902 C903 1.394 . S
C902 H910 0.930 . S
C903 C902 1.394 . S
C903 C904 1.383 . S
C903 H911 0.929 . S
C904 C903 1.383 . S
C904 C905 1.377 . S
C905 H889 0.930 . S
C905 C904 1.377 . S
C905 C906 1.379 . S
C906 H890 0.931 . S
C906 C900 1.383 . S
C906 C905 1.379 . S
H907 C901 0.959 . S
H908 C901 0.961 . S
H909 C901 0.960 . S
H910 C902 0.930 . S
H911 C903 0.929 . S
H912 C920 0.929 . S
H913 C922 0.930 . S
H914 C924 0.930 . S
H915 C927 0.929 . S
H916 C930 0.930 . S
H917 C932 0.960 . S
H918 C932 0.960 . S
H919 C932 0.960 . S
C920 H912 0.929 . S
C920 C921 1.377 . S
C920 C922 1.384 . S
C921 C920 1.377 . S
C921 C927 1.390 . S
C922 H913 0.930 . S
C922 C920 1.384 . S
C922 C923 1.372 . S
C923 C922 1.372 . S
C923 C924 1.400 . S
C923 C928 1.490 . S
C924 H914 0.930 . S
C924 C923 1.400 . S
C924 C927 1.386 . S
H925 C941 0.930 . S
H926 C942 0.931 . S
C927 H915 0.929 . S
C927 C921 1.390 . S
C927 C924 1.386 . S
C928 C923 1.490 . S
C928 C930 1.395 . S
C928 C931 1.403 . S
H929 C935 0.930 . S
C930 H916 0.930 . S
C930 C928 1.395 . S
C930 C933 1.403 . S
C931 C928 1.403 . S
C931 C932 1.524 . S
C931 C935 1.400 . S
C932 H917 0.960 . S
C932 H918 0.960 . S
C932 H919 0.960 . S
C932 C931 1.524 . S
C933 C930 1.403 . S
C933 C934 1.392 . S
C933 C937 1.495 . S
C934 C933 1.392 . S
C934 C935 1.385 . S
C934 C936 1.478 . S
C935 H929 0.930 . S
C935 C931 1.400 . S
C935 C934 1.385 . S
C936 C934 1.478 . S
C936 C938 1.381 . S
C936 C942 1.383 . S
C937 C933 1.495 . S
C937 H943 0.959 . S
C937 H944 0.961 . S
C937 H945 0.960 . S
C938 C936 1.381 . S
C938 C939 1.394 . S
C938 H946 0.930 . S
C939 C938 1.394 . S
C939 C940 1.383 . S
C939 H947 0.929 . S
C940 C939 1.383 . S
C940 C941 1.377 . S
C941 H925 0.930 . S
C941 C940 1.377 . S
C941 C942 1.379 . S
C942 H926 0.931 . S
C942 C936 1.383 . S
C942 C941 1.379 . S
H943 C937 0.959 . S
H944 C937 0.961 . S
H945 C937 0.960 . S
H946 C938 0.930 . S
H947 C939 0.929 . S
H948 C956 0.929 . S
H949 C958 0.930 . S
H950 C960 0.930 . S
H951 C963 0.929 . S
H952 C966 0.930 . S
H953 C968 0.960 . S
H954 C968 0.960 . S
H955 C968 0.960 . S
C956 H948 0.929 . S
C956 C957 1.377 . S
C956 C958 1.384 . S
C957 C956 1.377 . S
C957 C963 1.390 . S
C958 H949 0.930 . S
C958 C956 1.384 . S
C958 C959 1.372 . S
C959 C958 1.372 . S
C959 C960 1.400 . S
C959 C964 1.490 . S
C960 H950 0.930 . S
C960 C959 1.400 . S
C960 C963 1.386 . S
H961 C977 0.930 . S
H962 C978 0.931 . S
C963 H951 0.929 . S
C963 C957 1.390 . S
C963 C960 1.386 . S
C964 C959 1.490 . S
C964 C966 1.395 . S
C964 C967 1.403 . S
H965 C971 0.930 . S
C966 H952 0.930 . S
C966 C964 1.395 . S
C966 C969 1.403 . S
C967 C964 1.403 . S
C967 C968 1.524 . S
C967 C971 1.400 . S
C968 H953 0.960 . S
C968 H954 0.960 . S
C968 H955 0.960 . S
C968 C967 1.524 . S
C969 C966 1.403 . S
C969 C970 1.392 . S
C969 C973 1.495 . S
C970 C969 1.392 . S
C970 C971 1.385 . S
C970 C972 1.478 . S
C971 H965 0.930 . S
C971 C967 1.400 . S
C971 C970 1.385 . S
C972 C970 1.478 . S
C972 C974 1.381 . S
C972 C978 1.383 . S
C973 C969 1.495 . S
C973 H979 0.959 . S
C973 H980 0.961 . S
C973 H981 0.960 . S
C974 C972 1.381 . S
C974 C975 1.394 . S
C974 H982 0.930 . S
C975 C974 1.394 . S
C975 C976 1.383 . S
C975 H983 0.929 . S
C976 C975 1.383 . S
C976 C977 1.377 . S
C977 H961 0.930 . S
C977 C976 1.377 . S
C977 C978 1.379 . S
C978 H962 0.931 . S
C978 C972 1.383 . S
C978 C977 1.379 . S
H979 C973 0.959 . S
H980 C973 0.961 . S
H981 C973 0.960 . S
H982 C974 0.930 . S
H983 C975 0.929 . S
H984 C992 0.929 . S
H985 C994 0.930 . S
H986 C996 0.930 . S
H987 C999 0.929 . S
H988 C1002 0.930 . S
H989 C1004 0.904 1_455 S
H990 C1004 0.960 . S
H991 C1004 0.960 . S
C992 H984 0.929 . S
C992 C993 1.377 . S
C992 C994 1.384 . S
C993 C992 1.377 . S
C993 C999 1.390 . S
C994 H985 0.930 . S
C994 C992 1.384 . S
C994 C995 1.372 . S
C995 C994 1.372 . S
C995 C996 1.400 . S
C995 C1000 1.490 . S
C996 H986 0.930 . S
C996 C995 1.400 . S
C996 C999 1.386 . S
H997 C1013 0.930 . S
H998 C1014 0.931 . S
C999 H987 0.929 . S
C999 C993 1.390 . S
C999 C996 1.386 . S
C1000 C995 1.490 . S
C1000 C1002 1.395 . S
C1000 C1003 1.403 . S
H1001 C1007 0.930 . S
C1002 H988 0.930 . S
C1002 C1000 1.395 . S
C1002 C1005 1.403 1_655 S
C1003 C1000 1.403 . S
C1003 C1004 1.524 . S
C1003 C1007 1.400 1_655 S
C1004 H989 0.904 1_655 S
C1004 H990 0.960 . S
C1004 H991 0.960 . S
C1004 C1003 1.524 . S
C1005 C1002 1.403 1_455 S
C1005 C1006 1.392 . S
C1005 C1009 1.495 . S
C1006 C1005 1.392 . S
C1006 C1007 1.385 . S
C1006 C1008 1.478 . S
C1007 H1001 0.930 . S
C1007 C1003 1.400 1_455 S
C1007 C1006 1.385 . S
C1008 C1006 1.478 . S
C1008 C1010 1.381 . S
C1008 C1014 1.383 . S
C1009 C1005 1.495 . S
C1009 H1015 0.904 1_455 S
C1009 H1016 0.961 . S
C1009 H1017 0.960 . S
C1010 C1008 1.381 . S
C1010 C1011 1.394 . S
C1010 H1018 0.930 . S
C1011 C1010 1.394 . S
C1011 C1012 1.383 . S
C1011 H1019 0.929 . S
C1012 C1011 1.383 . S
C1012 C1013 1.377 . S
C1013 H997 0.930 . S
C1013 C1012 1.377 . S
C1013 C1014 1.379 . S
C1014 H998 0.931 . S
C1014 C1008 1.383 . S
C1014 C1013 1.379 . S
H1015 C1009 0.904 1_655 S
H1016 C1009 0.961 . S
H1017 C1009 0.960 . S
H1018 C1010 0.930 . S
H1019 C1011 0.929 . S
H1020 C1028 0.929 . S
H1021 C1030 0.930 . S
H1022 C1032 0.924 1_455 S
H1023 C1035 0.929 1_455 S
H1024 C1038 0.930 . S
H1025 C1040 0.960 . S
H1026 C1040 0.960 . S
H1027 C1040 0.960 . S
C1028 H1020 0.929 . S
C1028 C1029 1.377 . S
C1028 C1030 1.384 . S
C1029 C1028 1.377 . S
C1029 C1035 1.390 . S
C1030 H1021 0.930 . S
C1030 C1028 1.384 . S
C1030 C1031 1.372 . S
C1031 C1030 1.372 . S
C1031 C1032 1.403 . S
C1031 C1036 1.490 . S
C1032 H1022 0.924 1_655 S
C1032 C1031 1.403 . S
C1032 C1035 1.387 . S
H1033 C1049 0.930 . S
H1034 C1050 0.931 . S
C1035 H1023 0.929 1_655 S
C1035 C1029 1.390 . S
C1035 C1032 1.387 . S
C1036 C1031 1.490 . S
C1036 C1038 1.395 . S
C1036 C1039 1.403 1_655 S
H1037 C1043 0.930 . S
C1038 H1024 0.930 . S
C1038 C1036 1.395 . S
C1038 C1041 1.403 . S
C1039 C1036 1.403 1_455 S
C1039 C1040 1.524 . S
C1039 C1043 1.400 . S
C1040 H1025 0.960 . S
C1040 H1026 0.960 . S
C1040 H1027 0.960 . S
C1040 C1039 1.524 . S
C1041 C1038 1.403 . S
C1041 C1042 1.386 . S
C1041 C1045 1.495 . S
C1042 C1041 1.386 . S
C1042 C1043 1.390 1_655 S
C1042 C1044 1.479 1_655 S
C1043 H1037 0.930 . S
C1043 C1039 1.400 . S
C1043 C1042 1.390 1_455 S
C1044 C1042 1.479 1_455 S
C1044 C1046 1.381 1_455 S
C1044 C1050 1.383 . S
C1045 C1041 1.495 . S
C1045 H1051 0.959 . S
C1045 H1052 0.961 . S
C1045 H1053 0.960 . S
C1046 C1044 1.381 1_655 S
C1046 C1047 1.394 1_655 S
C1046 H1054 0.930 . S
C1047 C1046 1.394 1_455 S
C1047 C1048 1.383 . S
C1047 H1055 0.932 . S
C1048 C1047 1.383 . S
C1048 C1049 1.377 . S
C1049 H1033 0.930 . S
C1049 C1048 1.377 . S
C1049 C1050 1.379 . S
C1050 H1034 0.931 . S
C1050 C1044 1.383 . S
C1050 C1049 1.379 . S
H1051 C1045 0.959 . S
H1052 C1045 0.961 . S
H1053 C1045 0.960 . S
H1054 C1046 0.930 . S
H1055 C1047 0.932 . S
H1056 C1064 0.929 . S
H1057 C1066 0.930 . S
H1058 C1068 0.930 . S
H1059 C1071 0.929 . S
H1060 C1074 0.930 . S
H1061 C1076 0.960 . S
H1062 C1076 0.960 . S
H1063 C1076 0.960 . S
C1064 H1056 0.929 . S
C1064 C1065 1.377 . S
C1064 C1066 1.384 . S
C1065 C1064 1.377 . S
C1065 C1071 1.390 . S
C1066 H1057 0.930 . S
C1066 C1064 1.384 . S
C1066 C1067 1.372 . S
C1067 C1066 1.372 . S
C1067 C1068 1.400 . S
C1067 C1072 1.490 . S
C1068 H1058 0.930 . S
C1068 C1067 1.400 . S
C1068 C1071 1.386 . S
H1069 C1085 0.930 . S
H1070 C1086 0.931 . S
C1071 H1059 0.929 . S
C1071 C1065 1.390 . S
C1071 C1068 1.386 . S
C1072 C1067 1.490 . S
C1072 C1074 1.395 . S
C1072 C1075 1.403 . S
H1073 C1079 0.930 . S
C1074 H1060 0.930 . S
C1074 C1072 1.395 . S
C1074 C1077 1.403 . S
C1075 C1072 1.403 . S
C1075 C1076 1.524 . S
C1075 C1079 1.400 . S
C1076 H1061 0.960 . S
C1076 H1062 0.960 . S
C1076 H1063 0.960 . S
C1076 C1075 1.524 . S
C1077 C1074 1.403 . S
C1077 C1078 1.392 . S
C1077 C1081 1.495 . S
C1078 C1077 1.392 . S
C1078 C1079 1.385 . S
C1078 C1080 1.478 . S
C1079 H1073 0.930 . S
C1079 C1075 1.400 . S
C1079 C1078 1.385 . S
C1080 C1078 1.478 . S
C1080 C1082 1.381 . S
C1080 C1086 1.383 . S
C1081 C1077 1.495 . S
C1081 H1087 0.959 . S
C1081 H1088 0.961 . S
C1081 H1089 0.960 . S
C1082 C1080 1.381 . S
C1082 C1083 1.394 . S
C1082 H1090 0.930 . S
C1083 C1082 1.394 . S
C1083 C1084 1.383 . S
C1083 H1091 0.929 . S
C1084 C1083 1.383 . S
C1084 C1085 1.377 . S
C1085 H1069 0.930 . S
C1085 C1084 1.377 . S
C1085 C1086 1.379 . S
C1086 H1070 0.931 . S
C1086 C1080 1.383 . S
C1086 C1085 1.379 . S
H1087 C1081 0.959 . S
H1088 C1081 0.961 . S
H1089 C1081 0.960 . S
H1090 C1082 0.930 . S
H1091 C1083 0.929 . S
H1092 C1100 0.929 . S
H1093 C1102 0.930 . S
H1094 C1104 0.930 . S
H1095 C1107 0.929 . S
H1096 C1110 0.930 . S
H1097 C1112 0.960 . S
H1098 C1112 0.960 . S
H1099 C1112 0.960 . S
C1100 H1092 0.929 . S
C1100 C1101 1.377 . S
C1100 C1102 1.384 . S
C1101 C1100 1.377 . S
C1101 C1107 1.390 . S
C1102 H1093 0.930 . S
C1102 C1100 1.384 . S
C1102 C1103 1.372 . S
C1103 C1102 1.372 . S
C1103 C1104 1.400 . S
C1103 C1108 1.490 . S
C1104 H1094 0.930 . S
C1104 C1103 1.400 . S
C1104 C1107 1.386 . S
H1105 C1121 0.930 . S
H1106 C1122 0.931 . S
C1107 H1095 0.929 . S
C1107 C1101 1.390 . S
C1107 C1104 1.386 . S
C1108 C1103 1.490 . S
C1108 C1110 1.395 . S
C1108 C1111 1.403 . S
H1109 C1115 0.930 . S
C1110 H1096 0.930 . S
C1110 C1108 1.395 . S
C1110 C1113 1.403 1_545 S
C1111 C1108 1.403 . S
C1111 C1112 1.524 . S
C1111 C1115 1.400 1_545 S
C1112 H1097 0.960 . S
C1112 H1098 0.960 . S
C1112 H1099 0.960 . S
C1112 C1111 1.524 . S
C1113 C1110 1.403 1_565 S
C1113 C1114 1.392 . S
C1113 C1117 1.495 . S
C1114 C1113 1.392 . S
C1114 C1115 1.385 . S
C1114 C1116 1.478 . S
C1115 H1109 0.930 . S
C1115 C1111 1.400 1_565 S
C1115 C1114 1.385 . S
C1116 C1114 1.478 . S
C1116 C1118 1.381 . S
C1116 C1122 1.383 . S
C1117 C1113 1.495 . S
C1117 H1123 0.959 . S
C1117 H1124 0.961 . S
C1117 H1125 0.960 . S
C1118 C1116 1.381 . S
C1118 C1119 1.394 . S
C1118 H1126 0.930 . S
C1119 C1118 1.394 . S
C1119 C1120 1.383 . S
C1119 H1127 0.929 . S
C1120 C1119 1.383 . S
C1120 C1121 1.377 . S
C1121 H1105 0.930 . S
C1121 C1120 1.377 . S
C1121 C1122 1.379 . S
C1122 H1106 0.931 . S
C1122 C1116 1.383 . S
C1122 C1121 1.379 . S
H1123 C1117 0.959 . S
H1124 C1117 0.961 . S
H1125 C1117 0.960 . S
H1126 C1118 0.930 . S
H1127 C1119 0.929 . S
H1128 C1136 0.929 . S
H1129 C1138 0.930 . S
H1130 C1140 0.930 . S
H1131 C1143 0.929 . S
H1132 C1146 0.930 . S
H1133 C1148 0.960 . S
H1134 C1148 0.960 . S
H1135 C1148 0.960 . S
C1136 H1128 0.929 . S
C1136 C1137 1.377 . S
C1136 C1138 1.384 . S
C1137 C1136 1.377 . S
C1137 C1143 1.390 . S
C1138 H1129 0.930 . S
C1138 C1136 1.384 . S
C1138 C1139 1.372 . S
C1139 C1138 1.372 . S
C1139 C1140 1.400 . S
C1139 C1144 1.490 . S
C1140 H1130 0.930 . S
C1140 C1139 1.400 . S
C1140 C1143 1.386 . S
H1141 C1157 0.930 . S
H1142 C1158 0.931 . S
C1143 H1131 0.929 . S
C1143 C1137 1.390 . S
C1143 C1140 1.386 . S
C1144 C1139 1.490 . S
C1144 C1146 1.395 1_554 S
C1144 C1147 1.403 . S
H1145 C1151 0.930 . S
C1146 H1132 0.930 . S
C1146 C1144 1.395 1_556 S
C1146 C1149 1.403 . S
C1147 C1144 1.403 . S
C1147 C1148 1.524 . S
C1147 C1151 1.400 . S
C1148 H1133 0.960 . S
C1148 H1134 0.960 . S
C1148 H1135 0.960 . S
C1148 C1147 1.524 . S
C1149 C1146 1.403 . S
C1149 C1150 1.392 . S
C1149 C1153 1.495 . S
C1150 C1149 1.392 . S
C1150 C1151 1.385 1_556 S
C1150 C1152 1.478 . S
C1151 H1145 0.930 . S
C1151 C1147 1.400 . S
C1151 C1150 1.385 1_554 S
C1152 C1150 1.478 . S
C1152 C1154 1.381 . S
C1152 C1158 1.383 . S
C1153 C1149 1.495 . S
C1153 H1159 0.959 . S
C1153 H1160 0.961 . S
C1153 H1161 0.960 . S
C1154 C1152 1.381 . S
C1154 C1155 1.394 . S
C1154 H1162 0.939 . S
C1155 C1154 1.394 . S
C1155 C1156 1.383 . S
C1155 H1163 0.929 . S
C1156 C1155 1.383 . S
C1156 C1157 1.377 . S
C1157 H1141 0.930 . S
C1157 C1156 1.377 . S
C1157 C1158 1.379 . S
C1158 H1142 0.931 . S
C1158 C1152 1.383 . S
C1158 C1157 1.379 . S
H1159 C1153 0.959 . S
H1160 C1153 0.961 . S
H1161 C1153 0.960 . S
H1162 C1154 0.939 . S
H1163 C1155 0.929 . S
H1164 C1172 0.929 . S
H1165 C1174 0.930 . S
H1166 C1176 0.930 . S
H1167 C1179 0.929 . S
H1168 C1182 0.930 . S
H1169 C1184 0.929 1_565 S
H1170 C1184 0.960 . S
H1171 C1184 0.960 . S
C1172 H1164 0.929 . S
C1172 C1173 1.377 . S
C1172 C1174 1.384 . S
C1173 C1172 1.377 . S
C1173 C1179 1.390 . S
C1174 H1165 0.930 . S
C1174 C1172 1.384 . S
C1174 C1175 1.372 . S
C1175 C1174 1.372 . S
C1175 C1176 1.400 . S
C1175 C1180 1.490 . S
C1176 H1166 0.930 . S
C1176 C1175 1.400 . S
C1176 C1179 1.386 . S
H1177 C1193 0.930 . S
H1178 C1194 0.931 . S
C1179 H1167 0.929 . S
C1179 C1173 1.390 . S
C1179 C1176 1.386 . S
C1180 C1175 1.490 . S
C1180 C1182 1.395 . S
C1180 C1183 1.403 . S
H1181 C1187 0.930 . S
C1182 H1168 0.930 . S
C1182 C1180 1.395 . S
C1182 C1185 1.403 1_545 S
C1183 C1180 1.403 . S
C1183 C1184 1.524 . S
C1183 C1187 1.400 1_545 S
C1184 H1169 0.929 1_545 S
C1184 H1170 0.960 . S
C1184 H1171 0.960 . S
C1184 C1183 1.524 . S
C1185 C1182 1.403 1_565 S
C1185 C1186 1.392 . S
C1185 C1189 1.495 . S
C1186 C1185 1.392 . S
C1186 C1187 1.385 . S
C1186 C1188 1.478 . S
C1187 H1181 0.930 . S
C1187 C1183 1.400 1_565 S
C1187 C1186 1.385 . S
C1188 C1186 1.478 . S
C1188 C1190 1.381 . S
C1188 C1194 1.383 . S
C1189 C1185 1.495 . S
C1189 H1195 0.923 1_565 S
C1189 H1196 0.961 . S
C1189 H1197 0.960 . S
C1190 C1188 1.381 . S
C1190 C1191 1.394 . S
C1190 H1198 0.930 . S
C1191 C1190 1.394 . S
C1191 C1192 1.383 . S
C1191 H1199 0.929 . S
C1192 C1191 1.383 . S
C1192 C1193 1.377 . S
C1193 H1177 0.930 . S
C1193 C1192 1.377 . S
C1193 C1194 1.379 . S
C1194 H1178 0.931 . S
C1194 C1188 1.383 . S
C1194 C1193 1.379 . S
H1195 C1189 0.923 1_545 S
H1196 C1189 0.961 . S
H1197 C1189 0.960 . S
H1198 C1190 0.930 . S
H1199 C1191 0.929 . S
H1200 C1208 0.929 . S
H1201 C1210 0.930 . S
H1202 C1212 0.925 1_554 S
H1203 C1215 0.929 1_554 S
H1204 C1218 0.930 . S
H1205 C1220 0.960 . S
H1206 C1220 0.960 . S
H1207 C1220 0.960 . S
C1208 H1200 0.929 . S
C1208 C1209 1.377 . S
C1208 C1210 1.384 . S
C1209 C1208 1.377 . S
C1209 C1215 1.390 . S
C1210 H1201 0.930 . S
C1210 C1208 1.384 . S
C1210 C1211 1.372 . S
C1211 C1210 1.372 . S
C1211 C1212 1.403 . S
C1211 C1216 1.490 . S
C1212 H1202 0.925 1_556 S
C1212 C1211 1.403 . S
C1212 C1215 1.387 . S
H1213 C1229 0.930 . S
H1214 C1230 0.931 . S
C1215 H1203 0.929 1_556 S
C1215 C1209 1.390 . S
C1215 C1212 1.387 . S
C1216 C1211 1.490 . S
C1216 C1218 1.395 . S
C1216 C1219 1.403 1_556 S
H1217 C1223 0.930 . S
C1218 H1204 0.930 . S
C1218 C1216 1.395 . S
C1218 C1221 1.403 . S
C1219 C1216 1.403 1_554 S
C1219 C1220 1.524 . S
C1219 C1223 1.400 . S
C1220 H1205 0.960 . S
C1220 H1206 0.960 . S
C1220 H1207 0.960 . S
C1220 C1219 1.524 . S
C1221 C1218 1.403 . S
C1221 C1222 1.386 . S
C1221 C1225 1.495 . S
C1222 C1221 1.386 . S
C1222 C1223 1.390 1_556 S
C1222 C1224 1.479 1_556 S
C1223 H1217 0.930 . S
C1223 C1219 1.400 . S
C1223 C1222 1.390 1_554 S
C1224 C1222 1.479 1_554 S
C1224 C1226 1.381 1_554 S
C1224 C1230 1.383 . S
C1225 C1221 1.495 . S
C1225 H1231 0.959 . S
C1225 H1232 0.961 . S
C1225 H1233 0.960 . S
C1226 C1224 1.381 1_556 S
C1226 C1227 1.394 1_556 S
C1226 H1234 0.930 . S
C1227 C1226 1.394 1_554 S
C1227 C1228 1.383 . S
C1227 H1235 0.932 . S
C1228 C1227 1.383 . S
C1228 C1229 1.377 . S
C1229 H1213 0.930 . S
C1229 C1228 1.377 . S
C1229 C1230 1.379 . S
C1230 H1214 0.931 . S
C1230 C1224 1.383 . S
C1230 C1229 1.379 . S
H1231 C1225 0.959 . S
H1232 C1225 0.961 . S
H1233 C1225 0.960 . S
H1234 C1226 0.930 . S
H1235 C1227 0.932 . S
H1236 C1244 0.929 . S
H1237 C1246 0.930 . S
H1238 C1248 0.930 . S
H1239 C1251 0.929 . S
H1240 C1254 0.930 . S
H1241 C1256 0.960 . S
H1242 C1256 0.960 . S
H1243 C1256 0.960 . S
C1244 H1236 0.929 . S
C1244 C1245 1.377 . S
C1244 C1246 1.384 . S
C1245 C1244 1.377 . S
C1245 C1251 1.390 . S
C1246 H1237 0.930 . S
C1246 C1244 1.384 . S
C1246 C1247 1.372 . S
C1247 C1246 1.372 . S
C1247 C1248 1.400 . S
C1247 C1252 1.490 . S
C1248 H1238 0.930 . S
C1248 C1247 1.400 . S
C1248 C1251 1.386 . S
H1249 C1265 0.930 . S
H1250 C1266 0.931 . S
C1251 H1239 0.929 . S
C1251 C1245 1.390 . S
C1251 C1248 1.386 . S
C1252 C1247 1.490 . S
C1252 C1254 1.395 . S
C1252 C1255 1.403 . S
H1253 C1259 0.930 . S
C1254 H1240 0.930 . S
C1254 C1252 1.395 . S
C1254 C1257 1.403 . S
C1255 C1252 1.403 . S
C1255 C1256 1.524 . S
C1255 C1259 1.400 . S
C1256 H1241 0.960 . S
C1256 H1242 0.960 . S
C1256 H1243 0.960 . S
C1256 C1255 1.524 . S
C1257 C1254 1.403 . S
C1257 C1258 1.392 . S
C1257 C1261 1.495 . S
C1258 C1257 1.392 . S
C1258 C1259 1.385 . S
C1258 C1260 1.478 . S
C1259 H1253 0.930 . S
C1259 C1255 1.400 . S
C1259 C1258 1.385 . S
C1260 C1258 1.478 . S
C1260 C1262 1.381 . S
C1260 C1266 1.383 . S
C1261 C1257 1.495 . S
C1261 H1267 0.959 . S
C1261 H1268 0.961 . S
C1261 H1269 0.960 . S
C1262 C1260 1.381 . S
C1262 C1263 1.394 . S
C1262 H1270 0.930 . S
C1263 C1262 1.394 . S
C1263 C1264 1.383 . S
C1263 H1271 0.929 . S
C1264 C1263 1.383 . S
C1264 C1265 1.377 . S
C1265 H1249 0.930 . S
C1265 C1264 1.377 . S
C1265 C1266 1.379 . S
C1266 H1250 0.931 . S
C1266 C1260 1.383 . S
C1266 C1265 1.379 . S
H1267 C1261 0.959 . S
H1268 C1261 0.961 . S
H1269 C1261 0.960 . S
H1270 C1262 0.930 . S
H1271 C1263 0.929 . S
H1272 C1280 0.929 . S
H1273 C1282 0.930 . S
H1274 C1284 0.930 . S
H1275 C1287 0.929 . S
H1276 C1290 0.930 . S
H1277 C1292 0.960 . S
H1278 C1292 0.960 . S
H1279 C1292 0.960 . S
C1280 H1272 0.929 . S
C1280 C1281 1.377 . S
C1280 C1282 1.384 . S
C1281 C1280 1.377 . S
C1281 C1287 1.390 . S
C1282 H1273 0.930 . S
C1282 C1280 1.384 . S
C1282 C1283 1.372 . S
C1283 C1282 1.372 . S
C1283 C1284 1.400 . S
C1283 C1288 1.490 . S
C1284 H1274 0.930 . S
C1284 C1283 1.400 . S
C1284 C1287 1.386 . S
H1285 C1301 0.930 . S
H1286 C1302 0.931 . S
C1287 H1275 0.929 . S
C1287 C1281 1.390 . S
C1287 C1284 1.386 . S
C1288 C1283 1.490 . S
C1288 C1290 1.395 . S
C1288 C1291 1.403 . S
H1289 C1295 0.930 . S
C1290 H1276 0.930 . S
C1290 C1288 1.395 . S
C1290 C1293 1.403 . S
C1291 C1288 1.403 . S
C1291 C1292 1.524 . S
C1291 C1295 1.400 . S
C1292 H1277 0.960 . S
C1292 H1278 0.960 . S
C1292 H1279 0.960 . S
C1292 C1291 1.524 . S
C1293 C1290 1.403 . S
C1293 C1294 1.392 . S
C1293 C1297 1.495 . S
C1294 C1293 1.392 . S
C1294 C1295 1.385 . S
C1294 C1296 1.478 . S
C1295 H1289 0.930 . S
C1295 C1291 1.400 . S
C1295 C1294 1.385 . S
C1296 C1294 1.478 . S
C1296 C1298 1.381 . S
C1296 C1302 1.383 . S
C1297 C1293 1.495 . S
C1297 H1303 0.959 . S
C1297 H1304 0.961 . S
C1297 H1305 0.960 . S
C1298 C1296 1.381 . S
C1298 C1299 1.394 . S
C1298 H1306 0.930 . S
C1299 C1298 1.394 . S
C1299 C1300 1.383 . S
C1299 H1307 0.929 . S
C1300 C1299 1.383 . S
C1300 C1301 1.377 . S
C1301 H1285 0.930 . S
C1301 C1300 1.377 . S
C1301 C1302 1.379 . S
C1302 H1286 0.931 . S
C1302 C1296 1.383 . S
C1302 C1301 1.379 . S
H1303 C1297 0.959 . S
H1304 C1297 0.961 . S
H1305 C1297 0.960 . S
H1306 C1298 0.930 . S
H1307 C1299 0.929 . S
H1308 C1316 0.929 . S
H1309 C1318 0.930 . S
H1310 C1320 0.930 . S
H1311 C1323 0.929 . S
H1312 C1326 0.930 . S
H1313 C1328 0.960 . S
H1314 C1328 0.960 . S
H1315 C1328 0.960 . S
C1316 H1308 0.929 . S
C1316 C1317 1.377 . S
C1316 C1318 1.384 . S
C1317 C1316 1.377 . S
C1317 C1323 1.390 . S
C1318 H1309 0.930 . S
C1318 C1316 1.384 . S
C1318 C1319 1.372 . S
C1319 C1318 1.372 . S
C1319 C1320 1.400 . S
C1319 C1324 1.490 . S
C1320 H1310 0.930 . S
C1320 C1319 1.400 . S
C1320 C1323 1.386 . S
H1321 C1337 0.930 . S
H1322 C1338 0.931 . S
C1323 H1311 0.929 . S
C1323 C1317 1.390 . S
C1323 C1320 1.386 . S
C1324 C1319 1.490 . S
C1324 C1326 1.395 . S
C1324 C1327 1.403 . S
H1325 C1331 0.930 . S
C1326 H1312 0.930 . S
C1326 C1324 1.395 . S
C1326 C1329 1.403 1_554 S
C1327 C1324 1.403 . S
C1327 C1328 1.524 . S
C1327 C1331 1.400 1_554 S
C1328 H1313 0.960 . S
C1328 H1314 0.960 . S
C1328 H1315 0.960 . S
C1328 C1327 1.524 . S
C1329 C1326 1.403 1_556 S
C1329 C1330 1.392 . S
C1329 C1333 1.495 . S
C1330 C1329 1.392 . S
C1330 C1331 1.385 . S
C1330 C1332 1.478 . S
C1331 H1325 0.930 . S
C1331 C1327 1.400 1_556 S
C1331 C1330 1.385 . S
C1332 C1330 1.478 . S
C1332 C1334 1.381 . S
C1332 C1338 1.383 . S
C1333 C1329 1.495 . S
C1333 H1339 0.959 . S
C1333 H1340 0.961 . S
C1333 H1341 0.960 . S
C1334 C1332 1.381 . S
C1334 C1335 1.394 . S
C1334 H1342 0.930 . S
C1335 C1334 1.394 . S
C1335 C1336 1.383 . S
C1335 H1343 0.929 . S
C1336 C1335 1.383 . S
C1336 C1337 1.377 . S
C1337 H1321 0.930 . S
C1337 C1336 1.377 . S
C1337 C1338 1.379 . S
C1338 H1322 0.931 . S
C1338 C1332 1.383 . S
C1338 C1337 1.379 . S
H1339 C1333 0.959 . S
H1340 C1333 0.961 . S
H1341 C1333 0.960 . S
H1342 C1334 0.930 . S
H1343 C1335 0.929 . S
H1344 C1352 0.929 . S
H1345 C1354 0.930 . S
H1346 C1356 0.930 . S
H1347 C1359 0.929 . S
H1348 C1362 0.930 . S
H1349 C1364 0.960 . S
H1350 C1364 0.960 . S
H1351 C1364 0.960 . S
C1352 H1344 0.929 . S
C1352 C1353 1.377 . S
C1352 C1354 1.384 . S
C1353 C1352 1.377 . S
C1353 C1359 1.390 . S
C1354 H1345 0.930 . S
C1354 C1352 1.384 . S
C1354 C1355 1.372 . S
C1355 C1354 1.372 . S
C1355 C1356 1.400 . S
C1355 C1360 1.490 . S
C1356 H1346 0.930 . S
C1356 C1355 1.400 . S
C1356 C1359 1.386 . S
H1357 C1373 0.930 . S
H1358 C1374 0.931 . S
C1359 H1347 0.929 . S
C1359 C1353 1.390 . S
C1359 C1356 1.386 . S
C1360 C1355 1.490 . S
C1360 C1362 1.395 . S
C1360 C1363 1.403 . S
H1361 C1367 0.930 . S
C1362 H1348 0.930 . S
C1362 C1360 1.395 . S
C1362 C1365 1.403 . S
C1363 C1360 1.403 . S
C1363 C1364 1.524 . S
C1363 C1367 1.400 . S
C1364 H1349 0.960 . S
C1364 H1350 0.960 . S
C1364 H1351 0.960 . S
C1364 C1363 1.524 . S
C1365 C1362 1.403 . S
C1365 C1366 1.392 . S
C1365 C1369 1.495 . S
C1366 C1365 1.392 . S
C1366 C1367 1.385 . S
C1366 C1368 1.478 . S
C1367 H1361 0.930 . S
C1367 C1363 1.400 . S
C1367 C1366 1.385 . S
C1368 C1366 1.478 . S
C1368 C1370 1.381 . S
C1368 C1374 1.383 . S
C1369 C1365 1.495 . S
C1369 H1375 0.959 . S
C1369 H1376 0.961 . S
C1369 H1377 0.960 . S
C1370 C1368 1.381 . S
C1370 C1371 1.394 . S
C1370 H1378 0.930 . S
C1371 C1370 1.394 . S
C1371 C1372 1.383 . S
C1371 H1379 0.929 . S
C1372 C1371 1.383 . S
C1372 C1373 1.377 . S
C1373 H1357 0.930 . S
C1373 C1372 1.377 . S
C1373 C1374 1.379 . S
C1374 H1358 0.931 . S
C1374 C1368 1.383 . S
C1374 C1373 1.379 . S
H1375 C1369 0.959 . S
H1376 C1369 0.961 . S
H1377 C1369 0.960 . S
H1378 C1370 0.930 . S
H1379 C1371 0.929 . S
H1380 C1388 0.929 . S
H1381 C1390 0.930 . S
H1382 C1392 0.930 . S
H1383 C1395 0.929 . S
H1384 C1398 0.930 . S
H1385 C1400 0.960 . S
H1386 C1400 0.960 . S
H1387 C1400 0.960 . S
C1388 H1380 0.929 . S
C1388 C1389 1.377 . S
C1388 C1390 1.384 . S
C1389 C1388 1.377 . S
C1389 C1395 1.390 . S
C1390 H1381 0.930 . S
C1390 C1388 1.384 . S
C1390 C1391 1.372 . S
C1391 C1390 1.372 . S
C1391 C1392 1.400 . S
C1391 C1396 1.490 . S
C1392 H1382 0.930 . S
C1392 C1391 1.400 . S
C1392 C1395 1.386 . S
H1393 C1409 0.930 . S
H1394 C1410 0.931 . S
C1395 H1383 0.929 . S
C1395 C1389 1.390 . S
C1395 C1392 1.386 . S
C1396 C1391 1.490 . S
C1396 C1398 1.395 . S
C1396 C1399 1.403 . S
H1397 C1403 0.930 . S
C1398 H1384 0.930 . S
C1398 C1396 1.395 . S
C1398 C1401 1.403 . S
C1399 C1396 1.403 . S
C1399 C1400 1.524 . S
C1399 C1403 1.400 . S
C1400 H1385 0.960 . S
C1400 H1386 0.960 . S
C1400 H1387 0.960 . S
C1400 C1399 1.524 . S
C1401 C1398 1.403 . S
C1401 C1402 1.392 . S
C1401 C1405 1.495 . S
C1402 C1401 1.392 . S
C1402 C1403 1.385 . S
C1402 C1404 1.478 . S
C1403 H1397 0.930 . S
C1403 C1399 1.400 . S
C1403 C1402 1.385 . S
C1404 C1402 1.478 . S
C1404 C1406 1.381 . S
C1404 C1410 1.383 . S
C1405 C1401 1.495 . S
C1405 H1411 0.959 . S
C1405 H1412 0.961 . S
C1405 H1413 0.960 . S
C1406 C1404 1.381 . S
C1406 C1407 1.394 . S
C1406 H1414 0.930 . S
C1407 C1406 1.394 . S
C1407 C1408 1.383 . S
C1407 H1415 0.929 . S
C1408 C1407 1.383 . S
C1408 C1409 1.377 . S
C1409 H1393 0.930 . S
C1409 C1408 1.377 . S
C1409 C1410 1.379 . S
C1410 H1394 0.931 . S
C1410 C1404 1.383 . S
C1410 C1409 1.379 . S
H1411 C1405 0.959 . S
H1412 C1405 0.961 . S
H1413 C1405 0.960 . S
H1414 C1406 0.930 . S
H1415 C1407 0.929 . S
H1416 C1424 0.929 . S
H1417 C1426 0.930 . S
H1418 C1428 0.930 . S
H1419 C1431 0.929 . S
H1420 C1434 0.930 . S
H1421 C1436 0.960 . S
H1422 C1436 0.960 . S
H1423 C1436 0.960 . S
C1424 H1416 0.929 . S
C1424 C1425 1.377 . S
C1424 C1426 1.384 . S
C1425 C1424 1.377 . S
C1425 C1431 1.390 . S
C1426 H1417 0.930 . S
C1426 C1424 1.384 . S
C1426 C1427 1.372 . S
C1427 C1426 1.372 . S
C1427 C1428 1.400 . S
C1427 C1432 1.490 . S
C1428 H1418 0.930 . S
C1428 C1427 1.400 . S
C1428 C1431 1.386 . S
H1429 C1445 0.930 . S
H1430 C1446 0.931 . S
C1431 H1419 0.929 . S
C1431 C1425 1.390 . S
C1431 C1428 1.386 . S
C1432 C1427 1.490 . S
C1432 C1434 1.395 . S
C1432 C1435 1.403 . S
H1433 C1439 0.930 . S
C1434 H1420 0.930 . S
C1434 C1432 1.395 . S
C1434 C1437 1.403 . S
C1435 C1432 1.403 . S
C1435 C1436 1.524 . S
C1435 C1439 1.400 . S
C1436 H1421 0.960 . S
C1436 H1422 0.960 . S
C1436 H1423 0.960 . S
C1436 C1435 1.524 . S
C1437 C1434 1.403 . S
C1437 C1438 1.392 . S
C1437 C1441 1.495 . S
C1438 C1437 1.392 . S
C1438 C1439 1.385 . S
C1438 C1440 1.478 . S
C1439 H1433 0.930 . S
C1439 C1435 1.400 . S
C1439 C1438 1.385 . S
C1440 C1438 1.478 . S
C1440 C1442 1.381 . S
C1440 C1446 1.383 . S
C1441 C1437 1.495 . S
C1441 H1447 0.959 . S
C1441 H1448 0.961 . S
C1441 H1449 0.960 . S
C1442 C1440 1.381 . S
C1442 C1443 1.394 . S
C1442 H1450 0.930 . S
C1443 C1442 1.394 . S
C1443 C1444 1.383 . S
C1443 H1451 0.929 . S
C1444 C1443 1.383 . S
C1444 C1445 1.377 . S
C1445 H1429 0.930 . S
C1445 C1444 1.377 . S
C1445 C1446 1.379 . S
C1446 H1430 0.931 . S
C1446 C1440 1.383 . S
C1446 C1445 1.379 . S
H1447 C1441 0.959 . S
H1448 C1441 0.961 . S
H1449 C1441 0.960 . S
H1450 C1442 0.930 . S
H1451 C1443 0.929 . S
H1452 C1460 0.929 . S
H1453 C1462 0.930 . S
H1454 C1464 0.930 . S
H1455 C1467 0.929 . S
H1456 C1470 0.930 . S
H1457 C1472 0.960 . S
H1458 C1472 0.960 . S
H1459 C1472 0.960 . S
C1460 H1452 0.929 . S
C1460 C1461 1.377 . S
C1460 C1462 1.384 . S
C1461 C1460 1.377 . S
C1461 C1467 1.390 . S
C1462 H1453 0.930 . S
C1462 C1460 1.384 . S
C1462 C1463 1.372 . S
C1463 C1462 1.372 . S
C1463 C1464 1.400 . S
C1463 C1468 1.490 . S
C1464 H1454 0.930 . S
C1464 C1463 1.400 . S
C1464 C1467 1.386 . S
H1465 C1481 0.930 . S
H1466 C1482 0.931 . S
C1467 H1455 0.929 . S
C1467 C1461 1.390 . S
C1467 C1464 1.386 . S
C1468 C1463 1.490 . S
C1468 C1470 1.395 . S
C1468 C1471 1.403 . S
H1469 C1475 0.930 . S
C1470 H1456 0.930 . S
C1470 C1468 1.395 . S
C1470 C1473 1.403 . S
C1471 C1468 1.403 . S
C1471 C1472 1.524 . S
C1471 C1475 1.400 . S
C1472 H1457 0.960 . S
C1472 H1458 0.960 . S
C1472 H1459 0.960 . S
C1472 C1471 1.524 . S
C1473 C1470 1.403 . S
C1473 C1474 1.392 . S
C1473 C1477 1.495 . S
C1474 C1473 1.392 . S
C1474 C1475 1.385 . S
C1474 C1476 1.478 . S
C1475 H1469 0.930 . S
C1475 C1471 1.400 . S
C1475 C1474 1.385 . S
C1476 C1474 1.478 . S
C1476 C1478 1.381 . S
C1476 C1482 1.383 . S
C1477 C1473 1.495 . S
C1477 H1483 0.959 . S
C1477 H1484 0.961 . S
C1477 H1485 0.960 . S
C1478 C1476 1.381 . S
C1478 C1479 1.394 . S
C1478 H1486 0.930 . S
C1479 C1478 1.394 . S
C1479 C1480 1.383 . S
C1479 H1487 0.929 . S
C1480 C1479 1.383 . S
C1480 C1481 1.377 . S
C1481 H1465 0.930 . S
C1481 C1480 1.377 . S
C1481 C1482 1.379 . S
C1482 H1466 0.931 . S
C1482 C1476 1.383 . S
C1482 C1481 1.379 . S
H1483 C1477 0.959 . S
H1484 C1477 0.961 . S
H1485 C1477 0.960 . S
H1486 C1478 0.930 . S
H1487 C1479 0.929 . S
H1488 C1496 0.929 . S
H1489 C1498 0.930 . S
H1490 C1500 0.930 . S
H1491 C1503 0.929 . S
H1492 C1506 0.930 . S
H1493 C1508 0.960 . S
H1494 C1508 0.960 . S
H1495 C1508 0.960 . S
C1496 H1488 0.929 . S
C1496 C1497 1.377 . S
C1496 C1498 1.384 . S
C1497 C1496 1.377 . S
C1497 C1503 1.390 . S
C1498 H1489 0.930 . S
C1498 C1496 1.384 . S
C1498 C1499 1.372 . S
C1499 C1498 1.372 . S
C1499 C1500 1.400 . S
C1499 C1504 1.490 . S
C1500 H1490 0.930 . S
C1500 C1499 1.400 . S
C1500 C1503 1.386 . S
H1501 C1517 0.930 . S
H1502 C1518 0.931 . S
C1503 H1491 0.929 . S
C1503 C1497 1.390 . S
C1503 C1500 1.386 . S
C1504 C1499 1.490 . S
C1504 C1506 1.395 . S
C1504 C1507 1.403 . S
H1505 C1511 0.930 . S
C1506 H1492 0.930 . S
C1506 C1504 1.395 . S
C1506 C1509 1.403 . S
C1507 C1504 1.403 . S
C1507 C1508 1.524 . S
C1507 C1511 1.400 . S
C1508 H1493 0.960 . S
C1508 H1494 0.960 . S
C1508 H1495 0.960 . S
C1508 C1507 1.524 . S
C1509 C1506 1.403 . S
C1509 C1510 1.392 . S
C1509 C1513 1.495 . S
C1510 C1509 1.392 . S
C1510 C1511 1.385 . S
C1510 C1512 1.478 . S
C1511 H1505 0.930 . S
C1511 C1507 1.400 . S
C1511 C1510 1.385 . S
C1512 C1510 1.478 . S
C1512 C1514 1.381 . S
C1512 C1518 1.383 . S
C1513 C1509 1.495 . S
C1513 H1519 0.959 . S
C1513 H1520 0.961 . S
C1513 H1521 0.960 . S
C1514 C1512 1.381 . S
C1514 C1515 1.394 . S
C1514 H1522 0.930 . S
C1515 C1514 1.394 . S
C1515 C1516 1.383 . S
C1515 H1523 0.929 . S
C1516 C1515 1.383 . S
C1516 C1517 1.377 . S
C1517 H1501 0.930 . S
C1517 C1516 1.377 . S
C1517 C1518 1.379 . S
C1518 H1502 0.931 . S
C1518 C1512 1.383 . S
C1518 C1517 1.379 . S
H1519 C1513 0.959 . S
H1520 C1513 0.961 . S
H1521 C1513 0.960 . S
H1522 C1514 0.930 . S
H1523 C1515 0.929 . S
H1524 C1532 0.929 . S
H1525 C1534 0.930 . S
H1526 C1536 0.930 . S
H1527 C1539 0.929 1_455 S
H1528 C1542 0.930 . S
H1529 C1544 0.960 . S
H1530 C1544 0.960 . S
H1531 C1544 0.960 . S
C1532 H1524 0.929 . S
C1532 C1533 1.377 . S
C1532 C1534 1.384 . S
C1533 C1532 1.377 . S
C1533 C1539 1.390 . S
C1534 H1525 0.930 . S
C1534 C1532 1.384 . S
C1534 C1535 1.372 . S
C1535 C1534 1.372 . S
C1535 C1536 1.400 . S
C1535 C1540 1.490 . S
C1536 H1526 0.930 . S
C1536 C1535 1.400 . S
C1536 C1539 1.386 . S
H1537 C1553 0.930 . S
H1538 C1554 0.931 . S
C1539 H1527 0.929 1_655 S
C1539 C1533 1.390 . S
C1539 C1536 1.386 . S
C1540 C1535 1.490 . S
C1540 C1542 1.395 . S
C1540 C1543 1.403 . S
H1541 C1547 0.930 . S
C1542 H1528 0.930 . S
C1542 C1540 1.395 . S
C1542 C1545 1.403 . S
C1543 C1540 1.403 . S
C1543 C1544 1.524 . S
C1543 C1547 1.400 . S
C1544 H1529 0.960 . S
C1544 H1530 0.960 . S
C1544 H1531 0.960 . S
C1544 C1543 1.524 . S
C1545 C1542 1.403 . S
C1545 C1546 1.392 . S
C1545 C1549 1.495 . S
C1546 C1545 1.392 . S
C1546 C1547 1.385 . S
C1546 C1548 1.478 . S
C1547 H1541 0.930 . S
C1547 C1543 1.400 . S
C1547 C1546 1.385 . S
C1548 C1546 1.478 . S
C1548 C1550 1.381 . S
C1548 C1554 1.383 . S
C1549 C1545 1.495 . S
C1549 H1555 0.959 . S
C1549 H1556 0.961 . S
C1549 H1557 0.960 . S
C1550 C1548 1.381 . S
C1550 C1551 1.394 . S
C1550 H1558 0.930 . S
C1551 C1550 1.394 . S
C1551 C1552 1.383 . S
C1551 H1559 0.929 . S
C1552 C1551 1.383 . S
C1552 C1553 1.377 . S
C1553 H1537 0.930 . S
C1553 C1552 1.377 . S
C1553 C1554 1.379 . S
C1554 H1538 0.931 . S
C1554 C1548 1.383 . S
C1554 C1553 1.379 . S
H1555 C1549 0.959 . S
H1556 C1549 0.961 . S
H1557 C1549 0.960 . S
H1558 C1550 0.930 . S
H1559 C1551 0.929 . S
H1560 C1568 0.929 . S
H1561 C1570 0.930 . S
H1562 C1572 0.930 . S
H1563 C1575 0.929 . S
H1564 C1578 0.930 . S
H1565 C1580 0.960 . S
H1566 C1580 0.960 . S
H1567 C1580 0.960 . S
C1568 H1560 0.929 . S
C1568 C1569 1.377 . S
C1568 C1570 1.384 . S
C1569 C1568 1.377 . S
C1569 C1575 1.390 . S
C1570 H1561 0.930 . S
C1570 C1568 1.384 . S
C1570 C1571 1.372 . S
C1571 C1570 1.372 . S
C1571 C1572 1.400 . S
C1571 C1576 1.490 . S
C1572 H1562 0.930 . S
C1572 C1571 1.400 . S
C1572 C1575 1.386 . S
H1573 C1589 0.930 . S
H1574 C1590 0.931 . S
C1575 H1563 0.929 . S
C1575 C1569 1.390 . S
C1575 C1572 1.386 . S
C1576 C1571 1.490 . S
C1576 C1578 1.395 . S
C1576 C1579 1.403 . S
H1577 C1583 0.930 . S
C1578 H1564 0.930 . S
C1578 C1576 1.395 . S
C1578 C1581 1.403 . S
C1579 C1576 1.403 . S
C1579 C1580 1.524 . S
C1579 C1583 1.400 . S
C1580 H1565 0.960 . S
C1580 H1566 0.960 . S
C1580 H1567 0.960 . S
C1580 C1579 1.524 . S
C1581 C1578 1.403 . S
C1581 C1582 1.392 . S
C1581 C1585 1.495 . S
C1582 C1581 1.392 . S
C1582 C1583 1.385 . S
C1582 C1584 1.478 . S
C1583 H1577 0.930 . S
C1583 C1579 1.400 . S
C1583 C1582 1.385 . S
C1584 C1582 1.478 . S
C1584 C1586 1.381 . S
C1584 C1590 1.383 . S
C1585 C1581 1.495 . S
C1585 H1591 0.959 . S
C1585 H1592 0.961 . S
C1585 H1593 0.960 . S
C1586 C1584 1.381 . S
C1586 C1587 1.394 . S
C1586 H1594 0.930 . S
C1587 C1586 1.394 . S
C1587 C1588 1.383 . S
C1587 H1595 0.929 . S
C1588 C1587 1.383 . S
C1588 C1589 1.377 . S
C1589 H1573 0.930 . S
C1589 C1588 1.377 . S
C1589 C1590 1.379 . S
C1590 H1574 0.931 . S
C1590 C1584 1.383 . S
C1590 C1589 1.379 . S
H1591 C1585 0.959 . S
H1592 C1585 0.961 . S
H1593 C1585 0.960 . S
H1594 C1586 0.930 . S
H1595 C1587 0.929 . S
H1596 C1604 0.929 . S
H1597 C1606 0.930 . S
H1598 C1608 0.930 . S
H1599 C1611 0.929 . S
H1600 C1614 0.930 . S
H1601 C1616 0.960 . S
H1602 C1616 0.960 . S
H1603 C1616 0.960 . S
C1604 H1596 0.929 . S
C1604 C1605 1.377 . S
C1604 C1606 1.384 . S
C1605 C1604 1.377 . S
C1605 C1611 1.390 . S
C1606 H1597 0.930 . S
C1606 C1604 1.384 . S
C1606 C1607 1.372 . S
C1607 C1606 1.372 . S
C1607 C1608 1.400 . S
C1607 C1612 1.490 . S
C1608 H1598 0.930 . S
C1608 C1607 1.400 . S
C1608 C1611 1.386 . S
H1609 C1625 0.930 . S
H1610 C1626 0.931 . S
C1611 H1599 0.929 . S
C1611 C1605 1.390 . S
C1611 C1608 1.386 . S
C1612 C1607 1.490 . S
C1612 C1614 1.395 . S
C1612 C1615 1.403 . S
H1613 C1619 0.930 . S
C1614 H1600 0.930 . S
C1614 C1612 1.395 . S
C1614 C1617 1.403 . S
C1615 C1612 1.403 . S
C1615 C1616 1.524 . S
C1615 C1619 1.400 . S
C1616 H1601 0.960 . S
C1616 H1602 0.960 . S
C1616 H1603 0.960 . S
C1616 C1615 1.524 . S
C1617 C1614 1.403 . S
C1617 C1618 1.392 . S
C1617 C1621 1.495 . S
C1618 C1617 1.392 . S
C1618 C1619 1.385 . S
C1618 C1620 1.478 . S
C1619 H1613 0.930 . S
C1619 C1615 1.400 . S
C1619 C1618 1.385 . S
C1620 C1618 1.478 . S
C1620 C1622 1.381 . S
C1620 C1626 1.383 . S
C1621 C1617 1.495 . S
C1621 H1627 0.959 . S
C1621 H1628 0.961 . S
C1621 H1629 0.960 . S
C1622 C1620 1.381 . S
C1622 C1623 1.394 . S
C1622 H1630 0.930 . S
C1623 C1622 1.394 . S
C1623 C1624 1.383 . S
C1623 H1631 0.929 . S
C1624 C1623 1.383 . S
C1624 C1625 1.377 . S
C1625 H1609 0.930 . S
C1625 C1624 1.377 . S
C1625 C1626 1.379 . S
C1626 H1610 0.931 . S
C1626 C1620 1.383 . S
C1626 C1625 1.379 . S
H1627 C1621 0.959 . S
H1628 C1621 0.961 . S
H1629 C1621 0.960 . S
H1630 C1622 0.930 . S
H1631 C1623 0.929 . S
H1632 C1640 0.929 . S
H1633 C1642 0.930 . S
H1634 C1644 0.930 . S
H1635 C1647 0.929 . S
H1636 C1650 0.930 . S
H1637 C1652 0.960 . S
H1638 C1652 0.960 . S
H1639 C1652 0.960 . S
C1640 H1632 0.929 . S
C1640 C1641 1.377 . S
C1640 C1642 1.384 . S
C1641 C1640 1.377 . S
C1641 C1647 1.390 . S
C1642 H1633 0.930 . S
C1642 C1640 1.384 . S
C1642 C1643 1.372 . S
C1643 C1642 1.372 . S
C1643 C1644 1.400 . S
C1643 C1648 1.490 . S
C1644 H1634 0.930 . S
C1644 C1643 1.400 . S
C1644 C1647 1.386 . S
H1645 C1661 0.930 . S
H1646 C1662 0.931 . S
C1647 H1635 0.929 . S
C1647 C1641 1.390 . S
C1647 C1644 1.386 . S
C1648 C1643 1.490 . S
C1648 C1650 1.395 . S
C1648 C1651 1.403 . S
H1649 C1655 0.930 . S
C1650 H1636 0.930 . S
C1650 C1648 1.395 . S
C1650 C1653 1.403 . S
C1651 C1648 1.403 . S
C1651 C1652 1.524 . S
C1651 C1655 1.400 . S
C1652 H1637 0.960 . S
C1652 H1638 0.960 . S
C1652 H1639 0.960 . S
C1652 C1651 1.524 . S
C1653 C1650 1.403 . S
C1653 C1654 1.392 . S
C1653 C1657 1.495 . S
C1654 C1653 1.392 . S
C1654 C1655 1.385 . S
C1654 C1656 1.478 . S
C1655 H1649 0.930 . S
C1655 C1651 1.400 . S
C1655 C1654 1.385 . S
C1656 C1654 1.478 . S
C1656 C1658 1.381 . S
C1656 C1662 1.383 . S
C1657 C1653 1.495 . S
C1657 H1663 0.959 . S
C1657 H1664 0.961 . S
C1657 H1665 0.960 . S
C1658 C1656 1.381 . S
C1658 C1659 1.394 . S
C1658 H1666 0.930 . S
C1659 C1658 1.394 . S
C1659 C1660 1.383 . S
C1659 H1667 0.929 . S
C1660 C1659 1.383 . S
C1660 C1661 1.377 . S
C1661 H1645 0.930 . S
C1661 C1660 1.377 . S
C1661 C1662 1.379 . S
C1662 H1646 0.931 . S
C1662 C1656 1.383 . S
C1662 C1661 1.379 . S
H1663 C1657 0.959 . S
H1664 C1657 0.961 . S
H1665 C1657 0.960 . S
H1666 C1658 0.930 . S
H1667 C1659 0.929 . S
H1668 C1676 0.929 . S
H1669 C1678 0.930 . S
H1670 C1680 0.930 . S
H1671 C1683 0.929 . S
H1672 C1686 0.930 . S
H1673 C1688 0.960 . S
H1674 C1688 0.960 . S
H1675 C1688 0.960 . S
C1676 H1668 0.929 . S
C1676 C1677 1.377 . S
C1676 C1678 1.384 . S
C1677 C1676 1.377 . S
C1677 C1683 1.390 . S
C1678 H1669 0.930 . S
C1678 C1676 1.384 . S
C1678 C1679 1.372 . S
C1679 C1678 1.372 . S
C1679 C1680 1.400 . S
C1679 C1684 1.490 . S
C1680 H1670 0.930 . S
C1680 C1679 1.400 . S
C1680 C1683 1.386 . S
H1681 C1697 0.930 . S
H1682 C1698 0.931 . S
C1683 H1671 0.929 . S
C1683 C1677 1.390 . S
C1683 C1680 1.386 . S
C1684 C1679 1.490 . S
C1684 C1686 1.395 . S
C1684 C1687 1.403 . S
H1685 C1691 0.930 . S
C1686 H1672 0.930 . S
C1686 C1684 1.395 . S
C1686 C1689 1.403 . S
C1687 C1684 1.403 . S
C1687 C1688 1.524 . S
C1687 C1691 1.400 . S
C1688 H1673 0.960 . S
C1688 H1674 0.960 . S
C1688 H1675 0.960 . S
C1688 C1687 1.524 . S
C1689 C1686 1.403 . S
C1689 C1690 1.392 . S
C1689 C1693 1.495 . S
C1690 C1689 1.392 . S
C1690 C1691 1.385 . S
C1690 C1692 1.478 . S
C1691 H1685 0.930 . S
C1691 C1687 1.400 . S
C1691 C1690 1.385 . S
C1692 C1690 1.478 . S
C1692 C1694 1.381 . S
C1692 C1698 1.383 . S
C1693 C1689 1.495 . S
C1693 H1699 0.959 . S
C1693 H1700 0.961 . S
C1693 H1701 0.960 . S
C1694 C1692 1.381 . S
C1694 C1695 1.394 . S
C1694 H1702 0.930 . S
C1695 C1694 1.394 . S
C1695 C1696 1.383 . S
C1695 H1703 0.929 . S
C1696 C1695 1.383 . S
C1696 C1697 1.377 . S
C1697 H1681 0.930 . S
C1697 C1696 1.377 . S
C1697 C1698 1.379 . S
C1698 H1682 0.931 . S
C1698 C1692 1.383 . S
C1698 C1697 1.379 . S
H1699 C1693 0.959 . S
H1700 C1693 0.961 . S
H1701 C1693 0.960 . S
H1702 C1694 0.930 . S
H1703 C1695 0.929 . S
H1704 C1712 0.929 . S
H1705 C1714 0.930 . S
H1706 C1716 0.930 . S
H1707 C1719 0.929 . S
H1708 C1722 0.930 . S
H1709 C1724 0.960 . S
H1710 C1724 0.960 . S
H1711 C1724 0.960 . S
C1712 H1704 0.929 . S
C1712 C1713 1.377 . S
C1712 C1714 1.384 . S
C1713 C1712 1.377 . S
C1713 C1719 1.390 . S
C1714 H1705 0.930 . S
C1714 C1712 1.384 . S
C1714 C1715 1.372 . S
C1715 C1714 1.372 . S
C1715 C1716 1.400 . S
C1715 C1720 1.490 . S
C1716 H1706 0.930 . S
C1716 C1715 1.400 . S
C1716 C1719 1.386 . S
H1717 C1733 0.930 . S
H1718 C1734 0.931 . S
C1719 H1707 0.929 . S
C1719 C1713 1.390 . S
C1719 C1716 1.386 . S
C1720 C1715 1.490 . S
C1720 C1722 1.395 . S
C1720 C1723 1.403 . S
H1721 C1727 0.930 . S
C1722 H1708 0.930 . S
C1722 C1720 1.395 . S
C1722 C1725 1.403 . S
C1723 C1720 1.403 . S
C1723 C1724 1.524 . S
C1723 C1727 1.400 . S
C1724 H1709 0.960 . S
C1724 H1710 0.960 . S
C1724 H1711 0.960 . S
C1724 C1723 1.524 . S
C1725 C1722 1.403 . S
C1725 C1726 1.392 . S
C1725 C1729 1.495 . S
C1726 C1725 1.392 . S
C1726 C1727 1.385 . S
C1726 C1728 1.478 . S
C1727 H1721 0.930 . S
C1727 C1723 1.400 . S
C1727 C1726 1.385 . S
C1728 C1726 1.478 . S
C1728 C1730 1.381 . S
C1728 C1734 1.383 . S
C1729 C1725 1.495 . S
C1729 H1735 0.959 . S
C1729 H1736 0.961 . S
C1729 H1737 0.960 . S
C1730 C1728 1.381 . S
C1730 C1731 1.394 . S
C1730 H1738 0.930 . S
C1731 C1730 1.394 . S
C1731 C1732 1.383 . S
C1731 H1739 0.929 . S
C1732 C1731 1.383 . S
C1732 C1733 1.377 . S
C1733 H1717 0.930 . S
C1733 C1732 1.377 . S
C1733 C1734 1.379 . S
C1734 H1718 0.931 . S
C1734 C1728 1.383 . S
C1734 C1733 1.379 . S
H1735 C1729 0.959 . S
H1736 C1729 0.961 . S
H1737 C1729 0.960 . S
H1738 C1730 0.930 . S
H1739 C1731 0.929 . S
H1740 C1748 0.929 1_554 S
H1741 C1750 0.930 . S
H1742 C1752 0.930 . S
H1743 C1755 0.929 . S
H1744 C1758 0.930 . S
H1745 C1760 0.960 . S
H1746 C1760 0.960 . S
H1747 C1760 0.960 . S
C1748 H1740 0.929 1_556 S
C1748 C1749 1.377 . S
C1748 C1750 1.384 . S
C1749 C1748 1.377 . S
C1749 C1755 1.390 . S
C1750 H1741 0.930 . S
C1750 C1748 1.384 . S
C1750 C1751 1.372 . S
C1751 C1750 1.372 . S
C1751 C1752 1.400 . S
C1751 C1756 1.490 . S
C1752 H1742 0.930 . S
C1752 C1751 1.400 . S
C1752 C1755 1.386 . S
H1753 C1769 0.930 . S
H1754 C1770 0.931 . S
C1755 H1743 0.929 . S
C1755 C1749 1.390 . S
C1755 C1752 1.386 . S
C1756 C1751 1.490 . S
C1756 C1758 1.395 . S
C1756 C1759 1.403 . S
H1757 C1763 0.930 . S
C1758 H1744 0.930 . S
C1758 C1756 1.395 . S
C1758 C1761 1.403 . S
C1759 C1756 1.403 . S
C1759 C1760 1.524 . S
C1759 C1763 1.400 . S
C1760 H1745 0.960 . S
C1760 H1746 0.960 . S
C1760 H1747 0.960 . S
C1760 C1759 1.524 . S
C1761 C1758 1.403 . S
C1761 C1762 1.392 . S
C1761 C1765 1.495 . S
C1762 C1761 1.392 . S
C1762 C1763 1.385 . S
C1762 C1764 1.478 . S
C1763 H1757 0.930 . S
C1763 C1759 1.400 . S
C1763 C1762 1.385 . S
C1764 C1762 1.478 . S
C1764 C1766 1.381 . S
C1764 C1770 1.383 . S
C1765 C1761 1.495 . S
C1765 H1771 0.959 . S
C1765 H1772 0.961 . S
C1765 H1773 0.960 . S
C1766 C1764 1.381 . S
C1766 C1767 1.394 1_655 S
C1766 H1774 0.930 . S
C1767 C1766 1.394 1_455 S
C1767 C1768 1.376 1_455 S
C1767 H1775 0.929 . S
C1768 C1767 1.376 1_655 S
C1768 C1769 1.431 . S
C1769 H1753 0.930 . S
C1769 C1768 1.431 . S
C1769 C1770 1.379 . S
C1770 H1754 0.931 . S
C1770 C1764 1.383 . S
C1770 C1769 1.379 . S
H1771 C1765 0.959 . S
H1772 C1765 0.961 . S
H1773 C1765 0.960 . S
H1774 C1766 0.930 . S
H1775 C1767 0.929 . S
H1776 C1784 0.929 . S
H1777 C1786 0.930 . S
H1778 C1788 0.930 . S
H1779 C1791 0.929 . S
H1780 C1794 0.930 . S
H1781 C1796 0.960 . S
H1782 C1796 0.960 . S
H1783 C1796 0.960 . S
C1784 H1776 0.929 . S
C1784 C1785 1.377 . S
C1784 C1786 1.384 . S
C1785 C1784 1.377 . S
C1785 C1791 1.390 . S
C1786 H1777 0.930 . S
C1786 C1784 1.384 . S
C1786 C1787 1.372 . S
C1787 C1786 1.372 . S
C1787 C1788 1.400 . S
C1787 C1792 1.490 . S
C1788 H1778 0.930 . S
C1788 C1787 1.400 . S
C1788 C1791 1.386 . S
H1789 C1805 0.930 . S
H1790 C1806 0.931 . S
C1791 H1779 0.929 . S
C1791 C1785 1.390 . S
C1791 C1788 1.386 . S
C1792 C1787 1.490 . S
C1792 C1794 1.395 . S
C1792 C1795 1.403 . S
H1793 C1799 0.930 . S
C1794 H1780 0.930 . S
C1794 C1792 1.395 . S
C1794 C1797 1.403 . S
C1795 C1792 1.403 . S
C1795 C1796 1.524 . S
C1795 C1799 1.400 . S
C1796 H1781 0.960 . S
C1796 H1782 0.960 . S
C1796 H1783 0.960 . S
C1796 C1795 1.524 . S
C1797 C1794 1.403 . S
C1797 C1798 1.392 . S
C1797 C1801 1.495 . S
C1798 C1797 1.392 . S
C1798 C1799 1.385 . S
C1798 C1800 1.478 . S
C1799 H1793 0.930 . S
C1799 C1795 1.400 . S
C1799 C1798 1.385 . S
C1800 C1798 1.478 . S
C1800 C1802 1.381 . S
C1800 C1806 1.383 . S
C1801 C1797 1.495 . S
C1801 H1807 0.959 . S
C1801 H1808 0.961 . S
C1801 H1809 0.960 . S
C1802 C1800 1.381 . S
C1802 C1803 1.394 . S
C1802 H1810 0.930 . S
C1803 C1802 1.394 . S
C1803 C1804 1.383 . S
C1803 H1811 0.929 . S
C1804 C1803 1.383 . S
C1804 C1805 1.377 . S
C1805 H1789 0.930 . S
C1805 C1804 1.377 . S
C1805 C1806 1.379 . S
C1806 H1790 0.931 . S
C1806 C1800 1.383 . S
C1806 C1805 1.379 . S
H1807 C1801 0.959 . S
H1808 C1801 0.961 . S
H1809 C1801 0.960 . S
H1810 C1802 0.930 . S
H1811 C1803 0.929 . S
H1812 C1820 0.929 . S
H1813 C1822 0.930 . S
H1814 C1824 0.930 . S
H1815 C1827 0.929 . S
H1816 C1830 0.930 . S
H1817 C1832 0.960 . S
H1818 C1832 0.960 . S
H1819 C1832 0.960 . S
C1820 H1812 0.929 . S
C1820 C1821 1.377 . S
C1820 C1822 1.384 . S
C1821 C1820 1.377 . S
C1821 C1827 1.390 . S
C1822 H1813 0.930 . S
C1822 C1820 1.384 . S
C1822 C1823 1.372 . S
C1823 C1822 1.372 . S
C1823 C1824 1.400 . S
C1823 C1828 1.490 . S
C1824 H1814 0.930 . S
C1824 C1823 1.400 . S
C1824 C1827 1.386 . S
H1825 C1841 0.930 . S
H1826 C1842 0.931 . S
C1827 H1815 0.929 . S
C1827 C1821 1.390 . S
C1827 C1824 1.386 . S
C1828 C1823 1.490 . S
C1828 C1830 1.395 . S
C1828 C1831 1.403 . S
H1829 C1835 0.930 . S
C1830 H1816 0.930 . S
C1830 C1828 1.395 . S
C1830 C1833 1.403 . S
C1831 C1828 1.403 . S
C1831 C1832 1.524 . S
C1831 C1835 1.400 . S
C1832 H1817 0.960 . S
C1832 H1818 0.960 . S
C1832 H1819 0.960 . S
C1832 C1831 1.524 . S
C1833 C1830 1.403 . S
C1833 C1834 1.392 . S
C1833 C1837 1.495 . S
C1834 C1833 1.392 . S
C1834 C1835 1.385 . S
C1834 C1836 1.478 . S
C1835 H1829 0.930 . S
C1835 C1831 1.400 . S
C1835 C1834 1.385 . S
C1836 C1834 1.478 . S
C1836 C1838 1.381 . S
C1836 C1842 1.383 . S
C1837 C1833 1.495 . S
C1837 H1843 0.959 . S
C1837 H1844 0.961 . S
C1837 H1845 0.960 . S
C1838 C1836 1.381 . S
C1838 C1839 1.394 . S
C1838 H1846 0.930 . S
C1839 C1838 1.394 . S
C1839 C1840 1.383 . S
C1839 H1847 0.929 . S
C1840 C1839 1.383 . S
C1840 C1841 1.377 . S
C1841 H1825 0.930 . S
C1841 C1840 1.377 . S
C1841 C1842 1.379 . S
C1842 H1826 0.931 . S
C1842 C1836 1.383 . S
C1842 C1841 1.379 . S
H1843 C1837 0.959 . S
H1844 C1837 0.961 . S
H1845 C1837 0.960 . S
H1846 C1838 0.930 . S
H1847 C1839 0.929 . S
H1848 C1856 0.929 . S
H1849 C1858 0.930 . S
H1850 C1860 0.930 . S
H1851 C1863 0.929 . S
H1852 C1866 0.930 . S
H1853 C1868 0.960 . S
H1854 C1868 0.960 . S
H1855 C1868 0.960 . S
C1856 H1848 0.929 . S
C1856 C1857 1.377 . S
C1856 C1858 1.384 . S
C1857 C1856 1.377 . S
C1857 C1863 1.390 . S
C1858 H1849 0.930 . S
C1858 C1856 1.384 . S
C1858 C1859 1.372 . S
C1859 C1858 1.372 . S
C1859 C1860 1.400 . S
C1859 C1864 1.490 . S
C1860 H1850 0.930 . S
C1860 C1859 1.400 . S
C1860 C1863 1.386 . S
H1861 C1877 0.930 . S
H1862 C1878 0.931 . S
C1863 H1851 0.929 . S
C1863 C1857 1.390 . S
C1863 C1860 1.386 . S
C1864 C1859 1.490 . S
C1864 C1866 1.395 . S
C1864 C1867 1.403 . S
H1865 C1871 0.930 . S
C1866 H1852 0.930 . S
C1866 C1864 1.395 . S
C1866 C1869 1.403 . S
C1867 C1864 1.403 . S
C1867 C1868 1.524 . S
C1867 C1871 1.400 . S
C1868 H1853 0.960 . S
C1868 H1854 0.960 . S
C1868 H1855 0.960 . S
C1868 C1867 1.524 . S
C1869 C1866 1.403 . S
C1869 C1870 1.392 . S
C1869 C1873 1.495 . S
C1870 C1869 1.392 . S
C1870 C1871 1.385 . S
C1870 C1872 1.478 . S
C1871 H1865 0.930 . S
C1871 C1867 1.400 . S
C1871 C1870 1.385 . S
C1872 C1870 1.478 . S
C1872 C1874 1.381 . S
C1872 C1878 1.383 . S
C1873 C1869 1.495 . S
C1873 H1879 0.959 . S
C1873 H1880 0.961 . S
C1873 H1881 0.960 . S
C1874 C1872 1.381 . S
C1874 C1875 1.394 . S
C1874 H1882 0.930 . S
C1875 C1874 1.394 . S
C1875 C1876 1.383 . S
C1875 H1883 0.929 . S
C1876 C1875 1.383 . S
C1876 C1877 1.377 . S
C1877 H1861 0.930 . S
C1877 C1876 1.377 . S
C1877 C1878 1.379 . S
C1878 H1862 0.931 . S
C1878 C1872 1.383 . S
C1878 C1877 1.379 . S
H1879 C1873 0.959 . S
H1880 C1873 0.961 . S
H1881 C1873 0.960 . S
H1882 C1874 0.930 . S
H1883 C1875 0.929 . S
H1884 C1892 0.929 . S
H1885 C1894 0.930 . S
H1886 C1896 0.930 . S
H1887 C1899 0.930 1_556 S
H1888 C1902 0.930 . S
H1889 C1904 0.960 . S
H1890 C1904 0.960 . S
H1891 C1904 0.960 . S
C1892 H1884 0.929 . S
C1892 C1893 1.377 . S
C1892 C1894 1.384 . S
C1893 C1892 1.377 . S
C1893 C1899 1.390 . S
C1894 H1885 0.930 . S
C1894 C1892 1.384 . S
C1894 C1895 1.372 . S
C1895 C1894 1.372 . S
C1895 C1896 1.400 . S
C1895 C1900 1.490 . S
C1896 H1886 0.930 . S
C1896 C1895 1.400 . S
C1896 C1899 1.385 . S
H1897 C1913 0.930 1_545 S
H1898 C1914 0.931 . S
C1899 H1887 0.930 1_554 S
C1899 C1893 1.390 . S
C1899 C1896 1.385 . S
C1900 C1895 1.490 . S
C1900 C1902 1.395 . S
C1900 C1903 1.403 . S
H1901 C1907 0.930 . S
C1902 H1888 0.930 . S
C1902 C1900 1.395 . S
C1902 C1905 1.403 . S
C1903 C1900 1.403 . S
C1903 C1904 1.524 . S
C1903 C1907 1.400 . S
C1904 H1889 0.960 . S
C1904 H1890 0.960 . S
C1904 H1891 0.960 . S
C1904 C1903 1.524 . S
C1905 C1902 1.403 . S
C1905 C1906 1.392 . S
C1905 C1909 1.495 . S
C1906 C1905 1.392 . S
C1906 C1907 1.385 . S
C1906 C1908 1.478 . S
C1907 H1901 0.930 . S
C1907 C1903 1.400 . S
C1907 C1906 1.385 . S
C1908 C1906 1.478 . S
C1908 C1910 1.381 . S
C1908 C1914 1.383 . S
C1909 C1905 1.495 . S
C1909 H1915 0.959 . S
C1909 H1916 0.961 . S
C1909 H1917 0.960 . S
C1910 C1908 1.381 . S
C1910 C1911 1.394 . S
C1910 H1918 0.930 . S
C1911 C1910 1.394 . S
C1911 C1912 1.383 . S
C1911 H1919 0.929 . S
C1912 C1911 1.383 . S
C1912 C1913 1.377 . S
C1913 H1897 0.930 1_565 S
C1913 C1912 1.377 . S
C1913 C1914 1.379 . S
C1914 H1898 0.931 . S
C1914 C1908 1.383 . S
C1914 C1913 1.379 . S
H1915 C1909 0.959 . S
H1916 C1909 0.961 . S
H1917 C1909 0.960 . S
H1918 C1910 0.930 . S
H1919 C1911 0.929 . S
H1920 C1928 0.929 . S
H1921 C1930 0.930 . S
H1922 C1932 0.930 . S
H1923 C1935 0.929 . S
H1924 C1938 0.930 . S
H1925 C1940 0.960 . S
H1926 C1940 0.960 . S
H1927 C1940 0.960 . S
C1928 H1920 0.929 . S
C1928 C1929 1.377 . S
C1928 C1930 1.384 . S
C1929 C1928 1.377 . S
C1929 C1935 1.390 . S
C1930 H1921 0.930 . S
C1930 C1928 1.384 . S
C1930 C1931 1.372 . S
C1931 C1930 1.372 . S
C1931 C1932 1.400 . S
C1931 C1936 1.490 . S
C1932 H1922 0.930 . S
C1932 C1931 1.400 . S
C1932 C1935 1.386 . S
H1933 C1949 0.930 . S
H1934 C1950 0.931 . S
C1935 H1923 0.929 . S
C1935 C1929 1.390 . S
C1935 C1932 1.386 . S
C1936 C1931 1.490 . S
C1936 C1938 1.395 . S
C1936 C1939 1.403 . S
H1937 C1943 0.930 . S
C1938 H1924 0.930 . S
C1938 C1936 1.395 . S
C1938 C1941 1.403 . S
C1939 C1936 1.403 . S
C1939 C1940 1.524 . S
C1939 C1943 1.400 . S
C1940 H1925 0.960 . S
C1940 H1926 0.960 . S
C1940 H1927 0.960 . S
C1940 C1939 1.524 . S
C1941 C1938 1.403 . S
C1941 C1942 1.392 . S
C1941 C1945 1.495 . S
C1942 C1941 1.392 . S
C1942 C1943 1.385 . S
C1942 C1944 1.478 . S
C1943 H1937 0.930 . S
C1943 C1939 1.400 . S
C1943 C1942 1.385 . S
C1944 C1942 1.478 . S
C1944 C1946 1.381 . S
C1944 C1950 1.383 . S
C1945 C1941 1.495 . S
C1945 H1951 0.959 . S
C1945 H1952 0.961 . S
C1945 H1953 0.960 . S
C1946 C1944 1.381 . S
C1946 C1947 1.394 . S
C1946 H1954 0.930 . S
C1947 C1946 1.394 . S
C1947 C1948 1.383 . S
C1947 H1955 0.929 . S
C1948 C1947 1.383 . S
C1948 C1949 1.377 . S
C1949 H1933 0.930 . S
C1949 C1948 1.377 . S
C1949 C1950 1.379 . S
C1950 H1934 0.931 . S
C1950 C1944 1.383 . S
C1950 C1949 1.379 . S
H1951 C1945 0.959 . S
H1952 C1945 0.961 . S
H1953 C1945 0.960 . S
H1954 C1946 0.930 . S
H1955 C1947 0.929 . S
H1956 C1964 0.929 . S
H1957 C1966 0.930 . S
H1958 C1968 0.930 . S
H1959 C1971 0.929 . S
H1960 C1974 0.930 . S
H1961 C1976 0.960 . S
H1962 C1976 0.960 . S
H1963 C1976 0.960 . S
C1964 H1956 0.929 . S
C1964 C1965 1.377 . S
C1964 C1966 1.384 . S
C1965 C1964 1.377 . S
C1965 C1971 1.390 . S
C1966 H1957 0.930 . S
C1966 C1964 1.384 . S
C1966 C1967 1.372 . S
C1967 C1966 1.372 . S
C1967 C1968 1.400 . S
C1967 C1972 1.490 . S
C1968 H1958 0.930 . S
C1968 C1967 1.400 . S
C1968 C1971 1.386 . S
H1969 C1985 0.930 . S
H1970 C1986 0.931 . S
C1971 H1959 0.929 . S
C1971 C1965 1.390 . S
C1971 C1968 1.386 . S
C1972 C1967 1.490 . S
C1972 C1974 1.395 . S
C1972 C1975 1.403 . S
H1973 C1979 0.930 . S
C1974 H1960 0.930 . S
C1974 C1972 1.395 . S
C1974 C1977 1.403 . S
C1975 C1972 1.403 . S
C1975 C1976 1.524 . S
C1975 C1979 1.400 . S
C1976 H1961 0.960 . S
C1976 H1962 0.960 . S
C1976 H1963 0.960 . S
C1976 C1975 1.524 . S
C1977 C1974 1.403 . S
C1977 C1978 1.392 . S
C1977 C1981 1.495 . S
C1978 C1977 1.392 . S
C1978 C1979 1.385 . S
C1978 C1980 1.478 . S
C1979 H1973 0.930 . S
C1979 C1975 1.400 . S
C1979 C1978 1.385 . S
C1980 C1978 1.478 . S
C1980 C1982 1.381 . S
C1980 C1986 1.383 . S
C1981 C1977 1.495 . S
C1981 H1987 0.959 . S
C1981 H1988 0.961 . S
C1981 H1989 0.960 . S
C1982 C1980 1.381 . S
C1982 C1983 1.394 . S
C1982 H1990 0.930 . S
C1983 C1982 1.394 . S
C1983 C1984 1.383 . S
C1983 H1991 0.929 . S
C1984 C1983 1.383 . S
C1984 C1985 1.377 . S
C1985 H1969 0.930 . S
C1985 C1984 1.377 . S
C1985 C1986 1.379 . S
C1986 H1970 0.931 . S
C1986 C1980 1.383 . S
C1986 C1985 1.379 . S
H1987 C1981 0.959 . S
H1988 C1981 0.961 . S
H1989 C1981 0.960 . S
H1990 C1982 0.930 . S
H1991 C1983 0.929 . S
H1992 C2000 0.929 . S
H1993 C2002 0.930 . S
H1994 C2004 0.930 . S
H1995 C2007 0.929 . S
H1996 C2010 0.930 . S
H1997 C2012 0.960 . S
H1998 C2012 0.960 . S
H1999 C2012 0.960 . S
C2000 H1992 0.929 . S
C2000 C2001 1.377 . S
C2000 C2002 1.384 . S
C2001 C2000 1.377 . S
C2001 C2007 1.390 . S
C2002 H1993 0.930 . S
C2002 C2000 1.384 . S
C2002 C2003 1.372 . S
C2003 C2002 1.372 . S
C2003 C2004 1.400 . S
C2003 C2008 1.490 . S
C2004 H1994 0.930 . S
C2004 C2003 1.400 . S
C2004 C2007 1.386 . S
H2005 C2021 0.930 . S
H2006 C2022 0.931 . S
C2007 H1995 0.929 . S
C2007 C2001 1.390 . S
C2007 C2004 1.386 . S
C2008 C2003 1.490 . S
C2008 C2010 1.395 . S
C2008 C2011 1.403 . S
H2009 C2015 0.930 . S
C2010 H1996 0.930 . S
C2010 C2008 1.395 . S
C2010 C2013 1.403 . S
C2011 C2008 1.403 . S
C2011 C2012 1.524 . S
C2011 C2015 1.400 . S
C2012 H1997 0.960 . S
C2012 H1998 0.960 . S
C2012 H1999 0.960 . S
C2012 C2011 1.524 . S
C2013 C2010 1.403 . S
C2013 C2014 1.392 . S
C2013 C2017 1.495 . S
C2014 C2013 1.392 . S
C2014 C2015 1.385 . S
C2014 C2016 1.478 . S
C2015 H2009 0.930 . S
C2015 C2011 1.400 . S
C2015 C2014 1.385 . S
C2016 C2014 1.478 . S
C2016 C2018 1.381 . S
C2016 C2022 1.383 . S
C2017 C2013 1.495 . S
C2017 H2023 0.959 . S
C2017 H2024 0.961 . S
C2017 H2025 0.960 . S
C2018 C2016 1.381 . S
C2018 C2019 1.394 . S
C2018 H2026 0.930 . S
C2019 C2018 1.394 . S
C2019 C2020 1.383 . S
C2019 H2027 0.929 . S
C2020 C2019 1.383 . S
C2020 C2021 1.377 . S
C2021 H2005 0.930 . S
C2021 C2020 1.377 . S
C2021 C2022 1.379 . S
C2022 H2006 0.931 . S
C2022 C2016 1.383 . S
C2022 C2021 1.379 . S
H2023 C2017 0.959 . S
H2024 C2017 0.961 . S
H2025 C2017 0.960 . S
H2026 C2018 0.930 . S
H2027 C2019 0.929 . S
H2028 C2036 0.929 1_554 S
H2029 C2038 0.930 . S
H2030 C2040 0.930 . S
H2031 C2043 0.929 . S
H2032 C2046 0.930 . S
H2033 C2048 0.960 . S
H2034 C2048 0.960 . S
H2035 C2048 0.960 . S
C2036 H2028 0.929 1_556 S
C2036 C2037 1.377 . S
C2036 C2038 1.384 . S
C2037 C2036 1.377 . S
C2037 C2043 1.390 . S
C2038 H2029 0.930 . S
C2038 C2036 1.384 . S
C2038 C2039 1.372 . S
C2039 C2038 1.372 . S
C2039 C2040 1.400 . S
C2039 C2044 1.490 . S
C2040 H2030 0.930 . S
C2040 C2039 1.400 . S
C2040 C2043 1.386 . S
H2041 C2057 0.930 . S
H2042 C2058 0.931 . S
C2043 H2031 0.929 . S
C2043 C2037 1.390 . S
C2043 C2040 1.386 . S
C2044 C2039 1.490 . S
C2044 C2046 1.395 . S
C2044 C2047 1.403 . S
H2045 C2051 0.930 . S
C2046 H2032 0.930 . S
C2046 C2044 1.395 . S
C2046 C2049 1.403 . S
C2047 C2044 1.403 . S
C2047 C2048 1.524 . S
C2047 C2051 1.400 . S
C2048 H2033 0.960 . S
C2048 H2034 0.960 . S
C2048 H2035 0.960 . S
C2048 C2047 1.524 . S
C2049 C2046 1.403 . S
C2049 C2050 1.392 . S
C2049 C2053 1.495 . S
C2050 C2049 1.392 . S
C2050 C2051 1.385 . S
C2050 C2052 1.478 . S
C2051 H2045 0.930 . S
C2051 C2047 1.400 . S
C2051 C2050 1.385 . S
C2052 C2050 1.478 . S
C2052 C2054 1.381 . S
C2052 C2058 1.383 . S
C2053 C2049 1.495 . S
C2053 H2059 0.959 . S
C2053 H2060 0.961 . S
C2053 H2061 0.960 . S
C2054 C2052 1.381 . S
C2054 C2055 1.394 . S
C2054 H2062 0.930 . S
C2055 C2054 1.394 . S
C2055 C2056 1.383 . S
C2055 H2063 0.929 1_565 S
C2056 C2055 1.383 . S
C2056 C2057 1.377 . S
C2057 H2041 0.930 . S
C2057 C2056 1.377 . S
C2057 C2058 1.379 . S
C2058 H2042 0.931 . S
C2058 C2052 1.383 . S
C2058 C2057 1.379 . S
H2059 C2053 0.959 . S
H2060 C2053 0.961 . S
H2061 C2053 0.960 . S
H2062 C2054 0.930 . S
H2063 C2055 0.929 1_545 S
H2064 C2072 0.929 . S
H2065 C2074 0.930 . S
H2066 C2076 0.930 . S
H2067 C2079 0.929 . S
H2068 C2082 0.930 . S
H2069 C2084 0.960 . S
H2070 C2084 0.960 . S
H2071 C2084 0.960 . S
C2072 H2064 0.929 . S
C2072 C2073 1.377 . S
C2072 C2074 1.384 . S
C2073 C2072 1.377 . S
C2073 C2079 1.390 . S
C2074 H2065 0.930 . S
C2074 C2072 1.384 . S
C2074 C2075 1.372 . S
C2075 C2074 1.372 . S
C2075 C2076 1.400 . S
C2075 C2080 1.490 . S
C2076 H2066 0.930 . S
C2076 C2075 1.400 . S
C2076 C2079 1.386 . S
H2077 C2093 0.930 . S
H2078 C2094 0.931 . S
C2079 H2067 0.929 . S
C2079 C2073 1.390 . S
C2079 C2076 1.386 . S
C2080 C2075 1.490 . S
C2080 C2082 1.395 . S
C2080 C2083 1.403 . S
H2081 C2087 0.930 . S
C2082 H2068 0.930 . S
C2082 C2080 1.395 . S
C2082 C2085 1.403 . S
C2083 C2080 1.403 . S
C2083 C2084 1.524 . S
C2083 C2087 1.400 . S
C2084 H2069 0.960 . S
C2084 H2070 0.960 . S
C2084 H2071 0.960 . S
C2084 C2083 1.524 . S
C2085 C2082 1.403 . S
C2085 C2086 1.392 . S
C2085 C2089 1.495 . S
C2086 C2085 1.392 . S
C2086 C2087 1.385 . S
C2086 C2088 1.478 . S
C2087 H2081 0.930 . S
C2087 C2083 1.400 . S
C2087 C2086 1.385 . S
C2088 C2086 1.478 . S
C2088 C2090 1.381 . S
C2088 C2094 1.383 . S
C2089 C2085 1.495 . S
C2089 H2095 0.959 . S
C2089 H2096 0.961 . S
C2089 H2097 0.960 . S
C2090 C2088 1.381 . S
C2090 C2091 1.394 . S
C2090 H2098 0.930 . S
C2091 C2090 1.394 . S
C2091 C2092 1.383 . S
C2091 H2099 0.929 . S
C2092 C2091 1.383 . S
C2092 C2093 1.377 . S
C2093 H2077 0.930 . S
C2093 C2092 1.377 . S
C2093 C2094 1.379 . S
C2094 H2078 0.931 . S
C2094 C2088 1.383 . S
C2094 C2093 1.379 . S
H2095 C2089 0.959 . S
H2096 C2089 0.961 . S
H2097 C2089 0.960 . S
H2098 C2090 0.930 . S
H2099 C2091 0.929 . S
H2100 C2108 0.929 . S
H2101 C2110 0.930 . S
H2102 C2112 0.930 . S
H2103 C2115 0.929 . S
H2104 C2118 0.930 . S
H2105 C2120 0.960 . S
H2106 C2120 0.960 . S
H2107 C2120 0.960 . S
C2108 H2100 0.929 . S
C2108 C2109 1.377 . S
C2108 C2110 1.384 . S
C2109 C2108 1.377 . S
C2109 C2115 1.390 . S
C2110 H2101 0.930 . S
C2110 C2108 1.384 . S
C2110 C2111 1.372 . S
C2111 C2110 1.372 . S
C2111 C2112 1.400 . S
C2111 C2116 1.490 . S
C2112 H2102 0.930 . S
C2112 C2111 1.400 . S
C2112 C2115 1.386 . S
H2113 C2129 0.930 . S
H2114 C2130 0.931 . S
C2115 H2103 0.929 . S
C2115 C2109 1.390 . S
C2115 C2112 1.386 . S
C2116 C2111 1.490 . S
C2116 C2118 1.395 . S
C2116 C2119 1.403 . S
H2117 C2123 0.930 . S
C2118 H2104 0.930 . S
C2118 C2116 1.395 . S
C2118 C2121 1.403 . S
C2119 C2116 1.403 . S
C2119 C2120 1.524 . S
C2119 C2123 1.400 . S
C2120 H2105 0.960 . S
C2120 H2106 0.960 . S
C2120 H2107 0.960 . S
C2120 C2119 1.524 . S
C2121 C2118 1.403 . S
C2121 C2122 1.392 . S
C2121 C2125 1.495 . S
C2122 C2121 1.392 . S
C2122 C2123 1.385 . S
C2122 C2124 1.478 . S
C2123 H2117 0.930 . S
C2123 C2119 1.400 . S
C2123 C2122 1.385 . S
C2124 C2122 1.478 . S
C2124 C2126 1.381 . S
C2124 C2130 1.383 . S
C2125 C2121 1.495 . S
C2125 H2131 0.959 . S
C2125 H2132 0.961 . S
C2125 H2133 0.960 . S
C2126 C2124 1.381 . S
C2126 C2127 1.394 . S
C2126 H2134 0.930 . S
C2127 C2126 1.394 . S
C2127 C2128 1.383 . S
C2127 H2135 0.929 . S
C2128 C2127 1.383 . S
C2128 C2129 1.377 . S
C2129 H2113 0.930 . S
C2129 C2128 1.377 . S
C2129 C2130 1.379 . S
C2130 H2114 0.931 . S
C2130 C2124 1.383 . S
C2130 C2129 1.379 . S
H2131 C2125 0.959 . S
H2132 C2125 0.961 . S
H2133 C2125 0.960 . S
H2134 C2126 0.930 . S
H2135 C2127 0.929 . S
H2136 C2144 0.964 . S
H2137 C2146 0.930 . S
H2138 C2148 0.930 . S
H2139 C2151 0.929 . S
H2140 C2154 0.930 . S
H2141 C2156 0.960 . S
H2142 C2156 0.960 . S
H2143 C2156 0.960 . S
C2144 H2136 0.964 . S
C2144 C2145 1.377 . S
C2144 C2146 1.384 . S
C2145 C2144 1.377 . S
C2145 C2151 1.390 . S
C2146 H2137 0.930 . S
C2146 C2144 1.384 . S
C2146 C2147 1.372 . S
C2147 C2146 1.372 . S
C2147 C2148 1.400 . S
C2147 C2152 1.490 . S
C2148 H2138 0.930 . S
C2148 C2147 1.400 . S
C2148 C2151 1.386 . S
H2149 C2165 0.930 . S
H2150 C2166 0.931 . S
C2151 H2139 0.929 . S
C2151 C2145 1.390 . S
C2151 C2148 1.386 . S
C2152 C2147 1.490 . S
C2152 C2154 1.395 . S
C2152 C2155 1.403 . S
H2153 C2159 0.930 . S
C2154 H2140 0.930 . S
C2154 C2152 1.395 . S
C2154 C2157 1.403 . S
C2155 C2152 1.403 . S
C2155 C2156 1.524 . S
C2155 C2159 1.400 . S
C2156 H2141 0.960 . S
C2156 H2142 0.960 . S
C2156 H2143 0.960 . S
C2156 C2155 1.524 . S
C2157 C2154 1.403 . S
C2157 C2158 1.392 . S
C2157 C2161 1.495 . S
C2158 C2157 1.392 . S
C2158 C2159 1.385 . S
C2158 C2160 1.478 . S
C2159 H2153 0.930 . S
C2159 C2155 1.400 . S
C2159 C2158 1.385 . S
C2160 C2158 1.478 . S
C2160 C2162 1.381 . S
C2160 C2166 1.383 . S
C2161 C2157 1.495 . S
C2161 H2167 0.959 . S
C2161 H2168 0.961 . S
C2161 H2169 0.960 . S
C2162 C2160 1.381 . S
C2162 C2163 1.394 . S
C2162 H2170 0.930 . S
C2163 C2162 1.394 . S
C2163 C2164 1.383 . S
C2163 H2171 0.929 . S
C2164 C2163 1.383 . S
C2164 C2165 1.377 . S
C2165 H2149 0.930 . S
C2165 C2164 1.377 . S
C2165 C2166 1.379 . S
C2166 H2150 0.931 . S
C2166 C2160 1.383 . S
C2166 C2165 1.379 . S
H2167 C2161 0.959 . S
H2168 C2161 0.961 . S
H2169 C2161 0.960 . S
H2170 C2162 0.930 . S
H2171 C2163 0.929 . S
H2172 C2180 0.929 . S
H2173 C2182 0.930 . S
H2174 C2184 0.930 . S
H2175 C2187 0.929 . S
H2176 C2190 0.930 . S
H2177 C2192 0.960 . S
H2178 C2192 0.960 . S
H2179 C2192 0.960 . S
C2180 H2172 0.929 . S
C2180 C2181 1.377 . S
C2180 C2182 1.384 . S
C2181 C2180 1.377 . S
C2181 C2187 1.390 . S
C2182 H2173 0.930 . S
C2182 C2180 1.384 . S
C2182 C2183 1.372 . S
C2183 C2182 1.372 . S
C2183 C2184 1.400 . S
C2183 C2188 1.490 . S
C2184 H2174 0.930 . S
C2184 C2183 1.400 . S
C2184 C2187 1.386 . S
H2185 C2201 0.930 . S
H2186 C2202 0.931 . S
C2187 H2175 0.929 . S
C2187 C2181 1.390 . S
C2187 C2184 1.386 . S
C2188 C2183 1.490 . S
C2188 C2190 1.395 . S
C2188 C2191 1.403 . S
H2189 C2195 0.930 . S
C2190 H2176 0.930 . S
C2190 C2188 1.395 . S
C2190 C2193 1.403 . S
C2191 C2188 1.403 . S
C2191 C2192 1.524 . S
C2191 C2195 1.400 . S
C2192 H2177 0.960 . S
C2192 H2178 0.960 . S
C2192 H2179 0.960 . S
C2192 C2191 1.524 . S
C2193 C2190 1.403 . S
C2193 C2194 1.392 . S
C2193 C2197 1.495 . S
C2194 C2193 1.392 . S
C2194 C2195 1.385 . S
C2194 C2196 1.478 . S
C2195 H2189 0.930 . S
C2195 C2191 1.400 . S
C2195 C2194 1.385 . S
C2196 C2194 1.478 . S
C2196 C2198 1.381 . S
C2196 C2202 1.383 . S
C2197 C2193 1.495 . S
C2197 H2203 0.959 . S
C2197 H2204 0.961 . S
C2197 H2205 0.960 . S
C2198 C2196 1.381 . S
C2198 C2199 1.394 . S
C2198 H2206 0.930 . S
C2199 C2198 1.394 . S
C2199 C2200 1.383 . S
C2199 H2207 0.929 . S
C2200 C2199 1.383 . S
C2200 C2201 1.377 . S
C2201 H2185 0.930 . S
C2201 C2200 1.377 . S
C2201 C2202 1.379 . S
C2202 H2186 0.931 . S
C2202 C2196 1.383 . S
C2202 C2201 1.379 . S
H2203 C2197 0.959 . S
H2204 C2197 0.961 . S
H2205 C2197 0.960 . S
H2206 C2198 0.930 . S
H2207 C2199 0.929 . S
H2208 C2216 0.929 . S
H2209 C2218 0.930 . S
H2210 C2220 0.930 . S
H2211 C2223 0.929 1_545 S
H2212 C2226 0.930 . S
H2213 C2228 0.960 . S
H2214 C2228 0.960 . S
H2215 C2228 0.960 . S
C2216 H2208 0.929 . S
C2216 C2217 1.377 . S
C2216 C2218 1.384 . S
C2217 C2216 1.377 . S
C2217 C2223 1.390 . S
C2218 H2209 0.930 . S
C2218 C2216 1.384 . S
C2218 C2219 1.372 . S
C2219 C2218 1.372 . S
C2219 C2220 1.400 . S
C2219 C2224 1.490 . S
C2220 H2210 0.930 . S
C2220 C2219 1.400 . S
C2220 C2223 1.386 . S
H2221 C2237 0.930 . S
H2222 C2238 0.931 . S
C2223 H2211 0.929 1_565 S
C2223 C2217 1.390 . S
C2223 C2220 1.386 . S
C2224 C2219 1.490 . S
C2224 C2226 1.395 . S
C2224 C2227 1.403 . S
H2225 C2231 0.930 . S
C2226 H2212 0.930 . S
C2226 C2224 1.395 . S
C2226 C2229 1.403 . S
C2227 C2224 1.403 . S
C2227 C2228 1.524 . S
C2227 C2231 1.400 . S
C2228 H2213 0.960 . S
C2228 H2214 0.960 . S
C2228 H2215 0.960 . S
C2228 C2227 1.524 . S
C2229 C2226 1.403 . S
C2229 C2230 1.392 . S
C2229 C2233 1.495 . S
C2230 C2229 1.392 . S
C2230 C2231 1.385 . S
C2230 C2232 1.478 . S
C2231 H2225 0.930 . S
C2231 C2227 1.400 . S
C2231 C2230 1.385 . S
C2232 C2230 1.478 . S
C2232 C2234 1.381 . S
C2232 C2238 1.383 . S
C2233 C2229 1.495 . S
C2233 H2239 0.959 . S
C2233 H2240 0.961 . S
C2233 H2241 0.960 . S
C2234 C2232 1.381 . S
C2234 C2235 1.394 . S
C2234 H2242 0.930 . S
C2235 C2234 1.394 . S
C2235 C2236 1.383 . S
C2235 H2243 0.929 . S
C2236 C2235 1.383 . S
C2236 C2237 1.377 . S
C2237 H2221 0.930 . S
C2237 C2236 1.377 . S
C2237 C2238 1.379 . S
C2238 H2222 0.931 . S
C2238 C2232 1.383 . S
C2238 C2237 1.379 . S
H2239 C2233 0.959 . S
H2240 C2233 0.961 . S
H2241 C2233 0.960 . S
H2242 C2234 0.930 . S
H2243 C2235 0.929 . S
H2244 C2252 0.929 . S
H2245 C2254 0.930 . S
H2246 C2256 0.930 . S
H2247 C2259 0.929 . S
H2248 C2262 0.930 . S
H2249 C2264 0.960 . S
H2250 C2264 0.960 . S
H2251 C2264 0.960 . S
C2252 H2244 0.929 . S
C2252 C2253 1.377 . S
C2252 C2254 1.384 . S
C2253 C2252 1.377 . S
C2253 C2259 1.390 . S
C2254 H2245 0.930 . S
C2254 C2252 1.384 . S
C2254 C2255 1.372 . S
C2255 C2254 1.372 . S
C2255 C2256 1.400 . S
C2255 C2260 1.490 . S
C2256 H2246 0.930 . S
C2256 C2255 1.400 . S
C2256 C2259 1.386 . S
H2257 C2273 0.930 . S
H2258 C2274 0.931 . S
C2259 H2247 0.929 . S
C2259 C2253 1.390 . S
C2259 C2256 1.386 . S
C2260 C2255 1.490 . S
C2260 C2262 1.395 . S
C2260 C2263 1.403 . S
H2261 C2267 0.930 . S
C2262 H2248 0.930 . S
C2262 C2260 1.395 . S
C2262 C2265 1.403 . S
C2263 C2260 1.403 . S
C2263 C2264 1.524 . S
C2263 C2267 1.400 . S
C2264 H2249 0.960 . S
C2264 H2250 0.960 . S
C2264 H2251 0.960 . S
C2264 C2263 1.524 . S
C2265 C2262 1.403 . S
C2265 C2266 1.392 . S
C2265 C2269 1.495 . S
C2266 C2265 1.392 . S
C2266 C2267 1.385 . S
C2266 C2268 1.478 . S
C2267 H2261 0.930 . S
C2267 C2263 1.400 . S
C2267 C2266 1.385 . S
C2268 C2266 1.478 . S
C2268 C2270 1.381 . S
C2268 C2274 1.383 . S
C2269 C2265 1.495 . S
C2269 H2275 0.959 . S
C2269 H2276 0.961 . S
C2269 H2277 0.960 . S
C2270 C2268 1.381 . S
C2270 C2271 1.394 . S
C2270 H2278 0.930 . S
C2271 C2270 1.394 . S
C2271 C2272 1.383 . S
C2271 H2279 0.929 . S
C2272 C2271 1.383 . S
C2272 C2273 1.377 . S
C2273 H2257 0.930 . S
C2273 C2272 1.377 . S
C2273 C2274 1.379 . S
C2274 H2258 0.931 . S
C2274 C2268 1.383 . S
C2274 C2273 1.379 . S
H2275 C2269 0.959 . S
H2276 C2269 0.961 . S
H2277 C2269 0.960 . S
H2278 C2270 0.930 . S
H2279 C2271 0.929 . S
H2280 C2288 0.929 . S
H2281 C2290 0.930 . S
H2282 C2292 0.930 . S
H2283 C2295 0.929 . S
H2284 C2298 0.930 . S
H2285 C2300 0.960 . S
H2286 C2300 0.960 . S
H2287 C2300 0.960 . S
C2288 H2280 0.929 . S
C2288 C2289 1.377 . S
C2288 C2290 1.384 . S
C2289 C2288 1.377 . S
C2289 C2295 1.390 . S
C2290 H2281 0.930 . S
C2290 C2288 1.384 . S
C2290 C2291 1.372 . S
C2291 C2290 1.372 . S
C2291 C2292 1.400 . S
C2291 C2296 1.490 . S
C2292 H2282 0.930 . S
C2292 C2291 1.400 . S
C2292 C2295 1.386 . S
H2293 C2309 0.930 . S
H2294 C2310 0.931 . S
C2295 H2283 0.929 . S
C2295 C2289 1.390 . S
C2295 C2292 1.386 . S
C2296 C2291 1.490 . S
C2296 C2298 1.395 . S
C2296 C2299 1.403 . S
H2297 C2303 0.930 . S
C2298 H2284 0.930 . S
C2298 C2296 1.395 . S
C2298 C2301 1.403 . S
C2299 C2296 1.403 . S
C2299 C2300 1.524 . S
C2299 C2303 1.400 . S
C2300 H2285 0.960 . S
C2300 H2286 0.960 . S
C2300 H2287 0.960 . S
C2300 C2299 1.524 . S
C2301 C2298 1.403 . S
C2301 C2302 1.392 . S
C2301 C2305 1.495 . S
C2302 C2301 1.392 . S
C2302 C2303 1.385 . S
C2302 C2304 1.478 . S
C2303 H2297 0.930 . S
C2303 C2299 1.400 . S
C2303 C2302 1.385 . S
C2304 C2302 1.478 . S
C2304 C2306 1.381 . S
C2304 C2310 1.383 . S
C2305 C2301 1.495 . S
C2305 H2311 0.959 . S
C2305 H2312 0.961 . S
C2305 H2313 0.960 . S
C2306 C2304 1.381 . S
C2306 C2307 1.394 . S
C2306 H2314 0.930 . S
C2307 C2306 1.394 . S
C2307 C2308 1.383 . S
C2307 H2315 0.929 . S
C2308 C2307 1.383 . S
C2308 C2309 1.377 . S
C2309 H2293 0.930 . S
C2309 C2308 1.377 . S
C2309 C2310 1.379 . S
C2310 H2294 0.931 . S
C2310 C2304 1.383 . S
C2310 C2309 1.379 . S
H2311 C2305 0.959 . S
H2312 C2305 0.961 . S
H2313 C2305 0.960 . S
H2314 C2306 0.930 . S
H2315 C2307 0.929 . S
H2316 C2324 0.929 . S
H2317 C2326 0.930 . S
H2318 C2328 0.930 . S
H2319 C2331 0.929 . S
H2320 C2334 0.930 . S
H2321 C2336 0.960 . S
H2322 C2336 0.960 . S
H2323 C2336 0.960 . S
C2324 H2316 0.929 . S
C2324 C2325 1.377 . S
C2324 C2326 1.384 . S
C2325 C2324 1.377 . S
C2325 C2331 1.390 . S
C2326 H2317 0.930 . S
C2326 C2324 1.384 . S
C2326 C2327 1.372 . S
C2327 C2326 1.372 . S
C2327 C2328 1.400 . S
C2327 C2332 1.490 . S
C2328 H2318 0.930 . S
C2328 C2327 1.400 . S
C2328 C2331 1.386 . S
H2329 C2345 0.930 . S
H2330 C2346 0.931 . S
C2331 H2319 0.929 . S
C2331 C2325 1.390 . S
C2331 C2328 1.386 . S
C2332 C2327 1.490 . S
C2332 C2334 1.395 . S
C2332 C2335 1.403 . S
H2333 C2339 0.930 . S
C2334 H2320 0.930 . S
C2334 C2332 1.395 . S
C2334 C2337 1.403 . S
C2335 C2332 1.403 . S
C2335 C2336 1.524 . S
C2335 C2339 1.400 . S
C2336 H2321 0.960 . S
C2336 H2322 0.960 . S
C2336 H2323 0.960 . S
C2336 C2335 1.524 . S
C2337 C2334 1.403 . S
C2337 C2338 1.392 . S
C2337 C2341 1.495 . S
C2338 C2337 1.392 . S
C2338 C2339 1.385 . S
C2338 C2340 1.478 . S
C2339 H2333 0.930 . S
C2339 C2335 1.400 . S
C2339 C2338 1.385 . S
C2340 C2338 1.478 . S
C2340 C2342 1.381 . S
C2340 C2346 1.383 . S
C2341 C2337 1.495 . S
C2341 H2347 0.959 . S
C2341 H2348 0.961 . S
C2341 H2349 0.960 . S
C2342 C2340 1.381 . S
C2342 C2343 1.394 . S
C2342 H2350 0.930 . S
C2343 C2342 1.394 . S
C2343 C2344 1.383 . S
C2343 H2351 0.929 . S
C2344 C2343 1.383 . S
C2344 C2345 1.377 . S
C2345 H2329 0.930 . S
C2345 C2344 1.377 . S
C2345 C2346 1.379 . S
C2346 H2330 0.931 . S
C2346 C2340 1.383 . S
C2346 C2345 1.379 . S
H2347 C2341 0.959 . S
H2348 C2341 0.961 . S
H2349 C2341 0.960 . S
H2350 C2342 0.930 . S
H2351 C2343 0.929 . S
H2352 C2360 0.929 . S
H2353 C2362 0.930 . S
H2354 C2364 0.930 . S
H2355 C2367 0.929 . S
H2356 C2370 0.930 . S
H2357 C2372 0.960 . S
H2358 C2372 0.960 . S
H2359 C2372 0.960 . S
C2360 H2352 0.929 . S
C2360 C2361 1.377 . S
C2360 C2362 1.384 . S
C2361 C2360 1.377 . S
C2361 C2367 1.390 . S
C2362 H2353 0.930 . S
C2362 C2360 1.384 . S
C2362 C2363 1.372 . S
C2363 C2362 1.372 . S
C2363 C2364 1.400 . S
C2363 C2368 1.490 . S
C2364 H2354 0.930 . S
C2364 C2363 1.400 . S
C2364 C2367 1.386 . S
H2365 C2381 0.930 . S
H2366 C2382 0.931 . S
C2367 H2355 0.929 . S
C2367 C2361 1.390 . S
C2367 C2364 1.386 . S
C2368 C2363 1.490 . S
C2368 C2370 1.395 . S
C2368 C2371 1.403 . S
H2369 C2375 0.930 . S
C2370 H2356 0.930 . S
C2370 C2368 1.395 . S
C2370 C2373 1.403 . S
C2371 C2368 1.403 . S
C2371 C2372 1.524 . S
C2371 C2375 1.400 . S
C2372 H2357 0.960 . S
C2372 H2358 0.960 . S
C2372 H2359 0.960 . S
C2372 C2371 1.524 . S
C2373 C2370 1.403 . S
C2373 C2374 1.392 . S
C2373 C2377 1.495 . S
C2374 C2373 1.392 . S
C2374 C2375 1.385 . S
C2374 C2376 1.478 . S
C2375 H2369 0.930 . S
C2375 C2371 1.400 . S
C2375 C2374 1.385 . S
C2376 C2374 1.478 . S
C2376 C2378 1.381 . S
C2376 C2382 1.383 . S
C2377 C2373 1.495 . S
C2377 H2383 0.959 . S
C2377 H2384 0.961 . S
C2377 H2385 0.960 . S
C2378 C2376 1.381 . S
C2378 C2379 1.394 . S
C2378 H2386 0.930 . S
C2379 C2378 1.394 . S
C2379 C2380 1.383 . S
C2379 H2387 0.929 . S
C2380 C2379 1.383 . S
C2380 C2381 1.377 . S
C2381 H2365 0.930 . S
C2381 C2380 1.377 . S
C2381 C2382 1.379 . S
C2382 H2366 0.931 . S
C2382 C2376 1.383 . S
C2382 C2381 1.379 . S
H2383 C2377 0.959 . S
H2384 C2377 0.961 . S
H2385 C2377 0.960 . S
H2386 C2378 0.930 . S
H2387 C2379 0.929 . S
H2388 C2396 0.929 . S
H2389 C2398 0.930 . S
H2390 C2400 0.930 . S
H2391 C2403 0.929 . S
H2392 C2406 0.930 . S
H2393 C2408 0.960 . S
H2394 C2408 0.960 . S
H2395 C2408 0.960 . S
C2396 H2388 0.929 . S
C2396 C2397 1.377 . S
C2396 C2398 1.384 . S
C2397 C2396 1.377 . S
C2397 C2403 1.390 . S
C2398 H2389 0.930 . S
C2398 C2396 1.384 . S
C2398 C2399 1.372 . S
C2399 C2398 1.372 . S
C2399 C2400 1.400 . S
C2399 C2404 1.490 . S
C2400 H2390 0.930 . S
C2400 C2399 1.400 . S
C2400 C2403 1.386 . S
H2401 C2417 0.930 1_556 S
H2402 C2418 0.931 . S
C2403 H2391 0.929 . S
C2403 C2397 1.390 . S
C2403 C2400 1.386 . S
C2404 C2399 1.490 . S
C2404 C2406 1.395 . S
C2404 C2407 1.403 . S
H2405 C2411 0.930 . S
C2406 H2392 0.930 . S
C2406 C2404 1.395 . S
C2406 C2409 1.403 . S
C2407 C2404 1.403 . S
C2407 C2408 1.524 . S
C2407 C2411 1.400 . S
C2408 H2393 0.960 . S
C2408 H2394 0.960 . S
C2408 H2395 0.960 . S
C2408 C2407 1.524 . S
C2409 C2406 1.403 . S
C2409 C2410 1.392 . S
C2409 C2413 1.495 . S
C2410 C2409 1.392 . S
C2410 C2411 1.385 . S
C2410 C2412 1.478 . S
C2411 H2405 0.930 . S
C2411 C2407 1.400 . S
C2411 C2410 1.385 . S
C2412 C2410 1.478 . S
C2412 C2414 1.381 . S
C2412 C2418 1.383 . S
C2413 C2409 1.495 . S
C2413 H2419 0.959 . S
C2413 H2420 0.961 . S
C2413 H2421 0.960 . S
C2414 C2412 1.381 . S
C2414 C2415 1.394 . S
C2414 H2422 0.930 . S
C2415 C2414 1.394 . S
C2415 C2416 1.383 . S
C2415 H2423 0.929 . S
C2416 C2415 1.383 . S
C2416 C2417 1.377 . S
C2417 H2401 0.930 1_554 S
C2417 C2416 1.377 . S
C2417 C2418 1.379 . S
C2418 H2402 0.931 . S
C2418 C2412 1.383 . S
C2418 C2417 1.379 . S
H2419 C2413 0.959 . S
H2420 C2413 0.961 . S
H2421 C2413 0.960 . S
H2422 C2414 0.930 . S
H2423 C2415 0.929 . S
H2424 C2432 0.929 . S
H2425 C2434 0.930 . S
H2426 C2436 0.930 . S
H2427 C2439 0.929 . S
H2428 C2442 0.930 . S
H2429 C2444 0.960 . S
H2430 C2444 0.960 . S
H2431 C2444 0.960 . S
C2432 H2424 0.929 . S
C2432 C2433 1.377 . S
C2432 C2434 1.384 . S
C2433 C2432 1.377 . S
C2433 C2439 1.390 . S
C2434 H2425 0.930 . S
C2434 C2432 1.384 . S
C2434 C2435 1.372 . S
C2435 C2434 1.372 . S
C2435 C2436 1.400 . S
C2435 C2440 1.490 . S
C2436 H2426 0.930 . S
C2436 C2435 1.400 . S
C2436 C2439 1.386 . S
H2437 C2453 0.930 . S
H2438 C2454 0.931 . S
C2439 H2427 0.929 . S
C2439 C2433 1.390 . S
C2439 C2436 1.386 . S
C2440 C2435 1.490 . S
C2440 C2442 1.395 . S
C2440 C2443 1.403 . S
H2441 C2447 0.930 . S
C2442 H2428 0.930 . S
C2442 C2440 1.395 . S
C2442 C2445 1.403 . S
C2443 C2440 1.403 . S
C2443 C2444 1.524 . S
C2443 C2447 1.400 . S
C2444 H2429 0.960 . S
C2444 H2430 0.960 . S
C2444 H2431 0.960 . S
C2444 C2443 1.524 . S
C2445 C2442 1.403 . S
C2445 C2446 1.392 . S
C2445 C2449 1.495 . S
C2446 C2445 1.392 . S
C2446 C2447 1.385 . S
C2446 C2448 1.478 . S
C2447 H2441 0.930 . S
C2447 C2443 1.400 . S
C2447 C2446 1.385 . S
C2448 C2446 1.478 . S
C2448 C2450 1.381 . S
C2448 C2454 1.383 . S
C2449 C2445 1.495 . S
C2449 H2455 0.959 . S
C2449 H2456 0.961 . S
C2449 H2457 0.960 . S
C2450 C2448 1.381 . S
C2450 C2451 1.394 . S
C2450 H2458 0.930 . S
C2451 C2450 1.394 . S
C2451 C2452 1.383 . S
C2451 H2459 0.929 . S
C2452 C2451 1.383 . S
C2452 C2453 1.377 . S
C2453 H2437 0.930 . S
C2453 C2452 1.377 . S
C2453 C2454 1.379 . S
C2454 H2438 0.931 . S
C2454 C2448 1.383 . S
C2454 C2453 1.379 . S
H2455 C2449 0.959 . S
H2456 C2449 0.961 . S
H2457 C2449 0.960 . S
H2458 C2450 0.930 . S
H2459 C2451 0.929 . S
H2460 C2468 0.929 . S
H2461 C2470 0.930 . S
H2462 C2472 0.930 . S
H2463 C2475 0.929 . S
H2464 C2478 0.930 . S
H2465 C2480 0.960 . S
H2466 C2480 0.960 . S
H2467 C2480 0.960 . S
C2468 H2460 0.929 . S
C2468 C2469 1.377 . S
C2468 C2470 1.384 . S
C2469 C2468 1.377 . S
C2469 C2475 1.390 1_455 S
C2470 H2461 0.930 . S
C2470 C2468 1.384 . S
C2470 C2471 1.372 . S
C2471 C2470 1.372 . S
C2471 C2472 1.400 . S
C2471 C2476 1.490 . S
C2472 H2462 0.930 . S
C2472 C2471 1.400 . S
C2472 C2475 1.386 1_455 S
H2473 C2489 0.930 . S
H2474 C2490 0.931 . S
C2475 H2463 0.929 . S
C2475 C2469 1.390 1_655 S
C2475 C2472 1.386 1_655 S
C2476 C2471 1.490 . S
C2476 C2478 1.395 . S
C2476 C2479 1.403 . S
H2477 C2483 0.930 . S
C2478 H2464 0.930 . S
C2478 C2476 1.395 . S
C2478 C2481 1.403 . S
C2479 C2476 1.403 . S
C2479 C2480 1.524 . S
C2479 C2483 1.400 . S
C2480 H2465 0.960 . S
C2480 H2466 0.960 . S
C2480 H2467 0.960 . S
C2480 C2479 1.524 . S
C2481 C2478 1.403 . S
C2481 C2482 1.392 . S
C2481 C2485 1.495 . S
C2482 C2481 1.392 . S
C2482 C2483 1.385 . S
C2482 C2484 1.478 . S
C2483 H2477 0.930 . S
C2483 C2479 1.400 . S
C2483 C2482 1.385 . S
C2484 C2482 1.478 . S
C2484 C2486 1.381 . S
C2484 C2490 1.383 . S
C2485 C2481 1.495 . S
C2485 H2491 0.959 . S
C2485 H2492 0.961 . S
C2485 H2493 0.960 . S
C2486 C2484 1.381 . S
C2486 C2487 1.394 . S
C2486 H2494 0.930 . S
C2487 C2486 1.394 . S
C2487 C2488 1.383 . S
C2487 H2495 0.929 . S
C2488 C2487 1.383 . S
C2488 C2489 1.377 . S
C2489 H2473 0.930 . S
C2489 C2488 1.377 . S
C2489 C2490 1.379 . S
C2490 H2474 0.931 . S
C2490 C2484 1.383 . S
C2490 C2489 1.379 . S
H2491 C2485 0.959 . S
H2492 C2485 0.961 . S
H2493 C2485 0.960 . S
H2494 C2486 0.930 . S
H2495 C2487 0.929 . S
H2496 C2504 0.929 . S
H2497 C2506 0.930 . S
H2498 C2508 0.930 . S
H2499 C2511 0.929 . S
H2500 C2514 0.930 . S
H2501 C2516 0.960 . S
H2502 C2516 0.960 . S
H2503 C2516 0.960 . S
C2504 H2496 0.929 . S
C2504 C2505 1.377 . S
C2504 C2506 1.384 . S
C2505 C2504 1.377 . S
C2505 C2511 1.390 . S
C2506 H2497 0.930 . S
C2506 C2504 1.384 . S
C2506 C2507 1.372 . S
C2507 C2506 1.372 . S
C2507 C2508 1.400 . S
C2507 C2512 1.490 . S
C2508 H2498 0.930 . S
C2508 C2507 1.400 . S
C2508 C2511 1.386 . S
H2509 C2525 0.930 . S
H2510 C2526 0.931 . S
C2511 H2499 0.929 . S
C2511 C2505 1.390 . S
C2511 C2508 1.386 . S
C2512 C2507 1.490 . S
C2512 C2514 1.395 . S
C2512 C2515 1.403 . S
H2513 C2519 0.930 . S
C2514 H2500 0.930 . S
C2514 C2512 1.395 . S
C2514 C2517 1.403 . S
C2515 C2512 1.403 . S
C2515 C2516 1.524 . S
C2515 C2519 1.400 . S
C2516 H2501 0.960 . S
C2516 H2502 0.960 . S
C2516 H2503 0.960 . S
C2516 C2515 1.524 . S
C2517 C2514 1.403 . S
C2517 C2518 1.392 . S
C2517 C2521 1.495 . S
C2518 C2517 1.392 . S
C2518 C2519 1.385 . S
C2518 C2520 1.478 . S
C2519 H2513 0.930 . S
C2519 C2515 1.400 . S
C2519 C2518 1.385 . S
C2520 C2518 1.478 . S
C2520 C2522 1.381 . S
C2520 C2526 1.383 . S
C2521 C2517 1.495 . S
C2521 H2527 0.959 . S
C2521 H2528 0.961 . S
C2521 H2529 0.960 . S
C2522 C2520 1.381 . S
C2522 C2523 1.394 . S
C2522 H2530 0.930 . S
C2523 C2522 1.394 . S
C2523 C2524 1.383 . S
C2523 H2531 0.929 . S
C2524 C2523 1.383 . S
C2524 C2525 1.377 . S
C2525 H2509 0.930 . S
C2525 C2524 1.377 . S
C2525 C2526 1.379 . S
C2526 H2510 0.931 . S
C2526 C2520 1.383 . S
C2526 C2525 1.379 . S
H2527 C2521 0.959 . S
H2528 C2521 0.961 . S
H2529 C2521 0.960 . S
H2530 C2522 0.930 . S
H2531 C2523 0.929 . S
H2532 C2540 0.929 . S
H2533 C2542 0.930 . S
H2534 C2544 0.930 . S
H2535 C2547 0.929 . S
H2536 C2550 0.930 . S
H2537 C2552 0.960 . S
H2538 C2552 0.960 . S
H2539 C2552 0.960 . S
C2540 H2532 0.929 . S
C2540 C2541 1.377 . S
C2540 C2542 1.384 . S
C2541 C2540 1.377 . S
C2541 C2547 1.390 . S
C2542 H2533 0.930 . S
C2542 C2540 1.384 . S
C2542 C2543 1.372 . S
C2543 C2542 1.372 . S
C2543 C2544 1.400 . S
C2543 C2548 1.490 . S
C2544 H2534 0.930 . S
C2544 C2543 1.400 . S
C2544 C2547 1.386 . S
H2545 C2561 0.930 . S
H2546 C2562 0.931 . S
C2547 H2535 0.929 . S
C2547 C2541 1.390 . S
C2547 C2544 1.386 . S
C2548 C2543 1.490 . S
C2548 C2550 1.395 . S
C2548 C2551 1.403 . S
H2549 C2555 0.930 . S
C2550 H2536 0.930 . S
C2550 C2548 1.395 . S
C2550 C2553 1.403 . S
C2551 C2548 1.403 . S
C2551 C2552 1.524 . S
C2551 C2555 1.400 . S
C2552 H2537 0.960 . S
C2552 H2538 0.960 . S
C2552 H2539 0.960 . S
C2552 C2551 1.524 . S
C2553 C2550 1.403 . S
C2553 C2554 1.392 . S
C2553 C2557 1.495 . S
C2554 C2553 1.392 . S
C2554 C2555 1.385 . S
C2554 C2556 1.478 . S
C2555 H2549 0.930 . S
C2555 C2551 1.400 . S
C2555 C2554 1.385 . S
C2556 C2554 1.478 . S
C2556 C2558 1.381 . S
C2556 C2562 1.383 . S
C2557 C2553 1.495 . S
C2557 H2563 0.959 . S
C2557 H2564 0.961 . S
C2557 H2565 0.960 . S
C2558 C2556 1.381 . S
C2558 C2559 1.394 . S
C2558 H2566 0.930 . S
C2559 C2558 1.394 . S
C2559 C2560 1.393 . S
C2559 H2567 0.929 1_455 S
C2560 C2559 1.393 . S
C2560 C2561 1.405 . S
C2561 H2545 0.930 . S
C2561 C2560 1.405 . S
C2561 C2562 1.379 . S
C2562 H2546 0.931 . S
C2562 C2556 1.383 . S
C2562 C2561 1.379 . S
H2563 C2557 0.959 . S
H2564 C2557 0.961 . S
H2565 C2557 0.960 . S
H2566 C2558 0.930 . S
H2567 C2559 0.929 1_655 S
H2568 C2576 0.929 . S
H2569 C2578 0.930 . S
H2570 C2580 0.930 . S
H2571 C2583 0.929 . S
H2572 C2586 0.930 . S
H2573 C2588 0.960 . S
H2574 C2588 0.960 . S
H2575 C2588 0.960 . S
C2576 H2568 0.929 . S
C2576 C2577 1.377 . S
C2576 C2578 1.384 . S
C2577 C2576 1.377 . S
C2577 C2583 1.390 . S
C2578 H2569 0.930 . S
C2578 C2576 1.384 . S
C2578 C2579 1.372 . S
C2579 C2578 1.372 . S
C2579 C2580 1.400 . S
C2579 C2584 1.490 . S
C2580 H2570 0.930 . S
C2580 C2579 1.400 . S
C2580 C2583 1.386 . S
H2581 C2597 0.930 . S
H2582 C2598 0.931 . S
C2583 H2571 0.929 . S
C2583 C2577 1.390 . S
C2583 C2580 1.386 . S
C2584 C2579 1.490 . S
C2584 C2586 1.395 . S
C2584 C2587 1.403 . S
H2585 C2591 0.930 . S
C2586 H2572 0.930 . S
C2586 C2584 1.395 . S
C2586 C2589 1.403 . S
C2587 C2584 1.403 . S
C2587 C2588 1.524 . S
C2587 C2591 1.400 . S
C2588 H2573 0.960 . S
C2588 H2574 0.960 . S
C2588 H2575 0.960 . S
C2588 C2587 1.524 . S
C2589 C2586 1.403 . S
C2589 C2590 1.392 . S
C2589 C2593 1.495 . S
C2590 C2589 1.392 . S
C2590 C2591 1.385 . S
C2590 C2592 1.478 . S
C2591 H2585 0.930 . S
C2591 C2587 1.400 . S
C2591 C2590 1.385 . S
C2592 C2590 1.478 . S
C2592 C2594 1.381 . S
C2592 C2598 1.383 . S
C2593 C2589 1.495 . S
C2593 H2599 0.959 . S
C2593 H2600 0.961 . S
C2593 H2601 0.960 . S
C2594 C2592 1.381 . S
C2594 C2595 1.394 . S
C2594 H2602 0.930 . S
C2595 C2594 1.394 . S
C2595 C2596 1.383 . S
C2595 H2603 0.929 . S
C2596 C2595 1.383 . S
C2596 C2597 1.377 . S
C2597 H2581 0.930 . S
C2597 C2596 1.377 . S
C2597 C2598 1.379 . S
C2598 H2582 0.931 . S
C2598 C2592 1.383 . S
C2598 C2597 1.379 . S
H2599 C2593 0.959 . S
H2600 C2593 0.961 . S
H2601 C2593 0.960 . S
H2602 C2594 0.930 . S
H2603 C2595 0.929 . S
H2604 C2612 0.929 . S
H2605 C2614 0.930 . S
H2606 C2616 0.930 . S
H2607 C2619 0.929 . S
H2608 C2622 0.930 . S
H2609 C2624 0.960 . S
H2610 C2624 0.960 . S
H2611 C2624 0.960 . S
C2612 H2604 0.929 . S
C2612 C2613 1.377 . S
C2612 C2614 1.384 . S
C2613 C2612 1.377 . S
C2613 C2619 1.390 . S
C2614 H2605 0.930 . S
C2614 C2612 1.384 . S
C2614 C2615 1.372 . S
C2615 C2614 1.372 . S
C2615 C2616 1.400 . S
C2615 C2620 1.490 . S
C2616 H2606 0.930 . S
C2616 C2615 1.400 . S
C2616 C2619 1.386 . S
H2617 C2633 0.930 . S
H2618 C2634 0.931 . S
C2619 H2607 0.929 . S
C2619 C2613 1.390 . S
C2619 C2616 1.386 . S
C2620 C2615 1.490 . S
C2620 C2622 1.395 . S
C2620 C2623 1.403 . S
H2621 C2627 0.930 . S
C2622 H2608 0.930 . S
C2622 C2620 1.395 . S
C2622 C2625 1.403 . S
C2623 C2620 1.403 . S
C2623 C2624 1.524 . S
C2623 C2627 1.400 . S
C2624 H2609 0.960 . S
C2624 H2610 0.960 . S
C2624 H2611 0.960 . S
C2624 C2623 1.524 . S
C2625 C2622 1.403 . S
C2625 C2626 1.392 . S
C2625 C2629 1.495 . S
C2626 C2625 1.392 . S
C2626 C2627 1.385 . S
C2626 C2628 1.478 . S
C2627 H2621 0.930 . S
C2627 C2623 1.400 . S
C2627 C2626 1.385 . S
C2628 C2626 1.478 . S
C2628 C2630 1.381 . S
C2628 C2634 1.383 . S
C2629 C2625 1.495 . S
C2629 H2635 0.959 . S
C2629 H2636 0.961 . S
C2629 H2637 0.960 . S
C2630 C2628 1.381 . S
C2630 C2631 1.394 . S
C2630 H2638 0.930 . S
C2631 C2630 1.394 . S
C2631 C2632 1.383 . S
C2631 H2639 0.929 . S
C2632 C2631 1.383 . S
C2632 C2633 1.377 . S
C2633 H2617 0.930 . S
C2633 C2632 1.377 . S
C2633 C2634 1.379 . S
C2634 H2618 0.931 . S
C2634 C2628 1.383 . S
C2634 C2633 1.379 . S
H2635 C2629 0.959 . S
H2636 C2629 0.961 . S
H2637 C2629 0.960 . S
H2638 C2630 0.930 . S
H2639 C2631 0.929 . S
H2640 C2648 0.929 . S
H2641 C2650 0.930 . S
H2642 C2652 0.930 . S
H2643 C2655 0.929 . S
H2644 C2658 0.930 . S
H2645 C2660 0.960 . S
H2646 C2660 0.960 . S
H2647 C2660 0.960 . S
C2648 H2640 0.929 . S
C2648 C2649 1.377 . S
C2648 C2650 1.384 . S
C2649 C2648 1.377 . S
C2649 C2655 1.390 . S
C2650 H2641 0.930 . S
C2650 C2648 1.384 . S
C2650 C2651 1.372 . S
C2651 C2650 1.372 . S
C2651 C2652 1.400 . S
C2651 C2656 1.490 . S
C2652 H2642 0.930 . S
C2652 C2651 1.400 . S
C2652 C2655 1.386 . S
H2653 C2669 0.930 . S
H2654 C2670 0.931 . S
C2655 H2643 0.929 . S
C2655 C2649 1.390 . S
C2655 C2652 1.386 . S
C2656 C2651 1.490 . S
C2656 C2658 1.395 . S
C2656 C2659 1.403 . S
H2657 C2663 0.930 . S
C2658 H2644 0.930 . S
C2658 C2656 1.395 . S
C2658 C2661 1.403 . S
C2659 C2656 1.403 . S
C2659 C2660 1.524 . S
C2659 C2663 1.400 . S
C2660 H2645 0.960 . S
C2660 H2646 0.960 . S
C2660 H2647 0.960 . S
C2660 C2659 1.524 . S
C2661 C2658 1.403 . S
C2661 C2662 1.392 . S
C2661 C2665 1.495 . S
C2662 C2661 1.392 . S
C2662 C2663 1.385 . S
C2662 C2664 1.478 . S
C2663 H2657 0.930 . S
C2663 C2659 1.400 . S
C2663 C2662 1.385 . S
C2664 C2662 1.478 . S
C2664 C2666 1.381 . S
C2664 C2670 1.383 . S
C2665 C2661 1.495 . S
C2665 H2671 0.959 . S
C2665 H2672 0.961 . S
C2665 H2673 0.960 . S
C2666 C2664 1.381 . S
C2666 C2667 1.394 . S
C2666 H2674 0.930 . S
C2667 C2666 1.394 . S
C2667 C2668 1.383 . S
C2667 H2675 0.929 . S
C2668 C2667 1.383 . S
C2668 C2669 1.377 . S
C2669 H2653 0.930 . S
C2669 C2668 1.377 . S
C2669 C2670 1.379 . S
C2670 H2654 0.931 . S
C2670 C2664 1.383 . S
C2670 C2669 1.379 . S
H2671 C2665 0.959 . S
H2672 C2665 0.961 . S
H2673 C2665 0.960 . S
H2674 C2666 0.930 . S
H2675 C2667 0.929 . S
H2676 C2684 0.929 . S
H2677 C2686 0.930 . S
H2678 C2688 0.930 . S
H2679 C2691 0.929 . S
H2680 C2694 0.930 . S
H2681 C2696 0.960 . S
H2682 C2696 0.960 . S
H2683 C2696 0.960 . S
C2684 H2676 0.929 . S
C2684 C2685 1.377 . S
C2684 C2686 1.384 . S
C2685 C2684 1.377 . S
C2685 C2691 1.390 . S
C2686 H2677 0.930 . S
C2686 C2684 1.384 . S
C2686 C2687 1.372 . S
C2687 C2686 1.372 . S
C2687 C2688 1.400 . S
C2687 C2692 1.490 . S
C2688 H2678 0.930 . S
C2688 C2687 1.400 . S
C2688 C2691 1.386 . S
H2689 C2705 0.930 1_556 S
H2690 C2706 0.931 . S
C2691 H2679 0.929 . S
C2691 C2685 1.390 . S
C2691 C2688 1.386 . S
C2692 C2687 1.490 . S
C2692 C2694 1.395 . S
C2692 C2695 1.403 . S
H2693 C2699 0.930 . S
C2694 H2680 0.930 . S
C2694 C2692 1.395 . S
C2694 C2697 1.403 . S
C2695 C2692 1.403 . S
C2695 C2696 1.524 . S
C2695 C2699 1.400 . S
C2696 H2681 0.960 . S
C2696 H2682 0.960 . S
C2696 H2683 0.960 . S
C2696 C2695 1.524 . S
C2697 C2694 1.403 . S
C2697 C2698 1.392 . S
C2697 C2701 1.495 . S
C2698 C2697 1.392 . S
C2698 C2699 1.385 . S
C2698 C2700 1.478 . S
C2699 H2693 0.930 . S
C2699 C2695 1.400 . S
C2699 C2698 1.385 . S
C2700 C2698 1.478 . S
C2700 C2702 1.381 . S
C2700 C2706 1.383 . S
C2701 C2697 1.495 . S
C2701 H2707 0.959 . S
C2701 H2708 0.961 . S
C2701 H2709 0.960 . S
C2702 C2700 1.381 . S
C2702 C2703 1.394 . S
C2702 H2710 0.930 . S
C2703 C2702 1.394 . S
C2703 C2704 1.425 . S
C2703 H2711 0.929 . S
C2704 C2703 1.425 . S
C2704 C2705 1.388 . S
C2705 H2689 0.930 1_554 S
C2705 C2704 1.388 . S
C2705 C2706 1.379 . S
C2706 H2690 0.931 . S
C2706 C2700 1.383 . S
C2706 C2705 1.379 . S
H2707 C2701 0.959 . S
H2708 C2701 0.961 . S
H2709 C2701 0.960 . S
H2710 C2702 0.930 . S
H2711 C2703 0.929 . S
H2712 C2720 0.929 . S
H2713 C2722 0.930 . S
H2714 C2724 0.930 . S
H2715 C2727 0.929 . S
H2716 C2730 0.930 . S
H2717 C2732 0.960 . S
H2718 C2732 0.960 . S
H2719 C2732 0.960 . S
C2720 H2712 0.929 . S
C2720 C2721 1.377 . S
C2720 C2722 1.384 . S
C2721 C2720 1.377 . S
C2721 C2727 1.390 . S
C2722 H2713 0.930 . S
C2722 C2720 1.384 . S
C2722 C2723 1.372 . S
C2723 C2722 1.372 . S
C2723 C2724 1.400 . S
C2723 C2728 1.490 . S
C2724 H2714 0.930 . S
C2724 C2723 1.400 . S
C2724 C2727 1.386 . S
H2725 C2741 0.930 . S
H2726 C2742 0.931 . S
C2727 H2715 0.929 . S
C2727 C2721 1.390 . S
C2727 C2724 1.386 . S
C2728 C2723 1.490 . S
C2728 C2730 1.395 . S
C2728 C2731 1.403 . S
H2729 C2735 0.930 . S
C2730 H2716 0.930 . S
C2730 C2728 1.395 . S
C2730 C2733 1.403 . S
C2731 C2728 1.403 . S
C2731 C2732 1.524 . S
C2731 C2735 1.400 . S
C2732 H2717 0.960 . S
C2732 H2718 0.960 . S
C2732 H2719 0.960 . S
C2732 C2731 1.524 . S
C2733 C2730 1.403 . S
C2733 C2734 1.392 . S
C2733 C2737 1.495 . S
C2734 C2733 1.392 . S
C2734 C2735 1.385 . S
C2734 C2736 1.478 . S
C2735 H2729 0.930 . S
C2735 C2731 1.400 . S
C2735 C2734 1.385 . S
C2736 C2734 1.478 . S
C2736 C2738 1.381 . S
C2736 C2742 1.383 . S
C2737 C2733 1.495 . S
C2737 H2743 0.959 . S
C2737 H2744 0.961 . S
C2737 H2745 0.960 . S
C2738 C2736 1.381 . S
C2738 C2739 1.394 . S
C2738 H2746 0.930 . S
C2739 C2738 1.394 . S
C2739 C2740 1.383 . S
C2739 H2747 0.929 . S
C2740 C2739 1.383 . S
C2740 C2741 1.377 . S
C2741 H2725 0.930 . S
C2741 C2740 1.377 . S
C2741 C2742 1.379 . S
C2742 H2726 0.931 . S
C2742 C2736 1.383 . S
C2742 C2741 1.379 . S
H2743 C2737 0.959 . S
H2744 C2737 0.961 . S
H2745 C2737 0.960 . S
H2746 C2738 0.930 . S
H2747 C2739 0.929 . S
H2748 C2756 0.929 . S
H2749 C2758 0.930 . S
H2750 C2760 0.930 . S
H2751 C2763 0.929 . S
H2752 C2766 0.930 . S
H2753 C2768 0.960 . S
H2754 C2768 0.960 . S
H2755 C2768 0.960 . S
C2756 H2748 0.929 . S
C2756 C2757 1.377 . S
C2756 C2758 1.384 . S
C2757 C2756 1.377 . S
C2757 C2763 1.390 . S
C2758 H2749 0.930 . S
C2758 C2756 1.384 . S
C2758 C2759 1.372 . S
C2759 C2758 1.372 . S
C2759 C2760 1.400 . S
C2759 C2764 1.490 . S
C2760 H2750 0.930 . S
C2760 C2759 1.400 . S
C2760 C2763 1.386 . S
H2761 C2777 0.930 . S
H2762 C2778 0.931 . S
C2763 H2751 0.929 . S
C2763 C2757 1.390 . S
C2763 C2760 1.386 . S
C2764 C2759 1.490 . S
C2764 C2766 1.395 . S
C2764 C2767 1.403 . S
H2765 C2771 0.930 . S
C2766 H2752 0.930 . S
C2766 C2764 1.395 . S
C2766 C2769 1.403 . S
C2767 C2764 1.403 . S
C2767 C2768 1.524 . S
C2767 C2771 1.400 . S
C2768 H2753 0.960 . S
C2768 H2754 0.960 . S
C2768 H2755 0.960 . S
C2768 C2767 1.524 . S
C2769 C2766 1.403 . S
C2769 C2770 1.392 . S
C2769 C2773 1.495 . S
C2770 C2769 1.392 . S
C2770 C2771 1.385 . S
C2770 C2772 1.478 . S
C2771 H2765 0.930 . S
C2771 C2767 1.400 . S
C2771 C2770 1.385 . S
C2772 C2770 1.478 . S
C2772 C2774 1.381 . S
C2772 C2778 1.383 . S
C2773 C2769 1.495 . S
C2773 H2779 0.959 . S
C2773 H2780 0.961 . S
C2773 H2781 0.960 . S
C2774 C2772 1.381 . S
C2774 C2775 1.394 . S
C2774 H2782 0.930 . S
C2775 C2774 1.394 . S
C2775 C2776 1.383 . S
C2775 H2783 0.929 . S
C2776 C2775 1.383 . S
C2776 C2777 1.377 . S
C2777 H2761 0.930 . S
C2777 C2776 1.377 . S
C2777 C2778 1.379 . S
C2778 H2762 0.931 . S
C2778 C2772 1.383 . S
C2778 C2777 1.379 . S
H2779 C2773 0.959 . S
H2780 C2773 0.961 . S
H2781 C2773 0.960 . S
H2782 C2774 0.930 . S
H2783 C2775 0.929 . S
H2784 C2792 0.929 . S
H2785 C2794 0.930 . S
H2786 C2796 0.930 . S
H2787 C2799 0.929 . S
H2788 C2802 0.930 . S
H2789 C2804 0.960 . S
H2790 C2804 0.960 . S
H2791 C2804 0.960 . S
C2792 H2784 0.929 . S
C2792 C2793 1.377 . S
C2792 C2794 1.384 . S
C2793 C2792 1.377 . S
C2793 C2799 1.390 . S
C2794 H2785 0.930 . S
C2794 C2792 1.384 . S
C2794 C2795 1.372 . S
C2795 C2794 1.372 . S
C2795 C2796 1.400 . S
C2795 C2800 1.490 . S
C2796 H2786 0.930 . S
C2796 C2795 1.400 . S
C2796 C2799 1.386 . S
H2797 C2813 0.930 . S
H2798 C2814 0.931 . S
C2799 H2787 0.929 . S
C2799 C2793 1.390 . S
C2799 C2796 1.386 . S
C2800 C2795 1.490 . S
C2800 C2802 1.395 . S
C2800 C2803 1.403 . S
H2801 C2807 0.930 . S
C2802 H2788 0.930 . S
C2802 C2800 1.395 . S
C2802 C2805 1.403 . S
C2803 C2800 1.403 . S
C2803 C2804 1.524 . S
C2803 C2807 1.400 . S
C2804 H2789 0.960 . S
C2804 H2790 0.960 . S
C2804 H2791 0.960 . S
C2804 C2803 1.524 . S
C2805 C2802 1.403 . S
C2805 C2806 1.392 . S
C2805 C2809 1.495 . S
C2806 C2805 1.392 . S
C2806 C2807 1.385 . S
C2806 C2808 1.478 . S
C2807 H2801 0.930 . S
C2807 C2803 1.400 . S
C2807 C2806 1.385 . S
C2808 C2806 1.478 . S
C2808 C2810 1.381 . S
C2808 C2814 1.383 . S
C2809 C2805 1.495 . S
C2809 H2815 0.959 . S
C2809 H2816 0.961 . S
C2809 H2817 0.960 . S
C2810 C2808 1.381 . S
C2810 C2811 1.394 . S
C2810 H2818 0.930 . S
C2811 C2810 1.394 . S
C2811 C2812 1.383 . S
C2811 H2819 0.929 . S
C2812 C2811 1.383 . S
C2812 C2813 1.377 . S
C2813 H2797 0.930 . S
C2813 C2812 1.377 . S
C2813 C2814 1.379 . S
C2814 H2798 0.931 . S
C2814 C2808 1.383 . S
C2814 C2813 1.379 . S
H2815 C2809 0.959 . S
H2816 C2809 0.961 . S
H2817 C2809 0.960 . S
H2818 C2810 0.930 . S
H2819 C2811 0.929 . S
H2820 C2828 0.929 . S
H2821 C2830 0.930 . S
H2822 C2832 0.930 . S
H2823 C2835 0.929 . S
H2824 C2838 0.930 . S
H2825 C2840 0.960 . S
H2826 C2840 0.960 . S
H2827 C2840 0.960 . S
C2828 H2820 0.929 . S
C2828 C2829 1.377 . S
C2828 C2830 1.384 . S
C2829 C2828 1.377 . S
C2829 C2835 1.390 . S
C2830 H2821 0.930 . S
C2830 C2828 1.384 . S
C2830 C2831 1.372 . S
C2831 C2830 1.372 . S
C2831 C2832 1.400 . S
C2831 C2836 1.490 . S
C2832 H2822 0.930 . S
C2832 C2831 1.400 . S
C2832 C2835 1.386 . S
H2833 C2849 0.930 . S
H2834 C2850 0.931 . S
C2835 H2823 0.929 . S
C2835 C2829 1.390 . S
C2835 C2832 1.386 . S
C2836 C2831 1.490 . S
C2836 C2838 1.395 . S
C2836 C2839 1.403 . S
H2837 C2843 0.930 . S
C2838 H2824 0.930 . S
C2838 C2836 1.395 . S
C2838 C2841 1.403 . S
C2839 C2836 1.403 . S
C2839 C2840 1.524 . S
C2839 C2843 1.400 . S
C2840 H2825 0.960 . S
C2840 H2826 0.960 . S
C2840 H2827 0.960 . S
C2840 C2839 1.524 . S
C2841 C2838 1.403 . S
C2841 C2842 1.392 . S
C2841 C2845 1.495 . S
C2842 C2841 1.392 . S
C2842 C2843 1.385 . S
C2842 C2844 1.478 . S
C2843 H2837 0.930 . S
C2843 C2839 1.400 . S
C2843 C2842 1.385 . S
C2844 C2842 1.478 . S
C2844 C2846 1.381 . S
C2844 C2850 1.383 . S
C2845 C2841 1.495 . S
C2845 H2851 0.959 . S
C2845 H2852 0.961 . S
C2845 H2853 0.960 . S
C2846 C2844 1.381 . S
C2846 C2847 1.394 . S
C2846 H2854 0.930 . S
C2847 C2846 1.394 . S
C2847 C2848 1.403 . S
C2847 H2855 0.929 . S
C2848 C2847 1.403 . S
C2848 C2849 1.398 . S
C2849 H2833 0.930 . S
C2849 C2848 1.398 . S
C2849 C2850 1.379 . S
C2850 H2834 0.931 . S
C2850 C2844 1.383 . S
C2850 C2849 1.379 . S
H2851 C2845 0.959 . S
H2852 C2845 0.961 . S
H2853 C2845 0.960 . S
H2854 C2846 0.930 . S
H2855 C2847 0.929 . S
H2856 C2864 0.929 . S
H2857 C2866 0.930 . S
H2858 C2868 0.930 . S
H2859 C2871 0.929 . S
H2860 C2874 0.930 . S
H2861 C2876 0.960 . S
H2862 C2876 0.960 . S
H2863 C2876 0.960 . S
C2864 H2856 0.929 . S
C2864 C2865 1.377 . S
C2864 C2866 1.384 . S
C2865 C2864 1.377 . S
C2865 C2871 1.390 . S
C2866 H2857 0.930 . S
C2866 C2864 1.384 . S
C2866 C2867 1.372 . S
C2867 C2866 1.372 . S
C2867 C2868 1.400 . S
C2867 C2872 1.490 . S
C2868 H2858 0.930 . S
C2868 C2867 1.400 . S
C2868 C2871 1.386 . S
H2869 C2885 0.930 . S
H2870 C2886 0.931 . S
C2871 H2859 0.929 . S
C2871 C2865 1.390 . S
C2871 C2868 1.386 . S
C2872 C2867 1.490 . S
C2872 C2874 1.395 . S
C2872 C2875 1.403 . S
H2873 C2879 0.930 . S
C2874 H2860 0.930 . S
C2874 C2872 1.395 . S
C2874 C2877 1.403 . S
C2875 C2872 1.403 . S
C2875 C2876 1.524 . S
C2875 C2879 1.400 . S
C2876 H2861 0.960 . S
C2876 H2862 0.960 . S
C2876 H2863 0.960 . S
C2876 C2875 1.524 . S
C2877 C2874 1.403 . S
C2877 C2878 1.392 . S
C2877 C2881 1.495 . S
C2878 C2877 1.392 . S
C2878 C2879 1.385 . S
C2878 C2880 1.478 . S
C2879 H2873 0.930 . S
C2879 C2875 1.400 . S
C2879 C2878 1.385 . S
C2880 C2878 1.478 . S
C2880 C2882 1.381 . S
C2880 C2886 1.383 . S
C2881 C2877 1.495 . S
C2881 H2887 0.959 . S
C2881 H2888 0.961 . S
C2881 H2889 0.960 . S
C2882 C2880 1.381 . S
C2882 C2883 1.394 . S
C2882 H2890 0.930 . S
C2883 C2882 1.394 . S
C2883 C2884 1.383 . S
C2883 H2891 0.929 . S
C2884 C2883 1.383 . S
C2884 C2885 1.377 . S
C2885 H2869 0.930 . S
C2885 C2884 1.377 . S
C2885 C2886 1.379 . S
C2886 H2870 0.931 . S
C2886 C2880 1.383 . S
C2886 C2885 1.379 . S
H2887 C2881 0.959 . S
H2888 C2881 0.961 . S
H2889 C2881 0.960 . S
H2890 C2882 0.930 . S
H2891 C2883 0.929 . S
H2892 C2900 0.929 . S
H2893 C2902 0.930 . S
H2894 C2904 0.930 . S
H2895 C2907 0.929 . S
H2896 C2910 0.930 . S
H2897 C2912 0.960 . S
H2898 C2912 0.960 . S
H2899 C2912 0.960 . S
C2900 H2892 0.929 . S
C2900 C2901 1.377 . S
C2900 C2902 1.384 . S
C2901 C2900 1.377 . S
C2901 C2907 1.390 . S
C2902 H2893 0.930 . S
C2902 C2900 1.384 . S
C2902 C2903 1.372 . S
C2903 C2902 1.372 . S
C2903 C2904 1.400 . S
C2903 C2908 1.490 . S
C2904 H2894 0.930 . S
C2904 C2903 1.400 . S
C2904 C2907 1.386 . S
H2905 C2921 0.930 . S
H2906 C2922 0.931 . S
C2907 H2895 0.929 . S
C2907 C2901 1.390 . S
C2907 C2904 1.386 . S
C2908 C2903 1.490 . S
C2908 C2910 1.395 . S
C2908 C2911 1.403 . S
H2909 C2915 0.930 . S
C2910 H2896 0.930 . S
C2910 C2908 1.395 . S
C2910 C2913 1.403 . S
C2911 C2908 1.403 . S
C2911 C2912 1.524 . S
C2911 C2915 1.400 . S
C2912 H2897 0.960 . S
C2912 H2898 0.960 . S
C2912 H2899 0.960 . S
C2912 C2911 1.524 . S
C2913 C2910 1.403 . S
C2913 C2914 1.392 . S
C2913 C2917 1.495 . S
C2914 C2913 1.392 . S
C2914 C2915 1.385 . S
C2914 C2916 1.478 . S
C2915 H2909 0.930 . S
C2915 C2911 1.400 . S
C2915 C2914 1.385 . S
C2916 C2914 1.478 . S
C2916 C2918 1.381 . S
C2916 C2922 1.383 . S
C2917 C2913 1.495 . S
C2917 H2923 0.959 . S
C2917 H2924 0.961 . S
C2917 H2925 0.960 . S
C2918 C2916 1.381 . S
C2918 C2919 1.394 . S
C2918 H2926 0.930 . S
C2919 C2918 1.394 . S
C2919 C2920 1.383 . S
C2919 H2927 0.929 . S
C2920 C2919 1.383 . S
C2920 C2921 1.377 . S
C2921 H2905 0.930 . S
C2921 C2920 1.377 . S
C2921 C2922 1.379 . S
C2922 H2906 0.931 . S
C2922 C2916 1.383 . S
C2922 C2921 1.379 . S
H2923 C2917 0.959 . S
H2924 C2917 0.961 . S
H2925 C2917 0.960 . S
H2926 C2918 0.930 . S
H2927 C2919 0.929 . S
H2928 C2936 0.929 . S
H2929 C2938 0.930 . S
H2930 C2940 0.930 . S
H2931 C2943 0.929 . S
H2932 C2946 0.930 . S
H2933 C2948 0.960 . S
H2934 C2948 0.960 . S
H2935 C2948 0.960 . S
C2936 H2928 0.929 . S
C2936 C2937 1.377 . S
C2936 C2938 1.384 . S
C2937 C2936 1.377 . S
C2937 C2943 1.390 . S
C2938 H2929 0.930 . S
C2938 C2936 1.384 . S
C2938 C2939 1.372 . S
C2939 C2938 1.372 . S
C2939 C2940 1.400 . S
C2939 C2944 1.490 . S
C2940 H2930 0.930 . S
C2940 C2939 1.400 . S
C2940 C2943 1.386 . S
H2941 C2957 0.930 . S
H2942 C2958 0.931 . S
C2943 H2931 0.929 . S
C2943 C2937 1.390 . S
C2943 C2940 1.386 . S
C2944 C2939 1.490 . S
C2944 C2946 1.395 . S
C2944 C2947 1.403 . S
H2945 C2951 0.930 . S
C2946 H2932 0.930 . S
C2946 C2944 1.395 . S
C2946 C2949 1.403 . S
C2947 C2944 1.403 . S
C2947 C2948 1.524 . S
C2947 C2951 1.400 . S
C2948 H2933 0.960 . S
C2948 H2934 0.960 . S
C2948 H2935 0.960 . S
C2948 C2947 1.524 . S
C2949 C2946 1.403 . S
C2949 C2950 1.392 . S
C2949 C2953 1.495 . S
C2950 C2949 1.392 . S
C2950 C2951 1.385 . S
C2950 C2952 1.478 . S
C2951 H2945 0.930 . S
C2951 C2947 1.400 . S
C2951 C2950 1.385 . S
C2952 C2950 1.478 . S
C2952 C2954 1.381 . S
C2952 C2958 1.383 . S
C2953 C2949 1.495 . S
C2953 H2959 0.959 . S
C2953 H2960 0.961 . S
C2953 H2961 0.960 . S
C2954 C2952 1.381 . S
C2954 C2955 1.394 . S
C2954 H2962 0.930 . S
C2955 C2954 1.394 . S
C2955 C2956 1.383 . S
C2955 H2963 0.929 . S
C2956 C2955 1.383 . S
C2956 C2957 1.377 . S
C2957 H2941 0.930 . S
C2957 C2956 1.377 . S
C2957 C2958 1.379 . S
C2958 H2942 0.931 . S
C2958 C2952 1.383 . S
C2958 C2957 1.379 . S
H2959 C2953 0.959 . S
H2960 C2953 0.961 . S
H2961 C2953 0.960 . S
H2962 C2954 0.930 . S
H2963 C2955 0.929 . S
H2964 C2972 0.929 . S
H2965 C2974 0.930 . S
H2966 C2976 0.930 . S
H2967 C2979 0.929 . S
H2968 C2982 0.930 . S
H2969 C2984 0.960 . S
H2970 C2984 0.960 . S
H2971 C2984 0.960 . S
C2972 H2964 0.929 . S
C2972 C2973 1.377 . S
C2972 C2974 1.384 . S
C2973 C2972 1.377 . S
C2973 C2979 1.390 . S
C2974 H2965 0.930 . S
C2974 C2972 1.384 . S
C2974 C2975 1.372 . S
C2975 C2974 1.372 . S
C2975 C2976 1.400 . S
C2975 C2980 1.490 . S
C2976 H2966 0.930 . S
C2976 C2975 1.400 . S
C2976 C2979 1.386 . S
H2977 C2993 0.930 . S
H2978 C2994 0.931 . S
C2979 H2967 0.929 . S
C2979 C2973 1.390 . S
C2979 C2976 1.386 . S
C2980 C2975 1.490 . S
C2980 C2982 1.395 . S
C2980 C2983 1.403 . S
H2981 C2987 0.930 . S
C2982 H2968 0.930 . S
C2982 C2980 1.395 . S
C2982 C2985 1.403 . S
C2983 C2980 1.403 . S
C2983 C2984 1.524 . S
C2983 C2987 1.400 . S
C2984 H2969 0.960 . S
C2984 H2970 0.960 . S
C2984 H2971 0.960 . S
C2984 C2983 1.524 . S
C2985 C2982 1.403 . S
C2985 C2986 1.392 . S
C2985 C2989 1.495 . S
C2986 C2985 1.392 . S
C2986 C2987 1.385 . S
C2986 C2988 1.478 . S
C2987 H2981 0.930 . S
C2987 C2983 1.400 . S
C2987 C2986 1.385 . S
C2988 C2986 1.478 . S
C2988 C2990 1.381 . S
C2988 C2994 1.383 . S
C2989 C2985 1.495 . S
C2989 H2995 0.959 . S
C2989 H2996 0.961 . S
C2989 H2997 0.960 . S
C2990 C2988 1.381 . S
C2990 C2991 1.394 . S
C2990 H2998 0.930 . S
C2991 C2990 1.394 . S
C2991 C2992 1.383 . S
C2991 H2999 0.929 . S
C2992 C2991 1.383 . S
C2992 C2993 1.377 . S
C2993 H2977 0.930 . S
C2993 C2992 1.377 . S
C2993 C2994 1.379 . S
C2994 H2978 0.931 . S
C2994 C2988 1.383 . S
C2994 C2993 1.379 . S
H2995 C2989 0.959 . S
H2996 C2989 0.961 . S
H2997 C2989 0.960 . S
H2998 C2990 0.930 . S
H2999 C2991 0.929 . S
H3000 C3008 0.929 . S
H3001 C3010 0.930 . S
H3002 C3012 0.930 . S
H3003 C3015 0.929 . S
H3004 C3018 0.930 . S
H3005 C3020 0.960 . S
H3006 C3020 0.960 . S
H3007 C3020 0.960 . S
C3008 H3000 0.929 . S
C3008 C3009 1.377 . S
C3008 C3010 1.384 . S
C3009 C3008 1.377 . S
C3009 C3015 1.390 . S
C3010 H3001 0.930 . S
C3010 C3008 1.384 . S
C3010 C3011 1.372 . S
C3011 C3010 1.372 . S
C3011 C3012 1.400 . S
C3011 C3016 1.490 . S
C3012 H3002 0.930 . S
C3012 C3011 1.400 . S
C3012 C3015 1.386 . S
H3013 C3029 0.930 1_565 S
H3014 C3030 0.931 . S
C3015 H3003 0.929 . S
C3015 C3009 1.390 . S
C3015 C3012 1.386 . S
C3016 C3011 1.490 . S
C3016 C3018 1.395 . S
C3016 C3019 1.403 . S
H3017 C3023 0.930 . S
C3018 H3004 0.930 . S
C3018 C3016 1.395 . S
C3018 C3021 1.403 . S
C3019 C3016 1.403 . S
C3019 C3020 1.524 . S
C3019 C3023 1.400 . S
C3020 H3005 0.960 . S
C3020 H3006 0.960 . S
C3020 H3007 0.960 . S
C3020 C3019 1.524 . S
C3021 C3018 1.403 . S
C3021 C3022 1.392 . S
C3021 C3025 1.495 . S
C3022 C3021 1.392 . S
C3022 C3023 1.385 . S
C3022 C3024 1.478 . S
C3023 H3017 0.930 . S
C3023 C3019 1.400 . S
C3023 C3022 1.385 . S
C3024 C3022 1.478 . S
C3024 C3026 1.381 . S
C3024 C3030 1.383 . S
C3025 C3021 1.495 . S
C3025 H3031 0.959 . S
C3025 H3032 0.961 . S
C3025 H3033 0.960 . S
C3026 C3024 1.381 . S
C3026 C3027 1.394 . S
C3026 H3034 0.930 . S
C3027 C3026 1.394 . S
C3027 C3028 1.383 . S
C3027 H3035 0.929 . S
C3028 C3027 1.383 . S
C3028 C3029 1.377 . S
C3029 H3013 0.930 1_545 S
C3029 C3028 1.377 . S
C3029 C3030 1.379 . S
C3030 H3014 0.931 . S
C3030 C3024 1.383 . S
C3030 C3029 1.379 . S
H3031 C3025 0.959 . S
H3032 C3025 0.961 . S
H3033 C3025 0.960 . S
H3034 C3026 0.930 . S
H3035 C3027 0.929 . S
H3036 C3044 0.929 . S
H3037 C3046 0.930 . S
H3038 C3048 0.930 . S
H3039 C3051 0.929 . S
H3040 C3054 0.930 . S
H3041 C3056 0.960 . S
H3042 C3056 0.960 . S
H3043 C3056 0.960 . S
C3044 H3036 0.929 . S
C3044 C3045 1.377 . S
C3044 C3046 1.384 . S
C3045 C3044 1.377 . S
C3045 C3051 1.390 . S
C3046 H3037 0.930 . S
C3046 C3044 1.384 . S
C3046 C3047 1.372 . S
C3047 C3046 1.372 . S
C3047 C3048 1.400 . S
C3047 C3052 1.490 . S
C3048 H3038 0.930 . S
C3048 C3047 1.400 . S
C3048 C3051 1.386 . S
H3049 C3065 0.930 . S
H3050 C3066 0.931 . S
C3051 H3039 0.929 . S
C3051 C3045 1.390 . S
C3051 C3048 1.386 . S
C3052 C3047 1.490 . S
C3052 C3054 1.395 . S
C3052 C3055 1.403 . S
H3053 C3059 0.930 . S
C3054 H3040 0.930 . S
C3054 C3052 1.395 . S
C3054 C3057 1.403 . S
C3055 C3052 1.403 . S
C3055 C3056 1.524 . S
C3055 C3059 1.400 . S
C3056 H3041 0.960 . S
C3056 H3042 0.960 . S
C3056 H3043 0.960 . S
C3056 C3055 1.524 . S
C3057 C3054 1.403 . S
C3057 C3058 1.392 . S
C3057 C3061 1.495 . S
C3058 C3057 1.392 . S
C3058 C3059 1.385 . S
C3058 C3060 1.478 . S
C3059 H3053 0.930 . S
C3059 C3055 1.400 . S
C3059 C3058 1.385 . S
C3060 C3058 1.478 . S
C3060 C3062 1.381 . S
C3060 C3066 1.383 . S
C3061 C3057 1.495 . S
C3061 H3067 0.959 . S
C3061 H3068 0.961 . S
C3061 H3069 0.960 . S
C3062 C3060 1.381 . S
C3062 C3063 1.394 . S
C3062 H3070 0.930 . S
C3063 C3062 1.394 . S
C3063 C3064 1.383 . S
C3063 H3071 0.929 . S
C3064 C3063 1.383 . S
C3064 C3065 1.377 . S
C3065 H3049 0.930 . S
C3065 C3064 1.377 . S
C3065 C3066 1.379 . S
C3066 H3050 0.931 . S
C3066 C3060 1.383 . S
C3066 C3065 1.379 . S
H3067 C3061 0.959 . S
H3068 C3061 0.961 . S
H3069 C3061 0.960 . S
H3070 C3062 0.930 . S
H3071 C3063 0.929 . S
H3072 C3080 0.929 . S
H3073 C3082 0.930 . S
H3074 C3084 0.930 . S
H3075 C3087 0.929 . S
H3076 C3090 0.930 . S
H3077 C3092 0.960 . S
H3078 C3092 0.960 . S
H3079 C3092 0.960 . S
C3080 H3072 0.929 . S
C3080 C3081 1.377 . S
C3080 C3082 1.384 . S
C3081 C3080 1.377 . S
C3081 C3087 1.390 . S
C3082 H3073 0.930 . S
C3082 C3080 1.384 . S
C3082 C3083 1.372 . S
C3083 C3082 1.372 . S
C3083 C3084 1.400 . S
C3083 C3088 1.490 . S
C3084 H3074 0.930 . S
C3084 C3083 1.400 . S
C3084 C3087 1.386 . S
H3085 C3101 0.930 . S
H3086 C3102 0.931 . S
C3087 H3075 0.929 . S
C3087 C3081 1.390 . S
C3087 C3084 1.386 . S
C3088 C3083 1.490 . S
C3088 C3090 1.395 . S
C3088 C3091 1.403 . S
H3089 C3095 0.930 . S
C3090 H3076 0.930 . S
C3090 C3088 1.395 . S
C3090 C3093 1.403 . S
C3091 C3088 1.403 . S
C3091 C3092 1.524 . S
C3091 C3095 1.400 . S
C3092 H3077 0.960 . S
C3092 H3078 0.960 . S
C3092 H3079 0.960 . S
C3092 C3091 1.524 . S
C3093 C3090 1.403 . S
C3093 C3094 1.392 . S
C3093 C3097 1.495 . S
C3094 C3093 1.392 . S
C3094 C3095 1.385 . S
C3094 C3096 1.478 . S
C3095 H3089 0.930 . S
C3095 C3091 1.400 . S
C3095 C3094 1.385 . S
C3096 C3094 1.478 . S
C3096 C3098 1.381 . S
C3096 C3102 1.383 . S
C3097 C3093 1.495 . S
C3097 H3103 0.959 . S
C3097 H3104 0.961 . S
C3097 H3105 0.960 . S
C3098 C3096 1.381 . S
C3098 C3099 1.394 . S
C3098 H3106 0.930 . S
C3099 C3098 1.394 . S
C3099 C3100 1.383 . S
C3099 H3107 0.929 . S
C3100 C3099 1.383 . S
C3100 C3101 1.377 . S
C3101 H3085 0.930 . S
C3101 C3100 1.377 . S
C3101 C3102 1.379 . S
C3102 H3086 0.931 . S
C3102 C3096 1.383 . S
C3102 C3101 1.379 . S
H3103 C3097 0.959 . S
H3104 C3097 0.961 . S
H3105 C3097 0.960 . S
H3106 C3098 0.930 . S
H3107 C3099 0.929 . S
H3108 C3116 0.929 . S
H3109 C3118 0.930 . S
H3110 C3120 0.930 . S
H3111 C3123 0.929 . S
H3112 C3126 0.930 . S
H3113 C3128 0.960 . S
H3114 C3128 0.960 . S
H3115 C3128 0.960 . S
C3116 H3108 0.929 . S
C3116 C3117 1.377 . S
C3116 C3118 1.384 . S
C3117 C3116 1.377 . S
C3117 C3123 1.390 . S
C3118 H3109 0.930 . S
C3118 C3116 1.384 . S
C3118 C3119 1.372 . S
C3119 C3118 1.372 . S
C3119 C3120 1.400 . S
C3119 C3124 1.490 . S
C3120 H3110 0.930 . S
C3120 C3119 1.400 . S
C3120 C3123 1.386 . S
H3121 C3137 0.930 . S
H3122 C3138 0.931 . S
C3123 H3111 0.929 . S
C3123 C3117 1.390 . S
C3123 C3120 1.386 . S
C3124 C3119 1.490 . S
C3124 C3126 1.395 . S
C3124 C3127 1.403 . S
H3125 C3131 0.930 . S
C3126 H3112 0.930 . S
C3126 C3124 1.395 . S
C3126 C3129 1.403 . S
C3127 C3124 1.403 . S
C3127 C3128 1.524 . S
C3127 C3131 1.400 . S
C3128 H3113 0.960 . S
C3128 H3114 0.960 . S
C3128 H3115 0.960 . S
C3128 C3127 1.524 . S
C3129 C3126 1.403 . S
C3129 C3130 1.392 . S
C3129 C3133 1.495 . S
C3130 C3129 1.392 . S
C3130 C3131 1.385 . S
C3130 C3132 1.478 . S
C3131 H3125 0.930 . S
C3131 C3127 1.400 . S
C3131 C3130 1.385 . S
C3132 C3130 1.478 . S
C3132 C3134 1.381 . S
C3132 C3138 1.383 . S
C3133 C3129 1.495 . S
C3133 H3139 0.959 . S
C3133 H3140 0.961 . S
C3133 H3141 0.960 . S
C3134 C3132 1.381 . S
C3134 C3135 1.394 . S
C3134 H3142 0.930 . S
C3135 C3134 1.394 . S
C3135 C3136 1.383 . S
C3135 H3143 0.929 . S
C3136 C3135 1.383 . S
C3136 C3137 1.377 . S
C3137 H3121 0.930 . S
C3137 C3136 1.377 . S
C3137 C3138 1.379 . S
C3138 H3122 0.931 . S
C3138 C3132 1.383 . S
C3138 C3137 1.379 . S
H3139 C3133 0.959 . S
H3140 C3133 0.961 . S
H3141 C3133 0.960 . S
H3142 C3134 0.930 . S
H3143 C3135 0.929 . S
H3144 C3152 0.933 . S
H3145 C3154 0.930 . S
H3146 C3156 0.930 . S
H3147 C3159 0.929 . S
H3148 C3162 0.930 . S
H3149 C3164 0.960 . S
H3150 C3164 0.960 . S
H3151 C3164 0.960 . S
C3152 H3144 0.933 . S
C3152 C3153 1.377 . S
C3152 C3154 1.384 . S
C3153 C3152 1.377 . S
C3153 C3159 1.390 . S
C3154 H3145 0.930 . S
C3154 C3152 1.384 . S
C3154 C3155 1.372 . S
C3155 C3154 1.372 . S
C3155 C3156 1.400 . S
C3155 C3160 1.490 . S
C3156 H3146 0.930 . S
C3156 C3155 1.400 . S
C3156 C3159 1.386 . S
H3157 C3173 0.930 . S
H3158 C3174 0.931 . S
C3159 H3147 0.929 . S
C3159 C3153 1.390 . S
C3159 C3156 1.386 . S
C3160 C3155 1.490 . S
C3160 C3162 1.395 . S
C3160 C3163 1.403 . S
H3161 C3167 0.930 . S
C3162 H3148 0.930 . S
C3162 C3160 1.395 . S
C3162 C3165 1.403 . S
C3163 C3160 1.403 . S
C3163 C3164 1.524 . S
C3163 C3167 1.400 . S
C3164 H3149 0.960 . S
C3164 H3150 0.960 . S
C3164 H3151 0.960 . S
C3164 C3163 1.524 . S
C3165 C3162 1.403 . S
C3165 C3166 1.392 . S
C3165 C3169 1.495 . S
C3166 C3165 1.392 . S
C3166 C3167 1.385 . S
C3166 C3168 1.478 . S
C3167 H3161 0.930 . S
C3167 C3163 1.400 . S
C3167 C3166 1.385 . S
C3168 C3166 1.478 . S
C3168 C3170 1.381 . S
C3168 C3174 1.383 . S
C3169 C3165 1.495 . S
C3169 H3175 0.959 . S
C3169 H3176 0.961 . S
C3169 H3177 0.960 . S
C3170 C3168 1.381 . S
C3170 C3171 1.394 . S
C3170 H3178 0.930 . S
C3171 C3170 1.394 . S
C3171 C3172 1.383 . S
C3171 H3179 0.929 . S
C3172 C3171 1.383 . S
C3172 C3173 1.377 . S
C3173 H3157 0.930 . S
C3173 C3172 1.377 . S
C3173 C3174 1.379 . S
C3174 H3158 0.931 . S
C3174 C3168 1.383 . S
C3174 C3173 1.379 . S
H3175 C3169 0.959 . S
H3176 C3169 0.961 . S
H3177 C3169 0.960 . S
H3178 C3170 0.930 . S
H3179 C3171 0.929 . S
H3180 C3188 0.929 . S
H3181 C3190 0.930 . S
H3182 C3192 0.930 . S
H3183 C3195 0.929 1_455 S
H3184 C3198 0.930 . S
H3185 C3200 0.960 . S
H3186 C3200 0.960 . S
H3187 C3200 0.960 . S
C3188 H3180 0.929 . S
C3188 C3189 1.377 . S
C3188 C3190 1.384 . S
C3189 C3188 1.377 . S
C3189 C3195 1.390 . S
C3190 H3181 0.930 . S
C3190 C3188 1.384 . S
C3190 C3191 1.372 . S
C3191 C3190 1.372 . S
C3191 C3192 1.400 . S
C3191 C3196 1.490 . S
C3192 H3182 0.930 . S
C3192 C3191 1.400 . S
C3192 C3195 1.386 . S
H3193 C3209 0.930 1_565 S
H3194 C3210 0.931 . S
C3195 H3183 0.929 1_655 S
C3195 C3189 1.390 . S
C3195 C3192 1.386 . S
C3196 C3191 1.490 . S
C3196 C3198 1.395 . S
C3196 C3199 1.403 . S
H3197 C3203 0.930 . S
C3198 H3184 0.930 . S
C3198 C3196 1.395 . S
C3198 C3201 1.403 . S
C3199 C3196 1.403 . S
C3199 C3200 1.524 . S
C3199 C3203 1.400 . S
C3200 H3185 0.960 . S
C3200 H3186 0.960 . S
C3200 H3187 0.960 . S
C3200 C3199 1.524 . S
C3201 C3198 1.403 . S
C3201 C3202 1.392 . S
C3201 C3205 1.495 . S
C3202 C3201 1.392 . S
C3202 C3203 1.385 . S
C3202 C3204 1.478 . S
C3203 H3197 0.930 . S
C3203 C3199 1.400 . S
C3203 C3202 1.385 . S
C3204 C3202 1.478 . S
C3204 C3206 1.381 . S
C3204 C3210 1.383 . S
C3205 C3201 1.495 . S
C3205 H3211 0.959 . S
C3205 H3212 0.961 . S
C3205 H3213 0.960 . S
C3206 C3204 1.381 . S
C3206 C3207 1.394 . S
C3206 H3214 0.930 . S
C3207 C3206 1.394 . S
C3207 C3208 1.383 . S
C3207 H3215 0.929 . S
C3208 C3207 1.383 . S
C3208 C3209 1.377 . S
C3209 H3193 0.930 1_545 S
C3209 C3208 1.377 . S
C3209 C3210 1.379 . S
C3210 H3194 0.931 . S
C3210 C3204 1.383 . S
C3210 C3209 1.379 . S
H3211 C3205 0.959 . S
H3212 C3205 0.961 . S
H3213 C3205 0.960 . S
H3214 C3206 0.930 . S
H3215 C3207 0.929 . S
H3216 C3224 0.929 . S
H3217 C3226 0.930 . S
H3218 C3228 0.930 . S
H3219 C3231 0.929 . S
H3220 C3234 0.930 . S
H3221 C3236 0.960 . S
H3222 C3236 0.960 . S
H3223 C3236 0.960 . S
C3224 H3216 0.929 . S
C3224 C3225 1.377 . S
C3224 C3226 1.384 . S
C3225 C3224 1.377 . S
C3225 C3231 1.390 . S
C3226 H3217 0.930 . S
C3226 C3224 1.384 . S
C3226 C3227 1.372 . S
C3227 C3226 1.372 . S
C3227 C3228 1.400 . S
C3227 C3232 1.490 . S
C3228 H3218 0.930 . S
C3228 C3227 1.400 . S
C3228 C3231 1.386 . S
H3229 C3245 0.930 . S
H3230 C3246 0.931 . S
C3231 H3219 0.929 . S
C3231 C3225 1.390 . S
C3231 C3228 1.386 . S
C3232 C3227 1.490 . S
C3232 C3234 1.395 . S
C3232 C3235 1.403 . S
H3233 C3239 0.930 . S
C3234 H3220 0.930 . S
C3234 C3232 1.395 . S
C3234 C3237 1.403 . S
C3235 C3232 1.403 . S
C3235 C3236 1.524 . S
C3235 C3239 1.400 . S
C3236 H3221 0.960 . S
C3236 H3222 0.960 . S
C3236 H3223 0.960 . S
C3236 C3235 1.524 . S
C3237 C3234 1.403 . S
C3237 C3238 1.392 . S
C3237 C3241 1.495 . S
C3238 C3237 1.392 . S
C3238 C3239 1.385 . S
C3238 C3240 1.478 . S
C3239 H3233 0.930 . S
C3239 C3235 1.400 . S
C3239 C3238 1.385 . S
C3240 C3238 1.478 . S
C3240 C3242 1.381 . S
C3240 C3246 1.383 . S
C3241 C3237 1.495 . S
C3241 H3247 0.959 . S
C3241 H3248 0.961 . S
C3241 H3249 0.960 . S
C3242 C3240 1.381 . S
C3242 C3243 1.394 . S
C3242 H3250 0.930 . S
C3243 C3242 1.394 . S
C3243 C3244 1.383 . S
C3243 H3251 0.929 . S
C3244 C3243 1.383 . S
C3244 C3245 1.377 . S
C3245 H3229 0.930 . S
C3245 C3244 1.377 . S
C3245 C3246 1.379 . S
C3246 H3230 0.931 . S
C3246 C3240 1.383 . S
C3246 C3245 1.379 . S
H3247 C3241 0.959 . S
H3248 C3241 0.961 . S
H3249 C3241 0.960 . S
H3250 C3242 0.930 . S
H3251 C3243 0.929 . S
H3252 C3260 0.929 . S
H3253 C3262 0.930 . S
H3254 C3264 0.930 . S
H3255 C3267 0.929 . S
H3256 C3270 0.930 . S
H3257 C3272 0.960 . S
H3258 C3272 0.960 . S
H3259 C3272 0.960 . S
C3260 H3252 0.929 . S
C3260 C3261 1.377 . S
C3260 C3262 1.384 . S
C3261 C3260 1.377 . S
C3261 C3267 1.390 . S
C3262 H3253 0.930 . S
C3262 C3260 1.384 . S
C3262 C3263 1.372 . S
C3263 C3262 1.372 . S
C3263 C3264 1.400 . S
C3263 C3268 1.490 . S
C3264 H3254 0.930 . S
C3264 C3263 1.400 . S
C3264 C3267 1.386 . S
H3265 C3281 0.930 . S
H3266 C3282 0.931 . S
C3267 H3255 0.929 . S
C3267 C3261 1.390 . S
C3267 C3264 1.386 . S
C3268 C3263 1.490 . S
C3268 C3270 1.395 . S
C3268 C3271 1.403 . S
H3269 C3275 0.930 . S
C3270 H3256 0.930 . S
C3270 C3268 1.395 . S
C3270 C3273 1.403 . S
C3271 C3268 1.403 . S
C3271 C3272 1.524 . S
C3271 C3275 1.400 . S
C3272 H3257 0.960 . S
C3272 H3258 0.960 . S
C3272 H3259 0.960 . S
C3272 C3271 1.524 . S
C3273 C3270 1.403 . S
C3273 C3274 1.392 . S
C3273 C3277 1.495 . S
C3274 C3273 1.392 . S
C3274 C3275 1.385 . S
C3274 C3276 1.478 . S
C3275 H3269 0.930 . S
C3275 C3271 1.400 . S
C3275 C3274 1.385 . S
C3276 C3274 1.478 . S
C3276 C3278 1.381 . S
C3276 C3282 1.383 . S
C3277 C3273 1.495 . S
C3277 H3283 0.959 . S
C3277 H3284 0.961 . S
C3277 H3285 0.960 . S
C3278 C3276 1.381 . S
C3278 C3279 1.394 . S
C3278 H3286 0.930 . S
C3279 C3278 1.394 . S
C3279 C3280 1.383 . S
C3279 H3287 0.929 . S
C3280 C3279 1.383 . S
C3280 C3281 1.377 . S
C3281 H3265 0.930 . S
C3281 C3280 1.377 . S
C3281 C3282 1.379 . S
C3282 H3266 0.931 . S
C3282 C3276 1.383 . S
C3282 C3281 1.379 . S
H3283 C3277 0.959 . S
H3284 C3277 0.961 . S
H3285 C3277 0.960 . S
H3286 C3278 0.930 . S
H3287 C3279 0.929 . S
H3288 C3296 0.929 . S
H3289 C3298 0.930 . S
H3290 C3300 0.930 . S
H3291 C3303 0.929 . S
H3292 C3306 0.930 . S
H3293 C3308 0.960 . S
H3294 C3308 0.960 . S
H3295 C3308 0.960 . S
C3296 H3288 0.929 . S
C3296 C3297 1.377 . S
C3296 C3298 1.384 . S
C3297 C3296 1.377 . S
C3297 C3303 1.390 . S
C3298 H3289 0.930 . S
C3298 C3296 1.384 . S
C3298 C3299 1.372 . S
C3299 C3298 1.372 . S
C3299 C3300 1.400 . S
C3299 C3304 1.490 . S
C3300 H3290 0.930 . S
C3300 C3299 1.400 . S
C3300 C3303 1.386 . S
H3301 C3317 0.930 . S
H3302 C3318 0.931 . S
C3303 H3291 0.929 . S
C3303 C3297 1.390 . S
C3303 C3300 1.386 . S
C3304 C3299 1.490 . S
C3304 C3306 1.395 . S
C3304 C3307 1.403 . S
H3305 C3311 0.930 . S
C3306 H3292 0.930 . S
C3306 C3304 1.395 . S
C3306 C3309 1.403 . S
C3307 C3304 1.403 . S
C3307 C3308 1.524 . S
C3307 C3311 1.400 . S
C3308 H3293 0.960 . S
C3308 H3294 0.960 . S
C3308 H3295 0.960 . S
C3308 C3307 1.524 . S
C3309 C3306 1.403 . S
C3309 C3310 1.392 . S
C3309 C3313 1.495 . S
C3310 C3309 1.392 . S
C3310 C3311 1.385 . S
C3310 C3312 1.478 . S
C3311 H3305 0.930 . S
C3311 C3307 1.400 . S
C3311 C3310 1.385 . S
C3312 C3310 1.478 . S
C3312 C3314 1.381 . S
C3312 C3318 1.383 . S
C3313 C3309 1.495 . S
C3313 H3319 0.959 . S
C3313 H3320 0.961 . S
C3313 H3321 0.960 . S
C3314 C3312 1.381 . S
C3314 C3315 1.394 . S
C3314 H3322 0.930 . S
C3315 C3314 1.394 . S
C3315 C3316 1.383 . S
C3315 H3323 0.929 . S
C3316 C3315 1.383 . S
C3316 C3317 1.377 . S
C3317 H3301 0.930 . S
C3317 C3316 1.377 . S
C3317 C3318 1.379 . S
C3318 H3302 0.931 . S
C3318 C3312 1.383 . S
C3318 C3317 1.379 . S
H3319 C3313 0.959 . S
H3320 C3313 0.961 . S
H3321 C3313 0.960 . S
H3322 C3314 0.930 . S
H3323 C3315 0.929 . S
H3324 C3332 0.929 . S
H3325 C3334 0.930 . S
H3326 C3336 0.930 . S
H3327 C3339 0.929 . S
H3328 C3342 0.930 . S
H3329 C3344 0.960 . S
H3330 C3344 0.960 . S
H3331 C3344 0.960 . S
C3332 H3324 0.929 . S
C3332 C3333 1.377 . S
C3332 C3334 1.384 . S
C3333 C3332 1.377 . S
C3333 C3339 1.390 . S
C3334 H3325 0.930 . S
C3334 C3332 1.384 . S
C3334 C3335 1.372 . S
C3335 C3334 1.372 . S
C3335 C3336 1.400 . S
C3335 C3340 1.490 . S
C3336 H3326 0.930 . S
C3336 C3335 1.400 . S
C3336 C3339 1.386 . S
H3337 C3353 0.930 . S
H3338 C3354 0.931 . S
C3339 H3327 0.929 . S
C3339 C3333 1.390 . S
C3339 C3336 1.386 . S
C3340 C3335 1.490 . S
C3340 C3342 1.395 . S
C3340 C3343 1.403 . S
H3341 C3347 0.930 . S
C3342 H3328 0.930 . S
C3342 C3340 1.395 . S
C3342 C3345 1.403 . S
C3343 C3340 1.403 . S
C3343 C3344 1.524 . S
C3343 C3347 1.400 . S
C3344 H3329 0.960 . S
C3344 H3330 0.960 . S
C3344 H3331 0.960 . S
C3344 C3343 1.524 . S
C3345 C3342 1.403 . S
C3345 C3346 1.392 . S
C3345 C3349 1.495 . S
C3346 C3345 1.392 . S
C3346 C3347 1.385 . S
C3346 C3348 1.478 . S
C3347 H3341 0.930 . S
C3347 C3343 1.400 . S
C3347 C3346 1.385 . S
C3348 C3346 1.478 . S
C3348 C3350 1.381 . S
C3348 C3354 1.383 . S
C3349 C3345 1.495 . S
C3349 H3355 0.959 . S
C3349 H3356 0.961 . S
C3349 H3357 0.960 . S
C3350 C3348 1.381 . S
C3350 C3351 1.394 . S
C3350 H3358 0.930 . S
C3351 C3350 1.394 . S
C3351 C3352 1.383 . S
C3351 H3359 0.929 . S
C3352 C3351 1.383 . S
C3352 C3353 1.377 . S
C3353 H3337 0.930 . S
C3353 C3352 1.377 . S
C3353 C3354 1.379 . S
C3354 H3338 0.931 . S
C3354 C3348 1.383 . S
C3354 C3353 1.379 . S
H3355 C3349 0.959 . S
H3356 C3349 0.961 . S
H3357 C3349 0.960 . S
H3358 C3350 0.930 . S
H3359 C3351 0.929 . S
H3360 C3368 0.929 . S
H3361 C3370 0.930 . S
H3362 C3372 0.930 . S
H3363 C3375 0.929 . S
H3364 C3378 0.930 . S
H3365 C3380 0.960 . S
H3366 C3380 0.960 . S
H3367 C3380 0.960 . S
C3368 H3360 0.929 . S
C3368 C3369 1.377 . S
C3368 C3370 1.384 . S
C3369 C3368 1.377 . S
C3369 C3375 1.390 . S
C3370 H3361 0.930 . S
C3370 C3368 1.384 . S
C3370 C3371 1.372 . S
C3371 C3370 1.372 . S
C3371 C3372 1.400 . S
C3371 C3376 1.490 . S
C3372 H3362 0.930 . S
C3372 C3371 1.400 . S
C3372 C3375 1.386 . S
H3373 C3389 0.930 . S
H3374 C3390 0.931 . S
C3375 H3363 0.929 . S
C3375 C3369 1.390 . S
C3375 C3372 1.386 . S
C3376 C3371 1.490 . S
C3376 C3378 1.395 . S
C3376 C3379 1.403 . S
H3377 C3383 0.930 . S
C3378 H3364 0.930 . S
C3378 C3376 1.395 . S
C3378 C3381 1.403 . S
C3379 C3376 1.403 . S
C3379 C3380 1.524 . S
C3379 C3383 1.400 . S
C3380 H3365 0.960 . S
C3380 H3366 0.960 . S
C3380 H3367 0.960 . S
C3380 C3379 1.524 . S
C3381 C3378 1.403 . S
C3381 C3382 1.392 . S
C3381 C3385 1.495 . S
C3382 C3381 1.392 . S
C3382 C3383 1.385 . S
C3382 C3384 1.478 . S
C3383 H3377 0.930 . S
C3383 C3379 1.400 . S
C3383 C3382 1.385 . S
C3384 C3382 1.478 . S
C3384 C3386 1.381 . S
C3384 C3390 1.383 . S
C3385 C3381 1.495 . S
C3385 H3391 0.959 . S
C3385 H3392 0.961 . S
C3385 H3393 0.960 . S
C3386 C3384 1.381 . S
C3386 C3387 1.394 . S
C3386 H3394 0.930 . S
C3387 C3386 1.394 . S
C3387 C3388 1.383 . S
C3387 H3395 0.929 . S
C3388 C3387 1.383 . S
C3388 C3389 1.377 . S
C3389 H3373 0.930 . S
C3389 C3388 1.377 . S
C3389 C3390 1.379 . S
C3390 H3374 0.931 . S
C3390 C3384 1.383 . S
C3390 C3389 1.379 . S
H3391 C3385 0.959 . S
H3392 C3385 0.961 . S
H3393 C3385 0.960 . S
H3394 C3386 0.930 . S
H3395 C3387 0.929 . S
H3396 C3404 0.929 . S
H3397 C3406 0.930 . S
H3398 C3408 0.930 . S
H3399 C3411 0.929 . S
H3400 C3414 0.930 . S
H3401 C3416 0.960 . S
H3402 C3416 0.960 . S
H3403 C3416 0.960 . S
C3404 H3396 0.929 . S
C3404 C3405 1.377 . S
C3404 C3406 1.384 . S
C3405 C3404 1.377 . S
C3405 C3411 1.390 . S
C3406 H3397 0.930 . S
C3406 C3404 1.384 . S
C3406 C3407 1.372 . S
C3407 C3406 1.372 . S
C3407 C3408 1.400 . S
C3407 C3412 1.490 . S
C3408 H3398 0.930 . S
C3408 C3407 1.400 . S
C3408 C3411 1.386 . S
H3409 C3425 0.930 . S
H3410 C3426 0.931 . S
C3411 H3399 0.929 . S
C3411 C3405 1.390 . S
C3411 C3408 1.386 . S
C3412 C3407 1.490 . S
C3412 C3414 1.395 . S
C3412 C3415 1.403 . S
H3413 C3419 0.930 . S
C3414 H3400 0.930 . S
C3414 C3412 1.395 . S
C3414 C3417 1.403 . S
C3415 C3412 1.403 . S
C3415 C3416 1.524 . S
C3415 C3419 1.400 . S
C3416 H3401 0.960 . S
C3416 H3402 0.960 . S
C3416 H3403 0.960 . S
C3416 C3415 1.524 . S
C3417 C3414 1.403 . S
C3417 C3418 1.392 . S
C3417 C3421 1.495 . S
C3418 C3417 1.392 . S
C3418 C3419 1.385 . S
C3418 C3420 1.478 . S
C3419 H3413 0.930 . S
C3419 C3415 1.400 . S
C3419 C3418 1.385 . S
C3420 C3418 1.478 . S
C3420 C3422 1.381 . S
C3420 C3426 1.383 . S
C3421 C3417 1.495 . S
C3421 H3427 0.959 . S
C3421 H3428 0.961 . S
C3421 H3429 0.960 . S
C3422 C3420 1.381 . S
C3422 C3423 1.394 . S
C3422 H3430 0.930 . S
C3423 C3422 1.394 . S
C3423 C3424 1.383 . S
C3423 H3431 0.929 . S
C3424 C3423 1.383 . S
C3424 C3425 1.377 . S
C3425 H3409 0.930 . S
C3425 C3424 1.377 . S
C3425 C3426 1.379 . S
C3426 H3410 0.931 . S
C3426 C3420 1.383 . S
C3426 C3425 1.379 . S
H3427 C3421 0.959 . S
H3428 C3421 0.961 . S
H3429 C3421 0.960 . S
H3430 C3422 0.930 . S
H3431 C3423 0.929 . S
H3432 C3440 0.929 . S
H3433 C3442 0.930 . S
H3434 C3444 0.930 . S
H3435 C3447 0.929 . S
H3436 C3450 0.930 . S
H3437 C3452 0.960 . S
H3438 C3452 0.960 . S
H3439 C3452 0.960 . S
C3440 H3432 0.929 . S
C3440 C3441 1.377 . S
C3440 C3442 1.384 . S
C3441 C3440 1.377 . S
C3441 C3447 1.390 . S
C3442 H3433 0.930 . S
C3442 C3440 1.384 . S
C3442 C3443 1.372 . S
C3443 C3442 1.372 . S
C3443 C3444 1.400 . S
C3443 C3448 1.490 . S
C3444 H3434 0.930 . S
C3444 C3443 1.400 . S
C3444 C3447 1.386 . S
H3445 C3461 0.930 . S
H3446 C3462 0.931 . S
C3447 H3435 0.929 . S
C3447 C3441 1.390 . S
C3447 C3444 1.386 . S
C3448 C3443 1.490 . S
C3448 C3450 1.395 . S
C3448 C3451 1.403 . S
H3449 C3455 0.930 . S
C3450 H3436 0.930 . S
C3450 C3448 1.395 . S
C3450 C3453 1.403 . S
C3451 C3448 1.403 . S
C3451 C3452 1.524 . S
C3451 C3455 1.400 . S
C3452 H3437 0.960 . S
C3452 H3438 0.960 . S
C3452 H3439 0.960 . S
C3452 C3451 1.524 . S
C3453 C3450 1.403 . S
C3453 C3454 1.392 . S
C3453 C3457 1.495 . S
C3454 C3453 1.392 . S
C3454 C3455 1.385 . S
C3454 C3456 1.478 . S
C3455 H3449 0.930 . S
C3455 C3451 1.400 . S
C3455 C3454 1.385 . S
C3456 C3454 1.478 . S
C3456 C3458 1.381 . S
C3456 C3462 1.383 . S
C3457 C3453 1.495 . S
C3457 H3463 0.959 . S
C3457 H3464 0.961 . S
C3457 H3465 0.960 . S
C3458 C3456 1.381 . S
C3458 C3459 1.394 . S
C3458 H3466 0.930 . S
C3459 C3458 1.394 . S
C3459 C3460 1.383 . S
C3459 H3467 0.929 . S
C3460 C3459 1.383 . S
C3460 C3461 1.377 . S
C3461 H3445 0.930 . S
C3461 C3460 1.377 . S
C3461 C3462 1.379 . S
C3462 H3446 0.931 . S
C3462 C3456 1.383 . S
C3462 C3461 1.379 . S
H3463 C3457 0.959 . S
H3464 C3457 0.961 . S
H3465 C3457 0.960 . S
H3466 C3458 0.930 . S
H3467 C3459 0.929 . S
H3468 C3476 0.929 . S
H3469 C3478 0.930 . S
H3470 C3480 0.930 . S
H3471 C3483 0.929 . S
H3472 C3486 0.930 . S
H3473 C3488 0.960 . S
H3474 C3488 0.960 . S
H3475 C3488 0.960 . S
C3476 H3468 0.929 . S
C3476 C3477 1.377 . S
C3476 C3478 1.384 . S
C3477 C3476 1.377 . S
C3477 C3483 1.390 . S
C3478 H3469 0.930 . S
C3478 C3476 1.384 . S
C3478 C3479 1.372 . S
C3479 C3478 1.372 . S
C3479 C3480 1.400 . S
C3479 C3484 1.490 . S
C3480 H3470 0.930 . S
C3480 C3479 1.400 . S
C3480 C3483 1.386 . S
H3481 C3497 0.930 . S
H3482 C3498 0.931 . S
C3483 H3471 0.929 . S
C3483 C3477 1.390 . S
C3483 C3480 1.386 . S
C3484 C3479 1.490 . S
C3484 C3486 1.395 . S
C3484 C3487 1.403 . S
H3485 C3491 0.930 . S
C3486 H3472 0.930 . S
C3486 C3484 1.395 . S
C3486 C3489 1.403 . S
C3487 C3484 1.403 . S
C3487 C3488 1.524 . S
C3487 C3491 1.400 . S
C3488 H3473 0.960 . S
C3488 H3474 0.960 . S
C3488 H3475 0.960 . S
C3488 C3487 1.524 . S
C3489 C3486 1.403 . S
C3489 C3490 1.392 . S
C3489 C3493 1.495 . S
C3490 C3489 1.392 . S
C3490 C3491 1.385 . S
C3490 C3492 1.478 . S
C3491 H3485 0.930 . S
C3491 C3487 1.400 . S
C3491 C3490 1.385 . S
C3492 C3490 1.478 . S
C3492 C3494 1.381 . S
C3492 C3498 1.383 . S
C3493 C3489 1.495 . S
C3493 H3499 0.959 . S
C3493 H3500 0.961 . S
C3493 H3501 0.960 . S
C3494 C3492 1.381 . S
C3494 C3495 1.394 . S
C3494 H3502 0.930 . S
C3495 C3494 1.394 . S
C3495 C3496 1.383 . S
C3495 H3503 0.929 . S
C3496 C3495 1.383 . S
C3496 C3497 1.377 . S
C3497 H3481 0.930 . S
C3497 C3496 1.377 . S
C3497 C3498 1.379 . S
C3498 H3482 0.931 . S
C3498 C3492 1.383 . S
C3498 C3497 1.379 . S
H3499 C3493 0.959 . S
H3500 C3493 0.961 . S
H3501 C3493 0.960 . S
H3502 C3494 0.930 . S
H3503 C3495 0.929 . S
H3504 C3512 0.929 . S
H3505 C3514 0.930 . S
H3506 C3516 0.930 . S
H3507 C3519 0.929 . S
H3508 C3522 0.930 . S
H3509 C3524 0.960 . S
H3510 C3524 0.960 . S
H3511 C3524 0.960 . S
C3512 H3504 0.929 . S
C3512 C3513 1.377 . S
C3512 C3514 1.384 . S
C3513 C3512 1.377 . S
C3513 C3519 1.390 . S
C3514 H3505 0.930 . S
C3514 C3512 1.384 . S
C3514 C3515 1.372 . S
C3515 C3514 1.372 . S
C3515 C3516 1.400 . S
C3515 C3520 1.490 . S
C3516 H3506 0.930 . S
C3516 C3515 1.400 . S
C3516 C3519 1.386 . S
H3517 C3533 0.930 . S
H3518 C3534 0.931 . S
C3519 H3507 0.929 . S
C3519 C3513 1.390 . S
C3519 C3516 1.386 . S
C3520 C3515 1.490 . S
C3520 C3522 1.395 . S
C3520 C3523 1.403 . S
H3521 C3527 0.930 . S
C3522 H3508 0.930 . S
C3522 C3520 1.395 . S
C3522 C3525 1.403 . S
C3523 C3520 1.403 . S
C3523 C3524 1.524 . S
C3523 C3527 1.400 . S
C3524 H3509 0.960 . S
C3524 H3510 0.960 . S
C3524 H3511 0.960 . S
C3524 C3523 1.524 . S
C3525 C3522 1.403 . S
C3525 C3526 1.392 . S
C3525 C3529 1.495 . S
C3526 C3525 1.392 . S
C3526 C3527 1.385 . S
C3526 C3528 1.478 . S
C3527 H3521 0.930 . S
C3527 C3523 1.400 . S
C3527 C3526 1.385 . S
C3528 C3526 1.478 . S
C3528 C3530 1.381 . S
C3528 C3534 1.383 . S
C3529 C3525 1.495 . S
C3529 H3535 0.959 . S
C3529 H3536 0.961 . S
C3529 H3537 0.960 . S
C3530 C3528 1.381 . S
C3530 C3531 1.394 . S
C3530 H3538 0.930 . S
C3531 C3530 1.394 . S
C3531 C3532 1.383 . S
C3531 H3539 0.929 . S
C3532 C3531 1.383 . S
C3532 C3533 1.377 . S
C3533 H3517 0.930 . S
C3533 C3532 1.377 . S
C3533 C3534 1.379 . S
C3534 H3518 0.931 . S
C3534 C3528 1.383 . S
C3534 C3533 1.379 . S
H3535 C3529 0.959 . S
H3536 C3529 0.961 . S
H3537 C3529 0.960 . S
H3538 C3530 0.930 . S
H3539 C3531 0.929 . S
H3540 C3548 0.929 . S
H3541 C3550 0.930 . S
H3542 C3552 0.930 . S
H3543 C3555 0.929 . S
H3544 C3558 0.930 . S
H3545 C3560 0.960 . S
H3546 C3560 0.960 . S
H3547 C3560 0.960 . S
C3548 H3540 0.929 . S
C3548 C3549 1.377 . S
C3548 C3550 1.384 . S
C3549 C3548 1.377 . S
C3549 C3555 1.390 . S
C3550 H3541 0.930 . S
C3550 C3548 1.384 . S
C3550 C3551 1.372 . S
C3551 C3550 1.372 . S
C3551 C3552 1.400 . S
C3551 C3556 1.490 . S
C3552 H3542 0.930 . S
C3552 C3551 1.400 . S
C3552 C3555 1.386 . S
H3553 C3569 0.930 . S
H3554 C3570 0.931 . S
C3555 H3543 0.929 . S
C3555 C3549 1.390 . S
C3555 C3552 1.386 . S
C3556 C3551 1.490 . S
C3556 C3558 1.395 . S
C3556 C3559 1.403 . S
H3557 C3563 0.930 . S
C3558 H3544 0.930 . S
C3558 C3556 1.395 . S
C3558 C3561 1.403 . S
C3559 C3556 1.403 . S
C3559 C3560 1.524 . S
C3559 C3563 1.400 . S
C3560 H3545 0.960 . S
C3560 H3546 0.960 . S
C3560 H3547 0.960 . S
C3560 C3559 1.524 . S
C3561 C3558 1.403 . S
C3561 C3562 1.392 . S
C3561 C3565 1.495 . S
C3562 C3561 1.392 . S
C3562 C3563 1.385 . S
C3562 C3564 1.478 . S
C3563 H3557 0.930 . S
C3563 C3559 1.400 . S
C3563 C3562 1.385 . S
C3564 C3562 1.478 . S
C3564 C3566 1.381 . S
C3564 C3570 1.383 . S
C3565 C3561 1.495 . S
C3565 H3571 0.959 . S
C3565 H3572 0.961 . S
C3565 H3573 0.960 . S
C3566 C3564 1.381 . S
C3566 C3567 1.394 . S
C3566 H3574 0.930 . S
C3567 C3566 1.394 . S
C3567 C3568 1.383 . S
C3567 H3575 0.929 . S
C3568 C3567 1.383 . S
C3568 C3569 1.377 . S
C3569 H3553 0.930 . S
C3569 C3568 1.377 . S
C3569 C3570 1.379 . S
C3570 H3554 0.931 . S
C3570 C3564 1.383 . S
C3570 C3569 1.379 . S
H3571 C3565 0.959 . S
H3572 C3565 0.961 . S
H3573 C3565 0.960 . S
H3574 C3566 0.930 . S
H3575 C3567 0.929 . S
H3576 C3584 0.929 . S
H3577 C3586 0.930 . S
H3578 C3588 0.930 . S
H3579 C3591 0.929 . S
H3580 C3594 0.930 . S
H3581 C3596 0.960 . S
H3582 C3596 0.960 . S
H3583 C3596 0.960 . S
C3584 H3576 0.929 . S
C3584 C3585 1.377 . S
C3584 C3586 1.384 . S
C3585 C3584 1.377 . S
C3585 C3591 1.390 . S
C3586 H3577 0.930 . S
C3586 C3584 1.384 . S
C3586 C3587 1.372 . S
C3587 C3586 1.372 . S
C3587 C3588 1.400 . S
C3587 C3592 1.490 . S
C3588 H3578 0.930 . S
C3588 C3587 1.400 . S
C3588 C3591 1.386 . S
H3589 C3605 0.930 . S
H3590 C3606 0.931 . S
C3591 H3579 0.929 . S
C3591 C3585 1.390 . S
C3591 C3588 1.386 . S
C3592 C3587 1.490 . S
C3592 C3594 1.395 . S
C3592 C3595 1.403 . S
H3593 C3599 0.930 . S
C3594 H3580 0.930 . S
C3594 C3592 1.395 . S
C3594 C3597 1.403 . S
C3595 C3592 1.403 . S
C3595 C3596 1.524 . S
C3595 C3599 1.400 . S
C3596 H3581 0.960 . S
C3596 H3582 0.960 . S
C3596 H3583 0.960 . S
C3596 C3595 1.524 . S
C3597 C3594 1.403 . S
C3597 C3598 1.392 . S
C3597 C3601 1.495 . S
C3598 C3597 1.392 . S
C3598 C3599 1.385 . S
C3598 C3600 1.478 . S
C3599 H3593 0.930 . S
C3599 C3595 1.400 . S
C3599 C3598 1.385 . S
C3600 C3598 1.478 . S
C3600 C3602 1.381 . S
C3600 C3606 1.383 . S
C3601 C3597 1.495 . S
C3601 H3607 0.959 . S
C3601 H3608 0.961 . S
C3601 H3609 0.960 . S
C3602 C3600 1.381 . S
C3602 C3603 1.394 . S
C3602 H3610 0.930 . S
C3603 C3602 1.394 . S
C3603 C3604 1.383 . S
C3603 H3611 0.929 . S
C3604 C3603 1.383 . S
C3604 C3605 1.377 . S
C3605 H3589 0.930 . S
C3605 C3604 1.377 . S
C3605 C3606 1.379 . S
C3606 H3590 0.931 . S
C3606 C3600 1.383 . S
C3606 C3605 1.379 . S
H3607 C3601 0.959 . S
H3608 C3601 0.961 . S
H3609 C3601 0.960 . S
H3610 C3602 0.930 . S
H3611 C3603 0.929 . S
H3612 C3620 0.929 . S
H3613 C3622 0.930 . S
H3614 C3624 0.930 . S
H3615 C3627 0.929 . S
H3616 C3630 0.930 . S
H3617 C3632 0.960 . S
H3618 C3632 0.960 . S
H3619 C3632 0.960 . S
C3620 H3612 0.929 . S
C3620 C3621 1.377 . S
C3620 C3622 1.384 . S
C3621 C3620 1.377 . S
C3621 C3627 1.390 . S
C3622 H3613 0.930 . S
C3622 C3620 1.384 . S
C3622 C3623 1.372 . S
C3623 C3622 1.372 . S
C3623 C3624 1.400 . S
C3623 C3628 1.490 . S
C3624 H3614 0.930 . S
C3624 C3623 1.400 . S
C3624 C3627 1.386 . S
H3625 C3641 0.930 . S
H3626 C3642 0.931 . S
C3627 H3615 0.929 . S
C3627 C3621 1.390 . S
C3627 C3624 1.386 . S
C3628 C3623 1.490 . S
C3628 C3630 1.395 . S
C3628 C3631 1.403 . S
H3629 C3635 0.930 . S
C3630 H3616 0.930 . S
C3630 C3628 1.395 . S
C3630 C3633 1.403 . S
C3631 C3628 1.403 . S
C3631 C3632 1.524 . S
C3631 C3635 1.400 . S
C3632 H3617 0.960 . S
C3632 H3618 0.960 . S
C3632 H3619 0.960 . S
C3632 C3631 1.524 . S
C3633 C3630 1.403 . S
C3633 C3634 1.392 . S
C3633 C3637 1.495 . S
C3634 C3633 1.392 . S
C3634 C3635 1.385 . S
C3634 C3636 1.478 . S
C3635 H3629 0.930 . S
C3635 C3631 1.400 . S
C3635 C3634 1.385 . S
C3636 C3634 1.478 . S
C3636 C3638 1.381 . S
C3636 C3642 1.383 . S
C3637 C3633 1.495 . S
C3637 H3643 0.959 . S
C3637 H3644 0.961 . S
C3637 H3645 0.960 . S
C3638 C3636 1.381 . S
C3638 C3639 1.394 . S
C3638 H3646 0.930 . S
C3639 C3638 1.394 . S
C3639 C3640 1.383 . S
C3639 H3647 0.929 . S
C3640 C3639 1.383 . S
C3640 C3641 1.377 . S
C3641 H3625 0.930 . S
C3641 C3640 1.377 . S
C3641 C3642 1.379 . S
C3642 H3626 0.931 . S
C3642 C3636 1.383 . S
C3642 C3641 1.379 . S
H3643 C3637 0.959 . S
H3644 C3637 0.961 . S
H3645 C3637 0.960 . S
H3646 C3638 0.930 . S
H3647 C3639 0.929 . S
H3648 C3656 0.929 . S
H3649 C3658 0.930 . S
H3650 C3660 0.930 . S
H3651 C3663 0.929 . S
H3652 C3666 0.930 . S
H3653 C3668 0.960 . S
H3654 C3668 0.960 . S
H3655 C3668 0.960 . S
C3656 H3648 0.929 . S
C3656 C3657 1.377 . S
C3656 C3658 1.384 . S
C3657 C3656 1.377 . S
C3657 C3663 1.390 . S
C3658 H3649 0.930 . S
C3658 C3656 1.384 . S
C3658 C3659 1.372 . S
C3659 C3658 1.372 . S
C3659 C3660 1.400 . S
C3659 C3664 1.490 . S
C3660 H3650 0.930 . S
C3660 C3659 1.400 . S
C3660 C3663 1.386 . S
H3661 C3677 0.930 . S
H3662 C3678 0.931 . S
C3663 H3651 0.929 . S
C3663 C3657 1.390 . S
C3663 C3660 1.386 . S
C3664 C3659 1.490 . S
C3664 C3666 1.395 . S
C3664 C3667 1.403 . S
H3665 C3671 0.930 . S
C3666 H3652 0.930 . S
C3666 C3664 1.395 . S
C3666 C3669 1.403 . S
C3667 C3664 1.403 . S
C3667 C3668 1.524 . S
C3667 C3671 1.400 . S
C3668 H3653 0.960 . S
C3668 H3654 0.960 . S
C3668 H3655 0.960 . S
C3668 C3667 1.524 . S
C3669 C3666 1.403 . S
C3669 C3670 1.392 . S
C3669 C3673 1.495 . S
C3670 C3669 1.392 . S
C3670 C3671 1.385 . S
C3670 C3672 1.478 . S
C3671 H3665 0.930 . S
C3671 C3667 1.400 . S
C3671 C3670 1.385 . S
C3672 C3670 1.478 . S
C3672 C3674 1.381 . S
C3672 C3678 1.383 . S
C3673 C3669 1.495 . S
C3673 H3679 0.959 . S
C3673 H3680 0.961 . S
C3673 H3681 0.960 . S
C3674 C3672 1.381 . S
C3674 C3675 1.394 . S
C3674 H3682 0.930 . S
C3675 C3674 1.394 . S
C3675 C3676 1.383 . S
C3675 H3683 0.929 . S
C3676 C3675 1.383 . S
C3676 C3677 1.377 . S
C3677 H3661 0.930 . S
C3677 C3676 1.377 . S
C3677 C3678 1.379 . S
C3678 H3662 0.931 . S
C3678 C3672 1.383 . S
C3678 C3677 1.379 . S
H3679 C3673 0.959 . S
H3680 C3673 0.961 . S
H3681 C3673 0.960 . S
H3682 C3674 0.930 . S
H3683 C3675 0.929 . S
H3684 C3692 0.929 . S
H3685 C3694 0.930 . S
H3686 C3696 0.930 . S
H3687 C3699 0.929 . S
H3688 C3702 0.930 . S
H3689 C3704 0.960 . S
H3690 C3704 0.960 . S
H3691 C3704 0.960 . S
C3692 H3684 0.929 . S
C3692 C3693 1.377 . S
C3692 C3694 1.384 . S
C3693 C3692 1.377 . S
C3693 C3699 1.390 . S
C3694 H3685 0.930 . S
C3694 C3692 1.384 . S
C3694 C3695 1.372 . S
C3695 C3694 1.372 . S
C3695 C3696 1.400 . S
C3695 C3700 1.490 . S
C3696 H3686 0.930 . S
C3696 C3695 1.400 . S
C3696 C3699 1.386 . S
H3697 C3713 0.930 . S
H3698 C3714 0.931 . S
C3699 H3687 0.929 . S
C3699 C3693 1.390 . S
C3699 C3696 1.386 . S
C3700 C3695 1.490 . S
C3700 C3702 1.395 . S
C3700 C3703 1.403 . S
H3701 C3707 0.930 . S
C3702 H3688 0.930 . S
C3702 C3700 1.395 . S
C3702 C3705 1.403 . S
C3703 C3700 1.403 . S
C3703 C3704 1.524 . S
C3703 C3707 1.400 . S
C3704 H3689 0.960 . S
C3704 H3690 0.960 . S
C3704 H3691 0.960 . S
C3704 C3703 1.524 . S
C3705 C3702 1.403 . S
C3705 C3706 1.392 . S
C3705 C3709 1.495 . S
C3706 C3705 1.392 . S
C3706 C3707 1.385 . S
C3706 C3708 1.478 . S
C3707 H3701 0.930 . S
C3707 C3703 1.400 . S
C3707 C3706 1.385 . S
C3708 C3706 1.478 . S
C3708 C3710 1.381 . S
C3708 C3714 1.383 . S
C3709 C3705 1.495 . S
C3709 H3715 0.959 . S
C3709 H3716 0.961 . S
C3709 H3717 0.960 . S
C3710 C3708 1.381 . S
C3710 C3711 1.394 . S
C3710 H3718 0.930 . S
C3711 C3710 1.394 . S
C3711 C3712 1.383 . S
C3711 H3719 0.929 . S
C3712 C3711 1.383 . S
C3712 C3713 1.377 . S
C3713 H3697 0.930 . S
C3713 C3712 1.377 . S
C3713 C3714 1.379 . S
C3714 H3698 0.931 . S
C3714 C3708 1.383 . S
C3714 C3713 1.379 . S
H3715 C3709 0.959 . S
H3716 C3709 0.961 . S
H3717 C3709 0.960 . S
H3718 C3710 0.930 . S
H3719 C3711 0.929 . S
H3720 C3728 0.929 . S
H3721 C3730 0.930 . S
H3722 C3732 0.930 . S
H3723 C3735 0.929 . S
H3724 C3738 0.930 . S
H3725 C3740 0.960 . S
H3726 C3740 0.960 . S
H3727 C3740 0.960 . S
C3728 H3720 0.929 . S
C3728 C3729 1.377 . S
C3728 C3730 1.384 . S
C3729 C3728 1.377 . S
C3729 C3735 1.390 . S
C3730 H3721 0.930 . S
C3730 C3728 1.384 . S
C3730 C3731 1.372 . S
C3731 C3730 1.372 . S
C3731 C3732 1.400 . S
C3731 C3736 1.490 . S
C3732 H3722 0.930 . S
C3732 C3731 1.400 . S
C3732 C3735 1.386 . S
H3733 C3749 0.930 . S
H3734 C3750 0.931 . S
C3735 H3723 0.929 . S
C3735 C3729 1.390 . S
C3735 C3732 1.386 . S
C3736 C3731 1.490 . S
C3736 C3738 1.395 . S
C3736 C3739 1.403 . S
H3737 C3743 0.930 . S
C3738 H3724 0.930 . S
C3738 C3736 1.395 . S
C3738 C3741 1.403 . S
C3739 C3736 1.403 . S
C3739 C3740 1.524 . S
C3739 C3743 1.400 . S
C3740 H3725 0.960 . S
C3740 H3726 0.960 . S
C3740 H3727 0.960 . S
C3740 C3739 1.524 . S
C3741 C3738 1.403 . S
C3741 C3742 1.392 . S
C3741 C3745 1.495 . S
C3742 C3741 1.392 . S
C3742 C3743 1.385 . S
C3742 C3744 1.478 . S
C3743 H3737 0.930 . S
C3743 C3739 1.400 . S
C3743 C3742 1.385 . S
C3744 C3742 1.478 . S
C3744 C3746 1.381 . S
C3744 C3750 1.383 . S
C3745 C3741 1.495 . S
C3745 H3751 0.959 . S
C3745 H3752 0.961 . S
C3745 H3753 0.960 . S
C3746 C3744 1.381 . S
C3746 C3747 1.394 . S
C3746 H3754 0.930 . S
C3747 C3746 1.394 . S
C3747 C3748 1.383 . S
C3747 H3755 0.929 . S
C3748 C3747 1.383 . S
C3748 C3749 1.377 . S
C3749 H3733 0.930 . S
C3749 C3748 1.377 . S
C3749 C3750 1.379 . S
C3750 H3734 0.931 . S
C3750 C3744 1.383 . S
C3750 C3749 1.379 . S
H3751 C3745 0.959 . S
H3752 C3745 0.961 . S
H3753 C3745 0.960 . S
H3754 C3746 0.930 . S
H3755 C3747 0.929 . S
H3756 C3764 0.929 . S
H3757 C3766 0.930 . S
H3758 C3768 0.930 . S
H3759 C3771 0.929 . S
H3760 C3774 0.930 . S
H3761 C3776 0.960 . S
H3762 C3776 0.960 . S
H3763 C3776 0.960 . S
C3764 H3756 0.929 . S
C3764 C3765 1.377 . S
C3764 C3766 1.384 . S
C3765 C3764 1.377 . S
C3765 C3771 1.390 . S
C3766 H3757 0.930 . S
C3766 C3764 1.384 . S
C3766 C3767 1.372 . S
C3767 C3766 1.372 . S
C3767 C3768 1.400 . S
C3767 C3772 1.490 . S
C3768 H3758 0.930 . S
C3768 C3767 1.400 . S
C3768 C3771 1.386 . S
H3769 C3785 0.930 . S
H3770 C3786 0.931 . S
C3771 H3759 0.929 . S
C3771 C3765 1.390 . S
C3771 C3768 1.386 . S
C3772 C3767 1.490 . S
C3772 C3774 1.395 . S
C3772 C3775 1.403 . S
H3773 C3779 0.930 . S
C3774 H3760 0.930 . S
C3774 C3772 1.395 . S
C3774 C3777 1.403 . S
C3775 C3772 1.403 . S
C3775 C3776 1.524 . S
C3775 C3779 1.400 . S
C3776 H3761 0.960 . S
C3776 H3762 0.960 . S
C3776 H3763 0.960 . S
C3776 C3775 1.524 . S
C3777 C3774 1.403 . S
C3777 C3778 1.392 . S
C3777 C3781 1.495 . S
C3778 C3777 1.392 . S
C3778 C3779 1.385 . S
C3778 C3780 1.478 . S
C3779 H3773 0.930 . S
C3779 C3775 1.400 . S
C3779 C3778 1.385 . S
C3780 C3778 1.478 . S
C3780 C3782 1.381 . S
C3780 C3786 1.383 . S
C3781 C3777 1.495 . S
C3781 H3787 0.959 . S
C3781 H3788 0.961 . S
C3781 H3789 0.960 . S
C3782 C3780 1.381 . S
C3782 C3783 1.394 . S
C3782 H3790 0.930 . S
C3783 C3782 1.394 . S
C3783 C3784 1.383 . S
C3783 H3791 0.929 . S
C3784 C3783 1.383 . S
C3784 C3785 1.377 . S
C3785 H3769 0.930 . S
C3785 C3784 1.377 . S
C3785 C3786 1.379 . S
C3786 H3770 0.931 . S
C3786 C3780 1.383 . S
C3786 C3785 1.379 . S
H3787 C3781 0.959 . S
H3788 C3781 0.961 . S
H3789 C3781 0.960 . S
H3790 C3782 0.930 . S
H3791 C3783 0.929 . S
H3792 C3800 0.929 . S
H3793 C3802 0.930 . S
H3794 C3804 0.930 . S
H3795 C3807 0.929 . S
H3796 C3810 0.930 . S
H3797 C3812 0.960 . S
H3798 C3812 0.960 . S
H3799 C3812 0.960 . S
C3800 H3792 0.929 . S
C3800 C3801 1.377 . S
C3800 C3802 1.384 . S
C3801 C3800 1.377 . S
C3801 C3807 1.390 . S
C3802 H3793 0.930 . S
C3802 C3800 1.384 . S
C3802 C3803 1.372 . S
C3803 C3802 1.372 . S
C3803 C3804 1.400 . S
C3803 C3808 1.490 . S
C3804 H3794 0.930 . S
C3804 C3803 1.400 . S
C3804 C3807 1.386 . S
H3805 C3821 0.930 . S
H3806 C3822 0.931 . S
C3807 H3795 0.929 . S
C3807 C3801 1.390 . S
C3807 C3804 1.386 . S
C3808 C3803 1.490 . S
C3808 C3810 1.395 . S
C3808 C3811 1.403 . S
H3809 C3815 0.930 . S
C3810 H3796 0.930 . S
C3810 C3808 1.395 . S
C3810 C3813 1.403 . S
C3811 C3808 1.403 . S
C3811 C3812 1.524 . S
C3811 C3815 1.400 . S
C3812 H3797 0.960 . S
C3812 H3798 0.960 . S
C3812 H3799 0.960 . S
C3812 C3811 1.524 . S
C3813 C3810 1.403 . S
C3813 C3814 1.392 . S
C3813 C3817 1.495 . S
C3814 C3813 1.392 . S
C3814 C3815 1.385 . S
C3814 C3816 1.478 . S
C3815 H3809 0.930 . S
C3815 C3811 1.400 . S
C3815 C3814 1.385 . S
C3816 C3814 1.478 . S
C3816 C3818 1.381 . S
C3816 C3822 1.383 . S
C3817 C3813 1.495 . S
C3817 H3823 0.959 . S
C3817 H3824 0.961 . S
C3817 H3825 0.960 . S
C3818 C3816 1.381 . S
C3818 C3819 1.394 . S
C3818 H3826 0.930 . S
C3819 C3818 1.394 . S
C3819 C3820 1.383 . S
C3819 H3827 0.929 . S
C3820 C3819 1.383 . S
C3820 C3821 1.377 . S
C3821 H3805 0.930 . S
C3821 C3820 1.377 . S
C3821 C3822 1.379 . S
C3822 H3806 0.931 . S
C3822 C3816 1.383 . S
C3822 C3821 1.379 . S
H3823 C3817 0.959 . S
H3824 C3817 0.961 . S
H3825 C3817 0.960 . S
H3826 C3818 0.930 . S
H3827 C3819 0.929 . S
H3828 C3836 0.929 . S
H3829 C3838 0.930 . S
H3830 C3840 0.930 . S
H3831 C3843 0.929 . S
H3832 C3846 0.930 . S
H3833 C3848 0.960 . S
H3834 C3848 0.960 . S
H3835 C3848 0.960 . S
C3836 H3828 0.929 . S
C3836 C3837 1.377 . S
C3836 C3838 1.384 . S
C3837 C3836 1.377 . S
C3837 C3843 1.390 . S
C3838 H3829 0.930 . S
C3838 C3836 1.384 . S
C3838 C3839 1.372 . S
C3839 C3838 1.372 . S
C3839 C3840 1.400 . S
C3839 C3844 1.490 . S
C3840 H3830 0.930 . S
C3840 C3839 1.400 . S
C3840 C3843 1.386 . S
H3841 C3857 0.930 . S
H3842 C3858 0.931 . S
C3843 H3831 0.929 . S
C3843 C3837 1.390 . S
C3843 C3840 1.386 . S
C3844 C3839 1.490 . S
C3844 C3846 1.395 . S
C3844 C3847 1.403 . S
H3845 C3851 0.930 . S
C3846 H3832 0.930 . S
C3846 C3844 1.395 . S
C3846 C3849 1.403 . S
C3847 C3844 1.403 . S
C3847 C3848 1.524 . S
C3847 C3851 1.400 . S
C3848 H3833 0.960 . S
C3848 H3834 0.960 . S
C3848 H3835 0.960 . S
C3848 C3847 1.524 . S
C3849 C3846 1.403 . S
C3849 C3850 1.392 . S
C3849 C3853 1.495 . S
C3850 C3849 1.392 . S
C3850 C3851 1.385 . S
C3850 C3852 1.478 . S
C3851 H3845 0.930 . S
C3851 C3847 1.400 . S
C3851 C3850 1.385 . S
C3852 C3850 1.478 . S
C3852 C3854 1.381 . S
C3852 C3858 1.383 . S
C3853 C3849 1.495 . S
C3853 H3859 0.959 . S
C3853 H3860 0.961 . S
C3853 H3861 0.960 . S
C3854 C3852 1.381 . S
C3854 C3855 1.394 . S
C3854 H3862 0.930 . S
C3855 C3854 1.394 . S
C3855 C3856 1.383 . S
C3855 H3863 0.929 . S
C3856 C3855 1.383 . S
C3856 C3857 1.377 . S
C3857 H3841 0.930 . S
C3857 C3856 1.377 . S
C3857 C3858 1.379 . S
C3858 H3842 0.931 . S
C3858 C3852 1.383 . S
C3858 C3857 1.379 . S
H3859 C3853 0.959 . S
H3860 C3853 0.961 . S
H3861 C3853 0.960 . S
H3862 C3854 0.930 . S
H3863 C3855 0.929 . S
H3864 C3872 0.929 . S
H3865 C3874 0.930 . S
H3866 C3876 0.930 . S
H3867 C3879 0.929 . S
H3868 C3882 0.930 . S
H3869 C3884 0.960 . S
H3870 C3884 0.960 . S
H3871 C3884 0.960 . S
C3872 H3864 0.929 . S
C3872 C3873 1.377 . S
C3872 C3874 1.384 . S
C3873 C3872 1.377 . S
C3873 C3879 1.390 . S
C3874 H3865 0.930 . S
C3874 C3872 1.384 . S
C3874 C3875 1.372 . S
C3875 C3874 1.372 . S
C3875 C3876 1.400 . S
C3875 C3880 1.490 . S
C3876 H3866 0.930 . S
C3876 C3875 1.400 . S
C3876 C3879 1.386 . S
H3877 C3893 0.930 . S
H3878 C3894 0.931 . S
C3879 H3867 0.929 . S
C3879 C3873 1.390 . S
C3879 C3876 1.386 . S
C3880 C3875 1.490 . S
C3880 C3882 1.395 . S
C3880 C3883 1.403 . S
H3881 C3887 0.930 . S
C3882 H3868 0.930 . S
C3882 C3880 1.395 . S
C3882 C3885 1.403 . S
C3883 C3880 1.403 . S
C3883 C3884 1.524 . S
C3883 C3887 1.400 . S
C3884 H3869 0.960 . S
C3884 H3870 0.960 . S
C3884 H3871 0.960 . S
C3884 C3883 1.524 . S
C3885 C3882 1.403 . S
C3885 C3886 1.392 . S
C3885 C3889 1.495 . S
C3886 C3885 1.392 . S
C3886 C3887 1.385 . S
C3886 C3888 1.478 . S
C3887 H3881 0.930 . S
C3887 C3883 1.400 . S
C3887 C3886 1.385 . S
C3888 C3886 1.478 . S
C3888 C3890 1.381 . S
C3888 C3894 1.383 . S
C3889 C3885 1.495 . S
C3889 H3895 0.959 . S
C3889 H3896 0.961 . S
C3889 H3897 0.960 . S
C3890 C3888 1.381 . S
C3890 C3891 1.394 . S
C3890 H3898 0.930 . S
C3891 C3890 1.394 . S
C3891 C3892 1.383 . S
C3891 H3899 0.929 . S
C3892 C3891 1.383 . S
C3892 C3893 1.377 . S
C3893 H3877 0.930 . S
C3893 C3892 1.377 . S
C3893 C3894 1.379 . S
C3894 H3878 0.931 . S
C3894 C3888 1.383 . S
C3894 C3893 1.379 . S
H3895 C3889 0.959 . S
H3896 C3889 0.961 . S
H3897 C3889 0.960 . S
H3898 C3890 0.930 . S
H3899 C3891 0.929 . S
H3900 C3908 0.929 . S
H3901 C3910 0.930 . S
H3902 C3912 0.930 . S
H3903 C3915 0.929 . S
H3904 C3918 0.930 . S
H3905 C3920 0.960 . S
H3906 C3920 0.960 . S
H3907 C3920 0.960 . S
C3908 H3900 0.929 . S
C3908 C3909 1.377 . S
C3908 C3910 1.384 . S
C3909 C3908 1.377 . S
C3909 C3915 1.390 . S
C3910 H3901 0.930 . S
C3910 C3908 1.384 . S
C3910 C3911 1.372 . S
C3911 C3910 1.372 . S
C3911 C3912 1.400 . S
C3911 C3916 1.490 . S
C3912 H3902 0.930 . S
C3912 C3911 1.400 . S
C3912 C3915 1.386 . S
H3913 C3929 0.930 . S
H3914 C3930 0.931 . S
C3915 H3903 0.929 . S
C3915 C3909 1.390 . S
C3915 C3912 1.386 . S
C3916 C3911 1.490 . S
C3916 C3918 1.395 . S
C3916 C3919 1.403 . S
H3917 C3923 0.930 . S
C3918 H3904 0.930 . S
C3918 C3916 1.395 . S
C3918 C3921 1.403 . S
C3919 C3916 1.403 . S
C3919 C3920 1.524 . S
C3919 C3923 1.400 . S
C3920 H3905 0.960 . S
C3920 H3906 0.960 . S
C3920 H3907 0.960 . S
C3920 C3919 1.524 . S
C3921 C3918 1.403 . S
C3921 C3922 1.392 . S
C3921 C3925 1.495 . S
C3922 C3921 1.392 . S
C3922 C3923 1.385 . S
C3922 C3924 1.478 . S
C3923 H3917 0.930 . S
C3923 C3919 1.400 . S
C3923 C3922 1.385 . S
C3924 C3922 1.478 . S
C3924 C3926 1.381 . S
C3924 C3930 1.383 . S
C3925 C3921 1.495 . S
C3925 H3931 0.959 . S
C3925 H3932 0.961 . S
C3925 H3933 0.960 . S
C3926 C3924 1.381 . S
C3926 C3927 1.394 . S
C3926 H3934 0.930 . S
C3927 C3926 1.394 . S
C3927 C3928 1.383 . S
C3927 H3935 0.929 . S
C3928 C3927 1.383 . S
C3928 C3929 1.377 . S
C3929 H3913 0.930 . S
C3929 C3928 1.377 . S
C3929 C3930 1.379 . S
C3930 H3914 0.931 . S
C3930 C3924 1.383 . S
C3930 C3929 1.379 . S
H3931 C3925 0.959 . S
H3932 C3925 0.961 . S
H3933 C3925 0.960 . S
H3934 C3926 0.930 . S
H3935 C3927 0.929 . S
H3936 C3944 0.929 . S
H3937 C3946 0.930 . S
H3938 C3948 0.930 . S
H3939 C3951 0.929 . S
H3940 C3954 0.930 . S
H3941 C3956 0.960 . S
H3942 C3956 0.960 . S
H3943 C3956 0.960 . S
C3944 H3936 0.929 . S
C3944 C3945 1.377 . S
C3944 C3946 1.384 . S
C3945 C3944 1.377 . S
C3945 C3951 1.390 . S
C3946 H3937 0.930 . S
C3946 C3944 1.384 . S
C3946 C3947 1.372 . S
C3947 C3946 1.372 . S
C3947 C3948 1.400 . S
C3947 C3952 1.490 . S
C3948 H3938 0.930 . S
C3948 C3947 1.400 . S
C3948 C3951 1.386 . S
H3949 C3965 0.930 . S
H3950 C3966 0.931 . S
C3951 H3939 0.929 . S
C3951 C3945 1.390 . S
C3951 C3948 1.386 . S
C3952 C3947 1.490 . S
C3952 C3954 1.395 . S
C3952 C3955 1.403 . S
H3953 C3959 0.930 . S
C3954 H3940 0.930 . S
C3954 C3952 1.395 . S
C3954 C3957 1.403 . S
C3955 C3952 1.403 . S
C3955 C3956 1.524 . S
C3955 C3959 1.400 . S
C3956 H3941 0.960 . S
C3956 H3942 0.960 . S
C3956 H3943 0.960 . S
C3956 C3955 1.524 . S
C3957 C3954 1.403 . S
C3957 C3958 1.392 . S
C3957 C3961 1.495 . S
C3958 C3957 1.392 . S
C3958 C3959 1.385 . S
C3958 C3960 1.478 . S
C3959 H3953 0.930 . S
C3959 C3955 1.400 . S
C3959 C3958 1.385 . S
C3960 C3958 1.478 . S
C3960 C3962 1.381 . S
C3960 C3966 1.383 . S
C3961 C3957 1.495 . S
C3961 H3967 0.959 . S
C3961 H3968 0.961 . S
C3961 H3969 0.960 . S
C3962 C3960 1.381 . S
C3962 C3963 1.394 . S
C3962 H3970 0.930 . S
C3963 C3962 1.394 . S
C3963 C3964 1.383 . S
C3963 H3971 0.929 . S
C3964 C3963 1.383 . S
C3964 C3965 1.377 . S
C3965 H3949 0.930 . S
C3965 C3964 1.377 . S
C3965 C3966 1.379 . S
C3966 H3950 0.931 . S
C3966 C3960 1.383 . S
C3966 C3965 1.379 . S
H3967 C3961 0.959 . S
H3968 C3961 0.961 . S
H3969 C3961 0.960 . S
H3970 C3962 0.930 . S
H3971 C3963 0.929 . S
H3972 C3980 0.929 . S
H3973 C3982 0.930 . S
H3974 C3984 0.930 . S
H3975 C3987 0.929 . S
H3976 C3990 0.930 . S
H3977 C3992 0.960 . S
H3978 C3992 0.960 . S
H3979 C3992 0.960 . S
C3980 H3972 0.929 . S
C3980 C3981 1.377 . S
C3980 C3982 1.384 . S
C3981 C3980 1.377 . S
C3981 C3987 1.390 . S
C3982 H3973 0.930 . S
C3982 C3980 1.384 . S
C3982 C3983 1.372 . S
C3983 C3982 1.372 . S
C3983 C3984 1.400 . S
C3983 C3988 1.490 . S
C3984 H3974 0.930 . S
C3984 C3983 1.400 . S
C3984 C3987 1.386 . S
H3985 C4001 0.930 . S
H3986 C4002 0.931 . S
C3987 H3975 0.929 . S
C3987 C3981 1.390 . S
C3987 C3984 1.386 . S
C3988 C3983 1.490 . S
C3988 C3990 1.395 . S
C3988 C3991 1.403 . S
H3989 C3995 0.930 . S
C3990 H3976 0.930 . S
C3990 C3988 1.395 . S
C3990 C3993 1.403 . S
C3991 C3988 1.403 . S
C3991 C3992 1.524 . S
C3991 C3995 1.400 . S
C3992 H3977 0.960 . S
C3992 H3978 0.960 . S
C3992 H3979 0.960 . S
C3992 C3991 1.524 . S
C3993 C3990 1.403 . S
C3993 C3994 1.392 . S
C3993 C3997 1.495 . S
C3994 C3993 1.392 . S
C3994 C3995 1.385 . S
C3994 C3996 1.478 . S
C3995 H3989 0.930 . S
C3995 C3991 1.400 . S
C3995 C3994 1.385 . S
C3996 C3994 1.478 . S
C3996 C3998 1.381 . S
C3996 C4002 1.383 . S
C3997 C3993 1.495 . S
C3997 H4003 0.959 . S
C3997 H4004 0.961 . S
C3997 H4005 0.960 . S
C3998 C3996 1.381 . S
C3998 C3999 1.394 . S
C3998 H4006 0.930 . S
C3999 C3998 1.394 . S
C3999 C4000 1.383 . S
C3999 H4007 0.929 . S
C4000 C3999 1.383 . S
C4000 C4001 1.377 . S
C4001 H3985 0.930 . S
C4001 C4000 1.377 . S
C4001 C4002 1.379 . S
C4002 H3986 0.931 . S
C4002 C3996 1.383 . S
C4002 C4001 1.379 . S
H4003 C3997 0.959 . S
H4004 C3997 0.961 . S
H4005 C3997 0.960 . S
H4006 C3998 0.930 . S
H4007 C3999 0.929 . S
H4008 C4016 0.929 . S
H4009 C4018 0.930 . S
H4010 C4020 0.930 . S
H4011 C4023 0.929 . S
H4012 C4026 0.930 . S
H4013 C4028 0.960 . S
H4014 C4028 0.960 . S
H4015 C4028 0.960 . S
C4016 H4008 0.929 . S
C4016 C4017 1.377 . S
C4016 C4018 1.384 . S
C4017 C4016 1.377 . S
C4017 C4023 1.390 . S
C4018 H4009 0.930 . S
C4018 C4016 1.384 . S
C4018 C4019 1.372 . S
C4019 C4018 1.372 . S
C4019 C4020 1.400 . S
C4019 C4024 1.490 . S
C4020 H4010 0.930 . S
C4020 C4019 1.400 . S
C4020 C4023 1.386 . S
H4021 C4037 0.930 . S
H4022 C4038 0.931 . S
C4023 H4011 0.929 . S
C4023 C4017 1.390 . S
C4023 C4020 1.386 . S
C4024 C4019 1.490 . S
C4024 C4026 1.395 . S
C4024 C4027 1.403 . S
H4025 C4031 0.930 . S
C4026 H4012 0.930 . S
C4026 C4024 1.395 . S
C4026 C4029 1.403 . S
C4027 C4024 1.403 . S
C4027 C4028 1.524 . S
C4027 C4031 1.400 . S
C4028 H4013 0.960 . S
C4028 H4014 0.960 . S
C4028 H4015 0.960 . S
C4028 C4027 1.524 . S
C4029 C4026 1.403 . S
C4029 C4030 1.392 . S
C4029 C4033 1.495 . S
C4030 C4029 1.392 . S
C4030 C4031 1.385 . S
C4030 C4032 1.478 . S
C4031 H4025 0.930 . S
C4031 C4027 1.400 . S
C4031 C4030 1.385 . S
C4032 C4030 1.478 . S
C4032 C4034 1.381 . S
C4032 C4038 1.383 . S
C4033 C4029 1.495 . S
C4033 H4039 0.959 . S
C4033 H4040 0.961 . S
C4033 H4041 0.960 . S
C4034 C4032 1.381 . S
C4034 C4035 1.394 . S
C4034 H4042 0.930 . S
C4035 C4034 1.394 . S
C4035 C4036 1.383 . S
C4035 H4043 0.929 . S
C4036 C4035 1.383 . S
C4036 C4037 1.377 . S
C4037 H4021 0.930 . S
C4037 C4036 1.377 . S
C4037 C4038 1.379 . S
C4038 H4022 0.931 . S
C4038 C4032 1.383 . S
C4038 C4037 1.379 . S
H4039 C4033 0.959 . S
H4040 C4033 0.961 . S
H4041 C4033 0.960 . S
H4042 C4034 0.930 . S
H4043 C4035 0.929 . S
H4044 C4052 0.929 . S
H4045 C4054 0.930 . S
H4046 C4056 0.930 . S
H4047 C4059 0.929 . S
H4048 C4062 0.930 . S
H4049 C4064 0.960 . S
H4050 C4064 0.960 . S
H4051 C4064 0.960 . S
C4052 H4044 0.929 . S
C4052 C4053 1.377 . S
C4052 C4054 1.384 . S
C4053 C4052 1.377 . S
C4053 C4059 1.390 . S
C4054 H4045 0.930 . S
C4054 C4052 1.384 . S
C4054 C4055 1.372 . S
C4055 C4054 1.372 . S
C4055 C4056 1.400 . S
C4055 C4060 1.490 . S
C4056 H4046 0.930 . S
C4056 C4055 1.400 . S
C4056 C4059 1.386 . S
H4057 C4073 0.930 . S
H4058 C4074 0.931 . S
C4059 H4047 0.929 . S
C4059 C4053 1.390 . S
C4059 C4056 1.386 . S
C4060 C4055 1.490 . S
C4060 C4062 1.395 . S
C4060 C4063 1.403 . S
H4061 C4067 0.930 . S
C4062 H4048 0.930 . S
C4062 C4060 1.395 . S
C4062 C4065 1.403 . S
C4063 C4060 1.403 . S
C4063 C4064 1.524 . S
C4063 C4067 1.400 . S
C4064 H4049 0.960 . S
C4064 H4050 0.960 . S
C4064 H4051 0.960 . S
C4064 C4063 1.524 . S
C4065 C4062 1.403 . S
C4065 C4066 1.392 . S
C4065 C4069 1.495 . S
C4066 C4065 1.392 . S
C4066 C4067 1.385 . S
C4066 C4068 1.478 . S
C4067 H4061 0.930 . S
C4067 C4063 1.400 . S
C4067 C4066 1.385 . S
C4068 C4066 1.478 . S
C4068 C4070 1.381 . S
C4068 C4074 1.383 . S
C4069 C4065 1.495 . S
C4069 H4075 0.959 . S
C4069 H4076 0.961 . S
C4069 H4077 0.960 . S
C4070 C4068 1.381 . S
C4070 C4071 1.394 . S
C4070 H4078 0.930 . S
C4071 C4070 1.394 . S
C4071 C4072 1.383 . S
C4071 H4079 0.929 . S
C4072 C4071 1.383 . S
C4072 C4073 1.377 . S
C4073 H4057 0.930 . S
C4073 C4072 1.377 . S
C4073 C4074 1.379 . S
C4074 H4058 0.931 . S
C4074 C4068 1.383 . S
C4074 C4073 1.379 . S
H4075 C4069 0.959 . S
H4076 C4069 0.961 . S
H4077 C4069 0.960 . S
H4078 C4070 0.930 . S
H4079 C4071 0.929 . S
C633 C82 1.318 . S
C652 C4 1.305 . S
C669 C17 1.318 . S
C688 C101 1.305 . S
C705 C36 1.319 . S
C724 C62 1.324 . S
C741 C69 1.317 . S
C760 C43 1.305 . S
C777 C446 1.318 . S
C796 C114 1.305 . S
C813 C459 1.320 . S
C832 C127 1.316 . S
C849 C134 1.318 . S
C868 C426 1.305 . S
C885 C147 1.316 . S
C904 C433 1.322 . S
C921 C504 1.319 . S
C940 C160 1.306 . S
C957 C517 1.319 . S
C976 C179 1.307 . S
C993 C472 1.318 . S
C1012 C192 1.305 . S
C1029 C485 1.318 . S
C1048 C199 1.325 . S
C1065 C212 1.316 . S
C1084 C543 1.320 . S
C1101 C231 1.319 . S
C1120 C530 1.322 . S
C1137 C244 1.316 . S
C1156 C303 1.309 . S
C1173 C589 1.318 . S
C1192 C257 1.305 . S
C1209 C602 1.318 . S
C1228 C270 1.325 . S
C1245 C563 1.316 . S
C1264 C283 1.321 . S
C1281 C576 1.316 . S
C1300 C296 1.323 . S
C1317 C400 1.319 . S
C1336 C322 1.318 . S
C1353 C407 1.318 . S
C1372 C335 1.325 . S
C1389 C342 1.317 . S
C1408 C374 1.304 . S
C1425 C355 1.316 . S
C1444 C381 1.308 . S
C1461 C615 1.317 . S
C1480 C556 1.305 . S
C1497 C211 1.096 . S
C1516 C5 1.090 . S
C1533 C18 1.105 1_655 S
C1552 C614 1.097 . S
C1569 C29 1.106 . S
C1588 C278 1.075 . S
C1605 C601 1.086 1_554 S
C1624 C44 1.104 . S
C1641 C55 1.100 . S
C1660 C538 1.096 . S
C1677 C551 1.086 . S
C1696 C70 1.107 . S
C1713 C83 1.103 . S
C1732 C562 1.113 . S
C1749 C265 1.096 1_556 S
C1768 C94 1.045 1_655 S
C1785 C107 1.105 . S
C1804 C3 1.095 . S
C1821 C16 1.096 1_545 S
C1840 C120 1.103 . S
C1857 C135 1.102 . S
C1876 C31 1.114 . S
C1893 C148 1.106 1_554 S
C1912 C42 1.087 1_565 S
C1929 C161 1.101 . S
C1948 C57 1.112 . S
C1965 C68 1.086 1_545 S
C1984 C172 1.108 . S
C2001 C185 1.102 . S
C2020 C81 1.070 . S
C2037 C200 1.102 1_556 S
C2056 C96 1.114 1_565 S
C2073 C213 1.105 . S
C2092 C109 1.090 . S
C2109 C224 1.104 . S
C2128 C471 1.106 . S
C2145 C484 1.097 1_455 S
C2164 C237 1.094 . S
C2181 C499 1.096 . S
C2200 C250 1.102 . S
C2217 C263 1.105 1_565 S
C2236 C198 1.100 1_655 S
C2253 C276 1.102 . S
C2272 C133 1.072 . S
C2289 C458 1.097 1_455 S
C2308 C289 1.099 . S
C2325 C432 1.097 . S
C2344 C304 1.096 . S
C2361 C315 1.105 . S
C2380 C525 1.102 . S
C2397 C328 1.106 . S
C2416 C302 1.091 1_554 S
C2433 C343 1.104 . S
C2452 C588 1.065 . S
C2469 C356 1.106 1_455 S
C2488 C291 1.072 . S
C2505 C367 1.103 . S
C2524 C226 1.069 . S
C2541 C239 1.097 1_556 S
C2560 C382 1.062 1_455 S
C2577 C252 1.092 . S
C2596 C393 1.112 . S
C2613 C575 1.087 . S
C2632 C408 1.101 . S
C2649 C317 1.087 . S
C2668 C419 1.110 . S
C2685 C330 1.095 . S
C2704 C434 1.058 1_554 S
C2721 C447 1.101 . S
C2740 C341 1.092 . S
C2757 C354 1.096 . S
C2776 C460 1.101 . S
C2793 C473 1.102 . S
C2812 C369 1.070 . S
C2829 C380 1.096 . S
C2848 C486 1.063 1_556 S
C2865 C497 1.101 . S
C2884 C395 1.086 . S
C2901 C406 1.091 . S
C2920 C510 1.091 . S
C2937 C523 1.101 . S
C2956 C421 1.087 . S
C2973 C536 1.101 . S
C2992 C159 1.089 . S
C3009 C174 1.087 . S
C3028 C549 1.110 1_545 S
C3045 C564 1.100 . S
C3064 C187 1.093 . S
C3081 C577 1.103 . S
C3100 C512 1.114 . S
C3117 C445 1.086 . S
C3136 C590 1.105 . S
C3153 C603 1.102 1_565 S
C3172 C146 1.075 . S
C3189 C122 1.087 1_655 S
C3208 C616 1.112 1_545 S
C3225 C121 0.871 . S
C3244 C10 0.872 . S
C3261 C23 0.869 . S
C3280 C140 0.857 . S
C3297 C153 0.866 . S
C3316 C30 0.858 . S
C3333 C108 0.868 . S
C3352 C49 0.878 . S
C3369 C56 0.871 . S
C3388 C205 0.866 . S
C3405 C75 0.867 . S
C3424 C166 0.875 . S
C3441 C173 0.870 . S
C3460 C88 0.858 . S
C3477 C186 0.867 . S
C3496 C95 0.877 . S
C3513 C218 0.866 . S
C3532 C238 0.868 . S
C3549 C225 0.871 . S
C3568 C608 0.871 . S
C3585 C251 0.871 . S
C3604 C621 0.878 . S
C3621 C595 0.869 . S
C3640 C264 0.881 . S
C3657 C582 0.871 . S
C3676 C277 0.876 . S
C3693 C537 0.867 . S
C3712 C290 0.854 . S
C3729 C309 0.866 . S
C3748 C569 0.854 . S
C3765 C439 0.871 . S
C3784 C316 0.863 . S
C3801 C452 0.871 . S
C3820 C329 0.881 . S
C3837 C348 0.871 . S
C3856 C465 0.867 . S
C3873 C420 0.868 . S
C3892 C361 0.854 . S
C3909 C511 0.867 . S
C3928 C368 0.853 . S
C3945 C478 0.869 . S
C3964 C387 0.855 . S
C3981 C394 0.866 . S
C4000 C491 0.857 . S
C4017 C498 0.868 . S
C4036 C413 0.854 . S
C4053 C550 0.867 . S
C4072 C524 0.875 . S
