# Generated by pormake.
# Topology lcy-e, (6)-cn, num edge types: 1
# Building blocks:
#     Node 0, Type 0, BuildingBlock: BETGAK_clean_sbu_0, # of connection points: 6
#     Node 1, Type 0, BuildingBlock: BETGAK_clean_sbu_0, # of connection points: 6
#     Node 2, Type 0, BuildingBlock: BETGAK_clean_sbu_0, # of connection points: 6
#     Node 3, Type 0, BuildingBlock: BETGAK_clean_sbu_0, # of connection points: 6
#     Node 4, Type 0, BuildingBlock: BETGAK_clean_sbu_0, # of connection points: 6
#     Node 5, Type 0, BuildingBlock: BETGAK_clean_sbu_0, # of connection points: 6
#     Node 6, Type 0, BuildingBlock: BETGAK_clean_sbu_0, # of connection points: 6
#     Node 7, Type 0, BuildingBlock: BETGAK_clean_sbu_0, # of connection points: 6
#     Node 8, Type 0, BuildingBlock: BETGAK_clean_sbu_0, # of connection points: 6
#     Node 9, Type 0, BuildingBlock: BETGAK_clean_sbu_0, # of connection points: 6
#     Node 10, Type 0, BuildingBlock: BETGAK_clean_sbu_0, # of connection points: 6
#     Node 11, Type 0, BuildingBlock: BETGAK_clean_sbu_0, # of connection points: 6
#     Edge 12, Type (0, 0), BuildingBlock: OJICUG_clean_linker_0, # of connection points: 2
#     Edge 13, Type (0, 0), BuildingBlock: OJICUG_clean_linker_0, # of connection points: 2
#     Edge 14, Type (0, 0), BuildingBlock: OJICUG_clean_linker_0, # of connection points: 2
#     Edge 15, Type (0, 0), BuildingBlock: OJICUG_clean_linker_0, # of connection points: 2
#     Edge 16, Type (0, 0), BuildingBlock: OJICUG_clean_linker_0, # of connection points: 2
#     Edge 17, Type (0, 0), BuildingBlock: OJICUG_clean_linker_0, # of connection points: 2
#     Edge 18, Type (0, 0), BuildingBlock: OJICUG_clean_linker_0, # of connection points: 2
#     Edge 19, Type (0, 0), BuildingBlock: OJICUG_clean_linker_0, # of connection points: 2
#     Edge 20, Type (0, 0), BuildingBlock: OJICUG_clean_linker_0, # of connection points: 2
#     Edge 21, Type (0, 0), BuildingBlock: OJICUG_clean_linker_0, # of connection points: 2
#     Edge 22, Type (0, 0), BuildingBlock: OJICUG_clean_linker_0, # of connection points: 2
#     Edge 23, Type (0, 0), BuildingBlock: OJICUG_clean_linker_0, # of connection points: 2
#     Edge 24, Type (0, 0), BuildingBlock: OJICUG_clean_linker_0, # of connection points: 2
#     Edge 25, Type (0, 0), BuildingBlock: OJICUG_clean_linker_0, # of connection points: 2
#     Edge 26, Type (0, 0), BuildingBlock: OJICUG_clean_linker_0, # of connection points: 2
#     Edge 27, Type (0, 0), BuildingBlock: OJICUG_clean_linker_0, # of connection points: 2
#     Edge 28, Type (0, 0), BuildingBlock: OJICUG_clean_linker_0, # of connection points: 2
#     Edge 29, Type (0, 0), BuildingBlock: OJICUG_clean_linker_0, # of connection points: 2
#     Edge 30, Type (0, 0), BuildingBlock: OJICUG_clean_linker_0, # of connection points: 2
#     Edge 31, Type (0, 0), BuildingBlock: OJICUG_clean_linker_0, # of connection points: 2
#     Edge 32, Type (0, 0), BuildingBlock: OJICUG_clean_linker_0, # of connection points: 2
#     Edge 33, Type (0, 0), BuildingBlock: OJICUG_clean_linker_0, # of connection points: 2
#     Edge 34, Type (0, 0), BuildingBlock: OJICUG_clean_linker_0, # of connection points: 2
#     Edge 35, Type (0, 0), BuildingBlock: OJICUG_clean_linker_0, # of connection points: 2
#     Edge 36, Type (0, 0), BuildingBlock: OJICUG_clean_linker_0, # of connection points: 2
#     Edge 37, Type (0, 0), BuildingBlock: OJICUG_clean_linker_0, # of connection points: 2
#     Edge 38, Type (0, 0), BuildingBlock: OJICUG_clean_linker_0, # of connection points: 2
#     Edge 39, Type (0, 0), BuildingBlock: OJICUG_clean_linker_0, # of connection points: 2
#     Edge 40, Type (0, 0), BuildingBlock: OJICUG_clean_linker_0, # of connection points: 2
#     Edge 41, Type (0, 0), BuildingBlock: OJICUG_clean_linker_0, # of connection points: 2
#     Edge 42, Type (0, 0), BuildingBlock: OJICUG_clean_linker_0, # of connection points: 2
#     Edge 43, Type (0, 0), BuildingBlock: OJICUG_clean_linker_0, # of connection points: 2
#     Edge 44, Type (0, 0), BuildingBlock: OJICUG_clean_linker_0, # of connection points: 2
#     Edge 45, Type (0, 0), BuildingBlock: OJICUG_clean_linker_0, # of connection points: 2
#     Edge 46, Type (0, 0), BuildingBlock: OJICUG_clean_linker_0, # of connection points: 2
#     Edge 47, Type (0, 0), BuildingBlock: OJICUG_clean_linker_0, # of connection points: 2
# Relax obj value: 0.201
# Max RMSD: 0.320
# Mean RMSD: 0.297
data_MOF--net-lcy-e--node1-BETGAK_clean_sbu_0--edge1-OJICUG_clean_linker_0
_symmetry_space_group_name_H-M    P1
_symmetry_Int_Tables_number       1
_symmetry_cell_setting            triclinic
loop_
_symmetry_equiv_pos_as_xyz
'x, y, z'
_cell_length_a     34.827035
_cell_length_b     32.323544
_cell_length_c     34.71849
_cell_angle_alpha  89.495027
_cell_angle_beta   91.289974
_cell_angle_gamma 87.697876
loop_
_atom_site_label
_atom_site_type_symbol
_atom_site_fract_x
_atom_site_fract_y
_atom_site_fract_z
_atom_type_partial_charge
La0 La 0.15639 0.30662 0.50099 0.0
La1 La 0.17191 0.24082 0.56059 0.0
C2 C 0.14764 0.37042 0.45872 0.0
C3 C 0.15616 0.3796 0.41824 0.0
C4 C 0.13919 0.41478 0.40003 0.0
C5 C 0.15066 0.42656 0.36329 0.0
C6 C 0.17959 0.4035 0.34428 0.0
C7 C 0.19579 0.36758 0.36221 0.0
C8 C 0.18399 0.35558 0.39875 0.0
C9 C 0.121 0.23656 0.48772 0.0
C10 C 0.22573 0.24388 0.48714 0.0
C11 C 0.18019 0.17124 0.59367 0.0
C12 C 0.15834 0.13768 0.61024 0.0
C13 C 0.17456 0.09738 0.60953 0.0
C14 C 0.15616 0.06478 0.62686 0.0
C15 C 0.12109 0.07181 0.64546 0.0
C16 C 0.10401 0.11208 0.64484 0.0
C17 C 0.12255 0.14486 0.62735 0.0
C18 C 0.20568 0.31151 0.5752 0.0
C19 C 0.11078 0.30432 0.57999 0.0
O20 O 0.12007 0.34506 0.46519 0.0
O21 O 0.17794 0.36187 0.48057 0.0
O22 O 0.13665 0.25903 0.46183 0.0
O23 O 0.12556 0.2538 0.51985 0.0
O24 O 0.20825 0.27902 0.47559 0.0
O25 O 0.21471 0.22377 0.51798 0.0
O26 O 0.18026 0.20655 0.61196 0.0
O27 O 0.17725 0.17618 0.55624 0.0
O28 O 0.19621 0.28538 0.60153 0.0
O29 O 0.2004 0.29507 0.54289 0.0
O30 O 0.11656 0.26395 0.57877 0.0
O31 O 0.12719 0.32827 0.55422 0.0
H32 H 0.11792 0.43386 0.41468 0.0
H33 H 0.1379 0.45463 0.35038 0.0
H34 H 0.21784 0.349 0.34814 0.0
H35 H 0.19747 0.32823 0.41227 0.0
H36 H 0.20198 0.0912 0.5961 0.0
H37 H 0.16975 0.03406 0.62623 0.0
H38 H 0.0771 0.11851 0.65908 0.0
H39 H 0.1094 0.1758 0.62788 0.0
La40 La 0.99224 0.88288 0.76679 0.0
La41 La 0.06318 0.89569 0.8188 0.0
C42 C 0.93567 0.88498 0.71994 0.0
C43 C 0.91852 0.90864 0.68696 0.0
C44 C 0.88634 0.8929 0.66819 0.0
C45 C 0.87257 0.91019 0.63334 0.0
C46 C 0.89068 0.94373 0.61642 0.0
C47 C 0.9218 0.96099 0.63626 0.0
C48 C 0.93581 0.94333 0.67125 0.0
C49 C 0.0457 0.82261 0.76868 0.0
C50 C 0.05802 0.9435 0.73975 0.0
C51 C 0.1285 0.88444 0.84945 0.0
C52 C 0.16759 0.87444 0.86565 0.0
C53 C 0.18448 0.89945 0.89361 0.0
C54 C 0.21968 0.88701 0.91152 0.0
C55 C 0.23885 0.84938 0.9017 0.0
C56 C 0.22236 0.82523 0.8727 0.0
C57 C 0.18722 0.83755 0.855 0.0
C58 C 0.99999 0.94193 0.83361 0.0
C59 C 0.99648 0.8448 0.85034 0.0
O60 O 0.96867 0.86573 0.71368 0.0
O61 O 0.93454 0.90167 0.75421 0.0
O62 O 1.00919 0.81684 0.76675 0.0
O63 O 0.05085 0.86082 0.76864 0.0
O64 O 1.02259 0.93027 0.73423 0.0
O65 O 0.07995 0.93195 0.76986 0.0
O66 O 0.11146 0.9216 0.84758 0.0
O67 O 0.10851 0.85493 0.83429 0.0
O68 O 1.02509 0.92892 0.85985 0.0
O69 O 1.01244 0.93077 0.80165 0.0
O70 O 1.03405 0.84697 0.84795 0.0
O71 O 0.9727 0.86156 0.82344 0.0
H72 H 0.87266 0.8661 0.67977 0.0
H73 H 0.84816 0.89665 0.61909 0.0
H74 H 0.93627 0.98683 0.62391 0.0
H75 H 0.9608 0.95577 0.68531 0.0
H76 H 0.16989 0.92787 0.90256 0.0
H77 H 0.2312 0.90628 0.934 0.0
H78 H 0.2365 0.79658 0.86373 0.0
H79 H 0.17511 0.81771 0.83327 0.0
La80 La 0.40968 0.77834 0.06006 0.0
La81 La 0.42596 0.71735 0.99965 0.0
C82 C 0.401 0.81738 0.12212 0.0
C83 C 0.41895 0.85378 0.13857 0.0
C84 C 0.44299 0.87797 0.11643 0.0
C85 C 0.46093 0.9118 0.13282 0.0
C86 C 0.45495 0.92202 0.17156 0.0
C87 C 0.43112 0.89731 0.19362 0.0
C88 C 0.41332 0.86351 0.17725 0.0
C89 C 0.37304 0.79559 0.99397 0.0
C90 C 0.47464 0.79898 1.00361 0.0
C91 C 0.43725 0.68052 0.93671 0.0
C92 C 0.41671 0.6607 0.9045 0.0
C93 C 0.43506 0.62738 0.88589 0.0
C94 C 0.41922 0.61138 0.8521 0.0
C95 C 0.3846 0.62843 0.83593 0.0
C96 C 0.36529 0.66072 0.85557 0.0
C97 C 0.38126 0.67682 0.88952 0.0
C98 C 0.46275 0.70389 0.06779 0.0
C99 C 0.36429 0.69368 0.0527 0.0
O100 O 0.37925 0.82388 0.09133 0.0
O101 O 0.42395 0.7848 0.11867 0.0
O102 O 0.38819 0.8225 1.01646 0.0
O103 O 0.37803 0.75995 1.00913 0.0
O104 O 0.46098 0.80681 0.03817 0.0
O105 O 0.46239 0.76769 0.98315 0.0
O106 O 0.43871 0.66166 0.97026 0.0
O107 O 0.43182 0.7206 0.93988 0.0
O108 O 0.44935 0.67513 0.04616 0.0
O109 O 0.45661 0.7373 0.04982 0.0
O110 O 0.37164 0.69508 1.01584 0.0
O111 O 0.37838 0.72192 0.07628 0.0
H112 H 0.44783 0.87073 0.0865 0.0
H113 H 0.47888 0.93036 0.11503 0.0
H114 H 0.42644 0.90391 0.22373 0.0
H115 H 0.39528 0.84483 0.19487 0.0
H116 H 0.46239 0.61447 0.89688 0.0
H117 H 0.43444 0.58587 0.8383 0.0
H118 H 0.33861 0.67457 0.84396 0.0
H119 H 0.36652 0.70264 0.90335 0.0
La120 La 0.5824 0.12735 0.26829 0.0
La121 La 0.51926 0.11537 0.32502 0.0
C122 C 0.6418 0.12944 0.228 0.0
C123 C 0.65143 0.11389 0.1888 0.0
C124 C 0.64601 0.13959 0.15608 0.0
C125 C 0.65568 0.12523 0.1194 0.0
C126 C 0.67135 0.08479 0.11427 0.0
C127 C 0.67621 0.05886 0.14695 0.0
C128 C 0.66652 0.07323 0.18368 0.0
C129 C 0.51659 0.16797 0.2518 0.0
C130 C 0.52326 0.0593 0.24982 0.0
C131 C 0.45427 0.10994 0.35513 0.0
C132 C 0.42362 0.13278 0.37572 0.0
C133 C 0.39767 0.10988 0.39647 0.0
C134 C 0.36633 0.12953 0.41403 0.0
C135 C 0.3602 0.17281 0.41151 0.0
C136 C 0.38641 0.19588 0.39064 0.0
C137 C 0.4179 0.176 0.37286 0.0
C138 C 0.58617 0.07515 0.34149 0.0
C139 C 0.57711 0.17851 0.34762 0.0
O140 O 0.61644 0.16037 0.2301 0.0
O141 O 0.63657 0.10143 0.25457 0.0
O142 O 0.53897 0.15099 0.22669 0.0
O143 O 0.53197 0.16319 0.28483 0.0
O144 O 0.55729 0.07334 0.24155 0.0
O145 O 0.50382 0.07285 0.27963 0.0
O146 O 0.48681 0.10131 0.37367 0.0
O147 O 0.45928 0.12055 0.31918 0.0
O148 O 0.56201 0.08863 0.36686 0.0
O149 O 0.57019 0.08105 0.30892 0.0
O150 O 0.54006 0.17191 0.34733 0.0
O151 O 0.60014 0.16198 0.321 0.0
H152 H 0.6345 0.17103 0.15879 0.0
H153 H 0.65105 0.14605 0.09498 0.0
H154 H 0.68869 0.02781 0.14439 0.0
H155 H 0.67134 0.05253 0.20816 0.0
H156 H 0.40122 0.07645 0.39851 0.0
H157 H 0.34645 0.11054 0.42904 0.0
H158 H 0.38277 0.22924 0.38832 0.0
H159 H 0.43749 0.19424 0.35667 0.0
La160 La 0.665 0.24665 0.57723 0.0
La161 La 0.66938 0.32496 0.52833 0.0
C162 C 0.66572 0.17849 0.61346 0.0
C163 C 0.67963 0.16572 0.65267 0.0
C164 C 0.65811 0.139 0.67485 0.0
C165 C 0.67111 0.12624 0.71176 0.0
C166 C 0.70608 0.13983 0.72735 0.0
C167 C 0.72727 0.16723 0.70527 0.0
C168 C 0.71412 0.18017 0.66846 0.0
C169 C 0.61731 0.30868 0.59428 0.0
C170 C 0.71691 0.31591 0.60785 0.0
C171 C 0.66246 0.4001 0.50803 0.0
C172 C 0.64891 0.4312 0.47899 0.0
C173 C 0.66497 0.47021 0.48008 0.0
C174 C 0.65093 0.50217 0.4557 0.0
C175 C 0.62049 0.49587 0.42933 0.0
C176 C 0.60453 0.45644 0.42808 0.0
C177 C 0.61859 0.42436 0.45279 0.0
C178 C 0.7189 0.26408 0.5114 0.0
C179 C 0.63025 0.25202 0.48952 0.0
O180 O 0.6359 0.20439 0.6116 0.0
O181 O 0.69185 0.18848 0.58901 0.0
O182 O 0.6353 0.28491 0.61938 0.0
O183 O 0.62591 0.29702 0.56094 0.0
O184 O 0.71162 0.27561 0.60837 0.0
O185 O 0.69893 0.3407 0.58223 0.0
O186 O 0.69264 0.37626 0.50054 0.0
O187 O 0.63633 0.38055 0.52678 0.0
O188 O 0.70523 0.29162 0.48655 0.0
O189 O 0.70744 0.27419 0.54423 0.0
O190 O 0.63335 0.29263 0.48868 0.0
O191 O 0.6416 0.22844 0.51987 0.0
H192 H 0.63138 0.12757 0.66342 0.0
H193 H 0.6543 0.10464 0.72759 0.0
H194 H 0.75413 0.17857 0.7164 0.0
H195 H 0.73116 0.20122 0.65224 0.0
H196 H 0.688 0.4763 0.50053 0.0
H197 H 0.66353 0.53214 0.45813 0.0
H198 H 0.58138 0.45026 0.40786 0.0
H199 H 0.60557 0.3945 0.45173 0.0
La200 La 1.01512 0.39233 0.75056 0.0
La201 La 0.07452 0.37008 0.80915 0.0
C202 C 0.97304 0.41011 0.69251 0.0
C203 C 0.93273 0.40098 0.68495 0.0
C204 C 0.9125 0.37913 0.71256 0.0
C205 C 0.87502 0.36754 0.70465 0.0
C206 C 0.85703 0.37806 0.66915 0.0
C207 C 0.87704 0.40096 0.64195 0.0
C208 C 0.91474 0.41219 0.64977 0.0
C209 C 1.00106 0.42326 0.81933 0.0
C210 C 1.00057 0.31499 0.80138 0.0
C211 C 0.11074 0.35477 0.87147 0.0
C212 C 0.12702 0.37775 0.90388 0.0
C213 C 0.16227 0.36377 0.92031 0.0
C214 C 0.17676 0.3824 0.95335 0.0
C215 C 0.15608 0.41523 0.97078 0.0
C216 C 0.12139 0.43028 0.95339 0.0
C217 C 0.10695 0.41168 0.92015 0.0
C218 C 0.08695 0.33841 0.73989 0.0
C219 C 0.0923 0.44104 0.75831 0.0
O220 O 0.97912 0.43591 0.72059 0.0
O221 O 0.9965 0.37753 0.69471 0.0
O222 O 0.9757 0.40811 0.79625 0.0
O223 O 1.03335 0.42107 0.8035 0.0
O224 O 0.98935 0.33546 0.76974 0.0
O225 O 1.03139 0.32504 0.82147 0.0
O226 O 0.12753 0.35808 0.83829 0.0
O227 O 0.07322 0.35616 0.86794 0.0
O228 O 0.11387 0.34984 0.76331 0.0
O229 O 0.05566 0.34231 0.75678 0.0
O230 O 0.09146 0.43139 0.79507 0.0
O231 O 0.06709 0.425 0.73401 0.0
H232 H 0.92591 0.37046 0.74002 0.0
H233 H 0.86017 0.35019 0.72617 0.0
H234 H 0.86397 0.40902 0.61414 0.0
H235 H 0.93005 0.42892 0.62814 0.0
H236 H 0.17824 0.33781 0.90804 0.0
H237 H 0.20406 0.37076 0.96549 0.0
H238 H 0.10479 0.45547 0.96614 0.0
H239 H 0.07968 0.42312 0.90781 0.0
La240 La 0.90399 0.79635 0.08011 0.0
La241 La 0.90103 0.71891 1.02387 0.0
C242 C 0.88704 0.86072 0.11713 0.0
C243 C 0.8851 0.8718 0.158 0.0
C244 C 0.87325 0.84309 0.18554 0.0
C245 C 0.86558 0.85568 0.22306 0.0
C246 C 0.87031 0.89696 0.23376 0.0
C247 C 0.88409 0.92506 0.20668 0.0
C248 C 0.89122 0.91259 0.16901 0.0
C249 C 0.95641 0.73757 0.09978 0.0
C250 C 0.84921 0.72289 0.09889 0.0
C251 C 0.90685 0.64516 1.00121 0.0
C252 C 0.92224 0.61431 0.97406 0.0
C253 C 0.90814 0.57442 0.97586 0.0
C254 C 0.92268 0.54315 0.95221 0.0
C255 C 0.95162 0.55105 0.92582 0.0
C256 C 0.96607 0.5912 0.92426 0.0
C257 C 0.9515 0.62264 0.94829 0.0
C258 C 0.86001 0.78693 1.00229 0.0
C259 C 0.94973 0.79144 1.00045 0.0
O260 O 0.92124 0.85315 0.10292 0.0
O261 O 0.86187 0.83407 0.10571 0.0
O262 O 0.95133 0.77185 0.11827 0.0
O263 O 0.93185 0.73845 0.07285 0.0
O264 O 0.86343 0.75841 0.10996 0.0
O265 O 0.85974 0.70345 0.06721 0.0
O266 O 0.87957 0.67163 0.98907 0.0
O267 O 0.93119 0.66151 1.02547 0.0
O268 O 0.87312 0.75907 0.97834 0.0
O269 O 0.86748 0.77363 1.03603 0.0
O270 O 0.94897 0.75055 1.0014 0.0
O271 O 0.93104 0.81568 1.02559 0.0
H272 H 0.86853 0.8113 0.17769 0.0
H273 H 0.8553 0.83341 0.24351 0.0
H274 H 0.88767 0.95717 0.21415 0.0
H275 H 0.90015 0.93517 0.14812 0.0
H276 H 0.88595 0.56724 0.996 0.0
H277 H 0.91136 0.51257 0.95491 0.0
H278 H 0.98815 0.59848 0.9041 0.0
H279 H 0.96299 0.65325 0.94678 0.0
La280 La 0.55203 0.65576 0.25222 0.0
La281 La 0.49108 0.67437 0.30726 0.0
C282 C 0.59415 0.64024 0.19577 0.0
C283 C 0.63373 0.65068 0.18627 0.0
C284 C 0.66071 0.61902 0.17745 0.0
C285 C 0.69821 0.62842 0.16803 0.0
C286 C 0.7094 0.66979 0.16686 0.0
C287 C 0.68242 0.70138 0.17644 0.0
C288 C 0.64508 0.69194 0.18622 0.0
C289 C 0.56765 0.62625 0.32245 0.0
C290 C 0.56211 0.73405 0.30326 0.0
C291 C 0.45213 0.68564 0.36681 0.0
C292 C 0.43577 0.66009 0.39743 0.0
C293 C 0.39717 0.66706 0.4068 0.0
C294 C 0.38164 0.64607 0.43775 0.0
C295 C 0.40449 0.61782 0.46035 0.0
C296 C 0.44283 0.60955 0.44996 0.0
C297 C 0.45835 0.63051 0.41878 0.0
C298 C 0.4765 0.70238 0.23538 0.0
C299 C 0.47961 0.59941 0.25988 0.0
O300 O 0.59074 0.61463 0.22474 0.0
O301 O 0.56864 0.67103 0.19645 0.0
O302 O 0.59224 0.64251 0.30002 0.0
O303 O 0.53546 0.62652 0.30501 0.0
O304 O 0.57497 0.71399 0.27271 0.0
O305 O 0.53111 0.72261 0.32115 0.0
O306 O 0.4368 0.68296 0.33219 0.0
O307 O 0.48964 0.68696 0.36627 0.0
O308 O 0.45086 0.68892 0.25829 0.0
O309 O 0.50778 0.70229 0.25417 0.0
O310 O 0.48022 0.61074 0.29603 0.0
O311 O 0.50283 0.6172 0.2354 0.0
H312 H 0.65271 0.58697 0.17769 0.0
H313 H 0.71836 0.60323 0.16144 0.0
H314 H 0.68972 0.73361 0.1753 0.0
H315 H 0.62502 0.71707 0.19326 0.0
H316 H 0.37914 0.68947 0.39063 0.0
H317 H 0.35175 0.65249 0.44434 0.0
H318 H 0.46122 0.58808 0.46676 0.0
H319 H 0.48824 0.6243 0.41206 0.0
La320 La 0.25279 0.54655 0.16659 0.0
La321 La 0.30463 0.4705 0.15844 0.0
C322 C 0.21725 0.61581 0.16721 0.0
C323 C 0.17696 0.6287 0.15688 0.0
C324 C 0.1459 0.61375 0.17736 0.0
C325 C 0.10805 0.62536 0.16642 0.0
C326 C 0.10034 0.65186 0.13459 0.0
C327 C 0.13137 0.66626 0.11378 0.0
C328 C 0.16925 0.65495 0.12493 0.0
C329 C 0.23272 0.48176 0.20681 0.0
C330 C 0.22768 0.48073 0.10702 0.0
C331 C 0.33235 0.39706 0.15715 0.0
C332 C 0.36107 0.36803 0.1762 0.0
C333 C 0.39507 0.357 0.15716 0.0
C334 C 0.41992 0.32528 0.17162 0.0
C335 C 0.41129 0.30342 0.20536 0.0
C336 C 0.37802 0.31548 0.22531 0.0
C337 C 0.35307 0.34732 0.2108 0.0
C338 C 0.32228 0.53631 0.11687 0.0
C339 C 0.3349 0.53568 0.21144 0.0
O340 O 0.22306 0.59243 0.19802 0.0
O341 O 0.23818 0.60298 0.13852 0.0
O342 O 0.20906 0.50801 0.18951 0.0
O343 O 0.2667 0.49299 0.20226 0.0
O344 O 0.22352 0.51992 0.11718 0.0
O345 O 0.2551 0.45583 0.12219 0.0
O346 O 0.34517 0.42743 0.13649 0.0
O347 O 0.3019 0.40853 0.17643 0.0
O348 O 0.34751 0.50907 0.13049 0.0
O349 O 0.2895 0.52408 0.12397 0.0
O350 O 0.334 0.49537 0.20736 0.0
O351 O 0.30823 0.5613 0.19527 0.0
H352 H 0.15072 0.59306 0.20185 0.0
H353 H 0.08473 0.61365 0.18294 0.0
H354 H 0.12642 0.68725 0.08952 0.0
H355 H 0.19261 0.66679 0.10854 0.0
H356 H 0.40191 0.37203 0.1303 0.0
H357 H 0.44566 0.31736 0.1559 0.0
H358 H 0.37041 0.29919 0.25125 0.0
H359 H 0.3269 0.35469 0.22602 0.0
La360 La 0.75934 0.97325 0.89742 0.0
La361 La 0.81515 0.03346 0.92539 0.0
C362 C 0.71282 0.91546 0.89286 0.0
C363 C 0.67566 0.90595 0.9103 0.0
C364 C 0.64324 0.90077 0.88642 0.0
C365 C 0.60866 0.88869 0.90193 0.0
C366 C 0.60573 0.88092 0.94174 0.0
C367 C 0.63785 0.88769 0.96585 0.0
C368 C 0.67239 0.90012 0.95034 0.0
C369 C 0.75772 0.04091 0.85574 0.0
C370 C 0.74092 0.03091 0.97138 0.0
C371 C 0.862 0.0903 0.93431 0.0
C372 C 0.88246 0.1199 0.91093 0.0
C373 C 0.90986 0.14389 0.92914 0.0
C374 C 0.9286 0.17383 0.90841 0.0
C375 C 0.92043 0.18032 0.86887 0.0
C376 C 0.89275 0.15621 0.85059 0.0
C377 C 0.8739 0.12608 0.87151 0.0
C378 C 0.81985 0.9578 0.95831 0.0
C379 C 0.83877 0.98069 0.85661 0.0
O380 O 0.71265 0.94658 0.8685 0.0
O381 O 0.74299 0.9148 0.91594 0.0
O382 O 0.75244 1.00424 0.84248 0.0
O383 O 0.76147 0.03979 0.89233 0.0
O384 O 0.73246 0.99773 0.95092 0.0
O385 O 0.77096 0.05248 0.96382 0.0
O386 O 0.87245 0.05117 0.93125 0.0
O387 O 0.82467 0.09609 0.93488 0.0
O388 O 0.82739 0.99153 0.97643 0.0
O389 O 0.81321 0.96778 0.92427 0.0
O390 O 0.83518 1.01932 0.86788 0.0
O391 O 0.81375 0.95365 0.86913 0.0
H392 H 0.64486 0.90529 0.85554 0.0
H393 H 0.58435 0.8847 0.88251 0.0
H394 H 0.63687 0.88175 0.99655 0.0
H395 H 0.69677 0.9041 0.96968 0.0
H396 H 0.91645 0.13982 0.95963 0.0
H397 H 0.94916 0.19239 0.92358 0.0
H398 H 0.88596 0.16037 0.82017 0.0
H399 H 0.85253 0.10788 0.8571 0.0
La400 La 0.75562 1.00777 0.42912 0.0
La401 La 0.81743 0.06355 0.41149 0.0
C402 C 0.69328 0.9709 0.4352 0.0
C403 C 0.67592 0.93622 0.41431 0.0
C404 C 0.65299 0.90894 0.43417 0.0
C405 C 0.63579 0.87635 0.41492 0.0
C406 C 0.64094 0.87026 0.37515 0.0
C407 C 0.66463 0.89726 0.35543 0.0
C408 C 0.68195 0.92988 0.3748 0.0
C409 C 0.81921 0.99248 0.47096 0.0
C410 C 0.81596 0.97645 0.37042 0.0
C411 C 0.88028 0.09751 0.3986 0.0
C412 C 0.91249 0.11932 0.41697 0.0
C413 C 0.92801 0.15246 0.3971 0.0
C414 C 0.96176 0.17014 0.4105 0.0
C415 C 0.98107 0.15506 0.44417 0.0
C416 C 0.96459 0.12291 0.46501 0.0
C417 C 0.93071 0.10511 0.45149 0.0
C418 C 0.75175 0.07303 0.36869 0.0
C419 C 0.76299 0.09683 0.46971 0.0
O420 O 0.72411 0.96172 0.45614 0.0
O421 O 0.69664 1.00521 0.41569 0.0
O422 O 0.79725 0.96487 0.45673 0.0
O423 O 0.80488 0.02799 0.46227 0.0
O424 O 0.77968 0.9741 0.38039 0.0
O425 O 0.83701 1.0066 0.38333 0.0
O426 O 0.84665 0.11693 0.39532 0.0
O427 O 0.87733 0.05833 0.4072 0.0
O428 O 0.77172 0.10304 0.38161 0.0
O429 O 0.76952 0.04054 0.37931 0.0
O430 O 0.79993 0.093 0.46357 0.0
O431 O 0.73929 0.06897 0.45557 0.0
H432 H 0.64824 0.91293 0.46467 0.0
H433 H 0.61849 0.85577 0.43135 0.0
H434 H 0.66913 0.89379 0.32485 0.0
H435 H 0.69976 0.95037 0.3588 0.0
H436 H 0.91463 0.16392 0.3704 0.0
H437 H 0.97301 0.19544 0.39412 0.0
H438 H 0.97862 0.11045 0.49099 0.0
H439 H 0.91947 0.07946 0.4674 0.0
La440 La 0.31655 0.48238 0.65836 0.0
La441 La 0.25876 0.5517 0.64555 0.0
C442 C 0.35535 0.41505 0.6645 0.0
C443 C 0.39551 0.4018 0.65778 0.0
C444 C 0.42649 0.42471 0.67114 0.0
C445 C 0.46405 0.41349 0.66066 0.0
C446 C 0.47096 0.3798 0.6361 0.0
C447 C 0.43994 0.35675 0.62322 0.0
C448 C 0.40262 0.36754 0.63413 0.0
C449 C 0.33271 0.55096 0.69553 0.0
C450 C 0.33292 0.54646 0.59328 0.0
C451 C 0.2242 0.62155 0.64007 0.0
C452 C 0.20183 0.64957 0.66483 0.0
C453 C 0.18244 0.63476 0.69685 0.0
C454 C 0.15971 0.66195 0.71872 0.0
C455 C 0.1563 0.70434 0.70903 0.0
C456 C 0.17668 0.71901 0.67751 0.0
C457 C 0.1992 0.69184 0.65563 0.0
C458 C 0.24236 0.48149 0.61013 0.0
C459 C 0.23898 0.49039 0.70607 0.0
O460 O 0.34828 0.43943 0.69367 0.0
O461 O 0.33625 0.42711 0.63335 0.0
O462 O 0.35762 0.52642 0.67925 0.0
O463 O 0.29989 0.53623 0.69109 0.0
O464 O 0.34266 0.50948 0.60782 0.0
O465 O 0.3028 0.56825 0.60542 0.0
O466 O 0.20851 0.58671 0.63103 0.0
O467 O 0.26082 0.61643 0.64894 0.0
O468 O 0.21683 0.50842 0.6219 0.0
O469 O 0.27486 0.49655 0.61498 0.0
O470 O 0.23974 0.53047 0.70028 0.0
O471 O 0.26367 0.46487 0.6885 0.0
H472 H 0.42166 0.45167 0.68898 0.0
H473 H 0.48756 0.43168 0.67097 0.0
H474 H 0.44459 0.33023 0.60478 0.0
H475 H 0.37908 0.34966 0.62331 0.0
H476 H 0.18442 0.60218 0.70455 0.0
H477 H 0.14461 0.64981 0.74302 0.0
H478 H 0.17423 0.75132 0.66891 0.0
H479 H 0.21403 0.70374 0.63102 0.0
C480 C 0.19674 0.38877 0.56401 0.0
C481 C 0.21635 0.35495 0.58251 0.0
H482 H 0.18969 0.45495 0.5581 0.0
C483 C 0.24392 0.3632 0.6111 0.0
H484 H 0.17295 0.38409 0.54459 0.0
C485 C 0.25273 0.40408 0.61978 0.0
C486 C 0.2344 0.43788 0.60005 0.0
H487 H 0.25833 0.33799 0.62719 0.0
H488 H 0.27249 0.40876 0.64331 0.0
C489 C 0.20567 0.42968 0.57259 0.0
C490 C 0.902 0.95047 0.87907 0.0
C491 C 0.8786 0.96656 0.84846 0.0
H492 H 0.95906 0.93241 0.89921 0.0
C493 C 0.89597 0.97758 0.814 0.0
H494 H 0.88966 0.94359 0.90665 0.0
C495 C 0.9357 0.97061 0.80962 0.0
C496 C 0.95894 0.95359 0.83998 0.0
H497 H 0.87892 0.99194 0.79068 0.0
H498 H 0.9483 0.97853 0.78241 0.0
C499 C 0.94183 0.94476 0.87509 0.0
C500 C 0.33359 0.65251 0.10474 0.0
C501 C 0.34935 0.65463 0.06807 0.0
H502 H 0.3117 0.61422 0.14847 0.0
C503 C 0.35498 0.61762 0.04727 0.0
H504 H 0.32929 0.68028 0.12161 0.0
C505 C 0.34623 0.57935 0.0633 0.0
C506 C 0.33066 0.57719 0.1 0.0
H507 H 0.36768 0.61791 1.01908 0.0
H508 H 0.35176 0.55138 0.04701 0.0
C509 C 0.32376 0.61428 0.12025 0.0
C510 C 0.65358 0.05059 0.32444 0.0
C511 C 0.62853 0.07293 0.3486 0.0
H512 H 0.71238 0.03321 0.31192 0.0
C513 C 0.64443 0.09512 0.37919 0.0
H514 H 0.64215 0.03252 0.30102 0.0
C515 C 0.68425 0.09663 0.38452 0.0
C516 C 0.70955 0.07509 0.36018 0.0
H517 H 0.62607 0.11182 0.39895 0.0
H518 H 0.6948 0.11311 0.40896 0.0
C519 C 0.69371 0.05128 0.33047 0.0
C520 C 0.7272 0.20822 0.46301 0.0
C521 C 0.73199 0.22165 0.50097 0.0
H522 H 0.73532 0.15911 0.42344 0.0
C523 C 0.74762 0.1936 0.52887 0.0
H524 H 0.71666 0.22945 0.44051 0.0
C525 C 0.75558 0.152 0.5195 0.0
C526 C 0.74874 0.13815 0.48186 0.0
H527 H 0.75379 0.20391 0.55786 0.0
H528 H 0.76785 0.13094 0.54133 0.0
C529 C 0.7363 0.16724 0.45348 0.0
C530 C 0.13957 0.44995 0.70628 0.0
C531 C 0.12804 0.45826 0.74399 0.0
H532 H 0.18514 0.45013 0.66608 0.0
C533 C 0.15401 0.47677 0.76963 0.0
H534 H 0.12016 0.43631 0.68567 0.0
C535 C 0.19091 0.48606 0.75787 0.0
C536 C 0.20299 0.47524 0.72094 0.0
H537 H 0.14595 0.48365 0.79891 0.0
H538 H 0.21005 0.50146 0.77761 0.0
C539 C 0.17699 0.45732 0.69521 0.0
C540 C 0.82321 0.88153 0.94435 0.0
C541 C 0.82849 0.91415 0.97059 0.0
H542 H 0.82802 0.816 0.93398 0.0
C543 C 0.84398 0.90442 1.00712 0.0
H544 H 0.81266 0.88785 0.9153 0.0
C545 C 0.8539 0.86322 1.01702 0.0
C546 C 0.84772 0.83043 0.99159 0.0
H547 H 0.8497 0.92868 1.02755 0.0
H548 H 0.86874 0.85751 0.04366 0.0
C549 C 0.83229 0.84019 0.95486 0.0
C550 C 0.42191 0.55838 0.27329 0.0
C551 C 0.44568 0.57701 0.24631 0.0
H552 H 0.36779 0.53083 0.28339 0.0
C553 C 0.43289 0.5805 0.20779 0.0
H554 H 0.43102 0.55494 0.30323 0.0
C555 C 0.39596 0.56879 0.19712 0.0
C556 C 0.37176 0.55184 0.22443 0.0
H557 H 0.45068 0.59397 0.18621 0.0
H558 H 0.38654 0.57252 0.16734 0.0
C559 C 0.38548 0.54529 0.26226 0.0
C560 C 0.61955 0.22793 0.38292 0.0
C561 C 0.59282 0.19674 0.38335 0.0
H562 H 0.6514 0.27082 0.4166 0.0
C563 C 0.57934 0.18296 0.41909 0.0
H564 H 0.63038 0.23903 0.35589 0.0
C565 C 0.59221 0.19996 0.45373 0.0
C566 C 0.61766 0.23231 0.4533 0.0
H567 H 0.55891 0.15859 0.42026 0.0
H568 H 0.58144 0.18863 0.48071 0.0
C569 C 0.63131 0.24612 0.41761 0.0
C570 C 0.12549 0.3441 0.63895 0.0
C571 C 0.09925 0.32092 0.61775 0.0
H572 H 0.1441 0.36439 0.69464 0.0
C573 C 0.06791 0.30477 0.63687 0.0
H574 H 0.15038 0.35609 0.62541 0.0
C575 C 0.06321 0.31144 0.67643 0.0
C576 C 0.09081 0.3326 0.69788 0.0
H577 H 0.04788 0.28572 0.62151 0.0
H578 H 0.03893 0.29851 0.69055 0.0
C579 C 0.12202 0.34869 0.67875 0.0
C580 C 0.94788 0.84392 0.90285 0.0
C581 C 0.9825 0.82874 0.88742 0.0
H582 H 0.91252 0.84777 0.95243 0.0
C583 C 1.00709 0.80273 0.91057 0.0
H584 H 0.92799 0.86325 0.88564 0.0
C585 C 0.99737 0.79235 0.94818 0.0
C586 C 0.9636 0.80902 0.96416 0.0
H587 H 1.03401 0.79033 0.8996 0.0
H588 H 1.01613 0.77098 0.96474 0.0
C589 C 0.93913 0.83523 0.94124 0.0
C590 C 0.49857 0.725 0.16996 0.0
C591 C 0.47271 0.70343 0.19244 0.0
H592 H 0.51533 0.74237 0.11291 0.0
C593 C 0.44398 0.68145 0.17341 0.0
H594 H 0.52075 0.74263 0.18371 0.0
C595 C 0.44224 0.67936 0.13299 0.0
C596 C 0.46777 0.70134 0.1105 0.0
H597 H 0.42306 0.66534 0.18982 0.0
H598 H 0.42008 0.66167 0.11935 0.0
C599 C 0.4957 0.72454 0.12947 0.0
C600 C 0.23345 0.41997 0.30012 0.0
C601 C 0.19377 0.41817 0.30668 0.0
H602 H 0.2772 0.44146 0.26299 0.0
C603 C 0.16762 0.43313 0.27801 0.0
H604 H 0.25431 0.40876 0.32177 0.0
C605 C 0.18069 0.45154 0.24452 0.0
C606 C 0.22021 0.45572 0.23902 0.0
H607 H 0.13694 0.4315 0.28192 0.0
H608 H 0.15967 0.464 0.22358 0.0
C609 C 0.24658 0.4387 0.26656 0.0
C610 C 0.87198 0.92914 0.54823 0.0
C611 C 0.87793 0.95836 0.57724 0.0
H612 H 0.84968 0.91744 0.49173 0.0
C613 C 0.86916 1.00046 0.569 0.0
H614 H 0.87923 0.89662 0.55339 0.0
C615 C 0.85211 1.01253 0.5333 0.0
C616 C 0.84386 0.98263 0.50541 0.0
H617 H 0.87361 1.02365 0.5908 0.0
H618 H 0.84362 0.04478 0.52835 0.0
C619 C 0.85526 0.94112 0.5128 0.0
C620 C 0.31776 0.58797 0.75737 0.0
C621 C 0.34406 0.57656 0.7288 0.0
H622 H 0.30989 0.61297 0.81393 0.0
C623 C 0.38285 0.58572 0.73436 0.0
H624 H 0.28766 0.58126 0.7539 0.0
C625 C 0.39554 0.60372 0.76854 0.0
C626 C 0.3698 0.61304 0.79819 0.0
H627 H 0.40376 0.57765 0.71276 0.0
H628 H 0.4258 0.60967 0.77202 0.0
C629 C 0.33051 0.60608 0.79176 0.0
C630 C 0.68154 0.03001 0.06262 0.0
C631 C 0.6852 0.07101 0.07561 0.0
H632 H 0.69542 0.98504 1.01898 0.0
C633 C 0.70417 0.09881 0.052 0.0
H634 H 0.66676 1.0078 0.0798 0.0
C635 C 0.72022 0.08587 1.01741 0.0
C636 C 0.71793 0.04466 1.00501 0.0
H637 H 0.70814 0.13038 0.06096 0.0
H638 H 0.73558 0.10816 1.00084 0.0
C639 C 0.69756 1.01702 1.02755 0.0
C640 C 0.76042 0.1095 0.76908 0.0
C641 C 0.72156 0.12292 0.7651 0.0
H642 H 0.80263 0.07346 0.80219 0.0
C643 C 0.69707 0.11613 0.7961 0.0
H644 H 0.78006 0.11375 0.74576 0.0
C645 C 0.71036 0.0936 0.82883 0.0
C646 C 0.74836 0.07746 0.83119 0.0
H647 H 0.66711 0.12644 0.79423 0.0
H648 H 0.6901 0.08581 0.85073 0.0
C649 C 0.77353 0.08669 0.8016 0.0
C650 C 0.20361 0.42169 0.06932 0.0
C651 C 0.20436 0.46463 0.0749 0.0
H652 H 0.18711 0.37259 1.03259 0.0
C653 C 0.18607 0.49143 0.0475 0.0
H654 H 0.21697 0.40019 0.09018 0.0
C655 C 0.16931 0.4755 1.014 0.0
C656 C 0.17047 0.43256 1.00755 0.0
H657 H 0.18629 0.52468 0.05101 0.0
H658 H 0.1569 0.49685 0.9925 0.0
C659 C 0.18676 0.40587 1.03615 0.0
C660 C 0.86938 0.95594 0.32698 0.0
C661 C 0.83177 0.95018 0.33945 0.0
H662 H 0.91104 0.94343 0.28376 0.0
C663 C 0.80856 0.92274 0.31927 0.0
H664 H 0.88824 0.97653 0.34204 0.0
C665 C 0.82192 0.90353 0.28589 0.0
C666 C 0.85854 0.9117 0.2721 0.0
H667 H 0.7795 0.91761 0.32815 0.0
H668 H 0.80282 0.88412 0.26974 0.0
C669 C 0.88251 0.93711 0.29354 0.0
C670 C 0.34811 0.60644 0.55155 0.0
C671 C 0.3544 0.56431 0.5611 0.0
H672 H 0.35938 0.65616 0.51319 0.0
C673 C 0.37926 0.53996 0.53837 0.0
H674 H 0.32966 0.62639 0.56869 0.0
C675 C 0.39621 0.55722 0.50589 0.0
C676 C 0.38858 0.59909 0.49567 0.0
H677 H 0.38469 0.50741 0.54497 0.0
H678 H 0.41433 0.53754 0.4882 0.0
C679 C 0.36499 0.62355 0.51945 0.0
C680 C 0.28287 0.19476 0.48478 0.0
C681 C 0.26042 0.22718 0.46732 0.0
H682 H 0.33208 0.15356 0.48183 0.0
C683 C 0.27195 0.24308 0.43172 0.0
H684 H 0.27544 0.18203 0.51247 0.0
C685 C 0.3047 0.22614 0.4137 0.0
C686 C 0.32664 0.19309 0.43102 0.0
H687 H 0.25542 0.26815 0.41754 0.0
H688 H 0.31228 0.23826 0.38584 0.0
C689 C 0.31549 0.17819 0.46707 0.0
C690 C 0.12837 1.01178 0.69122 0.0
C691 C 0.10427 0.03773 0.66774 0.0
H692 H 0.13281 0.96171 0.73167 0.0
C693 C 0.06454 0.03123 0.66665 0.0
H694 H 0.15901 1.01625 0.6932 0.0
C695 C 0.04933 0.99961 0.68893 0.0
C696 C 0.07355 0.97432 0.713 0.0
H697 H 0.04527 0.05059 0.64866 0.0
H698 H 1.0186 0.99583 0.68814 0.0
C699 C 0.11325 0.98058 0.71352 0.0
C700 C 0.30273 0.86293 0.93397 0.0
C701 C 0.27511 0.8347 0.92243 0.0
H702 H 0.35547 0.87248 0.9649 0.0
C703 C 0.28194 0.79246 0.93196 0.0
H704 H 0.29901 0.89548 0.92654 0.0
C705 C 0.3147 0.77916 0.95364 0.0
C706 C 0.3413 0.80781 0.96645 0.0
H707 H 0.26125 0.76977 0.92392 0.0
H708 H 0.31844 0.74674 0.96157 0.0
C709 C 0.33534 0.84966 0.95568 0.0
C710 C 0.46716 1.01761 0.23183 0.0
C711 C 0.50605 0.02606 0.22683 0.0
H712 H 0.42066 0.97898 0.21792 0.0
C713 C 0.52776 1.00143 0.20145 0.0
H714 H 0.44928 0.03633 0.2506 0.0
C715 C 0.51112 0.96801 0.18269 0.0
C716 C 0.47255 0.95879 0.18903 0.0
H717 H 0.55776 1.0072 0.19696 0.0
H718 H 0.52873 0.94866 0.16421 0.0
C719 C 0.45067 0.98453 0.21319 0.0
C720 C 0.8097 0.3218 0.6655 0.0
C721 C 0.8183 0.36347 0.6595 0.0
H722 H 0.77037 0.27389 0.65419 0.0
C723 C 0.79067 0.39036 0.64158 0.0
H724 H 0.83056 0.30039 0.67928 0.0
C725 C 0.75617 0.37534 0.62751 0.0
C726 C 0.74877 0.33298 0.63071 0.0
H727 H 0.79631 0.42278 0.63729 0.0
H728 H 0.73624 0.39666 0.61233 0.0
C729 C 0.77522 0.30664 0.65116 0.0
C730 C 0.95118 0.45884 0.85876 0.0
C731 C 0.98996 0.45391 0.84894 0.0
H732 H 0.90869 0.49373 0.88934 0.0
C733 C 1.01664 0.48064 0.86518 0.0
H734 H 0.92986 0.43894 0.84655 0.0
C735 C 1.00446 0.51222 0.89023 0.0
C736 C 0.9654 0.51757 0.8995 0.0
H737 H 0.04672 0.47766 0.85798 0.0
H738 H 1.02562 0.53231 0.90239 0.0
C739 C 0.93905 0.49029 0.88348 0.0
C740 C 0.80156 0.72674 0.15225 0.0
C741 C 0.81687 0.70603 0.12028 0.0
H742 H 0.75613 0.73097 0.19276 0.0
C743 C 0.79853 0.67098 0.10635 0.0
H744 H 0.81505 0.75367 0.16391 0.0
C745 C 0.76452 0.65843 0.12242 0.0
C746 C 0.74805 0.6803 0.15314 0.0
H747 H 0.80944 0.65411 0.08182 0.0
H748 H 0.75022 0.63271 0.10942 0.0
C749 C 0.76757 0.71393 0.16858 0.0
C750 C 0.56667 0.53648 0.39386 0.0
C751 C 0.6061 0.53034 0.40314 0.0
H752 H 0.52335 0.57209 0.36155 0.0
C753 C 0.63205 0.5577 0.38726 0.0
H754 H 0.54576 0.51648 0.40601 0.0
C755 C 0.61914 0.58982 0.36246 0.0
C756 C 0.57997 0.59532 0.35246 0.0
H757 H 0.66264 0.55375 0.39318 0.0
H758 H 0.64013 0.60968 0.35023 0.0
C759 C 0.55374 0.56864 0.36876 0.0
C760 C 0.45081 0.23903 0.19108 0.0
C761 C 0.43613 0.26706 0.21835 0.0
H762 H 0.48712 0.18562 0.18046 0.0
C763 C 0.44583 0.26017 0.25755 0.0
H764 H 0.44319 0.24271 0.16079 0.0
C765 C 0.47095 0.227 0.26891 0.0
C766 C 0.48669 0.20013 0.24126 0.0
H767 H 0.43501 0.28113 0.2793 0.0
H768 H 0.47892 0.22314 0.2991 0.0
C769 C 0.47574 0.20605 0.20239 0.0
C770 C 0.94126 0.27289 0.80499 0.0
C771 C 0.9801 0.27847 0.81464 0.0
H772 H 0.89149 0.2374 0.81499 0.0
C773 C 0.99964 0.24945 0.83912 0.0
H774 H 0.92556 0.29472 0.78607 0.0
C775 C 0.98052 0.21672 0.85511 0.0
C776 C 0.94117 0.21227 0.84748 0.0
H777 H 1.02981 0.25228 0.84649 0.0
H778 H 0.99651 0.19525 0.87416 0.0
C779 C 0.92186 0.24003 0.82142 0.0
C780 C 0.04649 0.67076 0.08678 0.0
C781 C 0.06039 0.66736 0.12519 0.0
H782 H 1.00149 0.69488 0.04835 0.0
C783 C 0.03693 0.68221 0.1548 0.0
H784 H 0.0639 0.65936 0.06338 0.0
C785 C 1.00162 0.70242 0.14618 0.0
C786 C 0.98858 0.70762 0.10785 0.0
H787 H 0.04686 0.68048 0.18459 0.0
H788 H 0.98525 0.71579 0.1695 0.0
C789 C 1.01062 0.69051 0.07818 0.0
C790 C 0.63849 0.81279 0.32559 0.0
C791 C 0.62067 0.83656 0.35459 0.0
H792 H 0.63421 0.76176 0.28644 0.0
C793 C 0.58298 0.82754 0.36447 0.0
H794 H 0.66755 0.81871 0.31726 0.0
C795 C 0.56414 0.79502 0.34708 0.0
C796 C 0.58216 0.77041 0.31895 0.0
H797 H 0.56782 0.8457 0.38581 0.0
H798 H 0.53528 0.78906 0.35608 0.0
C799 C 0.61942 0.78006 0.30794 0.0
C800 C 0.55391 0.34245 0.57523 0.0
C801 C 0.58241 0.3334 0.6036 0.0
H802 H 0.49587 0.36433 0.56352 0.0
C803 C 0.57548 0.344 0.64204 0.0
H804 H 0.55861 0.33464 0.54538 0.0
C805 C 0.5398 0.36124 0.65236 0.0
C806 C 0.51038 0.36765 0.62443 0.0
H807 H 0.59713 0.33742 0.6644 0.0
H808 H 0.53458 0.36748 0.68244 0.0
C809 C 0.51804 0.35916 0.58563 0.0
C810 C 0.09252 0.72101 0.73857 0.0
C811 C 0.12974 0.73295 0.72983 0.0
H812 H 0.03668 0.7402 0.75804 0.0
C813 C 0.14016 0.77358 0.73803 0.0
H814 H 0.08352 0.69004 0.73235 0.0
C815 C 0.11328 0.8023 0.75252 0.0
C816 C 0.07549 0.79092 0.75911 0.0
H817 H 0.16881 0.7835 0.7322 0.0
H818 H 0.12169 0.83382 0.75708 0.0
C819 C 0.06563 0.74977 0.75308 0.0
C820 C 0.52479 0.8534 1.00901 0.0
C821 C 0.50645 0.82276 0.98773 0.0
H822 H 0.57023 0.89642 1.01111 0.0
C823 C 0.51999 0.81309 0.95086 0.0
H824 H 0.51506 0.86167 0.03745 0.0
C825 C 0.55151 0.83253 0.93603 0.0
C826 C 0.5705 0.8626 0.95737 0.0
H827 H 0.50675 0.78969 0.93347 0.0
H828 H 0.56171 0.82286 0.90815 0.0
C829 C 0.55654 0.87311 0.99399 0.0
C830 C 1.02751 0.18015 0.49544 0.0
C831 C 1.01868 0.17227 0.45644 0.0
H832 H 0.06698 0.20631 0.53611 0.0
C833 C 0.04586 0.18205 0.42871 0.0
H834 H 1.00734 0.17304 0.5176 0.0
C835 C 0.07991 0.20096 0.4393 0.0
C836 C 0.08784 0.21072 0.47794 0.0
H837 H 0.04062 0.17552 0.39854 0.0
H838 H 0.09953 0.20911 0.41695 0.0
C839 C 0.0617 0.19922 0.50607 0.0
loop_
_geom_bond_atom_site_label_1
_geom_bond_atom_site_label_2
_geom_bond_distance
_geom_bond_site_symmetry_2
_ccdc_geom_bond_type
La0 C2 2.928 . S
La0 O20 2.521 . S
La0 O21 2.628 . S
La0 O22 2.554 . S
La0 O23 2.757 . S
La0 O24 2.470 . S
La0 O29 2.482 . S
La0 O31 2.503 . S
La1 C11 2.928 . S
La1 O23 2.482 . S
La1 O25 2.503 . S
La1 O26 2.521 . S
La1 O27 2.628 . S
La1 O28 2.554 . S
La1 O29 2.757 . S
La1 O30 2.470 . S
C2 La0 2.928 . S
C2 C3 1.503 . S
C2 O20 1.261 . S
C2 O21 1.243 . S
C3 C2 1.503 . S
C3 C4 1.394 . S
C3 C8 1.373 . S
C4 C3 1.394 . S
C4 C5 1.380 . S
C4 H32 0.930 . S
C5 C4 1.380 . S
C5 C6 1.376 . S
C5 H33 0.930 . S
C6 C5 1.376 . S
C6 C7 1.370 . S
C7 C6 1.370 . S
C7 C8 1.396 . S
C7 H34 0.929 . S
C8 C3 1.373 . S
C8 C7 1.396 . S
C8 H35 0.929 . S
C9 O22 1.240 . S
C9 O23 1.289 . S
C10 O24 1.258 . S
C10 O25 1.256 . S
C11 La1 2.928 . S
C11 C12 1.503 . S
C11 O26 1.261 . S
C11 O27 1.243 . S
C12 C11 1.503 . S
C12 C13 1.394 . S
C12 C17 1.373 . S
C13 C12 1.394 . S
C13 C14 1.380 . S
C13 H36 0.930 . S
C14 C13 1.380 . S
C14 C15 1.376 . S
C14 H37 0.930 . S
C15 C14 1.376 . S
C15 C16 1.370 . S
C16 C15 1.370 . S
C16 C17 1.396 . S
C16 H38 0.929 . S
C17 C12 1.373 . S
C17 C16 1.396 . S
C17 H39 0.929 . S
C18 O28 1.240 . S
C18 O29 1.289 . S
C19 O30 1.258 . S
C19 O31 1.256 . S
O20 La0 2.521 . S
O20 C2 1.261 . S
O21 La0 2.628 . S
O21 C2 1.243 . S
O22 La0 2.554 . S
O22 C9 1.240 . S
O23 La0 2.757 . S
O23 La1 2.482 . S
O23 C9 1.289 . S
O24 La0 2.470 . S
O24 C10 1.258 . S
O25 La1 2.503 . S
O25 C10 1.256 . S
O26 La1 2.521 . S
O26 C11 1.261 . S
O27 La1 2.628 . S
O27 C11 1.243 . S
O28 La1 2.554 . S
O28 C18 1.240 . S
O29 La0 2.482 . S
O29 La1 2.757 . S
O29 C18 1.289 . S
O30 La1 2.470 . S
O30 C19 1.258 . S
O31 La0 2.503 . S
O31 C19 1.256 . S
H32 C4 0.930 . S
H33 C5 0.930 . S
H34 C7 0.929 . S
H35 C8 0.929 . S
H36 C13 0.930 . S
H37 C14 0.930 . S
H38 C16 0.929 . S
H39 C17 0.929 . S
La40 C42 2.928 . S
La40 O60 2.521 . S
La40 O61 2.628 . S
La40 O62 2.554 1_655 S
La40 O63 2.757 1_655 S
La40 O64 2.470 1_655 S
La40 O69 2.482 . S
La40 O71 2.503 . S
La41 C51 2.928 . S
La41 O63 2.482 . S
La41 O65 2.503 . S
La41 O66 2.521 . S
La41 O67 2.628 . S
La41 O68 2.554 1_455 S
La41 O69 2.757 1_455 S
La41 O70 2.470 1_455 S
C42 La40 2.928 . S
C42 C43 1.503 . S
C42 O60 1.261 . S
C42 O61 1.243 . S
C43 C42 1.503 . S
C43 C44 1.394 . S
C43 C48 1.373 . S
C44 C43 1.394 . S
C44 C45 1.380 . S
C44 H72 0.930 . S
C45 C44 1.380 . S
C45 C46 1.376 . S
C45 H73 0.930 . S
C46 C45 1.376 . S
C46 C47 1.370 . S
C47 C46 1.370 . S
C47 C48 1.396 . S
C47 H74 0.929 . S
C48 C43 1.373 . S
C48 C47 1.396 . S
C48 H75 0.929 . S
C49 O62 1.240 . S
C49 O63 1.289 . S
C50 O64 1.258 . S
C50 O65 1.256 . S
C51 La41 2.928 . S
C51 C52 1.503 . S
C51 O66 1.261 . S
C51 O67 1.243 . S
C52 C51 1.503 . S
C52 C53 1.394 . S
C52 C57 1.373 . S
C53 C52 1.394 . S
C53 C54 1.380 . S
C53 H76 0.930 . S
C54 C53 1.380 . S
C54 C55 1.376 . S
C54 H77 0.930 . S
C55 C54 1.376 . S
C55 C56 1.370 . S
C56 C55 1.370 . S
C56 C57 1.396 . S
C56 H78 0.929 . S
C57 C52 1.373 . S
C57 C56 1.396 . S
C57 H79 0.929 . S
C58 O68 1.240 . S
C58 O69 1.289 . S
C59 O70 1.258 . S
C59 O71 1.256 . S
O60 La40 2.521 . S
O60 C42 1.261 . S
O61 La40 2.628 . S
O61 C42 1.243 . S
O62 La40 2.554 1_455 S
O62 C49 1.240 . S
O63 La40 2.757 1_455 S
O63 La41 2.482 . S
O63 C49 1.289 . S
O64 La40 2.470 1_455 S
O64 C50 1.258 . S
O65 La41 2.503 . S
O65 C50 1.256 . S
O66 La41 2.521 . S
O66 C51 1.261 . S
O67 La41 2.628 . S
O67 C51 1.243 . S
O68 La41 2.554 1_655 S
O68 C58 1.240 . S
O69 La40 2.482 . S
O69 La41 2.757 1_655 S
O69 C58 1.289 . S
O70 La41 2.470 1_655 S
O70 C59 1.258 . S
O71 La40 2.503 . S
O71 C59 1.256 . S
H72 C44 0.930 . S
H73 C45 0.930 . S
H74 C47 0.929 . S
H75 C48 0.929 . S
H76 C53 0.930 . S
H77 C54 0.930 . S
H78 C56 0.929 . S
H79 C57 0.929 . S
La80 C82 2.928 . S
La80 O100 2.521 . S
La80 O101 2.628 . S
La80 O102 2.554 1_554 S
La80 O103 2.757 1_554 S
La80 O104 2.470 1_554 S
La80 O109 2.482 . S
La80 O111 2.503 . S
La81 C91 2.928 . S
La81 O103 2.482 . S
La81 O105 2.503 . S
La81 O106 2.521 . S
La81 O107 2.628 . S
La81 O108 2.554 1_556 S
La81 O109 2.757 1_556 S
La81 O110 2.470 1_556 S
C82 La80 2.928 . S
C82 C83 1.503 . S
C82 O100 1.261 . S
C82 O101 1.243 . S
C83 C82 1.503 . S
C83 C84 1.394 . S
C83 C88 1.373 . S
C84 C83 1.394 . S
C84 C85 1.380 . S
C84 H112 0.930 . S
C85 C84 1.380 . S
C85 C86 1.376 . S
C85 H113 0.930 . S
C86 C85 1.376 . S
C86 C87 1.370 . S
C87 C86 1.370 . S
C87 C88 1.396 . S
C87 H114 0.929 . S
C88 C83 1.373 . S
C88 C87 1.396 . S
C88 H115 0.929 . S
C89 O102 1.240 . S
C89 O103 1.289 . S
C90 O104 1.258 . S
C90 O105 1.256 . S
C91 La81 2.928 . S
C91 C92 1.503 . S
C91 O106 1.261 . S
C91 O107 1.243 . S
C92 C91 1.503 . S
C92 C93 1.394 . S
C92 C97 1.373 . S
C93 C92 1.394 . S
C93 C94 1.380 . S
C93 H116 0.930 . S
C94 C93 1.380 . S
C94 C95 1.376 . S
C94 H117 0.930 . S
C95 C94 1.376 . S
C95 C96 1.370 . S
C96 C95 1.370 . S
C96 C97 1.396 . S
C96 H118 0.929 . S
C97 C92 1.373 . S
C97 C96 1.396 . S
C97 H119 0.929 . S
C98 O108 1.240 . S
C98 O109 1.289 . S
C99 O110 1.258 . S
C99 O111 1.256 . S
O100 La80 2.521 . S
O100 C82 1.261 . S
O101 La80 2.628 . S
O101 C82 1.243 . S
O102 La80 2.554 1_556 S
O102 C89 1.240 . S
O103 La80 2.757 1_556 S
O103 La81 2.482 . S
O103 C89 1.289 . S
O104 La80 2.470 1_556 S
O104 C90 1.258 . S
O105 La81 2.503 . S
O105 C90 1.256 . S
O106 La81 2.521 . S
O106 C91 1.261 . S
O107 La81 2.628 . S
O107 C91 1.243 . S
O108 La81 2.554 1_554 S
O108 C98 1.240 . S
O109 La80 2.482 . S
O109 La81 2.757 1_554 S
O109 C98 1.289 . S
O110 La81 2.470 1_554 S
O110 C99 1.258 . S
O111 La80 2.503 . S
O111 C99 1.256 . S
H112 C84 0.930 . S
H113 C85 0.930 . S
H114 C87 0.929 . S
H115 C88 0.929 . S
H116 C93 0.930 . S
H117 C94 0.930 . S
H118 C96 0.929 . S
H119 C97 0.929 . S
La120 C122 2.928 . S
La120 O140 2.521 . S
La120 O141 2.628 . S
La120 O142 2.554 . S
La120 O143 2.757 . S
La120 O144 2.470 . S
La120 O149 2.482 . S
La120 O151 2.503 . S
La121 C131 2.928 . S
La121 O143 2.482 . S
La121 O145 2.503 . S
La121 O146 2.521 . S
La121 O147 2.628 . S
La121 O148 2.554 . S
La121 O149 2.757 . S
La121 O150 2.470 . S
C122 La120 2.928 . S
C122 C123 1.503 . S
C122 O140 1.261 . S
C122 O141 1.243 . S
C123 C122 1.503 . S
C123 C124 1.394 . S
C123 C128 1.373 . S
C124 C123 1.394 . S
C124 C125 1.380 . S
C124 H152 0.930 . S
C125 C124 1.380 . S
C125 C126 1.376 . S
C125 H153 0.930 . S
C126 C125 1.376 . S
C126 C127 1.370 . S
C127 C126 1.370 . S
C127 C128 1.396 . S
C127 H154 0.929 . S
C128 C123 1.373 . S
C128 C127 1.396 . S
C128 H155 0.929 . S
C129 O142 1.240 . S
C129 O143 1.289 . S
C130 O144 1.258 . S
C130 O145 1.256 . S
C131 La121 2.928 . S
C131 C132 1.503 . S
C131 O146 1.261 . S
C131 O147 1.243 . S
C132 C131 1.503 . S
C132 C133 1.394 . S
C132 C137 1.373 . S
C133 C132 1.394 . S
C133 C134 1.380 . S
C133 H156 0.930 . S
C134 C133 1.380 . S
C134 C135 1.376 . S
C134 H157 0.930 . S
C135 C134 1.376 . S
C135 C136 1.370 . S
C136 C135 1.370 . S
C136 C137 1.396 . S
C136 H158 0.929 . S
C137 C132 1.373 . S
C137 C136 1.396 . S
C137 H159 0.929 . S
C138 O148 1.240 . S
C138 O149 1.289 . S
C139 O150 1.258 . S
C139 O151 1.256 . S
O140 La120 2.521 . S
O140 C122 1.261 . S
O141 La120 2.628 . S
O141 C122 1.243 . S
O142 La120 2.554 . S
O142 C129 1.240 . S
O143 La120 2.757 . S
O143 La121 2.482 . S
O143 C129 1.289 . S
O144 La120 2.470 . S
O144 C130 1.258 . S
O145 La121 2.503 . S
O145 C130 1.256 . S
O146 La121 2.521 . S
O146 C131 1.261 . S
O147 La121 2.628 . S
O147 C131 1.243 . S
O148 La121 2.554 . S
O148 C138 1.240 . S
O149 La120 2.482 . S
O149 La121 2.757 . S
O149 C138 1.289 . S
O150 La121 2.470 . S
O150 C139 1.258 . S
O151 La120 2.503 . S
O151 C139 1.256 . S
H152 C124 0.930 . S
H153 C125 0.930 . S
H154 C127 0.929 . S
H155 C128 0.929 . S
H156 C133 0.930 . S
H157 C134 0.930 . S
H158 C136 0.929 . S
H159 C137 0.929 . S
La160 C162 2.928 . S
La160 O180 2.521 . S
La160 O181 2.628 . S
La160 O182 2.554 . S
La160 O183 2.757 . S
La160 O184 2.470 . S
La160 O189 2.482 . S
La160 O191 2.503 . S
La161 C171 2.928 . S
La161 O183 2.482 . S
La161 O185 2.503 . S
La161 O186 2.521 . S
La161 O187 2.628 . S
La161 O188 2.554 . S
La161 O189 2.757 . S
La161 O190 2.470 . S
C162 La160 2.928 . S
C162 C163 1.503 . S
C162 O180 1.261 . S
C162 O181 1.243 . S
C163 C162 1.503 . S
C163 C164 1.394 . S
C163 C168 1.373 . S
C164 C163 1.394 . S
C164 C165 1.380 . S
C164 H192 0.930 . S
C165 C164 1.380 . S
C165 C166 1.376 . S
C165 H193 0.930 . S
C166 C165 1.376 . S
C166 C167 1.370 . S
C167 C166 1.370 . S
C167 C168 1.396 . S
C167 H194 0.929 . S
C168 C163 1.373 . S
C168 C167 1.396 . S
C168 H195 0.929 . S
C169 O182 1.240 . S
C169 O183 1.289 . S
C170 O184 1.258 . S
C170 O185 1.256 . S
C171 La161 2.928 . S
C171 C172 1.503 . S
C171 O186 1.261 . S
C171 O187 1.243 . S
C172 C171 1.503 . S
C172 C173 1.394 . S
C172 C177 1.373 . S
C173 C172 1.394 . S
C173 C174 1.380 . S
C173 H196 0.930 . S
C174 C173 1.380 . S
C174 C175 1.376 . S
C174 H197 0.930 . S
C175 C174 1.376 . S
C175 C176 1.370 . S
C176 C175 1.370 . S
C176 C177 1.396 . S
C176 H198 0.929 . S
C177 C172 1.373 . S
C177 C176 1.396 . S
C177 H199 0.929 . S
C178 O188 1.240 . S
C178 O189 1.289 . S
C179 O190 1.258 . S
C179 O191 1.256 . S
O180 La160 2.521 . S
O180 C162 1.261 . S
O181 La160 2.628 . S
O181 C162 1.243 . S
O182 La160 2.554 . S
O182 C169 1.240 . S
O183 La160 2.757 . S
O183 La161 2.482 . S
O183 C169 1.289 . S
O184 La160 2.470 . S
O184 C170 1.258 . S
O185 La161 2.503 . S
O185 C170 1.256 . S
O186 La161 2.521 . S
O186 C171 1.261 . S
O187 La161 2.628 . S
O187 C171 1.243 . S
O188 La161 2.554 . S
O188 C178 1.240 . S
O189 La160 2.482 . S
O189 La161 2.757 . S
O189 C178 1.289 . S
O190 La161 2.470 . S
O190 C179 1.258 . S
O191 La160 2.503 . S
O191 C179 1.256 . S
H192 C164 0.930 . S
H193 C165 0.930 . S
H194 C167 0.929 . S
H195 C168 0.929 . S
H196 C173 0.930 . S
H197 C174 0.930 . S
H198 C176 0.929 . S
H199 C177 0.929 . S
La200 C202 2.928 . S
La200 O220 2.521 . S
La200 O221 2.628 . S
La200 O222 2.554 . S
La200 O223 2.757 . S
La200 O224 2.470 . S
La200 O229 2.482 1_655 S
La200 O231 2.503 1_655 S
La201 C211 2.928 . S
La201 O223 2.482 1_455 S
La201 O225 2.503 1_455 S
La201 O226 2.521 . S
La201 O227 2.628 . S
La201 O228 2.554 . S
La201 O229 2.757 . S
La201 O230 2.470 . S
C202 La200 2.928 . S
C202 C203 1.503 . S
C202 O220 1.261 . S
C202 O221 1.243 . S
C203 C202 1.503 . S
C203 C204 1.394 . S
C203 C208 1.373 . S
C204 C203 1.394 . S
C204 C205 1.380 . S
C204 H232 0.930 . S
C205 C204 1.380 . S
C205 C206 1.376 . S
C205 H233 0.930 . S
C206 C205 1.376 . S
C206 C207 1.370 . S
C207 C206 1.370 . S
C207 C208 1.396 . S
C207 H234 0.929 . S
C208 C203 1.373 . S
C208 C207 1.396 . S
C208 H235 0.929 . S
C209 O222 1.240 . S
C209 O223 1.289 . S
C210 O224 1.258 . S
C210 O225 1.256 . S
C211 La201 2.928 . S
C211 C212 1.503 . S
C211 O226 1.261 . S
C211 O227 1.243 . S
C212 C211 1.503 . S
C212 C213 1.394 . S
C212 C217 1.373 . S
C213 C212 1.394 . S
C213 C214 1.380 . S
C213 H236 0.930 . S
C214 C213 1.380 . S
C214 C215 1.376 . S
C214 H237 0.930 . S
C215 C214 1.376 . S
C215 C216 1.370 . S
C216 C215 1.370 . S
C216 C217 1.396 . S
C216 H238 0.929 . S
C217 C212 1.373 . S
C217 C216 1.396 . S
C217 H239 0.929 . S
C218 O228 1.240 . S
C218 O229 1.289 . S
C219 O230 1.258 . S
C219 O231 1.256 . S
O220 La200 2.521 . S
O220 C202 1.261 . S
O221 La200 2.628 . S
O221 C202 1.243 . S
O222 La200 2.554 . S
O222 C209 1.240 . S
O223 La200 2.757 . S
O223 La201 2.482 1_655 S
O223 C209 1.289 . S
O224 La200 2.470 . S
O224 C210 1.258 . S
O225 La201 2.503 1_655 S
O225 C210 1.256 . S
O226 La201 2.521 . S
O226 C211 1.261 . S
O227 La201 2.628 . S
O227 C211 1.243 . S
O228 La201 2.554 . S
O228 C218 1.240 . S
O229 La200 2.482 1_455 S
O229 La201 2.757 . S
O229 C218 1.289 . S
O230 La201 2.470 . S
O230 C219 1.258 . S
O231 La200 2.503 1_455 S
O231 C219 1.256 . S
H232 C204 0.930 . S
H233 C205 0.930 . S
H234 C207 0.929 . S
H235 C208 0.929 . S
H236 C213 0.930 . S
H237 C214 0.930 . S
H238 C216 0.929 . S
H239 C217 0.929 . S
La240 C242 2.928 . S
La240 O260 2.521 . S
La240 O261 2.628 . S
La240 O262 2.554 . S
La240 O263 2.757 . S
La240 O264 2.470 . S
La240 O269 2.482 1_554 S
La240 O271 2.503 1_554 S
La241 C251 2.928 . S
La241 O263 2.482 1_556 S
La241 O265 2.503 1_556 S
La241 O266 2.521 . S
La241 O267 2.628 . S
La241 O268 2.554 . S
La241 O269 2.757 . S
La241 O270 2.470 . S
C242 La240 2.928 . S
C242 C243 1.503 . S
C242 O260 1.261 . S
C242 O261 1.243 . S
C243 C242 1.503 . S
C243 C244 1.394 . S
C243 C248 1.373 . S
C244 C243 1.394 . S
C244 C245 1.380 . S
C244 H272 0.930 . S
C245 C244 1.380 . S
C245 C246 1.376 . S
C245 H273 0.930 . S
C246 C245 1.376 . S
C246 C247 1.370 . S
C247 C246 1.370 . S
C247 C248 1.396 . S
C247 H274 0.929 . S
C248 C243 1.373 . S
C248 C247 1.396 . S
C248 H275 0.929 . S
C249 O262 1.240 . S
C249 O263 1.289 . S
C250 O264 1.258 . S
C250 O265 1.256 . S
C251 La241 2.928 . S
C251 C252 1.503 . S
C251 O266 1.261 . S
C251 O267 1.243 . S
C252 C251 1.503 . S
C252 C253 1.394 . S
C252 C257 1.373 . S
C253 C252 1.394 . S
C253 C254 1.380 . S
C253 H276 0.930 . S
C254 C253 1.380 . S
C254 C255 1.376 . S
C254 H277 0.930 . S
C255 C254 1.376 . S
C255 C256 1.370 . S
C256 C255 1.370 . S
C256 C257 1.396 . S
C256 H278 0.929 . S
C257 C252 1.373 . S
C257 C256 1.396 . S
C257 H279 0.929 . S
C258 O268 1.240 . S
C258 O269 1.289 . S
C259 O270 1.258 . S
C259 O271 1.256 . S
O260 La240 2.521 . S
O260 C242 1.261 . S
O261 La240 2.628 . S
O261 C242 1.243 . S
O262 La240 2.554 . S
O262 C249 1.240 . S
O263 La240 2.757 . S
O263 La241 2.482 1_554 S
O263 C249 1.289 . S
O264 La240 2.470 . S
O264 C250 1.258 . S
O265 La241 2.503 1_554 S
O265 C250 1.256 . S
O266 La241 2.521 . S
O266 C251 1.261 . S
O267 La241 2.628 . S
O267 C251 1.243 . S
O268 La241 2.554 . S
O268 C258 1.240 . S
O269 La240 2.482 1_556 S
O269 La241 2.757 . S
O269 C258 1.289 . S
O270 La241 2.470 . S
O270 C259 1.258 . S
O271 La240 2.503 1_556 S
O271 C259 1.256 . S
H272 C244 0.930 . S
H273 C245 0.930 . S
H274 C247 0.929 . S
H275 C248 0.929 . S
H276 C253 0.930 . S
H277 C254 0.930 . S
H278 C256 0.929 . S
H279 C257 0.929 . S
La280 C282 2.928 . S
La280 O300 2.521 . S
La280 O301 2.628 . S
La280 O302 2.554 . S
La280 O303 2.757 . S
La280 O304 2.470 . S
La280 O309 2.482 . S
La280 O311 2.503 . S
La281 C291 2.928 . S
La281 O303 2.482 . S
La281 O305 2.503 . S
La281 O306 2.521 . S
La281 O307 2.628 . S
La281 O308 2.554 . S
La281 O309 2.757 . S
La281 O310 2.470 . S
C282 La280 2.928 . S
C282 C283 1.503 . S
C282 O300 1.261 . S
C282 O301 1.243 . S
C283 C282 1.503 . S
C283 C284 1.394 . S
C283 C288 1.373 . S
C284 C283 1.394 . S
C284 C285 1.380 . S
C284 H312 0.930 . S
C285 C284 1.380 . S
C285 C286 1.376 . S
C285 H313 0.930 . S
C286 C285 1.376 . S
C286 C287 1.370 . S
C287 C286 1.370 . S
C287 C288 1.396 . S
C287 H314 0.929 . S
C288 C283 1.373 . S
C288 C287 1.396 . S
C288 H315 0.929 . S
C289 O302 1.240 . S
C289 O303 1.289 . S
C290 O304 1.258 . S
C290 O305 1.256 . S
C291 La281 2.928 . S
C291 C292 1.503 . S
C291 O306 1.261 . S
C291 O307 1.243 . S
C292 C291 1.503 . S
C292 C293 1.394 . S
C292 C297 1.373 . S
C293 C292 1.394 . S
C293 C294 1.380 . S
C293 H316 0.930 . S
C294 C293 1.380 . S
C294 C295 1.376 . S
C294 H317 0.930 . S
C295 C294 1.376 . S
C295 C296 1.370 . S
C296 C295 1.370 . S
C296 C297 1.396 . S
C296 H318 0.929 . S
C297 C292 1.373 . S
C297 C296 1.396 . S
C297 H319 0.929 . S
C298 O308 1.240 . S
C298 O309 1.289 . S
C299 O310 1.258 . S
C299 O311 1.256 . S
O300 La280 2.521 . S
O300 C282 1.261 . S
O301 La280 2.628 . S
O301 C282 1.243 . S
O302 La280 2.554 . S
O302 C289 1.240 . S
O303 La280 2.757 . S
O303 La281 2.482 . S
O303 C289 1.289 . S
O304 La280 2.470 . S
O304 C290 1.258 . S
O305 La281 2.503 . S
O305 C290 1.256 . S
O306 La281 2.521 . S
O306 C291 1.261 . S
O307 La281 2.628 . S
O307 C291 1.243 . S
O308 La281 2.554 . S
O308 C298 1.240 . S
O309 La280 2.482 . S
O309 La281 2.757 . S
O309 C298 1.289 . S
O310 La281 2.470 . S
O310 C299 1.258 . S
O311 La280 2.503 . S
O311 C299 1.256 . S
H312 C284 0.930 . S
H313 C285 0.930 . S
H314 C287 0.929 . S
H315 C288 0.929 . S
H316 C293 0.930 . S
H317 C294 0.930 . S
H318 C296 0.929 . S
H319 C297 0.929 . S
La320 C322 2.928 . S
La320 O340 2.521 . S
La320 O341 2.628 . S
La320 O342 2.554 . S
La320 O343 2.757 . S
La320 O344 2.470 . S
La320 O349 2.482 . S
La320 O351 2.503 . S
La321 C331 2.928 . S
La321 O343 2.482 . S
La321 O345 2.503 . S
La321 O346 2.521 . S
La321 O347 2.628 . S
La321 O348 2.554 . S
La321 O349 2.757 . S
La321 O350 2.470 . S
C322 La320 2.928 . S
C322 C323 1.503 . S
C322 O340 1.261 . S
C322 O341 1.243 . S
C323 C322 1.503 . S
C323 C324 1.394 . S
C323 C328 1.373 . S
C324 C323 1.394 . S
C324 C325 1.380 . S
C324 H352 0.930 . S
C325 C324 1.380 . S
C325 C326 1.376 . S
C325 H353 0.930 . S
C326 C325 1.376 . S
C326 C327 1.370 . S
C327 C326 1.370 . S
C327 C328 1.396 . S
C327 H354 0.929 . S
C328 C323 1.373 . S
C328 C327 1.396 . S
C328 H355 0.929 . S
C329 O342 1.240 . S
C329 O343 1.289 . S
C330 O344 1.258 . S
C330 O345 1.256 . S
C331 La321 2.928 . S
C331 C332 1.503 . S
C331 O346 1.261 . S
C331 O347 1.243 . S
C332 C331 1.503 . S
C332 C333 1.394 . S
C332 C337 1.373 . S
C333 C332 1.394 . S
C333 C334 1.380 . S
C333 H356 0.930 . S
C334 C333 1.380 . S
C334 C335 1.376 . S
C334 H357 0.930 . S
C335 C334 1.376 . S
C335 C336 1.370 . S
C336 C335 1.370 . S
C336 C337 1.396 . S
C336 H358 0.929 . S
C337 C332 1.373 . S
C337 C336 1.396 . S
C337 H359 0.929 . S
C338 O348 1.240 . S
C338 O349 1.289 . S
C339 O350 1.258 . S
C339 O351 1.256 . S
O340 La320 2.521 . S
O340 C322 1.261 . S
O341 La320 2.628 . S
O341 C322 1.243 . S
O342 La320 2.554 . S
O342 C329 1.240 . S
O343 La320 2.757 . S
O343 La321 2.482 . S
O343 C329 1.289 . S
O344 La320 2.470 . S
O344 C330 1.258 . S
O345 La321 2.503 . S
O345 C330 1.256 . S
O346 La321 2.521 . S
O346 C331 1.261 . S
O347 La321 2.628 . S
O347 C331 1.243 . S
O348 La321 2.554 . S
O348 C338 1.240 . S
O349 La320 2.482 . S
O349 La321 2.757 . S
O349 C338 1.289 . S
O350 La321 2.470 . S
O350 C339 1.258 . S
O351 La320 2.503 . S
O351 C339 1.256 . S
H352 C324 0.930 . S
H353 C325 0.930 . S
H354 C327 0.929 . S
H355 C328 0.929 . S
H356 C333 0.930 . S
H357 C334 0.930 . S
H358 C336 0.929 . S
H359 C337 0.929 . S
La360 C362 2.928 . S
La360 O380 2.521 . S
La360 O381 2.628 . S
La360 O382 2.554 1_565 S
La360 O383 2.757 1_565 S
La360 O384 2.470 1_565 S
La360 O389 2.482 . S
La360 O391 2.503 . S
La361 C371 2.928 . S
La361 O383 2.482 . S
La361 O385 2.503 . S
La361 O386 2.521 . S
La361 O387 2.628 . S
La361 O388 2.554 1_545 S
La361 O389 2.757 1_545 S
La361 O390 2.470 1_545 S
C362 La360 2.928 . S
C362 C363 1.503 . S
C362 O380 1.261 . S
C362 O381 1.243 . S
C363 C362 1.503 . S
C363 C364 1.394 . S
C363 C368 1.373 . S
C364 C363 1.394 . S
C364 C365 1.380 . S
C364 H392 0.930 . S
C365 C364 1.380 . S
C365 C366 1.376 . S
C365 H393 0.930 . S
C366 C365 1.376 . S
C366 C367 1.370 . S
C367 C366 1.370 . S
C367 C368 1.396 . S
C367 H394 0.929 . S
C368 C363 1.373 . S
C368 C367 1.396 . S
C368 H395 0.929 . S
C369 O382 1.240 . S
C369 O383 1.289 . S
C370 O384 1.258 . S
C370 O385 1.256 . S
C371 La361 2.928 . S
C371 C372 1.503 . S
C371 O386 1.261 . S
C371 O387 1.243 . S
C372 C371 1.503 . S
C372 C373 1.394 . S
C372 C377 1.373 . S
C373 C372 1.394 . S
C373 C374 1.380 . S
C373 H396 0.930 . S
C374 C373 1.380 . S
C374 C375 1.376 . S
C374 H397 0.930 . S
C375 C374 1.376 . S
C375 C376 1.370 . S
C376 C375 1.370 . S
C376 C377 1.396 . S
C376 H398 0.929 . S
C377 C372 1.373 . S
C377 C376 1.396 . S
C377 H399 0.929 . S
C378 O388 1.240 . S
C378 O389 1.289 . S
C379 O390 1.258 . S
C379 O391 1.256 . S
O380 La360 2.521 . S
O380 C362 1.261 . S
O381 La360 2.628 . S
O381 C362 1.243 . S
O382 La360 2.554 1_545 S
O382 C369 1.240 . S
O383 La360 2.757 1_545 S
O383 La361 2.482 . S
O383 C369 1.289 . S
O384 La360 2.470 1_545 S
O384 C370 1.258 . S
O385 La361 2.503 . S
O385 C370 1.256 . S
O386 La361 2.521 . S
O386 C371 1.261 . S
O387 La361 2.628 . S
O387 C371 1.243 . S
O388 La361 2.554 1_565 S
O388 C378 1.240 . S
O389 La360 2.482 . S
O389 La361 2.757 1_565 S
O389 C378 1.289 . S
O390 La361 2.470 1_565 S
O390 C379 1.258 . S
O391 La360 2.503 . S
O391 C379 1.256 . S
H392 C364 0.930 . S
H393 C365 0.930 . S
H394 C367 0.929 . S
H395 C368 0.929 . S
H396 C373 0.930 . S
H397 C374 0.930 . S
H398 C376 0.929 . S
H399 C377 0.929 . S
La400 C402 2.928 . S
La400 O420 2.521 . S
La400 O421 2.628 . S
La400 O422 2.554 . S
La400 O423 2.757 . S
La400 O424 2.470 . S
La400 O429 2.482 1_565 S
La400 O431 2.503 1_565 S
La401 C411 2.928 . S
La401 O423 2.482 1_545 S
La401 O425 2.503 1_545 S
La401 O426 2.521 . S
La401 O427 2.628 . S
La401 O428 2.554 . S
La401 O429 2.757 . S
La401 O430 2.470 . S
C402 La400 2.928 . S
C402 C403 1.503 . S
C402 O420 1.261 . S
C402 O421 1.243 . S
C403 C402 1.503 . S
C403 C404 1.394 . S
C403 C408 1.373 . S
C404 C403 1.394 . S
C404 C405 1.380 . S
C404 H432 0.930 . S
C405 C404 1.380 . S
C405 C406 1.376 . S
C405 H433 0.930 . S
C406 C405 1.376 . S
C406 C407 1.370 . S
C407 C406 1.370 . S
C407 C408 1.396 . S
C407 H434 0.929 . S
C408 C403 1.373 . S
C408 C407 1.396 . S
C408 H435 0.929 . S
C409 O422 1.240 . S
C409 O423 1.289 . S
C410 O424 1.258 . S
C410 O425 1.256 . S
C411 La401 2.928 . S
C411 C412 1.503 . S
C411 O426 1.261 . S
C411 O427 1.243 . S
C412 C411 1.503 . S
C412 C413 1.394 . S
C412 C417 1.373 . S
C413 C412 1.394 . S
C413 C414 1.380 . S
C413 H436 0.930 . S
C414 C413 1.380 . S
C414 C415 1.376 . S
C414 H437 0.930 . S
C415 C414 1.376 . S
C415 C416 1.370 . S
C416 C415 1.370 . S
C416 C417 1.396 . S
C416 H438 0.929 . S
C417 C412 1.373 . S
C417 C416 1.396 . S
C417 H439 0.929 . S
C418 O428 1.240 . S
C418 O429 1.289 . S
C419 O430 1.258 . S
C419 O431 1.256 . S
O420 La400 2.521 . S
O420 C402 1.261 . S
O421 La400 2.628 . S
O421 C402 1.243 . S
O422 La400 2.554 . S
O422 C409 1.240 . S
O423 La400 2.757 . S
O423 La401 2.482 1_565 S
O423 C409 1.289 . S
O424 La400 2.470 . S
O424 C410 1.258 . S
O425 La401 2.503 1_565 S
O425 C410 1.256 . S
O426 La401 2.521 . S
O426 C411 1.261 . S
O427 La401 2.628 . S
O427 C411 1.243 . S
O428 La401 2.554 . S
O428 C418 1.240 . S
O429 La400 2.482 1_545 S
O429 La401 2.757 . S
O429 C418 1.289 . S
O430 La401 2.470 . S
O430 C419 1.258 . S
O431 La400 2.503 1_545 S
O431 C419 1.256 . S
H432 C404 0.930 . S
H433 C405 0.930 . S
H434 C407 0.929 . S
H435 C408 0.929 . S
H436 C413 0.930 . S
H437 C414 0.930 . S
H438 C416 0.929 . S
H439 C417 0.929 . S
La440 C442 2.928 . S
La440 O460 2.521 . S
La440 O461 2.628 . S
La440 O462 2.554 . S
La440 O463 2.757 . S
La440 O464 2.470 . S
La440 O469 2.482 . S
La440 O471 2.503 . S
La441 C451 2.928 . S
La441 O463 2.482 . S
La441 O465 2.503 . S
La441 O466 2.521 . S
La441 O467 2.628 . S
La441 O468 2.554 . S
La441 O469 2.757 . S
La441 O470 2.470 . S
C442 La440 2.928 . S
C442 C443 1.503 . S
C442 O460 1.261 . S
C442 O461 1.243 . S
C443 C442 1.503 . S
C443 C444 1.394 . S
C443 C448 1.373 . S
C444 C443 1.394 . S
C444 C445 1.380 . S
C444 H472 0.930 . S
C445 C444 1.380 . S
C445 C446 1.376 . S
C445 H473 0.930 . S
C446 C445 1.376 . S
C446 C447 1.370 . S
C447 C446 1.370 . S
C447 C448 1.396 . S
C447 H474 0.929 . S
C448 C443 1.373 . S
C448 C447 1.396 . S
C448 H475 0.929 . S
C449 O462 1.240 . S
C449 O463 1.289 . S
C450 O464 1.258 . S
C450 O465 1.256 . S
C451 La441 2.928 . S
C451 C452 1.503 . S
C451 O466 1.261 . S
C451 O467 1.243 . S
C452 C451 1.503 . S
C452 C453 1.394 . S
C452 C457 1.373 . S
C453 C452 1.394 . S
C453 C454 1.380 . S
C453 H476 0.930 . S
C454 C453 1.380 . S
C454 C455 1.376 . S
C454 H477 0.930 . S
C455 C454 1.376 . S
C455 C456 1.370 . S
C456 C455 1.370 . S
C456 C457 1.396 . S
C456 H478 0.929 . S
C457 C452 1.373 . S
C457 C456 1.396 . S
C457 H479 0.929 . S
C458 O468 1.240 . S
C458 O469 1.289 . S
C459 O470 1.258 . S
C459 O471 1.256 . S
O460 La440 2.521 . S
O460 C442 1.261 . S
O461 La440 2.628 . S
O461 C442 1.243 . S
O462 La440 2.554 . S
O462 C449 1.240 . S
O463 La440 2.757 . S
O463 La441 2.482 . S
O463 C449 1.289 . S
O464 La440 2.470 . S
O464 C450 1.258 . S
O465 La441 2.503 . S
O465 C450 1.256 . S
O466 La441 2.521 . S
O466 C451 1.261 . S
O467 La441 2.628 . S
O467 C451 1.243 . S
O468 La441 2.554 . S
O468 C458 1.240 . S
O469 La440 2.482 . S
O469 La441 2.757 . S
O469 C458 1.289 . S
O470 La441 2.470 . S
O470 C459 1.258 . S
O471 La440 2.503 . S
O471 C459 1.256 . S
H472 C444 0.930 . S
H473 C445 0.930 . S
H474 C447 0.929 . S
H475 C448 0.929 . S
H476 C453 0.930 . S
H477 C454 0.930 . S
H478 C456 0.929 . S
H479 C457 0.929 . S
C480 C481 1.387 . S
C480 H484 0.950 . S
C480 C489 1.390 . S
C481 C480 1.387 . S
C481 C483 1.387 . S
H482 C489 0.950 . S
C483 C481 1.387 . S
C483 C485 1.390 . S
C483 H487 0.950 . S
H484 C480 0.950 . S
C485 C483 1.390 . S
C485 C486 1.387 . S
C485 H488 0.950 . S
C486 C485 1.387 . S
C486 C489 1.387 . S
H487 C483 0.950 . S
H488 C485 0.950 . S
C489 C480 1.390 . S
C489 H482 0.950 . S
C489 C486 1.387 . S
C490 C491 1.387 . S
C490 H494 0.950 . S
C490 C499 1.390 . S
C491 C490 1.387 . S
C491 C493 1.387 . S
H492 C499 0.950 . S
C493 C491 1.387 . S
C493 C495 1.390 . S
C493 H497 0.950 . S
H494 C490 0.950 . S
C495 C493 1.390 . S
C495 C496 1.387 . S
C495 H498 0.950 . S
C496 C495 1.387 . S
C496 C499 1.387 . S
H497 C493 0.950 . S
H498 C495 0.950 . S
C499 C490 1.390 . S
C499 H492 0.950 . S
C499 C496 1.387 . S
C500 C501 1.387 . S
C500 H504 0.950 . S
C500 C509 1.390 . S
C501 C500 1.387 . S
C501 C503 1.387 . S
H502 C509 0.950 . S
C503 C501 1.387 . S
C503 C505 1.390 . S
C503 H507 0.950 1_554 S
H504 C500 0.950 . S
C505 C503 1.390 . S
C505 C506 1.387 . S
C505 H508 0.950 1_554 S
C506 C505 1.387 . S
C506 C509 1.387 . S
H507 C503 0.950 1_556 S
H508 C505 0.950 1_556 S
C509 C500 1.390 . S
C509 H502 0.950 . S
C509 C506 1.387 . S
C510 C511 1.387 . S
C510 H514 0.950 . S
C510 C519 1.390 . S
C511 C510 1.387 . S
C511 C513 1.387 . S
H512 C519 0.950 . S
C513 C511 1.387 . S
C513 C515 1.390 . S
C513 H517 0.950 . S
H514 C510 0.950 . S
C515 C513 1.390 . S
C515 C516 1.387 . S
C515 H518 0.950 . S
C516 C515 1.387 . S
C516 C519 1.387 . S
H517 C513 0.950 . S
H518 C515 0.950 . S
C519 C510 1.390 . S
C519 H512 0.950 . S
C519 C516 1.387 . S
C520 C521 1.387 . S
C520 H524 0.950 . S
C520 C529 1.390 . S
C521 C520 1.387 . S
C521 C523 1.387 . S
H522 C529 0.950 . S
C523 C521 1.387 . S
C523 C525 1.390 . S
C523 H527 0.950 . S
H524 C520 0.950 . S
C525 C523 1.390 . S
C525 C526 1.387 . S
C525 H528 0.950 . S
C526 C525 1.387 . S
C526 C529 1.387 . S
H527 C523 0.950 . S
H528 C525 0.950 . S
C529 C520 1.390 . S
C529 H522 0.950 . S
C529 C526 1.387 . S
C530 C531 1.387 . S
C530 H534 0.950 . S
C530 C539 1.390 . S
C531 C530 1.387 . S
C531 C533 1.387 . S
H532 C539 0.950 . S
C533 C531 1.387 . S
C533 C535 1.390 . S
C533 H537 0.950 . S
H534 C530 0.950 . S
C535 C533 1.390 . S
C535 C536 1.387 . S
C535 H538 0.950 . S
C536 C535 1.387 . S
C536 C539 1.387 . S
H537 C533 0.950 . S
H538 C535 0.950 . S
C539 C530 1.390 . S
C539 H532 0.950 . S
C539 C536 1.387 . S
C540 C541 1.387 . S
C540 H544 0.950 . S
C540 C549 1.390 . S
C541 C540 1.387 . S
C541 C543 1.387 . S
H542 C549 0.950 . S
C543 C541 1.387 . S
C543 C545 1.390 . S
C543 H547 0.950 . S
H544 C540 0.950 . S
C545 C543 1.390 . S
C545 C546 1.387 . S
C545 H548 0.950 1_556 S
C546 C545 1.387 . S
C546 C549 1.387 . S
H547 C543 0.950 . S
H548 C545 0.950 1_554 S
C549 C540 1.390 . S
C549 H542 0.950 . S
C549 C546 1.387 . S
C550 C551 1.387 . S
C550 H554 0.950 . S
C550 C559 1.390 . S
C551 C550 1.387 . S
C551 C553 1.387 . S
H552 C559 0.950 . S
C553 C551 1.387 . S
C553 C555 1.390 . S
C553 H557 0.950 . S
H554 C550 0.950 . S
C555 C553 1.390 . S
C555 C556 1.387 . S
C555 H558 0.950 . S
C556 C555 1.387 . S
C556 C559 1.387 . S
H557 C553 0.950 . S
H558 C555 0.950 . S
C559 C550 1.390 . S
C559 H552 0.950 . S
C559 C556 1.387 . S
C560 C561 1.387 . S
C560 H564 0.950 . S
C560 C569 1.390 . S
C561 C560 1.387 . S
C561 C563 1.387 . S
H562 C569 0.950 . S
C563 C561 1.387 . S
C563 C565 1.390 . S
C563 H567 0.950 . S
H564 C560 0.950 . S
C565 C563 1.390 . S
C565 C566 1.387 . S
C565 H568 0.950 . S
C566 C565 1.387 . S
C566 C569 1.387 . S
H567 C563 0.950 . S
H568 C565 0.950 . S
C569 C560 1.390 . S
C569 H562 0.950 . S
C569 C566 1.387 . S
C570 C571 1.387 . S
C570 H574 0.950 . S
C570 C579 1.390 . S
C571 C570 1.387 . S
C571 C573 1.387 . S
H572 C579 0.950 . S
C573 C571 1.387 . S
C573 C575 1.390 . S
C573 H577 0.950 . S
H574 C570 0.950 . S
C575 C573 1.390 . S
C575 C576 1.387 . S
C575 H578 0.950 . S
C576 C575 1.387 . S
C576 C579 1.387 . S
H577 C573 0.950 . S
H578 C575 0.950 . S
C579 C570 1.390 . S
C579 H572 0.950 . S
C579 C576 1.387 . S
C580 C581 1.387 . S
C580 H584 0.950 . S
C580 C589 1.390 . S
C581 C580 1.387 . S
C581 C583 1.387 . S
H582 C589 0.950 . S
C583 C581 1.387 . S
C583 C585 1.390 . S
C583 H587 0.950 1_655 S
H584 C580 0.950 . S
C585 C583 1.390 . S
C585 C586 1.387 . S
C585 H588 0.950 . S
C586 C585 1.387 . S
C586 C589 1.387 . S
H587 C583 0.950 1_455 S
H588 C585 0.950 . S
C589 C580 1.390 . S
C589 H582 0.950 . S
C589 C586 1.387 . S
C590 C591 1.387 . S
C590 H594 0.950 . S
C590 C599 1.390 . S
C591 C590 1.387 . S
C591 C593 1.387 . S
H592 C599 0.950 . S
C593 C591 1.387 . S
C593 C595 1.390 . S
C593 H597 0.950 . S
H594 C590 0.950 . S
C595 C593 1.390 . S
C595 C596 1.387 . S
C595 H598 0.950 . S
C596 C595 1.387 . S
C596 C599 1.387 . S
H597 C593 0.950 . S
H598 C595 0.950 . S
C599 C590 1.390 . S
C599 H592 0.950 . S
C599 C596 1.387 . S
C600 C601 1.387 . S
C600 H604 0.950 . S
C600 C609 1.390 . S
C601 C600 1.387 . S
C601 C603 1.387 . S
H602 C609 0.950 . S
C603 C601 1.387 . S
C603 C605 1.390 . S
C603 H607 0.950 . S
H604 C600 0.950 . S
C605 C603 1.390 . S
C605 C606 1.387 . S
C605 H608 0.950 . S
C606 C605 1.387 . S
C606 C609 1.387 . S
H607 C603 0.950 . S
H608 C605 0.950 . S
C609 C600 1.390 . S
C609 H602 0.950 . S
C609 C606 1.387 . S
C610 C611 1.387 . S
C610 H614 0.950 . S
C610 C619 1.390 . S
C611 C610 1.387 . S
C611 C613 1.387 . S
H612 C619 0.950 . S
C613 C611 1.387 . S
C613 C615 1.390 . S
C613 H617 0.950 . S
H614 C610 0.950 . S
C615 C613 1.390 . S
C615 C616 1.387 . S
C615 H618 0.950 . S
C616 C615 1.387 . S
C616 C619 1.387 . S
H617 C613 0.950 . S
H618 C615 0.950 . S
C619 C610 1.390 . S
C619 H612 0.950 . S
C619 C616 1.387 . S
C620 C621 1.387 . S
C620 H624 0.950 . S
C620 C629 1.390 . S
C621 C620 1.387 . S
C621 C623 1.387 . S
H622 C629 0.950 . S
C623 C621 1.387 . S
C623 C625 1.390 . S
C623 H627 0.950 . S
H624 C620 0.950 . S
C625 C623 1.390 . S
C625 C626 1.387 . S
C625 H628 0.950 . S
C626 C625 1.387 . S
C626 C629 1.387 . S
H627 C623 0.950 . S
H628 C625 0.950 . S
C629 C620 1.390 . S
C629 H622 0.950 . S
C629 C626 1.387 . S
C630 C631 1.387 . S
C630 H634 0.950 . S
C630 C639 1.390 1_554 S
C631 C630 1.387 . S
C631 C633 1.387 1_554 S
H632 C639 0.950 1_565 S
C633 C631 1.387 1_556 S
C633 C635 1.390 . S
C633 H637 0.946 1_556 S
H634 C630 0.950 . S
C635 C633 1.390 . S
C635 C636 1.387 . S
C635 H638 0.950 . S
C636 C635 1.387 . S
C636 C639 1.387 . S
H637 C633 0.946 1_554 S
H638 C635 0.950 . S
C639 C630 1.390 1_556 S
C639 H632 0.950 1_545 S
C639 C636 1.387 . S
C640 C641 1.387 . S
C640 H644 0.950 . S
C640 C649 1.390 . S
C641 C640 1.387 . S
C641 C643 1.387 . S
H642 C649 0.950 . S
C643 C641 1.387 . S
C643 C645 1.390 . S
C643 H647 0.950 . S
H644 C640 0.950 . S
C645 C643 1.390 . S
C645 C646 1.387 . S
C645 H648 0.950 . S
C646 C645 1.387 . S
C646 C649 1.387 . S
H647 C643 0.950 . S
H648 C645 0.950 . S
C649 C640 1.390 . S
C649 H642 0.950 . S
C649 C646 1.387 . S
C650 C651 1.387 1_556 S
C650 H654 0.950 1_556 S
C650 C659 1.390 . S
C651 C650 1.387 1_554 S
C651 C653 1.387 1_554 S
H652 C659 0.950 . S
C653 C651 1.387 1_556 S
C653 C655 1.390 . S
C653 H657 0.950 . S
H654 C650 0.950 1_554 S
C655 C653 1.390 . S
C655 C656 1.387 . S
C655 H658 0.950 . S
C656 C655 1.387 . S
C656 C659 1.387 . S
H657 C653 0.950 . S
H658 C655 0.950 . S
C659 C650 1.390 . S
C659 H652 0.950 . S
C659 C656 1.387 . S
C660 C661 1.387 . S
C660 H664 0.950 . S
C660 C669 1.390 . S
C661 C660 1.387 . S
C661 C663 1.387 . S
H662 C669 0.950 . S
C663 C661 1.387 . S
C663 C665 1.390 . S
C663 H667 0.950 . S
H664 C660 0.950 . S
C665 C663 1.390 . S
C665 C666 1.387 . S
C665 H668 0.950 . S
C666 C665 1.387 . S
C666 C669 1.387 . S
H667 C663 0.950 . S
H668 C665 0.950 . S
C669 C660 1.390 . S
C669 H662 0.950 . S
C669 C666 1.387 . S
C670 C671 1.387 . S
C670 H674 0.950 . S
C670 C679 1.390 . S
C671 C670 1.387 . S
C671 C673 1.387 . S
H672 C679 0.950 . S
C673 C671 1.387 . S
C673 C675 1.390 . S
C673 H677 0.950 . S
H674 C670 0.950 . S
C675 C673 1.390 . S
C675 C676 1.387 . S
C675 H678 0.950 . S
C676 C675 1.387 . S
C676 C679 1.387 . S
H677 C673 0.950 . S
H678 C675 0.950 . S
C679 C670 1.390 . S
C679 H672 0.950 . S
C679 C676 1.387 . S
C680 C681 1.387 . S
C680 H684 0.950 . S
C680 C689 1.390 . S
C681 C680 1.387 . S
C681 C683 1.387 . S
H682 C689 0.950 . S
C683 C681 1.387 . S
C683 C685 1.390 . S
C683 H687 0.950 . S
H684 C680 0.950 . S
C685 C683 1.390 . S
C685 C686 1.387 . S
C685 H688 0.950 . S
C686 C685 1.387 . S
C686 C689 1.387 . S
H687 C683 0.950 . S
H688 C685 0.950 . S
C689 C680 1.390 . S
C689 H682 0.950 . S
C689 C686 1.387 . S
C690 C691 1.387 . S
C690 H694 0.950 . S
C690 C699 1.390 . S
C691 C690 1.387 . S
C691 C693 1.387 . S
H692 C699 0.950 1_565 S
C693 C691 1.387 . S
C693 C695 1.390 . S
C693 H697 0.950 . S
H694 C690 0.950 . S
C695 C693 1.390 . S
C695 C696 1.387 1_545 S
C695 H698 0.950 1_545 S
C696 C695 1.387 1_565 S
C696 C699 1.387 1_565 S
H697 C693 0.950 . S
H698 C695 0.950 1_565 S
C699 C690 1.390 . S
C699 H692 0.950 1_545 S
C699 C696 1.387 1_545 S
C700 C701 1.387 . S
C700 H704 0.950 . S
C700 C709 1.390 . S
C701 C700 1.387 . S
C701 C703 1.387 . S
H702 C709 0.950 . S
C703 C701 1.387 . S
C703 C705 1.390 . S
C703 H707 0.950 1_556 S
H704 C700 0.950 . S
C705 C703 1.390 . S
C705 C706 1.387 . S
C705 H708 0.950 1_556 S
C706 C705 1.387 . S
C706 C709 1.387 . S
H707 C703 0.950 1_554 S
H708 C705 0.950 1_554 S
C709 C700 1.390 . S
C709 H702 0.950 . S
C709 C706 1.387 . S
C710 C711 1.387 . S
C710 H714 0.950 . S
C710 C719 1.390 1_545 S
C711 C710 1.387 . S
C711 C713 1.387 . S
H712 C719 0.950 . S
C713 C711 1.387 . S
C713 C715 1.390 . S
C713 H717 0.950 . S
H714 C710 0.950 . S
C715 C713 1.390 . S
C715 C716 1.387 1_545 S
C715 H718 0.951 . S
C716 C715 1.387 1_565 S
C716 C719 1.387 . S
H717 C713 0.950 . S
H718 C715 0.951 . S
C719 C710 1.390 1_565 S
C719 H712 0.950 . S
C719 C716 1.387 . S
C720 C721 1.387 . S
C720 H724 0.950 . S
C720 C729 1.390 . S
C721 C720 1.387 . S
C721 C723 1.387 . S
H722 C729 0.950 . S
C723 C721 1.387 . S
C723 C725 1.390 . S
C723 H727 0.950 . S
H724 C720 0.950 . S
C725 C723 1.390 . S
C725 C726 1.387 . S
C725 H728 0.950 . S
C726 C725 1.387 . S
C726 C729 1.387 . S
H727 C723 0.950 . S
H728 C725 0.950 . S
C729 C720 1.390 . S
C729 H722 0.950 . S
C729 C726 1.387 . S
C730 C731 1.387 . S
C730 H734 0.950 . S
C730 C739 1.390 . S
C731 C730 1.387 . S
C731 C733 1.387 . S
H732 C739 0.950 . S
C733 C731 1.387 . S
C733 C735 1.390 . S
C733 H737 0.950 . S
H734 C730 0.950 . S
C735 C733 1.390 . S
C735 C736 1.387 . S
C735 H738 0.950 . S
C736 C735 1.387 . S
C736 C739 1.387 . S
H737 C733 0.950 . S
H738 C735 0.950 . S
C739 C730 1.390 . S
C739 H732 0.950 . S
C739 C736 1.387 . S
C740 C741 1.387 . S
C740 H744 0.950 . S
C740 C749 1.390 . S
C741 C740 1.387 . S
C741 C743 1.387 . S
H742 C749 0.950 . S
C743 C741 1.387 . S
C743 C745 1.390 . S
C743 H747 0.950 . S
H744 C740 0.950 . S
C745 C743 1.390 . S
C745 C746 1.387 . S
C745 H748 0.950 . S
C746 C745 1.387 . S
C746 C749 1.387 . S
H747 C743 0.950 . S
H748 C745 0.950 . S
C749 C740 1.390 . S
C749 H742 0.950 . S
C749 C746 1.387 . S
C750 C751 1.387 . S
C750 H754 0.950 . S
C750 C759 1.390 . S
C751 C750 1.387 . S
C751 C753 1.387 . S
H752 C759 0.950 . S
C753 C751 1.387 . S
C753 C755 1.390 . S
C753 H757 0.950 . S
H754 C750 0.950 . S
C755 C753 1.390 . S
C755 C756 1.387 . S
C755 H758 0.950 . S
C756 C755 1.387 . S
C756 C759 1.387 . S
H757 C753 0.950 . S
H758 C755 0.950 . S
C759 C750 1.390 . S
C759 H752 0.950 . S
C759 C756 1.387 . S
C760 C761 1.387 . S
C760 H764 0.950 . S
C760 C769 1.390 . S
C761 C760 1.387 . S
C761 C763 1.387 . S
H762 C769 0.950 . S
C763 C761 1.387 . S
C763 C765 1.390 . S
C763 H767 0.950 . S
H764 C760 0.950 . S
C765 C763 1.390 . S
C765 C766 1.387 . S
C765 H768 0.950 . S
C766 C765 1.387 . S
C766 C769 1.387 . S
H767 C763 0.950 . S
H768 C765 0.950 . S
C769 C760 1.390 . S
C769 H762 0.950 . S
C769 C766 1.387 . S
C770 C771 1.387 . S
C770 H774 0.950 . S
C770 C779 1.390 . S
C771 C770 1.387 . S
C771 C773 1.387 . S
H772 C779 0.950 . S
C773 C771 1.387 . S
C773 C775 1.390 . S
C773 H777 0.950 . S
H774 C770 0.950 . S
C775 C773 1.390 . S
C775 C776 1.387 . S
C775 H778 0.950 . S
C776 C775 1.387 . S
C776 C779 1.387 . S
H777 C773 0.950 . S
H778 C775 0.950 . S
C779 C770 1.390 . S
C779 H772 0.950 . S
C779 C776 1.387 . S
C780 C781 1.387 . S
C780 H784 0.950 . S
C780 C789 1.390 1_455 S
C781 C780 1.387 . S
C781 C783 1.387 . S
H782 C789 0.950 1_556 S
C783 C781 1.387 . S
C783 C785 1.390 1_455 S
C783 H787 0.950 . S
H784 C780 0.950 . S
C785 C783 1.390 1_655 S
C785 C786 1.387 . S
C785 H788 0.950 . S
C786 C785 1.387 . S
C786 C789 1.387 . S
H787 C783 0.950 . S
H788 C785 0.950 . S
C789 C780 1.390 1_655 S
C789 H782 0.950 1_554 S
C789 C786 1.387 . S
C790 C791 1.387 . S
C790 H794 0.950 . S
C790 C799 1.390 . S
C791 C790 1.387 . S
C791 C793 1.387 . S
H792 C799 0.950 . S
C793 C791 1.387 . S
C793 C795 1.390 . S
C793 H797 0.950 . S
H794 C790 0.950 . S
C795 C793 1.390 . S
C795 C796 1.387 . S
C795 H798 0.950 . S
C796 C795 1.387 . S
C796 C799 1.387 . S
H797 C793 0.950 . S
H798 C795 0.950 . S
C799 C790 1.390 . S
C799 H792 0.950 . S
C799 C796 1.387 . S
C800 C801 1.387 . S
C800 H804 0.950 . S
C800 C809 1.390 . S
C801 C800 1.387 . S
C801 C803 1.387 . S
H802 C809 0.950 . S
C803 C801 1.387 . S
C803 C805 1.390 . S
C803 H807 0.950 . S
H804 C800 0.950 . S
C805 C803 1.390 . S
C805 C806 1.387 . S
C805 H808 0.950 . S
C806 C805 1.387 . S
C806 C809 1.387 . S
H807 C803 0.950 . S
H808 C805 0.950 . S
C809 C800 1.390 . S
C809 H802 0.950 . S
C809 C806 1.387 . S
C810 C811 1.387 . S
C810 H814 0.950 . S
C810 C819 1.390 . S
C811 C810 1.387 . S
C811 C813 1.387 . S
H812 C819 0.950 . S
C813 C811 1.387 . S
C813 C815 1.390 . S
C813 H817 0.950 . S
H814 C810 0.950 . S
C815 C813 1.390 . S
C815 C816 1.387 . S
C815 H818 0.950 . S
C816 C815 1.387 . S
C816 C819 1.387 . S
H817 C813 0.950 . S
H818 C815 0.950 . S
C819 C810 1.390 . S
C819 H812 0.950 . S
C819 C816 1.387 . S
C820 C821 1.387 . S
C820 H824 0.950 1_556 S
C820 C829 1.390 . S
C821 C820 1.387 . S
C821 C823 1.387 . S
H822 C829 0.950 . S
C823 C821 1.387 . S
C823 C825 1.390 . S
C823 H827 0.950 . S
H824 C820 0.950 1_554 S
C825 C823 1.390 . S
C825 C826 1.387 . S
C825 H828 0.950 . S
C826 C825 1.387 . S
C826 C829 1.387 . S
H827 C823 0.950 . S
H828 C825 0.950 . S
C829 C820 1.390 . S
C829 H822 0.950 . S
C829 C826 1.387 . S
C830 C831 1.387 . S
C830 H834 0.950 . S
C830 C839 1.390 . S
C831 C830 1.387 . S
C831 C833 1.387 . S
H832 C839 0.950 1_455 S
C833 C831 1.387 . S
C833 C835 1.390 . S
C833 H837 0.950 . S
H834 C830 0.950 . S
C835 C833 1.390 . S
C835 C836 1.387 1_655 S
C835 H838 0.950 1_655 S
C836 C835 1.387 1_455 S
C836 C839 1.387 1_455 S
H837 C833 0.950 . S
H838 C835 0.950 1_455 S
C839 C830 1.390 . S
C839 H832 0.950 1_655 S
C839 C836 1.387 1_655 S
C481 C18 1.336 . S
C486 C458 1.331 . S
C491 C379 1.826 . S
C496 C58 1.987 . S
C501 C99 1.443 . S
C506 C338 1.562 . S
C511 C138 2.259 . S
C516 C418 2.243 . S
C521 C178 1.849 . S
C526 C419 1.743 . S
C531 C219 1.517 . S
C536 C459 1.566 . S
C541 C378 2.133 . S
C546 C258 2.135 . S
C551 C299 1.667 . S
C556 C339 1.761 . S
C561 C139 1.736 . S
C566 C179 1.796 . S
C571 C19 1.728 . S
C576 C218 1.876 . S
C581 C59 1.630 . S
C586 C259 1.648 . S
C591 C298 2.063 . S
C596 C98 2.065 . S
C601 C6 1.721 . S
C606 C329 1.558 . S
C611 C46 1.775 . S
C616 C409 1.658 . S
C621 C449 2.152 . S
C626 C95 2.193 . S
C631 C126 1.540 . S
C636 C370 1.494 . S
C641 C166 1.308 . S
C646 C369 1.220 . S
C651 C330 2.254 . S
C656 C215 2.102 . S
C661 C410 1.357 . S
C666 C246 1.370 . S
C671 C450 2.736 . S
C676 C295 2.585 . S
C681 C10 2.835 . S
C686 C135 2.686 . S
C691 C15 2.138 . S
C696 C50 2.264 . S
C701 C55 2.426 . S
C706 C89 2.376 . S
C711 C130 1.669 . S
C716 C86 1.721 . S
C721 C206 1.522 . S
C726 C170 1.480 . S
C731 C209 1.549 . S
C736 C255 1.623 . S
C741 C250 1.528 . S
C746 C286 1.569 . S
C751 C175 1.223 . S
C756 C289 1.170 . S
C761 C335 1.235 . S
C766 C129 1.161 . S
C771 C210 1.872 . S
C776 C375 1.782 . S
C781 C326 1.484 . S
C786 C249 1.380 . S
C791 C406 1.702 . S
C796 C290 1.665 . S
C801 C169 1.357 . S
C806 C446 1.478 . S
C811 C455 1.914 . S
C816 C49 1.837 . S
C821 C90 1.564 . S
C826 C366 1.602 . S
C831 C415 1.973 . S
C836 C9 1.928 . S
