# Generated by pormake.
# Topology unv, (4)-cn, num edge types: 1
# Building blocks:
#     Node 0, Type 0, BuildingBlock: QUQFOY_clean_sbu_1, # of connection points: 4
#     Node 1, Type 0, BuildingBlock: QUQFOY_clean_sbu_1, # of connection points: 4
#     Node 2, Type 0, BuildingBlock: QUQFOY_clean_sbu_1, # of connection points: 4
#     Node 3, Type 0, BuildingBlock: QUQFOY_clean_sbu_1, # of connection points: 4
#     Node 4, Type 0, BuildingBlock: QUQFOY_clean_sbu_1, # of connection points: 4
#     Node 5, Type 0, BuildingBlock: QUQFOY_clean_sbu_1, # of connection points: 4
#     Node 6, Type 0, BuildingBlock: QUQFOY_clean_sbu_1, # of connection points: 4
#     Node 7, Type 0, BuildingBlock: QUQFOY_clean_sbu_1, # of connection points: 4
#     Node 8, Type 0, BuildingBlock: QUQFOY_clean_sbu_1, # of connection points: 4
#     Node 9, Type 0, BuildingBlock: QUQFOY_clean_sbu_1, # of connection points: 4
#     Node 10, Type 0, BuildingBlock: QUQFOY_clean_sbu_1, # of connection points: 4
#     Node 11, Type 0, BuildingBlock: QUQFOY_clean_sbu_1, # of connection points: 4
#     Node 12, Type 0, BuildingBlock: QUQFOY_clean_sbu_1, # of connection points: 4
#     Node 13, Type 0, BuildingBlock: QUQFOY_clean_sbu_1, # of connection points: 4
#     Node 14, Type 0, BuildingBlock: QUQFOY_clean_sbu_1, # of connection points: 4
#     Node 15, Type 0, BuildingBlock: QUQFOY_clean_sbu_1, # of connection points: 4
#     Node 16, Type 0, BuildingBlock: QUQFOY_clean_sbu_1, # of connection points: 4
#     Node 17, Type 0, BuildingBlock: QUQFOY_clean_sbu_1, # of connection points: 4
#     Node 18, Type 0, BuildingBlock: QUQFOY_clean_sbu_1, # of connection points: 4
#     Node 19, Type 0, BuildingBlock: QUQFOY_clean_sbu_1, # of connection points: 4
#     Node 20, Type 0, BuildingBlock: QUQFOY_clean_sbu_1, # of connection points: 4
#     Node 21, Type 0, BuildingBlock: QUQFOY_clean_sbu_1, # of connection points: 4
#     Node 22, Type 0, BuildingBlock: QUQFOY_clean_sbu_1, # of connection points: 4
#     Node 23, Type 0, BuildingBlock: QUQFOY_clean_sbu_1, # of connection points: 4
#     Edge 24, Type (0, 0), BuildingBlock: AJUNOK_clean_linker_0, # of connection points: 2
#     Edge 25, Type (0, 0), BuildingBlock: AJUNOK_clean_linker_0, # of connection points: 2
#     Edge 26, Type (0, 0), BuildingBlock: AJUNOK_clean_linker_0, # of connection points: 2
#     Edge 27, Type (0, 0), BuildingBlock: AJUNOK_clean_linker_0, # of connection points: 2
#     Edge 28, Type (0, 0), BuildingBlock: AJUNOK_clean_linker_0, # of connection points: 2
#     Edge 29, Type (0, 0), BuildingBlock: AJUNOK_clean_linker_0, # of connection points: 2
#     Edge 30, Type (0, 0), BuildingBlock: AJUNOK_clean_linker_0, # of connection points: 2
#     Edge 31, Type (0, 0), BuildingBlock: AJUNOK_clean_linker_0, # of connection points: 2
#     Edge 32, Type (0, 0), BuildingBlock: AJUNOK_clean_linker_0, # of connection points: 2
#     Edge 33, Type (0, 0), BuildingBlock: AJUNOK_clean_linker_0, # of connection points: 2
#     Edge 34, Type (0, 0), BuildingBlock: AJUNOK_clean_linker_0, # of connection points: 2
#     Edge 35, Type (0, 0), BuildingBlock: AJUNOK_clean_linker_0, # of connection points: 2
#     Edge 36, Type (0, 0), BuildingBlock: AJUNOK_clean_linker_0, # of connection points: 2
#     Edge 37, Type (0, 0), BuildingBlock: AJUNOK_clean_linker_0, # of connection points: 2
#     Edge 38, Type (0, 0), BuildingBlock: AJUNOK_clean_linker_0, # of connection points: 2
#     Edge 39, Type (0, 0), BuildingBlock: AJUNOK_clean_linker_0, # of connection points: 2
#     Edge 40, Type (0, 0), BuildingBlock: AJUNOK_clean_linker_0, # of connection points: 2
#     Edge 41, Type (0, 0), BuildingBlock: AJUNOK_clean_linker_0, # of connection points: 2
#     Edge 42, Type (0, 0), BuildingBlock: AJUNOK_clean_linker_0, # of connection points: 2
#     Edge 43, Type (0, 0), BuildingBlock: AJUNOK_clean_linker_0, # of connection points: 2
#     Edge 44, Type (0, 0), BuildingBlock: AJUNOK_clean_linker_0, # of connection points: 2
#     Edge 45, Type (0, 0), BuildingBlock: AJUNOK_clean_linker_0, # of connection points: 2
#     Edge 46, Type (0, 0), BuildingBlock: AJUNOK_clean_linker_0, # of connection points: 2
#     Edge 47, Type (0, 0), BuildingBlock: AJUNOK_clean_linker_0, # of connection points: 2
#     Edge 48, Type (0, 0), BuildingBlock: AJUNOK_clean_linker_0, # of connection points: 2
#     Edge 49, Type (0, 0), BuildingBlock: AJUNOK_clean_linker_0, # of connection points: 2
#     Edge 50, Type (0, 0), BuildingBlock: AJUNOK_clean_linker_0, # of connection points: 2
#     Edge 51, Type (0, 0), BuildingBlock: AJUNOK_clean_linker_0, # of connection points: 2
#     Edge 52, Type (0, 0), BuildingBlock: AJUNOK_clean_linker_0, # of connection points: 2
#     Edge 53, Type (0, 0), BuildingBlock: AJUNOK_clean_linker_0, # of connection points: 2
#     Edge 54, Type (0, 0), BuildingBlock: AJUNOK_clean_linker_0, # of connection points: 2
#     Edge 55, Type (0, 0), BuildingBlock: AJUNOK_clean_linker_0, # of connection points: 2
#     Edge 56, Type (0, 0), BuildingBlock: AJUNOK_clean_linker_0, # of connection points: 2
#     Edge 57, Type (0, 0), BuildingBlock: AJUNOK_clean_linker_0, # of connection points: 2
#     Edge 58, Type (0, 0), BuildingBlock: AJUNOK_clean_linker_0, # of connection points: 2
#     Edge 59, Type (0, 0), BuildingBlock: AJUNOK_clean_linker_0, # of connection points: 2
#     Edge 60, Type (0, 0), BuildingBlock: AJUNOK_clean_linker_0, # of connection points: 2
#     Edge 61, Type (0, 0), BuildingBlock: AJUNOK_clean_linker_0, # of connection points: 2
#     Edge 62, Type (0, 0), BuildingBlock: AJUNOK_clean_linker_0, # of connection points: 2
#     Edge 63, Type (0, 0), BuildingBlock: AJUNOK_clean_linker_0, # of connection points: 2
#     Edge 64, Type (0, 0), BuildingBlock: AJUNOK_clean_linker_0, # of connection points: 2
#     Edge 65, Type (0, 0), BuildingBlock: AJUNOK_clean_linker_0, # of connection points: 2
#     Edge 66, Type (0, 0), BuildingBlock: AJUNOK_clean_linker_0, # of connection points: 2
#     Edge 67, Type (0, 0), BuildingBlock: AJUNOK_clean_linker_0, # of connection points: 2
#     Edge 68, Type (0, 0), BuildingBlock: AJUNOK_clean_linker_0, # of connection points: 2
#     Edge 69, Type (0, 0), BuildingBlock: AJUNOK_clean_linker_0, # of connection points: 2
#     Edge 70, Type (0, 0), BuildingBlock: AJUNOK_clean_linker_0, # of connection points: 2
#     Edge 71, Type (0, 0), BuildingBlock: AJUNOK_clean_linker_0, # of connection points: 2
# Relax obj value: 0.118
# Max RMSD: 0.153
# Mean RMSD: 0.128
data_MOF--net-unv--node1-QUQFOY_clean_sbu_1--edge1-AJUNOK_clean_linker_0
_symmetry_space_group_name_H-M    P1
_symmetry_Int_Tables_number       1
_symmetry_cell_setting            triclinic
loop_
_symmetry_equiv_pos_as_xyz
'x, y, z'
_cell_length_a     39.017614
_cell_length_b     39.03531
_cell_length_c     39.005355
_cell_angle_alpha  89.912793
_cell_angle_beta   89.904662
_cell_angle_gamma 89.990898
loop_
_atom_site_label
_atom_site_type_symbol
_atom_site_fract_x
_atom_site_fract_y
_atom_site_fract_z
_atom_type_partial_charge
O0 O 0.05025 0.09569 0.4432 0.0
Cd1 Cd 0.01154 0.10661 0.40886 0.0
Cd2 Cd 0.05187 0.05581 0.37139 0.0
O3 O 0.08581 0.06603 0.41067 0.0
O4 O 0.98971 0.14748 0.43024 0.0
O5 O 0.01349 0.14915 0.37893 0.0
C6 C 0.99841 0.16511 0.40371 0.0
C7 C 0.07053 0.03313 0.31905 0.0
C8 C 0.07864 0.08023 0.43915 0.0
C9 C 0.97861 0.03956 0.39634 0.0
O10 O 0.00762 0.03073 0.38457 0.0
O11 O 0.9732 0.07012 0.40616 0.0
O12 O 0.07541 0.01705 0.34734 0.0
O13 O 0.05759 0.06352 0.32048 0.0
O14 O 0.93128 0.38639 0.43772 0.0
Cd15 Cd 0.9678 0.37257 0.40193 0.0
Cd16 Cd 0.93034 0.43179 0.36728 0.0
O17 O 0.8997 0.42439 0.40996 0.0
O18 O 0.98797 0.33178 0.42523 0.0
O19 O 0.96355 0.32845 0.37448 0.0
C20 C 0.97828 0.31318 0.39986 0.0
C21 C 0.90809 0.46284 0.32018 0.0
C22 C 0.90577 0.40664 0.43668 0.0
C23 C 0.00718 0.43659 0.38764 0.0
O24 O 0.9792 0.44884 0.37646 0.0
O25 O 0.00896 0.40566 0.3977 0.0
O26 O 0.91172 0.47641 0.3499 0.0
O27 O 0.91476 0.43057 0.31756 0.0
O28 O 0.03767 0.8985 0.07199 0.0
Cd29 Cd 0.00571 0.89043 0.11361 0.0
Cd30 Cd 0.0514 0.9354 0.14161 0.0
O31 O 0.0812 0.92026 0.10052 0.0
O32 O 0.97947 0.84744 0.10487 0.0
O33 O 0.01819 0.85227 0.14611 0.0
C34 C 0.99646 0.83356 0.12958 0.0
C35 C 0.07141 0.95236 0.19504 0.0
C36 C 0.06846 0.9092 0.0726 0.0
C37 C 0.97956 0.95963 0.12656 0.0
O38 O 0.01102 0.96677 0.13034 0.0
O39 O 0.97006 0.92875 0.12262 0.0
O40 O 0.08054 0.9684 0.16769 0.0
O41 O 0.05432 0.92421 0.19173 0.0
O42 O 0.94502 0.61745 0.07912 0.0
Cd43 Cd 0.97824 0.62826 0.1189 0.0
Cd44 Cd 0.93683 0.57397 0.15036 0.0
O45 O 0.90837 0.5841 0.10675 0.0
O46 O 1.0012 0.67235 0.1066 0.0
O47 O 0.96602 0.66707 0.15088 0.0
C48 C 0.98538 0.68626 0.13203 0.0
C49 C 0.91113 0.54683 0.19796 0.0
C50 C 0.91738 0.60016 0.07973 0.0
C51 C 0.0135 0.56271 0.13453 0.0
O52 O 0.98401 0.55201 0.14309 0.0
O53 O 0.01792 0.5937 0.12556 0.0
O54 O 0.9135 0.53202 0.16867 0.0
O55 O 0.92076 0.57841 0.19967 0.0
O56 O 0.44018 0.04069 0.10017 0.0
Cd57 Cd 0.40037 0.00711 0.11005 0.0
Cd58 Cd 0.36769 0.05384 0.06378 0.0
O59 O 0.41065 0.0823 0.07564 0.0
O60 O 0.41358 0.9806 0.15184 0.0
O61 O 0.37005 0.01699 0.15079 0.0
C62 C 0.38904 0.99588 0.16784 0.0
C63 C 0.31801 0.07959 0.04149 0.0
C64 C 0.43875 0.07074 0.08753 0.0
C65 C 0.38326 0.97987 0.04181 0.0
O66 O 0.37576 0.01075 0.0351 0.0
O67 O 0.39128 0.97112 0.07215 0.0
O68 O 0.34698 0.08146 0.02594 0.0
O69 O 0.31789 0.06621 0.07178 0.0
O70 O 0.55944 0.46574 0.10004 0.0
Cd71 Cd 0.59464 0.50309 0.11243 0.0
Cd72 Cd 0.6328 0.46116 0.06024 0.0
O73 O 0.59063 0.43036 0.06867 0.0
O74 O 0.57192 0.52551 0.15234 0.0
O75 O 0.62209 0.49978 0.15632 0.0
C76 C 0.59713 0.51567 0.17118 0.0
C77 C 0.68146 0.43676 0.03385 0.0
C78 C 0.56251 0.43794 0.08339 0.0
C79 C 0.61242 0.53698 0.04659 0.0
O80 O 0.6242 0.50799 0.03777 0.0
O81 O 0.60065 0.54166 0.07662 0.0
O82 O 0.65246 0.43869 0.01852 0.0
O83 O 0.68241 0.44637 0.06548 0.0
O84 O 0.44947 0.94459 0.38489 0.0
Cd85 Cd 0.41001 0.97788 0.37294 0.0
Cd86 Cd 0.37813 0.93975 0.42796 0.0
O87 O 0.42119 0.90994 0.41973 0.0
O88 O 0.42158 0.99881 0.32761 0.0
O89 O 0.3767 0.96495 0.33554 0.0
C90 C 0.39527 0.98332 0.31514 0.0
C91 C 0.32926 0.91578 0.45438 0.0
C92 C 0.44851 0.9179 0.40364 0.0
C93 C 0.39624 0.01592 0.43719 0.0
O94 O 0.38663 0.98715 0.44893 0.0
O95 O 0.4048 0.01898 0.4059 0.0
O96 O 0.35816 0.91782 0.46994 0.0
O97 O 0.32859 0.92493 0.42258 0.0
O98 O 0.56396 0.56093 0.40779 0.0
Cd99 Cd 0.59307 0.52529 0.37968 0.0
Cd100 Cd 0.63504 0.54919 0.46029 0.0
O101 O 0.58794 0.57315 0.45877 0.0
O102 O 0.56797 0.51554 0.33647 0.0
O103 O 0.62024 0.53771 0.33757 0.0
C104 C 0.59433 0.52693 0.31999 0.0
C105 C 0.67745 0.56269 0.49949 0.0
C106 C 0.56364 0.57603 0.43696 0.0
C107 C 0.62391 0.48481 0.42797 0.0
O108 O 0.64158 0.51186 0.42513 0.0
O109 O 0.6027 0.47936 0.40418 0.0
O110 O 0.65446 0.5398 0.50655 0.0
O111 O 0.67567 0.57815 0.47016 0.0
O112 O 0.10315 0.45201 0.05477 0.0
Cd113 Cd 0.11545 0.41696 0.01714 0.0
Cd114 Cd 0.06383 0.37905 0.05538 0.0
O115 O 0.07039 0.42001 0.08806 0.0
O116 O 0.15778 0.43706 0.99699 0.0
O117 O 0.15697 0.38608 0.02158 0.0
C118 C 0.17423 0.41022 0.00686 0.0
C119 C 0.04053 0.32801 0.07756 0.0
C120 C 0.08543 0.44827 0.08189 0.0
C121 C 0.0507 0.40218 0.98069 0.0
O122 O 0.04117 0.38915 0.00897 0.0
O123 O 0.0809 0.41385 0.97718 0.0
O124 O 0.02344 0.35611 0.07705 0.0
O125 O 0.07206 0.32925 0.06759 0.0
O126 O 0.09908 0.54513 0.46984 0.0
Cd127 Cd 0.11149 0.58098 0.50646 0.0
Cd128 Cd 0.05847 0.61808 0.4679 0.0
O129 O 0.06605 0.57642 0.43624 0.0
O130 O 0.15561 0.56333 0.52515 0.0
O131 O 0.15112 0.61351 0.4992 0.0
C132 C 0.17021 0.59069 0.51375 0.0
C133 C 0.03193 0.66686 0.44389 0.0
C134 C 0.08127 0.54834 0.4428 0.0
C135 C 0.04712 0.59606 0.54366 0.0
O136 O 0.03723 0.6087 0.51534 0.0
O137 O 0.0774 0.58447 0.54692 0.0
O138 O 0.01634 0.63805 0.44652 0.0
O139 O 0.06371 0.66767 0.45297 0.0
O140 O 0.90573 0.91805 0.477 0.0
Cd141 Cd 0.89679 0.87615 0.50797 0.0
Cd142 Cd 0.94121 0.84698 0.46197 0.0
O143 O 0.92843 0.88982 0.43363 0.0
O144 O 0.85143 0.88316 0.53056 0.0
O145 O 0.86091 0.84337 0.49111 0.0
C146 C 0.83963 0.85934 0.51092 0.0
C147 C 0.9598 0.79568 0.43717 0.0
C148 C 0.91708 0.9176 0.44642 0.0
C149 C 0.96478 0.86089 0.53524 0.0
O150 O 0.97143 0.85528 0.50394 0.0
O151 O 0.9342 0.86713 0.54468 0.0
O152 O 0.97673 0.82369 0.43345 0.0
O153 O 0.93019 0.79751 0.45189 0.0
O154 O 0.40566 0.56741 0.55027 0.0
Cd155 Cd 0.37883 0.59746 0.5141 0.0
Cd156 Cd 0.45618 0.63696 0.55609 0.0
O157 O 0.45025 0.58963 0.57935 0.0
O158 O 0.33598 0.57316 0.50121 0.0
O159 O 0.33651 0.62367 0.52722 0.0
C160 C 0.31922 0.59851 0.51436 0.0
C161 C 0.49494 0.67974 0.571 0.0
C162 C 0.42973 0.56491 0.57252 0.0
C163 C 0.4322 0.62736 0.48403 0.0
O164 O 0.42698 0.64001 0.51356 0.0
O165 O 0.407 0.61176 0.47109 0.0
O166 O 0.50388 0.65477 0.55116 0.0
O167 O 0.46402 0.67965 0.5832 0.0
O168 O 0.53779 0.61584 0.9251 0.0
Cd169 Cd 0.50604 0.62574 0.88416 0.0
Cd170 Cd 0.55188 0.58141 0.85384 0.0
O171 O 0.58045 0.59185 0.8971 0.0
O172 O 0.48273 0.66858 0.89844 0.0
O173 O 0.5163 0.66557 0.85272 0.0
C174 C 0.49787 0.68385 0.8733 0.0
C175 C 0.57855 0.56474 0.80263 0.0
C176 C 0.56786 0.60344 0.92486 0.0
C177 C 0.47789 0.55847 0.86741 0.0
O178 O 0.50897 0.55155 0.86071 0.0
O179 O 0.46916 0.58882 0.87532 0.0
O180 O 0.58105 0.54685 0.83018 0.0
O181 O 0.56317 0.59396 0.80478 0.0
O182 O 0.4567 0.9031 0.91804 0.0
Cd183 Cd 0.49131 0.89147 0.8799 0.0
Cd184 Cd 0.45043 0.94385 0.84804 0.0
O185 O 0.41906 0.93429 0.88972 0.0
O186 O 0.51087 0.84799 0.89771 0.0
O187 O 0.48283 0.85106 0.84858 0.0
C188 C 0.49806 0.83264 0.87149 0.0
C189 C 0.42926 0.96996 0.79813 0.0
C190 C 0.42843 0.91919 0.9171 0.0
C191 C 0.52641 0.9565 0.86668 0.0
O192 O 0.49674 0.96647 0.85799 0.0
O193 O 0.53166 0.92545 0.87495 0.0
O194 O 0.42852 0.98517 0.82729 0.0
O195 O 0.43877 0.93827 0.79783 0.0
O196 O 0.5799 0.40409 0.56568 0.0
Cd197 Cd 0.53924 0.38573 0.5941 0.0
Cd198 Cd 0.55817 0.45048 0.63498 0.0
O199 O 0.57651 0.45716 0.58556 0.0
O200 O 0.52648 0.3425 0.56989 0.0
O201 O 0.54198 0.34344 0.62428 0.0
C202 C 0.53264 0.32595 0.59781 0.0
C203 C 0.57875 0.48746 0.67759 0.0
C204 C 0.58642 0.43588 0.56295 0.0
C205 C 0.48832 0.437 0.61661 0.0
O206 O 0.50759 0.438 0.64267 0.0
O207 O 0.49687 0.41768 0.59188 0.0
O208 O 0.55901 0.49812 0.65345 0.0
O209 O 0.58818 0.45576 0.67673 0.0
O210 O 0.47707 0.10616 0.54807 0.0
Cd211 Cd 0.51291 0.11804 0.58503 0.0
Cd212 Cd 0.47095 0.06781 0.62215 0.0
O213 O 0.44126 0.07508 0.57901 0.0
O214 O 0.53435 0.16103 0.56737 0.0
O215 O 0.50587 0.15886 0.61627 0.0
C216 C 0.52233 0.17682 0.59378 0.0
C217 C 0.44398 0.04462 0.6711 0.0
C218 C 0.44934 0.0893 0.55075 0.0
C219 C 0.5467 0.05243 0.6036 0.0
O220 O 0.51754 0.04408 0.61543 0.0
O221 O 0.55163 0.08208 0.59094 0.0
O222 O 0.44676 0.02769 0.64306 0.0
O223 O 0.45474 0.07587 0.67094 0.0
O224 O 0.92569 0.51952 0.62159 0.0
Cd225 Cd 0.88174 0.49162 0.6309 0.0
Cd226 Cd 0.85472 0.53887 0.59091 0.0
O227 O 0.89876 0.5656 0.60337 0.0
O228 O 0.88564 0.46904 0.67657 0.0
O229 O 0.84981 0.5119 0.66576 0.0
C230 C 0.86323 0.4908 0.68755 0.0
C231 C 0.80195 0.56421 0.57845 0.0
C232 C 0.92646 0.55069 0.6121 0.0
C233 C 0.86406 0.46749 0.56257 0.0
O234 O 0.86117 0.49936 0.55702 0.0
O235 O 0.86922 0.45661 0.59288 0.0
O236 O 0.82893 0.57077 0.56062 0.0
O237 O 0.80571 0.54612 0.60594 0.0
O238 O 0.0867 0.93907 0.60974 0.0
Cd239 Cd 0.12194 0.97684 0.62092 0.0
Cd240 Cd 0.15702 0.93638 0.56489 0.0
O241 O 0.1155 0.90493 0.57491 0.0
O242 O 0.10015 0.99782 0.66216 0.0
O243 O 0.15116 0.97356 0.66391 0.0
C244 C 0.12627 0.98839 0.67993 0.0
C245 C 0.20503 0.91396 0.53562 0.0
C246 C 0.08854 0.91186 0.59197 0.0
C247 C 0.13528 0.01234 0.55459 0.0
O248 O 0.14652 0.98363 0.54434 0.0
O249 O 0.12522 0.01625 0.58538 0.0
O250 O 0.17527 0.9154 0.52173 0.0
O251 O 0.20719 0.92273 0.56743 0.0
O252 O 0.92926 0.47794 0.90004 0.0
Cd253 Cd 0.88638 0.50724 0.89054 0.0
Cd254 Cd 0.85854 0.46311 0.93811 0.0
O255 O 0.9026 0.4359 0.92686 0.0
O256 O 0.89063 0.52699 0.84358 0.0
O257 O 0.85221 0.48744 0.85757 0.0
C258 C 0.86652 0.50634 0.83433 0.0
C259 C 0.8091 0.43619 0.95933 0.0
C260 C 0.92984 0.44846 0.9139 0.0
C261 C 0.87083 0.53836 0.95683 0.0
O262 O 0.86491 0.50755 0.96529 0.0
O263 O 0.87781 0.54591 0.92589 0.0
O264 O 0.83748 0.43577 0.976 0.0
O265 O 0.80957 0.44905 0.92881 0.0
O266 O 0.07095 0.04808 0.89726 0.0
Cd267 Cd 0.10733 0.01109 0.88702 0.0
Cd268 Cd 0.1418 0.05036 0.94102 0.0
O269 O 0.10011 0.0817 0.93214 0.0
O270 O 0.09021 0.99094 0.84336 0.0
O271 O 0.14056 0.01642 0.84731 0.0
C272 C 0.11784 0.00138 0.82856 0.0
C273 C 0.19089 0.07454 0.96645 0.0
C274 C 0.07302 0.0751 0.91527 0.0
C275 C 0.11967 0.97501 0.95293 0.0
O276 O 0.13193 0.00342 0.96294 0.0
O277 O 0.10933 0.97139 0.92224 0.0
O278 O 0.16223 0.07247 0.98252 0.0
O279 O 0.19138 0.06471 0.93488 0.0
O280 O 0.62663 0.92866 0.53238 0.0
Cd281 Cd 0.63606 0.8858 0.50283 0.0
Cd282 Cd 0.58942 0.85796 0.54573 0.0
O283 O 0.59956 0.90166 0.57406 0.0
O284 O 0.68236 0.89058 0.48161 0.0
O285 O 0.67011 0.85174 0.52135 0.0
C286 C 0.69244 0.86609 0.50144 0.0
C287 C 0.57306 0.80542 0.57018 0.0
C288 C 0.61239 0.92907 0.56175 0.0
C289 C 0.5692 0.87162 0.47171 0.0
O290 O 0.56055 0.86569 0.50251 0.0
O291 O 0.60042 0.87742 0.46432 0.0
O292 O 0.55493 0.8327 0.57393 0.0
O293 O 0.6025 0.80869 0.55536 0.0
O294 O 0.61079 0.07147 0.94634 0.0
Cd295 Cd 0.62207 0.1075 0.98319 0.0
Cd296 Cd 0.56766 0.14312 0.94427 0.0
O297 O 0.57625 0.10138 0.91293 0.0
O298 O 0.66546 0.08926 0.00277 0.0
O299 O 0.66233 0.13978 0.97736 0.0
C300 C 0.68072 0.11655 0.99213 0.0
C301 C 0.53958 0.19104 0.92038 0.0
C302 C 0.59272 0.07399 0.91939 0.0
C303 C 0.55725 0.12152 0.02024 0.0
O304 O 0.54699 0.1337 0.99187 0.0
O305 O 0.58762 0.11019 0.02343 0.0
O306 O 0.52491 0.16174 0.92298 0.0
O307 O 0.57138 0.1928 0.92928 0.0
O308 O 0.39518 0.4385 0.94094 0.0
Cd309 Cd 0.38152 0.40305 0.97783 0.0
Cd310 Cd 0.43536 0.36619 0.93794 0.0
O311 O 0.42866 0.40836 0.90665 0.0
O312 O 0.34183 0.42688 0.99932 0.0
O313 O 0.3368 0.37665 0.97408 0.0
C314 C 0.32243 0.40217 0.98945 0.0
C315 C 0.46101 0.31641 0.91554 0.0
C316 C 0.41326 0.43616 0.9139 0.0
C317 C 0.44627 0.38612 0.01399 0.0
O318 O 0.45649 0.37503 0.98519 0.0
O319 O 0.4159 0.39731 0.01769 0.0
O320 O 0.47707 0.34508 0.91692 0.0
O321 O 0.42911 0.31648 0.92434 0.0
O322 O 0.89959 0.07902 0.05082 0.0
Cd323 Cd 0.88824 0.1149 0.0137 0.0
Cd324 Cd 0.9405 0.15062 0.05443 0.0
O325 O 0.93181 0.10917 0.0861 0.0
O326 O 0.84646 0.0946 0.99274 0.0
O327 O 0.84617 0.14507 0.0182 0.0
C328 C 0.82946 0.12094 0.00298 0.0
C329 C 0.96658 0.19982 0.07744 0.0
C330 C 0.91647 0.08145 0.07855 0.0
C331 C 0.95421 0.12926 0.97914 0.0
O332 O 0.96338 0.14065 0.00815 0.0
O333 O 0.92376 0.1187 0.97442 0.0
O334 O 0.98194 0.17077 0.07665 0.0
O335 O 0.93502 0.20054 0.0676 0.0
C336 C 0.09978 0.06041 0.53156 0.0
C337 C 0.12841 0.03883 0.52821 0.0
C338 C 0.0858 0.07701 0.50287 0.0
C339 C 0.09991 0.0725 0.46983 0.0
H340 H 0.08615 0.062 0.55572 0.0
H341 H 0.06203 0.09094 0.50628 0.0
S342 S 0.18075 0.02658 0.4496 0.0
N343 N 0.17473 0.01986 0.49096 0.0
N344 N 0.14843 0.05086 0.43709 0.0
C345 C 0.13116 0.05472 0.46713 0.0
C346 C 0.14541 0.03792 0.49633 0.0
C347 C 0.90083 0.40318 0.50072 0.0
C348 C 0.88724 0.41451 0.46913 0.0
C349 C 0.89055 0.41795 0.53189 0.0
C350 C 0.86631 0.44454 0.53251 0.0
H351 H 0.92157 0.38474 0.50133 0.0
H352 H 0.90386 0.41063 0.55512 0.0
S353 S 0.81635 0.4771 0.45846 0.0
N354 N 0.84325 0.44914 0.44156 0.0
N355 N 0.82418 0.47691 0.50004 0.0
C356 C 0.84958 0.45312 0.50175 0.0
C357 C 0.85994 0.43807 0.47007 0.0
C358 C 0.11787 0.93432 0.04038 0.0
C359 C 0.08693 0.9158 0.03979 0.0
C360 C 0.13043 0.95049 0.01088 0.0
C361 C 0.11272 0.94864 0.97951 0.0
H362 H 0.13111 0.93885 0.06434 0.0
H363 H 0.1528 0.96675 0.01336 0.0
S364 S 0.03559 0.89598 0.96213 0.0
N365 N 0.04268 0.89086 0.00354 0.0
N366 N 0.06635 0.92147 0.94812 0.0
C367 C 0.08436 0.92653 0.97746 0.0
C368 C 0.07144 0.91005 0.00763 0.0
C369 C 0.91509 0.60046 0.01543 0.0
C370 C 0.89887 0.59348 0.04707 0.0
C371 C 0.90335 0.58567 0.98481 0.0
C372 C 0.87504 0.56346 0.98485 0.0
H373 H 0.9387 0.61503 0.0146 0.0
H374 H 0.9185 0.58902 0.96174 0.0
S375 S 0.81826 0.54423 0.05874 0.0
N376 N 0.84889 0.56845 0.07495 0.0
N377 N 0.82721 0.54053 0.01753 0.0
C378 C 0.85618 0.55978 0.01537 0.0
C379 C 0.86799 0.57484 0.04648 0.0
C380 C 0.50279 0.07212 0.08268 0.0
C381 C 0.47116 0.0895 0.08028 0.0
C382 C 0.53228 0.08475 0.06633 0.0
C383 C 0.5311 0.11515 0.04703 0.0
H384 H 0.50425 0.04714 0.0947 0.0
H385 H 0.55508 0.06891 0.06611 0.0
S386 S 0.45757 0.17508 0.04086 0.0
N387 N 0.44267 0.14235 0.06323 0.0
N388 N 0.49799 0.16583 0.0324 0.0
C389 C 0.50098 0.13492 0.04824 0.0
C390 C 0.47102 0.12217 0.06492 0.0
C391 C 0.4987 0.433 0.07965 0.0
C392 C 0.53124 0.41785 0.07525 0.0
C393 C 0.46977 0.42014 0.0627 0.0
C394 C 0.47242 0.39166 0.04087 0.0
H395 H 0.49597 0.45674 0.09373 0.0
H396 H 0.44609 0.43457 0.06417 0.0
S397 S 0.5492 0.33679 0.02896 0.0
N398 N 0.56254 0.36845 0.05359 0.0
N399 N 0.50817 0.34427 0.02187 0.0
C400 C 0.50363 0.37358 0.04011 0.0
C401 C 0.53308 0.38668 0.05728 0.0
C402 C 0.50939 0.86098 0.45262 0.0
C403 C 0.54144 0.87624 0.44621 0.0
C404 C 0.47975 0.87225 0.43591 0.0
C405 C 0.48085 0.89952 0.41225 0.0
H406 H 0.50672 0.84173 0.4725 0.0
H407 H 0.45548 0.86118 0.44364 0.0
S408 S 0.55974 0.94292 0.3809 0.0
N409 N 0.57355 0.91593 0.41044 0.0
N410 N 0.51784 0.9373 0.37885 0.0
C411 C 0.51337 0.91221 0.40264 0.0
C412 C 0.54368 0.90054 0.41967 0.0
C413 C 0.49057 0.60316 0.49453 0.0
C414 C 0.46692 0.61809 0.4719 0.0
C415 C 0.52254 0.59166 0.48315 0.0
C416 C 0.53165 0.5931 0.44827 0.0
H417 H 0.48386 0.59848 0.52091 0.0
H418 H 0.53942 0.5797 0.50167 0.0
S419 S 0.4782 0.62855 0.3781 0.0
N420 N 0.45452 0.63354 0.4129 0.0
N421 N 0.51421 0.61036 0.39095 0.0
C422 C 0.50811 0.60763 0.42515 0.0
C423 C 0.47579 0.62022 0.43703 0.0
C424 C 0.08125 0.51191 0.08853 0.0
C425 C 0.07644 0.47892 0.10259 0.0
C426 C 0.06364 0.54039 0.10162 0.0
C427 C 0.0407 0.53682 0.12921 0.0
H428 H 0.09623 0.51536 0.06538 0.0
H429 H 0.06554 0.56449 0.08794 0.0
S430 S 0.02689 0.4584 0.1813 0.0
N431 N 0.05293 0.44611 0.15025 0.0
N432 N 0.01987 0.4996 0.17472 0.0
C433 C 0.03933 0.50507 0.14629 0.0
C434 C 0.05722 0.47611 0.13301 0.0
C435 C 0.03404 0.49377 0.37903 0.0
C436 C 0.03546 0.46109 0.39432 0.0
C437 C 0.05214 0.52145 0.39272 0.0
C438 C 0.07246 0.51756 0.42222 0.0
H439 H 0.01658 0.49875 0.35803 0.0
H440 H 0.04789 0.54659 0.38169 0.0
S441 S 0.09219 0.43531 0.46609 0.0
N442 N 0.06423 0.42491 0.43614 0.0
N443 N 0.09864 0.47689 0.46181 0.0
C444 C 0.07792 0.48406 0.43475 0.0
C445 C 0.05932 0.45579 0.42078 0.0
C446 C 0.91991 0.9817 0.44632 0.0
C447 C 0.92318 0.95055 0.42827 0.0
C448 C 0.93479 0.01201 0.43392 0.0
C449 C 0.95343 0.01212 0.4031 0.0
H450 H 0.90825 0.98224 0.47154 0.0
H451 H 0.93438 0.03454 0.4501 0.0
S452 S 0.96155 0.94008 0.34174 0.0
N453 N 0.9404 0.92372 0.3746 0.0
N454 N 0.96855 0.98058 0.3516 0.0
C455 C 0.95318 0.98236 0.38285 0.0
C456 C 0.93796 0.95157 0.39534 0.0
C457 C 0.45584 0.52826 0.61823 0.0
C458 C 0.43726 0.53071 0.58748 0.0
C459 C 0.46936 0.4969 0.62935 0.0
C460 C 0.46554 0.46679 0.60974 0.0
H461 H 0.46136 0.55104 0.63306 0.0
H462 H 0.485 0.49694 0.65226 0.0
S463 S 0.41479 0.45841 0.52986 0.0
N464 N 0.41212 0.49942 0.53974 0.0
N465 N 0.43814 0.44068 0.56036 0.0
C466 C 0.44464 0.46835 0.58044 0.0
C467 C 0.4304 0.50024 0.56936 0.0
C468 C 0.62563 0.55895 0.9881 0.0
C469 C 0.60772 0.56298 0.01923 0.0
C470 C 0.6147 0.57522 0.95807 0.0
C471 C 0.58533 0.59611 0.95793 0.0
H472 H 0.64674 0.54099 0.98626 0.0
H473 H 0.62779 0.56903 0.93436 0.0
S474 S 0.53494 0.62219 0.03453 0.0
N475 N 0.56337 0.59466 0.04948 0.0
N476 N 0.54286 0.62556 0.99307 0.0
C477 C 0.56998 0.60396 0.98976 0.0
C478 C 0.58119 0.58732 0.02044 0.0
C479 C 0.37216 0.96505 0.98083 0.0
C480 C 0.38718 0.95613 0.01243 0.0
C481 C 0.3832 0.95026 0.9501 0.0
C482 C 0.40981 0.92596 0.94971 0.0
H483 H 0.35344 0.98553 0.97944 0.0
H484 H 0.37262 0.96003 0.92636 0.0
S485 S 0.4513 0.88742 0.02637 0.0
N486 N 0.42532 0.91686 0.04214 0.0
N487 N 0.44598 0.88861 0.9844 0.0
C488 C 0.42189 0.9136 0.98153 0.0
C489 C 0.41057 0.92878 0.01292 0.0
C490 C 0.62936 0.4422 0.51536 0.0
C491 C 0.5969 0.44924 0.5293 0.0
C492 C 0.63832 0.45429 0.48254 0.0
C493 C 0.6146 0.47262 0.4625 0.0
H494 H 0.64786 0.42751 0.52993 0.0
H495 H 0.66365 0.44881 0.47253 0.0
S496 S 0.52612 0.49682 0.48756 0.0
N497 N 0.54124 0.47581 0.52104 0.0
N498 N 0.5574 0.49703 0.45898 0.0
C499 C 0.58204 0.47949 0.47624 0.0
C500 C 0.57334 0.46811 0.50978 0.0
C501 C 0.40007 0.05981 0.5227 0.0
C502 C 0.42954 0.08036 0.51946 0.0
C503 C 0.38695 0.04183 0.49466 0.0
C504 C 0.40266 0.04373 0.4622 0.0
H505 H 0.38858 0.05532 0.54761 0.0
H506 H 0.36595 0.02419 0.49912 0.0
S507 S 0.47491 0.10065 0.43806 0.0
N508 N 0.46987 0.10682 0.47963 0.0
N509 N 0.44516 0.07275 0.42695 0.0
C510 C 0.42922 0.06763 0.45754 0.0
C511 C 0.44269 0.08602 0.4862 0.0
C512 C 0.99014 0.60943 0.56912 0.0
C513 C 0.02068 0.59025 0.57043 0.0
C514 C 0.96041 0.59829 0.58588 0.0
C515 C 0.95993 0.56735 0.60444 0.0
H516 H 0.98841 0.63192 0.5529 0.0
H517 H 0.93702 0.61269 0.58181 0.0
S518 S 0.03539 0.51219 0.6227 0.0
N519 N 0.05035 0.5423 0.59694 0.0
N520 N 0.99448 0.52128 0.62862 0.0
C521 C 0.9914 0.55025 0.6095 0.0
C522 C 0.0218 0.56174 0.59245 0.0
C523 C 0.99396 0.89259 0.58244 0.0
C524 C 0.99421 0.86567 0.55861 0.0
C525 C 0.02471 0.90534 0.596 0.0
C526 C 0.05675 0.89163 0.58612 0.0
H527 H 0.97032 0.90599 0.58816 0.0
H528 H 0.02339 0.92792 0.61205 0.0
S529 S 0.06992 0.81479 0.53169 0.0
N530 N 0.02811 0.82126 0.53109 0.0
N531 N 0.08585 0.84505 0.55653 0.0
C532 C 0.05678 0.8619 0.56576 0.0
C533 C 0.0255 0.84898 0.55201 0.0
C534 C 0.99334 0.3893 0.95619 0.0
C535 C 0.02404 0.40815 0.95431 0.0
C536 C 0.96355 0.40068 0.93985 0.0
C537 C 0.96321 0.43148 0.92106 0.0
H538 H 0.99155 0.36691 0.97255 0.0
H539 H 0.94006 0.38655 0.94431 0.0
S540 S 0.03907 0.48563 0.90122 0.0
N541 N 0.05397 0.45552 0.92696 0.0
N542 N 0.99799 0.47697 0.89598 0.0
C543 C 0.9948 0.44815 0.91532 0.0
C544 C 0.02526 0.43646 0.93201 0.0
C545 C 0.0091 0.08035 0.91674 0.0
C546 C 0.04154 0.09539 0.92206 0.0
C547 C 0.97955 0.09381 0.93224 0.0
C548 C 0.98147 0.12279 0.95348 0.0
H549 H 0.00684 0.05631 0.90308 0.0
H550 H 0.95583 0.07954 0.93016 0.0
S551 S 0.05823 0.17711 0.96754 0.0
N552 N 0.07233 0.14484 0.9441 0.0
N553 N 0.01684 0.17019 0.97303 0.0
C554 C 0.01282 0.14056 0.95519 0.0
C555 C 0.04287 0.12684 0.93953 0.0
C556 C 0.59307 0.02379 0.56988 0.0
C557 C 0.57246 0.02481 0.59944 0.0
C558 C 0.60896 0.99321 0.55951 0.0
C559 C 0.60478 0.96258 0.57835 0.0
H560 H 0.59444 0.04579 0.55297 0.0
H561 H 0.62221 0.99308 0.53509 0.0
S562 S 0.56091 0.95447 0.66252 0.0
N563 N 0.55432 0.99462 0.65091 0.0
N564 N 0.58418 0.93729 0.63162 0.0
C565 C 0.58779 0.96452 0.61016 0.0
C566 C 0.57162 0.9956 0.62064 0.0
C567 C 0.59081 0.01014 0.91386 0.0
C568 C 0.58532 0.04271 0.89909 0.0
C569 C 0.57469 0.98083 0.90073 0.0
C570 C 0.55266 0.98319 0.87238 0.0
H571 H 0.6051 0.0076 0.93751 0.0
H572 H 0.57688 0.95702 0.91486 0.0
S573 S 0.53764 0.06029 0.8187 0.0
N574 N 0.56217 0.07397 0.85031 0.0
N575 N 0.53201 0.01894 0.82568 0.0
C576 C 0.55072 0.0146 0.85475 0.0
C577 C 0.56703 0.04439 0.86809 0.0
C578 C 0.42853 0.53038 0.89703 0.0
C579 C 0.4537 0.52951 0.87127 0.0
C580 C 0.41279 0.50013 0.90848 0.0
C581 C 0.4217 0.46796 0.89457 0.0
H582 H 0.42312 0.554 0.91054 0.0
H583 H 0.39561 0.50182 0.93026 0.0
S584 S 0.47924 0.45364 0.82003 0.0
N585 N 0.4817 0.49519 0.82745 0.0
N586 N 0.45213 0.43838 0.84879 0.0
C587 C 0.4436 0.4675 0.86586 0.0
C588 C 0.45963 0.49828 0.85428 0.0
C589 C 0.91514 0.01758 0.08452 0.0
C590 C 0.92398 0.04978 0.09839 0.0
C591 C 0.9306 0.98734 0.09632 0.0
C592 C 0.95538 0.98837 0.12233 0.0
H593 H 0.89836 0.01585 0.0625 0.0
H594 H 0.92544 0.96363 0.08288 0.0
S595 S 0.9804 0.06424 0.17358 0.0
N596 N 0.9537 0.07948 0.14451 0.0
N597 N 0.98291 0.02267 0.16627 0.0
C598 C 0.96116 0.01958 0.13926 0.0
C599 C 0.94535 0.05032 0.12743 0.0
C600 C 0.99075 0.22052 0.37139 0.0
C601 C 0.99263 0.20272 0.40277 0.0
C602 C 0.98558 0.25622 0.37044 0.0
C603 C 0.98298 0.27545 0.40085 0.0
H604 H 0.99301 0.20677 0.34739 0.0
H605 H 0.98417 0.2689 0.34576 0.0
S606 S 0.9864 0.24113 0.48965 0.0
N607 N 0.99129 0.20718 0.46498 0.0
N608 N 0.98229 0.27388 0.46319 0.0
C609 C 0.98494 0.25791 0.43233 0.0
C610 C 0.98957 0.22167 0.43329 0.0
C611 C 0.01998 0.73985 0.13634 0.0
C612 C 0.98783 0.7236 0.13747 0.0
C613 C 0.02265 0.77574 0.13639 0.0
C614 C 0.99319 0.79648 0.13628 0.0
H615 H 0.04319 0.7247 0.13453 0.0
H616 H 0.04784 0.78727 0.13443 0.0
S617 S 0.90316 0.76651 0.14016 0.0
N618 N 0.92608 0.73091 0.14033 0.0
N619 N 0.93103 0.79834 0.13857 0.0
C620 C 0.96097 0.78056 0.13826 0.0
C621 C 0.9583 0.74408 0.13936 0.0
C622 C 0.38159 0.02036 0.22645 0.0
C623 C 0.3851 0.99143 0.20528 0.0
C624 C 0.38374 0.01743 0.26228 0.0
C625 C 0.38817 0.98535 0.27809 0.0
H626 H 0.37914 0.04564 0.2152 0.0
H627 H 0.38273 0.04047 0.2777 0.0
S628 S 0.39624 0.90163 0.23428 0.0
N629 N 0.39209 0.92964 0.20274 0.0
N630 N 0.39437 0.92402 0.27016 0.0
C631 C 0.38989 0.95608 0.25734 0.0
C632 C 0.3888 0.95916 0.22086 0.0
C633 C 0.6267 0.51927 0.22827 0.0
C634 C 0.59633 0.52087 0.20888 0.0
C635 C 0.62606 0.52247 0.26417 0.0
C636 C 0.59494 0.52659 0.282 0.0
H637 H 0.65114 0.51533 0.21566 0.0
H638 H 0.64998 0.52063 0.2781 0.0
S639 S 0.50837 0.53337 0.24337 0.0
N640 N 0.53434 0.52802 0.21037 0.0
N641 N 0.53319 0.53328 0.27758 0.0
C642 C 0.5645 0.52871 0.26292 0.0
C643 C 0.56518 0.52606 0.22644 0.0
C644 C 0.26447 0.3744 0.99545 0.0
C645 C 0.28475 0.40422 0.99428 0.0
C646 C 0.22871 0.37634 0.99996 0.0
C647 C 0.21195 0.40818 0.00254 0.0
H648 H 0.27632 0.34941 0.99323 0.0
H649 H 0.21406 0.35278 1.00093 0.0
S650 S 0.25332 0.49383 1.00064 0.0
N651 N 0.28528 0.46653 0.99612 0.0
N652 N 0.21846 0.47013 0.00387 0.0
C653 C 0.23197 0.43812 1.00118 0.0
C654 C 0.26825 0.43615 0.99725 0.0
C655 C 0.22833 0.56438 0.51636 0.0
C656 C 0.20802 0.59416 0.51527 0.0
C657 C 0.26417 0.56621 0.51594 0.0
C658 C 0.28125 0.59791 0.51522 0.0
H659 H 0.21648 0.53929 0.51674 0.0
H660 H 0.2786 0.5425 0.5164 0.0
S661 S 0.24011 0.68359 0.51331 0.0
N662 N 0.20765 0.65642 0.51378 0.0
N663 N 0.2752 0.6599 0.51406 0.0
C664 C 0.26135 0.62798 0.51487 0.0
C665 C 0.22471 0.62609 0.51456 0.0
C666 C 0.74564 0.85684 0.5356 0.0
C667 C 0.72926 0.85746 0.50352 0.0
C668 C 0.78157 0.8557 0.53798 0.0
C669 C 0.80219 0.85389 0.50841 0.0
H670 H 0.73076 0.85952 0.55891 0.0
H671 H 0.79333 0.85739 0.56306 0.0
S672 S 0.77143 0.85163 0.41854 0.0
N673 N 0.73608 0.85446 0.44174 0.0
N674 N 0.80343 0.85058 0.4462 0.0
C675 C 0.78594 0.85221 0.47632 0.0
C676 C 0.74948 0.85448 0.47387 0.0
C677 C 0.49553 0.77645 0.90105 0.0
C678 C 0.49805 0.7948 0.87012 0.0
C679 C 0.49455 0.74067 0.90142 0.0
C680 C 0.49693 0.72166 0.87094 0.0
H681 H 0.4938 0.78987 0.9253 0.0
H682 H 0.49267 0.72781 0.92599 0.0
S683 S 0.50412 0.75731 0.78305 0.0
N684 N 0.50236 0.79143 0.80805 0.0
N685 N 0.50198 0.72373 0.80884 0.0
C686 C 0.49971 0.73956 0.83974 0.0
C687 C 0.49981 0.77625 0.8393 0.0
C688 C 0.53512 0.26969 0.56774 0.0
C689 C 0.53035 0.28797 0.59842 0.0
C690 C 0.5332 0.23388 0.56689 0.0
C691 C 0.52574 0.21468 0.59656 0.0
H692 H 0.5407 0.28314 0.54406 0.0
H693 H 0.537 0.22122 0.54248 0.0
S694 S 0.5107 0.25018 0.68354 0.0
N695 N 0.51807 0.28423 0.65943 0.0
N696 N 0.51353 0.21679 0.65771 0.0
C697 C 0.52079 0.23259 0.62751 0.0
C698 C 0.52338 0.26921 0.62848 0.0
C699 C 0.85874 0.53081 0.77561 0.0
C700 C 0.85851 0.50215 0.79751 0.0
C701 C 0.85731 0.52694 0.73984 0.0
C702 C 0.85681 0.49423 0.72476 0.0
H703 H 0.86122 0.55635 0.78615 0.0
H704 H 0.85896 0.54963 0.7239 0.0
S705 S 0.85388 0.41115 0.77077 0.0
N706 N 0.8552 0.4401 0.80159 0.0
N707 N 0.85419 0.43283 0.73436 0.0
C708 C 0.85523 0.46546 0.74637 0.0
C709 C 0.85561 0.46943 0.78278 0.0
C710 C 0.09408 0.99378 0.73478 0.0
C711 C 0.12587 0.9923 0.71778 0.0
C712 C 0.09204 0.99622 0.7705 0.0
C713 C 0.1217 0.99802 0.79085 0.0
H714 H 0.07037 0.99246 0.72042 0.0
H715 H 0.06686 0.99714 0.7822 0.0
S716 S 0.21136 0.99578 0.7591 0.0
N717 N 0.18785 0.99276 0.72403 0.0
N718 N 0.18402 0.99846 0.79139 0.0
C719 C 0.15376 0.99702 0.77428 0.0
C720 C 0.15585 0.9938 0.73773 0.0
C721 C 0.77388 0.09027 0.99787 0.0
C722 C 0.79162 0.12158 0.99957 0.0
C723 C 0.73812 0.0892 0.99595 0.0
C724 C 0.71849 0.11939 0.99491 0.0
H725 H 0.78768 0.06619 0.99862 0.0
H726 H 0.7258 0.06435 0.99483 0.0
S727 S 0.75237 0.20812 0.99799 0.0
N728 N 0.78689 0.18368 1.00012 0.0
N729 N 0.71941 0.18167 0.99539 0.0
C730 C 0.73581 0.15099 0.99612 0.0
C731 C 0.77241 0.15208 0.99881 0.0
C732 C 0.10291 0.98251 0.24236 0.0
C733 C 0.07207 0.97061 0.22801 0.0
C734 C 0.10268 0.00324 0.27191 0.0
C735 C 0.07155 0.01396 0.28665 0.0
H736 H 0.12721 0.97563 0.23079 0.0
H737 H 0.1268 0.01118 0.28306 0.0
S738 S 0.98414 0.99135 0.25751 0.0
N739 N 0.00988 0.97144 0.23042 0.0
N740 N 0.00945 0.01165 0.28462 0.0
C741 C 0.04073 0.00274 0.27207 0.0
C742 C 0.04098 0.9808 0.24299 0.0
C743 C 0.9016 0.46987 0.25664 0.0
C744 C 0.90121 0.48456 0.28953 0.0
C745 C 0.9022 0.49036 0.22707 0.0
C746 C 0.9027 0.52643 0.22911 0.0
H747 H 0.90326 0.44234 0.25363 0.0
H748 H 0.90434 0.47765 0.20249 0.0
S749 S 0.89614 0.57771 0.30884 0.0
N750 N 0.89679 0.53757 0.3222 0.0
N751 N 0.89841 0.57588 0.26662 0.0
C752 C 0.89961 0.54144 0.26169 0.0
C753 C 0.89873 0.52057 0.29187 0.0
C754 C 0.22315 0.0813 0.02131 0.0
C755 C 0.22272 0.08345 0.98524 0.0
C756 C 0.25396 0.08272 0.03972 0.0
C757 C 0.28557 0.08678 0.02284 0.0
H758 H 0.19975 0.07632 0.03545 0.0
H759 H 0.25308 0.07873 0.06719 0.0
S760 S 0.29772 0.10006 0.92914 0.0
N761 N 0.25606 0.09426 0.93371 0.0
N762 N 0.31394 0.09767 0.96813 0.0
C763 C 0.28515 0.09213 0.98702 0.0
C764 C 0.25376 0.09022 0.96826 0.0
C765 C 0.74488 0.42729 0.03154 0.0
C766 C 0.71323 0.42851 0.01443 0.0
C767 C 0.77586 0.4268 0.01329 0.0
C768 C 0.77647 0.42793 0.97715 0.0
H769 H 0.74589 0.42855 0.05927 0.0
H770 H 0.79949 0.42786 0.02779 0.0
S771 S 0.7007 0.42544 0.91997 0.0
N772 N 0.68442 0.42609 0.95905 0.0
N773 N 0.7427 0.42585 0.92495 0.0
C774 C 0.74506 0.42633 0.95971 0.0
C775 C 0.71344 0.42643 0.97829 0.0
C776 C 0.29866 0.9071 0.51015 0.0
C777 C 0.29747 0.90799 0.47402 0.0
C778 C 0.26863 0.90683 0.52996 0.0
C779 C 0.2361 0.90708 0.51451 0.0
H780 H 0.32297 0.90859 0.52345 0.0
H781 H 0.27101 0.90807 0.5576 0.0
S782 S 0.21887 0.90388 0.4208 0.0
N783 N 0.26106 0.90518 0.42363 0.0
N784 N 0.20461 0.90418 0.46066 0.0
C785 C 0.23456 0.90516 0.47839 0.0
C786 C 0.26521 0.90575 0.45821 0.0
C787 C 0.7397 0.55025 0.57323 0.0
C788 C 0.76758 0.57109 0.56375 0.0
C789 C 0.70978 0.54914 0.55334 0.0
C790 C 0.70652 0.56896 0.5233 0.0
H791 H 0.74185 0.53278 0.59472 0.0
H792 H 0.68987 0.53122 0.56065 0.0
S793 S 0.7696 0.63275 0.49123 0.0
N794 N 0.7881 0.61561 0.5252 0.0
N795 N 0.73194 0.61377 0.48797 0.0
C796 C 0.73297 0.59223 0.51537 0.0
C797 C 0.76345 0.59326 0.53557 0.0
C798 C 0.98669 0.29436 0.08588 0.0
C799 C 0.02281 0.29511 0.08475 0.0
C800 C 0.96862 0.26334 0.0857 0.0
C801 C 0.9859 0.23177 0.08479 0.0
H802 H 0.97205 0.31792 0.08492 0.0
H803 H 0.94089 0.26422 0.08467 0.0
S804 S 0.08042 0.21956 0.0871 0.0
N805 N 0.07521 0.26152 0.08659 0.0
N806 N 0.04143 0.20317 0.08679 0.0
C807 C 0.02204 0.23211 0.08649 0.0
C808 C 0.04044 0.26377 0.08631 0.0
C809 C 0.03054 0.72972 0.4311 0.0
C810 C 0.01287 0.69856 0.43477 0.0
C811 C 0.01287 0.76092 0.42889 0.0
C812 C 0.9768 0.76227 0.43075 0.0
H813 H 0.05829 0.73027 0.43156 0.0
H814 H 0.02782 0.78428 0.42801 0.0
S815 S 0.91816 0.68766 0.435 0.0
N816 N 0.95692 0.67073 0.4358 0.0
N817 N 0.92394 0.72947 0.43237 0.0
C818 C 0.95873 0.73119 0.43183 0.0
C819 C 0.9767 0.69932 0.43365 0.0
C820 C 0.52467 0.7697 0.59232 0.0
C821 C 0.55757 0.77133 0.57745 0.0
C822 C 0.50547 0.73935 0.59208 0.0
C823 C 0.51828 0.7093 0.57688 0.0
H824 H 0.51272 0.79255 0.6026 0.0
H825 H 0.47963 0.7401 0.60224 0.0
S826 S 0.60542 0.69815 0.53996 0.0
N827 N 0.60392 0.73887 0.55123 0.0
N828 N 0.56789 0.68183 0.55077 0.0
C829 C 0.55228 0.70974 0.56456 0.0
C830 C 0.57192 0.74071 0.5649 0.0
C831 C 0.57217 0.56221 0.73902 0.0
C832 C 0.58726 0.54921 0.76904 0.0
C833 C 0.57179 0.54299 0.7087 0.0
C834 C 0.58654 0.51005 0.70718 0.0
H835 H 0.55833 0.58626 0.73949 0.0
H836 H 0.55793 0.55327 0.68695 0.0
S837 S 0.6358 0.4677 0.77666 0.0
N838 N 0.62221 0.50387 0.79383 0.0
N839 N 0.62143 0.46776 0.73688 0.0
C840 C 0.60472 0.4983 0.736 0.0
C841 C 0.60511 0.51789 0.76691 0.0
C842 C 0.42645 0.97273 0.73412 0.0
C843 C 0.42499 0.98973 0.76582 0.0
C844 C 0.43016 0.99099 0.70336 0.0
C845 C 0.43294 0.027 0.70305 0.0
H846 H 0.42648 0.945 0.73309 0.0
H847 H 0.43283 0.97647 0.67986 0.0
S848 S 0.42559 0.08414 0.7786 0.0
N849 N 0.42254 0.04509 0.7946 0.0
N850 N 0.43002 0.07919 0.73681 0.0
C851 C 0.42898 0.04448 0.73427 0.0
C852 C 0.42484 0.0259 0.76562 0.0
C853 C 0.51635 0.28472 0.90971 0.0
C854 C 0.48022 0.28417 0.90921 0.0
C855 C 0.53552 0.25438 0.91112 0.0
C856 C 0.5194 0.2222 0.91177 0.0
H857 H 0.53007 0.30881 0.91107 0.0
H858 H 0.56312 0.25633 0.91341 0.0
S859 S 0.42563 0.20651 0.90499 0.0
N860 N 0.42925 0.24864 0.90528 0.0
N861 N 0.46513 0.19156 0.9074 0.0
C862 C 0.48339 0.2212 0.90836 0.0
C863 C 0.46385 0.25218 0.90722 0.0
loop_
_geom_bond_atom_site_label_1
_geom_bond_atom_site_label_2
_geom_bond_distance
_geom_bond_site_symmetry_2
_ccdc_geom_bond_type
O0 Cd1 2.223 1_455 S
O0 C8 1.315 . S
Cd1 O0 2.223 1_655 S
Cd1 O4 2.297 . S
Cd1 O5 2.439 . S
Cd1 O11 2.240 . S
Cd2 O3 2.240 . S
Cd2 O10 2.223 1_455 S
Cd2 O12 2.297 . S
Cd2 O13 2.439 1_455 S
O3 Cd2 2.240 . S
O3 C8 1.279 . S
O4 Cd1 2.297 . S
O4 C6 1.247 . S
O5 Cd1 2.439 . S
O5 C6 1.208 . S
C6 O4 1.247 . S
C6 O5 1.208 . S
C7 O12 1.236 1_655 S
C7 O13 1.210 . S
C8 O0 1.315 . S
C8 O3 1.279 . S
C9 O10 1.315 . S
C9 O11 1.279 . S
O10 Cd2 2.223 1_655 S
O10 C9 1.315 . S
O11 Cd1 2.240 . S
O11 C9 1.279 . S
O12 Cd2 2.297 . S
O12 C7 1.236 1_455 S
O13 Cd2 2.439 1_655 S
O13 C7 1.210 . S
O14 Cd15 2.223 1_655 S
O14 C22 1.315 . S
Cd15 O14 2.223 1_455 S
Cd15 O18 2.297 . S
Cd15 O19 2.439 . S
Cd15 O25 2.240 . S
Cd16 O17 2.240 . S
Cd16 O24 2.234 . S
Cd16 O26 2.297 . S
Cd16 O27 2.426 1_655 S
O17 Cd16 2.240 . S
O17 C22 1.279 . S
O18 Cd15 2.297 . S
O18 C20 1.247 . S
O19 Cd15 2.439 . S
O19 C20 1.208 . S
C20 O18 1.247 . S
C20 O19 1.208 . S
C21 O26 1.247 . S
C21 O27 1.207 1_655 S
C22 O14 1.315 . S
C22 O17 1.279 . S
C23 O24 1.297 1_455 S
C23 O25 1.279 . S
O24 Cd16 2.234 . S
O24 C23 1.297 1_655 S
O25 Cd15 2.240 . S
O25 C23 1.279 . S
O26 Cd16 2.297 . S
O26 C21 1.247 . S
O27 Cd16 2.426 1_455 S
O27 C21 1.207 1_455 S
O28 Cd29 2.223 1_455 S
O28 C36 1.315 . S
Cd29 O28 2.223 1_655 S
Cd29 O32 2.297 . S
Cd29 O33 2.439 . S
Cd29 O39 2.240 . S
Cd30 O31 2.240 . S
Cd30 O38 2.205 1_455 S
Cd30 O40 2.297 . S
Cd30 O41 2.445 . S
O31 Cd30 2.240 . S
O31 C36 1.279 . S
O32 Cd29 2.297 . S
O32 C34 1.247 . S
O33 Cd29 2.439 . S
O33 C34 1.208 . S
C34 O32 1.247 . S
C34 O33 1.208 . S
C35 O40 1.247 . S
C35 O41 1.209 . S
C36 O28 1.315 . S
C36 O31 1.279 . S
C37 O38 1.342 . S
C37 O39 1.279 . S
O38 Cd30 2.205 1_655 S
O38 C37 1.342 . S
O39 Cd29 2.240 . S
O39 C37 1.279 . S
O40 Cd30 2.297 . S
O40 C35 1.247 . S
O41 Cd30 2.445 . S
O41 C35 1.209 . S
O42 Cd43 2.223 1_655 S
O42 C50 1.315 . S
Cd43 O42 2.223 1_455 S
Cd43 O46 2.297 . S
Cd43 O47 2.439 . S
Cd43 O53 2.240 . S
Cd44 O45 2.240 . S
Cd44 O52 2.239 . S
Cd44 O54 2.297 . S
Cd44 O55 2.439 . S
O45 Cd44 2.240 . S
O45 C50 1.279 . S
O46 Cd43 2.297 . S
O46 C48 1.247 . S
O47 Cd43 2.439 . S
O47 C48 1.208 . S
C48 O46 1.247 . S
C48 O47 1.208 . S
C49 O54 1.247 . S
C49 O55 1.208 . S
C50 O42 1.315 . S
C50 O45 1.279 . S
C51 O52 1.290 1_455 S
C51 O53 1.279 . S
O52 Cd44 2.239 . S
O52 C51 1.290 1_655 S
O53 Cd43 2.240 . S
O53 C51 1.279 . S
O54 Cd44 2.297 . S
O54 C49 1.247 . S
O55 Cd44 2.439 . S
O55 C49 1.208 . S
O56 Cd57 2.223 1_545 S
O56 C64 1.315 . S
Cd57 O56 2.223 1_565 S
Cd57 O60 2.297 . S
Cd57 O61 2.439 . S
Cd57 O67 2.240 . S
Cd58 O59 2.240 . S
Cd58 O66 2.223 1_545 S
Cd58 O68 2.297 . S
Cd58 O69 2.439 1_545 S
O59 Cd58 2.240 . S
O59 C64 1.279 . S
O60 Cd57 2.297 . S
O60 C62 1.247 . S
O61 Cd57 2.439 . S
O61 C62 1.208 . S
C62 O60 1.247 . S
C62 O61 1.208 . S
C63 O68 1.236 1_565 S
C63 O69 1.210 . S
C64 O56 1.315 . S
C64 O59 1.279 . S
C65 O66 1.315 . S
C65 O67 1.279 . S
O66 Cd58 2.223 1_565 S
O66 C65 1.315 . S
O67 Cd57 2.240 . S
O67 C65 1.279 . S
O68 Cd58 2.297 . S
O68 C63 1.236 1_545 S
O69 Cd58 2.439 1_565 S
O69 C63 1.210 . S
O70 Cd71 2.223 . S
O70 C78 1.315 . S
Cd71 O70 2.223 . S
Cd71 O74 2.297 . S
Cd71 O75 2.439 . S
Cd71 O81 2.240 . S
Cd72 O73 2.240 . S
Cd72 O80 2.223 . S
Cd72 O82 2.297 . S
Cd72 O83 2.439 . S
O73 Cd72 2.240 . S
O73 C78 1.279 . S
O74 Cd71 2.297 . S
O74 C76 1.247 . S
O75 Cd71 2.439 . S
O75 C76 1.208 . S
C76 O74 1.247 . S
C76 O75 1.208 . S
C77 O82 1.247 . S
C77 O83 1.208 . S
C78 O70 1.315 . S
C78 O73 1.279 . S
C79 O80 1.315 . S
C79 O81 1.279 . S
O80 Cd72 2.223 . S
O80 C79 1.315 . S
O81 Cd71 2.240 . S
O81 C79 1.279 . S
O82 Cd72 2.297 . S
O82 C77 1.247 . S
O83 Cd72 2.439 . S
O83 C77 1.208 . S
O84 Cd85 2.223 1_565 S
O84 C92 1.315 . S
Cd85 O84 2.223 1_545 S
Cd85 O88 2.297 . S
Cd85 O89 2.439 . S
Cd85 O95 2.240 . S
Cd86 O87 2.240 . S
Cd86 O94 2.234 . S
Cd86 O96 2.297 . S
Cd86 O97 2.426 1_565 S
O87 Cd86 2.240 . S
O87 C92 1.279 . S
O88 Cd85 2.297 . S
O88 C90 1.247 . S
O89 Cd85 2.439 . S
O89 C90 1.208 . S
C90 O88 1.247 . S
C90 O89 1.208 . S
C91 O96 1.247 . S
C91 O97 1.207 1_565 S
C92 O84 1.315 . S
C92 O87 1.279 . S
C93 O94 1.297 1_545 S
C93 O95 1.279 . S
O94 Cd86 2.234 . S
O94 C93 1.297 1_565 S
O95 Cd85 2.240 . S
O95 C93 1.279 . S
O96 Cd86 2.297 . S
O96 C91 1.247 . S
O97 Cd86 2.426 1_545 S
O97 C91 1.207 1_545 S
O98 Cd99 2.223 . S
O98 C106 1.315 . S
Cd99 O98 2.223 . S
Cd99 O102 2.297 . S
Cd99 O103 2.439 . S
Cd99 O109 2.240 . S
Cd100 O101 2.240 . S
Cd100 O108 2.223 . S
Cd100 O110 2.297 . S
Cd100 O111 2.439 . S
O101 Cd100 2.240 . S
O101 C106 1.279 . S
O102 Cd99 2.297 . S
O102 C104 1.247 . S
O103 Cd99 2.439 . S
O103 C104 1.208 . S
C104 O102 1.247 . S
C104 O103 1.208 . S
C105 O110 1.247 . S
C105 O111 1.208 . S
C106 O98 1.315 . S
C106 O101 1.279 . S
C107 O108 1.315 . S
C107 O109 1.279 . S
O108 Cd100 2.223 . S
O108 C107 1.315 . S
O109 Cd99 2.240 . S
O109 C107 1.279 . S
O110 Cd100 2.297 . S
O110 C105 1.247 . S
O111 Cd100 2.439 . S
O111 C105 1.208 . S
O112 Cd113 2.223 1_554 S
O112 C120 1.315 . S
Cd113 O112 2.223 1_556 S
Cd113 O116 2.297 . S
Cd113 O117 2.439 . S
Cd113 O123 2.240 . S
Cd114 O115 2.240 . S
Cd114 O122 2.223 1_554 S
Cd114 O124 2.297 . S
Cd114 O125 2.439 1_554 S
O115 Cd114 2.240 . S
O115 C120 1.279 . S
O116 Cd113 2.297 . S
O116 C118 1.247 . S
O117 Cd113 2.439 . S
O117 C118 1.208 . S
C118 O116 1.247 . S
C118 O117 1.208 . S
C119 O124 1.236 1_556 S
C119 O125 1.210 . S
C120 O112 1.315 . S
C120 O115 1.279 . S
C121 O122 1.315 . S
C121 O123 1.279 . S
O122 Cd114 2.223 1_556 S
O122 C121 1.315 . S
O123 Cd113 2.240 . S
O123 C121 1.279 . S
O124 Cd114 2.297 . S
O124 C119 1.236 1_554 S
O125 Cd114 2.439 1_556 S
O125 C119 1.210 . S
O126 Cd127 2.223 . S
O126 C134 1.315 . S
Cd127 O126 2.223 . S
Cd127 O130 2.297 . S
Cd127 O131 2.439 . S
Cd127 O137 2.240 . S
Cd128 O129 2.240 . S
Cd128 O136 2.223 . S
Cd128 O138 2.297 . S
Cd128 O139 2.439 . S
O129 Cd128 2.240 . S
O129 C134 1.279 . S
O130 Cd127 2.297 . S
O130 C132 1.247 . S
O131 Cd127 2.439 . S
O131 C132 1.208 . S
C132 O130 1.247 . S
C132 O131 1.208 . S
C133 O138 1.247 . S
C133 O139 1.208 . S
C134 O126 1.315 . S
C134 O129 1.279 . S
C135 O136 1.315 . S
C135 O137 1.279 . S
O136 Cd128 2.223 . S
O136 C135 1.315 . S
O137 Cd127 2.240 . S
O137 C135 1.279 . S
O138 Cd128 2.297 . S
O138 C133 1.247 . S
O139 Cd128 2.439 . S
O139 C133 1.208 . S
O140 Cd141 2.223 . S
O140 C148 1.315 . S
Cd141 O140 2.223 . S
Cd141 O144 2.297 . S
Cd141 O145 2.439 . S
Cd141 O151 2.240 . S
Cd142 O143 2.240 . S
Cd142 O150 2.223 . S
Cd142 O152 2.297 . S
Cd142 O153 2.439 . S
O143 Cd142 2.240 . S
O143 C148 1.279 . S
O144 Cd141 2.297 . S
O144 C146 1.247 . S
O145 Cd141 2.439 . S
O145 C146 1.208 . S
C146 O144 1.247 . S
C146 O145 1.208 . S
C147 O152 1.247 . S
C147 O153 1.208 . S
C148 O140 1.315 . S
C148 O143 1.279 . S
C149 O150 1.315 . S
C149 O151 1.279 . S
O150 Cd142 2.223 . S
O150 C149 1.315 . S
O151 Cd141 2.240 . S
O151 C149 1.279 . S
O152 Cd142 2.297 . S
O152 C147 1.247 . S
O153 Cd142 2.439 . S
O153 C147 1.208 . S
O154 Cd155 2.223 . S
O154 C162 1.315 . S
Cd155 O154 2.223 . S
Cd155 O158 2.297 . S
Cd155 O159 2.439 . S
Cd155 O165 2.240 . S
Cd156 O157 2.240 . S
Cd156 O164 2.223 . S
Cd156 O166 2.297 . S
Cd156 O167 2.439 . S
O157 Cd156 2.240 . S
O157 C162 1.279 . S
O158 Cd155 2.297 . S
O158 C160 1.247 . S
O159 Cd155 2.439 . S
O159 C160 1.208 . S
C160 O158 1.247 . S
C160 O159 1.208 . S
C161 O166 1.247 . S
C161 O167 1.208 . S
C162 O154 1.315 . S
C162 O157 1.279 . S
C163 O164 1.315 . S
C163 O165 1.279 . S
O164 Cd156 2.223 . S
O164 C163 1.315 . S
O165 Cd155 2.240 . S
O165 C163 1.279 . S
O166 Cd156 2.297 . S
O166 C161 1.247 . S
O167 Cd156 2.439 . S
O167 C161 1.208 . S
O168 Cd169 2.223 . S
O168 C176 1.315 . S
Cd169 O168 2.223 . S
Cd169 O172 2.297 . S
Cd169 O173 2.439 . S
Cd169 O179 2.240 . S
Cd170 O171 2.240 . S
Cd170 O178 2.223 . S
Cd170 O180 2.297 . S
Cd170 O181 2.439 . S
O171 Cd170 2.240 . S
O171 C176 1.279 . S
O172 Cd169 2.297 . S
O172 C174 1.247 . S
O173 Cd169 2.439 . S
O173 C174 1.208 . S
C174 O172 1.247 . S
C174 O173 1.208 . S
C175 O180 1.247 . S
C175 O181 1.208 . S
C176 O168 1.315 . S
C176 O171 1.279 . S
C177 O178 1.315 . S
C177 O179 1.279 . S
O178 Cd170 2.223 . S
O178 C177 1.315 . S
O179 Cd169 2.240 . S
O179 C177 1.279 . S
O180 Cd170 2.297 . S
O180 C175 1.247 . S
O181 Cd170 2.439 . S
O181 C175 1.208 . S
O182 Cd183 2.223 . S
O182 C190 1.315 . S
Cd183 O182 2.223 . S
Cd183 O186 2.297 . S
Cd183 O187 2.439 . S
Cd183 O193 2.240 . S
Cd184 O185 2.240 . S
Cd184 O192 2.223 . S
Cd184 O194 2.297 . S
Cd184 O195 2.439 . S
O185 Cd184 2.240 . S
O185 C190 1.279 . S
O186 Cd183 2.297 . S
O186 C188 1.247 . S
O187 Cd183 2.439 . S
O187 C188 1.208 . S
C188 O186 1.247 . S
C188 O187 1.208 . S
C189 O194 1.247 . S
C189 O195 1.208 . S
C190 O182 1.315 . S
C190 O185 1.279 . S
C191 O192 1.315 . S
C191 O193 1.279 . S
O192 Cd184 2.223 . S
O192 C191 1.315 . S
O193 Cd183 2.240 . S
O193 C191 1.279 . S
O194 Cd184 2.297 . S
O194 C189 1.247 . S
O195 Cd184 2.439 . S
O195 C189 1.208 . S
O196 Cd197 2.223 . S
O196 C204 1.315 . S
Cd197 O196 2.223 . S
Cd197 O200 2.297 . S
Cd197 O201 2.439 . S
Cd197 O207 2.240 . S
Cd198 O199 2.240 . S
Cd198 O206 2.223 . S
Cd198 O208 2.297 . S
Cd198 O209 2.439 . S
O199 Cd198 2.240 . S
O199 C204 1.279 . S
O200 Cd197 2.297 . S
O200 C202 1.247 . S
O201 Cd197 2.439 . S
O201 C202 1.208 . S
C202 O200 1.247 . S
C202 O201 1.208 . S
C203 O208 1.247 . S
C203 O209 1.208 . S
C204 O196 1.315 . S
C204 O199 1.279 . S
C205 O206 1.315 . S
C205 O207 1.279 . S
O206 Cd198 2.223 . S
O206 C205 1.315 . S
O207 Cd197 2.240 . S
O207 C205 1.279 . S
O208 Cd198 2.297 . S
O208 C203 1.247 . S
O209 Cd198 2.439 . S
O209 C203 1.208 . S
O210 Cd211 2.223 . S
O210 C218 1.315 . S
Cd211 O210 2.223 . S
Cd211 O214 2.297 . S
Cd211 O215 2.439 . S
Cd211 O221 2.240 . S
Cd212 O213 2.240 . S
Cd212 O220 2.223 . S
Cd212 O222 2.297 . S
Cd212 O223 2.439 . S
O213 Cd212 2.240 . S
O213 C218 1.279 . S
O214 Cd211 2.297 . S
O214 C216 1.247 . S
O215 Cd211 2.439 . S
O215 C216 1.208 . S
C216 O214 1.247 . S
C216 O215 1.208 . S
C217 O222 1.247 . S
C217 O223 1.208 . S
C218 O210 1.315 . S
C218 O213 1.279 . S
C219 O220 1.315 . S
C219 O221 1.279 . S
O220 Cd212 2.223 . S
O220 C219 1.315 . S
O221 Cd211 2.240 . S
O221 C219 1.279 . S
O222 Cd212 2.297 . S
O222 C217 1.247 . S
O223 Cd212 2.439 . S
O223 C217 1.208 . S
O224 Cd225 2.223 . S
O224 C232 1.315 . S
Cd225 O224 2.223 . S
Cd225 O228 2.297 . S
Cd225 O229 2.439 . S
Cd225 O235 2.240 . S
Cd226 O227 2.240 . S
Cd226 O234 2.223 . S
Cd226 O236 2.297 . S
Cd226 O237 2.439 . S
O227 Cd226 2.240 . S
O227 C232 1.279 . S
O228 Cd225 2.297 . S
O228 C230 1.247 . S
O229 Cd225 2.439 . S
O229 C230 1.208 . S
C230 O228 1.247 . S
C230 O229 1.208 . S
C231 O236 1.247 . S
C231 O237 1.208 . S
C232 O224 1.315 . S
C232 O227 1.279 . S
C233 O234 1.315 . S
C233 O235 1.279 . S
O234 Cd226 2.223 . S
O234 C233 1.315 . S
O235 Cd225 2.240 . S
O235 C233 1.279 . S
O236 Cd226 2.297 . S
O236 C231 1.247 . S
O237 Cd226 2.439 . S
O237 C231 1.208 . S
O238 Cd239 2.223 1_565 S
O238 C246 1.315 . S
Cd239 O238 2.223 1_545 S
Cd239 O242 2.297 . S
Cd239 O243 2.439 . S
Cd239 O249 2.240 . S
Cd240 O241 2.240 . S
Cd240 O248 2.239 . S
Cd240 O250 2.297 . S
Cd240 O251 2.439 . S
O241 Cd240 2.240 . S
O241 C246 1.279 . S
O242 Cd239 2.297 . S
O242 C244 1.247 . S
O243 Cd239 2.439 . S
O243 C244 1.208 . S
C244 O242 1.247 . S
C244 O243 1.208 . S
C245 O250 1.247 . S
C245 O251 1.208 . S
C246 O238 1.315 . S
C246 O241 1.279 . S
C247 O248 1.290 1_545 S
C247 O249 1.279 . S
O248 Cd240 2.239 . S
O248 C247 1.290 1_565 S
O249 Cd239 2.240 . S
O249 C247 1.279 . S
O250 Cd240 2.297 . S
O250 C245 1.247 . S
O251 Cd240 2.439 . S
O251 C245 1.208 . S
O252 Cd253 2.223 . S
O252 C260 1.315 . S
Cd253 O252 2.223 . S
Cd253 O256 2.297 . S
Cd253 O257 2.439 . S
Cd253 O263 2.240 . S
Cd254 O255 2.240 . S
Cd254 O262 2.223 . S
Cd254 O264 2.297 . S
Cd254 O265 2.439 . S
O255 Cd254 2.240 . S
O255 C260 1.279 . S
O256 Cd253 2.297 . S
O256 C258 1.247 . S
O257 Cd253 2.439 . S
O257 C258 1.208 . S
C258 O256 1.247 . S
C258 O257 1.208 . S
C259 O264 1.247 . S
C259 O265 1.208 . S
C260 O252 1.315 . S
C260 O255 1.279 . S
C261 O262 1.315 . S
C261 O263 1.279 . S
O262 Cd254 2.223 . S
O262 C261 1.315 . S
O263 Cd253 2.240 . S
O263 C261 1.279 . S
O264 Cd254 2.297 . S
O264 C259 1.247 . S
O265 Cd254 2.439 . S
O265 C259 1.208 . S
O266 Cd267 2.223 1_545 S
O266 C274 1.315 . S
Cd267 O266 2.223 1_565 S
Cd267 O270 2.297 . S
Cd267 O271 2.439 . S
Cd267 O277 2.240 . S
Cd268 O269 2.240 . S
Cd268 O276 2.205 1_545 S
Cd268 O278 2.297 . S
Cd268 O279 2.445 . S
O269 Cd268 2.240 . S
O269 C274 1.279 . S
O270 Cd267 2.297 . S
O270 C272 1.247 . S
O271 Cd267 2.439 . S
O271 C272 1.208 . S
C272 O270 1.247 . S
C272 O271 1.208 . S
C273 O278 1.247 . S
C273 O279 1.209 . S
C274 O266 1.315 . S
C274 O269 1.279 . S
C275 O276 1.342 . S
C275 O277 1.279 . S
O276 Cd268 2.205 1_565 S
O276 C275 1.342 . S
O277 Cd267 2.240 . S
O277 C275 1.279 . S
O278 Cd268 2.297 . S
O278 C273 1.247 . S
O279 Cd268 2.445 . S
O279 C273 1.209 . S
O280 Cd281 2.223 . S
O280 C288 1.315 . S
Cd281 O280 2.223 . S
Cd281 O284 2.297 . S
Cd281 O285 2.439 . S
Cd281 O291 2.240 . S
Cd282 O283 2.240 . S
Cd282 O290 2.223 . S
Cd282 O292 2.297 . S
Cd282 O293 2.439 . S
O283 Cd282 2.240 . S
O283 C288 1.279 . S
O284 Cd281 2.297 . S
O284 C286 1.247 . S
O285 Cd281 2.439 . S
O285 C286 1.208 . S
C286 O284 1.247 . S
C286 O285 1.208 . S
C287 O292 1.247 . S
C287 O293 1.208 . S
C288 O280 1.315 . S
C288 O283 1.279 . S
C289 O290 1.315 . S
C289 O291 1.279 . S
O290 Cd282 2.223 . S
O290 C289 1.315 . S
O291 Cd281 2.240 . S
O291 C289 1.279 . S
O292 Cd282 2.297 . S
O292 C287 1.247 . S
O293 Cd282 2.439 . S
O293 C287 1.208 . S
O294 Cd295 2.223 1_556 S
O294 C302 1.315 . S
Cd295 O294 2.223 1_554 S
Cd295 O298 2.297 . S
Cd295 O299 2.439 . S
Cd295 O305 2.240 . S
Cd296 O297 2.240 . S
Cd296 O304 2.239 . S
Cd296 O306 2.297 . S
Cd296 O307 2.439 . S
O297 Cd296 2.240 . S
O297 C302 1.279 . S
O298 Cd295 2.297 . S
O298 C300 1.247 . S
O299 Cd295 2.439 . S
O299 C300 1.208 . S
C300 O298 1.247 . S
C300 O299 1.208 . S
C301 O306 1.247 . S
C301 O307 1.208 . S
C302 O294 1.315 . S
C302 O297 1.279 . S
C303 O304 1.290 1_554 S
C303 O305 1.279 . S
O304 Cd296 2.239 . S
O304 C303 1.290 1_556 S
O305 Cd295 2.240 . S
O305 C303 1.279 . S
O306 Cd296 2.297 . S
O306 C301 1.247 . S
O307 Cd296 2.439 . S
O307 C301 1.208 . S
O308 Cd309 2.223 1_556 S
O308 C316 1.315 . S
Cd309 O308 2.223 1_554 S
Cd309 O312 2.297 . S
Cd309 O313 2.439 . S
Cd309 O319 2.240 . S
Cd310 O311 2.240 . S
Cd310 O318 2.234 . S
Cd310 O320 2.297 . S
Cd310 O321 2.426 1_556 S
O311 Cd310 2.240 . S
O311 C316 1.279 . S
O312 Cd309 2.297 . S
O312 C314 1.247 . S
O313 Cd309 2.439 . S
O313 C314 1.208 . S
C314 O312 1.247 . S
C314 O313 1.208 . S
C315 O320 1.247 . S
C315 O321 1.207 1_556 S
C316 O308 1.315 . S
C316 O311 1.279 . S
C317 O318 1.297 1_554 S
C317 O319 1.279 . S
O318 Cd310 2.234 . S
O318 C317 1.297 1_556 S
O319 Cd309 2.240 . S
O319 C317 1.279 . S
O320 Cd310 2.297 . S
O320 C315 1.247 . S
O321 Cd310 2.426 1_554 S
O321 C315 1.207 1_554 S
O322 Cd323 2.223 1_554 S
O322 C330 1.315 . S
Cd323 O322 2.223 1_556 S
Cd323 O326 2.297 . S
Cd323 O327 2.439 . S
Cd323 O333 2.240 . S
Cd324 O325 2.240 . S
Cd324 O332 2.205 1_554 S
Cd324 O334 2.297 . S
Cd324 O335 2.445 . S
O325 Cd324 2.240 . S
O325 C330 1.279 . S
O326 Cd323 2.297 . S
O326 C328 1.247 . S
O327 Cd323 2.439 . S
O327 C328 1.208 . S
C328 O326 1.247 . S
C328 O327 1.208 . S
C329 O334 1.247 . S
C329 O335 1.209 . S
C330 O322 1.315 . S
C330 O325 1.279 . S
C331 O332 1.342 . S
C331 O333 1.279 . S
O332 Cd324 2.205 1_556 S
O332 C331 1.342 . S
O333 Cd323 2.240 . S
O333 C331 1.279 . S
O334 Cd324 2.297 . S
O334 C329 1.247 . S
O335 Cd324 2.445 . S
O335 C329 1.209 . S
C336 C337 1.369 . S
C336 C338 1.419 . S
C336 H340 0.930 . S
C337 C336 1.369 . S
C337 C346 1.429 . S
C338 C336 1.419 . S
C338 C339 1.363 . S
C338 H341 0.929 . S
C339 C338 1.363 . S
C339 C345 1.428 . S
H340 C336 0.930 . S
H341 C338 0.929 . S
S342 N343 1.613 . S
S342 N344 1.610 . S
N343 S342 1.613 . S
N343 C346 1.350 . S
N344 S342 1.610 . S
N344 C345 1.351 . S
C345 C339 1.428 . S
C345 N344 1.351 . S
C345 C346 1.434 . S
C346 C337 1.429 . S
C346 N343 1.350 . S
C346 C345 1.434 . S
C347 C348 1.369 . S
C347 C349 1.419 . S
C347 H351 0.930 . S
C348 C347 1.369 . S
C348 C357 1.429 . S
C349 C347 1.419 . S
C349 C350 1.363 . S
C349 H352 0.929 . S
C350 C349 1.363 . S
C350 C356 1.428 . S
H351 C347 0.930 . S
H352 C349 0.929 . S
S353 N354 1.613 . S
S353 N355 1.610 . S
N354 S353 1.613 . S
N354 C357 1.350 . S
N355 S353 1.610 . S
N355 C356 1.351 . S
C356 C350 1.428 . S
C356 N355 1.351 . S
C356 C357 1.434 . S
C357 C348 1.429 . S
C357 N354 1.350 . S
C357 C356 1.434 . S
C358 C359 1.369 . S
C358 C360 1.419 . S
C358 H362 0.930 . S
C359 C358 1.369 . S
C359 C368 1.429 . S
C360 C358 1.419 . S
C360 C361 1.363 1_554 S
C360 H363 0.929 . S
C361 C360 1.363 1_556 S
C361 C367 1.428 . S
H362 C358 0.930 . S
H363 C360 0.929 . S
S364 N365 1.613 1_656 S
S364 N366 1.610 1_655 S
N365 S364 1.613 1_454 S
N365 C368 1.350 . S
N366 S364 1.610 1_455 S
N366 C367 1.351 . S
C367 C361 1.428 . S
C367 N366 1.351 . S
C367 C368 1.434 1_556 S
C368 C359 1.429 . S
C368 N365 1.350 . S
C368 C367 1.434 1_554 S
C369 C370 1.369 . S
C369 C371 1.419 1_554 S
C369 H373 0.930 . S
C370 C369 1.369 . S
C370 C379 1.429 . S
C371 C369 1.419 1_556 S
C371 C372 1.363 . S
C371 H374 0.929 . S
C372 C371 1.363 . S
C372 C378 1.428 1_556 S
H373 C369 0.930 . S
H374 C371 0.929 . S
S375 N376 1.613 . S
S375 N377 1.610 . S
N376 S375 1.613 . S
N376 C379 1.350 . S
N377 S375 1.610 . S
N377 C378 1.351 . S
C378 C372 1.428 1_554 S
C378 N377 1.351 . S
C378 C379 1.434 . S
C379 C370 1.429 . S
C379 N376 1.350 . S
C379 C378 1.434 . S
C380 C381 1.369 . S
C380 C382 1.419 . S
C380 H384 0.930 . S
C381 C380 1.369 . S
C381 C390 1.429 . S
C382 C380 1.419 . S
C382 C383 1.363 . S
C382 H385 0.929 . S
C383 C382 1.363 . S
C383 C389 1.428 . S
H384 C380 0.930 . S
H385 C382 0.929 . S
S386 N387 1.613 1_556 S
S386 N388 1.610 . S
N387 S386 1.613 1_554 S
N387 C390 1.350 . S
N388 S386 1.610 . S
N388 C389 1.351 1_556 S
C389 C383 1.428 . S
C389 N388 1.351 1_554 S
C389 C390 1.434 . S
C390 C381 1.429 . S
C390 N387 1.350 . S
C390 C389 1.434 . S
C391 C392 1.369 . S
C391 C393 1.419 . S
C391 H395 0.930 . S
C392 C391 1.369 . S
C392 C401 1.429 . S
C393 C391 1.419 . S
C393 C394 1.363 . S
C393 H396 0.929 . S
C394 C393 1.363 . S
C394 C400 1.428 . S
H395 C391 0.930 . S
H396 C393 0.929 . S
S397 N398 1.613 1_556 S
S397 N399 1.610 . S
N398 S397 1.613 1_554 S
N398 C401 1.350 . S
N399 S397 1.610 . S
N399 C400 1.351 1_556 S
C400 C394 1.428 . S
C400 N399 1.351 1_554 S
C400 C401 1.434 . S
C401 C392 1.429 . S
C401 N398 1.350 . S
C401 C400 1.434 . S
C402 C403 1.369 . S
C402 C404 1.419 . S
C402 H406 0.930 . S
C403 C402 1.369 . S
C403 C412 1.429 . S
C404 C402 1.419 . S
C404 C405 1.363 . S
C404 H407 0.929 . S
C405 C404 1.363 . S
C405 C411 1.428 . S
H406 C402 0.930 . S
H407 C404 0.929 . S
S408 N409 1.613 . S
S408 N410 1.610 . S
N409 S408 1.613 . S
N409 C412 1.350 . S
N410 S408 1.610 . S
N410 C411 1.351 . S
C411 C405 1.428 . S
C411 N410 1.351 . S
C411 C412 1.434 . S
C412 C403 1.429 . S
C412 N409 1.350 . S
C412 C411 1.434 . S
C413 C414 1.369 . S
C413 C415 1.419 . S
C413 H417 0.930 . S
C414 C413 1.369 . S
C414 C423 1.429 . S
C415 C413 1.419 . S
C415 C416 1.363 . S
C415 H418 0.929 . S
C416 C415 1.363 . S
C416 C422 1.428 . S
H417 C413 0.930 . S
H418 C415 0.929 . S
S419 N420 1.613 . S
S419 N421 1.610 . S
N420 S419 1.613 . S
N420 C423 1.350 . S
N421 S419 1.610 . S
N421 C422 1.351 . S
C422 C416 1.428 . S
C422 N421 1.351 . S
C422 C423 1.434 . S
C423 C414 1.429 . S
C423 N420 1.350 . S
C423 C422 1.434 . S
C424 C425 1.369 . S
C424 C426 1.419 . S
C424 H428 0.930 . S
C425 C424 1.369 . S
C425 C434 1.429 . S
C426 C424 1.419 . S
C426 C427 1.363 . S
C426 H429 0.929 . S
C427 C426 1.363 . S
C427 C433 1.428 . S
H428 C424 0.930 . S
H429 C426 0.929 . S
S430 N431 1.613 1_655 S
S430 N432 1.610 . S
N431 S430 1.613 1_455 S
N431 C434 1.350 . S
N432 S430 1.610 . S
N432 C433 1.351 1_655 S
C433 C427 1.428 . S
C433 N432 1.351 1_455 S
C433 C434 1.434 . S
C434 C425 1.429 . S
C434 N431 1.350 . S
C434 C433 1.434 . S
C435 C436 1.369 . S
C435 C437 1.419 . S
C435 H439 0.930 . S
C436 C435 1.369 . S
C436 C445 1.429 . S
C437 C435 1.419 . S
C437 C438 1.363 . S
C437 H440 0.929 . S
C438 C437 1.363 . S
C438 C444 1.428 . S
H439 C435 0.930 . S
H440 C437 0.929 . S
S441 N442 1.613 . S
S441 N443 1.610 . S
N442 S441 1.613 . S
N442 C445 1.350 . S
N443 S441 1.610 . S
N443 C444 1.351 . S
C444 C438 1.428 . S
C444 N443 1.351 . S
C444 C445 1.434 . S
C445 C436 1.429 . S
C445 N442 1.350 . S
C445 C444 1.434 . S
C446 C447 1.369 . S
C446 C448 1.419 1_565 S
C446 H450 0.930 . S
C447 C446 1.369 . S
C447 C456 1.429 . S
C448 C446 1.419 1_545 S
C448 C449 1.363 . S
C448 H451 0.929 . S
C449 C448 1.363 . S
C449 C455 1.428 1_545 S
H450 C446 0.930 . S
H451 C448 0.929 . S
S452 N453 1.613 . S
S452 N454 1.610 . S
N453 S452 1.613 . S
N453 C456 1.350 . S
N454 S452 1.610 . S
N454 C455 1.351 . S
C455 C449 1.428 1_565 S
C455 N454 1.351 . S
C455 C456 1.434 . S
C456 C447 1.429 . S
C456 N453 1.350 . S
C456 C455 1.434 . S
C457 C458 1.369 . S
C457 C459 1.419 . S
C457 H461 0.930 . S
C458 C457 1.369 . S
C458 C467 1.429 . S
C459 C457 1.419 . S
C459 C460 1.363 . S
C459 H462 0.929 . S
C460 C459 1.363 . S
C460 C466 1.428 . S
H461 C457 0.930 . S
H462 C459 0.929 . S
S463 N464 1.613 . S
S463 N465 1.610 . S
N464 S463 1.613 . S
N464 C467 1.350 . S
N465 S463 1.610 . S
N465 C466 1.351 . S
C466 C460 1.428 . S
C466 N465 1.351 . S
C466 C467 1.434 . S
C467 C458 1.429 . S
C467 N464 1.350 . S
C467 C466 1.434 . S
C468 C469 1.369 1_556 S
C468 C470 1.419 . S
C468 H472 0.930 . S
C469 C468 1.369 1_554 S
C469 C478 1.429 . S
C470 C468 1.419 . S
C470 C471 1.363 . S
C470 H473 0.929 . S
C471 C470 1.363 . S
C471 C477 1.428 . S
H472 C468 0.930 . S
H473 C470 0.929 . S
S474 N475 1.613 . S
S474 N476 1.610 1_554 S
N475 S474 1.613 . S
N475 C478 1.350 . S
N476 S474 1.610 1_556 S
N476 C477 1.351 . S
C477 C471 1.428 . S
C477 N476 1.351 . S
C477 C478 1.434 1_556 S
C478 C469 1.429 . S
C478 N475 1.350 . S
C478 C477 1.434 1_554 S
C479 C480 1.369 1_556 S
C479 C481 1.419 . S
C479 H483 0.930 . S
C480 C479 1.369 1_554 S
C480 C489 1.429 . S
C481 C479 1.419 . S
C481 C482 1.363 . S
C481 H484 0.929 . S
C482 C481 1.363 . S
C482 C488 1.428 . S
H483 C479 0.930 . S
H484 C481 0.929 . S
S485 N486 1.613 . S
S485 N487 1.610 1_554 S
N486 S485 1.613 . S
N486 C489 1.350 . S
N487 S485 1.610 1_556 S
N487 C488 1.351 . S
C488 C482 1.428 . S
C488 N487 1.351 . S
C488 C489 1.434 1_556 S
C489 C480 1.429 . S
C489 N486 1.350 . S
C489 C488 1.434 1_554 S
C490 C491 1.369 . S
C490 C492 1.419 . S
C490 H494 0.930 . S
C491 C490 1.369 . S
C491 C500 1.429 . S
C492 C490 1.419 . S
C492 C493 1.363 . S
C492 H495 0.929 . S
C493 C492 1.363 . S
C493 C499 1.428 . S
H494 C490 0.930 . S
H495 C492 0.929 . S
S496 N497 1.613 . S
S496 N498 1.610 . S
N497 S496 1.613 . S
N497 C500 1.350 . S
N498 S496 1.610 . S
N498 C499 1.351 . S
C499 C493 1.428 . S
C499 N498 1.351 . S
C499 C500 1.434 . S
C500 C491 1.429 . S
C500 N497 1.350 . S
C500 C499 1.434 . S
C501 C502 1.369 . S
C501 C503 1.419 . S
C501 H505 0.930 . S
C502 C501 1.369 . S
C502 C511 1.429 . S
C503 C501 1.419 . S
C503 C504 1.363 . S
C503 H506 0.929 . S
C504 C503 1.363 . S
C504 C510 1.428 . S
H505 C501 0.930 . S
H506 C503 0.929 . S
S507 N508 1.613 . S
S507 N509 1.610 . S
N508 S507 1.613 . S
N508 C511 1.350 . S
N509 S507 1.610 . S
N509 C510 1.351 . S
C510 C504 1.428 . S
C510 N509 1.351 . S
C510 C511 1.434 . S
C511 C502 1.429 . S
C511 N508 1.350 . S
C511 C510 1.434 . S
C512 C513 1.369 1_655 S
C512 C514 1.419 . S
C512 H516 0.930 . S
C513 C512 1.369 1_455 S
C513 C522 1.429 . S
C514 C512 1.419 . S
C514 C515 1.363 . S
C514 H517 0.929 . S
C515 C514 1.363 . S
C515 C521 1.428 . S
H516 C512 0.930 . S
H517 C514 0.929 . S
S518 N519 1.613 . S
S518 N520 1.610 1_455 S
N519 S518 1.613 . S
N519 C522 1.350 . S
N520 S518 1.610 1_655 S
N520 C521 1.351 . S
C521 C515 1.428 . S
C521 N520 1.351 . S
C521 C522 1.434 1_655 S
C522 C513 1.429 . S
C522 N519 1.350 . S
C522 C521 1.434 1_455 S
C523 C524 1.369 . S
C523 C525 1.419 1_655 S
C523 H527 0.930 . S
C524 C523 1.369 . S
C524 C533 1.429 1_655 S
C525 C523 1.419 1_455 S
C525 C526 1.363 . S
C525 H528 0.929 . S
C526 C525 1.363 . S
C526 C532 1.428 . S
H527 C523 0.930 . S
H528 C525 0.929 . S
S529 N530 1.613 . S
S529 N531 1.610 . S
N530 S529 1.613 . S
N530 C533 1.350 . S
N531 S529 1.610 . S
N531 C532 1.351 . S
C532 C526 1.428 . S
C532 N531 1.351 . S
C532 C533 1.434 . S
C533 C524 1.429 1_455 S
C533 N530 1.350 . S
C533 C532 1.434 . S
C534 C535 1.369 1_655 S
C534 C536 1.419 . S
C534 H538 0.930 . S
C535 C534 1.369 1_455 S
C535 C544 1.429 . S
C536 C534 1.419 . S
C536 C537 1.363 . S
C536 H539 0.929 . S
C537 C536 1.363 . S
C537 C543 1.428 . S
H538 C534 0.930 . S
H539 C536 0.929 . S
S540 N541 1.613 . S
S540 N542 1.610 1_455 S
N541 S540 1.613 . S
N541 C544 1.350 . S
N542 S540 1.610 1_655 S
N542 C543 1.351 . S
C543 C537 1.428 . S
C543 N542 1.351 . S
C543 C544 1.434 1_655 S
C544 C535 1.429 . S
C544 N541 1.350 . S
C544 C543 1.434 1_455 S
C545 C546 1.369 . S
C545 C547 1.419 1_455 S
C545 H549 0.930 . S
C546 C545 1.369 . S
C546 C555 1.429 . S
C547 C545 1.419 1_655 S
C547 C548 1.363 . S
C547 H550 0.929 . S
C548 C547 1.363 . S
C548 C554 1.428 1_655 S
H549 C545 0.930 . S
H550 C547 0.929 . S
S551 N552 1.613 1_554 S
S551 N553 1.610 . S
N552 S551 1.613 1_556 S
N552 C555 1.350 . S
N553 S551 1.610 . S
N553 C554 1.351 1_554 S
C554 C548 1.428 1_455 S
C554 N553 1.351 1_556 S
C554 C555 1.434 . S
C555 C546 1.429 . S
C555 N552 1.350 . S
C555 C554 1.434 . S
C556 C557 1.369 . S
C556 C558 1.419 1_545 S
C556 H560 0.930 . S
C557 C556 1.369 . S
C557 C566 1.429 1_545 S
C558 C556 1.419 1_565 S
C558 C559 1.363 . S
C558 H561 0.929 . S
C559 C558 1.363 . S
C559 C565 1.428 . S
H560 C556 0.930 . S
H561 C558 0.929 . S
S562 N563 1.613 . S
S562 N564 1.610 . S
N563 S562 1.613 . S
N563 C566 1.350 . S
N564 S562 1.610 . S
N564 C565 1.351 . S
C565 C559 1.428 . S
C565 N564 1.351 . S
C565 C566 1.434 . S
C566 C557 1.429 1_565 S
C566 N563 1.350 . S
C566 C565 1.434 . S
C567 C568 1.369 . S
C567 C569 1.419 1_545 S
C567 H571 0.930 . S
C568 C567 1.369 . S
C568 C577 1.429 . S
C569 C567 1.419 1_565 S
C569 C570 1.363 . S
C569 H572 0.929 . S
C570 C569 1.363 . S
C570 C576 1.428 1_565 S
H571 C567 0.930 . S
H572 C569 0.929 . S
S573 N574 1.613 . S
S573 N575 1.610 1_545 S
N574 S573 1.613 . S
N574 C577 1.350 . S
N575 S573 1.610 1_565 S
N575 C576 1.351 1_565 S
C576 C570 1.428 1_545 S
C576 N575 1.351 1_545 S
C576 C577 1.434 . S
C577 C568 1.429 . S
C577 N574 1.350 . S
C577 C576 1.434 . S
C578 C579 1.369 . S
C578 C580 1.419 . S
C578 H582 0.930 . S
C579 C578 1.369 . S
C579 C588 1.429 . S
C580 C578 1.419 . S
C580 C581 1.363 . S
C580 H583 0.929 . S
C581 C580 1.363 . S
C581 C587 1.428 . S
H582 C578 0.930 . S
H583 C580 0.929 . S
S584 N585 1.613 . S
S584 N586 1.610 . S
N585 S584 1.613 . S
N585 C588 1.350 . S
N586 S584 1.610 . S
N586 C587 1.351 . S
C587 C581 1.428 . S
C587 N586 1.351 . S
C587 C588 1.434 . S
C588 C579 1.429 . S
C588 N585 1.350 . S
C588 C587 1.434 . S
C589 C590 1.369 . S
C589 C591 1.419 1_545 S
C589 H593 0.930 . S
C590 C589 1.369 . S
C590 C599 1.429 . S
C591 C589 1.419 1_565 S
C591 C592 1.363 . S
C591 H594 0.929 . S
C592 C591 1.363 . S
C592 C598 1.428 1_565 S
H593 C589 0.930 . S
H594 C591 0.929 . S
S595 N596 1.613 1_455 S
S595 N597 1.611 . S
N596 S595 1.613 1_655 S
N596 C599 1.350 . S
N597 S595 1.611 . S
N597 C598 1.348 1_455 S
C598 C592 1.428 1_545 S
C598 N597 1.348 1_655 S
C598 C599 1.434 . S
C599 C590 1.429 . S
C599 N596 1.350 . S
C599 C598 1.434 . S
C600 C601 1.371 . S
C600 C602 1.419 . S
C600 H604 0.930 . S
C601 C600 1.371 . S
C601 C610 1.426 1_655 S
C602 C600 1.419 . S
C602 C603 1.363 1_655 S
C602 H605 0.929 . S
C603 C602 1.363 1_455 S
C603 C609 1.428 . S
H604 C600 0.930 . S
H605 C602 0.929 . S
S606 N607 1.613 . S
S606 N608 1.610 . S
N607 S606 1.613 . S
N607 C610 1.350 . S
N608 S606 1.610 . S
N608 C609 1.351 . S
C609 C603 1.428 . S
C609 N608 1.351 . S
C609 C610 1.434 . S
C610 C601 1.426 1_455 S
C610 N607 1.350 . S
C610 C609 1.434 . S
C611 C612 1.369 . S
C611 C613 1.419 . S
C611 H615 0.930 . S
C612 C611 1.369 . S
C612 C621 1.429 1_455 S
C613 C611 1.419 . S
C613 C614 1.363 1_455 S
C613 H616 0.929 . S
C614 C613 1.363 1_655 S
C614 C620 1.428 . S
H615 C611 0.930 . S
H616 C613 0.929 . S
S617 N618 1.613 . S
S617 N619 1.610 . S
N618 S617 1.613 . S
N618 C621 1.350 . S
N619 S617 1.610 . S
N619 C620 1.351 . S
C620 C614 1.428 . S
C620 N619 1.351 . S
C620 C621 1.434 . S
C621 C612 1.429 1_655 S
C621 N618 1.350 . S
C621 C620 1.434 . S
C622 C623 1.347 1_545 S
C622 C624 1.419 . S
C622 H626 0.930 . S
C623 C622 1.347 1_565 S
C623 C632 1.449 . S
C624 C622 1.419 . S
C624 C625 1.363 . S
C624 H627 0.929 . S
C625 C624 1.363 . S
C625 C631 1.428 1_545 S
H626 C622 0.930 . S
H627 C624 0.929 . S
S628 N629 1.613 . S
S628 N630 1.610 . S
N629 S628 1.613 . S
N629 C632 1.350 . S
N630 S628 1.610 . S
N630 C631 1.351 . S
C631 C625 1.428 1_565 S
C631 N630 1.351 . S
C631 C632 1.434 . S
C632 C623 1.449 . S
C632 N629 1.350 . S
C632 C631 1.434 . S
C633 C634 1.369 . S
C633 C635 1.419 . S
C633 H637 0.930 . S
C634 C633 1.369 . S
C634 C643 1.429 . S
C635 C633 1.419 . S
C635 C636 1.363 . S
C635 H638 0.929 . S
C636 C635 1.363 . S
C636 C642 1.428 . S
H637 C633 0.930 . S
H638 C635 0.929 . S
S639 N640 1.613 . S
S639 N641 1.610 . S
N640 S639 1.613 . S
N640 C643 1.350 . S
N641 S639 1.610 . S
N641 C642 1.351 . S
C642 C636 1.428 . S
C642 N641 1.351 . S
C642 C643 1.434 . S
C643 C634 1.429 . S
C643 N640 1.350 . S
C643 C642 1.434 . S
C644 C645 1.369 . S
C644 C646 1.419 . S
C644 H648 0.930 . S
C645 C644 1.369 . S
C645 C654 1.427 1_554 S
C646 C644 1.419 . S
C646 C647 1.361 1_554 S
C646 H649 0.929 . S
C647 C646 1.361 1_556 S
C647 C653 1.429 . S
H648 C644 0.930 . S
H649 C646 0.929 . S
S650 N651 1.613 . S
S650 N652 1.610 . S
N651 S650 1.613 . S
N651 C654 1.350 . S
N652 S650 1.610 . S
N652 C653 1.351 . S
C653 C647 1.429 . S
C653 N652 1.351 . S
C653 C654 1.435 . S
C654 C645 1.427 1_556 S
C654 N651 1.350 . S
C654 C653 1.435 . S
C655 C656 1.369 . S
C655 C657 1.419 . S
C655 H659 0.930 . S
C656 C655 1.369 . S
C656 C665 1.429 . S
C657 C655 1.419 . S
C657 C658 1.363 . S
C657 H660 0.929 . S
C658 C657 1.363 . S
C658 C664 1.428 . S
H659 C655 0.930 . S
H660 C657 0.929 . S
S661 N662 1.613 . S
S661 N663 1.610 . S
N662 S661 1.613 . S
N662 C665 1.350 . S
N663 S661 1.610 . S
N663 C664 1.351 . S
C664 C658 1.428 . S
C664 N663 1.351 . S
C664 C665 1.434 . S
C665 C656 1.429 . S
C665 N662 1.350 . S
C665 C664 1.434 . S
C666 C667 1.369 . S
C666 C668 1.419 . S
C666 H670 0.930 . S
C667 C666 1.369 . S
C667 C676 1.429 . S
C668 C666 1.419 . S
C668 C669 1.363 . S
C668 H671 0.929 . S
C669 C668 1.363 . S
C669 C675 1.428 . S
H670 C666 0.930 . S
H671 C668 0.929 . S
S672 N673 1.613 . S
S672 N674 1.610 . S
N673 S672 1.613 . S
N673 C676 1.350 . S
N674 S672 1.610 . S
N674 C675 1.351 . S
C675 C669 1.428 . S
C675 N674 1.351 . S
C675 C676 1.434 . S
C676 C667 1.429 . S
C676 N673 1.350 . S
C676 C675 1.434 . S
C677 C678 1.369 . S
C677 C679 1.419 . S
C677 H681 0.930 . S
C678 C677 1.369 . S
C678 C687 1.429 . S
C679 C677 1.419 . S
C679 C680 1.363 . S
C679 H682 0.929 . S
C680 C679 1.363 . S
C680 C686 1.428 . S
H681 C677 0.930 . S
H682 C679 0.929 . S
S683 N684 1.613 . S
S683 N685 1.610 . S
N684 S683 1.613 . S
N684 C687 1.350 . S
N685 S683 1.610 . S
N685 C686 1.351 . S
C686 C680 1.428 . S
C686 N685 1.351 . S
C686 C687 1.434 . S
C687 C678 1.429 . S
C687 N684 1.350 . S
C687 C686 1.434 . S
C688 C689 1.369 . S
C688 C690 1.419 . S
C688 H692 0.930 . S
C689 C688 1.369 . S
C689 C698 1.429 . S
C690 C688 1.419 . S
C690 C691 1.363 . S
C690 H693 0.929 . S
C691 C690 1.363 . S
C691 C697 1.428 . S
H692 C688 0.930 . S
H693 C690 0.929 . S
S694 N695 1.613 . S
S694 N696 1.610 . S
N695 S694 1.613 . S
N695 C698 1.350 . S
N696 S694 1.610 . S
N696 C697 1.351 . S
C697 C691 1.428 . S
C697 N696 1.351 . S
C697 C698 1.434 . S
C698 C689 1.429 . S
C698 N695 1.350 . S
C698 C697 1.434 . S
C699 C700 1.369 . S
C699 C701 1.419 . S
C699 H703 0.930 . S
C700 C699 1.369 . S
C700 C709 1.429 . S
C701 C699 1.419 . S
C701 C702 1.363 . S
C701 H704 0.929 . S
C702 C701 1.363 . S
C702 C708 1.428 . S
H703 C699 0.930 . S
H704 C701 0.929 . S
S705 N706 1.613 . S
S705 N707 1.610 . S
N706 S705 1.613 . S
N706 C709 1.350 . S
N707 S705 1.610 . S
N707 C708 1.351 . S
C708 C702 1.428 . S
C708 N707 1.351 . S
C708 C709 1.434 . S
C709 C700 1.429 . S
C709 N706 1.350 . S
C709 C708 1.434 . S
C710 C711 1.369 1_565 S
C710 C712 1.419 . S
C710 H714 0.930 . S
C711 C710 1.369 1_545 S
C711 C720 1.429 . S
C712 C710 1.419 . S
C712 C713 1.363 . S
C712 H715 0.929 . S
C713 C712 1.363 . S
C713 C719 1.428 1_565 S
H714 C710 0.930 . S
H715 C712 0.929 . S
S716 N717 1.613 . S
S716 N718 1.610 . S
N717 S716 1.613 . S
N717 C720 1.350 . S
N718 S716 1.610 . S
N718 C719 1.351 . S
C719 C713 1.428 1_545 S
C719 N718 1.351 . S
C719 C720 1.434 . S
C720 C711 1.429 . S
C720 N717 1.350 . S
C720 C719 1.434 . S
C721 C722 1.369 . S
C721 C723 1.419 . S
C721 H725 0.930 . S
C722 C721 1.369 . S
C722 C731 1.429 1_556 S
C723 C721 1.419 . S
C723 C724 1.363 1_556 S
C723 H726 0.929 . S
C724 C723 1.363 1_554 S
C724 C730 1.428 . S
H725 C721 0.930 . S
H726 C723 0.929 . S
S727 N728 1.613 . S
S727 N729 1.610 . S
N728 S727 1.613 . S
N728 C731 1.350 . S
N729 S727 1.610 . S
N729 C730 1.351 . S
C730 C724 1.428 . S
C730 N729 1.351 . S
C730 C731 1.434 . S
C731 C722 1.429 1_554 S
C731 N728 1.350 . S
C731 C730 1.434 . S
C732 C733 1.369 1_455 S
C732 C734 1.412 1_565 S
C732 H736 0.930 . S
C733 C732 1.369 1_655 S
C733 C742 1.429 . S
C734 C732 1.412 1_545 S
C734 C735 1.369 1_455 S
C734 H737 0.930 . S
C735 C734 1.369 1_655 S
C735 C741 1.428 . S
H736 C732 0.930 . S
H737 C734 0.930 . S
S738 N739 1.613 1_545 S
S738 N740 1.610 . S
N739 S738 1.613 1_565 S
N739 C742 1.350 . S
N740 S738 1.610 . S
N740 C741 1.351 . S
C741 C735 1.428 . S
C741 N740 1.351 . S
C741 C742 1.434 1_545 S
C742 C733 1.429 . S
C742 N739 1.350 . S
C742 C741 1.434 1_565 S
C743 C744 1.369 1_655 S
C743 C745 1.419 . S
C743 H747 0.930 . S
C744 C743 1.369 1_455 S
C744 C753 1.429 . S
C745 C743 1.419 . S
C745 C746 1.356 1_655 S
C745 H748 0.929 . S
C746 C745 1.356 1_455 S
C746 C752 1.437 . S
H747 C743 0.930 . S
H748 C745 0.929 . S
S749 N750 1.613 . S
S749 N751 1.610 . S
N750 S749 1.613 . S
N750 C753 1.350 . S
N751 S749 1.610 . S
N751 C752 1.351 . S
C752 C746 1.437 . S
C752 N751 1.351 . S
C752 C753 1.434 . S
C753 C744 1.429 . S
C753 N750 1.350 . S
C753 C752 1.434 . S
C754 C755 1.369 1_544 S
C754 C756 1.419 . S
C754 H758 0.930 . S
C755 C754 1.369 1_566 S
C755 C764 1.429 . S
C756 C754 1.419 . S
C756 C757 1.363 1_545 S
C756 H759 0.929 . S
C757 C756 1.363 1_565 S
C757 C763 1.428 1_554 S
H758 C754 0.930 . S
H759 C756 0.929 . S
S760 N761 1.613 . S
S760 N762 1.610 . S
N761 S760 1.613 . S
N761 C764 1.350 . S
N762 S760 1.610 . S
N762 C763 1.351 . S
C763 C757 1.428 1_556 S
C763 N762 1.351 . S
C763 C764 1.434 . S
C764 C755 1.429 . S
C764 N761 1.350 . S
C764 C763 1.434 . S
C765 C766 1.369 . S
C765 C767 1.419 1_554 S
C765 H769 0.930 . S
C766 C765 1.369 . S
C766 C775 1.429 . S
C767 C765 1.419 1_556 S
C767 C768 1.363 . S
C767 H770 0.929 . S
C768 C767 1.363 . S
C768 C774 1.428 . S
H769 C765 0.930 . S
H770 C767 0.929 . S
S771 N772 1.613 . S
S771 N773 1.610 1_554 S
N772 S771 1.613 . S
N772 C775 1.350 . S
N773 S771 1.610 1_556 S
N773 C774 1.351 . S
C774 C768 1.428 . S
C774 N773 1.351 . S
C774 C775 1.434 1_556 S
C775 C766 1.429 . S
C775 N772 1.350 . S
C775 C774 1.434 1_554 S
C776 C777 1.369 1_565 S
C776 C778 1.419 . S
C776 H780 0.930 . S
C777 C776 1.369 1_545 S
C777 C786 1.429 . S
C778 C776 1.419 . S
C778 C779 1.363 1_565 S
C778 H781 0.929 . S
C779 C778 1.363 1_545 S
C779 C785 1.428 . S
H780 C776 0.930 . S
H781 C778 0.929 . S
S782 N783 1.613 . S
S782 N784 1.610 . S
N783 S782 1.613 . S
N783 C786 1.350 . S
N784 S782 1.610 . S
N784 C785 1.351 . S
C785 C779 1.428 . S
C785 N784 1.351 . S
C785 C786 1.434 . S
C786 C777 1.429 . S
C786 N783 1.350 . S
C786 C785 1.434 . S
C787 C788 1.369 . S
C787 C789 1.419 . S
C787 H791 0.930 . S
C788 C787 1.369 . S
C788 C797 1.429 . S
C789 C787 1.419 . S
C789 C790 1.363 . S
C789 H792 0.929 . S
C790 C789 1.363 . S
C790 C796 1.428 . S
H791 C787 0.930 . S
H792 C789 0.929 . S
S793 N794 1.613 . S
S793 N795 1.610 . S
N794 S793 1.613 . S
N794 C797 1.350 . S
N795 S793 1.610 . S
N795 C796 1.351 . S
C796 C790 1.428 . S
C796 N795 1.351 . S
C796 C797 1.434 . S
C797 C788 1.429 . S
C797 N794 1.350 . S
C797 C796 1.434 . S
C798 C799 1.369 1_654 S
C798 C800 1.419 . S
C798 H802 0.930 . S
C799 C798 1.369 1_456 S
C799 C808 1.429 . S
C800 C798 1.419 . S
C800 C801 1.363 1_554 S
C800 H803 0.929 . S
C801 C800 1.363 1_556 S
C801 C807 1.428 . S
H802 C798 0.930 . S
H803 C800 0.929 . S
S804 N805 1.613 . S
S804 N806 1.632 . S
N805 S804 1.613 . S
N805 C808 1.350 . S
N806 S804 1.632 . S
N806 C807 1.349 1_455 S
C807 C801 1.428 . S
C807 N806 1.349 1_655 S
C807 C808 1.434 1_655 S
C808 C799 1.429 . S
C808 N805 1.350 . S
C808 C807 1.434 1_455 S
C809 C810 1.369 . S
C809 C811 1.419 1_455 S
C809 H813 0.930 . S
C810 C809 1.369 . S
C810 C819 1.429 . S
C811 C809 1.419 1_655 S
C811 C812 1.363 . S
C811 H814 0.929 . S
C812 C811 1.363 . S
C812 C818 1.428 . S
H813 C809 0.930 . S
H814 C811 0.929 . S
S815 N816 1.613 . S
S815 N817 1.610 1_455 S
N816 S815 1.613 . S
N816 C819 1.350 . S
N817 S815 1.610 1_655 S
N817 C818 1.351 . S
C818 C812 1.428 . S
C818 N817 1.351 . S
C818 C819 1.434 1_655 S
C819 C810 1.429 . S
C819 N816 1.350 . S
C819 C818 1.434 1_455 S
C820 C821 1.369 . S
C820 C822 1.419 . S
C820 H824 0.930 . S
C821 C820 1.369 . S
C821 C830 1.429 . S
C822 C820 1.419 . S
C822 C823 1.363 . S
C822 H825 0.929 . S
C823 C822 1.363 . S
C823 C829 1.428 . S
H824 C820 0.930 . S
H825 C822 0.929 . S
S826 N827 1.613 . S
S826 N828 1.610 . S
N827 S826 1.613 . S
N827 C830 1.350 . S
N828 S826 1.610 . S
N828 C829 1.351 . S
C829 C823 1.428 . S
C829 N828 1.351 . S
C829 C830 1.434 . S
C830 C821 1.429 . S
C830 N827 1.350 . S
C830 C829 1.434 . S
C831 C832 1.369 . S
C831 C833 1.419 . S
C831 H835 0.930 . S
C832 C831 1.369 . S
C832 C841 1.429 . S
C833 C831 1.419 . S
C833 C834 1.363 . S
C833 H836 0.929 . S
C834 C833 1.363 . S
C834 C840 1.428 . S
H835 C831 0.930 . S
H836 C833 0.929 . S
S837 N838 1.613 . S
S837 N839 1.610 . S
N838 S837 1.613 . S
N838 C841 1.350 . S
N839 S837 1.610 . S
N839 C840 1.351 . S
C840 C834 1.428 . S
C840 N839 1.351 . S
C840 C841 1.434 . S
C841 C832 1.429 . S
C841 N838 1.350 . S
C841 C840 1.434 . S
C842 C843 1.369 . S
C842 C844 1.436 . S
C842 H846 0.930 . S
C843 C842 1.369 . S
C843 C852 1.429 . S
C844 C842 1.436 . S
C844 C845 1.346 1_565 S
C844 H847 0.929 . S
C845 C844 1.346 1_545 S
C845 C851 1.428 . S
H846 C842 0.930 . S
H847 C844 0.929 . S
S848 N849 1.613 . S
S848 N850 1.610 . S
N849 S848 1.613 . S
N849 C852 1.350 1_545 S
N850 S848 1.610 . S
N850 C851 1.351 . S
C851 C845 1.428 . S
C851 N850 1.351 . S
C851 C852 1.434 1_545 S
C852 C843 1.429 . S
C852 N849 1.350 1_565 S
C852 C851 1.434 1_565 S
C853 C854 1.369 1_556 S
C853 C855 1.419 . S
C853 H857 0.930 . S
C854 C853 1.369 1_554 S
C854 C863 1.429 . S
C855 C853 1.419 . S
C855 C856 1.363 1_556 S
C855 H858 0.929 . S
C856 C855 1.363 1_554 S
C856 C862 1.428 . S
H857 C853 0.930 . S
H858 C855 0.929 . S
S859 N860 1.613 . S
S859 N861 1.610 . S
N860 S859 1.613 . S
N860 C863 1.350 . S
N861 S859 1.610 . S
N861 C862 1.351 . S
C862 C856 1.428 . S
C862 N861 1.351 . S
C862 C863 1.434 . S
C863 C854 1.429 . S
C863 N860 1.350 . S
C863 C862 1.434 . S
C337 C247 0.972 . S
C339 C8 0.987 . S
C348 C22 1.062 . S
C350 C233 0.969 . S
C359 C36 1.162 . S
C361 C275 1.152 . S
C370 C50 1.237 . S
C372 C261 1.123 . S
C381 C64 0.985 . S
C383 C303 0.972 . S
C392 C78 1.214 . S
C394 C317 1.190 . S
C403 C289 0.972 . S
C405 C92 1.054 . S
C414 C163 1.163 . S
C416 C106 1.242 . S
C425 C120 0.983 . S
C427 C51 0.974 . S
C436 C23 1.193 . S
C438 C134 1.213 . S
C447 C148 1.392 . S
C449 C9 1.360 . S
C458 C162 1.244 . S
C460 C205 1.155 . S
C469 C79 1.314 . S
C471 C176 1.422 . S
C480 C65 1.364 . S
C482 C190 1.391 . S
C491 C204 1.249 . S
C493 C107 1.149 . S
C502 C218 1.211 . S
C504 C93 1.194 . S
C513 C135 1.321 . S
C515 C232 1.419 . S
C524 C149 1.129 . S
C526 C246 1.232 . S
C535 C121 1.362 . S
C537 C260 1.391 . S
C546 C274 1.164 . S
C548 C331 1.147 . S
C557 C219 1.311 . S
C559 C288 1.424 . S
C568 C302 1.231 . S
C570 C191 1.134 . S
C579 C177 0.990 . S
C581 C316 1.051 . S
C590 C330 1.167 . S
C592 C37 1.146 . S
C601 C6 1.582 . S
C603 C20 1.551 . S
C612 C48 1.473 . S
C614 C34 1.499 . S
C623 C62 1.586 . S
C625 C90 1.554 . S
C634 C76 1.937 . S
C636 C104 1.903 . S
C645 C314 1.551 . S
C647 C118 1.583 . S
C656 C132 1.943 . S
C658 C160 1.905 . S
C667 C286 1.880 . S
C669 C146 1.909 . S
C678 C188 1.913 . S
C680 C174 1.877 . S
C689 C202 1.907 . S
C691 C216 1.939 . S
C700 C258 1.908 . S
C702 C230 1.879 . S
C711 C244 1.479 . S
C713 C272 1.502 . S
C722 C328 1.503 . S
C724 C300 1.476 . S
C733 C35 1.287 1_655 S
C735 C7 1.295 . S
C744 C21 1.495 1_455 S
C746 C49 1.507 1_455 S
C755 C273 1.296 1_565 S
C757 C63 1.289 . S
C766 C77 1.449 . S
C768 C259 1.456 . S
C777 C91 1.507 1_545 S
C779 C245 1.504 1_545 S
C788 C231 1.665 . S
C790 C105 1.661 . S
C799 C119 1.295 . S
C801 C329 1.291 1_556 S
C810 C133 1.448 . S
C812 C147 1.457 . S
C821 C287 1.668 . S
C823 C161 1.665 . S
C832 C175 1.663 . S
C834 C203 1.663 . S
C843 C189 1.450 . S
C845 C217 1.451 . S
C854 C315 1.507 1_554 S
C856 C301 1.504 1_554 S
