# Generated by pormake.
# Topology nfb, (4)-cn, num edge types: 1
# Building blocks:
#     Node 0, Type 0, BuildingBlock: QUQFOY_clean_sbu_3, # of connection points: 4
#     Node 1, Type 0, BuildingBlock: QUQFOY_clean_sbu_3, # of connection points: 4
#     Node 2, Type 0, BuildingBlock: QUQFOY_clean_sbu_3, # of connection points: 4
#     Node 3, Type 0, BuildingBlock: QUQFOY_clean_sbu_3, # of connection points: 4
#     Node 4, Type 0, BuildingBlock: QUQFOY_clean_sbu_3, # of connection points: 4
#     Node 5, Type 0, BuildingBlock: QUQFOY_clean_sbu_3, # of connection points: 4
#     Node 6, Type 0, BuildingBlock: QUQFOY_clean_sbu_3, # of connection points: 4
#     Node 7, Type 0, BuildingBlock: QUQFOY_clean_sbu_3, # of connection points: 4
#     Node 8, Type 0, BuildingBlock: QUQFOY_clean_sbu_3, # of connection points: 4
#     Node 9, Type 0, BuildingBlock: QUQFOY_clean_sbu_3, # of connection points: 4
#     Node 10, Type 0, BuildingBlock: QUQFOY_clean_sbu_3, # of connection points: 4
#     Node 11, Type 0, BuildingBlock: QUQFOY_clean_sbu_3, # of connection points: 4
#     Node 12, Type 0, BuildingBlock: QUQFOY_clean_sbu_3, # of connection points: 4
#     Node 13, Type 0, BuildingBlock: QUQFOY_clean_sbu_3, # of connection points: 4
#     Node 14, Type 0, BuildingBlock: QUQFOY_clean_sbu_3, # of connection points: 4
#     Node 15, Type 0, BuildingBlock: QUQFOY_clean_sbu_3, # of connection points: 4
#     Node 16, Type 0, BuildingBlock: QUQFOY_clean_sbu_3, # of connection points: 4
#     Node 17, Type 0, BuildingBlock: QUQFOY_clean_sbu_3, # of connection points: 4
#     Node 18, Type 0, BuildingBlock: QUQFOY_clean_sbu_3, # of connection points: 4
#     Node 19, Type 0, BuildingBlock: QUQFOY_clean_sbu_3, # of connection points: 4
#     Node 20, Type 0, BuildingBlock: QUQFOY_clean_sbu_3, # of connection points: 4
#     Node 21, Type 0, BuildingBlock: QUQFOY_clean_sbu_3, # of connection points: 4
#     Node 22, Type 0, BuildingBlock: QUQFOY_clean_sbu_3, # of connection points: 4
#     Node 23, Type 0, BuildingBlock: QUQFOY_clean_sbu_3, # of connection points: 4
#     Node 24, Type 0, BuildingBlock: QUQFOY_clean_sbu_3, # of connection points: 4
#     Node 25, Type 0, BuildingBlock: QUQFOY_clean_sbu_3, # of connection points: 4
#     Node 26, Type 0, BuildingBlock: QUQFOY_clean_sbu_3, # of connection points: 4
#     Node 27, Type 0, BuildingBlock: QUQFOY_clean_sbu_3, # of connection points: 4
#     Node 28, Type 0, BuildingBlock: QUQFOY_clean_sbu_3, # of connection points: 4
#     Node 29, Type 0, BuildingBlock: QUQFOY_clean_sbu_3, # of connection points: 4
#     Node 30, Type 0, BuildingBlock: QUQFOY_clean_sbu_3, # of connection points: 4
#     Node 31, Type 0, BuildingBlock: QUQFOY_clean_sbu_3, # of connection points: 4
#     Node 32, Type 0, BuildingBlock: QUQFOY_clean_sbu_3, # of connection points: 4
#     Node 33, Type 0, BuildingBlock: QUQFOY_clean_sbu_3, # of connection points: 4
#     Node 34, Type 0, BuildingBlock: QUQFOY_clean_sbu_3, # of connection points: 4
#     Node 35, Type 0, BuildingBlock: QUQFOY_clean_sbu_3, # of connection points: 4
#     Node 36, Type 0, BuildingBlock: QUQFOY_clean_sbu_3, # of connection points: 4
#     Node 37, Type 0, BuildingBlock: QUQFOY_clean_sbu_3, # of connection points: 4
#     Node 38, Type 0, BuildingBlock: QUQFOY_clean_sbu_3, # of connection points: 4
#     Node 39, Type 0, BuildingBlock: QUQFOY_clean_sbu_3, # of connection points: 4
#     Node 40, Type 0, BuildingBlock: QUQFOY_clean_sbu_3, # of connection points: 4
#     Node 41, Type 0, BuildingBlock: QUQFOY_clean_sbu_3, # of connection points: 4
#     Node 42, Type 0, BuildingBlock: QUQFOY_clean_sbu_3, # of connection points: 4
#     Node 43, Type 0, BuildingBlock: QUQFOY_clean_sbu_3, # of connection points: 4
#     Node 44, Type 0, BuildingBlock: QUQFOY_clean_sbu_3, # of connection points: 4
#     Node 45, Type 0, BuildingBlock: QUQFOY_clean_sbu_3, # of connection points: 4
#     Node 46, Type 0, BuildingBlock: QUQFOY_clean_sbu_3, # of connection points: 4
#     Node 47, Type 0, BuildingBlock: QUQFOY_clean_sbu_3, # of connection points: 4
#     Edge 48, Type (0, 0), None
#     Edge 49, Type (0, 0), None
#     Edge 50, Type (0, 0), None
#     Edge 51, Type (0, 0), None
#     Edge 52, Type (0, 0), None
#     Edge 53, Type (0, 0), None
#     Edge 54, Type (0, 0), None
#     Edge 55, Type (0, 0), None
#     Edge 56, Type (0, 0), None
#     Edge 57, Type (0, 0), None
#     Edge 58, Type (0, 0), None
#     Edge 59, Type (0, 0), None
#     Edge 60, Type (0, 0), None
#     Edge 61, Type (0, 0), None
#     Edge 62, Type (0, 0), None
#     Edge 63, Type (0, 0), None
#     Edge 64, Type (0, 0), None
#     Edge 65, Type (0, 0), None
#     Edge 66, Type (0, 0), None
#     Edge 67, Type (0, 0), None
#     Edge 68, Type (0, 0), None
#     Edge 69, Type (0, 0), None
#     Edge 70, Type (0, 0), None
#     Edge 71, Type (0, 0), None
#     Edge 72, Type (0, 0), None
#     Edge 73, Type (0, 0), None
#     Edge 74, Type (0, 0), None
#     Edge 75, Type (0, 0), None
#     Edge 76, Type (0, 0), None
#     Edge 77, Type (0, 0), None
#     Edge 78, Type (0, 0), None
#     Edge 79, Type (0, 0), None
#     Edge 80, Type (0, 0), None
#     Edge 81, Type (0, 0), None
#     Edge 82, Type (0, 0), None
#     Edge 83, Type (0, 0), None
#     Edge 84, Type (0, 0), None
#     Edge 85, Type (0, 0), None
#     Edge 86, Type (0, 0), None
#     Edge 87, Type (0, 0), None
#     Edge 88, Type (0, 0), None
#     Edge 89, Type (0, 0), None
#     Edge 90, Type (0, 0), None
#     Edge 91, Type (0, 0), None
#     Edge 92, Type (0, 0), None
#     Edge 93, Type (0, 0), None
#     Edge 94, Type (0, 0), None
#     Edge 95, Type (0, 0), None
#     Edge 96, Type (0, 0), None
#     Edge 97, Type (0, 0), None
#     Edge 98, Type (0, 0), None
#     Edge 99, Type (0, 0), None
#     Edge 100, Type (0, 0), None
#     Edge 101, Type (0, 0), None
#     Edge 102, Type (0, 0), None
#     Edge 103, Type (0, 0), None
#     Edge 104, Type (0, 0), None
#     Edge 105, Type (0, 0), None
#     Edge 106, Type (0, 0), None
#     Edge 107, Type (0, 0), None
#     Edge 108, Type (0, 0), None
#     Edge 109, Type (0, 0), None
#     Edge 110, Type (0, 0), None
#     Edge 111, Type (0, 0), None
#     Edge 112, Type (0, 0), None
#     Edge 113, Type (0, 0), None
#     Edge 114, Type (0, 0), None
#     Edge 115, Type (0, 0), None
#     Edge 116, Type (0, 0), None
#     Edge 117, Type (0, 0), None
#     Edge 118, Type (0, 0), None
#     Edge 119, Type (0, 0), None
#     Edge 120, Type (0, 0), None
#     Edge 121, Type (0, 0), None
#     Edge 122, Type (0, 0), None
#     Edge 123, Type (0, 0), None
#     Edge 124, Type (0, 0), None
#     Edge 125, Type (0, 0), None
#     Edge 126, Type (0, 0), None
#     Edge 127, Type (0, 0), None
#     Edge 128, Type (0, 0), None
#     Edge 129, Type (0, 0), None
#     Edge 130, Type (0, 0), None
#     Edge 131, Type (0, 0), None
#     Edge 132, Type (0, 0), None
#     Edge 133, Type (0, 0), None
#     Edge 134, Type (0, 0), None
#     Edge 135, Type (0, 0), None
#     Edge 136, Type (0, 0), None
#     Edge 137, Type (0, 0), None
#     Edge 138, Type (0, 0), None
#     Edge 139, Type (0, 0), None
#     Edge 140, Type (0, 0), None
#     Edge 141, Type (0, 0), None
#     Edge 142, Type (0, 0), None
#     Edge 143, Type (0, 0), None
# Relax obj value: 0.243
# Max RMSD: 0.081
# Mean RMSD: 0.071
data_MOF--net-nfb--node1-QUQFOY_clean_sbu_3--edge1-none
_symmetry_space_group_name_H-M    P1
_symmetry_Int_Tables_number       1
_symmetry_cell_setting            triclinic
loop_
_symmetry_equiv_pos_as_xyz
'x, y, z'
_cell_length_a     29.899171
_cell_length_b     29.858915
_cell_length_c     30.138519
_cell_angle_alpha  89.227731
_cell_angle_beta   89.528051
_cell_angle_gamma 91.390146
loop_
_atom_site_label
_atom_site_type_symbol
_atom_site_fract_x
_atom_site_fract_y
_atom_site_fract_z
_atom_type_partial_charge
C0 C 0.0868 0.18894 0.33907 0.0
O1 O 0.06345 0.16096 0.36026 0.0
Cd2 Cd 0.01207 0.16018 0.41571 0.0
O3 O 0.11237 0.1729 0.31039 0.0
Cd4 Cd 0.09543 0.09189 0.34611 0.0
C5 C -0.02701 0.08998 0.33322 0.0
O6 O 0.07336 0.11575 0.41399 0.0
O7 O 0.0911 0.04742 0.42269 0.0
O8 O 0.16817 0.11918 0.36353 0.0
C9 C 0.07667 0.08305 0.4397 0.0
O10 O -0.03125 0.11535 0.3667 0.0
C11 C 0.18873 0.08828 0.34419 0.0
O12 O 0.01171 0.07857 0.3177 0.0
O13 O 0.1655 0.05797 0.32422 0.0
C14 C 0.35083 0.6089 0.94595 0.0
O15 O 0.31916 0.63605 0.94326 0.0
Cd16 Cd 0.28402 0.67762 0.89152 0.0
O17 O 0.36996 0.59322 0.91162 0.0
Cd18 Cd 0.34936 0.59549 0.82992 0.0
C19 C 0.36193 0.70234 0.83432 0.0
O20 O 0.27559 0.60831 0.85743 0.0
O21 O 0.27517 0.58871 0.79011 0.0
O22 O 0.37644 0.52137 0.85282 0.0
C23 C 0.2527 0.60025 0.8237 0.0
O24 O 0.35923 0.68915 0.87383 0.0
C25 C 0.37014 0.5006 0.81687 0.0
O26 O 0.37317 0.67381 0.80519 0.0
O27 O 0.36043 0.52573 0.78397 0.0
C28 C 0.85194 0.73376 0.35248 0.0
O29 O 0.87918 0.73423 0.38439 0.0
Cd30 Cd 0.91618 0.79155 0.41829 0.0
O31 O 0.83834 0.76947 0.33348 0.0
Cd32 Cd 0.8401 0.8527 0.3487 0.0
C33 C 0.95527 0.85251 0.3248 0.0
O34 O 0.85362 0.83194 0.41654 0.0
O35 O 0.8469 0.90282 0.42024 0.0
O36 O 0.76602 0.81888 0.35574 0.0
C37 C 0.85516 0.86604 0.43972 0.0
O38 O 0.95617 0.82799 0.35947 0.0
C39 C 0.74471 0.85015 0.33764 0.0
O40 O 0.9182 0.86793 0.30999 0.0
O41 O 0.76785 0.88332 0.32148 0.0
C42 C 0.58639 0.33028 0.95123 0.0
O43 O 0.61755 0.30254 0.94959 0.0
Cd44 Cd 0.65031 0.25087 0.90515 0.0
O45 O 0.56539 0.34269 0.91665 0.0
Cd46 Cd 0.58566 0.33547 0.83485 0.0
C47 C 0.57398 0.22789 0.84525 0.0
O48 O 0.65824 0.30423 0.84966 0.0
O49 O 0.6614 0.3579 0.80352 0.0
O50 O 0.56232 0.40922 0.85838 0.0
C51 C 0.68268 0.33122 0.82789 0.0
O52 O 0.5754 0.24008 0.88498 0.0
C53 C 0.56792 0.43063 0.82192 0.0
O54 O 0.56087 0.25625 0.81597 0.0
O55 O 0.57491 0.40607 0.78822 0.0
C56 C 0.10349 0.8536 0.47806 0.0
O57 O 0.13169 0.82329 0.48175 0.0
Cd58 Cd 0.17997 0.7778 0.51802 0.0
O59 O 0.0867 0.87157 0.51222 0.0
Cd60 Cd 0.09554 0.84118 0.59074 0.0
C61 C 0.20418 0.8504 0.58502 0.0
O62 O 0.11568 0.77087 0.5597 0.0
O63 O 0.0823 0.76092 0.62146 0.0
O64 O 0.02282 0.87373 0.57506 0.0
C65 C 0.10277 0.74373 0.5892 0.0
O66 O 0.19315 0.84959 0.54496 0.0
C67 C 0.00311 0.86285 0.61123 0.0
O68 O 0.17481 0.86154 0.61386 0.0
O69 O 0.02887 0.84838 0.64148 0.0
C70 C 0.70468 0.58862 0.0832 0.0
O71 O 0.70606 0.56135 0.05143 0.0
Cd72 Cd 0.64956 0.5215 0.01676 0.0
O73 O 0.66793 0.60055 0.10112 0.0
Cd74 Cd 0.58493 0.59623 0.08261 0.0
C75 C 0.58166 0.48076 0.10542 0.0
O76 O 0.60665 0.58252 0.01506 0.0
O77 O 0.53576 0.58885 0.01062 0.0
O78 O 0.61703 0.67069 0.074 0.0
C79 C 0.57259 0.58029 -0.00832 0.0
O80 O 0.60864 0.47993 0.07266 0.0
C81 C 0.58583 0.69163 0.09231 0.0
O82 O 0.56613 0.51797 0.11951 0.0
O83 O 0.55318 0.66812 0.10892 0.0
C84 C 0.82987 0.0807 0.48564 0.0
O85 O 0.80256 0.11151 0.49024 0.0
Cd86 Cd 0.75667 0.15856 0.52545 0.0
O87 O 0.84768 0.06245 0.51937 0.0
Cd88 Cd 0.8424 0.09658 0.59676 0.0
C89 C 0.73767 0.08421 0.59457 0.0
O90 O 0.82335 0.16847 0.56258 0.0
O91 O 0.83968 0.17523 0.63057 0.0
O92 O 0.91747 0.08345 0.5743 0.0
C93 C 0.82476 0.19333 0.59553 0.0
O94 O 0.75065 0.08713 0.55509 0.0
C95 C 0.93706 0.07785 0.611 0.0
O96 O 0.76566 0.07093 0.6235 0.0
O97 O 0.91156 0.07808 0.64524 0.0
C98 C 0.24806 0.3564 0.08738 0.0
O99 O 0.27722 0.37756 0.06559 0.0
Cd100 Cd 0.28514 0.42934 0.01075 0.0
O101 O 0.2626 0.32941 0.11593 0.0
Cd102 Cd 0.34467 0.34049 0.08378 0.0
C103 C 0.3558 0.46254 0.0958 0.0
O104 O 0.32448 0.3645 0.01531 0.0
O105 O 0.39056 0.33982 0.00875 0.0
O106 O 0.31586 0.26782 0.06791 0.0
C107 C 0.35701 0.35749 -0.00942 0.0
O108 O 0.33177 0.46893 0.06153 0.0
C109 C 0.34652 0.24688 0.08743 0.0
O110 O 0.36348 0.42292 0.11189 0.0
O111 O 0.37699 0.26983 0.10745 0.0
C112 C 0.35685 0.08315 0.1914 0.0
O113 O 0.38814 0.05996 0.17662 0.0
Cd114 Cd 0.4336 0.02722 0.12647 0.0
O115 O 0.33039 0.10249 0.16495 0.0
Cd116 Cd 0.35375 0.10409 0.08372 0.0
C117 C 0.3386 -0.01446 0.07333 0.0
O118 O 0.4265 0.09628 0.09785 0.0
O119 O 0.42035 0.10317 0.02747 0.0
O120 O 0.3709 0.17644 0.1126 0.0
C121 C 0.44547 0.09923 0.06102 0.0
O122 O 0.37664 -0.01728 0.09162 0.0
C123 C 0.34664 0.19791 0.08599 0.0
O124 O 0.32003 0.02373 0.0672 0.0
O125 O 0.32324 0.17544 0.05809 0.0
C126 C 0.33206 0.93716 0.56574 0.0
O127 O 0.29066 0.93289 0.57541 0.0
Cd128 Cd 0.27852 0.90222 0.64967 0.0
O129 O 0.35709 0.90376 0.57045 0.0
Cd130 Cd 0.35245 0.82614 0.59322 0.0
C131 C 0.24307 0.82422 0.59829 0.0
O132 O 0.34971 0.8717 0.65902 0.0
O133 O 0.35145 0.80031 0.67164 0.0
O134 O 0.42205 0.84363 0.55112 0.0
C135 C 0.34984 0.83978 0.68678 0.0
O136 O 0.255 0.82718 0.63816 0.0
C137 C 0.44498 0.81144 0.56564 0.0
O138 O 0.27262 0.81486 0.56888 0.0
O139 O 0.42193 0.78077 0.58566 0.0
C140 C 0.56366 0.85599 0.19426 0.0
O141 O 0.52203 0.86103 0.18973 0.0
Cd142 Cd 0.49527 0.89923 0.12742 0.0
O143 O 0.58974 0.85564 0.1604 0.0
Cd144 Cd 0.57502 0.83564 0.08035 0.0
C145 C 0.5922 0.95093 0.07647 0.0
O146 O 0.50206 0.83525 0.09 0.0
O147 O 0.51267 0.84091 0.01996 0.0
O148 O 0.56081 0.76285 0.11546 0.0
C149 C 0.48534 0.83799 0.05245 0.0
O150 O 0.55504 0.94934 0.09758 0.0
C151 C 0.58634 0.74108 0.09046 0.0
O152 O 0.6107 0.91469 0.0638 0.0
O153 O 0.61008 0.76362 0.06197 0.0
C154 C 0.60765 -0.0036 0.57267 0.0
O155 O 0.64872 -0.00013 0.58303 0.0
Cd156 Cd 0.65895 0.02919 0.65737 0.0
O157 O 0.5826 0.02955 0.57823 0.0
Cd158 Cd 0.58753 0.10677 0.60014 0.0
C159 C 0.69759 0.10862 0.6074 0.0
O160 O 0.58845 0.06123 0.66732 0.0
O161 O 0.58738 0.13279 0.67757 0.0
O162 O 0.5202 0.09058 0.55541 0.0
C163 C 0.5888 0.09344 0.69401 0.0
O164 O 0.68483 0.10408 0.64716 0.0
C165 C 0.496 0.12165 0.5698 0.0
O166 O 0.6685 0.11763 0.57761 0.0
O167 O 0.51755 0.15153 0.59129 0.0
C168 C 0.4403 0.82892 0.85831 0.0
O169 O 0.43595 0.78851 0.84599 0.0
Cd170 Cd 0.40924 0.7802 0.77025 0.0
O171 O 0.40752 0.8548 0.85441 0.0
Cd172 Cd 0.33159 0.8516 0.82746 0.0
C173 C 0.33452 0.74077 0.82174 0.0
O174 O 0.37508 0.84964 0.75979 0.0
O175 O 0.30344 0.85003 0.75045 0.0
O176 O 0.35677 0.9231 0.85363 0.0
C177 C 0.34246 0.84834 0.73358 0.0
O178 O 0.33556 0.75247 0.78141 0.0
C179 C 0.32026 0.94351 0.85674 0.0
O180 O 0.32598 0.77027 0.85116 0.0
O181 O 0.28496 0.91963 0.85004 0.0
C182 C 0.57999 0.87223 0.23621 0.0
O183 O 0.57499 0.91391 0.24058 0.0
Cd184 Cd 0.53708 0.94068 0.30272 0.0
O185 O 0.58034 0.84602 0.27014 0.0
Cd186 Cd 0.60077 0.86058 0.35011 0.0
C187 C 0.48545 0.84359 0.35373 0.0
O188 O 0.60104 0.93369 0.34039 0.0
O189 O 0.59576 0.92282 0.41045 0.0
O190 O 0.67324 0.87503 0.31469 0.0
C191 C 0.59848 0.9503 0.37792 0.0
O192 O 0.48699 0.88086 0.33253 0.0
C193 C 0.69528 0.84935 0.33955 0.0
O194 O 0.52168 0.825 0.36651 0.0
O195 O 0.67307 0.82548 0.36821 0.0
C196 C 0.49579 0.09975 0.86019 0.0
O197 O 0.49826 0.14123 0.85003 0.0
Cd198 Cd 0.53114 0.1552 0.77691 0.0
O199 O 0.53007 0.07597 0.85548 0.0
Cd200 Cd 0.60815 0.08301 0.8351 0.0
C201 C 0.60464 0.1922 0.83218 0.0
O202 O 0.56408 0.08488 0.76799 0.0
O203 O 0.63563 0.08512 0.75721 0.0
O204 O 0.59181 0.01327 0.87773 0.0
C205 C 0.59651 0.08548 0.74101 0.0
O206 O 0.60441 0.18113 0.792 0.0
C207 C 0.62427 -0.00928 0.86354 0.0
O208 O 0.61567 0.16278 0.86131 0.0
O209 O 0.65462 0.01419 0.84359 0.0
C210 C 0.35192 0.079 0.23932 0.0
O211 O 0.37498 0.04815 0.25537 0.0
Cd212 Cd 0.40863 0.00144 0.304 0.0
O213 O 0.33198 0.10565 0.26486 0.0
Cd214 Cd 0.33143 0.08157 0.34621 0.0
C215 C 0.45025 0.09657 0.35679 0.0
O216 O 0.33944 0.00875 0.33206 0.0
O217 O 0.3325 0.01455 0.4024 0.0
O218 O 0.25873 0.06426 0.3182 0.0
C219 C 0.33629 -0.01044 0.36887 0.0
O220 O 0.45313 0.05845 0.33876 0.0
C221 C 0.23765 0.08813 0.34525 0.0
O222 O 0.41206 0.11509 0.36267 0.0
O223 O 0.26049 0.11157 0.37283 0.0
C224 C 0.20144 0.36675 0.07876 0.0
O225 O 0.19629 0.40025 0.05316 0.0
Cd226 Cd 0.13792 0.43759 0.01986 0.0
O227 O 0.16822 0.34359 0.09425 0.0
Cd228 Cd 0.08525 0.35928 0.09399 0.0
C229 C 0.08453 0.34216 -0.02301 0.0
O230 O 0.09839 0.43184 0.08357 0.0
O231 O 0.02712 0.42236 0.08577 0.0
O232 O 0.11261 0.37848 0.16683 0.0
C233 C 0.06081 0.44899 0.0822 0.0
O234 O 0.1052 0.37986 -0.02488 0.0
C235 C 0.08632 0.35289 0.18904 0.0
O236 O 0.07331 0.32377 0.01467 0.0
O237 O 0.059 0.32794 0.16715 0.0
C238 C 0.20846 0.58068 0.83175 0.0
O239 O 0.20721 0.54538 0.85567 0.0
Cd240 Cd 0.14731 0.50678 0.89036 0.0
O241 O 0.17308 0.60024 0.8192 0.0
Cd242 Cd 0.09109 0.57907 0.81504 0.0
C243 C 0.08872 0.59887 0.93162 0.0
O244 O 0.1041 0.50891 0.82957 0.0
O245 O 0.03331 0.51216 0.81983 0.0
O246 O 0.1277 0.56269 0.74396 0.0
C247 C 0.06704 0.48881 0.82909 0.0
O248 O 0.11251 0.56413 0.93352 0.0
C249 C 0.10209 0.58558 0.7199 0.0
O250 O 0.07491 0.61435 0.89397 0.0
O251 O 0.0712 0.60696 0.73987 0.0
C252 C 0.94267 0.57553 0.31862 0.0
O253 O 0.94043 0.58548 0.27754 0.0
Cd254 Cd 0.90546 0.6568 0.26497 0.0
O255 O 0.90829 0.57935 0.34325 0.0
Cd256 Cd 0.82854 0.59495 0.34019 0.0
C257 C 0.82956 0.5996 0.23291 0.0
O258 O 0.87191 0.66221 0.33547 0.0
O259 O 0.80089 0.67336 0.3388 0.0
O260 O 0.84673 0.55576 0.41063 0.0
C261 C 0.84057 0.6896 0.3367 0.0
O262 O 0.83138 0.63962 0.2454 0.0
C263 C 0.81408 0.56869 0.43404 0.0
O264 O 0.81937 0.56881 0.26165 0.0
O265 O 0.78322 0.58676 0.41158 0.0
C266 C 0.72531 0.34596 0.84586 0.0
O267 O 0.72376 0.37881 0.87193 0.0
Cd268 Cd 0.78137 0.41579 0.90842 0.0
O269 O 0.76218 0.32901 0.83349 0.0
Cd270 Cd 0.84483 0.34968 0.83696 0.0
C271 C 0.84606 0.32868 0.95176 0.0
O272 O 0.82568 0.41909 0.84647 0.0
O273 O 0.89748 0.42012 0.84485 0.0
O274 O 0.82551 0.35796 0.75792 0.0
C275 C 0.86144 0.44111 0.85013 0.0
O276 O 0.81945 0.36125 0.95282 0.0
C277 C 0.8548 0.33149 0.74425 0.0
O278 O 0.862 0.31471 0.91471 0.0
O279 O 0.87976 0.31357 0.77351 0.0
C280 C 0.07975 0.23599 0.34896 0.0
O281 O 0.04934 0.24123 0.37772 0.0
Cd282 Cd 0.00987 0.29285 0.41588 0.0
O283 O 0.10057 0.26925 0.33036 0.0
Cd284 Cd 0.08115 0.35224 0.33328 0.0
C285 C 0.10155 0.35535 0.45111 0.0
O286 O 0.01408 0.33099 0.35199 0.0
O287 O 0.00727 0.40007 0.33562 0.0
O288 O 0.06738 0.32229 0.26021 0.0
C289 C -0.01092 0.36336 0.34877 0.0
O290 O 0.06614 0.3313 0.45492 0.0
C291 C 0.08737 0.35311 0.23809 0.0
O292 O 0.11732 0.36787 0.4126 0.0
O293 O 0.10734 0.38408 0.26012 0.0
C294 C 0.84408 0.48286 0.09823 0.0
O295 O 0.8118 0.48456 0.12537 0.0
Cd296 Cd 0.77459 0.52825 0.17345 0.0
O297 O 0.86499 0.518 0.08377 0.0
Cd298 Cd 0.8453 0.6007 0.08854 0.0
C299 C 0.85568 0.5885 0.1931 0.0
O300 O 0.77245 0.58225 0.11947 0.0
O301 O 0.76921 0.63378 0.07159 0.0
O302 O 0.86977 0.57695 0.0146 0.0
C303 C 0.74786 0.60655 0.09683 0.0
O304 O 0.85008 0.54986 0.17805 0.0
C305 C 0.8653 0.61363 -0.00665 0.0
O306 O 0.87025 0.61951 0.16639 0.0
O307 O 0.85791 0.64735 0.01782 0.0
C308 C 0.94621 0.35284 0.58816 0.0
O309 O 0.93455 0.31478 0.60231 0.0
Cd310 Cd 0.91175 0.24662 0.62778 0.0
O311 O 0.91594 0.37999 0.57786 0.0
Cd312 Cd 0.83981 0.33745 0.57943 0.0
C313 C 0.85893 0.31994 0.69702 0.0
O314 O 0.86055 0.26063 0.57446 0.0
O315 O 0.79237 0.26697 0.59624 0.0
O316 O 0.85783 0.34069 0.50281 0.0
C317 C 0.82498 0.2418 0.58789 0.0
O318 O 0.88054 0.28458 0.68934 0.0
C319 C 0.82326 0.35741 0.48563 0.0
O320 O 0.84288 0.34487 0.66566 0.0
O321 O 0.79252 0.36873 0.51298 0.0
C322 C -0.00776 0.57583 0.59494 0.0
O323 O -0.01225 0.59014 0.63432 0.0
Cd324 Cd 0.02655 0.65956 0.65097 0.0
O325 O 0.0296 0.5805 0.57444 0.0
Cd326 Cd 0.11115 0.59899 0.57078 0.0
C327 C 0.10872 0.58881 0.67114 0.0
O328 O 0.07322 0.66954 0.58669 0.0
O329 O 0.14303 0.678 0.57006 0.0
O330 O 0.0827 0.57305 0.49945 0.0
C331 C 0.107 0.69548 0.58331 0.0
O332 O 0.08516 0.6146 0.64929 0.0
C333 C 0.11778 0.57372 0.47551 0.0
O334 O 0.13524 0.5654 0.64812 0.0
O335 O 0.15366 0.58233 0.49677 0.0
C336 C 0.87005 0.8587 0.48511 0.0
O337 O 0.89032 0.82218 0.49016 0.0
Cd338 Cd 0.90921 0.765 0.54018 0.0
O339 O 0.84979 0.87586 0.51752 0.0
Cd340 Cd 0.8404 0.83494 0.58897 0.0
C341 C 0.95803 0.84199 0.60634 0.0
O342 O 0.83665 0.76019 0.56545 0.0
O343 O 0.83587 0.76509 0.63651 0.0
O344 O 0.76925 0.8266 0.55411 0.0
C345 C 0.83026 0.74102 0.60233 0.0
O346 O 0.95887 0.80432 0.58746 0.0
C347 C 0.74752 0.84676 0.58365 0.0
O348 O 0.9214 0.86369 0.60917 0.0
O349 O 0.76962 0.86528 0.61518 0.0
C350 C 0.69445 0.3111 0.10265 0.0
O351 O 0.70178 0.2831 0.07239 0.0
Cd352 Cd 0.64997 0.2767 0.01565 0.0
O353 O 0.6566 0.32994 0.1065 0.0
Cd354 Cd 0.57605 0.34448 0.09028 0.0
C355 C 0.57752 0.24241 0.08518 0.0
O356 O 0.61281 0.34792 0.02055 0.0
O357 O 0.54119 0.34925 0.01376 0.0
O358 O 0.60252 0.41058 0.13086 0.0
C359 C 0.57948 0.34917 -0.00497 0.0
O360 O 0.58109 0.26099 0.04776 0.0
C361 C 0.56964 0.43569 0.12364 0.0
O362 O 0.55898 0.26456 0.11609 0.0
O363 O 0.53513 0.41534 0.10863 0.0
C364 C 0.0665 0.09182 0.48618 0.0
O365 O 0.05063 0.13028 0.49242 0.0
Cd366 Cd 0.03508 0.18085 0.54845 0.0
O367 O 0.08293 0.06937 0.51799 0.0
Cd368 Cd 0.09783 0.09844 0.59446 0.0
C369 C -0.01521 0.09266 0.61101 0.0
O370 O 0.1026 0.1779 0.58256 0.0
O371 O 0.09562 0.15891 0.65104 0.0
O372 O 0.16969 0.11044 0.55953 0.0
C373 C 0.10063 0.19023 0.62225 0.0
O374 O -0.00916 0.12843 0.58863 0.0
C375 C 0.19118 0.0861 0.58618 0.0
O376 O 0.0182 0.06768 0.61961 0.0
O377 O 0.16873 0.06412 0.61615 0.0
C378 C 0.23625 0.61804 0.09189 0.0
O379 O 0.2308 0.65006 0.06457 0.0
Cd380 Cd 0.28471 0.66048 0.00908 0.0
O381 O 0.27445 0.60033 0.09714 0.0
Cd382 Cd 0.35724 0.59525 0.08486 0.0
C383 C 0.35272 0.69805 0.07796 0.0
O384 O 0.32311 0.59052 0.01528 0.0
O385 O 0.39502 0.59294 0.00949 0.0
O386 O 0.33675 0.52841 0.12948 0.0
C387 C 0.35732 0.59088 -0.00965 0.0
O388 O 0.35232 0.68136 0.04 0.0
C389 C 0.36929 0.50468 0.11757 0.0
O390 O 0.36953 0.67505 0.10955 0.0
O391 O 0.40186 0.52699 0.10011 0.0
C392 C 0.79623 0.20359 0.34826 0.0
O393 O 0.76567 0.19875 0.37732 0.0
Cd394 Cd 0.76951 0.14049 0.42765 0.0
O395 O 0.82262 0.17177 0.33827 0.0
Cd396 Cd 0.83903 0.0879 0.34608 0.0
C397 C 0.7371 0.08338 0.35178 0.0
O398 O 0.84521 0.11427 0.41844 0.0
O399 O 0.8429 0.04231 0.41803 0.0
O400 O 0.90585 0.11257 0.30383 0.0
C401 C 0.84689 0.07792 0.44041 0.0
O402 O 0.75285 0.07655 0.38968 0.0
C403 C 0.92971 0.07889 0.31217 0.0
O404 O 0.76091 0.07297 0.31826 0.0
O405 O 0.90774 0.0448 0.32696 0.0
C406 C 0.3501 0.36697 0.9437 0.0
O407 O 0.31365 0.38622 0.93566 0.0
Cd408 Cd 0.26349 0.40432 0.87943 0.0
O409 O 0.37119 0.34717 0.91335 0.0
Cd410 Cd 0.34052 0.33627 0.83791 0.0
C411 C 0.34922 0.45509 0.8214 0.0
O412 O 0.26189 0.33482 0.84792 0.0
O413 O 0.28173 0.34159 0.77978 0.0
O414 O 0.32447 0.26462 0.87243 0.0
C415 C 0.25 0.3377 0.80812 0.0
O416 O 0.30955 0.45542 0.83679 0.0
C417 C 0.34875 0.24225 0.84666 0.0
O418 O 0.37131 0.41846 0.82068 0.0
O419 O 0.37228 0.26396 0.81724 0.0
C420 C 0.13353 0.73718 0.33674 0.0
O421 O 0.16461 0.74097 0.36474 0.0
Cd422 Cd 0.16139 0.79551 0.41751 0.0
O423 O 0.10651 0.76892 0.32836 0.0
Cd424 Cd 0.09077 0.85143 0.33896 0.0
C425 C 0.19498 0.8561 0.34489 0.0
O426 O 0.08613 0.82214 0.41126 0.0
O427 O 0.08751 0.89411 0.4115 0.0
O428 O 0.02312 0.82609 0.29985 0.0
C429 C 0.08507 0.85761 0.43365 0.0
O430 O 0.18012 0.86237 0.38333 0.0
C431 C 9e-05 0.86089 0.30477 0.0
O432 O 0.16999 0.86529 0.31189 0.0
O433 O 0.0226 0.89511 0.31726 0.0
C434 C 0.57984 0.56489 0.9466 0.0
O435 O 0.61584 0.54373 0.94198 0.0
Cd436 Cd 0.66966 0.52589 0.88823 0.0
O437 O 0.56281 0.58512 0.91387 0.0
Cd438 Cd 0.60091 0.59422 0.84104 0.0
C439 C 0.58999 0.47573 0.82553 0.0
O440 O 0.67692 0.5991 0.8624 0.0
O441 O 0.66919 0.59921 0.79167 0.0
O442 O 0.60914 0.66549 0.87596 0.0
C443 C 0.69457 0.60576 0.82481 0.0
O444 O 0.62782 0.47465 0.8442 0.0
C445 C 0.58873 0.68742 0.84652 0.0
O446 O 0.56947 0.51305 0.8215 0.0
O447 O 0.56992 0.66538 0.81513 0.0
C448 C 0.48287 0.85045 0.84642 0.0
O449 O 0.48232 0.87752 0.81349 0.0
Cd450 Cd 0.54098 0.9022 0.76514 0.0
O451 O 0.51871 0.83246 0.85898 0.0
Cd452 Cd 0.59536 0.83023 0.83124 0.0
C453 C 0.61177 0.94643 0.84495 0.0
O454 O 0.57138 0.83165 0.75774 0.0
O455 O 0.6429 0.82676 0.76309 0.0
O456 O 0.55956 0.75799 0.8282 0.0
C457 C 0.60826 0.82514 0.73892 0.0
O458 O 0.58652 0.94867 0.81141 0.0
C459 C 0.59016 0.73657 0.84697 0.0
O460 O 0.62065 0.90834 0.86296 0.0
O461 O 0.62336 0.75923 0.86256 0.0
C462 C 0.60595 0.08712 0.23737 0.0
O463 O 0.62767 0.05199 0.22937 0.0
Cd464 Cd 0.6446 0.003 0.28804 0.0
O465 O 0.59429 0.09714 0.27697 0.0
Cd466 Cd 0.58788 0.09224 0.3608 0.0
C467 C 0.68918 0.09142 0.34897 0.0
O468 O 0.58654 0.01714 0.34071 0.0
O469 O 0.58912 0.02275 0.41195 0.0
O470 O 0.51922 0.12529 0.33152 0.0
C471 C 0.58892 -0.00211 0.37813 0.0
O472 O 0.66537 0.06366 0.32889 0.0
C473 C 0.49427 0.1187 0.36536 0.0
O474 O 0.66879 0.11971 0.37286 0.0
O475 O 0.51521 0.10812 0.40046 0.0
C476 C 0.45449 0.07689 0.84755 0.0
O477 O 0.45767 0.05099 0.81448 0.0
Cd478 Cd 0.40291 0.0252 0.76407 0.0
O479 O 0.41747 0.09355 0.85919 0.0
Cd480 Cd 0.33973 0.09904 0.83384 0.0
C481 C 0.32339 -0.00753 0.84771 0.0
O482 O 0.36787 0.09351 0.75997 0.0
O483 O 0.29718 0.10578 0.76358 0.0
O484 O 0.37792 0.17086 0.83232 0.0
C485 C 0.33214 0.10145 0.73995 0.0
O486 O 0.35136 0.00405 0.81829 0.0
C487 C 0.34639 0.193 0.84838 0.0
O488 O 0.30504 0.02371 0.86938 0.0
O489 O 0.31154 0.17097 0.86211 0.0
C490 C 0.32738 0.85205 0.22955 0.0
O491 O 0.30676 0.88786 0.22094 0.0
Cd492 Cd 0.29142 0.93811 0.2781 0.0
O493 O 0.33906 0.84183 0.26917 0.0
Cd494 Cd 0.34568 0.8481 0.3525 0.0
C495 C 0.24298 0.84937 0.34052 0.0
O496 O 0.34812 0.92357 0.33139 0.0
O497 O 0.34241 0.91601 0.40262 0.0
O498 O 0.4167 0.81885 0.32485 0.0
C499 C 0.34439 0.94175 0.36881 0.0
O500 O 0.26542 0.87843 0.31955 0.0
C501 C 0.43971 0.82334 0.35974 0.0
O502 O 0.26443 0.82139 0.36437 0.0
O503 O 0.41695 0.83142 0.39455 0.0
C504 C 0.5835 0.10841 0.20027 0.0
O505 O 0.54746 0.12853 0.20867 0.0
Cd506 Cd 0.49675 0.14342 0.15147 0.0
O507 O 0.59386 0.09694 0.16073 0.0
Cd508 Cd 0.58686 0.09072 0.07735 0.0
C509 C 0.58372 0.19392 0.08798 0.0
O510 O 0.51155 0.08693 0.09851 0.0
O511 O 0.51874 0.09344 0.02732 0.0
O512 O 0.61707 0.01974 0.10507 0.0
C513 C 0.49319 0.09088 0.06109 0.0
O514 O 0.55522 0.17101 0.10924 0.0
C515 C 0.61236 -0.00324 0.07026 0.0
O516 O 0.61213 0.1728 0.06459 0.0
O517 O 0.60383 0.01961 0.03546 0.0
C518 C 0.35337 -0.02114 0.57958 0.0
O519 O 0.38 -0.02398 0.61216 0.0
Cd520 Cd 0.40604 0.03028 0.66332 0.0
O521 O 0.3359 0.01563 0.5686 0.0
Cd522 Cd 0.33422 0.09048 0.59934 0.0
C523 C 0.4512 0.10694 0.58676 0.0
O524 O 0.3373 0.06348 0.67264 0.0
O525 O 0.32914 0.13502 0.66799 0.0
O526 O 0.26133 0.05508 0.60246 0.0
C527 C 0.33085 0.09984 0.69203 0.0
O528 O 0.45262 0.079 0.61877 0.0
C529 C 0.24037 0.08683 0.58479 0.0
O530 O 0.41359 0.1176 0.56938 0.0
O531 O 0.26353 0.12058 0.5698 0.0
C532 C 0.34888 0.82987 0.19266 0.0
O533 O 0.3843 0.80867 0.20093 0.0
Cd534 Cd 0.43354 0.7925 0.14264 0.0
O535 O 0.33873 0.84148 0.15299 0.0
Cd536 Cd 0.34381 0.84809 0.06933 0.0
C537 C 0.34575 0.74618 0.08082 0.0
O538 O 0.41879 0.85024 0.08952 0.0
O539 O 0.41289 0.84719 0.0183 0.0
O540 O 0.31022 0.91629 0.09844 0.0
C541 C 0.43785 0.8477 0.05214 0.0
O542 O 0.37383 0.7693 0.1013 0.0
C543 C 0.31665 0.94147 0.06463 0.0
O544 O 0.31731 0.76718 0.05737 0.0
O545 O 0.32733 0.92076 0.02956 0.0
C546 C 0.58586 0.9537 0.58383 0.0
O547 O 0.55836 0.95393 0.61623 0.0
Cd548 Cd 0.53338 0.8949 0.66413 0.0
O549 O 0.60379 0.91789 0.57128 0.0
Cd550 Cd 0.60515 0.84091 0.59869 0.0
C551 C 0.48916 0.8244 0.58423 0.0
O552 O 0.60402 0.8648 0.67219 0.0
O553 O 0.609 0.79322 0.66695 0.0
O554 O 0.67735 0.87644 0.60144 0.0
C555 C 0.61073 0.82782 0.69105 0.0
O556 O 0.48686 0.84958 0.6177 0.0
C557 C 0.69849 0.84558 0.58304 0.0
O558 O 0.52723 0.81558 0.56652 0.0
O559 O 0.67567 0.8124 0.56765 0.0
C560 C 0.8568 0.4866 0.8655 0.0
O561 O 0.82183 0.4912 0.88901 0.0
Cd562 Cd 0.76631 0.54408 0.90235 0.0
O563 O 0.87216 0.51869 0.84156 0.0
Cd564 Cd 0.83638 0.59093 0.8304 0.0
C565 C 0.84405 0.60975 0.94888 0.0
O566 O 0.7607 0.5667 0.82875 0.0
O567 O 0.76831 0.63838 0.82586 0.0
O568 O 0.82815 0.55395 0.7599 0.0
C569 C 0.74303 0.60382 0.82134 0.0
O570 O 0.80461 0.59325 0.95095 0.0
C571 C 0.84933 0.58338 0.73691 0.0
O572 O 0.86587 0.61069 0.91166 0.0
O573 O 0.86863 0.61565 0.75777 0.0
C574 C 0.73292 0.33237 0.12341 0.0
O575 O 0.72502 0.36415 0.14973 0.0
Cd576 Cd 0.77994 0.41877 0.1583 0.0
O577 O 0.77166 0.32774 0.10543 0.0
Cd578 Cd 0.85482 0.34176 0.08824 0.0
C579 C 0.8574 0.34497 0.18816 0.0
O580 O 0.81885 0.41092 0.08753 0.0
O581 O 0.88996 0.42068 0.07944 0.0
O582 O 0.82596 0.30212 0.02271 0.0
C583 C 0.85158 0.43789 0.0824 0.0
O584 O 0.8351 0.3697 0.1639 0.0
C585 C 0.85828 0.31105 -0.00378 0.0
O586 O 0.88215 0.31761 0.1677 0.0
O587 O 0.89331 0.32673 0.01478 0.0
C588 C 0.08529 0.23538 0.63095 0.0
O589 O 0.0535 0.2387 0.65875 0.0
Cd590 Cd 0.00214 0.29672 0.6548 0.0
O591 O 0.09713 0.26791 0.60456 0.0
Cd592 Cd 0.0886 0.35162 0.5856 0.0
C593 C 0.08236 0.35407 0.68932 0.0
O594 O 0.01624 0.32342 0.58168 0.0
O595 O 0.01592 0.39553 0.58177 0.0
O596 O 0.12924 0.32915 0.51804 0.0
C597 C -0.00598 0.35868 0.57942 0.0
O598 O 0.0429 0.35986 0.67647 0.0
C599 C 0.12293 0.36404 0.4945 0.0
O600 O 0.11467 0.36492 0.66283 0.0
O601 O 0.10951 0.3972 0.51662 0.0
C602 C 0.19651 0.59251 0.10632 0.0
O603 O 0.2022 0.55539 0.12652 0.0
Cd604 Cd 0.14254 0.50288 0.13539 0.0
O605 O 0.15871 0.60238 0.08928 0.0
Cd606 Cd 0.07604 0.5918 0.07088 0.0
C607 C 0.07972 0.5923 0.17298 0.0
O608 O 0.09828 0.51696 0.07162 0.0
O609 O 0.0263 0.52091 0.07171 0.0
O610 O 0.11159 0.62206 0.00218 0.0
C611 C 0.06069 0.49683 0.07237 0.0
O612 O 0.09893 0.5624 0.15207 0.0
C613 C 0.07876 0.61829 -0.02406 0.0
O614 O 0.05777 0.62041 0.14983 0.0
O615 O 0.04136 0.60971 -0.00478 0.0
C616 C 0.95262 0.58178 0.56834 0.0
O617 O 0.95503 0.61537 0.54201 0.0
Cd618 Cd 0.89771 0.66583 0.52352 0.0
O619 O 0.91572 0.5693 0.58622 0.0
Cd620 Cd 0.84149 0.59925 0.59462 0.0
C621 C 0.82584 0.58755 0.4781 0.0
O622 O 0.86829 0.67407 0.59559 0.0
O623 O 0.79653 0.66799 0.60115 0.0
O624 O 0.8787 0.60121 0.66529 0.0
C625 C 0.83175 0.6925 0.60394 0.0
O626 O 0.85165 0.62184 0.47577 0.0
C627 C 0.84774 0.58231 0.68797 0.0
O628 O 0.81626 0.56889 0.51598 0.0
O629 O 0.81383 0.56666 0.6668 0.0
C630 C 0.20742 0.3587 0.80003 0.0
O631 O 0.2095 0.39788 0.7831 0.0
Cd632 Cd 0.14871 0.4448 0.78138 0.0
O633 O 0.17158 0.34268 0.81897 0.0
Cd634 Cd 0.0876 0.34872 0.83946 0.0
C635 C 0.08868 0.35197 0.73701 0.0
O636 O 0.10551 0.42463 0.84465 0.0
O637 O 0.03469 0.41407 0.8345 0.0
O638 O 0.11507 0.31821 0.91007 0.0
C639 C 0.0674 0.44123 0.83998 0.0
O640 O 0.10954 0.38402 0.75421 0.0
C641 C 0.07942 0.32059 0.93302 0.0
O642 O 0.06903 0.32277 0.76242 0.0
O643 O 0.04451 0.32757 0.91026 0.0
C644 C -0.0154 0.58833 0.33958 0.0
O645 O -0.01644 0.6231 0.36341 0.0
Cd646 Cd 0.04227 0.67256 0.38561 0.0
O647 O 0.0209 0.57487 0.32277 0.0
Cd648 Cd 0.09862 0.60168 0.31511 0.0
C649 C 0.11146 0.58858 0.42854 0.0
O650 O 0.08388 0.67821 0.32049 0.0
O651 O 0.15418 0.66346 0.31869 0.0
O652 O 0.06306 0.6196 0.24507 0.0
C653 C 0.12387 0.69259 0.32059 0.0
O654 O 0.08566 0.62136 0.42549 0.0
C655 C 0.08682 0.59483 0.22129 0.0
O656 O 0.12394 0.56819 0.39321 0.0
O657 O 0.11668 0.57174 0.24104 0.0
C658 C 0.94252 0.35364 0.36121 0.0
O659 O 0.93654 0.3153 0.37952 0.0
Cd660 Cd 0.88262 0.26094 0.40179 0.0
O661 O 0.91017 0.37461 0.34426 0.0
Cd662 Cd 0.83336 0.34223 0.33054 0.0
C663 C 0.81874 0.35153 0.43657 0.0
O664 O 0.84711 0.26265 0.33435 0.0
O665 O 0.77753 0.27939 0.33424 0.0
O666 O 0.87444 0.32444 0.26298 0.0
C667 C 0.80689 0.24921 0.33368 0.0
O668 O 0.84062 0.32009 0.42127 0.0
C669 C 0.84982 0.34595 0.23671 0.0
O670 O 0.80314 0.37852 0.40759 0.0
O671 O 0.81812 0.36847 0.25403 0.0
loop_
_geom_bond_atom_site_label_1
_geom_bond_atom_site_label_2
_geom_bond_distance
_geom_bond_site_symmetry_2
_ccdc_geom_bond_type
C0 O1 1.306 . S
C0 O3 1.160 . S
O1 C0 1.306 . S
O1 Cd2 2.228 . S
Cd2 O1 2.228 . S
Cd2 O6 2.273 . S
Cd2 O10 2.277 . S
O3 C0 1.160 . S
O3 Cd4 2.203 . S
Cd4 O3 2.203 . S
Cd4 O6 2.411 . S
Cd4 O7 2.333 . S
Cd4 O8 2.352 . S
Cd4 O12 2.277 . S
Cd4 O13 2.356 . S
C5 O10 1.209 . S
C5 O12 1.226 . S
O6 Cd2 2.273 . S
O6 Cd4 2.411 . S
O6 C9 1.320 . S
O7 Cd4 2.333 . S
O7 C9 1.214 . S
O8 Cd4 2.352 . S
O8 C11 1.258 . S
C9 O6 1.320 . S
C9 O7 1.214 . S
O10 Cd2 2.277 . S
O10 C5 1.209 . S
C11 O8 1.258 . S
C11 O13 1.282 . S
O12 Cd4 2.277 . S
O12 C5 1.226 . S
O13 Cd4 2.356 . S
O13 C11 1.282 . S
C14 O15 1.306 . S
C14 O17 1.160 . S
O15 C14 1.306 . S
O15 Cd16 2.228 . S
Cd16 O15 2.228 . S
Cd16 O20 2.273 . S
Cd16 O24 2.277 . S
O17 C14 1.160 . S
O17 Cd18 2.203 . S
Cd18 O17 2.203 . S
Cd18 O20 2.411 . S
Cd18 O21 2.333 . S
Cd18 O22 2.352 . S
Cd18 O26 2.277 . S
Cd18 O27 2.356 . S
C19 O24 1.209 . S
C19 O26 1.226 . S
O20 Cd16 2.273 . S
O20 Cd18 2.411 . S
O20 C23 1.320 . S
O21 Cd18 2.333 . S
O21 C23 1.214 . S
O22 Cd18 2.352 . S
O22 C25 1.258 . S
C23 O20 1.320 . S
C23 O21 1.214 . S
O24 Cd16 2.277 . S
O24 C19 1.209 . S
C25 O22 1.258 . S
C25 O27 1.282 . S
O26 Cd18 2.277 . S
O26 C19 1.226 . S
O27 Cd18 2.356 . S
O27 C25 1.282 . S
C28 O29 1.306 . S
C28 O31 1.160 . S
O29 C28 1.306 . S
O29 Cd30 2.228 . S
Cd30 O29 2.228 . S
Cd30 O34 2.273 . S
Cd30 O38 2.277 . S
O31 C28 1.160 . S
O31 Cd32 2.203 . S
Cd32 O31 2.203 . S
Cd32 O34 2.411 . S
Cd32 O35 2.333 . S
Cd32 O36 2.352 . S
Cd32 O40 2.277 . S
Cd32 O41 2.356 . S
C33 O38 1.209 . S
C33 O40 1.226 . S
O34 Cd30 2.273 . S
O34 Cd32 2.411 . S
O34 C37 1.320 . S
O35 Cd32 2.333 . S
O35 C37 1.214 . S
O36 Cd32 2.352 . S
O36 C39 1.258 . S
C37 O34 1.320 . S
C37 O35 1.214 . S
O38 Cd30 2.277 . S
O38 C33 1.209 . S
C39 O36 1.258 . S
C39 O41 1.282 . S
O40 Cd32 2.277 . S
O40 C33 1.226 . S
O41 Cd32 2.356 . S
O41 C39 1.282 . S
C42 O43 1.306 . S
C42 O45 1.160 . S
O43 C42 1.306 . S
O43 Cd44 2.228 . S
Cd44 O43 2.228 . S
Cd44 O48 2.273 . S
Cd44 O52 2.277 . S
O45 C42 1.160 . S
O45 Cd46 2.203 . S
Cd46 O45 2.203 . S
Cd46 O48 2.411 . S
Cd46 O49 2.333 . S
Cd46 O50 2.352 . S
Cd46 O54 2.277 . S
Cd46 O55 2.356 . S
C47 O52 1.209 . S
C47 O54 1.226 . S
O48 Cd44 2.273 . S
O48 Cd46 2.411 . S
O48 C51 1.320 . S
O49 Cd46 2.333 . S
O49 C51 1.214 . S
O50 Cd46 2.352 . S
O50 C53 1.258 . S
C51 O48 1.320 . S
C51 O49 1.214 . S
O52 Cd44 2.277 . S
O52 C47 1.209 . S
C53 O50 1.258 . S
C53 O55 1.282 . S
O54 Cd46 2.277 . S
O54 C47 1.226 . S
O55 Cd46 2.356 . S
O55 C53 1.282 . S
C56 O57 1.306 . S
C56 O59 1.160 . S
O57 C56 1.306 . S
O57 Cd58 2.228 . S
Cd58 O57 2.228 . S
Cd58 O62 2.273 . S
Cd58 O66 2.277 . S
O59 C56 1.160 . S
O59 Cd60 2.203 . S
Cd60 O59 2.203 . S
Cd60 O62 2.411 . S
Cd60 O63 2.333 . S
Cd60 O64 2.352 . S
Cd60 O68 2.277 . S
Cd60 O69 2.356 . S
C61 O66 1.209 . S
C61 O68 1.226 . S
O62 Cd58 2.273 . S
O62 Cd60 2.411 . S
O62 C65 1.320 . S
O63 Cd60 2.333 . S
O63 C65 1.214 . S
O64 Cd60 2.352 . S
O64 C67 1.258 . S
C65 O62 1.320 . S
C65 O63 1.214 . S
O66 Cd58 2.277 . S
O66 C61 1.209 . S
C67 O64 1.258 . S
C67 O69 1.282 . S
O68 Cd60 2.277 . S
O68 C61 1.226 . S
O69 Cd60 2.356 . S
O69 C67 1.282 . S
C70 O71 1.306 . S
C70 O73 1.160 . S
O71 C70 1.306 . S
O71 Cd72 2.228 . S
Cd72 O71 2.228 . S
Cd72 O76 2.273 . S
Cd72 O80 2.277 . S
O73 C70 1.160 . S
O73 Cd74 2.203 . S
Cd74 O73 2.203 . S
Cd74 O76 2.411 . S
Cd74 O77 2.333 . S
Cd74 O78 2.352 . S
Cd74 O82 2.277 . S
Cd74 O83 2.356 . S
C75 O80 1.209 . S
C75 O82 1.226 . S
O76 Cd72 2.273 . S
O76 Cd74 2.411 . S
O76 C79 1.320 . S
O77 Cd74 2.333 . S
O77 C79 1.214 . S
O78 Cd74 2.352 . S
O78 C81 1.258 . S
C79 O76 1.320 . S
C79 O77 1.214 . S
O80 Cd72 2.277 . S
O80 C75 1.209 . S
C81 O78 1.258 . S
C81 O83 1.282 . S
O82 Cd74 2.277 . S
O82 C75 1.226 . S
O83 Cd74 2.356 . S
O83 C81 1.282 . S
C84 O85 1.306 . S
C84 O87 1.160 . S
O85 C84 1.306 . S
O85 Cd86 2.228 . S
Cd86 O85 2.228 . S
Cd86 O90 2.273 . S
Cd86 O94 2.277 . S
O87 C84 1.160 . S
O87 Cd88 2.203 . S
Cd88 O87 2.203 . S
Cd88 O90 2.411 . S
Cd88 O91 2.333 . S
Cd88 O92 2.352 . S
Cd88 O96 2.277 . S
Cd88 O97 2.356 . S
C89 O94 1.209 . S
C89 O96 1.226 . S
O90 Cd86 2.273 . S
O90 Cd88 2.411 . S
O90 C93 1.320 . S
O91 Cd88 2.333 . S
O91 C93 1.214 . S
O92 Cd88 2.352 . S
O92 C95 1.258 . S
C93 O90 1.320 . S
C93 O91 1.214 . S
O94 Cd86 2.277 . S
O94 C89 1.209 . S
C95 O92 1.258 . S
C95 O97 1.282 . S
O96 Cd88 2.277 . S
O96 C89 1.226 . S
O97 Cd88 2.356 . S
O97 C95 1.282 . S
C98 O99 1.306 . S
C98 O101 1.160 . S
O99 C98 1.306 . S
O99 Cd100 2.228 . S
Cd100 O99 2.228 . S
Cd100 O104 2.273 . S
Cd100 O108 2.277 . S
O101 C98 1.160 . S
O101 Cd102 2.203 . S
Cd102 O101 2.203 . S
Cd102 O104 2.411 . S
Cd102 O105 2.333 . S
Cd102 O106 2.352 . S
Cd102 O110 2.277 . S
Cd102 O111 2.356 . S
C103 O108 1.209 . S
C103 O110 1.226 . S
O104 Cd100 2.273 . S
O104 Cd102 2.411 . S
O104 C107 1.320 . S
O105 Cd102 2.333 . S
O105 C107 1.214 . S
O106 Cd102 2.352 . S
O106 C109 1.258 . S
C107 O104 1.320 . S
C107 O105 1.214 . S
O108 Cd100 2.277 . S
O108 C103 1.209 . S
C109 O106 1.258 . S
C109 O111 1.282 . S
O110 Cd102 2.277 . S
O110 C103 1.226 . S
O111 Cd102 2.356 . S
O111 C109 1.282 . S
C112 O113 1.306 . S
C112 O115 1.160 . S
O113 C112 1.306 . S
O113 Cd114 2.228 . S
Cd114 O113 2.228 . S
Cd114 O118 2.273 . S
Cd114 O122 2.277 . S
O115 C112 1.160 . S
O115 Cd116 2.203 . S
Cd116 O115 2.203 . S
Cd116 O118 2.411 . S
Cd116 O119 2.333 . S
Cd116 O120 2.352 . S
Cd116 O124 2.277 . S
Cd116 O125 2.356 . S
C117 O122 1.209 . S
C117 O124 1.226 . S
O118 Cd114 2.273 . S
O118 Cd116 2.411 . S
O118 C121 1.320 . S
O119 Cd116 2.333 . S
O119 C121 1.214 . S
O120 Cd116 2.352 . S
O120 C123 1.258 . S
C121 O118 1.320 . S
C121 O119 1.214 . S
O122 Cd114 2.277 . S
O122 C117 1.209 . S
C123 O120 1.258 . S
C123 O125 1.282 . S
O124 Cd116 2.277 . S
O124 C117 1.226 . S
O125 Cd116 2.356 . S
O125 C123 1.282 . S
C126 O127 1.306 . S
C126 O129 1.160 . S
O127 C126 1.306 . S
O127 Cd128 2.228 . S
Cd128 O127 2.228 . S
Cd128 O132 2.273 . S
Cd128 O136 2.277 . S
O129 C126 1.160 . S
O129 Cd130 2.203 . S
Cd130 O129 2.203 . S
Cd130 O132 2.411 . S
Cd130 O133 2.333 . S
Cd130 O134 2.352 . S
Cd130 O138 2.277 . S
Cd130 O139 2.356 . S
C131 O136 1.209 . S
C131 O138 1.226 . S
O132 Cd128 2.273 . S
O132 Cd130 2.411 . S
O132 C135 1.320 . S
O133 Cd130 2.333 . S
O133 C135 1.214 . S
O134 Cd130 2.352 . S
O134 C137 1.258 . S
C135 O132 1.320 . S
C135 O133 1.214 . S
O136 Cd128 2.277 . S
O136 C131 1.209 . S
C137 O134 1.258 . S
C137 O139 1.282 . S
O138 Cd130 2.277 . S
O138 C131 1.226 . S
O139 Cd130 2.356 . S
O139 C137 1.282 . S
C140 O141 1.306 . S
C140 O143 1.160 . S
O141 C140 1.306 . S
O141 Cd142 2.228 . S
Cd142 O141 2.228 . S
Cd142 O146 2.273 . S
Cd142 O150 2.277 . S
O143 C140 1.160 . S
O143 Cd144 2.203 . S
Cd144 O143 2.203 . S
Cd144 O146 2.411 . S
Cd144 O147 2.333 . S
Cd144 O148 2.352 . S
Cd144 O152 2.277 . S
Cd144 O153 2.356 . S
C145 O150 1.209 . S
C145 O152 1.226 . S
O146 Cd142 2.273 . S
O146 Cd144 2.411 . S
O146 C149 1.320 . S
O147 Cd144 2.333 . S
O147 C149 1.214 . S
O148 Cd144 2.352 . S
O148 C151 1.258 . S
C149 O146 1.320 . S
C149 O147 1.214 . S
O150 Cd142 2.277 . S
O150 C145 1.209 . S
C151 O148 1.258 . S
C151 O153 1.282 . S
O152 Cd144 2.277 . S
O152 C145 1.226 . S
O153 Cd144 2.356 . S
O153 C151 1.282 . S
C154 O155 1.306 . S
C154 O157 1.160 . S
O155 C154 1.306 . S
O155 Cd156 2.228 . S
Cd156 O155 2.228 . S
Cd156 O160 2.273 . S
Cd156 O164 2.277 . S
O157 C154 1.160 . S
O157 Cd158 2.203 . S
Cd158 O157 2.203 . S
Cd158 O160 2.411 . S
Cd158 O161 2.333 . S
Cd158 O162 2.352 . S
Cd158 O166 2.277 . S
Cd158 O167 2.356 . S
C159 O164 1.209 . S
C159 O166 1.226 . S
O160 Cd156 2.273 . S
O160 Cd158 2.411 . S
O160 C163 1.320 . S
O161 Cd158 2.333 . S
O161 C163 1.214 . S
O162 Cd158 2.352 . S
O162 C165 1.258 . S
C163 O160 1.320 . S
C163 O161 1.214 . S
O164 Cd156 2.277 . S
O164 C159 1.209 . S
C165 O162 1.258 . S
C165 O167 1.282 . S
O166 Cd158 2.277 . S
O166 C159 1.226 . S
O167 Cd158 2.356 . S
O167 C165 1.282 . S
C168 O169 1.306 . S
C168 O171 1.160 . S
O169 C168 1.306 . S
O169 Cd170 2.228 . S
Cd170 O169 2.228 . S
Cd170 O174 2.273 . S
Cd170 O178 2.277 . S
O171 C168 1.160 . S
O171 Cd172 2.203 . S
Cd172 O171 2.203 . S
Cd172 O174 2.411 . S
Cd172 O175 2.333 . S
Cd172 O176 2.352 . S
Cd172 O180 2.277 . S
Cd172 O181 2.356 . S
C173 O178 1.209 . S
C173 O180 1.226 . S
O174 Cd170 2.273 . S
O174 Cd172 2.411 . S
O174 C177 1.320 . S
O175 Cd172 2.333 . S
O175 C177 1.214 . S
O176 Cd172 2.352 . S
O176 C179 1.258 . S
C177 O174 1.320 . S
C177 O175 1.214 . S
O178 Cd170 2.277 . S
O178 C173 1.209 . S
C179 O176 1.258 . S
C179 O181 1.282 . S
O180 Cd172 2.277 . S
O180 C173 1.226 . S
O181 Cd172 2.356 . S
O181 C179 1.282 . S
C182 O183 1.306 . S
C182 O185 1.160 . S
O183 C182 1.306 . S
O183 Cd184 2.228 . S
Cd184 O183 2.228 . S
Cd184 O188 2.273 . S
Cd184 O192 2.277 . S
O185 C182 1.160 . S
O185 Cd186 2.203 . S
Cd186 O185 2.203 . S
Cd186 O188 2.411 . S
Cd186 O189 2.333 . S
Cd186 O190 2.352 . S
Cd186 O194 2.277 . S
Cd186 O195 2.356 . S
C187 O192 1.209 . S
C187 O194 1.226 . S
O188 Cd184 2.273 . S
O188 Cd186 2.411 . S
O188 C191 1.320 . S
O189 Cd186 2.333 . S
O189 C191 1.214 . S
O190 Cd186 2.352 . S
O190 C193 1.258 . S
C191 O188 1.320 . S
C191 O189 1.214 . S
O192 Cd184 2.277 . S
O192 C187 1.209 . S
C193 O190 1.258 . S
C193 O195 1.282 . S
O194 Cd186 2.277 . S
O194 C187 1.226 . S
O195 Cd186 2.356 . S
O195 C193 1.282 . S
C196 O197 1.306 . S
C196 O199 1.160 . S
O197 C196 1.306 . S
O197 Cd198 2.228 . S
Cd198 O197 2.228 . S
Cd198 O202 2.273 . S
Cd198 O206 2.277 . S
O199 C196 1.160 . S
O199 Cd200 2.203 . S
Cd200 O199 2.203 . S
Cd200 O202 2.411 . S
Cd200 O203 2.333 . S
Cd200 O204 2.352 . S
Cd200 O208 2.277 . S
Cd200 O209 2.356 . S
C201 O206 1.209 . S
C201 O208 1.226 . S
O202 Cd198 2.273 . S
O202 Cd200 2.411 . S
O202 C205 1.320 . S
O203 Cd200 2.333 . S
O203 C205 1.214 . S
O204 Cd200 2.352 . S
O204 C207 1.258 . S
C205 O202 1.320 . S
C205 O203 1.214 . S
O206 Cd198 2.277 . S
O206 C201 1.209 . S
C207 O204 1.258 . S
C207 O209 1.282 . S
O208 Cd200 2.277 . S
O208 C201 1.226 . S
O209 Cd200 2.356 . S
O209 C207 1.282 . S
C210 O211 1.306 . S
C210 O213 1.160 . S
O211 C210 1.306 . S
O211 Cd212 2.228 . S
Cd212 O211 2.228 . S
Cd212 O216 2.273 . S
Cd212 O220 2.277 . S
O213 C210 1.160 . S
O213 Cd214 2.203 . S
Cd214 O213 2.203 . S
Cd214 O216 2.411 . S
Cd214 O217 2.333 . S
Cd214 O218 2.352 . S
Cd214 O222 2.277 . S
Cd214 O223 2.356 . S
C215 O220 1.209 . S
C215 O222 1.226 . S
O216 Cd212 2.273 . S
O216 Cd214 2.411 . S
O216 C219 1.320 . S
O217 Cd214 2.333 . S
O217 C219 1.214 . S
O218 Cd214 2.352 . S
O218 C221 1.258 . S
C219 O216 1.320 . S
C219 O217 1.214 . S
O220 Cd212 2.277 . S
O220 C215 1.209 . S
C221 O218 1.258 . S
C221 O223 1.282 . S
O222 Cd214 2.277 . S
O222 C215 1.226 . S
O223 Cd214 2.356 . S
O223 C221 1.282 . S
C224 O225 1.306 . S
C224 O227 1.160 . S
O225 C224 1.306 . S
O225 Cd226 2.228 . S
Cd226 O225 2.228 . S
Cd226 O230 2.273 . S
Cd226 O234 2.277 . S
O227 C224 1.160 . S
O227 Cd228 2.203 . S
Cd228 O227 2.203 . S
Cd228 O230 2.411 . S
Cd228 O231 2.333 . S
Cd228 O232 2.352 . S
Cd228 O236 2.277 . S
Cd228 O237 2.356 . S
C229 O234 1.209 . S
C229 O236 1.226 . S
O230 Cd226 2.273 . S
O230 Cd228 2.411 . S
O230 C233 1.320 . S
O231 Cd228 2.333 . S
O231 C233 1.214 . S
O232 Cd228 2.352 . S
O232 C235 1.258 . S
C233 O230 1.320 . S
C233 O231 1.214 . S
O234 Cd226 2.277 . S
O234 C229 1.209 . S
C235 O232 1.258 . S
C235 O237 1.282 . S
O236 Cd228 2.277 . S
O236 C229 1.226 . S
O237 Cd228 2.356 . S
O237 C235 1.282 . S
C238 O239 1.306 . S
C238 O241 1.160 . S
O239 C238 1.306 . S
O239 Cd240 2.228 . S
Cd240 O239 2.228 . S
Cd240 O244 2.273 . S
Cd240 O248 2.277 . S
O241 C238 1.160 . S
O241 Cd242 2.203 . S
Cd242 O241 2.203 . S
Cd242 O244 2.411 . S
Cd242 O245 2.333 . S
Cd242 O246 2.352 . S
Cd242 O250 2.277 . S
Cd242 O251 2.356 . S
C243 O248 1.209 . S
C243 O250 1.226 . S
O244 Cd240 2.273 . S
O244 Cd242 2.411 . S
O244 C247 1.320 . S
O245 Cd242 2.333 . S
O245 C247 1.214 . S
O246 Cd242 2.352 . S
O246 C249 1.258 . S
C247 O244 1.320 . S
C247 O245 1.214 . S
O248 Cd240 2.277 . S
O248 C243 1.209 . S
C249 O246 1.258 . S
C249 O251 1.282 . S
O250 Cd242 2.277 . S
O250 C243 1.226 . S
O251 Cd242 2.356 . S
O251 C249 1.282 . S
C252 O253 1.306 . S
C252 O255 1.160 . S
O253 C252 1.306 . S
O253 Cd254 2.228 . S
Cd254 O253 2.228 . S
Cd254 O258 2.273 . S
Cd254 O262 2.277 . S
O255 C252 1.160 . S
O255 Cd256 2.203 . S
Cd256 O255 2.203 . S
Cd256 O258 2.411 . S
Cd256 O259 2.333 . S
Cd256 O260 2.352 . S
Cd256 O264 2.277 . S
Cd256 O265 2.356 . S
C257 O262 1.209 . S
C257 O264 1.226 . S
O258 Cd254 2.273 . S
O258 Cd256 2.411 . S
O258 C261 1.320 . S
O259 Cd256 2.333 . S
O259 C261 1.214 . S
O260 Cd256 2.352 . S
O260 C263 1.258 . S
C261 O258 1.320 . S
C261 O259 1.214 . S
O262 Cd254 2.277 . S
O262 C257 1.209 . S
C263 O260 1.258 . S
C263 O265 1.282 . S
O264 Cd256 2.277 . S
O264 C257 1.226 . S
O265 Cd256 2.356 . S
O265 C263 1.282 . S
C266 O267 1.306 . S
C266 O269 1.160 . S
O267 C266 1.306 . S
O267 Cd268 2.228 . S
Cd268 O267 2.228 . S
Cd268 O272 2.273 . S
Cd268 O276 2.277 . S
O269 C266 1.160 . S
O269 Cd270 2.203 . S
Cd270 O269 2.203 . S
Cd270 O272 2.411 . S
Cd270 O273 2.333 . S
Cd270 O274 2.352 . S
Cd270 O278 2.277 . S
Cd270 O279 2.356 . S
C271 O276 1.209 . S
C271 O278 1.226 . S
O272 Cd268 2.273 . S
O272 Cd270 2.411 . S
O272 C275 1.320 . S
O273 Cd270 2.333 . S
O273 C275 1.214 . S
O274 Cd270 2.352 . S
O274 C277 1.258 . S
C275 O272 1.320 . S
C275 O273 1.214 . S
O276 Cd268 2.277 . S
O276 C271 1.209 . S
C277 O274 1.258 . S
C277 O279 1.282 . S
O278 Cd270 2.277 . S
O278 C271 1.226 . S
O279 Cd270 2.356 . S
O279 C277 1.282 . S
C280 O281 1.306 . S
C280 O283 1.160 . S
O281 C280 1.306 . S
O281 Cd282 2.228 . S
Cd282 O281 2.228 . S
Cd282 O286 2.273 . S
Cd282 O290 2.277 . S
O283 C280 1.160 . S
O283 Cd284 2.203 . S
Cd284 O283 2.203 . S
Cd284 O286 2.411 . S
Cd284 O287 2.333 . S
Cd284 O288 2.352 . S
Cd284 O292 2.277 . S
Cd284 O293 2.356 . S
C285 O290 1.209 . S
C285 O292 1.226 . S
O286 Cd282 2.273 . S
O286 Cd284 2.411 . S
O286 C289 1.320 . S
O287 Cd284 2.333 . S
O287 C289 1.214 . S
O288 Cd284 2.352 . S
O288 C291 1.258 . S
C289 O286 1.320 . S
C289 O287 1.214 . S
O290 Cd282 2.277 . S
O290 C285 1.209 . S
C291 O288 1.258 . S
C291 O293 1.282 . S
O292 Cd284 2.277 . S
O292 C285 1.226 . S
O293 Cd284 2.356 . S
O293 C291 1.282 . S
C294 O295 1.306 . S
C294 O297 1.160 . S
O295 C294 1.306 . S
O295 Cd296 2.228 . S
Cd296 O295 2.228 . S
Cd296 O300 2.273 . S
Cd296 O304 2.277 . S
O297 C294 1.160 . S
O297 Cd298 2.203 . S
Cd298 O297 2.203 . S
Cd298 O300 2.411 . S
Cd298 O301 2.333 . S
Cd298 O302 2.352 . S
Cd298 O306 2.277 . S
Cd298 O307 2.356 . S
C299 O304 1.209 . S
C299 O306 1.226 . S
O300 Cd296 2.273 . S
O300 Cd298 2.411 . S
O300 C303 1.320 . S
O301 Cd298 2.333 . S
O301 C303 1.214 . S
O302 Cd298 2.352 . S
O302 C305 1.258 . S
C303 O300 1.320 . S
C303 O301 1.214 . S
O304 Cd296 2.277 . S
O304 C299 1.209 . S
C305 O302 1.258 . S
C305 O307 1.282 . S
O306 Cd298 2.277 . S
O306 C299 1.226 . S
O307 Cd298 2.356 . S
O307 C305 1.282 . S
C308 O309 1.306 . S
C308 O311 1.160 . S
O309 C308 1.306 . S
O309 Cd310 2.228 . S
Cd310 O309 2.228 . S
Cd310 O314 2.273 . S
Cd310 O318 2.277 . S
O311 C308 1.160 . S
O311 Cd312 2.203 . S
Cd312 O311 2.203 . S
Cd312 O314 2.411 . S
Cd312 O315 2.333 . S
Cd312 O316 2.352 . S
Cd312 O320 2.277 . S
Cd312 O321 2.356 . S
C313 O318 1.209 . S
C313 O320 1.226 . S
O314 Cd310 2.273 . S
O314 Cd312 2.411 . S
O314 C317 1.320 . S
O315 Cd312 2.333 . S
O315 C317 1.214 . S
O316 Cd312 2.352 . S
O316 C319 1.258 . S
C317 O314 1.320 . S
C317 O315 1.214 . S
O318 Cd310 2.277 . S
O318 C313 1.209 . S
C319 O316 1.258 . S
C319 O321 1.282 . S
O320 Cd312 2.277 . S
O320 C313 1.226 . S
O321 Cd312 2.356 . S
O321 C319 1.282 . S
C322 O323 1.306 . S
C322 O325 1.160 . S
O323 C322 1.306 . S
O323 Cd324 2.228 . S
Cd324 O323 2.228 . S
Cd324 O328 2.273 . S
Cd324 O332 2.277 . S
O325 C322 1.160 . S
O325 Cd326 2.203 . S
Cd326 O325 2.203 . S
Cd326 O328 2.411 . S
Cd326 O329 2.333 . S
Cd326 O330 2.352 . S
Cd326 O334 2.277 . S
Cd326 O335 2.356 . S
C327 O332 1.209 . S
C327 O334 1.226 . S
O328 Cd324 2.273 . S
O328 Cd326 2.411 . S
O328 C331 1.320 . S
O329 Cd326 2.333 . S
O329 C331 1.214 . S
O330 Cd326 2.352 . S
O330 C333 1.258 . S
C331 O328 1.320 . S
C331 O329 1.214 . S
O332 Cd324 2.277 . S
O332 C327 1.209 . S
C333 O330 1.258 . S
C333 O335 1.282 . S
O334 Cd326 2.277 . S
O334 C327 1.226 . S
O335 Cd326 2.356 . S
O335 C333 1.282 . S
C336 O337 1.306 . S
C336 O339 1.160 . S
O337 C336 1.306 . S
O337 Cd338 2.228 . S
Cd338 O337 2.228 . S
Cd338 O342 2.273 . S
Cd338 O346 2.277 . S
O339 C336 1.160 . S
O339 Cd340 2.203 . S
Cd340 O339 2.203 . S
Cd340 O342 2.411 . S
Cd340 O343 2.333 . S
Cd340 O344 2.352 . S
Cd340 O348 2.277 . S
Cd340 O349 2.356 . S
C341 O346 1.209 . S
C341 O348 1.226 . S
O342 Cd338 2.273 . S
O342 Cd340 2.411 . S
O342 C345 1.320 . S
O343 Cd340 2.333 . S
O343 C345 1.214 . S
O344 Cd340 2.352 . S
O344 C347 1.258 . S
C345 O342 1.320 . S
C345 O343 1.214 . S
O346 Cd338 2.277 . S
O346 C341 1.209 . S
C347 O344 1.258 . S
C347 O349 1.282 . S
O348 Cd340 2.277 . S
O348 C341 1.226 . S
O349 Cd340 2.356 . S
O349 C347 1.282 . S
C350 O351 1.306 . S
C350 O353 1.160 . S
O351 C350 1.306 . S
O351 Cd352 2.228 . S
Cd352 O351 2.228 . S
Cd352 O356 2.273 . S
Cd352 O360 2.277 . S
O353 C350 1.160 . S
O353 Cd354 2.203 . S
Cd354 O353 2.203 . S
Cd354 O356 2.411 . S
Cd354 O357 2.333 . S
Cd354 O358 2.352 . S
Cd354 O362 2.277 . S
Cd354 O363 2.356 . S
C355 O360 1.209 . S
C355 O362 1.226 . S
O356 Cd352 2.273 . S
O356 Cd354 2.411 . S
O356 C359 1.320 . S
O357 Cd354 2.333 . S
O357 C359 1.214 . S
O358 Cd354 2.352 . S
O358 C361 1.258 . S
C359 O356 1.320 . S
C359 O357 1.214 . S
O360 Cd352 2.277 . S
O360 C355 1.209 . S
C361 O358 1.258 . S
C361 O363 1.282 . S
O362 Cd354 2.277 . S
O362 C355 1.226 . S
O363 Cd354 2.356 . S
O363 C361 1.282 . S
C364 O365 1.306 . S
C364 O367 1.160 . S
O365 C364 1.306 . S
O365 Cd366 2.228 . S
Cd366 O365 2.228 . S
Cd366 O370 2.273 . S
Cd366 O374 2.277 . S
O367 C364 1.160 . S
O367 Cd368 2.203 . S
Cd368 O367 2.203 . S
Cd368 O370 2.411 . S
Cd368 O371 2.333 . S
Cd368 O372 2.352 . S
Cd368 O376 2.277 . S
Cd368 O377 2.356 . S
C369 O374 1.209 . S
C369 O376 1.226 . S
O370 Cd366 2.273 . S
O370 Cd368 2.411 . S
O370 C373 1.320 . S
O371 Cd368 2.333 . S
O371 C373 1.214 . S
O372 Cd368 2.352 . S
O372 C375 1.258 . S
C373 O370 1.320 . S
C373 O371 1.214 . S
O374 Cd366 2.277 . S
O374 C369 1.209 . S
C375 O372 1.258 . S
C375 O377 1.282 . S
O376 Cd368 2.277 . S
O376 C369 1.226 . S
O377 Cd368 2.356 . S
O377 C375 1.282 . S
C378 O379 1.306 . S
C378 O381 1.160 . S
O379 C378 1.306 . S
O379 Cd380 2.228 . S
Cd380 O379 2.228 . S
Cd380 O384 2.273 . S
Cd380 O388 2.277 . S
O381 C378 1.160 . S
O381 Cd382 2.203 . S
Cd382 O381 2.203 . S
Cd382 O384 2.411 . S
Cd382 O385 2.333 . S
Cd382 O386 2.352 . S
Cd382 O390 2.277 . S
Cd382 O391 2.356 . S
C383 O388 1.209 . S
C383 O390 1.226 . S
O384 Cd380 2.273 . S
O384 Cd382 2.411 . S
O384 C387 1.320 . S
O385 Cd382 2.333 . S
O385 C387 1.214 . S
O386 Cd382 2.352 . S
O386 C389 1.258 . S
C387 O384 1.320 . S
C387 O385 1.214 . S
O388 Cd380 2.277 . S
O388 C383 1.209 . S
C389 O386 1.258 . S
C389 O391 1.282 . S
O390 Cd382 2.277 . S
O390 C383 1.226 . S
O391 Cd382 2.356 . S
O391 C389 1.282 . S
C392 O393 1.306 . S
C392 O395 1.160 . S
O393 C392 1.306 . S
O393 Cd394 2.228 . S
Cd394 O393 2.228 . S
Cd394 O398 2.273 . S
Cd394 O402 2.277 . S
O395 C392 1.160 . S
O395 Cd396 2.203 . S
Cd396 O395 2.203 . S
Cd396 O398 2.411 . S
Cd396 O399 2.333 . S
Cd396 O400 2.352 . S
Cd396 O404 2.277 . S
Cd396 O405 2.356 . S
C397 O402 1.209 . S
C397 O404 1.226 . S
O398 Cd394 2.273 . S
O398 Cd396 2.411 . S
O398 C401 1.320 . S
O399 Cd396 2.333 . S
O399 C401 1.214 . S
O400 Cd396 2.352 . S
O400 C403 1.258 . S
C401 O398 1.320 . S
C401 O399 1.214 . S
O402 Cd394 2.277 . S
O402 C397 1.209 . S
C403 O400 1.258 . S
C403 O405 1.282 . S
O404 Cd396 2.277 . S
O404 C397 1.226 . S
O405 Cd396 2.356 . S
O405 C403 1.282 . S
C406 O407 1.306 . S
C406 O409 1.160 . S
O407 C406 1.306 . S
O407 Cd408 2.228 . S
Cd408 O407 2.228 . S
Cd408 O412 2.273 . S
Cd408 O416 2.277 . S
O409 C406 1.160 . S
O409 Cd410 2.203 . S
Cd410 O409 2.203 . S
Cd410 O412 2.411 . S
Cd410 O413 2.333 . S
Cd410 O414 2.352 . S
Cd410 O418 2.277 . S
Cd410 O419 2.356 . S
C411 O416 1.209 . S
C411 O418 1.226 . S
O412 Cd408 2.273 . S
O412 Cd410 2.411 . S
O412 C415 1.320 . S
O413 Cd410 2.333 . S
O413 C415 1.214 . S
O414 Cd410 2.352 . S
O414 C417 1.258 . S
C415 O412 1.320 . S
C415 O413 1.214 . S
O416 Cd408 2.277 . S
O416 C411 1.209 . S
C417 O414 1.258 . S
C417 O419 1.282 . S
O418 Cd410 2.277 . S
O418 C411 1.226 . S
O419 Cd410 2.356 . S
O419 C417 1.282 . S
C420 O421 1.306 . S
C420 O423 1.160 . S
O421 C420 1.306 . S
O421 Cd422 2.228 . S
Cd422 O421 2.228 . S
Cd422 O426 2.273 . S
Cd422 O430 2.277 . S
O423 C420 1.160 . S
O423 Cd424 2.203 . S
Cd424 O423 2.203 . S
Cd424 O426 2.411 . S
Cd424 O427 2.333 . S
Cd424 O428 2.352 . S
Cd424 O432 2.277 . S
Cd424 O433 2.356 . S
C425 O430 1.209 . S
C425 O432 1.226 . S
O426 Cd422 2.273 . S
O426 Cd424 2.411 . S
O426 C429 1.320 . S
O427 Cd424 2.333 . S
O427 C429 1.214 . S
O428 Cd424 2.352 . S
O428 C431 1.258 . S
C429 O426 1.320 . S
C429 O427 1.214 . S
O430 Cd422 2.277 . S
O430 C425 1.209 . S
C431 O428 1.258 . S
C431 O433 1.282 . S
O432 Cd424 2.277 . S
O432 C425 1.226 . S
O433 Cd424 2.356 . S
O433 C431 1.282 . S
C434 O435 1.306 . S
C434 O437 1.160 . S
O435 C434 1.306 . S
O435 Cd436 2.228 . S
Cd436 O435 2.228 . S
Cd436 O440 2.273 . S
Cd436 O444 2.277 . S
O437 C434 1.160 . S
O437 Cd438 2.203 . S
Cd438 O437 2.203 . S
Cd438 O440 2.411 . S
Cd438 O441 2.333 . S
Cd438 O442 2.352 . S
Cd438 O446 2.277 . S
Cd438 O447 2.356 . S
C439 O444 1.209 . S
C439 O446 1.226 . S
O440 Cd436 2.273 . S
O440 Cd438 2.411 . S
O440 C443 1.320 . S
O441 Cd438 2.333 . S
O441 C443 1.214 . S
O442 Cd438 2.352 . S
O442 C445 1.258 . S
C443 O440 1.320 . S
C443 O441 1.214 . S
O444 Cd436 2.277 . S
O444 C439 1.209 . S
C445 O442 1.258 . S
C445 O447 1.282 . S
O446 Cd438 2.277 . S
O446 C439 1.226 . S
O447 Cd438 2.356 . S
O447 C445 1.282 . S
C448 O449 1.306 . S
C448 O451 1.160 . S
O449 C448 1.306 . S
O449 Cd450 2.228 . S
Cd450 O449 2.228 . S
Cd450 O454 2.273 . S
Cd450 O458 2.277 . S
O451 C448 1.160 . S
O451 Cd452 2.203 . S
Cd452 O451 2.203 . S
Cd452 O454 2.411 . S
Cd452 O455 2.333 . S
Cd452 O456 2.352 . S
Cd452 O460 2.277 . S
Cd452 O461 2.356 . S
C453 O458 1.209 . S
C453 O460 1.226 . S
O454 Cd450 2.273 . S
O454 Cd452 2.411 . S
O454 C457 1.320 . S
O455 Cd452 2.333 . S
O455 C457 1.214 . S
O456 Cd452 2.352 . S
O456 C459 1.258 . S
C457 O454 1.320 . S
C457 O455 1.214 . S
O458 Cd450 2.277 . S
O458 C453 1.209 . S
C459 O456 1.258 . S
C459 O461 1.282 . S
O460 Cd452 2.277 . S
O460 C453 1.226 . S
O461 Cd452 2.356 . S
O461 C459 1.282 . S
C462 O463 1.306 . S
C462 O465 1.160 . S
O463 C462 1.306 . S
O463 Cd464 2.228 . S
Cd464 O463 2.228 . S
Cd464 O468 2.273 . S
Cd464 O472 2.277 . S
O465 C462 1.160 . S
O465 Cd466 2.203 . S
Cd466 O465 2.203 . S
Cd466 O468 2.411 . S
Cd466 O469 2.333 . S
Cd466 O470 2.352 . S
Cd466 O474 2.277 . S
Cd466 O475 2.356 . S
C467 O472 1.209 . S
C467 O474 1.226 . S
O468 Cd464 2.273 . S
O468 Cd466 2.411 . S
O468 C471 1.320 . S
O469 Cd466 2.333 . S
O469 C471 1.214 . S
O470 Cd466 2.352 . S
O470 C473 1.258 . S
C471 O468 1.320 . S
C471 O469 1.214 . S
O472 Cd464 2.277 . S
O472 C467 1.209 . S
C473 O470 1.258 . S
C473 O475 1.282 . S
O474 Cd466 2.277 . S
O474 C467 1.226 . S
O475 Cd466 2.356 . S
O475 C473 1.282 . S
C476 O477 1.306 . S
C476 O479 1.160 . S
O477 C476 1.306 . S
O477 Cd478 2.228 . S
Cd478 O477 2.228 . S
Cd478 O482 2.273 . S
Cd478 O486 2.277 . S
O479 C476 1.160 . S
O479 Cd480 2.203 . S
Cd480 O479 2.203 . S
Cd480 O482 2.411 . S
Cd480 O483 2.333 . S
Cd480 O484 2.352 . S
Cd480 O488 2.277 . S
Cd480 O489 2.356 . S
C481 O486 1.209 . S
C481 O488 1.226 . S
O482 Cd478 2.273 . S
O482 Cd480 2.411 . S
O482 C485 1.320 . S
O483 Cd480 2.333 . S
O483 C485 1.214 . S
O484 Cd480 2.352 . S
O484 C487 1.258 . S
C485 O482 1.320 . S
C485 O483 1.214 . S
O486 Cd478 2.277 . S
O486 C481 1.209 . S
C487 O484 1.258 . S
C487 O489 1.282 . S
O488 Cd480 2.277 . S
O488 C481 1.226 . S
O489 Cd480 2.356 . S
O489 C487 1.282 . S
C490 O491 1.306 . S
C490 O493 1.160 . S
O491 C490 1.306 . S
O491 Cd492 2.228 . S
Cd492 O491 2.228 . S
Cd492 O496 2.273 . S
Cd492 O500 2.277 . S
O493 C490 1.160 . S
O493 Cd494 2.203 . S
Cd494 O493 2.203 . S
Cd494 O496 2.411 . S
Cd494 O497 2.333 . S
Cd494 O498 2.352 . S
Cd494 O502 2.277 . S
Cd494 O503 2.356 . S
C495 O500 1.209 . S
C495 O502 1.226 . S
O496 Cd492 2.273 . S
O496 Cd494 2.411 . S
O496 C499 1.320 . S
O497 Cd494 2.333 . S
O497 C499 1.214 . S
O498 Cd494 2.352 . S
O498 C501 1.258 . S
C499 O496 1.320 . S
C499 O497 1.214 . S
O500 Cd492 2.277 . S
O500 C495 1.209 . S
C501 O498 1.258 . S
C501 O503 1.282 . S
O502 Cd494 2.277 . S
O502 C495 1.226 . S
O503 Cd494 2.356 . S
O503 C501 1.282 . S
C504 O505 1.306 . S
C504 O507 1.160 . S
O505 C504 1.306 . S
O505 Cd506 2.228 . S
Cd506 O505 2.228 . S
Cd506 O510 2.273 . S
Cd506 O514 2.277 . S
O507 C504 1.160 . S
O507 Cd508 2.203 . S
Cd508 O507 2.203 . S
Cd508 O510 2.411 . S
Cd508 O511 2.333 . S
Cd508 O512 2.352 . S
Cd508 O516 2.277 . S
Cd508 O517 2.356 . S
C509 O514 1.209 . S
C509 O516 1.226 . S
O510 Cd506 2.273 . S
O510 Cd508 2.411 . S
O510 C513 1.320 . S
O511 Cd508 2.333 . S
O511 C513 1.214 . S
O512 Cd508 2.352 . S
O512 C515 1.258 . S
C513 O510 1.320 . S
C513 O511 1.214 . S
O514 Cd506 2.277 . S
O514 C509 1.209 . S
C515 O512 1.258 . S
C515 O517 1.282 . S
O516 Cd508 2.277 . S
O516 C509 1.226 . S
O517 Cd508 2.356 . S
O517 C515 1.282 . S
C518 O519 1.306 . S
C518 O521 1.160 . S
O519 C518 1.306 . S
O519 Cd520 2.228 . S
Cd520 O519 2.228 . S
Cd520 O524 2.273 . S
Cd520 O528 2.277 . S
O521 C518 1.160 . S
O521 Cd522 2.203 . S
Cd522 O521 2.203 . S
Cd522 O524 2.411 . S
Cd522 O525 2.333 . S
Cd522 O526 2.352 . S
Cd522 O530 2.277 . S
Cd522 O531 2.356 . S
C523 O528 1.209 . S
C523 O530 1.226 . S
O524 Cd520 2.273 . S
O524 Cd522 2.411 . S
O524 C527 1.320 . S
O525 Cd522 2.333 . S
O525 C527 1.214 . S
O526 Cd522 2.352 . S
O526 C529 1.258 . S
C527 O524 1.320 . S
C527 O525 1.214 . S
O528 Cd520 2.277 . S
O528 C523 1.209 . S
C529 O526 1.258 . S
C529 O531 1.282 . S
O530 Cd522 2.277 . S
O530 C523 1.226 . S
O531 Cd522 2.356 . S
O531 C529 1.282 . S
C532 O533 1.306 . S
C532 O535 1.160 . S
O533 C532 1.306 . S
O533 Cd534 2.228 . S
Cd534 O533 2.228 . S
Cd534 O538 2.273 . S
Cd534 O542 2.277 . S
O535 C532 1.160 . S
O535 Cd536 2.203 . S
Cd536 O535 2.203 . S
Cd536 O538 2.411 . S
Cd536 O539 2.333 . S
Cd536 O540 2.352 . S
Cd536 O544 2.277 . S
Cd536 O545 2.356 . S
C537 O542 1.209 . S
C537 O544 1.226 . S
O538 Cd534 2.273 . S
O538 Cd536 2.411 . S
O538 C541 1.320 . S
O539 Cd536 2.333 . S
O539 C541 1.214 . S
O540 Cd536 2.352 . S
O540 C543 1.258 . S
C541 O538 1.320 . S
C541 O539 1.214 . S
O542 Cd534 2.277 . S
O542 C537 1.209 . S
C543 O540 1.258 . S
C543 O545 1.282 . S
O544 Cd536 2.277 . S
O544 C537 1.226 . S
O545 Cd536 2.356 . S
O545 C543 1.282 . S
C546 O547 1.306 . S
C546 O549 1.160 . S
O547 C546 1.306 . S
O547 Cd548 2.228 . S
Cd548 O547 2.228 . S
Cd548 O552 2.273 . S
Cd548 O556 2.277 . S
O549 C546 1.160 . S
O549 Cd550 2.203 . S
Cd550 O549 2.203 . S
Cd550 O552 2.411 . S
Cd550 O553 2.333 . S
Cd550 O554 2.352 . S
Cd550 O558 2.277 . S
Cd550 O559 2.356 . S
C551 O556 1.209 . S
C551 O558 1.226 . S
O552 Cd548 2.273 . S
O552 Cd550 2.411 . S
O552 C555 1.320 . S
O553 Cd550 2.333 . S
O553 C555 1.214 . S
O554 Cd550 2.352 . S
O554 C557 1.258 . S
C555 O552 1.320 . S
C555 O553 1.214 . S
O556 Cd548 2.277 . S
O556 C551 1.209 . S
C557 O554 1.258 . S
C557 O559 1.282 . S
O558 Cd550 2.277 . S
O558 C551 1.226 . S
O559 Cd550 2.356 . S
O559 C557 1.282 . S
C560 O561 1.306 . S
C560 O563 1.160 . S
O561 C560 1.306 . S
O561 Cd562 2.228 . S
Cd562 O561 2.228 . S
Cd562 O566 2.273 . S
Cd562 O570 2.277 . S
O563 C560 1.160 . S
O563 Cd564 2.203 . S
Cd564 O563 2.203 . S
Cd564 O566 2.411 . S
Cd564 O567 2.333 . S
Cd564 O568 2.352 . S
Cd564 O572 2.277 . S
Cd564 O573 2.356 . S
C565 O570 1.209 . S
C565 O572 1.226 . S
O566 Cd562 2.273 . S
O566 Cd564 2.411 . S
O566 C569 1.320 . S
O567 Cd564 2.333 . S
O567 C569 1.214 . S
O568 Cd564 2.352 . S
O568 C571 1.258 . S
C569 O566 1.320 . S
C569 O567 1.214 . S
O570 Cd562 2.277 . S
O570 C565 1.209 . S
C571 O568 1.258 . S
C571 O573 1.282 . S
O572 Cd564 2.277 . S
O572 C565 1.226 . S
O573 Cd564 2.356 . S
O573 C571 1.282 . S
C574 O575 1.306 . S
C574 O577 1.160 . S
O575 C574 1.306 . S
O575 Cd576 2.228 . S
Cd576 O575 2.228 . S
Cd576 O580 2.273 . S
Cd576 O584 2.277 . S
O577 C574 1.160 . S
O577 Cd578 2.203 . S
Cd578 O577 2.203 . S
Cd578 O580 2.411 . S
Cd578 O581 2.333 . S
Cd578 O582 2.352 . S
Cd578 O586 2.277 . S
Cd578 O587 2.356 . S
C579 O584 1.209 . S
C579 O586 1.226 . S
O580 Cd576 2.273 . S
O580 Cd578 2.411 . S
O580 C583 1.320 . S
O581 Cd578 2.333 . S
O581 C583 1.214 . S
O582 Cd578 2.352 . S
O582 C585 1.258 . S
C583 O580 1.320 . S
C583 O581 1.214 . S
O584 Cd576 2.277 . S
O584 C579 1.209 . S
C585 O582 1.258 . S
C585 O587 1.282 . S
O586 Cd578 2.277 . S
O586 C579 1.226 . S
O587 Cd578 2.356 . S
O587 C585 1.282 . S
C588 O589 1.306 . S
C588 O591 1.160 . S
O589 C588 1.306 . S
O589 Cd590 2.228 . S
Cd590 O589 2.228 . S
Cd590 O594 2.273 . S
Cd590 O598 2.277 . S
O591 C588 1.160 . S
O591 Cd592 2.203 . S
Cd592 O591 2.203 . S
Cd592 O594 2.411 . S
Cd592 O595 2.333 . S
Cd592 O596 2.352 . S
Cd592 O600 2.277 . S
Cd592 O601 2.356 . S
C593 O598 1.209 . S
C593 O600 1.226 . S
O594 Cd590 2.273 . S
O594 Cd592 2.411 . S
O594 C597 1.320 . S
O595 Cd592 2.333 . S
O595 C597 1.214 . S
O596 Cd592 2.352 . S
O596 C599 1.258 . S
C597 O594 1.320 . S
C597 O595 1.214 . S
O598 Cd590 2.277 . S
O598 C593 1.209 . S
C599 O596 1.258 . S
C599 O601 1.282 . S
O600 Cd592 2.277 . S
O600 C593 1.226 . S
O601 Cd592 2.356 . S
O601 C599 1.282 . S
C602 O603 1.306 . S
C602 O605 1.160 . S
O603 C602 1.306 . S
O603 Cd604 2.228 . S
Cd604 O603 2.228 . S
Cd604 O608 2.273 . S
Cd604 O612 2.277 . S
O605 C602 1.160 . S
O605 Cd606 2.203 . S
Cd606 O605 2.203 . S
Cd606 O608 2.411 . S
Cd606 O609 2.333 . S
Cd606 O610 2.352 . S
Cd606 O614 2.277 . S
Cd606 O615 2.356 . S
C607 O612 1.209 . S
C607 O614 1.226 . S
O608 Cd604 2.273 . S
O608 Cd606 2.411 . S
O608 C611 1.320 . S
O609 Cd606 2.333 . S
O609 C611 1.214 . S
O610 Cd606 2.352 . S
O610 C613 1.258 . S
C611 O608 1.320 . S
C611 O609 1.214 . S
O612 Cd604 2.277 . S
O612 C607 1.209 . S
C613 O610 1.258 . S
C613 O615 1.282 . S
O614 Cd606 2.277 . S
O614 C607 1.226 . S
O615 Cd606 2.356 . S
O615 C613 1.282 . S
C616 O617 1.306 . S
C616 O619 1.160 . S
O617 C616 1.306 . S
O617 Cd618 2.228 . S
Cd618 O617 2.228 . S
Cd618 O622 2.273 . S
Cd618 O626 2.277 . S
O619 C616 1.160 . S
O619 Cd620 2.203 . S
Cd620 O619 2.203 . S
Cd620 O622 2.411 . S
Cd620 O623 2.333 . S
Cd620 O624 2.352 . S
Cd620 O628 2.277 . S
Cd620 O629 2.356 . S
C621 O626 1.209 . S
C621 O628 1.226 . S
O622 Cd618 2.273 . S
O622 Cd620 2.411 . S
O622 C625 1.320 . S
O623 Cd620 2.333 . S
O623 C625 1.214 . S
O624 Cd620 2.352 . S
O624 C627 1.258 . S
C625 O622 1.320 . S
C625 O623 1.214 . S
O626 Cd618 2.277 . S
O626 C621 1.209 . S
C627 O624 1.258 . S
C627 O629 1.282 . S
O628 Cd620 2.277 . S
O628 C621 1.226 . S
O629 Cd620 2.356 . S
O629 C627 1.282 . S
C630 O631 1.306 . S
C630 O633 1.160 . S
O631 C630 1.306 . S
O631 Cd632 2.228 . S
Cd632 O631 2.228 . S
Cd632 O636 2.273 . S
Cd632 O640 2.277 . S
O633 C630 1.160 . S
O633 Cd634 2.203 . S
Cd634 O633 2.203 . S
Cd634 O636 2.411 . S
Cd634 O637 2.333 . S
Cd634 O638 2.352 . S
Cd634 O642 2.277 . S
Cd634 O643 2.356 . S
C635 O640 1.209 . S
C635 O642 1.226 . S
O636 Cd632 2.273 . S
O636 Cd634 2.411 . S
O636 C639 1.320 . S
O637 Cd634 2.333 . S
O637 C639 1.214 . S
O638 Cd634 2.352 . S
O638 C641 1.258 . S
C639 O636 1.320 . S
C639 O637 1.214 . S
O640 Cd632 2.277 . S
O640 C635 1.209 . S
C641 O638 1.258 . S
C641 O643 1.282 . S
O642 Cd634 2.277 . S
O642 C635 1.226 . S
O643 Cd634 2.356 . S
O643 C641 1.282 . S
C644 O645 1.306 . S
C644 O647 1.160 . S
O645 C644 1.306 . S
O645 Cd646 2.228 . S
Cd646 O645 2.228 . S
Cd646 O650 2.273 . S
Cd646 O654 2.277 . S
O647 C644 1.160 . S
O647 Cd648 2.203 . S
Cd648 O647 2.203 . S
Cd648 O650 2.411 . S
Cd648 O651 2.333 . S
Cd648 O652 2.352 . S
Cd648 O656 2.277 . S
Cd648 O657 2.356 . S
C649 O654 1.209 . S
C649 O656 1.226 . S
O650 Cd646 2.273 . S
O650 Cd648 2.411 . S
O650 C653 1.320 . S
O651 Cd648 2.333 . S
O651 C653 1.214 . S
O652 Cd648 2.352 . S
O652 C655 1.258 . S
C653 O650 1.320 . S
C653 O651 1.214 . S
O654 Cd646 2.277 . S
O654 C649 1.209 . S
C655 O652 1.258 . S
C655 O657 1.282 . S
O656 Cd648 2.277 . S
O656 C649 1.226 . S
O657 Cd648 2.356 . S
O657 C655 1.282 . S
C658 O659 1.306 . S
C658 O661 1.160 . S
O659 C658 1.306 . S
O659 Cd660 2.228 . S
Cd660 O659 2.228 . S
Cd660 O664 2.273 . S
Cd660 O668 2.277 . S
O661 C658 1.160 . S
O661 Cd662 2.203 . S
Cd662 O661 2.203 . S
Cd662 O664 2.411 . S
Cd662 O665 2.333 . S
Cd662 O666 2.352 . S
Cd662 O670 2.277 . S
Cd662 O671 2.356 . S
C663 O668 1.209 . S
C663 O670 1.226 . S
O664 Cd660 2.273 . S
O664 Cd662 2.411 . S
O664 C667 1.320 . S
O665 Cd662 2.333 . S
O665 C667 1.214 . S
O666 Cd662 2.352 . S
O666 C669 1.258 . S
C667 O664 1.320 . S
C667 O665 1.214 . S
O668 Cd660 2.277 . S
O668 C663 1.209 . S
C669 O666 1.258 . S
C669 O671 1.282 . S
O670 Cd662 2.277 . S
O670 C663 1.226 . S
O671 Cd662 2.356 . S
O671 C669 1.282 . S
C280 C0 1.799 . S
C23 C238 1.854 . S
C28 C261 1.919 . S
C266 C51 1.866 . S
C331 C65 1.953 . S
C70 C303 1.908 . S
C93 C317 1.937 . S
C98 C224 1.789 . S
C112 C210 1.773 . S
C135 C177 2.001 . S
C140 C182 1.731 . S
C205 C163 2.001 . S
C345 C625 1.913 . S
C574 C350 1.578 . S
C373 C588 1.789 . S
C602 C378 1.595 . S
C392 C667 1.762 . S
C630 C415 1.796 . S
C420 C653 1.746 . S
C569 C443 1.920 . S
C457 C555 1.890 . S
C504 C462 1.659 . S
C527 C485 1.845 . S
C532 C490 1.660 . S
C364 C9 1.354 . S
C14 C387 1.386 1_556 S
C37 C336 1.353 . S
C42 C359 1.393 1_556 S
C56 C429 1.367 . S
C434 C79 1.355 1_556 S
C401 C84 1.361 . S
C406 C107 1.355 1_556 S
C513 C121 1.404 . S
C126 C518 1.304 1_565 S
C541 C149 1.403 . S
C154 C546 1.308 1_545 S
C168 C448 1.290 . S
C191 C471 1.416 1_565 S
C476 C196 1.286 . S
C499 C219 1.417 1_565 S
C233 C611 1.397 . S
C247 C639 1.422 . S
C644 C252 1.319 1_455 S
C560 C275 1.364 . S
C289 C658 1.369 1_455 S
C583 C294 1.365 . S
C308 C597 1.354 1_655 S
C322 C616 1.284 1_455 S
C403 C5 1.859 1_655 S
C411 C25 1.843 . S
C431 C33 1.879 1_455 S
C53 C439 1.841 . S
C341 C67 1.838 1_655 S
C361 C75 1.874 . S
C95 C369 1.839 1_655 S
C389 C103 1.853 . S
C117 C543 1.866 1_545 S
C137 C551 1.855 . S
C515 C145 1.854 1_545 S
C165 C523 1.852 . S
C481 C179 1.851 1_545 S
C187 C501 1.857 . S
C207 C453 1.854 1_545 S
C215 C473 1.868 . S
C641 C229 1.846 1_556 S
C243 C613 1.878 1_556 S
C263 C621 1.833 . S
C271 C585 1.862 1_556 S
C599 C285 1.854 . S
C565 C305 1.832 1_556 S
C663 C319 1.848 . S
C333 C649 1.851 . S
C221 C11 2.543 . S
C19 C173 2.356 . S
C193 C39 2.583 . S
C201 C47 2.366 . S
C131 C61 2.318 . S
C81 C151 2.588 . S
C89 C159 2.309 . S
C123 C109 2.550 . S
C235 C291 2.556 . S
C327 C249 2.475 . S
C299 C257 2.291 . S
C277 C313 2.481 . S
C557 C347 2.626 . S
C509 C355 2.427 . S
C375 C529 2.681 . S
C537 C383 2.440 . S
C467 C397 2.414 . S
C417 C487 2.686 . S
C425 C495 2.400 . S
C445 C459 2.630 . S
C571 C627 2.648 . S
C669 C579 2.579 . S
C635 C593 2.354 . S
C655 C607 2.564 . S
