# Generated by pormake.
# Topology mok, (4)-cn, num edge types: 1
# Building blocks:
#     Node 0, Type 0, BuildingBlock: QUQFOY_clean_sbu_3, # of connection points: 4
#     Node 1, Type 0, BuildingBlock: QUQFOY_clean_sbu_3, # of connection points: 4
#     Node 2, Type 0, BuildingBlock: QUQFOY_clean_sbu_3, # of connection points: 4
#     Node 3, Type 0, BuildingBlock: QUQFOY_clean_sbu_3, # of connection points: 4
#     Node 4, Type 0, BuildingBlock: QUQFOY_clean_sbu_3, # of connection points: 4
#     Node 5, Type 0, BuildingBlock: QUQFOY_clean_sbu_3, # of connection points: 4
#     Node 6, Type 0, BuildingBlock: QUQFOY_clean_sbu_3, # of connection points: 4
#     Node 7, Type 0, BuildingBlock: QUQFOY_clean_sbu_3, # of connection points: 4
#     Edge 8, Type (0, 0), BuildingBlock: EZIPEK_clean_linker_0, # of connection points: 2
#     Edge 9, Type (0, 0), BuildingBlock: EZIPEK_clean_linker_0, # of connection points: 2
#     Edge 10, Type (0, 0), BuildingBlock: EZIPEK_clean_linker_0, # of connection points: 2
#     Edge 11, Type (0, 0), BuildingBlock: EZIPEK_clean_linker_0, # of connection points: 2
#     Edge 12, Type (0, 0), BuildingBlock: EZIPEK_clean_linker_0, # of connection points: 2
#     Edge 13, Type (0, 0), BuildingBlock: EZIPEK_clean_linker_0, # of connection points: 2
#     Edge 14, Type (0, 0), BuildingBlock: EZIPEK_clean_linker_0, # of connection points: 2
#     Edge 15, Type (0, 0), BuildingBlock: EZIPEK_clean_linker_0, # of connection points: 2
#     Edge 16, Type (0, 0), BuildingBlock: EZIPEK_clean_linker_0, # of connection points: 2
#     Edge 17, Type (0, 0), BuildingBlock: EZIPEK_clean_linker_0, # of connection points: 2
#     Edge 18, Type (0, 0), BuildingBlock: EZIPEK_clean_linker_0, # of connection points: 2
#     Edge 19, Type (0, 0), BuildingBlock: EZIPEK_clean_linker_0, # of connection points: 2
#     Edge 20, Type (0, 0), BuildingBlock: EZIPEK_clean_linker_0, # of connection points: 2
#     Edge 21, Type (0, 0), BuildingBlock: EZIPEK_clean_linker_0, # of connection points: 2
#     Edge 22, Type (0, 0), BuildingBlock: EZIPEK_clean_linker_0, # of connection points: 2
#     Edge 23, Type (0, 0), BuildingBlock: EZIPEK_clean_linker_0, # of connection points: 2
# Relax obj value: 0.012
# Max RMSD: 0.032
# Mean RMSD: 0.032
data_MOF--net-mok--node1-QUQFOY_clean_sbu_3--edge1-EZIPEK_clean_linker_0
_symmetry_space_group_name_H-M    P1
_symmetry_Int_Tables_number       1
_symmetry_cell_setting            triclinic
loop_
_symmetry_equiv_pos_as_xyz
'x, y, z'
_cell_length_a     41.356785
_cell_length_b     12.029709
_cell_length_c     20.684346
_cell_angle_alpha  89.873928
_cell_angle_beta   89.437244
_cell_angle_gamma 89.670536
loop_
_atom_site_label
_atom_site_type_symbol
_atom_site_fract_x
_atom_site_fract_y
_atom_site_fract_z
_atom_type_partial_charge
C0 C 0.58634 0.42209 0.24355 0.0
O1 O 0.59843 0.51214 0.22271 0.0
Cd2 Cd 0.61035 0.55491 0.11179 0.0
O3 O 0.57865 0.34457 0.2051 0.0
Cd4 Cd 0.58019 0.32142 0.08673 0.0
C5 C 0.66192 0.33951 0.07825 0.0
O6 O 0.56598 0.50667 0.0443 0.0
O7 O 0.58873 0.38843 0.97905 0.0
O8 O 0.52517 0.25199 0.08306 0.0
C9 C 0.57429 0.48054 -0.01298 0.0
O10 O 0.65789 0.44403 0.08377 0.0
C11 C 0.53286 0.15875 0.05869 0.0
O12 O 0.6381 0.27278 0.08228 0.0
O13 O 0.5628 0.13843 0.05027 0.0
C14 C 0.39286 0.44591 0.00223 0.0
O15 O 0.38674 0.38272 0.95488 0.0
Cd16 Cd 0.36996 0.46568 0.85426 0.0
O17 O 0.39412 0.55072 -0.00482 0.0
Cd18 Cd 0.39116 0.70192 0.91638 0.0
C19 C 0.3112 0.63921 0.91961 0.0
O20 O 0.40884 0.60286 0.82135 0.0
O21 O 0.38605 0.76248 0.80408 0.0
O22 O 0.44309 0.75692 0.95753 0.0
C23 C 0.40008 0.67688 0.78129 0.0
O24 O 0.31854 0.55283 0.88692 0.0
C25 C 0.43508 0.85723 0.96817 0.0
O26 O 0.33278 0.70672 0.93872 0.0
O27 O 0.4062 0.88641 0.95546 0.0
C28 C 0.58645 0.45992 0.51592 0.0
O29 O 0.59317 0.39531 0.56255 0.0
Cd30 Cd 0.60804 0.4727 0.6653 0.0
O31 O 0.58456 0.56448 0.52386 0.0
Cd32 Cd 0.58668 0.71204 0.60501 0.0
C33 C 0.66717 0.65275 0.60914 0.0
O34 O 0.5676 0.60672 0.69665 0.0
O35 O 0.58778 0.76774 0.71843 0.0
O36 O 0.53538 0.7701 0.56174 0.0
C37 C 0.57449 0.67932 0.73861 0.0
O38 O 0.65945 0.56321 0.63838 0.0
C39 C 0.54337 0.87062 0.55274 0.0
O40 O 0.64567 0.72143 0.58984 0.0
O41 O 0.57201 0.89862 0.56723 0.0
C42 C 0.38949 0.41615 0.27395 0.0
O43 O 0.3765 0.50671 0.29217 0.0
Cd44 Cd 0.3631 0.55393 0.40222 0.0
O45 O 0.39727 0.34152 0.31447 0.0
Cd46 Cd 0.39461 0.3254 0.43278 0.0
C47 C 0.31295 0.3398 0.44108 0.0
O48 O 0.40666 0.513 0.47414 0.0
O49 O 0.38504 0.39245 0.53943 0.0
O50 O 0.45032 0.26259 0.43825 0.0
C51 C 0.39821 0.48625 0.53135 0.0
O52 O 0.31625 0.44393 0.43286 0.0
C53 C 0.4437 0.16861 0.46272 0.0
O54 O 0.33712 0.27356 0.43837 0.0
O55 O 0.414 0.14503 0.47088 0.0
C56 C 0.1158 0.91198 0.14769 0.0
O57 O 0.12811 0.99472 0.11861 0.0
Cd58 Cd 0.13744 0.00232 0.00481 0.0
O59 O 0.1058 0.82768 0.11708 0.0
Cd60 Cd 0.09897 0.76615 0.00532 0.0
C61 C 0.1805 0.75657 -0.01219 0.0
O62 O 0.08919 0.94419 0.95338 0.0
O63 O 0.09952 0.80453 0.89052 0.0
O64 O 0.04357 0.73014 0.03748 0.0
C65 C 0.09218 0.90642 0.89645 0.0
O66 O 0.17908 0.86221 -0.013 0.0
C67 C 0.04313 0.63064 0.01752 0.0
O68 O 0.15535 0.69722 -0.00303 0.0
O69 O 0.06905 0.59164 -0.00747 0.0
C70 C 0.86968 0.03817 0.15942 0.0
O71 O 0.85982 0.95589 0.12699 0.0
Cd72 Cd 0.84642 0.96801 0.01523 0.0
O73 O 0.87525 0.13173 0.13308 0.0
Cd74 Cd 0.87501 0.21744 0.02567 0.0
C75 C 0.79341 0.18805 0.03417 0.0
O76 O 0.89036 0.05785 0.9619 0.0
O77 O 0.86972 0.19732 0.90968 0.0
O78 O 0.92916 0.27441 0.05188 0.0
C79 C 0.88363 0.10319 0.90832 0.0
O80 O 0.79828 0.08651 0.01947 0.0
C81 C 0.92587 0.37396 0.03277 0.0
O82 O 0.81687 0.25495 0.04266 0.0
O83 O 0.89813 0.40414 0.01287 0.0
C84 C 0.11383 0.97111 0.42139 0.0
O85 O 0.12456 0.9056 0.46439 0.0
Cd86 Cd 0.13816 0.97361 0.56869 0.0
O87 O 0.10656 0.07161 0.43422 0.0
Cd88 Cd 0.10355 0.20206 0.52504 0.0
C89 C 0.18492 0.19252 0.51343 0.0
O90 O 0.09197 0.07135 0.60958 0.0
O91 O 0.10994 0.23062 0.64118 0.0
O92 O 0.04793 0.24101 0.49637 0.0
C93 C 0.09779 0.1372 0.65559 0.0
O94 O 0.18291 0.09757 0.54053 0.0
C95 C 0.05046 0.34569 0.50108 0.0
O96 O 0.15977 0.24949 0.4999 0.0
O97 O 0.07833 0.38478 0.51259 0.0
C98 C 0.8688 0.9663 0.43369 0.0
O99 O 0.85956 0.04041 0.47351 0.0
Cd100 Cd 0.84923 0.00409 0.58514 0.0
O101 O 0.87607 0.86837 0.4521 0.0
Cd102 Cd 0.88233 0.75632 0.55036 0.0
C103 C 0.80076 0.76988 0.5679 0.0
O104 O 0.89596 0.90755 0.61943 0.0
O105 O 0.88594 0.75311 0.66863 0.0
O106 O 0.93583 0.71471 0.50884 0.0
C107 C 0.89371 0.85469 0.67215 0.0
O108 O 0.80463 0.87161 0.58281 0.0
C109 C 0.93408 0.61069 0.51798 0.0
O110 O 0.82451 0.70743 0.5514 0.0
O111 O 0.90762 0.57228 0.54025 0.0
C112 C 0.74527 0.30264 0.0015 0.0
C113 C 0.75966 0.22626 0.04512 0.0
C114 C 0.71009 0.22585 0.1116 0.0
C115 C 0.695 0.29622 0.0657 0.0
N116 N 0.69569 0.38454 0.96093 0.0
N117 N 0.75432 0.10069 0.13611 0.0
C118 C 0.71194 0.33033 0.00902 0.0
C119 C 0.74157 0.18312 0.09833 0.0
N120 N 0.76338 0.34832 0.95269 0.0
N121 N 0.69502 0.20424 0.1694 0.0
H122 H 0.77776 0.06997 0.13035 0.0
H123 H 0.7409 0.05678 0.1704 0.0
H124 H 0.67192 0.23358 0.181 0.0
H125 H 0.70634 0.16511 0.20808 0.0
H126 H 0.75544 0.41429 0.92418 0.0
H127 H 0.78727 0.32504 0.94304 0.0
H128 H 0.7057 0.40197 0.91569 0.0
H129 H 0.67105 0.40303 0.96386 0.0
C130 C 0.22077 0.69438 0.90553 0.0
C131 C 0.21196 0.70458 0.9716 0.0
C132 C 0.26707 0.65414 0.00338 0.0
C133 C 0.27686 0.65909 0.93739 0.0
N134 N 0.26399 0.69433 0.82564 0.0
N135 N 0.2261 0.6997 0.08413 0.0
C136 C 0.25389 0.68069 0.88829 0.0
C137 C 0.23489 0.68515 0.02083 0.0
N138 N 0.19734 0.69803 0.85935 0.0
N139 N 0.28825 0.61665 0.04899 0.0
H140 H 0.20231 0.71651 0.09847 0.0
H141 H 0.24249 0.70053 0.122 0.0
H142 H 0.31198 0.59303 0.03798 0.0
H143 H 0.28165 0.60014 0.09674 0.0
H144 H 0.20164 0.68051 0.81075 0.0
H145 H 0.17287 0.70876 0.87059 0.0
H146 H 0.24903 0.72223 0.78875 0.0
H147 H 0.28811 0.68685 0.81126 0.0
C148 C 0.75742 0.68897 0.63713 0.0
C149 C 0.76796 0.72329 0.575 0.0
C150 C 0.71347 0.69432 0.53293 0.0
C151 C 0.70195 0.67615 0.59707 0.0
N152 N 0.71241 0.67329 0.71184 0.0
N153 N 0.75619 0.76793 0.46412 0.0
C154 C 0.72382 0.67711 0.64965 0.0
C155 C 0.74605 0.72831 0.52284 0.0
N156 N 0.77959 0.6671 0.68412 0.0
N157 N 0.69375 0.67467 0.48159 0.0
H158 H 0.7802 0.78905 0.45445 0.0
H159 H 0.74049 0.7861 0.42642 0.0
H160 H 0.67004 0.64671 0.48687 0.0
H161 H 0.70179 0.67579 0.43372 0.0
H162 H 0.77361 0.63159 0.72859 0.0
H163 H 0.80445 0.67376 0.67609 0.0
H164 H 0.72692 0.68565 0.75204 0.0
H165 H 0.68791 0.66905 0.72333 0.0
C166 C 0.24018 0.25745 0.54325 0.0
C167 C 0.21733 0.23368 0.49456 0.0
C168 C 0.25711 0.28164 0.41032 0.0
C169 C 0.28059 0.29743 0.45888 0.0
N170 N 0.29627 0.28929 0.57082 0.0
N171 N 0.20495 0.20591 0.38193 0.0
C172 C 0.27266 0.28167 0.52519 0.0
C173 C 0.22597 0.24154 0.42805 0.0
N174 N 0.23042 0.26129 0.60661 0.0
N175 N 0.26449 0.30651 0.34735 0.0
H176 H 0.18182 0.17673 0.39276 0.0
H177 H 0.21118 0.19706 0.33333 0.0
H178 H 0.2875 0.33114 0.33221 0.0
H179 H 0.2474 0.3096 0.31076 0.0
H180 H 0.2449 0.28946 0.64397 0.0
H181 H 0.20673 0.24505 0.6215 0.0
H182 H 0.29297 0.26676 0.61903 0.0
H183 H 0.32008 0.31088 0.55974 0.0
C184 C 0.61413 0.38531 0.34722 0.0
C185 C 0.5848 0.40334 0.31395 0.0
C186 C 0.55529 0.41536 0.41691 0.0
C187 C 0.58531 0.4175 0.44927 0.0
N188 N 0.64361 0.40621 0.44694 0.0
N189 N 0.52702 0.42952 0.31461 0.0
C190 C 0.61482 0.4005 0.41511 0.0
C191 C 0.55507 0.41458 0.34808 0.0
N192 N 0.64126 0.3533 0.31362 0.0
N193 N 0.52724 0.41472 0.45238 0.0
H194 H 0.52613 0.42614 0.26426 0.0
H195 H 0.50491 0.44958 0.3361 0.0
H196 H 0.52711 0.41465 0.50287 0.0
H197 H 0.50439 0.40547 0.43256 0.0
H198 H 0.66265 0.32826 0.33557 0.0
H199 H 0.64143 0.34194 0.26362 0.0
H200 H 0.666 0.40968 0.42358 0.0
H201 H 0.64518 0.4139 0.49702 0.0
C202 C 0.36512 0.37402 0.1012 0.0
C203 C 0.39437 0.40174 0.06866 0.0
C204 C 0.42264 0.41467 0.17181 0.0
C205 C 0.3929 0.394 0.20418 0.0
N206 N 0.3388 0.32146 0.20198 0.0
N207 N 0.45215 0.4201 0.06943 0.0
C208 C 0.36512 0.36236 0.16944 0.0
C209 C 0.42364 0.41207 0.10305 0.0
N210 N 0.33691 0.36689 0.06751 0.0
N211 N 0.44935 0.44135 0.20682 0.0
H212 H 0.45315 0.41714 0.01899 0.0
H213 H 0.4748 0.42054 0.09088 0.0
H214 H 0.44945 0.44017 0.25727 0.0
H215 H 0.471 0.46858 0.18643 0.0
H216 H 0.31419 0.36216 0.0894 0.0
H217 H 0.33589 0.37198 0.01727 0.0
H218 H 0.31889 0.28701 0.17922 0.0
H219 H 0.33816 0.31253 0.25218 0.0
C220 C 0.36938 0.62315 0.68285 0.0
C221 C 0.39916 0.65191 0.7116 0.0
C222 C 0.42871 0.59567 0.61373 0.0
C223 C 0.39891 0.5648 0.58585 0.0
N224 N 0.34095 0.5815 0.58406 0.0
N225 N 0.45564 0.69509 0.69972 0.0
C226 C 0.36923 0.58987 0.61728 0.0
C227 C 0.4284 0.64798 0.67533 0.0
N228 N 0.34158 0.62074 0.71913 0.0
N229 N 0.45719 0.56943 0.58321 0.0
H230 H 0.45573 0.73542 0.74434 0.0
H231 H 0.4771 0.70332 0.67347 0.0
H232 H 0.45819 0.53362 0.53736 0.0
H233 H 0.47974 0.57783 0.60453 0.0
H234 H 0.31995 0.58774 0.70265 0.0
H235 H 0.34063 0.64386 0.7676 0.0
H236 H 0.31865 0.60764 0.60248 0.0
H237 H 0.34041 0.55915 0.53536 0.0
C238 C 0.54333 0.5825 0.90172 0.0
C239 C 0.57299 0.56014 0.93299 0.0
C240 C 0.6035 0.63061 0.84029 0.0
C241 C 0.57395 0.65101 0.80798 0.0
N242 N 0.51615 0.67456 0.81267 0.0
N243 N 0.6299 0.59527 0.94229 0.0
C244 C 0.5439 0.63623 0.8404 0.0
C245 C 0.60263 0.59552 0.90557 0.0
N246 N 0.51494 0.54752 0.9291 0.0
N247 N 0.63229 0.63728 0.80755 0.0
H248 H 0.62961 0.57139 -0.0092 0.0
H249 H 0.65178 0.62926 0.92692 0.0
H250 H 0.63407 0.66116 0.75924 0.0
H251 H 0.65419 0.61034 0.82667 0.0
H252 H 0.49284 0.54972 0.90547 0.0
H253 H 0.51378 0.51126 0.97493 0.0
H254 H 0.49373 0.67474 0.83601 0.0
H255 H 0.51619 0.71564 0.76819 0.0
C256 C 0.08461 0.92345 0.25169 0.0
C257 C 0.11464 0.91137 0.21866 0.0
C258 C 0.14399 0.92544 0.32007 0.0
C259 C 0.11397 0.93631 0.35339 0.0
N260 N 0.05592 0.92331 0.35473 0.0
N261 N 0.17187 0.87279 0.22122 0.0
C262 C 0.08427 0.92801 0.32029 0.0
C263 C 0.14403 0.90337 0.25289 0.0
N264 N 0.0567 0.93554 0.21739 0.0
N265 N 0.17242 0.9426 0.35173 0.0
H266 H 0.17277 0.85626 0.17173 0.0
H267 H 0.19337 0.85389 0.24475 0.0
H268 H 0.17372 0.95801 0.40121 0.0
H269 H 0.19469 0.94996 0.32819 0.0
H270 H 0.03452 0.95694 0.23823 0.0
H271 H 0.05601 0.93112 0.16706 0.0
H272 H 0.03359 0.90699 0.33411 0.0
H273 H 0.05513 0.92632 0.40516 0.0
C274 C 0.8418 0.03204 0.33306 0.0
C275 C 0.87003 0.99234 0.36414 0.0
C276 C 0.89853 0.98199 0.26 0.0
C277 C 0.87101 0.02889 0.23007 0.0
N278 N 0.81963 0.12411 0.23935 0.0
N279 N 0.92729 0.95169 0.36006 0.0
C280 C 0.84368 0.06247 0.26708 0.0
C281 C 0.89906 0.97349 0.32844 0.0
N282 N 0.81273 0.03422 0.3652 0.0
N283 N 0.92391 0.94462 0.22305 0.0
H284 H 0.92876 0.948 0.41034 0.0
H285 H 0.94976 0.94769 0.33699 0.0
H286 H 0.92479 0.95389 0.17289 0.0
H287 H 0.94308 0.89832 0.24156 0.0
H288 H 0.79086 0.051 0.34248 0.0
H289 H 0.8098 0.00821 0.413 0.0
H290 H 0.80071 0.15998 0.26576 0.0
H291 H 0.82025 0.14873 0.19101 0.0
C292 C 0.86094 0.92556 0.76544 0.0
C293 C 0.89141 0.91531 0.73371 0.0
C294 C 0.91597 0.03805 0.81335 0.0
C295 C 0.88624 0.03999 0.84793 0.0
N296 N 0.83127 0.97791 0.86219 0.0
N297 N 0.94877 0.94963 0.73006 0.0
C298 C 0.85897 0.98132 0.82557 0.0
C299 C 0.9192 0.9685 0.75827 0.0
N300 N 0.8336 0.88736 0.73644 0.0
N301 N 0.94072 0.1052 0.83213 0.0
H302 H 0.95195 0.89904 0.68955 0.0
H303 H 0.97044 0.9769 0.74946 0.0
H304 H 0.93942 0.15521 0.87325 0.0
H305 H 0.96144 0.11836 0.80429 0.0
H306 H 0.81028 0.90383 0.75342 0.0
H307 H 0.8339 0.84689 0.69206 0.0
H308 H 0.81209 0.92484 0.85275 0.0
H309 H 0.82817 0.02321 0.9047 0.0
C310 C 0.06579 0.03058 0.81528 0.0
C311 C 0.09425 0.98122 0.84025 0.0
C312 C 0.12601 0.04851 0.74797 0.0
C313 C 0.09746 0.09614 0.72241 0.0
N314 N 0.042 0.15422 0.73546 0.0
N315 N 0.15236 0.96397 0.83989 0.0
C316 C 0.06787 0.09432 0.75748 0.0
C317 C 0.12469 -0.00329 0.80945 0.0
N318 N 0.03668 0.01208 0.84525 0.0
N319 N 0.15406 0.04911 0.71231 0.0
H320 H 0.15213 0.92585 0.88508 0.0
H321 H 0.17555 0.98269 0.82336 0.0
H322 H 0.15645 0.09149 0.66852 0.0
H323 H 0.17455 0.00308 0.72421 0.0
H324 H 0.01455 0.03542 0.82596 0.0
H325 H 0.03444 0.96755 0.88838 0.0
H326 H 0.02053 0.16488 0.76139 0.0
H327 H 0.04295 0.20107 0.69295 0.0
C328 C 0.4847 0.97024 0.94872 0.0
C329 C 0.45924 0.93765 -0.00897 0.0
C330 C 0.4835 0.04278 0.07946 0.0
C331 C 0.50774 0.08133 0.03595 0.0
N332 N 0.52716 0.10256 0.92604 0.0
N333 N 0.43141 0.95354 0.09363 0.0
C334 C 0.50732 0.05034 0.96974 0.0
C335 C 0.45762 0.97777 0.05543 0.0
N336 N 0.48725 0.92493 0.88826 0.0
N337 N 0.48607 0.06375 0.14417 0.0
H338 H 0.41276 0.90181 0.07879 0.0
H339 H 0.42697 0.99071 0.13828 0.0
H340 H 0.50505 0.10897 0.16373 0.0
H341 H 0.47109 0.02851 0.17927 0.0
H342 H 0.50764 0.9338 0.85875 0.0
H343 H 0.46986 0.8726 0.86879 0.0
H344 H 0.52542 0.09228 0.87623 0.0
H345 H 0.54331 0.16488 0.93867 0.0
C346 C 0.49377 0.98464 0.57308 0.0
C347 C 0.51923 0.95254 0.5305 0.0
C348 C 0.49423 0.05699 0.4421 0.0
C349 C 0.46968 0.09384 0.48563 0.0
N350 N 0.45027 0.11468 0.59553 0.0
N351 N 0.54699 0.97047 0.42802 0.0
C352 C 0.47049 0.06342 0.55196 0.0
C353 C 0.52058 0.99314 0.46613 0.0
N354 N 0.49179 0.93977 0.63383 0.0
N355 N 0.4915 0.0783 0.37738 0.0
H356 H 0.56612 0.92023 0.44317 0.0
H357 H 0.55113 0.00783 0.38327 0.0
H358 H 0.47222 0.1228 0.35779 0.0
H359 H 0.50677 0.04414 0.3423 0.0
H360 H 0.47152 0.94821 0.66374 0.0
H361 H 0.50964 0.88831 0.6532 0.0
H362 H 0.45215 0.10485 0.64538 0.0
H363 H 0.43355 0.17582 0.58266 0.0
C364 C -0.0031 0.5359 0.96361 0.0
C365 C 0.01302 0.56514 0.02132 0.0
C366 C 0.96877 0.48591 0.08613 0.0
C367 C 0.95431 0.4474 0.02858 0.0
N368 N 0.9566 0.42059 0.91297 0.0
N369 N 0.01686 0.5573 0.13751 0.0
C370 C 0.96883 0.46858 0.96735 0.0
C371 C -0.00042 0.53768 0.0827 0.0
N372 N 0.00768 0.57599 0.90538 0.0
N373 N 0.95264 0.47502 0.1438 0.0
H374 H 0.03959 0.59447 0.13681 0.0
H375 H 0.01002 0.52881 0.18316 0.0
H376 H 0.93004 0.43734 0.14777 0.0
H377 H 0.96023 0.51123 0.18669 0.0
H378 H -0.00517 0.56815 0.8626 0.0
H379 H 0.02817 0.62554 0.90047 0.0
H380 H 0.96844 0.42158 0.8683 0.0
H381 H 0.93575 0.37223 0.91326 0.0
C382 C 0.00139 0.42858 0.44857 0.0
C383 C 0.0212 0.41655 0.50382 0.0
C384 C 0.98443 0.53553 0.56671 0.0
C385 C 0.96343 0.54103 0.51298 0.0
N386 N 0.94933 0.48502 0.40529 0.0
N387 N 0.02856 0.4392 0.61884 0.0
C388 C 0.97114 0.48512 0.45453 0.0
C389 C 0.012 0.46514 0.56379 0.0
N390 N 0.01204 0.38891 0.39019 0.0
N391 N 0.97828 0.59904 0.62031 0.0
H392 H 0.04878 0.38704 0.61944 0.0
H393 H 0.02064 0.46121 0.66503 0.0
H394 H 0.9576 0.64831 0.62582 0.0
H395 H -0.00519 0.60934 0.65747 0.0
H396 H 0.00036 0.40409 0.34668 0.0
H397 H 0.03409 0.34736 0.38443 0.0
H398 H 0.9519 0.43692 0.36378 0.0
H399 H 0.92733 0.52777 0.40791 0.0
loop_
_geom_bond_atom_site_label_1
_geom_bond_atom_site_label_2
_geom_bond_distance
_geom_bond_site_symmetry_2
_ccdc_geom_bond_type
C0 O1 1.306 . S
C0 O3 1.160 . S
O1 C0 1.306 . S
O1 Cd2 2.228 . S
Cd2 O1 2.228 . S
Cd2 O6 2.273 1_554 S
Cd2 O10 2.277 . S
O3 C0 1.160 . S
O3 Cd4 2.203 . S
Cd4 O3 2.203 . S
Cd4 O6 2.411 1_554 S
Cd4 O7 2.333 1_554 S
Cd4 O8 2.352 . S
Cd4 O12 2.277 . S
Cd4 O13 2.356 . S
C5 O10 1.209 . S
C5 O12 1.226 . S
O6 Cd2 2.273 1_556 S
O6 Cd4 2.411 1_556 S
O6 C9 1.320 . S
O7 Cd4 2.333 1_556 S
O7 C9 1.214 . S
O8 Cd4 2.352 . S
O8 C11 1.258 . S
C9 O6 1.320 . S
C9 O7 1.214 . S
O10 Cd2 2.277 . S
O10 C5 1.209 . S
C11 O8 1.258 . S
C11 O13 1.282 . S
O12 Cd4 2.277 . S
O12 C5 1.226 . S
O13 Cd4 2.356 . S
O13 C11 1.282 . S
C14 O15 1.306 . S
C14 O17 1.160 . S
O15 C14 1.306 . S
O15 Cd16 2.228 . S
Cd16 O15 2.228 . S
Cd16 O20 2.273 1_554 S
Cd16 O24 2.277 . S
O17 C14 1.160 . S
O17 Cd18 2.203 . S
Cd18 O17 2.203 . S
Cd18 O20 2.411 1_554 S
Cd18 O21 2.333 1_554 S
Cd18 O22 2.352 . S
Cd18 O26 2.277 . S
Cd18 O27 2.356 . S
C19 O24 1.209 . S
C19 O26 1.226 . S
O20 Cd16 2.273 1_556 S
O20 Cd18 2.411 1_556 S
O20 C23 1.320 . S
O21 Cd18 2.333 1_556 S
O21 C23 1.214 . S
O22 Cd18 2.352 . S
O22 C25 1.258 . S
C23 O20 1.320 . S
C23 O21 1.214 . S
O24 Cd16 2.277 . S
O24 C19 1.209 . S
C25 O22 1.258 . S
C25 O27 1.282 . S
O26 Cd18 2.277 . S
O26 C19 1.226 . S
O27 Cd18 2.356 . S
O27 C25 1.282 . S
C28 O29 1.306 . S
C28 O31 1.160 . S
O29 C28 1.306 . S
O29 Cd30 2.228 . S
Cd30 O29 2.228 . S
Cd30 O34 2.273 . S
Cd30 O38 2.277 . S
O31 C28 1.160 . S
O31 Cd32 2.203 . S
Cd32 O31 2.203 . S
Cd32 O34 2.411 . S
Cd32 O35 2.333 . S
Cd32 O36 2.352 . S
Cd32 O40 2.277 . S
Cd32 O41 2.356 . S
C33 O38 1.209 . S
C33 O40 1.226 . S
O34 Cd30 2.273 . S
O34 Cd32 2.411 . S
O34 C37 1.320 . S
O35 Cd32 2.333 . S
O35 C37 1.214 . S
O36 Cd32 2.352 . S
O36 C39 1.258 . S
C37 O34 1.320 . S
C37 O35 1.214 . S
O38 Cd30 2.277 . S
O38 C33 1.209 . S
C39 O36 1.258 . S
C39 O41 1.282 . S
O40 Cd32 2.277 . S
O40 C33 1.226 . S
O41 Cd32 2.356 . S
O41 C39 1.282 . S
C42 O43 1.306 . S
C42 O45 1.160 . S
O43 C42 1.306 . S
O43 Cd44 2.228 . S
Cd44 O43 2.228 . S
Cd44 O48 2.273 . S
Cd44 O52 2.277 . S
O45 C42 1.160 . S
O45 Cd46 2.203 . S
Cd46 O45 2.203 . S
Cd46 O48 2.411 . S
Cd46 O49 2.333 . S
Cd46 O50 2.352 . S
Cd46 O54 2.277 . S
Cd46 O55 2.356 . S
C47 O52 1.209 . S
C47 O54 1.226 . S
O48 Cd44 2.273 . S
O48 Cd46 2.411 . S
O48 C51 1.320 . S
O49 Cd46 2.333 . S
O49 C51 1.214 . S
O50 Cd46 2.352 . S
O50 C53 1.258 . S
C51 O48 1.320 . S
C51 O49 1.214 . S
O52 Cd44 2.277 . S
O52 C47 1.209 . S
C53 O50 1.258 . S
C53 O55 1.282 . S
O54 Cd46 2.277 . S
O54 C47 1.226 . S
O55 Cd46 2.356 . S
O55 C53 1.282 . S
C56 O57 1.306 1_565 S
C56 O59 1.160 . S
O57 C56 1.306 1_545 S
O57 Cd58 2.228 . S
Cd58 O57 2.228 . S
Cd58 O62 2.273 1_544 S
Cd58 O66 2.277 1_545 S
O59 C56 1.160 . S
O59 Cd60 2.203 . S
Cd60 O59 2.203 . S
Cd60 O62 2.411 1_554 S
Cd60 O63 2.333 1_554 S
Cd60 O64 2.352 . S
Cd60 O68 2.277 . S
Cd60 O69 2.356 . S
C61 O66 1.209 . S
C61 O68 1.226 . S
O62 Cd58 2.273 1_566 S
O62 Cd60 2.411 1_556 S
O62 C65 1.320 . S
O63 Cd60 2.333 1_556 S
O63 C65 1.214 . S
O64 Cd60 2.352 . S
O64 C67 1.258 . S
C65 O62 1.320 . S
C65 O63 1.214 . S
O66 Cd58 2.277 1_565 S
O66 C61 1.209 . S
C67 O64 1.258 . S
C67 O69 1.282 . S
O68 Cd60 2.277 . S
O68 C61 1.226 . S
O69 Cd60 2.356 . S
O69 C67 1.282 . S
C70 O71 1.306 1_545 S
C70 O73 1.160 . S
O71 C70 1.306 1_565 S
O71 Cd72 2.228 . S
Cd72 O71 2.228 . S
Cd72 O76 2.273 1_564 S
Cd72 O80 2.277 1_565 S
O73 C70 1.160 . S
O73 Cd74 2.203 . S
Cd74 O73 2.203 . S
Cd74 O76 2.411 1_554 S
Cd74 O77 2.333 1_554 S
Cd74 O78 2.352 . S
Cd74 O82 2.277 . S
Cd74 O83 2.356 . S
C75 O80 1.209 . S
C75 O82 1.226 . S
O76 Cd72 2.273 1_546 S
O76 Cd74 2.411 1_556 S
O76 C79 1.320 . S
O77 Cd74 2.333 1_556 S
O77 C79 1.214 . S
O78 Cd74 2.352 . S
O78 C81 1.258 . S
C79 O76 1.320 . S
C79 O77 1.214 . S
O80 Cd72 2.277 1_545 S
O80 C75 1.209 . S
C81 O78 1.258 . S
C81 O83 1.282 . S
O82 Cd74 2.277 . S
O82 C75 1.226 . S
O83 Cd74 2.356 . S
O83 C81 1.282 . S
C84 O85 1.306 1_545 S
C84 O87 1.160 . S
O85 C84 1.306 1_565 S
O85 Cd86 2.228 . S
Cd86 O85 2.228 . S
Cd86 O90 2.273 1_565 S
Cd86 O94 2.277 1_565 S
O87 C84 1.160 . S
O87 Cd88 2.203 . S
Cd88 O87 2.203 . S
Cd88 O90 2.411 . S
Cd88 O91 2.333 . S
Cd88 O92 2.352 . S
Cd88 O96 2.277 . S
Cd88 O97 2.356 . S
C89 O94 1.209 . S
C89 O96 1.226 . S
O90 Cd86 2.273 1_545 S
O90 Cd88 2.411 . S
O90 C93 1.320 . S
O91 Cd88 2.333 . S
O91 C93 1.214 . S
O92 Cd88 2.352 . S
O92 C95 1.258 . S
C93 O90 1.320 . S
C93 O91 1.214 . S
O94 Cd86 2.277 1_545 S
O94 C89 1.209 . S
C95 O92 1.258 . S
C95 O97 1.282 . S
O96 Cd88 2.277 . S
O96 C89 1.226 . S
O97 Cd88 2.356 . S
O97 C95 1.282 . S
C98 O99 1.306 1_565 S
C98 O101 1.160 . S
O99 C98 1.306 1_545 S
O99 Cd100 2.228 . S
Cd100 O99 2.228 . S
Cd100 O104 2.273 1_545 S
Cd100 O108 2.277 1_545 S
O101 C98 1.160 . S
O101 Cd102 2.203 . S
Cd102 O101 2.203 . S
Cd102 O104 2.411 . S
Cd102 O105 2.333 . S
Cd102 O106 2.352 . S
Cd102 O110 2.277 . S
Cd102 O111 2.356 . S
C103 O108 1.209 . S
C103 O110 1.226 . S
O104 Cd100 2.273 1_565 S
O104 Cd102 2.411 . S
O104 C107 1.320 . S
O105 Cd102 2.333 . S
O105 C107 1.214 . S
O106 Cd102 2.352 . S
O106 C109 1.258 . S
C107 O104 1.320 . S
C107 O105 1.214 . S
O108 Cd100 2.277 1_565 S
O108 C103 1.209 . S
C109 O106 1.258 . S
C109 O111 1.282 . S
O110 Cd102 2.277 . S
O110 C103 1.226 . S
O111 Cd102 2.356 . S
O111 C109 1.282 . S
C112 C113 1.363 1_556 S
C112 C118 1.379 . S
C112 N120 1.356 . S
C113 C112 1.363 1_554 S
C113 C119 1.363 . S
C114 C115 1.363 . S
C114 C119 1.379 . S
C114 N121 1.356 . S
C115 C114 1.363 . S
C115 C118 1.363 1_554 S
N116 C118 1.356 . S
N116 H128 0.984 . S
N116 H129 0.985 . S
N117 C119 1.356 . S
N117 H122 0.984 . S
N117 H123 0.985 . S
C118 C112 1.379 . S
C118 C115 1.363 1_556 S
C118 N116 1.356 . S
C119 C113 1.363 . S
C119 C114 1.379 . S
C119 N117 1.356 . S
N120 C112 1.356 . S
N120 H126 0.984 . S
N120 H127 0.984 . S
N121 C114 1.356 . S
N121 H124 0.984 . S
N121 H125 0.985 . S
H122 N117 0.984 . S
H123 N117 0.985 . S
H124 N121 0.984 . S
H125 N121 0.985 . S
H126 N120 0.984 . S
H127 N120 0.984 . S
H128 N116 0.984 . S
H129 N116 0.985 . S
C130 C131 1.363 1_556 S
C130 C136 1.379 . S
C130 N138 1.356 . S
C131 C130 1.363 1_554 S
C131 C137 1.363 . S
C132 C133 1.363 . S
C132 C137 1.379 . S
C132 N139 1.356 . S
C133 C132 1.363 . S
C133 C136 1.363 1_554 S
N134 C136 1.356 . S
N134 H146 0.984 . S
N134 H147 0.985 . S
N135 C137 1.356 . S
N135 H140 0.984 . S
N135 H141 0.985 . S
C136 C130 1.379 . S
C136 C133 1.363 1_556 S
C136 N134 1.356 . S
C137 C131 1.363 . S
C137 C132 1.379 . S
C137 N135 1.356 . S
N138 C130 1.356 . S
N138 H144 0.984 . S
N138 H145 0.984 . S
N139 C132 1.356 . S
N139 H142 0.984 . S
N139 H143 0.985 . S
H140 N135 0.984 . S
H141 N135 0.985 . S
H142 N139 0.984 . S
H143 N139 0.985 . S
H144 N138 0.984 . S
H145 N138 0.984 . S
H146 N134 0.984 . S
H147 N134 0.985 . S
C148 C149 1.363 . S
C148 C154 1.379 . S
C148 N156 1.356 . S
C149 C148 1.363 . S
C149 C155 1.363 . S
C150 C151 1.363 . S
C150 C155 1.379 . S
C150 N157 1.356 . S
C151 C150 1.363 . S
C151 C154 1.363 . S
N152 C154 1.356 . S
N152 H164 0.984 . S
N152 H165 0.985 . S
N153 C155 1.356 . S
N153 H158 0.984 . S
N153 H159 0.985 . S
C154 C148 1.379 . S
C154 C151 1.363 . S
C154 N152 1.356 . S
C155 C149 1.363 . S
C155 C150 1.379 . S
C155 N153 1.356 . S
N156 C148 1.356 . S
N156 H162 0.984 . S
N156 H163 0.984 . S
N157 C150 1.356 . S
N157 H160 0.984 . S
N157 H161 0.985 . S
H158 N153 0.984 . S
H159 N153 0.985 . S
H160 N157 0.984 . S
H161 N157 0.985 . S
H162 N156 0.984 . S
H163 N156 0.984 . S
H164 N152 0.984 . S
H165 N152 0.985 . S
C166 C167 1.363 . S
C166 C172 1.379 . S
C166 N174 1.356 . S
C167 C166 1.363 . S
C167 C173 1.363 . S
C168 C169 1.363 . S
C168 C173 1.379 . S
C168 N175 1.356 . S
C169 C168 1.363 . S
C169 C172 1.363 . S
N170 C172 1.356 . S
N170 H182 0.984 . S
N170 H183 0.985 . S
N171 C173 1.356 . S
N171 H176 0.984 . S
N171 H177 0.985 . S
C172 C166 1.379 . S
C172 C169 1.363 . S
C172 N170 1.356 . S
C173 C167 1.363 . S
C173 C168 1.379 . S
C173 N171 1.356 . S
N174 C166 1.356 . S
N174 H180 0.984 . S
N174 H181 0.984 . S
N175 C168 1.356 . S
N175 H178 0.984 . S
N175 H179 0.985 . S
H176 N171 0.984 . S
H177 N171 0.985 . S
H178 N175 0.984 . S
H179 N175 0.985 . S
H180 N174 0.984 . S
H181 N174 0.984 . S
H182 N170 0.984 . S
H183 N170 0.985 . S
C184 C185 1.363 . S
C184 C190 1.379 . S
C184 N192 1.356 . S
C185 C184 1.363 . S
C185 C191 1.363 . S
C186 C187 1.363 . S
C186 C191 1.379 . S
C186 N193 1.356 . S
C187 C186 1.363 . S
C187 C190 1.363 . S
N188 C190 1.356 . S
N188 H200 0.984 . S
N188 H201 0.985 . S
N189 C191 1.356 . S
N189 H194 0.984 . S
N189 H195 0.985 . S
C190 C184 1.379 . S
C190 C187 1.363 . S
C190 N188 1.356 . S
C191 C185 1.363 . S
C191 C186 1.379 . S
C191 N189 1.356 . S
N192 C184 1.356 . S
N192 H198 0.984 . S
N192 H199 0.984 . S
N193 C186 1.356 . S
N193 H196 0.984 . S
N193 H197 0.985 . S
H194 N189 0.984 . S
H195 N189 0.985 . S
H196 N193 0.984 . S
H197 N193 0.985 . S
H198 N192 0.984 . S
H199 N192 0.984 . S
H200 N188 0.984 . S
H201 N188 0.985 . S
C202 C203 1.363 . S
C202 C208 1.379 . S
C202 N210 1.356 . S
C203 C202 1.363 . S
C203 C209 1.363 . S
C204 C205 1.363 . S
C204 C209 1.379 . S
C204 N211 1.356 . S
C205 C204 1.363 . S
C205 C208 1.363 . S
N206 C208 1.356 . S
N206 H218 0.984 . S
N206 H219 0.985 . S
N207 C209 1.356 . S
N207 H212 0.984 . S
N207 H213 0.985 . S
C208 C202 1.379 . S
C208 C205 1.363 . S
C208 N206 1.356 . S
C209 C203 1.363 . S
C209 C204 1.379 . S
C209 N207 1.356 . S
N210 C202 1.356 . S
N210 H216 0.984 . S
N210 H217 0.984 . S
N211 C204 1.356 . S
N211 H214 0.984 . S
N211 H215 0.985 . S
H212 N207 0.984 . S
H213 N207 0.985 . S
H214 N211 0.984 . S
H215 N211 0.985 . S
H216 N210 0.984 . S
H217 N210 0.984 . S
H218 N206 0.984 . S
H219 N206 0.985 . S
C220 C221 1.363 . S
C220 C226 1.379 . S
C220 N228 1.356 . S
C221 C220 1.363 . S
C221 C227 1.363 . S
C222 C223 1.363 . S
C222 C227 1.379 . S
C222 N229 1.356 . S
C223 C222 1.363 . S
C223 C226 1.363 . S
N224 C226 1.356 . S
N224 H236 0.984 . S
N224 H237 0.985 . S
N225 C227 1.356 . S
N225 H230 0.984 . S
N225 H231 0.985 . S
C226 C220 1.379 . S
C226 C223 1.363 . S
C226 N224 1.356 . S
C227 C221 1.363 . S
C227 C222 1.379 . S
C227 N225 1.356 . S
N228 C220 1.356 . S
N228 H234 0.984 . S
N228 H235 0.984 . S
N229 C222 1.356 . S
N229 H232 0.984 . S
N229 H233 0.985 . S
H230 N225 0.984 . S
H231 N225 0.985 . S
H232 N229 0.984 . S
H233 N229 0.985 . S
H234 N228 0.984 . S
H235 N228 0.984 . S
H236 N224 0.984 . S
H237 N224 0.985 . S
C238 C239 1.363 . S
C238 C244 1.379 . S
C238 N246 1.356 . S
C239 C238 1.363 . S
C239 C245 1.363 . S
C240 C241 1.363 . S
C240 C245 1.379 . S
C240 N247 1.356 . S
C241 C240 1.363 . S
C241 C244 1.363 . S
N242 C244 1.356 . S
N242 H254 0.984 . S
N242 H255 0.985 . S
N243 C245 1.356 . S
N243 H248 0.984 . S
N243 H249 0.985 . S
C244 C238 1.379 . S
C244 C241 1.363 . S
C244 N242 1.356 . S
C245 C239 1.363 . S
C245 C240 1.379 . S
C245 N243 1.356 . S
N246 C238 1.356 . S
N246 H252 0.984 . S
N246 H253 0.984 . S
N247 C240 1.356 . S
N247 H250 0.984 . S
N247 H251 0.985 . S
H248 N243 0.984 . S
H249 N243 0.985 . S
H250 N247 0.984 . S
H251 N247 0.985 . S
H252 N246 0.984 . S
H253 N246 0.984 . S
H254 N242 0.984 . S
H255 N242 0.985 . S
C256 C257 1.363 . S
C256 C262 1.379 . S
C256 N264 1.356 . S
C257 C256 1.363 . S
C257 C263 1.363 1_565 S
C258 C259 1.363 . S
C258 C263 1.379 . S
C258 N265 1.356 . S
C259 C258 1.363 . S
C259 C262 1.363 1_545 S
N260 C262 1.356 . S
N260 H272 0.984 . S
N260 H273 0.985 . S
N261 C263 1.356 . S
N261 H266 0.984 . S
N261 H267 0.985 . S
C262 C256 1.379 . S
C262 C259 1.363 1_565 S
C262 N260 1.356 . S
C263 C257 1.363 1_545 S
C263 C258 1.379 . S
C263 N261 1.356 . S
N264 C256 1.356 . S
N264 H270 0.984 . S
N264 H271 0.984 . S
N265 C258 1.356 . S
N265 H268 0.984 . S
N265 H269 0.985 . S
H266 N261 0.984 . S
H267 N261 0.985 . S
H268 N265 0.984 . S
H269 N265 0.985 . S
H270 N264 0.984 . S
H271 N264 0.984 . S
H272 N260 0.984 . S
H273 N260 0.985 . S
C274 C275 1.363 1_545 S
C274 C280 1.379 . S
C274 N282 1.356 . S
C275 C274 1.363 1_565 S
C275 C281 1.363 . S
C276 C277 1.363 1_565 S
C276 C281 1.379 . S
C276 N283 1.356 . S
C277 C276 1.363 1_545 S
C277 C280 1.363 . S
N278 C280 1.356 . S
N278 H290 0.984 . S
N278 H291 0.985 . S
N279 C281 1.356 . S
N279 H284 0.984 . S
N279 H285 0.985 . S
C280 C274 1.379 . S
C280 C277 1.363 . S
C280 N278 1.356 . S
C281 C275 1.363 . S
C281 C276 1.379 . S
C281 N279 1.356 . S
N282 C274 1.356 . S
N282 H288 0.984 . S
N282 H289 0.984 . S
N283 C276 1.356 . S
N283 H286 0.984 . S
N283 H287 0.985 . S
H284 N279 0.984 . S
H285 N279 0.985 . S
H286 N283 0.984 . S
H287 N283 0.985 . S
H288 N282 0.984 . S
H289 N282 0.984 . S
H290 N278 0.984 . S
H291 N278 0.985 . S
C292 C293 1.363 . S
C292 C298 1.379 . S
C292 N300 1.356 . S
C293 C292 1.363 . S
C293 C299 1.363 1_565 S
C294 C295 1.363 . S
C294 C299 1.379 . S
C294 N301 1.356 . S
C295 C294 1.363 . S
C295 C298 1.363 1_545 S
N296 C298 1.356 . S
N296 H308 0.984 . S
N296 H309 0.985 . S
N297 C299 1.356 . S
N297 H302 0.984 . S
N297 H303 0.985 . S
C298 C292 1.379 . S
C298 C295 1.363 1_565 S
C298 N296 1.356 . S
C299 C293 1.363 1_545 S
C299 C294 1.379 . S
C299 N297 1.356 . S
N300 C292 1.356 . S
N300 H306 0.984 . S
N300 H307 0.984 . S
N301 C294 1.356 . S
N301 H304 0.984 . S
N301 H305 0.985 . S
H302 N297 0.984 . S
H303 N297 0.985 . S
H304 N301 0.984 . S
H305 N301 0.985 . S
H306 N300 0.984 . S
H307 N300 0.984 . S
H308 N296 0.984 . S
H309 N296 0.985 . S
C310 C311 1.363 1_545 S
C310 C316 1.379 . S
C310 N318 1.356 . S
C311 C310 1.363 1_565 S
C311 C317 1.363 . S
C312 C313 1.363 1_565 S
C312 C317 1.379 . S
C312 N319 1.356 . S
C313 C312 1.363 1_545 S
C313 C316 1.363 . S
N314 C316 1.356 . S
N314 H326 0.984 . S
N314 H327 0.985 . S
N315 C317 1.356 . S
N315 H320 0.984 . S
N315 H321 0.985 . S
C316 C310 1.379 . S
C316 C313 1.363 . S
C316 N314 1.356 . S
C317 C311 1.363 . S
C317 C312 1.379 . S
C317 N315 1.356 . S
N318 C310 1.356 . S
N318 H324 0.984 . S
N318 H325 0.984 . S
N319 C312 1.356 . S
N319 H322 0.984 . S
N319 H323 0.985 . S
H320 N315 0.984 . S
H321 N315 0.985 . S
H322 N319 0.984 . S
H323 N319 0.985 . S
H324 N318 0.984 . S
H325 N318 0.984 . S
H326 N314 0.984 . S
H327 N314 0.985 . S
C328 C329 1.363 1_556 S
C328 C334 1.379 . S
C328 N336 1.356 . S
C329 C328 1.363 1_554 S
C329 C335 1.363 1_565 S
C330 C331 1.363 . S
C330 C335 1.379 . S
C330 N337 1.356 . S
C331 C330 1.363 . S
C331 C334 1.363 1_544 S
N332 C334 1.356 1_545 S
N332 H344 0.984 1_545 S
N332 H345 0.985 . S
N333 C335 1.356 1_565 S
N333 H338 0.984 . S
N333 H339 0.985 1_565 S
C334 C328 1.379 . S
C334 C331 1.363 1_566 S
C334 N332 1.356 1_565 S
C335 C329 1.363 1_545 S
C335 C330 1.379 . S
C335 N333 1.356 1_545 S
N336 C328 1.356 . S
N336 H342 0.984 . S
N336 H343 0.984 . S
N337 C330 1.356 . S
N337 H340 0.984 . S
N337 H341 0.985 . S
H338 N333 0.984 . S
H339 N333 0.985 1_545 S
H340 N337 0.984 . S
H341 N337 0.985 . S
H342 N336 0.984 . S
H343 N336 0.984 . S
H344 N332 0.984 1_565 S
H345 N332 0.985 . S
C346 C347 1.363 . S
C346 C352 1.379 . S
C346 N354 1.356 . S
C347 C346 1.363 . S
C347 C353 1.363 1_565 S
C348 C349 1.363 . S
C348 C353 1.379 . S
C348 N355 1.356 . S
C349 C348 1.363 . S
C349 C352 1.363 1_545 S
N350 C352 1.356 1_545 S
N350 H362 0.984 1_545 S
N350 H363 0.985 . S
N351 C353 1.356 1_565 S
N351 H356 0.984 . S
N351 H357 0.985 1_565 S
C352 C346 1.379 . S
C352 C349 1.363 1_565 S
C352 N350 1.356 1_565 S
C353 C347 1.363 1_545 S
C353 C348 1.379 . S
C353 N351 1.356 1_545 S
N354 C346 1.356 . S
N354 H360 0.984 . S
N354 H361 0.984 . S
N355 C348 1.356 . S
N355 H358 0.984 . S
N355 H359 0.985 . S
H356 N351 0.984 . S
H357 N351 0.985 1_545 S
H358 N355 0.984 . S
H359 N355 0.985 . S
H360 N354 0.984 . S
H361 N354 0.984 . S
H362 N350 0.984 1_565 S
H363 N350 0.985 . S
C364 C365 1.363 1_556 S
C364 C370 1.379 1_455 S
C364 N372 1.356 . S
C365 C364 1.363 1_554 S
C365 C371 1.363 . S
C366 C367 1.363 . S
C366 C371 1.379 1_655 S
C366 N373 1.356 . S
C367 C366 1.363 . S
C367 C370 1.363 1_554 S
N368 C370 1.356 . S
N368 H380 0.984 . S
N368 H381 0.985 . S
N369 C371 1.356 . S
N369 H374 0.984 . S
N369 H375 0.985 . S
C370 C364 1.379 1_655 S
C370 C367 1.363 1_556 S
C370 N368 1.356 . S
C371 C365 1.363 . S
C371 C366 1.379 1_455 S
C371 N369 1.356 . S
N372 C364 1.356 . S
N372 H378 0.984 1_455 S
N372 H379 0.984 . S
N373 C366 1.356 . S
N373 H376 0.984 . S
N373 H377 0.985 1_655 S
H374 N369 0.984 . S
H375 N369 0.985 . S
H376 N373 0.984 . S
H377 N373 0.985 1_455 S
H378 N372 0.984 1_655 S
H379 N372 0.984 . S
H380 N368 0.984 . S
H381 N368 0.985 . S
C382 C383 1.363 . S
C382 C388 1.379 1_455 S
C382 N390 1.356 . S
C383 C382 1.363 . S
C383 C389 1.363 . S
C384 C385 1.363 . S
C384 C389 1.379 1_655 S
C384 N391 1.356 . S
C385 C384 1.363 . S
C385 C388 1.363 . S
N386 C388 1.356 . S
N386 H398 0.984 1_655 S
N386 H399 0.985 . S
N387 C389 1.356 . S
N387 H392 0.984 . S
N387 H393 0.985 1_455 S
C388 C382 1.379 1_655 S
C388 C385 1.363 . S
C388 N386 1.356 . S
C389 C383 1.363 . S
C389 C384 1.379 1_455 S
C389 N387 1.356 . S
N390 C382 1.356 . S
N390 H396 0.984 . S
N390 H397 0.984 . S
N391 C384 1.356 . S
N391 H394 0.984 . S
N391 H395 0.985 . S
H392 N387 0.984 . S
H393 N387 0.985 1_655 S
H394 N391 0.984 . S
H395 N391 0.985 . S
H396 N390 0.984 . S
H397 N390 0.984 . S
H398 N386 0.984 1_455 S
H399 N386 0.985 . S
C113 C75 1.500 . S
C115 C5 1.500 . S
C131 C61 1.500 . S
C133 C19 1.500 . S
C149 C103 1.500 . S
C151 C33 1.500 . S
C167 C89 1.500 . S
C169 C47 1.500 . S
C185 C0 1.444 . S
C187 C28 1.444 . S
C203 C14 1.444 . S
C205 C42 1.444 . S
C221 C23 1.440 . S
C223 C51 1.440 . S
C239 C9 1.440 . S
C241 C37 1.440 . S
C257 C56 1.444 . S
C259 C84 1.444 . S
C275 C98 1.444 . S
C277 C70 1.444 . S
C293 C107 1.440 . S
C295 C79 1.440 . S
C311 C65 1.440 . S
C313 C93 1.440 . S
C329 C25 1.498 . S
C331 C11 1.498 . S
C347 C39 1.498 . S
C349 C53 1.498 . S
C365 C67 1.498 . S
C367 C81 1.498 . S
C383 C95 1.498 . S
C385 C109 1.498 . S
