# Generated by pormake.
# Topology oof, (8)-cn, num edge types: 1
# Building blocks:
#     Node 0, Type 0, BuildingBlock: TAGTUT_clean_sbu_1, # of connection points: 8
#     Node 1, Type 0, BuildingBlock: TAGTUT_clean_sbu_1, # of connection points: 8
#     Node 2, Type 0, BuildingBlock: TAGTUT_clean_sbu_1, # of connection points: 8
#     Node 3, Type 0, BuildingBlock: TAGTUT_clean_sbu_1, # of connection points: 8
#     Edge 4, Type (0, 0), BuildingBlock: KIFKEQ_clean_linker_1, # of connection points: 2
#     Edge 5, Type (0, 0), BuildingBlock: KIFKEQ_clean_linker_1, # of connection points: 2
#     Edge 6, Type (0, 0), BuildingBlock: KIFKEQ_clean_linker_1, # of connection points: 2
#     Edge 7, Type (0, 0), BuildingBlock: KIFKEQ_clean_linker_1, # of connection points: 2
#     Edge 8, Type (0, 0), BuildingBlock: KIFKEQ_clean_linker_1, # of connection points: 2
#     Edge 9, Type (0, 0), BuildingBlock: KIFKEQ_clean_linker_1, # of connection points: 2
#     Edge 10, Type (0, 0), BuildingBlock: KIFKEQ_clean_linker_1, # of connection points: 2
#     Edge 11, Type (0, 0), BuildingBlock: KIFKEQ_clean_linker_1, # of connection points: 2
#     Edge 12, Type (0, 0), BuildingBlock: KIFKEQ_clean_linker_1, # of connection points: 2
#     Edge 13, Type (0, 0), BuildingBlock: KIFKEQ_clean_linker_1, # of connection points: 2
#     Edge 14, Type (0, 0), BuildingBlock: KIFKEQ_clean_linker_1, # of connection points: 2
#     Edge 15, Type (0, 0), BuildingBlock: KIFKEQ_clean_linker_1, # of connection points: 2
#     Edge 16, Type (0, 0), BuildingBlock: KIFKEQ_clean_linker_1, # of connection points: 2
#     Edge 17, Type (0, 0), BuildingBlock: KIFKEQ_clean_linker_1, # of connection points: 2
#     Edge 18, Type (0, 0), BuildingBlock: KIFKEQ_clean_linker_1, # of connection points: 2
#     Edge 19, Type (0, 0), BuildingBlock: KIFKEQ_clean_linker_1, # of connection points: 2
# Relax obj value: 0.052
# Max RMSD: 0.155
# Mean RMSD: 0.155
data_MOF--net-oof--node1-TAGTUT_clean_sbu_1--edge1-KIFKEQ_clean_linker_1
_symmetry_space_group_name_H-M    P1
_symmetry_Int_Tables_number       1
_symmetry_cell_setting            triclinic
loop_
_symmetry_equiv_pos_as_xyz
'x, y, z'
_cell_length_a     15.770766
_cell_length_b     55.975379
_cell_length_c     19.610364
_cell_angle_alpha  92.53079
_cell_angle_beta   102.44195
_cell_angle_gamma 103.66626
loop_
_atom_site_label
_atom_site_type_symbol
_atom_site_fract_x
_atom_site_fract_y
_atom_site_fract_z
_atom_type_partial_charge
C0 C 0.04789 0.11079 0.47929 0.0
C1 C 0.07224 0.0692 0.31798 0.0
C2 C 0.21768 0.15969 0.22285 0.0
Mg3 Mg 0.93841 0.09624 0.32509 0.0
O4 O 0.0142 0.12717 0.31917 0.0
Mg5 Mg 0.14701 0.13111 0.35058 0.0
Mg6 Mg 0.01145 0.13735 0.22308 0.0
O7 O 0.00412 0.14717 0.12667 0.0
Mg8 Mg 0.06789 0.17847 0.11361 0.0
Mg9 Mg 0.87143 0.13694 0.0859 0.0
C10 C 0.79717 0.1179 0.2235 0.0
C11 C 0.93872 0.08687 0.114 0.0
O12 O 0.11549 0.12285 0.45761 0.0
O13 O 0.97408 0.09882 0.43762 0.0
O14 O 0.13734 0.08871 0.33372 0.0
O15 O -0.00326 0.07052 0.28166 0.0
O16 O 0.81199 0.10269 0.26906 0.0
O17 O 0.86065 0.13195 0.20195 0.0
C18 C 0.10712 0.18524 0.33744 0.0
O19 O 0.04839 0.17772 0.27895 0.0
O20 O 0.15049 0.17111 0.37079 0.0
O21 O 0.90924 0.14277 0.97883 0.0
O22 O 0.04829 0.16845 0.00422 0.0
O23 O 0.85788 0.17688 0.09294 0.0
C24 C -0.01922 0.1542 0.96081 0.0
O25 O -0.01116 0.20512 0.12247 0.0
O26 O 0.195 0.17563 0.18164 0.0
C27 C 0.90297 0.19943 0.10554 0.0
O28 O 0.15939 0.14183 0.23868 0.0
O29 O -0.01134 0.09798 0.17225 0.0
O30 O 0.88623 0.09734 0.07424 0.0
C31 C 0.00402 0.86895 0.0315 0.0
C32 C 0.06386 0.82133 0.88256 0.0
C33 C 0.18613 0.90338 0.76842 0.0
Mg34 Mg 0.90822 0.84618 0.87984 0.0
O35 O 0.97789 0.87616 0.86412 0.0
Mg36 Mg 0.11071 0.88388 0.90328 0.0
Mg37 Mg 0.97177 0.88652 0.7678 0.0
O38 O 0.97058 0.89679 0.67221 0.0
Mg39 Mg 0.05126 0.92685 0.66936 0.0
Mg40 Mg 0.84024 0.89553 0.63961 0.0
C41 C 0.76598 0.86653 0.76605 0.0
C42 C 0.8648 0.83961 0.65164 0.0
O43 O 0.0753 0.87859 0.01064 0.0
O44 O 0.93145 0.85619 0.99003 0.0
O45 O 0.11608 0.84308 0.89297 0.0
O46 O 0.97858 0.81778 0.87005 0.0
O47 O 0.78647 0.85081 0.8089 0.0
O48 O 0.8253 0.88452 0.75176 0.0
C49 C 0.05401 0.9358 0.88206 0.0
O50 O 0.00332 0.92623 0.8223 0.0
O51 O 0.10315 0.92378 0.91903 0.0
O52 O 0.87457 0.90346 0.53222 0.0
O53 O 0.01868 0.92573 0.55788 0.0
O54 O 0.86347 0.93879 0.65599 0.0
C55 C 0.94541 0.91507 0.51357 0.0
O56 O 0.00432 0.95468 0.71328 0.0
O57 O 0.17446 0.91922 0.7244 0.0
C58 C 0.92917 0.95764 0.68107 0.0
O59 O 0.12086 0.88939 0.78792 0.0
O60 O 0.92617 0.84633 0.7091 0.0
O61 O 0.82509 0.85471 0.61935 0.0
C62 C 0.52594 0.60925 0.47491 0.0
C63 C 0.5564 0.56649 0.31032 0.0
C64 C 0.70237 0.65832 0.21975 0.0
Mg65 Mg 0.42121 0.59494 0.31971 0.0
O66 O 0.49855 0.62534 0.31411 0.0
Mg67 Mg 0.62996 0.62929 0.34814 0.0
Mg68 Mg 0.49609 0.63596 0.21935 0.0
O69 O 0.48941 0.64655 0.12343 0.0
Mg70 Mg 0.55355 0.67774 0.10921 0.0
Mg71 Mg 0.35677 0.63648 0.08357 0.0
C72 C 0.28091 0.61635 0.2185 0.0
C73 C 0.42511 0.58629 0.10692 0.0
O74 O 0.59636 0.62071 0.45548 0.0
O75 O 0.45264 0.5982 0.43123 0.0
O76 O 0.61712 0.58683 0.33015 0.0
O77 O 0.47467 0.56643 0.28597 0.0
O78 O 0.29466 0.60082 0.2632 0.0
O79 O 0.34527 0.63056 0.19837 0.0
C80 C 0.58944 0.6834 0.33653 0.0
O81 O 0.53137 0.67609 0.27759 0.0
O82 O 0.63306 0.66918 0.36921 0.0
O83 O 0.39276 0.64284 0.97735 0.0
O84 O 0.53199 0.66826 -0.00156 0.0
O85 O 0.34324 0.67621 0.09301 0.0
C86 C 0.46232 0.65415 0.95681 0.0
O87 O 0.47458 0.70435 0.11993 0.0
O88 O 0.67976 0.67411 0.17782 0.0
C89 C 0.38866 0.69872 0.10504 0.0
O90 O 0.64407 0.64054 0.23604 0.0
O91 O 0.4737 0.59639 0.16684 0.0
O92 O 0.37349 0.59744 0.06898 0.0
C93 C 0.51831 0.37413 0.03374 0.0
C94 C 0.58342 0.32463 0.89046 0.0
C95 C 0.70603 0.4074 0.77191 0.0
Mg96 Mg 0.42443 0.34894 0.88328 0.0
O97 O 0.49559 0.37756 0.86181 0.0
Mg98 Mg 0.62784 0.38734 0.90554 0.0
Mg99 Mg 0.49011 0.38879 0.76639 0.0
O100 O 0.49169 0.40161 0.67289 0.0
Mg101 Mg 0.57235 0.43261 0.67498 0.0
Mg102 Mg 0.35917 0.39965 0.64028 0.0
C103 C 0.28291 0.36812 0.76496 0.0
C104 C 0.39363 0.34436 0.64083 0.0
O105 O 0.59033 0.38294 0.0129 0.0
O106 O 0.44592 0.36119 0.99246 0.0
O107 O 0.63533 0.34645 0.89817 0.0
O108 O 0.49801 0.32093 0.87891 0.0
O109 O 0.30286 0.35296 0.80993 0.0
O110 O 0.34288 0.38559 0.74931 0.0
C111 C 0.56441 0.43784 0.88156 0.0
O112 O 0.51396 0.42687 0.82356 0.0
O113 O 0.61828 0.42741 0.91976 0.0
O114 O 0.39562 0.41087 0.53534 0.0
O115 O 0.54102 0.43216 0.56262 0.0
O116 O 0.37105 0.44203 0.66718 0.0
C117 C 0.46728 0.4224 0.51757 0.0
O118 O 0.50994 0.45564 0.72467 0.0
O119 O 0.69444 0.42402 0.7304 0.0
C120 C 0.44361 0.45933 0.68116 0.0
O121 O 0.64065 0.3928 0.7898 0.0
O122 O 0.44975 0.3495 0.70141 0.0
O123 O 0.3543 0.36014 0.6121 0.0
H124 H 0.85043 0.13288 0.84326 0.0
H125 H 0.1375 0.16063 0.91996 0.0
H126 H 0.87325 0.11993 0.72939 0.0
H127 H 0.16032 0.14667 0.80855 0.0
H128 H 0.15782 0.14729 0.57603 0.0
H129 H 0.14199 0.15716 0.69318 0.0
H130 H 0.92903 0.09043 0.67109 0.0
H131 H 0.94255 0.08106 0.55172 0.0
C132 C 0.91816 0.13624 0.83573 0.0
C133 C -0.00806 0.14807 0.8901 0.0
C134 C 0.9314 0.12853 0.77099 0.0
C135 C 0.0187 0.1322 0.76006 0.0
C136 C 0.09218 0.14396 0.81472 0.0
C137 C 0.07894 0.15202 0.87868 0.0
C138 C 0.10888 0.13442 0.59659 0.0
C139 C 0.05072 0.11356 0.55458 0.0
C140 C 0.09975 0.14009 0.66391 0.0
C141 C 0.03335 0.12475 0.69112 0.0
C142 C 0.9792 0.10294 0.65081 0.0
C143 C -0.01248 0.09745 0.58287 0.0
H144 H 0.08973 0.93176 0.45795 0.0
H145 H 0.80751 0.89405 0.40021 0.0
H146 H 0.10378 0.92119 0.34117 0.0
H147 H 0.82068 0.8846 0.28096 0.0
H148 H 0.90208 0.84266 0.11187 0.0
H149 H 0.88328 0.8568 0.22574 0.0
H150 H 0.072 0.92661 0.22256 0.0
H151 H 0.09431 0.91184 0.11114 0.0
C152 C 0.0299 0.92175 0.41978 0.0
C153 C 0.94774 0.91332 0.43883 0.0
C154 C 0.03799 0.91578 0.35236 0.0
C155 C 0.96371 0.90167 0.30191 0.0
C156 C 0.87981 0.89488 0.31932 0.0
C157 C 0.87197 0.90055 0.38736 0.0
C158 C 0.94053 0.86084 0.1364 0.0
C159 C 0.00059 0.87602 0.10353 0.0
C160 C 0.92874 0.86913 0.20095 0.0
C161 C 0.97544 0.89296 0.233 0.0
C162 C 0.03599 0.90802 0.19999 0.0
C163 C 0.04915 0.89953 0.13627 0.0
H164 H 0.56062 0.68193 0.87628 0.0
H165 H 0.38111 0.6106 0.87811 0.0
H166 H 0.58166 0.6686 0.76223 0.0
H167 H 0.4059 0.59678 0.76691 0.0
H168 H 0.38389 0.59154 0.53204 0.0
H169 H 0.36956 0.60223 0.64858 0.0
H170 H 0.64937 0.64219 0.70591 0.0
H171 H 0.66264 0.63257 0.58672 0.0
C172 C 0.52551 0.66347 0.85203 0.0
C173 C 0.4681 0.64745 0.88514 0.0
C174 C 0.53857 0.65568 0.78739 0.0
C175 C 0.49587 0.63156 0.75562 0.0
C176 C 0.43852 0.61561 0.78915 0.0
C177 C 0.42399 0.62357 0.85281 0.0
C178 C 0.44299 0.60235 0.56949 0.0
C179 C 0.52415 0.61153 0.54967 0.0
C180 C 0.43478 0.60838 0.63677 0.0
C181 C 0.50801 0.62334 0.68643 0.0
C182 C 0.59104 0.63115 0.6682 0.0
C183 C 0.59898 0.62539 0.60023 0.0
H184 H 0.61534 0.41665 0.1137 0.0
H185 H 0.41002 0.35013 0.11374 0.0
H186 H 0.59606 0.43255 0.22515 0.0
H187 H 0.39397 0.36533 0.22738 0.0
H188 H 0.32764 0.40372 0.40352 0.0
H189 H 0.3389 0.39428 0.28387 0.0
H190 H 0.62445 0.42776 0.34402 0.0
H191 H 0.6123 0.43837 0.46165 0.0
C192 C 0.56761 0.40516 0.13851 0.0
C193 C 0.51471 0.38205 0.10546 0.0
C194 C 0.55629 0.41431 0.20238 0.0
C195 C 0.49302 0.40033 0.23533 0.0
C196 C 0.44168 0.37692 0.20282 0.0
C197 C 0.45178 0.36799 0.13822 0.0
C198 C 0.39236 0.40957 0.39067 0.0
C199 C 0.4693 0.42136 0.44253 0.0
C200 C 0.3991 0.40388 0.32227 0.0
C201 C 0.48303 0.40962 0.30461 0.0
C202 C 0.5586 0.42305 0.35532 0.0
C203 C 0.55164 0.42906 0.42324 0.0
H204 H 0.63483 0.08728 0.22411 0.0
H205 H 0.7644 0.16239 0.19868 0.0
H206 H 0.49844 0.09982 0.22976 0.0
H207 H 0.6317 0.17531 0.20924 0.0
H208 H 0.34921 0.18569 0.16581 0.0
H209 H 0.487 0.17525 0.15966 0.0
H210 H 0.44181 0.12108 0.30737 0.0
H211 H 0.29907 0.13036 0.30937 0.0
C212 C 0.63348 0.10638 0.2187 0.0
C213 C 0.70967 0.12381 0.21049 0.0
C214 C 0.55619 0.11371 0.22341 0.0
C215 C 0.55457 0.13872 0.2217 0.0
C216 C 0.62977 0.15587 0.21016 0.0
C217 C 0.70602 0.14842 0.20367 0.0
C218 C 0.36909 0.17186 0.19818 0.0
C219 C 0.3121 0.15849 0.23705 0.0
C220 C 0.44875 0.16586 0.19465 0.0
C221 C 0.47475 0.14685 0.2316 0.0
C222 C 0.42207 0.13517 0.27603 0.0
C223 C 0.34102 0.14078 0.27827 0.0
H224 H 0.69039 0.89882 0.68777 0.0
H225 H 0.62576 0.83422 0.79849 0.0
H226 H 0.54372 0.90583 0.68683 0.0
H227 H 0.48401 0.84236 0.80285 0.0
H228 H 0.21064 0.85742 0.7728 0.0
H229 H 0.34214 0.84513 0.75506 0.0
H230 H 0.48672 0.92214 0.77373 0.0
H231 H 0.35173 0.93426 0.78566 0.0
C232 C 0.64447 0.88589 0.71077 0.0
C233 C 0.67076 0.86648 0.74528 0.0
C234 C 0.56111 0.89015 0.71143 0.0
C235 C 0.50383 0.87532 0.74759 0.0
C236 C 0.52637 0.85432 0.775 0.0
C237 C 0.6084 0.84972 0.77276 0.0
C238 C 0.27137 0.87168 0.77492 0.0
C239 C 0.27174 0.89676 0.78061 0.0
C240 C 0.34668 0.86466 0.76417 0.0
C241 C 0.42449 0.88264 0.76118 0.0
C242 C 0.42675 0.9078 0.77284 0.0
C243 C 0.35047 0.9148 0.78146 0.0
H244 H 0.78295 0.62839 0.30457 0.0
H245 H 0.83488 0.68489 0.16457 0.0
H246 H 0.92538 0.61907 0.30174 0.0
H247 H 0.97237 0.67441 0.15755 0.0
H248 H 0.24934 0.6611 0.19585 0.0
H249 H 0.11679 0.67402 0.20682 0.0
H250 H -0.01845 0.59827 0.22258 0.0
H251 H 0.11768 0.58568 0.21638 0.0
C252 C 0.82522 0.63906 0.27411 0.0
C253 C 0.7968 0.65709 0.234 0.0
C254 C 0.90609 0.63342 0.27136 0.0
C255 C 0.95914 0.64542 0.22758 0.0
C256 C 0.93376 0.66475 0.19195 0.0
C257 C 0.85427 0.67077 0.19597 0.0
C258 C 0.19054 0.64708 0.19977 0.0
C259 C 0.19356 0.62236 0.20515 0.0
C260 C 0.11438 0.65453 0.20655 0.0
C261 C 0.03871 0.63729 0.21701 0.0
C262 C 0.03967 0.61221 0.21712 0.0
C263 C 0.11683 0.60486 0.21208 0.0
H264 H 0.72999 0.36127 0.77509 0.0
H265 H 0.87212 0.43792 0.78551 0.0
H266 H 0.86011 0.34863 0.75604 0.0
H267 H 0.00601 0.42543 0.77227 0.0
H268 H 0.20925 0.4009 0.68715 0.0
H269 H 0.06393 0.40874 0.68696 0.0
H270 H 0.00106 0.3454 0.80287 0.0
H271 H 0.14134 0.33646 0.79769 0.0
C272 C 0.79062 0.37544 0.77625 0.0
C273 C 0.79148 0.40058 0.78186 0.0
C274 C 0.86528 0.3682 0.76482 0.0
C275 C 0.94328 0.38598 0.76107 0.0
C276 C 0.946 0.4112 0.77209 0.0
C277 C 0.87027 0.41843 0.78141 0.0
C278 C 0.16285 0.38816 0.7102 0.0
C279 C 0.18791 0.36851 0.74427 0.0
C280 C 0.08025 0.39291 0.71138 0.0
C281 C 0.02232 0.37833 0.74758 0.0
C282 C 0.04371 0.35717 0.77483 0.0
C283 C 0.12494 0.35208 0.7721 0.0
H284 H 0.37737 0.33734 0.50217 0.0
H285 H 0.35393 0.29725 0.68286 0.0
H286 H 0.30133 0.30015 0.4247 0.0
H287 H 0.28063 0.25903 0.60458 0.0
H288 H 0.0604 0.20241 0.45102 0.0
H289 H 0.13999 0.24046 0.52674 0.0
H290 H 0.30253 0.26176 0.37709 0.0
H291 H 0.21951 0.22424 0.30072 0.0
C292 C 0.35833 0.32024 0.52537 0.0
C293 C 0.37154 0.3202 0.59864 0.0
C294 C 0.31457 0.29879 0.48071 0.0
C295 C 0.28325 0.27646 0.50784 0.0
C296 C 0.30183 0.27601 0.5816 0.0
C297 C 0.34555 0.29774 0.62668 0.0
C298 C 0.11034 0.2159 0.43315 0.0
C299 C 0.1316 0.21094 0.36892 0.0
C300 C 0.15783 0.23737 0.47737 0.0
C301 C 0.22907 0.25417 0.45898 0.0
C302 C 0.24761 0.24955 0.39306 0.0
C303 C 0.19929 0.2282 0.34856 0.0
H304 H 0.75421 0.32106 0.89096 0.0
H305 H 0.50834 0.28238 0.9421 0.0
H306 H 0.82997 0.29128 0.94692 0.0
H307 H 0.58445 0.25368 0.00171 0.0
H308 H 0.723 0.19255 0.05386 0.0
H309 H 0.646 0.22116 -0.00381 0.0
H310 H 0.89155 0.27932 0.05449 0.0
H311 H 0.97071 0.24985 0.10848 0.0
C312 C 0.71603 0.306 0.91342 0.0
C313 C 0.62489 0.30401 0.91132 0.0
C314 C 0.75991 0.28913 0.94681 0.0
C315 C 0.71434 0.27007 0.9803 0.0
C316 C 0.62227 0.26771 0.97598 0.0
C317 C 0.57808 0.28424 0.94137 0.0
C318 C 0.76088 0.2115 0.05537 0.0
C319 C 0.85372 0.21872 0.08562 0.0
C320 C 0.71614 0.2281 0.02216 0.0
C321 C 0.76207 0.25273 0.01936 0.0
C322 C 0.85396 0.26039 0.05346 0.0
C323 C 0.89931 0.24357 0.08574 0.0
H324 H 0.54794 0.69362 0.45795 0.0
H325 H 0.67857 0.72774 0.30245 0.0
H326 H 0.61892 0.73013 0.54067 0.0
H327 H 0.74859 0.76507 0.38473 0.0
H328 H 0.94354 0.81452 0.57196 0.0
H329 H 0.86659 0.77742 0.49047 0.0
H330 H 0.62954 0.77204 0.57181 0.0
H331 H 0.70772 0.80848 0.65377 0.0
C332 C 0.58875 0.70952 0.44048 0.0
C333 C 0.60599 0.70815 0.3733 0.0
C334 C 0.6303 0.73042 0.48817 0.0
C335 C 0.69072 0.75055 0.47002 0.0
C336 C 0.70388 0.74973 0.40107 0.0
C337 C 0.66211 0.72866 0.35321 0.0
C338 C 0.87644 0.80464 0.57425 0.0
C339 C 0.83245 0.81377 0.62062 0.0
C340 C 0.83137 0.7838 0.5264 0.0
C341 C 0.74113 0.77184 0.52362 0.0
C342 C 0.69902 0.78049 0.57256 0.0
C343 C 0.74407 0.80123 0.62021 0.0
H344 H 0.20772 0.69187 0.06039 0.0
H345 H 0.45608 0.74885 0.10174 0.0
H346 H 0.12869 0.71958 0.00019 0.0
H347 H 0.37499 0.77758 0.04565 0.0
H348 H 0.23235 0.81689 0.87904 0.0
H349 H 0.30946 0.78777 0.9374 0.0
H350 H 0.06755 0.75211 0.00056 0.0
H351 H -0.01005 0.78 0.93825 0.0
C352 C 0.24539 0.71062 0.05854 0.0
C353 C 0.33897 0.71793 0.08553 0.0
C354 C 0.19946 0.72672 0.02386 0.0
C355 C 0.24492 0.75097 0.01649 0.0
C356 C 0.33762 0.75887 0.04795 0.0
C357 C 0.38416 0.74251 0.08157 0.0
C358 C 0.19517 0.8023 0.90367 0.0
C359 C 0.10466 0.80061 0.9032 0.0
C360 C 0.23989 0.78586 0.93854 0.0
C361 C 0.19589 0.76763 0.97534 0.0
C362 C 0.10422 0.76549 0.97237 0.0
C363 C 0.05909 0.78152 0.93613 0.0
H364 H 0.08645 0.06877 0.15162 0.0
H365 H 0.82247 0.05177 0.0134 0.0
H366 H 0.11907 0.03379 0.09454 0.0
H367 H 0.85225 0.01562 0.95896 0.0
H368 H 0.95228 0.96687 0.82441 0.0
H369 H 0.92671 1.00288 0.88175 0.0
H370 H 0.09995 0.99223 0.07517 0.0
H371 H 0.13152 0.95764 0.01575 0.0
C372 C 0.03428 0.0571 0.11023 0.0
C373 C 0.95179 0.0631 0.08709 0.0
C374 C 0.05295 0.03689 0.07728 0.0
C375 C -0.01109 0.02171 0.0211 0.0
C376 C 0.90467 0.02713 0.00036 0.0
C377 C 0.88681 0.0477 0.03233 0.0
C378 C -0.01255 0.97269 0.87834 0.0
C379 C 0.0456 0.9595 0.91449 0.0
C380 C 0.97101 0.99313 0.91214 0.0
C381 C 0.01018 1.00061 0.9839 0.0
C382 C 0.06935 0.98755 0.01978 0.0
C383 C 0.0874 0.9675 0.98548 0.0
H384 H 0.96537 0.02227 0.30452 0.0
H385 H 0.16091 0.07727 0.45661 0.0
H386 H 0.92448 0.99869 0.39893 0.0
H387 H 0.11332 0.05571 0.55072 0.0
H388 H 0.06533 0.99972 0.70789 0.0
H389 H 0.10709 0.02593 0.62062 0.0
H390 H 0.84517 0.9953 0.48272 0.0
H391 H 0.80711 0.96708 0.56833 0.0
C392 C 0.00032 0.02918 0.35819 0.0
C393 C 0.06608 0.05173 0.37267 0.0
C394 C 0.97509 0.01603 0.4128 0.0
C395 C 0.01286 0.02546 0.48365 0.0
C396 C 0.08231 0.0474 0.49766 0.0
C397 C 0.11 0.05995 0.44307 0.0
C398 C 0.01556 0.99889 0.65957 0.0
C399 C 0.9341 0.98049 0.6444 0.0
C400 C 0.03976 0.0141 0.60874 0.0
C401 C -0.01852 1.0122 0.54218 0.0
C402 C 0.89441 0.99645 0.5314 0.0
C403 C 0.87124 0.98064 0.58162 0.0
H404 H 0.5248 0.55546 0.16944 0.0
H405 H 0.36083 0.56537 0.97142 0.0
H406 H 0.55805 0.52011 0.11456 0.0
H407 H 0.39955 0.53148 0.91508 0.0
H408 H 0.41679 0.45561 0.84117 0.0
H409 H 0.37974 0.48989 0.89699 0.0
H410 H 0.64029 0.50774 0.04173 0.0
H411 H 0.67484 0.47214 0.98792 0.0
C412 C 0.49487 0.54996 0.11448 0.0
C413 C 0.43855 0.5631 0.07566 0.0
C414 C 0.51554 0.5299 0.0823 0.0
C415 C 0.48227 0.52275 0.00978 0.0
C416 C 0.42534 0.53585 0.97115 0.0
C417 C 0.40313 0.5555 0.00367 0.0
C418 C 0.46691 0.46704 0.88426 0.0
C419 C 0.54915 0.46116 0.90973 0.0
C420 C 0.4456 0.48688 0.9165 0.0
C421 C 0.5066 0.50184 0.97447 0.0
C422 C 0.59037 0.49643 -0.00159 0.0
C423 C 0.61096 0.47619 0.96692 0.0
H424 H 0.33092 0.46657 0.55914 0.0
H425 H 0.61034 0.48404 0.66861 0.0
H426 H 0.3733 0.48749 0.46049 0.0
H427 H 0.65299 0.50249 0.56871 0.0
H428 H 0.68551 0.56451 0.42562 0.0
H429 H 0.66169 0.53651 0.51275 0.0
H430 H 0.43519 0.4889 0.36362 0.0
H431 H 0.45568 0.51843 0.27712 0.0
C432 C 0.40127 0.47471 0.56209 0.0
C433 C 0.46675 0.47351 0.62219 0.0
C434 C 0.42606 0.48632 0.50479 0.0
C435 C 0.51715 0.49671 0.50559 0.0
C436 C 0.58218 0.49534 0.5658 0.0
C437 C 0.55737 0.48452 0.62358 0.0
C438 C 0.63266 0.54763 0.41002 0.0
C439 C 0.57076 0.54422 0.34484 0.0
C440 C 0.61837 0.53138 0.46078 0.0
C441 C 0.54375 0.51071 0.44685 0.0
C442 C 0.49064 0.50522 0.37773 0.0
C443 C 0.50377 0.52185 0.32733 0.0
loop_
_geom_bond_atom_site_label_1
_geom_bond_atom_site_label_2
_geom_bond_distance
_geom_bond_site_symmetry_2
_ccdc_geom_bond_type
C0 O12 1.241 . S
C0 O13 1.280 1_455 S
C1 O14 1.277 . S
C1 O15 1.245 1_455 S
C2 O26 1.247 . S
C2 O28 1.289 . S
Mg3 O4 1.926 1_655 S
Mg3 O13 1.984 . S
Mg3 O15 1.988 . S
Mg3 O16 2.061 . S
O4 Mg3 1.926 1_455 S
O4 Mg5 1.986 . S
O4 Mg6 1.917 . S
Mg5 O4 1.986 . S
Mg5 O12 2.042 . S
Mg5 O14 2.041 . S
Mg5 O20 2.038 . S
Mg5 O28 2.238 . S
Mg6 O4 1.917 . S
Mg6 O7 1.917 . S
Mg6 O17 2.106 1_455 S
Mg6 O19 2.079 . S
Mg6 O28 2.106 . S
Mg6 O29 2.079 1_455 S
O7 Mg6 1.917 . S
O7 Mg8 1.926 . S
O7 Mg9 1.986 1_455 S
Mg8 O7 1.926 . S
Mg8 O22 1.984 . S
Mg8 O25 1.988 . S
Mg8 O26 2.061 . S
Mg9 O7 1.986 1_655 S
Mg9 O17 2.238 . S
Mg9 O21 2.042 . S
Mg9 O23 2.041 . S
Mg9 O30 2.038 . S
C10 O16 1.247 . S
C10 O17 1.289 . S
C11 O29 1.245 . S
C11 O30 1.274 . S
O12 C0 1.241 . S
O12 Mg5 2.042 . S
O13 C0 1.280 1_655 S
O13 Mg3 1.984 . S
O14 C1 1.277 . S
O14 Mg5 2.041 . S
O15 C1 1.245 1_655 S
O15 Mg3 1.988 . S
O16 Mg3 2.061 . S
O16 C10 1.247 . S
O17 Mg6 2.106 1_655 S
O17 Mg9 2.238 . S
O17 C10 1.289 . S
C18 O19 1.245 . S
C18 O20 1.274 . S
O19 Mg6 2.079 . S
O19 C18 1.245 . S
O20 Mg5 2.038 . S
O20 C18 1.274 . S
O21 Mg9 2.042 . S
O21 C24 1.241 1_654 S
O22 Mg8 1.984 . S
O22 C24 1.280 1_554 S
O23 Mg9 2.041 . S
O23 C27 1.277 . S
C24 O21 1.241 1_456 S
C24 O22 1.280 1_556 S
O25 Mg8 1.988 . S
O25 C27 1.245 1_455 S
O26 C2 1.247 . S
O26 Mg8 2.061 . S
C27 O23 1.277 . S
C27 O25 1.245 1_655 S
O28 C2 1.289 . S
O28 Mg5 2.238 . S
O28 Mg6 2.106 . S
O29 Mg6 2.079 1_655 S
O29 C11 1.245 . S
O30 Mg9 2.038 . S
O30 C11 1.274 . S
C31 O43 1.241 1_554 S
C31 O44 1.280 1_454 S
C32 O45 1.277 . S
C32 O46 1.245 1_455 S
C33 O57 1.247 . S
C33 O59 1.289 . S
Mg34 O35 1.926 1_655 S
Mg34 O44 1.984 . S
Mg34 O46 1.988 . S
Mg34 O47 2.061 . S
O35 Mg34 1.926 1_455 S
O35 Mg36 1.986 . S
O35 Mg37 1.917 . S
Mg36 O35 1.986 . S
Mg36 O43 2.042 . S
Mg36 O45 2.041 . S
Mg36 O51 2.038 . S
Mg36 O59 2.238 . S
Mg37 O35 1.917 . S
Mg37 O38 1.917 . S
Mg37 O48 2.106 1_455 S
Mg37 O50 2.079 . S
Mg37 O59 2.106 . S
Mg37 O60 2.079 1_455 S
O38 Mg37 1.917 . S
O38 Mg39 1.926 . S
O38 Mg40 1.986 1_455 S
Mg39 O38 1.926 . S
Mg39 O53 1.984 . S
Mg39 O56 1.988 . S
Mg39 O57 2.061 . S
Mg40 O38 1.986 1_655 S
Mg40 O48 2.238 . S
Mg40 O52 2.042 . S
Mg40 O54 2.041 . S
Mg40 O61 2.038 . S
C41 O47 1.247 . S
C41 O48 1.289 . S
C42 O60 1.245 . S
C42 O61 1.274 . S
O43 C31 1.241 1_556 S
O43 Mg36 2.042 . S
O44 C31 1.280 1_656 S
O44 Mg34 1.984 . S
O45 C32 1.277 . S
O45 Mg36 2.041 . S
O46 C32 1.245 1_655 S
O46 Mg34 1.988 . S
O47 Mg34 2.061 . S
O47 C41 1.247 . S
O48 Mg37 2.106 1_655 S
O48 Mg40 2.238 . S
O48 C41 1.289 . S
C49 O50 1.245 . S
C49 O51 1.274 . S
O50 Mg37 2.079 . S
O50 C49 1.245 . S
O51 Mg36 2.038 . S
O51 C49 1.274 . S
O52 Mg40 2.042 . S
O52 C55 1.241 1_655 S
O53 Mg39 1.984 . S
O53 C55 1.280 . S
O54 Mg40 2.041 . S
O54 C58 1.277 . S
C55 O52 1.241 1_455 S
C55 O53 1.280 . S
O56 Mg39 1.988 . S
O56 C58 1.245 1_455 S
O57 C33 1.247 . S
O57 Mg39 2.061 . S
C58 O54 1.277 . S
C58 O56 1.245 1_655 S
O59 C33 1.289 . S
O59 Mg36 2.238 . S
O59 Mg37 2.106 . S
O60 Mg37 2.079 1_655 S
O60 C42 1.245 . S
O61 Mg40 2.038 . S
O61 C42 1.274 . S
C62 O74 1.241 . S
C62 O75 1.280 . S
C63 O76 1.277 . S
C63 O77 1.245 . S
C64 O88 1.247 . S
C64 O90 1.289 . S
Mg65 O66 1.926 . S
Mg65 O75 1.984 . S
Mg65 O77 1.988 . S
Mg65 O78 2.061 . S
O66 Mg65 1.926 . S
O66 Mg67 1.986 . S
O66 Mg68 1.917 . S
Mg67 O66 1.986 . S
Mg67 O74 2.042 . S
Mg67 O76 2.041 . S
Mg67 O82 2.038 . S
Mg67 O90 2.238 . S
Mg68 O66 1.917 . S
Mg68 O69 1.917 . S
Mg68 O79 2.106 . S
Mg68 O81 2.079 . S
Mg68 O90 2.106 . S
Mg68 O91 2.079 . S
O69 Mg68 1.917 . S
O69 Mg70 1.926 . S
O69 Mg71 1.986 . S
Mg70 O69 1.926 . S
Mg70 O84 1.984 . S
Mg70 O87 1.988 . S
Mg70 O88 2.061 . S
Mg71 O69 1.986 . S
Mg71 O79 2.238 . S
Mg71 O83 2.042 . S
Mg71 O85 2.041 . S
Mg71 O92 2.038 . S
C72 O78 1.247 . S
C72 O79 1.289 . S
C73 O91 1.245 . S
C73 O92 1.274 . S
O74 C62 1.241 . S
O74 Mg67 2.042 . S
O75 C62 1.280 . S
O75 Mg65 1.984 . S
O76 C63 1.277 . S
O76 Mg67 2.041 . S
O77 C63 1.245 . S
O77 Mg65 1.988 . S
O78 Mg65 2.061 . S
O78 C72 1.247 . S
O79 Mg68 2.106 . S
O79 Mg71 2.238 . S
O79 C72 1.289 . S
C80 O81 1.245 . S
C80 O82 1.274 . S
O81 Mg68 2.079 . S
O81 C80 1.245 . S
O82 Mg67 2.038 . S
O82 C80 1.274 . S
O83 Mg71 2.042 . S
O83 C86 1.241 1_554 S
O84 Mg70 1.984 . S
O84 C86 1.280 1_554 S
O85 Mg71 2.041 . S
O85 C89 1.277 . S
C86 O83 1.241 1_556 S
C86 O84 1.280 1_556 S
O87 Mg70 1.988 . S
O87 C89 1.245 . S
O88 C64 1.247 . S
O88 Mg70 2.061 . S
C89 O85 1.277 . S
C89 O87 1.245 . S
O90 C64 1.289 . S
O90 Mg67 2.238 . S
O90 Mg68 2.106 . S
O91 Mg68 2.079 . S
O91 C73 1.245 . S
O92 Mg71 2.038 . S
O92 C73 1.274 . S
C93 O105 1.241 1_554 S
C93 O106 1.280 1_554 S
C94 O107 1.277 . S
C94 O108 1.245 . S
C95 O119 1.247 . S
C95 O121 1.289 . S
Mg96 O97 1.926 . S
Mg96 O106 1.984 . S
Mg96 O108 1.988 . S
Mg96 O109 2.061 . S
O97 Mg96 1.926 . S
O97 Mg98 1.986 . S
O97 Mg99 1.917 . S
Mg98 O97 1.986 . S
Mg98 O105 2.042 . S
Mg98 O107 2.041 . S
Mg98 O113 2.038 . S
Mg98 O121 2.238 . S
Mg99 O97 1.917 . S
Mg99 O100 1.917 . S
Mg99 O110 2.106 . S
Mg99 O112 2.079 . S
Mg99 O121 2.106 . S
Mg99 O122 2.079 . S
O100 Mg99 1.917 . S
O100 Mg101 1.926 . S
O100 Mg102 1.986 . S
Mg101 O100 1.926 . S
Mg101 O115 1.984 . S
Mg101 O118 1.988 . S
Mg101 O119 2.061 . S
Mg102 O100 1.986 . S
Mg102 O110 2.238 . S
Mg102 O114 2.042 . S
Mg102 O116 2.041 . S
Mg102 O123 2.038 . S
C103 O109 1.247 . S
C103 O110 1.289 . S
C104 O122 1.245 . S
C104 O123 1.274 . S
O105 C93 1.241 1_556 S
O105 Mg98 2.042 . S
O106 C93 1.280 1_556 S
O106 Mg96 1.984 . S
O107 C94 1.277 . S
O107 Mg98 2.041 . S
O108 C94 1.245 . S
O108 Mg96 1.988 . S
O109 Mg96 2.061 . S
O109 C103 1.247 . S
O110 Mg99 2.106 . S
O110 Mg102 2.238 . S
O110 C103 1.289 . S
C111 O112 1.245 . S
C111 O113 1.274 . S
O112 Mg99 2.079 . S
O112 C111 1.245 . S
O113 Mg98 2.038 . S
O113 C111 1.274 . S
O114 Mg102 2.042 . S
O114 C117 1.241 . S
O115 Mg101 1.984 . S
O115 C117 1.280 . S
O116 Mg102 2.041 . S
O116 C120 1.277 . S
C117 O114 1.241 . S
C117 O115 1.280 . S
O118 Mg101 1.988 . S
O118 C120 1.245 . S
O119 C95 1.247 . S
O119 Mg101 2.061 . S
C120 O116 1.277 . S
C120 O118 1.245 . S
O121 C95 1.289 . S
O121 Mg98 2.238 . S
O121 Mg99 2.106 . S
O122 Mg99 2.079 . S
O122 C104 1.245 . S
O123 Mg102 2.038 . S
O123 C104 1.274 . S
H124 C132 0.950 . S
H125 C137 0.950 . S
H126 C134 0.950 . S
H127 C136 0.950 . S
H128 C138 0.950 . S
H129 C140 0.950 . S
H130 C142 0.950 . S
H131 C143 0.950 . S
C132 H124 0.950 . S
C132 C133 1.385 1_655 S
C132 C134 1.391 . S
C133 C132 1.385 1_455 S
C133 C137 1.393 . S
C134 H126 0.950 . S
C134 C132 1.391 . S
C134 C135 1.400 1_655 S
C135 C134 1.400 1_455 S
C135 C136 1.398 . S
C135 C141 1.491 . S
C136 H127 0.950 . S
C136 C135 1.398 . S
C136 C137 1.391 . S
C137 H125 0.950 . S
C137 C133 1.393 . S
C137 C136 1.391 . S
C138 H128 0.950 . S
C138 C139 1.386 1_455 S
C138 C140 1.391 . S
C139 C138 1.386 1_655 S
C139 C143 1.393 . S
C140 H129 0.950 . S
C140 C138 1.391 . S
C140 C141 1.400 . S
C141 C135 1.491 . S
C141 C140 1.400 . S
C141 C142 1.398 1_455 S
C142 H130 0.950 . S
C142 C141 1.398 1_655 S
C142 C143 1.391 . S
C143 H131 0.950 . S
C143 C139 1.393 . S
C143 C142 1.391 . S
H144 C152 0.950 . S
H145 C157 0.950 . S
H146 C154 0.950 . S
H147 C156 0.950 . S
H148 C158 0.950 . S
H149 C160 0.950 . S
H150 C162 0.950 . S
H151 C163 0.950 . S
C152 H144 0.950 . S
C152 C153 1.386 . S
C152 C154 1.391 . S
C153 C152 1.386 . S
C153 C157 1.393 1_455 S
C154 H146 0.950 . S
C154 C152 1.391 . S
C154 C155 1.400 . S
C155 C154 1.400 . S
C155 C156 1.398 1_455 S
C155 C161 1.491 . S
C156 H147 0.950 . S
C156 C155 1.398 1_655 S
C156 C157 1.391 . S
C157 H145 0.950 . S
C157 C153 1.393 1_655 S
C157 C156 1.391 . S
C158 H148 0.950 . S
C158 C159 1.384 1_655 S
C158 C160 1.391 . S
C159 C158 1.384 1_455 S
C159 C163 1.394 . S
C160 H149 0.950 . S
C160 C158 1.391 . S
C160 C161 1.400 1_655 S
C161 C155 1.491 . S
C161 C160 1.400 1_455 S
C161 C162 1.398 . S
C162 H150 0.950 . S
C162 C161 1.398 . S
C162 C163 1.391 . S
C163 H151 0.950 . S
C163 C159 1.394 . S
C163 C162 1.391 . S
H164 C172 0.950 . S
H165 C177 0.950 . S
H166 C174 0.950 . S
H167 C176 0.950 . S
H168 C178 0.950 . S
H169 C180 0.950 . S
H170 C182 0.950 . S
H171 C183 0.950 . S
C172 H164 0.950 . S
C172 C173 1.386 . S
C172 C174 1.391 . S
C173 C172 1.386 . S
C173 C177 1.393 . S
C174 H166 0.950 . S
C174 C172 1.391 . S
C174 C175 1.400 . S
C175 C174 1.400 . S
C175 C176 1.398 . S
C175 C181 1.491 . S
C176 H167 0.950 . S
C176 C175 1.398 . S
C176 C177 1.391 . S
C177 H165 0.950 . S
C177 C173 1.393 . S
C177 C176 1.391 . S
C178 H168 0.950 . S
C178 C179 1.386 . S
C178 C180 1.391 . S
C179 C178 1.386 . S
C179 C183 1.393 . S
C180 H169 0.950 . S
C180 C178 1.391 . S
C180 C181 1.400 . S
C181 C175 1.491 . S
C181 C180 1.400 . S
C181 C182 1.398 . S
C182 H170 0.950 . S
C182 C181 1.398 . S
C182 C183 1.391 . S
C183 H171 0.950 . S
C183 C179 1.393 . S
C183 C182 1.391 . S
H184 C192 0.950 . S
H185 C197 0.950 . S
H186 C194 0.950 . S
H187 C196 0.950 . S
H188 C198 0.950 . S
H189 C200 0.950 . S
H190 C202 0.950 . S
H191 C203 0.950 . S
C192 H184 0.950 . S
C192 C193 1.386 . S
C192 C194 1.391 . S
C193 C192 1.386 . S
C193 C197 1.393 . S
C194 H186 0.950 . S
C194 C192 1.391 . S
C194 C195 1.400 . S
C195 C194 1.400 . S
C195 C196 1.398 . S
C195 C201 1.491 . S
C196 H187 0.950 . S
C196 C195 1.398 . S
C196 C197 1.391 . S
C197 H185 0.950 . S
C197 C193 1.393 . S
C197 C196 1.391 . S
C198 H188 0.950 . S
C198 C199 1.386 . S
C198 C200 1.391 . S
C199 C198 1.386 . S
C199 C203 1.393 . S
C200 H189 0.950 . S
C200 C198 1.391 . S
C200 C201 1.400 . S
C201 C195 1.491 . S
C201 C200 1.400 . S
C201 C202 1.398 . S
C202 H190 0.950 . S
C202 C201 1.398 . S
C202 C203 1.391 . S
C203 H191 0.950 . S
C203 C199 1.393 . S
C203 C202 1.391 . S
H204 C212 0.950 . S
H205 C217 0.950 . S
H206 C214 0.950 . S
H207 C216 0.950 . S
H208 C218 0.950 . S
H209 C220 0.950 . S
H210 C222 0.950 . S
H211 C223 0.950 . S
C212 H204 0.950 . S
C212 C213 1.386 . S
C212 C214 1.391 . S
C213 C212 1.386 . S
C213 C217 1.393 . S
C214 H206 0.950 . S
C214 C212 1.391 . S
C214 C215 1.400 . S
C215 C214 1.400 . S
C215 C216 1.398 . S
C215 C221 1.491 . S
C216 H207 0.950 . S
C216 C215 1.398 . S
C216 C217 1.391 . S
C217 H205 0.950 . S
C217 C213 1.393 . S
C217 C216 1.391 . S
C218 H208 0.950 . S
C218 C219 1.386 . S
C218 C220 1.391 . S
C219 C218 1.386 . S
C219 C223 1.393 . S
C220 H209 0.950 . S
C220 C218 1.391 . S
C220 C221 1.400 . S
C221 C215 1.491 . S
C221 C220 1.400 . S
C221 C222 1.398 . S
C222 H210 0.950 . S
C222 C221 1.398 . S
C222 C223 1.391 . S
C223 H211 0.950 . S
C223 C219 1.393 . S
C223 C222 1.391 . S
H224 C232 0.950 . S
H225 C237 0.950 . S
H226 C234 0.950 . S
H227 C236 0.950 . S
H228 C238 0.950 . S
H229 C240 0.950 . S
H230 C242 0.950 . S
H231 C243 0.950 . S
C232 H224 0.950 . S
C232 C233 1.386 . S
C232 C234 1.391 . S
C233 C232 1.386 . S
C233 C237 1.393 . S
C234 H226 0.950 . S
C234 C232 1.391 . S
C234 C235 1.400 . S
C235 C234 1.400 . S
C235 C236 1.398 . S
C235 C241 1.491 . S
C236 H227 0.950 . S
C236 C235 1.398 . S
C236 C237 1.391 . S
C237 H225 0.950 . S
C237 C233 1.393 . S
C237 C236 1.391 . S
C238 H228 0.950 . S
C238 C239 1.386 . S
C238 C240 1.391 . S
C239 C238 1.386 . S
C239 C243 1.393 . S
C240 H229 0.950 . S
C240 C238 1.391 . S
C240 C241 1.400 . S
C241 C235 1.491 . S
C241 C240 1.400 . S
C241 C242 1.398 . S
C242 H230 0.950 . S
C242 C241 1.398 . S
C242 C243 1.391 . S
C243 H231 0.950 . S
C243 C239 1.393 . S
C243 C242 1.391 . S
H244 C252 0.950 . S
H245 C257 0.950 . S
H246 C254 0.950 . S
H247 C256 0.950 . S
H248 C258 0.950 . S
H249 C260 0.950 . S
H250 C262 0.950 . S
H251 C263 0.950 . S
C252 H244 0.950 . S
C252 C253 1.386 . S
C252 C254 1.391 . S
C253 C252 1.386 . S
C253 C257 1.393 . S
C254 H246 0.950 . S
C254 C252 1.391 . S
C254 C255 1.400 . S
C255 C254 1.400 . S
C255 C256 1.398 . S
C255 C261 1.491 1_655 S
C256 H247 0.950 . S
C256 C255 1.398 . S
C256 C257 1.391 . S
C257 H245 0.950 . S
C257 C253 1.393 . S
C257 C256 1.391 . S
C258 H248 0.950 . S
C258 C259 1.386 . S
C258 C260 1.391 . S
C259 C258 1.386 . S
C259 C263 1.393 . S
C260 H249 0.950 . S
C260 C258 1.391 . S
C260 C261 1.400 . S
C261 C255 1.491 1_455 S
C261 C260 1.400 . S
C261 C262 1.398 . S
C262 H250 0.950 . S
C262 C261 1.398 . S
C262 C263 1.391 . S
C263 H251 0.950 . S
C263 C259 1.393 . S
C263 C262 1.391 . S
H264 C272 0.950 . S
H265 C277 0.950 . S
H266 C274 0.950 . S
H267 C276 0.950 . S
H268 C278 0.950 . S
H269 C280 0.950 . S
H270 C282 0.950 . S
H271 C283 0.950 . S
C272 H264 0.950 . S
C272 C273 1.386 . S
C272 C274 1.391 . S
C273 C272 1.386 . S
C273 C277 1.393 . S
C274 H266 0.950 . S
C274 C272 1.391 . S
C274 C275 1.400 . S
C275 C274 1.400 . S
C275 C276 1.398 . S
C275 C281 1.491 1_655 S
C276 H267 0.950 . S
C276 C275 1.398 . S
C276 C277 1.391 . S
C277 H265 0.950 . S
C277 C273 1.393 . S
C277 C276 1.391 . S
C278 H268 0.950 . S
C278 C279 1.386 . S
C278 C280 1.391 . S
C279 C278 1.386 . S
C279 C283 1.393 . S
C280 H269 0.950 . S
C280 C278 1.391 . S
C280 C281 1.400 . S
C281 C275 1.491 1_455 S
C281 C280 1.400 . S
C281 C282 1.398 . S
C282 H270 0.950 . S
C282 C281 1.398 . S
C282 C283 1.391 . S
C283 H271 0.950 . S
C283 C279 1.393 . S
C283 C282 1.391 . S
H284 C292 0.950 . S
H285 C297 0.950 . S
H286 C294 0.950 . S
H287 C296 0.950 . S
H288 C298 0.950 . S
H289 C300 0.950 . S
H290 C302 0.950 . S
H291 C303 0.950 . S
C292 H284 0.950 . S
C292 C293 1.386 . S
C292 C294 1.391 . S
C293 C292 1.386 . S
C293 C297 1.393 . S
C294 H286 0.950 . S
C294 C292 1.391 . S
C294 C295 1.400 . S
C295 C294 1.400 . S
C295 C296 1.398 . S
C295 C301 1.491 . S
C296 H287 0.950 . S
C296 C295 1.398 . S
C296 C297 1.391 . S
C297 H285 0.950 . S
C297 C293 1.393 . S
C297 C296 1.391 . S
C298 H288 0.950 . S
C298 C299 1.386 . S
C298 C300 1.391 . S
C299 C298 1.386 . S
C299 C303 1.393 . S
C300 H289 0.950 . S
C300 C298 1.391 . S
C300 C301 1.400 . S
C301 C295 1.491 . S
C301 C300 1.400 . S
C301 C302 1.398 . S
C302 H290 0.950 . S
C302 C301 1.398 . S
C302 C303 1.391 . S
C303 H291 0.950 . S
C303 C299 1.393 . S
C303 C302 1.391 . S
H304 C312 0.950 . S
H305 C317 0.950 . S
H306 C314 0.950 . S
H307 C316 0.950 . S
H308 C318 0.950 . S
H309 C320 0.950 . S
H310 C322 0.950 . S
H311 C323 0.950 . S
C312 H304 0.950 . S
C312 C313 1.386 . S
C312 C314 1.391 1_556 S
C313 C312 1.386 . S
C313 C317 1.393 . S
C314 H306 0.950 . S
C314 C312 1.391 1_554 S
C314 C315 1.400 1_554 S
C315 C314 1.400 1_556 S
C315 C316 1.398 . S
C315 C321 1.491 1_556 S
C316 H307 0.950 . S
C316 C315 1.398 . S
C316 C317 1.391 . S
C317 H305 0.950 . S
C317 C313 1.393 . S
C317 C316 1.391 . S
C318 H308 0.950 . S
C318 C319 1.386 . S
C318 C320 1.391 1_554 S
C319 C318 1.386 . S
C319 C323 1.393 . S
C320 H309 0.950 . S
C320 C318 1.391 1_556 S
C320 C321 1.400 1_556 S
C321 C315 1.491 1_554 S
C321 C320 1.400 1_554 S
C321 C322 1.398 . S
C322 H310 0.950 . S
C322 C321 1.398 . S
C322 C323 1.391 . S
C323 H311 0.950 . S
C323 C319 1.393 . S
C323 C322 1.391 . S
H324 C332 0.950 . S
H325 C337 0.950 . S
H326 C334 0.950 . S
H327 C336 0.950 . S
H328 C338 0.950 1_455 S
H329 C340 0.950 . S
H330 C342 0.950 . S
H331 C343 0.950 . S
C332 H324 0.950 . S
C332 C333 1.386 . S
C332 C334 1.391 . S
C333 C332 1.386 . S
C333 C337 1.393 . S
C334 H326 0.950 . S
C334 C332 1.391 . S
C334 C335 1.400 . S
C335 C334 1.400 . S
C335 C336 1.398 . S
C335 C341 1.491 . S
C336 H327 0.950 . S
C336 C335 1.398 . S
C336 C337 1.391 . S
C337 H325 0.950 . S
C337 C333 1.393 . S
C337 C336 1.391 . S
C338 H328 0.950 1_655 S
C338 C339 1.386 . S
C338 C340 1.391 . S
C339 C338 1.386 . S
C339 C343 1.393 . S
C340 H329 0.950 . S
C340 C338 1.391 . S
C340 C341 1.400 . S
C341 C335 1.491 . S
C341 C340 1.400 . S
C341 C342 1.398 . S
C342 H330 0.950 . S
C342 C341 1.398 . S
C342 C343 1.391 . S
C343 H331 0.950 . S
C343 C339 1.393 . S
C343 C342 1.391 . S
H344 C352 0.950 . S
H345 C357 0.950 . S
H346 C354 0.950 . S
H347 C356 0.950 . S
H348 C358 0.950 . S
H349 C360 0.950 . S
H350 C362 0.950 . S
H351 C363 0.950 . S
C352 H344 0.950 . S
C352 C353 1.386 . S
C352 C354 1.391 . S
C353 C352 1.386 . S
C353 C357 1.393 . S
C354 H346 0.950 . S
C354 C352 1.391 . S
C354 C355 1.400 . S
C355 C354 1.400 . S
C355 C356 1.398 . S
C355 C361 1.491 1_554 S
C356 H347 0.950 . S
C356 C355 1.398 . S
C356 C357 1.391 . S
C357 H345 0.950 . S
C357 C353 1.393 . S
C357 C356 1.391 . S
C358 H348 0.950 . S
C358 C359 1.386 . S
C358 C360 1.391 . S
C359 C358 1.386 . S
C359 C363 1.393 . S
C360 H349 0.950 . S
C360 C358 1.391 . S
C360 C361 1.400 . S
C361 C355 1.491 1_556 S
C361 C360 1.400 . S
C361 C362 1.398 . S
C362 H350 0.950 . S
C362 C361 1.398 . S
C362 C363 1.391 . S
C363 H351 0.950 . S
C363 C359 1.393 . S
C363 C362 1.391 . S
H364 C372 0.950 . S
H365 C377 0.950 . S
H366 C374 0.950 . S
H367 C376 0.950 . S
H368 C378 0.950 . S
H369 C380 0.950 . S
H370 C382 0.950 . S
H371 C383 0.950 . S
C372 H364 0.950 . S
C372 C373 1.386 1_455 S
C372 C374 1.391 . S
C373 C372 1.386 1_655 S
C373 C377 1.393 . S
C374 H366 0.950 . S
C374 C372 1.391 . S
C374 C375 1.400 . S
C375 C374 1.400 . S
C375 C376 1.398 1_454 S
C375 C381 1.491 1_544 S
C376 H367 0.950 . S
C376 C375 1.398 1_656 S
C376 C377 1.391 1_556 S
C377 H365 0.950 . S
C377 C373 1.393 . S
C377 C376 1.391 1_554 S
C378 H368 0.950 . S
C378 C379 1.386 1_655 S
C378 C380 1.391 . S
C379 C378 1.386 1_455 S
C379 C383 1.393 . S
C380 H369 0.950 . S
C380 C378 1.391 . S
C380 C381 1.400 1_655 S
C381 C375 1.491 1_566 S
C381 C380 1.400 1_455 S
C381 C382 1.398 1_556 S
C382 H370 0.950 . S
C382 C381 1.398 1_554 S
C382 C383 1.391 1_554 S
C383 H371 0.950 . S
C383 C379 1.393 . S
C383 C382 1.391 1_556 S
H384 C392 0.950 . S
H385 C397 0.948 1_655 S
H386 C394 0.950 1_565 S
H387 C396 0.950 . S
H388 C398 0.950 . S
H389 C400 0.950 1_545 S
H390 C402 0.950 . S
H391 C403 0.950 . S
C392 H384 0.950 . S
C392 C393 1.386 . S
C392 C394 1.391 . S
C393 C392 1.386 . S
C393 C397 1.393 . S
C394 H386 0.950 1_545 S
C394 C392 1.391 . S
C394 C395 1.400 . S
C395 C394 1.400 . S
C395 C396 1.398 1_455 S
C395 C401 1.491 1_445 S
C396 H387 0.950 . S
C396 C395 1.398 1_655 S
C396 C397 1.391 1_655 S
C397 H385 0.948 1_455 S
C397 C393 1.393 . S
C397 C396 1.391 1_455 S
C398 H388 0.950 . S
C398 C399 1.386 . S
C398 C400 1.391 . S
C399 C398 1.386 . S
C399 C403 1.393 1_655 S
C400 H389 0.950 1_565 S
C400 C398 1.391 . S
C400 C401 1.400 . S
C401 C395 1.491 1_665 S
C401 C400 1.400 . S
C401 C402 1.398 1_655 S
C402 H390 0.950 . S
C402 C401 1.398 1_455 S
C402 C403 1.391 . S
C403 H391 0.950 . S
C403 C399 1.393 1_455 S
C403 C402 1.391 . S
H404 C412 0.950 . S
H405 C417 0.943 1_556 S
H406 C414 0.950 . S
H407 C416 0.950 . S
H408 C418 0.950 . S
H409 C420 0.950 . S
H410 C422 0.950 . S
H411 C423 0.943 1_554 S
C412 H404 0.950 . S
C412 C413 1.386 . S
C412 C414 1.391 . S
C413 C412 1.386 . S
C413 C417 1.393 . S
C414 H406 0.950 . S
C414 C412 1.391 . S
C414 C415 1.400 . S
C415 C414 1.400 . S
C415 C416 1.398 1_554 S
C415 C421 1.491 1_554 S
C416 H407 0.950 . S
C416 C415 1.398 1_556 S
C416 C417 1.391 1_556 S
C417 H405 0.943 1_554 S
C417 C413 1.393 . S
C417 C416 1.391 1_554 S
C418 H408 0.950 . S
C418 C419 1.386 . S
C418 C420 1.391 . S
C419 C418 1.386 . S
C419 C423 1.393 . S
C420 H409 0.950 . S
C420 C418 1.391 . S
C420 C421 1.400 . S
C421 C415 1.491 1_556 S
C421 C420 1.400 . S
C421 C422 1.398 1_556 S
C422 H410 0.950 . S
C422 C421 1.398 1_554 S
C422 C423 1.391 1_554 S
C423 H411 0.943 1_556 S
C423 C419 1.393 . S
C423 C422 1.391 1_556 S
H424 C432 0.950 . S
H425 C437 0.950 . S
H426 C434 0.950 . S
H427 C436 0.950 . S
H428 C438 0.950 . S
H429 C440 0.950 . S
H430 C442 0.950 . S
H431 C443 0.950 . S
C432 H424 0.950 . S
C432 C433 1.386 . S
C432 C434 1.391 . S
C433 C432 1.386 . S
C433 C437 1.393 . S
C434 H426 0.950 . S
C434 C432 1.391 . S
C434 C435 1.400 . S
C435 C434 1.400 . S
C435 C436 1.398 . S
C435 C441 1.491 . S
C436 H427 0.950 . S
C436 C435 1.398 . S
C436 C437 1.391 . S
C437 H425 0.950 . S
C437 C433 1.393 . S
C437 C436 1.391 . S
C438 H428 0.950 . S
C438 C439 1.386 . S
C438 C440 1.391 . S
C439 C438 1.386 . S
C439 C443 1.393 . S
C440 H429 0.950 . S
C440 C438 1.391 . S
C440 C441 1.400 . S
C441 C435 1.491 . S
C441 C440 1.400 . S
C441 C442 1.398 . S
C442 H430 0.950 . S
C442 C441 1.398 . S
C442 C443 1.391 . S
C443 H431 0.950 . S
C443 C439 1.393 . S
C443 C442 1.391 . S
C133 C24 1.270 . S
C139 C0 1.270 1_655 S
C153 C55 1.284 . S
C159 C31 1.284 . S
C173 C86 1.284 . S
C179 C62 1.284 . S
C193 C93 1.284 . S
C199 C117 1.284 . S
C213 C10 0.951 . S
C219 C2 0.951 . S
C233 C41 0.954 . S
C239 C33 0.954 . S
C253 C64 0.968 . S
C259 C72 0.968 . S
C273 C95 0.966 . S
C279 C103 0.966 . S
C293 C104 1.646 . S
C299 C18 1.646 . S
C313 C94 1.991 . S
C319 C27 1.991 . S
C333 C80 1.636 . S
C339 C42 1.636 . S
C353 C89 2.003 . S
C359 C32 2.003 . S
C373 C11 2.138 . S
C379 C49 2.138 . S
C393 C1 1.334 . S
C399 C58 1.334 . S
C413 C73 2.137 . S
C419 C111 2.137 . S
C433 C120 1.342 . S
C439 C63 1.342 . S
