# Generated by pormake.
# Topology wjc, (7)-cn, num edge types: 1
# Building blocks:
#     Node 0, Type 0, BuildingBlock: NUHQUE_clean_sbu_2, # of connection points: 7
#     Node 1, Type 0, BuildingBlock: NUHQUE_clean_sbu_2, # of connection points: 7
#     Node 2, Type 0, BuildingBlock: NUHQUE_clean_sbu_2, # of connection points: 7
#     Node 3, Type 0, BuildingBlock: NUHQUE_clean_sbu_2, # of connection points: 7
#     Node 4, Type 0, BuildingBlock: NUHQUE_clean_sbu_2, # of connection points: 7
#     Node 5, Type 0, BuildingBlock: NUHQUE_clean_sbu_2, # of connection points: 7
#     Node 6, Type 0, BuildingBlock: NUHQUE_clean_sbu_2, # of connection points: 7
#     Node 7, Type 0, BuildingBlock: NUHQUE_clean_sbu_2, # of connection points: 7
#     Node 8, Type 0, BuildingBlock: NUHQUE_clean_sbu_2, # of connection points: 7
#     Node 9, Type 0, BuildingBlock: NUHQUE_clean_sbu_2, # of connection points: 7
#     Node 10, Type 0, BuildingBlock: NUHQUE_clean_sbu_2, # of connection points: 7
#     Node 11, Type 0, BuildingBlock: NUHQUE_clean_sbu_2, # of connection points: 7
#     Node 12, Type 0, BuildingBlock: NUHQUE_clean_sbu_2, # of connection points: 7
#     Node 13, Type 0, BuildingBlock: NUHQUE_clean_sbu_2, # of connection points: 7
#     Node 14, Type 0, BuildingBlock: NUHQUE_clean_sbu_2, # of connection points: 7
#     Node 15, Type 0, BuildingBlock: NUHQUE_clean_sbu_2, # of connection points: 7
#     Node 16, Type 0, BuildingBlock: NUHQUE_clean_sbu_2, # of connection points: 7
#     Node 17, Type 0, BuildingBlock: NUHQUE_clean_sbu_2, # of connection points: 7
#     Node 18, Type 0, BuildingBlock: NUHQUE_clean_sbu_2, # of connection points: 7
#     Node 19, Type 0, BuildingBlock: NUHQUE_clean_sbu_2, # of connection points: 7
#     Node 20, Type 0, BuildingBlock: NUHQUE_clean_sbu_2, # of connection points: 7
#     Node 21, Type 0, BuildingBlock: NUHQUE_clean_sbu_2, # of connection points: 7
#     Node 22, Type 0, BuildingBlock: NUHQUE_clean_sbu_2, # of connection points: 7
#     Node 23, Type 0, BuildingBlock: NUHQUE_clean_sbu_2, # of connection points: 7
#     Edge 24, Type (0, 0), BuildingBlock: XUDNAN_clean_linker_2, # of connection points: 2
#     Edge 25, Type (0, 0), BuildingBlock: XUDNAN_clean_linker_2, # of connection points: 2
#     Edge 26, Type (0, 0), BuildingBlock: XUDNAN_clean_linker_2, # of connection points: 2
#     Edge 27, Type (0, 0), BuildingBlock: XUDNAN_clean_linker_2, # of connection points: 2
#     Edge 28, Type (0, 0), BuildingBlock: XUDNAN_clean_linker_2, # of connection points: 2
#     Edge 29, Type (0, 0), BuildingBlock: XUDNAN_clean_linker_2, # of connection points: 2
#     Edge 30, Type (0, 0), BuildingBlock: XUDNAN_clean_linker_2, # of connection points: 2
#     Edge 31, Type (0, 0), BuildingBlock: XUDNAN_clean_linker_2, # of connection points: 2
#     Edge 32, Type (0, 0), BuildingBlock: XUDNAN_clean_linker_2, # of connection points: 2
#     Edge 33, Type (0, 0), BuildingBlock: XUDNAN_clean_linker_2, # of connection points: 2
#     Edge 34, Type (0, 0), BuildingBlock: XUDNAN_clean_linker_2, # of connection points: 2
#     Edge 35, Type (0, 0), BuildingBlock: XUDNAN_clean_linker_2, # of connection points: 2
#     Edge 36, Type (0, 0), BuildingBlock: XUDNAN_clean_linker_2, # of connection points: 2
#     Edge 37, Type (0, 0), BuildingBlock: XUDNAN_clean_linker_2, # of connection points: 2
#     Edge 38, Type (0, 0), BuildingBlock: XUDNAN_clean_linker_2, # of connection points: 2
#     Edge 39, Type (0, 0), BuildingBlock: XUDNAN_clean_linker_2, # of connection points: 2
#     Edge 40, Type (0, 0), BuildingBlock: XUDNAN_clean_linker_2, # of connection points: 2
#     Edge 41, Type (0, 0), BuildingBlock: XUDNAN_clean_linker_2, # of connection points: 2
#     Edge 42, Type (0, 0), BuildingBlock: XUDNAN_clean_linker_2, # of connection points: 2
#     Edge 43, Type (0, 0), BuildingBlock: XUDNAN_clean_linker_2, # of connection points: 2
#     Edge 44, Type (0, 0), BuildingBlock: XUDNAN_clean_linker_2, # of connection points: 2
#     Edge 45, Type (0, 0), BuildingBlock: XUDNAN_clean_linker_2, # of connection points: 2
#     Edge 46, Type (0, 0), BuildingBlock: XUDNAN_clean_linker_2, # of connection points: 2
#     Edge 47, Type (0, 0), BuildingBlock: XUDNAN_clean_linker_2, # of connection points: 2
#     Edge 48, Type (0, 0), BuildingBlock: XUDNAN_clean_linker_2, # of connection points: 2
#     Edge 49, Type (0, 0), BuildingBlock: XUDNAN_clean_linker_2, # of connection points: 2
#     Edge 50, Type (0, 0), BuildingBlock: XUDNAN_clean_linker_2, # of connection points: 2
#     Edge 51, Type (0, 0), BuildingBlock: XUDNAN_clean_linker_2, # of connection points: 2
#     Edge 52, Type (0, 0), BuildingBlock: XUDNAN_clean_linker_2, # of connection points: 2
#     Edge 53, Type (0, 0), BuildingBlock: XUDNAN_clean_linker_2, # of connection points: 2
#     Edge 54, Type (0, 0), BuildingBlock: XUDNAN_clean_linker_2, # of connection points: 2
#     Edge 55, Type (0, 0), BuildingBlock: XUDNAN_clean_linker_2, # of connection points: 2
#     Edge 56, Type (0, 0), BuildingBlock: XUDNAN_clean_linker_2, # of connection points: 2
#     Edge 57, Type (0, 0), BuildingBlock: XUDNAN_clean_linker_2, # of connection points: 2
#     Edge 58, Type (0, 0), BuildingBlock: XUDNAN_clean_linker_2, # of connection points: 2
#     Edge 59, Type (0, 0), BuildingBlock: XUDNAN_clean_linker_2, # of connection points: 2
#     Edge 60, Type (0, 0), BuildingBlock: XUDNAN_clean_linker_2, # of connection points: 2
#     Edge 61, Type (0, 0), BuildingBlock: XUDNAN_clean_linker_2, # of connection points: 2
#     Edge 62, Type (0, 0), BuildingBlock: XUDNAN_clean_linker_2, # of connection points: 2
#     Edge 63, Type (0, 0), BuildingBlock: XUDNAN_clean_linker_2, # of connection points: 2
#     Edge 64, Type (0, 0), BuildingBlock: XUDNAN_clean_linker_2, # of connection points: 2
#     Edge 65, Type (0, 0), BuildingBlock: XUDNAN_clean_linker_2, # of connection points: 2
#     Edge 66, Type (0, 0), BuildingBlock: XUDNAN_clean_linker_2, # of connection points: 2
#     Edge 67, Type (0, 0), BuildingBlock: XUDNAN_clean_linker_2, # of connection points: 2
#     Edge 68, Type (0, 0), BuildingBlock: XUDNAN_clean_linker_2, # of connection points: 2
#     Edge 69, Type (0, 0), BuildingBlock: XUDNAN_clean_linker_2, # of connection points: 2
#     Edge 70, Type (0, 0), BuildingBlock: XUDNAN_clean_linker_2, # of connection points: 2
#     Edge 71, Type (0, 0), BuildingBlock: XUDNAN_clean_linker_2, # of connection points: 2
#     Edge 72, Type (0, 0), BuildingBlock: XUDNAN_clean_linker_2, # of connection points: 2
#     Edge 73, Type (0, 0), BuildingBlock: XUDNAN_clean_linker_2, # of connection points: 2
#     Edge 74, Type (0, 0), BuildingBlock: XUDNAN_clean_linker_2, # of connection points: 2
#     Edge 75, Type (0, 0), BuildingBlock: XUDNAN_clean_linker_2, # of connection points: 2
#     Edge 76, Type (0, 0), BuildingBlock: XUDNAN_clean_linker_2, # of connection points: 2
#     Edge 77, Type (0, 0), BuildingBlock: XUDNAN_clean_linker_2, # of connection points: 2
#     Edge 78, Type (0, 0), BuildingBlock: XUDNAN_clean_linker_2, # of connection points: 2
#     Edge 79, Type (0, 0), BuildingBlock: XUDNAN_clean_linker_2, # of connection points: 2
#     Edge 80, Type (0, 0), BuildingBlock: XUDNAN_clean_linker_2, # of connection points: 2
#     Edge 81, Type (0, 0), BuildingBlock: XUDNAN_clean_linker_2, # of connection points: 2
#     Edge 82, Type (0, 0), BuildingBlock: XUDNAN_clean_linker_2, # of connection points: 2
#     Edge 83, Type (0, 0), BuildingBlock: XUDNAN_clean_linker_2, # of connection points: 2
#     Edge 84, Type (0, 0), BuildingBlock: XUDNAN_clean_linker_2, # of connection points: 2
#     Edge 85, Type (0, 0), BuildingBlock: XUDNAN_clean_linker_2, # of connection points: 2
#     Edge 86, Type (0, 0), BuildingBlock: XUDNAN_clean_linker_2, # of connection points: 2
#     Edge 87, Type (0, 0), BuildingBlock: XUDNAN_clean_linker_2, # of connection points: 2
#     Edge 88, Type (0, 0), BuildingBlock: XUDNAN_clean_linker_2, # of connection points: 2
#     Edge 89, Type (0, 0), BuildingBlock: XUDNAN_clean_linker_2, # of connection points: 2
#     Edge 90, Type (0, 0), BuildingBlock: XUDNAN_clean_linker_2, # of connection points: 2
#     Edge 91, Type (0, 0), BuildingBlock: XUDNAN_clean_linker_2, # of connection points: 2
#     Edge 92, Type (0, 0), BuildingBlock: XUDNAN_clean_linker_2, # of connection points: 2
#     Edge 93, Type (0, 0), BuildingBlock: XUDNAN_clean_linker_2, # of connection points: 2
#     Edge 94, Type (0, 0), BuildingBlock: XUDNAN_clean_linker_2, # of connection points: 2
#     Edge 95, Type (0, 0), BuildingBlock: XUDNAN_clean_linker_2, # of connection points: 2
#     Edge 96, Type (0, 0), BuildingBlock: XUDNAN_clean_linker_2, # of connection points: 2
#     Edge 97, Type (0, 0), BuildingBlock: XUDNAN_clean_linker_2, # of connection points: 2
#     Edge 98, Type (0, 0), BuildingBlock: XUDNAN_clean_linker_2, # of connection points: 2
#     Edge 99, Type (0, 0), BuildingBlock: XUDNAN_clean_linker_2, # of connection points: 2
#     Edge 100, Type (0, 0), BuildingBlock: XUDNAN_clean_linker_2, # of connection points: 2
#     Edge 101, Type (0, 0), BuildingBlock: XUDNAN_clean_linker_2, # of connection points: 2
#     Edge 102, Type (0, 0), BuildingBlock: XUDNAN_clean_linker_2, # of connection points: 2
#     Edge 103, Type (0, 0), BuildingBlock: XUDNAN_clean_linker_2, # of connection points: 2
#     Edge 104, Type (0, 0), BuildingBlock: XUDNAN_clean_linker_2, # of connection points: 2
#     Edge 105, Type (0, 0), BuildingBlock: XUDNAN_clean_linker_2, # of connection points: 2
#     Edge 106, Type (0, 0), BuildingBlock: XUDNAN_clean_linker_2, # of connection points: 2
#     Edge 107, Type (0, 0), BuildingBlock: XUDNAN_clean_linker_2, # of connection points: 2
# Relax obj value: 0.270
# Max RMSD: 0.231
# Mean RMSD: 0.231
data_MOF--net-wjc--node1-NUHQUE_clean_sbu_2--edge1-XUDNAN_clean_linker_2
_symmetry_space_group_name_H-M    P1
_symmetry_Int_Tables_number       1
_symmetry_cell_setting            triclinic
loop_
_symmetry_equiv_pos_as_xyz
'x, y, z'
_cell_length_a     51.01618
_cell_length_b     51.108745
_cell_length_c     55.479613
_cell_angle_alpha  90.027097
_cell_angle_beta   89.973973
_cell_angle_gamma 119.99146
loop_
_atom_site_label
_atom_site_type_symbol
_atom_site_fract_x
_atom_site_fract_y
_atom_site_fract_z
_atom_type_partial_charge
O0 O 0.46964 0.267 0.12167 0.0
Tb1 Tb 0.42751 0.22458 0.11943 0.0
Eu2 Eu 0.42996 0.13754 0.12603 0.0
C3 C 0.49232 0.27014 0.13502 0.0
O4 O 0.48933 0.24732 0.148 0.0
C5 C 0.42711 0.17991 0.16129 0.0
O6 O 0.39957 0.08845 0.13468 0.0
C7 C 0.48462 0.15179 0.11389 0.0
C8 C 0.37499 0.07262 0.12179 0.0
O9 O 0.36957 0.08559 0.10357 0.0
C10 C 0.42568 0.17684 0.08374 0.0
C11 C 0.50883 0.1456 0.12089 0.0
C12 C 0.53891 0.16953 0.12147 0.0
C13 C 0.56243 0.16429 0.12811 0.0
C14 C 0.55576 0.13476 0.13347 0.0
C15 C 0.52591 0.11069 0.13277 0.0
C16 C 0.5024 0.11626 0.12683 0.0
O17 O 0.42652 0.18779 0.13897 0.0
O18 O 0.42828 0.15503 0.16303 0.0
O19 O 0.39418 0.23424 0.13591 0.0
O20 O 0.39102 0.22395 0.09847 0.0
C21 C 0.37918 0.23131 0.11614 0.0
O22 O 0.4095 0.1574 0.10073 0.0
O23 O 0.43373 0.20568 0.08614 0.0
O24 O 0.47858 0.16757 0.12931 0.0
O25 O 0.46033 0.12965 0.1037 0.0
H26 H 0.54395 0.19225 0.11706 0.0
H27 H 0.5739 0.13043 0.13811 0.0
H28 H 0.47926 0.09766 0.12631 0.0
O29 O 0.23905 0.48564 0.13366 0.0
Tb30 Tb 0.23764 0.44333 0.12615 0.0
Eu31 Eu 0.28154 0.41034 0.12476 0.0
C32 C 0.25954 0.51182 0.12472 0.0
O33 O 0.28149 0.51341 0.11127 0.0
C34 C 0.24885 0.4143 0.16996 0.0
O35 O 0.29072 0.37164 0.12273 0.0
C36 C 0.33119 0.46032 0.13483 0.0
C37 C 0.27902 0.3508 0.10589 0.0
O38 O 0.26109 0.35222 0.08961 0.0
C39 C 0.26562 0.43513 0.07859 0.0
C40 C 0.35821 0.48678 0.12433 0.0
C41 C 0.35911 0.51476 0.12266 0.0
C42 C 0.38551 0.54072 0.115 0.0
C43 C 0.41111 0.53858 0.10921 0.0
C44 C 0.41104 0.51125 0.11098 0.0
C45 C 0.38446 0.4853 0.11861 0.0
O46 O 0.25487 0.44053 0.16114 0.0
O47 O 0.24952 0.39399 0.156 0.0
O48 O 0.18988 0.43037 0.12344 0.0
O49 O 0.20155 0.39593 0.12232 0.0
C50 C 0.17914 0.4014 0.12191 0.0
O51 O 0.2655 0.4112 0.08737 0.0
O52 O 0.26306 0.45453 0.0926 0.0
O53 O 0.32951 0.43386 0.13347 0.0
O54 O 0.30483 0.45873 0.13218 0.0
H55 H 0.33959 0.51656 0.12789 0.0
H56 H 0.43208 0.55897 0.10477 0.0
H57 H 0.38449 0.46422 0.12057 0.0
O58 O 0.78972 0.25164 0.12596 0.0
Tb59 Tb 0.81559 0.22845 0.12743 0.0
Eu60 Eu 0.89209 0.27348 0.13575 0.0
C61 C 0.77478 0.2521 0.14512 0.0
O62 O 0.77965 0.24262 0.16573 0.0
C63 C 0.84968 0.23151 0.17498 0.0
O64 O 0.94336 0.29686 0.13421 0.0
C65 C 0.87177 0.31064 0.14207 0.0
C66 C 0.95607 0.28019 0.13064 0.0
O67 O 0.93835 0.25083 0.1285 0.0
C68 C 0.86356 0.2507 0.08354 0.0
C69 C 0.8736 0.33783 0.13135 0.0
C70 C 0.84914 0.34308 0.134 0.0
C71 C 0.85145 0.3699 0.12522 0.0
C72 C 0.87802 0.39113 0.1137 0.0
C73 C 0.90291 0.38666 0.1117 0.0
C74 C 0.90031 0.35955 0.11999 0.0
O75 O 0.83132 0.23908 0.16459 0.0
O76 O 0.87507 0.23774 0.16434 0.0
O77 O 0.76874 0.1922 0.12599 0.0
O78 O 0.80325 0.18052 0.12551 0.0
C79 C 0.77406 0.16992 0.12518 0.0
O80 O 0.88704 0.25775 0.09747 0.0
O81 O 0.83665 0.24372 0.09203 0.0
O82 O 0.89637 0.31388 0.15253 0.0
O83 O 0.85745 0.28576 0.12939 0.0
H84 H 0.82888 0.32691 0.14351 0.0
H85 H 0.87989 0.41211 0.10744 0.0
H86 H 0.9196 0.35611 0.1189 0.0
O87 O 0.5388 0.75113 0.11235 0.0
Tb88 Tb 0.58262 0.79178 0.10888 0.0
Eu89 Eu 0.58376 0.88303 0.11057 0.0
C90 C 0.51539 0.75053 0.12289 0.0
O91 O 0.51829 0.77489 0.13337 0.0
C92 C 0.58644 0.84122 0.14685 0.0
O93 O 0.60906 0.93368 0.1148 0.0
C94 C 0.52699 0.86244 0.10061 0.0
C95 C 0.63881 0.94961 0.1146 0.0
O96 O 0.65439 0.93566 0.11201 0.0
C97 C 0.58914 0.84021 0.07175 0.0
C98 C 0.50337 0.86987 0.10645 0.0
C99 C 0.47277 0.84751 0.10409 0.0
C100 C 0.44982 0.85352 0.11107 0.0
C101 C 0.45791 0.88225 0.12003 0.0
C102 C 0.48833 0.90473 0.12265 0.0
C103 C 0.51109 0.89842 0.11575 0.0
O104 O 0.5823 0.82994 0.12514 0.0
O105 O 0.58847 0.86779 0.1478 0.0
O106 O 0.61922 0.79239 0.13007 0.0
O107 O 0.61216 0.77647 0.09383 0.0
C108 C 0.62826 0.78091 0.11321 0.0
O109 O 0.60443 0.86038 0.08855 0.0
O110 O 0.58242 0.81177 0.07426 0.0
O111 O 0.5363 0.85287 0.11883 0.0
O112 O 0.54918 0.88143 0.08657 0.0
H113 H 0.46688 0.82536 0.09726 0.0
H114 H 0.44029 0.88745 0.12437 0.0
H115 H 0.53471 0.91546 0.11793 0.0
O116 O 0.77034 0.52132 0.13192 0.0
Tb117 Tb 0.77577 0.5663 0.13454 0.0
Eu118 Eu 0.74035 0.60798 0.1385 0.0
C119 C 0.78102 0.51108 0.14879 0.0
O120 O 0.7939 0.52788 0.16788 0.0
C121 C 0.77135 0.59571 0.18122 0.0
O122 O 0.73719 0.65045 0.1376 0.0
C123 C 0.68801 0.56181 0.14955 0.0
C124 C 0.72168 0.65446 0.1205 0.0
O125 O 0.7097 0.63424 0.10324 0.0
C126 C 0.74591 0.57898 0.09054 0.0
C127 C 0.6588 0.53788 0.13963 0.0
C128 C 0.65302 0.50788 0.13897 0.0
C129 C 0.62449 0.48414 0.13214 0.0
C130 C 0.60153 0.49053 0.12642 0.0
C131 C 0.60666 0.52006 0.12708 0.0
C132 C 0.63547 0.54386 0.13337 0.0
O133 O 0.76224 0.56939 0.17098 0.0
O134 O 0.77348 0.61848 0.16872 0.0
O135 O 0.82373 0.58013 0.13536 0.0
O136 O 0.811 0.61106 0.12182 0.0
C137 C 0.83377 0.60693 0.12638 0.0
O138 O 0.75169 0.60496 0.0999 0.0
O139 O 0.74608 0.55776 0.10386 0.0
O140 O 0.69342 0.58977 0.14949 0.0
O141 O 0.71218 0.5597 0.14512 0.0
H142 H 0.67056 0.50291 0.14415 0.0
H143 H 0.57907 0.47225 0.12195 0.0
H144 H 0.6392 0.56666 0.1343 0.0
O145 O 0.22796 0.7869 0.1239 0.0
Tb146 Tb 0.19396 0.80068 0.123 0.0
Eu147 Eu 0.11173 0.70623 0.1264 0.0
C148 C 0.23614 0.77849 0.1042 0.0
O149 O 0.22151 0.77567 0.08402 0.0
C150 C 0.14759 0.75801 0.16131 0.0
O151 O 0.06643 0.70406 0.12734 0.0
C152 C 0.10259 0.65191 0.12362 0.0
C153 C 0.05471 0.71109 0.10906 0.0
O154 O 0.07099 0.72312 0.08958 0.0
C155 C 0.15219 0.7562 0.08692 0.0
C156 C 0.11155 0.63013 0.1155 0.0
C157 C 0.14016 0.63338 0.12015 0.0
C158 C 0.1451 0.60915 0.11536 0.0
C159 C 0.12143 0.58189 0.10619 0.0
C160 C 0.09289 0.57847 0.10175 0.0
C161 C 0.08863 0.60318 0.10559 0.0
O162 O 0.15088 0.7708 0.14022 0.0
O163 O 0.12874 0.7288 0.16255 0.0
O164 O 0.21131 0.84711 0.1109 0.0
O165 O 0.21396 0.83838 0.14814 0.0
C166 C 0.22049 0.85933 0.1321 0.0
O167 O 0.15227 0.7391 0.10456 0.0
O168 O 0.17185 0.78526 0.08841 0.0
O169 O 0.09295 0.66369 0.10719 0.0
O170 O 0.11684 0.66992 0.14188 0.0
H171 H 0.15789 0.65389 0.12832 0.0
H172 H 0.12492 0.56278 0.10382 0.0
H173 H 0.0666 0.60084 0.10225 0.0
O174 O 0.75274 0.54885 0.37689 0.0
Tb175 Tb 0.79492 0.59176 0.37871 0.0
Eu176 Eu 0.89516 0.61505 0.37858 0.0
C177 C 0.74456 0.52734 0.39308 0.0
O178 O 0.76292 0.531 0.411 0.0
C179 C 0.8471 0.60448 0.34243 0.0
O180 O 0.94538 0.64817 0.3762 0.0
C181 C 0.88312 0.56082 0.38934 0.0
C182 C 0.95604 0.67717 0.37996 0.0
O183 O 0.93692 0.68657 0.38493 0.0
C184 C 0.84543 0.60911 0.41617 0.0
C185 C 0.8946 0.53967 0.38788 0.0
C186 C 0.87377 0.5094 0.38262 0.0
C187 C 0.88352 0.48851 0.37922 0.0
C188 C 0.91431 0.49797 0.38189 0.0
C189 C 0.93555 0.52816 0.3872 0.0
C190 C 0.92555 0.54915 0.39005 0.0
O191 O 0.8343 0.593 0.36313 0.0
O192 O 0.87651 0.61577 0.34172 0.0
O193 O 0.78574 0.61953 0.35394 0.0
O194 O 0.7915 0.63031 0.39141 0.0
C195 C 0.78585 0.63774 0.37042 0.0
O196 O 0.86313 0.62621 0.39858 0.0
O197 O 0.81566 0.59539 0.41365 0.0
O198 O 0.87589 0.56798 0.36867 0.0
O199 O 0.89606 0.58354 0.40458 0.0
H200 H 0.85002 0.50237 0.38033 0.0
H201 H 0.92188 0.48179 0.37919 0.0
H202 H 0.9417 0.57267 0.3937 0.0
O203 O 0.24938 0.77573 0.36973 0.0
Tb204 Tb 0.2381 0.81109 0.36441 0.0
Eu205 Eu 0.28574 0.88788 0.35597 0.0
C206 C 0.24804 0.75796 0.35204 0.0
O207 O 0.23999 0.76186 0.33045 0.0
C208 C 0.24609 0.84369 0.31578 0.0
O209 O 0.3033 0.93825 0.35638 0.0
C210 C 0.32789 0.87382 0.35097 0.0
C211 C 0.28368 0.94783 0.35722 0.0
O212 O 0.25467 0.92767 0.35742 0.0
C213 C 0.26225 0.85786 0.40693 0.0
C214 C 0.35402 0.8737 0.36227 0.0
C215 C 0.35615 0.84735 0.36048 0.0
C216 C 0.38204 0.84724 0.36872 0.0
C217 C 0.40596 0.87352 0.37859 0.0
C218 C 0.40438 0.90002 0.38036 0.0
C219 C 0.37811 0.89995 0.37253 0.0
O220 O 0.25164 0.82435 0.32711 0.0
O221 O 0.25202 0.86917 0.3261 0.0
O222 O 0.19132 0.77364 0.36582 0.0
O223 O 0.19975 0.81868 0.36889 0.0
C224 C 0.17879 0.79027 0.36848 0.0
O225 O 0.26642 0.88042 0.39309 0.0
O226 O 0.26038 0.8331 0.39803 0.0
O227 O 0.33103 0.8999 0.34417 0.0
O228 O 0.30093 0.85502 0.35961 0.0
H229 H 0.33814 0.82727 0.35199 0.0
H230 H 0.4263 0.87353 0.38434 0.0
H231 H 0.37706 0.92059 0.37343 0.0
O232 O 0.4693 0.23368 0.37411 0.0
Tb233 Tb 0.42485 0.22929 0.37014 0.0
Eu234 Eu 0.39801 0.28194 0.36265 0.0
C235 C 0.48678 0.23767 0.35538 0.0
O236 O 0.47842 0.24164 0.33396 0.0
C237 C 0.40666 0.24545 0.32217 0.0
O238 O 0.36345 0.29747 0.36477 0.0
C239 C 0.45324 0.32649 0.35809 0.0
C240 C 0.36811 0.3218 0.37661 0.0
O241 O 0.39426 0.33865 0.38731 0.0
C242 C 0.40426 0.25552 0.41345 0.0
C243 C 0.47533 0.35735 0.36637 0.0
C244 C 0.50537 0.3648 0.37143 0.0
C245 C 0.52779 0.39506 0.37535 0.0
C246 C 0.51979 0.41758 0.37482 0.0
C247 C 0.49008 0.41066 0.36986 0.0
C248 C 0.46786 0.38041 0.36591 0.0
O249 O 0.43009 0.24976 0.33495 0.0
O250 O 0.3856 0.24973 0.33169 0.0
O251 O 0.37827 0.19085 0.36859 0.0
O252 O 0.41513 0.18259 0.36896 0.0
C253 C 0.38586 0.16995 0.36811 0.0
O254 O 0.38696 0.26169 0.39975 0.0
O255 O 0.42461 0.24928 0.40477 0.0
O256 O 0.43033 0.3235 0.34513 0.0
O257 O 0.44595 0.30372 0.37282 0.0
H258 H 0.51161 0.3474 0.371 0.0
H259 H 0.5373 0.44096 0.3772 0.0
H260 H 0.445 0.37502 0.36158 0.0
O261 O 0.25475 0.49575 0.38466 0.0
Tb262 Tb 0.2166 0.45015 0.38296 0.0
Eu263 Eu 0.14123 0.41994 0.3693 0.0
C264 C 0.25963 0.51684 0.36881 0.0
O265 O 0.24053 0.51072 0.35096 0.0
C266 C 0.18926 0.42096 0.33466 0.0
O267 O 0.09359 0.38343 0.3609 0.0
C268 C 0.15128 0.47351 0.35747 0.0
C269 C 0.07226 0.37356 0.3774 0.0
O270 O 0.07887 0.38562 0.39903 0.0
C271 C 0.16581 0.43667 0.42186 0.0
C272 C 0.15303 0.50165 0.36662 0.0
C273 C 0.18156 0.52824 0.36828 0.0
C274 C 0.1836 0.55572 0.37465 0.0
C275 C 0.15728 0.55674 0.37936 0.0
C276 C 0.1287 0.5313 0.37614 0.0
C277 C 0.12655 0.50347 0.37041 0.0
O278 O 0.20731 0.44728 0.3446 0.0
O279 O 0.16351 0.40212 0.34489 0.0
O280 O 0.25378 0.44199 0.39133 0.0
O281 O 0.20958 0.4043 0.3874 0.0
C282 C 0.23795 0.41266 0.39126 0.0
O283 O 0.14458 0.41506 0.40887 0.0
O284 O 0.19226 0.45652 0.41273 0.0
O285 O 0.12453 0.44899 0.35599 0.0
O286 O 0.17276 0.46797 0.36404 0.0
H287 H 0.20199 0.52789 0.36369 0.0
H288 H 0.15914 0.5783 0.38381 0.0
H289 H 0.10444 0.48383 0.36754 0.0
O290 O 0.7893 0.25545 0.36346 0.0
Tb291 Tb 0.79622 0.21752 0.36919 0.0
Eu292 Eu 0.71709 0.11837 0.37013 0.0
C293 C 0.80911 0.27868 0.35085 0.0
O294 O 0.83189 0.27759 0.34083 0.0
C295 C 0.75808 0.16326 0.33293 0.0
O296 O 0.70389 0.06945 0.37311 0.0
C297 C 0.67564 0.13243 0.37861 0.0
C298 C 0.676 0.04706 0.37068 0.0
O299 O 0.65402 0.0529 0.36688 0.0
C300 C 0.76154 0.16844 0.4076 0.0
C301 C 0.64399 0.12473 0.38208 0.0
C302 C 0.63678 0.14752 0.37781 0.0
C303 C 0.60731 0.14214 0.38157 0.0
C304 C 0.58505 0.11357 0.38955 0.0
C305 C 0.59173 0.09047 0.39387 0.0
C306 C 0.62136 0.09605 0.38998 0.0
O307 O 0.75988 0.17711 0.35322 0.0
O308 O 0.73816 0.13434 0.33309 0.0
O309 O 0.83502 0.22116 0.34923 0.0
O310 O 0.84069 0.23629 0.38566 0.0
C311 C 0.85439 0.23374 0.36678 0.0
O312 O 0.76027 0.15006 0.39036 0.0
O313 O 0.7783 0.19792 0.40437 0.0
O314 O 0.68449 0.13058 0.35674 0.0
O315 O 0.68901 0.12562 0.39576 0.0
H316 H 0.6543 0.16962 0.37181 0.0
H317 H 0.56194 0.10884 0.39158 0.0
H318 H 0.62677 0.07839 0.39328 0.0
O319 O 0.51972 0.75527 0.36094 0.0
Tb320 Tb 0.56742 0.76915 0.35857 0.0
Eu321 Eu 0.60349 0.73092 0.345 0.0
C322 C 0.50711 0.76235 0.34335 0.0
O323 O 0.52323 0.77549 0.32401 0.0
C324 C 0.59364 0.76918 0.30801 0.0
O325 O 0.63934 0.71754 0.34381 0.0
C326 C 0.54856 0.68656 0.3394 0.0
C327 C 0.6665 0.73731 0.3516 0.0
O328 O 0.67151 0.76396 0.3587 0.0
C329 C 0.5955 0.74706 0.39836 0.0
C330 C 0.52291 0.65896 0.34965 0.0
C331 C 0.49644 0.65949 0.35607 0.0
C332 C 0.47026 0.63291 0.36306 0.0
C333 C 0.47062 0.60568 0.36337 0.0
C334 C 0.49648 0.60469 0.35663 0.0
C335 C 0.52282 0.63135 0.35006 0.0
O336 O 0.56843 0.75997 0.32022 0.0
O337 O 0.61558 0.76588 0.31677 0.0
O338 O 0.61093 0.81131 0.36064 0.0
O339 O 0.5701 0.81249 0.36504 0.0
C340 C 0.59942 0.82869 0.36439 0.0
O341 O 0.61491 0.74734 0.38277 0.0
O342 O 0.57093 0.74731 0.39139 0.0
O343 O 0.57248 0.68567 0.33161 0.0
O344 O 0.55511 0.71234 0.34953 0.0
H345 H 0.49586 0.68038 0.3549 0.0
H346 H 0.4501 0.5847 0.36759 0.0
H347 H 0.54249 0.63024 0.34416 0.0
O348 O 0.50701 0.75004 0.85924 0.0
Tb349 Tb 0.55159 0.78722 0.86805 0.0
Eu350 Eu 0.58116 0.86363 0.85312 0.0
C351 C 0.48431 0.73998 0.87455 0.0
O352 O 0.48798 0.75414 0.89512 0.0
C353 C 0.58885 0.81704 0.82233 0.0
O354 O 0.61506 0.91378 0.85223 0.0
C355 C 0.52684 0.84804 0.83831 0.0
C356 C 0.64188 0.92236 0.86158 0.0
O357 O 0.64682 0.90142 0.87055 0.0
C358 C 0.56089 0.83807 0.90551 0.0
C359 C 0.49904 0.84849 0.84559 0.0
C360 C 0.47167 0.82102 0.84939 0.0
C361 C 0.44488 0.82122 0.85517 0.0
C362 C 0.44555 0.8489 0.85645 0.0
C363 C 0.47204 0.87617 0.85186 0.0
C364 C 0.49893 0.87599 0.84694 0.0
O365 O 0.5615 0.79794 0.83011 0.0
O366 O 0.60415 0.84446 0.83105 0.0
O367 O 0.59544 0.78928 0.87253 0.0
O368 O 0.55542 0.75074 0.88506 0.0
C369 C 0.58453 0.76274 0.88249 0.0
O370 O 0.58289 0.8598 0.89313 0.0
O371 O 0.5421 0.81159 0.89594 0.0
O372 O 0.55102 0.87396 0.83281 0.0
O373 O 0.53325 0.82968 0.85013 0.0
H374 H 0.47115 0.79964 0.84767 0.0
H375 H 0.42484 0.84917 0.86033 0.0
H376 H 0.51939 0.89719 0.84329 0.0
O377 O 0.74869 0.52172 0.85839 0.0
Tb378 Tb 0.7613 0.56748 0.86886 0.0
Eu379 Eu 0.71643 0.6028 0.86767 0.0
C380 C 0.76348 0.51734 0.84089 0.0
O381 O 0.78218 0.54057 0.82764 0.0
C382 C 0.76027 0.60773 0.82832 0.0
O383 O 0.69191 0.62806 0.87748 0.0
C384 C 0.67762 0.55036 0.8498 0.0
C385 C 0.69623 0.6528 0.86653 0.0
O386 O 0.71616 0.66427 0.84902 0.0
C387 C 0.73207 0.57851 0.91514 0.0
C388 C 0.64615 0.52484 0.85099 0.0
C389 C 0.64106 0.49547 0.85546 0.0
C390 C 0.6118 0.47029 0.85355 0.0
C391 C 0.58769 0.47479 0.84755 0.0
C392 C 0.5923 0.50366 0.84301 0.0
C393 C 0.62145 0.52879 0.84504 0.0
O394 O 0.74991 0.5794 0.83449 0.0
O395 O 0.75611 0.62581 0.84261 0.0
O396 O 0.80178 0.56524 0.87738 0.0
O397 O 0.8066 0.60837 0.87136 0.0
C398 C 0.82105 0.59395 0.87627 0.0
O399 O 0.73123 0.60172 0.90575 0.0
O400 O 0.73561 0.5591 0.90196 0.0
O401 O 0.682 0.5762 0.84118 0.0
O402 O 0.696 0.5536 0.86754 0.0
H403 H 0.65996 0.49212 0.85955 0.0
H404 H 0.56489 0.4556 0.84646 0.0
H405 H 0.62491 0.55107 0.84112 0.0
O406 O 0.22766 0.75043 0.87548 0.0
Tb407 Tb 0.19256 0.76282 0.87318 0.0
Eu408 Eu 0.11286 0.71436 0.86382 0.0
C409 C 0.23359 0.73704 0.85773 0.0
O410 O 0.21619 0.72837 0.83854 0.0
C411 C 0.15696 0.75837 0.82735 0.0
O412 O 0.06196 0.68729 0.86813 0.0
C413 C 0.13354 0.67819 0.85434 0.0
C414 C 0.04375 0.69821 0.86428 0.0
O415 O 0.05516 0.7263 0.85707 0.0
C416 C 0.14385 0.73597 0.91532 0.0
C417 C 0.13163 0.64939 0.86075 0.0
C418 C 0.15772 0.64705 0.85805 0.0
C419 C 0.1571 0.62009 0.86367 0.0
C420 C 0.13019 0.5953 0.87197 0.0
C421 C 0.10361 0.5969 0.87417 0.0
C422 C 0.10447 0.62421 0.8686 0.0
O423 O 0.17345 0.74819 0.83739 0.0
O424 O 0.13116 0.75221 0.83724 0.0
O425 O 0.23374 0.80705 0.87113 0.0
O426 O 0.19213 0.8053 0.87862 0.0
C427 C 0.22112 0.82324 0.87537 0.0
O428 O 0.12134 0.73235 0.90153 0.0
O429 O 0.17028 0.74112 0.90703 0.0
O430 O 0.11037 0.67709 0.84305 0.0
O431 O 0.14596 0.70003 0.87026 0.0
H432 H 0.1785 0.66615 0.85144 0.0
H433 H 0.12963 0.57415 0.87552 0.0
H434 H 0.08414 0.62581 0.87025 0.0
O435 O 0.46141 0.25003 0.86626 0.0
Tb436 Tb 0.41723 0.21122 0.87403 0.0
Eu437 Eu 0.40046 0.11418 0.87839 0.0
C438 C 0.48403 0.25845 0.88146 0.0
O439 O 0.48004 0.2422 0.9009 0.0
C440 C 0.40947 0.15758 0.83905 0.0
O441 O 0.36153 0.06579 0.87772 0.0
C442 C 0.45227 0.12124 0.89237 0.0
C443 C 0.36441 0.04287 0.87022 0.0
O444 O 0.39067 0.04805 0.86188 0.0
C445 C 0.40675 0.16547 0.91457 0.0
C446 C 0.47449 0.11208 0.88567 0.0
C447 C 0.50505 0.13447 0.88289 0.0
C448 C 0.52659 0.12668 0.87555 0.0
C449 C 0.5174 0.09622 0.87145 0.0
C450 C 0.48716 0.07357 0.87458 0.0
C451 C 0.46571 0.08164 0.88162 0.0
O452 O 0.4135 0.16984 0.86046 0.0
O453 O 0.40296 0.12929 0.83954 0.0
O454 O 0.37936 0.20723 0.85264 0.0
O455 O 0.39019 0.23101 0.88603 0.0
C456 C 0.37235 0.22266 0.86736 0.0
O457 O 0.38812 0.14478 0.89922 0.0
O458 O 0.41711 0.19441 0.90999 0.0
O459 O 0.44961 0.1394 0.87717 0.0
O460 O 0.42621 0.10063 0.90144 0.0
H461 H 0.51194 0.15799 0.88605 0.0
H462 H 0.53399 0.0901 0.86585 0.0
H463 H 0.44236 0.06422 0.88416 0.0
O464 O 0.25005 0.48707 0.84588 0.0
Tb465 Tb 0.23493 0.44059 0.85602 0.0
Eu466 Eu 0.26813 0.39829 0.85588 0.0
C467 C 0.25681 0.50722 0.86305 0.0
O468 O 0.25746 0.49919 0.88541 0.0
C469 C 0.22625 0.39561 0.81568 0.0
O470 O 0.27953 0.36127 0.85997 0.0
C471 C 0.31299 0.44647 0.83682 0.0
C472 C 0.2723 0.34122 0.84268 0.0
O473 O 0.25808 0.34304 0.82358 0.0
C474 C 0.26417 0.43009 0.90258 0.0
C475 C 0.34301 0.47326 0.84163 0.0
C476 C 0.34548 0.50153 0.84641 0.0
C477 C 0.37404 0.52767 0.848 0.0
C478 C 0.40015 0.52536 0.84549 0.0
C479 C 0.3982 0.49757 0.84065 0.0
C480 C 0.36954 0.47158 0.83866 0.0
O481 O 0.23804 0.42458 0.8203 0.0
O482 O 0.22781 0.37769 0.8317 0.0
O483 O 0.19064 0.40151 0.86562 0.0
O484 O 0.19547 0.44516 0.86316 0.0
C485 C 0.17657 0.41686 0.86742 0.0
O486 O 0.26076 0.4044 0.89465 0.0
O487 O 0.26345 0.4499 0.88787 0.0
O488 O 0.3109 0.41978 0.83642 0.0
O489 O 0.28926 0.44596 0.84642 0.0
H490 H 0.32533 0.50347 0.84787 0.0
H491 H 0.42223 0.54559 0.8466 0.0
H492 H 0.36799 0.45014 0.83446 0.0
O493 O 0.75769 0.20942 0.8719 0.0
Tb494 Tb 0.79552 0.20158 0.86854 0.0
Eu495 Eu 0.88466 0.29005 0.86765 0.0
C496 C 0.73974 0.20502 0.85351 0.0
O497 O 0.7458 0.19718 0.83259 0.0
C498 C 0.84719 0.24452 0.83029 0.0
O499 O 0.93554 0.31912 0.86849 0.0
C500 C 0.86044 0.32354 0.87576 0.0
C501 C 0.95386 0.30796 0.86895 0.0
O502 O 0.94246 0.27854 0.86821 0.0
C503 C 0.84363 0.23995 0.90751 0.0
C504 C 0.86877 0.35561 0.87389 0.0
C505 C 0.84629 0.36277 0.86796 0.0
C506 C 0.85359 0.39302 0.86537 0.0
C507 C 0.88354 0.41604 0.86929 0.0
C508 C 0.90645 0.40944 0.87494 0.0
C509 C 0.89885 0.379 0.87721 0.0
O510 O 0.83496 0.23738 0.85161 0.0
O511 O 0.87301 0.2699 0.82996 0.0
O512 O 0.77037 0.15932 0.84816 0.0
O513 O 0.7944 0.16009 0.87978 0.0
C514 C 0.77668 0.14308 0.86256 0.0
O515 O 0.86375 0.24658 0.8901 0.0
O516 O 0.81483 0.21919 0.90391 0.0
O517 O 0.85755 0.30949 0.85529 0.0
O518 O 0.874 0.31641 0.89254 0.0
H519 H 0.82322 0.34477 0.86501 0.0
H520 H 0.8889 0.43938 0.86847 0.0
H521 H 0.9163 0.37345 0.88122 0.0
O522 O 0.24512 0.45511 0.62977 0.0
Tb523 Tb 0.20818 0.40891 0.62643 0.0
Eu524 Eu 0.10826 0.38854 0.62082 0.0
C525 C 0.26905 0.4616 0.64284 0.0
O526 O 0.27008 0.43988 0.65462 0.0
C527 C 0.14816 0.3815 0.65712 0.0
O528 O 0.05785 0.35854 0.61521 0.0
C529 C 0.12885 0.44632 0.6231 0.0
C530 C 0.04706 0.32943 0.61183 0.0
O531 O 0.06624 0.31937 0.61102 0.0
C532 C 0.16271 0.40022 0.58622 0.0
C533 C 0.12248 0.47114 0.62595 0.0
C534 C 0.14683 0.501 0.62552 0.0
C535 C 0.14203 0.52522 0.63038 0.0
C536 C 0.11254 0.51932 0.63488 0.0
C537 C 0.08801 0.48969 0.63515 0.0
C538 C 0.09312 0.4655 0.63082 0.0
O539 O 0.16568 0.40131 0.64111 0.0
O540 O 0.11917 0.37197 0.65498 0.0
O541 O 0.22201 0.38142 0.64739 0.0
O542 O 0.2199 0.37795 0.60907 0.0
C543 C 0.22676 0.36876 0.62872 0.0
O544 O 0.142 0.38006 0.6007 0.0
O545 O 0.19176 0.41121 0.59083 0.0
O546 O 0.12442 0.42931 0.64215 0.0
O547 O 0.12109 0.43116 0.60269 0.0
H548 H 0.16961 0.50528 0.62227 0.0
H549 H 0.10873 0.53799 0.63864 0.0
H550 H 0.07444 0.44243 0.63135 0.0
O551 O 0.75659 0.23166 0.6225 0.0
Tb552 Tb 0.76506 0.1939 0.6233 0.0
Eu553 Eu 0.71916 0.11665 0.63372 0.0
C554 C 0.762 0.24875 0.64171 0.0
O555 O 0.77125 0.24176 0.66149 0.0
C556 C 0.76223 0.1622 0.67141 0.0
O557 O 0.70292 0.06657 0.63171 0.0
C558 C 0.67604 0.12766 0.64464 0.0
C559 C 0.72278 0.05801 0.62678 0.0
O560 O 0.75114 0.07898 0.62343 0.0
C561 C 0.7341 0.14608 0.58138 0.0
C562 C 0.64552 0.12218 0.63816 0.0
C563 C 0.64143 0.14692 0.63334 0.0
C564 C 0.61223 0.14288 0.63034 0.0
C565 C 0.58701 0.11359 0.63209 0.0
C566 C 0.59063 0.0887 0.63724 0.0
C567 C 0.61999 0.09313 0.63984 0.0
O568 O 0.75468 0.18059 0.66098 0.0
O569 O 0.75679 0.13716 0.66061 0.0
O570 O 0.81148 0.23126 0.61909 0.0
O571 O 0.80325 0.18626 0.61719 0.0
C572 C 0.82404 0.21473 0.61629 0.0
O573 O 0.73206 0.12387 0.59469 0.0
O574 O 0.73902 0.1719 0.5908 0.0
O575 O 0.67816 0.10495 0.65358 0.0
O576 O 0.69889 0.14544 0.63065 0.0
H577 H 0.66098 0.16946 0.63263 0.0
H578 H 0.56437 0.11041 0.63107 0.0
H579 H 0.62285 0.07398 0.64396 0.0
O580 O 0.54572 0.7692 0.614 0.0
Tb581 Tb 0.59105 0.77629 0.61806 0.0
Eu582 Eu 0.61046 0.7164 0.62063 0.0
C583 C 0.52255 0.75049 0.62732 0.0
O584 O 0.52582 0.7334 0.64331 0.0
C585 C 0.61455 0.75894 0.66354 0.0
O586 O 0.63076 0.68621 0.62391 0.0
C587 C 0.55189 0.68184 0.62017 0.0
C588 C 0.65994 0.69658 0.62123 0.0
O589 O 0.67805 0.7256 0.6175 0.0
C590 C 0.61189 0.75258 0.57471 0.0
C591 C 0.53022 0.65081 0.6278 0.0
C592 C 0.49926 0.6416 0.62923 0.0
C593 C 0.47828 0.61241 0.63729 0.0
C594 C 0.48871 0.59263 0.64363 0.0
C595 C 0.51946 0.60156 0.64262 0.0
C596 C 0.5403 0.63067 0.63443 0.0
O597 O 0.59105 0.75877 0.65362 0.0
O598 O 0.62909 0.74705 0.65274 0.0
O599 O 0.59857 0.82213 0.6211 0.0
O600 O 0.63635 0.81633 0.61444 0.0
C601 C 0.62766 0.83615 0.6178 0.0
O602 O 0.62941 0.74716 0.58866 0.0
O603 O 0.58946 0.75517 0.58369 0.0
O604 O 0.56659 0.70093 0.63757 0.0
O605 O 0.56925 0.68457 0.60177 0.0
H606 H 0.49163 0.65726 0.62437 0.0
H607 H 0.4727 0.56968 0.64907 0.0
H608 H 0.56418 0.63779 0.63366 0.0
O609 O 0.78225 0.51789 0.62406 0.0
Tb610 Tb 0.81157 0.56647 0.62595 0.0
Eu611 Eu 0.88653 0.59759 0.64114 0.0
C612 C 0.77222 0.5007 0.64333 0.0
O613 O 0.78445 0.51181 0.6644 0.0
C614 C 0.83986 0.60246 0.6716 0.0
O615 O 0.93665 0.62845 0.64664 0.0
C616 C 0.86567 0.54204 0.65506 0.0
C617 C 0.95764 0.62577 0.63496 0.0
O618 O 0.94968 0.60272 0.6204 0.0
C619 C 0.86521 0.58776 0.58614 0.0
C620 C 0.86797 0.5145 0.65227 0.0
C621 C 0.84129 0.48633 0.64923 0.0
C622 C 0.84255 0.45952 0.64941 0.0
C623 C 0.87048 0.46101 0.65223 0.0
C624 C 0.89714 0.48867 0.6552 0.0
C625 C 0.89594 0.51551 0.65489 0.0
O626 O 0.82391 0.5746 0.66379 0.0
O627 O 0.8656 0.62047 0.66112 0.0
O628 O 0.80381 0.60472 0.62034 0.0
O629 O 0.76634 0.56007 0.62152 0.0
C630 C 0.77437 0.58838 0.61929 0.0
O631 O 0.88769 0.60295 0.60123 0.0
O632 O 0.83669 0.57059 0.59288 0.0
O633 O 0.88821 0.56548 0.66574 0.0
O634 O 0.85373 0.54946 0.63723 0.0
H635 H 0.81959 0.48517 0.64752 0.0
H636 H 0.87142 0.44026 0.65196 0.0
H637 H 0.91657 0.53694 0.65747 0.0
O638 O 0.24909 0.75953 0.62403 0.0
Tb639 Tb 0.23724 0.79479 0.6235 0.0
Eu640 Eu 0.29335 0.87355 0.63122 0.0
C641 C 0.24047 0.74106 0.64257 0.0
O642 O 0.22819 0.74688 0.66114 0.0
C643 C 0.24727 0.83194 0.66916 0.0
O644 O 0.32551 0.92363 0.63288 0.0
C645 C 0.32337 0.84483 0.63211 0.0
C646 C 0.31513 0.94234 0.63572 0.0
O647 O 0.28583 0.9313 0.63813 0.0
C648 C 0.25752 0.84408 0.58308 0.0
C649 C 0.35519 0.85243 0.63202 0.0
C650 C 0.36217 0.82932 0.62885 0.0
C651 C 0.39238 0.83595 0.62956 0.0
C652 C 0.41536 0.8657 0.63404 0.0
C653 C 0.40867 0.88887 0.63758 0.0
C654 C 0.37853 0.88231 0.63612 0.0
O655 O 0.25353 0.81227 0.65942 0.0
O656 O 0.25685 0.85824 0.65893 0.0
O657 O 0.19262 0.75485 0.6183 0.0
O658 O 0.19522 0.79572 0.62967 0.0
C659 C 0.17691 0.7674 0.6245 0.0
O660 O 0.26438 0.86583 0.59874 0.0
O661 O 0.2551 0.81809 0.58935 0.0
O662 O 0.31434 0.85263 0.65161 0.0
O663 O 0.31322 0.85036 0.61213 0.0
H664 H 0.34419 0.80628 0.62584 0.0
H665 H 0.43867 0.8708 0.6353 0.0
H666 H 0.37316 0.9001 0.639 0.0
O667 O 0.48532 0.24341 0.6169 0.0
Tb668 Tb 0.43836 0.22307 0.62806 0.0
Eu669 Eu 0.42874 0.28788 0.64129 0.0
C670 C 0.50737 0.25444 0.63282 0.0
O671 O 0.50197 0.26053 0.65465 0.0
C672 C 0.41752 0.2357 0.67658 0.0
O673 O 0.39279 0.30001 0.63281 0.0
C674 C 0.47721 0.33186 0.66043 0.0
C675 C 0.3776 0.30509 0.64958 0.0
O676 O 0.38412 0.30433 0.67238 0.0
C677 C 0.42415 0.25918 0.58912 0.0
C678 C 0.50419 0.36132 0.65429 0.0
C679 C 0.53218 0.36312 0.64956 0.0
C680 C 0.55822 0.39115 0.64514 0.0
C681 C 0.55616 0.41755 0.64546 0.0
C682 C 0.52884 0.41637 0.65105 0.0
C683 C 0.5029 0.38821 0.65535 0.0
O684 O 0.44011 0.23539 0.66563 0.0
O685 O 0.40393 0.24907 0.66681 0.0
O686 O 0.44578 0.18488 0.62344 0.0
O687 O 0.40185 0.17614 0.6329 0.0
C688 C 0.41837 0.16387 0.62835 0.0
O689 O 0.43667 0.28409 0.60199 0.0
O690 O 0.41677 0.23254 0.59813 0.0
O691 O 0.45078 0.33055 0.6606 0.0
O692 O 0.47596 0.30724 0.65178 0.0
H693 H 0.53391 0.34282 0.64974 0.0
H694 H 0.57641 0.43937 0.64304 0.0
H695 H 0.48188 0.38743 0.65998 0.0
H696 H 0.33054 0.02969 0.0934 0.0
H697 H 0.36941 0.04477 0.16512 0.0
H698 H 0.33084 0.99278 0.17664 0.0
H699 H 0.25201 0.98272 0.11043 0.0
H700 H 0.24298 0.95795 0.08483 0.0
H701 H 0.27258 0.99685 0.08259 0.0
H702 H 0.31061 0.97997 0.06931 0.0
H703 H 0.28107 0.94108 0.07125 0.0
H704 H 0.31569 0.95394 0.08794 0.0
H705 H 0.28819 0.9392 0.18021 0.0
H706 H 0.24832 0.88601 0.17426 0.0
H707 H 0.23873 0.90548 0.09972 0.0
C708 C 0.33082 0.0221 0.11158 0.0
C709 C 0.35278 0.04125 0.12845 0.0
C710 C 0.35276 0.0304 0.15193 0.0
C711 C 0.33084 1.00102 0.15867 0.0
C712 C 0.30932 0.98279 0.14165 0.0
C713 C 0.3094 0.99276 0.11849 0.0
C714 C 0.28502 0.9681 0.10317 0.0
C715 C 0.26177 0.97694 0.09477 0.0
C716 C 0.29894 0.96031 0.08166 0.0
C717 C 0.27131 0.94259 0.12129 0.0
C718 C 0.28535 0.95165 0.14348 0.0
C719 C 0.277 0.93185 0.16294 0.0
C720 C 0.25428 0.90175 0.15941 0.0
C721 C 0.24053 0.8918 0.13655 0.0
C722 C 0.24875 0.91261 0.11743 0.0
H723 H 0.31176 0.33906 0.1389 0.0
H724 H 0.26499 0.3084 0.07042 0.0
H725 H 0.28131 0.2704 0.06764 0.0
H726 H 0.37542 0.33399 0.12331 0.0
H727 H 0.37985 0.32111 0.15246 0.0
H728 H 0.36215 0.34385 0.15005 0.0
H729 H 0.31479 0.30247 0.17225 0.0
H730 H 0.33236 0.27952 0.17467 0.0
H731 H 0.29569 0.26438 0.16074 0.0
H732 H 0.30728 0.23964 0.07027 0.0
H733 H 0.34027 0.218 0.07848 0.0
H734 H 0.36815 0.26713 0.14601 0.0
C735 C 0.30457 0.3241 0.12346 0.0
C736 C 0.28707 0.32671 0.10487 0.0
C737 C 0.2783 0.30677 0.08492 0.0
C738 C 0.28741 0.28506 0.08321 0.0
C739 C 0.30496 0.28335 0.10173 0.0
C740 C 0.31326 0.3022 0.12156 0.0
C741 C 0.33349 0.29685 0.13839 0.0
C742 C 0.36456 0.32566 0.1412 0.0
C743 C 0.31815 0.2851 0.16297 0.0
C744 C 0.33598 0.27261 0.12461 0.0
C745 C 0.31924 0.26501 0.10356 0.0
C746 C 0.31999 0.24495 0.08691 0.0
C747 C 0.33875 0.23278 0.09171 0.0
C748 C 0.35628 0.24056 0.11303 0.0
C749 C 0.35435 0.26022 0.12988 0.0
H750 H 1.00079 0.3407 0.13143 0.0
H751 H 0.98727 0.25004 0.12544 0.0
H752 H 0.04229 0.2711 0.12188 0.0
H753 H 0.06258 0.37562 0.08873 0.0
H754 H 0.08301 0.41028 0.10555 0.0
H755 H 0.04238 0.38827 0.10769 0.0
H756 H 0.04629 0.38589 0.15409 0.0
H757 H 0.08692 0.40797 0.15209 0.0
H758 H 0.06925 0.37173 0.16689 0.0
H759 H 0.09903 0.30167 0.11938 0.0
H760 H 0.15353 0.34006 0.11827 0.0
H761 H 0.13093 0.41102 0.12533 0.0
C762 C 0.00941 0.32529 0.1294 0.0
C763 C 0.98952 0.29363 0.12874 0.0
C764 C 1.00186 0.27433 0.126 0.0
C765 C 0.03318 0.28608 0.12394 0.0
C766 C 0.05213 0.31728 0.12459 0.0
C767 C 0.04078 0.33668 0.12724 0.0
C768 C 0.06628 0.36935 0.12743 0.0
C769 C 0.06338 0.38691 0.10608 0.0
C770 C 0.06723 0.38463 0.15156 0.0
C771 C 0.09361 0.36519 0.12455 0.0
C772 C 0.08491 0.33496 0.12294 0.0
C773 C 0.1061 0.32543 0.12055 0.0
C774 C 0.13701 0.34736 0.1199 0.0
C775 C 0.14646 0.37846 0.12159 0.0
C776 C 0.12437 0.38739 0.12384 0.0
H777 H 0.77982 0.11899 0.12143 0.0
H778 H 0.71376 0.1486 0.12698 0.0
H779 H 0.67241 0.09573 0.12539 0.0
H780 H 0.73734 0.0581 0.07964 0.0
H781 H 0.74836 0.03291 0.09302 0.0
H782 H 0.77313 0.07317 0.09504 0.0
H783 H 0.77395 0.06923 0.14155 0.0
H784 H 0.74917 0.02894 0.13968 0.0
H785 H 0.73874 0.05146 0.15797 0.0
H786 H 0.63816 0.04021 0.12297 0.0
H787 H 0.61269 0.98479 0.11941 0.0
H788 H 0.70026 0.99004 0.11516 0.0
C789 C 0.75664 0.11423 0.12235 0.0
C790 C 0.74996 0.13786 0.12432 0.0
C791 C 0.71939 0.13085 0.12544 0.0
C792 C 0.69571 0.10087 0.12458 0.0
C793 C 0.70292 0.07807 0.12257 0.0
C794 C 0.73257 0.08426 0.12145 0.0
C795 C 0.73382 0.05531 0.11907 0.0
C796 C 0.74906 0.05485 0.09527 0.0
C797 C 0.74987 0.05099 0.14087 0.0
C798 C 0.70029 0.03204 0.11894 0.0
C799 C 0.68295 0.04574 0.12105 0.0
C800 C 0.65144 0.02915 0.1213 0.0
C801 C 0.63719 0.99764 0.11927 0.0
C802 C 0.65441 0.98297 0.117 0.0
C803 C 0.68642 1.00053 0.11688 0.0
H804 H 0.69084 0.66923 0.0878 0.0
H805 H 0.73706 0.69624 0.15673 0.0
H806 H 0.72197 0.73505 0.16082 0.0
H807 H 0.70873 0.74535 0.06813 0.0
H808 H 0.67227 0.73141 0.0541 0.0
H809 H 0.68912 0.70775 0.05565 0.0
H810 H 0.64112 0.66612 0.07702 0.0
H811 H 0.62417 0.68963 0.07557 0.0
H812 H 0.62803 0.67526 0.10421 0.0
H813 H 0.69713 0.76728 0.15931 0.0
H814 H 0.66585 0.79104 0.15162 0.0
H815 H 0.63753 0.74409 0.08318 0.0
C816 C 0.69827 0.68363 0.10358 0.0
C817 C 0.71521 0.67969 0.12192 0.0
C818 C 0.72421 0.69888 0.14237 0.0
C819 C 0.71575 0.72103 0.14486 0.0
C820 C 0.69856 0.72393 0.12663 0.0
C821 C 0.69017 0.70592 0.10628 0.0
C822 C 0.67043 0.71248 0.08986 0.0
C823 C 0.68608 0.725 0.06549 0.0
C824 C 0.63909 0.6842 0.08648 0.0
C825 C 0.6684 0.73648 0.10441 0.0
C826 C 0.68486 0.74291 0.12553 0.0
C827 C 0.68462 0.76283 0.14263 0.0
C828 C 0.66682 0.77622 0.13813 0.0
C829 C 0.64967 0.76971 0.11669 0.0
C830 C 0.65092 0.74996 0.09951 0.0
H831 H 0.01039 0.66746 0.13698 0.0
H832 H 0.02537 0.73368 0.08188 0.0
H833 H 0.97046 0.71643 0.08181 0.0
H834 H 0.94256 0.60899 0.11208 0.0
H835 H 0.92508 0.59373 0.14081 0.0
H836 H 0.96565 0.61331 0.13803 0.0
H837 H 0.97026 0.64995 0.17224 0.0
H838 H 0.92966 0.63044 0.17515 0.0
H839 H 0.95024 0.67058 0.16972 0.0
H840 H 0.91294 0.69079 0.08779 0.0
H841 H 0.85843 0.65679 0.09685 0.0
H842 H 0.88201 0.6057 0.14577 0.0
C843 C 1.00227 0.67874 0.12518 0.0
C844 C 0.02223 0.70224 0.10968 0.0
C845 C 0.0105 0.7158 0.09404 0.0
C846 C 0.97937 0.70618 0.09393 0.0
C847 C 0.96025 0.68272 0.10934 0.0
C848 C 0.97132 0.66906 0.12452 0.0
C849 C 0.94603 0.64295 0.1381 0.0
C850 C 0.94477 0.61298 0.13187 0.0
C851 C 0.94925 0.64885 0.16542 0.0
C852 C 0.9189 0.64387 0.12816 0.0
C853 C 0.92746 0.66721 0.11186 0.0
C854 C 0.90606 0.67244 0.1005 0.0
C855 C 0.8752 0.65311 0.10576 0.0
C856 C 0.86612 0.62863 0.12189 0.0
C857 C 0.88833 0.62418 0.13326 0.0
H858 H 0.1326 0.7313 0.36625 0.0
H859 H 0.1507 0.82311 0.37571 0.0
H860 H 0.0958 0.80414 0.37959 0.0
H861 H 0.06459 0.70496 0.33078 0.0
H862 H 0.04559 0.66792 0.34427 0.0
H863 H 0.08628 0.68867 0.34233 0.0
H864 H 0.08993 0.68345 0.38847 0.0
H865 H 0.04925 0.66268 0.3905 0.0
H866 H 0.07072 0.69616 0.40849 0.0
H867 H 0.03908 0.77526 0.38275 0.0
H868 H 0.98437 0.73864 0.38456 0.0
H869 H 1.00263 0.66526 0.37266 0.0
C870 C 0.12496 0.74737 0.36915 0.0
C871 C 0.14587 0.7787 0.37072 0.0
C872 C 0.13506 0.79905 0.37446 0.0
C873 C 0.10393 0.78847 0.37669 0.0
C874 C 0.08388 0.75747 0.37508 0.0
C875 C 0.09391 0.73718 0.37135 0.0
C876 C 0.06754 0.705 0.37022 0.0
C877 C 0.06591 0.69081 0.34542 0.0
C878 C 0.06948 0.68569 0.39064 0.0
C879 C 0.04113 0.71038 0.37395 0.0
C880 C 0.0511 0.74081 0.37674 0.0
C881 C 0.03101 0.75139 0.38056 0.0
C882 C 0.99992 0.73036 0.38157 0.0
C883 C 0.98908 0.69902 0.37873 0.0
C884 C 0.01011 0.68903 0.37485 0.0
H885 H 0.40097 0.12571 0.3661 0.0
H886 H 0.32386 0.13972 0.36618 0.0
H887 H 0.28936 0.08439 0.36309 0.0
H888 H 0.37111 0.06452 0.32328 0.0
H889 H 0.38704 0.04438 0.33827 0.0
H890 H 0.40547 0.08492 0.34054 0.0
H891 H 0.40315 0.08099 0.38712 0.0
H892 H 0.38474 0.04044 0.38501 0.0
H893 H 0.3672 0.05786 0.40173 0.0
H894 H 0.26346 0.02752 0.36018 0.0
H895 H 0.24778 0.97349 0.35772 0.0
H896 H 0.342 0.99644 0.35935 0.0
C897 C 0.37681 0.11712 0.36549 0.0
C898 C 0.365 0.13694 0.36642 0.0
C899 C 0.33331 0.12489 0.36552 0.0
C900 C 0.3136 0.09353 0.36375 0.0
C901 C 0.32598 0.07459 0.36287 0.0
C902 C 0.35687 0.08594 0.3637 0.0
C903 C 0.36442 0.06076 0.36246 0.0
C904 C 0.38311 0.06383 0.33979 0.0
C905 C 0.38084 0.05997 0.38545 0.0
C906 C 0.33293 0.03338 0.36086 0.0
C907 C 0.3111 0.04189 0.36111 0.0
C908 C 0.28037 0.02064 0.35995 0.0
C909 C 0.2717 0.98993 0.35856 0.0
C910 C 0.29362 0.98058 0.35832 0.0
C911 C 0.32466 0.00276 0.35944 0.0
H912 H 0.29694 0.42844 0.39971 0.0
H913 H 0.20928 0.352 0.38165 0.0
H914 H 0.23282 0.32007 0.37666 0.0
H915 H 0.34003 0.41339 0.35799 0.0
H916 H 0.37214 0.42488 0.37758 0.0
H917 H 0.34823 0.4412 0.38115 0.0
H918 H 0.33898 0.42454 0.42589 0.0
H919 H 0.36313 0.40842 0.42253 0.0
H920 H 0.32495 0.38543 0.43339 0.0
H921 H 0.26688 0.29767 0.37051 0.0
H922 H 0.30776 0.28531 0.3669 0.0
H923 H 0.37311 0.37598 0.39033 0.0
C924 C 0.28262 0.40484 0.39511 0.0
C925 C 0.25122 0.39261 0.39119 0.0
C926 C 0.2333 0.36173 0.38495 0.0
C927 C 0.24652 0.34349 0.38198 0.0
C928 C 0.27766 0.35639 0.38551 0.0
C929 C 0.29542 0.38628 0.39225 0.0
C930 C 0.3284 0.39479 0.39458 0.0
C931 C 0.34837 0.42006 0.37676 0.0
C932 C 0.33951 0.40382 0.42065 0.0
C933 C 0.32655 0.36515 0.38778 0.0
C934 C 0.2971 0.34333 0.3825 0.0
C935 C 0.28994 0.3145 0.37486 0.0
C936 C 0.31338 0.30773 0.37276 0.0
C937 C 0.34367 0.32957 0.37845 0.0
C938 C 0.35018 0.35866 0.38608 0.0
H939 H 0.02263 0.34898 0.40708 0.0
H940 H 0.05143 0.34319 0.3346 0.0
H941 H 0.99929 0.30336 0.32479 0.0
H942 H 0.96838 0.26874 0.41453 0.0
H943 H 0.94192 0.27564 0.43093 0.0
H944 H 0.98189 0.30235 0.43263 0.0
H945 H 0.97227 0.34518 0.41849 0.0
H946 H 0.93233 0.31866 0.41689 0.0
H947 H 0.95202 0.34072 0.39076 0.0
H948 H 0.94301 0.26607 0.32223 0.0
H949 H 0.8873 0.23572 0.32706 0.0
H950 H 0.89611 0.26574 0.40125 0.0
C951 C 0.01809 0.33918 0.3892 0.0
C952 C 0.04117 0.3492 0.37163 0.0
C953 C 0.03415 0.33588 0.34839 0.0
C954 C 0.00461 0.31316 0.34266 0.0
C955 C 0.98236 0.30389 0.36039 0.0
C956 C 0.98879 0.31651 0.38319 0.0
C957 C 0.96064 0.30361 0.39868 0.0
C958 C 0.96338 0.28657 0.42048 0.0
C959 C 0.95392 0.32853 0.40666 0.0
C960 C 0.93725 0.28213 0.38093 0.0
C961 C 0.95018 0.28239 0.35897 0.0
C962 C 0.9327 0.26542 0.33944 0.0
C963 C 0.90114 0.24821 0.34233 0.0
C964 C 0.88755 0.24821 0.36456 0.0
C965 C 0.90595 0.26498 0.38414 0.0
H966 H 0.57656 0.86676 0.3672 0.0
H967 H 0.6608 0.86521 0.36625 0.0
H968 H 0.68946 0.92103 0.36907 0.0
H969 H 0.60159 0.9323 0.33056 0.0
H970 H 0.58091 0.9466 0.34701 0.0
H971 H 0.56706 0.90659 0.34602 0.0
H972 H 0.56632 0.90484 0.39257 0.0
H973 H 0.58061 0.94495 0.39396 0.0
H974 H 0.60046 0.92888 0.40916 0.0
H975 H 0.7087 0.9766 0.37148 0.0
H976 H 0.71781 0.02866 0.372 0.0
H977 H 0.62084 0.99426 0.37041 0.0
C978 C 0.60104 0.8782 0.36775 0.0
C979 C 0.6166 0.86183 0.36663 0.0
C980 C 0.64857 0.87745 0.36717 0.0
C981 C 0.66497 0.90908 0.36879 0.0
C982 C 0.64897 0.92459 0.36977 0.0
C983 C 0.61772 0.90972 0.36922 0.0
C984 C 0.60606 0.93179 0.36987 0.0
C985 C 0.58784 0.92916 0.347 0.0
C986 C 0.58725 0.92734 0.39275 0.0
C987 C 0.63568 0.96147 0.37058 0.0
C988 C 0.6601 0.95674 0.37075 0.0
C989 C 0.68978 0.9806 0.37137 0.0
C990 C 0.69469 0.01011 0.37168 0.0
C991 C 0.67005 0.01559 0.3712 0.0
C992 C 0.64015 0.99084 0.37074 0.0
H993 H 0.66927 0.68968 0.33103 0.0
H994 H 0.71759 0.76653 0.37881 0.0
H995 H 0.75611 0.7518 0.38598 0.0
H996 H 0.68091 0.63794 0.36426 0.0
H997 H 0.6864 0.61969 0.33852 0.0
H998 H 0.66363 0.63736 0.33578 0.0
H999 H 0.69738 0.67014 0.3005 0.0
H1000 H 0.72032 0.65257 0.30318 0.0
H1001 H 0.73768 0.69309 0.30484 0.0
H1002 H 0.78557 0.72545 0.39206 0.0
H1003 H 0.80621 0.69079 0.39425 0.0
H1004 H 0.74209 0.63357 0.33992 0.0
C1005 C 0.68817 0.70358 0.34275 0.0
C1006 C 0.69042 0.72924 0.35437 0.0
C1007 C 0.71546 0.74687 0.36961 0.0
C1008 C 0.73749 0.7387 0.37381 0.0
C1009 C 0.73449 0.71314 0.36229 0.0
C1010 C 0.71073 0.69605 0.34681 0.0
C1011 C 0.71249 0.66917 0.33726 0.0
C1012 C 0.68418 0.63928 0.34439 0.0
C1013 C 0.71726 0.67139 0.30981 0.0
C1014 C 0.74041 0.67337 0.35037 0.0
C1015 C 0.75269 0.69886 0.36476 0.0
C1016 C 0.77669 0.70587 0.38041 0.0
C1017 C 0.78825 0.68612 0.38157 0.0
C1018 C 0.77616 0.66011 0.36684 0.0
C1019 C 0.75233 0.65393 0.35075 0.0
H1020 H 0.72394 0.10206 0.83991 0.0
H1021 H 0.79695 0.10914 0.88458 0.0
H1022 H 0.77127 0.0535 0.88735 0.0
H1023 H 0.66496 0.04218 0.87276 0.0
H1024 H 0.64172 0.02315 0.84695 0.0
H1025 H 0.66711 0.06336 0.84612 0.0
H1026 H 0.69249 0.05756 0.80764 0.0
H1027 H 0.66699 0.01731 0.80822 0.0
H1028 H 0.70731 0.03209 0.80781 0.0
H1029 H 0.73705 0.99788 0.88713 0.0
H1030 H 0.69608 0.94509 0.88445 0.0
H1031 H 0.6431 0.97273 0.84126 0.0
C1032 C 0.73477 0.09178 0.8498 0.0
C1033 C 0.76265 0.10981 0.86179 0.0
C1034 C 0.77577 0.09569 0.87511 0.0
C1035 C 0.76133 0.06413 0.87679 0.0
C1036 C 0.7336 0.04696 0.86521 0.0
C1037 C 0.72036 0.06018 0.85197 0.0
C1038 C 0.68946 0.0364 0.84263 0.0
C1039 C 0.66433 0.04159 0.85272 0.0
C1040 C 0.68905 0.03581 0.81492 0.0
C1041 C 0.68733 0.00784 0.8529 0.0
C1042 C 0.71323 0.01458 0.86566 0.0
C1043 C 0.71672 0.9923 0.87709 0.0
C1044 C 0.6932 0.96229 0.87546 0.0
C1045 C 0.66625 0.95459 0.86263 0.0
C1046 C 0.66336 0.97781 0.8512 0.0
H1047 H 0.63621 0.77121 0.85985 0.0
H1048 H 0.56882 0.71562 0.91291 0.0
H1049 H 0.59197 0.68329 0.9162 0.0
H1050 H 0.63566 0.71051 0.82911 0.0
H1051 H 0.67556 0.73005 0.82238 0.0
H1052 H 0.65616 0.75107 0.82621 0.0
H1053 H 0.69426 0.78349 0.85946 0.0
H1054 H 0.71393 0.7627 0.85562 0.0
H1055 H 0.70011 0.76514 0.88496 0.0
H1056 H 0.62025 0.65522 0.91203 0.0
H1057 H 0.65143 0.63279 0.90051 0.0
H1058 H 0.69969 0.70507 0.84875 0.0
C1059 C 0.62692 0.75272 0.87263 0.0
C1060 C 0.60106 0.74618 0.8865 0.0
C1061 C 0.58884 0.72119 0.90239 0.0
C1062 C 0.60181 0.7027 0.90434 0.0
C1063 C 0.62688 0.70928 0.89008 0.0
C1064 C 0.63935 0.73367 0.87451 0.0
C1065 C 0.66489 0.73433 0.85993 0.0
C1066 C 0.65762 0.7313 0.8328 0.0
C1067 C 0.69509 0.76313 0.86532 0.0
C1068 C 0.66468 0.70642 0.86963 0.0
C1069 C 0.6427 0.69249 0.88714 0.0
C1070 C 0.63766 0.66603 0.89845 0.0
C1071 C 0.65552 0.65343 0.89174 0.0
C1072 C 0.67813 0.6671 0.87373 0.0
C1073 C 0.68271 0.69405 0.86262 0.0
H1074 H 0.99813 0.71161 0.85612 0.0
H1075 H 0.01426 0.64066 0.88199 0.0
H1076 H 0.95971 0.60799 0.88936 0.0
H1077 H 0.93803 0.69784 0.8983 0.0
H1078 H 0.91614 0.70504 0.87656 0.0
H1079 H 0.95672 0.72357 0.87368 0.0
H1080 H 0.95107 0.70253 0.83036 0.0
H1081 H 0.91049 0.68404 0.83307 0.0
H1082 H 0.92837 0.6624 0.82532 0.0
H1083 H 0.90389 0.58244 0.89324 0.0
H1084 H 0.8493 0.56464 0.8924 0.0
H1085 H 0.8676 0.65139 0.86424 0.0
C1086 C 0.99019 0.68925 0.86342 0.0
C1087 C 0.01066 0.67881 0.86853 0.0
C1088 C 0.99922 0.64929 0.87793 0.0
C1089 C 0.9682 0.63053 0.88224 0.0
C1090 C 0.94872 0.64149 0.87708 0.0
C1091 C 0.95913 0.67008 0.86781 0.0
C1092 C 0.93299 0.67581 0.86333 0.0
C1093 C 0.93617 0.70213 0.8789 0.0
C1094 C 0.9306 0.68153 0.83642 0.0
C1095 C 0.90632 0.64592 0.87147 0.0
C1096 C 0.91611 0.62658 0.87938 0.0
C1097 C 0.89596 0.59742 0.88721 0.0
C1098 C 0.86496 0.58754 0.88668 0.0
C1099 C 0.85419 0.60668 0.87844 0.0
C1100 C 0.87521 0.63642 0.87094 0.0
H1101 H 0.36402 0.98965 0.86089 0.0
H1102 H 0.30593 0.02468 0.8834 0.0
H1103 H 0.26295 0.97257 0.88686 0.0
H1104 H 0.30796 0.92714 0.82555 0.0
H1105 H 0.32113 0.90177 0.83447 0.0
H1106 H 0.34719 0.94184 0.83332 0.0
H1107 H 0.36192 0.941 0.8778 0.0
H1108 H 0.33589 0.90094 0.87917 0.0
H1109 H 0.33281 0.9258 0.90058 0.0
H1110 H 0.22596 0.91618 0.88794 0.0
H1111 H 0.19844 0.8602 0.88709 0.0
H1112 H 0.28075 0.86195 0.86469 0.0
C1113 C 0.34224 0.98641 0.86644 0.0
C1114 C 0.33842 0.01141 0.8718 0.0
C1115 C 0.30951 0.00602 0.87915 0.0
C1116 C 0.28491 0.97644 0.88117 0.0
C1117 C 0.28947 0.95235 0.87584 0.0
C1118 C 0.31744 0.95701 0.86865 0.0
C1119 C 0.31644 0.9272 0.86432 0.0
C1120 C 0.3236 0.92433 0.83784 0.0
C1121 C 0.33804 0.92353 0.8815 0.0
C1122 C 0.28358 0.90504 0.87029 0.0
C1123 C 0.26835 0.91999 0.87679 0.0
C1124 C 0.23769 0.90427 0.88291 0.0
C1125 C 0.22222 0.87249 0.88238 0.0
C1126 C 0.23744 0.85675 0.87591 0.0
C1127 C 0.26852 0.87336 0.86981 0.0
H1128 H 0.30685 0.33443 0.8774 0.0
H1129 H 0.25832 0.29526 0.81076 0.0
H1130 H 0.2753 0.25777 0.81168 0.0
H1131 H 0.37084 0.32829 0.86337 0.0
H1132 H 0.37654 0.31922 0.89361 0.0
H1133 H 0.3585 0.34134 0.8888 0.0
H1134 H 0.31218 0.30283 0.9137 0.0
H1135 H 0.33009 0.28053 0.91856 0.0
H1136 H 0.29287 0.26347 0.90533 0.0
H1137 H 0.30062 0.22701 0.81812 0.0
H1138 H 0.33283 0.20552 0.82966 0.0
H1139 H 0.36419 0.2641 0.89231 0.0
C1140 C 0.29942 0.3177 0.86318 0.0
C1141 C 0.28116 0.31774 0.84405 0.0
C1142 C 0.27225 0.29567 0.82564 0.0
C1143 C 0.28171 0.27421 0.82602 0.0
C1144 C 0.29996 0.275 0.845 0.0
C1145 C 0.30867 0.29611 0.86328 0.0
C1146 C 0.32967 0.29309 0.88091 0.0
C1147 C 0.36072 0.32221 0.8817 0.0
C1148 C 0.31533 0.28446 0.90612 0.0
C1149 C 0.33183 0.26733 0.86944 0.0
C1150 C 0.31437 0.25708 0.84882 0.0
C1151 C 0.31405 0.23456 0.83441 0.0
C1152 C 0.33237 0.22248 0.84109 0.0
C1153 C 0.35066 0.23295 0.86198 0.0
C1154 C 0.35 0.25533 0.87647 0.0
H1155 H 0.99956 0.29395 0.86566 0.0
H1156 H 0.98338 0.36893 0.87635 0.0
H1157 H 0.03828 0.40382 0.87942 0.0
H1158 H 0.06392 0.32057 0.9064 0.0
H1159 H 0.08417 0.30809 0.88736 0.0
H1160 H 0.0434 0.2884 0.88688 0.0
H1161 H 0.04423 0.29653 0.84074 0.0
H1162 H 0.08497 0.31611 0.84106 0.0
H1163 H 0.06545 0.33426 0.8287 0.0
H1164 H 0.09444 0.43095 0.88014 0.0
H1165 H 0.14908 0.4492 0.87712 0.0
H1166 H 0.1302 0.35734 0.86596 0.0
C1167 C 0.00756 0.31768 0.86878 0.0
C1168 C 0.98705 0.32864 0.8708 0.0
C1169 C 0.99853 0.35991 0.8747 0.0
C1170 C 0.02972 0.37995 0.87657 0.0
C1171 C 0.04928 0.36846 0.87448 0.0
C1172 C 0.03877 0.33811 0.8706 0.0
C1173 C 0.0649 0.33199 0.86819 0.0
C1174 C 0.06404 0.31102 0.88842 0.0
C1175 C 0.06488 0.31896 0.84319 0.0
C1176 C 0.0917 0.36368 0.87113 0.0
C1177 C 0.08203 0.38427 0.87487 0.0
C1178 C 0.10231 0.41505 0.87736 0.0
C1179 C 0.13331 0.42518 0.87563 0.0
C1180 C 0.14385 0.40467 0.87146 0.0
C1181 C 0.12276 0.37345 0.86948 0.0
H1182 H 0.86961 0.27375 0.619 0.0
H1183 H 0.85275 0.18264 0.60768 0.0
H1184 H 0.90787 0.20241 0.604 0.0
H1185 H 0.9331 0.31147 0.57776 0.0
H1186 H 0.95354 0.34409 0.59684 0.0
H1187 H 0.91279 0.32292 0.59775 0.0
H1188 H 0.91448 0.3155 0.64378 0.0
H1189 H 0.95522 0.33665 0.64302 0.0
H1190 H 0.93595 0.29895 0.6553 0.0
H1191 H 0.96467 0.23192 0.60237 0.0
H1192 H 0.0193 0.26868 0.6036 0.0
H1193 H 0.99978 0.34105 0.61645 0.0
C1194 C 0.87754 0.25801 0.61557 0.0
C1195 C 0.85695 0.22665 0.61349 0.0
C1196 C 0.86816 0.20672 0.60925 0.0
C1197 C 0.8994 0.21777 0.60712 0.0
C1198 C 0.91913 0.2488 0.60934 0.0
C1199 C 0.90868 0.26866 0.61351 0.0
C1200 C 0.93476 0.30087 0.61584 0.0
C1201 C 0.93346 0.32102 0.59585 0.0
C1202 C 0.93512 0.31374 0.64098 0.0
C1203 C 0.96155 0.29602 0.6124 0.0
C1204 C 0.95196 0.26582 0.6086 0.0
C1205 C 0.97242 0.25563 0.60528 0.0
C1206 C 0.00348 0.27676 0.60601 0.0
C1207 C 0.01397 0.30785 0.61009 0.0
C1208 C 0.99257 0.31752 0.61318 0.0
H1209 H 0.61083 0.87842 0.62636 0.0
H1210 H 0.68887 0.86895 0.61026 0.0
H1211 H 0.7216 0.92464 0.61101 0.0
H1212 H 0.63262 0.94477 0.59049 0.0
H1213 H 0.61845 0.9615 0.61166 0.0
H1214 H 0.60133 0.92103 0.60996 0.0
H1215 H 0.61089 0.919 0.65558 0.0
H1216 H 0.62805 0.95947 0.65743 0.0
H1217 H 0.64871 0.94134 0.66734 0.0
H1218 H 0.74561 0.98127 0.61333 0.0
H1219 H 0.75957 0.03472 0.61706 0.0
H1220 H 0.6658 0.00766 0.63189 0.0
C1221 C 0.63482 0.88809 0.62298 0.0
C1222 C 0.64739 0.86942 0.6182 0.0
C1223 C 0.67884 0.88286 0.61393 0.0
C1224 C 0.69755 0.91445 0.61433 0.0
C1225 C 0.68445 0.93223 0.61909 0.0
C1226 C 0.6538 0.91955 0.62336 0.0
C1227 C 0.6454 0.94372 0.62806 0.0
C1228 C 0.62314 0.94269 0.60889 0.0
C1229 C 0.63251 0.9407 0.65363 0.0
C1230 C 0.67611 0.97206 0.62565 0.0
C1231 C 0.6983 0.96487 0.6205 0.0
C1232 C 0.72842 0.98713 0.61738 0.0
C1233 C 0.73611 0.0175 0.61954 0.0
C1234 C 0.71383 0.02554 0.62479 0.0
C1235 C 0.6834 0.00236 0.62789 0.0
H1236 H 0.71953 0.71042 0.6199 0.0
H1237 H 0.62745 0.63481 0.62258 0.0
H1238 H 0.64697 0.59937 0.62131 0.0
H1239 H 0.74933 0.67684 0.57935 0.0
H1240 H 0.78538 0.69238 0.59438 0.0
H1241 H 0.76437 0.71209 0.59547 0.0
H1242 H 0.7659 0.71198 0.64215 0.0
H1243 H 0.78707 0.69243 0.64121 0.0
H1244 H 0.75215 0.67667 0.65794 0.0
H1245 H 0.67607 0.57204 0.61916 0.0
H1246 H 0.71313 0.55447 0.61849 0.0
H1247 H 0.78669 0.64744 0.6179 0.0
C1248 C 0.70346 0.68641 0.62024 0.0
C1249 C 0.67192 0.67544 0.62127 0.0
C1250 C 0.65169 0.64383 0.6218 0.0
C1251 C 0.66255 0.62347 0.62102 0.0
C1252 C 0.6937 0.63503 0.61982 0.0
C1253 C 0.71392 0.66573 0.61961 0.0
C1254 C 0.74634 0.67213 0.6187 0.0
C1255 C 0.76229 0.68938 0.5956 0.0
C1256 C 0.76389 0.68932 0.64135 0.0
C1257 C 0.74117 0.64022 0.61832 0.0
C1258 C 0.7106 0.6192 0.61888 0.0
C1259 C 0.70006 0.58828 0.61875 0.0
C1260 C 0.7213 0.57853 0.61831 0.0
C1261 C 0.75275 0.5996 0.61809 0.0
C1262 C 0.76278 0.63086 0.61794 0.0
H1263 H 0.00866 0.62582 0.61815 0.0
H1264 H 0.97923 0.68126 0.6557 0.0
H1265 H 0.03184 0.7234 0.65671 0.0
H1266 H 0.07964 0.65398 0.65102 0.0
H1267 H 0.10022 0.65272 0.62506 0.0
H1268 H 0.06019 0.62661 0.62755 0.0
H1269 H 0.05161 0.64449 0.58614 0.0
H1270 H 0.09156 0.67083 0.58358 0.0
H1271 H 0.06487 0.68407 0.58136 0.0
H1272 H 0.08723 0.76052 0.65207 0.0
H1273 H 0.14248 0.78872 0.64475 0.0
H1274 H 0.13658 0.70911 0.61149 0.0
C1275 C 0.01331 0.64677 0.62669 0.0
C1276 C 0.98971 0.6502 0.63677 0.0
C1277 C 0.99684 0.67797 0.64789 0.0
C1278 C 0.02668 0.70214 0.6485 0.0
C1279 C 0.04932 0.69818 0.63814 0.0
C1280 C 0.04311 0.67111 0.6277 0.0
C1281 C 0.07177 0.6728 0.61809 0.0
C1282 C 0.07834 0.65019 0.63122 0.0
C1283 C 0.06982 0.66775 0.59066 0.0
C1284 C 0.09491 0.70516 0.62448 0.0
C1285 C 0.08144 0.71943 0.63595 0.0
C1286 C 0.09807 0.74955 0.64322 0.0
C1287 C 0.12938 0.76543 0.63889 0.0
C1288 C 0.1437 0.75111 0.62754 0.0
C1289 C 0.12617 0.72062 0.6202 0.0
H1290 H 0.30102 0.9873 0.64129 0.0
H1291 H 0.37651 0.97222 0.62878 0.0
H1292 H 0.41106 0.02731 0.62627 0.0
H1293 H 0.32452 0.049 0.60083 0.0
H1294 H 0.31219 0.06949 0.61973 0.0
H1295 H 0.29344 0.02891 0.62146 0.0
H1296 H 0.30405 0.03223 0.66737 0.0
H1297 H 0.32274 0.07284 0.6658 0.0
H1298 H 0.34234 0.05475 0.67813 0.0
H1299 H 0.43713 0.08372 0.62368 0.0
H1300 H 0.45317 0.13797 0.62219 0.0
H1301 H 0.36099 0.11662 0.63668 0.0
C1302 C 0.32484 0.99555 0.63817 0.0
C1303 C 0.33603 0.97541 0.63521 0.0
C1304 C 0.36738 0.98717 0.63112 0.0
C1305 C 0.3872 0.01843 0.62965 0.0
C1306 C 0.37537 0.03762 0.63242 0.0
C1307 C 0.34497 0.02668 0.63672 0.0
C1308 C 0.33803 0.05219 0.63874 0.0
C1309 C 0.31573 0.04974 0.61901 0.0
C1310 C 0.32609 0.05304 0.66401 0.0
C1311 C 0.36924 0.07917 0.63461 0.0
C1312 C 0.39045 0.07023 0.63105 0.0
C1313 C 0.42075 0.09099 0.62652 0.0
C1314 C 0.42962 0.12172 0.62564 0.0
C1315 C 0.40829 0.13137 0.62926 0.0
C1316 C 0.37774 0.10981 0.63386 0.0
H1317 H 0.25759 0.36154 0.66645 0.0
H1318 H 0.23474 0.33962 0.59104 0.0
H1319 H 0.26901 0.31868 0.58886 0.0
H1320 H 0.33471 0.38632 0.66063 0.0
H1321 H 0.33862 0.37091 0.68873 0.0
H1322 H 0.30968 0.381 0.68544 0.0
H1323 H 0.26862 0.32681 0.69744 0.0
H1324 H 0.29747 0.3166 0.70109 0.0
H1325 H 0.26593 0.29499 0.68121 0.0
H1326 H 0.30946 0.30524 0.59347 0.0
H1327 H 0.35105 0.29657 0.60535 0.0
H1328 H 0.34786 0.32636 0.67806 0.0
C1329 C 0.25919 0.35152 0.64971 0.0
C1330 C 0.24333 0.35191 0.62894 0.0
C1331 C 0.24652 0.33931 0.60718 0.0
C1332 C 0.26598 0.32743 0.60576 0.0
C1333 C 0.28205 0.32821 0.62629 0.0
C1334 C 0.27864 0.33957 0.64796 0.0
C1335 C 0.29986 0.33913 0.66694 0.0
C1336 C 0.32203 0.37125 0.67595 0.0
C1337 C 0.28189 0.31812 0.68791 0.0
C1338 C 0.31608 0.3263 0.6524 0.0
C1339 C 0.30538 0.32016 0.62901 0.0
C1340 C 0.31774 0.30956 0.61182 0.0
C1341 C 0.3415 0.30485 0.61873 0.0
C1342 C 0.35267 0.31061 0.64267 0.0
C1343 C 0.33964 0.32143 0.65969 0.0
H1344 H 0.46106 0.21028 0.04635 0.0
H1345 H 0.39488 0.11871 0.06655 0.0
H1346 H 0.39109 0.10268 0.02422 0.0
H1347 H 0.42591 0.21461 -0.00176 0.0
H1348 H 0.45851 0.2364 0.97936 0.0
H1349 H 0.46256 0.23878 0.01148 0.0
H1350 H 0.50371 0.22328 0.00886 0.0
H1351 H 0.49993 0.22105 0.97649 0.0
H1352 H 0.49558 0.189 0.99339 0.0
H1353 H 0.38533 0.09952 0.97929 0.0
H1354 H 0.37923 0.10969 0.93665 0.0
H1355 H 0.44993 0.20296 0.94588 0.0
C1356 C 0.44662 0.18663 0.04199 0.0
C1357 C 0.4282 0.16577 0.05972 0.0
C1358 C 0.40937 0.13506 0.05333 0.0
C1359 C 0.40714 0.12572 0.02927 0.0
C1360 C 0.42438 0.14725 0.01193 0.0
C1361 C 0.44427 0.17701 0.01812 0.0
C1362 C 0.45704 0.19669 0.99602 0.0
C1363 C 0.45058 0.22313 0.99631 0.0
C1364 C 0.49109 0.20817 0.99355 0.0
C1365 C 0.43927 0.17396 0.97656 0.0
C1366 C 0.42119 0.14535 0.98591 0.0
C1367 C 0.40001 0.12163 0.97166 0.0
C1368 C 0.3966 0.1276 0.94748 0.0
C1369 C 0.41399 0.15714 0.93807 0.0
C1370 C 0.43637 0.18011 0.95257 0.0
H1371 H 0.26114 0.39609 0.04283 0.0
H1372 H 0.27942 0.48762 0.05541 0.0
H1373 H 0.28512 0.49732 0.01167 0.0
H1374 H 0.31284 0.41348 0.99166 0.0
H1375 H 0.28736 0.37917 0.97592 0.0
H1376 H 0.28725 0.38011 0.0084 0.0
H1377 H 0.22981 0.36173 0.00813 0.0
H1378 H 0.22973 0.36071 0.97571 0.0
H1379 H 0.21614 0.38262 0.99123 0.0
H1380 H 0.2862 0.49641 0.96697 0.0
H1381 H 0.28065 0.48446 0.9237 0.0
H1382 H 0.26065 0.39312 0.93988 0.0
C1383 C 0.26674 0.4183 0.03641 0.0
C1384 C 0.26993 0.44113 0.0525 0.0
C1385 C 0.27683 0.46977 0.04339 0.0
C1386 C 0.28028 0.47556 0.01861 0.0
C1387 C 0.27674 0.45249 0.00323 0.0
C1388 C 0.27007 0.42442 0.01172 0.0
C1389 C 0.26556 0.403 0.99122 0.0
C1390 C 0.2897 0.39338 0.99184 0.0
C1391 C 0.2334 0.37539 0.9916 0.0
C1392 C 0.27012 0.42327 0.96988 0.0
C1393 C 0.27692 0.45181 0.97725 0.0
C1394 C 0.28106 0.4742 0.96093 0.0
C1395 C 0.27771 0.46711 0.93637 0.0
C1396 C 0.27008 0.4378 0.92838 0.0
C1397 C 0.2667 0.41578 0.9454 0.0
H1398 H 0.81961 0.23325 0.04909 0.0
H1399 H 0.91669 0.27237 0.05781 0.0
H1400 H 0.92293 0.27688 0.0135 0.0
H1401 H 0.81224 0.18922 -0.00279 0.0
H1402 H 0.78351 0.19509 0.98361 0.0
H1403 H 0.78726 0.19591 0.01589 0.0
H1404 H 0.79311 0.24932 0.01683 0.0
H1405 H 0.78964 0.24876 0.9845 0.0
H1406 H 0.82228 0.27917 -0.001 0.0
H1407 H 0.91805 0.27671 0.96767 0.0
H1408 H 0.90212 0.26857 0.92488 0.0
H1409 H 0.80841 0.22957 0.94733 0.0
C1410 C 0.84226 0.24284 0.0418 0.0
C1411 C 0.86766 0.2525 0.05701 0.0
C1412 C 0.89684 0.26473 0.04656 0.0
C1413 C 0.90063 0.26753 0.02141 0.0
C1414 C 0.87505 0.25799 0.00699 0.0
C1415 C 0.84643 0.24574 0.01688 0.0
C1416 C 0.82243 0.23633 -0.00238 0.0
C1417 C 0.80005 0.20211 -0.00135 0.0
C1418 C 0.8059 0.25448 -0.00039 0.0
C1419 C 0.84192 0.2449 0.97527 0.0
C1420 C 0.87224 0.25762 0.98093 0.0
C1421 C 0.89435 0.26678 0.96305 0.0
C1422 C 0.8851 0.26214 0.9388 0.0
C1423 C 0.85399 0.24823 0.93273 0.0
C1424 C 0.83235 0.24013 0.9513 0.0
H1425 H 0.60325 0.8786 0.93654 0.0
H1426 H 0.50892 0.80869 0.93181 0.0
H1427 H 0.50328 0.81246 0.97552 0.0
H1428 H 0.61951 0.85168 0.98495 0.0
H1429 H 0.64517 0.8871 -0.00074 0.0
H1430 H 0.63978 0.88567 0.96727 0.0
H1431 H 0.62473 0.92705 0.9704 0.0
H1432 H 0.63005 0.92854 0.00262 0.0
H1433 H 0.59446 0.9216 0.99029 0.0
H1434 H 0.51032 0.81433 0.01901 0.0
H1435 H 0.53025 0.81269 0.05911 0.0
H1436 H 0.61985 0.8819 0.03726 0.0
C1437 C 0.58114 0.86501 0.94463 0.0
C1438 C 0.5565 0.84348 0.93088 0.0
C1439 C 0.52811 0.82533 0.94207 0.0
C1440 C 0.5246 0.82757 0.96686 0.0
C1441 C 0.54965 0.84816 0.98018 0.0
C1442 C 0.5774 0.86674 0.96946 0.0
C1443 C 0.60191 0.88295 0.98821 0.0
C1444 C 0.62809 0.87642 0.98471 0.0
C1445 C 0.61346 0.91706 0.98786 0.0
C1446 C 0.58416 0.86858 0.01101 0.0
C1447 C 0.5538 0.84939 0.006 0.0
C1448 C 0.53374 0.83001 0.02336 0.0
C1449 C 0.5452 0.82915 0.04603 0.0
C1450 C 0.57631 0.84766 0.05111 0.0
C1451 C 0.59576 0.86851 0.03386 0.0
H1452 H 0.75189 0.61923 0.05506 0.0
H1453 H 0.72192 0.5245 0.06788 0.0
H1454 H 0.71053 0.51382 0.02476 0.0
H1455 H 0.69647 0.60694 0.00702 0.0
H1456 H 0.72349 0.63919 0.98989 0.0
H1457 H 0.72643 0.63918 0.02228 0.0
H1458 H 0.78163 0.65009 0.01848 0.0
H1459 H 0.77885 0.6501 0.98616 0.0
H1460 H 0.78937 0.62517 0.00071 0.0
H1461 H 0.70658 0.51371 0.98064 0.0
H1462 H 0.71072 0.52421 0.93717 0.0
H1463 H 0.74295 0.61898 0.9519 0.0
C1464 C 0.74247 0.59617 0.04884 0.0
C1465 C 0.73777 0.57269 0.06484 0.0
C1466 C 0.7258 0.54288 0.05597 0.0
C1467 C 0.71907 0.53653 0.03152 0.0
C1468 C 0.72434 0.56019 0.01618 0.0
C1469 C 0.7357 0.58941 0.02439 0.0
C1470 C 0.74117 0.61093 0.00369 0.0
C1471 C 0.72066 0.62488 0.00586 0.0
C1472 C 0.77475 0.63551 0.00218 0.0
C1473 C 0.73193 0.5893 0.98256 0.0
C1474 C 0.72199 0.56012 0.99031 0.0
C1475 C 0.71396 0.53637 0.97431 0.0
C1476 C 0.71656 0.54263 0.94965 0.0
C1477 C 0.72713 0.57241 0.9412 0.0
C1478 C 0.73439 0.59595 0.95788 0.0
H1479 H 0.14294 0.78507 0.04965 0.0
H1480 H 0.13171 0.69851 0.0712 0.0
H1481 H 0.1213 0.68115 0.02902 0.0
H1482 H 0.08569 0.75494 -0.00208 0.0
H1483 H 0.1093 0.78811 0.98021 0.0
H1484 H 0.10854 0.79086 0.01258 0.0
H1485 H 0.16682 0.81472 0.01348 0.0
H1486 H 0.16781 0.81137 0.98132 0.0
H1487 H 0.18382 0.79442 0.00042 0.0
H1488 H 0.12453 0.67793 0.98441 0.0
H1489 H 0.13391 0.68655 0.94049 0.0
H1490 H 0.1412 0.7743 0.94772 0.0
C1491 C 0.137 0.76202 0.04559 0.0
C1492 C 0.13796 0.74306 0.0636 0.0
C1493 C 0.13059 0.71322 0.05771 0.0
C1494 C 0.1248 0.70321 0.03375 0.0
C1495 C 0.12589 0.72316 0.01613 0.0
C1496 C 0.13098 0.75168 0.02183 0.0
C1497 C 0.13414 0.76987 -0.00061 0.0
C1498 C 0.10784 0.77631 -0.00259 0.0
C1499 C 0.16498 0.79931 -0.00137 0.0
C1500 C 0.13199 0.74788 0.98021 0.0
C1501 C 0.12694 0.72094 0.9902 0.0
C1502 C 0.12753 0.6985 0.9763 0.0
C1503 C 0.13315 0.70365 0.95153 0.0
C1504 C 0.13796 0.7309 0.94112 0.0
C1505 C 0.13705 0.75311 0.95548 0.0
H1506 H 0.82678 0.5544 0.54996 0.0
H1507 H 0.91823 0.62759 0.56313 0.0
H1508 H 0.92631 0.6358 0.51922 0.0
H1509 H 0.84315 0.52735 0.49197 0.0
H1510 H 0.80724 0.51934 0.47956 0.0
H1511 H 0.81091 0.51555 0.51151 0.0
H1512 H 0.79056 0.55211 0.51996 0.0
H1513 H 0.78693 0.55606 0.48819 0.0
H1514 H 0.80923 0.58913 0.50641 0.0
H1515 H 0.92139 0.64109 0.47438 0.0
H1516 H 0.90349 0.64329 0.43334 0.0
H1517 H 0.81556 0.56652 0.4504 0.0
C1518 C 0.8488 0.57171 0.54369 0.0
C1519 C 0.87182 0.59038 0.56001 0.0
C1520 C 0.90024 0.61289 0.55097 0.0
C1521 C 0.9051 0.61765 0.52604 0.0
C1522 C 0.88148 0.59941 0.51046 0.0
C1523 C 0.85399 0.57666 0.519 0.0
C1524 C 0.8311 0.5623 0.49897 0.0
C1525 C 0.82261 0.52917 0.49529 0.0
C1526 C 0.80282 0.5651 0.50367 0.0
C1527 C 0.8494 0.58165 0.47802 0.0
C1528 C 0.87863 0.6025 0.48477 0.0
C1529 C 0.89875 0.62447 0.46878 0.0
C1530 C 0.8884 0.62559 0.44554 0.0
C1531 C 0.85815 0.60511 0.43879 0.0
C1532 C 0.83885 0.58241 0.45503 0.0
H1533 H 0.25158 0.80826 0.54425 0.0
H1534 H 0.26009 0.89456 0.56369 0.0
H1535 H 0.26067 0.90673 0.52067 0.0
H1536 H 0.30135 0.83483 0.49457 0.0
H1537 H 0.27967 0.80164 0.47633 0.0
H1538 H 0.27787 0.79867 0.50869 0.0
H1539 H 0.2195 0.77446 0.50715 0.0
H1540 H 0.2211 0.77717 0.47475 0.0
H1541 H 0.20309 0.79389 0.49176 0.0
H1542 H 0.26295 0.91074 0.47579 0.0
H1543 H 0.26557 0.90575 0.43179 0.0
H1544 H 0.2557 0.81691 0.44171 0.0
C1545 C 0.25321 0.82957 0.53951 0.0
C1546 C 0.25582 0.85045 0.55736 0.0
C1547 C 0.25811 0.87819 0.55035 0.0
C1548 C 0.25842 0.88533 0.52596 0.0
C1549 C 0.25634 0.86446 0.50884 0.0
C1550 C 0.25361 0.83709 0.51527 0.0
C1551 C 0.2527 0.81909 0.49331 0.0
C1552 C 0.2795 0.81323 0.49323 0.0
C1553 C 0.22228 0.7894 0.49165 0.0
C1554 C 0.25578 0.84084 0.47356 0.0
C1555 C 0.25771 0.8668 0.4829 0.0
C1556 C 0.26129 0.89044 0.46822 0.0
C1557 C 0.26284 0.88741 0.44325 0.0
C1558 C 0.26088 0.86095 0.43328 0.0
C1559 C 0.25725 0.83741 0.44873 0.0
H1560 H 0.4279 0.22714 0.55112 0.0
H1561 H 0.40582 0.2963 0.56978 0.0
H1562 H 0.39509 0.30051 0.52693 0.0
H1563 H 0.46747 0.26288 0.49722 0.0
H1564 H 0.45497 0.22814 0.48087 0.0
H1565 H 0.45824 0.22862 0.51319 0.0
H1566 H 0.40217 0.18614 0.51645 0.0
H1567 H 0.39872 0.18557 0.4841 0.0
H1568 H 0.37309 0.19137 0.50271 0.0
H1569 H 0.38686 0.29719 0.4822 0.0
H1570 H 0.38667 0.29043 0.43809 0.0
H1571 H 0.41787 0.22624 0.44825 0.0
C1572 C 0.42044 0.24287 0.54615 0.0
C1573 C 0.41738 0.26122 0.56363 0.0
C1574 C 0.40827 0.28207 0.55654 0.0
C1575 C 0.40198 0.28449 0.53232 0.0
C1576 C 0.40537 0.2662 0.51544 0.0
C1577 C 0.41474 0.24606 0.52198 0.0
C1578 C 0.41879 0.2307 0.50009 0.0
C1579 C 0.45183 0.23804 0.49771 0.0
C1580 C 0.39688 0.19641 0.50089 0.0
C1581 C 0.41036 0.24547 0.48024 0.0
C1582 C 0.40217 0.26546 0.48952 0.0
C1583 C 0.39328 0.28164 0.47471 0.0
C1584 C 0.39314 0.27758 0.44971 0.0
C1585 C 0.40236 0.25791 0.43982 0.0
C1586 C 0.4109 0.24156 0.45534 0.0
H1587 H 0.12141 0.37021 0.55117 0.0
H1588 H 0.18803 0.4595 0.57567 0.0
H1589 H 0.18538 0.48099 0.53668 0.0
H1590 H 0.15213 0.37422 0.49949 0.0
H1591 H 0.11888 0.35431 0.4809 0.0
H1592 H 0.11636 0.3471 0.51265 0.0
H1593 H 0.07393 0.36057 0.51669 0.0
H1594 H 0.07587 0.36735 0.48465 0.0
H1595 H 0.08001 0.39627 0.50545 0.0
H1596 H 0.18789 0.49025 0.49372 0.0
H1597 H 0.19325 0.48718 0.44988 0.0
H1598 H 0.12545 0.39202 0.4514 0.0
C1599 C 0.13397 0.39446 0.54861 0.0
C1600 C 0.15458 0.41339 0.56621 0.0
C1601 C 0.17192 0.44484 0.56226 0.0
C1602 C 0.1704 0.45722 0.54024 0.0
C1603 C 0.15151 0.43777 0.5224 0.0
C1604 C 0.13312 0.40704 0.5264 0.0
C1605 C 0.11967 0.39037 0.503 0.0
C1606 C 0.12726 0.36505 0.49878 0.0
C1607 C 0.08533 0.37791 0.50241 0.0
C1608 C 0.13579 0.41596 0.48515 0.0
C1609 C 0.15319 0.44327 0.49677 0.0
C1610 C 0.17359 0.46927 0.48434 0.0
C1611 C 0.17676 0.46724 0.45949 0.0
C1612 C 0.15968 0.43937 0.44737 0.0
C1613 C 0.13827 0.41372 0.46024 0.0
H1614 H 0.75912 0.20111 0.44547 0.0
H1615 H 0.73486 0.10997 0.42433 0.0
H1616 H 0.7199 0.09292 0.46641 0.0
H1617 H 0.79356 0.20232 0.49879 0.0
H1618 H 0.78064 0.22403 0.51545 0.0
H1619 H 0.78477 0.22798 0.48327 0.0
H1620 H 0.72876 0.21442 0.47908 0.0
H1621 H 0.72449 0.2107 0.51136 0.0
H1622 H 0.69931 0.17984 0.49214 0.0
H1623 H 0.71432 0.08764 0.51167 0.0
H1624 H 0.71656 0.09388 0.55585 0.0
H1625 H 0.74453 0.18871 0.54693 0.0
C1626 C 0.75 0.17739 0.44951 0.0
C1627 C 0.74819 0.15686 0.43163 0.0
C1628 C 0.73634 0.12607 0.43773 0.0
C1629 C 0.72778 0.1162 0.46157 0.0
C1630 C 0.73092 0.13734 0.47895 0.0
C1631 C 0.7414 0.16723 0.4731 0.0
C1632 C 0.74493 0.186 0.49527 0.0
C1633 C 0.77793 0.21157 0.49836 0.0
C1634 C 0.72306 0.19847 0.49441 0.0
C1635 C 0.73593 0.16228 0.51468 0.0
C1636 C 0.72758 0.13428 0.50493 0.0
C1637 C 0.72032 0.10934 0.51946 0.0
C1638 C 0.72181 0.11318 0.54457 0.0
C1639 C 0.73062 0.14179 0.55492 0.0
C1640 C 0.73735 0.16646 0.53965 0.0
H1641 H 0.56529 0.75277 0.43742 0.0
H1642 H 0.64059 0.73987 0.41784 0.0
H1643 H 0.65318 0.74053 0.46065 0.0
H1644 H 0.60262 0.80377 0.48644 0.0
H1645 H 0.56934 0.78868 0.50519 0.0
H1646 H 0.56558 0.78665 0.47286 0.0
H1647 H 0.53036 0.72861 0.47542 0.0
H1648 H 0.53388 0.7305 0.50776 0.0
H1649 H 0.54323 0.7061 0.49092 0.0
H1650 H 0.65824 0.74305 0.5053 0.0
H1651 H 0.65447 0.7461 0.54943 0.0
H1652 H 0.57628 0.7577 0.54019 0.0
C1653 C 0.58429 0.7499 0.44214 0.0
C1654 C 0.6019 0.74628 0.42423 0.0
C1655 C 0.62673 0.74275 0.43118 0.0
C1656 C 0.63413 0.74309 0.45548 0.0
C1657 C 0.61654 0.747 0.47265 0.0
C1658 C 0.5921 0.75026 0.46637 0.0
C1659 C 0.57708 0.75428 0.48849 0.0
C1660 C 0.57877 0.78519 0.48822 0.0
C1661 C 0.54419 0.72832 0.49078 0.0
C1662 C 0.59693 0.75276 0.50808 0.0
C1663 C 0.61956 0.74857 0.49854 0.0
C1664 C 0.64061 0.74631 0.51305 0.0
C1665 C 0.6383 0.74811 0.53809 0.0
C1666 C 0.6151 0.75213 0.54829 0.0
C1667 C 0.59433 0.75468 0.53299 0.0
H1668 H 0.42218 0.16149 0.20778 0.0
H1669 H 0.43116 0.23565 0.16405 0.0
H1670 H 0.42282 0.25906 0.20017 0.0
H1671 H 0.36682 0.15605 0.24921 0.0
H1672 H 0.38418 0.14945 0.27502 0.0
H1673 H 0.38916 0.13795 0.24549 0.0
H1674 H 0.44747 0.16953 0.25035 0.0
H1675 H 0.44265 0.18079 0.28002 0.0
H1676 H 0.46489 0.20907 0.25786 0.0
H1677 H 0.41019 0.27219 0.24145 0.0
H1678 H 0.40389 0.27899 0.28503 0.0
H1679 H 0.4102 0.19951 0.30157 0.0
C1680 C 0.42238 0.18267 0.20572 0.0
C1681 C 0.42565 0.19606 0.18286 0.0
C1682 C 0.42672 0.22416 0.18111 0.0
C1683 C 0.42244 0.23775 0.20161 0.0
C1684 C 0.4181 0.2233 0.22379 0.0
C1685 C 0.41897 0.19681 0.22601 0.0
C1686 C 0.41583 0.18674 0.25198 0.0
C1687 C 0.3873 0.15571 0.25562 0.0
C1688 C 0.44442 0.18654 0.26055 0.0
C1689 C 0.4127 0.21151 0.26408 0.0
C1690 C 0.41349 0.23213 0.24754 0.0
C1691 C 0.40988 0.25637 0.25456 0.0
C1692 C 0.40608 0.25993 0.27921 0.0
C1693 C 0.40659 0.23971 0.29631 0.0
C1694 C 0.4098 0.21522 0.28866 0.0
H1695 H 0.26465 0.45552 0.20575 0.0
H1696 H 0.21527 0.35915 0.19153 0.0
H1697 H 0.19751 0.34967 0.23387 0.0
H1698 H 0.28674 0.45008 0.26848 0.0
H1699 H 0.28255 0.48147 0.27815 0.0
H1700 H 0.29392 0.48 0.24765 0.0
H1701 H 0.24905 0.48533 0.23166 0.0
H1702 H 0.23736 0.48649 0.26203 0.0
H1703 H 0.21109 0.45861 0.24122 0.0
H1704 H 0.17979 0.35169 0.27576 0.0
H1705 H 0.16677 0.3646 0.31526 0.0
H1706 H 0.22985 0.45954 0.30195 0.0
C1707 C 0.25053 0.43238 0.21167 0.0
C1708 C 0.24116 0.40802 0.19555 0.0
C1709 C 0.22277 0.37805 0.2038 0.0
C1710 C 0.21259 0.37249 0.22773 0.0
C1711 C 0.22161 0.39716 0.24306 0.0
C1712 C 0.24062 0.42647 0.23544 0.0
C1713 C 0.24587 0.44916 0.25497 0.0
C1714 C 0.27926 0.46617 0.26278 0.0
C1715 C 0.23519 0.47117 0.24699 0.0
C1716 C 0.22588 0.42813 0.2745 0.0
C1717 C 0.21215 0.39823 0.26738 0.0
C1718 C 0.19085 0.37495 0.28174 0.0
C1719 C 0.18345 0.38251 0.30401 0.0
C1720 C 0.19747 0.41303 0.31157 0.0
C1721 C 0.21915 0.43599 0.29673 0.0
H1722 H 0.82274 0.17788 0.19927 0.0
H1723 H 0.86698 0.27484 0.20874 0.0
H1724 H 0.85129 0.26773 0.25153 0.0
H1725 H 0.75955 0.15989 0.23311 0.0
H1726 H 0.75541 0.12606 0.24682 0.0
H1727 H 0.77388 0.13832 0.21806 0.0
H1728 H 0.8216 0.13904 0.23481 0.0
H1729 H 0.80308 0.1262 0.26358 0.0
H1730 H 0.83938 0.16029 0.26175 0.0
H1731 H 0.82305 0.25029 0.29006 0.0
H1732 H 0.79009 0.22351 0.32463 0.0
H1733 H 0.76718 0.13757 0.29236 0.0
C1734 C 0.83018 0.19748 0.21075 0.0
C1735 C 0.84672 0.22692 0.20114 0.0
C1736 C 0.855 0.2522 0.21615 0.0
C1737 C 0.84603 0.24834 0.24036 0.0
C1738 C 0.82894 0.21902 0.24923 0.0
C1739 C 0.8216 0.19398 0.2351 0.0
C1740 C 0.80136 0.165 0.24875 0.0
C1741 C 0.77075 0.14622 0.23592 0.0
C1742 C 0.81732 0.14654 0.25245 0.0
C1743 C 0.79771 0.1777 0.27243 0.0
C1744 C 0.81375 0.20893 0.27222 0.0
C1745 C 0.81145 0.22588 0.29088 0.0
C1746 C 0.79285 0.21053 0.31053 0.0
C1747 C 0.77749 0.17867 0.31184 0.0
C1748 C 0.77961 0.16203 0.29231 0.0
H1749 H 0.60446 0.86493 0.19196 0.0
H1750 H 0.57056 0.78186 0.15119 0.0
H1751 H 0.57232 0.75537 0.18757 0.0
H1752 H 0.65418 0.85344 0.23238 0.0
H1753 H 0.64495 0.86878 0.25816 0.0
H1754 H 0.64368 0.882 0.22831 0.0
H1755 H 0.58799 0.86832 0.2353 0.0
H1756 H 0.5891 0.85508 0.26513 0.0
H1757 H 0.56043 0.83037 0.2441 0.0
H1758 H 0.57617 0.73748 0.22842 0.0
H1759 H 0.57914 0.72872 0.27204 0.0
H1760 H 0.60767 0.82244 0.28686 0.0
C1761 C 0.5978 0.84126 0.19064 0.0
C1762 C 0.58829 0.82561 0.16853 0.0
C1763 C 0.57897 0.79452 0.16767 0.0
C1764 C 0.57972 0.77923 0.18831 0.0
C1765 C 0.58944 0.79534 0.20978 0.0
C1766 C 0.59808 0.82559 0.21118 0.0
C1767 C 0.60568 0.8371 0.23682 0.0
C1768 C 0.63911 0.86179 0.23904 0.0
C1769 C 0.58453 0.84837 0.24586 0.0
C1770 C 0.59959 0.80847 0.2496 0.0
C1771 C 0.5906 0.78473 0.2336 0.0
C1772 C 0.58331 0.75587 0.24114 0.0
C1773 C 0.58505 0.7511 0.26578 0.0
C1774 C 0.59375 0.77502 0.28233 0.0
C1775 C 0.60117 0.804 0.27426 0.0
H1776 H 0.82114 0.63589 0.20659 0.0
H1777 H 0.73052 0.55936 0.21413 0.0
H1778 H 0.73832 0.55837 0.25798 0.0
H1779 H 0.85467 0.60792 0.24445 0.0
H1780 H 0.88204 0.64347 0.25763 0.0
H1781 H 0.86762 0.6426 0.2279 0.0
H1782 H 0.8503 0.68019 0.24127 0.0
H1783 H 0.86492 0.68137 0.27108 0.0
H1784 H 0.82596 0.6715 0.26716 0.0
H1785 H 0.75744 0.56117 0.29904 0.0
H1786 H 0.78739 0.56629 0.33528 0.0
H1787 H 0.86697 0.63978 0.30168 0.0
C1788 C 0.80272 0.6197 0.21775 0.0
C1789 C 0.77506 0.59806 0.2074 0.0
C1790 C 0.7517 0.57629 0.22205 0.0
C1791 C 0.75589 0.57567 0.24689 0.0
C1792 C 0.78371 0.59679 0.25663 0.0
C1793 C 0.80681 0.61839 0.24258 0.0
C1794 C 0.83572 0.63574 0.25706 0.0
C1795 C 0.86152 0.6322 0.2461 0.0
C1796 C 0.84475 0.66919 0.25927 0.0
C1797 C 0.82552 0.61973 0.28111 0.0
C1798 C 0.79524 0.59783 0.28053 0.0
C1799 C 0.78098 0.57867 0.29993 0.0
C1800 C 0.79817 0.5818 0.32045 0.0
C1801 C 0.82925 0.60387 0.32142 0.0
C1802 C 0.84308 0.62314 0.30153 0.0
H1803 H 0.16859 0.7405 0.20009 0.0
H1804 H 0.16103 0.81514 0.17094 0.0
H1805 H 0.1878 0.84619 0.20642 0.0
H1806 H 0.15508 0.75183 0.26157 0.0
H1807 H 0.18149 0.74171 0.27392 0.0
H1808 H 0.16302 0.7258 0.24566 0.0
H1809 H 0.21529 0.74573 0.22517 0.0
H1810 H 0.23389 0.76177 0.25339 0.0
H1811 H 0.24301 0.78536 0.22703 0.0
H1812 H 0.21391 0.86856 0.24516 0.0
H1813 H 0.23683 0.88067 0.28567 0.0
H1814 H 0.22697 0.79131 0.2902 0.0
C1815 C 0.17282 0.76345 0.20121 0.0
C1816 C 0.16372 0.77593 0.18257 0.0
C1817 C 0.16888 0.8057 0.18474 0.0
C1818 C 0.18385 0.82339 0.20485 0.0
C1819 C 0.1931 0.81074 0.22275 0.0
C1820 C 0.18772 0.78143 0.22125 0.0
C1821 C 0.19921 0.77309 0.24344 0.0
C1822 C 0.17314 0.74654 0.25694 0.0
C1823 C 0.22435 0.76608 0.23686 0.0
C1824 C 0.21163 0.80219 0.25766 0.0
C1825 C 0.20797 0.82362 0.24534 0.0
C1826 C 0.21704 0.85204 0.25499 0.0
C1827 C 0.23002 0.85869 0.27801 0.0
C1828 C 0.23378 0.83699 0.29107 0.0
C1829 C 0.22462 0.80847 0.28061 0.0
H1830 H 0.61411 0.80652 0.68393 0.0
H1831 H 0.62816 0.73145 0.69986 0.0
H1832 H 0.62972 0.7425 0.74352 0.0
H1833 H 0.6625 0.85665 0.73477 0.0
H1834 H 0.63716 0.87119 0.73933 0.0
H1835 H 0.64221 0.86023 0.70957 0.0
H1836 H 0.5843 0.82437 0.70617 0.0
H1837 H 0.57903 0.83482 0.73593 0.0
H1838 H 0.56504 0.79563 0.72876 0.0
H1839 H 0.61892 0.75517 0.78474 0.0
H1840 H 0.60265 0.77236 0.8206 0.0
H1841 H 0.60006 0.84182 0.77777 0.0
C1842 C 0.61842 0.79302 0.69665 0.0
C1843 C 0.62102 0.76821 0.68882 0.0
C1844 C 0.62644 0.75076 0.7057 0.0
C1845 C 0.62731 0.75686 0.73045 0.0
C1846 C 0.62356 0.78094 0.7377 0.0
C1847 C 0.62 0.79923 0.72123 0.0
C1848 C 0.61431 0.82232 0.73355 0.0
C1849 C 0.64062 0.85451 0.72904 0.0
C1850 C 0.58387 0.81905 0.72563 0.0
C1851 C 0.61345 0.81309 0.75952 0.0
C1852 C 0.61897 0.78927 0.7616 0.0
C1853 C 0.61556 0.77442 0.78346 0.0
C1854 C 0.60618 0.78415 0.80362 0.0
C1855 C 0.60082 0.80863 0.80171 0.0
C1856 C 0.60497 0.82359 0.77959 0.0
H1857 H 0.74218 0.57222 0.78898 0.0
H1858 H 0.80562 0.66313 0.8128 0.0
H1859 H 0.83078 0.67423 0.77273 0.0
H1860 H 0.7925 0.55863 0.75983 0.0
H1861 H 0.76784 0.53707 0.73538 0.0
H1862 H 0.75203 0.5383 0.76401 0.0
H1863 H 0.71952 0.55796 0.74346 0.0
H1864 H 0.73491 0.55636 0.71461 0.0
H1865 H 0.7376 0.59116 0.72469 0.0
H1866 H 0.85317 0.67195 0.73212 0.0
H1867 H 0.8688 0.6578 0.69429 0.0
H1868 H 0.78936 0.56841 0.69825 0.0
C1869 C 0.76089 0.59474 0.78556 0.0
C1870 C 0.77209 0.6169 0.80377 0.0
C1871 C 0.79662 0.64605 0.79882 0.0
C1872 C 0.81102 0.65244 0.77621 0.0
C1873 C 0.80006 0.62955 0.75885 0.0
C1874 C 0.77515 0.60146 0.76323 0.0
C1875 C 0.76897 0.57983 0.74264 0.0
C1876 C 0.77045 0.55183 0.75097 0.0
C1877 C 0.73844 0.57081 0.73064 0.0
C1878 C 0.79506 0.59964 0.72631 0.0
C1879 C 0.81265 0.62834 0.73571 0.0
C1880 C 0.83923 0.64973 0.72441 0.0
C1881 C 0.848 0.64144 0.70302 0.0
C1882 C 0.83028 0.61199 0.69338 0.0
C1883 C 0.80333 0.59114 0.70508 0.0
H1884 H 0.24309 0.79138 0.70274 0.0
H1885 H 0.21472 0.85675 0.68734 0.0
H1886 H 0.18585 0.84334 0.72562 0.0
H1887 H 0.17444 0.73495 0.73043 0.0
H1888 H 0.19377 0.72531 0.75285 0.0
H1889 H 0.21107 0.7394 0.72388 0.0
H1890 H 0.25874 0.78226 0.7448 0.0
H1891 H 0.24166 0.7682 0.7738 0.0
H1892 H 0.25462 0.80694 0.76575 0.0
H1893 H 0.15938 0.82169 0.76562 0.0
H1894 H 0.14183 0.79724 0.80562 0.0
H1895 H 0.19028 0.74858 0.79445 0.0
C1896 C 0.2307 0.80279 0.70736 0.0
C1897 C 0.23092 0.82495 0.69217 0.0
C1898 C 0.21483 0.83974 0.69891 0.0
C1899 C 0.19827 0.83216 0.72048 0.0
C1900 C 0.19841 0.81004 0.73507 0.0
C1901 C 0.21454 0.79588 0.72888 0.0
C1902 C 0.21236 0.77397 0.74805 0.0
C1903 C 0.19699 0.74149 0.73821 0.0
C1904 C 0.2437 0.78342 0.75873 0.0
C1905 C 0.19246 0.77797 0.76605 0.0
C1906 C 0.18426 0.79853 0.75821 0.0
C1907 C 0.16573 0.80561 0.77198 0.0
C1908 C 0.15579 0.79159 0.79454 0.0
C1909 C 0.16488 0.77126 0.80302 0.0
C1910 C 0.18317 0.76425 0.78846 0.0
H1911 H 0.39667 0.13499 0.79267 0.0
H1912 H 0.42865 0.21746 0.83371 0.0
H1913 H 0.42822 0.24441 0.79741 0.0
H1914 H 0.44579 0.17316 0.74242 0.0
H1915 H 0.4194 0.14857 0.71999 0.0
H1916 H 0.4186 0.13458 0.74992 0.0
H1917 H 0.36188 0.11859 0.7536 0.0
H1918 H 0.36265 0.13285 0.72374 0.0
H1919 H 0.35037 0.14632 0.74893 0.0
H1920 H 0.42282 0.26223 0.75709 0.0
H1921 H 0.42327 0.27282 0.7135 0.0
H1922 H 0.40258 0.18155 0.69696 0.0
C1923 C 0.40325 0.15863 0.79403 0.0
C1924 C 0.41098 0.17376 0.81649 0.0
C1925 C 0.42084 0.20496 0.81721 0.0
C1926 C 0.4209 0.22057 0.79653 0.0
C1927 C 0.41218 0.20487 0.77488 0.0
C1928 C 0.40447 0.17487 0.77325 0.0
C1929 C 0.39942 0.16444 0.7472 0.0
C1930 C 0.42216 0.15462 0.73943 0.0
C1931 C 0.36663 0.13904 0.74314 0.0
C1932 C 0.40556 0.19332 0.73464 0.0
C1933 C 0.41206 0.21609 0.75106 0.0
C1934 C 0.41795 0.24469 0.74398 0.0
C1935 C 0.41797 0.25046 0.71931 0.0
C1936 C 0.41289 0.22794 0.7022 0.0
C1937 C 0.40642 0.199 0.7099 0.0
H1938 H 0.24556 0.42627 0.77368 0.0
H1939 H 0.18054 0.33928 0.80357 0.0
H1940 H 0.15786 0.32208 0.76307 0.0
H1941 H 0.19871 0.43537 0.73595 0.0
H1942 H 0.22535 0.45244 0.71159 0.0
H1943 H 0.23883 0.45564 0.74192 0.0
H1944 H 0.27125 0.43127 0.72948 0.0
H1945 H 0.25845 0.42978 0.69908 0.0
H1946 H 0.25345 0.3959 0.71331 0.0
H1947 H 0.13661 0.3188 0.7217 0.0
H1948 H 0.12023 0.32859 0.68239 0.0
H1949 H 0.20205 0.41593 0.67881 0.0
C1950 C 0.22689 0.4034 0.77156 0.0
C1951 C 0.21452 0.38409 0.79153 0.0
C1952 C 0.19027 0.35429 0.78829 0.0
C1953 C 0.17738 0.34435 0.7654 0.0
C1954 C 0.18973 0.36426 0.74604 0.0
C1955 C 0.21432 0.39298 0.74886 0.0
C1956 C 0.22215 0.41082 0.72573 0.0
C1957 C 0.22117 0.44027 0.72901 0.0
C1958 C 0.25315 0.41727 0.71634 0.0
C1959 C 0.19678 0.3885 0.70979 0.0
C1960 C 0.17852 0.36157 0.72169 0.0
C1961 C 0.15125 0.33929 0.71186 0.0
C1962 C 0.14208 0.34504 0.68962 0.0
C1963 C 0.1603 0.37267 0.67751 0.0
C1964 C 0.18833 0.39417 0.68736 0.0
H1965 H 0.84238 0.26506 0.78637 0.0
H1966 H 0.82192 0.18367 0.82533 0.0
H1967 H 0.79807 0.15311 0.78864 0.0
H1968 H 0.77333 0.23289 0.75232 0.0
H1969 H 0.7911 0.25437 0.72548 0.0
H1970 H 0.80697 0.26948 0.75463 0.0
H1971 H 0.85851 0.27604 0.7409 0.0
H1972 H 0.84275 0.26091 0.71172 0.0
H1973 H 0.86009 0.24393 0.72923 0.0
H1974 H 0.77777 0.13203 0.74711 0.0
H1975 H 0.75942 0.12148 0.70497 0.0
H1976 H 0.79183 0.21687 0.69399 0.0
C1977 C 0.83292 0.2408 0.78705 0.0
C1978 C 0.83339 0.2264 0.80856 0.0
C1979 C 0.82084 0.19474 0.80905 0.0
C1980 C 0.80764 0.17737 0.78828 0.0
C1981 C 0.80719 0.19219 0.7673 0.0
C1982 C 0.81933 0.22319 0.7666 0.0
C1983 C 0.81521 0.23355 0.74207 0.0
C1984 C 0.79547 0.24844 0.74373 0.0
C1985 C 0.84597 0.25486 0.73029 0.0
C1986 C 0.79891 0.20358 0.72903 0.0
C1987 C 0.79476 0.18001 0.74377 0.0
C1988 C 0.78075 0.1503 0.73545 0.0
C1989 C 0.7705 0.14453 0.7115 0.0
C1990 C 0.77396 0.16834 0.69632 0.0
C1991 C 0.78846 0.19818 0.70527 0.0
H1992 H 0.55141 0.0811 0.11079 0.0
H1993 H 0.48556 0.07034 0.16503 0.0
H1994 H 0.4739 0.01776 0.17216 0.0
H1995 H 0.50766 0.0098 0.08497 0.0
H1996 H 0.53889 0.00384 0.07839 0.0
H1997 H 0.54499 0.04162 0.08001 0.0
H1998 H 0.5866 0.05515 0.1123 0.0
H1999 H 0.5804 0.01723 0.11081 0.0
H2000 H 0.5777 0.03266 0.1393 0.0
H2001 H 0.4673 0.96606 0.17162 0.0
H2002 H 0.462 0.91689 0.16066 0.0
H2003 H 0.53036 0.96047 0.10515 0.0
C2004 C 0.535 0.06778 0.12451 0.0
C2005 C 0.51955 0.07964 0.1376 0.0
C2006 C 0.49761 0.0615 0.15492 0.0
C2007 C 0.49107 0.03181 0.1592 0.0
C2008 C 0.50661 0.02068 0.1459 0.0
C2009 C 0.52795 0.03801 0.12876 0.0
C2010 C 0.53905 0.01968 0.11516 0.0
C2011 C 0.53222 0.01867 0.08804 0.0
C2012 C 0.57295 0.03192 0.11967 0.0
C2013 C 0.51999 0.9891 0.12688 0.0
C2014 C 0.50196 0.99038 0.14493 0.0
C2015 C 0.48139 0.96479 0.1576 0.0
C2016 C 0.47845 0.93697 0.15117 0.0
C2017 C 0.49561 0.93485 0.13194 0.0
C2018 C 0.51726 0.96144 0.12014 0.0
H2019 H 0.55239 0.49447 0.15021 0.0
H2020 H 0.60275 0.55548 0.09192 0.0
H2021 H 0.55671 0.55695 0.07963 0.0
H2022 H 0.48276 0.45144 0.11921 0.0
H2023 H 0.45927 0.44761 0.14476 0.0
H2024 H 0.49619 0.45195 0.14935 0.0
H2025 H 0.51149 0.49862 0.1766 0.0
H2026 H 0.47438 0.49399 0.17255 0.0
H2027 H 0.50752 0.52955 0.16536 0.0
H2028 H 0.50432 0.54895 0.07244 0.0
H2029 H 0.45187 0.53919 0.07455 0.0
H2030 H 0.43635 0.48499 0.13883 0.0
C2031 C 0.55374 0.50845 0.13505 0.0
C2032 C 0.58096 0.52493 0.12195 0.0
C2033 C 0.5821 0.54298 0.10224 0.0
C2034 C 0.55603 0.54366 0.09504 0.0
C2035 C 0.52924 0.52635 0.10791 0.0
C2036 C 0.5281 0.50959 0.12781 0.0
C2037 C 0.49677 0.49361 0.13894 0.0
C2038 C 0.48294 0.45911 0.138 0.0
C2039 C 0.4976 0.50461 0.1649 0.0
C2040 C 0.48031 0.50392 0.12217 0.0
C2041 C 0.49936 0.52245 0.10421 0.0
C2042 C 0.48933 0.53473 0.08657 0.0
C2043 C 0.45948 0.52899 0.0879 0.0
C2044 C 0.44003 0.5115 0.10696 0.0
C2045 C 0.45046 0.49813 0.1239 0.0
H2046 H 0.92764 0.44442 0.127 0.0
H2047 H 0.94575 0.38645 0.08122 0.0
H2048 H 0.99627 0.43018 0.07128 0.0
H2049 H 0.96447 0.51175 0.09006 0.0
H2050 H 0.9784 0.53632 0.11593 0.0
H2051 H 0.94354 0.50079 0.11796 0.0
H2052 H 0.96473 0.48546 0.15444 0.0
H2053 H 0.99957 0.5209 0.15258 0.0
H2054 H 1.00017 0.48595 0.15145 0.0
H2055 H 0.04589 0.4812 0.06783 0.0
H2056 H 0.08958 0.53311 0.0723 0.0
H2057 H 0.03668 0.55469 0.12125 0.0
C2058 C 0.94185 0.44095 0.11439 0.0
C2059 C 0.93263 0.41226 0.10447 0.0
C2060 C 0.95242 0.40841 0.08885 0.0
C2061 C 0.981 0.43309 0.08306 0.0
C2062 C 0.98924 0.46121 0.09314 0.0
C2063 C 0.97011 0.46506 0.10852 0.0
C2064 C 0.98438 0.49682 0.11814 0.0
C2065 C 0.96664 0.51233 0.11002 0.0
C2066 C 0.9874 0.49729 0.14578 0.0
C2067 C 0.01478 0.51044 0.10595 0.0
C2068 C 0.01732 0.48983 0.09144 0.0
C2069 C 0.04402 0.49753 0.07904 0.0
C2070 C 0.06872 0.52697 0.08176 0.0
C2071 C 0.06646 0.54817 0.09684 0.0
C2072 C 0.039 0.53953 0.10894 0.0
H2073 H 0.07303 0.4965 0.39812 0.0
H2074 H 0.12399 0.57571 0.35316 0.0
H2075 H 0.08206 0.58637 0.35475 0.0
H2076 H 1.00073 0.4737 0.37063 0.0
H2077 H 0.97984 0.46063 0.39843 0.0
H2078 H 0.01447 0.45983 0.39453 0.0
H2079 H 0.03586 0.49168 0.43344 0.0
H2080 H 1.00142 0.49294 0.43723 0.0
H2081 H 0.0373 0.52756 0.43592 0.0
H2082 H 0.0348 0.58847 0.36049 0.0
H2083 H 0.98254 0.57824 0.36637 0.0
H2084 H 0.96192 0.49819 0.40788 0.0
C2085 C 0.07522 0.51596 0.38856 0.0
C2086 C 0.10199 0.53558 0.37593 0.0
C2087 C 0.10396 0.56077 0.36347 0.0
C2088 C 0.08028 0.56704 0.36423 0.0
C2089 C 0.05457 0.54784 0.37738 0.0
C2090 C 0.05164 0.5226 0.38908 0.0
C2091 C 0.02093 0.505 0.40103 0.0
C2092 C 1.00293 0.4729 0.39052 0.0
C2093 C 0.02408 0.50426 0.42854 0.0
C2094 C 0.00709 0.52413 0.39392 0.0
C2095 C 0.02701 0.54891 0.38051 0.0
C2096 C 0.01898 0.56923 0.3711 0.0
C2097 C 0.98934 0.56342 0.37473 0.0
C2098 C 0.96815 0.53745 0.38756 0.0
C2099 C 0.97757 0.51817 0.39788 0.0
H2100 H 0.57391 0.0358 0.37248 0.0
H2101 H 0.55189 0.07827 0.43056 0.0
H2102 H 0.50264 0.03175 0.43603 0.0
H2103 H 0.50507 1.00129 0.34593 0.0
H2104 H 0.50375 0.96652 0.33773 0.0
H2105 H 0.53966 1.00051 0.34126 0.0
H2106 H 0.55631 0.97446 0.37283 0.0
H2107 H 0.5207 0.94 0.36896 0.0
H2108 H 0.53254 0.95619 0.39857 0.0
H2109 H 0.45257 0.98525 0.42986 0.0
H2110 H 0.40717 0.93838 0.41599 0.0
H2111 H 0.46192 0.92508 0.36302 0.0
C2112 C 0.55927 0.03471 0.38706 0.0
C2113 C 0.56664 0.06046 0.40118 0.0
C2114 C 0.54659 0.05865 0.41963 0.0
C2115 C 0.51858 0.03237 0.42285 0.0
C2116 C 0.51116 0.00791 0.40772 0.0
C2117 C 0.53118 0.0085 0.39057 0.0
C2118 C 0.51659 0.9801 0.37533 0.0
C2119 C 0.51625 0.98758 0.34848 0.0
C2120 C 0.53247 0.96158 0.37916 0.0
C2121 C 0.48494 0.9642 0.38586 0.0
C2122 C 0.48229 0.98054 0.4046 0.0
C2123 C 0.45451 0.97181 0.41564 0.0
C2124 C 0.42884 0.94541 0.40754 0.0
C2125 C 0.43125 0.9281 0.38872 0.0
C2126 C 0.45967 0.93764 0.37783 0.0
H2127 H 0.51109 0.46285 0.39629 0.0
H2128 H 0.45558 0.4156 0.33425 0.0
H2129 H 0.45113 0.46025 0.32437 0.0
H2130 H 0.47312 0.50542 0.41182 0.0
H2131 H 0.50805 0.53866 0.42014 0.0
H2132 H 0.50404 0.5018 0.4237 0.0
H2133 H 0.55208 0.51874 0.39767 0.0
H2134 H 0.55595 0.55547 0.39365 0.0
H2135 H 0.55364 0.53313 0.36772 0.0
H2136 H 0.45557 0.51095 0.31959 0.0
H2137 H 0.46566 0.56356 0.32199 0.0
H2138 H 0.52035 0.57873 0.38581 0.0
C2139 C 0.49772 0.46175 0.38077 0.0
C2140 C 0.4836 0.43564 0.3661 0.0
C2141 C 0.46614 0.43508 0.34604 0.0
C2142 C 0.46374 0.46046 0.34013 0.0
C2143 C 0.47894 0.48618 0.35443 0.0
C2144 C 0.49532 0.48694 0.37449 0.0
C2145 C 0.51042 0.51776 0.38635 0.0
C2146 C 0.49817 0.51579 0.41202 0.0
C2147 C 0.54508 0.53211 0.38633 0.0
C2148 C 0.50035 0.5344 0.3696 0.0
C2149 C 0.4821 0.51569 0.35137 0.0
C2150 C 0.4698 0.52579 0.33377 0.0
C2151 C 0.47578 0.55563 0.33516 0.0
C2152 C 0.49407 0.57495 0.35385 0.0
C2153 C 0.50676 0.56437 0.37114 0.0
H2154 H 0.51723 0.04435 0.88869 0.0
H2155 H 0.43749 0.0309 0.84996 0.0
H2156 H 0.42538 0.97901 0.83954 0.0
H2157 H 0.53884 0.00553 0.84711 0.0
H2158 H 0.55151 0.98927 0.86991 0.0
H2159 H 0.55309 0.02476 0.87544 0.0
H2160 H 0.5209 0.00292 0.91415 0.0
H2161 H 0.51953 0.96747 0.90891 0.0
H2162 H 0.4849 0.96846 0.91234 0.0
H2163 H 0.42369 0.93003 0.83154 0.0
H2164 H 0.42973 0.88515 0.82932 0.0
H2165 H 0.5108 0.93063 0.87324 0.0
C2166 C 0.49722 0.0305 0.878 0.0
C2167 C 0.47835 0.04166 0.87001 0.0
C2168 C 0.45209 0.02269 0.85643 0.0
C2169 C 0.44519 0.99332 0.85026 0.0
C2170 C 0.46479 0.98338 0.85787 0.0
C2171 C 0.49009 1.00127 0.87164 0.0
C2172 C 0.50749 0.98524 0.87749 0.0
C2173 C 0.53963 0.00222 0.86685 0.0
C2174 C 0.50823 0.98075 0.90484 0.0
C2175 C 0.48812 0.95552 0.8647 0.0
C2176 C 0.46367 0.955 0.85345 0.0
C2177 C 0.44258 0.93007 0.84043 0.0
C2178 C 0.4462 0.90471 0.83932 0.0
C2179 C 0.47059 0.90438 0.85131 0.0
C2180 C 0.49208 0.93035 0.86381 0.0
H2181 H 0.45052 0.52431 0.8672 0.0
H2182 H 0.40935 0.46865 0.80398 0.0
H2183 H 0.45707 0.46902 0.79538 0.0
H2184 H 0.52598 0.57054 0.84178 0.0
H2185 H 0.54493 0.57192 0.86956 0.0
H2186 H 0.50799 0.56845 0.87025 0.0
H2187 H 0.48754 0.51991 0.89616 0.0
H2188 H 0.52447 0.5235 0.89581 0.0
H2189 H 0.49205 0.48904 0.88555 0.0
H2190 H 0.50818 0.47391 0.79442 0.0
H2191 H 0.55804 0.4791 0.80321 0.0
H2192 H 0.56659 0.53223 0.86668 0.0
C2193 C 0.45166 0.51239 0.85145 0.0
C2194 C 0.42627 0.49643 0.83623 0.0
C2195 C 0.42842 0.48071 0.81601 0.0
C2196 C 0.45552 0.4811 0.81084 0.0
C2197 C 0.48021 0.49737 0.82604 0.0
C2198 C 0.47849 0.51252 0.84605 0.0
C2199 C 0.50782 0.52691 0.8602 0.0
C2200 C 0.52255 0.56151 0.86045 0.0
C2201 C 0.50265 0.51406 0.88595 0.0
C2202 C 0.52616 0.51698 0.84526 0.0
C2203 C 0.50989 0.5003 0.82545 0.0
C2204 C 0.52126 0.4872 0.80969 0.0
C2205 C 0.54957 0.49035 0.81475 0.0
C2206 C 0.56611 0.50642 0.83537 0.0
C2207 C 0.55463 0.52054 0.85048 0.0
H2208 H 0.04888 0.57338 0.85124 0.0
H2209 H 0.09405 0.55712 0.9107 0.0
H2210 H 0.04853 0.50727 0.91764 0.0
H2211 H 0.97253 0.53552 0.8778 0.0
H2212 H 0.95454 0.52045 0.84919 0.0
H2213 H 0.98979 0.55571 0.85036 0.0
H2214 H 0.01349 0.53416 0.82064 0.0
H2215 H 0.97847 0.49872 0.81964 0.0
H2216 H 0.01303 0.49959 0.82804 0.0
H2217 H 0.99888 0.45781 0.91653 0.0
H2218 H 0.94792 0.41408 0.90897 0.0
H2219 H 0.93643 0.46237 0.84928 0.0
C2220 C 0.04887 0.55966 0.86612 0.0
C2221 C 0.07489 0.56915 0.88054 0.0
C2222 C 0.07431 0.55022 0.89945 0.0
C2223 C 0.04859 0.5219 0.90351 0.0
C2224 C 0.02362 0.51281 0.88851 0.0
C2225 C 0.02346 0.53125 0.87033 0.0
C2226 C 0.99422 0.51568 0.85614 0.0
C2227 C 0.97674 0.53286 0.85852 0.0
C2228 C 1.00018 0.51181 0.82954 0.0
C2229 C 0.9781 0.48556 0.86903 0.0
C2230 C 0.99533 0.48431 0.88769 0.0
C2231 C 0.98512 0.45859 0.90201 0.0
C2232 C 0.95627 0.43373 0.89743 0.0
C2233 C 0.93799 0.43474 0.87863 0.0
C2234 C 0.94949 0.46096 0.86409 0.0
H2235 H 0.95095 0.52277 0.6315 0.0
H2236 H 0.90743 0.45362 0.68629 0.0
H2237 H 0.95192 0.44668 0.68745 0.0
H2238 H 0.98289 0.48752 0.59904 0.0
H2239 H 0.01805 0.52128 0.59211 0.0
H2240 H 0.98436 0.52345 0.59724 0.0
H2241 H 0.01138 0.56312 0.63096 0.0
H2242 H 0.0454 0.56155 0.62563 0.0
H2243 H 0.02922 0.55471 0.65543 0.0
H2244 H 0.99848 0.44355 0.67981 0.0
H2245 H 0.04724 0.44861 0.66698 0.0
H2246 H 0.06048 0.51975 0.61726 0.0
C2247 C 0.95124 0.50684 0.64421 0.0
C2248 C 0.92584 0.48864 0.65873 0.0
C2249 C 0.92669 0.4676 0.67488 0.0
C2250 C 0.95181 0.46351 0.67569 0.0
C2251 C 0.97599 0.48087 0.66041 0.0
C2252 C 0.97622 0.5025 0.64528 0.0
C2253 C 0.00462 0.51728 0.63004 0.0
C2254 C 0.99701 0.51205 0.60301 0.0
C2255 C 0.02379 0.55117 0.63587 0.0
C2256 C 0.0199 0.50007 0.63862 0.0
C2257 C 1.00303 0.4792 0.65614 0.0
C2258 C 0.01209 0.46002 0.66627 0.0
C2259 C 0.03958 0.46279 0.65869 0.0
C2260 C 0.05756 0.48457 0.6412 0.0
C2261 C 0.04731 0.50312 0.63087 0.0
H2262 H 0.53717 0.05883 0.61163 0.0
H2263 H 0.58328 0.05093 0.67457 0.0
H2264 H 0.53919 1.00107 0.68348 0.0
H2265 H 0.46039 0.02058 0.63803 0.0
H2266 H 0.44262 0.00185 0.61024 0.0
H2267 H 0.47689 0.03808 0.60957 0.0
H2268 H 0.50264 0.01559 0.58302 0.0
H2269 H 0.46842 0.97943 0.58354 0.0
H2270 H 0.50358 0.98262 0.59334 0.0
H2271 H 0.49223 0.95139 0.68446 0.0
H2272 H 0.4456 0.90309 0.6762 0.0
H2273 H 0.42856 0.94231 0.61308 0.0
C2274 C 0.53778 0.04671 0.62743 0.0
C2275 C 0.56378 0.05868 0.64232 0.0
C2276 C 0.56387 0.04201 0.66268 0.0
C2277 C 0.53879 0.01382 0.66806 0.0
C2278 C 0.51365 0.00261 0.653 0.0
C2279 C 0.51286 0.01841 0.63307 0.0
C2280 C 0.48359 1.00024 0.61911 0.0
C2281 C 0.46477 0.01615 0.61925 0.0
C2282 C 0.48995 0.9941 0.59322 0.0
C2283 C 0.46848 0.97148 0.63398 0.0
C2284 C 0.48612 0.97362 0.65362 0.0
C2285 C 0.47802 0.94953 0.66933 0.0
C2286 C 0.45156 0.92225 0.66452 0.0
C2287 C 0.43353 0.91924 0.64418 0.0
C2288 C 0.44172 0.94435 0.62901 0.0
H2289 H 0.54837 0.46463 0.6201 0.0
H2290 H 0.50852 0.43228 0.6906 0.0
H2291 H 0.50939 0.48036 0.69812 0.0
H2292 H 0.59675 0.54497 0.63641 0.0
H2293 H 0.58981 0.55837 0.60843 0.0
H2294 H 0.58912 0.52277 0.60935 0.0
H2295 H 0.5349 0.49568 0.59144 0.0
H2296 H 0.53571 0.53124 0.59018 0.0
H2297 H 0.50563 0.49982 0.6061 0.0
H2298 H 0.51226 0.53015 0.69748 0.0
H2299 H 0.51017 0.57587 0.68664 0.0
H2300 H 0.54664 0.57628 0.616 0.0
C2301 C 0.54009 0.4679 0.63717 0.0
C2302 C 0.52837 0.44485 0.65482 0.0
C2303 C 0.51733 0.44961 0.67681 0.0
C2304 C 0.51809 0.47695 0.68134 0.0
C2305 C 0.52988 0.49928 0.66364 0.0
C2306 C 0.54032 0.49499 0.64186 0.0
C2307 C 0.54918 0.52161 0.6251 0.0
C2308 C 0.58324 0.53788 0.6195 0.0
C2309 C 0.53022 0.51148 0.60184 0.0
C2310 C 0.54125 0.54112 0.64064 0.0
C2311 C 0.53088 0.52806 0.66303 0.0
C2312 C 0.5206 0.54076 0.68013 0.0
C2313 C 0.51962 0.56677 0.67388 0.0
C2314 C 0.52857 0.57966 0.65064 0.0
C2315 C 0.54042 0.56725 0.63408 0.0
H2316 H 0.72764 0.2324 0.17634 0.0
H2317 H 0.75827 0.27373 0.1061 0.0
H2318 H 0.70679 0.26428 0.09713 0.0
H2319 H 0.66473 0.17315 0.15671 0.0
H2320 H 0.64088 0.169 0.18209 0.0
H2321 H 0.68108 0.18686 0.18605 0.0
H2322 H 0.68257 0.23471 0.2033 0.0
H2323 H 0.64208 0.2168 0.19977 0.0
H2324 H 0.66635 0.25315 0.18624 0.0
H2325 H 0.65034 0.24102 0.09269 0.0
H2326 H 0.59496 0.20567 0.09303 0.0
H2327 H 0.60155 0.17777 0.16539 0.0
C2328 C 0.72393 0.24077 0.15951 0.0
C2329 C 0.747 0.25399 0.14198 0.0
C2330 C 0.74095 0.26375 0.11986 0.0
C2331 C 0.71177 0.25853 0.11465 0.0
C2332 C 0.68899 0.24365 0.13179 0.0
C2333 C 0.6949 0.23519 0.15391 0.0
C2334 C 0.66603 0.21512 0.16761 0.0
C2335 C 0.66302 0.18423 0.17342 0.0
C2336 C 0.66415 0.2309 0.19059 0.0
C2337 C 0.64285 0.21217 0.14924 0.0
C2338 C 0.6564 0.22944 0.12896 0.0
C2339 C 0.63948 0.22799 0.10871 0.0
C2340 C 0.60809 0.2079 0.10903 0.0
C2341 C 0.59419 0.18919 0.12927 0.0
C2342 C 0.61172 0.19205 0.14979 0.0
H2343 H 0.41103 0.58405 0.08067 0.0
H2344 H 0.36952 0.56659 0.15129 0.0
H2345 H 0.39068 0.62142 0.1574 0.0
H2346 H 0.47739 0.63673 0.09899 0.0
H2347 H 0.48837 0.66093 0.07288 0.0
H2348 H 0.46141 0.62149 0.06984 0.0
H2349 H 0.42224 0.6338 0.05127 0.0
H2350 H 0.44941 0.67355 0.05369 0.0
H2351 H 0.41243 0.65856 0.06705 0.0
H2352 H 0.42612 0.67777 0.15973 0.0
H2353 H 0.47169 0.72881 0.15806 0.0
H2354 H 0.49369 0.70813 0.08778 0.0
C2355 C 0.40522 0.59177 0.09693 0.0
C2356 C 0.38864 0.57119 0.11546 0.0
C2357 C 0.38177 0.58195 0.13668 0.0
C2358 C 0.39387 0.61313 0.14034 0.0
C2359 C 0.41257 0.63308 0.12254 0.0
C2360 C 0.41785 0.62268 0.10106 0.0
C2361 C 0.44317 0.64793 0.08686 0.0
C2362 C 0.46909 0.64136 0.08188 0.0
C2363 C 0.43108 0.65381 0.06332 0.0
C2364 C 0.45273 0.67378 0.10434 0.0
C2365 C 0.43421 0.6652 0.12444 0.0
C2366 C 0.44034 0.68486 0.14385 0.0
C2367 C 0.46627 0.71373 0.14281 0.0
C2368 C 0.48609 0.72215 0.12284 0.0
C2369 C 0.47881 0.70215 0.10324 0.0
H2370 H 0.81371 0.4911 0.17401 0.0
H2371 H 0.75022 0.46706 0.11482 0.0
H2372 H 0.75486 0.42197 0.10657 0.0
H2373 H 0.86297 0.47428 0.14443 0.0
H2374 H 0.87289 0.46018 0.17059 0.0
H2375 H 0.86063 0.48736 0.17411 0.0
H2376 H 0.81827 0.45092 0.20326 0.0
H2377 H 0.83033 0.42347 0.19963 0.0
H2378 H 0.79164 0.4131 0.19349 0.0
H2379 H 0.77144 0.38309 0.10164 0.0
H2380 H 0.80078 0.35639 0.09916 0.0
H2381 H 0.8533 0.40613 0.16126 0.0
C2382 C 0.80013 0.47594 0.15972 0.0
C2383 C 0.78137 0.48247 0.14521 0.0
C2384 C 0.76462 0.46244 0.12627 0.0
C2385 C 0.767 0.43667 0.12153 0.0
C2386 C 0.78617 0.43119 0.13592 0.0
C2387 C 0.80246 0.45034 0.15463 0.0
C2388 C 0.82403 0.44149 0.16573 0.0
C2389 C 0.85706 0.46735 0.16357 0.0
C2390 C 0.81555 0.43166 0.1921 0.0
C2391 C 0.81806 0.41494 0.1499 0.0
C2392 C 0.79576 0.40892 0.13305 0.0
C2393 C 0.78841 0.38714 0.1151 0.0
C2394 C 0.80497 0.37192 0.11388 0.0
C2395 C 0.82852 0.37867 0.13047 0.0
C2396 C 0.83456 0.39985 0.14899 0.0
H2397 H 0.27898 0.7966 0.13965 0.0
H2398 H 0.25843 0.75959 0.06727 0.0
H2399 H 0.30981 0.76662 0.06389 0.0
H2400 H 0.34886 0.85421 0.12723 0.0
H2401 H 0.36642 0.85372 0.15528 0.0
H2402 H 0.32638 0.8396 0.15418 0.0
H2403 H 0.31615 0.78819 0.17137 0.0
H2404 H 0.35634 0.80226 0.1727 0.0
H2405 H 0.33204 0.7679 0.15651 0.0
H2406 H 0.36584 0.78602 0.06567 0.0
H2407 H 0.4211 0.81649 0.07243 0.0
H2408 H 0.40482 0.84011 0.14374 0.0
C2409 C 0.28487 0.78893 0.12342 0.0
C2410 C 0.26462 0.77741 0.10378 0.0
C2411 C 0.27351 0.76835 0.08261 0.0
C2412 C 0.30265 0.77215 0.08056 0.0
C2413 C 0.32254 0.78478 0.0999 0.0
C2414 C 0.31388 0.79273 0.12105 0.0
C2415 C 0.34044 0.80931 0.138 0.0
C2416 C 0.34583 0.84108 0.144 0.0
C2417 C 0.33597 0.7908 0.16101 0.0
C2418 C 0.36567 0.81085 0.1226 0.0
C2419 C 0.35489 0.79605 0.10089 0.0
C2420 C 0.37447 0.79707 0.08284 0.0
C2421 C 0.40583 0.81435 0.08683 0.0
C2422 C 0.41722 0.83064 0.10859 0.0
C2423 C 0.39675 0.82787 0.12693 0.0
H2424 H 0.59239 0.44081 0.09873 0.0
H2425 H 0.63847 0.45513 0.16721 0.0
H2426 H 0.61571 0.39989 0.17209 0.0
H2427 H 0.52543 0.38577 0.11837 0.0
H2428 H 0.51395 0.3635 0.09117 0.0
H2429 H 0.54017 0.40334 0.08957 0.0
H2430 H 0.57919 0.39341 0.06756 0.0
H2431 H 0.55284 0.35335 0.06873 0.0
H2432 H 0.59043 0.36834 0.08086 0.0
H2433 H 0.58046 0.34338 0.173 0.0
H2434 H 0.53643 0.29161 0.1699 0.0
H2435 H 0.51133 0.31545 0.10219 0.0
C2436 C 0.59846 0.43233 0.11439 0.0
C2437 C 0.61719 0.45218 0.13257 0.0
C2438 C 0.62455 0.44033 0.15287 0.0
C2439 C 0.61162 0.40896 0.15581 0.0
C2440 C 0.59163 0.38991 0.13822 0.0
C2441 C 0.58538 0.40126 0.11774 0.0
C2442 C 0.55987 0.37661 0.10329 0.0
C2443 C 0.53331 0.38267 0.10046 0.0
C2444 C 0.57128 0.3727 0.07866 0.0
C2445 C 0.55159 0.34981 0.11943 0.0
C2446 C 0.57061 0.35763 0.13916 0.0
C2447 C 0.56581 0.3369 0.15739 0.0
C2448 C 0.54073 0.3076 0.15553 0.0
C2449 C 0.5205 0.29965 0.13584 0.0
C2450 C 0.52644 0.32091 0.11743 0.0
H2451 H 0.15202 0.57571 0.1494 0.0
H2452 H 0.20063 0.64225 0.09415 0.0
H2453 H 0.24285 0.63148 0.09704 0.0
H2454 H 0.22126 0.58404 0.18403 0.0
H2455 H 0.20191 0.54382 0.18907 0.0
H2456 H 0.18076 0.56342 0.18796 0.0
H2457 H 0.14665 0.52673 0.15458 0.0
H2458 H 0.16782 0.5074 0.15522 0.0
H2459 H 0.16382 0.52309 0.12731 0.0
H2460 H 0.27309 0.60482 0.09907 0.0
H2461 H 0.28839 0.56593 0.10028 0.0
H2462 H 0.21913 0.5163 0.1539 0.0
C2463 C 0.17236 0.5891 0.13891 0.0
C2464 C 0.17358 0.61012 0.1219 0.0
C2465 C 0.1998 0.62658 0.10768 0.0
C2466 C 0.22376 0.6205 0.1092 0.0
C2467 C 0.2211 0.59817 0.1252 0.0
C2468 C 0.19617 0.5831 0.14014 0.0
C2469 C 0.19598 0.5568 0.15278 0.0
C2470 C 0.20024 0.56237 0.18008 0.0
C2471 C 0.16687 0.52677 0.1471 0.0
C2472 C 0.22349 0.55803 0.14142 0.0
C2473 C 0.23824 0.58246 0.12606 0.0
C2474 C 0.2622 0.5861 0.11153 0.0
C2475 C 0.2707 0.56384 0.11229 0.0
C2476 C 0.25492 0.53807 0.12718 0.0
C2477 C 0.2318 0.53585 0.14248 0.0
H2478 H 0.89179 0.45505 0.34504 0.0
H2479 H 0.82727 0.45053 0.39816 0.0
H2480 H 0.79503 0.39584 0.39022 0.0
H2481 H 0.83634 0.39382 0.30372 0.0
H2482 H 0.86254 0.38047 0.29837 0.0
H2483 H 0.87651 0.42004 0.30393 0.0
H2484 H 0.90932 0.41885 0.33915 0.0
H2485 H 0.89548 0.37946 0.33374 0.0
H2486 H 0.8914 0.39192 0.36319 0.0
H2487 H 0.77496 0.34096 0.38193 0.0
H2488 H 0.76958 0.2908 0.37514 0.0
H2489 H 0.84829 0.33137 0.32835 0.0
C2490 C 0.87056 0.44266 0.35466 0.0
C2491 C 0.86202 0.4569 0.37226 0.0
C2492 C 0.83404 0.44006 0.3844 0.0
C2493 C 0.8156 0.40903 0.37997 0.0
C2494 C 0.82537 0.3954 0.36318 0.0
C2495 C 0.85214 0.4118 0.35058 0.0
C2496 C 0.85982 0.3915 0.33607 0.0
C2497 C 0.85872 0.39677 0.30891 0.0
C2498 C 0.89081 0.39568 0.3435 0.0
C2499 C 0.83413 0.36096 0.34354 0.0
C2500 C 0.81402 0.36364 0.35865 0.0
C2501 C 0.79016 0.33855 0.36971 0.0
C2502 C 0.78735 0.31015 0.36579 0.0
C2503 C 0.80857 0.30725 0.35123 0.0
C2504 C 0.83155 0.33286 0.33937 0.0
H2505 H 0.48154 0.78666 0.31456 0.0
H2506 H 0.46766 0.73733 0.38134 0.0
H2507 H 0.42468 0.74491 0.39119 0.0
H2508 H 0.47406 0.84268 0.33814 0.0
H2509 H 0.45526 0.8483 0.31285 0.0
H2510 H 0.47921 0.83239 0.30815 0.0
H2511 H 0.43494 0.7856 0.28756 0.0
H2512 H 0.41074 0.8015 0.29216 0.0
H2513 H 0.39946 0.76419 0.30324 0.0
H2514 H 0.3912 0.76713 0.39777 0.0
H2515 H 0.37087 0.80211 0.40037 0.0
H2516 H 0.40639 0.83671 0.32946 0.0
C2517 C 0.46875 0.77641 0.33082 0.0
C2518 C 0.47789 0.76132 0.34714 0.0
C2519 C 0.46098 0.74887 0.3685 0.0
C2520 C 0.43643 0.75296 0.37419 0.0
C2521 C 0.42891 0.76928 0.35821 0.0
C2522 C 0.44444 0.78053 0.3368 0.0
C2523 C 0.43516 0.80102 0.32441 0.0
C2524 C 0.46254 0.83296 0.3207 0.0
C2525 C 0.41911 0.78724 0.30042 0.0
C2526 C 0.41327 0.80099 0.34282 0.0
C2527 C 0.40936 0.782 0.36195 0.0
C2528 C 0.39326 0.78127 0.38255 0.0
C2529 C 0.38172 0.80108 0.3839 0.0
C2530 C 0.38641 0.8212 0.36478 0.0
C2531 C 0.40157 0.82054 0.3438 0.0
H2532 H 0.70046 0.51528 0.35979 0.0
H2533 H 0.71879 0.47858 0.42396 0.0
H2534 H 0.66605 0.43592 0.42344 0.0
H2535 H 0.62915 0.50068 0.37689 0.0
H2536 H 0.61314 0.49159 0.34703 0.0
H2537 H 0.6531 0.51661 0.35082 0.0
H2538 H 0.66411 0.48203 0.32349 0.0
H2539 H 0.62406 0.45678 0.31968 0.0
H2540 H 0.64771 0.44255 0.33084 0.0
H2541 H 0.60917 0.39984 0.41797 0.0
H2542 H 0.5542 0.37598 0.40903 0.0
H2543 H 0.57446 0.43673 0.34858 0.0
C2544 C 0.69367 0.498 0.3735 0.0
C2545 C 0.71387 0.50026 0.39186 0.0
C2546 C 0.70379 0.4773 0.40963 0.0
C2547 C 0.67387 0.45291 0.40943 0.0
C2548 C 0.65437 0.45169 0.39126 0.0
C2549 C 0.66401 0.47367 0.37359 0.0
C2550 C 0.63829 0.4688 0.3572 0.0
C2551 C 0.63312 0.49602 0.35806 0.0
C2552 C 0.64388 0.46214 0.33127 0.0
C2553 C 0.61242 0.44117 0.36876 0.0
C2554 C 0.62204 0.43123 0.38819 0.0
C2555 C 0.60151 0.40719 0.40257 0.0
C2556 C 0.57039 0.39365 0.39733 0.0
C2557 C 0.56025 0.40449 0.3781 0.0
C2558 C 0.58169 0.42789 0.3633 0.0
H2559 H 0.20303 0.5891 0.33463 0.0
H2560 H 0.22297 0.58907 0.41024 0.0
H2561 H 0.25357 0.6448 0.40973 0.0
H2562 H 0.27588 0.66437 0.31668 0.0
H2563 H 0.25329 0.67348 0.29721 0.0
H2564 H 0.24381 0.63467 0.30104 0.0
H2565 H 0.18959 0.6211 0.31347 0.0
H2566 H 0.19887 0.6597 0.31056 0.0
H2567 H 0.18434 0.64021 0.33875 0.0
H2568 H 0.26834 0.69865 0.40421 0.0
H2569 H 0.26826 0.74554 0.39388 0.0
H2570 H 0.23651 0.71089 0.32197 0.0
C2571 C 0.21588 0.60089 0.3505 0.0
C2572 C 0.21172 0.58502 0.37224 0.0
C2573 C 0.22697 0.60092 0.39325 0.0
C2574 C 0.24415 0.63261 0.3931 0.0
C2575 C 0.24572 0.64791 0.3718 0.0
C2576 C 0.23242 0.6325 0.35068 0.0
C2577 C 0.2318 0.65353 0.3317 0.0
C2578 C 0.25244 0.65671 0.31039 0.0
C2579 C 0.19923 0.643 0.32316 0.0
C2580 C 0.24469 0.68262 0.34594 0.0
C2581 C 0.25339 0.67919 0.36879 0.0
C2582 C 0.26244 0.70184 0.38615 0.0
C2583 C 0.26211 0.72836 0.38016 0.0
C2584 C 0.25245 0.73193 0.35708 0.0
C2585 C 0.24449 0.70906 0.33962 0.0
H2586 H 0.57119 0.15635 0.40851 0.0
H2587 H 0.62353 0.1799 0.3424 0.0
H2588 H 0.60342 0.21328 0.33102 0.0
H2589 H 0.50634 0.14874 0.38321 0.0
H2590 H 0.49585 0.16389 0.40838 0.0
H2591 H 0.51839 0.14636 0.41328 0.0
H2592 H 0.55963 0.19501 0.43417 0.0
H2593 H 0.5371 0.21272 0.42939 0.0
H2594 H 0.57553 0.23065 0.41855 0.0
H2595 H 0.5716 0.23752 0.324 0.0
H2596 H 0.53182 0.25159 0.3224 0.0
H2597 H 0.50036 0.21217 0.39318 0.0
C2598 C 0.57889 0.169 0.39186 0.0
C2599 C 0.59897 0.16558 0.37636 0.0
C2600 C 0.60852 0.18251 0.35472 0.0
C2601 C 0.59714 0.20145 0.34808 0.0
C2602 C 0.57652 0.20345 0.36341 0.0
C2603 C 0.56774 0.1879 0.38498 0.0
C2604 C 0.54325 0.19161 0.3972 0.0
C2605 C 0.51426 0.16083 0.40071 0.0
C2606 C 0.55457 0.20851 0.42125 0.0
C2607 C 0.53873 0.21073 0.37869 0.0
C2608 C 0.55836 0.21764 0.35945 0.0
C2609 C 0.55657 0.23279 0.33919 0.0
C2610 C 0.53384 0.24062 0.33842 0.0
C2611 C 0.51318 0.23324 0.35776 0.0
C2612 C 0.5162 0.21871 0.37834 0.0
H2613 H 0.43076 0.60534 0.39977 0.0
H2614 H 0.44336 0.65606 0.33415 0.0
H2615 H 0.38901 0.64019 0.33399 0.0
H2616 H 0.37076 0.54417 0.38219 0.0
H2617 H 0.35042 0.533 0.41035 0.0
H2618 H 0.39078 0.55634 0.41045 0.0
H2619 H 0.38694 0.59698 0.43566 0.0
H2620 H 0.3463 0.57343 0.43607 0.0
H2621 H 0.36342 0.61176 0.42528 0.0
H2622 H 0.33266 0.60783 0.33456 0.0
H2623 H 0.28062 0.56433 0.33689 0.0
H2624 H 0.30462 0.53405 0.40191 0.0
C2625 C 0.42224 0.61427 0.38608 0.0
C2626 C 0.44109 0.63195 0.36706 0.0
C2627 C 0.42933 0.64289 0.34912 0.0
C2628 C 0.39843 0.63388 0.34887 0.0
C2629 C 0.37983 0.61434 0.36689 0.0
C2630 C 0.3915 0.60521 0.38551 0.0
C2631 C 0.3666 0.58024 0.40023 0.0
C2632 C 0.36984 0.55179 0.4008 0.0
C2633 C 0.36577 0.59127 0.42583 0.0
C2634 C 0.33923 0.57501 0.38587 0.0
C2635 C 0.34711 0.5954 0.36711 0.0
C2636 C 0.3261 0.59234 0.3496 0.0
C2637 C 0.29661 0.56744 0.35099 0.0
C2638 C 0.2886 0.54577 0.36956 0.0
C2639 C 0.30994 0.55038 0.38763 0.0
H2640 H 0.40468 0.80744 0.89166 0.0
H2641 H 0.41676 0.77442 0.82314 0.0
H2642 H 0.36149 0.73958 0.82057 0.0
H2643 H 0.33296 0.73491 0.91235 0.0
H2644 H 0.31799 0.75736 0.92476 0.0
H2645 H 0.35823 0.77155 0.92504 0.0
H2646 H 0.36668 0.81976 0.90291 0.0
H2647 H 0.32668 0.80562 0.90202 0.0
H2648 H 0.34819 0.81616 0.87441 0.0
H2649 H 0.30505 0.71859 0.82053 0.0
H2650 H 0.25389 0.71227 0.82364 0.0
H2651 H 0.27873 0.76084 0.89154 0.0
C2652 C 0.39575 0.79162 0.87679 0.0
C2653 C 0.41493 0.79333 0.85773 0.0
C2654 C 0.40255 0.77299 0.83818 0.0
C2655 C 0.3711 0.75328 0.83652 0.0
C2656 C 0.35247 0.754 0.8547 0.0
C2657 C 0.36449 0.77231 0.87475 0.0
C2658 C 0.34 0.77307 0.8897 0.0
C2659 C 0.33713 0.75833 0.91443 0.0
C2660 C 0.34574 0.80556 0.89238 0.0
C2661 C 0.31253 0.75393 0.87421 0.0
C2662 C 0.31995 0.74246 0.85442 0.0
C2663 C 0.29888 0.72684 0.83627 0.0
C2664 C 0.26986 0.72347 0.83814 0.0
C2665 C 0.2622 0.736 0.85787 0.0
C2666 C 0.28365 0.75059 0.87641 0.0
H2667 H 0.57733 0.42116 0.82559 0.0
H2668 H 0.63021 0.44856 0.89133 0.0
H2669 H 0.60909 0.39478 0.90248 0.0
H2670 H 0.51292 0.36861 0.8512 0.0
H2671 H 0.49982 0.3419 0.82667 0.0
H2672 H 0.52483 0.38129 0.82074 0.0
H2673 H 0.56293 0.36908 0.79991 0.0
H2674 H 0.53779 0.32941 0.80549 0.0
H2675 H 0.57645 0.34736 0.81578 0.0
H2676 H 0.57486 0.33894 0.90993 0.0
H2677 H 0.53161 0.28693 0.91297 0.0
H2678 H 0.49965 0.29685 0.84299 0.0
C2679 C 0.58522 0.41579 0.84196 0.0
C2680 C 0.60538 0.43893 0.85763 0.0
C2681 C 0.6151 0.43114 0.87894 0.0
C2682 C 0.60312 0.40065 0.88542 0.0
C2683 C 0.58178 0.37837 0.87022 0.0
C2684 C 0.57325 0.38566 0.84874 0.0
C2685 C 0.547 0.35826 0.83717 0.0
C2686 C 0.51954 0.3628 0.83377 0.0
C2687 C 0.55663 0.35057 0.81317 0.0
C2688 C 0.54093 0.33462 0.85609 0.0
C2689 C 0.56163 0.34639 0.87474 0.0
C2690 C 0.55894 0.32937 0.89519 0.0
C2691 C 0.53422 0.29983 0.89678 0.0
C2692 C 0.51223 0.28779 0.8782 0.0
C2693 C 0.51618 0.30527 0.8574 0.0
H2694 H 0.18788 0.6072 0.8969 0.0
H2695 H 0.18411 0.62284 0.8207 0.0
H2696 H 0.22003 0.60465 0.81244 0.0
H2697 H 0.2709 0.625 0.89725 0.0
H2698 H 0.26169 0.59582 0.91935 0.0
H2699 H 0.24219 0.61709 0.91958 0.0
H2700 H 0.19076 0.56714 0.91723 0.0
H2701 H 0.20995 0.54584 0.91683 0.0
H2702 H 0.18409 0.54114 0.89288 0.0
H2703 H 0.2446 0.5727 0.81186 0.0
H2704 H 0.25851 0.53347 0.81934 0.0
H2705 H 0.24976 0.54223 0.89624 0.0
C2706 C 0.19581 0.60803 0.87865 0.0
C2707 C 0.18368 0.61654 0.85943 0.0
C2708 C 0.1937 0.61678 0.83564 0.0
C2709 C 0.21405 0.60651 0.83082 0.0
C2710 C 0.22465 0.59685 0.85011 0.0
C2711 C 0.21645 0.59832 0.87366 0.0
C2712 C 0.22783 0.5833 0.89087 0.0
C2713 C 0.25211 0.60671 0.90776 0.0
C2714 C 0.2016 0.55786 0.90526 0.0
C2715 C 0.24152 0.57096 0.87319 0.0
C2716 C 0.24 0.5794 0.84978 0.0
C2717 C 0.24693 0.56682 0.83015 0.0
C2718 C 0.25471 0.54447 0.83455 0.0
C2719 C 0.2555 0.53502 0.85837 0.0
C2720 C 0.25008 0.54946 0.87785 0.0
H2721 H 0.68925 0.17814 0.82521 0.0
H2722 H 0.72468 0.22964 0.89112 0.0
H2723 H 0.67414 0.22246 0.90048 0.0
H2724 H 0.63115 0.20103 0.81184 0.0
H2725 H 0.60439 0.16354 0.80151 0.0
H2726 H 0.64441 0.17813 0.79751 0.0
H2727 H 0.63996 0.13161 0.81999 0.0
H2728 H 0.60011 0.11699 0.82414 0.0
H2729 H 0.62398 0.12297 0.8499 0.0
H2730 H 0.61853 0.20322 0.90568 0.0
H2731 H 0.56269 0.17169 0.90707 0.0
H2732 H 0.56369 0.1324 0.83807 0.0
C2733 C 0.68663 0.18882 0.84118 0.0
C2734 C 0.71091 0.2047 0.85733 0.0
C2735 C 0.70638 0.21753 0.87843 0.0
C2736 C 0.67779 0.2137 0.88383 0.0
C2737 C 0.65401 0.19704 0.86791 0.0
C2738 C 0.6582 0.18489 0.84695 0.0
C2739 C 0.6284 0.16457 0.8345 0.0
C2740 C 0.62701 0.17761 0.80988 0.0
C2741 C 0.6228 0.13214 0.83201 0.0
C2742 C 0.60669 0.16613 0.85223 0.0
C2743 C 0.62186 0.18548 0.87112 0.0
C2744 C 0.60641 0.18849 0.89073 0.0
C2745 C 0.57471 0.17059 0.89136 0.0
C2746 C 0.55898 0.14971 0.87267 0.0
C2747 C 0.5752 0.14829 0.85256 0.0
H2748 H 0.40766 0.57711 0.8205 0.0
H2749 H 0.34938 0.54656 0.88323 0.0
H2750 H 0.36456 0.59966 0.89297 0.0
H2751 H 0.46694 0.63475 0.84717 0.0
H2752 H 0.47918 0.66054 0.82204 0.0
H2753 H 0.45804 0.6206 0.81673 0.0
H2754 H 0.41789 0.62676 0.7927 0.0
H2755 H 0.43913 0.66698 0.79776 0.0
H2756 H 0.39984 0.64569 0.80641 0.0
H2757 H 0.39437 0.65603 0.90024 0.0
H2758 H 0.43463 0.70944 0.90397 0.0
H2759 H 0.47315 0.7025 0.83619 0.0
C2760 C 0.39734 0.5816 0.83583 0.0
C2761 C 0.37744 0.55797 0.85117 0.0
C2762 C 0.36446 0.56446 0.87117 0.0
C2763 C 0.37298 0.59452 0.87679 0.0
C2764 C 0.39403 0.61757 0.86195 0.0
C2765 C 0.40562 0.6113 0.84161 0.0
C2766 C 0.43072 0.63976 0.83032 0.0
C2767 C 0.46045 0.63884 0.82902 0.0
C2768 C 0.42132 0.64511 0.80532 0.0
C2769 C 0.43285 0.66298 0.84826 0.0
C2770 C 0.41113 0.64996 0.86611 0.0
C2771 C 0.41096 0.66655 0.88603 0.0
C2772 C 0.43399 0.69689 0.88804 0.0
C2773 C 0.45703 0.71018 0.87034 0.0
C2774 C 0.45568 0.69317 0.84987 0.0
H2775 H 0.8056 0.50826 0.81789 0.0
H2776 H 0.72721 0.46412 0.86473 0.0
H2777 H 0.73741 0.42216 0.87107 0.0
H2778 H 0.80166 0.43795 0.79243 0.0
H2779 H 0.84231 0.45534 0.79303 0.0
H2780 H 0.82496 0.47813 0.78801 0.0
H2781 H 0.85522 0.5123 0.82397 0.0
H2782 H 0.87235 0.48951 0.8293 0.0
H2783 H 0.85198 0.49552 0.85319 0.0
H2784 H 0.76113 0.38957 0.87767 0.0
H2785 H 0.79622 0.36992 0.88397 0.0
H2786 H 0.85905 0.43576 0.83303 0.0
C2787 C 0.78984 0.48922 0.82872 0.0
C2788 C 0.76543 0.48936 0.84064 0.0
C2789 C 0.7459 0.46439 0.85525 0.0
C2790 C 0.75151 0.44042 0.85893 0.0
C2791 C 0.77663 0.44168 0.84779 0.0
C2792 C 0.79532 0.46536 0.83277 0.0
C2793 C 0.82293 0.46354 0.82539 0.0
C2794 C 0.82295 0.45842 0.79809 0.0
C2795 C 0.85233 0.49188 0.83346 0.0
C2796 C 0.81756 0.43588 0.83937 0.0
C2797 C 0.79049 0.42319 0.85185 0.0
C2798 C 0.78206 0.39894 0.86758 0.0
C2799 C 0.80208 0.38786 0.87102 0.0
C2800 C 0.83034 0.4013 0.859 0.0
C2801 C 0.83761 0.42503 0.8425 0.0
H2802 H 0.15305 0.56636 0.66567 0.0
H2803 H 0.18717 0.55551 0.59709 0.0
H2804 H 0.22362 0.61058 0.59602 0.0
H2805 H 0.15116 0.62973 0.65088 0.0
H2806 H 0.16198 0.64754 0.68005 0.0
H2807 H 0.14352 0.60714 0.67771 0.0
H2808 H 0.18811 0.60743 0.70039 0.0
H2809 H 0.20674 0.64799 0.70285 0.0
H2810 H 0.22618 0.6304 0.68928 0.0
H2811 H 0.24931 0.66756 0.59911 0.0
H2812 H 0.26226 0.72045 0.60628 0.0
H2813 H 0.21145 0.69329 0.67318 0.0
C2814 C 0.16878 0.5755 0.65073 0.0
C2815 C 0.16739 0.55683 0.63145 0.0
C2816 C 0.18816 0.56947 0.61216 0.0
C2817 C 0.20887 0.60069 0.61142 0.0
C2818 C 0.20877 0.61872 0.63031 0.0
C2819 C 0.18946 0.60642 0.64977 0.0
C2820 C 0.19121 0.63065 0.66646 0.0
C2821 C 0.16014 0.62864 0.66889 0.0
C2822 C 0.20382 0.62902 0.69121 0.0
C2823 C 0.21347 0.65863 0.65282 0.0
C2824 C 0.22375 0.65141 0.63219 0.0
C2825 C 0.24197 0.67349 0.61549 0.0
C2826 C 0.24918 0.70349 0.6197 0.0
C2827 C 0.23804 0.71106 0.64037 0.0
C2828 C 0.22081 0.68839 0.65743 0.0
H2829 H 0.51177 0.2161 0.60108 0.0
H2830 H 0.56145 0.28177 0.65697 0.0
H2831 H 0.59983 0.26572 0.65699 0.0
H2832 H 0.51695 0.15963 0.62609 0.0
H2833 H 0.52088 0.1426 0.59888 0.0
H2834 H 0.50207 0.16432 0.59796 0.0
H2835 H 0.53885 0.19928 0.56519 0.0
H2836 H 0.5576 0.1773 0.56535 0.0
H2837 H 0.57911 0.21754 0.57018 0.0
H2838 H 0.62722 0.23641 0.65627 0.0
H2839 H 0.64061 0.19622 0.65548 0.0
H2840 H 0.57211 0.14853 0.60088 0.0
C2841 C 0.53148 0.22814 0.6125 0.0
C2842 C 0.5339 0.25055 0.62877 0.0
C2843 C 0.55938 0.26484 0.64415 0.0
C2844 C 0.5813 0.25587 0.64425 0.0
C2845 C 0.5774 0.23257 0.62886 0.0
C2846 C 0.5532 0.21908 0.6131 0.0
C2847 C 0.55151 0.19163 0.60108 0.0
C2848 C 0.52107 0.16287 0.60635 0.0
C2849 C 0.55711 0.19676 0.57383 0.0
C2850 C 0.57753 0.19083 0.61345 0.0
C2851 C 0.5927 0.21506 0.62894 0.0
C2852 C 0.61596 0.21774 0.64379 0.0
C2853 C 0.62349 0.19481 0.64315 0.0
C2854 C 0.60754 0.16928 0.628 0.0
C2855 C 0.58479 0.16781 0.61258 0.0
H2856 H 0.43898 0.57766 0.67256 0.0
H2857 H 0.4428 0.62093 0.60441 0.0
H2858 H 0.38688 0.59294 0.60259 0.0
H2859 H 0.38757 0.50802 0.65438 0.0
H2860 H 0.36783 0.49494 0.68266 0.0
H2861 H 0.40677 0.52436 0.68237 0.0
H2862 H 0.39314 0.55954 0.70625 0.0
H2863 H 0.35401 0.53001 0.70685 0.0
H2864 H 0.36418 0.56671 0.69496 0.0
H2865 H 0.33151 0.55347 0.60451 0.0
H2866 H 0.28287 0.50585 0.60918 0.0
H2867 H 0.31648 0.48573 0.67426 0.0
C2868 C 0.42806 0.58188 0.65754 0.0
C2869 C 0.44526 0.6014 0.63858 0.0
C2870 C 0.43011 0.6064 0.61931 0.0
C2871 C 0.39833 0.59051 0.61811 0.0
C2872 C 0.38212 0.56989 0.63638 0.0
C2873 C 0.39657 0.56576 0.65585 0.0
C2874 C 0.37488 0.53908 0.67109 0.0
C2875 C 0.38486 0.51521 0.67269 0.0
C2876 C 0.37134 0.54947 0.69628 0.0
C2877 C 0.34623 0.52777 0.6565 0.0
C2878 C 0.35053 0.54632 0.63697 0.0
C2879 C 0.32777 0.53912 0.61998 0.0
C2880 C 0.30023 0.512 0.62276 0.0
C2881 C 0.296 0.49213 0.64206 0.0
C2882 C 0.31906 0.50056 0.65939 0.0
H2883 H 0.77635 0.29036 0.6775 0.0
H2884 H 0.7479 0.27278 0.60276 0.0
H2885 H 0.75466 0.32405 0.59945 0.0
H2886 H 0.74518 0.34205 0.69159 0.0
H2887 H 0.77756 0.36567 0.71011 0.0
H2888 H 0.76387 0.32566 0.7081 0.0
H2889 H 0.81714 0.3366 0.69469 0.0
H2890 H 0.8309 0.37638 0.69687 0.0
H2891 H 0.83485 0.36061 0.66896 0.0
H2892 H 0.77383 0.38007 0.60216 0.0
H2893 H 0.80604 0.43492 0.61007 0.0
H2894 H 0.82116 0.41551 0.68293 0.0
C2895 C 0.77058 0.29688 0.66063 0.0
C2896 C 0.76148 0.27748 0.64042 0.0
C2897 C 0.75473 0.28716 0.61855 0.0
C2898 C 0.75836 0.31623 0.61654 0.0
C2899 C 0.76839 0.33522 0.63664 0.0
C2900 C 0.77418 0.32575 0.65834 0.0
C2901 C 0.78868 0.35144 0.67626 0.0
C2902 C 0.76755 0.34586 0.69779 0.0
C2903 C 0.81971 0.35655 0.68465 0.0
C2904 C 0.79184 0.3773 0.66086 0.0
C2905 C 0.7793 0.36748 0.63824 0.0
C2906 C 0.78294 0.38791 0.62001 0.0
C2907 C 0.80106 0.41903 0.62466 0.0
C2908 C 0.81544 0.42921 0.64723 0.0
C2909 C 0.80955 0.40814 0.66579 0.0
H2910 H 0.51162 0.78725 0.59874 0.0
H2911 H 0.47026 0.71823 0.65391 0.0
H2912 H 0.42664 0.72683 0.6555 0.0
H2913 H 0.49578 0.8376 0.62514 0.0
H2914 H 0.48899 0.852 0.59762 0.0
H2915 H 0.5134 0.8361 0.59739 0.0
H2916 H 0.48047 0.79829 0.56407 0.0
H2917 H 0.4559 0.81419 0.56416 0.0
H2918 H 0.44039 0.77424 0.56888 0.0
H2919 H 0.39139 0.74853 0.65517 0.0
H2920 H 0.36965 0.78241 0.65412 0.0
H2921 H 0.43503 0.83713 0.59964 0.0
C2922 C 0.49303 0.77325 0.6107 0.0
C2923 C 0.49432 0.75197 0.62613 0.0
C2924 C 0.4697 0.73455 0.6418 0.0
C2925 C 0.44478 0.73922 0.64276 0.0
C2926 C 0.44476 0.76118 0.62781 0.0
C2927 C 0.46827 0.77776 0.61197 0.0
C2928 C 0.46499 0.80249 0.59992 0.0
C2929 C 0.4924 0.83387 0.60537 0.0
C2930 C 0.46014 0.79696 0.57264 0.0
C2931 C 0.43666 0.79817 0.61218 0.0
C2932 C 0.42484 0.77385 0.62783 0.0
C2933 C 0.40011 0.76722 0.64261 0.0
C2934 C 0.38783 0.78647 0.64186 0.0
C2935 C 0.40065 0.81218 0.62671 0.0
C2936 C 0.42469 0.81743 0.61121 0.0
H2937 H 0.60126 0.42277 0.61123 0.0
H2938 H 0.58373 0.36747 0.67492 0.0
H2939 H 0.63778 0.38212 0.67671 0.0
H2940 H 0.66507 0.41211 0.58597 0.0
H2941 H 0.68507 0.45077 0.57581 0.0
H2942 H 0.64426 0.43014 0.57619 0.0
H2943 H 0.64437 0.47212 0.60256 0.0
H2944 H 0.68495 0.49269 0.60234 0.0
H2945 H 0.66491 0.4824 0.63063 0.0
H2946 H 0.69456 0.41251 0.6774 0.0
H2947 H 0.74817 0.45318 0.67517 0.0
H2948 H 0.72852 0.48647 0.60975 0.0
C2949 C 0.60868 0.41284 0.62495 0.0
C2950 C 0.58843 0.39389 0.64283 0.0
C2951 C 0.59884 0.38163 0.66081 0.0
C2952 C 0.62953 0.3899 0.66199 0.0
C2953 C 0.6493 0.40993 0.64475 0.0
C2954 C 0.63912 0.42071 0.62623 0.0
C2955 C 0.66517 0.44471 0.61174 0.0
C2956 C 0.66487 0.43377 0.5859 0.0
C2957 C 0.66482 0.47472 0.61186 0.0
C2958 C 0.69165 0.44719 0.62589 0.0
C2959 C 0.68217 0.4267 0.64469 0.0
C2960 C 0.70235 0.42793 0.66227 0.0
C2961 C 0.73273 0.45113 0.66093 0.0
C2962 C 0.74257 0.47263 0.64209 0.0
C2963 C 0.72193 0.4698 0.62393 0.0
loop_
_geom_bond_atom_site_label_1
_geom_bond_atom_site_label_2
_geom_bond_distance
_geom_bond_site_symmetry_2
_ccdc_geom_bond_type
O0 Tb1 2.292 . S
O0 C3 1.255 . S
Tb1 O0 2.292 . S
Tb1 O17 2.326 . S
Tb1 O19 2.500 . S
Tb1 O20 2.473 . S
Tb1 O23 2.324 . S
Eu2 O6 2.292 . S
Eu2 C7 2.852 . S
Eu2 O18 2.324 . S
Eu2 O22 2.326 . S
Eu2 O24 2.500 . S
Eu2 O25 2.473 . S
C3 O0 1.255 . S
C3 O4 1.247 . S
O4 C3 1.247 . S
C5 O17 1.242 . S
C5 O18 1.258 . S
O6 Eu2 2.292 . S
O6 C8 1.255 . S
C7 Eu2 2.852 . S
C7 C11 1.503 . S
C7 O24 1.273 . S
C7 O25 1.257 . S
C8 O6 1.255 . S
C8 O9 1.247 . S
O9 C8 1.247 . S
C10 O22 1.242 . S
C10 O23 1.258 . S
C11 C7 1.503 . S
C11 C12 1.379 . S
C11 C16 1.392 . S
C12 C11 1.379 . S
C12 C13 1.404 . S
C12 H26 0.929 . S
C13 C12 1.404 . S
C13 C14 1.389 . S
C14 C13 1.389 . S
C14 C15 1.399 . S
C14 H27 0.931 . S
C15 C14 1.399 . S
C15 C16 1.390 . S
C16 C11 1.392 . S
C16 C15 1.390 . S
C16 H28 0.929 . S
O17 Tb1 2.326 . S
O17 C5 1.242 . S
O18 Eu2 2.324 . S
O18 C5 1.258 . S
O19 Tb1 2.500 . S
O19 C21 1.273 . S
O20 Tb1 2.473 . S
O20 C21 1.257 . S
C21 O19 1.273 . S
C21 O20 1.257 . S
O22 Eu2 2.326 . S
O22 C10 1.242 . S
O23 Tb1 2.324 . S
O23 C10 1.258 . S
O24 Eu2 2.500 . S
O24 C7 1.273 . S
O25 Eu2 2.473 . S
O25 C7 1.257 . S
H26 C12 0.929 . S
H27 C14 0.931 . S
H28 C16 0.929 . S
O29 Tb30 2.292 . S
O29 C32 1.255 . S
Tb30 O29 2.292 . S
Tb30 O46 2.326 . S
Tb30 O48 2.500 . S
Tb30 O49 2.473 . S
Tb30 O52 2.324 . S
Eu31 O35 2.292 . S
Eu31 C36 2.852 . S
Eu31 O47 2.324 . S
Eu31 O51 2.326 . S
Eu31 O53 2.500 . S
Eu31 O54 2.473 . S
C32 O29 1.255 . S
C32 O33 1.247 . S
O33 C32 1.247 . S
C34 O46 1.242 . S
C34 O47 1.258 . S
O35 Eu31 2.292 . S
O35 C37 1.255 . S
C36 Eu31 2.852 . S
C36 C40 1.503 . S
C36 O53 1.273 . S
C36 O54 1.257 . S
C37 O35 1.255 . S
C37 O38 1.247 . S
O38 C37 1.247 . S
C39 O51 1.242 . S
C39 O52 1.258 . S
C40 C36 1.503 . S
C40 C41 1.379 . S
C40 C45 1.392 . S
C41 C40 1.379 . S
C41 C42 1.404 . S
C41 H55 0.929 . S
C42 C41 1.404 . S
C42 C43 1.389 . S
C43 C42 1.389 . S
C43 C44 1.399 . S
C43 H56 0.931 . S
C44 C43 1.399 . S
C44 C45 1.390 . S
C45 C40 1.392 . S
C45 C44 1.390 . S
C45 H57 0.929 . S
O46 Tb30 2.326 . S
O46 C34 1.242 . S
O47 Eu31 2.324 . S
O47 C34 1.258 . S
O48 Tb30 2.500 . S
O48 C50 1.273 . S
O49 Tb30 2.473 . S
O49 C50 1.257 . S
C50 O48 1.273 . S
C50 O49 1.257 . S
O51 Eu31 2.326 . S
O51 C39 1.242 . S
O52 Tb30 2.324 . S
O52 C39 1.258 . S
O53 Eu31 2.500 . S
O53 C36 1.273 . S
O54 Eu31 2.473 . S
O54 C36 1.257 . S
H55 C41 0.929 . S
H56 C43 0.931 . S
H57 C45 0.929 . S
O58 Tb59 2.292 . S
O58 C61 1.255 . S
Tb59 O58 2.292 . S
Tb59 O75 2.326 . S
Tb59 O77 2.500 . S
Tb59 O78 2.473 . S
Tb59 O81 2.324 . S
Eu60 O64 2.292 . S
Eu60 C65 2.852 . S
Eu60 O76 2.324 . S
Eu60 O80 2.326 . S
Eu60 O82 2.500 . S
Eu60 O83 2.473 . S
C61 O58 1.255 . S
C61 O62 1.247 . S
O62 C61 1.247 . S
C63 O75 1.242 . S
C63 O76 1.258 . S
O64 Eu60 2.292 . S
O64 C66 1.255 . S
C65 Eu60 2.852 . S
C65 C69 1.503 . S
C65 O82 1.273 . S
C65 O83 1.257 . S
C66 O64 1.255 . S
C66 O67 1.247 . S
O67 C66 1.247 . S
C68 O80 1.242 . S
C68 O81 1.258 . S
C69 C65 1.503 . S
C69 C70 1.379 . S
C69 C74 1.392 . S
C70 C69 1.379 . S
C70 C71 1.404 . S
C70 H84 0.929 . S
C71 C70 1.404 . S
C71 C72 1.389 . S
C72 C71 1.389 . S
C72 C73 1.399 . S
C72 H85 0.931 . S
C73 C72 1.399 . S
C73 C74 1.390 . S
C74 C69 1.392 . S
C74 C73 1.390 . S
C74 H86 0.929 . S
O75 Tb59 2.326 . S
O75 C63 1.242 . S
O76 Eu60 2.324 . S
O76 C63 1.258 . S
O77 Tb59 2.500 . S
O77 C79 1.273 . S
O78 Tb59 2.473 . S
O78 C79 1.257 . S
C79 O77 1.273 . S
C79 O78 1.257 . S
O80 Eu60 2.326 . S
O80 C68 1.242 . S
O81 Tb59 2.324 . S
O81 C68 1.258 . S
O82 Eu60 2.500 . S
O82 C65 1.273 . S
O83 Eu60 2.473 . S
O83 C65 1.257 . S
H84 C70 0.929 . S
H85 C72 0.931 . S
H86 C74 0.929 . S
O87 Tb88 2.292 . S
O87 C90 1.255 . S
Tb88 O87 2.292 . S
Tb88 O104 2.326 . S
Tb88 O106 2.500 . S
Tb88 O107 2.473 . S
Tb88 O110 2.324 . S
Eu89 O93 2.292 . S
Eu89 C94 2.852 . S
Eu89 O105 2.324 . S
Eu89 O109 2.326 . S
Eu89 O111 2.500 . S
Eu89 O112 2.473 . S
C90 O87 1.255 . S
C90 O91 1.247 . S
O91 C90 1.247 . S
C92 O104 1.242 . S
C92 O105 1.258 . S
O93 Eu89 2.292 . S
O93 C95 1.255 . S
C94 Eu89 2.852 . S
C94 C98 1.503 . S
C94 O111 1.273 . S
C94 O112 1.257 . S
C95 O93 1.255 . S
C95 O96 1.247 . S
O96 C95 1.247 . S
C97 O109 1.242 . S
C97 O110 1.258 . S
C98 C94 1.503 . S
C98 C99 1.379 . S
C98 C103 1.392 . S
C99 C98 1.379 . S
C99 C100 1.404 . S
C99 H113 0.929 . S
C100 C99 1.404 . S
C100 C101 1.389 . S
C101 C100 1.389 . S
C101 C102 1.399 . S
C101 H114 0.931 . S
C102 C101 1.399 . S
C102 C103 1.390 . S
C103 C98 1.392 . S
C103 C102 1.390 . S
C103 H115 0.929 . S
O104 Tb88 2.326 . S
O104 C92 1.242 . S
O105 Eu89 2.324 . S
O105 C92 1.258 . S
O106 Tb88 2.500 . S
O106 C108 1.273 . S
O107 Tb88 2.473 . S
O107 C108 1.257 . S
C108 O106 1.273 . S
C108 O107 1.257 . S
O109 Eu89 2.326 . S
O109 C97 1.242 . S
O110 Tb88 2.324 . S
O110 C97 1.258 . S
O111 Eu89 2.500 . S
O111 C94 1.273 . S
O112 Eu89 2.473 . S
O112 C94 1.257 . S
H113 C99 0.929 . S
H114 C101 0.931 . S
H115 C103 0.929 . S
O116 Tb117 2.292 . S
O116 C119 1.255 . S
Tb117 O116 2.292 . S
Tb117 O133 2.326 . S
Tb117 O135 2.500 . S
Tb117 O136 2.473 . S
Tb117 O139 2.324 . S
Eu118 O122 2.292 . S
Eu118 C123 2.852 . S
Eu118 O134 2.324 . S
Eu118 O138 2.326 . S
Eu118 O140 2.500 . S
Eu118 O141 2.473 . S
C119 O116 1.255 . S
C119 O120 1.247 . S
O120 C119 1.247 . S
C121 O133 1.242 . S
C121 O134 1.258 . S
O122 Eu118 2.292 . S
O122 C124 1.255 . S
C123 Eu118 2.852 . S
C123 C127 1.503 . S
C123 O140 1.273 . S
C123 O141 1.257 . S
C124 O122 1.255 . S
C124 O125 1.247 . S
O125 C124 1.247 . S
C126 O138 1.242 . S
C126 O139 1.258 . S
C127 C123 1.503 . S
C127 C128 1.379 . S
C127 C132 1.392 . S
C128 C127 1.379 . S
C128 C129 1.404 . S
C128 H142 0.929 . S
C129 C128 1.404 . S
C129 C130 1.389 . S
C130 C129 1.389 . S
C130 C131 1.399 . S
C130 H143 0.931 . S
C131 C130 1.399 . S
C131 C132 1.390 . S
C132 C127 1.392 . S
C132 C131 1.390 . S
C132 H144 0.929 . S
O133 Tb117 2.326 . S
O133 C121 1.242 . S
O134 Eu118 2.324 . S
O134 C121 1.258 . S
O135 Tb117 2.500 . S
O135 C137 1.273 . S
O136 Tb117 2.473 . S
O136 C137 1.257 . S
C137 O135 1.273 . S
C137 O136 1.257 . S
O138 Eu118 2.326 . S
O138 C126 1.242 . S
O139 Tb117 2.324 . S
O139 C126 1.258 . S
O140 Eu118 2.500 . S
O140 C123 1.273 . S
O141 Eu118 2.473 . S
O141 C123 1.257 . S
H142 C128 0.929 . S
H143 C130 0.931 . S
H144 C132 0.929 . S
O145 Tb146 2.292 . S
O145 C148 1.255 . S
Tb146 O145 2.292 . S
Tb146 O162 2.326 . S
Tb146 O164 2.500 . S
Tb146 O165 2.473 . S
Tb146 O168 2.324 . S
Eu147 O151 2.292 . S
Eu147 C152 2.852 . S
Eu147 O163 2.324 . S
Eu147 O167 2.326 . S
Eu147 O169 2.500 . S
Eu147 O170 2.473 . S
C148 O145 1.255 . S
C148 O149 1.247 . S
O149 C148 1.247 . S
C150 O162 1.242 . S
C150 O163 1.258 . S
O151 Eu147 2.292 . S
O151 C153 1.255 . S
C152 Eu147 2.852 . S
C152 C156 1.503 . S
C152 O169 1.273 . S
C152 O170 1.257 . S
C153 O151 1.255 . S
C153 O154 1.247 . S
O154 C153 1.247 . S
C155 O167 1.242 . S
C155 O168 1.258 . S
C156 C152 1.503 . S
C156 C157 1.379 . S
C156 C161 1.392 . S
C157 C156 1.379 . S
C157 C158 1.404 . S
C157 H171 0.929 . S
C158 C157 1.404 . S
C158 C159 1.389 . S
C159 C158 1.389 . S
C159 C160 1.399 . S
C159 H172 0.931 . S
C160 C159 1.399 . S
C160 C161 1.390 . S
C161 C156 1.392 . S
C161 C160 1.390 . S
C161 H173 0.929 . S
O162 Tb146 2.326 . S
O162 C150 1.242 . S
O163 Eu147 2.324 . S
O163 C150 1.258 . S
O164 Tb146 2.500 . S
O164 C166 1.273 . S
O165 Tb146 2.473 . S
O165 C166 1.257 . S
C166 O164 1.273 . S
C166 O165 1.257 . S
O167 Eu147 2.326 . S
O167 C155 1.242 . S
O168 Tb146 2.324 . S
O168 C155 1.258 . S
O169 Eu147 2.500 . S
O169 C152 1.273 . S
O170 Eu147 2.473 . S
O170 C152 1.257 . S
H171 C157 0.929 . S
H172 C159 0.931 . S
H173 C161 0.929 . S
O174 Tb175 2.292 . S
O174 C177 1.255 . S
Tb175 O174 2.292 . S
Tb175 O191 2.326 . S
Tb175 O193 2.500 . S
Tb175 O194 2.473 . S
Tb175 O197 2.324 . S
Eu176 O180 2.292 . S
Eu176 C181 2.852 . S
Eu176 O192 2.324 . S
Eu176 O196 2.326 . S
Eu176 O198 2.500 . S
Eu176 O199 2.473 . S
C177 O174 1.255 . S
C177 O178 1.247 . S
O178 C177 1.247 . S
C179 O191 1.242 . S
C179 O192 1.258 . S
O180 Eu176 2.292 . S
O180 C182 1.255 . S
C181 Eu176 2.852 . S
C181 C185 1.503 . S
C181 O198 1.273 . S
C181 O199 1.257 . S
C182 O180 1.255 . S
C182 O183 1.247 . S
O183 C182 1.247 . S
C184 O196 1.242 . S
C184 O197 1.258 . S
C185 C181 1.503 . S
C185 C186 1.379 . S
C185 C190 1.392 . S
C186 C185 1.379 . S
C186 C187 1.404 . S
C186 H200 0.929 . S
C187 C186 1.404 . S
C187 C188 1.389 . S
C188 C187 1.389 . S
C188 C189 1.399 . S
C188 H201 0.931 . S
C189 C188 1.399 . S
C189 C190 1.390 . S
C190 C185 1.392 . S
C190 C189 1.390 . S
C190 H202 0.929 . S
O191 Tb175 2.326 . S
O191 C179 1.242 . S
O192 Eu176 2.324 . S
O192 C179 1.258 . S
O193 Tb175 2.500 . S
O193 C195 1.273 . S
O194 Tb175 2.473 . S
O194 C195 1.257 . S
C195 O193 1.273 . S
C195 O194 1.257 . S
O196 Eu176 2.326 . S
O196 C184 1.242 . S
O197 Tb175 2.324 . S
O197 C184 1.258 . S
O198 Eu176 2.500 . S
O198 C181 1.273 . S
O199 Eu176 2.473 . S
O199 C181 1.257 . S
H200 C186 0.929 . S
H201 C188 0.931 . S
H202 C190 0.929 . S
O203 Tb204 2.292 . S
O203 C206 1.255 . S
Tb204 O203 2.292 . S
Tb204 O220 2.326 . S
Tb204 O222 2.500 . S
Tb204 O223 2.473 . S
Tb204 O226 2.324 . S
Eu205 O209 2.292 . S
Eu205 C210 2.852 . S
Eu205 O221 2.324 . S
Eu205 O225 2.326 . S
Eu205 O227 2.500 . S
Eu205 O228 2.473 . S
C206 O203 1.255 . S
C206 O207 1.247 . S
O207 C206 1.247 . S
C208 O220 1.242 . S
C208 O221 1.258 . S
O209 Eu205 2.292 . S
O209 C211 1.255 . S
C210 Eu205 2.852 . S
C210 C214 1.503 . S
C210 O227 1.273 . S
C210 O228 1.257 . S
C211 O209 1.255 . S
C211 O212 1.247 . S
O212 C211 1.247 . S
C213 O225 1.242 . S
C213 O226 1.258 . S
C214 C210 1.503 . S
C214 C215 1.379 . S
C214 C219 1.392 . S
C215 C214 1.379 . S
C215 C216 1.404 . S
C215 H229 0.929 . S
C216 C215 1.404 . S
C216 C217 1.389 . S
C217 C216 1.389 . S
C217 C218 1.399 . S
C217 H230 0.931 . S
C218 C217 1.399 . S
C218 C219 1.390 . S
C219 C214 1.392 . S
C219 C218 1.390 . S
C219 H231 0.929 . S
O220 Tb204 2.326 . S
O220 C208 1.242 . S
O221 Eu205 2.324 . S
O221 C208 1.258 . S
O222 Tb204 2.500 . S
O222 C224 1.273 . S
O223 Tb204 2.473 . S
O223 C224 1.257 . S
C224 O222 1.273 . S
C224 O223 1.257 . S
O225 Eu205 2.326 . S
O225 C213 1.242 . S
O226 Tb204 2.324 . S
O226 C213 1.258 . S
O227 Eu205 2.500 . S
O227 C210 1.273 . S
O228 Eu205 2.473 . S
O228 C210 1.257 . S
H229 C215 0.929 . S
H230 C217 0.931 . S
H231 C219 0.929 . S
O232 Tb233 2.292 . S
O232 C235 1.255 . S
Tb233 O232 2.292 . S
Tb233 O249 2.326 . S
Tb233 O251 2.500 . S
Tb233 O252 2.473 . S
Tb233 O255 2.324 . S
Eu234 O238 2.292 . S
Eu234 C239 2.852 . S
Eu234 O250 2.324 . S
Eu234 O254 2.326 . S
Eu234 O256 2.500 . S
Eu234 O257 2.473 . S
C235 O232 1.255 . S
C235 O236 1.247 . S
O236 C235 1.247 . S
C237 O249 1.242 . S
C237 O250 1.258 . S
O238 Eu234 2.292 . S
O238 C240 1.255 . S
C239 Eu234 2.852 . S
C239 C243 1.503 . S
C239 O256 1.273 . S
C239 O257 1.257 . S
C240 O238 1.255 . S
C240 O241 1.247 . S
O241 C240 1.247 . S
C242 O254 1.242 . S
C242 O255 1.258 . S
C243 C239 1.503 . S
C243 C244 1.379 . S
C243 C248 1.392 . S
C244 C243 1.379 . S
C244 C245 1.404 . S
C244 H258 0.929 . S
C245 C244 1.404 . S
C245 C246 1.389 . S
C246 C245 1.389 . S
C246 C247 1.399 . S
C246 H259 0.931 . S
C247 C246 1.399 . S
C247 C248 1.390 . S
C248 C243 1.392 . S
C248 C247 1.390 . S
C248 H260 0.929 . S
O249 Tb233 2.326 . S
O249 C237 1.242 . S
O250 Eu234 2.324 . S
O250 C237 1.258 . S
O251 Tb233 2.500 . S
O251 C253 1.273 . S
O252 Tb233 2.473 . S
O252 C253 1.257 . S
C253 O251 1.273 . S
C253 O252 1.257 . S
O254 Eu234 2.326 . S
O254 C242 1.242 . S
O255 Tb233 2.324 . S
O255 C242 1.258 . S
O256 Eu234 2.500 . S
O256 C239 1.273 . S
O257 Eu234 2.473 . S
O257 C239 1.257 . S
H258 C244 0.929 . S
H259 C246 0.931 . S
H260 C248 0.929 . S
O261 Tb262 2.292 . S
O261 C264 1.255 . S
Tb262 O261 2.292 . S
Tb262 O278 2.326 . S
Tb262 O280 2.500 . S
Tb262 O281 2.473 . S
Tb262 O284 2.324 . S
Eu263 O267 2.292 . S
Eu263 C268 2.852 . S
Eu263 O279 2.324 . S
Eu263 O283 2.326 . S
Eu263 O285 2.500 . S
Eu263 O286 2.473 . S
C264 O261 1.255 . S
C264 O265 1.247 . S
O265 C264 1.247 . S
C266 O278 1.242 . S
C266 O279 1.258 . S
O267 Eu263 2.292 . S
O267 C269 1.255 . S
C268 Eu263 2.852 . S
C268 C272 1.503 . S
C268 O285 1.273 . S
C268 O286 1.257 . S
C269 O267 1.255 . S
C269 O270 1.247 . S
O270 C269 1.247 . S
C271 O283 1.242 . S
C271 O284 1.258 . S
C272 C268 1.503 . S
C272 C273 1.379 . S
C272 C277 1.392 . S
C273 C272 1.379 . S
C273 C274 1.404 . S
C273 H287 0.929 . S
C274 C273 1.404 . S
C274 C275 1.389 . S
C275 C274 1.389 . S
C275 C276 1.399 . S
C275 H288 0.931 . S
C276 C275 1.399 . S
C276 C277 1.390 . S
C277 C272 1.392 . S
C277 C276 1.390 . S
C277 H289 0.929 . S
O278 Tb262 2.326 . S
O278 C266 1.242 . S
O279 Eu263 2.324 . S
O279 C266 1.258 . S
O280 Tb262 2.500 . S
O280 C282 1.273 . S
O281 Tb262 2.473 . S
O281 C282 1.257 . S
C282 O280 1.273 . S
C282 O281 1.257 . S
O283 Eu263 2.326 . S
O283 C271 1.242 . S
O284 Tb262 2.324 . S
O284 C271 1.258 . S
O285 Eu263 2.500 . S
O285 C268 1.273 . S
O286 Eu263 2.473 . S
O286 C268 1.257 . S
H287 C273 0.929 . S
H288 C275 0.931 . S
H289 C277 0.929 . S
O290 Tb291 2.292 . S
O290 C293 1.255 . S
Tb291 O290 2.292 . S
Tb291 O307 2.326 . S
Tb291 O309 2.500 . S
Tb291 O310 2.473 . S
Tb291 O313 2.324 . S
Eu292 O296 2.292 . S
Eu292 C297 2.852 . S
Eu292 O308 2.324 . S
Eu292 O312 2.326 . S
Eu292 O314 2.500 . S
Eu292 O315 2.473 . S
C293 O290 1.255 . S
C293 O294 1.247 . S
O294 C293 1.247 . S
C295 O307 1.242 . S
C295 O308 1.258 . S
O296 Eu292 2.292 . S
O296 C298 1.255 . S
C297 Eu292 2.852 . S
C297 C301 1.503 . S
C297 O314 1.273 . S
C297 O315 1.257 . S
C298 O296 1.255 . S
C298 O299 1.247 . S
O299 C298 1.247 . S
C300 O312 1.242 . S
C300 O313 1.258 . S
C301 C297 1.503 . S
C301 C302 1.379 . S
C301 C306 1.392 . S
C302 C301 1.379 . S
C302 C303 1.404 . S
C302 H316 0.929 . S
C303 C302 1.404 . S
C303 C304 1.389 . S
C304 C303 1.389 . S
C304 C305 1.399 . S
C304 H317 0.931 . S
C305 C304 1.399 . S
C305 C306 1.390 . S
C306 C301 1.392 . S
C306 C305 1.390 . S
C306 H318 0.929 . S
O307 Tb291 2.326 . S
O307 C295 1.242 . S
O308 Eu292 2.324 . S
O308 C295 1.258 . S
O309 Tb291 2.500 . S
O309 C311 1.273 . S
O310 Tb291 2.473 . S
O310 C311 1.257 . S
C311 O309 1.273 . S
C311 O310 1.257 . S
O312 Eu292 2.326 . S
O312 C300 1.242 . S
O313 Tb291 2.324 . S
O313 C300 1.258 . S
O314 Eu292 2.500 . S
O314 C297 1.273 . S
O315 Eu292 2.473 . S
O315 C297 1.257 . S
H316 C302 0.929 . S
H317 C304 0.931 . S
H318 C306 0.929 . S
O319 Tb320 2.292 . S
O319 C322 1.255 . S
Tb320 O319 2.292 . S
Tb320 O336 2.326 . S
Tb320 O338 2.500 . S
Tb320 O339 2.473 . S
Tb320 O342 2.324 . S
Eu321 O325 2.292 . S
Eu321 C326 2.852 . S
Eu321 O337 2.324 . S
Eu321 O341 2.326 . S
Eu321 O343 2.500 . S
Eu321 O344 2.473 . S
C322 O319 1.255 . S
C322 O323 1.247 . S
O323 C322 1.247 . S
C324 O336 1.242 . S
C324 O337 1.258 . S
O325 Eu321 2.292 . S
O325 C327 1.255 . S
C326 Eu321 2.852 . S
C326 C330 1.503 . S
C326 O343 1.273 . S
C326 O344 1.257 . S
C327 O325 1.255 . S
C327 O328 1.247 . S
O328 C327 1.247 . S
C329 O341 1.242 . S
C329 O342 1.258 . S
C330 C326 1.503 . S
C330 C331 1.379 . S
C330 C335 1.392 . S
C331 C330 1.379 . S
C331 C332 1.404 . S
C331 H345 0.929 . S
C332 C331 1.404 . S
C332 C333 1.389 . S
C333 C332 1.389 . S
C333 C334 1.399 . S
C333 H346 0.931 . S
C334 C333 1.399 . S
C334 C335 1.390 . S
C335 C330 1.392 . S
C335 C334 1.390 . S
C335 H347 0.929 . S
O336 Tb320 2.326 . S
O336 C324 1.242 . S
O337 Eu321 2.324 . S
O337 C324 1.258 . S
O338 Tb320 2.500 . S
O338 C340 1.273 . S
O339 Tb320 2.473 . S
O339 C340 1.257 . S
C340 O338 1.273 . S
C340 O339 1.257 . S
O341 Eu321 2.326 . S
O341 C329 1.242 . S
O342 Tb320 2.324 . S
O342 C329 1.258 . S
O343 Eu321 2.500 . S
O343 C326 1.273 . S
O344 Eu321 2.473 . S
O344 C326 1.257 . S
H345 C331 0.929 . S
H346 C333 0.931 . S
H347 C335 0.929 . S
O348 Tb349 2.292 . S
O348 C351 1.255 . S
Tb349 O348 2.292 . S
Tb349 O365 2.326 . S
Tb349 O367 2.500 . S
Tb349 O368 2.473 . S
Tb349 O371 2.324 . S
Eu350 O354 2.292 . S
Eu350 C355 2.852 . S
Eu350 O366 2.324 . S
Eu350 O370 2.326 . S
Eu350 O372 2.500 . S
Eu350 O373 2.473 . S
C351 O348 1.255 . S
C351 O352 1.247 . S
O352 C351 1.247 . S
C353 O365 1.242 . S
C353 O366 1.258 . S
O354 Eu350 2.292 . S
O354 C356 1.255 . S
C355 Eu350 2.852 . S
C355 C359 1.503 . S
C355 O372 1.273 . S
C355 O373 1.257 . S
C356 O354 1.255 . S
C356 O357 1.247 . S
O357 C356 1.247 . S
C358 O370 1.242 . S
C358 O371 1.258 . S
C359 C355 1.503 . S
C359 C360 1.379 . S
C359 C364 1.392 . S
C360 C359 1.379 . S
C360 C361 1.404 . S
C360 H374 0.929 . S
C361 C360 1.404 . S
C361 C362 1.389 . S
C362 C361 1.389 . S
C362 C363 1.399 . S
C362 H375 0.931 . S
C363 C362 1.399 . S
C363 C364 1.390 . S
C364 C359 1.392 . S
C364 C363 1.390 . S
C364 H376 0.929 . S
O365 Tb349 2.326 . S
O365 C353 1.242 . S
O366 Eu350 2.324 . S
O366 C353 1.258 . S
O367 Tb349 2.500 . S
O367 C369 1.273 . S
O368 Tb349 2.473 . S
O368 C369 1.257 . S
C369 O367 1.273 . S
C369 O368 1.257 . S
O370 Eu350 2.326 . S
O370 C358 1.242 . S
O371 Tb349 2.324 . S
O371 C358 1.258 . S
O372 Eu350 2.500 . S
O372 C355 1.273 . S
O373 Eu350 2.473 . S
O373 C355 1.257 . S
H374 C360 0.929 . S
H375 C362 0.931 . S
H376 C364 0.929 . S
O377 Tb378 2.292 . S
O377 C380 1.255 . S
Tb378 O377 2.292 . S
Tb378 O394 2.326 . S
Tb378 O396 2.500 . S
Tb378 O397 2.473 . S
Tb378 O400 2.324 . S
Eu379 O383 2.292 . S
Eu379 C384 2.852 . S
Eu379 O395 2.324 . S
Eu379 O399 2.326 . S
Eu379 O401 2.500 . S
Eu379 O402 2.473 . S
C380 O377 1.255 . S
C380 O381 1.247 . S
O381 C380 1.247 . S
C382 O394 1.242 . S
C382 O395 1.258 . S
O383 Eu379 2.292 . S
O383 C385 1.255 . S
C384 Eu379 2.852 . S
C384 C388 1.503 . S
C384 O401 1.273 . S
C384 O402 1.257 . S
C385 O383 1.255 . S
C385 O386 1.247 . S
O386 C385 1.247 . S
C387 O399 1.242 . S
C387 O400 1.258 . S
C388 C384 1.503 . S
C388 C389 1.379 . S
C388 C393 1.392 . S
C389 C388 1.379 . S
C389 C390 1.404 . S
C389 H403 0.929 . S
C390 C389 1.404 . S
C390 C391 1.389 . S
C391 C390 1.389 . S
C391 C392 1.399 . S
C391 H404 0.931 . S
C392 C391 1.399 . S
C392 C393 1.390 . S
C393 C388 1.392 . S
C393 C392 1.390 . S
C393 H405 0.929 . S
O394 Tb378 2.326 . S
O394 C382 1.242 . S
O395 Eu379 2.324 . S
O395 C382 1.258 . S
O396 Tb378 2.500 . S
O396 C398 1.273 . S
O397 Tb378 2.473 . S
O397 C398 1.257 . S
C398 O396 1.273 . S
C398 O397 1.257 . S
O399 Eu379 2.326 . S
O399 C387 1.242 . S
O400 Tb378 2.324 . S
O400 C387 1.258 . S
O401 Eu379 2.500 . S
O401 C384 1.273 . S
O402 Eu379 2.473 . S
O402 C384 1.257 . S
H403 C389 0.929 . S
H404 C391 0.931 . S
H405 C393 0.929 . S
O406 Tb407 2.292 . S
O406 C409 1.255 . S
Tb407 O406 2.292 . S
Tb407 O423 2.326 . S
Tb407 O425 2.500 . S
Tb407 O426 2.473 . S
Tb407 O429 2.324 . S
Eu408 O412 2.292 . S
Eu408 C413 2.852 . S
Eu408 O424 2.324 . S
Eu408 O428 2.326 . S
Eu408 O430 2.500 . S
Eu408 O431 2.473 . S
C409 O406 1.255 . S
C409 O410 1.247 . S
O410 C409 1.247 . S
C411 O423 1.242 . S
C411 O424 1.258 . S
O412 Eu408 2.292 . S
O412 C414 1.255 . S
C413 Eu408 2.852 . S
C413 C417 1.503 . S
C413 O430 1.273 . S
C413 O431 1.257 . S
C414 O412 1.255 . S
C414 O415 1.247 . S
O415 C414 1.247 . S
C416 O428 1.242 . S
C416 O429 1.258 . S
C417 C413 1.503 . S
C417 C418 1.379 . S
C417 C422 1.392 . S
C418 C417 1.379 . S
C418 C419 1.404 . S
C418 H432 0.929 . S
C419 C418 1.404 . S
C419 C420 1.389 . S
C420 C419 1.389 . S
C420 C421 1.399 . S
C420 H433 0.931 . S
C421 C420 1.399 . S
C421 C422 1.390 . S
C422 C417 1.392 . S
C422 C421 1.390 . S
C422 H434 0.929 . S
O423 Tb407 2.326 . S
O423 C411 1.242 . S
O424 Eu408 2.324 . S
O424 C411 1.258 . S
O425 Tb407 2.500 . S
O425 C427 1.273 . S
O426 Tb407 2.473 . S
O426 C427 1.257 . S
C427 O425 1.273 . S
C427 O426 1.257 . S
O428 Eu408 2.326 . S
O428 C416 1.242 . S
O429 Tb407 2.324 . S
O429 C416 1.258 . S
O430 Eu408 2.500 . S
O430 C413 1.273 . S
O431 Eu408 2.473 . S
O431 C413 1.257 . S
H432 C418 0.929 . S
H433 C420 0.931 . S
H434 C422 0.929 . S
O435 Tb436 2.292 . S
O435 C438 1.255 . S
Tb436 O435 2.292 . S
Tb436 O452 2.326 . S
Tb436 O454 2.500 . S
Tb436 O455 2.473 . S
Tb436 O458 2.324 . S
Eu437 O441 2.292 . S
Eu437 C442 2.852 . S
Eu437 O453 2.324 . S
Eu437 O457 2.326 . S
Eu437 O459 2.500 . S
Eu437 O460 2.473 . S
C438 O435 1.255 . S
C438 O439 1.247 . S
O439 C438 1.247 . S
C440 O452 1.242 . S
C440 O453 1.258 . S
O441 Eu437 2.292 . S
O441 C443 1.255 . S
C442 Eu437 2.852 . S
C442 C446 1.503 . S
C442 O459 1.273 . S
C442 O460 1.257 . S
C443 O441 1.255 . S
C443 O444 1.247 . S
O444 C443 1.247 . S
C445 O457 1.242 . S
C445 O458 1.258 . S
C446 C442 1.503 . S
C446 C447 1.379 . S
C446 C451 1.392 . S
C447 C446 1.379 . S
C447 C448 1.404 . S
C447 H461 0.929 . S
C448 C447 1.404 . S
C448 C449 1.389 . S
C449 C448 1.389 . S
C449 C450 1.399 . S
C449 H462 0.931 . S
C450 C449 1.399 . S
C450 C451 1.390 . S
C451 C446 1.392 . S
C451 C450 1.390 . S
C451 H463 0.929 . S
O452 Tb436 2.326 . S
O452 C440 1.242 . S
O453 Eu437 2.324 . S
O453 C440 1.258 . S
O454 Tb436 2.500 . S
O454 C456 1.273 . S
O455 Tb436 2.473 . S
O455 C456 1.257 . S
C456 O454 1.273 . S
C456 O455 1.257 . S
O457 Eu437 2.326 . S
O457 C445 1.242 . S
O458 Tb436 2.324 . S
O458 C445 1.258 . S
O459 Eu437 2.500 . S
O459 C442 1.273 . S
O460 Eu437 2.473 . S
O460 C442 1.257 . S
H461 C447 0.929 . S
H462 C449 0.931 . S
H463 C451 0.929 . S
O464 Tb465 2.292 . S
O464 C467 1.255 . S
Tb465 O464 2.292 . S
Tb465 O481 2.326 . S
Tb465 O483 2.500 . S
Tb465 O484 2.473 . S
Tb465 O487 2.324 . S
Eu466 O470 2.292 . S
Eu466 C471 2.852 . S
Eu466 O482 2.324 . S
Eu466 O486 2.326 . S
Eu466 O488 2.500 . S
Eu466 O489 2.473 . S
C467 O464 1.255 . S
C467 O468 1.247 . S
O468 C467 1.247 . S
C469 O481 1.242 . S
C469 O482 1.258 . S
O470 Eu466 2.292 . S
O470 C472 1.255 . S
C471 Eu466 2.852 . S
C471 C475 1.503 . S
C471 O488 1.273 . S
C471 O489 1.257 . S
C472 O470 1.255 . S
C472 O473 1.247 . S
O473 C472 1.247 . S
C474 O486 1.242 . S
C474 O487 1.258 . S
C475 C471 1.503 . S
C475 C476 1.379 . S
C475 C480 1.392 . S
C476 C475 1.379 . S
C476 C477 1.404 . S
C476 H490 0.929 . S
C477 C476 1.404 . S
C477 C478 1.389 . S
C478 C477 1.389 . S
C478 C479 1.399 . S
C478 H491 0.931 . S
C479 C478 1.399 . S
C479 C480 1.390 . S
C480 C475 1.392 . S
C480 C479 1.390 . S
C480 H492 0.929 . S
O481 Tb465 2.326 . S
O481 C469 1.242 . S
O482 Eu466 2.324 . S
O482 C469 1.258 . S
O483 Tb465 2.500 . S
O483 C485 1.273 . S
O484 Tb465 2.473 . S
O484 C485 1.257 . S
C485 O483 1.273 . S
C485 O484 1.257 . S
O486 Eu466 2.326 . S
O486 C474 1.242 . S
O487 Tb465 2.324 . S
O487 C474 1.258 . S
O488 Eu466 2.500 . S
O488 C471 1.273 . S
O489 Eu466 2.473 . S
O489 C471 1.257 . S
H490 C476 0.929 . S
H491 C478 0.931 . S
H492 C480 0.929 . S
O493 Tb494 2.292 . S
O493 C496 1.255 . S
Tb494 O493 2.292 . S
Tb494 O510 2.326 . S
Tb494 O512 2.500 . S
Tb494 O513 2.473 . S
Tb494 O516 2.324 . S
Eu495 O499 2.292 . S
Eu495 C500 2.852 . S
Eu495 O511 2.324 . S
Eu495 O515 2.326 . S
Eu495 O517 2.500 . S
Eu495 O518 2.473 . S
C496 O493 1.255 . S
C496 O497 1.247 . S
O497 C496 1.247 . S
C498 O510 1.242 . S
C498 O511 1.258 . S
O499 Eu495 2.292 . S
O499 C501 1.255 . S
C500 Eu495 2.852 . S
C500 C504 1.503 . S
C500 O517 1.273 . S
C500 O518 1.257 . S
C501 O499 1.255 . S
C501 O502 1.247 . S
O502 C501 1.247 . S
C503 O515 1.242 . S
C503 O516 1.258 . S
C504 C500 1.503 . S
C504 C505 1.379 . S
C504 C509 1.392 . S
C505 C504 1.379 . S
C505 C506 1.404 . S
C505 H519 0.929 . S
C506 C505 1.404 . S
C506 C507 1.389 . S
C507 C506 1.389 . S
C507 C508 1.399 . S
C507 H520 0.931 . S
C508 C507 1.399 . S
C508 C509 1.390 . S
C509 C504 1.392 . S
C509 C508 1.390 . S
C509 H521 0.929 . S
O510 Tb494 2.326 . S
O510 C498 1.242 . S
O511 Eu495 2.324 . S
O511 C498 1.258 . S
O512 Tb494 2.500 . S
O512 C514 1.273 . S
O513 Tb494 2.473 . S
O513 C514 1.257 . S
C514 O512 1.273 . S
C514 O513 1.257 . S
O515 Eu495 2.326 . S
O515 C503 1.242 . S
O516 Tb494 2.324 . S
O516 C503 1.258 . S
O517 Eu495 2.500 . S
O517 C500 1.273 . S
O518 Eu495 2.473 . S
O518 C500 1.257 . S
H519 C505 0.929 . S
H520 C507 0.931 . S
H521 C509 0.929 . S
O522 Tb523 2.292 . S
O522 C525 1.255 . S
Tb523 O522 2.292 . S
Tb523 O539 2.326 . S
Tb523 O541 2.500 . S
Tb523 O542 2.473 . S
Tb523 O545 2.324 . S
Eu524 O528 2.292 . S
Eu524 C529 2.852 . S
Eu524 O540 2.324 . S
Eu524 O544 2.326 . S
Eu524 O546 2.500 . S
Eu524 O547 2.473 . S
C525 O522 1.255 . S
C525 O526 1.247 . S
O526 C525 1.247 . S
C527 O539 1.242 . S
C527 O540 1.258 . S
O528 Eu524 2.292 . S
O528 C530 1.255 . S
C529 Eu524 2.852 . S
C529 C533 1.503 . S
C529 O546 1.273 . S
C529 O547 1.257 . S
C530 O528 1.255 . S
C530 O531 1.247 . S
O531 C530 1.247 . S
C532 O544 1.242 . S
C532 O545 1.258 . S
C533 C529 1.503 . S
C533 C534 1.379 . S
C533 C538 1.392 . S
C534 C533 1.379 . S
C534 C535 1.404 . S
C534 H548 0.929 . S
C535 C534 1.404 . S
C535 C536 1.389 . S
C536 C535 1.389 . S
C536 C537 1.399 . S
C536 H549 0.931 . S
C537 C536 1.399 . S
C537 C538 1.390 . S
C538 C533 1.392 . S
C538 C537 1.390 . S
C538 H550 0.929 . S
O539 Tb523 2.326 . S
O539 C527 1.242 . S
O540 Eu524 2.324 . S
O540 C527 1.258 . S
O541 Tb523 2.500 . S
O541 C543 1.273 . S
O542 Tb523 2.473 . S
O542 C543 1.257 . S
C543 O541 1.273 . S
C543 O542 1.257 . S
O544 Eu524 2.326 . S
O544 C532 1.242 . S
O545 Tb523 2.324 . S
O545 C532 1.258 . S
O546 Eu524 2.500 . S
O546 C529 1.273 . S
O547 Eu524 2.473 . S
O547 C529 1.257 . S
H548 C534 0.929 . S
H549 C536 0.931 . S
H550 C538 0.929 . S
O551 Tb552 2.292 . S
O551 C554 1.255 . S
Tb552 O551 2.292 . S
Tb552 O568 2.326 . S
Tb552 O570 2.500 . S
Tb552 O571 2.473 . S
Tb552 O574 2.324 . S
Eu553 O557 2.292 . S
Eu553 C558 2.852 . S
Eu553 O569 2.324 . S
Eu553 O573 2.326 . S
Eu553 O575 2.500 . S
Eu553 O576 2.473 . S
C554 O551 1.255 . S
C554 O555 1.247 . S
O555 C554 1.247 . S
C556 O568 1.242 . S
C556 O569 1.258 . S
O557 Eu553 2.292 . S
O557 C559 1.255 . S
C558 Eu553 2.852 . S
C558 C562 1.503 . S
C558 O575 1.273 . S
C558 O576 1.257 . S
C559 O557 1.255 . S
C559 O560 1.247 . S
O560 C559 1.247 . S
C561 O573 1.242 . S
C561 O574 1.258 . S
C562 C558 1.503 . S
C562 C563 1.379 . S
C562 C567 1.392 . S
C563 C562 1.379 . S
C563 C564 1.404 . S
C563 H577 0.929 . S
C564 C563 1.404 . S
C564 C565 1.389 . S
C565 C564 1.389 . S
C565 C566 1.399 . S
C565 H578 0.931 . S
C566 C565 1.399 . S
C566 C567 1.390 . S
C567 C562 1.392 . S
C567 C566 1.390 . S
C567 H579 0.929 . S
O568 Tb552 2.326 . S
O568 C556 1.242 . S
O569 Eu553 2.324 . S
O569 C556 1.258 . S
O570 Tb552 2.500 . S
O570 C572 1.273 . S
O571 Tb552 2.473 . S
O571 C572 1.257 . S
C572 O570 1.273 . S
C572 O571 1.257 . S
O573 Eu553 2.326 . S
O573 C561 1.242 . S
O574 Tb552 2.324 . S
O574 C561 1.258 . S
O575 Eu553 2.500 . S
O575 C558 1.273 . S
O576 Eu553 2.473 . S
O576 C558 1.257 . S
H577 C563 0.929 . S
H578 C565 0.931 . S
H579 C567 0.929 . S
O580 Tb581 2.292 . S
O580 C583 1.255 . S
Tb581 O580 2.292 . S
Tb581 O597 2.326 . S
Tb581 O599 2.500 . S
Tb581 O600 2.473 . S
Tb581 O603 2.324 . S
Eu582 O586 2.292 . S
Eu582 C587 2.852 . S
Eu582 O598 2.324 . S
Eu582 O602 2.326 . S
Eu582 O604 2.500 . S
Eu582 O605 2.473 . S
C583 O580 1.255 . S
C583 O584 1.247 . S
O584 C583 1.247 . S
C585 O597 1.242 . S
C585 O598 1.258 . S
O586 Eu582 2.292 . S
O586 C588 1.255 . S
C587 Eu582 2.852 . S
C587 C591 1.503 . S
C587 O604 1.273 . S
C587 O605 1.257 . S
C588 O586 1.255 . S
C588 O589 1.247 . S
O589 C588 1.247 . S
C590 O602 1.242 . S
C590 O603 1.258 . S
C591 C587 1.503 . S
C591 C592 1.379 . S
C591 C596 1.392 . S
C592 C591 1.379 . S
C592 C593 1.404 . S
C592 H606 0.929 . S
C593 C592 1.404 . S
C593 C594 1.389 . S
C594 C593 1.389 . S
C594 C595 1.399 . S
C594 H607 0.931 . S
C595 C594 1.399 . S
C595 C596 1.390 . S
C596 C591 1.392 . S
C596 C595 1.390 . S
C596 H608 0.929 . S
O597 Tb581 2.326 . S
O597 C585 1.242 . S
O598 Eu582 2.324 . S
O598 C585 1.258 . S
O599 Tb581 2.500 . S
O599 C601 1.273 . S
O600 Tb581 2.473 . S
O600 C601 1.257 . S
C601 O599 1.273 . S
C601 O600 1.257 . S
O602 Eu582 2.326 . S
O602 C590 1.242 . S
O603 Tb581 2.324 . S
O603 C590 1.258 . S
O604 Eu582 2.500 . S
O604 C587 1.273 . S
O605 Eu582 2.473 . S
O605 C587 1.257 . S
H606 C592 0.929 . S
H607 C594 0.931 . S
H608 C596 0.929 . S
O609 Tb610 2.292 . S
O609 C612 1.255 . S
Tb610 O609 2.292 . S
Tb610 O626 2.326 . S
Tb610 O628 2.500 . S
Tb610 O629 2.473 . S
Tb610 O632 2.324 . S
Eu611 O615 2.292 . S
Eu611 C616 2.852 . S
Eu611 O627 2.324 . S
Eu611 O631 2.326 . S
Eu611 O633 2.500 . S
Eu611 O634 2.473 . S
C612 O609 1.255 . S
C612 O613 1.247 . S
O613 C612 1.247 . S
C614 O626 1.242 . S
C614 O627 1.258 . S
O615 Eu611 2.292 . S
O615 C617 1.255 . S
C616 Eu611 2.852 . S
C616 C620 1.503 . S
C616 O633 1.273 . S
C616 O634 1.257 . S
C617 O615 1.255 . S
C617 O618 1.247 . S
O618 C617 1.247 . S
C619 O631 1.242 . S
C619 O632 1.258 . S
C620 C616 1.503 . S
C620 C621 1.379 . S
C620 C625 1.392 . S
C621 C620 1.379 . S
C621 C622 1.404 . S
C621 H635 0.929 . S
C622 C621 1.404 . S
C622 C623 1.389 . S
C623 C622 1.389 . S
C623 C624 1.399 . S
C623 H636 0.931 . S
C624 C623 1.399 . S
C624 C625 1.390 . S
C625 C620 1.392 . S
C625 C624 1.390 . S
C625 H637 0.929 . S
O626 Tb610 2.326 . S
O626 C614 1.242 . S
O627 Eu611 2.324 . S
O627 C614 1.258 . S
O628 Tb610 2.500 . S
O628 C630 1.273 . S
O629 Tb610 2.473 . S
O629 C630 1.257 . S
C630 O628 1.273 . S
C630 O629 1.257 . S
O631 Eu611 2.326 . S
O631 C619 1.242 . S
O632 Tb610 2.324 . S
O632 C619 1.258 . S
O633 Eu611 2.500 . S
O633 C616 1.273 . S
O634 Eu611 2.473 . S
O634 C616 1.257 . S
H635 C621 0.929 . S
H636 C623 0.931 . S
H637 C625 0.929 . S
O638 Tb639 2.292 . S
O638 C641 1.255 . S
Tb639 O638 2.292 . S
Tb639 O655 2.326 . S
Tb639 O657 2.500 . S
Tb639 O658 2.473 . S
Tb639 O661 2.324 . S
Eu640 O644 2.292 . S
Eu640 C645 2.852 . S
Eu640 O656 2.324 . S
Eu640 O660 2.326 . S
Eu640 O662 2.500 . S
Eu640 O663 2.473 . S
C641 O638 1.255 . S
C641 O642 1.247 . S
O642 C641 1.247 . S
C643 O655 1.242 . S
C643 O656 1.258 . S
O644 Eu640 2.292 . S
O644 C646 1.255 . S
C645 Eu640 2.852 . S
C645 C649 1.503 . S
C645 O662 1.273 . S
C645 O663 1.257 . S
C646 O644 1.255 . S
C646 O647 1.247 . S
O647 C646 1.247 . S
C648 O660 1.242 . S
C648 O661 1.258 . S
C649 C645 1.503 . S
C649 C650 1.379 . S
C649 C654 1.392 . S
C650 C649 1.379 . S
C650 C651 1.404 . S
C650 H664 0.929 . S
C651 C650 1.404 . S
C651 C652 1.389 . S
C652 C651 1.389 . S
C652 C653 1.399 . S
C652 H665 0.931 . S
C653 C652 1.399 . S
C653 C654 1.390 . S
C654 C649 1.392 . S
C654 C653 1.390 . S
C654 H666 0.929 . S
O655 Tb639 2.326 . S
O655 C643 1.242 . S
O656 Eu640 2.324 . S
O656 C643 1.258 . S
O657 Tb639 2.500 . S
O657 C659 1.273 . S
O658 Tb639 2.473 . S
O658 C659 1.257 . S
C659 O657 1.273 . S
C659 O658 1.257 . S
O660 Eu640 2.326 . S
O660 C648 1.242 . S
O661 Tb639 2.324 . S
O661 C648 1.258 . S
O662 Eu640 2.500 . S
O662 C645 1.273 . S
O663 Eu640 2.473 . S
O663 C645 1.257 . S
H664 C650 0.929 . S
H665 C652 0.931 . S
H666 C654 0.929 . S
O667 Tb668 2.292 . S
O667 C670 1.255 . S
Tb668 O667 2.292 . S
Tb668 O684 2.326 . S
Tb668 O686 2.500 . S
Tb668 O687 2.473 . S
Tb668 O690 2.324 . S
Eu669 O673 2.292 . S
Eu669 C674 2.852 . S
Eu669 O685 2.324 . S
Eu669 O689 2.326 . S
Eu669 O691 2.500 . S
Eu669 O692 2.473 . S
C670 O667 1.255 . S
C670 O671 1.247 . S
O671 C670 1.247 . S
C672 O684 1.242 . S
C672 O685 1.258 . S
O673 Eu669 2.292 . S
O673 C675 1.255 . S
C674 Eu669 2.852 . S
C674 C678 1.503 . S
C674 O691 1.273 . S
C674 O692 1.257 . S
C675 O673 1.255 . S
C675 O676 1.247 . S
O676 C675 1.247 . S
C677 O689 1.242 . S
C677 O690 1.258 . S
C678 C674 1.503 . S
C678 C679 1.379 . S
C678 C683 1.392 . S
C679 C678 1.379 . S
C679 C680 1.404 . S
C679 H693 0.929 . S
C680 C679 1.404 . S
C680 C681 1.389 . S
C681 C680 1.389 . S
C681 C682 1.399 . S
C681 H694 0.931 . S
C682 C681 1.399 . S
C682 C683 1.390 . S
C683 C678 1.392 . S
C683 C682 1.390 . S
C683 H695 0.929 . S
O684 Tb668 2.326 . S
O684 C672 1.242 . S
O685 Eu669 2.324 . S
O685 C672 1.258 . S
O686 Tb668 2.500 . S
O686 C688 1.273 . S
O687 Tb668 2.473 . S
O687 C688 1.257 . S
C688 O686 1.273 . S
C688 O687 1.257 . S
O689 Eu669 2.326 . S
O689 C677 1.242 . S
O690 Tb668 2.324 . S
O690 C677 1.258 . S
O691 Eu669 2.500 . S
O691 C674 1.273 . S
O692 Eu669 2.473 . S
O692 C674 1.257 . S
H693 C679 0.929 . S
H694 C681 0.931 . S
H695 C683 0.929 . S
H696 C708 0.930 . S
H697 C710 0.930 . S
H698 C711 0.930 . S
H699 C715 0.959 . S
H700 C715 0.959 . S
H701 C715 0.961 . S
H702 C716 0.960 . S
H703 C716 0.961 . S
H704 C716 0.959 . S
H705 C719 0.929 . S
H706 C720 0.931 . S
H707 C722 0.930 . S
C708 H696 0.930 . S
C708 C709 1.399 . S
C708 C713 1.399 1_545 S
C709 C708 1.399 . S
C709 C710 1.376 . S
C710 H697 0.930 . S
C710 C709 1.376 . S
C710 C711 1.388 1_545 S
C711 H698 0.930 . S
C711 C710 1.388 1_565 S
C711 C712 1.390 . S
C712 C711 1.390 . S
C712 C713 1.394 . S
C712 C718 1.465 . S
C713 C708 1.399 1_565 S
C713 C712 1.394 . S
C713 C714 1.516 . S
C714 C713 1.516 . S
C714 C715 1.502 . S
C714 C716 1.561 . S
C714 C717 1.526 . S
C715 H699 0.959 . S
C715 H700 0.959 . S
C715 H701 0.961 . S
C715 C714 1.502 . S
C716 H702 0.960 . S
C716 H703 0.961 . S
C716 H704 0.959 . S
C716 C714 1.561 . S
C717 C714 1.526 . S
C717 C718 1.396 . S
C717 C722 1.390 . S
C718 C712 1.465 . S
C718 C717 1.396 . S
C718 C719 1.399 . S
C719 H705 0.929 . S
C719 C718 1.399 . S
C719 C720 1.385 . S
C720 H706 0.931 . S
C720 C719 1.385 . S
C720 C721 1.389 . S
C721 C720 1.389 . S
C721 C722 1.387 . S
C722 H707 0.930 . S
C722 C717 1.390 . S
C722 C721 1.387 . S
H723 C735 0.930 . S
H724 C737 0.930 . S
H725 C738 0.930 . S
H726 C742 0.959 . S
H727 C742 0.959 . S
H728 C742 0.961 . S
H729 C743 0.960 . S
H730 C743 0.961 . S
H731 C743 0.959 . S
H732 C746 0.929 . S
H733 C747 0.931 . S
H734 C749 0.930 . S
C735 H723 0.930 . S
C735 C736 1.399 . S
C735 C740 1.399 . S
C736 C735 1.399 . S
C736 C737 1.376 . S
C737 H724 0.930 . S
C737 C736 1.376 . S
C737 C738 1.388 . S
C738 H725 0.930 . S
C738 C737 1.388 . S
C738 C739 1.390 . S
C739 C738 1.390 . S
C739 C740 1.394 . S
C739 C745 1.465 . S
C740 C735 1.399 . S
C740 C739 1.394 . S
C740 C741 1.516 . S
C741 C740 1.516 . S
C741 C742 1.502 . S
C741 C743 1.561 . S
C741 C744 1.526 . S
C742 H726 0.959 . S
C742 H727 0.959 . S
C742 H728 0.961 . S
C742 C741 1.502 . S
C743 H729 0.960 . S
C743 H730 0.961 . S
C743 H731 0.959 . S
C743 C741 1.561 . S
C744 C741 1.526 . S
C744 C745 1.396 . S
C744 C749 1.390 . S
C745 C739 1.465 . S
C745 C744 1.396 . S
C745 C746 1.399 . S
C746 H732 0.929 . S
C746 C745 1.399 . S
C746 C747 1.385 . S
C747 H733 0.931 . S
C747 C746 1.385 . S
C747 C748 1.389 . S
C748 C747 1.389 . S
C748 C749 1.387 . S
C749 H734 0.930 . S
C749 C744 1.390 . S
C749 C748 1.387 . S
H750 C762 0.921 1_655 S
H751 C764 0.930 . S
H752 C765 0.930 . S
H753 C769 0.959 . S
H754 C769 0.959 . S
H755 C769 0.961 . S
H756 C770 0.960 . S
H757 C770 0.961 . S
H758 C770 0.959 . S
H759 C773 0.929 . S
H760 C774 0.931 . S
H761 C776 0.930 . S
C762 H750 0.921 1_455 S
C762 C763 1.399 1_455 S
C762 C767 1.399 . S
C763 C762 1.399 1_655 S
C763 C764 1.376 . S
C764 H751 0.930 . S
C764 C763 1.376 . S
C764 C765 1.388 1_655 S
C765 H752 0.930 . S
C765 C764 1.388 1_455 S
C765 C766 1.390 . S
C766 C765 1.390 . S
C766 C767 1.394 . S
C766 C772 1.465 . S
C767 C762 1.399 . S
C767 C766 1.394 . S
C767 C768 1.516 . S
C768 C767 1.516 . S
C768 C769 1.502 . S
C768 C770 1.561 . S
C768 C771 1.526 . S
C769 H753 0.959 . S
C769 H754 0.959 . S
C769 H755 0.961 . S
C769 C768 1.502 . S
C770 H756 0.960 . S
C770 H757 0.961 . S
C770 H758 0.959 . S
C770 C768 1.561 . S
C771 C768 1.526 . S
C771 C772 1.396 . S
C771 C776 1.390 . S
C772 C766 1.465 . S
C772 C771 1.396 . S
C772 C773 1.399 . S
C773 H759 0.929 . S
C773 C772 1.399 . S
C773 C774 1.385 . S
C774 H760 0.931 . S
C774 C773 1.385 . S
C774 C775 1.389 . S
C775 C774 1.389 . S
C775 C776 1.387 . S
C776 H761 0.930 . S
C776 C771 1.390 . S
C776 C775 1.387 . S
H777 C789 0.930 . S
H778 C791 0.930 . S
H779 C792 0.930 . S
H780 C796 0.959 . S
H781 C796 0.959 . S
H782 C796 0.961 . S
H783 C797 0.960 . S
H784 C797 0.961 . S
H785 C797 0.959 . S
H786 C800 0.929 . S
H787 C801 0.931 . S
H788 C803 0.930 . S
C789 H777 0.930 . S
C789 C790 1.399 . S
C789 C794 1.399 . S
C790 C789 1.399 . S
C790 C791 1.376 . S
C791 H778 0.930 . S
C791 C790 1.376 . S
C791 C792 1.388 . S
C792 H779 0.930 . S
C792 C791 1.388 . S
C792 C793 1.390 . S
C793 C792 1.390 . S
C793 C794 1.394 . S
C793 C799 1.465 . S
C794 C789 1.399 . S
C794 C793 1.394 . S
C794 C795 1.516 . S
C795 C794 1.516 . S
C795 C796 1.502 . S
C795 C797 1.561 . S
C795 C798 1.526 . S
C796 H780 0.959 . S
C796 H781 0.959 . S
C796 H782 0.961 . S
C796 C795 1.502 . S
C797 H783 0.960 . S
C797 H784 0.961 . S
C797 H785 0.959 . S
C797 C795 1.561 . S
C798 C795 1.526 . S
C798 C799 1.396 . S
C798 C803 1.390 1_545 S
C799 C793 1.465 . S
C799 C798 1.396 . S
C799 C800 1.399 . S
C800 H786 0.929 . S
C800 C799 1.399 . S
C800 C801 1.385 1_545 S
C801 H787 0.931 . S
C801 C800 1.385 1_565 S
C801 C802 1.389 . S
C802 C801 1.389 . S
C802 C803 1.387 . S
C803 H788 0.930 . S
C803 C798 1.390 1_565 S
C803 C802 1.387 . S
H804 C816 0.930 . S
H805 C818 0.930 . S
H806 C819 0.930 . S
H807 C823 0.959 . S
H808 C823 0.959 . S
H809 C823 0.961 . S
H810 C824 0.960 . S
H811 C824 0.961 . S
H812 C824 0.959 . S
H813 C827 0.929 . S
H814 C828 0.931 . S
H815 C830 0.930 . S
C816 H804 0.930 . S
C816 C817 1.399 . S
C816 C821 1.399 . S
C817 C816 1.399 . S
C817 C818 1.376 . S
C818 H805 0.930 . S
C818 C817 1.376 . S
C818 C819 1.388 . S
C819 H806 0.930 . S
C819 C818 1.388 . S
C819 C820 1.390 . S
C820 C819 1.390 . S
C820 C821 1.394 . S
C820 C826 1.465 . S
C821 C816 1.399 . S
C821 C820 1.394 . S
C821 C822 1.516 . S
C822 C821 1.516 . S
C822 C823 1.502 . S
C822 C824 1.561 . S
C822 C825 1.526 . S
C823 H807 0.959 . S
C823 H808 0.959 . S
C823 H809 0.961 . S
C823 C822 1.502 . S
C824 H810 0.960 . S
C824 H811 0.961 . S
C824 H812 0.959 . S
C824 C822 1.561 . S
C825 C822 1.526 . S
C825 C826 1.396 . S
C825 C830 1.390 . S
C826 C820 1.465 . S
C826 C825 1.396 . S
C826 C827 1.399 . S
C827 H813 0.929 . S
C827 C826 1.399 . S
C827 C828 1.385 . S
C828 H814 0.931 . S
C828 C827 1.385 . S
C828 C829 1.389 . S
C829 C828 1.389 . S
C829 C830 1.387 . S
C830 H815 0.930 . S
C830 C825 1.390 . S
C830 C829 1.387 . S
H831 C843 0.946 . S
H832 C845 0.930 . S
H833 C846 0.930 . S
H834 C850 0.959 . S
H835 C850 0.959 . S
H836 C850 0.961 . S
H837 C851 0.960 . S
H838 C851 0.961 . S
H839 C851 0.959 . S
H840 C854 0.929 . S
H841 C855 0.931 . S
H842 C857 0.930 . S
C843 H831 0.946 . S
C843 C844 1.416 . S
C843 C848 1.366 1_455 S
C844 C843 1.416 . S
C844 C845 1.376 . S
C845 H832 0.930 . S
C845 C844 1.376 . S
C845 C846 1.388 1_455 S
C846 H833 0.930 . S
C846 C845 1.388 1_655 S
C846 C847 1.390 . S
C847 C846 1.390 . S
C847 C848 1.394 . S
C847 C853 1.465 . S
C848 C843 1.366 1_655 S
C848 C847 1.394 . S
C848 C849 1.516 . S
C849 C848 1.516 . S
C849 C850 1.502 . S
C849 C851 1.561 . S
C849 C852 1.526 . S
C850 H834 0.959 . S
C850 H835 0.959 . S
C850 H836 0.961 . S
C850 C849 1.502 . S
C851 H837 0.960 . S
C851 H838 0.961 . S
C851 H839 0.959 . S
C851 C849 1.561 . S
C852 C849 1.526 . S
C852 C853 1.396 . S
C852 C857 1.390 . S
C853 C847 1.465 . S
C853 C852 1.396 . S
C853 C854 1.399 . S
C854 H840 0.929 . S
C854 C853 1.399 . S
C854 C855 1.385 . S
C855 H841 0.931 . S
C855 C854 1.385 . S
C855 C856 1.389 . S
C856 C855 1.389 . S
C856 C857 1.387 . S
C857 H842 0.930 . S
C857 C852 1.390 . S
C857 C856 1.387 . S
H858 C870 0.930 . S
H859 C872 0.930 . S
H860 C873 0.930 . S
H861 C877 0.959 . S
H862 C877 0.959 . S
H863 C877 0.961 . S
H864 C878 0.960 . S
H865 C878 0.961 . S
H866 C878 0.959 . S
H867 C881 0.929 . S
H868 C882 0.931 . S
H869 C884 0.930 . S
C870 H858 0.930 . S
C870 C871 1.399 . S
C870 C875 1.399 . S
C871 C870 1.399 . S
C871 C872 1.376 . S
C872 H859 0.930 . S
C872 C871 1.376 . S
C872 C873 1.388 . S
C873 H860 0.930 . S
C873 C872 1.388 . S
C873 C874 1.390 . S
C874 C873 1.390 . S
C874 C875 1.394 . S
C874 C880 1.465 . S
C875 C870 1.399 . S
C875 C874 1.394 . S
C875 C876 1.516 . S
C876 C875 1.516 . S
C876 C877 1.502 . S
C876 C878 1.561 . S
C876 C879 1.526 . S
C877 H861 0.959 . S
C877 H862 0.959 . S
C877 H863 0.961 . S
C877 C876 1.502 . S
C878 H864 0.960 . S
C878 H865 0.961 . S
C878 H866 0.959 . S
C878 C876 1.561 . S
C879 C876 1.526 . S
C879 C880 1.396 . S
C879 C884 1.390 1_455 S
C880 C874 1.465 . S
C880 C879 1.396 . S
C880 C881 1.399 . S
C881 H867 0.929 . S
C881 C880 1.399 . S
C881 C882 1.385 1_455 S
C882 H868 0.931 . S
C882 C881 1.385 1_655 S
C882 C883 1.389 . S
C883 C882 1.389 . S
C883 C884 1.387 . S
C884 H869 0.930 . S
C884 C879 1.390 1_655 S
C884 C883 1.387 . S
H885 C897 0.930 . S
H886 C899 0.930 . S
H887 C900 0.930 . S
H888 C904 0.959 . S
H889 C904 0.959 . S
H890 C904 0.961 . S
H891 C905 0.960 . S
H892 C905 0.961 . S
H893 C905 0.959 . S
H894 C908 0.929 . S
H895 C909 0.931 . S
H896 C911 0.909 1_565 S
C897 H885 0.930 . S
C897 C898 1.399 . S
C897 C902 1.399 . S
C898 C897 1.399 . S
C898 C899 1.376 . S
C899 H886 0.930 . S
C899 C898 1.376 . S
C899 C900 1.388 . S
C900 H887 0.930 . S
C900 C899 1.388 . S
C900 C901 1.390 . S
C901 C900 1.390 . S
C901 C902 1.394 . S
C901 C907 1.465 . S
C902 C897 1.399 . S
C902 C901 1.394 . S
C902 C903 1.516 . S
C903 C902 1.516 . S
C903 C904 1.502 . S
C903 C905 1.561 . S
C903 C906 1.526 . S
C904 H888 0.959 . S
C904 H889 0.959 . S
C904 H890 0.961 . S
C904 C903 1.502 . S
C905 H891 0.960 . S
C905 H892 0.961 . S
C905 H893 0.959 . S
C905 C903 1.561 . S
C906 C903 1.526 . S
C906 C907 1.396 . S
C906 C911 1.390 . S
C907 C901 1.465 . S
C907 C906 1.396 . S
C907 C908 1.399 . S
C908 H894 0.929 . S
C908 C907 1.399 . S
C908 C909 1.385 1_545 S
C909 H895 0.931 . S
C909 C908 1.385 1_565 S
C909 C910 1.389 . S
C910 C909 1.389 . S
C910 C911 1.387 1_565 S
C911 H896 0.909 1_545 S
C911 C906 1.390 . S
C911 C910 1.387 1_545 S
H912 C924 0.930 . S
H913 C926 0.930 . S
H914 C927 0.930 . S
H915 C931 0.959 . S
H916 C931 0.959 . S
H917 C931 0.961 . S
H918 C932 0.960 . S
H919 C932 0.961 . S
H920 C932 0.959 . S
H921 C935 0.929 . S
H922 C936 0.931 . S
H923 C938 0.930 . S
C924 H912 0.930 . S
C924 C925 1.399 . S
C924 C929 1.399 . S
C925 C924 1.399 . S
C925 C926 1.376 . S
C926 H913 0.930 . S
C926 C925 1.376 . S
C926 C927 1.388 . S
C927 H914 0.930 . S
C927 C926 1.388 . S
C927 C928 1.390 . S
C928 C927 1.390 . S
C928 C929 1.394 . S
C928 C934 1.465 . S
C929 C924 1.399 . S
C929 C928 1.394 . S
C929 C930 1.516 . S
C930 C929 1.516 . S
C930 C931 1.502 . S
C930 C932 1.561 . S
C930 C933 1.526 . S
C931 H915 0.959 . S
C931 H916 0.959 . S
C931 H917 0.961 . S
C931 C930 1.502 . S
C932 H918 0.960 . S
C932 H919 0.961 . S
C932 H920 0.959 . S
C932 C930 1.561 . S
C933 C930 1.526 . S
C933 C934 1.396 . S
C933 C938 1.390 . S
C934 C928 1.465 . S
C934 C933 1.396 . S
C934 C935 1.399 . S
C935 H921 0.929 . S
C935 C934 1.399 . S
C935 C936 1.385 . S
C936 H922 0.931 . S
C936 C935 1.385 . S
C936 C937 1.389 . S
C937 C936 1.389 . S
C937 C938 1.387 . S
C938 H923 0.930 . S
C938 C933 1.390 . S
C938 C937 1.387 . S
H939 C951 0.913 1_455 S
H940 C953 0.930 . S
H941 C954 0.930 . S
H942 C958 0.959 . S
H943 C958 0.959 . S
H944 C958 0.961 . S
H945 C959 0.960 . S
H946 C959 0.961 . S
H947 C959 0.959 . S
H948 C962 0.929 . S
H949 C963 0.931 . S
H950 C965 0.930 . S
C951 H939 0.913 1_655 S
C951 C952 1.385 1_655 S
C951 C956 1.431 . S
C952 C951 1.385 1_455 S
C952 C953 1.376 . S
C953 H940 0.930 . S
C953 C952 1.376 . S
C953 C954 1.388 1_455 S
C954 H941 0.930 . S
C954 C953 1.388 1_655 S
C954 C955 1.390 . S
C955 C954 1.390 . S
C955 C956 1.394 . S
C955 C961 1.465 . S
C956 C951 1.431 . S
C956 C955 1.394 . S
C956 C957 1.516 . S
C957 C956 1.516 . S
C957 C958 1.502 . S
C957 C959 1.561 . S
C957 C960 1.526 . S
C958 H942 0.959 . S
C958 H943 0.959 . S
C958 H944 0.961 . S
C958 C957 1.502 . S
C959 H945 0.960 . S
C959 H946 0.961 . S
C959 H947 0.959 . S
C959 C957 1.561 . S
C960 C957 1.526 . S
C960 C961 1.396 . S
C960 C965 1.390 . S
C961 C955 1.465 . S
C961 C960 1.396 . S
C961 C962 1.399 . S
C962 H948 0.929 . S
C962 C961 1.399 . S
C962 C963 1.385 . S
C963 H949 0.931 . S
C963 C962 1.385 . S
C963 C964 1.389 . S
C964 C963 1.389 . S
C964 C965 1.387 . S
C965 H950 0.930 . S
C965 C960 1.390 . S
C965 C964 1.387 . S
H966 C978 0.930 . S
H967 C980 0.930 . S
H968 C981 0.930 . S
H969 C985 0.959 . S
H970 C985 0.959 . S
H971 C985 0.961 . S
H972 C986 0.960 . S
H973 C986 0.961 . S
H974 C986 0.959 . S
H975 C989 0.929 . S
H976 C990 0.931 . S
H977 C992 0.930 1_545 S
C978 H966 0.930 . S
C978 C979 1.399 . S
C978 C983 1.399 . S
C979 C978 1.399 . S
C979 C980 1.376 . S
C980 H967 0.930 . S
C980 C979 1.376 . S
C980 C981 1.388 . S
C981 H968 0.930 . S
C981 C980 1.388 . S
C981 C982 1.390 . S
C982 C981 1.390 . S
C982 C983 1.394 . S
C982 C988 1.465 . S
C983 C978 1.399 . S
C983 C982 1.394 . S
C983 C984 1.516 . S
C984 C983 1.516 . S
C984 C985 1.502 . S
C984 C986 1.561 . S
C984 C987 1.526 . S
C985 H969 0.959 . S
C985 H970 0.959 . S
C985 H971 0.961 . S
C985 C984 1.502 . S
C986 H972 0.960 . S
C986 H973 0.961 . S
C986 H974 0.959 . S
C986 C984 1.561 . S
C987 C984 1.526 . S
C987 C988 1.396 . S
C987 C992 1.390 . S
C988 C982 1.465 . S
C988 C987 1.396 . S
C988 C989 1.399 . S
C989 H975 0.929 . S
C989 C988 1.399 . S
C989 C990 1.385 1_565 S
C990 H976 0.931 . S
C990 C989 1.385 1_545 S
C990 C991 1.389 . S
C991 C990 1.389 . S
C991 C992 1.387 1_545 S
C992 H977 0.930 1_565 S
C992 C987 1.390 . S
C992 C991 1.387 1_565 S
H993 C1005 0.930 . S
H994 C1007 0.930 . S
H995 C1008 0.930 . S
H996 C1012 0.959 . S
H997 C1012 0.959 . S
H998 C1012 0.961 . S
H999 C1013 0.960 . S
H1000 C1013 0.961 . S
H1001 C1013 0.959 . S
H1002 C1016 0.929 . S
H1003 C1017 0.931 . S
H1004 C1019 0.930 . S
C1005 H993 0.930 . S
C1005 C1006 1.399 . S
C1005 C1010 1.399 . S
C1006 C1005 1.399 . S
C1006 C1007 1.376 . S
C1007 H994 0.930 . S
C1007 C1006 1.376 . S
C1007 C1008 1.388 . S
C1008 H995 0.930 . S
C1008 C1007 1.388 . S
C1008 C1009 1.390 . S
C1009 C1008 1.390 . S
C1009 C1010 1.394 . S
C1009 C1015 1.465 . S
C1010 C1005 1.399 . S
C1010 C1009 1.394 . S
C1010 C1011 1.516 . S
C1011 C1010 1.516 . S
C1011 C1012 1.502 . S
C1011 C1013 1.561 . S
C1011 C1014 1.526 . S
C1012 H996 0.959 . S
C1012 H997 0.959 . S
C1012 H998 0.961 . S
C1012 C1011 1.502 . S
C1013 H999 0.960 . S
C1013 H1000 0.961 . S
C1013 H1001 0.959 . S
C1013 C1011 1.561 . S
C1014 C1011 1.526 . S
C1014 C1015 1.396 . S
C1014 C1019 1.390 . S
C1015 C1009 1.465 . S
C1015 C1014 1.396 . S
C1015 C1016 1.399 . S
C1016 H1002 0.929 . S
C1016 C1015 1.399 . S
C1016 C1017 1.385 . S
C1017 H1003 0.931 . S
C1017 C1016 1.385 . S
C1017 C1018 1.389 . S
C1018 C1017 1.389 . S
C1018 C1019 1.387 . S
C1019 H1004 0.930 . S
C1019 C1014 1.390 . S
C1019 C1018 1.387 . S
H1020 C1032 0.930 . S
H1021 C1034 0.930 . S
H1022 C1035 0.930 . S
H1023 C1039 0.959 . S
H1024 C1039 0.959 . S
H1025 C1039 0.961 . S
H1026 C1040 0.960 . S
H1027 C1040 0.961 . S
H1028 C1040 0.959 . S
H1029 C1043 0.929 . S
H1030 C1044 0.931 . S
H1031 C1046 0.930 . S
C1032 H1020 0.930 . S
C1032 C1033 1.399 . S
C1032 C1037 1.399 . S
C1033 C1032 1.399 . S
C1033 C1034 1.376 . S
C1034 H1021 0.930 . S
C1034 C1033 1.376 . S
C1034 C1035 1.388 . S
C1035 H1022 0.930 . S
C1035 C1034 1.388 . S
C1035 C1036 1.390 . S
C1036 C1035 1.390 . S
C1036 C1037 1.394 . S
C1036 C1042 1.465 . S
C1037 C1032 1.399 . S
C1037 C1036 1.394 . S
C1037 C1038 1.516 . S
C1038 C1037 1.516 . S
C1038 C1039 1.502 . S
C1038 C1040 1.561 . S
C1038 C1041 1.526 . S
C1039 H1023 0.959 . S
C1039 H1024 0.959 . S
C1039 H1025 0.961 . S
C1039 C1038 1.502 . S
C1040 H1026 0.960 . S
C1040 H1027 0.961 . S
C1040 H1028 0.959 . S
C1040 C1038 1.561 . S
C1041 C1038 1.526 . S
C1041 C1042 1.396 . S
C1041 C1046 1.390 1_545 S
C1042 C1036 1.465 . S
C1042 C1041 1.396 . S
C1042 C1043 1.399 . S
C1043 H1029 0.929 . S
C1043 C1042 1.399 . S
C1043 C1044 1.385 1_545 S
C1044 H1030 0.931 . S
C1044 C1043 1.385 1_565 S
C1044 C1045 1.389 . S
C1045 C1044 1.389 . S
C1045 C1046 1.387 . S
C1046 H1031 0.930 . S
C1046 C1041 1.390 1_565 S
C1046 C1045 1.387 . S
H1047 C1059 0.930 . S
H1048 C1061 0.930 . S
H1049 C1062 0.930 . S
H1050 C1066 0.959 . S
H1051 C1066 0.959 . S
H1052 C1066 0.961 . S
H1053 C1067 0.960 . S
H1054 C1067 0.961 . S
H1055 C1067 0.959 . S
H1056 C1070 0.929 . S
H1057 C1071 0.931 . S
H1058 C1073 0.930 . S
C1059 H1047 0.930 . S
C1059 C1060 1.399 . S
C1059 C1064 1.399 . S
C1060 C1059 1.399 . S
C1060 C1061 1.376 . S
C1061 H1048 0.930 . S
C1061 C1060 1.376 . S
C1061 C1062 1.388 . S
C1062 H1049 0.930 . S
C1062 C1061 1.388 . S
C1062 C1063 1.390 . S
C1063 C1062 1.390 . S
C1063 C1064 1.394 . S
C1063 C1069 1.465 . S
C1064 C1059 1.399 . S
C1064 C1063 1.394 . S
C1064 C1065 1.516 . S
C1065 C1064 1.516 . S
C1065 C1066 1.502 . S
C1065 C1067 1.561 . S
C1065 C1068 1.526 . S
C1066 H1050 0.959 . S
C1066 H1051 0.959 . S
C1066 H1052 0.961 . S
C1066 C1065 1.502 . S
C1067 H1053 0.960 . S
C1067 H1054 0.961 . S
C1067 H1055 0.959 . S
C1067 C1065 1.561 . S
C1068 C1065 1.526 . S
C1068 C1069 1.396 . S
C1068 C1073 1.390 . S
C1069 C1063 1.465 . S
C1069 C1068 1.396 . S
C1069 C1070 1.399 . S
C1070 H1056 0.929 . S
C1070 C1069 1.399 . S
C1070 C1071 1.385 . S
C1071 H1057 0.931 . S
C1071 C1070 1.385 . S
C1071 C1072 1.389 . S
C1072 C1071 1.389 . S
C1072 C1073 1.387 . S
C1073 H1058 0.930 . S
C1073 C1068 1.390 . S
C1073 C1072 1.387 . S
H1074 C1086 0.930 . S
H1075 C1088 0.930 . S
H1076 C1089 0.930 . S
H1077 C1093 0.959 . S
H1078 C1093 0.959 . S
H1079 C1093 0.961 . S
H1080 C1094 0.960 . S
H1081 C1094 0.961 . S
H1082 C1094 0.959 . S
H1083 C1097 0.929 . S
H1084 C1098 0.931 . S
H1085 C1100 0.930 . S
C1086 H1074 0.930 . S
C1086 C1087 1.399 . S
C1086 C1091 1.399 1_455 S
C1087 C1086 1.399 . S
C1087 C1088 1.376 . S
C1088 H1075 0.930 . S
C1088 C1087 1.376 . S
C1088 C1089 1.388 1_455 S
C1089 H1076 0.930 . S
C1089 C1088 1.388 1_655 S
C1089 C1090 1.390 . S
C1090 C1089 1.390 . S
C1090 C1091 1.394 . S
C1090 C1096 1.465 . S
C1091 C1086 1.399 1_655 S
C1091 C1090 1.394 . S
C1091 C1092 1.516 . S
C1092 C1091 1.516 . S
C1092 C1093 1.502 . S
C1092 C1094 1.561 . S
C1092 C1095 1.526 . S
C1093 H1077 0.959 . S
C1093 H1078 0.959 . S
C1093 H1079 0.961 . S
C1093 C1092 1.502 . S
C1094 H1080 0.960 . S
C1094 H1081 0.961 . S
C1094 H1082 0.959 . S
C1094 C1092 1.561 . S
C1095 C1092 1.526 . S
C1095 C1096 1.396 . S
C1095 C1100 1.390 . S
C1096 C1090 1.465 . S
C1096 C1095 1.396 . S
C1096 C1097 1.399 . S
C1097 H1083 0.929 . S
C1097 C1096 1.399 . S
C1097 C1098 1.385 . S
C1098 H1084 0.931 . S
C1098 C1097 1.385 . S
C1098 C1099 1.389 . S
C1099 C1098 1.389 . S
C1099 C1100 1.387 . S
C1100 H1085 0.930 . S
C1100 C1095 1.390 . S
C1100 C1099 1.387 . S
H1101 C1113 0.930 . S
H1102 C1115 0.930 . S
H1103 C1116 0.930 . S
H1104 C1120 0.959 . S
H1105 C1120 0.959 . S
H1106 C1120 0.961 . S
H1107 C1121 0.960 . S
H1108 C1121 0.961 . S
H1109 C1121 0.959 . S
H1110 C1124 0.929 . S
H1111 C1125 0.931 . S
H1112 C1127 0.930 . S
C1113 H1101 0.930 . S
C1113 C1114 1.399 . S
C1113 C1118 1.399 1_545 S
C1114 C1113 1.399 . S
C1114 C1115 1.376 . S
C1115 H1102 0.930 . S
C1115 C1114 1.376 . S
C1115 C1116 1.388 1_545 S
C1116 H1103 0.930 . S
C1116 C1115 1.388 1_565 S
C1116 C1117 1.390 . S
C1117 C1116 1.390 . S
C1117 C1118 1.394 . S
C1117 C1123 1.465 . S
C1118 C1113 1.399 1_565 S
C1118 C1117 1.394 . S
C1118 C1119 1.516 . S
C1119 C1118 1.516 . S
C1119 C1120 1.502 . S
C1119 C1121 1.561 . S
C1119 C1122 1.526 . S
C1120 H1104 0.959 . S
C1120 H1105 0.959 . S
C1120 H1106 0.961 . S
C1120 C1119 1.502 . S
C1121 H1107 0.960 . S
C1121 H1108 0.961 . S
C1121 H1109 0.959 . S
C1121 C1119 1.561 . S
C1122 C1119 1.526 . S
C1122 C1123 1.396 . S
C1122 C1127 1.390 . S
C1123 C1117 1.465 . S
C1123 C1122 1.396 . S
C1123 C1124 1.399 . S
C1124 H1110 0.929 . S
C1124 C1123 1.399 . S
C1124 C1125 1.385 . S
C1125 H1111 0.931 . S
C1125 C1124 1.385 . S
C1125 C1126 1.389 . S
C1126 C1125 1.389 . S
C1126 C1127 1.387 . S
C1127 H1112 0.930 . S
C1127 C1122 1.390 . S
C1127 C1126 1.387 . S
H1128 C1140 0.930 . S
H1129 C1142 0.930 . S
H1130 C1143 0.930 . S
H1131 C1147 0.959 . S
H1132 C1147 0.959 . S
H1133 C1147 0.961 . S
H1134 C1148 0.960 . S
H1135 C1148 0.961 . S
H1136 C1148 0.959 . S
H1137 C1151 0.929 . S
H1138 C1152 0.931 . S
H1139 C1154 0.930 . S
C1140 H1128 0.930 . S
C1140 C1141 1.399 . S
C1140 C1145 1.399 . S
C1141 C1140 1.399 . S
C1141 C1142 1.376 . S
C1142 H1129 0.930 . S
C1142 C1141 1.376 . S
C1142 C1143 1.388 . S
C1143 H1130 0.930 . S
C1143 C1142 1.388 . S
C1143 C1144 1.390 . S
C1144 C1143 1.390 . S
C1144 C1145 1.394 . S
C1144 C1150 1.465 . S
C1145 C1140 1.399 . S
C1145 C1144 1.394 . S
C1145 C1146 1.516 . S
C1146 C1145 1.516 . S
C1146 C1147 1.502 . S
C1146 C1148 1.561 . S
C1146 C1149 1.526 . S
C1147 H1131 0.959 . S
C1147 H1132 0.959 . S
C1147 H1133 0.961 . S
C1147 C1146 1.502 . S
C1148 H1134 0.960 . S
C1148 H1135 0.961 . S
C1148 H1136 0.959 . S
C1148 C1146 1.561 . S
C1149 C1146 1.526 . S
C1149 C1150 1.396 . S
C1149 C1154 1.390 . S
C1150 C1144 1.465 . S
C1150 C1149 1.396 . S
C1150 C1151 1.399 . S
C1151 H1137 0.929 . S
C1151 C1150 1.399 . S
C1151 C1152 1.385 . S
C1152 H1138 0.931 . S
C1152 C1151 1.385 . S
C1152 C1153 1.389 . S
C1153 C1152 1.389 . S
C1153 C1154 1.387 . S
C1154 H1139 0.930 . S
C1154 C1149 1.390 . S
C1154 C1153 1.387 . S
H1155 C1167 0.930 . S
H1156 C1169 0.930 . S
H1157 C1170 0.930 . S
H1158 C1174 0.959 . S
H1159 C1174 0.959 . S
H1160 C1174 0.961 . S
H1161 C1175 0.960 . S
H1162 C1175 0.961 . S
H1163 C1175 0.959 . S
H1164 C1178 0.929 . S
H1165 C1179 0.931 . S
H1166 C1181 0.930 . S
C1167 H1155 0.930 . S
C1167 C1168 1.399 . S
C1167 C1172 1.399 1_655 S
C1168 C1167 1.399 . S
C1168 C1169 1.376 . S
C1169 H1156 0.930 . S
C1169 C1168 1.376 . S
C1169 C1170 1.388 1_655 S
C1170 H1157 0.930 . S
C1170 C1169 1.388 1_455 S
C1170 C1171 1.390 . S
C1171 C1170 1.390 . S
C1171 C1172 1.394 . S
C1171 C1177 1.465 . S
C1172 C1167 1.399 1_455 S
C1172 C1171 1.394 . S
C1172 C1173 1.516 . S
C1173 C1172 1.516 . S
C1173 C1174 1.502 . S
C1173 C1175 1.561 . S
C1173 C1176 1.526 . S
C1174 H1158 0.959 . S
C1174 H1159 0.959 . S
C1174 H1160 0.961 . S
C1174 C1173 1.502 . S
C1175 H1161 0.960 . S
C1175 H1162 0.961 . S
C1175 H1163 0.959 . S
C1175 C1173 1.561 . S
C1176 C1173 1.526 . S
C1176 C1177 1.396 . S
C1176 C1181 1.390 . S
C1177 C1171 1.465 . S
C1177 C1176 1.396 . S
C1177 C1178 1.399 . S
C1178 H1164 0.929 . S
C1178 C1177 1.399 . S
C1178 C1179 1.385 . S
C1179 H1165 0.931 . S
C1179 C1178 1.385 . S
C1179 C1180 1.389 . S
C1180 C1179 1.389 . S
C1180 C1181 1.387 . S
C1181 H1166 0.930 . S
C1181 C1176 1.390 . S
C1181 C1180 1.387 . S
H1182 C1194 0.930 . S
H1183 C1196 0.930 . S
H1184 C1197 0.930 . S
H1185 C1201 0.959 . S
H1186 C1201 0.959 . S
H1187 C1201 0.961 . S
H1188 C1202 0.960 . S
H1189 C1202 0.961 . S
H1190 C1202 0.959 . S
H1191 C1205 0.929 . S
H1192 C1206 0.931 . S
H1193 C1208 0.935 . S
C1194 H1182 0.930 . S
C1194 C1195 1.399 . S
C1194 C1199 1.399 . S
C1195 C1194 1.399 . S
C1195 C1196 1.376 . S
C1196 H1183 0.930 . S
C1196 C1195 1.376 . S
C1196 C1197 1.388 . S
C1197 H1184 0.930 . S
C1197 C1196 1.388 . S
C1197 C1198 1.390 . S
C1198 C1197 1.390 . S
C1198 C1199 1.394 . S
C1198 C1204 1.465 . S
C1199 C1194 1.399 . S
C1199 C1198 1.394 . S
C1199 C1200 1.516 . S
C1200 C1199 1.516 . S
C1200 C1201 1.502 . S
C1200 C1202 1.561 . S
C1200 C1203 1.526 . S
C1201 H1185 0.959 . S
C1201 H1186 0.959 . S
C1201 H1187 0.961 . S
C1201 C1200 1.502 . S
C1202 H1188 0.960 . S
C1202 H1189 0.961 . S
C1202 H1190 0.959 . S
C1202 C1200 1.561 . S
C1203 C1200 1.526 . S
C1203 C1204 1.396 . S
C1203 C1208 1.366 1_655 S
C1204 C1198 1.465 . S
C1204 C1203 1.396 . S
C1204 C1205 1.399 . S
C1205 H1191 0.929 . S
C1205 C1204 1.399 . S
C1205 C1206 1.385 1_655 S
C1206 H1192 0.931 . S
C1206 C1205 1.385 1_455 S
C1206 C1207 1.389 . S
C1207 C1206 1.389 . S
C1207 C1208 1.406 . S
C1208 H1193 0.935 . S
C1208 C1203 1.366 1_455 S
C1208 C1207 1.406 . S
H1209 C1221 0.930 . S
H1210 C1223 0.930 . S
H1211 C1224 0.930 . S
H1212 C1228 0.959 . S
H1213 C1228 0.959 . S
H1214 C1228 0.961 . S
H1215 C1229 0.960 . S
H1216 C1229 0.961 . S
H1217 C1229 0.959 . S
H1218 C1232 0.929 . S
H1219 C1233 0.931 . S
H1220 C1235 0.948 . S
C1221 H1209 0.930 . S
C1221 C1222 1.399 . S
C1221 C1226 1.399 . S
C1222 C1221 1.399 . S
C1222 C1223 1.376 . S
C1223 H1210 0.930 . S
C1223 C1222 1.376 . S
C1223 C1224 1.388 . S
C1224 H1211 0.930 . S
C1224 C1223 1.388 . S
C1224 C1225 1.390 . S
C1225 C1224 1.390 . S
C1225 C1226 1.394 . S
C1225 C1231 1.465 . S
C1226 C1221 1.399 . S
C1226 C1225 1.394 . S
C1226 C1227 1.516 . S
C1227 C1226 1.516 . S
C1227 C1228 1.502 . S
C1227 C1229 1.561 . S
C1227 C1230 1.526 . S
C1228 H1212 0.959 . S
C1228 H1213 0.959 . S
C1228 H1214 0.961 . S
C1228 C1227 1.502 . S
C1229 H1215 0.960 . S
C1229 H1216 0.961 . S
C1229 H1217 0.959 . S
C1229 C1227 1.561 . S
C1230 C1227 1.526 . S
C1230 C1231 1.396 . S
C1230 C1235 1.354 1_565 S
C1231 C1225 1.465 . S
C1231 C1230 1.396 . S
C1231 C1232 1.399 . S
C1232 H1218 0.929 . S
C1232 C1231 1.399 . S
C1232 C1233 1.385 1_565 S
C1233 H1219 0.931 . S
C1233 C1232 1.385 1_545 S
C1233 C1234 1.389 . S
C1234 C1233 1.389 . S
C1234 C1235 1.405 . S
C1235 H1220 0.948 . S
C1235 C1230 1.354 1_545 S
C1235 C1234 1.405 . S
H1236 C1248 0.930 . S
H1237 C1250 0.930 . S
H1238 C1251 0.930 . S
H1239 C1255 0.959 . S
H1240 C1255 0.959 . S
H1241 C1255 0.961 . S
H1242 C1256 0.960 . S
H1243 C1256 0.961 . S
H1244 C1256 0.959 . S
H1245 C1259 0.929 . S
H1246 C1260 0.931 . S
H1247 C1262 0.930 . S
C1248 H1236 0.930 . S
C1248 C1249 1.399 . S
C1248 C1253 1.399 . S
C1249 C1248 1.399 . S
C1249 C1250 1.376 . S
C1250 H1237 0.930 . S
C1250 C1249 1.376 . S
C1250 C1251 1.388 . S
C1251 H1238 0.930 . S
C1251 C1250 1.388 . S
C1251 C1252 1.390 . S
C1252 C1251 1.390 . S
C1252 C1253 1.394 . S
C1252 C1258 1.465 . S
C1253 C1248 1.399 . S
C1253 C1252 1.394 . S
C1253 C1254 1.516 . S
C1254 C1253 1.516 . S
C1254 C1255 1.502 . S
C1254 C1256 1.561 . S
C1254 C1257 1.526 . S
C1255 H1239 0.959 . S
C1255 H1240 0.959 . S
C1255 H1241 0.961 . S
C1255 C1254 1.502 . S
C1256 H1242 0.960 . S
C1256 H1243 0.961 . S
C1256 H1244 0.959 . S
C1256 C1254 1.561 . S
C1257 C1254 1.526 . S
C1257 C1258 1.396 . S
C1257 C1262 1.390 . S
C1258 C1252 1.465 . S
C1258 C1257 1.396 . S
C1258 C1259 1.399 . S
C1259 H1245 0.929 . S
C1259 C1258 1.399 . S
C1259 C1260 1.385 . S
C1260 H1246 0.931 . S
C1260 C1259 1.385 . S
C1260 C1261 1.389 . S
C1261 C1260 1.389 . S
C1261 C1262 1.387 . S
C1262 H1247 0.930 . S
C1262 C1257 1.390 . S
C1262 C1261 1.387 . S
H1263 C1275 0.930 1_655 S
H1264 C1277 0.930 . S
H1265 C1278 0.930 . S
H1266 C1282 0.959 . S
H1267 C1282 0.959 . S
H1268 C1282 0.961 . S
H1269 C1283 0.960 . S
H1270 C1283 0.961 . S
H1271 C1283 0.959 . S
H1272 C1286 0.929 . S
H1273 C1287 0.931 . S
H1274 C1289 0.930 . S
C1275 H1263 0.930 1_455 S
C1275 C1276 1.399 1_455 S
C1275 C1280 1.399 . S
C1276 C1275 1.399 1_655 S
C1276 C1277 1.376 . S
C1277 H1264 0.930 . S
C1277 C1276 1.376 . S
C1277 C1278 1.388 1_655 S
C1278 H1265 0.930 . S
C1278 C1277 1.388 1_455 S
C1278 C1279 1.390 . S
C1279 C1278 1.390 . S
C1279 C1280 1.394 . S
C1279 C1285 1.465 . S
C1280 C1275 1.399 . S
C1280 C1279 1.394 . S
C1280 C1281 1.516 . S
C1281 C1280 1.516 . S
C1281 C1282 1.502 . S
C1281 C1283 1.561 . S
C1281 C1284 1.526 . S
C1282 H1266 0.959 . S
C1282 H1267 0.959 . S
C1282 H1268 0.961 . S
C1282 C1281 1.502 . S
C1283 H1269 0.960 . S
C1283 H1270 0.961 . S
C1283 H1271 0.959 . S
C1283 C1281 1.561 . S
C1284 C1281 1.526 . S
C1284 C1285 1.396 . S
C1284 C1289 1.390 . S
C1285 C1279 1.465 . S
C1285 C1284 1.396 . S
C1285 C1286 1.399 . S
C1286 H1272 0.929 . S
C1286 C1285 1.399 . S
C1286 C1287 1.385 . S
C1287 H1273 0.931 . S
C1287 C1286 1.385 . S
C1287 C1288 1.389 . S
C1288 C1287 1.389 . S
C1288 C1289 1.387 . S
C1289 H1274 0.930 . S
C1289 C1284 1.390 . S
C1289 C1288 1.387 . S
H1290 C1302 0.930 . S
H1291 C1304 0.930 . S
H1292 C1305 0.930 . S
H1293 C1309 0.959 . S
H1294 C1309 0.959 . S
H1295 C1309 0.961 . S
H1296 C1310 0.960 . S
H1297 C1310 0.961 . S
H1298 C1310 0.959 . S
H1299 C1313 0.929 . S
H1300 C1314 0.931 . S
H1301 C1316 0.930 . S
C1302 H1290 0.930 . S
C1302 C1303 1.399 . S
C1302 C1307 1.399 1_565 S
C1303 C1302 1.399 . S
C1303 C1304 1.376 . S
C1304 H1291 0.930 . S
C1304 C1303 1.376 . S
C1304 C1305 1.388 1_565 S
C1305 H1292 0.930 . S
C1305 C1304 1.388 1_545 S
C1305 C1306 1.390 . S
C1306 C1305 1.390 . S
C1306 C1307 1.394 . S
C1306 C1312 1.465 . S
C1307 C1302 1.399 1_545 S
C1307 C1306 1.394 . S
C1307 C1308 1.516 . S
C1308 C1307 1.516 . S
C1308 C1309 1.502 . S
C1308 C1310 1.561 . S
C1308 C1311 1.526 . S
C1309 H1293 0.959 . S
C1309 H1294 0.959 . S
C1309 H1295 0.961 . S
C1309 C1308 1.502 . S
C1310 H1296 0.960 . S
C1310 H1297 0.961 . S
C1310 H1298 0.959 . S
C1310 C1308 1.561 . S
C1311 C1308 1.526 . S
C1311 C1312 1.396 . S
C1311 C1316 1.390 . S
C1312 C1306 1.465 . S
C1312 C1311 1.396 . S
C1312 C1313 1.399 . S
C1313 H1299 0.929 . S
C1313 C1312 1.399 . S
C1313 C1314 1.385 . S
C1314 H1300 0.931 . S
C1314 C1313 1.385 . S
C1314 C1315 1.389 . S
C1315 C1314 1.389 . S
C1315 C1316 1.387 . S
C1316 H1301 0.930 . S
C1316 C1311 1.390 . S
C1316 C1315 1.387 . S
H1317 C1329 0.930 . S
H1318 C1331 0.930 . S
H1319 C1332 0.930 . S
H1320 C1336 0.959 . S
H1321 C1336 0.959 . S
H1322 C1336 0.961 . S
H1323 C1337 0.960 . S
H1324 C1337 0.961 . S
H1325 C1337 0.959 . S
H1326 C1340 0.929 . S
H1327 C1341 0.931 . S
H1328 C1343 0.930 . S
C1329 H1317 0.930 . S
C1329 C1330 1.399 . S
C1329 C1334 1.399 . S
C1330 C1329 1.399 . S
C1330 C1331 1.376 . S
C1331 H1318 0.930 . S
C1331 C1330 1.376 . S
C1331 C1332 1.388 . S
C1332 H1319 0.930 . S
C1332 C1331 1.388 . S
C1332 C1333 1.390 . S
C1333 C1332 1.390 . S
C1333 C1334 1.394 . S
C1333 C1339 1.465 . S
C1334 C1329 1.399 . S
C1334 C1333 1.394 . S
C1334 C1335 1.516 . S
C1335 C1334 1.516 . S
C1335 C1336 1.502 . S
C1335 C1337 1.561 . S
C1335 C1338 1.526 . S
C1336 H1320 0.959 . S
C1336 H1321 0.959 . S
C1336 H1322 0.961 . S
C1336 C1335 1.502 . S
C1337 H1323 0.960 . S
C1337 H1324 0.961 . S
C1337 H1325 0.959 . S
C1337 C1335 1.561 . S
C1338 C1335 1.526 . S
C1338 C1339 1.396 . S
C1338 C1343 1.390 . S
C1339 C1333 1.465 . S
C1339 C1338 1.396 . S
C1339 C1340 1.399 . S
C1340 H1326 0.929 . S
C1340 C1339 1.399 . S
C1340 C1341 1.385 . S
C1341 H1327 0.931 . S
C1341 C1340 1.385 . S
C1341 C1342 1.389 . S
C1342 C1341 1.389 . S
C1342 C1343 1.387 . S
C1343 H1328 0.930 . S
C1343 C1338 1.390 . S
C1343 C1342 1.387 . S
H1344 C1356 0.930 . S
H1345 C1358 0.930 . S
H1346 C1359 0.930 . S
H1347 C1363 0.962 . S
H1348 C1363 0.979 . S
H1349 C1363 0.939 1_554 S
H1350 C1364 0.957 1_554 S
H1351 C1364 0.963 . S
H1352 C1364 0.959 . S
H1353 C1367 0.929 . S
H1354 C1368 0.931 . S
H1355 C1370 0.930 . S
C1356 H1344 0.930 . S
C1356 C1357 1.399 . S
C1356 C1361 1.399 . S
C1357 C1356 1.399 . S
C1357 C1358 1.376 . S
C1358 H1345 0.930 . S
C1358 C1357 1.376 . S
C1358 C1359 1.388 . S
C1359 H1346 0.930 . S
C1359 C1358 1.388 . S
C1359 C1360 1.390 . S
C1360 C1359 1.390 . S
C1360 C1361 1.394 . S
C1360 C1366 1.465 1_554 S
C1361 C1356 1.399 . S
C1361 C1360 1.394 . S
C1361 C1362 1.517 1_554 S
C1362 C1361 1.517 1_556 S
C1362 C1363 1.502 . S
C1362 C1364 1.561 . S
C1362 C1365 1.525 . S
C1363 H1347 0.962 . S
C1363 H1348 0.979 . S
C1363 H1349 0.939 1_556 S
C1363 C1362 1.502 . S
C1364 H1350 0.957 1_556 S
C1364 H1351 0.963 . S
C1364 H1352 0.959 . S
C1364 C1362 1.561 . S
C1365 C1362 1.525 . S
C1365 C1366 1.396 . S
C1365 C1370 1.390 . S
C1366 C1360 1.465 1_556 S
C1366 C1365 1.396 . S
C1366 C1367 1.399 . S
C1367 H1353 0.929 . S
C1367 C1366 1.399 . S
C1367 C1368 1.385 . S
C1368 H1354 0.931 . S
C1368 C1367 1.385 . S
C1368 C1369 1.389 . S
C1369 C1368 1.389 . S
C1369 C1370 1.387 . S
C1370 H1355 0.930 . S
C1370 C1365 1.390 . S
C1370 C1369 1.387 . S
H1371 C1383 0.930 . S
H1372 C1385 0.930 . S
H1373 C1386 0.930 . S
H1374 C1390 0.962 . S
H1375 C1390 0.979 . S
H1376 C1390 0.939 1_554 S
H1377 C1391 0.957 1_554 S
H1378 C1391 0.963 . S
H1379 C1391 0.959 . S
H1380 C1394 0.929 . S
H1381 C1395 0.931 . S
H1382 C1397 0.930 . S
C1383 H1371 0.930 . S
C1383 C1384 1.399 . S
C1383 C1388 1.399 . S
C1384 C1383 1.399 . S
C1384 C1385 1.376 . S
C1385 H1372 0.930 . S
C1385 C1384 1.376 . S
C1385 C1386 1.388 . S
C1386 H1373 0.930 . S
C1386 C1385 1.388 . S
C1386 C1387 1.390 . S
C1387 C1386 1.390 . S
C1387 C1388 1.394 . S
C1387 C1393 1.465 1_554 S
C1388 C1383 1.399 . S
C1388 C1387 1.394 . S
C1388 C1389 1.517 1_554 S
C1389 C1388 1.517 1_556 S
C1389 C1390 1.502 . S
C1389 C1391 1.561 . S
C1389 C1392 1.525 . S
C1390 H1374 0.962 . S
C1390 H1375 0.979 . S
C1390 H1376 0.939 1_556 S
C1390 C1389 1.502 . S
C1391 H1377 0.957 1_556 S
C1391 H1378 0.963 . S
C1391 H1379 0.959 . S
C1391 C1389 1.561 . S
C1392 C1389 1.525 . S
C1392 C1393 1.396 . S
C1392 C1397 1.390 . S
C1393 C1387 1.465 1_556 S
C1393 C1392 1.396 . S
C1393 C1394 1.399 . S
C1394 H1380 0.929 . S
C1394 C1393 1.399 . S
C1394 C1395 1.385 . S
C1395 H1381 0.931 . S
C1395 C1394 1.385 . S
C1395 C1396 1.389 . S
C1396 C1395 1.389 . S
C1396 C1397 1.387 . S
C1397 H1382 0.930 . S
C1397 C1392 1.390 . S
C1397 C1396 1.387 . S
H1398 C1410 0.930 . S
H1399 C1412 0.930 . S
H1400 C1413 0.930 . S
H1401 C1417 0.962 . S
H1402 C1417 0.979 . S
H1403 C1417 0.939 1_554 S
H1404 C1418 0.957 1_554 S
H1405 C1418 0.963 . S
H1406 C1418 0.959 . S
H1407 C1421 0.929 . S
H1408 C1422 0.931 . S
H1409 C1424 0.930 . S
C1410 H1398 0.930 . S
C1410 C1411 1.399 . S
C1410 C1415 1.399 . S
C1411 C1410 1.399 . S
C1411 C1412 1.376 . S
C1412 H1399 0.930 . S
C1412 C1411 1.376 . S
C1412 C1413 1.388 . S
C1413 H1400 0.930 . S
C1413 C1412 1.388 . S
C1413 C1414 1.390 . S
C1414 C1413 1.390 . S
C1414 C1415 1.394 . S
C1414 C1420 1.465 1_554 S
C1415 C1410 1.399 . S
C1415 C1414 1.394 . S
C1415 C1416 1.517 1_554 S
C1416 C1415 1.517 1_556 S
C1416 C1417 1.502 . S
C1416 C1418 1.561 . S
C1416 C1419 1.525 . S
C1417 H1401 0.962 . S
C1417 H1402 0.979 . S
C1417 H1403 0.939 1_556 S
C1417 C1416 1.502 . S
C1418 H1404 0.957 1_556 S
C1418 H1405 0.963 . S
C1418 H1406 0.959 . S
C1418 C1416 1.561 . S
C1419 C1416 1.525 . S
C1419 C1420 1.396 . S
C1419 C1424 1.390 . S
C1420 C1414 1.465 1_556 S
C1420 C1419 1.396 . S
C1420 C1421 1.399 . S
C1421 H1407 0.929 . S
C1421 C1420 1.399 . S
C1421 C1422 1.385 . S
C1422 H1408 0.931 . S
C1422 C1421 1.385 . S
C1422 C1423 1.389 . S
C1423 C1422 1.389 . S
C1423 C1424 1.387 . S
C1424 H1409 0.930 . S
C1424 C1419 1.390 . S
C1424 C1423 1.387 . S
H1425 C1437 0.930 . S
H1426 C1439 0.930 . S
H1427 C1440 0.930 . S
H1428 C1444 0.962 . S
H1429 C1444 0.979 . S
H1430 C1444 0.939 1_556 S
H1431 C1445 0.957 1_556 S
H1432 C1445 0.963 . S
H1433 C1445 0.959 . S
H1434 C1448 0.929 . S
H1435 C1449 0.931 . S
H1436 C1451 0.930 . S
C1437 H1425 0.930 . S
C1437 C1438 1.399 . S
C1437 C1442 1.399 . S
C1438 C1437 1.399 . S
C1438 C1439 1.376 . S
C1439 H1426 0.930 . S
C1439 C1438 1.376 . S
C1439 C1440 1.388 . S
C1440 H1427 0.930 . S
C1440 C1439 1.388 . S
C1440 C1441 1.390 . S
C1441 C1440 1.390 . S
C1441 C1442 1.394 . S
C1441 C1447 1.465 1_556 S
C1442 C1437 1.399 . S
C1442 C1441 1.394 . S
C1442 C1443 1.517 1_556 S
C1443 C1442 1.517 1_554 S
C1443 C1444 1.502 . S
C1443 C1445 1.561 . S
C1443 C1446 1.525 . S
C1444 H1428 0.962 . S
C1444 H1429 0.979 . S
C1444 H1430 0.939 1_554 S
C1444 C1443 1.502 . S
C1445 H1431 0.957 1_554 S
C1445 H1432 0.963 . S
C1445 H1433 0.959 . S
C1445 C1443 1.561 . S
C1446 C1443 1.525 . S
C1446 C1447 1.396 . S
C1446 C1451 1.390 . S
C1447 C1441 1.465 1_554 S
C1447 C1446 1.396 . S
C1447 C1448 1.399 . S
C1448 H1434 0.929 . S
C1448 C1447 1.399 . S
C1448 C1449 1.385 . S
C1449 H1435 0.931 . S
C1449 C1448 1.385 . S
C1449 C1450 1.389 . S
C1450 C1449 1.389 . S
C1450 C1451 1.387 . S
C1451 H1436 0.930 . S
C1451 C1446 1.390 . S
C1451 C1450 1.387 . S
H1452 C1464 0.930 . S
H1453 C1466 0.930 . S
H1454 C1467 0.930 . S
H1455 C1471 0.962 . S
H1456 C1471 0.979 . S
H1457 C1471 0.939 1_554 S
H1458 C1472 0.957 1_554 S
H1459 C1472 0.963 . S
H1460 C1472 0.959 . S
H1461 C1475 0.929 . S
H1462 C1476 0.931 . S
H1463 C1478 0.930 . S
C1464 H1452 0.930 . S
C1464 C1465 1.399 . S
C1464 C1469 1.399 . S
C1465 C1464 1.399 . S
C1465 C1466 1.376 . S
C1466 H1453 0.930 . S
C1466 C1465 1.376 . S
C1466 C1467 1.388 . S
C1467 H1454 0.930 . S
C1467 C1466 1.388 . S
C1467 C1468 1.390 . S
C1468 C1467 1.390 . S
C1468 C1469 1.394 . S
C1468 C1474 1.465 1_554 S
C1469 C1464 1.399 . S
C1469 C1468 1.394 . S
C1469 C1470 1.517 1_554 S
C1470 C1469 1.517 1_556 S
C1470 C1471 1.502 . S
C1470 C1472 1.561 . S
C1470 C1473 1.525 . S
C1471 H1455 0.962 . S
C1471 H1456 0.979 . S
C1471 H1457 0.939 1_556 S
C1471 C1470 1.502 . S
C1472 H1458 0.957 1_556 S
C1472 H1459 0.963 . S
C1472 H1460 0.959 . S
C1472 C1470 1.561 . S
C1473 C1470 1.525 . S
C1473 C1474 1.396 . S
C1473 C1478 1.390 . S
C1474 C1468 1.465 1_556 S
C1474 C1473 1.396 . S
C1474 C1475 1.399 . S
C1475 H1461 0.929 . S
C1475 C1474 1.399 . S
C1475 C1476 1.385 . S
C1476 H1462 0.931 . S
C1476 C1475 1.385 . S
C1476 C1477 1.389 . S
C1477 C1476 1.389 . S
C1477 C1478 1.387 . S
C1478 H1463 0.930 . S
C1478 C1473 1.390 . S
C1478 C1477 1.387 . S
H1479 C1491 0.930 . S
H1480 C1493 0.930 . S
H1481 C1494 0.930 . S
H1482 C1498 0.962 . S
H1483 C1498 0.979 . S
H1484 C1498 0.939 1_554 S
H1485 C1499 0.957 1_554 S
H1486 C1499 0.963 . S
H1487 C1499 0.959 . S
H1488 C1502 0.929 . S
H1489 C1503 0.931 . S
H1490 C1505 0.930 . S
C1491 H1479 0.930 . S
C1491 C1492 1.399 . S
C1491 C1496 1.399 . S
C1492 C1491 1.399 . S
C1492 C1493 1.376 . S
C1493 H1480 0.930 . S
C1493 C1492 1.376 . S
C1493 C1494 1.388 . S
C1494 H1481 0.930 . S
C1494 C1493 1.388 . S
C1494 C1495 1.390 . S
C1495 C1494 1.390 . S
C1495 C1496 1.394 . S
C1495 C1501 1.465 1_554 S
C1496 C1491 1.399 . S
C1496 C1495 1.394 . S
C1496 C1497 1.517 1_554 S
C1497 C1496 1.517 1_556 S
C1497 C1498 1.502 . S
C1497 C1499 1.561 . S
C1497 C1500 1.525 . S
C1498 H1482 0.962 . S
C1498 H1483 0.979 . S
C1498 H1484 0.939 1_556 S
C1498 C1497 1.502 . S
C1499 H1485 0.957 1_556 S
C1499 H1486 0.963 . S
C1499 H1487 0.959 . S
C1499 C1497 1.561 . S
C1500 C1497 1.525 . S
C1500 C1501 1.396 . S
C1500 C1505 1.390 . S
C1501 C1495 1.465 1_556 S
C1501 C1500 1.396 . S
C1501 C1502 1.399 . S
C1502 H1488 0.929 . S
C1502 C1501 1.399 . S
C1502 C1503 1.385 . S
C1503 H1489 0.931 . S
C1503 C1502 1.385 . S
C1503 C1504 1.389 . S
C1504 C1503 1.389 . S
C1504 C1505 1.387 . S
C1505 H1490 0.930 . S
C1505 C1500 1.390 . S
C1505 C1504 1.387 . S
H1506 C1518 0.930 . S
H1507 C1520 0.930 . S
H1508 C1521 0.930 . S
H1509 C1525 0.959 . S
H1510 C1525 0.959 . S
H1511 C1525 0.961 . S
H1512 C1526 0.960 . S
H1513 C1526 0.961 . S
H1514 C1526 0.959 . S
H1515 C1529 0.929 . S
H1516 C1530 0.931 . S
H1517 C1532 0.930 . S
C1518 H1506 0.930 . S
C1518 C1519 1.399 . S
C1518 C1523 1.399 . S
C1519 C1518 1.399 . S
C1519 C1520 1.376 . S
C1520 H1507 0.930 . S
C1520 C1519 1.376 . S
C1520 C1521 1.388 . S
C1521 H1508 0.930 . S
C1521 C1520 1.388 . S
C1521 C1522 1.390 . S
C1522 C1521 1.390 . S
C1522 C1523 1.394 . S
C1522 C1528 1.465 . S
C1523 C1518 1.399 . S
C1523 C1522 1.394 . S
C1523 C1524 1.516 . S
C1524 C1523 1.516 . S
C1524 C1525 1.502 . S
C1524 C1526 1.561 . S
C1524 C1527 1.526 . S
C1525 H1509 0.959 . S
C1525 H1510 0.959 . S
C1525 H1511 0.961 . S
C1525 C1524 1.502 . S
C1526 H1512 0.960 . S
C1526 H1513 0.961 . S
C1526 H1514 0.959 . S
C1526 C1524 1.561 . S
C1527 C1524 1.526 . S
C1527 C1528 1.396 . S
C1527 C1532 1.390 . S
C1528 C1522 1.465 . S
C1528 C1527 1.396 . S
C1528 C1529 1.399 . S
C1529 H1515 0.929 . S
C1529 C1528 1.399 . S
C1529 C1530 1.385 . S
C1530 H1516 0.931 . S
C1530 C1529 1.385 . S
C1530 C1531 1.389 . S
C1531 C1530 1.389 . S
C1531 C1532 1.387 . S
C1532 H1517 0.930 . S
C1532 C1527 1.390 . S
C1532 C1531 1.387 . S
H1533 C1545 0.930 . S
H1534 C1547 0.930 . S
H1535 C1548 0.930 . S
H1536 C1552 0.959 . S
H1537 C1552 0.959 . S
H1538 C1552 0.961 . S
H1539 C1553 0.960 . S
H1540 C1553 0.961 . S
H1541 C1553 0.959 . S
H1542 C1556 0.929 . S
H1543 C1557 0.931 . S
H1544 C1559 0.930 . S
C1545 H1533 0.930 . S
C1545 C1546 1.399 . S
C1545 C1550 1.399 . S
C1546 C1545 1.399 . S
C1546 C1547 1.376 . S
C1547 H1534 0.930 . S
C1547 C1546 1.376 . S
C1547 C1548 1.388 . S
C1548 H1535 0.930 . S
C1548 C1547 1.388 . S
C1548 C1549 1.390 . S
C1549 C1548 1.390 . S
C1549 C1550 1.394 . S
C1549 C1555 1.465 . S
C1550 C1545 1.399 . S
C1550 C1549 1.394 . S
C1550 C1551 1.516 . S
C1551 C1550 1.516 . S
C1551 C1552 1.502 . S
C1551 C1553 1.561 . S
C1551 C1554 1.526 . S
C1552 H1536 0.959 . S
C1552 H1537 0.959 . S
C1552 H1538 0.961 . S
C1552 C1551 1.502 . S
C1553 H1539 0.960 . S
C1553 H1540 0.961 . S
C1553 H1541 0.959 . S
C1553 C1551 1.561 . S
C1554 C1551 1.526 . S
C1554 C1555 1.396 . S
C1554 C1559 1.390 . S
C1555 C1549 1.465 . S
C1555 C1554 1.396 . S
C1555 C1556 1.399 . S
C1556 H1542 0.929 . S
C1556 C1555 1.399 . S
C1556 C1557 1.385 . S
C1557 H1543 0.931 . S
C1557 C1556 1.385 . S
C1557 C1558 1.389 . S
C1558 C1557 1.389 . S
C1558 C1559 1.387 . S
C1559 H1544 0.930 . S
C1559 C1554 1.390 . S
C1559 C1558 1.387 . S
H1560 C1572 0.930 . S
H1561 C1574 0.930 . S
H1562 C1575 0.930 . S
H1563 C1579 0.959 . S
H1564 C1579 0.959 . S
H1565 C1579 0.961 . S
H1566 C1580 0.960 . S
H1567 C1580 0.961 . S
H1568 C1580 0.959 . S
H1569 C1583 0.929 . S
H1570 C1584 0.931 . S
H1571 C1586 0.930 . S
C1572 H1560 0.930 . S
C1572 C1573 1.399 . S
C1572 C1577 1.399 . S
C1573 C1572 1.399 . S
C1573 C1574 1.376 . S
C1574 H1561 0.930 . S
C1574 C1573 1.376 . S
C1574 C1575 1.388 . S
C1575 H1562 0.930 . S
C1575 C1574 1.388 . S
C1575 C1576 1.390 . S
C1576 C1575 1.390 . S
C1576 C1577 1.394 . S
C1576 C1582 1.465 . S
C1577 C1572 1.399 . S
C1577 C1576 1.394 . S
C1577 C1578 1.516 . S
C1578 C1577 1.516 . S
C1578 C1579 1.502 . S
C1578 C1580 1.561 . S
C1578 C1581 1.526 . S
C1579 H1563 0.959 . S
C1579 H1564 0.959 . S
C1579 H1565 0.961 . S
C1579 C1578 1.502 . S
C1580 H1566 0.960 . S
C1580 H1567 0.961 . S
C1580 H1568 0.959 . S
C1580 C1578 1.561 . S
C1581 C1578 1.526 . S
C1581 C1582 1.396 . S
C1581 C1586 1.390 . S
C1582 C1576 1.465 . S
C1582 C1581 1.396 . S
C1582 C1583 1.399 . S
C1583 H1569 0.929 . S
C1583 C1582 1.399 . S
C1583 C1584 1.385 . S
C1584 H1570 0.931 . S
C1584 C1583 1.385 . S
C1584 C1585 1.389 . S
C1585 C1584 1.389 . S
C1585 C1586 1.387 . S
C1586 H1571 0.930 . S
C1586 C1581 1.390 . S
C1586 C1585 1.387 . S
H1587 C1599 0.930 . S
H1588 C1601 0.930 . S
H1589 C1602 0.930 . S
H1590 C1606 0.959 . S
H1591 C1606 0.959 . S
H1592 C1606 0.961 . S
H1593 C1607 0.960 . S
H1594 C1607 0.961 . S
H1595 C1607 0.959 . S
H1596 C1610 0.929 . S
H1597 C1611 0.931 . S
H1598 C1613 0.930 . S
C1599 H1587 0.930 . S
C1599 C1600 1.399 . S
C1599 C1604 1.399 . S
C1600 C1599 1.399 . S
C1600 C1601 1.376 . S
C1601 H1588 0.930 . S
C1601 C1600 1.376 . S
C1601 C1602 1.388 . S
C1602 H1589 0.930 . S
C1602 C1601 1.388 . S
C1602 C1603 1.390 . S
C1603 C1602 1.390 . S
C1603 C1604 1.394 . S
C1603 C1609 1.465 . S
C1604 C1599 1.399 . S
C1604 C1603 1.394 . S
C1604 C1605 1.516 . S
C1605 C1604 1.516 . S
C1605 C1606 1.502 . S
C1605 C1607 1.561 . S
C1605 C1608 1.526 . S
C1606 H1590 0.959 . S
C1606 H1591 0.959 . S
C1606 H1592 0.961 . S
C1606 C1605 1.502 . S
C1607 H1593 0.960 . S
C1607 H1594 0.961 . S
C1607 H1595 0.959 . S
C1607 C1605 1.561 . S
C1608 C1605 1.526 . S
C1608 C1609 1.396 . S
C1608 C1613 1.390 . S
C1609 C1603 1.465 . S
C1609 C1608 1.396 . S
C1609 C1610 1.399 . S
C1610 H1596 0.929 . S
C1610 C1609 1.399 . S
C1610 C1611 1.385 . S
C1611 H1597 0.931 . S
C1611 C1610 1.385 . S
C1611 C1612 1.389 . S
C1612 C1611 1.389 . S
C1612 C1613 1.387 . S
C1613 H1598 0.930 . S
C1613 C1608 1.390 . S
C1613 C1612 1.387 . S
H1614 C1626 0.930 . S
H1615 C1628 0.930 . S
H1616 C1629 0.930 . S
H1617 C1633 0.959 . S
H1618 C1633 0.959 . S
H1619 C1633 0.961 . S
H1620 C1634 0.960 . S
H1621 C1634 0.961 . S
H1622 C1634 0.959 . S
H1623 C1637 0.929 . S
H1624 C1638 0.931 . S
H1625 C1640 0.930 . S
C1626 H1614 0.930 . S
C1626 C1627 1.399 . S
C1626 C1631 1.399 . S
C1627 C1626 1.399 . S
C1627 C1628 1.376 . S
C1628 H1615 0.930 . S
C1628 C1627 1.376 . S
C1628 C1629 1.388 . S
C1629 H1616 0.930 . S
C1629 C1628 1.388 . S
C1629 C1630 1.390 . S
C1630 C1629 1.390 . S
C1630 C1631 1.394 . S
C1630 C1636 1.465 . S
C1631 C1626 1.399 . S
C1631 C1630 1.394 . S
C1631 C1632 1.516 . S
C1632 C1631 1.516 . S
C1632 C1633 1.502 . S
C1632 C1634 1.561 . S
C1632 C1635 1.526 . S
C1633 H1617 0.959 . S
C1633 H1618 0.959 . S
C1633 H1619 0.961 . S
C1633 C1632 1.502 . S
C1634 H1620 0.960 . S
C1634 H1621 0.961 . S
C1634 H1622 0.959 . S
C1634 C1632 1.561 . S
C1635 C1632 1.526 . S
C1635 C1636 1.396 . S
C1635 C1640 1.390 . S
C1636 C1630 1.465 . S
C1636 C1635 1.396 . S
C1636 C1637 1.399 . S
C1637 H1623 0.929 . S
C1637 C1636 1.399 . S
C1637 C1638 1.385 . S
C1638 H1624 0.931 . S
C1638 C1637 1.385 . S
C1638 C1639 1.389 . S
C1639 C1638 1.389 . S
C1639 C1640 1.387 . S
C1640 H1625 0.930 . S
C1640 C1635 1.390 . S
C1640 C1639 1.387 . S
H1641 C1653 0.930 . S
H1642 C1655 0.930 . S
H1643 C1656 0.930 . S
H1644 C1660 0.959 . S
H1645 C1660 0.959 . S
H1646 C1660 0.961 . S
H1647 C1661 0.960 . S
H1648 C1661 0.961 . S
H1649 C1661 0.959 . S
H1650 C1664 0.929 . S
H1651 C1665 0.931 . S
H1652 C1667 0.930 . S
C1653 H1641 0.930 . S
C1653 C1654 1.399 . S
C1653 C1658 1.399 . S
C1654 C1653 1.399 . S
C1654 C1655 1.376 . S
C1655 H1642 0.930 . S
C1655 C1654 1.376 . S
C1655 C1656 1.388 . S
C1656 H1643 0.930 . S
C1656 C1655 1.388 . S
C1656 C1657 1.390 . S
C1657 C1656 1.390 . S
C1657 C1658 1.394 . S
C1657 C1663 1.465 . S
C1658 C1653 1.399 . S
C1658 C1657 1.394 . S
C1658 C1659 1.516 . S
C1659 C1658 1.516 . S
C1659 C1660 1.502 . S
C1659 C1661 1.561 . S
C1659 C1662 1.526 . S
C1660 H1644 0.959 . S
C1660 H1645 0.959 . S
C1660 H1646 0.961 . S
C1660 C1659 1.502 . S
C1661 H1647 0.960 . S
C1661 H1648 0.961 . S
C1661 H1649 0.959 . S
C1661 C1659 1.561 . S
C1662 C1659 1.526 . S
C1662 C1663 1.396 . S
C1662 C1667 1.390 . S
C1663 C1657 1.465 . S
C1663 C1662 1.396 . S
C1663 C1664 1.399 . S
C1664 H1650 0.929 . S
C1664 C1663 1.399 . S
C1664 C1665 1.385 . S
C1665 H1651 0.931 . S
C1665 C1664 1.385 . S
C1665 C1666 1.389 . S
C1666 C1665 1.389 . S
C1666 C1667 1.387 . S
C1667 H1652 0.930 . S
C1667 C1662 1.390 . S
C1667 C1666 1.387 . S
H1668 C1680 0.930 . S
H1669 C1682 0.930 . S
H1670 C1683 0.930 . S
H1671 C1687 0.959 . S
H1672 C1687 0.959 . S
H1673 C1687 0.961 . S
H1674 C1688 0.960 . S
H1675 C1688 0.961 . S
H1676 C1688 0.959 . S
H1677 C1691 0.929 . S
H1678 C1692 0.931 . S
H1679 C1694 0.930 . S
C1680 H1668 0.930 . S
C1680 C1681 1.399 . S
C1680 C1685 1.399 . S
C1681 C1680 1.399 . S
C1681 C1682 1.376 . S
C1682 H1669 0.930 . S
C1682 C1681 1.376 . S
C1682 C1683 1.388 . S
C1683 H1670 0.930 . S
C1683 C1682 1.388 . S
C1683 C1684 1.390 . S
C1684 C1683 1.390 . S
C1684 C1685 1.394 . S
C1684 C1690 1.465 . S
C1685 C1680 1.399 . S
C1685 C1684 1.394 . S
C1685 C1686 1.516 . S
C1686 C1685 1.516 . S
C1686 C1687 1.502 . S
C1686 C1688 1.561 . S
C1686 C1689 1.526 . S
C1687 H1671 0.959 . S
C1687 H1672 0.959 . S
C1687 H1673 0.961 . S
C1687 C1686 1.502 . S
C1688 H1674 0.960 . S
C1688 H1675 0.961 . S
C1688 H1676 0.959 . S
C1688 C1686 1.561 . S
C1689 C1686 1.526 . S
C1689 C1690 1.396 . S
C1689 C1694 1.390 . S
C1690 C1684 1.465 . S
C1690 C1689 1.396 . S
C1690 C1691 1.399 . S
C1691 H1677 0.929 . S
C1691 C1690 1.399 . S
C1691 C1692 1.385 . S
C1692 H1678 0.931 . S
C1692 C1691 1.385 . S
C1692 C1693 1.389 . S
C1693 C1692 1.389 . S
C1693 C1694 1.387 . S
C1694 H1679 0.930 . S
C1694 C1689 1.390 . S
C1694 C1693 1.387 . S
H1695 C1707 0.930 . S
H1696 C1709 0.930 . S
H1697 C1710 0.930 . S
H1698 C1714 0.959 . S
H1699 C1714 0.959 . S
H1700 C1714 0.961 . S
H1701 C1715 0.960 . S
H1702 C1715 0.961 . S
H1703 C1715 0.959 . S
H1704 C1718 0.929 . S
H1705 C1719 0.931 . S
H1706 C1721 0.930 . S
C1707 H1695 0.930 . S
C1707 C1708 1.399 . S
C1707 C1712 1.399 . S
C1708 C1707 1.399 . S
C1708 C1709 1.376 . S
C1709 H1696 0.930 . S
C1709 C1708 1.376 . S
C1709 C1710 1.388 . S
C1710 H1697 0.930 . S
C1710 C1709 1.388 . S
C1710 C1711 1.390 . S
C1711 C1710 1.390 . S
C1711 C1712 1.394 . S
C1711 C1717 1.465 . S
C1712 C1707 1.399 . S
C1712 C1711 1.394 . S
C1712 C1713 1.516 . S
C1713 C1712 1.516 . S
C1713 C1714 1.502 . S
C1713 C1715 1.561 . S
C1713 C1716 1.526 . S
C1714 H1698 0.959 . S
C1714 H1699 0.959 . S
C1714 H1700 0.961 . S
C1714 C1713 1.502 . S
C1715 H1701 0.960 . S
C1715 H1702 0.961 . S
C1715 H1703 0.959 . S
C1715 C1713 1.561 . S
C1716 C1713 1.526 . S
C1716 C1717 1.396 . S
C1716 C1721 1.390 . S
C1717 C1711 1.465 . S
C1717 C1716 1.396 . S
C1717 C1718 1.399 . S
C1718 H1704 0.929 . S
C1718 C1717 1.399 . S
C1718 C1719 1.385 . S
C1719 H1705 0.931 . S
C1719 C1718 1.385 . S
C1719 C1720 1.389 . S
C1720 C1719 1.389 . S
C1720 C1721 1.387 . S
C1721 H1706 0.930 . S
C1721 C1716 1.390 . S
C1721 C1720 1.387 . S
H1722 C1734 0.930 . S
H1723 C1736 0.930 . S
H1724 C1737 0.930 . S
H1725 C1741 0.959 . S
H1726 C1741 0.959 . S
H1727 C1741 0.961 . S
H1728 C1742 0.960 . S
H1729 C1742 0.961 . S
H1730 C1742 0.959 . S
H1731 C1745 0.929 . S
H1732 C1746 0.931 . S
H1733 C1748 0.930 . S
C1734 H1722 0.930 . S
C1734 C1735 1.399 . S
C1734 C1739 1.399 . S
C1735 C1734 1.399 . S
C1735 C1736 1.376 . S
C1736 H1723 0.930 . S
C1736 C1735 1.376 . S
C1736 C1737 1.388 . S
C1737 H1724 0.930 . S
C1737 C1736 1.388 . S
C1737 C1738 1.390 . S
C1738 C1737 1.390 . S
C1738 C1739 1.394 . S
C1738 C1744 1.465 . S
C1739 C1734 1.399 . S
C1739 C1738 1.394 . S
C1739 C1740 1.516 . S
C1740 C1739 1.516 . S
C1740 C1741 1.502 . S
C1740 C1742 1.561 . S
C1740 C1743 1.526 . S
C1741 H1725 0.959 . S
C1741 H1726 0.959 . S
C1741 H1727 0.961 . S
C1741 C1740 1.502 . S
C1742 H1728 0.960 . S
C1742 H1729 0.961 . S
C1742 H1730 0.959 . S
C1742 C1740 1.561 . S
C1743 C1740 1.526 . S
C1743 C1744 1.396 . S
C1743 C1748 1.390 . S
C1744 C1738 1.465 . S
C1744 C1743 1.396 . S
C1744 C1745 1.399 . S
C1745 H1731 0.929 . S
C1745 C1744 1.399 . S
C1745 C1746 1.385 . S
C1746 H1732 0.931 . S
C1746 C1745 1.385 . S
C1746 C1747 1.389 . S
C1747 C1746 1.389 . S
C1747 C1748 1.387 . S
C1748 H1733 0.930 . S
C1748 C1743 1.390 . S
C1748 C1747 1.387 . S
H1749 C1761 0.930 . S
H1750 C1763 0.930 . S
H1751 C1764 0.930 . S
H1752 C1768 0.959 . S
H1753 C1768 0.959 . S
H1754 C1768 0.961 . S
H1755 C1769 0.960 . S
H1756 C1769 0.961 . S
H1757 C1769 0.959 . S
H1758 C1772 0.929 . S
H1759 C1773 0.931 . S
H1760 C1775 0.930 . S
C1761 H1749 0.930 . S
C1761 C1762 1.399 . S
C1761 C1766 1.399 . S
C1762 C1761 1.399 . S
C1762 C1763 1.376 . S
C1763 H1750 0.930 . S
C1763 C1762 1.376 . S
C1763 C1764 1.388 . S
C1764 H1751 0.930 . S
C1764 C1763 1.388 . S
C1764 C1765 1.390 . S
C1765 C1764 1.390 . S
C1765 C1766 1.394 . S
C1765 C1771 1.465 . S
C1766 C1761 1.399 . S
C1766 C1765 1.394 . S
C1766 C1767 1.516 . S
C1767 C1766 1.516 . S
C1767 C1768 1.502 . S
C1767 C1769 1.561 . S
C1767 C1770 1.526 . S
C1768 H1752 0.959 . S
C1768 H1753 0.959 . S
C1768 H1754 0.961 . S
C1768 C1767 1.502 . S
C1769 H1755 0.960 . S
C1769 H1756 0.961 . S
C1769 H1757 0.959 . S
C1769 C1767 1.561 . S
C1770 C1767 1.526 . S
C1770 C1771 1.396 . S
C1770 C1775 1.390 . S
C1771 C1765 1.465 . S
C1771 C1770 1.396 . S
C1771 C1772 1.399 . S
C1772 H1758 0.929 . S
C1772 C1771 1.399 . S
C1772 C1773 1.385 . S
C1773 H1759 0.931 . S
C1773 C1772 1.385 . S
C1773 C1774 1.389 . S
C1774 C1773 1.389 . S
C1774 C1775 1.387 . S
C1775 H1760 0.930 . S
C1775 C1770 1.390 . S
C1775 C1774 1.387 . S
H1776 C1788 0.930 . S
H1777 C1790 0.930 . S
H1778 C1791 0.930 . S
H1779 C1795 0.959 . S
H1780 C1795 0.959 . S
H1781 C1795 0.961 . S
H1782 C1796 0.960 . S
H1783 C1796 0.961 . S
H1784 C1796 0.959 . S
H1785 C1799 0.929 . S
H1786 C1800 0.931 . S
H1787 C1802 0.930 . S
C1788 H1776 0.930 . S
C1788 C1789 1.399 . S
C1788 C1793 1.399 . S
C1789 C1788 1.399 . S
C1789 C1790 1.376 . S
C1790 H1777 0.930 . S
C1790 C1789 1.376 . S
C1790 C1791 1.388 . S
C1791 H1778 0.930 . S
C1791 C1790 1.388 . S
C1791 C1792 1.390 . S
C1792 C1791 1.390 . S
C1792 C1793 1.394 . S
C1792 C1798 1.465 . S
C1793 C1788 1.399 . S
C1793 C1792 1.394 . S
C1793 C1794 1.516 . S
C1794 C1793 1.516 . S
C1794 C1795 1.502 . S
C1794 C1796 1.561 . S
C1794 C1797 1.526 . S
C1795 H1779 0.959 . S
C1795 H1780 0.959 . S
C1795 H1781 0.961 . S
C1795 C1794 1.502 . S
C1796 H1782 0.960 . S
C1796 H1783 0.961 . S
C1796 H1784 0.959 . S
C1796 C1794 1.561 . S
C1797 C1794 1.526 . S
C1797 C1798 1.396 . S
C1797 C1802 1.390 . S
C1798 C1792 1.465 . S
C1798 C1797 1.396 . S
C1798 C1799 1.399 . S
C1799 H1785 0.929 . S
C1799 C1798 1.399 . S
C1799 C1800 1.385 . S
C1800 H1786 0.931 . S
C1800 C1799 1.385 . S
C1800 C1801 1.389 . S
C1801 C1800 1.389 . S
C1801 C1802 1.387 . S
C1802 H1787 0.930 . S
C1802 C1797 1.390 . S
C1802 C1801 1.387 . S
H1803 C1815 0.930 . S
H1804 C1817 0.930 . S
H1805 C1818 0.930 . S
H1806 C1822 0.959 . S
H1807 C1822 0.959 . S
H1808 C1822 0.961 . S
H1809 C1823 0.960 . S
H1810 C1823 0.961 . S
H1811 C1823 0.959 . S
H1812 C1826 0.929 . S
H1813 C1827 0.931 . S
H1814 C1829 0.930 . S
C1815 H1803 0.930 . S
C1815 C1816 1.399 . S
C1815 C1820 1.399 . S
C1816 C1815 1.399 . S
C1816 C1817 1.376 . S
C1817 H1804 0.930 . S
C1817 C1816 1.376 . S
C1817 C1818 1.388 . S
C1818 H1805 0.930 . S
C1818 C1817 1.388 . S
C1818 C1819 1.390 . S
C1819 C1818 1.390 . S
C1819 C1820 1.394 . S
C1819 C1825 1.465 . S
C1820 C1815 1.399 . S
C1820 C1819 1.394 . S
C1820 C1821 1.516 . S
C1821 C1820 1.516 . S
C1821 C1822 1.502 . S
C1821 C1823 1.561 . S
C1821 C1824 1.526 . S
C1822 H1806 0.959 . S
C1822 H1807 0.959 . S
C1822 H1808 0.961 . S
C1822 C1821 1.502 . S
C1823 H1809 0.960 . S
C1823 H1810 0.961 . S
C1823 H1811 0.959 . S
C1823 C1821 1.561 . S
C1824 C1821 1.526 . S
C1824 C1825 1.396 . S
C1824 C1829 1.390 . S
C1825 C1819 1.465 . S
C1825 C1824 1.396 . S
C1825 C1826 1.399 . S
C1826 H1812 0.929 . S
C1826 C1825 1.399 . S
C1826 C1827 1.385 . S
C1827 H1813 0.931 . S
C1827 C1826 1.385 . S
C1827 C1828 1.389 . S
C1828 C1827 1.389 . S
C1828 C1829 1.387 . S
C1829 H1814 0.930 . S
C1829 C1824 1.390 . S
C1829 C1828 1.387 . S
H1830 C1842 0.930 . S
H1831 C1844 0.930 . S
H1832 C1845 0.930 . S
H1833 C1849 0.959 . S
H1834 C1849 0.959 . S
H1835 C1849 0.961 . S
H1836 C1850 0.960 . S
H1837 C1850 0.961 . S
H1838 C1850 0.959 . S
H1839 C1853 0.929 . S
H1840 C1854 0.931 . S
H1841 C1856 0.930 . S
C1842 H1830 0.930 . S
C1842 C1843 1.399 . S
C1842 C1847 1.399 . S
C1843 C1842 1.399 . S
C1843 C1844 1.376 . S
C1844 H1831 0.930 . S
C1844 C1843 1.376 . S
C1844 C1845 1.388 . S
C1845 H1832 0.930 . S
C1845 C1844 1.388 . S
C1845 C1846 1.390 . S
C1846 C1845 1.390 . S
C1846 C1847 1.394 . S
C1846 C1852 1.465 . S
C1847 C1842 1.399 . S
C1847 C1846 1.394 . S
C1847 C1848 1.516 . S
C1848 C1847 1.516 . S
C1848 C1849 1.502 . S
C1848 C1850 1.561 . S
C1848 C1851 1.526 . S
C1849 H1833 0.959 . S
C1849 H1834 0.959 . S
C1849 H1835 0.961 . S
C1849 C1848 1.502 . S
C1850 H1836 0.960 . S
C1850 H1837 0.961 . S
C1850 H1838 0.959 . S
C1850 C1848 1.561 . S
C1851 C1848 1.526 . S
C1851 C1852 1.396 . S
C1851 C1856 1.390 . S
C1852 C1846 1.465 . S
C1852 C1851 1.396 . S
C1852 C1853 1.399 . S
C1853 H1839 0.929 . S
C1853 C1852 1.399 . S
C1853 C1854 1.385 . S
C1854 H1840 0.931 . S
C1854 C1853 1.385 . S
C1854 C1855 1.389 . S
C1855 C1854 1.389 . S
C1855 C1856 1.387 . S
C1856 H1841 0.930 . S
C1856 C1851 1.390 . S
C1856 C1855 1.387 . S
H1857 C1869 0.930 . S
H1858 C1871 0.930 . S
H1859 C1872 0.930 . S
H1860 C1876 0.959 . S
H1861 C1876 0.959 . S
H1862 C1876 0.961 . S
H1863 C1877 0.960 . S
H1864 C1877 0.961 . S
H1865 C1877 0.959 . S
H1866 C1880 0.929 . S
H1867 C1881 0.931 . S
H1868 C1883 0.930 . S
C1869 H1857 0.930 . S
C1869 C1870 1.399 . S
C1869 C1874 1.399 . S
C1870 C1869 1.399 . S
C1870 C1871 1.376 . S
C1871 H1858 0.930 . S
C1871 C1870 1.376 . S
C1871 C1872 1.388 . S
C1872 H1859 0.930 . S
C1872 C1871 1.388 . S
C1872 C1873 1.390 . S
C1873 C1872 1.390 . S
C1873 C1874 1.394 . S
C1873 C1879 1.465 . S
C1874 C1869 1.399 . S
C1874 C1873 1.394 . S
C1874 C1875 1.516 . S
C1875 C1874 1.516 . S
C1875 C1876 1.502 . S
C1875 C1877 1.561 . S
C1875 C1878 1.526 . S
C1876 H1860 0.959 . S
C1876 H1861 0.959 . S
C1876 H1862 0.961 . S
C1876 C1875 1.502 . S
C1877 H1863 0.960 . S
C1877 H1864 0.961 . S
C1877 H1865 0.959 . S
C1877 C1875 1.561 . S
C1878 C1875 1.526 . S
C1878 C1879 1.396 . S
C1878 C1883 1.390 . S
C1879 C1873 1.465 . S
C1879 C1878 1.396 . S
C1879 C1880 1.399 . S
C1880 H1866 0.929 . S
C1880 C1879 1.399 . S
C1880 C1881 1.385 . S
C1881 H1867 0.931 . S
C1881 C1880 1.385 . S
C1881 C1882 1.389 . S
C1882 C1881 1.389 . S
C1882 C1883 1.387 . S
C1883 H1868 0.930 . S
C1883 C1878 1.390 . S
C1883 C1882 1.387 . S
H1884 C1896 0.930 . S
H1885 C1898 0.930 . S
H1886 C1899 0.930 . S
H1887 C1903 0.959 . S
H1888 C1903 0.959 . S
H1889 C1903 0.961 . S
H1890 C1904 0.960 . S
H1891 C1904 0.961 . S
H1892 C1904 0.959 . S
H1893 C1907 0.929 . S
H1894 C1908 0.931 . S
H1895 C1910 0.930 . S
C1896 H1884 0.930 . S
C1896 C1897 1.399 . S
C1896 C1901 1.399 . S
C1897 C1896 1.399 . S
C1897 C1898 1.376 . S
C1898 H1885 0.930 . S
C1898 C1897 1.376 . S
C1898 C1899 1.388 . S
C1899 H1886 0.930 . S
C1899 C1898 1.388 . S
C1899 C1900 1.390 . S
C1900 C1899 1.390 . S
C1900 C1901 1.394 . S
C1900 C1906 1.465 . S
C1901 C1896 1.399 . S
C1901 C1900 1.394 . S
C1901 C1902 1.516 . S
C1902 C1901 1.516 . S
C1902 C1903 1.502 . S
C1902 C1904 1.561 . S
C1902 C1905 1.526 . S
C1903 H1887 0.959 . S
C1903 H1888 0.959 . S
C1903 H1889 0.961 . S
C1903 C1902 1.502 . S
C1904 H1890 0.960 . S
C1904 H1891 0.961 . S
C1904 H1892 0.959 . S
C1904 C1902 1.561 . S
C1905 C1902 1.526 . S
C1905 C1906 1.396 . S
C1905 C1910 1.390 . S
C1906 C1900 1.465 . S
C1906 C1905 1.396 . S
C1906 C1907 1.399 . S
C1907 H1893 0.929 . S
C1907 C1906 1.399 . S
C1907 C1908 1.385 . S
C1908 H1894 0.931 . S
C1908 C1907 1.385 . S
C1908 C1909 1.389 . S
C1909 C1908 1.389 . S
C1909 C1910 1.387 . S
C1910 H1895 0.930 . S
C1910 C1905 1.390 . S
C1910 C1909 1.387 . S
H1911 C1923 0.930 . S
H1912 C1925 0.930 . S
H1913 C1926 0.930 . S
H1914 C1930 0.959 . S
H1915 C1930 0.959 . S
H1916 C1930 0.961 . S
H1917 C1931 0.960 . S
H1918 C1931 0.961 . S
H1919 C1931 0.959 . S
H1920 C1934 0.929 . S
H1921 C1935 0.931 . S
H1922 C1937 0.930 . S
C1923 H1911 0.930 . S
C1923 C1924 1.399 . S
C1923 C1928 1.399 . S
C1924 C1923 1.399 . S
C1924 C1925 1.376 . S
C1925 H1912 0.930 . S
C1925 C1924 1.376 . S
C1925 C1926 1.388 . S
C1926 H1913 0.930 . S
C1926 C1925 1.388 . S
C1926 C1927 1.390 . S
C1927 C1926 1.390 . S
C1927 C1928 1.394 . S
C1927 C1933 1.465 . S
C1928 C1923 1.399 . S
C1928 C1927 1.394 . S
C1928 C1929 1.516 . S
C1929 C1928 1.516 . S
C1929 C1930 1.502 . S
C1929 C1931 1.561 . S
C1929 C1932 1.526 . S
C1930 H1914 0.959 . S
C1930 H1915 0.959 . S
C1930 H1916 0.961 . S
C1930 C1929 1.502 . S
C1931 H1917 0.960 . S
C1931 H1918 0.961 . S
C1931 H1919 0.959 . S
C1931 C1929 1.561 . S
C1932 C1929 1.526 . S
C1932 C1933 1.396 . S
C1932 C1937 1.390 . S
C1933 C1927 1.465 . S
C1933 C1932 1.396 . S
C1933 C1934 1.399 . S
C1934 H1920 0.929 . S
C1934 C1933 1.399 . S
C1934 C1935 1.385 . S
C1935 H1921 0.931 . S
C1935 C1934 1.385 . S
C1935 C1936 1.389 . S
C1936 C1935 1.389 . S
C1936 C1937 1.387 . S
C1937 H1922 0.930 . S
C1937 C1932 1.390 . S
C1937 C1936 1.387 . S
H1938 C1950 0.930 . S
H1939 C1952 0.930 . S
H1940 C1953 0.930 . S
H1941 C1957 0.959 . S
H1942 C1957 0.959 . S
H1943 C1957 0.961 . S
H1944 C1958 0.960 . S
H1945 C1958 0.961 . S
H1946 C1958 0.959 . S
H1947 C1961 0.929 . S
H1948 C1962 0.931 . S
H1949 C1964 0.930 . S
C1950 H1938 0.930 . S
C1950 C1951 1.399 . S
C1950 C1955 1.399 . S
C1951 C1950 1.399 . S
C1951 C1952 1.376 . S
C1952 H1939 0.930 . S
C1952 C1951 1.376 . S
C1952 C1953 1.388 . S
C1953 H1940 0.930 . S
C1953 C1952 1.388 . S
C1953 C1954 1.390 . S
C1954 C1953 1.390 . S
C1954 C1955 1.394 . S
C1954 C1960 1.465 . S
C1955 C1950 1.399 . S
C1955 C1954 1.394 . S
C1955 C1956 1.516 . S
C1956 C1955 1.516 . S
C1956 C1957 1.502 . S
C1956 C1958 1.561 . S
C1956 C1959 1.526 . S
C1957 H1941 0.959 . S
C1957 H1942 0.959 . S
C1957 H1943 0.961 . S
C1957 C1956 1.502 . S
C1958 H1944 0.960 . S
C1958 H1945 0.961 . S
C1958 H1946 0.959 . S
C1958 C1956 1.561 . S
C1959 C1956 1.526 . S
C1959 C1960 1.396 . S
C1959 C1964 1.390 . S
C1960 C1954 1.465 . S
C1960 C1959 1.396 . S
C1960 C1961 1.399 . S
C1961 H1947 0.929 . S
C1961 C1960 1.399 . S
C1961 C1962 1.385 . S
C1962 H1948 0.931 . S
C1962 C1961 1.385 . S
C1962 C1963 1.389 . S
C1963 C1962 1.389 . S
C1963 C1964 1.387 . S
C1964 H1949 0.930 . S
C1964 C1959 1.390 . S
C1964 C1963 1.387 . S
H1965 C1977 0.930 . S
H1966 C1979 0.930 . S
H1967 C1980 0.930 . S
H1968 C1984 0.959 . S
H1969 C1984 0.959 . S
H1970 C1984 0.961 . S
H1971 C1985 0.960 . S
H1972 C1985 0.961 . S
H1973 C1985 0.959 . S
H1974 C1988 0.929 . S
H1975 C1989 0.931 . S
H1976 C1991 0.930 . S
C1977 H1965 0.930 . S
C1977 C1978 1.399 . S
C1977 C1982 1.399 . S
C1978 C1977 1.399 . S
C1978 C1979 1.376 . S
C1979 H1966 0.930 . S
C1979 C1978 1.376 . S
C1979 C1980 1.388 . S
C1980 H1967 0.930 . S
C1980 C1979 1.388 . S
C1980 C1981 1.390 . S
C1981 C1980 1.390 . S
C1981 C1982 1.394 . S
C1981 C1987 1.465 . S
C1982 C1977 1.399 . S
C1982 C1981 1.394 . S
C1982 C1983 1.516 . S
C1983 C1982 1.516 . S
C1983 C1984 1.502 . S
C1983 C1985 1.561 . S
C1983 C1986 1.526 . S
C1984 H1968 0.959 . S
C1984 H1969 0.959 . S
C1984 H1970 0.961 . S
C1984 C1983 1.502 . S
C1985 H1971 0.960 . S
C1985 H1972 0.961 . S
C1985 H1973 0.959 . S
C1985 C1983 1.561 . S
C1986 C1983 1.526 . S
C1986 C1987 1.396 . S
C1986 C1991 1.390 . S
C1987 C1981 1.465 . S
C1987 C1986 1.396 . S
C1987 C1988 1.399 . S
C1988 H1974 0.929 . S
C1988 C1987 1.399 . S
C1988 C1989 1.385 . S
C1989 H1975 0.931 . S
C1989 C1988 1.385 . S
C1989 C1990 1.389 . S
C1990 C1989 1.389 . S
C1990 C1991 1.387 . S
C1991 H1976 0.930 . S
C1991 C1986 1.390 . S
C1991 C1990 1.387 . S
H1992 C2004 0.930 . S
H1993 C2006 0.930 . S
H1994 C2007 0.921 1_565 S
H1995 C2011 0.959 . S
H1996 C2011 0.959 . S
H1997 C2011 0.961 . S
H1998 C2012 0.960 . S
H1999 C2012 0.961 . S
H2000 C2012 0.959 . S
H2001 C2015 0.929 . S
H2002 C2016 0.931 . S
H2003 C2018 0.930 . S
C2004 H1992 0.930 . S
C2004 C2005 1.399 . S
C2004 C2009 1.399 . S
C2005 C2004 1.399 . S
C2005 C2006 1.376 . S
C2006 H1993 0.930 . S
C2006 C2005 1.376 . S
C2006 C2007 1.404 . S
C2007 H1994 0.921 1_545 S
C2007 C2006 1.404 . S
C2007 C2008 1.383 . S
C2008 C2007 1.383 . S
C2008 C2009 1.394 . S
C2008 C2014 1.465 1_545 S
C2009 C2004 1.399 . S
C2009 C2008 1.394 . S
C2009 C2010 1.516 . S
C2010 C2009 1.516 . S
C2010 C2011 1.502 . S
C2010 C2012 1.561 . S
C2010 C2013 1.526 1_545 S
C2011 H1995 0.959 . S
C2011 H1996 0.959 . S
C2011 H1997 0.961 . S
C2011 C2010 1.502 . S
C2012 H1998 0.960 . S
C2012 H1999 0.961 . S
C2012 H2000 0.959 . S
C2012 C2010 1.561 . S
C2013 C2010 1.526 1_565 S
C2013 C2014 1.396 . S
C2013 C2018 1.390 . S
C2014 C2008 1.465 1_565 S
C2014 C2013 1.396 . S
C2014 C2015 1.399 . S
C2015 H2001 0.929 . S
C2015 C2014 1.399 . S
C2015 C2016 1.385 . S
C2016 H2002 0.931 . S
C2016 C2015 1.385 . S
C2016 C2017 1.389 . S
C2017 C2016 1.389 . S
C2017 C2018 1.387 . S
C2018 H2003 0.930 . S
C2018 C2013 1.390 . S
C2018 C2017 1.387 . S
H2019 C2031 0.930 . S
H2020 C2033 0.930 . S
H2021 C2034 0.930 . S
H2022 C2038 0.959 . S
H2023 C2038 0.959 . S
H2024 C2038 0.961 . S
H2025 C2039 0.960 . S
H2026 C2039 0.961 . S
H2027 C2039 0.959 . S
H2028 C2042 0.929 . S
H2029 C2043 0.931 . S
H2030 C2045 0.930 . S
C2031 H2019 0.930 . S
C2031 C2032 1.399 . S
C2031 C2036 1.399 . S
C2032 C2031 1.399 . S
C2032 C2033 1.376 . S
C2033 H2020 0.930 . S
C2033 C2032 1.376 . S
C2033 C2034 1.388 . S
C2034 H2021 0.930 . S
C2034 C2033 1.388 . S
C2034 C2035 1.390 . S
C2035 C2034 1.390 . S
C2035 C2036 1.394 . S
C2035 C2041 1.465 . S
C2036 C2031 1.399 . S
C2036 C2035 1.394 . S
C2036 C2037 1.516 . S
C2037 C2036 1.516 . S
C2037 C2038 1.502 . S
C2037 C2039 1.561 . S
C2037 C2040 1.526 . S
C2038 H2022 0.959 . S
C2038 H2023 0.959 . S
C2038 H2024 0.961 . S
C2038 C2037 1.502 . S
C2039 H2025 0.960 . S
C2039 H2026 0.961 . S
C2039 H2027 0.959 . S
C2039 C2037 1.561 . S
C2040 C2037 1.526 . S
C2040 C2041 1.396 . S
C2040 C2045 1.390 . S
C2041 C2035 1.465 . S
C2041 C2040 1.396 . S
C2041 C2042 1.399 . S
C2042 H2028 0.929 . S
C2042 C2041 1.399 . S
C2042 C2043 1.385 . S
C2043 H2029 0.931 . S
C2043 C2042 1.385 . S
C2043 C2044 1.389 . S
C2044 C2043 1.389 . S
C2044 C2045 1.387 . S
C2045 H2030 0.930 . S
C2045 C2040 1.390 . S
C2045 C2044 1.387 . S
H2046 C2058 0.930 . S
H2047 C2060 0.930 . S
H2048 C2061 0.910 1_455 S
H2049 C2065 0.959 . S
H2050 C2065 0.959 . S
H2051 C2065 0.961 . S
H2052 C2066 0.960 1_655 S
H2053 C2066 0.961 . S
H2054 C2066 0.959 . S
H2055 C2069 0.929 . S
H2056 C2070 0.931 . S
H2057 C2072 0.930 . S
C2058 H2046 0.930 . S
C2058 C2059 1.399 . S
C2058 C2063 1.399 . S
C2059 C2058 1.399 . S
C2059 C2060 1.376 . S
C2060 H2047 0.930 . S
C2060 C2059 1.376 . S
C2060 C2061 1.388 . S
C2061 H2048 0.910 1_655 S
C2061 C2060 1.388 . S
C2061 C2062 1.390 . S
C2062 C2061 1.390 . S
C2062 C2063 1.394 . S
C2062 C2068 1.465 1_655 S
C2063 C2058 1.399 . S
C2063 C2062 1.394 . S
C2063 C2064 1.516 . S
C2064 C2063 1.516 . S
C2064 C2065 1.502 . S
C2064 C2066 1.561 1_655 S
C2064 C2067 1.526 1_655 S
C2065 H2049 0.959 . S
C2065 H2050 0.959 . S
C2065 H2051 0.961 . S
C2065 C2064 1.502 . S
C2066 H2052 0.960 1_455 S
C2066 H2053 0.961 . S
C2066 H2054 0.959 . S
C2066 C2064 1.561 1_455 S
C2067 C2064 1.526 1_455 S
C2067 C2068 1.396 . S
C2067 C2072 1.390 . S
C2068 C2062 1.465 1_455 S
C2068 C2067 1.396 . S
C2068 C2069 1.399 . S
C2069 H2055 0.929 . S
C2069 C2068 1.399 . S
C2069 C2070 1.385 . S
C2070 H2056 0.931 . S
C2070 C2069 1.385 . S
C2070 C2071 1.389 . S
C2071 C2070 1.389 . S
C2071 C2072 1.387 . S
C2072 H2057 0.930 . S
C2072 C2067 1.390 . S
C2072 C2071 1.387 . S
H2073 C2085 0.930 . S
H2074 C2087 0.930 . S
H2075 C2088 0.930 . S
H2076 C2092 0.959 . S
H2077 C2092 0.959 . S
H2078 C2092 0.961 . S
H2079 C2093 0.960 . S
H2080 C2093 0.961 . S
H2081 C2093 0.959 . S
H2082 C2096 0.929 . S
H2083 C2097 0.931 . S
H2084 C2099 0.930 . S
C2085 H2073 0.930 . S
C2085 C2086 1.399 . S
C2085 C2090 1.399 . S
C2086 C2085 1.399 . S
C2086 C2087 1.376 . S
C2087 H2074 0.930 . S
C2087 C2086 1.376 . S
C2087 C2088 1.388 . S
C2088 H2075 0.930 . S
C2088 C2087 1.388 . S
C2088 C2089 1.390 . S
C2089 C2088 1.390 . S
C2089 C2090 1.394 . S
C2089 C2095 1.465 1_455 S
C2090 C2085 1.399 . S
C2090 C2089 1.394 . S
C2090 C2091 1.516 1_455 S
C2091 C2090 1.516 1_655 S
C2091 C2092 1.502 . S
C2091 C2093 1.561 1_655 S
C2091 C2094 1.526 . S
C2092 H2076 0.959 . S
C2092 H2077 0.959 . S
C2092 H2078 0.961 . S
C2092 C2091 1.502 . S
C2093 H2079 0.960 . S
C2093 H2080 0.961 . S
C2093 H2081 0.959 . S
C2093 C2091 1.561 1_455 S
C2094 C2091 1.526 . S
C2094 C2095 1.396 . S
C2094 C2099 1.390 . S
C2095 C2089 1.465 1_655 S
C2095 C2094 1.396 . S
C2095 C2096 1.399 . S
C2096 H2082 0.929 . S
C2096 C2095 1.399 . S
C2096 C2097 1.385 . S
C2097 H2083 0.931 . S
C2097 C2096 1.385 . S
C2097 C2098 1.389 . S
C2098 C2097 1.389 . S
C2098 C2099 1.387 . S
C2099 H2084 0.930 . S
C2099 C2094 1.390 . S
C2099 C2098 1.387 . S
H2100 C2112 0.930 . S
H2101 C2114 0.930 . S
H2102 C2115 0.930 . S
H2103 C2119 0.959 . S
H2104 C2119 0.959 . S
H2105 C2119 0.961 . S
H2106 C2120 0.960 . S
H2107 C2120 0.961 . S
H2108 C2120 0.959 . S
H2109 C2123 0.938 . S
H2110 C2124 0.931 . S
H2111 C2126 0.930 . S
C2112 H2100 0.930 . S
C2112 C2113 1.399 . S
C2112 C2117 1.399 . S
C2113 C2112 1.399 . S
C2113 C2114 1.376 . S
C2114 H2101 0.930 . S
C2114 C2113 1.376 . S
C2114 C2115 1.388 . S
C2115 H2102 0.930 . S
C2115 C2114 1.388 . S
C2115 C2116 1.390 . S
C2116 C2115 1.390 . S
C2116 C2117 1.394 . S
C2116 C2122 1.465 1_545 S
C2117 C2112 1.399 . S
C2117 C2116 1.394 . S
C2117 C2118 1.516 1_545 S
C2118 C2117 1.516 1_565 S
C2118 C2119 1.502 . S
C2118 C2120 1.561 . S
C2118 C2121 1.526 . S
C2119 H2103 0.959 . S
C2119 H2104 0.959 . S
C2119 H2105 0.961 . S
C2119 C2118 1.502 . S
C2120 H2106 0.960 . S
C2120 H2107 0.961 . S
C2120 H2108 0.959 . S
C2120 C2118 1.561 . S
C2121 C2118 1.526 . S
C2121 C2122 1.396 . S
C2121 C2126 1.390 . S
C2122 C2116 1.465 1_565 S
C2122 C2121 1.396 . S
C2122 C2123 1.394 1_565 S
C2123 H2109 0.938 . S
C2123 C2122 1.394 1_545 S
C2123 C2124 1.381 1_545 S
C2124 H2110 0.931 . S
C2124 C2123 1.381 1_565 S
C2124 C2125 1.389 . S
C2125 C2124 1.389 . S
C2125 C2126 1.387 . S
C2126 H2111 0.930 . S
C2126 C2121 1.390 . S
C2126 C2125 1.387 . S
H2127 C2139 0.930 . S
H2128 C2141 0.930 . S
H2129 C2142 0.930 . S
H2130 C2146 0.959 . S
H2131 C2146 0.959 . S
H2132 C2146 0.961 . S
H2133 C2147 0.960 . S
H2134 C2147 0.961 . S
H2135 C2147 0.959 . S
H2136 C2150 0.929 . S
H2137 C2151 0.931 . S
H2138 C2153 0.930 . S
C2139 H2127 0.930 . S
C2139 C2140 1.399 . S
C2139 C2144 1.399 . S
C2140 C2139 1.399 . S
C2140 C2141 1.376 . S
C2141 H2128 0.930 . S
C2141 C2140 1.376 . S
C2141 C2142 1.388 . S
C2142 H2129 0.930 . S
C2142 C2141 1.388 . S
C2142 C2143 1.390 . S
C2143 C2142 1.390 . S
C2143 C2144 1.394 . S
C2143 C2149 1.465 . S
C2144 C2139 1.399 . S
C2144 C2143 1.394 . S
C2144 C2145 1.516 . S
C2145 C2144 1.516 . S
C2145 C2146 1.502 . S
C2145 C2147 1.561 . S
C2145 C2148 1.526 . S
C2146 H2130 0.959 . S
C2146 H2131 0.959 . S
C2146 H2132 0.961 . S
C2146 C2145 1.502 . S
C2147 H2133 0.960 . S
C2147 H2134 0.961 . S
C2147 H2135 0.959 . S
C2147 C2145 1.561 . S
C2148 C2145 1.526 . S
C2148 C2149 1.396 . S
C2148 C2153 1.390 . S
C2149 C2143 1.465 . S
C2149 C2148 1.396 . S
C2149 C2150 1.399 . S
C2150 H2136 0.929 . S
C2150 C2149 1.399 . S
C2150 C2151 1.385 . S
C2151 H2137 0.931 . S
C2151 C2150 1.385 . S
C2151 C2152 1.389 . S
C2152 C2151 1.389 . S
C2152 C2153 1.387 . S
C2153 H2138 0.930 . S
C2153 C2148 1.390 . S
C2153 C2152 1.387 . S
H2154 C2166 0.930 . S
H2155 C2168 0.930 . S
H2156 C2169 0.930 . S
H2157 C2173 0.959 . S
H2158 C2173 0.959 . S
H2159 C2173 0.961 . S
H2160 C2174 0.960 1_545 S
H2161 C2174 0.961 . S
H2162 C2174 0.959 . S
H2163 C2177 0.929 . S
H2164 C2178 0.931 . S
H2165 C2180 0.930 . S
C2166 H2154 0.930 . S
C2166 C2167 1.399 . S
C2166 C2171 1.399 . S
C2167 C2166 1.399 . S
C2167 C2168 1.376 . S
C2168 H2155 0.930 . S
C2168 C2167 1.376 . S
C2168 C2169 1.388 . S
C2169 H2156 0.930 . S
C2169 C2168 1.388 . S
C2169 C2170 1.390 . S
C2170 C2169 1.390 . S
C2170 C2171 1.394 . S
C2170 C2176 1.465 1_545 S
C2171 C2166 1.399 . S
C2171 C2170 1.394 . S
C2171 C2172 1.516 . S
C2172 C2171 1.516 . S
C2172 C2173 1.502 . S
C2172 C2174 1.561 1_545 S
C2172 C2175 1.526 1_545 S
C2173 H2157 0.959 . S
C2173 H2158 0.959 . S
C2173 H2159 0.961 . S
C2173 C2172 1.502 . S
C2174 H2160 0.960 1_565 S
C2174 H2161 0.961 . S
C2174 H2162 0.959 . S
C2174 C2172 1.561 1_565 S
C2175 C2172 1.526 1_565 S
C2175 C2176 1.396 . S
C2175 C2180 1.390 . S
C2176 C2170 1.465 1_565 S
C2176 C2175 1.396 . S
C2176 C2177 1.399 . S
C2177 H2163 0.929 . S
C2177 C2176 1.399 . S
C2177 C2178 1.385 . S
C2178 H2164 0.931 . S
C2178 C2177 1.385 . S
C2178 C2179 1.389 . S
C2179 C2178 1.389 . S
C2179 C2180 1.387 . S
C2180 H2165 0.930 . S
C2180 C2175 1.390 . S
C2180 C2179 1.387 . S
H2181 C2193 0.930 . S
H2182 C2195 0.930 . S
H2183 C2196 0.930 . S
H2184 C2200 0.959 . S
H2185 C2200 0.959 . S
H2186 C2200 0.961 . S
H2187 C2201 0.960 . S
H2188 C2201 0.961 . S
H2189 C2201 0.959 . S
H2190 C2204 0.929 . S
H2191 C2205 0.931 . S
H2192 C2207 0.930 . S
C2193 H2181 0.930 . S
C2193 C2194 1.399 . S
C2193 C2198 1.399 . S
C2194 C2193 1.399 . S
C2194 C2195 1.376 . S
C2195 H2182 0.930 . S
C2195 C2194 1.376 . S
C2195 C2196 1.388 . S
C2196 H2183 0.930 . S
C2196 C2195 1.388 . S
C2196 C2197 1.390 . S
C2197 C2196 1.390 . S
C2197 C2198 1.394 . S
C2197 C2203 1.465 . S
C2198 C2193 1.399 . S
C2198 C2197 1.394 . S
C2198 C2199 1.516 . S
C2199 C2198 1.516 . S
C2199 C2200 1.502 . S
C2199 C2201 1.561 . S
C2199 C2202 1.526 . S
C2200 H2184 0.959 . S
C2200 H2185 0.959 . S
C2200 H2186 0.961 . S
C2200 C2199 1.502 . S
C2201 H2187 0.960 . S
C2201 H2188 0.961 . S
C2201 H2189 0.959 . S
C2201 C2199 1.561 . S
C2202 C2199 1.526 . S
C2202 C2203 1.396 . S
C2202 C2207 1.390 . S
C2203 C2197 1.465 . S
C2203 C2202 1.396 . S
C2203 C2204 1.399 . S
C2204 H2190 0.929 . S
C2204 C2203 1.399 . S
C2204 C2205 1.385 . S
C2205 H2191 0.931 . S
C2205 C2204 1.385 . S
C2205 C2206 1.389 . S
C2206 C2205 1.389 . S
C2206 C2207 1.387 . S
C2207 H2192 0.930 . S
C2207 C2202 1.390 . S
C2207 C2206 1.387 . S
H2208 C2220 0.930 . S
H2209 C2222 0.930 . S
H2210 C2223 0.930 . S
H2211 C2227 0.959 . S
H2212 C2227 0.959 . S
H2213 C2227 0.961 . S
H2214 C2228 0.960 . S
H2215 C2228 0.961 . S
H2216 C2228 0.959 . S
H2217 C2231 0.929 . S
H2218 C2232 0.931 . S
H2219 C2234 0.930 . S
C2220 H2208 0.930 . S
C2220 C2221 1.399 . S
C2220 C2225 1.399 . S
C2221 C2220 1.399 . S
C2221 C2222 1.376 . S
C2222 H2209 0.930 . S
C2222 C2221 1.376 . S
C2222 C2223 1.388 . S
C2223 H2210 0.930 . S
C2223 C2222 1.388 . S
C2223 C2224 1.390 . S
C2224 C2223 1.390 . S
C2224 C2225 1.394 . S
C2224 C2230 1.465 1_455 S
C2225 C2220 1.399 . S
C2225 C2224 1.394 . S
C2225 C2226 1.516 1_455 S
C2226 C2225 1.516 1_655 S
C2226 C2227 1.502 . S
C2226 C2228 1.561 1_655 S
C2226 C2229 1.526 . S
C2227 H2211 0.959 . S
C2227 H2212 0.959 . S
C2227 H2213 0.961 . S
C2227 C2226 1.502 . S
C2228 H2214 0.960 . S
C2228 H2215 0.961 . S
C2228 H2216 0.959 . S
C2228 C2226 1.561 1_455 S
C2229 C2226 1.526 . S
C2229 C2230 1.396 . S
C2229 C2234 1.390 . S
C2230 C2224 1.465 1_655 S
C2230 C2229 1.396 . S
C2230 C2231 1.399 . S
C2231 H2217 0.929 . S
C2231 C2230 1.399 . S
C2231 C2232 1.385 . S
C2232 H2218 0.931 . S
C2232 C2231 1.385 . S
C2232 C2233 1.389 . S
C2233 C2232 1.389 . S
C2233 C2234 1.387 . S
C2234 H2219 0.930 . S
C2234 C2229 1.390 . S
C2234 C2233 1.387 . S
H2235 C2247 0.930 . S
H2236 C2249 0.930 . S
H2237 C2250 0.930 . S
H2238 C2254 0.959 . S
H2239 C2254 0.959 1_455 S
H2240 C2254 0.961 . S
H2241 C2255 0.960 . S
H2242 C2255 0.961 . S
H2243 C2255 0.959 . S
H2244 C2258 0.929 . S
H2245 C2259 0.931 . S
H2246 C2261 0.930 . S
C2247 H2235 0.930 . S
C2247 C2248 1.399 . S
C2247 C2252 1.399 . S
C2248 C2247 1.399 . S
C2248 C2249 1.376 . S
C2249 H2236 0.930 . S
C2249 C2248 1.376 . S
C2249 C2250 1.388 . S
C2250 H2237 0.930 . S
C2250 C2249 1.388 . S
C2250 C2251 1.390 . S
C2251 C2250 1.390 . S
C2251 C2252 1.394 . S
C2251 C2257 1.465 1_655 S
C2252 C2247 1.399 . S
C2252 C2251 1.394 . S
C2252 C2253 1.516 1_655 S
C2253 C2252 1.516 1_455 S
C2253 C2254 1.502 1_455 S
C2253 C2255 1.561 . S
C2253 C2256 1.526 . S
C2254 H2238 0.959 . S
C2254 H2239 0.959 1_655 S
C2254 H2240 0.961 . S
C2254 C2253 1.502 1_655 S
C2255 H2241 0.960 . S
C2255 H2242 0.961 . S
C2255 H2243 0.959 . S
C2255 C2253 1.561 . S
C2256 C2253 1.526 . S
C2256 C2257 1.396 . S
C2256 C2261 1.390 . S
C2257 C2251 1.465 1_455 S
C2257 C2256 1.396 . S
C2257 C2258 1.399 . S
C2258 H2244 0.929 . S
C2258 C2257 1.399 . S
C2258 C2259 1.385 . S
C2259 H2245 0.931 . S
C2259 C2258 1.385 . S
C2259 C2260 1.389 . S
C2260 C2259 1.389 . S
C2260 C2261 1.387 . S
C2261 H2246 0.930 . S
C2261 C2256 1.390 . S
C2261 C2260 1.387 . S
H2262 C2274 0.930 . S
H2263 C2276 0.930 . S
H2264 C2277 0.930 . S
H2265 C2281 0.959 . S
H2266 C2281 0.959 . S
H2267 C2281 0.961 . S
H2268 C2282 0.960 1_545 S
H2269 C2282 0.961 . S
H2270 C2282 0.959 . S
H2271 C2285 0.929 . S
H2272 C2286 0.931 . S
H2273 C2288 0.930 . S
C2274 H2262 0.930 . S
C2274 C2275 1.399 . S
C2274 C2279 1.399 . S
C2275 C2274 1.399 . S
C2275 C2276 1.376 . S
C2276 H2263 0.930 . S
C2276 C2275 1.376 . S
C2276 C2277 1.388 . S
C2277 H2264 0.930 . S
C2277 C2276 1.388 . S
C2277 C2278 1.390 . S
C2278 C2277 1.390 . S
C2278 C2279 1.394 . S
C2278 C2284 1.465 1_545 S
C2279 C2274 1.399 . S
C2279 C2278 1.394 . S
C2279 C2280 1.516 . S
C2280 C2279 1.516 . S
C2280 C2281 1.502 . S
C2280 C2282 1.561 1_545 S
C2280 C2283 1.526 1_545 S
C2281 H2265 0.959 . S
C2281 H2266 0.959 . S
C2281 H2267 0.961 . S
C2281 C2280 1.502 . S
C2282 H2268 0.960 1_565 S
C2282 H2269 0.961 . S
C2282 H2270 0.959 . S
C2282 C2280 1.561 1_565 S
C2283 C2280 1.526 1_565 S
C2283 C2284 1.396 . S
C2283 C2288 1.390 . S
C2284 C2278 1.465 1_565 S
C2284 C2283 1.396 . S
C2284 C2285 1.399 . S
C2285 H2271 0.929 . S
C2285 C2284 1.399 . S
C2285 C2286 1.385 . S
C2286 H2272 0.931 . S
C2286 C2285 1.385 . S
C2286 C2287 1.389 . S
C2287 C2286 1.389 . S
C2287 C2288 1.387 . S
C2288 H2273 0.930 . S
C2288 C2283 1.390 . S
C2288 C2287 1.387 . S
H2289 C2301 0.930 . S
H2290 C2303 0.930 . S
H2291 C2304 0.930 . S
H2292 C2308 0.959 . S
H2293 C2308 0.959 . S
H2294 C2308 0.961 . S
H2295 C2309 0.960 . S
H2296 C2309 0.961 . S
H2297 C2309 0.959 . S
H2298 C2312 0.929 . S
H2299 C2313 0.931 . S
H2300 C2315 0.930 . S
C2301 H2289 0.930 . S
C2301 C2302 1.399 . S
C2301 C2306 1.399 . S
C2302 C2301 1.399 . S
C2302 C2303 1.376 . S
C2303 H2290 0.930 . S
C2303 C2302 1.376 . S
C2303 C2304 1.388 . S
C2304 H2291 0.930 . S
C2304 C2303 1.388 . S
C2304 C2305 1.390 . S
C2305 C2304 1.390 . S
C2305 C2306 1.394 . S
C2305 C2311 1.465 . S
C2306 C2301 1.399 . S
C2306 C2305 1.394 . S
C2306 C2307 1.516 . S
C2307 C2306 1.516 . S
C2307 C2308 1.502 . S
C2307 C2309 1.561 . S
C2307 C2310 1.526 . S
C2308 H2292 0.959 . S
C2308 H2293 0.959 . S
C2308 H2294 0.961 . S
C2308 C2307 1.502 . S
C2309 H2295 0.960 . S
C2309 H2296 0.961 . S
C2309 H2297 0.959 . S
C2309 C2307 1.561 . S
C2310 C2307 1.526 . S
C2310 C2311 1.396 . S
C2310 C2315 1.390 . S
C2311 C2305 1.465 . S
C2311 C2310 1.396 . S
C2311 C2312 1.399 . S
C2312 H2298 0.929 . S
C2312 C2311 1.399 . S
C2312 C2313 1.385 . S
C2313 H2299 0.931 . S
C2313 C2312 1.385 . S
C2313 C2314 1.389 . S
C2314 C2313 1.389 . S
C2314 C2315 1.387 . S
C2315 H2300 0.930 . S
C2315 C2310 1.390 . S
C2315 C2314 1.387 . S
H2316 C2328 0.930 . S
H2317 C2330 0.930 . S
H2318 C2331 0.930 . S
H2319 C2335 0.959 . S
H2320 C2335 0.959 . S
H2321 C2335 0.961 . S
H2322 C2336 0.960 . S
H2323 C2336 0.961 . S
H2324 C2336 0.959 . S
H2325 C2339 0.929 . S
H2326 C2340 0.931 . S
H2327 C2342 0.930 . S
C2328 H2316 0.930 . S
C2328 C2329 1.399 . S
C2328 C2333 1.399 . S
C2329 C2328 1.399 . S
C2329 C2330 1.376 . S
C2330 H2317 0.930 . S
C2330 C2329 1.376 . S
C2330 C2331 1.388 . S
C2331 H2318 0.930 . S
C2331 C2330 1.388 . S
C2331 C2332 1.390 . S
C2332 C2331 1.390 . S
C2332 C2333 1.394 . S
C2332 C2338 1.465 . S
C2333 C2328 1.399 . S
C2333 C2332 1.394 . S
C2333 C2334 1.516 . S
C2334 C2333 1.516 . S
C2334 C2335 1.502 . S
C2334 C2336 1.561 . S
C2334 C2337 1.526 . S
C2335 H2319 0.959 . S
C2335 H2320 0.959 . S
C2335 H2321 0.961 . S
C2335 C2334 1.502 . S
C2336 H2322 0.960 . S
C2336 H2323 0.961 . S
C2336 H2324 0.959 . S
C2336 C2334 1.561 . S
C2337 C2334 1.526 . S
C2337 C2338 1.396 . S
C2337 C2342 1.390 . S
C2338 C2332 1.465 . S
C2338 C2337 1.396 . S
C2338 C2339 1.399 . S
C2339 H2325 0.929 . S
C2339 C2338 1.399 . S
C2339 C2340 1.385 . S
C2340 H2326 0.931 . S
C2340 C2339 1.385 . S
C2340 C2341 1.389 . S
C2341 C2340 1.389 . S
C2341 C2342 1.387 . S
C2342 H2327 0.930 . S
C2342 C2337 1.390 . S
C2342 C2341 1.387 . S
H2343 C2355 0.930 . S
H2344 C2357 0.930 . S
H2345 C2358 0.930 . S
H2346 C2362 0.959 . S
H2347 C2362 0.959 . S
H2348 C2362 0.961 . S
H2349 C2363 0.960 . S
H2350 C2363 0.961 . S
H2351 C2363 0.959 . S
H2352 C2366 0.929 . S
H2353 C2367 0.931 . S
H2354 C2369 0.930 . S
C2355 H2343 0.930 . S
C2355 C2356 1.399 . S
C2355 C2360 1.399 . S
C2356 C2355 1.399 . S
C2356 C2357 1.376 . S
C2357 H2344 0.930 . S
C2357 C2356 1.376 . S
C2357 C2358 1.388 . S
C2358 H2345 0.930 . S
C2358 C2357 1.388 . S
C2358 C2359 1.390 . S
C2359 C2358 1.390 . S
C2359 C2360 1.394 . S
C2359 C2365 1.465 . S
C2360 C2355 1.399 . S
C2360 C2359 1.394 . S
C2360 C2361 1.516 . S
C2361 C2360 1.516 . S
C2361 C2362 1.502 . S
C2361 C2363 1.561 . S
C2361 C2364 1.526 . S
C2362 H2346 0.959 . S
C2362 H2347 0.959 . S
C2362 H2348 0.961 . S
C2362 C2361 1.502 . S
C2363 H2349 0.960 . S
C2363 H2350 0.961 . S
C2363 H2351 0.959 . S
C2363 C2361 1.561 . S
C2364 C2361 1.526 . S
C2364 C2365 1.396 . S
C2364 C2369 1.390 . S
C2365 C2359 1.465 . S
C2365 C2364 1.396 . S
C2365 C2366 1.399 . S
C2366 H2352 0.929 . S
C2366 C2365 1.399 . S
C2366 C2367 1.385 . S
C2367 H2353 0.931 . S
C2367 C2366 1.385 . S
C2367 C2368 1.389 . S
C2368 C2367 1.389 . S
C2368 C2369 1.387 . S
C2369 H2354 0.930 . S
C2369 C2364 1.390 . S
C2369 C2368 1.387 . S
H2370 C2382 0.930 . S
H2371 C2384 0.930 . S
H2372 C2385 0.930 . S
H2373 C2389 0.959 . S
H2374 C2389 0.959 . S
H2375 C2389 0.961 . S
H2376 C2390 0.960 . S
H2377 C2390 0.961 . S
H2378 C2390 0.959 . S
H2379 C2393 0.929 . S
H2380 C2394 0.931 . S
H2381 C2396 0.930 . S
C2382 H2370 0.930 . S
C2382 C2383 1.399 . S
C2382 C2387 1.399 . S
C2383 C2382 1.399 . S
C2383 C2384 1.376 . S
C2384 H2371 0.930 . S
C2384 C2383 1.376 . S
C2384 C2385 1.388 . S
C2385 H2372 0.930 . S
C2385 C2384 1.388 . S
C2385 C2386 1.390 . S
C2386 C2385 1.390 . S
C2386 C2387 1.394 . S
C2386 C2392 1.465 . S
C2387 C2382 1.399 . S
C2387 C2386 1.394 . S
C2387 C2388 1.516 . S
C2388 C2387 1.516 . S
C2388 C2389 1.502 . S
C2388 C2390 1.561 . S
C2388 C2391 1.526 . S
C2389 H2373 0.959 . S
C2389 H2374 0.959 . S
C2389 H2375 0.961 . S
C2389 C2388 1.502 . S
C2390 H2376 0.960 . S
C2390 H2377 0.961 . S
C2390 H2378 0.959 . S
C2390 C2388 1.561 . S
C2391 C2388 1.526 . S
C2391 C2392 1.396 . S
C2391 C2396 1.390 . S
C2392 C2386 1.465 . S
C2392 C2391 1.396 . S
C2392 C2393 1.399 . S
C2393 H2379 0.929 . S
C2393 C2392 1.399 . S
C2393 C2394 1.385 . S
C2394 H2380 0.931 . S
C2394 C2393 1.385 . S
C2394 C2395 1.389 . S
C2395 C2394 1.389 . S
C2395 C2396 1.387 . S
C2396 H2381 0.930 . S
C2396 C2391 1.390 . S
C2396 C2395 1.387 . S
H2397 C2409 0.930 . S
H2398 C2411 0.930 . S
H2399 C2412 0.930 . S
H2400 C2416 0.959 . S
H2401 C2416 0.959 . S
H2402 C2416 0.961 . S
H2403 C2417 0.960 . S
H2404 C2417 0.961 . S
H2405 C2417 0.959 . S
H2406 C2420 0.929 . S
H2407 C2421 0.931 . S
H2408 C2423 0.930 . S
C2409 H2397 0.930 . S
C2409 C2410 1.399 . S
C2409 C2414 1.399 . S
C2410 C2409 1.399 . S
C2410 C2411 1.376 . S
C2411 H2398 0.930 . S
C2411 C2410 1.376 . S
C2411 C2412 1.388 . S
C2412 H2399 0.930 . S
C2412 C2411 1.388 . S
C2412 C2413 1.390 . S
C2413 C2412 1.390 . S
C2413 C2414 1.394 . S
C2413 C2419 1.465 . S
C2414 C2409 1.399 . S
C2414 C2413 1.394 . S
C2414 C2415 1.516 . S
C2415 C2414 1.516 . S
C2415 C2416 1.502 . S
C2415 C2417 1.561 . S
C2415 C2418 1.526 . S
C2416 H2400 0.959 . S
C2416 H2401 0.959 . S
C2416 H2402 0.961 . S
C2416 C2415 1.502 . S
C2417 H2403 0.960 . S
C2417 H2404 0.961 . S
C2417 H2405 0.959 . S
C2417 C2415 1.561 . S
C2418 C2415 1.526 . S
C2418 C2419 1.396 . S
C2418 C2423 1.390 . S
C2419 C2413 1.465 . S
C2419 C2418 1.396 . S
C2419 C2420 1.399 . S
C2420 H2406 0.929 . S
C2420 C2419 1.399 . S
C2420 C2421 1.385 . S
C2421 H2407 0.931 . S
C2421 C2420 1.385 . S
C2421 C2422 1.389 . S
C2422 C2421 1.389 . S
C2422 C2423 1.387 . S
C2423 H2408 0.930 . S
C2423 C2418 1.390 . S
C2423 C2422 1.387 . S
H2424 C2436 0.930 . S
H2425 C2438 0.930 . S
H2426 C2439 0.930 . S
H2427 C2443 0.959 . S
H2428 C2443 0.959 . S
H2429 C2443 0.961 . S
H2430 C2444 0.960 . S
H2431 C2444 0.961 . S
H2432 C2444 0.959 . S
H2433 C2447 0.929 . S
H2434 C2448 0.931 . S
H2435 C2450 0.930 . S
C2436 H2424 0.930 . S
C2436 C2437 1.399 . S
C2436 C2441 1.399 . S
C2437 C2436 1.399 . S
C2437 C2438 1.376 . S
C2438 H2425 0.930 . S
C2438 C2437 1.376 . S
C2438 C2439 1.388 . S
C2439 H2426 0.930 . S
C2439 C2438 1.388 . S
C2439 C2440 1.390 . S
C2440 C2439 1.390 . S
C2440 C2441 1.394 . S
C2440 C2446 1.465 . S
C2441 C2436 1.399 . S
C2441 C2440 1.394 . S
C2441 C2442 1.516 . S
C2442 C2441 1.516 . S
C2442 C2443 1.502 . S
C2442 C2444 1.561 . S
C2442 C2445 1.526 . S
C2443 H2427 0.959 . S
C2443 H2428 0.959 . S
C2443 H2429 0.961 . S
C2443 C2442 1.502 . S
C2444 H2430 0.960 . S
C2444 H2431 0.961 . S
C2444 H2432 0.959 . S
C2444 C2442 1.561 . S
C2445 C2442 1.526 . S
C2445 C2446 1.396 . S
C2445 C2450 1.390 . S
C2446 C2440 1.465 . S
C2446 C2445 1.396 . S
C2446 C2447 1.399 . S
C2447 H2433 0.929 . S
C2447 C2446 1.399 . S
C2447 C2448 1.385 . S
C2448 H2434 0.931 . S
C2448 C2447 1.385 . S
C2448 C2449 1.389 . S
C2449 C2448 1.389 . S
C2449 C2450 1.387 . S
C2450 H2435 0.930 . S
C2450 C2445 1.390 . S
C2450 C2449 1.387 . S
H2451 C2463 0.930 . S
H2452 C2465 0.930 . S
H2453 C2466 0.930 . S
H2454 C2470 0.959 . S
H2455 C2470 0.959 . S
H2456 C2470 0.961 . S
H2457 C2471 0.960 . S
H2458 C2471 0.961 . S
H2459 C2471 0.959 . S
H2460 C2474 0.929 . S
H2461 C2475 0.931 . S
H2462 C2477 0.930 . S
C2463 H2451 0.930 . S
C2463 C2464 1.399 . S
C2463 C2468 1.399 . S
C2464 C2463 1.399 . S
C2464 C2465 1.376 . S
C2465 H2452 0.930 . S
C2465 C2464 1.376 . S
C2465 C2466 1.388 . S
C2466 H2453 0.930 . S
C2466 C2465 1.388 . S
C2466 C2467 1.390 . S
C2467 C2466 1.390 . S
C2467 C2468 1.394 . S
C2467 C2473 1.465 . S
C2468 C2463 1.399 . S
C2468 C2467 1.394 . S
C2468 C2469 1.516 . S
C2469 C2468 1.516 . S
C2469 C2470 1.502 . S
C2469 C2471 1.561 . S
C2469 C2472 1.526 . S
C2470 H2454 0.959 . S
C2470 H2455 0.959 . S
C2470 H2456 0.961 . S
C2470 C2469 1.502 . S
C2471 H2457 0.960 . S
C2471 H2458 0.961 . S
C2471 H2459 0.959 . S
C2471 C2469 1.561 . S
C2472 C2469 1.526 . S
C2472 C2473 1.396 . S
C2472 C2477 1.390 . S
C2473 C2467 1.465 . S
C2473 C2472 1.396 . S
C2473 C2474 1.399 . S
C2474 H2460 0.929 . S
C2474 C2473 1.399 . S
C2474 C2475 1.385 . S
C2475 H2461 0.931 . S
C2475 C2474 1.385 . S
C2475 C2476 1.389 . S
C2476 C2475 1.389 . S
C2476 C2477 1.387 . S
C2477 H2462 0.930 . S
C2477 C2472 1.390 . S
C2477 C2476 1.387 . S
H2478 C2490 0.930 . S
H2479 C2492 0.930 . S
H2480 C2493 0.930 . S
H2481 C2497 0.959 . S
H2482 C2497 0.959 . S
H2483 C2497 0.961 . S
H2484 C2498 0.960 . S
H2485 C2498 0.961 . S
H2486 C2498 0.959 . S
H2487 C2501 0.929 . S
H2488 C2502 0.931 . S
H2489 C2504 0.930 . S
C2490 H2478 0.930 . S
C2490 C2491 1.399 . S
C2490 C2495 1.399 . S
C2491 C2490 1.399 . S
C2491 C2492 1.376 . S
C2492 H2479 0.930 . S
C2492 C2491 1.376 . S
C2492 C2493 1.388 . S
C2493 H2480 0.930 . S
C2493 C2492 1.388 . S
C2493 C2494 1.390 . S
C2494 C2493 1.390 . S
C2494 C2495 1.394 . S
C2494 C2500 1.465 . S
C2495 C2490 1.399 . S
C2495 C2494 1.394 . S
C2495 C2496 1.516 . S
C2496 C2495 1.516 . S
C2496 C2497 1.502 . S
C2496 C2498 1.561 . S
C2496 C2499 1.526 . S
C2497 H2481 0.959 . S
C2497 H2482 0.959 . S
C2497 H2483 0.961 . S
C2497 C2496 1.502 . S
C2498 H2484 0.960 . S
C2498 H2485 0.961 . S
C2498 H2486 0.959 . S
C2498 C2496 1.561 . S
C2499 C2496 1.526 . S
C2499 C2500 1.396 . S
C2499 C2504 1.390 . S
C2500 C2494 1.465 . S
C2500 C2499 1.396 . S
C2500 C2501 1.399 . S
C2501 H2487 0.929 . S
C2501 C2500 1.399 . S
C2501 C2502 1.385 . S
C2502 H2488 0.931 . S
C2502 C2501 1.385 . S
C2502 C2503 1.389 . S
C2503 C2502 1.389 . S
C2503 C2504 1.387 . S
C2504 H2489 0.930 . S
C2504 C2499 1.390 . S
C2504 C2503 1.387 . S
H2505 C2517 0.930 . S
H2506 C2519 0.930 . S
H2507 C2520 0.930 . S
H2508 C2524 0.959 . S
H2509 C2524 0.959 . S
H2510 C2524 0.961 . S
H2511 C2525 0.960 . S
H2512 C2525 0.961 . S
H2513 C2525 0.959 . S
H2514 C2528 0.929 . S
H2515 C2529 0.931 . S
H2516 C2531 0.930 . S
C2517 H2505 0.930 . S
C2517 C2518 1.399 . S
C2517 C2522 1.399 . S
C2518 C2517 1.399 . S
C2518 C2519 1.376 . S
C2519 H2506 0.930 . S
C2519 C2518 1.376 . S
C2519 C2520 1.388 . S
C2520 H2507 0.930 . S
C2520 C2519 1.388 . S
C2520 C2521 1.390 . S
C2521 C2520 1.390 . S
C2521 C2522 1.394 . S
C2521 C2527 1.465 . S
C2522 C2517 1.399 . S
C2522 C2521 1.394 . S
C2522 C2523 1.516 . S
C2523 C2522 1.516 . S
C2523 C2524 1.502 . S
C2523 C2525 1.561 . S
C2523 C2526 1.526 . S
C2524 H2508 0.959 . S
C2524 H2509 0.959 . S
C2524 H2510 0.961 . S
C2524 C2523 1.502 . S
C2525 H2511 0.960 . S
C2525 H2512 0.961 . S
C2525 H2513 0.959 . S
C2525 C2523 1.561 . S
C2526 C2523 1.526 . S
C2526 C2527 1.396 . S
C2526 C2531 1.390 . S
C2527 C2521 1.465 . S
C2527 C2526 1.396 . S
C2527 C2528 1.399 . S
C2528 H2514 0.929 . S
C2528 C2527 1.399 . S
C2528 C2529 1.385 . S
C2529 H2515 0.931 . S
C2529 C2528 1.385 . S
C2529 C2530 1.389 . S
C2530 C2529 1.389 . S
C2530 C2531 1.387 . S
C2531 H2516 0.930 . S
C2531 C2526 1.390 . S
C2531 C2530 1.387 . S
H2532 C2544 0.930 . S
H2533 C2546 0.930 . S
H2534 C2547 0.930 . S
H2535 C2551 0.959 . S
H2536 C2551 0.959 . S
H2537 C2551 0.961 . S
H2538 C2552 0.960 . S
H2539 C2552 0.961 . S
H2540 C2552 0.959 . S
H2541 C2555 0.929 . S
H2542 C2556 0.931 . S
H2543 C2558 0.930 . S
C2544 H2532 0.930 . S
C2544 C2545 1.399 . S
C2544 C2549 1.399 . S
C2545 C2544 1.399 . S
C2545 C2546 1.376 . S
C2546 H2533 0.930 . S
C2546 C2545 1.376 . S
C2546 C2547 1.388 . S
C2547 H2534 0.930 . S
C2547 C2546 1.388 . S
C2547 C2548 1.390 . S
C2548 C2547 1.390 . S
C2548 C2549 1.394 . S
C2548 C2554 1.465 . S
C2549 C2544 1.399 . S
C2549 C2548 1.394 . S
C2549 C2550 1.516 . S
C2550 C2549 1.516 . S
C2550 C2551 1.502 . S
C2550 C2552 1.561 . S
C2550 C2553 1.526 . S
C2551 H2535 0.959 . S
C2551 H2536 0.959 . S
C2551 H2537 0.961 . S
C2551 C2550 1.502 . S
C2552 H2538 0.960 . S
C2552 H2539 0.961 . S
C2552 H2540 0.959 . S
C2552 C2550 1.561 . S
C2553 C2550 1.526 . S
C2553 C2554 1.396 . S
C2553 C2558 1.390 . S
C2554 C2548 1.465 . S
C2554 C2553 1.396 . S
C2554 C2555 1.399 . S
C2555 H2541 0.929 . S
C2555 C2554 1.399 . S
C2555 C2556 1.385 . S
C2556 H2542 0.931 . S
C2556 C2555 1.385 . S
C2556 C2557 1.389 . S
C2557 C2556 1.389 . S
C2557 C2558 1.387 . S
C2558 H2543 0.930 . S
C2558 C2553 1.390 . S
C2558 C2557 1.387 . S
H2559 C2571 0.930 . S
H2560 C2573 0.930 . S
H2561 C2574 0.930 . S
H2562 C2578 0.959 . S
H2563 C2578 0.959 . S
H2564 C2578 0.961 . S
H2565 C2579 0.960 . S
H2566 C2579 0.961 . S
H2567 C2579 0.959 . S
H2568 C2582 0.929 . S
H2569 C2583 0.931 . S
H2570 C2585 0.930 . S
C2571 H2559 0.930 . S
C2571 C2572 1.399 . S
C2571 C2576 1.399 . S
C2572 C2571 1.399 . S
C2572 C2573 1.376 . S
C2573 H2560 0.930 . S
C2573 C2572 1.376 . S
C2573 C2574 1.388 . S
C2574 H2561 0.930 . S
C2574 C2573 1.388 . S
C2574 C2575 1.390 . S
C2575 C2574 1.390 . S
C2575 C2576 1.394 . S
C2575 C2581 1.465 . S
C2576 C2571 1.399 . S
C2576 C2575 1.394 . S
C2576 C2577 1.516 . S
C2577 C2576 1.516 . S
C2577 C2578 1.502 . S
C2577 C2579 1.561 . S
C2577 C2580 1.526 . S
C2578 H2562 0.959 . S
C2578 H2563 0.959 . S
C2578 H2564 0.961 . S
C2578 C2577 1.502 . S
C2579 H2565 0.960 . S
C2579 H2566 0.961 . S
C2579 H2567 0.959 . S
C2579 C2577 1.561 . S
C2580 C2577 1.526 . S
C2580 C2581 1.396 . S
C2580 C2585 1.390 . S
C2581 C2575 1.465 . S
C2581 C2580 1.396 . S
C2581 C2582 1.399 . S
C2582 H2568 0.929 . S
C2582 C2581 1.399 . S
C2582 C2583 1.385 . S
C2583 H2569 0.931 . S
C2583 C2582 1.385 . S
C2583 C2584 1.389 . S
C2584 C2583 1.389 . S
C2584 C2585 1.387 . S
C2585 H2570 0.930 . S
C2585 C2580 1.390 . S
C2585 C2584 1.387 . S
H2586 C2598 0.930 . S
H2587 C2600 0.930 . S
H2588 C2601 0.930 . S
H2589 C2605 0.959 . S
H2590 C2605 0.959 . S
H2591 C2605 0.961 . S
H2592 C2606 0.960 . S
H2593 C2606 0.961 . S
H2594 C2606 0.959 . S
H2595 C2609 0.929 . S
H2596 C2610 0.931 . S
H2597 C2612 0.930 . S
C2598 H2586 0.930 . S
C2598 C2599 1.399 . S
C2598 C2603 1.399 . S
C2599 C2598 1.399 . S
C2599 C2600 1.376 . S
C2600 H2587 0.930 . S
C2600 C2599 1.376 . S
C2600 C2601 1.388 . S
C2601 H2588 0.930 . S
C2601 C2600 1.388 . S
C2601 C2602 1.390 . S
C2602 C2601 1.390 . S
C2602 C2603 1.394 . S
C2602 C2608 1.465 . S
C2603 C2598 1.399 . S
C2603 C2602 1.394 . S
C2603 C2604 1.516 . S
C2604 C2603 1.516 . S
C2604 C2605 1.502 . S
C2604 C2606 1.561 . S
C2604 C2607 1.526 . S
C2605 H2589 0.959 . S
C2605 H2590 0.959 . S
C2605 H2591 0.961 . S
C2605 C2604 1.502 . S
C2606 H2592 0.960 . S
C2606 H2593 0.961 . S
C2606 H2594 0.959 . S
C2606 C2604 1.561 . S
C2607 C2604 1.526 . S
C2607 C2608 1.396 . S
C2607 C2612 1.390 . S
C2608 C2602 1.465 . S
C2608 C2607 1.396 . S
C2608 C2609 1.399 . S
C2609 H2595 0.929 . S
C2609 C2608 1.399 . S
C2609 C2610 1.385 . S
C2610 H2596 0.931 . S
C2610 C2609 1.385 . S
C2610 C2611 1.389 . S
C2611 C2610 1.389 . S
C2611 C2612 1.387 . S
C2612 H2597 0.930 . S
C2612 C2607 1.390 . S
C2612 C2611 1.387 . S
H2613 C2625 0.930 . S
H2614 C2627 0.930 . S
H2615 C2628 0.930 . S
H2616 C2632 0.959 . S
H2617 C2632 0.959 . S
H2618 C2632 0.961 . S
H2619 C2633 0.960 . S
H2620 C2633 0.961 . S
H2621 C2633 0.959 . S
H2622 C2636 0.929 . S
H2623 C2637 0.931 . S
H2624 C2639 0.930 . S
C2625 H2613 0.930 . S
C2625 C2626 1.399 . S
C2625 C2630 1.399 . S
C2626 C2625 1.399 . S
C2626 C2627 1.376 . S
C2627 H2614 0.930 . S
C2627 C2626 1.376 . S
C2627 C2628 1.388 . S
C2628 H2615 0.930 . S
C2628 C2627 1.388 . S
C2628 C2629 1.390 . S
C2629 C2628 1.390 . S
C2629 C2630 1.394 . S
C2629 C2635 1.465 . S
C2630 C2625 1.399 . S
C2630 C2629 1.394 . S
C2630 C2631 1.516 . S
C2631 C2630 1.516 . S
C2631 C2632 1.502 . S
C2631 C2633 1.561 . S
C2631 C2634 1.526 . S
C2632 H2616 0.959 . S
C2632 H2617 0.959 . S
C2632 H2618 0.961 . S
C2632 C2631 1.502 . S
C2633 H2619 0.960 . S
C2633 H2620 0.961 . S
C2633 H2621 0.959 . S
C2633 C2631 1.561 . S
C2634 C2631 1.526 . S
C2634 C2635 1.396 . S
C2634 C2639 1.390 . S
C2635 C2629 1.465 . S
C2635 C2634 1.396 . S
C2635 C2636 1.399 . S
C2636 H2622 0.929 . S
C2636 C2635 1.399 . S
C2636 C2637 1.385 . S
C2637 H2623 0.931 . S
C2637 C2636 1.385 . S
C2637 C2638 1.389 . S
C2638 C2637 1.389 . S
C2638 C2639 1.387 . S
C2639 H2624 0.930 . S
C2639 C2634 1.390 . S
C2639 C2638 1.387 . S
H2640 C2652 0.930 . S
H2641 C2654 0.930 . S
H2642 C2655 0.930 . S
H2643 C2659 0.959 . S
H2644 C2659 0.959 . S
H2645 C2659 0.961 . S
H2646 C2660 0.960 . S
H2647 C2660 0.961 . S
H2648 C2660 0.959 . S
H2649 C2663 0.929 . S
H2650 C2664 0.931 . S
H2651 C2666 0.930 . S
C2652 H2640 0.930 . S
C2652 C2653 1.399 . S
C2652 C2657 1.399 . S
C2653 C2652 1.399 . S
C2653 C2654 1.376 . S
C2654 H2641 0.930 . S
C2654 C2653 1.376 . S
C2654 C2655 1.388 . S
C2655 H2642 0.930 . S
C2655 C2654 1.388 . S
C2655 C2656 1.390 . S
C2656 C2655 1.390 . S
C2656 C2657 1.394 . S
C2656 C2662 1.465 . S
C2657 C2652 1.399 . S
C2657 C2656 1.394 . S
C2657 C2658 1.516 . S
C2658 C2657 1.516 . S
C2658 C2659 1.502 . S
C2658 C2660 1.561 . S
C2658 C2661 1.526 . S
C2659 H2643 0.959 . S
C2659 H2644 0.959 . S
C2659 H2645 0.961 . S
C2659 C2658 1.502 . S
C2660 H2646 0.960 . S
C2660 H2647 0.961 . S
C2660 H2648 0.959 . S
C2660 C2658 1.561 . S
C2661 C2658 1.526 . S
C2661 C2662 1.396 . S
C2661 C2666 1.390 . S
C2662 C2656 1.465 . S
C2662 C2661 1.396 . S
C2662 C2663 1.399 . S
C2663 H2649 0.929 . S
C2663 C2662 1.399 . S
C2663 C2664 1.385 . S
C2664 H2650 0.931 . S
C2664 C2663 1.385 . S
C2664 C2665 1.389 . S
C2665 C2664 1.389 . S
C2665 C2666 1.387 . S
C2666 H2651 0.930 . S
C2666 C2661 1.390 . S
C2666 C2665 1.387 . S
H2667 C2679 0.930 . S
H2668 C2681 0.930 . S
H2669 C2682 0.930 . S
H2670 C2686 0.959 . S
H2671 C2686 0.959 . S
H2672 C2686 0.961 . S
H2673 C2687 0.960 . S
H2674 C2687 0.961 . S
H2675 C2687 0.959 . S
H2676 C2690 0.929 . S
H2677 C2691 0.931 . S
H2678 C2693 0.930 . S
C2679 H2667 0.930 . S
C2679 C2680 1.399 . S
C2679 C2684 1.399 . S
C2680 C2679 1.399 . S
C2680 C2681 1.376 . S
C2681 H2668 0.930 . S
C2681 C2680 1.376 . S
C2681 C2682 1.388 . S
C2682 H2669 0.930 . S
C2682 C2681 1.388 . S
C2682 C2683 1.390 . S
C2683 C2682 1.390 . S
C2683 C2684 1.394 . S
C2683 C2689 1.465 . S
C2684 C2679 1.399 . S
C2684 C2683 1.394 . S
C2684 C2685 1.516 . S
C2685 C2684 1.516 . S
C2685 C2686 1.502 . S
C2685 C2687 1.561 . S
C2685 C2688 1.526 . S
C2686 H2670 0.959 . S
C2686 H2671 0.959 . S
C2686 H2672 0.961 . S
C2686 C2685 1.502 . S
C2687 H2673 0.960 . S
C2687 H2674 0.961 . S
C2687 H2675 0.959 . S
C2687 C2685 1.561 . S
C2688 C2685 1.526 . S
C2688 C2689 1.396 . S
C2688 C2693 1.390 . S
C2689 C2683 1.465 . S
C2689 C2688 1.396 . S
C2689 C2690 1.399 . S
C2690 H2676 0.929 . S
C2690 C2689 1.399 . S
C2690 C2691 1.385 . S
C2691 H2677 0.931 . S
C2691 C2690 1.385 . S
C2691 C2692 1.389 . S
C2692 C2691 1.389 . S
C2692 C2693 1.387 . S
C2693 H2678 0.930 . S
C2693 C2688 1.390 . S
C2693 C2692 1.387 . S
H2694 C2706 0.930 . S
H2695 C2708 0.930 . S
H2696 C2709 0.930 . S
H2697 C2713 0.959 . S
H2698 C2713 0.959 . S
H2699 C2713 0.961 . S
H2700 C2714 0.960 . S
H2701 C2714 0.961 . S
H2702 C2714 0.959 . S
H2703 C2717 0.929 . S
H2704 C2718 0.931 . S
H2705 C2720 0.930 . S
C2706 H2694 0.930 . S
C2706 C2707 1.399 . S
C2706 C2711 1.399 . S
C2707 C2706 1.399 . S
C2707 C2708 1.376 . S
C2708 H2695 0.930 . S
C2708 C2707 1.376 . S
C2708 C2709 1.388 . S
C2709 H2696 0.930 . S
C2709 C2708 1.388 . S
C2709 C2710 1.390 . S
C2710 C2709 1.390 . S
C2710 C2711 1.394 . S
C2710 C2716 1.465 . S
C2711 C2706 1.399 . S
C2711 C2710 1.394 . S
C2711 C2712 1.516 . S
C2712 C2711 1.516 . S
C2712 C2713 1.502 . S
C2712 C2714 1.561 . S
C2712 C2715 1.526 . S
C2713 H2697 0.959 . S
C2713 H2698 0.959 . S
C2713 H2699 0.961 . S
C2713 C2712 1.502 . S
C2714 H2700 0.960 . S
C2714 H2701 0.961 . S
C2714 H2702 0.959 . S
C2714 C2712 1.561 . S
C2715 C2712 1.526 . S
C2715 C2716 1.396 . S
C2715 C2720 1.390 . S
C2716 C2710 1.465 . S
C2716 C2715 1.396 . S
C2716 C2717 1.399 . S
C2717 H2703 0.929 . S
C2717 C2716 1.399 . S
C2717 C2718 1.385 . S
C2718 H2704 0.931 . S
C2718 C2717 1.385 . S
C2718 C2719 1.389 . S
C2719 C2718 1.389 . S
C2719 C2720 1.387 . S
C2720 H2705 0.930 . S
C2720 C2715 1.390 . S
C2720 C2719 1.387 . S
H2721 C2733 0.930 . S
H2722 C2735 0.930 . S
H2723 C2736 0.930 . S
H2724 C2740 0.959 . S
H2725 C2740 0.959 . S
H2726 C2740 0.961 . S
H2727 C2741 0.960 . S
H2728 C2741 0.961 . S
H2729 C2741 0.959 . S
H2730 C2744 0.929 . S
H2731 C2745 0.931 . S
H2732 C2747 0.930 . S
C2733 H2721 0.930 . S
C2733 C2734 1.399 . S
C2733 C2738 1.399 . S
C2734 C2733 1.399 . S
C2734 C2735 1.376 . S
C2735 H2722 0.930 . S
C2735 C2734 1.376 . S
C2735 C2736 1.388 . S
C2736 H2723 0.930 . S
C2736 C2735 1.388 . S
C2736 C2737 1.390 . S
C2737 C2736 1.390 . S
C2737 C2738 1.394 . S
C2737 C2743 1.465 . S
C2738 C2733 1.399 . S
C2738 C2737 1.394 . S
C2738 C2739 1.516 . S
C2739 C2738 1.516 . S
C2739 C2740 1.502 . S
C2739 C2741 1.561 . S
C2739 C2742 1.526 . S
C2740 H2724 0.959 . S
C2740 H2725 0.959 . S
C2740 H2726 0.961 . S
C2740 C2739 1.502 . S
C2741 H2727 0.960 . S
C2741 H2728 0.961 . S
C2741 H2729 0.959 . S
C2741 C2739 1.561 . S
C2742 C2739 1.526 . S
C2742 C2743 1.396 . S
C2742 C2747 1.390 . S
C2743 C2737 1.465 . S
C2743 C2742 1.396 . S
C2743 C2744 1.399 . S
C2744 H2730 0.929 . S
C2744 C2743 1.399 . S
C2744 C2745 1.385 . S
C2745 H2731 0.931 . S
C2745 C2744 1.385 . S
C2745 C2746 1.389 . S
C2746 C2745 1.389 . S
C2746 C2747 1.387 . S
C2747 H2732 0.930 . S
C2747 C2742 1.390 . S
C2747 C2746 1.387 . S
H2748 C2760 0.930 . S
H2749 C2762 0.930 . S
H2750 C2763 0.930 . S
H2751 C2767 0.959 . S
H2752 C2767 0.959 . S
H2753 C2767 0.961 . S
H2754 C2768 0.960 . S
H2755 C2768 0.961 . S
H2756 C2768 0.959 . S
H2757 C2771 0.929 . S
H2758 C2772 0.931 . S
H2759 C2774 0.930 . S
C2760 H2748 0.930 . S
C2760 C2761 1.399 . S
C2760 C2765 1.399 . S
C2761 C2760 1.399 . S
C2761 C2762 1.376 . S
C2762 H2749 0.930 . S
C2762 C2761 1.376 . S
C2762 C2763 1.388 . S
C2763 H2750 0.930 . S
C2763 C2762 1.388 . S
C2763 C2764 1.390 . S
C2764 C2763 1.390 . S
C2764 C2765 1.394 . S
C2764 C2770 1.465 . S
C2765 C2760 1.399 . S
C2765 C2764 1.394 . S
C2765 C2766 1.516 . S
C2766 C2765 1.516 . S
C2766 C2767 1.502 . S
C2766 C2768 1.561 . S
C2766 C2769 1.526 . S
C2767 H2751 0.959 . S
C2767 H2752 0.959 . S
C2767 H2753 0.961 . S
C2767 C2766 1.502 . S
C2768 H2754 0.960 . S
C2768 H2755 0.961 . S
C2768 H2756 0.959 . S
C2768 C2766 1.561 . S
C2769 C2766 1.526 . S
C2769 C2770 1.396 . S
C2769 C2774 1.390 . S
C2770 C2764 1.465 . S
C2770 C2769 1.396 . S
C2770 C2771 1.399 . S
C2771 H2757 0.929 . S
C2771 C2770 1.399 . S
C2771 C2772 1.385 . S
C2772 H2758 0.931 . S
C2772 C2771 1.385 . S
C2772 C2773 1.389 . S
C2773 C2772 1.389 . S
C2773 C2774 1.387 . S
C2774 H2759 0.930 . S
C2774 C2769 1.390 . S
C2774 C2773 1.387 . S
H2775 C2787 0.930 . S
H2776 C2789 0.930 . S
H2777 C2790 0.930 . S
H2778 C2794 0.959 . S
H2779 C2794 0.959 . S
H2780 C2794 0.961 . S
H2781 C2795 0.960 . S
H2782 C2795 0.961 . S
H2783 C2795 0.959 . S
H2784 C2798 0.929 . S
H2785 C2799 0.931 . S
H2786 C2801 0.930 . S
C2787 H2775 0.930 . S
C2787 C2788 1.399 . S
C2787 C2792 1.399 . S
C2788 C2787 1.399 . S
C2788 C2789 1.376 . S
C2789 H2776 0.930 . S
C2789 C2788 1.376 . S
C2789 C2790 1.388 . S
C2790 H2777 0.930 . S
C2790 C2789 1.388 . S
C2790 C2791 1.390 . S
C2791 C2790 1.390 . S
C2791 C2792 1.394 . S
C2791 C2797 1.465 . S
C2792 C2787 1.399 . S
C2792 C2791 1.394 . S
C2792 C2793 1.516 . S
C2793 C2792 1.516 . S
C2793 C2794 1.502 . S
C2793 C2795 1.561 . S
C2793 C2796 1.526 . S
C2794 H2778 0.959 . S
C2794 H2779 0.959 . S
C2794 H2780 0.961 . S
C2794 C2793 1.502 . S
C2795 H2781 0.960 . S
C2795 H2782 0.961 . S
C2795 H2783 0.959 . S
C2795 C2793 1.561 . S
C2796 C2793 1.526 . S
C2796 C2797 1.396 . S
C2796 C2801 1.390 . S
C2797 C2791 1.465 . S
C2797 C2796 1.396 . S
C2797 C2798 1.399 . S
C2798 H2784 0.929 . S
C2798 C2797 1.399 . S
C2798 C2799 1.385 . S
C2799 H2785 0.931 . S
C2799 C2798 1.385 . S
C2799 C2800 1.389 . S
C2800 C2799 1.389 . S
C2800 C2801 1.387 . S
C2801 H2786 0.930 . S
C2801 C2796 1.390 . S
C2801 C2800 1.387 . S
H2802 C2814 0.930 . S
H2803 C2816 0.930 . S
H2804 C2817 0.930 . S
H2805 C2821 0.959 . S
H2806 C2821 0.959 . S
H2807 C2821 0.961 . S
H2808 C2822 0.960 . S
H2809 C2822 0.961 . S
H2810 C2822 0.959 . S
H2811 C2825 0.929 . S
H2812 C2826 0.931 . S
H2813 C2828 0.930 . S
C2814 H2802 0.930 . S
C2814 C2815 1.399 . S
C2814 C2819 1.399 . S
C2815 C2814 1.399 . S
C2815 C2816 1.376 . S
C2816 H2803 0.930 . S
C2816 C2815 1.376 . S
C2816 C2817 1.388 . S
C2817 H2804 0.930 . S
C2817 C2816 1.388 . S
C2817 C2818 1.390 . S
C2818 C2817 1.390 . S
C2818 C2819 1.394 . S
C2818 C2824 1.465 . S
C2819 C2814 1.399 . S
C2819 C2818 1.394 . S
C2819 C2820 1.516 . S
C2820 C2819 1.516 . S
C2820 C2821 1.502 . S
C2820 C2822 1.561 . S
C2820 C2823 1.526 . S
C2821 H2805 0.959 . S
C2821 H2806 0.959 . S
C2821 H2807 0.961 . S
C2821 C2820 1.502 . S
C2822 H2808 0.960 . S
C2822 H2809 0.961 . S
C2822 H2810 0.959 . S
C2822 C2820 1.561 . S
C2823 C2820 1.526 . S
C2823 C2824 1.396 . S
C2823 C2828 1.390 . S
C2824 C2818 1.465 . S
C2824 C2823 1.396 . S
C2824 C2825 1.399 . S
C2825 H2811 0.929 . S
C2825 C2824 1.399 . S
C2825 C2826 1.385 . S
C2826 H2812 0.931 . S
C2826 C2825 1.385 . S
C2826 C2827 1.389 . S
C2827 C2826 1.389 . S
C2827 C2828 1.387 . S
C2828 H2813 0.930 . S
C2828 C2823 1.390 . S
C2828 C2827 1.387 . S
H2829 C2841 0.930 . S
H2830 C2843 0.930 . S
H2831 C2844 0.930 . S
H2832 C2848 0.959 . S
H2833 C2848 0.959 . S
H2834 C2848 0.961 . S
H2835 C2849 0.960 . S
H2836 C2849 0.961 . S
H2837 C2849 0.959 . S
H2838 C2852 0.929 . S
H2839 C2853 0.931 . S
H2840 C2855 0.930 . S
C2841 H2829 0.930 . S
C2841 C2842 1.399 . S
C2841 C2846 1.399 . S
C2842 C2841 1.399 . S
C2842 C2843 1.376 . S
C2843 H2830 0.930 . S
C2843 C2842 1.376 . S
C2843 C2844 1.388 . S
C2844 H2831 0.930 . S
C2844 C2843 1.388 . S
C2844 C2845 1.390 . S
C2845 C2844 1.390 . S
C2845 C2846 1.394 . S
C2845 C2851 1.465 . S
C2846 C2841 1.399 . S
C2846 C2845 1.394 . S
C2846 C2847 1.516 . S
C2847 C2846 1.516 . S
C2847 C2848 1.502 . S
C2847 C2849 1.561 . S
C2847 C2850 1.526 . S
C2848 H2832 0.959 . S
C2848 H2833 0.959 . S
C2848 H2834 0.961 . S
C2848 C2847 1.502 . S
C2849 H2835 0.960 . S
C2849 H2836 0.961 . S
C2849 H2837 0.959 . S
C2849 C2847 1.561 . S
C2850 C2847 1.526 . S
C2850 C2851 1.396 . S
C2850 C2855 1.390 . S
C2851 C2845 1.465 . S
C2851 C2850 1.396 . S
C2851 C2852 1.399 . S
C2852 H2838 0.929 . S
C2852 C2851 1.399 . S
C2852 C2853 1.385 . S
C2853 H2839 0.931 . S
C2853 C2852 1.385 . S
C2853 C2854 1.389 . S
C2854 C2853 1.389 . S
C2854 C2855 1.387 . S
C2855 H2840 0.930 . S
C2855 C2850 1.390 . S
C2855 C2854 1.387 . S
H2856 C2868 0.930 . S
H2857 C2870 0.930 . S
H2858 C2871 0.930 . S
H2859 C2875 0.959 . S
H2860 C2875 0.959 . S
H2861 C2875 0.961 . S
H2862 C2876 0.960 . S
H2863 C2876 0.961 . S
H2864 C2876 0.959 . S
H2865 C2879 0.929 . S
H2866 C2880 0.931 . S
H2867 C2882 0.930 . S
C2868 H2856 0.930 . S
C2868 C2869 1.399 . S
C2868 C2873 1.399 . S
C2869 C2868 1.399 . S
C2869 C2870 1.376 . S
C2870 H2857 0.930 . S
C2870 C2869 1.376 . S
C2870 C2871 1.388 . S
C2871 H2858 0.930 . S
C2871 C2870 1.388 . S
C2871 C2872 1.390 . S
C2872 C2871 1.390 . S
C2872 C2873 1.394 . S
C2872 C2878 1.465 . S
C2873 C2868 1.399 . S
C2873 C2872 1.394 . S
C2873 C2874 1.516 . S
C2874 C2873 1.516 . S
C2874 C2875 1.502 . S
C2874 C2876 1.561 . S
C2874 C2877 1.526 . S
C2875 H2859 0.959 . S
C2875 H2860 0.959 . S
C2875 H2861 0.961 . S
C2875 C2874 1.502 . S
C2876 H2862 0.960 . S
C2876 H2863 0.961 . S
C2876 H2864 0.959 . S
C2876 C2874 1.561 . S
C2877 C2874 1.526 . S
C2877 C2878 1.396 . S
C2877 C2882 1.390 . S
C2878 C2872 1.465 . S
C2878 C2877 1.396 . S
C2878 C2879 1.399 . S
C2879 H2865 0.929 . S
C2879 C2878 1.399 . S
C2879 C2880 1.385 . S
C2880 H2866 0.931 . S
C2880 C2879 1.385 . S
C2880 C2881 1.389 . S
C2881 C2880 1.389 . S
C2881 C2882 1.387 . S
C2882 H2867 0.930 . S
C2882 C2877 1.390 . S
C2882 C2881 1.387 . S
H2883 C2895 0.930 . S
H2884 C2897 0.930 . S
H2885 C2898 0.930 . S
H2886 C2902 0.959 . S
H2887 C2902 0.959 . S
H2888 C2902 0.961 . S
H2889 C2903 0.960 . S
H2890 C2903 0.961 . S
H2891 C2903 0.959 . S
H2892 C2906 0.929 . S
H2893 C2907 0.931 . S
H2894 C2909 0.930 . S
C2895 H2883 0.930 . S
C2895 C2896 1.399 . S
C2895 C2900 1.399 . S
C2896 C2895 1.399 . S
C2896 C2897 1.376 . S
C2897 H2884 0.930 . S
C2897 C2896 1.376 . S
C2897 C2898 1.388 . S
C2898 H2885 0.930 . S
C2898 C2897 1.388 . S
C2898 C2899 1.390 . S
C2899 C2898 1.390 . S
C2899 C2900 1.394 . S
C2899 C2905 1.465 . S
C2900 C2895 1.399 . S
C2900 C2899 1.394 . S
C2900 C2901 1.516 . S
C2901 C2900 1.516 . S
C2901 C2902 1.502 . S
C2901 C2903 1.561 . S
C2901 C2904 1.526 . S
C2902 H2886 0.959 . S
C2902 H2887 0.959 . S
C2902 H2888 0.961 . S
C2902 C2901 1.502 . S
C2903 H2889 0.960 . S
C2903 H2890 0.961 . S
C2903 H2891 0.959 . S
C2903 C2901 1.561 . S
C2904 C2901 1.526 . S
C2904 C2905 1.396 . S
C2904 C2909 1.390 . S
C2905 C2899 1.465 . S
C2905 C2904 1.396 . S
C2905 C2906 1.399 . S
C2906 H2892 0.929 . S
C2906 C2905 1.399 . S
C2906 C2907 1.385 . S
C2907 H2893 0.931 . S
C2907 C2906 1.385 . S
C2907 C2908 1.389 . S
C2908 C2907 1.389 . S
C2908 C2909 1.387 . S
C2909 H2894 0.930 . S
C2909 C2904 1.390 . S
C2909 C2908 1.387 . S
H2910 C2922 0.930 . S
H2911 C2924 0.930 . S
H2912 C2925 0.930 . S
H2913 C2929 0.959 . S
H2914 C2929 0.959 . S
H2915 C2929 0.961 . S
H2916 C2930 0.960 . S
H2917 C2930 0.961 . S
H2918 C2930 0.959 . S
H2919 C2933 0.929 . S
H2920 C2934 0.931 . S
H2921 C2936 0.930 . S
C2922 H2910 0.930 . S
C2922 C2923 1.399 . S
C2922 C2927 1.399 . S
C2923 C2922 1.399 . S
C2923 C2924 1.376 . S
C2924 H2911 0.930 . S
C2924 C2923 1.376 . S
C2924 C2925 1.388 . S
C2925 H2912 0.930 . S
C2925 C2924 1.388 . S
C2925 C2926 1.390 . S
C2926 C2925 1.390 . S
C2926 C2927 1.394 . S
C2926 C2932 1.465 . S
C2927 C2922 1.399 . S
C2927 C2926 1.394 . S
C2927 C2928 1.516 . S
C2928 C2927 1.516 . S
C2928 C2929 1.502 . S
C2928 C2930 1.561 . S
C2928 C2931 1.526 . S
C2929 H2913 0.959 . S
C2929 H2914 0.959 . S
C2929 H2915 0.961 . S
C2929 C2928 1.502 . S
C2930 H2916 0.960 . S
C2930 H2917 0.961 . S
C2930 H2918 0.959 . S
C2930 C2928 1.561 . S
C2931 C2928 1.526 . S
C2931 C2932 1.396 . S
C2931 C2936 1.390 . S
C2932 C2926 1.465 . S
C2932 C2931 1.396 . S
C2932 C2933 1.399 . S
C2933 H2919 0.929 . S
C2933 C2932 1.399 . S
C2933 C2934 1.385 . S
C2934 H2920 0.931 . S
C2934 C2933 1.385 . S
C2934 C2935 1.389 . S
C2935 C2934 1.389 . S
C2935 C2936 1.387 . S
C2936 H2921 0.930 . S
C2936 C2931 1.390 . S
C2936 C2935 1.387 . S
H2937 C2949 0.930 . S
H2938 C2951 0.930 . S
H2939 C2952 0.930 . S
H2940 C2956 0.959 . S
H2941 C2956 0.959 . S
H2942 C2956 0.961 . S
H2943 C2957 0.960 . S
H2944 C2957 0.961 . S
H2945 C2957 0.959 . S
H2946 C2960 0.929 . S
H2947 C2961 0.931 . S
H2948 C2963 0.930 . S
C2949 H2937 0.930 . S
C2949 C2950 1.399 . S
C2949 C2954 1.399 . S
C2950 C2949 1.399 . S
C2950 C2951 1.376 . S
C2951 H2938 0.930 . S
C2951 C2950 1.376 . S
C2951 C2952 1.388 . S
C2952 H2939 0.930 . S
C2952 C2951 1.388 . S
C2952 C2953 1.390 . S
C2953 C2952 1.390 . S
C2953 C2954 1.394 . S
C2953 C2959 1.465 . S
C2954 C2949 1.399 . S
C2954 C2953 1.394 . S
C2954 C2955 1.516 . S
C2955 C2954 1.516 . S
C2955 C2956 1.502 . S
C2955 C2957 1.561 . S
C2955 C2958 1.526 . S
C2956 H2940 0.959 . S
C2956 H2941 0.959 . S
C2956 H2942 0.961 . S
C2956 C2955 1.502 . S
C2957 H2943 0.960 . S
C2957 H2944 0.961 . S
C2957 H2945 0.959 . S
C2957 C2955 1.561 . S
C2958 C2955 1.526 . S
C2958 C2959 1.396 . S
C2958 C2963 1.390 . S
C2959 C2953 1.465 . S
C2959 C2958 1.396 . S
C2959 C2960 1.399 . S
C2960 H2946 0.929 . S
C2960 C2959 1.399 . S
C2960 C2961 1.385 . S
C2961 H2947 0.931 . S
C2961 C2960 1.385 . S
C2961 C2962 1.389 . S
C2962 C2961 1.389 . S
C2962 C2963 1.387 . S
C2963 H2948 0.930 . S
C2963 C2958 1.390 . S
C2963 C2962 1.387 . S
C709 C8 1.183 . S
C721 C166 1.072 . S
C736 C37 1.179 . S
C748 C21 1.119 . S
C763 C66 1.132 . S
C775 C50 1.180 . S
C790 C79 1.088 . S
C802 C95 1.173 . S
C817 C124 1.146 . S
C829 C108 1.136 . S
C844 C153 1.186 . S
C856 C137 1.106 . S
C871 C224 1.044 . S
C883 C182 1.208 . S
C898 C253 1.181 . S
C910 C211 1.132 . S
C925 C282 1.180 . S
C937 C240 1.130 . S
C952 C269 1.158 . S
C964 C311 1.113 . S
C979 C340 1.180 . S
C991 C298 1.130 . S
C1006 C327 1.187 . S
C1018 C195 1.103 . S
C1033 C514 1.120 . S
C1045 C356 1.199 . S
C1060 C369 1.046 . S
C1072 C385 1.202 . S
C1087 C414 1.161 . S
C1099 C398 1.069 . S
C1114 C443 1.207 . S
C1126 C427 1.055 . S
C1141 C472 1.141 . S
C1153 C456 1.180 . S
C1168 C501 1.206 . S
C1180 C485 1.053 . S
C1195 C572 1.131 . S
C1207 C530 1.194 . S
C1222 C601 1.129 . S
C1234 C559 1.195 . S
C1249 C588 1.201 . S
C1261 C630 1.046 . S
C1276 C617 1.130 . S
C1288 C659 1.164 . S
C1303 C646 1.207 . S
C1315 C688 1.057 . S
C1330 C543 1.043 . S
C1342 C675 1.199 . S
C1357 C10 1.450 . S
C1369 C445 1.460 . S
C1384 C39 1.375 . S
C1396 C474 1.383 . S
C1411 C68 1.419 . S
C1423 C503 1.404 . S
C1438 C358 1.400 . S
C1450 C97 1.388 . S
C1465 C126 1.375 . S
C1477 C387 1.383 . S
C1492 C155 1.401 . S
C1504 C416 1.416 . S
C1519 C619 1.400 . S
C1531 C184 1.416 . S
C1546 C648 1.456 . S
C1558 C213 1.465 . S
C1573 C677 1.471 . S
C1585 C242 1.466 . S
C1600 C532 1.443 . S
C1612 C271 1.429 . S
C1627 C300 1.459 . S
C1639 C561 1.467 . S
C1654 C329 1.426 . S
C1666 C590 1.411 . S
C1681 C5 1.452 . S
C1693 C237 1.430 . S
C1708 C34 1.436 . S
C1720 C266 1.406 . S
C1735 C63 1.395 . S
C1747 C295 1.458 . S
C1762 C92 1.446 . S
C1774 C324 1.438 . S
C1789 C121 1.426 . S
C1801 C179 1.455 . S
C1816 C150 1.457 . S
C1828 C208 1.396 . S
C1843 C585 1.432 . S
C1855 C353 1.463 . S
C1870 C382 1.397 . S
C1882 C614 1.430 . S
C1897 C643 1.397 . S
C1909 C411 1.449 . S
C1924 C440 1.458 . S
C1936 C672 1.403 . S
C1951 C469 1.399 . S
C1963 C527 1.425 . S
C1978 C498 1.437 . S
C1990 C556 1.397 . S
C2005 C15 1.148 . S
C2017 C102 1.117 . S
C2032 C131 1.202 . S
C2044 C44 1.176 . S
C2059 C73 1.202 . S
C2071 C160 1.176 . S
C2086 C276 1.110 . S
C2098 C189 1.129 . S
C2113 C305 1.168 . S
C2125 C218 1.198 . S
C2140 C247 1.112 . S
C2152 C334 1.138 . S
C2167 C450 1.148 . S
C2179 C363 1.112 . S
C2194 C479 1.154 . S
C2206 C392 1.111 . S
C2221 C421 1.175 . S
C2233 C508 1.202 . S
C2248 C624 1.131 . S
C2260 C537 1.117 . S
C2275 C566 1.148 . S
C2287 C653 1.112 . S
C2302 C682 1.166 . S
C2314 C595 1.113 . S
C2329 C61 2.214 . S
C2341 C13 2.121 . S
C2356 C42 2.165 . S
C2368 C90 2.236 . S
C2383 C119 2.198 . S
C2395 C71 2.167 . S
C2410 C148 2.222 . S
C2422 C100 2.178 . S
C2437 C129 2.166 . S
C2449 C3 2.235 . S
C2464 C158 2.174 . S
C2476 C32 2.201 . S
C2491 C187 2.175 . S
C2503 C293 2.202 . S
C2518 C322 2.198 . S
C2530 C216 2.166 . S
C2545 C177 2.228 . S
C2557 C245 2.174 . S
C2572 C274 2.122 . S
C2584 C206 2.212 . S
C2599 C303 2.168 . S
C2611 C235 2.234 . S
C2626 C332 2.169 . S
C2638 C264 2.233 . S
C2653 C361 2.116 . S
C2665 C409 2.246 . S
C2680 C390 2.170 . S
C2692 C438 2.217 . S
C2707 C419 2.120 . S
C2719 C467 2.228 . S
C2734 C496 2.198 . S
C2746 C448 2.179 . S
C2761 C477 2.169 . S
C2773 C351 2.218 . S
C2788 C380 2.197 . S
C2800 C506 2.175 . S
C2815 C535 2.177 . S
C2827 C641 2.198 . S
C2842 C670 2.234 . S
C2854 C564 2.147 . S
C2869 C593 2.179 . S
C2881 C525 2.198 . S
C2896 C554 2.213 . S
C2908 C622 2.140 . S
C2923 C583 2.235 . S
C2935 C651 2.146 . S
C2950 C680 2.127 . S
C2962 C612 2.244 . S
