# Generated by pormake.
# Topology wgl, (5)-cn, num edge types: 1
# Building blocks:
#     Node 0, Type 0, BuildingBlock: BEQFEK_clean_sbu_0, # of connection points: 5
#     Node 1, Type 0, BuildingBlock: BEQFEK_clean_sbu_0, # of connection points: 5
#     Node 2, Type 0, BuildingBlock: BEQFEK_clean_sbu_0, # of connection points: 5
#     Node 3, Type 0, BuildingBlock: BEQFEK_clean_sbu_0, # of connection points: 5
#     Node 4, Type 0, BuildingBlock: BEQFEK_clean_sbu_0, # of connection points: 5
#     Node 5, Type 0, BuildingBlock: BEQFEK_clean_sbu_0, # of connection points: 5
#     Node 6, Type 0, BuildingBlock: BEQFEK_clean_sbu_0, # of connection points: 5
#     Node 7, Type 0, BuildingBlock: BEQFEK_clean_sbu_0, # of connection points: 5
#     Node 8, Type 0, BuildingBlock: BEQFEK_clean_sbu_0, # of connection points: 5
#     Node 9, Type 0, BuildingBlock: BEQFEK_clean_sbu_0, # of connection points: 5
#     Node 10, Type 0, BuildingBlock: BEQFEK_clean_sbu_0, # of connection points: 5
#     Node 11, Type 0, BuildingBlock: BEQFEK_clean_sbu_0, # of connection points: 5
#     Node 12, Type 0, BuildingBlock: BEQFEK_clean_sbu_0, # of connection points: 5
#     Node 13, Type 0, BuildingBlock: BEQFEK_clean_sbu_0, # of connection points: 5
#     Node 14, Type 0, BuildingBlock: BEQFEK_clean_sbu_0, # of connection points: 5
#     Node 15, Type 0, BuildingBlock: BEQFEK_clean_sbu_0, # of connection points: 5
#     Node 16, Type 0, BuildingBlock: BEQFEK_clean_sbu_0, # of connection points: 5
#     Node 17, Type 0, BuildingBlock: BEQFEK_clean_sbu_0, # of connection points: 5
#     Node 18, Type 0, BuildingBlock: BEQFEK_clean_sbu_0, # of connection points: 5
#     Node 19, Type 0, BuildingBlock: BEQFEK_clean_sbu_0, # of connection points: 5
#     Node 20, Type 0, BuildingBlock: BEQFEK_clean_sbu_0, # of connection points: 5
#     Node 21, Type 0, BuildingBlock: BEQFEK_clean_sbu_0, # of connection points: 5
#     Node 22, Type 0, BuildingBlock: BEQFEK_clean_sbu_0, # of connection points: 5
#     Node 23, Type 0, BuildingBlock: BEQFEK_clean_sbu_0, # of connection points: 5
#     Node 24, Type 0, BuildingBlock: BEQFEK_clean_sbu_0, # of connection points: 5
#     Node 25, Type 0, BuildingBlock: BEQFEK_clean_sbu_0, # of connection points: 5
#     Node 26, Type 0, BuildingBlock: BEQFEK_clean_sbu_0, # of connection points: 5
#     Node 27, Type 0, BuildingBlock: BEQFEK_clean_sbu_0, # of connection points: 5
#     Node 28, Type 0, BuildingBlock: BEQFEK_clean_sbu_0, # of connection points: 5
#     Node 29, Type 0, BuildingBlock: BEQFEK_clean_sbu_0, # of connection points: 5
#     Node 30, Type 0, BuildingBlock: BEQFEK_clean_sbu_0, # of connection points: 5
#     Node 31, Type 0, BuildingBlock: BEQFEK_clean_sbu_0, # of connection points: 5
#     Edge 32, Type (0, 0), BuildingBlock: OJICUG_clean_linker_0, # of connection points: 2
#     Edge 33, Type (0, 0), BuildingBlock: OJICUG_clean_linker_0, # of connection points: 2
#     Edge 34, Type (0, 0), BuildingBlock: OJICUG_clean_linker_0, # of connection points: 2
#     Edge 35, Type (0, 0), BuildingBlock: OJICUG_clean_linker_0, # of connection points: 2
#     Edge 36, Type (0, 0), BuildingBlock: OJICUG_clean_linker_0, # of connection points: 2
#     Edge 37, Type (0, 0), BuildingBlock: OJICUG_clean_linker_0, # of connection points: 2
#     Edge 38, Type (0, 0), BuildingBlock: OJICUG_clean_linker_0, # of connection points: 2
#     Edge 39, Type (0, 0), BuildingBlock: OJICUG_clean_linker_0, # of connection points: 2
#     Edge 40, Type (0, 0), BuildingBlock: OJICUG_clean_linker_0, # of connection points: 2
#     Edge 41, Type (0, 0), BuildingBlock: OJICUG_clean_linker_0, # of connection points: 2
#     Edge 42, Type (0, 0), BuildingBlock: OJICUG_clean_linker_0, # of connection points: 2
#     Edge 43, Type (0, 0), BuildingBlock: OJICUG_clean_linker_0, # of connection points: 2
#     Edge 44, Type (0, 0), BuildingBlock: OJICUG_clean_linker_0, # of connection points: 2
#     Edge 45, Type (0, 0), BuildingBlock: OJICUG_clean_linker_0, # of connection points: 2
#     Edge 46, Type (0, 0), BuildingBlock: OJICUG_clean_linker_0, # of connection points: 2
#     Edge 47, Type (0, 0), BuildingBlock: OJICUG_clean_linker_0, # of connection points: 2
#     Edge 48, Type (0, 0), BuildingBlock: OJICUG_clean_linker_0, # of connection points: 2
#     Edge 49, Type (0, 0), BuildingBlock: OJICUG_clean_linker_0, # of connection points: 2
#     Edge 50, Type (0, 0), BuildingBlock: OJICUG_clean_linker_0, # of connection points: 2
#     Edge 51, Type (0, 0), BuildingBlock: OJICUG_clean_linker_0, # of connection points: 2
#     Edge 52, Type (0, 0), BuildingBlock: OJICUG_clean_linker_0, # of connection points: 2
#     Edge 53, Type (0, 0), BuildingBlock: OJICUG_clean_linker_0, # of connection points: 2
#     Edge 54, Type (0, 0), BuildingBlock: OJICUG_clean_linker_0, # of connection points: 2
#     Edge 55, Type (0, 0), BuildingBlock: OJICUG_clean_linker_0, # of connection points: 2
#     Edge 56, Type (0, 0), BuildingBlock: OJICUG_clean_linker_0, # of connection points: 2
#     Edge 57, Type (0, 0), BuildingBlock: OJICUG_clean_linker_0, # of connection points: 2
#     Edge 58, Type (0, 0), BuildingBlock: OJICUG_clean_linker_0, # of connection points: 2
#     Edge 59, Type (0, 0), BuildingBlock: OJICUG_clean_linker_0, # of connection points: 2
#     Edge 60, Type (0, 0), BuildingBlock: OJICUG_clean_linker_0, # of connection points: 2
#     Edge 61, Type (0, 0), BuildingBlock: OJICUG_clean_linker_0, # of connection points: 2
#     Edge 62, Type (0, 0), BuildingBlock: OJICUG_clean_linker_0, # of connection points: 2
#     Edge 63, Type (0, 0), BuildingBlock: OJICUG_clean_linker_0, # of connection points: 2
#     Edge 64, Type (0, 0), BuildingBlock: OJICUG_clean_linker_0, # of connection points: 2
#     Edge 65, Type (0, 0), BuildingBlock: OJICUG_clean_linker_0, # of connection points: 2
#     Edge 66, Type (0, 0), BuildingBlock: OJICUG_clean_linker_0, # of connection points: 2
#     Edge 67, Type (0, 0), BuildingBlock: OJICUG_clean_linker_0, # of connection points: 2
#     Edge 68, Type (0, 0), BuildingBlock: OJICUG_clean_linker_0, # of connection points: 2
#     Edge 69, Type (0, 0), BuildingBlock: OJICUG_clean_linker_0, # of connection points: 2
#     Edge 70, Type (0, 0), BuildingBlock: OJICUG_clean_linker_0, # of connection points: 2
#     Edge 71, Type (0, 0), BuildingBlock: OJICUG_clean_linker_0, # of connection points: 2
#     Edge 72, Type (0, 0), BuildingBlock: OJICUG_clean_linker_0, # of connection points: 2
#     Edge 73, Type (0, 0), BuildingBlock: OJICUG_clean_linker_0, # of connection points: 2
#     Edge 74, Type (0, 0), BuildingBlock: OJICUG_clean_linker_0, # of connection points: 2
#     Edge 75, Type (0, 0), BuildingBlock: OJICUG_clean_linker_0, # of connection points: 2
#     Edge 76, Type (0, 0), BuildingBlock: OJICUG_clean_linker_0, # of connection points: 2
#     Edge 77, Type (0, 0), BuildingBlock: OJICUG_clean_linker_0, # of connection points: 2
#     Edge 78, Type (0, 0), BuildingBlock: OJICUG_clean_linker_0, # of connection points: 2
#     Edge 79, Type (0, 0), BuildingBlock: OJICUG_clean_linker_0, # of connection points: 2
#     Edge 80, Type (0, 0), BuildingBlock: OJICUG_clean_linker_0, # of connection points: 2
#     Edge 81, Type (0, 0), BuildingBlock: OJICUG_clean_linker_0, # of connection points: 2
#     Edge 82, Type (0, 0), BuildingBlock: OJICUG_clean_linker_0, # of connection points: 2
#     Edge 83, Type (0, 0), BuildingBlock: OJICUG_clean_linker_0, # of connection points: 2
#     Edge 84, Type (0, 0), BuildingBlock: OJICUG_clean_linker_0, # of connection points: 2
#     Edge 85, Type (0, 0), BuildingBlock: OJICUG_clean_linker_0, # of connection points: 2
#     Edge 86, Type (0, 0), BuildingBlock: OJICUG_clean_linker_0, # of connection points: 2
#     Edge 87, Type (0, 0), BuildingBlock: OJICUG_clean_linker_0, # of connection points: 2
#     Edge 88, Type (0, 0), BuildingBlock: OJICUG_clean_linker_0, # of connection points: 2
#     Edge 89, Type (0, 0), BuildingBlock: OJICUG_clean_linker_0, # of connection points: 2
#     Edge 90, Type (0, 0), BuildingBlock: OJICUG_clean_linker_0, # of connection points: 2
#     Edge 91, Type (0, 0), BuildingBlock: OJICUG_clean_linker_0, # of connection points: 2
#     Edge 92, Type (0, 0), BuildingBlock: OJICUG_clean_linker_0, # of connection points: 2
#     Edge 93, Type (0, 0), BuildingBlock: OJICUG_clean_linker_0, # of connection points: 2
#     Edge 94, Type (0, 0), BuildingBlock: OJICUG_clean_linker_0, # of connection points: 2
#     Edge 95, Type (0, 0), BuildingBlock: OJICUG_clean_linker_0, # of connection points: 2
#     Edge 96, Type (0, 0), BuildingBlock: OJICUG_clean_linker_0, # of connection points: 2
#     Edge 97, Type (0, 0), BuildingBlock: OJICUG_clean_linker_0, # of connection points: 2
#     Edge 98, Type (0, 0), BuildingBlock: OJICUG_clean_linker_0, # of connection points: 2
#     Edge 99, Type (0, 0), BuildingBlock: OJICUG_clean_linker_0, # of connection points: 2
#     Edge 100, Type (0, 0), BuildingBlock: OJICUG_clean_linker_0, # of connection points: 2
#     Edge 101, Type (0, 0), BuildingBlock: OJICUG_clean_linker_0, # of connection points: 2
#     Edge 102, Type (0, 0), BuildingBlock: OJICUG_clean_linker_0, # of connection points: 2
#     Edge 103, Type (0, 0), BuildingBlock: OJICUG_clean_linker_0, # of connection points: 2
#     Edge 104, Type (0, 0), BuildingBlock: OJICUG_clean_linker_0, # of connection points: 2
#     Edge 105, Type (0, 0), BuildingBlock: OJICUG_clean_linker_0, # of connection points: 2
#     Edge 106, Type (0, 0), BuildingBlock: OJICUG_clean_linker_0, # of connection points: 2
#     Edge 107, Type (0, 0), BuildingBlock: OJICUG_clean_linker_0, # of connection points: 2
#     Edge 108, Type (0, 0), BuildingBlock: OJICUG_clean_linker_0, # of connection points: 2
#     Edge 109, Type (0, 0), BuildingBlock: OJICUG_clean_linker_0, # of connection points: 2
#     Edge 110, Type (0, 0), BuildingBlock: OJICUG_clean_linker_0, # of connection points: 2
#     Edge 111, Type (0, 0), BuildingBlock: OJICUG_clean_linker_0, # of connection points: 2
# Relax obj value: 0.083
# Max RMSD: 0.105
# Mean RMSD: 0.105
data_MOF--net-wgl--node1-BEQFEK_clean_sbu_0--edge1-OJICUG_clean_linker_0
_symmetry_space_group_name_H-M    P1
_symmetry_Int_Tables_number       1
_symmetry_cell_setting            triclinic
loop_
_symmetry_equiv_pos_as_xyz
'x, y, z'
_cell_length_a     44.60908
_cell_length_b     44.596616
_cell_length_c     43.033161
_cell_angle_alpha  89.998227
_cell_angle_beta   90.000161
_cell_angle_gamma 89.988586
loop_
_atom_site_label
_atom_site_type_symbol
_atom_site_fract_x
_atom_site_fract_y
_atom_site_fract_z
_atom_type_partial_charge
Co0 Co 0.32236 0.26257 0.1328 0.0
Co1 Co 0.28327 0.31904 0.14102 0.0
C2 C 0.27805 0.28299 0.08286 0.0
O3 O 0.29712 0.26338 0.0922 0.0
O4 O 0.27171 0.30565 0.09955 0.0
C5 C 0.33843 0.19887 0.13358 0.0
O6 O 0.30996 0.19374 0.12782 0.0
C7 C 0.23474 0.36242 0.14217 0.0
C8 C 0.25037 0.39285 0.1795 0.0
C9 C 0.2275 0.38819 0.15834 0.0
N10 N 0.26083 0.35227 0.15333 0.0
N11 N 0.27014 0.37049 0.17554 0.0
C12 C 0.21657 0.34651 0.11803 0.0
H13 H 0.219 0.32189 0.12079 0.0
H14 H 0.19251 0.35264 0.11972 0.0
H15 H 0.225 0.35272 0.09464 0.0
C16 C 0.29237 0.24843 0.19493 0.0
N17 N 0.29661 0.26503 0.16893 0.0
N18 N 0.27872 0.28843 0.17034 0.0
C19 C 0.26193 0.28703 0.19625 0.0
C20 C 0.27031 0.26204 0.2131 0.0
C21 C 0.31069 0.22158 0.20349 0.0
H22 H 0.33417 0.22461 0.19566 0.0
H23 H 0.30126 0.20152 0.1918 0.0
H24 H 0.31035 0.21769 0.22896 0.0
O25 O 0.35325 0.29577 0.13476 0.0
O26 O 0.32374 0.33481 0.14173 0.0
H27 H 0.24668 0.32887 0.21473 0.0
H28 H 0.22097 0.29827 0.22061 0.0
C29 C 0.23711 0.30839 0.20403 0.0
H30 H 0.22479 0.31464 0.18267 0.0
H31 H 0.29002 0.3676 0.18797 0.0
O32 O 0.34753 0.22576 0.13562 0.0
C33 C 0.34974 0.32378 0.13929 0.0
Co34 Co 0.98081 0.07184 0.38232 0.0
Co35 Co 0.92433 0.03295 0.39086 0.0
C36 C 0.96019 0.02782 0.33236 0.0
O37 O 0.97984 0.04686 0.34163 0.0
O38 O 0.93763 0.02143 0.34918 0.0
C39 C 0.04443 0.08851 0.38112 0.0
O40 O 0.04963 0.06069 0.37262 0.0
C41 C 0.88203 0.98359 0.39261 0.0
C42 C 0.84955 0.0003 0.42748 0.0
C43 C 0.85574 0.97651 0.4079 0.0
N44 N 0.89107 0.01043 0.40283 0.0
N45 N 0.8716 0.0204 0.42355 0.0
C46 C 0.89925 0.96481 0.36998 0.0
H47 H 0.92368 0.96815 0.37343 0.0
H48 H 0.89371 0.94069 0.37266 0.0
H49 H 0.89357 0.97197 0.34599 0.0
C50 C 0.99589 0.04116 0.44367 0.0
N51 N 0.97865 0.0458 0.41822 0.0
N52 N 0.95507 0.0282 0.42015 0.0
C53 C 0.95692 0.01124 0.44596 0.0
C54 C 0.98274 0.01887 0.46183 0.0
C55 C 0.02408 0.05797 0.45073 0.0
H56 H 0.02077 0.0822 0.44606 0.0
H57 H 0.04222 0.04968 0.43535 0.0
H58 H 0.03118 0.05473 0.47521 0.0
O59 O 0.9476 0.10283 0.38449 0.0
O60 O 0.90855 0.0734 0.39154 0.0
H61 H 0.91297 0.00267 0.4635 0.0
H62 H 0.94035 0.97625 0.47676 0.0
C63 C 0.93314 0.98983 0.45655 0.0
H64 H 0.92712 0.97454 0.43725 0.0
H65 H 0.87342 0.04096 0.43497 0.0
O66 O 0.01759 0.09697 0.38541 0.0
C67 C 0.91958 0.09939 0.389 0.0
Co68 Co 0.1702 0.73035 0.63229 0.0
Co69 Co 0.20931 0.67388 0.64046 0.0
C70 C 0.21443 0.7099 0.58227 0.0
O71 O 0.19538 0.72951 0.59164 0.0
O72 O 0.22079 0.68725 0.59895 0.0
C73 C 0.15412 0.79405 0.63311 0.0
O74 O 0.18258 0.7992 0.62731 0.0
C75 C 0.25783 0.63048 0.64156 0.0
C76 C 0.24225 0.6001 0.67895 0.0
C77 C 0.26509 0.60473 0.65775 0.0
N78 N 0.23176 0.64064 0.65274 0.0
N79 N 0.22248 0.62246 0.67499 0.0
C80 C 0.27598 0.64636 0.61736 0.0
H81 H 0.27355 0.67098 0.62009 0.0
H82 H 0.30003 0.64022 0.61902 0.0
H83 H 0.2675 0.64012 0.594 0.0
C84 C 0.2003 0.74451 0.69435 0.0
N85 N 0.19602 0.7279 0.66837 0.0
N86 N 0.21392 0.70451 0.66975 0.0
C87 C 0.23076 0.70591 0.69563 0.0
C88 C 0.2224 0.7309 0.71249 0.0
C89 C 0.18198 0.77134 0.70295 0.0
H90 H 0.15849 0.7683 0.69517 0.0
H91 H 0.19138 0.79141 0.69125 0.0
H92 H 0.18235 0.77522 0.72842 0.0
O93 O 0.13931 0.69715 0.63436 0.0
O94 O 0.16884 0.65812 0.64126 0.0
H95 H 0.24603 0.66407 0.7141 0.0
H96 H 0.27175 0.69468 0.71992 0.0
C97 C 0.25559 0.68455 0.70337 0.0
H98 H 0.26787 0.67829 0.68199 0.0
H99 H 0.20262 0.62537 0.68745 0.0
O100 O 0.14504 0.76716 0.63515 0.0
C101 C 0.14283 0.66914 0.63889 0.0
Co102 Co 0.51184 0.92106 0.88247 0.0
Co103 Co 0.56832 0.95993 0.89107 0.0
C104 C 0.53249 0.96509 0.83255 0.0
O105 O 0.51282 0.94606 0.8418 0.0
O106 O 0.55504 0.97146 0.84939 0.0
C107 C 0.44822 0.9044 0.88113 0.0
O108 O 0.44306 0.93222 0.87258 0.0
C109 C 0.61057 0.00932 0.89284 0.0
C110 C 0.64312 0.99261 0.92765 0.0
C111 C 0.63688 0.01641 0.90808 0.0
N112 N 0.60157 0.98246 0.90305 0.0
N113 N 0.62107 0.97249 0.92373 0.0
C114 C 0.59331 0.0281 0.87024 0.0
H115 H 0.56889 0.02473 0.87372 0.0
H116 H 0.59884 0.05222 0.87293 0.0
H117 H 0.59897 0.02095 0.84624 0.0
C118 C 0.49671 0.95173 0.94381 0.0
N119 N 0.51397 0.94708 0.91838 0.0
N120 N 0.53757 0.96466 0.92035 0.0
C121 C 0.53571 0.9816 0.94618 0.0
C122 C 0.50985 0.97399 0.96201 0.0
C123 C 0.46848 0.93496 0.95081 0.0
H124 H 0.47178 0.91072 0.94618 0.0
H125 H 0.45039 0.94324 0.93536 0.0
H126 H 0.46131 0.93824 0.97526 0.0
O127 O 0.54505 0.89007 0.88464 0.0
O128 O 0.58411 0.91948 0.89174 0.0
H129 H 0.57967 0.99011 0.9637 0.0
H130 H 0.55231 0.0165 0.97706 0.0
C131 C 0.5595 0.00297 0.95681 0.0
H132 H 0.56551 0.01831 0.93755 0.0
H133 H 0.61929 0.95192 0.93515 0.0
O134 O 0.47505 0.89594 0.88551 0.0
C135 C 0.57307 0.8935 0.88917 0.0
Co136 Co 0.32249 0.72999 0.41391 0.0
Co137 Co 0.28321 0.67366 0.40575 0.0
C138 C 0.27813 0.70983 0.46387 0.0
O139 O 0.29723 0.72938 0.4545 0.0
O140 O 0.27175 0.68717 0.44721 0.0
C141 C 0.33869 0.79359 0.41309 0.0
O142 O 0.31022 0.79872 0.41888 0.0
C143 C 0.23419 0.63087 0.40476 0.0
C144 C 0.24904 0.6005 0.36704 0.0
C145 C 0.22638 0.60541 0.38838 0.0
N146 N 0.26038 0.64066 0.39352 0.0
N147 N 0.26924 0.62247 0.37108 0.0
C148 C 0.21644 0.64682 0.42922 0.0
H149 H 0.21882 0.67142 0.42636 0.0
H150 H 0.19236 0.64069 0.42803 0.0
H151 H 0.22531 0.64065 0.45245 0.0
C152 C 0.29263 0.7442 0.35175 0.0
N153 N 0.29679 0.7276 0.37777 0.0
N154 N 0.2788 0.70428 0.37637 0.0
C155 C 0.262 0.70575 0.35046 0.0
C156 C 0.27051 0.73068 0.33359 0.0
C157 C 0.31105 0.77096 0.34317 0.0
H158 H 0.33452 0.76783 0.35099 0.0
H159 H 0.3017 0.79106 0.35485 0.0
H160 H 0.31072 0.77483 0.31769 0.0
O161 O 0.35319 0.69661 0.41207 0.0
O162 O 0.32363 0.65759 0.40515 0.0
H163 H 0.24638 0.66407 0.33195 0.0
H164 H 0.2209 0.69488 0.32621 0.0
C165 C 0.23701 0.6846 0.34273 0.0
H166 H 0.22468 0.67842 0.36412 0.0
H167 H 0.28907 0.62514 0.35852 0.0
O168 O 0.34779 0.76671 0.41104 0.0
C169 C 0.34965 0.66858 0.40766 0.0
Co170 Co 0.51195 0.07213 0.66372 0.0
Co171 Co 0.56854 0.03334 0.65524 0.0
C172 C 0.53262 0.02817 0.71371 0.0
O173 O 0.51295 0.04718 0.70441 0.0
O174 O 0.5552 0.02181 0.69691 0.0
C175 C 0.44833 0.08879 0.66519 0.0
O176 O 0.44319 0.06102 0.67391 0.0
C177 C 0.61084 0.98397 0.65346 0.0
C178 C 0.64342 0.00077 0.61874 0.0
C179 C 0.63716 0.97691 0.63822 0.0
N180 N 0.60185 0.01086 0.64332 0.0
N181 N 0.62137 0.02089 0.6227 0.0
C182 C 0.59355 0.96513 0.67598 0.0
H183 H 0.56914 0.96855 0.67251 0.0
H184 H 0.59905 0.94101 0.67318 0.0
H185 H 0.59922 0.97217 0.7 0.0
C186 C 0.49689 0.0413 0.60246 0.0
N187 N 0.51417 0.04605 0.62786 0.0
N188 N 0.53783 0.02855 0.62591 0.0
C189 C 0.53602 0.01156 0.60011 0.0
C190 C 0.51012 0.01905 0.58429 0.0
C191 C 0.46856 0.05792 0.5955 0.0
H192 H 0.4506 0.04968 0.61112 0.0
H193 H 0.46129 0.05446 0.57111 0.0
H194 H 0.4718 0.0822 0.59996 0.0
O195 O 0.5451 0.10318 0.66149 0.0
O196 O 0.58423 0.07382 0.65454 0.0
H197 H 0.58006 0.00319 0.58272 0.0
H198 H 0.55281 0.97679 0.56916 0.0
C199 C 0.55989 0.99027 0.58948 0.0
H200 H 0.56587 0.97488 0.60872 0.0
H201 H 0.61959 0.04148 0.61133 0.0
O202 O 0.47513 0.09722 0.66063 0.0
C203 C 0.57313 0.09979 0.65701 0.0
Co204 Co 0.17008 0.26282 0.91442 0.0
Co205 Co 0.20939 0.31915 0.9063 0.0
C206 C 0.2144 0.283 0.96443 0.0
O207 O 0.19529 0.26346 0.95504 0.0
O208 O 0.22081 0.30566 0.94777 0.0
C209 C 0.15387 0.19922 0.91351 0.0
O210 O 0.18233 0.19407 0.9193 0.0
C211 C 0.2584 0.36198 0.90526 0.0
C212 C 0.24356 0.39222 0.86743 0.0
C213 C 0.26622 0.38737 0.88879 0.0
N214 N 0.23221 0.35215 0.89405 0.0
N215 N 0.22336 0.37027 0.87155 0.0
C216 C 0.27615 0.3461 0.92977 0.0
H217 H 0.27377 0.32148 0.92698 0.0
H218 H 0.30023 0.35222 0.92857 0.0
H219 H 0.26727 0.35232 0.95298 0.0
C220 C 0.2 0.24862 0.85229 0.0
N221 N 0.19582 0.26521 0.8783 0.0
N222 N 0.21383 0.28852 0.87694 0.0
C223 C 0.23066 0.28704 0.85105 0.0
C224 C 0.22215 0.26212 0.83416 0.0
C225 C 0.18156 0.22188 0.84367 0.0
H226 H 0.15808 0.22502 0.85147 0.0
H227 H 0.19088 0.20176 0.85534 0.0
H228 H 0.18191 0.21803 0.81819 0.0
O229 O 0.13939 0.29621 0.91252 0.0
O230 O 0.16897 0.33522 0.90565 0.0
H231 H 0.24634 0.3287 0.83253 0.0
H232 H 0.2718 0.29787 0.82687 0.0
C233 C 0.25568 0.30817 0.84335 0.0
H234 H 0.26797 0.31435 0.86475 0.0
H235 H 0.20353 0.36757 0.85899 0.0
O236 O 0.14477 0.22611 0.91151 0.0
C237 C 0.14294 0.32424 0.90812 0.0
Co238 Co 0.98072 0.92075 0.16355 0.0
Co239 Co 0.92415 0.95956 0.15506 0.0
C240 C 0.96008 0.96475 0.21352 0.0
O241 O 0.97974 0.94572 0.20423 0.0
O242 O 0.93749 0.97111 0.19671 0.0
C243 C 0.04435 0.90408 0.16493 0.0
O244 O 0.04951 0.93186 0.17359 0.0
C245 C 0.88183 0.00892 0.15328 0.0
C246 C 0.84929 0.99213 0.11851 0.0
C247 C 0.85551 0.01597 0.13802 0.0
N248 N 0.89084 0.98205 0.14312 0.0
N249 N 0.87134 0.97202 0.12247 0.0
C250 C 0.89908 0.02775 0.17583 0.0
H251 H 0.9235 0.02436 0.17237 0.0
H252 H 0.89356 0.05187 0.17306 0.0
H253 H 0.89341 0.02067 0.19985 0.0
C254 C 0.99577 0.95154 0.10226 0.0
N255 N 0.97851 0.94682 0.12767 0.0
N256 N 0.95486 0.96434 0.12573 0.0
C257 C 0.95667 0.98132 0.09992 0.0
C258 C 0.98256 0.9738 0.08409 0.0
C259 C 0.02407 0.93488 0.09527 0.0
H260 H 0.02082 0.91061 0.09979 0.0
H261 H 0.04208 0.94314 0.11083 0.0
H262 H 0.0313 0.93829 0.07086 0.0
O263 O 0.94757 0.88972 0.16135 0.0
O264 O 0.90844 0.91909 0.15439 0.0
H265 H 0.91266 0.98975 0.0825 0.0
H266 H 0.93994 0.01616 0.06903 0.0
C267 C 0.93282 0.00265 0.08932 0.0
H268 H 0.92683 0.01801 0.10857 0.0
H269 H 0.87315 0.95144 0.11109 0.0
O270 O 0.01753 0.89565 0.16045 0.0
C271 C 0.91953 0.89312 0.15687 0.0
Co272 Co 0.67018 0.73046 0.91353 0.0
Co273 Co 0.70932 0.67402 0.90532 0.0
C274 C 0.71446 0.71003 0.96351 0.0
O275 O 0.69539 0.72962 0.95415 0.0
O276 O 0.72084 0.68738 0.94682 0.0
C277 C 0.65406 0.79416 0.9128 0.0
O278 O 0.68251 0.79932 0.91862 0.0
C279 C 0.7578 0.63057 0.90418 0.0
C280 C 0.74221 0.60025 0.86674 0.0
C281 C 0.76504 0.60482 0.88797 0.0
N282 N 0.73176 0.64079 0.89299 0.0
N283 N 0.72247 0.62264 0.87071 0.0
C284 C 0.77595 0.64639 0.92842 0.0
H285 H 0.77357 0.67101 0.92572 0.0
H286 H 0.8 0.64021 0.92679 0.0
H287 H 0.76744 0.64014 0.95176 0.0
C288 C 0.70025 0.74466 0.85146 0.0
N289 N 0.69598 0.72804 0.87743 0.0
N290 N 0.71389 0.70465 0.87604 0.0
C291 C 0.73072 0.70607 0.85015 0.0
C292 C 0.72235 0.73107 0.83331 0.0
C293 C 0.68194 0.77151 0.84289 0.0
H294 H 0.65845 0.76846 0.85067 0.0
H295 H 0.69134 0.79155 0.85463 0.0
H296 H 0.68232 0.77542 0.81742 0.0
O297 O 0.63931 0.69725 0.91148 0.0
O298 O 0.66886 0.65824 0.90456 0.0
H299 H 0.74603 0.66426 0.83164 0.0
H300 H 0.77173 0.69488 0.82587 0.0
C301 C 0.75556 0.68473 0.8424 0.0
H302 H 0.76784 0.67845 0.86378 0.0
H303 H 0.70261 0.62559 0.85825 0.0
O304 O 0.645 0.76726 0.9107 0.0
C305 C 0.64284 0.66924 0.90695 0.0
Co306 Co 0.01204 0.92103 0.66373 0.0
Co307 Co 0.06857 0.95986 0.65522 0.0
C308 C 0.03266 0.96503 0.7137 0.0
O309 O 0.01299 0.94601 0.70441 0.0
O310 O 0.05524 0.97138 0.69689 0.0
C311 C 0.94841 0.90443 0.66494 0.0
O312 O 0.94325 0.93225 0.67346 0.0
C313 C 0.11082 0.00924 0.65354 0.0
C314 C 0.14343 0.99254 0.61879 0.0
C315 C 0.13715 0.01634 0.63834 0.0
N316 N 0.10185 0.98238 0.64331 0.0
N317 N 0.12138 0.97241 0.62266 0.0
C318 C 0.09351 0.02802 0.6761 0.0
H319 H 0.0691 0.02464 0.67258 0.0
H320 H 0.09903 0.05215 0.6734 0.0
H321 H 0.09914 0.0209 0.70011 0.0
C322 C -0.00298 0.95173 0.60238 0.0
N323 N 0.01424 0.94707 0.62783 0.0
N324 N 0.03785 0.96463 0.62591 0.0
C325 C 0.03604 0.98159 0.60008 0.0
C326 C 0.01021 0.97399 0.58421 0.0
C327 C 0.9688 0.93496 0.59531 0.0
H328 H 0.97209 0.91072 0.59997 0.0
H329 H 0.95068 0.94326 0.61071 0.0
H330 H 0.96171 0.93823 0.57084 0.0
O331 O 0.04523 0.89001 0.66156 0.0
O332 O 0.08432 0.9194 0.65453 0.0
H333 H 0.08003 0.99008 0.58263 0.0
H334 H 0.05269 0.01649 0.56923 0.0
C335 C 0.05986 0.00295 0.58949 0.0
H336 H 0.06585 0.01828 0.60876 0.0
H337 H 0.11962 0.95185 0.61124 0.0
O338 O 0.97524 0.89593 0.66063 0.0
C339 C 0.07326 0.89342 0.65705 0.0
Co340 Co 0.82241 0.26236 0.41349 0.0
Co341 Co 0.78326 0.31879 0.40525 0.0
C342 C 0.77811 0.2828 0.46345 0.0
O343 O 0.79719 0.26321 0.45411 0.0
O344 O 0.77173 0.30544 0.44675 0.0
C345 C 0.83856 0.19867 0.41275 0.0
O346 O 0.8101 0.1935 0.41854 0.0
C347 C 0.73479 0.36226 0.40405 0.0
C348 C 0.75041 0.39253 0.36658 0.0
C349 C 0.72757 0.38799 0.3878 0.0
N350 N 0.76084 0.35202 0.39288 0.0
N351 N 0.77014 0.37014 0.37059 0.0
C352 C 0.71663 0.34647 0.4283 0.0
H353 H 0.719 0.32184 0.42562 0.0
H354 H 0.69259 0.35266 0.42666 0.0
H355 H 0.72515 0.35273 0.45164 0.0
C356 C 0.79238 0.24815 0.3514 0.0
N357 N 0.79663 0.26477 0.37738 0.0
N358 N 0.77872 0.28815 0.37597 0.0
C359 C 0.76189 0.28673 0.35008 0.0
C360 C 0.77029 0.26173 0.33324 0.0
C361 C 0.8107 0.22131 0.34284 0.0
H362 H 0.83419 0.22436 0.35063 0.0
H363 H 0.8013 0.20126 0.35457 0.0
H364 H 0.81033 0.2174 0.31738 0.0
O365 O 0.85328 0.29558 0.41147 0.0
O366 O 0.82372 0.33458 0.40452 0.0
H367 H 0.74657 0.32852 0.33154 0.0
H368 H 0.72088 0.29788 0.3258 0.0
C369 C 0.73705 0.30805 0.34232 0.0
H370 H 0.72477 0.31434 0.3637 0.0
H371 H 0.79 0.36717 0.35813 0.0
O372 O 0.84761 0.22557 0.41068 0.0
C373 C 0.84974 0.32359 0.40694 0.0
Co374 Co 0.48053 0.07185 0.16389 0.0
Co375 Co 0.42398 0.03303 0.15541 0.0
C376 C 0.45991 0.02785 0.21386 0.0
O377 O 0.47958 0.04686 0.20457 0.0
O378 O 0.43733 0.02149 0.19707 0.0
C379 C 0.54416 0.08844 0.16506 0.0
O380 O 0.54933 0.06062 0.17359 0.0
C381 C 0.38172 0.98365 0.15363 0.0
C382 C 0.34911 0.00044 0.11892 0.0
C383 C 0.3554 0.97658 0.1384 0.0
N384 N 0.39068 0.01055 0.14349 0.0
N385 N 0.37114 0.02057 0.12288 0.0
C386 C 0.39904 0.96481 0.17613 0.0
H387 H 0.42345 0.96824 0.17264 0.0
H388 H 0.39356 0.94069 0.17333 0.0
H389 H 0.39338 0.97184 0.20016 0.0
C390 C 0.49551 0.04116 0.10252 0.0
N391 N 0.47829 0.04582 0.12799 0.0
N392 N 0.45467 0.02827 0.12606 0.0
C393 C 0.45646 0.01132 0.10023 0.0
C394 C 0.4823 0.0189 0.08435 0.0
C395 C 0.52374 0.05789 0.09546 0.0
H396 H 0.52047 0.08214 0.10011 0.0
H397 H 0.54185 0.04958 0.11087 0.0
H398 H 0.53085 0.05462 0.071 0.0
O399 O 0.44735 0.10288 0.16176 0.0
O400 O 0.40824 0.0735 0.15477 0.0
H401 H 0.41244 0.00286 0.08284 0.0
H402 H 0.43976 0.97648 0.06934 0.0
C403 C 0.43263 0.98998 0.08964 0.0
H404 H 0.42667 0.97461 0.10889 0.0
H405 H 0.3729 0.04117 0.11151 0.0
O406 O 0.51734 0.09693 0.16076 0.0
C407 C 0.41932 0.09947 0.15729 0.0
Co408 Co 0.67016 0.26272 0.63189 0.0
Co409 Co 0.70954 0.319 0.64005 0.0
C410 C 0.71453 0.28286 0.58192 0.0
O411 O 0.6954 0.26333 0.59129 0.0
O412 O 0.72097 0.3055 0.59858 0.0
C413 C 0.65391 0.19913 0.63279 0.0
O414 O 0.68237 0.19397 0.62704 0.0
C415 C 0.75856 0.36181 0.64109 0.0
C416 C 0.74373 0.39204 0.67893 0.0
C417 C 0.76638 0.3872 0.65756 0.0
N418 N 0.73238 0.35197 0.65233 0.0
N419 N 0.72354 0.37009 0.67483 0.0
C420 C 0.77628 0.34594 0.61655 0.0
H421 H 0.77393 0.32132 0.61935 0.0
H422 H 0.80036 0.35209 0.61772 0.0
H423 H 0.76736 0.35216 0.59336 0.0
C424 C 0.70002 0.24847 0.69405 0.0
N425 N 0.69588 0.26507 0.66803 0.0
N426 N 0.71392 0.28836 0.66941 0.0
C427 C 0.73072 0.28686 0.69531 0.0
C428 C 0.72217 0.26195 0.71219 0.0
C429 C 0.68153 0.22176 0.70266 0.0
H430 H 0.65807 0.22494 0.69483 0.0
H431 H 0.69084 0.20162 0.69101 0.0
H432 H 0.68185 0.21792 0.72814 0.0
O433 O 0.63951 0.29613 0.63376 0.0
O434 O 0.66913 0.33511 0.64066 0.0
H435 H 0.74644 0.32848 0.71387 0.0
H436 H 0.77188 0.29762 0.71951 0.0
C437 C 0.75577 0.30795 0.70303 0.0
H438 H 0.76807 0.31414 0.68164 0.0
H439 H 0.70372 0.36737 0.68741 0.0
O440 O 0.64482 0.22603 0.63477 0.0
C441 C 0.64309 0.32416 0.63817 0.0
Co442 Co 0.48059 0.92076 0.38264 0.0
Co443 Co 0.42398 0.95951 0.39117 0.0
C444 C 0.45991 0.96476 0.3327 0.0
O445 O 0.4796 0.94575 0.34197 0.0
O446 O 0.43732 0.97108 0.34952 0.0
C447 C 0.54422 0.90415 0.38119 0.0
O448 O 0.54934 0.93193 0.3725 0.0
C449 C 0.38175 0.00892 0.393 0.0
C450 C 0.34907 0.9921 0.42761 0.0
C451 C 0.35542 0.016 0.40821 0.0
N452 N 0.39067 0.98199 0.40309 0.0
N453 N 0.37109 0.97195 0.42364 0.0
C454 C 0.39913 0.02779 0.37059 0.0
H455 H 0.42353 0.02431 0.37409 0.0
H456 H 0.39368 0.05192 0.37345 0.0
H457 H 0.39349 0.02085 0.34652 0.0
C458 C 0.49563 0.95153 0.44394 0.0
N459 N 0.47836 0.9468 0.41853 0.0
N460 N 0.45468 0.96427 0.42051 0.0
C461 C 0.45647 0.98122 0.44634 0.0
C462 C 0.48239 0.97374 0.46214 0.0
C463 C 0.52398 0.93493 0.45088 0.0
H464 H 0.52077 0.91065 0.44638 0.0
H465 H 0.54194 0.94322 0.43528 0.0
H466 H 0.53124 0.93835 0.47527 0.0
O467 O 0.44745 0.8897 0.3848 0.0
O468 O 0.4083 0.91903 0.3918 0.0
H469 H 0.4124 0.98954 0.46367 0.0
H470 H 0.43963 0.01588 0.4774 0.0
C471 C 0.43258 0.00248 0.457 0.0
H472 H 0.42664 0.01794 0.43782 0.0
H473 H 0.3728 0.95132 0.43495 0.0
O474 O 0.51742 0.89569 0.38571 0.0
C475 C 0.41941 0.89307 0.38927 0.0
Co476 Co 0.82244 0.7302 0.13193 0.0
Co477 Co 0.78306 0.67393 0.14011 0.0
C478 C 0.77809 0.71004 0.08195 0.0
O479 O 0.79721 0.72957 0.09132 0.0
O480 O 0.77165 0.68741 0.09863 0.0
C481 C 0.83872 0.79378 0.13278 0.0
O482 O 0.81025 0.79895 0.12701 0.0
C483 C 0.73404 0.63114 0.1411 0.0
C484 C 0.74881 0.60089 0.17896 0.0
C485 C 0.7262 0.60573 0.15755 0.0
N486 N 0.76019 0.64098 0.15238 0.0
N487 N 0.76901 0.62286 0.1749 0.0
C488 C 0.71635 0.64699 0.11653 0.0
H489 H 0.71867 0.67161 0.11934 0.0
H490 H 0.69227 0.64083 0.11764 0.0
H491 H 0.72532 0.6408 0.09335 0.0
C492 C 0.79258 0.74448 0.19407 0.0
N493 N 0.79671 0.72787 0.16806 0.0
N494 N 0.77867 0.70459 0.16944 0.0
C495 C 0.76186 0.7061 0.19534 0.0
C496 C 0.77042 0.73102 0.21221 0.0
C497 C 0.81106 0.77119 0.20267 0.0
H498 H 0.83453 0.76801 0.19485 0.0
H499 H 0.80176 0.79133 0.19101 0.0
H500 H 0.81074 0.77504 0.22815 0.0
O501 O 0.85309 0.69678 0.13383 0.0
O502 O 0.82346 0.65781 0.14076 0.0
H503 H 0.74614 0.66449 0.21392 0.0
H504 H 0.7207 0.69535 0.21954 0.0
C505 C 0.73682 0.68501 0.20307 0.0
H506 H 0.72452 0.67881 0.18167 0.0
H507 H 0.78881 0.62557 0.1875 0.0
O508 O 0.84779 0.76688 0.13479 0.0
C509 C 0.8495 0.66876 0.13826 0.0
Co510 Co 0.012 0.07215 0.88247 0.0
Co511 Co 0.06859 0.03338 0.89096 0.0
C512 C 0.03268 0.0282 0.83248 0.0
O513 O 0.01299 0.0472 0.84177 0.0
O514 O 0.05526 0.02187 0.84929 0.0
C515 C 0.94836 0.08876 0.88105 0.0
O516 O 0.94324 0.06098 0.87236 0.0
C517 C 0.11083 0.98397 0.89268 0.0
C518 C 0.14349 0.0007 0.92735 0.0
C519 C 0.13716 0.97686 0.90787 0.0
N520 N 0.1019 0.01086 0.90284 0.0
N521 N 0.12147 0.02086 0.92343 0.0
C522 C 0.09347 0.96515 0.8702 0.0
H523 H 0.06907 0.96861 0.87371 0.0
H524 H 0.09893 0.94102 0.87298 0.0
H525 H 0.0991 0.97218 0.84616 0.0
C526 C -0.00305 0.04131 0.94373 0.0
N527 N 0.01422 0.04606 0.91833 0.0
N528 N 0.03788 0.02856 0.92028 0.0
C529 C 0.03608 0.01158 0.94608 0.0
C530 C 0.01019 0.01907 0.96191 0.0
C531 C 0.96864 0.05795 0.95072 0.0
H532 H 0.97187 0.08222 0.94623 0.0
H533 H 0.95064 0.04969 0.93515 0.0
H534 H 0.9614 0.05452 0.97512 0.0
O535 O 0.04514 0.1032 0.88471 0.0
O536 O 0.08429 0.07386 0.89169 0.0
H537 H 0.08014 0.00322 0.96345 0.0
H538 H 0.05289 0.97683 0.97705 0.0
C539 C 0.05996 0.99029 0.95671 0.0
H540 H 0.06593 0.97489 0.93748 0.0
H541 H 0.11974 0.04145 0.9348 0.0
O542 O 0.97516 0.09722 0.88557 0.0
C543 C 0.07317 0.09982 0.88921 0.0
Co544 Co 0.82199 0.76277 0.63235 0.0
Co545 Co 0.78261 0.81902 0.64054 0.0
C546 C 0.7779 0.78311 0.58222 0.0
O547 O 0.79696 0.76354 0.59165 0.0
O548 O 0.77141 0.80572 0.59891 0.0
C549 C 0.83815 0.69918 0.63303 0.0
O550 O 0.80969 0.69408 0.62716 0.0
C551 C 0.73357 0.86184 0.64153 0.0
C552 C 0.74825 0.89194 0.67954 0.0
C553 C 0.72569 0.88718 0.65806 0.0
N554 N 0.75971 0.85196 0.65284 0.0
N555 N 0.76846 0.86999 0.67545 0.0
C556 C 0.71594 0.84607 0.61686 0.0
H557 H 0.71833 0.82144 0.61955 0.0
H558 H 0.69185 0.85219 0.61799 0.0
H559 H 0.72492 0.8524 0.59373 0.0
C560 C 0.79187 0.7483 0.6943 0.0
N561 N 0.79609 0.76498 0.66835 0.0
N562 N 0.77803 0.78825 0.66972 0.0
C563 C 0.76113 0.78667 0.69555 0.0
C564 C 0.76964 0.76172 0.71239 0.0
C565 C 0.81036 0.72159 0.70292 0.0
H566 H 0.83385 0.72481 0.69519 0.0
H567 H 0.80112 0.70147 0.69119 0.0
H568 H 0.80995 0.71769 0.72839 0.0
O569 O 0.85267 0.79613 0.63455 0.0
O570 O 0.82303 0.83507 0.64163 0.0
H571 H 0.74542 0.82826 0.71422 0.0
H572 H 0.71994 0.79743 0.71969 0.0
C573 C 0.7361 0.80778 0.70329 0.0
H574 H 0.72385 0.81407 0.68188 0.0
H575 H 0.78823 0.86723 0.6881 0.0
O576 O 0.84726 0.72605 0.63517 0.0
C577 C 0.84908 0.82411 0.63922 0.0
Co578 Co 0.48009 0.57209 0.88242 0.0
Co579 Co 0.42362 0.53321 0.89107 0.0
C580 C 0.45953 0.52797 0.83258 0.0
O581 O 0.47916 0.54706 0.84179 0.0
O582 O 0.43698 0.5216 0.84944 0.0
C583 C 0.54363 0.58887 0.88108 0.0
O584 O 0.54884 0.56108 0.87249 0.0
C585 C 0.38131 0.48385 0.893 0.0
C586 C 0.34891 0.50066 0.9279 0.0
C587 C 0.35505 0.47681 0.90837 0.0
N588 N 0.39037 0.51072 0.90312 0.0
N589 N 0.37096 0.52075 0.92385 0.0
C590 C 0.39846 0.46501 0.87036 0.0
H591 H 0.42289 0.46837 0.87372 0.0
H592 H 0.39293 0.4409 0.87314 0.0
H593 H 0.3927 0.4721 0.84638 0.0
C594 C 0.49531 0.5414 0.94371 0.0
N595 N 0.47798 0.5461 0.91834 0.0
N596 N 0.45437 0.52855 0.92036 0.0
C597 C 0.45628 0.51157 0.94616 0.0
C598 C 0.48219 0.51912 0.96191 0.0
C599 C 0.52361 0.55809 0.95062 0.0
H600 H 0.54162 0.54977 0.93509 0.0
H601 H 0.53086 0.55476 0.97504 0.0
H602 H 0.52035 0.58234 0.94604 0.0
O603 O 0.44689 0.60305 0.88454 0.0
O604 O 0.40782 0.57366 0.89165 0.0
H605 H 0.43975 0.47663 0.97704 0.0
H606 H 0.42652 0.47482 0.93754 0.0
C607 C 0.43253 0.49016 0.9568 0.0
H608 H 0.41235 0.50299 0.96371 0.0
H609 H 0.3728 0.54133 0.93523 0.0
O610 O 0.51679 0.59729 0.88547 0.0
C611 C 0.41887 0.59964 0.88906 0.0
Co612 Co 0.67061 0.23004 0.13231 0.0
Co613 Co 0.70998 0.17378 0.14049 0.0
C614 C 0.71468 0.2097 0.08217 0.0
O615 O 0.69563 0.22928 0.0916 0.0
O616 O 0.72117 0.18708 0.09885 0.0
C617 C 0.65448 0.29364 0.13296 0.0
O618 O 0.68293 0.29872 0.12706 0.0
C619 C 0.75901 0.13096 0.14144 0.0
C620 C 0.74433 0.10082 0.17941 0.0
C621 C 0.76689 0.1056 0.15794 0.0
N622 N 0.73287 0.14083 0.15275 0.0
N623 N 0.72412 0.12277 0.17534 0.0
C624 C 0.77664 0.14677 0.11679 0.0
H625 H 0.77424 0.17139 0.1195 0.0
H626 H 0.80074 0.14066 0.11793 0.0
H627 H 0.76768 0.14046 0.09365 0.0
C628 C 0.70076 0.2445 0.19425 0.0
N629 N 0.69652 0.22782 0.1683 0.0
N630 N 0.71457 0.20454 0.16967 0.0
C631 C 0.73148 0.2061 0.19549 0.0
C632 C 0.72298 0.23106 0.21234 0.0
C633 C 0.68229 0.27122 0.20287 0.0
H634 H 0.65879 0.26802 0.19515 0.0
H635 H 0.69153 0.29133 0.19111 0.0
H636 H 0.68271 0.27513 0.22833 0.0
O637 O 0.63991 0.19669 0.13453 0.0
O638 O 0.66955 0.15774 0.14159 0.0
H639 H 0.74715 0.16449 0.21414 0.0
H640 H 0.77265 0.19531 0.21965 0.0
C641 C 0.75649 0.18497 0.20323 0.0
H642 H 0.76874 0.17869 0.18183 0.0
H643 H 0.70434 0.12551 0.18799 0.0
O644 O 0.64535 0.26677 0.13513 0.0
C645 C 0.6435 0.1687 0.1392 0.0
Co646 Co 0.0125 0.42078 0.38266 0.0
Co647 Co 0.06895 0.45967 0.39134 0.0
C648 C 0.03306 0.46492 0.33284 0.0
O649 O 0.01343 0.44582 0.34204 0.0
O650 O 0.0556 0.47127 0.3497 0.0
C651 C 0.94897 0.40401 0.38129 0.0
O652 O 0.94376 0.4318 0.37271 0.0
C653 C 0.11126 0.50902 0.39317 0.0
C654 C 0.14368 0.49229 0.42809 0.0
C655 C 0.13754 0.51608 0.40849 0.0
N656 N 0.10219 0.48219 0.40338 0.0
N657 N 0.12161 0.4722 0.42413 0.0
C658 C 0.09411 0.52781 0.37049 0.0
H659 H 0.06968 0.5245 0.37389 0.0
H660 H 0.09968 0.55193 0.37317 0.0
H661 H 0.09984 0.52063 0.34652 0.0
C662 C -0.00275 0.45147 0.44395 0.0
N663 N 0.01459 0.44678 0.41859 0.0
N664 N 0.03819 0.46434 0.42061 0.0
C665 C 0.03627 0.48133 0.4464 0.0
C666 C 0.01036 0.47376 0.46215 0.0
C667 C 0.96896 0.43477 0.45087 0.0
H668 H 0.97223 0.41052 0.44628 0.0
H669 H 0.95095 0.44308 0.43535 0.0
H670 H 0.96173 0.43809 0.47529 0.0
O671 O 0.0457 0.38983 0.38482 0.0
O672 O 0.08476 0.41923 0.39195 0.0
H673 H 0.08018 0.48992 0.464 0.0
H674 H 0.05276 0.5163 0.47725 0.0
C675 C 0.06001 0.50275 0.45704 0.0
H676 H 0.06604 0.51806 0.43777 0.0
H677 H 0.11976 0.45165 0.43555 0.0
O678 O 0.9758 0.39558 0.3857 0.0
C679 C 0.07372 0.39325 0.38937 0.0
Co680 Co 0.82172 0.2304 0.91324 0.0
Co681 Co 0.78241 0.1741 0.90504 0.0
C682 C 0.77772 0.20996 0.9634 0.0
O683 O 0.79671 0.22959 0.95396 0.0
O684 O 0.77127 0.18735 0.9467 0.0
C685 C 0.83784 0.29404 0.91241 0.0
O686 O 0.80936 0.29918 0.91816 0.0
C687 C 0.7334 0.13131 0.90419 0.0
C688 C 0.74804 0.10108 0.86626 0.0
C689 C 0.7255 0.10592 0.88776 0.0
N690 N 0.75952 0.14115 0.89282 0.0
N691 N 0.76825 0.12304 0.87026 0.0
C692 C 0.71579 0.14718 0.92882 0.0
H693 H 0.71818 0.1718 0.92605 0.0
H694 H 0.6917 0.14107 0.92773 0.0
H695 H 0.72478 0.14091 0.95197 0.0
C696 C 0.79156 0.2448 0.85127 0.0
N697 N 0.7958 0.22815 0.87724 0.0
N698 N 0.77776 0.20487 0.87589 0.0
C699 C 0.76084 0.20642 0.85007 0.0
C700 C 0.76933 0.23136 0.83319 0.0
C701 C 0.81005 0.27149 0.84259 0.0
H702 H 0.83353 0.2683 0.85038 0.0
H703 H 0.80077 0.29164 0.85423 0.0
H704 H 0.80969 0.2753 0.81711 0.0
O705 O 0.85244 0.19705 0.91104 0.0
O706 O 0.82285 0.15809 0.90391 0.0
H707 H 0.74518 0.16479 0.83146 0.0
H708 H 0.71966 0.1956 0.82595 0.0
C709 C 0.73583 0.18528 0.84236 0.0
H710 H 0.7236 0.17902 0.86378 0.0
H711 H 0.78801 0.12576 0.85758 0.0
O712 O 0.84695 0.26715 0.9104 0.0
C713 C 0.84888 0.16907 0.90635 0.0
Co714 Co 0.01244 0.57208 0.16388 0.0
Co715 Co 0.06882 0.53292 0.15571 0.0
C716 C 0.03291 0.52787 0.21396 0.0
O717 O 0.01334 0.54694 0.20454 0.0
O718 O 0.05553 0.52139 0.19728 0.0
C719 C 0.94872 0.58797 0.16293 0.0
O720 O 0.94363 0.55948 0.16861 0.0
C721 C 0.11229 0.48447 0.15455 0.0
C722 C 0.14251 0.50004 0.11702 0.0
C723 C 0.13801 0.47723 0.1383 0.0
N724 N 0.10203 0.51049 0.14333 0.0
N725 N 0.12012 0.51977 0.12099 0.0
C726 C 0.09655 0.46636 0.17886 0.0
H727 H 0.07192 0.46862 0.17613 0.0
H728 H 0.10283 0.44232 0.17736 0.0
H729 H 0.10273 0.47502 0.20217 0.0
C730 C -0.00179 0.54208 0.10179 0.0
N731 N 0.01484 0.54631 0.12776 0.0
N732 N 0.0382 0.52837 0.12635 0.0
C733 C 0.03674 0.51155 0.10045 0.0
C734 C 0.01173 0.51996 0.08362 0.0
C735 C 0.97144 0.56049 0.09318 0.0
H736 H 0.97451 0.58396 0.10107 0.0
H737 H 0.95133 0.55107 0.10477 0.0
H738 H 0.96764 0.56022 0.0677 0.0
O739 O 0.04563 0.60299 0.16192 0.0
O740 O 0.08465 0.57342 0.15515 0.0
H741 H 0.07849 0.49625 0.08185 0.0
H742 H 0.04787 0.47053 0.07616 0.0
C743 C 0.05805 0.48671 0.09266 0.0
H744 H 0.0644 0.47444 0.11403 0.0
H745 H 0.11713 0.5396 0.1085 0.0
O746 O 0.97559 0.59715 0.16105 0.0
C747 C 0.07366 0.59945 0.15758 0.0
Co748 Co 0.67088 0.76251 0.41326 0.0
Co749 Co 0.71018 0.81882 0.4051 0.0
C750 C 0.71489 0.78292 0.46343 0.0
O751 O 0.69589 0.7633 0.45399 0.0
O752 O 0.72134 0.80554 0.44674 0.0
C753 C 0.65478 0.69886 0.41238 0.0
O754 O 0.68325 0.69372 0.41813 0.0
C755 C 0.75918 0.86162 0.40421 0.0
C756 C 0.7445 0.89184 0.36629 0.0
C757 C 0.76706 0.88702 0.38776 0.0
N758 N 0.73305 0.85178 0.39287 0.0
N759 N 0.72429 0.86988 0.37032 0.0
C760 C 0.77682 0.84576 0.42882 0.0
H761 H 0.77442 0.82114 0.42606 0.0
H762 H 0.80091 0.85186 0.42769 0.0
H763 H 0.76787 0.85204 0.45198 0.0
C764 C 0.70103 0.74815 0.35128 0.0
N765 N 0.69679 0.76478 0.37726 0.0
N766 N 0.71483 0.78806 0.37592 0.0
C767 C 0.73174 0.78653 0.3501 0.0
C768 C 0.72326 0.7616 0.33321 0.0
C769 C 0.68254 0.72146 0.34259 0.0
H770 H 0.65907 0.72464 0.35039 0.0
H771 H 0.69182 0.7013 0.35422 0.0
H772 H 0.6829 0.71767 0.31711 0.0
O773 O 0.64015 0.79584 0.4111 0.0
O774 O 0.66974 0.83481 0.40399 0.0
H775 H 0.74741 0.82817 0.33152 0.0
H776 H 0.77292 0.79736 0.32598 0.0
C777 C 0.75675 0.80767 0.3424 0.0
H778 H 0.76899 0.81392 0.36382 0.0
H779 H 0.70452 0.86716 0.35766 0.0
O780 O 0.64566 0.72575 0.41041 0.0
C781 C 0.64371 0.82384 0.40642 0.0
Co782 Co 0.48014 0.42083 0.66364 0.0
Co783 Co 0.42376 0.45999 0.65541 0.0
C784 C 0.45968 0.4651 0.71366 0.0
O785 O 0.47925 0.44602 0.70426 0.0
O786 O 0.43706 0.47158 0.69697 0.0
C787 C 0.54385 0.40494 0.66272 0.0
O788 O 0.54894 0.43345 0.66837 0.0
C789 C 0.3803 0.50845 0.65414 0.0
C790 C 0.35008 0.49282 0.61664 0.0
C791 C 0.3546 0.51567 0.63787 0.0
N792 N 0.39055 0.4824 0.64299 0.0
N793 N 0.37247 0.47309 0.62067 0.0
C794 C 0.39606 0.5266 0.67842 0.0
H795 H 0.42068 0.52432 0.67569 0.0
H796 H 0.3898 0.55064 0.67685 0.0
H797 H 0.38986 0.518 0.70174 0.0
C798 C 0.49438 0.45074 0.6015 0.0
N799 N 0.47774 0.44654 0.62748 0.0
N800 N 0.45438 0.46448 0.62604 0.0
C801 C 0.45584 0.48127 0.60011 0.0
C802 C 0.48086 0.47284 0.5833 0.0
C803 C 0.52116 0.43233 0.59294 0.0
H804 H 0.5181 0.40887 0.60084 0.0
H805 H 0.54126 0.44177 0.60452 0.0
H806 H 0.52498 0.43257 0.56745 0.0
O807 O 0.44695 0.38993 0.66177 0.0
O808 O 0.40792 0.41948 0.65495 0.0
H809 H 0.41409 0.49656 0.58149 0.0
H810 H 0.44472 0.52226 0.57576 0.0
C811 C 0.43454 0.50611 0.59228 0.0
H812 H 0.4282 0.51841 0.61364 0.0
H813 H 0.37545 0.45323 0.60822 0.0
O814 O 0.51699 0.39576 0.66085 0.0
C815 C 0.41892 0.39345 0.65744 0.0
Co816 Co 0.17068 0.23025 0.41404 0.0
Co817 Co 0.21013 0.17404 0.40586 0.0
C818 C 0.21474 0.20991 0.46421 0.0
O819 O 0.19567 0.22947 0.45477 0.0
O820 O 0.22127 0.18731 0.44752 0.0
C821 C 0.15447 0.29383 0.41336 0.0
O822 O 0.18292 0.29895 0.41925 0.0
C823 C 0.25917 0.13122 0.4049 0.0
C824 C 0.24455 0.10119 0.36681 0.0
C825 C 0.26707 0.1059 0.38835 0.0
N826 N 0.23306 0.14113 0.39356 0.0
N827 N 0.22435 0.12314 0.3709 0.0
C828 C 0.27675 0.14694 0.42965 0.0
H829 H 0.2744 0.17157 0.427 0.0
H830 H 0.30083 0.14079 0.4286 0.0
H831 H 0.26769 0.14059 0.45275 0.0
C832 C 0.20084 0.24477 0.35213 0.0
N833 N 0.19662 0.22809 0.37807 0.0
N834 N 0.21472 0.20484 0.37671 0.0
C835 C 0.23163 0.20645 0.3509 0.0
C836 C 0.2231 0.23139 0.33405 0.0
C837 C 0.18231 0.27145 0.34349 0.0
H838 H 0.15883 0.2682 0.3512 0.0
H839 H 0.19151 0.29159 0.35522 0.0
H840 H 0.18273 0.27535 0.31802 0.0
O841 O 0.14003 0.19687 0.41177 0.0
O842 O 0.16972 0.15796 0.4047 0.0
H843 H 0.2474 0.16489 0.33219 0.0
H844 H 0.27286 0.19575 0.3268 0.0
C845 C 0.25669 0.18536 0.34317 0.0
H846 H 0.26891 0.17906 0.36459 0.0
H847 H 0.2046 0.12593 0.35821 0.0
O848 O 0.14538 0.26695 0.41122 0.0
C849 C 0.14366 0.16889 0.40708 0.0
Co850 Co 0.51263 0.4208 0.16338 0.0
Co851 Co 0.56913 0.45961 0.15466 0.0
C852 C 0.53323 0.46493 0.21316 0.0
O853 O 0.51358 0.44586 0.20398 0.0
O854 O 0.55578 0.47125 0.19629 0.0
C855 C 0.44909 0.40409 0.16481 0.0
O856 O 0.44393 0.43188 0.17341 0.0
C857 C 0.61134 0.50904 0.15277 0.0
C858 C 0.64391 0.49226 0.11802 0.0
C859 C 0.63764 0.51611 0.13751 0.0
N860 N 0.60237 0.48214 0.14264 0.0
N861 N 0.62188 0.47213 0.12199 0.0
C862 C 0.59407 0.52786 0.17531 0.0
H863 H 0.56965 0.52445 0.17186 0.0
H864 H 0.59955 0.55199 0.17253 0.0
H865 H 0.59976 0.52082 0.19933 0.0
C866 C 0.4974 0.45147 0.10207 0.0
N867 N 0.51475 0.44677 0.12743 0.0
N868 N 0.53838 0.46428 0.12537 0.0
C869 C 0.53648 0.48124 0.09956 0.0
C870 C 0.51054 0.47371 0.08384 0.0
C871 C 0.46907 0.43483 0.0952 0.0
H872 H 0.4511 0.44316 0.11076 0.0
H873 H 0.4618 0.43816 0.07079 0.0
H874 H 0.4723 0.41056 0.09978 0.0
O875 O 0.54582 0.38982 0.16126 0.0
O876 O 0.58492 0.41916 0.15408 0.0
H877 H 0.55309 0.51603 0.06854 0.0
H878 H 0.56625 0.518 0.10807 0.0
C879 C 0.56027 0.50259 0.08886 0.0
H880 H 0.58046 0.48971 0.08205 0.0
H881 H 0.62012 0.45153 0.11064 0.0
O882 O 0.47591 0.39564 0.16036 0.0
C883 C 0.57384 0.3932 0.15671 0.0
Co884 Co 0.32188 0.76264 0.91353 0.0
Co885 Co 0.28244 0.81885 0.9053 0.0
C886 C 0.27775 0.78295 0.96363 0.0
O887 O 0.29683 0.76339 0.95422 0.0
O888 O 0.27124 0.80555 0.94693 0.0
C889 C 0.33809 0.69907 0.91287 0.0
O890 O 0.30964 0.69395 0.91871 0.0
C891 C 0.23339 0.86164 0.90431 0.0
C892 C 0.24805 0.89175 0.8663 0.0
C893 C 0.2255 0.88699 0.8878 0.0
N894 N 0.25952 0.85176 0.89299 0.0
N895 N 0.26825 0.86979 0.87037 0.0
C896 C 0.21579 0.84588 0.92901 0.0
H897 H 0.21815 0.82125 0.92631 0.0
H898 H 0.1917 0.85201 0.92792 0.0
H899 H 0.2248 0.85219 0.95213 0.0
C900 C 0.29182 0.74814 0.85156 0.0
N901 N 0.296 0.76482 0.87751 0.0
N902 N 0.27791 0.78807 0.87613 0.0
C903 C 0.26104 0.78647 0.85028 0.0
C904 C 0.26959 0.76154 0.83345 0.0
C905 C 0.31035 0.72146 0.84295 0.0
H906 H 0.33383 0.7247 0.8507 0.0
H907 H 0.30113 0.70132 0.85467 0.0
H908 H 0.30997 0.71756 0.81748 0.0
O909 O 0.35253 0.79603 0.91135 0.0
O910 O 0.32285 0.83494 0.90423 0.0
H911 H 0.2453 0.82804 0.83158 0.0
H912 H 0.21985 0.79718 0.82612 0.0
C913 C 0.23599 0.80756 0.84252 0.0
H914 H 0.22373 0.81385 0.86392 0.0
H915 H 0.28802 0.86704 0.85771 0.0
O916 O 0.34719 0.72594 0.91074 0.0
C917 C 0.34891 0.82401 0.90666 0.0
Co918 Co 0.98004 0.57211 0.6636 0.0
Co919 Co 0.92355 0.53326 0.65495 0.0
C920 C 0.95946 0.528 0.71344 0.0
O921 O 0.97911 0.54707 0.70423 0.0
O922 O 0.93691 0.52166 0.69658 0.0
C923 C 0.04359 0.58884 0.66489 0.0
O924 O 0.04879 0.56104 0.67345 0.0
C925 C 0.88129 0.48386 0.65308 0.0
C926 C 0.84881 0.50063 0.61824 0.0
C927 C 0.85502 0.47679 0.63776 0.0
N928 N 0.8903 0.51074 0.64294 0.0
N929 N 0.87083 0.52075 0.62224 0.0
C930 C 0.89851 0.46504 0.67567 0.0
H931 H 0.92294 0.46843 0.67226 0.0
H932 H 0.89302 0.44092 0.67289 0.0
H933 H 0.89279 0.47211 0.69967 0.0
C934 C 0.99523 0.54142 0.6023 0.0
N935 N 0.97791 0.54612 0.62767 0.0
N936 N 0.95429 0.52857 0.62566 0.0
C937 C 0.95619 0.51159 0.59986 0.0
C938 C 0.9821 0.51914 0.5841 0.0
C939 C 0.02353 0.5581 0.59536 0.0
H940 H 0.02028 0.58235 0.59997 0.0
H941 H 0.04155 0.54977 0.61086 0.0
H942 H 0.03074 0.55479 0.57093 0.0
O943 O 0.94685 0.60308 0.66147 0.0
O944 O 0.90776 0.57371 0.65434 0.0
H945 H 0.91223 0.50304 0.58234 0.0
H946 H 0.93963 0.4767 0.56895 0.0
C947 C 0.93242 0.4902 0.58922 0.0
H948 H 0.92643 0.47484 0.60847 0.0
H949 H 0.87263 0.54134 0.61087 0.0
O950 O 0.01675 0.59729 0.66053 0.0
C951 C 0.91883 0.59968 0.65693 0.0
Co952 Co 0.1708 0.7623 0.13264 0.0
Co953 Co 0.21017 0.81856 0.14082 0.0
C954 C 0.2148 0.78273 0.08245 0.0
O955 O 0.19579 0.76312 0.09189 0.0
O956 O 0.2213 0.80532 0.09915 0.0
C957 C 0.15463 0.69866 0.13348 0.0
O958 O 0.18309 0.69348 0.12771 0.0
C959 C 0.25913 0.86143 0.14176 0.0
C960 C 0.24448 0.89147 0.17983 0.0
C961 C 0.26701 0.88677 0.1583 0.0
N962 N 0.23304 0.8515 0.15311 0.0
N963 N 0.22429 0.8695 0.17575 0.0
C964 C 0.27674 0.8457 0.11703 0.0
H965 H 0.27441 0.82107 0.1197 0.0
H966 H 0.30082 0.85185 0.1181 0.0
H967 H 0.2677 0.85203 0.09392 0.0
C968 C 0.20099 0.74785 0.19458 0.0
N969 N 0.19675 0.76451 0.16862 0.0
N970 N 0.21482 0.78777 0.16995 0.0
C971 C 0.23175 0.7862 0.19575 0.0
C972 C 0.22326 0.76127 0.21263 0.0
C973 C 0.18249 0.72118 0.20327 0.0
H974 H 0.15901 0.72439 0.19551 0.0
H975 H 0.19173 0.70102 0.19162 0.0
H976 H 0.18287 0.71736 0.22875 0.0
O977 O 0.1401 0.79566 0.13486 0.0
O978 O 0.16974 0.83458 0.14195 0.0
H979 H 0.24752 0.82777 0.2144 0.0
H980 H 0.273 0.79692 0.21979 0.0
C981 C 0.25681 0.80729 0.20343 0.0
H982 H 0.269 0.81358 0.18199 0.0
H983 H 0.20455 0.86671 0.18843 0.0
O984 O 0.14555 0.72556 0.13548 0.0
C985 C 0.14369 0.82364 0.13954 0.0
Co986 Co 0.97995 0.42077 0.88236 0.0
Co987 Co 0.92352 0.45988 0.8905 0.0
C988 C 0.95951 0.46501 0.8323 0.0
O989 O 0.97909 0.44595 0.84173 0.0
O990 O 0.93687 0.47146 0.84897 0.0
C991 C 0.04367 0.40493 0.88339 0.0
O992 O 0.04874 0.43344 0.87773 0.0
C993 C 0.88006 0.50834 0.89169 0.0
C994 C 0.84976 0.49271 0.92912 0.0
C995 C 0.85433 0.51556 0.90791 0.0
N996 N 0.89028 0.48228 0.90286 0.0
N997 N 0.87215 0.47297 0.92514 0.0
C998 C 0.89588 0.52651 0.86746 0.0
H999 H 0.9205 0.5242 0.87023 0.0
H1000 H 0.88963 0.55055 0.86904 0.0
H1001 H 0.88971 0.51793 0.84411 0.0
C1002 C 0.99409 0.45072 0.94451 0.0
N1003 N 0.97748 0.4465 0.91851 0.0
N1004 N 0.95411 0.46441 0.91992 0.0
C1005 C 0.95552 0.48121 0.94584 0.0
C1006 C 0.98053 0.47282 0.96268 0.0
C1007 C 0.02087 0.43233 0.95311 0.0
H1008 H 0.01783 0.40887 0.9452 0.0
H1009 H 0.04098 0.44178 0.94155 0.0
H1010 H 0.02465 0.43258 0.9786 0.0
O1011 O 0.94678 0.38984 0.88424 0.0
O1012 O 0.90772 0.41937 0.89099 0.0
H1013 H 0.91373 0.49646 0.96439 0.0
H1014 H 0.94433 0.52219 0.97018 0.0
C1015 C 0.93418 0.50603 0.95363 0.0
H1016 H 0.92787 0.51833 0.93227 0.0
H1017 H 0.8751 0.45311 0.93759 0.0
O1018 O 0.01681 0.39572 0.88522 0.0
C1019 C 0.91874 0.39335 0.88854 0.0
Co1020 Co 0.32176 0.23053 0.63314 0.0
Co1021 Co 0.28243 0.17425 0.64137 0.0
C1022 C 0.27772 0.21011 0.58301 0.0
O1023 O 0.29673 0.22972 0.59243 0.0
O1024 O 0.27126 0.1875 0.59972 0.0
C1025 C 0.33792 0.29417 0.63387 0.0
O1026 O 0.30945 0.29932 0.6281 0.0
C1027 C 0.23345 0.13142 0.64226 0.0
C1028 C 0.24811 0.10125 0.68023 0.0
C1029 C 0.22558 0.10603 0.65871 0.0
N1030 N 0.25955 0.14131 0.65364 0.0
N1031 N 0.26829 0.12324 0.67622 0.0
C1032 C 0.21584 0.14723 0.6176 0.0
H1033 H 0.21818 0.17186 0.62034 0.0
H1034 H 0.19175 0.14109 0.61866 0.0
H1035 H 0.22486 0.14096 0.59446 0.0
C1036 C 0.29163 0.24496 0.69512 0.0
N1037 N 0.29585 0.22831 0.66915 0.0
N1038 N 0.27781 0.20503 0.67052 0.0
C1039 C 0.2609 0.20659 0.69634 0.0
C1040 C 0.2694 0.23153 0.7132 0.0
C1041 C 0.31011 0.27166 0.70376 0.0
H1042 H 0.33359 0.26847 0.69598 0.0
H1043 H 0.30084 0.29181 0.69208 0.0
H1044 H 0.30974 0.27551 0.72924 0.0
O1045 O 0.35247 0.19717 0.63532 0.0
O1046 O 0.32286 0.15823 0.64247 0.0
H1047 H 0.24521 0.16499 0.71499 0.0
H1048 H 0.21971 0.19581 0.72045 0.0
C1049 C 0.23588 0.18547 0.70406 0.0
H1050 H 0.22365 0.17919 0.68264 0.0
H1051 H 0.28805 0.12599 0.6889 0.0
O1052 O 0.347 0.26727 0.63594 0.0
C1053 C 0.3489 0.16919 0.64001 0.0
Co1054 Co 0.51272 0.57212 0.38211 0.0
Co1055 Co 0.56916 0.53302 0.39023 0.0
C1056 C 0.53319 0.52792 0.33202 0.0
O1057 O 0.5136 0.54697 0.34146 0.0
O1058 O 0.55583 0.52147 0.34868 0.0
C1059 C 0.44899 0.58793 0.38307 0.0
O1060 O 0.44394 0.55943 0.37738 0.0
C1061 C 0.61262 0.48456 0.39141 0.0
C1062 C 0.64291 0.50019 0.42885 0.0
C1063 C 0.63835 0.47734 0.40764 0.0
N1064 N 0.6024 0.51062 0.40258 0.0
N1065 N 0.62053 0.51993 0.42486 0.0
C1066 C 0.5968 0.4664 0.36718 0.0
H1067 H 0.57218 0.46872 0.36994 0.0
H1068 H 0.60303 0.44236 0.36878 0.0
H1069 H 0.60297 0.47496 0.34383 0.0
C1070 C 0.49856 0.5421 0.44421 0.0
N1071 N 0.51518 0.54636 0.41823 0.0
N1072 N 0.53856 0.52845 0.41963 0.0
C1073 C 0.53714 0.51163 0.44554 0.0
C1074 C 0.51212 0.52 0.46238 0.0
C1075 C 0.47176 0.56047 0.45281 0.0
H1076 H 0.47479 0.58394 0.44493 0.0
H1077 H 0.45166 0.55102 0.44122 0.0
H1078 H 0.46796 0.5602 0.47829 0.0
O1079 O 0.54588 0.60306 0.38403 0.0
O1080 O 0.58495 0.57354 0.39076 0.0
H1081 H 0.57894 0.4964 0.46409 0.0
H1082 H 0.54836 0.47065 0.46987 0.0
C1083 C 0.5585 0.48682 0.45333 0.0
H1084 H 0.56481 0.47453 0.43196 0.0
H1085 H 0.61757 0.5398 0.43731 0.0
O1086 O 0.47585 0.59715 0.38496 0.0
C1087 C 0.57392 0.59956 0.38834 0.0
C1088 C 0.2573 0.27562 0.26789 0.0
C1089 C 0.25918 0.25376 0.24437 0.0
H1090 H 0.24395 0.28576 0.31469 0.0
C1091 C 0.24858 0.22477 0.25034 0.0
H1092 H 0.26556 0.29813 0.26389 0.0
C1093 C 0.23608 0.21783 0.27926 0.0
C1094 C 0.23419 0.23969 0.30278 0.0
H1095 H 0.2494 0.20769 0.23246 0.0
H1096 H 0.22785 0.19532 0.28327 0.0
C1097 C 0.24478 0.26868 0.29681 0.0
C1098 C 0.00241 0.96588 0.52735 0.0
C1099 C 0.00152 0.98509 0.55313 0.0
H1100 H -0.00213 0.96192 0.47784 0.0
C1101 C 0.99558 0.01572 0.54859 0.0
H1102 H 0.00749 0.9423 0.53031 0.0
C1103 C 0.99057 0.02699 0.51869 0.0
C1104 C 0.99146 0.00778 0.49291 0.0
H1105 H 0.99512 0.03095 0.5682 0.0
H1106 H 0.98548 0.05057 0.51573 0.0
C1107 C -0.00259 0.97715 0.49745 0.0
C1108 C 0.25665 0.77509 0.77865 0.0
C1109 C 0.25854 0.75323 0.80216 0.0
H1110 H 0.24333 0.78524 0.73185 0.0
C1111 C 0.24795 0.72423 0.79619 0.0
H1112 H 0.26488 0.79761 0.78266 0.0
C1113 C 0.23544 0.7173 0.76727 0.0
C1114 C 0.23355 0.73917 0.74375 0.0
H1115 H 0.24878 0.70715 0.81407 0.0
H1116 H 0.22718 0.6948 0.76327 0.0
C1117 C 0.24416 0.76816 0.74972 0.0
C1118 C 0.49018 0.027 0.0275 0.0
C1119 C 0.49099 0.00779 0.05327 0.0
H1120 H 0.49481 0.03097 0.978 0.0
C1121 C 0.49688 0.97715 0.04874 0.0
H1122 H 0.48514 0.0506 0.03045 0.0
C1123 C 0.50191 0.96588 1.01885 0.0
C1124 C 0.5011 0.9851 0.99307 0.0
H1125 H 0.49728 0.96192 0.06835 0.0
H1126 H 0.50696 0.94228 1.0159 0.0
C1127 C 0.4952 0.01573 0.99761 0.0
C1128 C 0.23634 0.77488 0.26738 0.0
C1129 C 0.23438 0.75299 0.2439 0.0
H1130 H 0.24973 0.78507 0.31416 0.0
C1131 C 0.24494 0.72399 0.2499 0.0
H1132 H 0.22813 0.79741 0.26335 0.0
C1133 C 0.25747 0.71707 0.27882 0.0
C1134 C 0.25942 0.73896 0.3023 0.0
H1135 H 0.24406 0.70688 0.23205 0.0
H1136 H 0.26568 0.69455 0.28285 0.0
C1137 C 0.24886 0.76796 0.2963 0.0
C1138 C 0.49686 0.01564 0.49761 0.0
C1139 C 0.49116 0.98496 0.49316 0.0
H1140 H 0.50682 0.05063 0.53034 0.0
C1141 C 0.49058 0.96578 0.51897 0.0
H1142 H 0.49708 0.03084 0.47797 0.0
C1143 C 0.49565 0.97715 0.54882 0.0
C1144 C 0.50135 0.00783 0.55327 0.0
H1145 H 0.48569 0.94215 0.51609 0.0
H1146 H 0.49543 0.96195 0.56846 0.0
C1147 C 0.50193 0.027 0.52746 0.0
C1148 C 0.24774 0.26882 0.75048 0.0
C1149 C 0.2583 0.23982 0.74448 0.0
H1150 H 0.227 0.29826 0.78343 0.0
C1151 C 0.25634 0.21793 0.76797 0.0
H1152 H 0.24861 0.28592 0.73263 0.0
C1153 C 0.24382 0.22484 0.79689 0.0
C1154 C 0.23326 0.25384 0.80288 0.0
H1155 H 0.26456 0.1954 0.76394 0.0
H1156 H 0.24296 0.20774 0.81474 0.0
C1157 C 0.23522 0.27574 0.7794 0.0
C1158 C 0.00211 0.02703 1.01875 0.0
C1159 C 0.00145 0.00786 0.99293 0.0
H1160 H -0.00264 0.03087 0.06825 0.0
C1161 C 0.99569 0.97719 0.99739 0.0
H1162 H 0.00705 0.05065 1.01586 0.0
C1163 C 0.99065 0.96583 0.02725 0.0
C1164 C 0.99131 0.985 0.05306 0.0
H1165 H 0.99541 0.96199 0.97775 0.0
H1166 H 0.98571 0.94221 0.03014 0.0
C1167 C -0.00293 0.01568 0.0486 0.0
C1168 C 0.74413 0.76833 0.7961 0.0
C1169 C 0.7335 0.73935 0.80205 0.0
H1170 H 0.7649 0.79778 0.76318 0.0
C1171 C 0.73539 0.71749 0.77852 0.0
H1172 H 0.7433 0.78541 0.81398 0.0
C1173 C 0.74793 0.72443 0.74961 0.0
C1174 C 0.75854 0.75341 0.74366 0.0
H1175 H 0.72712 0.69499 0.78251 0.0
H1176 H 0.74875 0.70735 0.73173 0.0
C1177 C 0.75665 0.77527 0.76718 0.0
C1178 C 0.74851 0.22446 0.29604 0.0
C1179 C 0.75914 0.25344 0.30198 0.0
H1180 H 0.72773 0.19501 0.26313 0.0
C1181 C 0.75725 0.27529 0.27845 0.0
H1182 H 0.74933 0.20738 0.31392 0.0
C1183 C 0.74472 0.26835 0.24954 0.0
C1184 C 0.7341 0.23937 0.2436 0.0
H1185 H 0.76553 0.2978 0.28244 0.0
H1186 H 0.74389 0.28543 0.23166 0.0
C1187 C 0.73599 0.21752 0.26713 0.0
C1188 C 0.73519 0.27556 0.76697 0.0
C1189 C 0.73324 0.25367 0.74349 0.0
H1190 H 0.74857 0.28575 0.81374 0.0
C1191 C 0.74377 0.22466 0.7495 0.0
H1192 H 0.72701 0.29809 0.76292 0.0
C1193 C 0.75626 0.21773 0.77843 0.0
C1194 C 0.75822 0.23963 0.80191 0.0
H1195 H 0.7429 0.20755 0.73165 0.0
H1196 H 0.76446 0.19521 0.78247 0.0
C1197 C 0.74769 0.26864 0.7959 0.0
C1198 C 0.7449 0.72432 0.29592 0.0
C1199 C 0.73437 0.75333 0.30193 0.0
H1200 H 0.76559 0.69487 0.26294 0.0
C1201 C 0.73633 0.77523 0.27846 0.0
H1202 H 0.74402 0.70721 0.31376 0.0
C1203 C 0.74883 0.76831 0.24953 0.0
C1204 C 0.75936 0.7393 0.24351 0.0
H1205 H 0.72814 0.79776 0.2825 0.0
H1206 H 0.7497 0.78542 0.23168 0.0
C1207 C 0.7574 0.7174 0.26699 0.0
C1208 C 0.49697 0.47722 0.99723 0.0
C1209 C 0.4911 0.50788 0.99287 0.0
H1210 H 0.50722 0.44221 0.02985 0.0
C1211 C 0.49052 0.52701 1.01872 0.0
H1212 H 0.4972 0.46206 0.97755 0.0
C1213 C 0.49576 0.51561 0.04852 0.0
C1214 C 0.50163 0.48495 0.05288 0.0
H1215 H 0.4855 0.55062 1.0159 0.0
H1216 H 0.49554 0.53077 0.0682 0.0
C1217 C 0.5022 0.46582 0.02703 0.0
C1218 C -0.0031 0.47726 0.54878 0.0
C1219 C 0.99098 0.50791 0.55314 0.0
H1220 H 0.00717 0.44226 0.51615 0.0
C1221 C 0.99033 0.52703 0.52728 0.0
H1222 H -0.00282 0.4621 0.56845 0.0
C1223 C 0.99553 0.51564 0.49747 0.0
C1224 C 0.00146 0.48499 0.49311 0.0
H1225 H 0.98527 0.55064 0.5301 0.0
H1226 H 0.99525 0.53079 0.4778 0.0
C1227 C 0.00211 0.46587 0.51897 0.0
C1228 C 0.02509 0.50682 0.02877 0.0
C1229 C 0.00333 0.5088 0.05237 0.0
H1230 H 0.03501 0.49351 0.98191 0.0
C1231 C 0.97426 0.49837 0.04646 0.0
H1232 H 0.04765 0.51495 0.0327 0.0
C1233 C 0.96716 0.48596 1.01753 0.0
C1234 C 0.98893 0.48398 0.99393 0.0
H1235 H 0.95724 0.49927 0.06439 0.0
H1236 H 0.9446 0.47783 1.0136 0.0
C1237 C 0.01799 0.49441 0.99984 0.0
C1238 C 0.47465 0.49837 0.4995 0.0
C1239 C 0.50371 0.50882 0.49361 0.0
H1240 H 0.44497 0.47782 0.53235 0.0
C1241 C 0.52546 0.50683 0.51723 0.0
H1242 H 0.45764 0.49926 0.48157 0.0
C1243 C 0.51835 0.49442 0.54615 0.0
C1244 C 0.48928 0.48398 0.55205 0.0
H1245 H 0.54802 0.51498 0.51331 0.0
H1246 H 0.53536 0.49353 0.56409 0.0
C1247 C 0.46753 0.48595 0.52843 0.0
C1248 C 0.34874 0.14417 0.14088 0.0
C1249 C 0.35938 0.17374 0.13999 0.0
H1250 H 0.35901 0.09795 0.14741 0.0
C1251 C 0.39001 0.17902 0.14597 0.0
H1252 H 0.32532 0.13926 0.13663 0.0
C1253 C 0.4096 0.15514 0.15226 0.0
C1254 C 0.39892 0.1255 0.1528 0.0
H1255 H 0.39893 0.2016 0.14562 0.0
H1256 H 0.43309 0.15986 0.15631 0.0
C1257 C 0.36818 0.12043 0.14723 0.0
C1258 C 0.06418 0.1395 0.3959 0.0
C1259 C 0.06956 0.10928 0.38804 0.0
H1260 H 0.08321 0.18213 0.40822 0.0
C1261 C 0.09922 0.09887 0.38756 0.0
H1262 H 0.04154 0.14824 0.39662 0.0
C1263 C 0.12294 0.11815 0.3945 0.0
C1264 C 0.11775 0.14849 0.40196 0.0
H1265 H 0.1042 0.07575 0.38186 0.0
H1266 H 0.1455 0.10919 0.39359 0.0
C1267 C 0.08804 0.15894 0.4027 0.0
C1268 C 0.12438 0.87248 0.64688 0.0
C1269 C 0.09366 0.8674 0.6525 0.0
H1270 H 0.16723 0.85367 0.63619 0.0
C1271 C 0.08298 0.83776 0.65195 0.0
H1272 H 0.13355 0.89497 0.64706 0.0
C1273 C 0.10256 0.81389 0.6456 0.0
C1274 C 0.13318 0.81918 0.63957 0.0
H1275 H 0.0595 0.83303 0.65604 0.0
H1276 H 0.09364 0.79131 0.64525 0.0
C1277 C 0.14381 0.84875 0.64047 0.0
C1278 C 0.42842 0.85341 0.89583 0.0
C1279 C 0.42307 0.88363 0.88794 0.0
H1280 H 0.40935 0.81077 0.90806 0.0
C1281 C 0.39341 0.89403 0.88732 0.0
H1282 H 0.45107 0.84468 0.89665 0.0
C1283 C 0.36967 0.87475 0.89415 0.0
C1284 C 0.37484 0.8444 0.90164 0.0
H1285 H 0.38845 0.91715 0.88159 0.0
H1286 H 0.34711 0.8837 0.89313 0.0
C1287 C 0.40455 0.83397 0.90251 0.0
C1288 C 0.40978 0.83739 0.39433 0.0
C1289 C 0.39906 0.86701 0.39378 0.0
H1290 H 0.39919 0.79092 0.401 0.0
C1291 C 0.36832 0.87205 0.39936 0.0
H1292 H 0.43328 0.8327 0.39026 0.0
C1293 C 0.34892 0.84829 0.40575 0.0
C1294 C 0.3596 0.81874 0.40665 0.0
H1295 H 0.35911 0.89453 0.39919 0.0
H1296 H 0.32549 0.85318 0.41001 0.0
C1297 C 0.39023 0.81349 0.40064 0.0
C1298 C 0.40456 0.15922 0.64392 0.0
C1299 C 0.37485 0.1488 0.64498 0.0
H1300 H 0.45111 0.14848 0.64953 0.0
C1301 C 0.36971 0.11847 0.65256 0.0
H1302 H 0.40934 0.1824 0.63829 0.0
C1303 C 0.39349 0.09919 0.65928 0.0
C1304 C 0.42315 0.10957 0.65846 0.0
H1305 H 0.34716 0.10954 0.65372 0.0
H1306 H 0.38855 0.07608 0.66508 0.0
C1307 C 0.42846 0.13977 0.65049 0.0
C1308 C 0.14364 0.14454 0.90595 0.0
C1309 C 0.13296 0.17409 0.90695 0.0
H1310 H 0.13347 0.09833 0.89919 0.0
C1311 C 0.10233 0.17936 0.90092 0.0
H1312 H 0.16707 0.13964 0.91023 0.0
C1313 C 0.0828 0.15548 0.89448 0.0
C1314 C 0.09352 0.12586 0.89383 0.0
H1315 H 0.09338 0.20193 0.90135 0.0
H1316 H 0.05931 0.16019 0.89041 0.0
C1317 C 0.12426 0.12081 0.89944 0.0
C1318 C 0.12292 0.87437 0.15209 0.0
C1319 C 0.11776 0.84403 0.14456 0.0
H1320 H 0.10413 0.91678 0.16463 0.0
C1321 C 0.08805 0.83362 0.1436 0.0
H1322 H 0.14547 0.8833 0.15318 0.0
C1323 C 0.06416 0.85308 0.15023 0.0
C1324 C 0.06951 0.88329 0.15816 0.0
H1325 H 0.08325 0.81044 0.13801 0.0
H1326 H 0.04151 0.84437 0.14934 0.0
C1327 C 0.09916 0.89366 0.15887 0.0
C1328 C 0.64368 0.84886 0.90564 0.0
C1329 C 0.63308 0.81928 0.90642 0.0
H1330 H 0.63335 0.89509 0.89922 0.0
C1331 C 0.60247 0.81397 0.90036 0.0
H1332 H 0.66708 0.8538 0.90995 0.0
C1333 C 0.58286 0.83784 0.8941 0.0
C1334 C 0.5935 0.86749 0.89366 0.0
H1335 H 0.59358 0.79137 0.90063 0.0
H1336 H 0.55939 0.83309 0.88998 0.0
C1337 C 0.62421 0.87259 0.89931 0.0
C1338 C 0.92859 0.85344 0.65022 0.0
C1339 C 0.92326 0.88367 0.65807 0.0
H1340 H 0.90951 0.81082 0.63798 0.0
C1341 C 0.89361 0.89411 0.6586 0.0
H1342 H 0.95123 0.84469 0.64947 0.0
C1343 C 0.86986 0.87484 0.65173 0.0
C1344 C 0.87501 0.84449 0.64428 0.0
H1345 H 0.88866 0.91724 0.6643 0.0
H1346 H 0.84731 0.88382 0.65268 0.0
C1347 C 0.90471 0.83402 0.64349 0.0
C1348 C 0.86842 0.12027 0.39914 0.0
C1349 C 0.89914 0.12539 0.39352 0.0
H1350 H 0.82554 0.13903 0.40979 0.0
C1351 C 0.90977 0.15504 0.39401 0.0
H1352 H 0.85929 0.09776 0.399 0.0
C1353 C 0.89015 0.17889 0.40031 0.0
C1354 C 0.85954 0.17357 0.40634 0.0
H1355 H 0.93325 0.15979 0.38992 0.0
H1356 H 0.89904 0.20149 0.40062 0.0
C1357 C 0.84895 0.14398 0.40551 0.0
C1358 C 0.56399 0.13941 0.1503 0.0
C1359 C 0.56932 0.10918 0.15815 0.0
H1360 H 0.58307 0.18203 0.13802 0.0
C1361 C 0.59896 0.09873 0.15864 0.0
H1362 H 0.54135 0.14817 0.14958 0.0
C1363 C 0.62271 0.11798 0.15173 0.0
C1364 C 0.61756 0.14834 0.14429 0.0
H1365 H 0.60392 0.0756 0.16434 0.0
H1366 H 0.64526 0.109 0.15265 0.0
C1367 C 0.58787 0.15882 0.14353 0.0
C1368 C 0.64365 0.14447 0.64035 0.0
C1369 C 0.63298 0.17402 0.63933 0.0
H1370 H 0.63344 0.09826 0.64712 0.0
C1371 C 0.60235 0.17931 0.64532 0.0
H1372 H 0.66707 0.13955 0.63611 0.0
C1373 C 0.58279 0.15544 0.65174 0.0
C1374 C 0.5935 0.12582 0.65241 0.0
H1375 H 0.59341 0.20188 0.64487 0.0
H1376 H 0.5593 0.16016 0.65579 0.0
C1377 C 0.62424 0.12074 0.64684 0.0
C1378 C 0.62285 0.87454 0.3939 0.0
C1379 C 0.61774 0.8442 0.40144 0.0
H1380 H 0.60399 0.91692 0.38138 0.0
C1381 C 0.58804 0.83375 0.40246 0.0
H1382 H 0.6454 0.8835 0.39278 0.0
C1383 C 0.56412 0.85318 0.39587 0.0
C1384 C 0.56942 0.88339 0.38793 0.0
H1385 H 0.58328 0.81056 0.40806 0.0
H1386 H 0.54149 0.84444 0.3968 0.0
C1387 C 0.59906 0.8938 0.38716 0.0
C1388 C 0.86842 0.87218 0.14672 0.0
C1389 C 0.89915 0.8671 0.1523 0.0
H1390 H 0.82558 0.85338 0.13601 0.0
C1391 C 0.90985 0.83747 0.15167 0.0
H1392 H 0.85923 0.89466 0.14696 0.0
C1393 C 0.89028 0.8136 0.14529 0.0
C1394 C 0.85965 0.81889 0.13929 0.0
H1395 H 0.93334 0.83274 0.15573 0.0
H1396 H 0.89921 0.79102 0.14487 0.0
C1397 C 0.849 0.84845 0.14026 0.0
C1398 C 0.89352 0.09911 0.88704 0.0
C1399 C 0.92317 0.10952 0.88781 0.0
H1400 H 0.84719 0.10941 0.89266 0.0
C1401 C 0.92846 0.13972 0.89576 0.0
H1402 H 0.8886 0.07599 0.88124 0.0
C1403 C 0.90455 0.15915 0.90237 0.0
C1404 C 0.87485 0.1487 0.90135 0.0
H1405 H 0.9511 0.14846 0.8967 0.0
H1406 H 0.90931 0.18234 0.90798 0.0
C1407 C 0.86973 0.11837 0.89378 0.0
C1408 C 0.86775 0.62069 0.64672 0.0
C1409 C 0.89846 0.62572 0.65241 0.0
H1410 H 0.82495 0.63958 0.63596 0.0
C1411 C 0.90918 0.65534 0.65195 0.0
H1412 H 0.85855 0.59821 0.64683 0.0
C1413 C 0.88965 0.67925 0.64561 0.0
C1414 C 0.85903 0.67401 0.63949 0.0
H1415 H 0.93266 0.66004 0.6561 0.0
H1416 H 0.8986 0.70182 0.64532 0.0
C1417 C 0.84836 0.64446 0.6403 0.0
C1418 C 0.62209 0.61849 0.8946 0.0
C1419 C 0.6169 0.64887 0.90192 0.0
H1420 H 0.60336 0.57606 0.88206 0.0
C1421 C 0.5872 0.65934 0.90254 0.0
H1422 H 0.64463 0.60949 0.89379 0.0
C1423 C 0.56336 0.6399 0.89575 0.0
C1424 C 0.56873 0.60965 0.88801 0.0
H1425 H 0.58239 0.68257 0.90795 0.0
H1426 H 0.54071 0.64865 0.89637 0.0
C1427 C 0.59837 0.59921 0.88767 0.0
C1428 C 0.62491 0.37216 0.14651 0.0
C1429 C 0.59419 0.36714 0.15222 0.0
H1430 H 0.6677 0.35324 0.13577 0.0
C1431 C 0.58347 0.33753 0.15182 0.0
H1432 H 0.63411 0.39464 0.14657 0.0
C1433 C 0.60299 0.3136 0.14552 0.0
C1434 C 0.6336 0.31882 0.13938 0.0
H1435 H 0.55999 0.33285 0.15599 0.0
H1436 H 0.59403 0.29103 0.14528 0.0
C1437 C 0.64429 0.34837 0.14014 0.0
C1438 C 0.92923 0.35296 0.3959 0.0
C1439 C 0.92386 0.38321 0.38816 0.0
H1440 H 0.91019 0.31028 0.40804 0.0
C1441 C 0.89421 0.39364 0.38776 0.0
H1442 H 0.95188 0.34422 0.39655 0.0
C1443 C 0.8705 0.37435 0.39464 0.0
C1444 C 0.87568 0.34397 0.40196 0.0
H1445 H 0.88923 0.41679 0.38216 0.0
H1446 H 0.84795 0.38334 0.39379 0.0
C1447 C 0.90538 0.33351 0.40263 0.0
C1448 C 0.86756 0.37246 0.89855 0.0
C1449 C 0.89829 0.36736 0.89301 0.0
H1450 H 0.82469 0.35366 0.90919 0.0
C1451 C 0.90897 0.33772 0.89363 0.0
H1452 H 0.85839 0.39495 0.89832 0.0
C1453 C 0.88939 0.31387 0.89997 0.0
C1454 C 0.85876 0.31916 0.90594 0.0
H1455 H 0.93246 0.33298 0.88961 0.0
H1456 H 0.89832 0.29129 0.90038 0.0
C1457 C 0.84812 0.34873 0.90496 0.0
C1458 C 0.90507 0.659 0.14363 0.0
C1459 C 0.87546 0.6483 0.1429 0.0
H1460 H 0.95146 0.64841 0.15069 0.0
C1461 C 0.87035 0.61758 0.14853 0.0
H1462 H 0.90982 0.68249 0.13954 0.0
C1463 C 0.89406 0.59817 0.15516 0.0
C1464 C 0.9236 0.60885 0.15626 0.0
H1465 H 0.84787 0.60841 0.14822 0.0
H1466 H 0.88914 0.57475 0.15945 0.0
C1467 C 0.9289 0.63946 0.15019 0.0
C1468 C 0.64452 0.64417 0.40484 0.0
C1469 C 0.63386 0.67374 0.40587 0.0
H1470 H 0.63426 0.59796 0.39812 0.0
C1471 C 0.60323 0.67903 0.39991 0.0
H1472 H 0.66794 0.63925 0.40907 0.0
C1473 C 0.58366 0.65518 0.39352 0.0
C1474 C 0.59435 0.62555 0.39285 0.0
H1475 H 0.59429 0.70161 0.40035 0.0
H1476 H 0.56017 0.65992 0.3895 0.0
C1477 C 0.62509 0.62045 0.39839 0.0
C1478 C 0.62223 0.37534 0.64838 0.0
C1479 C 0.61714 0.34461 0.64277 0.0
H1480 H 0.60343 0.41818 0.65925 0.0
C1481 C 0.58752 0.33391 0.64351 0.0
H1482 H 0.64472 0.38451 0.64806 0.0
C1483 C 0.56369 0.35345 0.65005 0.0
C1484 C 0.56898 0.38407 0.65608 0.0
H1485 H 0.58278 0.31042 0.63945 0.0
H1486 H 0.54113 0.34449 0.65055 0.0
C1487 C 0.59852 0.39475 0.65498 0.0
C1488 C 0.08341 0.3376 0.39438 0.0
C1489 C 0.0941 0.36722 0.39391 0.0
H1490 H 0.09403 0.29113 0.40104 0.0
C1491 C 0.12481 0.37229 0.39962 0.0
H1492 H 0.05994 0.33288 0.39022 0.0
C1493 C 0.14422 0.34854 0.40606 0.0
C1494 C 0.13356 0.31898 0.40688 0.0
H1495 H 0.13399 0.39477 0.39951 0.0
H1496 H 0.16762 0.35344 0.41042 0.0
C1497 C 0.10296 0.31371 0.40075 0.0
C1498 C 0.42928 0.35307 0.15021 0.0
C1499 C 0.42395 0.38332 0.15796 0.0
H1500 H 0.41017 0.31041 0.13809 0.0
C1501 C 0.39432 0.39379 0.1584 0.0
H1502 H 0.45191 0.3443 0.14952 0.0
C1503 C 0.37057 0.37453 0.15156 0.0
C1504 C 0.37571 0.34414 0.14423 0.0
H1505 H 0.38937 0.41694 0.16402 0.0
H1506 H 0.34803 0.38353 0.15244 0.0
C1507 C 0.4054 0.33364 0.14351 0.0
C1508 C 0.34835 0.64436 0.90562 0.0
C1509 C 0.359 0.67392 0.90643 0.0
H1510 H 0.35859 0.59812 0.89911 0.0
C1511 C 0.38962 0.67918 0.90035 0.0
H1512 H 0.32494 0.63946 0.90994 0.0
C1513 C 0.40917 0.65529 0.89403 0.0
C1514 C 0.39848 0.62566 0.89356 0.0
H1515 H 0.39855 0.70176 0.90063 0.0
H1516 H 0.43265 0.66 0.88989 0.0
C1517 C 0.36776 0.6206 0.89923 0.0
C1518 C 0.08719 0.65928 0.64337 0.0
C1519 C 0.11688 0.64878 0.64395 0.0
H1520 H 0.0407 0.64863 0.64961 0.0
C1521 C 0.12205 0.6184 0.65125 0.0
H1522 H 0.08239 0.68251 0.63797 0.0
C1523 C 0.09833 0.59914 0.65823 0.0
C1524 C 0.0687 0.60961 0.65793 0.0
H1525 H 0.14459 0.60939 0.65203 0.0
H1526 H 0.10331 0.57599 0.66382 0.0
C1527 C 0.06334 0.63986 0.65019 0.0
C1528 C 0.12484 0.62028 0.14747 0.0
C1529 C 0.09412 0.62542 0.15304 0.0
H1530 H 0.16771 0.63903 0.13674 0.0
C1531 C 0.08347 0.65506 0.1524 0.0
H1532 H 0.13399 0.59778 0.14771 0.0
C1533 C 0.10306 0.6789 0.146 0.0
C1534 C 0.13368 0.67356 0.14 0.0
H1535 H 0.05999 0.65984 0.15645 0.0
H1536 H 0.09416 0.70148 0.14557 0.0
C1537 C 0.1443 0.64398 0.141 0.0
C1538 C 0.09833 0.39479 0.89125 0.0
C1539 C 0.0688 0.38408 0.89008 0.0
H1540 H 0.14452 0.3846 0.89826 0.0
C1541 C 0.06353 0.35345 0.8961 0.0
H1542 H 0.10323 0.41822 0.88699 0.0
C1543 C 0.08737 0.33393 0.90268 0.0
C1544 C 0.11697 0.34467 0.90348 0.0
H1545 H 0.04098 0.34447 0.89555 0.0
H1546 H 0.08265 0.31044 0.90673 0.0
C1547 C 0.12205 0.3754 0.8979 0.0
C1548 C 0.40909 0.33783 0.65252 0.0
C1549 C 0.39845 0.36748 0.65302 0.0
H1550 H 0.39839 0.29138 0.64594 0.0
C1551 C 0.36772 0.3726 0.64745 0.0
H1552 H 0.43258 0.33307 0.65657 0.0
C1553 C 0.34826 0.34887 0.64112 0.0
C1554 C 0.35887 0.31929 0.64027 0.0
H1555 H 0.35858 0.3951 0.64759 0.0
H1556 H 0.32484 0.35381 0.63687 0.0
C1557 C 0.38949 0.31397 0.64626 0.0
C1558 C 0.37058 0.61743 0.39745 0.0
C1559 C 0.37563 0.64816 0.40306 0.0
H1560 H 0.38943 0.57462 0.38656 0.0
C1561 C 0.40523 0.6589 0.40232 0.0
H1562 H 0.34811 0.60822 0.39776 0.0
C1563 C 0.42909 0.6394 0.39578 0.0
C1564 C 0.42384 0.60877 0.38973 0.0
H1565 H 0.40994 0.6824 0.40639 0.0
H1566 H 0.45164 0.64838 0.39527 0.0
C1567 C 0.39431 0.59805 0.39084 0.0
C1568 C 0.25471 0.25389 0.03756 0.0
C1569 C 0.26284 0.28114 0.05194 0.0
H1570 H 0.23207 0.23272 0.99885 0.0
C1571 C 0.25409 0.30807 0.0376 0.0
H1572 H 0.26079 0.23273 0.04818 0.0
C1573 C 0.23795 0.30807 1.00989 0.0
C1574 C 0.2295 0.28112 0.99539 0.0
H1575 H 0.25982 0.32952 0.04783 0.0
H1576 H 0.23201 0.32951 0.99977 0.0
C1577 C 0.23791 0.25388 1.00961 0.0
C1578 C 0.9891 0.98793 0.25891 0.0
C1579 C 0.96186 0.97985 0.2445 0.0
H1580 H 0.0103 0.01037 0.2977 0.0
C1581 C 0.93493 0.98845 0.25896 0.0
H1582 H 0.01025 0.98196 0.24821 0.0
C1583 C 0.93496 0.00433 0.28686 0.0
C1584 C 0.96192 0.01277 0.30135 0.0
H1585 H 0.91349 0.98276 0.2487 0.0
H1586 H 0.91355 0.01014 0.29711 0.0
C1587 C 0.98913 0.00454 0.28698 0.0
C1588 C 0.23823 0.6848 0.53695 0.0
C1589 C 0.22959 0.71175 0.55133 0.0
H1590 H 0.26025 0.66333 0.4991 0.0
C1591 C 0.23785 0.73899 0.53701 0.0
H1592 H 0.23241 0.66336 0.54714 0.0
C1593 C 0.25466 0.73897 0.50906 0.0
C1594 C 0.26296 0.71172 0.4948 0.0
H1595 H 0.23187 0.76015 0.54767 0.0
H1596 H 0.2606 0.76013 0.49836 0.0
C1597 C 0.25438 0.68479 0.50925 0.0
C1598 C 0.55773 0.98863 0.78708 0.0
C1599 C 0.53077 0.98016 0.80155 0.0
H1600 H 0.5792 0.01023 0.74893 0.0
C1601 C 0.50356 0.98836 0.78715 0.0
H1602 H 0.57914 0.98285 0.79735 0.0
C1603 C 0.50359 0.00497 0.75908 0.0
C1604 C 0.53084 0.01308 0.7447 0.0
H1605 H 0.48239 0.9825 0.79785 0.0
H1606 H 0.48244 0.01091 0.74836 0.0
C1607 C 0.55776 0.00452 0.75918 0.0
C1608 C 0.7546 0.73915 0.03675 0.0
C1609 C 0.76298 0.71191 0.05099 0.0
H1610 H 0.73176 0.7603 0.99815 0.0
C1611 C 0.75449 0.68497 0.03651 0.0
H1612 H 0.76047 0.76031 0.04748 0.0
C1613 C 0.73836 0.68495 1.0088 0.0
C1614 C 0.72964 0.71189 0.99444 0.0
H1615 H 0.76042 0.66352 0.04665 0.0
H1616 H 0.73261 0.6635 0.99858 0.0
C1617 C 0.7378 0.73914 1.00879 0.0
C1618 C 0.05786 0.00455 0.78703 0.0
C1619 C 0.03092 0.0131 0.80149 0.0
H1620 H 0.07928 0.98286 0.74891 0.0
C1621 C 0.00369 0.00495 0.78711 0.0
H1622 H 0.07929 0.01029 0.79729 0.0
C1623 C 0.00368 0.98831 0.75906 0.0
C1624 C 0.03091 0.98013 0.74468 0.0
H1625 H 0.98253 0.01087 0.79781 0.0
H1626 H 0.98252 0.98242 0.74835 0.0
C1627 C 0.05785 0.98863 0.75916 0.0
C1628 C 0.73798 0.25372 0.53671 0.0
C1629 C 0.72964 0.28098 0.55096 0.0
H1630 H 0.76079 0.23255 0.49811 0.0
C1631 C 0.73814 0.30791 0.53647 0.0
H1632 H 0.73211 0.23257 0.54746 0.0
C1633 C 0.75426 0.3079 0.50875 0.0
C1634 C 0.76294 0.28096 0.49438 0.0
H1635 H 0.73224 0.32936 0.5466 0.0
H1636 H 0.76002 0.32935 0.49852 0.0
C1637 C 0.75477 0.25372 0.50875 0.0
C1638 C 0.48889 0.98795 0.28729 0.0
C1639 C 0.46166 0.97987 0.30172 0.0
H1640 H 0.51006 0.01039 0.24848 0.0
C1641 C 0.43472 0.98846 0.28728 0.0
H1642 H 0.51005 0.98199 0.29797 0.0
C1643 C 0.43473 0.00435 0.25938 0.0
C1644 C 0.46167 0.01278 0.24487 0.0
H1645 H 0.41329 0.98278 0.29757 0.0
H1646 H 0.4133 0.01015 0.24915 0.0
C1647 C 0.4889 0.00456 0.25922 0.0
C1648 C 0.75482 0.75397 0.53684 0.0
C1649 C 0.76288 0.78124 0.55121 0.0
H1650 H 0.73239 0.73273 0.49805 0.0
C1651 C 0.75422 0.80815 0.53677 0.0
H1652 H 0.76084 0.73282 0.54753 0.0
C1653 C 0.73824 0.8081 0.50896 0.0
C1654 C 0.72985 0.78113 0.49447 0.0
H1655 H 0.7599 0.82961 0.54701 0.0
H1656 H 0.73235 0.82952 0.49876 0.0
C1657 C 0.73817 0.75391 0.50879 0.0
C1658 C 0.48858 0.50519 0.78697 0.0
C1659 C 0.46132 0.5128 0.80163 0.0
H1660 H 0.50982 0.4832 0.74792 0.0
C1661 C 0.43443 0.50375 0.78742 0.0
H1662 H 0.50971 0.51152 0.79747 0.0
C1663 C 0.43449 0.4879 0.75951 0.0
C1664 C 0.46146 0.47998 0.74474 0.0
H1665 H 0.41297 0.50907 0.79787 0.0
H1666 H 0.41309 0.48175 0.74943 0.0
C1667 C 0.48866 0.48863 0.75887 0.0
C1668 C 0.73839 0.18469 0.03673 0.0
C1669 C 0.72971 0.21159 0.05117 0.0
H1670 H 0.76028 0.16334 0.99871 0.0
C1671 C 0.73776 0.23887 0.03681 0.0
H1672 H 0.73272 0.16322 0.04695 0.0
C1673 C 0.75442 0.23895 1.00877 0.0
C1674 C 0.76276 0.21174 0.99444 0.0
H1675 H 0.73174 0.26001 0.0475 0.0
H1676 H 0.7602 0.26013 0.99803 0.0
C1677 C 0.75438 0.18476 1.00892 0.0
C1678 C 0.00401 0.4877 0.28723 0.0
C1679 C 0.03127 0.48012 0.30191 0.0
H1680 H 0.98276 0.50968 0.24817 0.0
C1681 C 0.05816 0.48924 0.28773 0.0
H1682 H 0.98288 0.48131 0.29769 0.0
C1683 C 0.05809 0.50512 0.25984 0.0
C1684 C 0.03112 0.513 0.24505 0.0
H1685 H 0.07961 0.48395 0.2982 0.0
H1686 H 0.07949 0.51132 0.2498 0.0
C1687 C 0.00393 0.50429 0.25914 0.0
C1688 C 0.25432 0.18493 0.53751 0.0
C1689 C 0.26275 0.21189 0.55198 0.0
H1690 H 0.23263 0.16341 0.49948 0.0
C1691 C 0.25447 0.23911 0.53762 0.0
H1692 H 0.26017 0.1635 0.54773 0.0
C1693 C 0.23782 0.23906 0.50958 0.0
C1694 C 0.22973 0.21179 0.49523 0.0
H1695 H 0.26029 0.26029 0.54834 0.0
H1696 H 0.23186 0.2602 0.49886 0.0
C1697 C 0.23834 0.18487 0.50969 0.0
C1698 C 0.55833 0.50515 0.28613 0.0
C1699 C 0.53137 0.51304 0.30094 0.0
H1700 H 0.57982 0.48396 0.24776 0.0
C1701 C 0.50417 0.50433 0.28687 0.0
H1702 H 0.57974 0.51134 0.29616 0.0
C1703 C 0.50422 0.48774 0.25879 0.0
C1704 C 0.53147 0.48015 0.24409 0.0
H1705 H 0.48301 0.50974 0.29786 0.0
H1706 H 0.48308 0.48136 0.24834 0.0
C1707 C 0.55837 0.48927 0.25824 0.0
C1708 C 0.25471 0.75379 1.00903 0.0
C1709 C 0.26273 0.78107 0.99464 0.0
H1710 H 0.23232 0.73255 0.04784 0.0
C1711 C 0.25404 0.80798 1.00907 0.0
H1712 H 0.26075 0.73265 0.99834 0.0
C1713 C 0.23808 0.80792 0.03689 0.0
C1714 C 0.22973 0.78094 0.0514 0.0
H1715 H 0.25969 0.82944 0.99882 0.0
H1716 H 0.23218 0.82934 0.04709 0.0
C1717 C 0.23808 0.75373 0.03708 0.0
C1718 C 0.98848 0.50516 0.75905 0.0
C1719 C 0.96123 0.5128 0.74438 0.0
H1720 H 0.00969 0.48312 0.79809 0.0
C1721 C 0.93433 0.50375 0.75857 0.0
H1722 H 0.00962 0.51149 0.74857 0.0
C1723 C 0.93437 0.48787 0.78646 0.0
C1724 C 0.96132 0.47992 0.80124 0.0
H1725 H 0.91288 0.50909 0.74811 0.0
H1726 H 0.91296 0.48172 0.79651 0.0
C1727 C 0.98853 0.48857 0.78713 0.0
C1728 C 0.18845 0.4223 0.17862 0.0
C1729 C 0.20236 0.40855 0.15315 0.0
H1730 H 0.15693 0.45519 0.19379 0.0
C1731 C 0.19397 0.41643 0.12284 0.0
H1732 H 0.19497 0.41673 0.20218 0.0
C1733 C 0.17217 0.43821 0.11805 0.0
C1734 C 0.15847 0.45219 0.1435 0.0
H1735 H 0.20512 0.40677 0.10286 0.0
H1736 H 0.16645 0.4446 0.09448 0.0
C1737 C 0.16654 0.44398 0.17383 0.0
C1738 C 0.8291 0.94161 0.37256 0.0
C1739 C 0.83602 0.95087 0.40286 0.0
H1740 H 0.80146 0.91361 0.34414 0.0
C1741 C 0.82154 0.93765 0.42827 0.0
H1742 H 0.8394 0.95219 0.35259 0.0
C1743 C 0.79989 0.91573 0.42344 0.0
C1744 C 0.79239 0.90705 0.39311 0.0
H1745 H 0.82641 0.94484 0.45179 0.0
H1746 H 0.78805 0.90671 0.44331 0.0
C1747 C 0.80727 0.91987 0.36771 0.0
C1748 C 0.30417 0.57068 0.67808 0.0
C1749 C 0.29024 0.58438 0.6526 0.0
H1750 H 0.3357 0.53782 0.69332 0.0
C1751 C 0.29863 0.57645 0.62229 0.0
H1752 H 0.29766 0.5763 0.70163 0.0
C1753 C 0.32043 0.55465 0.61754 0.0
C1754 C 0.33414 0.54073 0.64302 0.0
H1755 H 0.28747 0.58606 0.6023 0.0
H1756 H 0.32614 0.54822 0.59399 0.0
C1757 C 0.32608 0.54899 0.67333 0.0
C1758 C 0.67111 0.05527 0.92839 0.0
C1759 C 0.65659 0.04204 0.903 0.0
H1760 H 0.70462 0.08623 0.94335 0.0
C1761 C 0.66346 0.0513 0.87269 0.0
H1762 H 0.66628 0.04809 0.95192 0.0
C1763 C 0.68527 0.07305 0.8678 0.0
C1764 C 0.70018 0.08588 0.89316 0.0
H1765 H 0.65312 0.04072 0.85274 0.0
H1766 H 0.69104 0.0793 0.84421 0.0
C1767 C 0.69274 0.0772 0.92351 0.0
C1768 C 0.16433 0.55085 0.37314 0.0
C1769 C 0.15731 0.54167 0.40344 0.0
H1770 H 0.19209 0.57875 0.34472 0.0
C1771 C 0.17175 0.55493 0.42886 0.0
H1772 H 0.15406 0.54025 0.35317 0.0
C1773 C 0.19344 0.57681 0.42403 0.0
C1774 C 0.20103 0.58541 0.3937 0.0
H1775 H 0.16681 0.5478 0.45238 0.0
H1776 H 0.20524 0.58587 0.44391 0.0
C1777 C 0.18621 0.57255 0.3683 0.0
C1778 C 0.67131 0.93806 0.61771 0.0
C1779 C 0.65683 0.95121 0.64317 0.0
H1780 H 0.70476 0.9071 0.60257 0.0
C1781 C 0.66369 0.94181 0.67343 0.0
H1782 H 0.66647 0.94536 0.59422 0.0
C1783 C 0.68549 0.92 0.67821 0.0
C1784 C 0.70037 0.90725 0.65277 0.0
H1785 H 0.65338 0.95232 0.69343 0.0
H1786 H 0.69127 0.91363 0.70176 0.0
C1787 C 0.69291 0.91607 0.62247 0.0
C1788 C 0.32093 0.438 0.92897 0.0
C1789 C 0.33531 0.45117 0.90346 0.0
H1790 H 0.28746 0.4071 0.94421 0.0
C1791 C 0.32827 0.44185 0.87322 0.0
H1792 H 0.3259 0.44523 0.95245 0.0
C1793 C 0.30639 0.42012 0.8685 0.0
C1794 C 0.2916 0.40737 0.89399 0.0
H1795 H 0.33851 0.45238 0.85318 0.0
H1796 H 0.30048 0.41383 0.84497 0.0
C1797 C 0.29924 0.41609 0.92427 0.0
C1798 C 0.82133 0.05482 0.11755 0.0
C1799 C 0.83581 0.04164 0.143 0.0
H1800 H 0.78786 0.08576 0.10244 0.0
C1801 C 0.82892 0.051 0.17327 0.0
H1802 H 0.82619 0.04755 0.09405 0.0
C1803 C 0.80711 0.07278 0.17806 0.0
C1804 C 0.79223 0.08555 0.15263 0.0
H1805 H 0.83923 0.04047 0.19326 0.0
H1806 H 0.80131 0.07911 0.20162 0.0
C1807 C 0.7997 0.07678 0.12233 0.0
C1808 C 0.8202 0.55458 0.92822 0.0
C1809 C 0.83391 0.54065 0.90274 0.0
H1810 H 0.78728 0.58606 0.94344 0.0
C1811 C 0.82592 0.54896 0.87243 0.0
H1812 H 0.82586 0.54812 0.95177 0.0
C1813 C 0.80407 0.57071 0.86766 0.0
C1814 C 0.79013 0.58442 0.89314 0.0
H1815 H 0.83554 0.53779 0.85245 0.0
H1816 H 0.7976 0.57636 0.84411 0.0
C1817 C 0.79845 0.57643 0.92345 0.0
C1818 C 0.17135 0.05524 0.61806 0.0
C1819 C 0.15683 0.04199 0.64343 0.0
H1820 H 0.20482 0.08625 0.60311 0.0
C1821 C 0.16364 0.05128 0.67375 0.0
H1822 H 0.16657 0.04802 0.59453 0.0
C1823 C 0.1854 0.07309 0.67865 0.0
C1824 C 0.20032 0.08593 0.6533 0.0
H1825 H 0.1533 0.0407 0.69369 0.0
H1826 H 0.19113 0.07937 0.70224 0.0
C1827 C 0.19293 0.07721 0.62295 0.0
C1828 C 0.67244 0.4383 0.42799 0.0
C1829 C 0.65875 0.45223 0.4025 0.0
H1830 H 0.70532 0.40681 0.44325 0.0
C1831 C 0.66674 0.44389 0.3722 0.0
H1832 H 0.66677 0.44479 0.45154 0.0
C1833 C 0.68857 0.42212 0.36746 0.0
C1834 C 0.70249 0.40842 0.39295 0.0
H1835 H 0.65713 0.45505 0.3522 0.0
H1836 H 0.69505 0.41644 0.34391 0.0
C1837 C 0.69417 0.41643 0.42325 0.0
C1838 C 0.32894 0.94144 0.17362 0.0
C1839 C 0.33576 0.95087 0.14336 0.0
H1840 H 0.30144 0.91322 0.20197 0.0
C1841 C 0.32127 0.93772 0.11791 0.0
H1842 H 0.33926 0.95195 0.19362 0.0
C1843 C 0.29969 0.91571 0.12268 0.0
C1844 C 0.29229 0.90687 0.15298 0.0
H1845 H 0.32606 0.94504 0.09441 0.0
H1846 H 0.28783 0.90675 0.10279 0.0
C1847 C 0.30718 0.91961 0.17841 0.0
C1848 C 0.79927 0.41597 0.622 0.0
C1849 C 0.79172 0.40724 0.6523 0.0
H1850 H 0.82582 0.44515 0.59375 0.0
C1851 C 0.80654 0.42003 0.67774 0.0
H1852 H 0.78748 0.40696 0.60209 0.0
C1853 C 0.82836 0.4418 0.67298 0.0
C1854 C 0.83533 0.45112 0.64271 0.0
H1855 H 0.80068 0.41373 0.7013 0.0
H1856 H 0.83862 0.45235 0.69298 0.0
C1857 C 0.82091 0.43792 0.61724 0.0
C1858 C 0.30729 0.07309 0.36824 0.0
C1859 C 0.29237 0.0858 0.39366 0.0
H1860 H 0.33937 0.04075 0.35302 0.0
C1861 C 0.29974 0.07691 0.42396 0.0
H1862 H 0.30158 0.07951 0.34468 0.0
C1863 C 0.32129 0.05487 0.42873 0.0
C1864 C 0.33581 0.04174 0.40328 0.0
H1865 H 0.28785 0.08585 0.44385 0.0
H1866 H 0.32606 0.04751 0.45222 0.0
C1867 C 0.32904 0.05123 0.37302 0.0
C1868 C 0.69341 0.57695 0.1219 0.0
C1869 C 0.70088 0.58568 0.15222 0.0
H1870 H 0.66694 0.54776 0.09357 0.0
C1871 C 0.68602 0.57288 0.17763 0.0
H1872 H 0.70525 0.58597 0.10202 0.0
C1873 C 0.66421 0.5511 0.1728 0.0
C1874 C 0.65732 0.54178 0.14251 0.0
H1875 H 0.69181 0.57917 0.20119 0.0
H1876 H 0.65391 0.54054 0.19278 0.0
C1877 C 0.67179 0.55499 0.11708 0.0
C1878 C 0.17128 0.93793 0.92829 0.0
C1879 C 0.15678 0.95113 0.90287 0.0
H1880 H 0.2047 0.90691 0.94334 0.0
C1881 C 0.16357 0.94173 0.87258 0.0
H1882 H 0.1665 0.94523 0.95179 0.0
C1883 C 0.18531 0.91988 0.86775 0.0
C1884 C 0.20022 0.90709 0.89315 0.0
H1885 H 0.15324 0.95227 0.85261 0.0
H1886 H 0.19104 0.91352 0.84418 0.0
C1887 C 0.19283 0.91591 0.92347 0.0
loop_
_geom_bond_atom_site_label_1
_geom_bond_atom_site_label_2
_geom_bond_distance
_geom_bond_site_symmetry_2
_ccdc_geom_bond_type
Co0 O3 1.970 . S
Co0 N17 1.989 . S
Co0 O25 1.967 . S
Co0 O32 1.920 . S
Co1 O4 1.966 . S
Co1 N10 2.022 . S
Co1 N18 1.993 . S
Co1 O26 1.941 . S
C2 O3 1.258 . S
C2 O4 1.263 . S
O3 Co0 1.970 . S
O3 C2 1.258 . S
O4 Co1 1.966 . S
O4 C2 1.263 . S
C5 O6 1.235 . S
C5 O32 1.289 . S
O6 C5 1.235 . S
C7 C9 1.400 . S
C7 N10 1.351 . S
C7 C12 1.501 . S
C8 C9 1.387 . S
C8 N11 1.341 . S
C9 C7 1.400 . S
C9 C8 1.387 . S
N10 Co1 2.022 . S
N10 C7 1.351 . S
N10 N11 1.365 . S
N11 C8 1.341 . S
N11 N10 1.365 . S
N11 H31 0.862 . S
C12 C7 1.501 . S
C12 H13 0.961 . S
C12 H14 0.961 . S
C12 H15 0.960 . S
H13 C12 0.961 . S
H14 C12 0.961 . S
H15 C12 0.960 . S
C16 N17 1.342 . S
C16 C20 1.401 . S
C16 C21 1.499 . S
N17 Co0 1.989 . S
N17 C16 1.342 . S
N17 N18 1.388 . S
N18 Co1 1.993 . S
N18 N17 1.388 . S
N18 C19 1.346 . S
C19 N18 1.346 . S
C19 C20 1.396 . S
C19 C29 1.510 . S
C20 C16 1.401 . S
C20 C19 1.396 . S
C21 C16 1.499 . S
C21 H22 0.959 . S
C21 H23 0.960 . S
C21 H24 0.961 . S
H22 C21 0.959 . S
H23 C21 0.960 . S
H24 C21 0.961 . S
O25 Co0 1.967 . S
O25 C33 1.258 . S
O26 Co1 1.941 . S
O26 C33 1.266 . S
H27 C29 0.959 . S
H28 C29 0.961 . S
C29 C19 1.510 . S
C29 H27 0.959 . S
C29 H28 0.961 . S
C29 H30 0.960 . S
H30 C29 0.960 . S
H31 N11 0.862 . S
O32 Co0 1.920 . S
O32 C5 1.289 . S
C33 O25 1.258 . S
C33 O26 1.266 . S
Co34 O37 1.970 . S
Co34 N51 1.989 . S
Co34 O59 1.967 . S
Co34 O66 1.920 1_655 S
Co35 O38 1.966 . S
Co35 N44 2.022 1_545 S
Co35 N52 1.993 . S
Co35 O60 1.941 . S
C36 O37 1.258 . S
C36 O38 1.263 . S
O37 Co34 1.970 . S
O37 C36 1.258 . S
O38 Co35 1.966 . S
O38 C36 1.263 . S
C39 O40 1.235 . S
C39 O66 1.289 . S
O40 C39 1.235 . S
C41 C43 1.400 . S
C41 N44 1.351 . S
C41 C46 1.501 . S
C42 C43 1.387 . S
C42 N45 1.341 . S
C43 C41 1.400 . S
C43 C42 1.387 . S
N44 Co35 2.022 1_565 S
N44 C41 1.351 . S
N44 N45 1.365 . S
N45 C42 1.341 . S
N45 N44 1.365 . S
N45 H65 0.862 1_565 S
C46 C41 1.501 . S
C46 H47 0.961 . S
C46 H48 0.961 . S
C46 H49 0.960 . S
H47 C46 0.961 . S
H48 C46 0.961 . S
H49 C46 0.960 . S
C50 N51 1.342 1_455 S
C50 C54 1.401 1_455 S
C50 C55 1.499 . S
N51 Co34 1.989 . S
N51 C50 1.342 1_655 S
N51 N52 1.388 . S
N52 Co35 1.993 . S
N52 N51 1.388 . S
N52 C53 1.346 . S
C53 N52 1.346 . S
C53 C54 1.396 . S
C53 C63 1.510 1_545 S
C54 C50 1.401 1_655 S
C54 C53 1.396 . S
C55 C50 1.499 . S
C55 H56 0.959 . S
C55 H57 0.960 . S
C55 H58 0.961 . S
H56 C55 0.959 . S
H57 C55 0.960 . S
H58 C55 0.961 . S
O59 Co34 1.967 . S
O59 C67 1.258 . S
O60 Co35 1.941 . S
O60 C67 1.266 . S
H61 C63 0.959 . S
H62 C63 0.961 . S
C63 C53 1.510 1_565 S
C63 H61 0.959 . S
C63 H62 0.961 . S
C63 H64 0.960 . S
H64 C63 0.960 . S
H65 N45 0.862 1_545 S
O66 Co34 1.920 1_455 S
O66 C39 1.289 . S
C67 O59 1.258 . S
C67 O60 1.266 . S
Co68 O71 1.970 . S
Co68 N85 1.989 . S
Co68 O93 1.967 . S
Co68 O100 1.920 . S
Co69 O72 1.966 . S
Co69 N78 2.022 . S
Co69 N86 1.993 . S
Co69 O94 1.941 . S
C70 O71 1.258 . S
C70 O72 1.263 . S
O71 Co68 1.970 . S
O71 C70 1.258 . S
O72 Co69 1.966 . S
O72 C70 1.263 . S
C73 O74 1.235 . S
C73 O100 1.289 . S
O74 C73 1.235 . S
C75 C77 1.400 . S
C75 N78 1.351 . S
C75 C80 1.501 . S
C76 C77 1.387 . S
C76 N79 1.341 . S
C77 C75 1.400 . S
C77 C76 1.387 . S
N78 Co69 2.022 . S
N78 C75 1.351 . S
N78 N79 1.365 . S
N79 C76 1.341 . S
N79 N78 1.365 . S
N79 H99 0.862 . S
C80 C75 1.501 . S
C80 H81 0.961 . S
C80 H82 0.961 . S
C80 H83 0.960 . S
H81 C80 0.961 . S
H82 C80 0.961 . S
H83 C80 0.960 . S
C84 N85 1.342 . S
C84 C88 1.401 . S
C84 C89 1.499 . S
N85 Co68 1.989 . S
N85 C84 1.342 . S
N85 N86 1.388 . S
N86 Co69 1.993 . S
N86 N85 1.388 . S
N86 C87 1.346 . S
C87 N86 1.346 . S
C87 C88 1.396 . S
C87 C97 1.510 . S
C88 C84 1.401 . S
C88 C87 1.396 . S
C89 C84 1.499 . S
C89 H90 0.959 . S
C89 H91 0.960 . S
C89 H92 0.961 . S
H90 C89 0.959 . S
H91 C89 0.960 . S
H92 C89 0.961 . S
O93 Co68 1.967 . S
O93 C101 1.258 . S
O94 Co69 1.941 . S
O94 C101 1.266 . S
H95 C97 0.959 . S
H96 C97 0.961 . S
C97 C87 1.510 . S
C97 H95 0.959 . S
C97 H96 0.961 . S
C97 H98 0.960 . S
H98 C97 0.960 . S
H99 N79 0.862 . S
O100 Co68 1.920 . S
O100 C73 1.289 . S
C101 O93 1.258 . S
C101 O94 1.266 . S
Co102 O105 1.970 . S
Co102 N119 1.989 . S
Co102 O127 1.967 . S
Co102 O134 1.920 . S
Co103 O106 1.966 . S
Co103 N112 2.022 1_565 S
Co103 N120 1.993 . S
Co103 O128 1.941 . S
C104 O105 1.258 . S
C104 O106 1.263 . S
O105 Co102 1.970 . S
O105 C104 1.258 . S
O106 Co103 1.966 . S
O106 C104 1.263 . S
C107 O108 1.235 . S
C107 O134 1.289 . S
O108 C107 1.235 . S
C109 C111 1.400 . S
C109 N112 1.351 . S
C109 C114 1.501 . S
C110 C111 1.387 . S
C110 N113 1.341 . S
C111 C109 1.400 . S
C111 C110 1.387 . S
N112 Co103 2.022 1_545 S
N112 C109 1.351 . S
N112 N113 1.365 . S
N113 C110 1.341 . S
N113 N112 1.365 . S
N113 H133 0.862 1_545 S
C114 C109 1.501 . S
C114 H115 0.961 . S
C114 H116 0.961 . S
C114 H117 0.960 . S
H115 C114 0.961 . S
H116 C114 0.961 . S
H117 C114 0.960 . S
C118 N119 1.342 . S
C118 C122 1.401 . S
C118 C123 1.499 . S
N119 Co102 1.989 . S
N119 C118 1.342 . S
N119 N120 1.388 . S
N120 Co103 1.993 . S
N120 N119 1.388 . S
N120 C121 1.346 . S
C121 N120 1.346 . S
C121 C122 1.396 . S
C121 C131 1.510 1_565 S
C122 C118 1.401 . S
C122 C121 1.396 . S
C123 C118 1.499 . S
C123 H124 0.959 . S
C123 H125 0.960 . S
C123 H126 0.961 . S
H124 C123 0.959 . S
H125 C123 0.960 . S
H126 C123 0.961 . S
O127 Co102 1.967 . S
O127 C135 1.258 . S
O128 Co103 1.941 . S
O128 C135 1.266 . S
H129 C131 0.959 . S
H130 C131 0.961 . S
C131 C121 1.510 1_545 S
C131 H129 0.959 . S
C131 H130 0.961 . S
C131 H132 0.960 . S
H132 C131 0.960 . S
H133 N113 0.862 1_565 S
O134 Co102 1.920 . S
O134 C107 1.289 . S
C135 O127 1.258 . S
C135 O128 1.266 . S
Co136 O139 1.970 . S
Co136 N153 1.989 . S
Co136 O161 1.967 . S
Co136 O168 1.920 . S
Co137 O140 1.966 . S
Co137 N146 2.022 . S
Co137 N154 1.993 . S
Co137 O162 1.941 . S
C138 O139 1.258 . S
C138 O140 1.263 . S
O139 Co136 1.970 . S
O139 C138 1.258 . S
O140 Co137 1.966 . S
O140 C138 1.263 . S
C141 O142 1.235 . S
C141 O168 1.289 . S
O142 C141 1.235 . S
C143 C145 1.400 . S
C143 N146 1.351 . S
C143 C148 1.501 . S
C144 C145 1.387 . S
C144 N147 1.341 . S
C145 C143 1.400 . S
C145 C144 1.387 . S
N146 Co137 2.022 . S
N146 C143 1.351 . S
N146 N147 1.365 . S
N147 C144 1.341 . S
N147 N146 1.365 . S
N147 H167 0.862 . S
C148 C143 1.501 . S
C148 H149 0.961 . S
C148 H150 0.961 . S
C148 H151 0.960 . S
H149 C148 0.961 . S
H150 C148 0.961 . S
H151 C148 0.960 . S
C152 N153 1.342 . S
C152 C156 1.401 . S
C152 C157 1.499 . S
N153 Co136 1.989 . S
N153 C152 1.342 . S
N153 N154 1.388 . S
N154 Co137 1.993 . S
N154 N153 1.388 . S
N154 C155 1.346 . S
C155 N154 1.346 . S
C155 C156 1.396 . S
C155 C165 1.510 . S
C156 C152 1.401 . S
C156 C155 1.396 . S
C157 C152 1.499 . S
C157 H158 0.959 . S
C157 H159 0.960 . S
C157 H160 0.961 . S
H158 C157 0.959 . S
H159 C157 0.960 . S
H160 C157 0.961 . S
O161 Co136 1.967 . S
O161 C169 1.258 . S
O162 Co137 1.941 . S
O162 C169 1.266 . S
H163 C165 0.959 . S
H164 C165 0.961 . S
C165 C155 1.510 . S
C165 H163 0.959 . S
C165 H164 0.961 . S
C165 H166 0.960 . S
H166 C165 0.960 . S
H167 N147 0.862 . S
O168 Co136 1.920 . S
O168 C141 1.289 . S
C169 O161 1.258 . S
C169 O162 1.266 . S
Co170 O173 1.970 . S
Co170 N187 1.989 . S
Co170 O195 1.967 . S
Co170 O202 1.920 . S
Co171 O174 1.966 . S
Co171 N180 2.022 1_545 S
Co171 N188 1.993 . S
Co171 O196 1.941 . S
C172 O173 1.258 . S
C172 O174 1.263 . S
O173 Co170 1.970 . S
O173 C172 1.258 . S
O174 Co171 1.966 . S
O174 C172 1.263 . S
C175 O176 1.235 . S
C175 O202 1.289 . S
O176 C175 1.235 . S
C177 C179 1.400 . S
C177 N180 1.351 . S
C177 C182 1.501 . S
C178 C179 1.387 . S
C178 N181 1.341 . S
C179 C177 1.400 . S
C179 C178 1.387 . S
N180 Co171 2.022 1_565 S
N180 C177 1.351 . S
N180 N181 1.365 . S
N181 C178 1.341 . S
N181 N180 1.365 . S
N181 H201 0.862 1_565 S
C182 C177 1.501 . S
C182 H183 0.961 . S
C182 H184 0.961 . S
C182 H185 0.960 . S
H183 C182 0.961 . S
H184 C182 0.961 . S
H185 C182 0.960 . S
C186 N187 1.342 . S
C186 C190 1.401 . S
C186 C191 1.499 . S
N187 Co170 1.989 . S
N187 C186 1.342 . S
N187 N188 1.388 . S
N188 Co171 1.993 . S
N188 N187 1.388 . S
N188 C189 1.346 . S
C189 N188 1.346 . S
C189 C190 1.396 . S
C189 C199 1.510 1_545 S
C190 C186 1.401 . S
C190 C189 1.396 . S
C191 C186 1.499 . S
C191 H192 0.959 . S
C191 H193 0.960 . S
C191 H194 0.961 . S
H192 C191 0.959 . S
H193 C191 0.960 . S
H194 C191 0.961 . S
O195 Co170 1.967 . S
O195 C203 1.258 . S
O196 Co171 1.941 . S
O196 C203 1.266 . S
H197 C199 0.959 . S
H198 C199 0.961 . S
C199 C189 1.510 1_565 S
C199 H197 0.959 . S
C199 H198 0.961 . S
C199 H200 0.960 . S
H200 C199 0.960 . S
H201 N181 0.862 1_545 S
O202 Co170 1.920 . S
O202 C175 1.289 . S
C203 O195 1.258 . S
C203 O196 1.266 . S
Co204 O207 1.970 . S
Co204 N221 1.989 . S
Co204 O229 1.967 . S
Co204 O236 1.920 . S
Co205 O208 1.966 . S
Co205 N214 2.022 . S
Co205 N222 1.993 . S
Co205 O230 1.941 . S
C206 O207 1.258 . S
C206 O208 1.263 . S
O207 Co204 1.970 . S
O207 C206 1.258 . S
O208 Co205 1.966 . S
O208 C206 1.263 . S
C209 O210 1.235 . S
C209 O236 1.289 . S
O210 C209 1.235 . S
C211 C213 1.400 . S
C211 N214 1.351 . S
C211 C216 1.501 . S
C212 C213 1.387 . S
C212 N215 1.341 . S
C213 C211 1.400 . S
C213 C212 1.387 . S
N214 Co205 2.022 . S
N214 C211 1.351 . S
N214 N215 1.365 . S
N215 C212 1.341 . S
N215 N214 1.365 . S
N215 H235 0.862 . S
C216 C211 1.501 . S
C216 H217 0.961 . S
C216 H218 0.961 . S
C216 H219 0.960 . S
H217 C216 0.961 . S
H218 C216 0.961 . S
H219 C216 0.960 . S
C220 N221 1.342 . S
C220 C224 1.401 . S
C220 C225 1.499 . S
N221 Co204 1.989 . S
N221 C220 1.342 . S
N221 N222 1.388 . S
N222 Co205 1.993 . S
N222 N221 1.388 . S
N222 C223 1.346 . S
C223 N222 1.346 . S
C223 C224 1.396 . S
C223 C233 1.510 . S
C224 C220 1.401 . S
C224 C223 1.396 . S
C225 C220 1.499 . S
C225 H226 0.959 . S
C225 H227 0.960 . S
C225 H228 0.961 . S
H226 C225 0.959 . S
H227 C225 0.960 . S
H228 C225 0.961 . S
O229 Co204 1.967 . S
O229 C237 1.258 . S
O230 Co205 1.941 . S
O230 C237 1.266 . S
H231 C233 0.959 . S
H232 C233 0.961 . S
C233 C223 1.510 . S
C233 H231 0.959 . S
C233 H232 0.961 . S
C233 H234 0.960 . S
H234 C233 0.960 . S
H235 N215 0.862 . S
O236 Co204 1.920 . S
O236 C209 1.289 . S
C237 O229 1.258 . S
C237 O230 1.266 . S
Co238 O241 1.970 . S
Co238 N255 1.989 . S
Co238 O263 1.967 . S
Co238 O270 1.920 1_655 S
Co239 O242 1.966 . S
Co239 N248 2.022 1_565 S
Co239 N256 1.993 . S
Co239 O264 1.941 . S
C240 O241 1.258 . S
C240 O242 1.263 . S
O241 Co238 1.970 . S
O241 C240 1.258 . S
O242 Co239 1.966 . S
O242 C240 1.263 . S
C243 O244 1.235 . S
C243 O270 1.289 . S
O244 C243 1.235 . S
C245 C247 1.400 . S
C245 N248 1.351 . S
C245 C250 1.501 . S
C246 C247 1.387 . S
C246 N249 1.341 . S
C247 C245 1.400 . S
C247 C246 1.387 . S
N248 Co239 2.022 1_545 S
N248 C245 1.351 . S
N248 N249 1.365 . S
N249 C246 1.341 . S
N249 N248 1.365 . S
N249 H269 0.862 1_545 S
C250 C245 1.501 . S
C250 H251 0.961 . S
C250 H252 0.961 . S
C250 H253 0.960 . S
H251 C250 0.961 . S
H252 C250 0.961 . S
H253 C250 0.960 . S
C254 N255 1.342 1_455 S
C254 C258 1.401 1_455 S
C254 C259 1.499 . S
N255 Co238 1.989 . S
N255 C254 1.342 1_655 S
N255 N256 1.388 . S
N256 Co239 1.993 . S
N256 N255 1.388 . S
N256 C257 1.346 . S
C257 N256 1.346 . S
C257 C258 1.396 . S
C257 C267 1.510 1_565 S
C258 C254 1.401 1_655 S
C258 C257 1.396 . S
C259 C254 1.499 . S
C259 H260 0.959 . S
C259 H261 0.960 . S
C259 H262 0.961 . S
H260 C259 0.959 . S
H261 C259 0.960 . S
H262 C259 0.961 . S
O263 Co238 1.967 . S
O263 C271 1.258 . S
O264 Co239 1.941 . S
O264 C271 1.266 . S
H265 C267 0.959 . S
H266 C267 0.961 . S
C267 C257 1.510 1_545 S
C267 H265 0.959 . S
C267 H266 0.961 . S
C267 H268 0.960 . S
H268 C267 0.960 . S
H269 N249 0.862 1_565 S
O270 Co238 1.920 1_455 S
O270 C243 1.289 . S
C271 O263 1.258 . S
C271 O264 1.266 . S
Co272 O275 1.970 . S
Co272 N289 1.989 . S
Co272 O297 1.967 . S
Co272 O304 1.920 . S
Co273 O276 1.966 . S
Co273 N282 2.022 . S
Co273 N290 1.993 . S
Co273 O298 1.941 . S
C274 O275 1.258 . S
C274 O276 1.263 . S
O275 Co272 1.970 . S
O275 C274 1.258 . S
O276 Co273 1.966 . S
O276 C274 1.263 . S
C277 O278 1.235 . S
C277 O304 1.289 . S
O278 C277 1.235 . S
C279 C281 1.400 . S
C279 N282 1.351 . S
C279 C284 1.501 . S
C280 C281 1.387 . S
C280 N283 1.341 . S
C281 C279 1.400 . S
C281 C280 1.387 . S
N282 Co273 2.022 . S
N282 C279 1.351 . S
N282 N283 1.365 . S
N283 C280 1.341 . S
N283 N282 1.365 . S
N283 H303 0.862 . S
C284 C279 1.501 . S
C284 H285 0.961 . S
C284 H286 0.961 . S
C284 H287 0.960 . S
H285 C284 0.961 . S
H286 C284 0.961 . S
H287 C284 0.960 . S
C288 N289 1.342 . S
C288 C292 1.401 . S
C288 C293 1.499 . S
N289 Co272 1.989 . S
N289 C288 1.342 . S
N289 N290 1.388 . S
N290 Co273 1.993 . S
N290 N289 1.388 . S
N290 C291 1.346 . S
C291 N290 1.346 . S
C291 C292 1.396 . S
C291 C301 1.510 . S
C292 C288 1.401 . S
C292 C291 1.396 . S
C293 C288 1.499 . S
C293 H294 0.959 . S
C293 H295 0.960 . S
C293 H296 0.961 . S
H294 C293 0.959 . S
H295 C293 0.960 . S
H296 C293 0.961 . S
O297 Co272 1.967 . S
O297 C305 1.258 . S
O298 Co273 1.941 . S
O298 C305 1.266 . S
H299 C301 0.959 . S
H300 C301 0.961 . S
C301 C291 1.510 . S
C301 H299 0.959 . S
C301 H300 0.961 . S
C301 H302 0.960 . S
H302 C301 0.960 . S
H303 N283 0.862 . S
O304 Co272 1.920 . S
O304 C277 1.289 . S
C305 O297 1.258 . S
C305 O298 1.266 . S
Co306 O309 1.970 . S
Co306 N323 1.989 . S
Co306 O331 1.967 . S
Co306 O338 1.920 1_455 S
Co307 O310 1.966 . S
Co307 N316 2.022 1_565 S
Co307 N324 1.993 . S
Co307 O332 1.941 . S
C308 O309 1.258 . S
C308 O310 1.263 . S
O309 Co306 1.970 . S
O309 C308 1.258 . S
O310 Co307 1.966 . S
O310 C308 1.263 . S
C311 O312 1.235 . S
C311 O338 1.289 . S
O312 C311 1.235 . S
C313 C315 1.400 . S
C313 N316 1.351 . S
C313 C318 1.501 . S
C314 C315 1.387 . S
C314 N317 1.341 . S
C315 C313 1.400 . S
C315 C314 1.387 . S
N316 Co307 2.022 1_545 S
N316 C313 1.351 . S
N316 N317 1.365 . S
N317 C314 1.341 . S
N317 N316 1.365 . S
N317 H337 0.862 1_545 S
C318 C313 1.501 . S
C318 H319 0.961 . S
C318 H320 0.961 . S
C318 H321 0.960 . S
H319 C318 0.961 . S
H320 C318 0.961 . S
H321 C318 0.960 . S
C322 N323 1.342 1_655 S
C322 C326 1.401 1_655 S
C322 C327 1.499 . S
N323 Co306 1.989 . S
N323 C322 1.342 1_455 S
N323 N324 1.388 . S
N324 Co307 1.993 . S
N324 N323 1.388 . S
N324 C325 1.346 . S
C325 N324 1.346 . S
C325 C326 1.396 . S
C325 C335 1.510 1_565 S
C326 C322 1.401 1_455 S
C326 C325 1.396 . S
C327 C322 1.499 . S
C327 H328 0.959 . S
C327 H329 0.960 . S
C327 H330 0.961 . S
H328 C327 0.959 . S
H329 C327 0.960 . S
H330 C327 0.961 . S
O331 Co306 1.967 . S
O331 C339 1.258 . S
O332 Co307 1.941 . S
O332 C339 1.266 . S
H333 C335 0.959 . S
H334 C335 0.961 . S
C335 C325 1.510 1_545 S
C335 H333 0.959 . S
C335 H334 0.961 . S
C335 H336 0.960 . S
H336 C335 0.960 . S
H337 N317 0.862 1_565 S
O338 Co306 1.920 1_655 S
O338 C311 1.289 . S
C339 O331 1.258 . S
C339 O332 1.266 . S
Co340 O343 1.970 . S
Co340 N357 1.989 . S
Co340 O365 1.967 . S
Co340 O372 1.920 . S
Co341 O344 1.966 . S
Co341 N350 2.022 . S
Co341 N358 1.993 . S
Co341 O366 1.941 . S
C342 O343 1.258 . S
C342 O344 1.263 . S
O343 Co340 1.970 . S
O343 C342 1.258 . S
O344 Co341 1.966 . S
O344 C342 1.263 . S
C345 O346 1.235 . S
C345 O372 1.289 . S
O346 C345 1.235 . S
C347 C349 1.400 . S
C347 N350 1.351 . S
C347 C352 1.501 . S
C348 C349 1.387 . S
C348 N351 1.341 . S
C349 C347 1.400 . S
C349 C348 1.387 . S
N350 Co341 2.022 . S
N350 C347 1.351 . S
N350 N351 1.365 . S
N351 C348 1.341 . S
N351 N350 1.365 . S
N351 H371 0.862 . S
C352 C347 1.501 . S
C352 H353 0.961 . S
C352 H354 0.961 . S
C352 H355 0.960 . S
H353 C352 0.961 . S
H354 C352 0.961 . S
H355 C352 0.960 . S
C356 N357 1.342 . S
C356 C360 1.401 . S
C356 C361 1.499 . S
N357 Co340 1.989 . S
N357 C356 1.342 . S
N357 N358 1.388 . S
N358 Co341 1.993 . S
N358 N357 1.388 . S
N358 C359 1.346 . S
C359 N358 1.346 . S
C359 C360 1.396 . S
C359 C369 1.510 . S
C360 C356 1.401 . S
C360 C359 1.396 . S
C361 C356 1.499 . S
C361 H362 0.959 . S
C361 H363 0.960 . S
C361 H364 0.961 . S
H362 C361 0.959 . S
H363 C361 0.960 . S
H364 C361 0.961 . S
O365 Co340 1.967 . S
O365 C373 1.258 . S
O366 Co341 1.941 . S
O366 C373 1.266 . S
H367 C369 0.959 . S
H368 C369 0.961 . S
C369 C359 1.510 . S
C369 H367 0.959 . S
C369 H368 0.961 . S
C369 H370 0.960 . S
H370 C369 0.960 . S
H371 N351 0.862 . S
O372 Co340 1.920 . S
O372 C345 1.289 . S
C373 O365 1.258 . S
C373 O366 1.266 . S
Co374 O377 1.970 . S
Co374 N391 1.989 . S
Co374 O399 1.967 . S
Co374 O406 1.920 . S
Co375 O378 1.966 . S
Co375 N384 2.022 1_545 S
Co375 N392 1.993 . S
Co375 O400 1.941 . S
C376 O377 1.258 . S
C376 O378 1.263 . S
O377 Co374 1.970 . S
O377 C376 1.258 . S
O378 Co375 1.966 . S
O378 C376 1.263 . S
C379 O380 1.235 . S
C379 O406 1.289 . S
O380 C379 1.235 . S
C381 C383 1.400 . S
C381 N384 1.351 . S
C381 C386 1.501 . S
C382 C383 1.387 . S
C382 N385 1.341 . S
C383 C381 1.400 . S
C383 C382 1.387 . S
N384 Co375 2.022 1_565 S
N384 C381 1.351 . S
N384 N385 1.365 . S
N385 C382 1.341 . S
N385 N384 1.365 . S
N385 H405 0.862 1_565 S
C386 C381 1.501 . S
C386 H387 0.961 . S
C386 H388 0.961 . S
C386 H389 0.960 . S
H387 C386 0.961 . S
H388 C386 0.961 . S
H389 C386 0.960 . S
C390 N391 1.342 . S
C390 C394 1.401 . S
C390 C395 1.499 . S
N391 Co374 1.989 . S
N391 C390 1.342 . S
N391 N392 1.388 . S
N392 Co375 1.993 . S
N392 N391 1.388 . S
N392 C393 1.346 . S
C393 N392 1.346 . S
C393 C394 1.396 . S
C393 C403 1.510 1_545 S
C394 C390 1.401 . S
C394 C393 1.396 . S
C395 C390 1.499 . S
C395 H396 0.959 . S
C395 H397 0.960 . S
C395 H398 0.961 . S
H396 C395 0.959 . S
H397 C395 0.960 . S
H398 C395 0.961 . S
O399 Co374 1.967 . S
O399 C407 1.258 . S
O400 Co375 1.941 . S
O400 C407 1.266 . S
H401 C403 0.959 . S
H402 C403 0.961 . S
C403 C393 1.510 1_565 S
C403 H401 0.959 . S
C403 H402 0.961 . S
C403 H404 0.960 . S
H404 C403 0.960 . S
H405 N385 0.862 1_545 S
O406 Co374 1.920 . S
O406 C379 1.289 . S
C407 O399 1.258 . S
C407 O400 1.266 . S
Co408 O411 1.970 . S
Co408 N425 1.989 . S
Co408 O433 1.967 . S
Co408 O440 1.920 . S
Co409 O412 1.966 . S
Co409 N418 2.022 . S
Co409 N426 1.993 . S
Co409 O434 1.941 . S
C410 O411 1.258 . S
C410 O412 1.263 . S
O411 Co408 1.970 . S
O411 C410 1.258 . S
O412 Co409 1.966 . S
O412 C410 1.263 . S
C413 O414 1.235 . S
C413 O440 1.289 . S
O414 C413 1.235 . S
C415 C417 1.400 . S
C415 N418 1.351 . S
C415 C420 1.501 . S
C416 C417 1.387 . S
C416 N419 1.341 . S
C417 C415 1.400 . S
C417 C416 1.387 . S
N418 Co409 2.022 . S
N418 C415 1.351 . S
N418 N419 1.365 . S
N419 C416 1.341 . S
N419 N418 1.365 . S
N419 H439 0.862 . S
C420 C415 1.501 . S
C420 H421 0.961 . S
C420 H422 0.961 . S
C420 H423 0.960 . S
H421 C420 0.961 . S
H422 C420 0.961 . S
H423 C420 0.960 . S
C424 N425 1.342 . S
C424 C428 1.401 . S
C424 C429 1.499 . S
N425 Co408 1.989 . S
N425 C424 1.342 . S
N425 N426 1.388 . S
N426 Co409 1.993 . S
N426 N425 1.388 . S
N426 C427 1.346 . S
C427 N426 1.346 . S
C427 C428 1.396 . S
C427 C437 1.510 . S
C428 C424 1.401 . S
C428 C427 1.396 . S
C429 C424 1.499 . S
C429 H430 0.959 . S
C429 H431 0.960 . S
C429 H432 0.961 . S
H430 C429 0.959 . S
H431 C429 0.960 . S
H432 C429 0.961 . S
O433 Co408 1.967 . S
O433 C441 1.258 . S
O434 Co409 1.941 . S
O434 C441 1.266 . S
H435 C437 0.959 . S
H436 C437 0.961 . S
C437 C427 1.510 . S
C437 H435 0.959 . S
C437 H436 0.961 . S
C437 H438 0.960 . S
H438 C437 0.960 . S
H439 N419 0.862 . S
O440 Co408 1.920 . S
O440 C413 1.289 . S
C441 O433 1.258 . S
C441 O434 1.266 . S
Co442 O445 1.970 . S
Co442 N459 1.989 . S
Co442 O467 1.967 . S
Co442 O474 1.920 . S
Co443 O446 1.966 . S
Co443 N452 2.022 1_565 S
Co443 N460 1.993 . S
Co443 O468 1.941 . S
C444 O445 1.258 . S
C444 O446 1.263 . S
O445 Co442 1.970 . S
O445 C444 1.258 . S
O446 Co443 1.966 . S
O446 C444 1.263 . S
C447 O448 1.235 . S
C447 O474 1.289 . S
O448 C447 1.235 . S
C449 C451 1.400 . S
C449 N452 1.351 . S
C449 C454 1.501 . S
C450 C451 1.387 . S
C450 N453 1.341 . S
C451 C449 1.400 . S
C451 C450 1.387 . S
N452 Co443 2.022 1_545 S
N452 C449 1.351 . S
N452 N453 1.365 . S
N453 C450 1.341 . S
N453 N452 1.365 . S
N453 H473 0.862 1_545 S
C454 C449 1.501 . S
C454 H455 0.961 . S
C454 H456 0.961 . S
C454 H457 0.960 . S
H455 C454 0.961 . S
H456 C454 0.961 . S
H457 C454 0.960 . S
C458 N459 1.342 . S
C458 C462 1.401 . S
C458 C463 1.499 . S
N459 Co442 1.989 . S
N459 C458 1.342 . S
N459 N460 1.388 . S
N460 Co443 1.993 . S
N460 N459 1.388 . S
N460 C461 1.346 . S
C461 N460 1.346 . S
C461 C462 1.396 . S
C461 C471 1.510 1_565 S
C462 C458 1.401 . S
C462 C461 1.396 . S
C463 C458 1.499 . S
C463 H464 0.959 . S
C463 H465 0.960 . S
C463 H466 0.961 . S
H464 C463 0.959 . S
H465 C463 0.960 . S
H466 C463 0.961 . S
O467 Co442 1.967 . S
O467 C475 1.258 . S
O468 Co443 1.941 . S
O468 C475 1.266 . S
H469 C471 0.959 . S
H470 C471 0.961 . S
C471 C461 1.510 1_545 S
C471 H469 0.959 . S
C471 H470 0.961 . S
C471 H472 0.960 . S
H472 C471 0.960 . S
H473 N453 0.862 1_565 S
O474 Co442 1.920 . S
O474 C447 1.289 . S
C475 O467 1.258 . S
C475 O468 1.266 . S
Co476 O479 1.970 . S
Co476 N493 1.989 . S
Co476 O501 1.967 . S
Co476 O508 1.920 . S
Co477 O480 1.966 . S
Co477 N486 2.022 . S
Co477 N494 1.993 . S
Co477 O502 1.941 . S
C478 O479 1.258 . S
C478 O480 1.263 . S
O479 Co476 1.970 . S
O479 C478 1.258 . S
O480 Co477 1.966 . S
O480 C478 1.263 . S
C481 O482 1.235 . S
C481 O508 1.289 . S
O482 C481 1.235 . S
C483 C485 1.400 . S
C483 N486 1.351 . S
C483 C488 1.501 . S
C484 C485 1.387 . S
C484 N487 1.341 . S
C485 C483 1.400 . S
C485 C484 1.387 . S
N486 Co477 2.022 . S
N486 C483 1.351 . S
N486 N487 1.365 . S
N487 C484 1.341 . S
N487 N486 1.365 . S
N487 H507 0.862 . S
C488 C483 1.501 . S
C488 H489 0.961 . S
C488 H490 0.961 . S
C488 H491 0.960 . S
H489 C488 0.961 . S
H490 C488 0.961 . S
H491 C488 0.960 . S
C492 N493 1.342 . S
C492 C496 1.401 . S
C492 C497 1.499 . S
N493 Co476 1.989 . S
N493 C492 1.342 . S
N493 N494 1.388 . S
N494 Co477 1.993 . S
N494 N493 1.388 . S
N494 C495 1.346 . S
C495 N494 1.346 . S
C495 C496 1.396 . S
C495 C505 1.510 . S
C496 C492 1.401 . S
C496 C495 1.396 . S
C497 C492 1.499 . S
C497 H498 0.959 . S
C497 H499 0.960 . S
C497 H500 0.961 . S
H498 C497 0.959 . S
H499 C497 0.960 . S
H500 C497 0.961 . S
O501 Co476 1.967 . S
O501 C509 1.258 . S
O502 Co477 1.941 . S
O502 C509 1.266 . S
H503 C505 0.959 . S
H504 C505 0.961 . S
C505 C495 1.510 . S
C505 H503 0.959 . S
C505 H504 0.961 . S
C505 H506 0.960 . S
H506 C505 0.960 . S
H507 N487 0.862 . S
O508 Co476 1.920 . S
O508 C481 1.289 . S
C509 O501 1.258 . S
C509 O502 1.266 . S
Co510 O513 1.970 . S
Co510 N527 1.989 . S
Co510 O535 1.967 . S
Co510 O542 1.920 1_455 S
Co511 O514 1.966 . S
Co511 N520 2.022 1_545 S
Co511 N528 1.993 . S
Co511 O536 1.941 . S
C512 O513 1.258 . S
C512 O514 1.263 . S
O513 Co510 1.970 . S
O513 C512 1.258 . S
O514 Co511 1.966 . S
O514 C512 1.263 . S
C515 O516 1.235 . S
C515 O542 1.289 . S
O516 C515 1.235 . S
C517 C519 1.400 . S
C517 N520 1.351 . S
C517 C522 1.501 . S
C518 C519 1.387 . S
C518 N521 1.341 . S
C519 C517 1.400 . S
C519 C518 1.387 . S
N520 Co511 2.022 1_565 S
N520 C517 1.351 . S
N520 N521 1.365 . S
N521 C518 1.341 . S
N521 N520 1.365 . S
N521 H541 0.862 1_565 S
C522 C517 1.501 . S
C522 H523 0.961 . S
C522 H524 0.961 . S
C522 H525 0.960 . S
H523 C522 0.961 . S
H524 C522 0.961 . S
H525 C522 0.960 . S
C526 N527 1.342 1_655 S
C526 C530 1.401 1_655 S
C526 C531 1.499 . S
N527 Co510 1.989 . S
N527 C526 1.342 1_455 S
N527 N528 1.388 . S
N528 Co511 1.993 . S
N528 N527 1.388 . S
N528 C529 1.346 . S
C529 N528 1.346 . S
C529 C530 1.396 . S
C529 C539 1.510 1_545 S
C530 C526 1.401 1_455 S
C530 C529 1.396 . S
C531 C526 1.499 . S
C531 H532 0.959 . S
C531 H533 0.960 . S
C531 H534 0.961 . S
H532 C531 0.959 . S
H533 C531 0.960 . S
H534 C531 0.961 . S
O535 Co510 1.967 . S
O535 C543 1.258 . S
O536 Co511 1.941 . S
O536 C543 1.266 . S
H537 C539 0.959 . S
H538 C539 0.961 . S
C539 C529 1.510 1_565 S
C539 H537 0.959 . S
C539 H538 0.961 . S
C539 H540 0.960 . S
H540 C539 0.960 . S
H541 N521 0.862 1_545 S
O542 Co510 1.920 1_655 S
O542 C515 1.289 . S
C543 O535 1.258 . S
C543 O536 1.266 . S
Co544 O547 1.970 . S
Co544 N561 1.989 . S
Co544 O569 1.967 . S
Co544 O576 1.920 . S
Co545 O548 1.966 . S
Co545 N554 2.022 . S
Co545 N562 1.993 . S
Co545 O570 1.941 . S
C546 O547 1.258 . S
C546 O548 1.263 . S
O547 Co544 1.970 . S
O547 C546 1.258 . S
O548 Co545 1.966 . S
O548 C546 1.263 . S
C549 O550 1.235 . S
C549 O576 1.289 . S
O550 C549 1.235 . S
C551 C553 1.400 . S
C551 N554 1.351 . S
C551 C556 1.501 . S
C552 C553 1.387 . S
C552 N555 1.341 . S
C553 C551 1.400 . S
C553 C552 1.387 . S
N554 Co545 2.022 . S
N554 C551 1.351 . S
N554 N555 1.365 . S
N555 C552 1.341 . S
N555 N554 1.365 . S
N555 H575 0.862 . S
C556 C551 1.501 . S
C556 H557 0.961 . S
C556 H558 0.961 . S
C556 H559 0.960 . S
H557 C556 0.961 . S
H558 C556 0.961 . S
H559 C556 0.960 . S
C560 N561 1.342 . S
C560 C564 1.401 . S
C560 C565 1.499 . S
N561 Co544 1.989 . S
N561 C560 1.342 . S
N561 N562 1.388 . S
N562 Co545 1.993 . S
N562 N561 1.388 . S
N562 C563 1.346 . S
C563 N562 1.346 . S
C563 C564 1.396 . S
C563 C573 1.510 . S
C564 C560 1.401 . S
C564 C563 1.396 . S
C565 C560 1.499 . S
C565 H566 0.959 . S
C565 H567 0.960 . S
C565 H568 0.961 . S
H566 C565 0.959 . S
H567 C565 0.960 . S
H568 C565 0.961 . S
O569 Co544 1.967 . S
O569 C577 1.258 . S
O570 Co545 1.941 . S
O570 C577 1.266 . S
H571 C573 0.959 . S
H572 C573 0.961 . S
C573 C563 1.510 . S
C573 H571 0.959 . S
C573 H572 0.961 . S
C573 H574 0.960 . S
H574 C573 0.960 . S
H575 N555 0.862 . S
O576 Co544 1.920 . S
O576 C549 1.289 . S
C577 O569 1.258 . S
C577 O570 1.266 . S
Co578 O581 1.970 . S
Co578 N595 1.989 . S
Co578 O603 1.967 . S
Co578 O610 1.920 . S
Co579 O582 1.966 . S
Co579 N588 2.022 . S
Co579 N596 1.993 . S
Co579 O604 1.941 . S
C580 O581 1.258 . S
C580 O582 1.263 . S
O581 Co578 1.970 . S
O581 C580 1.258 . S
O582 Co579 1.966 . S
O582 C580 1.263 . S
C583 O584 1.235 . S
C583 O610 1.289 . S
O584 C583 1.235 . S
C585 C587 1.400 . S
C585 N588 1.351 . S
C585 C590 1.501 . S
C586 C587 1.387 . S
C586 N589 1.341 . S
C587 C585 1.400 . S
C587 C586 1.387 . S
N588 Co579 2.022 . S
N588 C585 1.351 . S
N588 N589 1.365 . S
N589 C586 1.341 . S
N589 N588 1.365 . S
N589 H609 0.862 . S
C590 C585 1.501 . S
C590 H591 0.961 . S
C590 H592 0.961 . S
C590 H593 0.960 . S
H591 C590 0.961 . S
H592 C590 0.961 . S
H593 C590 0.960 . S
C594 N595 1.342 . S
C594 C598 1.401 . S
C594 C599 1.499 . S
N595 Co578 1.989 . S
N595 C594 1.342 . S
N595 N596 1.388 . S
N596 Co579 1.993 . S
N596 N595 1.388 . S
N596 C597 1.346 . S
C597 N596 1.346 . S
C597 C598 1.396 . S
C597 C607 1.510 . S
C598 C594 1.401 . S
C598 C597 1.396 . S
C599 C594 1.499 . S
C599 H600 0.959 . S
C599 H601 0.960 . S
C599 H602 0.961 . S
H600 C599 0.959 . S
H601 C599 0.960 . S
H602 C599 0.961 . S
O603 Co578 1.967 . S
O603 C611 1.258 . S
O604 Co579 1.941 . S
O604 C611 1.266 . S
H605 C607 0.959 . S
H606 C607 0.961 . S
C607 C597 1.510 . S
C607 H605 0.959 . S
C607 H606 0.961 . S
C607 H608 0.960 . S
H608 C607 0.960 . S
H609 N589 0.862 . S
O610 Co578 1.920 . S
O610 C583 1.289 . S
C611 O603 1.258 . S
C611 O604 1.266 . S
Co612 O615 1.970 . S
Co612 N629 1.989 . S
Co612 O637 1.967 . S
Co612 O644 1.920 . S
Co613 O616 1.966 . S
Co613 N622 2.022 . S
Co613 N630 1.993 . S
Co613 O638 1.941 . S
C614 O615 1.258 . S
C614 O616 1.263 . S
O615 Co612 1.970 . S
O615 C614 1.258 . S
O616 Co613 1.966 . S
O616 C614 1.263 . S
C617 O618 1.235 . S
C617 O644 1.289 . S
O618 C617 1.235 . S
C619 C621 1.400 . S
C619 N622 1.351 . S
C619 C624 1.501 . S
C620 C621 1.387 . S
C620 N623 1.341 . S
C621 C619 1.400 . S
C621 C620 1.387 . S
N622 Co613 2.022 . S
N622 C619 1.351 . S
N622 N623 1.365 . S
N623 C620 1.341 . S
N623 N622 1.365 . S
N623 H643 0.862 . S
C624 C619 1.501 . S
C624 H625 0.961 . S
C624 H626 0.961 . S
C624 H627 0.960 . S
H625 C624 0.961 . S
H626 C624 0.961 . S
H627 C624 0.960 . S
C628 N629 1.342 . S
C628 C632 1.401 . S
C628 C633 1.499 . S
N629 Co612 1.989 . S
N629 C628 1.342 . S
N629 N630 1.388 . S
N630 Co613 1.993 . S
N630 N629 1.388 . S
N630 C631 1.346 . S
C631 N630 1.346 . S
C631 C632 1.396 . S
C631 C641 1.510 . S
C632 C628 1.401 . S
C632 C631 1.396 . S
C633 C628 1.499 . S
C633 H634 0.959 . S
C633 H635 0.960 . S
C633 H636 0.961 . S
H634 C633 0.959 . S
H635 C633 0.960 . S
H636 C633 0.961 . S
O637 Co612 1.967 . S
O637 C645 1.258 . S
O638 Co613 1.941 . S
O638 C645 1.266 . S
H639 C641 0.959 . S
H640 C641 0.961 . S
C641 C631 1.510 . S
C641 H639 0.959 . S
C641 H640 0.961 . S
C641 H642 0.960 . S
H642 C641 0.960 . S
H643 N623 0.862 . S
O644 Co612 1.920 . S
O644 C617 1.289 . S
C645 O637 1.258 . S
C645 O638 1.266 . S
Co646 O649 1.970 . S
Co646 N663 1.989 . S
Co646 O671 1.967 . S
Co646 O678 1.920 1_455 S
Co647 O650 1.966 . S
Co647 N656 2.022 . S
Co647 N664 1.993 . S
Co647 O672 1.941 . S
C648 O649 1.258 . S
C648 O650 1.263 . S
O649 Co646 1.970 . S
O649 C648 1.258 . S
O650 Co647 1.966 . S
O650 C648 1.263 . S
C651 O652 1.235 . S
C651 O678 1.289 . S
O652 C651 1.235 . S
C653 C655 1.400 . S
C653 N656 1.351 . S
C653 C658 1.501 . S
C654 C655 1.387 . S
C654 N657 1.341 . S
C655 C653 1.400 . S
C655 C654 1.387 . S
N656 Co647 2.022 . S
N656 C653 1.351 . S
N656 N657 1.365 . S
N657 C654 1.341 . S
N657 N656 1.365 . S
N657 H677 0.862 . S
C658 C653 1.501 . S
C658 H659 0.961 . S
C658 H660 0.961 . S
C658 H661 0.960 . S
H659 C658 0.961 . S
H660 C658 0.961 . S
H661 C658 0.960 . S
C662 N663 1.342 1_655 S
C662 C666 1.401 1_655 S
C662 C667 1.499 . S
N663 Co646 1.989 . S
N663 C662 1.342 1_455 S
N663 N664 1.388 . S
N664 Co647 1.993 . S
N664 N663 1.388 . S
N664 C665 1.346 . S
C665 N664 1.346 . S
C665 C666 1.396 . S
C665 C675 1.510 . S
C666 C662 1.401 1_455 S
C666 C665 1.396 . S
C667 C662 1.499 . S
C667 H668 0.959 . S
C667 H669 0.960 . S
C667 H670 0.961 . S
H668 C667 0.959 . S
H669 C667 0.960 . S
H670 C667 0.961 . S
O671 Co646 1.967 . S
O671 C679 1.258 . S
O672 Co647 1.941 . S
O672 C679 1.266 . S
H673 C675 0.959 . S
H674 C675 0.961 . S
C675 C665 1.510 . S
C675 H673 0.959 . S
C675 H674 0.961 . S
C675 H676 0.960 . S
H676 C675 0.960 . S
H677 N657 0.862 . S
O678 Co646 1.920 1_655 S
O678 C651 1.289 . S
C679 O671 1.258 . S
C679 O672 1.266 . S
Co680 O683 1.970 . S
Co680 N697 1.989 . S
Co680 O705 1.967 . S
Co680 O712 1.920 . S
Co681 O684 1.966 . S
Co681 N690 2.022 . S
Co681 N698 1.993 . S
Co681 O706 1.941 . S
C682 O683 1.258 . S
C682 O684 1.263 . S
O683 Co680 1.970 . S
O683 C682 1.258 . S
O684 Co681 1.966 . S
O684 C682 1.263 . S
C685 O686 1.235 . S
C685 O712 1.289 . S
O686 C685 1.235 . S
C687 C689 1.400 . S
C687 N690 1.351 . S
C687 C692 1.501 . S
C688 C689 1.387 . S
C688 N691 1.341 . S
C689 C687 1.400 . S
C689 C688 1.387 . S
N690 Co681 2.022 . S
N690 C687 1.351 . S
N690 N691 1.365 . S
N691 C688 1.341 . S
N691 N690 1.365 . S
N691 H711 0.862 . S
C692 C687 1.501 . S
C692 H693 0.961 . S
C692 H694 0.961 . S
C692 H695 0.960 . S
H693 C692 0.961 . S
H694 C692 0.961 . S
H695 C692 0.960 . S
C696 N697 1.342 . S
C696 C700 1.401 . S
C696 C701 1.499 . S
N697 Co680 1.989 . S
N697 C696 1.342 . S
N697 N698 1.388 . S
N698 Co681 1.993 . S
N698 N697 1.388 . S
N698 C699 1.346 . S
C699 N698 1.346 . S
C699 C700 1.396 . S
C699 C709 1.510 . S
C700 C696 1.401 . S
C700 C699 1.396 . S
C701 C696 1.499 . S
C701 H702 0.959 . S
C701 H703 0.960 . S
C701 H704 0.961 . S
H702 C701 0.959 . S
H703 C701 0.960 . S
H704 C701 0.961 . S
O705 Co680 1.967 . S
O705 C713 1.258 . S
O706 Co681 1.941 . S
O706 C713 1.266 . S
H707 C709 0.959 . S
H708 C709 0.961 . S
C709 C699 1.510 . S
C709 H707 0.959 . S
C709 H708 0.961 . S
C709 H710 0.960 . S
H710 C709 0.960 . S
H711 N691 0.862 . S
O712 Co680 1.920 . S
O712 C685 1.289 . S
C713 O705 1.258 . S
C713 O706 1.266 . S
Co714 O717 1.970 . S
Co714 N731 1.989 . S
Co714 O739 1.967 . S
Co714 O746 1.920 1_455 S
Co715 O718 1.966 . S
Co715 N724 2.022 . S
Co715 N732 1.993 . S
Co715 O740 1.941 . S
C716 O717 1.258 . S
C716 O718 1.263 . S
O717 Co714 1.970 . S
O717 C716 1.258 . S
O718 Co715 1.966 . S
O718 C716 1.263 . S
C719 O720 1.235 . S
C719 O746 1.289 . S
O720 C719 1.235 . S
C721 C723 1.400 . S
C721 N724 1.351 . S
C721 C726 1.501 . S
C722 C723 1.387 . S
C722 N725 1.341 . S
C723 C721 1.400 . S
C723 C722 1.387 . S
N724 Co715 2.022 . S
N724 C721 1.351 . S
N724 N725 1.365 . S
N725 C722 1.341 . S
N725 N724 1.365 . S
N725 H745 0.862 . S
C726 C721 1.501 . S
C726 H727 0.961 . S
C726 H728 0.961 . S
C726 H729 0.960 . S
H727 C726 0.961 . S
H728 C726 0.961 . S
H729 C726 0.960 . S
C730 N731 1.342 1_655 S
C730 C734 1.401 1_655 S
C730 C735 1.499 . S
N731 Co714 1.989 . S
N731 C730 1.342 1_455 S
N731 N732 1.388 . S
N732 Co715 1.993 . S
N732 N731 1.388 . S
N732 C733 1.346 . S
C733 N732 1.346 . S
C733 C734 1.396 . S
C733 C743 1.510 . S
C734 C730 1.401 1_455 S
C734 C733 1.396 . S
C735 C730 1.499 . S
C735 H736 0.959 . S
C735 H737 0.960 . S
C735 H738 0.961 . S
H736 C735 0.959 . S
H737 C735 0.960 . S
H738 C735 0.961 . S
O739 Co714 1.967 . S
O739 C747 1.258 . S
O740 Co715 1.941 . S
O740 C747 1.266 . S
H741 C743 0.959 . S
H742 C743 0.961 . S
C743 C733 1.510 . S
C743 H741 0.959 . S
C743 H742 0.961 . S
C743 H744 0.960 . S
H744 C743 0.960 . S
H745 N725 0.862 . S
O746 Co714 1.920 1_655 S
O746 C719 1.289 . S
C747 O739 1.258 . S
C747 O740 1.266 . S
Co748 O751 1.970 . S
Co748 N765 1.989 . S
Co748 O773 1.967 . S
Co748 O780 1.920 . S
Co749 O752 1.966 . S
Co749 N758 2.022 . S
Co749 N766 1.993 . S
Co749 O774 1.941 . S
C750 O751 1.258 . S
C750 O752 1.263 . S
O751 Co748 1.970 . S
O751 C750 1.258 . S
O752 Co749 1.966 . S
O752 C750 1.263 . S
C753 O754 1.235 . S
C753 O780 1.289 . S
O754 C753 1.235 . S
C755 C757 1.400 . S
C755 N758 1.351 . S
C755 C760 1.501 . S
C756 C757 1.387 . S
C756 N759 1.341 . S
C757 C755 1.400 . S
C757 C756 1.387 . S
N758 Co749 2.022 . S
N758 C755 1.351 . S
N758 N759 1.365 . S
N759 C756 1.341 . S
N759 N758 1.365 . S
N759 H779 0.862 . S
C760 C755 1.501 . S
C760 H761 0.961 . S
C760 H762 0.961 . S
C760 H763 0.960 . S
H761 C760 0.961 . S
H762 C760 0.961 . S
H763 C760 0.960 . S
C764 N765 1.342 . S
C764 C768 1.401 . S
C764 C769 1.499 . S
N765 Co748 1.989 . S
N765 C764 1.342 . S
N765 N766 1.388 . S
N766 Co749 1.993 . S
N766 N765 1.388 . S
N766 C767 1.346 . S
C767 N766 1.346 . S
C767 C768 1.396 . S
C767 C777 1.510 . S
C768 C764 1.401 . S
C768 C767 1.396 . S
C769 C764 1.499 . S
C769 H770 0.959 . S
C769 H771 0.960 . S
C769 H772 0.961 . S
H770 C769 0.959 . S
H771 C769 0.960 . S
H772 C769 0.961 . S
O773 Co748 1.967 . S
O773 C781 1.258 . S
O774 Co749 1.941 . S
O774 C781 1.266 . S
H775 C777 0.959 . S
H776 C777 0.961 . S
C777 C767 1.510 . S
C777 H775 0.959 . S
C777 H776 0.961 . S
C777 H778 0.960 . S
H778 C777 0.960 . S
H779 N759 0.862 . S
O780 Co748 1.920 . S
O780 C753 1.289 . S
C781 O773 1.258 . S
C781 O774 1.266 . S
Co782 O785 1.970 . S
Co782 N799 1.989 . S
Co782 O807 1.967 . S
Co782 O814 1.920 . S
Co783 O786 1.966 . S
Co783 N792 2.022 . S
Co783 N800 1.993 . S
Co783 O808 1.941 . S
C784 O785 1.258 . S
C784 O786 1.263 . S
O785 Co782 1.970 . S
O785 C784 1.258 . S
O786 Co783 1.966 . S
O786 C784 1.263 . S
C787 O788 1.235 . S
C787 O814 1.289 . S
O788 C787 1.235 . S
C789 C791 1.400 . S
C789 N792 1.351 . S
C789 C794 1.501 . S
C790 C791 1.387 . S
C790 N793 1.341 . S
C791 C789 1.400 . S
C791 C790 1.387 . S
N792 Co783 2.022 . S
N792 C789 1.351 . S
N792 N793 1.365 . S
N793 C790 1.341 . S
N793 N792 1.365 . S
N793 H813 0.862 . S
C794 C789 1.501 . S
C794 H795 0.961 . S
C794 H796 0.961 . S
C794 H797 0.960 . S
H795 C794 0.961 . S
H796 C794 0.961 . S
H797 C794 0.960 . S
C798 N799 1.342 . S
C798 C802 1.401 . S
C798 C803 1.499 . S
N799 Co782 1.989 . S
N799 C798 1.342 . S
N799 N800 1.388 . S
N800 Co783 1.993 . S
N800 N799 1.388 . S
N800 C801 1.346 . S
C801 N800 1.346 . S
C801 C802 1.396 . S
C801 C811 1.510 . S
C802 C798 1.401 . S
C802 C801 1.396 . S
C803 C798 1.499 . S
C803 H804 0.959 . S
C803 H805 0.960 . S
C803 H806 0.961 . S
H804 C803 0.959 . S
H805 C803 0.960 . S
H806 C803 0.961 . S
O807 Co782 1.967 . S
O807 C815 1.258 . S
O808 Co783 1.941 . S
O808 C815 1.266 . S
H809 C811 0.959 . S
H810 C811 0.961 . S
C811 C801 1.510 . S
C811 H809 0.959 . S
C811 H810 0.961 . S
C811 H812 0.960 . S
H812 C811 0.960 . S
H813 N793 0.862 . S
O814 Co782 1.920 . S
O814 C787 1.289 . S
C815 O807 1.258 . S
C815 O808 1.266 . S
Co816 O819 1.970 . S
Co816 N833 1.989 . S
Co816 O841 1.967 . S
Co816 O848 1.920 . S
Co817 O820 1.966 . S
Co817 N826 2.022 . S
Co817 N834 1.993 . S
Co817 O842 1.941 . S
C818 O819 1.258 . S
C818 O820 1.263 . S
O819 Co816 1.970 . S
O819 C818 1.258 . S
O820 Co817 1.966 . S
O820 C818 1.263 . S
C821 O822 1.235 . S
C821 O848 1.289 . S
O822 C821 1.235 . S
C823 C825 1.400 . S
C823 N826 1.351 . S
C823 C828 1.501 . S
C824 C825 1.387 . S
C824 N827 1.341 . S
C825 C823 1.400 . S
C825 C824 1.387 . S
N826 Co817 2.022 . S
N826 C823 1.351 . S
N826 N827 1.365 . S
N827 C824 1.341 . S
N827 N826 1.365 . S
N827 H847 0.862 . S
C828 C823 1.501 . S
C828 H829 0.961 . S
C828 H830 0.961 . S
C828 H831 0.960 . S
H829 C828 0.961 . S
H830 C828 0.961 . S
H831 C828 0.960 . S
C832 N833 1.342 . S
C832 C836 1.401 . S
C832 C837 1.499 . S
N833 Co816 1.989 . S
N833 C832 1.342 . S
N833 N834 1.388 . S
N834 Co817 1.993 . S
N834 N833 1.388 . S
N834 C835 1.346 . S
C835 N834 1.346 . S
C835 C836 1.396 . S
C835 C845 1.510 . S
C836 C832 1.401 . S
C836 C835 1.396 . S
C837 C832 1.499 . S
C837 H838 0.959 . S
C837 H839 0.960 . S
C837 H840 0.961 . S
H838 C837 0.959 . S
H839 C837 0.960 . S
H840 C837 0.961 . S
O841 Co816 1.967 . S
O841 C849 1.258 . S
O842 Co817 1.941 . S
O842 C849 1.266 . S
H843 C845 0.959 . S
H844 C845 0.961 . S
C845 C835 1.510 . S
C845 H843 0.959 . S
C845 H844 0.961 . S
C845 H846 0.960 . S
H846 C845 0.960 . S
H847 N827 0.862 . S
O848 Co816 1.920 . S
O848 C821 1.289 . S
C849 O841 1.258 . S
C849 O842 1.266 . S
Co850 O853 1.970 . S
Co850 N867 1.989 . S
Co850 O875 1.967 . S
Co850 O882 1.920 . S
Co851 O854 1.966 . S
Co851 N860 2.022 . S
Co851 N868 1.993 . S
Co851 O876 1.941 . S
C852 O853 1.258 . S
C852 O854 1.263 . S
O853 Co850 1.970 . S
O853 C852 1.258 . S
O854 Co851 1.966 . S
O854 C852 1.263 . S
C855 O856 1.235 . S
C855 O882 1.289 . S
O856 C855 1.235 . S
C857 C859 1.400 . S
C857 N860 1.351 . S
C857 C862 1.501 . S
C858 C859 1.387 . S
C858 N861 1.341 . S
C859 C857 1.400 . S
C859 C858 1.387 . S
N860 Co851 2.022 . S
N860 C857 1.351 . S
N860 N861 1.365 . S
N861 C858 1.341 . S
N861 N860 1.365 . S
N861 H881 0.862 . S
C862 C857 1.501 . S
C862 H863 0.961 . S
C862 H864 0.961 . S
C862 H865 0.960 . S
H863 C862 0.961 . S
H864 C862 0.961 . S
H865 C862 0.960 . S
C866 N867 1.342 . S
C866 C870 1.401 . S
C866 C871 1.499 . S
N867 Co850 1.989 . S
N867 C866 1.342 . S
N867 N868 1.388 . S
N868 Co851 1.993 . S
N868 N867 1.388 . S
N868 C869 1.346 . S
C869 N868 1.346 . S
C869 C870 1.396 . S
C869 C879 1.510 . S
C870 C866 1.401 . S
C870 C869 1.396 . S
C871 C866 1.499 . S
C871 H872 0.959 . S
C871 H873 0.960 . S
C871 H874 0.961 . S
H872 C871 0.959 . S
H873 C871 0.960 . S
H874 C871 0.961 . S
O875 Co850 1.967 . S
O875 C883 1.258 . S
O876 Co851 1.941 . S
O876 C883 1.266 . S
H877 C879 0.959 . S
H878 C879 0.961 . S
C879 C869 1.510 . S
C879 H877 0.959 . S
C879 H878 0.961 . S
C879 H880 0.960 . S
H880 C879 0.960 . S
H881 N861 0.862 . S
O882 Co850 1.920 . S
O882 C855 1.289 . S
C883 O875 1.258 . S
C883 O876 1.266 . S
Co884 O887 1.970 . S
Co884 N901 1.989 . S
Co884 O909 1.967 . S
Co884 O916 1.920 . S
Co885 O888 1.966 . S
Co885 N894 2.022 . S
Co885 N902 1.993 . S
Co885 O910 1.941 . S
C886 O887 1.258 . S
C886 O888 1.263 . S
O887 Co884 1.970 . S
O887 C886 1.258 . S
O888 Co885 1.966 . S
O888 C886 1.263 . S
C889 O890 1.235 . S
C889 O916 1.289 . S
O890 C889 1.235 . S
C891 C893 1.400 . S
C891 N894 1.351 . S
C891 C896 1.501 . S
C892 C893 1.387 . S
C892 N895 1.341 . S
C893 C891 1.400 . S
C893 C892 1.387 . S
N894 Co885 2.022 . S
N894 C891 1.351 . S
N894 N895 1.365 . S
N895 C892 1.341 . S
N895 N894 1.365 . S
N895 H915 0.862 . S
C896 C891 1.501 . S
C896 H897 0.961 . S
C896 H898 0.961 . S
C896 H899 0.960 . S
H897 C896 0.961 . S
H898 C896 0.961 . S
H899 C896 0.960 . S
C900 N901 1.342 . S
C900 C904 1.401 . S
C900 C905 1.499 . S
N901 Co884 1.989 . S
N901 C900 1.342 . S
N901 N902 1.388 . S
N902 Co885 1.993 . S
N902 N901 1.388 . S
N902 C903 1.346 . S
C903 N902 1.346 . S
C903 C904 1.396 . S
C903 C913 1.510 . S
C904 C900 1.401 . S
C904 C903 1.396 . S
C905 C900 1.499 . S
C905 H906 0.959 . S
C905 H907 0.960 . S
C905 H908 0.961 . S
H906 C905 0.959 . S
H907 C905 0.960 . S
H908 C905 0.961 . S
O909 Co884 1.967 . S
O909 C917 1.258 . S
O910 Co885 1.941 . S
O910 C917 1.266 . S
H911 C913 0.959 . S
H912 C913 0.961 . S
C913 C903 1.510 . S
C913 H911 0.959 . S
C913 H912 0.961 . S
C913 H914 0.960 . S
H914 C913 0.960 . S
H915 N895 0.862 . S
O916 Co884 1.920 . S
O916 C889 1.289 . S
C917 O909 1.258 . S
C917 O910 1.266 . S
Co918 O921 1.970 . S
Co918 N935 1.989 . S
Co918 O943 1.967 . S
Co918 O950 1.920 1_655 S
Co919 O922 1.966 . S
Co919 N928 2.022 . S
Co919 N936 1.993 . S
Co919 O944 1.941 . S
C920 O921 1.258 . S
C920 O922 1.263 . S
O921 Co918 1.970 . S
O921 C920 1.258 . S
O922 Co919 1.966 . S
O922 C920 1.263 . S
C923 O924 1.235 . S
C923 O950 1.289 . S
O924 C923 1.235 . S
C925 C927 1.400 . S
C925 N928 1.351 . S
C925 C930 1.501 . S
C926 C927 1.387 . S
C926 N929 1.341 . S
C927 C925 1.400 . S
C927 C926 1.387 . S
N928 Co919 2.022 . S
N928 C925 1.351 . S
N928 N929 1.365 . S
N929 C926 1.341 . S
N929 N928 1.365 . S
N929 H949 0.862 . S
C930 C925 1.501 . S
C930 H931 0.961 . S
C930 H932 0.961 . S
C930 H933 0.960 . S
H931 C930 0.961 . S
H932 C930 0.961 . S
H933 C930 0.960 . S
C934 N935 1.342 1_455 S
C934 C938 1.401 1_455 S
C934 C939 1.499 . S
N935 Co918 1.989 . S
N935 C934 1.342 1_655 S
N935 N936 1.388 . S
N936 Co919 1.993 . S
N936 N935 1.388 . S
N936 C937 1.346 . S
C937 N936 1.346 . S
C937 C938 1.396 . S
C937 C947 1.510 . S
C938 C934 1.401 1_655 S
C938 C937 1.396 . S
C939 C934 1.499 . S
C939 H940 0.959 . S
C939 H941 0.960 . S
C939 H942 0.961 . S
H940 C939 0.959 . S
H941 C939 0.960 . S
H942 C939 0.961 . S
O943 Co918 1.967 . S
O943 C951 1.258 . S
O944 Co919 1.941 . S
O944 C951 1.266 . S
H945 C947 0.959 . S
H946 C947 0.961 . S
C947 C937 1.510 . S
C947 H945 0.959 . S
C947 H946 0.961 . S
C947 H948 0.960 . S
H948 C947 0.960 . S
H949 N929 0.862 . S
O950 Co918 1.920 1_455 S
O950 C923 1.289 . S
C951 O943 1.258 . S
C951 O944 1.266 . S
Co952 O955 1.970 . S
Co952 N969 1.989 . S
Co952 O977 1.967 . S
Co952 O984 1.920 . S
Co953 O956 1.966 . S
Co953 N962 2.022 . S
Co953 N970 1.993 . S
Co953 O978 1.941 . S
C954 O955 1.258 . S
C954 O956 1.263 . S
O955 Co952 1.970 . S
O955 C954 1.258 . S
O956 Co953 1.966 . S
O956 C954 1.263 . S
C957 O958 1.235 . S
C957 O984 1.289 . S
O958 C957 1.235 . S
C959 C961 1.400 . S
C959 N962 1.351 . S
C959 C964 1.501 . S
C960 C961 1.387 . S
C960 N963 1.341 . S
C961 C959 1.400 . S
C961 C960 1.387 . S
N962 Co953 2.022 . S
N962 C959 1.351 . S
N962 N963 1.365 . S
N963 C960 1.341 . S
N963 N962 1.365 . S
N963 H983 0.862 . S
C964 C959 1.501 . S
C964 H965 0.961 . S
C964 H966 0.961 . S
C964 H967 0.960 . S
H965 C964 0.961 . S
H966 C964 0.961 . S
H967 C964 0.960 . S
C968 N969 1.342 . S
C968 C972 1.401 . S
C968 C973 1.499 . S
N969 Co952 1.989 . S
N969 C968 1.342 . S
N969 N970 1.388 . S
N970 Co953 1.993 . S
N970 N969 1.388 . S
N970 C971 1.346 . S
C971 N970 1.346 . S
C971 C972 1.396 . S
C971 C981 1.510 . S
C972 C968 1.401 . S
C972 C971 1.396 . S
C973 C968 1.499 . S
C973 H974 0.959 . S
C973 H975 0.960 . S
C973 H976 0.961 . S
H974 C973 0.959 . S
H975 C973 0.960 . S
H976 C973 0.961 . S
O977 Co952 1.967 . S
O977 C985 1.258 . S
O978 Co953 1.941 . S
O978 C985 1.266 . S
H979 C981 0.959 . S
H980 C981 0.961 . S
C981 C971 1.510 . S
C981 H979 0.959 . S
C981 H980 0.961 . S
C981 H982 0.960 . S
H982 C981 0.960 . S
H983 N963 0.862 . S
O984 Co952 1.920 . S
O984 C957 1.289 . S
C985 O977 1.258 . S
C985 O978 1.266 . S
Co986 O989 1.970 . S
Co986 N1003 1.989 . S
Co986 O1011 1.967 . S
Co986 O1018 1.920 1_655 S
Co987 O990 1.966 . S
Co987 N996 2.022 . S
Co987 N1004 1.993 . S
Co987 O1012 1.941 . S
C988 O989 1.258 . S
C988 O990 1.263 . S
O989 Co986 1.970 . S
O989 C988 1.258 . S
O990 Co987 1.966 . S
O990 C988 1.263 . S
C991 O992 1.235 . S
C991 O1018 1.289 . S
O992 C991 1.235 . S
C993 C995 1.400 . S
C993 N996 1.351 . S
C993 C998 1.501 . S
C994 C995 1.387 . S
C994 N997 1.341 . S
C995 C993 1.400 . S
C995 C994 1.387 . S
N996 Co987 2.022 . S
N996 C993 1.351 . S
N996 N997 1.365 . S
N997 C994 1.341 . S
N997 N996 1.365 . S
N997 H1017 0.862 . S
C998 C993 1.501 . S
C998 H999 0.961 . S
C998 H1000 0.961 . S
C998 H1001 0.960 . S
H999 C998 0.961 . S
H1000 C998 0.961 . S
H1001 C998 0.960 . S
C1002 N1003 1.342 1_455 S
C1002 C1006 1.401 1_455 S
C1002 C1007 1.499 . S
N1003 Co986 1.989 . S
N1003 C1002 1.342 1_655 S
N1003 N1004 1.388 . S
N1004 Co987 1.993 . S
N1004 N1003 1.388 . S
N1004 C1005 1.346 . S
C1005 N1004 1.346 . S
C1005 C1006 1.396 . S
C1005 C1015 1.510 . S
C1006 C1002 1.401 1_655 S
C1006 C1005 1.396 . S
C1007 C1002 1.499 . S
C1007 H1008 0.959 . S
C1007 H1009 0.960 . S
C1007 H1010 0.961 . S
H1008 C1007 0.959 . S
H1009 C1007 0.960 . S
H1010 C1007 0.961 . S
O1011 Co986 1.967 . S
O1011 C1019 1.258 . S
O1012 Co987 1.941 . S
O1012 C1019 1.266 . S
H1013 C1015 0.959 . S
H1014 C1015 0.961 . S
C1015 C1005 1.510 . S
C1015 H1013 0.959 . S
C1015 H1014 0.961 . S
C1015 H1016 0.960 . S
H1016 C1015 0.960 . S
H1017 N997 0.862 . S
O1018 Co986 1.920 1_455 S
O1018 C991 1.289 . S
C1019 O1011 1.258 . S
C1019 O1012 1.266 . S
Co1020 O1023 1.970 . S
Co1020 N1037 1.989 . S
Co1020 O1045 1.967 . S
Co1020 O1052 1.920 . S
Co1021 O1024 1.966 . S
Co1021 N1030 2.022 . S
Co1021 N1038 1.993 . S
Co1021 O1046 1.941 . S
C1022 O1023 1.258 . S
C1022 O1024 1.263 . S
O1023 Co1020 1.970 . S
O1023 C1022 1.258 . S
O1024 Co1021 1.966 . S
O1024 C1022 1.263 . S
C1025 O1026 1.235 . S
C1025 O1052 1.289 . S
O1026 C1025 1.235 . S
C1027 C1029 1.400 . S
C1027 N1030 1.351 . S
C1027 C1032 1.501 . S
C1028 C1029 1.387 . S
C1028 N1031 1.341 . S
C1029 C1027 1.400 . S
C1029 C1028 1.387 . S
N1030 Co1021 2.022 . S
N1030 C1027 1.351 . S
N1030 N1031 1.365 . S
N1031 C1028 1.341 . S
N1031 N1030 1.365 . S
N1031 H1051 0.862 . S
C1032 C1027 1.501 . S
C1032 H1033 0.961 . S
C1032 H1034 0.961 . S
C1032 H1035 0.960 . S
H1033 C1032 0.961 . S
H1034 C1032 0.961 . S
H1035 C1032 0.960 . S
C1036 N1037 1.342 . S
C1036 C1040 1.401 . S
C1036 C1041 1.499 . S
N1037 Co1020 1.989 . S
N1037 C1036 1.342 . S
N1037 N1038 1.388 . S
N1038 Co1021 1.993 . S
N1038 N1037 1.388 . S
N1038 C1039 1.346 . S
C1039 N1038 1.346 . S
C1039 C1040 1.396 . S
C1039 C1049 1.510 . S
C1040 C1036 1.401 . S
C1040 C1039 1.396 . S
C1041 C1036 1.499 . S
C1041 H1042 0.959 . S
C1041 H1043 0.960 . S
C1041 H1044 0.961 . S
H1042 C1041 0.959 . S
H1043 C1041 0.960 . S
H1044 C1041 0.961 . S
O1045 Co1020 1.967 . S
O1045 C1053 1.258 . S
O1046 Co1021 1.941 . S
O1046 C1053 1.266 . S
H1047 C1049 0.959 . S
H1048 C1049 0.961 . S
C1049 C1039 1.510 . S
C1049 H1047 0.959 . S
C1049 H1048 0.961 . S
C1049 H1050 0.960 . S
H1050 C1049 0.960 . S
H1051 N1031 0.862 . S
O1052 Co1020 1.920 . S
O1052 C1025 1.289 . S
C1053 O1045 1.258 . S
C1053 O1046 1.266 . S
Co1054 O1057 1.970 . S
Co1054 N1071 1.989 . S
Co1054 O1079 1.967 . S
Co1054 O1086 1.920 . S
Co1055 O1058 1.966 . S
Co1055 N1064 2.022 . S
Co1055 N1072 1.993 . S
Co1055 O1080 1.941 . S
C1056 O1057 1.258 . S
C1056 O1058 1.263 . S
O1057 Co1054 1.970 . S
O1057 C1056 1.258 . S
O1058 Co1055 1.966 . S
O1058 C1056 1.263 . S
C1059 O1060 1.235 . S
C1059 O1086 1.289 . S
O1060 C1059 1.235 . S
C1061 C1063 1.400 . S
C1061 N1064 1.351 . S
C1061 C1066 1.501 . S
C1062 C1063 1.387 . S
C1062 N1065 1.341 . S
C1063 C1061 1.400 . S
C1063 C1062 1.387 . S
N1064 Co1055 2.022 . S
N1064 C1061 1.351 . S
N1064 N1065 1.365 . S
N1065 C1062 1.341 . S
N1065 N1064 1.365 . S
N1065 H1085 0.862 . S
C1066 C1061 1.501 . S
C1066 H1067 0.961 . S
C1066 H1068 0.961 . S
C1066 H1069 0.960 . S
H1067 C1066 0.961 . S
H1068 C1066 0.961 . S
H1069 C1066 0.960 . S
C1070 N1071 1.342 . S
C1070 C1074 1.401 . S
C1070 C1075 1.499 . S
N1071 Co1054 1.989 . S
N1071 C1070 1.342 . S
N1071 N1072 1.388 . S
N1072 Co1055 1.993 . S
N1072 N1071 1.388 . S
N1072 C1073 1.346 . S
C1073 N1072 1.346 . S
C1073 C1074 1.396 . S
C1073 C1083 1.510 . S
C1074 C1070 1.401 . S
C1074 C1073 1.396 . S
C1075 C1070 1.499 . S
C1075 H1076 0.959 . S
C1075 H1077 0.960 . S
C1075 H1078 0.961 . S
H1076 C1075 0.959 . S
H1077 C1075 0.960 . S
H1078 C1075 0.961 . S
O1079 Co1054 1.967 . S
O1079 C1087 1.258 . S
O1080 Co1055 1.941 . S
O1080 C1087 1.266 . S
H1081 C1083 0.959 . S
H1082 C1083 0.961 . S
C1083 C1073 1.510 . S
C1083 H1081 0.959 . S
C1083 H1082 0.961 . S
C1083 H1084 0.960 . S
H1084 C1083 0.960 . S
H1085 N1065 0.862 . S
O1086 Co1054 1.920 . S
O1086 C1059 1.289 . S
C1087 O1079 1.258 . S
C1087 O1080 1.266 . S
C1088 C1089 1.387 . S
C1088 H1092 0.950 . S
C1088 C1097 1.390 . S
C1089 C1088 1.387 . S
C1089 C1091 1.387 . S
H1090 C1097 0.950 . S
C1091 C1089 1.387 . S
C1091 C1093 1.390 . S
C1091 H1095 0.950 . S
H1092 C1088 0.950 . S
C1093 C1091 1.390 . S
C1093 C1094 1.387 . S
C1093 H1096 0.950 . S
C1094 C1093 1.387 . S
C1094 C1097 1.387 . S
H1095 C1091 0.950 . S
H1096 C1093 0.950 . S
C1097 C1088 1.390 . S
C1097 H1090 0.950 . S
C1097 C1094 1.387 . S
C1098 C1099 1.387 1_655 S
C1098 H1102 0.950 . S
C1098 C1107 1.390 . S
C1099 C1098 1.387 1_455 S
C1099 C1101 1.387 1_565 S
H1100 C1107 0.950 . S
C1101 C1099 1.387 1_545 S
C1101 C1103 1.390 . S
C1101 H1105 0.950 . S
H1102 C1098 0.950 . S
C1103 C1101 1.390 . S
C1103 C1104 1.387 1_455 S
C1103 H1106 0.950 . S
C1104 C1103 1.387 1_655 S
C1104 C1107 1.387 1_545 S
H1105 C1101 0.950 . S
H1106 C1103 0.950 . S
C1107 C1098 1.390 . S
C1107 H1100 0.950 . S
C1107 C1104 1.387 1_565 S
C1108 C1109 1.387 . S
C1108 H1112 0.950 . S
C1108 C1117 1.390 . S
C1109 C1108 1.387 . S
C1109 C1111 1.387 . S
H1110 C1117 0.950 . S
C1111 C1109 1.387 . S
C1111 C1113 1.390 . S
C1111 H1115 0.950 . S
H1112 C1108 0.950 . S
C1113 C1111 1.390 . S
C1113 C1114 1.387 . S
C1113 H1116 0.950 . S
C1114 C1113 1.387 . S
C1114 C1117 1.387 . S
H1115 C1111 0.950 . S
H1116 C1113 0.950 . S
C1117 C1108 1.390 . S
C1117 H1110 0.950 . S
C1117 C1114 1.387 . S
C1118 C1119 1.387 . S
C1118 H1122 0.950 . S
C1118 C1127 1.390 1_554 S
C1119 C1118 1.387 . S
C1119 C1121 1.387 1_545 S
H1120 C1127 0.950 . S
C1121 C1119 1.387 1_565 S
C1121 C1123 1.390 1_554 S
C1121 H1125 0.950 . S
H1122 C1118 0.950 . S
C1123 C1121 1.390 1_556 S
C1123 C1124 1.387 . S
C1123 H1126 0.950 . S
C1124 C1123 1.387 . S
C1124 C1127 1.387 1_565 S
H1125 C1121 0.950 . S
H1126 C1123 0.950 . S
C1127 C1118 1.390 1_556 S
C1127 H1120 0.950 . S
C1127 C1124 1.387 1_545 S
C1128 C1129 1.387 . S
C1128 H1132 0.950 . S
C1128 C1137 1.390 . S
C1129 C1128 1.387 . S
C1129 C1131 1.387 . S
H1130 C1137 0.950 . S
C1131 C1129 1.387 . S
C1131 C1133 1.390 . S
C1131 H1135 0.950 . S
H1132 C1128 0.950 . S
C1133 C1131 1.390 . S
C1133 C1134 1.387 . S
C1133 H1136 0.950 . S
C1134 C1133 1.387 . S
C1134 C1137 1.387 . S
H1135 C1131 0.950 . S
H1136 C1133 0.950 . S
C1137 C1128 1.390 . S
C1137 H1130 0.950 . S
C1137 C1134 1.387 . S
C1138 C1139 1.387 1_545 S
C1138 H1142 0.950 . S
C1138 C1147 1.390 . S
C1139 C1138 1.387 1_565 S
C1139 C1141 1.387 . S
H1140 C1147 0.950 . S
C1141 C1139 1.387 . S
C1141 C1143 1.390 . S
C1141 H1145 0.950 . S
H1142 C1138 0.950 . S
C1143 C1141 1.390 . S
C1143 C1144 1.387 1_565 S
C1143 H1146 0.950 . S
C1144 C1143 1.387 1_545 S
C1144 C1147 1.387 . S
H1145 C1141 0.950 . S
H1146 C1143 0.950 . S
C1147 C1138 1.390 . S
C1147 H1140 0.950 . S
C1147 C1144 1.387 . S
C1148 C1149 1.387 . S
C1148 H1152 0.950 . S
C1148 C1157 1.390 . S
C1149 C1148 1.387 . S
C1149 C1151 1.387 . S
H1150 C1157 0.950 . S
C1151 C1149 1.387 . S
C1151 C1153 1.390 . S
C1151 H1155 0.950 . S
H1152 C1148 0.950 . S
C1153 C1151 1.390 . S
C1153 C1154 1.387 . S
C1153 H1156 0.950 . S
C1154 C1153 1.387 . S
C1154 C1157 1.387 . S
H1155 C1151 0.950 . S
H1156 C1153 0.950 . S
C1157 C1148 1.390 . S
C1157 H1150 0.950 . S
C1157 C1154 1.387 . S
C1158 C1159 1.387 . S
C1158 H1162 0.950 . S
C1158 C1167 1.390 1_556 S
C1159 C1158 1.387 . S
C1159 C1161 1.387 1_445 S
H1160 C1167 0.950 . S
C1161 C1159 1.387 1_665 S
C1161 C1163 1.390 1_556 S
C1161 H1165 0.950 . S
H1162 C1158 0.950 . S
C1163 C1161 1.390 1_554 S
C1163 C1164 1.387 . S
C1163 H1166 0.950 . S
C1164 C1163 1.387 . S
C1164 C1167 1.387 1_665 S
H1165 C1161 0.950 . S
H1166 C1163 0.950 . S
C1167 C1158 1.390 1_554 S
C1167 H1160 0.950 . S
C1167 C1164 1.387 1_445 S
C1168 C1169 1.387 . S
C1168 H1172 0.950 . S
C1168 C1177 1.390 . S
C1169 C1168 1.387 . S
C1169 C1171 1.387 . S
H1170 C1177 0.950 . S
C1171 C1169 1.387 . S
C1171 C1173 1.390 . S
C1171 H1175 0.950 . S
H1172 C1168 0.950 . S
C1173 C1171 1.390 . S
C1173 C1174 1.387 . S
C1173 H1176 0.950 . S
C1174 C1173 1.387 . S
C1174 C1177 1.387 . S
H1175 C1171 0.950 . S
H1176 C1173 0.950 . S
C1177 C1168 1.390 . S
C1177 H1170 0.950 . S
C1177 C1174 1.387 . S
C1178 C1179 1.387 . S
C1178 H1182 0.950 . S
C1178 C1187 1.390 . S
C1179 C1178 1.387 . S
C1179 C1181 1.387 . S
H1180 C1187 0.950 . S
C1181 C1179 1.387 . S
C1181 C1183 1.390 . S
C1181 H1185 0.950 . S
H1182 C1178 0.950 . S
C1183 C1181 1.390 . S
C1183 C1184 1.387 . S
C1183 H1186 0.950 . S
C1184 C1183 1.387 . S
C1184 C1187 1.387 . S
H1185 C1181 0.950 . S
H1186 C1183 0.950 . S
C1187 C1178 1.390 . S
C1187 H1180 0.950 . S
C1187 C1184 1.387 . S
C1188 C1189 1.387 . S
C1188 H1192 0.950 . S
C1188 C1197 1.390 . S
C1189 C1188 1.387 . S
C1189 C1191 1.387 . S
H1190 C1197 0.950 . S
C1191 C1189 1.387 . S
C1191 C1193 1.390 . S
C1191 H1195 0.950 . S
H1192 C1188 0.950 . S
C1193 C1191 1.390 . S
C1193 C1194 1.387 . S
C1193 H1196 0.950 . S
C1194 C1193 1.387 . S
C1194 C1197 1.387 . S
H1195 C1191 0.950 . S
H1196 C1193 0.950 . S
C1197 C1188 1.390 . S
C1197 H1190 0.950 . S
C1197 C1194 1.387 . S
C1198 C1199 1.387 . S
C1198 H1202 0.950 . S
C1198 C1207 1.390 . S
C1199 C1198 1.387 . S
C1199 C1201 1.387 . S
H1200 C1207 0.950 . S
C1201 C1199 1.387 . S
C1201 C1203 1.390 . S
C1201 H1205 0.950 . S
H1202 C1198 0.950 . S
C1203 C1201 1.390 . S
C1203 C1204 1.387 . S
C1203 H1206 0.950 . S
C1204 C1203 1.387 . S
C1204 C1207 1.387 . S
H1205 C1201 0.950 . S
H1206 C1203 0.950 . S
C1207 C1198 1.390 . S
C1207 H1200 0.950 . S
C1207 C1204 1.387 . S
C1208 C1209 1.387 . S
C1208 H1212 0.950 . S
C1208 C1217 1.390 1_556 S
C1209 C1208 1.387 . S
C1209 C1211 1.387 . S
H1210 C1217 0.950 . S
C1211 C1209 1.387 . S
C1211 C1213 1.390 1_556 S
C1211 H1215 0.950 . S
H1212 C1208 0.950 . S
C1213 C1211 1.390 1_554 S
C1213 C1214 1.387 . S
C1213 H1216 0.950 . S
C1214 C1213 1.387 . S
C1214 C1217 1.387 . S
H1215 C1211 0.950 . S
H1216 C1213 0.950 . S
C1217 C1208 1.390 1_554 S
C1217 H1210 0.950 . S
C1217 C1214 1.387 . S
C1218 C1219 1.387 1_455 S
C1218 H1222 0.950 . S
C1218 C1227 1.390 . S
C1219 C1218 1.387 1_655 S
C1219 C1221 1.387 . S
H1220 C1227 0.950 . S
C1221 C1219 1.387 . S
C1221 C1223 1.390 . S
C1221 H1225 0.950 . S
H1222 C1218 0.950 . S
C1223 C1221 1.390 . S
C1223 C1224 1.387 1_655 S
C1223 H1226 0.950 . S
C1224 C1223 1.387 1_455 S
C1224 C1227 1.387 . S
H1225 C1221 0.950 . S
H1226 C1223 0.950 . S
C1227 C1218 1.390 . S
C1227 H1220 0.950 . S
C1227 C1224 1.387 . S
C1228 C1229 1.387 . S
C1228 H1232 0.950 . S
C1228 C1237 1.390 1_554 S
C1229 C1228 1.387 . S
C1229 C1231 1.387 1_455 S
H1230 C1237 0.950 . S
C1231 C1229 1.387 1_655 S
C1231 C1233 1.390 1_554 S
C1231 H1235 0.950 . S
H1232 C1228 0.950 . S
C1233 C1231 1.390 1_556 S
C1233 C1234 1.387 . S
C1233 H1236 0.950 . S
C1234 C1233 1.387 . S
C1234 C1237 1.387 1_655 S
H1235 C1231 0.950 . S
H1236 C1233 0.950 . S
C1237 C1228 1.390 1_556 S
C1237 H1230 0.950 . S
C1237 C1234 1.387 1_455 S
C1238 C1239 1.387 . S
C1238 H1242 0.950 . S
C1238 C1247 1.390 . S
C1239 C1238 1.387 . S
C1239 C1241 1.387 . S
H1240 C1247 0.950 . S
C1241 C1239 1.387 . S
C1241 C1243 1.390 . S
C1241 H1245 0.950 . S
H1242 C1238 0.950 . S
C1243 C1241 1.390 . S
C1243 C1244 1.387 . S
C1243 H1246 0.950 . S
C1244 C1243 1.387 . S
C1244 C1247 1.387 . S
H1245 C1241 0.950 . S
H1246 C1243 0.950 . S
C1247 C1238 1.390 . S
C1247 H1240 0.950 . S
C1247 C1244 1.387 . S
C1248 C1249 1.387 . S
C1248 H1252 0.950 . S
C1248 C1257 1.390 . S
C1249 C1248 1.387 . S
C1249 C1251 1.387 . S
H1250 C1257 0.950 . S
C1251 C1249 1.387 . S
C1251 C1253 1.390 . S
C1251 H1255 0.950 . S
H1252 C1248 0.950 . S
C1253 C1251 1.390 . S
C1253 C1254 1.387 . S
C1253 H1256 0.950 . S
C1254 C1253 1.387 . S
C1254 C1257 1.387 . S
H1255 C1251 0.950 . S
H1256 C1253 0.950 . S
C1257 C1248 1.390 . S
C1257 H1250 0.950 . S
C1257 C1254 1.387 . S
C1258 C1259 1.387 . S
C1258 H1262 0.950 . S
C1258 C1267 1.390 . S
C1259 C1258 1.387 . S
C1259 C1261 1.387 . S
H1260 C1267 0.950 . S
C1261 C1259 1.387 . S
C1261 C1263 1.390 . S
C1261 H1265 0.950 . S
H1262 C1258 0.950 . S
C1263 C1261 1.390 . S
C1263 C1264 1.387 . S
C1263 H1266 0.950 . S
C1264 C1263 1.387 . S
C1264 C1267 1.387 . S
H1265 C1261 0.950 . S
H1266 C1263 0.950 . S
C1267 C1258 1.390 . S
C1267 H1260 0.950 . S
C1267 C1264 1.387 . S
C1268 C1269 1.387 . S
C1268 H1272 0.950 . S
C1268 C1277 1.390 . S
C1269 C1268 1.387 . S
C1269 C1271 1.387 . S
H1270 C1277 0.950 . S
C1271 C1269 1.387 . S
C1271 C1273 1.390 . S
C1271 H1275 0.950 . S
H1272 C1268 0.950 . S
C1273 C1271 1.390 . S
C1273 C1274 1.387 . S
C1273 H1276 0.950 . S
C1274 C1273 1.387 . S
C1274 C1277 1.387 . S
H1275 C1271 0.950 . S
H1276 C1273 0.950 . S
C1277 C1268 1.390 . S
C1277 H1270 0.950 . S
C1277 C1274 1.387 . S
C1278 C1279 1.387 . S
C1278 H1282 0.950 . S
C1278 C1287 1.390 . S
C1279 C1278 1.387 . S
C1279 C1281 1.387 . S
H1280 C1287 0.950 . S
C1281 C1279 1.387 . S
C1281 C1283 1.390 . S
C1281 H1285 0.950 . S
H1282 C1278 0.950 . S
C1283 C1281 1.390 . S
C1283 C1284 1.387 . S
C1283 H1286 0.950 . S
C1284 C1283 1.387 . S
C1284 C1287 1.387 . S
H1285 C1281 0.950 . S
H1286 C1283 0.950 . S
C1287 C1278 1.390 . S
C1287 H1280 0.950 . S
C1287 C1284 1.387 . S
C1288 C1289 1.387 . S
C1288 H1292 0.950 . S
C1288 C1297 1.390 . S
C1289 C1288 1.387 . S
C1289 C1291 1.387 . S
H1290 C1297 0.950 . S
C1291 C1289 1.387 . S
C1291 C1293 1.390 . S
C1291 H1295 0.950 . S
H1292 C1288 0.950 . S
C1293 C1291 1.390 . S
C1293 C1294 1.387 . S
C1293 H1296 0.950 . S
C1294 C1293 1.387 . S
C1294 C1297 1.387 . S
H1295 C1291 0.950 . S
H1296 C1293 0.950 . S
C1297 C1288 1.390 . S
C1297 H1290 0.950 . S
C1297 C1294 1.387 . S
C1298 C1299 1.387 . S
C1298 H1302 0.950 . S
C1298 C1307 1.390 . S
C1299 C1298 1.387 . S
C1299 C1301 1.387 . S
H1300 C1307 0.950 . S
C1301 C1299 1.387 . S
C1301 C1303 1.390 . S
C1301 H1305 0.950 . S
H1302 C1298 0.950 . S
C1303 C1301 1.390 . S
C1303 C1304 1.387 . S
C1303 H1306 0.950 . S
C1304 C1303 1.387 . S
C1304 C1307 1.387 . S
H1305 C1301 0.950 . S
H1306 C1303 0.950 . S
C1307 C1298 1.390 . S
C1307 H1300 0.950 . S
C1307 C1304 1.387 . S
C1308 C1309 1.387 . S
C1308 H1312 0.950 . S
C1308 C1317 1.390 . S
C1309 C1308 1.387 . S
C1309 C1311 1.387 . S
H1310 C1317 0.950 . S
C1311 C1309 1.387 . S
C1311 C1313 1.390 . S
C1311 H1315 0.950 . S
H1312 C1308 0.950 . S
C1313 C1311 1.390 . S
C1313 C1314 1.387 . S
C1313 H1316 0.950 . S
C1314 C1313 1.387 . S
C1314 C1317 1.387 . S
H1315 C1311 0.950 . S
H1316 C1313 0.950 . S
C1317 C1308 1.390 . S
C1317 H1310 0.950 . S
C1317 C1314 1.387 . S
C1318 C1319 1.387 . S
C1318 H1322 0.950 . S
C1318 C1327 1.390 . S
C1319 C1318 1.387 . S
C1319 C1321 1.387 . S
H1320 C1327 0.950 . S
C1321 C1319 1.387 . S
C1321 C1323 1.390 . S
C1321 H1325 0.950 . S
H1322 C1318 0.950 . S
C1323 C1321 1.390 . S
C1323 C1324 1.387 . S
C1323 H1326 0.950 . S
C1324 C1323 1.387 . S
C1324 C1327 1.387 . S
H1325 C1321 0.950 . S
H1326 C1323 0.950 . S
C1327 C1318 1.390 . S
C1327 H1320 0.950 . S
C1327 C1324 1.387 . S
C1328 C1329 1.387 . S
C1328 H1332 0.950 . S
C1328 C1337 1.390 . S
C1329 C1328 1.387 . S
C1329 C1331 1.387 . S
H1330 C1337 0.950 . S
C1331 C1329 1.387 . S
C1331 C1333 1.390 . S
C1331 H1335 0.950 . S
H1332 C1328 0.950 . S
C1333 C1331 1.390 . S
C1333 C1334 1.387 . S
C1333 H1336 0.950 . S
C1334 C1333 1.387 . S
C1334 C1337 1.387 . S
H1335 C1331 0.950 . S
H1336 C1333 0.950 . S
C1337 C1328 1.390 . S
C1337 H1330 0.950 . S
C1337 C1334 1.387 . S
C1338 C1339 1.387 . S
C1338 H1342 0.950 . S
C1338 C1347 1.390 . S
C1339 C1338 1.387 . S
C1339 C1341 1.387 . S
H1340 C1347 0.950 . S
C1341 C1339 1.387 . S
C1341 C1343 1.390 . S
C1341 H1345 0.950 . S
H1342 C1338 0.950 . S
C1343 C1341 1.390 . S
C1343 C1344 1.387 . S
C1343 H1346 0.950 . S
C1344 C1343 1.387 . S
C1344 C1347 1.387 . S
H1345 C1341 0.950 . S
H1346 C1343 0.950 . S
C1347 C1338 1.390 . S
C1347 H1340 0.950 . S
C1347 C1344 1.387 . S
C1348 C1349 1.387 . S
C1348 H1352 0.950 . S
C1348 C1357 1.390 . S
C1349 C1348 1.387 . S
C1349 C1351 1.387 . S
H1350 C1357 0.950 . S
C1351 C1349 1.387 . S
C1351 C1353 1.390 . S
C1351 H1355 0.950 . S
H1352 C1348 0.950 . S
C1353 C1351 1.390 . S
C1353 C1354 1.387 . S
C1353 H1356 0.950 . S
C1354 C1353 1.387 . S
C1354 C1357 1.387 . S
H1355 C1351 0.950 . S
H1356 C1353 0.950 . S
C1357 C1348 1.390 . S
C1357 H1350 0.950 . S
C1357 C1354 1.387 . S
C1358 C1359 1.387 . S
C1358 H1362 0.950 . S
C1358 C1367 1.390 . S
C1359 C1358 1.387 . S
C1359 C1361 1.387 . S
H1360 C1367 0.950 . S
C1361 C1359 1.387 . S
C1361 C1363 1.390 . S
C1361 H1365 0.950 . S
H1362 C1358 0.950 . S
C1363 C1361 1.390 . S
C1363 C1364 1.387 . S
C1363 H1366 0.950 . S
C1364 C1363 1.387 . S
C1364 C1367 1.387 . S
H1365 C1361 0.950 . S
H1366 C1363 0.950 . S
C1367 C1358 1.390 . S
C1367 H1360 0.950 . S
C1367 C1364 1.387 . S
C1368 C1369 1.387 . S
C1368 H1372 0.950 . S
C1368 C1377 1.390 . S
C1369 C1368 1.387 . S
C1369 C1371 1.387 . S
H1370 C1377 0.950 . S
C1371 C1369 1.387 . S
C1371 C1373 1.390 . S
C1371 H1375 0.950 . S
H1372 C1368 0.950 . S
C1373 C1371 1.390 . S
C1373 C1374 1.387 . S
C1373 H1376 0.950 . S
C1374 C1373 1.387 . S
C1374 C1377 1.387 . S
H1375 C1371 0.950 . S
H1376 C1373 0.950 . S
C1377 C1368 1.390 . S
C1377 H1370 0.950 . S
C1377 C1374 1.387 . S
C1378 C1379 1.387 . S
C1378 H1382 0.950 . S
C1378 C1387 1.390 . S
C1379 C1378 1.387 . S
C1379 C1381 1.387 . S
H1380 C1387 0.950 . S
C1381 C1379 1.387 . S
C1381 C1383 1.390 . S
C1381 H1385 0.950 . S
H1382 C1378 0.950 . S
C1383 C1381 1.390 . S
C1383 C1384 1.387 . S
C1383 H1386 0.950 . S
C1384 C1383 1.387 . S
C1384 C1387 1.387 . S
H1385 C1381 0.950 . S
H1386 C1383 0.950 . S
C1387 C1378 1.390 . S
C1387 H1380 0.950 . S
C1387 C1384 1.387 . S
C1388 C1389 1.387 . S
C1388 H1392 0.950 . S
C1388 C1397 1.390 . S
C1389 C1388 1.387 . S
C1389 C1391 1.387 . S
H1390 C1397 0.950 . S
C1391 C1389 1.387 . S
C1391 C1393 1.390 . S
C1391 H1395 0.950 . S
H1392 C1388 0.950 . S
C1393 C1391 1.390 . S
C1393 C1394 1.387 . S
C1393 H1396 0.950 . S
C1394 C1393 1.387 . S
C1394 C1397 1.387 . S
H1395 C1391 0.950 . S
H1396 C1393 0.950 . S
C1397 C1388 1.390 . S
C1397 H1390 0.950 . S
C1397 C1394 1.387 . S
C1398 C1399 1.387 . S
C1398 H1402 0.950 . S
C1398 C1407 1.390 . S
C1399 C1398 1.387 . S
C1399 C1401 1.387 . S
H1400 C1407 0.950 . S
C1401 C1399 1.387 . S
C1401 C1403 1.390 . S
C1401 H1405 0.950 . S
H1402 C1398 0.950 . S
C1403 C1401 1.390 . S
C1403 C1404 1.387 . S
C1403 H1406 0.950 . S
C1404 C1403 1.387 . S
C1404 C1407 1.387 . S
H1405 C1401 0.950 . S
H1406 C1403 0.950 . S
C1407 C1398 1.390 . S
C1407 H1400 0.950 . S
C1407 C1404 1.387 . S
C1408 C1409 1.387 . S
C1408 H1412 0.950 . S
C1408 C1417 1.390 . S
C1409 C1408 1.387 . S
C1409 C1411 1.387 . S
H1410 C1417 0.950 . S
C1411 C1409 1.387 . S
C1411 C1413 1.390 . S
C1411 H1415 0.950 . S
H1412 C1408 0.950 . S
C1413 C1411 1.390 . S
C1413 C1414 1.387 . S
C1413 H1416 0.950 . S
C1414 C1413 1.387 . S
C1414 C1417 1.387 . S
H1415 C1411 0.950 . S
H1416 C1413 0.950 . S
C1417 C1408 1.390 . S
C1417 H1410 0.950 . S
C1417 C1414 1.387 . S
C1418 C1419 1.387 . S
C1418 H1422 0.950 . S
C1418 C1427 1.390 . S
C1419 C1418 1.387 . S
C1419 C1421 1.387 . S
H1420 C1427 0.950 . S
C1421 C1419 1.387 . S
C1421 C1423 1.390 . S
C1421 H1425 0.950 . S
H1422 C1418 0.950 . S
C1423 C1421 1.390 . S
C1423 C1424 1.387 . S
C1423 H1426 0.950 . S
C1424 C1423 1.387 . S
C1424 C1427 1.387 . S
H1425 C1421 0.950 . S
H1426 C1423 0.950 . S
C1427 C1418 1.390 . S
C1427 H1420 0.950 . S
C1427 C1424 1.387 . S
C1428 C1429 1.387 . S
C1428 H1432 0.950 . S
C1428 C1437 1.390 . S
C1429 C1428 1.387 . S
C1429 C1431 1.387 . S
H1430 C1437 0.950 . S
C1431 C1429 1.387 . S
C1431 C1433 1.390 . S
C1431 H1435 0.950 . S
H1432 C1428 0.950 . S
C1433 C1431 1.390 . S
C1433 C1434 1.387 . S
C1433 H1436 0.950 . S
C1434 C1433 1.387 . S
C1434 C1437 1.387 . S
H1435 C1431 0.950 . S
H1436 C1433 0.950 . S
C1437 C1428 1.390 . S
C1437 H1430 0.950 . S
C1437 C1434 1.387 . S
C1438 C1439 1.387 . S
C1438 H1442 0.950 . S
C1438 C1447 1.390 . S
C1439 C1438 1.387 . S
C1439 C1441 1.387 . S
H1440 C1447 0.950 . S
C1441 C1439 1.387 . S
C1441 C1443 1.390 . S
C1441 H1445 0.950 . S
H1442 C1438 0.950 . S
C1443 C1441 1.390 . S
C1443 C1444 1.387 . S
C1443 H1446 0.950 . S
C1444 C1443 1.387 . S
C1444 C1447 1.387 . S
H1445 C1441 0.950 . S
H1446 C1443 0.950 . S
C1447 C1438 1.390 . S
C1447 H1440 0.950 . S
C1447 C1444 1.387 . S
C1448 C1449 1.387 . S
C1448 H1452 0.950 . S
C1448 C1457 1.390 . S
C1449 C1448 1.387 . S
C1449 C1451 1.387 . S
H1450 C1457 0.950 . S
C1451 C1449 1.387 . S
C1451 C1453 1.390 . S
C1451 H1455 0.950 . S
H1452 C1448 0.950 . S
C1453 C1451 1.390 . S
C1453 C1454 1.387 . S
C1453 H1456 0.950 . S
C1454 C1453 1.387 . S
C1454 C1457 1.387 . S
H1455 C1451 0.950 . S
H1456 C1453 0.950 . S
C1457 C1448 1.390 . S
C1457 H1450 0.950 . S
C1457 C1454 1.387 . S
C1458 C1459 1.387 . S
C1458 H1462 0.950 . S
C1458 C1467 1.390 . S
C1459 C1458 1.387 . S
C1459 C1461 1.387 . S
H1460 C1467 0.950 . S
C1461 C1459 1.387 . S
C1461 C1463 1.390 . S
C1461 H1465 0.950 . S
H1462 C1458 0.950 . S
C1463 C1461 1.390 . S
C1463 C1464 1.387 . S
C1463 H1466 0.950 . S
C1464 C1463 1.387 . S
C1464 C1467 1.387 . S
H1465 C1461 0.950 . S
H1466 C1463 0.950 . S
C1467 C1458 1.390 . S
C1467 H1460 0.950 . S
C1467 C1464 1.387 . S
C1468 C1469 1.387 . S
C1468 H1472 0.950 . S
C1468 C1477 1.390 . S
C1469 C1468 1.387 . S
C1469 C1471 1.387 . S
H1470 C1477 0.950 . S
C1471 C1469 1.387 . S
C1471 C1473 1.390 . S
C1471 H1475 0.950 . S
H1472 C1468 0.950 . S
C1473 C1471 1.390 . S
C1473 C1474 1.387 . S
C1473 H1476 0.950 . S
C1474 C1473 1.387 . S
C1474 C1477 1.387 . S
H1475 C1471 0.950 . S
H1476 C1473 0.950 . S
C1477 C1468 1.390 . S
C1477 H1470 0.950 . S
C1477 C1474 1.387 . S
C1478 C1479 1.387 . S
C1478 H1482 0.950 . S
C1478 C1487 1.390 . S
C1479 C1478 1.387 . S
C1479 C1481 1.387 . S
H1480 C1487 0.950 . S
C1481 C1479 1.387 . S
C1481 C1483 1.390 . S
C1481 H1485 0.950 . S
H1482 C1478 0.950 . S
C1483 C1481 1.390 . S
C1483 C1484 1.387 . S
C1483 H1486 0.950 . S
C1484 C1483 1.387 . S
C1484 C1487 1.387 . S
H1485 C1481 0.950 . S
H1486 C1483 0.950 . S
C1487 C1478 1.390 . S
C1487 H1480 0.950 . S
C1487 C1484 1.387 . S
C1488 C1489 1.387 . S
C1488 H1492 0.950 . S
C1488 C1497 1.390 . S
C1489 C1488 1.387 . S
C1489 C1491 1.387 . S
H1490 C1497 0.950 . S
C1491 C1489 1.387 . S
C1491 C1493 1.390 . S
C1491 H1495 0.950 . S
H1492 C1488 0.950 . S
C1493 C1491 1.390 . S
C1493 C1494 1.387 . S
C1493 H1496 0.950 . S
C1494 C1493 1.387 . S
C1494 C1497 1.387 . S
H1495 C1491 0.950 . S
H1496 C1493 0.950 . S
C1497 C1488 1.390 . S
C1497 H1490 0.950 . S
C1497 C1494 1.387 . S
C1498 C1499 1.387 . S
C1498 H1502 0.950 . S
C1498 C1507 1.390 . S
C1499 C1498 1.387 . S
C1499 C1501 1.387 . S
H1500 C1507 0.950 . S
C1501 C1499 1.387 . S
C1501 C1503 1.390 . S
C1501 H1505 0.950 . S
H1502 C1498 0.950 . S
C1503 C1501 1.390 . S
C1503 C1504 1.387 . S
C1503 H1506 0.950 . S
C1504 C1503 1.387 . S
C1504 C1507 1.387 . S
H1505 C1501 0.950 . S
H1506 C1503 0.950 . S
C1507 C1498 1.390 . S
C1507 H1500 0.950 . S
C1507 C1504 1.387 . S
C1508 C1509 1.387 . S
C1508 H1512 0.950 . S
C1508 C1517 1.390 . S
C1509 C1508 1.387 . S
C1509 C1511 1.387 . S
H1510 C1517 0.950 . S
C1511 C1509 1.387 . S
C1511 C1513 1.390 . S
C1511 H1515 0.950 . S
H1512 C1508 0.950 . S
C1513 C1511 1.390 . S
C1513 C1514 1.387 . S
C1513 H1516 0.950 . S
C1514 C1513 1.387 . S
C1514 C1517 1.387 . S
H1515 C1511 0.950 . S
H1516 C1513 0.950 . S
C1517 C1508 1.390 . S
C1517 H1510 0.950 . S
C1517 C1514 1.387 . S
C1518 C1519 1.387 . S
C1518 H1522 0.950 . S
C1518 C1527 1.390 . S
C1519 C1518 1.387 . S
C1519 C1521 1.387 . S
H1520 C1527 0.950 . S
C1521 C1519 1.387 . S
C1521 C1523 1.390 . S
C1521 H1525 0.950 . S
H1522 C1518 0.950 . S
C1523 C1521 1.390 . S
C1523 C1524 1.387 . S
C1523 H1526 0.950 . S
C1524 C1523 1.387 . S
C1524 C1527 1.387 . S
H1525 C1521 0.950 . S
H1526 C1523 0.950 . S
C1527 C1518 1.390 . S
C1527 H1520 0.950 . S
C1527 C1524 1.387 . S
C1528 C1529 1.387 . S
C1528 H1532 0.950 . S
C1528 C1537 1.390 . S
C1529 C1528 1.387 . S
C1529 C1531 1.387 . S
H1530 C1537 0.950 . S
C1531 C1529 1.387 . S
C1531 C1533 1.390 . S
C1531 H1535 0.950 . S
H1532 C1528 0.950 . S
C1533 C1531 1.390 . S
C1533 C1534 1.387 . S
C1533 H1536 0.950 . S
C1534 C1533 1.387 . S
C1534 C1537 1.387 . S
H1535 C1531 0.950 . S
H1536 C1533 0.950 . S
C1537 C1528 1.390 . S
C1537 H1530 0.950 . S
C1537 C1534 1.387 . S
C1538 C1539 1.387 . S
C1538 H1542 0.950 . S
C1538 C1547 1.390 . S
C1539 C1538 1.387 . S
C1539 C1541 1.387 . S
H1540 C1547 0.950 . S
C1541 C1539 1.387 . S
C1541 C1543 1.390 . S
C1541 H1545 0.950 . S
H1542 C1538 0.950 . S
C1543 C1541 1.390 . S
C1543 C1544 1.387 . S
C1543 H1546 0.950 . S
C1544 C1543 1.387 . S
C1544 C1547 1.387 . S
H1545 C1541 0.950 . S
H1546 C1543 0.950 . S
C1547 C1538 1.390 . S
C1547 H1540 0.950 . S
C1547 C1544 1.387 . S
C1548 C1549 1.387 . S
C1548 H1552 0.950 . S
C1548 C1557 1.390 . S
C1549 C1548 1.387 . S
C1549 C1551 1.387 . S
H1550 C1557 0.950 . S
C1551 C1549 1.387 . S
C1551 C1553 1.390 . S
C1551 H1555 0.950 . S
H1552 C1548 0.950 . S
C1553 C1551 1.390 . S
C1553 C1554 1.387 . S
C1553 H1556 0.950 . S
C1554 C1553 1.387 . S
C1554 C1557 1.387 . S
H1555 C1551 0.950 . S
H1556 C1553 0.950 . S
C1557 C1548 1.390 . S
C1557 H1550 0.950 . S
C1557 C1554 1.387 . S
C1558 C1559 1.387 . S
C1558 H1562 0.950 . S
C1558 C1567 1.390 . S
C1559 C1558 1.387 . S
C1559 C1561 1.387 . S
H1560 C1567 0.950 . S
C1561 C1559 1.387 . S
C1561 C1563 1.390 . S
C1561 H1565 0.950 . S
H1562 C1558 0.950 . S
C1563 C1561 1.390 . S
C1563 C1564 1.387 . S
C1563 H1566 0.950 . S
C1564 C1563 1.387 . S
C1564 C1567 1.387 . S
H1565 C1561 0.950 . S
H1566 C1563 0.950 . S
C1567 C1558 1.390 . S
C1567 H1560 0.950 . S
C1567 C1564 1.387 . S
C1568 C1569 1.387 . S
C1568 H1572 0.950 . S
C1568 C1577 1.390 1_554 S
C1569 C1568 1.387 . S
C1569 C1571 1.387 . S
H1570 C1577 0.950 . S
C1571 C1569 1.387 . S
C1571 C1573 1.390 1_554 S
C1571 H1575 0.950 . S
H1572 C1568 0.950 . S
C1573 C1571 1.390 1_556 S
C1573 C1574 1.387 . S
C1573 H1576 0.950 . S
C1574 C1573 1.387 . S
C1574 C1577 1.387 . S
H1575 C1571 0.950 . S
H1576 C1573 0.950 . S
C1577 C1568 1.390 1_556 S
C1577 H1570 0.950 . S
C1577 C1574 1.387 . S
C1578 C1579 1.416 . S
C1578 H1582 0.921 1_655 S
C1578 C1587 1.390 1_565 S
C1579 C1578 1.416 . S
C1579 C1581 1.387 . S
H1580 C1587 0.921 1_455 S
C1581 C1579 1.387 . S
C1581 C1583 1.390 1_565 S
C1581 H1585 0.950 . S
H1582 C1578 0.921 1_455 S
C1583 C1581 1.390 1_545 S
C1583 C1584 1.387 . S
C1583 H1586 0.950 . S
C1584 C1583 1.387 . S
C1584 C1587 1.416 . S
H1585 C1581 0.950 . S
H1586 C1583 0.950 . S
C1587 C1578 1.390 1_545 S
C1587 H1580 0.921 1_655 S
C1587 C1584 1.416 . S
C1588 C1589 1.387 . S
C1588 H1592 0.950 . S
C1588 C1597 1.390 . S
C1589 C1588 1.387 . S
C1589 C1591 1.387 . S
H1590 C1597 0.950 . S
C1591 C1589 1.387 . S
C1591 C1593 1.390 . S
C1591 H1595 0.950 . S
H1592 C1588 0.950 . S
C1593 C1591 1.390 . S
C1593 C1594 1.387 . S
C1593 H1596 0.950 . S
C1594 C1593 1.387 . S
C1594 C1597 1.387 . S
H1595 C1591 0.950 . S
H1596 C1593 0.950 . S
C1597 C1588 1.390 . S
C1597 H1590 0.950 . S
C1597 C1594 1.387 . S
C1598 C1599 1.387 . S
C1598 H1602 0.950 . S
C1598 C1607 1.390 1_565 S
C1599 C1598 1.387 . S
C1599 C1601 1.387 . S
H1600 C1607 0.950 . S
C1601 C1599 1.387 . S
C1601 C1603 1.390 1_565 S
C1601 H1605 0.950 . S
H1602 C1598 0.950 . S
C1603 C1601 1.390 1_545 S
C1603 C1604 1.387 . S
C1603 H1606 0.950 . S
C1604 C1603 1.387 . S
C1604 C1607 1.387 . S
H1605 C1601 0.950 . S
H1606 C1603 0.950 . S
C1607 C1598 1.390 1_545 S
C1607 H1600 0.950 . S
C1607 C1604 1.387 . S
C1608 C1609 1.387 . S
C1608 H1612 0.950 . S
C1608 C1617 1.390 1_554 S
C1609 C1608 1.387 . S
C1609 C1611 1.387 . S
H1610 C1617 0.950 . S
C1611 C1609 1.387 . S
C1611 C1613 1.390 1_554 S
C1611 H1615 0.950 . S
H1612 C1608 0.950 . S
C1613 C1611 1.390 1_556 S
C1613 C1614 1.387 . S
C1613 H1616 0.950 . S
C1614 C1613 1.387 . S
C1614 C1617 1.387 . S
H1615 C1611 0.950 . S
H1616 C1613 0.950 . S
C1617 C1608 1.390 1_556 S
C1617 H1610 0.950 . S
C1617 C1614 1.387 . S
C1618 C1619 1.387 . S
C1618 H1622 0.950 . S
C1618 C1627 1.390 1_545 S
C1619 C1618 1.387 . S
C1619 C1621 1.416 . S
H1620 C1627 0.950 . S
C1621 C1619 1.416 . S
C1621 C1623 1.390 1_545 S
C1621 H1625 0.921 1_455 S
H1622 C1618 0.950 . S
C1623 C1621 1.390 1_565 S
C1623 C1624 1.416 . S
C1623 H1626 0.921 1_455 S
C1624 C1623 1.416 . S
C1624 C1627 1.387 . S
H1625 C1621 0.921 1_655 S
H1626 C1623 0.921 1_655 S
C1627 C1618 1.390 1_565 S
C1627 H1620 0.950 . S
C1627 C1624 1.387 . S
C1628 C1629 1.387 . S
C1628 H1632 0.950 . S
C1628 C1637 1.390 . S
C1629 C1628 1.387 . S
C1629 C1631 1.387 . S
H1630 C1637 0.950 . S
C1631 C1629 1.387 . S
C1631 C1633 1.390 . S
C1631 H1635 0.950 . S
H1632 C1628 0.950 . S
C1633 C1631 1.390 . S
C1633 C1634 1.387 . S
C1633 H1636 0.950 . S
C1634 C1633 1.387 . S
C1634 C1637 1.387 . S
H1635 C1631 0.950 . S
H1636 C1633 0.950 . S
C1637 C1628 1.390 . S
C1637 H1630 0.950 . S
C1637 C1634 1.387 . S
C1638 C1639 1.387 . S
C1638 H1642 0.950 . S
C1638 C1647 1.390 1_565 S
C1639 C1638 1.387 . S
C1639 C1641 1.387 . S
H1640 C1647 0.950 . S
C1641 C1639 1.387 . S
C1641 C1643 1.390 1_565 S
C1641 H1645 0.950 . S
H1642 C1638 0.950 . S
C1643 C1641 1.390 1_545 S
C1643 C1644 1.387 . S
C1643 H1646 0.950 . S
C1644 C1643 1.387 . S
C1644 C1647 1.387 . S
H1645 C1641 0.950 . S
H1646 C1643 0.950 . S
C1647 C1638 1.390 1_545 S
C1647 H1640 0.950 . S
C1647 C1644 1.387 . S
C1648 C1649 1.387 . S
C1648 H1652 0.950 . S
C1648 C1657 1.390 . S
C1649 C1648 1.387 . S
C1649 C1651 1.387 . S
H1650 C1657 0.950 . S
C1651 C1649 1.387 . S
C1651 C1653 1.390 . S
C1651 H1655 0.950 . S
H1652 C1648 0.950 . S
C1653 C1651 1.390 . S
C1653 C1654 1.387 . S
C1653 H1656 0.950 . S
C1654 C1653 1.387 . S
C1654 C1657 1.387 . S
H1655 C1651 0.950 . S
H1656 C1653 0.950 . S
C1657 C1648 1.390 . S
C1657 H1650 0.950 . S
C1657 C1654 1.387 . S
C1658 C1659 1.387 . S
C1658 H1662 0.950 . S
C1658 C1667 1.390 . S
C1659 C1658 1.387 . S
C1659 C1661 1.387 . S
H1660 C1667 0.950 . S
C1661 C1659 1.387 . S
C1661 C1663 1.390 . S
C1661 H1665 0.950 . S
H1662 C1658 0.950 . S
C1663 C1661 1.390 . S
C1663 C1664 1.387 . S
C1663 H1666 0.950 . S
C1664 C1663 1.387 . S
C1664 C1667 1.387 . S
H1665 C1661 0.950 . S
H1666 C1663 0.950 . S
C1667 C1658 1.390 . S
C1667 H1660 0.950 . S
C1667 C1664 1.387 . S
C1668 C1669 1.387 . S
C1668 H1672 0.950 . S
C1668 C1677 1.390 1_554 S
C1669 C1668 1.387 . S
C1669 C1671 1.387 . S
H1670 C1677 0.950 . S
C1671 C1669 1.387 . S
C1671 C1673 1.390 1_554 S
C1671 H1675 0.950 . S
H1672 C1668 0.950 . S
C1673 C1671 1.390 1_556 S
C1673 C1674 1.387 . S
C1673 H1676 0.950 . S
C1674 C1673 1.387 . S
C1674 C1677 1.387 . S
H1675 C1671 0.950 . S
H1676 C1673 0.950 . S
C1677 C1668 1.390 1_556 S
C1677 H1670 0.950 . S
C1677 C1674 1.387 . S
C1678 C1679 1.416 . S
C1678 H1682 0.922 1_455 S
C1678 C1687 1.390 . S
C1679 C1678 1.416 . S
C1679 C1681 1.387 . S
H1680 C1687 0.922 1_655 S
C1681 C1679 1.387 . S
C1681 C1683 1.390 . S
C1681 H1685 0.950 . S
H1682 C1678 0.922 1_655 S
C1683 C1681 1.390 . S
C1683 C1684 1.387 . S
C1683 H1686 0.950 . S
C1684 C1683 1.387 . S
C1684 C1687 1.416 . S
H1685 C1681 0.950 . S
H1686 C1683 0.950 . S
C1687 C1678 1.390 . S
C1687 H1680 0.922 1_455 S
C1687 C1684 1.416 . S
C1688 C1689 1.387 . S
C1688 H1692 0.950 . S
C1688 C1697 1.390 . S
C1689 C1688 1.387 . S
C1689 C1691 1.387 . S
H1690 C1697 0.950 . S
C1691 C1689 1.387 . S
C1691 C1693 1.390 . S
C1691 H1695 0.950 . S
H1692 C1688 0.950 . S
C1693 C1691 1.390 . S
C1693 C1694 1.387 . S
C1693 H1696 0.950 . S
C1694 C1693 1.387 . S
C1694 C1697 1.387 . S
H1695 C1691 0.950 . S
H1696 C1693 0.950 . S
C1697 C1688 1.390 . S
C1697 H1690 0.950 . S
C1697 C1694 1.387 . S
C1698 C1699 1.387 . S
C1698 H1702 0.950 . S
C1698 C1707 1.390 . S
C1699 C1698 1.387 . S
C1699 C1701 1.387 . S
H1700 C1707 0.950 . S
C1701 C1699 1.387 . S
C1701 C1703 1.390 . S
C1701 H1705 0.950 . S
H1702 C1698 0.950 . S
C1703 C1701 1.390 . S
C1703 C1704 1.387 . S
C1703 H1706 0.950 . S
C1704 C1703 1.387 . S
C1704 C1707 1.387 . S
H1705 C1701 0.950 . S
H1706 C1703 0.950 . S
C1707 C1698 1.390 . S
C1707 H1700 0.950 . S
C1707 C1704 1.387 . S
C1708 C1709 1.387 . S
C1708 H1712 0.950 . S
C1708 C1717 1.390 1_556 S
C1709 C1708 1.387 . S
C1709 C1711 1.387 . S
H1710 C1717 0.950 . S
C1711 C1709 1.387 . S
C1711 C1713 1.390 1_556 S
C1711 H1715 0.950 . S
H1712 C1708 0.950 . S
C1713 C1711 1.390 1_554 S
C1713 C1714 1.387 . S
C1713 H1716 0.950 . S
C1714 C1713 1.387 . S
C1714 C1717 1.387 . S
H1715 C1711 0.950 . S
H1716 C1713 0.950 . S
C1717 C1708 1.390 1_554 S
C1717 H1710 0.950 . S
C1717 C1714 1.387 . S
C1718 C1719 1.416 . S
C1718 H1722 0.922 1_655 S
C1718 C1727 1.390 . S
C1719 C1718 1.416 . S
C1719 C1721 1.387 . S
H1720 C1727 0.922 1_455 S
C1721 C1719 1.387 . S
C1721 C1723 1.390 . S
C1721 H1725 0.950 . S
H1722 C1718 0.922 1_455 S
C1723 C1721 1.390 . S
C1723 C1724 1.387 . S
C1723 H1726 0.950 . S
C1724 C1723 1.387 . S
C1724 C1727 1.416 . S
H1725 C1721 0.950 . S
H1726 C1723 0.950 . S
C1727 C1718 1.390 . S
C1727 H1720 0.922 1_655 S
C1727 C1724 1.416 . S
C1728 C1729 1.387 . S
C1728 H1732 0.950 . S
C1728 C1737 1.390 . S
C1729 C1728 1.387 . S
C1729 C1731 1.387 . S
H1730 C1737 0.950 . S
C1731 C1729 1.387 . S
C1731 C1733 1.390 . S
C1731 H1735 0.950 . S
H1732 C1728 0.950 . S
C1733 C1731 1.390 . S
C1733 C1734 1.387 . S
C1733 H1736 0.950 . S
C1734 C1733 1.387 . S
C1734 C1737 1.387 . S
H1735 C1731 0.950 . S
H1736 C1733 0.950 . S
C1737 C1728 1.390 . S
C1737 H1730 0.950 . S
C1737 C1734 1.387 . S
C1738 C1739 1.387 . S
C1738 H1742 0.950 . S
C1738 C1747 1.390 . S
C1739 C1738 1.387 . S
C1739 C1741 1.387 . S
H1740 C1747 0.950 . S
C1741 C1739 1.387 . S
C1741 C1743 1.390 . S
C1741 H1745 0.950 . S
H1742 C1738 0.950 . S
C1743 C1741 1.390 . S
C1743 C1744 1.387 . S
C1743 H1746 0.950 . S
C1744 C1743 1.387 . S
C1744 C1747 1.387 . S
H1745 C1741 0.950 . S
H1746 C1743 0.950 . S
C1747 C1738 1.390 . S
C1747 H1740 0.950 . S
C1747 C1744 1.387 . S
C1748 C1749 1.387 . S
C1748 H1752 0.950 . S
C1748 C1757 1.390 . S
C1749 C1748 1.387 . S
C1749 C1751 1.387 . S
H1750 C1757 0.950 . S
C1751 C1749 1.387 . S
C1751 C1753 1.390 . S
C1751 H1755 0.950 . S
H1752 C1748 0.950 . S
C1753 C1751 1.390 . S
C1753 C1754 1.387 . S
C1753 H1756 0.950 . S
C1754 C1753 1.387 . S
C1754 C1757 1.387 . S
H1755 C1751 0.950 . S
H1756 C1753 0.950 . S
C1757 C1748 1.390 . S
C1757 H1750 0.950 . S
C1757 C1754 1.387 . S
C1758 C1759 1.387 . S
C1758 H1762 0.950 . S
C1758 C1767 1.390 . S
C1759 C1758 1.387 . S
C1759 C1761 1.387 . S
H1760 C1767 0.950 . S
C1761 C1759 1.387 . S
C1761 C1763 1.390 . S
C1761 H1765 0.950 . S
H1762 C1758 0.950 . S
C1763 C1761 1.390 . S
C1763 C1764 1.387 . S
C1763 H1766 0.950 . S
C1764 C1763 1.387 . S
C1764 C1767 1.387 . S
H1765 C1761 0.950 . S
H1766 C1763 0.950 . S
C1767 C1758 1.390 . S
C1767 H1760 0.950 . S
C1767 C1764 1.387 . S
C1768 C1769 1.387 . S
C1768 H1772 0.950 . S
C1768 C1777 1.390 . S
C1769 C1768 1.387 . S
C1769 C1771 1.387 . S
H1770 C1777 0.950 . S
C1771 C1769 1.387 . S
C1771 C1773 1.390 . S
C1771 H1775 0.950 . S
H1772 C1768 0.950 . S
C1773 C1771 1.390 . S
C1773 C1774 1.387 . S
C1773 H1776 0.950 . S
C1774 C1773 1.387 . S
C1774 C1777 1.387 . S
H1775 C1771 0.950 . S
H1776 C1773 0.950 . S
C1777 C1768 1.390 . S
C1777 H1770 0.950 . S
C1777 C1774 1.387 . S
C1778 C1779 1.387 . S
C1778 H1782 0.950 . S
C1778 C1787 1.390 . S
C1779 C1778 1.387 . S
C1779 C1781 1.387 . S
H1780 C1787 0.950 . S
C1781 C1779 1.387 . S
C1781 C1783 1.390 . S
C1781 H1785 0.950 . S
H1782 C1778 0.950 . S
C1783 C1781 1.390 . S
C1783 C1784 1.387 . S
C1783 H1786 0.950 . S
C1784 C1783 1.387 . S
C1784 C1787 1.387 . S
H1785 C1781 0.950 . S
H1786 C1783 0.950 . S
C1787 C1778 1.390 . S
C1787 H1780 0.950 . S
C1787 C1784 1.387 . S
C1788 C1789 1.387 . S
C1788 H1792 0.950 . S
C1788 C1797 1.390 . S
C1789 C1788 1.387 . S
C1789 C1791 1.387 . S
H1790 C1797 0.950 . S
C1791 C1789 1.387 . S
C1791 C1793 1.390 . S
C1791 H1795 0.950 . S
H1792 C1788 0.950 . S
C1793 C1791 1.390 . S
C1793 C1794 1.387 . S
C1793 H1796 0.950 . S
C1794 C1793 1.387 . S
C1794 C1797 1.387 . S
H1795 C1791 0.950 . S
H1796 C1793 0.950 . S
C1797 C1788 1.390 . S
C1797 H1790 0.950 . S
C1797 C1794 1.387 . S
C1798 C1799 1.387 . S
C1798 H1802 0.950 . S
C1798 C1807 1.390 . S
C1799 C1798 1.387 . S
C1799 C1801 1.387 . S
H1800 C1807 0.950 . S
C1801 C1799 1.387 . S
C1801 C1803 1.390 . S
C1801 H1805 0.950 . S
H1802 C1798 0.950 . S
C1803 C1801 1.390 . S
C1803 C1804 1.387 . S
C1803 H1806 0.950 . S
C1804 C1803 1.387 . S
C1804 C1807 1.387 . S
H1805 C1801 0.950 . S
H1806 C1803 0.950 . S
C1807 C1798 1.390 . S
C1807 H1800 0.950 . S
C1807 C1804 1.387 . S
C1808 C1809 1.387 . S
C1808 H1812 0.950 . S
C1808 C1817 1.390 . S
C1809 C1808 1.387 . S
C1809 C1811 1.387 . S
H1810 C1817 0.950 . S
C1811 C1809 1.387 . S
C1811 C1813 1.390 . S
C1811 H1815 0.950 . S
H1812 C1808 0.950 . S
C1813 C1811 1.390 . S
C1813 C1814 1.387 . S
C1813 H1816 0.950 . S
C1814 C1813 1.387 . S
C1814 C1817 1.387 . S
H1815 C1811 0.950 . S
H1816 C1813 0.950 . S
C1817 C1808 1.390 . S
C1817 H1810 0.950 . S
C1817 C1814 1.387 . S
C1818 C1819 1.387 . S
C1818 H1822 0.950 . S
C1818 C1827 1.390 . S
C1819 C1818 1.387 . S
C1819 C1821 1.387 . S
H1820 C1827 0.950 . S
C1821 C1819 1.387 . S
C1821 C1823 1.390 . S
C1821 H1825 0.950 . S
H1822 C1818 0.950 . S
C1823 C1821 1.390 . S
C1823 C1824 1.387 . S
C1823 H1826 0.950 . S
C1824 C1823 1.387 . S
C1824 C1827 1.387 . S
H1825 C1821 0.950 . S
H1826 C1823 0.950 . S
C1827 C1818 1.390 . S
C1827 H1820 0.950 . S
C1827 C1824 1.387 . S
C1828 C1829 1.387 . S
C1828 H1832 0.950 . S
C1828 C1837 1.390 . S
C1829 C1828 1.387 . S
C1829 C1831 1.387 . S
H1830 C1837 0.950 . S
C1831 C1829 1.387 . S
C1831 C1833 1.390 . S
C1831 H1835 0.950 . S
H1832 C1828 0.950 . S
C1833 C1831 1.390 . S
C1833 C1834 1.387 . S
C1833 H1836 0.950 . S
C1834 C1833 1.387 . S
C1834 C1837 1.387 . S
H1835 C1831 0.950 . S
H1836 C1833 0.950 . S
C1837 C1828 1.390 . S
C1837 H1830 0.950 . S
C1837 C1834 1.387 . S
C1838 C1839 1.387 . S
C1838 H1842 0.950 . S
C1838 C1847 1.390 . S
C1839 C1838 1.387 . S
C1839 C1841 1.387 . S
H1840 C1847 0.950 . S
C1841 C1839 1.387 . S
C1841 C1843 1.390 . S
C1841 H1845 0.950 . S
H1842 C1838 0.950 . S
C1843 C1841 1.390 . S
C1843 C1844 1.387 . S
C1843 H1846 0.950 . S
C1844 C1843 1.387 . S
C1844 C1847 1.387 . S
H1845 C1841 0.950 . S
H1846 C1843 0.950 . S
C1847 C1838 1.390 . S
C1847 H1840 0.950 . S
C1847 C1844 1.387 . S
C1848 C1849 1.387 . S
C1848 H1852 0.950 . S
C1848 C1857 1.390 . S
C1849 C1848 1.387 . S
C1849 C1851 1.387 . S
H1850 C1857 0.950 . S
C1851 C1849 1.387 . S
C1851 C1853 1.390 . S
C1851 H1855 0.950 . S
H1852 C1848 0.950 . S
C1853 C1851 1.390 . S
C1853 C1854 1.387 . S
C1853 H1856 0.950 . S
C1854 C1853 1.387 . S
C1854 C1857 1.387 . S
H1855 C1851 0.950 . S
H1856 C1853 0.950 . S
C1857 C1848 1.390 . S
C1857 H1850 0.950 . S
C1857 C1854 1.387 . S
C1858 C1859 1.387 . S
C1858 H1862 0.950 . S
C1858 C1867 1.390 . S
C1859 C1858 1.387 . S
C1859 C1861 1.387 . S
H1860 C1867 0.950 . S
C1861 C1859 1.387 . S
C1861 C1863 1.390 . S
C1861 H1865 0.950 . S
H1862 C1858 0.950 . S
C1863 C1861 1.390 . S
C1863 C1864 1.387 . S
C1863 H1866 0.950 . S
C1864 C1863 1.387 . S
C1864 C1867 1.387 . S
H1865 C1861 0.950 . S
H1866 C1863 0.950 . S
C1867 C1858 1.390 . S
C1867 H1860 0.950 . S
C1867 C1864 1.387 . S
C1868 C1869 1.387 . S
C1868 H1872 0.950 . S
C1868 C1877 1.390 . S
C1869 C1868 1.387 . S
C1869 C1871 1.387 . S
H1870 C1877 0.950 . S
C1871 C1869 1.387 . S
C1871 C1873 1.390 . S
C1871 H1875 0.950 . S
H1872 C1868 0.950 . S
C1873 C1871 1.390 . S
C1873 C1874 1.387 . S
C1873 H1876 0.950 . S
C1874 C1873 1.387 . S
C1874 C1877 1.387 . S
H1875 C1871 0.950 . S
H1876 C1873 0.950 . S
C1877 C1868 1.390 . S
C1877 H1870 0.950 . S
C1877 C1874 1.387 . S
C1878 C1879 1.387 . S
C1878 H1882 0.950 . S
C1878 C1887 1.390 . S
C1879 C1878 1.387 . S
C1879 C1881 1.387 . S
H1880 C1887 0.950 . S
C1881 C1879 1.387 . S
C1881 C1883 1.390 . S
C1881 H1885 0.950 . S
H1882 C1878 0.950 . S
C1883 C1881 1.390 . S
C1883 C1884 1.387 . S
C1883 H1886 0.950 . S
C1884 C1883 1.387 . S
C1884 C1887 1.387 . S
H1885 C1881 0.950 . S
H1886 C1883 0.950 . S
C1887 C1878 1.390 . S
C1887 H1880 0.950 . S
C1887 C1884 1.387 . S
C1089 C20 1.251 . S
C1094 C836 1.251 . S
C1099 C326 1.251 . S
C1104 C54 1.251 . S
C1109 C904 1.251 . S
C1114 C88 1.251 . S
C1119 C394 1.251 . S
C1124 C122 1.251 . S
C1129 C972 1.251 . S
C1134 C156 1.251 . S
C1139 C462 1.251 . S
C1144 C190 1.251 . S
C1149 C1040 1.251 . S
C1154 C224 1.251 . S
C1159 C530 1.251 . S
C1164 C258 1.251 . S
C1169 C292 1.251 . S
C1174 C564 1.251 . S
C1179 C360 1.251 . S
C1184 C632 1.251 . S
C1189 C428 1.251 . S
C1194 C700 1.251 . S
C1199 C768 1.251 . S
C1204 C496 1.251 . S
C1209 C598 1.251 . S
C1214 C870 1.251 . S
C1219 C938 1.251 . S
C1224 C666 1.251 . S
C1229 C734 1.251 . S
C1234 C1006 1.251 . S
C1239 C1074 1.251 . S
C1244 C802 1.251 . S
C1249 C5 1.741 . S
C1254 C407 1.731 . S
C1259 C39 1.741 . S
C1264 C849 1.732 . S
C1269 C339 1.731 . S
C1274 C73 1.741 . S
C1279 C107 1.742 . S
C1284 C917 1.731 . S
C1289 C475 1.731 . S
C1294 C141 1.742 . S
C1299 C1053 1.731 . S
C1304 C175 1.742 . S
C1309 C209 1.741 . S
C1314 C543 1.731 . S
C1319 C985 1.730 . S
C1324 C243 1.741 . S
C1329 C277 1.742 . S
C1334 C135 1.731 . S
C1339 C311 1.741 . S
C1344 C577 1.731 . S
C1349 C67 1.731 . S
C1354 C345 1.742 . S
C1359 C379 1.741 . S
C1364 C645 1.731 . S
C1369 C413 1.742 . S
C1374 C203 1.731 . S
C1379 C781 1.732 . S
C1384 C447 1.741 . S
C1389 C271 1.731 . S
C1394 C481 1.742 . S
C1399 C515 1.742 . S
C1404 C713 1.731 . S
C1409 C951 1.732 . S
C1414 C549 1.741 . S
C1419 C305 1.730 . S
C1424 C583 1.741 . S
C1429 C883 1.732 . S
C1434 C617 1.741 . S
C1439 C651 1.742 . S
C1444 C373 1.731 . S
C1449 C1019 1.731 . S
C1454 C685 1.741 . S
C1459 C509 1.732 . S
C1464 C719 1.741 . S
C1469 C753 1.741 . S
C1474 C1087 1.731 . S
C1479 C441 1.731 . S
C1484 C787 1.741 . S
C1489 C679 1.731 . S
C1494 C821 1.741 . S
C1499 C855 1.741 . S
C1504 C33 1.731 . S
C1509 C889 1.742 . S
C1514 C611 1.731 . S
C1519 C101 1.730 . S
C1524 C923 1.741 . S
C1529 C747 1.731 . S
C1534 C957 1.742 . S
C1539 C991 1.741 . S
C1544 C237 1.732 . S
C1549 C815 1.732 . S
C1554 C1025 1.741 . S
C1559 C169 1.732 . S
C1564 C1059 1.741 . S
C1569 C2 1.931 . S
C1574 C206 1.931 . S
C1579 C240 1.931 . S
C1584 C36 1.931 . S
C1589 C70 1.930 . S
C1594 C138 1.930 . S
C1599 C104 1.930 . S
C1604 C172 1.930 . S
C1609 C478 1.930 . S
C1614 C274 1.930 . S
C1619 C512 1.931 . S
C1624 C308 1.931 . S
C1629 C410 1.930 . S
C1634 C342 1.930 . S
C1639 C444 1.930 . S
C1644 C376 1.930 . S
C1649 C546 1.932 . S
C1654 C750 1.932 . S
C1659 C580 1.931 . S
C1664 C784 1.931 . S
C1669 C614 1.930 . S
C1674 C682 1.930 . S
C1679 C648 1.932 . S
C1684 C716 1.932 . S
C1689 C1022 1.932 . S
C1694 C818 1.932 . S
C1699 C1056 1.931 . S
C1704 C852 1.931 . S
C1709 C886 1.930 . S
C1714 C954 1.930 . S
C1719 C920 1.930 . S
C1724 C988 1.930 . S
C1729 C9 1.171 . S
C1734 C723 1.167 . S
C1739 C43 1.167 . S
C1744 C757 1.171 . S
C1749 C77 1.171 . S
C1754 C791 1.167 . S
C1759 C111 1.171 . S
C1764 C689 1.167 . S
C1769 C655 1.167 . S
C1774 C145 1.171 . S
C1779 C179 1.171 . S
C1784 C553 1.167 . S
C1789 C587 1.171 . S
C1794 C213 1.167 . S
C1799 C247 1.171 . S
C1804 C621 1.167 . S
C1809 C995 1.167 . S
C1814 C281 1.171 . S
C1819 C315 1.167 . S
C1824 C1029 1.171 . S
C1829 C1063 1.167 . S
C1834 C349 1.171 . S
C1839 C383 1.171 . S
C1844 C961 1.167 . S
C1849 C417 1.171 . S
C1854 C927 1.167 . S
C1859 C825 1.167 . S
C1864 C451 1.171 . S
C1869 C485 1.171 . S
C1874 C859 1.167 . S
C1879 C519 1.167 . S
C1884 C893 1.171 . S
