# Generated by pormake.
# Topology snl, (6)-cn, num edge types: 1
# Building blocks:
#     Node 0, Type 0, BuildingBlock: FUNLAD_clean_sbu_0, # of connection points: 6
#     Node 1, Type 0, BuildingBlock: FUNLAD_clean_sbu_0, # of connection points: 6
#     Node 2, Type 0, BuildingBlock: FUNLAD_clean_sbu_0, # of connection points: 6
#     Node 3, Type 0, BuildingBlock: FUNLAD_clean_sbu_0, # of connection points: 6
#     Node 4, Type 0, BuildingBlock: FUNLAD_clean_sbu_0, # of connection points: 6
#     Node 5, Type 0, BuildingBlock: FUNLAD_clean_sbu_0, # of connection points: 6
#     Node 6, Type 0, BuildingBlock: FUNLAD_clean_sbu_0, # of connection points: 6
#     Node 7, Type 0, BuildingBlock: FUNLAD_clean_sbu_0, # of connection points: 6
#     Node 8, Type 0, BuildingBlock: FUNLAD_clean_sbu_0, # of connection points: 6
#     Node 9, Type 0, BuildingBlock: FUNLAD_clean_sbu_0, # of connection points: 6
#     Node 10, Type 0, BuildingBlock: FUNLAD_clean_sbu_0, # of connection points: 6
#     Node 11, Type 0, BuildingBlock: FUNLAD_clean_sbu_0, # of connection points: 6
#     Node 12, Type 0, BuildingBlock: FUNLAD_clean_sbu_0, # of connection points: 6
#     Node 13, Type 0, BuildingBlock: FUNLAD_clean_sbu_0, # of connection points: 6
#     Node 14, Type 0, BuildingBlock: FUNLAD_clean_sbu_0, # of connection points: 6
#     Node 15, Type 0, BuildingBlock: FUNLAD_clean_sbu_0, # of connection points: 6
#     Edge 16, Type (0, 0), None
#     Edge 17, Type (0, 0), None
#     Edge 18, Type (0, 0), None
#     Edge 19, Type (0, 0), None
#     Edge 20, Type (0, 0), None
#     Edge 21, Type (0, 0), None
#     Edge 22, Type (0, 0), None
#     Edge 23, Type (0, 0), None
#     Edge 24, Type (0, 0), None
#     Edge 25, Type (0, 0), None
#     Edge 26, Type (0, 0), None
#     Edge 27, Type (0, 0), None
#     Edge 28, Type (0, 0), None
#     Edge 29, Type (0, 0), None
#     Edge 30, Type (0, 0), None
#     Edge 31, Type (0, 0), None
#     Edge 32, Type (0, 0), None
#     Edge 33, Type (0, 0), None
#     Edge 34, Type (0, 0), None
#     Edge 35, Type (0, 0), None
#     Edge 36, Type (0, 0), None
#     Edge 37, Type (0, 0), None
#     Edge 38, Type (0, 0), None
#     Edge 39, Type (0, 0), None
#     Edge 40, Type (0, 0), None
#     Edge 41, Type (0, 0), None
#     Edge 42, Type (0, 0), None
#     Edge 43, Type (0, 0), None
#     Edge 44, Type (0, 0), None
#     Edge 45, Type (0, 0), None
#     Edge 46, Type (0, 0), None
#     Edge 47, Type (0, 0), None
#     Edge 48, Type (0, 0), None
#     Edge 49, Type (0, 0), None
#     Edge 50, Type (0, 0), None
#     Edge 51, Type (0, 0), None
#     Edge 52, Type (0, 0), None
#     Edge 53, Type (0, 0), None
#     Edge 54, Type (0, 0), None
#     Edge 55, Type (0, 0), None
#     Edge 56, Type (0, 0), None
#     Edge 57, Type (0, 0), None
#     Edge 58, Type (0, 0), None
#     Edge 59, Type (0, 0), None
#     Edge 60, Type (0, 0), None
#     Edge 61, Type (0, 0), None
#     Edge 62, Type (0, 0), None
#     Edge 63, Type (0, 0), None
# Relax obj value: 0.301
# Max RMSD: 0.204
# Mean RMSD: 0.133
data_MOF--net-snl--node1-FUNLAD_clean_sbu_0--edge1-none
_symmetry_space_group_name_H-M    P1
_symmetry_Int_Tables_number       1
_symmetry_cell_setting            triclinic
loop_
_symmetry_equiv_pos_as_xyz
'x, y, z'
_cell_length_a     38.651173
_cell_length_b     37.329769
_cell_length_c     6.9492284
_cell_angle_alpha  91.721899
_cell_angle_beta   92.462267
_cell_angle_gamma 94.183585
loop_
_atom_site_label
_atom_site_type_symbol
_atom_site_fract_x
_atom_site_fract_y
_atom_site_fract_z
_atom_type_partial_charge
C0 C 0.1725 0.65479 0.69316 0.0
N1 N 0.18032 0.73663 0.32103 0.0
C2 C 0.16671 0.75648 0.462 0.0
C3 C 0.16541 0.79304 0.44073 0.0
C4 C 0.17359 0.80671 0.26099 0.0
C5 C 0.19549 0.78805 0.14492 0.0
C6 C 0.19857 0.75224 0.17921 0.0
Zn7 Zn 0.17348 0.68417 0.3064 0.0
C8 C 0.25079 0.65837 0.30425 0.0
N9 N 0.16738 0.57328 0.27677 0.0
C10 C 0.13984 0.55604 0.35835 0.0
C11 C 0.19037 0.55534 0.17517 0.0
C12 C 0.18562 0.51823 0.14916 0.0
C13 C 0.15643 0.50023 0.22392 0.0
C14 C 0.13353 0.51921 0.33107 0.0
Zn15 Zn 0.17112 0.62654 0.28908 0.0
O16 O 0.17475 0.68426 0.60896 0.0
C17 C 0.09257 0.65579 0.27887 0.0
O18 O 0.17082 0.62554 0.5951 0.0
H19 H 0.21178 0.56988 0.10977 0.0
H20 H 0.15399 0.74385 0.58048 0.0
H21 H 0.12234 0.57097 0.44106 0.0
O22 O 0.11228 0.68516 0.2977 0.0
O23 O 0.1092 0.62704 0.27077 0.0
H24 H 0.21218 0.73624 0.07938 0.0
O25 O 0.17128 0.62537 -0.01282 0.0
O26 O 0.17194 0.68402 -0.00143 0.0
O27 O 0.23283 0.62789 0.30049 0.0
O28 O 0.23291 0.6858 0.31028 0.0
C29 C 0.17182 0.65473 0.90173 0.0
H30 H 0.15145 0.80819 0.54356 0.0
H31 H 0.20498 0.79827 0.01157 0.0
H32 H 0.20371 0.50398 0.06628 0.0
H33 H 0.11112 0.50569 0.3935 0.0
C34 C 0.66454 0.94251 0.59046 0.0
N35 N 0.58845 0.9631 0.18993 0.0
C36 C 0.56807 0.94171 0.29971 0.0
C37 C 0.53553 0.9511 0.34176 0.0
C38 C 0.52419 0.98369 0.27732 0.0
C39 C 0.54592 1.00571 0.1662 0.0
C40 C 0.57807 0.99443 0.12075 0.0
Zn41 Zn 0.63639 0.94971 0.17316 0.0
C42 C 0.68275 1.01524 0.22933 0.0
N43 N 0.73888 0.92342 0.18695 0.0
C44 C 0.75275 0.89341 0.25372 0.0
C45 C 0.7557 0.94486 0.06082 0.0
C46 C 0.7876 0.93697 -0.00227 0.0
C47 C 0.8032 0.9071 0.0676 0.0
C48 C 0.78552 0.88472 0.19592 0.0
Zn49 Zn 0.68985 0.93683 0.21632 0.0
O50 O 0.63819 0.94689 0.48131 0.0
C51 C 0.63791 0.87278 0.18447 0.0
O52 O 0.69347 0.93745 0.51825 0.0
H53 H 0.74394 0.96779 0.00282 0.0
H54 H 0.57721 0.91751 0.35884 0.0
H55 H 0.73841 0.87623 0.34982 0.0
O56 O 0.61864 0.89727 0.14085 0.0
O57 O 0.67023 0.88064 0.22149 0.0
H58 H 0.59504 1.01112 0.03508 0.0
O59 O 0.68641 0.93544 0.90687 0.0
O60 O 0.63389 0.9531 0.87181 0.0
O61 O 0.7075 0.99462 0.23101 0.0
O62 O 0.65207 1.00186 0.20481 0.0
C63 C 0.66136 0.9437 0.79837 0.0
H64 H 0.51939 0.93235 0.42097 0.0
H65 H 0.53822 0.03111 0.11402 0.0
H66 H 0.80044 0.95483 0.89841 0.0
H67 H 0.79729 0.86175 0.25507 0.0
C68 C 0.37803 0.37592 0.89705 0.0
N69 N 0.4591 0.37017 0.32366 0.0
C70 C 0.4744 0.34531 0.21388 0.0
C71 C 0.5079 0.33544 0.26533 0.0
C72 C 0.52456 0.34998 0.43625 0.0
C73 C 0.5069 0.37369 0.55128 0.0
C74 C 0.47527 0.38495 0.48707 0.0
Zn75 Zn 0.40709 0.3759 0.30148 0.0
C76 C 0.38488 0.45815 0.29712 0.0
N77 N 0.29866 0.37763 0.29425 0.0
C78 C 0.283 0.3457 0.34428 0.0
C79 C 0.29003 0.40877 0.379 0.0
C80 C 0.27104 0.40804 0.54284 0.0
C81 C 0.26231 0.37495 0.62686 0.0
C82 C 0.26588 0.3434 0.51556 0.0
Zn83 Zn 0.35047 0.37672 0.28208 0.0
O84 O 0.4065 0.37581 -0.004 0.0
C85 C 0.3709 0.29607 0.28746 0.0
O86 O 0.34931 0.3758 -0.0206 0.0
H87 H 0.29785 0.43441 0.32149 0.0
H88 H 0.46056 0.33295 0.08744 0.0
H89 H 0.28599 0.3214 0.26064 0.0
O90 O 0.40083 0.31334 0.29501 0.0
O91 O 0.34515 0.31543 0.27876 0.0
H92 H 0.46318 0.40488 0.57185 0.0
O93 O 0.35058 0.37764 0.58827 0.0
O94 O 0.40673 0.37541 0.60582 0.0
O95 O 0.35654 0.43821 0.28271 0.0
O96 O 0.41267 0.44079 0.31041 0.0
C97 C 0.37843 0.37634 0.68835 0.0
H98 H 0.52106 0.31809 0.16946 0.0
H99 H 0.51904 0.38614 0.68273 0.0
H100 H 0.26464 0.43355 0.60338 0.0
H101 H 0.25706 0.31696 0.55943 0.0
C102 C 0.85821 0.23237 0.56302 0.0
N103 N 0.82514 0.30403 0.96301 0.0
C104 C 0.8448 0.3294 0.87275 0.0
C105 C 0.84014 0.36523 0.90518 0.0
C106 C 0.81504 0.37495 0.03182 0.0
C107 C 0.79274 0.34844 0.10988 0.0
C108 C 0.79854 0.31245 0.07402 0.0
Zn109 Zn 0.84504 0.25667 0.96488 0.0
C110 C 0.79704 0.19437 0.86728 0.0
N111 N 0.8908 0.1621 0.96548 0.0
C112 C 0.91514 0.15336 0.84014 0.0
C113 C 0.88155 0.14082 0.11269 0.0
C114 C 0.89669 0.10901 0.13775 0.0
C115 C 0.92002 0.09829 0.00371 0.0
C116 C 0.92992 0.12069 0.85487 0.0
Zn117 Zn 0.86824 0.20748 0.95153 0.0
O118 O 0.8526 0.26018 0.66253 0.0
C119 C 0.92043 0.26479 0.00653 0.0
O120 O 0.86475 0.20377 0.64673 0.0
H121 H 0.8615 0.14784 0.20755 0.0
H122 H 0.8661 0.32209 0.78771 0.0
H123 H 0.92211 0.17111 0.72557 0.0
O124 O 0.89513 0.28292 0.04737 0.0
O125 O 0.91495 0.23321 0.9383 0.0
H126 H 0.78354 0.29152 0.14486 0.0
O127 O 0.87302 0.21159 0.25745 0.0
O128 O 0.83686 0.25377 0.26555 0.0
O129 O 0.82066 0.17969 0.96 0.0
O130 O 0.79713 0.22855 0.87643 0.0
C131 C 0.85598 0.23282 0.35345 0.0
H132 H 0.85721 0.38516 0.83899 0.0
H133 H 0.77284 0.35543 0.20649 0.0
H134 H 0.88774 0.09135 0.24945 0.0
H135 H 0.9472 0.11212 0.74662 0.0
C136 C 0.13663 0.3893 0.56454 0.0
N137 N 1.05717 0.40543 0.14913 0.0
C138 C 1.03819 0.40072 0.30753 0.0
C139 C 1.00828 0.41868 0.32723 0.0
C140 C 0.99665 0.43998 0.1772 0.0
C141 C 1.01558 0.44233 0.01028 0.0
C142 C 1.04625 0.42559 0.00128 0.0
Zn143 Zn 0.10707 0.39343 0.15651 0.0
C144 C 0.14969 0.46175 0.19285 0.0
N145 N 0.21358 0.37667 0.15977 0.0
C146 C 0.21867 0.34406 0.07686 0.0
C147 C 0.23226 0.40656 0.10577 0.0
C148 C 0.25115 0.40567 0.9418 0.0
C149 C 0.24949 0.37405 0.82555 0.0
C150 C 0.23544 0.34218 0.90449 0.0
Zn151 Zn 0.16303 0.38584 0.18188 0.0
O152 O 0.10927 0.39361 0.46305 0.0
C153 C 0.11873 0.31816 0.15331 0.0
O154 O 0.16503 0.38494 0.48468 0.0
H155 H 0.23194 0.43171 0.18582 0.0
H156 H 1.04703 0.38466 0.42383 0.0
H157 H 0.20711 0.31955 0.13262 0.0
O158 O 0.09392 0.33858 0.14555 0.0
O159 O 0.14971 0.3312 0.16937 0.0
H160 H 0.06195 0.43064 0.87927 0.0
O161 O 0.16236 0.38665 0.8763 0.0
O162 O 0.10662 0.39237 0.85179 0.0
O163 O 0.17432 0.44146 0.19965 0.0
O164 O 0.11883 0.44839 0.17075 0.0
C165 C 0.13513 0.38943 0.77294 0.0
H166 H 0.99507 0.41637 0.46088 0.0
H167 H 1.00728 0.45735 0.88797 0.0
H168 H 0.26559 0.43024 0.90621 0.0
H169 H 0.2356 0.3161 0.83375 0.0
C170 C 0.91075 0.90632 0.41707 0.0
N171 N 0.90796 0.82346 0.02202 0.0
C172 C 0.92829 0.80718 0.15285 0.0
C173 C 0.91828 0.77266 0.21077 0.0
C174 C 0.88688 0.75584 0.13535 0.0
C175 C 0.86814 0.77202 -0.0111 0.0
C176 C 0.87948 0.80596 0.9322 0.0
Zn177 Zn 0.91024 0.87703 0.01596 0.0
C178 C 0.83991 0.90466 0.03241 0.0
N179 N 0.91324 0.98793 0.02619 0.0
C180 C 0.93533 1.0069 0.15597 0.0
C181 C 0.89688 1.00371 0.87801 0.0
C182 C 0.90271 0.04017 0.85474 0.0
C183 C 0.92442 0.06036 -0.01022 0.0
C184 C 0.94106 0.04377 0.14155 0.0
Zn185 Zn 0.90982 0.93514 0.02678 0.0
O186 O 0.91375 0.87771 0.31965 0.0
C187 C 0.97925 0.91301 0.01032 0.0
O188 O 0.90884 0.93581 0.33267 0.0
H189 H 0.87919 0.98804 0.77814 0.0
H190 H 0.95065 0.82199 0.22333 0.0
H191 H 0.94842 0.99343 0.27051 0.0
O192 O 0.96546 0.88095 -0.0017 0.0
O193 O 0.961 0.93888 0.03715 0.0
H194 H 0.86391 0.81952 0.82823 0.0
O195 O 0.91097 0.93428 0.72364 0.0
O196 O 0.90666 0.87543 0.70896 0.0
O197 O 0.85791 0.93383 0.01443 0.0
O198 O 0.85454 0.87532 0.03784 0.0
C199 C 0.90931 0.90519 0.62533 0.0
H200 H 0.93365 0.76023 0.32064 0.0
H201 H 0.84445 0.75892 0.92244 0.0
H202 H 0.8884 0.05288 0.74124 0.0
H203 H 0.95688 0.05931 0.25132 0.0
C204 C 0.36897 0.67662 0.91042 0.0
N205 N 0.35807 0.77347 0.30487 0.0
C206 C 0.38532 0.79945 0.31115 0.0
C207 C 0.38046 0.83733 0.3016 0.0
C208 C 0.34706 0.85111 0.2844 0.0
C209 C 0.3194 0.82375 0.27857 0.0
C210 C 0.32532 0.78599 0.28844 0.0
Zn211 Zn 0.36668 0.71082 0.30877 0.0
C212 C 0.29155 0.66318 0.30107 0.0
N213 N 0.37841 0.57955 0.29832 0.0
C214 C 0.41 0.56445 0.31434 0.0
C215 C 0.34961 0.5555 0.28169 0.0
C216 C 0.3517 0.51711 0.28112 0.0
C217 C 0.38375 0.50059 0.29766 0.0
C218 C 0.41316 0.52596 0.31421 0.0
Zn219 Zn 0.37204 0.64282 0.30251 0.0
O220 O 0.36643 0.70629 0.00418 0.0
C221 C 0.44776 0.69062 0.31624 0.0
O222 O 0.37101 0.64675 -0.00426 0.0
H223 H 0.32421 0.56579 0.26888 0.0
H224 H 0.41153 0.79114 0.32267 0.0
H225 H 0.4335 0.58211 0.3281 0.0
O226 O 0.42838 0.71773 0.31775 0.0
O227 O 0.43185 0.6586 0.31116 0.0
H228 H 0.30297 0.76674 0.28148 0.0
O229 O 0.37236 0.64728 0.60723 0.0
O230 O 0.36755 0.70689 0.61563 0.0
O231 O 0.31097 0.63621 0.2974 0.0
O232 O 0.3072 0.69517 0.30231 0.0
C233 C 0.3697 0.67698 0.70089 0.0
H234 H 0.40334 0.85594 0.30749 0.0
H235 H 0.29291 0.83133 0.26577 0.0
H236 H 0.32765 0.50027 0.26761 0.0
H237 H 0.43884 0.51625 0.32753 0.0
C238 C 0.68442 0.128 0.9045 0.0
N239 N 0.60266 0.11846 0.26603 0.0
C240 C 0.59054 0.14347 0.14766 0.0
C241 C 0.55595 0.15007 0.14121 0.0
C242 C 0.53269 0.12973 0.2512 0.0
C243 C 0.54526 0.10141 0.35799 0.0
C244 C 0.58084 0.09661 0.36607 0.0
Zn245 Zn 0.65465 0.12339 0.30219 0.0
C246 C 0.68648 0.05419 0.26129 0.0
N247 N 0.76436 0.13955 0.34219 0.0
C248 C 0.77277 0.17548 0.34198 0.0
C249 C 0.77546 0.12005 0.49211 0.0
C250 C 0.78483 0.13752 0.66942 0.0
C251 C 0.78456 0.17517 0.68618 0.0
C252 C 0.77994 0.19429 0.51706 0.0
Zn253 Zn 0.71178 0.13058 0.29703 0.0
O254 O 0.657 0.12546 -0.0024 0.0
C255 C 0.67659 0.19976 0.34757 0.0
O256 O 0.71392 0.13208 -0.00616 0.0
H257 H 0.77079 0.09113 0.48685 0.0
H258 H 0.60813 0.16069 0.06878 0.0
H259 H 0.76636 0.1904 0.21621 0.0
O260 O 0.6504 0.17766 0.33899 0.0
O261 O 0.70609 0.1884 0.32112 0.0
H262 H 0.59114 0.07669 0.45812 0.0
O263 O 0.70891 0.12938 0.60165 0.0
O264 O 0.65235 0.12068 0.60535 0.0
O265 O 0.71547 0.07278 0.2734 0.0
O266 O 0.65836 0.06951 0.27341 0.0
C267 C 0.68167 0.12581 0.69494 0.0
H268 H 0.54854 0.17273 0.05991 0.0
H269 H 0.52826 0.08402 0.44 0.0
H270 H 0.79067 0.12173 0.79341 0.0
H271 H 0.78198 0.22339 0.51919 0.0
C272 C 0.82123 0.48597 0.73233 0.0
N273 N 0.73741 0.48036 0.07657 0.0
C274 C 0.72976 0.49734 0.91105 0.0
C275 C 0.71601 0.47719 0.74834 0.0
C276 C 0.70821 0.43989 0.76059 0.0
C277 C 0.7099 0.42517 0.94429 0.0
C278 C 0.72242 0.44686 0.10396 0.0
Zn279 Zn 0.79056 0.48258 0.13287 0.0
C280 C 0.81433 0.41272 0.08605 0.0
N281 N 0.89833 0.48215 0.16258 0.0
C282 C 0.9241 0.50011 0.07004 0.0
C283 C 0.90465 0.45451 0.27903 0.0
C284 C 0.93695 0.44138 0.29127 0.0
C285 C 0.96381 0.45759 0.18845 0.0
C286 C 0.95761 0.48853 0.08391 0.0
Zn287 Zn 0.84769 0.48816 0.12253 0.0
O288 O 0.79445 0.48124 0.82823 0.0
C289 C 0.82625 0.55825 0.16048 0.0
O290 O 0.85079 0.49147 0.81938 0.0
H291 H 0.88395 0.44047 0.35249 0.0
H292 H 0.74041 0.52456 0.8926 0.0
H293 H 0.91837 0.52224 -0.02018 0.0
O294 O 0.79686 0.54003 0.14389 0.0
O295 O 0.85431 0.54281 0.1575 0.0
H296 H 0.72658 0.43439 0.24069 0.0
O297 O 0.84452 0.48583 0.42665 0.0
O298 O 0.78766 0.48338 0.43658 0.0
O299 O 0.84173 0.4329 0.07775 0.0
O300 O 0.78661 0.42613 0.12624 0.0
C301 C 0.81749 0.48493 0.52283 0.0
H302 H 0.71279 0.49036 0.61259 0.0
H303 H 0.70175 0.39723 0.96478 0.0
H304 H 0.93977 0.41723 0.37087 0.0
H305 H 0.9779 0.50276 0.0075 0.0
C306 C 0.35211 0.17531 0.6836 0.0
N307 N 0.27085 0.18108 0.29823 0.0
C308 C 0.25241 0.1502 0.34222 0.0
C309 C 0.23146 0.14966 0.50062 0.0
C310 C 0.22718 0.18179 0.60575 0.0
C311 C 0.24022 0.21413 0.52703 0.0
C312 C 0.26222 0.21316 0.37325 0.0
Zn313 Zn 0.3234 0.17618 0.27474 0.0
C314 C 0.36553 0.25442 0.28951 0.0
N315 N 0.43142 0.16562 0.3026 0.0
C316 C 0.44515 0.14612 0.44553 0.0
C317 C 0.44934 0.17369 0.14392 0.0
C318 C 0.48139 0.16026 0.11908 0.0
C319 C 0.4967 0.1406 0.26573 0.0
C320 C 0.4782 0.13409 0.43228 0.0
Zn321 Zn 0.38035 0.17349 0.30057 0.0
O322 O 0.32466 0.1762 0.57933 0.0
C323 C 0.34202 0.09516 0.28193 0.0
O324 O 0.38116 0.17502 0.60612 0.0
H325 H 0.43833 0.18932 0.03174 0.0
H326 H 0.25692 0.12504 0.27117 0.0
H327 H 0.43023 0.13877 0.56796 0.0
O328 O 0.31561 0.11388 0.26718 0.0
O329 O 0.37159 0.1129 0.29767 0.0
H330 H 0.27477 0.23807 0.32859 0.0
O331 O 0.3777 0.17223 -0.00543 0.0
O332 O 0.32116 0.17615 -0.02956 0.0
O333 O 0.39104 0.2344 0.30149 0.0
O334 O 0.33501 0.23807 0.27973 0.0
C335 C 0.35012 0.17448 0.89186 0.0
H336 H 0.22102 0.12376 0.54489 0.0
H337 H 0.23523 0.2401 0.5885 0.0
H338 H 0.49361 0.16518 -0.01563 0.0
H339 H 0.48884 0.11988 0.55186 0.0
C340 C 0.56732 0.69537 0.72806 0.0
N341 N 0.55695 0.61259 0.33483 0.0
C342 C 0.57424 0.59924 0.48738 0.0
C343 C 0.5668 0.56447 0.53819 0.0
C344 C 0.54461 0.54197 0.41655 0.0
C345 C 0.52684 0.55586 0.25885 0.0
C346 C 0.53283 0.59223 0.22314 0.0
Zn347 Zn 0.56432 0.66484 0.32134 0.0
C348 C 0.48884 0.69479 0.31961 0.0
N349 N 0.58225 0.77666 0.33547 0.0
C350 C 0.61163 0.7887 0.44051 0.0
C351 C 0.56993 0.79548 0.18627 0.0
C352 C 0.58865 0.82648 0.13009 0.0
C353 C 0.62045 0.83786 0.22693 0.0
C354 C 0.6315 0.81914 0.38679 0.0
Zn355 Zn 0.57053 0.72292 0.34151 0.0
O356 O 0.56317 0.66693 0.62562 0.0
C357 C 0.64562 0.68794 0.33997 0.0
O358 O 0.57182 0.72529 0.64826 0.0
H359 H 0.54696 0.7851 0.10233 0.0
H360 H 0.59409 0.61556 0.57055 0.0
H361 H 0.62124 0.77311 0.55723 0.0
O362 O 0.6241 0.6601 0.33525 0.0
O363 O 0.63139 0.71799 0.34237 0.0
H364 H 0.51912 0.60397 0.10456 0.0
O365 O 0.56938 0.72186 0.03848 0.0
O366 O 0.56452 0.66298 0.01564 0.0
O367 O 0.50806 0.72485 0.33519 0.0
O368 O 0.50558 0.66656 0.30791 0.0
C369 C 0.56701 0.69322 0.93622 0.0
H370 H 0.582 0.55401 0.65593 0.0
H371 H 0.51055 0.53846 0.15918 0.0
H372 H 0.57874 0.84106 0.0096 0.0
H373 H 0.65504 0.82808 0.47022 0.0
C374 C 0.08278 0.94759 0.61082 0.0
N375 N 0.06466 0.02796 0.01722 0.0
C376 C 0.08171 0.04999 0.89506 0.0
C377 C 0.07843 0.08666 0.90583 0.0
C378 C 0.05787 0.10105 0.04568 0.0
C379 C 1.03832 0.07782 0.16087 0.0
C380 C 1.04213 0.04079 0.14376 0.0
Zn381 Zn 0.07943 0.97676 0.01629 0.0
C382 C 1.01576 0.92199 -0.00625 0.0
N383 N 0.10259 0.87101 -0.00752 0.0
C384 C 0.13394 0.8686 0.91398 0.0
C385 C 0.09124 0.84907 0.13119 0.0
C386 C 0.11415 0.82749 0.21934 0.0
C387 C 0.14907 0.82947 0.16623 0.0
C388 C 0.15846 0.84914 0.00546 0.0
Zn389 Zn 0.08562 0.91897 -0.00341 0.0
O390 O 0.07876 0.97601 0.70892 0.0
C391 C 0.15108 0.96935 0.05854 0.0
O392 O 0.0874 0.91868 0.69489 0.0
H393 H 0.06592 0.85142 0.18872 0.0
H394 H 0.09973 0.03947 0.79707 0.0
H395 H 0.14193 0.88629 0.80102 0.0
O396 O 0.13313 0.99626 0.03882 0.0
O397 O 0.13649 0.93826 0.03755 0.0
H398 H 1.02878 1.02266 0.23931 0.0
O399 O 0.08373 0.91919 0.30361 0.0
O400 O 0.07989 0.9776 0.3185 0.0
O401 O 1.03613 0.89759 -0.02879 0.0
O402 O 1.02711 0.95504 0.00765 0.0
C403 C 0.08204 0.94814 0.40201 0.0
H404 H 0.09394 0.10397 0.81491 0.0
H405 H 1.02259 0.08827 0.27183 0.0
H406 H 0.10461 0.81059 0.33226 0.0
H407 H 0.18464 0.85096 0.95562 0.0
C408 C 0.87691 0.64949 0.60397 0.0
N409 N 0.76174 0.67765 0.31353 0.0
C410 C 0.73903 0.64977 0.36611 0.0
C411 C 0.70221 0.65284 0.37821 0.0
C412 C 0.68628 0.68512 0.33908 0.0
C413 C 0.71042 0.71393 0.29326 0.0
C414 C 0.74712 0.7096 0.27864 0.0
Zn415 Zn 0.81608 0.66495 0.19438 0.0
C416 C 0.87372 0.72083 0.19892 0.0
N417 N 0.97348 0.65185 0.23832 0.0
C418 C 0.9919 0.62153 0.22982 0.0
C419 C 0.99365 0.68396 0.26033 0.0
C420 C 1.03147 0.68594 0.27357 0.0
C421 C 1.05107 0.65487 0.26534 0.0
C422 C 1.02941 0.62242 0.24261 0.0
Zn423 Zn 0.91117 0.63907 0.21669 0.0
O424 O 0.84852 0.6562 0.50415 0.0
C425 C 0.82749 0.59705 0.18361 0.0
O426 O 0.90501 0.64283 0.52029 0.0
H427 H 0.98081 0.70872 0.26848 0.0
H428 H 0.74878 0.62379 0.38982 0.0
H429 H 0.97749 0.59558 0.21305 0.0
O430 O 0.79924 0.61222 0.17849 0.0
O431 O 0.85626 0.61657 0.19803 0.0
H432 H 0.76346 0.73186 0.22852 0.0
O433 O 0.90755 0.63974 0.90551 0.0
O434 O 0.85307 0.65563 0.9274 0.0
O435 O 0.89481 0.69549 0.20047 0.0
O436 O 0.84053 0.71548 0.21037 0.0
C437 C 0.87896 0.64853 0.82297 0.0
H438 H 0.68609 0.62931 0.41485 0.0
H439 H 0.70084 0.73966 0.25991 0.0
H440 H 1.04533 0.71219 0.29063 0.0
H441 H 1.04141 0.59714 0.2345 0.0
C442 C 0.08909 0.20972 0.72444 0.0
N443 N 0.16678 0.18801 0.10318 0.0
C444 C 0.16758 0.15565 0.00806 0.0
C445 C 0.18777 0.15241 0.84815 0.0
C446 C 0.20965 0.18187 0.79439 0.0
C447 C 0.21413 0.21181 0.9242 0.0
C448 C 0.19228 0.21436 0.07817 0.0
Zn449 Zn 0.11717 0.20495 0.12876 0.0
C450 C 0.11167 0.27975 0.14274 0.0
N451 N 1.01509 0.2375 0.10542 0.0
C452 C 1.0102 0.26104 0.96178 0.0
C453 C 0.99329 0.23509 0.25353 0.0
C454 C 0.96349 0.25396 0.24921 0.0
C455 C 0.95527 0.27328 0.08497 0.0
C456 C 0.98029 0.27939 0.94907 0.0
Zn457 Zn 0.06099 0.21466 0.11233 0.0
O458 O 0.11666 0.20695 0.82519 0.0
C459 C 0.06387 0.13957 0.09186 0.0
O460 O 0.06077 0.21306 0.80587 0.0
H461 H 0.99827 0.21768 0.37145 0.0
H462 H 0.14942 0.13343 0.03713 0.0
H463 H 1.02907 0.26518 0.85313 0.0
O464 O 0.09526 0.15226 0.10402 0.0
O465 O 1.03944 0.16054 0.09988 0.0
H466 H 0.19357 0.2391 0.16361 0.0
O467 O 0.06277 0.21504 0.41676 0.0
O468 O 0.1179 0.20301 0.43321 0.0
O469 O 0.08061 0.26733 0.12374 0.0
O470 O 0.13587 0.25875 0.15204 0.0
C471 C 0.09003 0.20917 0.51563 0.0
H472 H 0.18389 0.12776 0.76235 0.0
H473 H 0.2329 0.23409 0.90293 0.0
H474 H 0.94441 0.24855 0.35658 0.0
H475 H 0.97471 0.2941 0.82059 0.0
C476 C 0.62954 0.38108 0.10833 0.0
N477 N 0.59744 0.45327 0.49773 0.0
C478 C 0.60321 0.4735 0.3418 0.0
C479 C 0.58037 0.49851 0.2903 0.0
C480 C 0.5535 0.50522 0.41173 0.0
C481 C 0.54814 0.48457 0.57389 0.0
C482 C 0.57053 0.45807 0.6136 0.0
Zn483 Zn 0.62124 0.40847 0.50431 0.0
C484 C 0.56254 0.35326 0.46433 0.0
N485 N 0.65696 0.30669 0.49722 0.0
C486 C 0.68578 0.30109 0.39727 0.0
C487 C 0.637 0.279 0.56621 0.0
C488 C 0.64404 0.24386 0.5226 0.0
C489 C 0.67211 0.23709 0.40858 0.0
C490 C 0.69416 0.26602 0.35242 0.0
Zn491 Zn 0.63622 0.35479 0.50349 0.0
O492 O 0.61711 0.40623 0.2005 0.0
C493 C 0.69011 0.41913 0.59561 0.0
O494 O 0.64368 0.35685 0.20004 0.0
H495 H 0.6143 0.28416 0.64529 0.0
H496 H 0.62525 0.46984 0.25466 0.0
H497 H 0.70103 0.32371 0.34261 0.0
O498 O 0.6681 0.43597 0.50309 0.0
O499 O 0.68594 0.38469 0.59686 0.0
H500 H 0.56625 0.44107 0.73491 0.0
O501 O 0.6294 0.35131 0.80316 0.0
O502 O 0.62434 0.40967 0.81151 0.0
O503 O 0.58342 0.32929 0.42928 0.0
O504 O 0.57464 0.38451 0.50848 0.0
C505 C 0.62751 0.38056 0.89874 0.0
H506 H 0.58614 0.51544 0.16982 0.0
H507 H 0.52849 0.49054 0.67433 0.0
H508 H 0.62692 0.22216 0.5729 0.0
H509 H 0.71627 0.26165 0.26626 0.0
C510 C 0.33821 0.97306 0.87605 0.0
N511 N 0.25756 0.97067 0.22703 0.0
C512 C 0.2462 0.99698 0.11231 0.0
C513 C 0.21109 0.99857 0.06291 0.0
C514 C 0.1876 0.97207 0.12679 0.0
C515 C 0.19968 0.94536 0.24704 0.0
C516 C 0.23502 0.94528 0.29673 0.0
Zn517 Zn 0.31002 0.97103 0.26691 0.0
C518 C 0.34227 0.89289 0.275 0.0
N519 N 0.41727 0.98392 0.29728 0.0
C520 C 0.43318 1.00302 0.15839 0.0
C521 C 0.43523 0.97197 0.45147 0.0
C522 C 0.47098 0.97705 0.4631 0.0
C523 C 0.48817 0.99143 0.30579 0.0
C524 C 0.46898 1.00643 0.15711 0.0
Zn525 Zn 0.36636 0.97652 0.27777 0.0
O526 O 0.31038 0.97083 0.96396 0.0
C527 C 0.33955 0.05355 0.27937 0.0
O528 O 0.36699 0.97467 -0.02918 0.0
H529 H 0.42213 0.95749 0.56269 0.0
H530 H 0.26443 1.0162 0.05099 0.0
H531 H 0.41825 1.01436 0.04357 0.0
O532 O 0.31096 0.0339 0.2795 0.0
O533 O 0.36696 0.03667 0.27756 0.0
H534 H 0.24456 0.92451 0.38575 0.0
O535 O 0.36501 0.97814 0.58086 0.0
O536 O 0.30811 0.97071 0.57147 0.0
O537 O 0.36895 0.91554 0.28201 0.0
O538 O 0.31252 0.90692 0.26234 0.0
C539 C 0.33696 0.97403 0.66718 0.0
H540 H 0.20271 1.01905 0.96783 0.0
H541 H 0.182 0.92436 0.29942 0.0
H542 H 0.48496 0.96694 0.58599 0.0
H543 H 0.481 1.01818 0.0337 0.0
loop_
_geom_bond_atom_site_label_1
_geom_bond_atom_site_label_2
_geom_bond_distance
_geom_bond_site_symmetry_2
_ccdc_geom_bond_type
C0 O16 1.251 . S
C0 O18 1.254 . S
N1 C2 1.333 . S
N1 C6 1.307 . S
N1 Zn7 2.020 . S
C2 N1 1.333 . S
C2 C3 1.379 . S
C2 H20 0.952 . S
C3 C2 1.379 . S
C3 C4 1.390 . S
C3 H30 0.949 . S
C4 C3 1.390 . S
C4 C5 1.357 . S
C5 C4 1.357 . S
C5 C6 1.370 . S
C5 H31 0.950 1_554 S
C6 N1 1.307 . S
C6 C5 1.370 . S
C6 H24 0.948 1_554 S
Zn7 N1 2.020 . S
Zn7 O16 2.039 . S
Zn7 O22 2.034 . S
Zn7 O26 2.025 1_554 S
Zn7 O28 2.024 . S
C8 O27 1.246 . S
C8 O28 1.249 . S
N9 C10 1.307 . S
N9 C11 1.333 . S
N9 Zn15 2.020 . S
C10 N9 1.307 . S
C10 C14 1.370 . S
C10 H21 0.948 . S
C11 N9 1.333 . S
C11 C12 1.379 1_554 S
C11 H19 0.952 1_554 S
C12 C11 1.379 1_556 S
C12 C13 1.390 1_556 S
C12 H32 0.949 . S
C13 C12 1.390 1_554 S
C13 C14 1.357 . S
C14 C10 1.370 . S
C14 C13 1.357 . S
C14 H33 0.950 . S
Zn15 N9 2.020 . S
Zn15 O18 2.025 . S
Zn15 O23 2.024 . S
Zn15 O25 2.039 1_554 S
Zn15 O27 2.034 . S
O16 C0 1.251 . S
O16 Zn7 2.039 . S
C17 O22 1.246 . S
C17 O23 1.249 . S
O18 C0 1.254 . S
O18 Zn15 2.025 . S
H19 C11 0.952 1_556 S
H20 C2 0.952 . S
H21 C10 0.948 . S
O22 Zn7 2.034 . S
O22 C17 1.246 . S
O23 Zn15 2.024 . S
O23 C17 1.249 . S
H24 C6 0.948 1_556 S
O25 Zn15 2.039 1_556 S
O25 C29 1.251 . S
O26 Zn7 2.025 1_556 S
O26 C29 1.254 . S
O27 C8 1.246 . S
O27 Zn15 2.034 . S
O28 Zn7 2.024 . S
O28 C8 1.249 . S
C29 O25 1.251 . S
C29 O26 1.254 . S
H30 C3 0.949 . S
H31 C5 0.950 1_556 S
H32 C12 0.949 . S
H33 C14 0.950 . S
C34 O50 1.251 . S
C34 O52 1.254 . S
N35 C36 1.333 . S
N35 C40 1.307 . S
N35 Zn41 2.020 . S
C36 N35 1.333 . S
C36 C37 1.379 . S
C36 H54 0.952 . S
C37 C36 1.379 . S
C37 C38 1.390 . S
C37 H64 0.949 . S
C38 C37 1.390 . S
C38 C39 1.357 . S
C39 C38 1.357 . S
C39 C40 1.370 . S
C39 H65 0.950 . S
C40 N35 1.307 . S
C40 C39 1.370 . S
C40 H58 0.948 . S
Zn41 N35 2.020 . S
Zn41 O50 2.039 . S
Zn41 O56 2.034 . S
Zn41 O60 2.025 . S
Zn41 O62 2.024 . S
C42 O61 1.246 . S
C42 O62 1.249 . S
N43 C44 1.307 . S
N43 C45 1.333 . S
N43 Zn49 2.020 . S
C44 N43 1.307 . S
C44 C48 1.370 . S
C44 H55 0.948 . S
C45 N43 1.333 . S
C45 C46 1.379 . S
C45 H53 0.952 . S
C46 C45 1.379 . S
C46 C47 1.390 . S
C46 H66 0.949 . S
C47 C46 1.390 . S
C47 C48 1.357 . S
C48 C44 1.370 . S
C48 C47 1.357 . S
C48 H67 0.950 . S
Zn49 N43 2.020 . S
Zn49 O52 2.025 . S
Zn49 O57 2.024 . S
Zn49 O59 2.039 . S
Zn49 O61 2.034 . S
O50 C34 1.251 . S
O50 Zn41 2.039 . S
C51 O56 1.246 . S
C51 O57 1.249 . S
O52 C34 1.254 . S
O52 Zn49 2.025 . S
H53 C45 0.952 . S
H54 C36 0.952 . S
H55 C44 0.948 . S
O56 Zn41 2.034 . S
O56 C51 1.246 . S
O57 Zn49 2.024 . S
O57 C51 1.249 . S
H58 C40 0.948 . S
O59 Zn49 2.039 . S
O59 C63 1.251 1_554 S
O60 Zn41 2.025 . S
O60 C63 1.254 1_554 S
O61 C42 1.246 . S
O61 Zn49 2.034 . S
O62 Zn41 2.024 . S
O62 C42 1.249 . S
C63 O59 1.251 1_556 S
C63 O60 1.254 1_556 S
H64 C37 0.949 . S
H65 C39 0.950 . S
H66 C46 0.949 . S
H67 C48 0.950 . S
C68 O84 1.251 . S
C68 O86 1.254 . S
N69 C70 1.333 . S
N69 C74 1.307 . S
N69 Zn75 2.020 . S
C70 N69 1.333 . S
C70 C71 1.379 . S
C70 H88 0.952 . S
C71 C70 1.379 . S
C71 C72 1.390 . S
C71 H98 0.949 . S
C72 C71 1.390 . S
C72 C73 1.357 . S
C73 C72 1.357 . S
C73 C74 1.370 . S
C73 H99 0.950 . S
C74 N69 1.307 . S
C74 C73 1.370 . S
C74 H92 0.948 . S
Zn75 N69 2.020 . S
Zn75 O84 2.039 . S
Zn75 O90 2.034 . S
Zn75 O94 2.025 . S
Zn75 O96 2.024 . S
C76 O95 1.246 . S
C76 O96 1.249 . S
N77 C78 1.307 . S
N77 C79 1.333 . S
N77 Zn83 2.020 . S
C78 N77 1.307 . S
C78 C82 1.370 . S
C78 H89 0.948 . S
C79 N77 1.333 . S
C79 C80 1.379 . S
C79 H87 0.952 . S
C80 C79 1.379 . S
C80 C81 1.390 . S
C80 H100 0.949 . S
C81 C80 1.390 . S
C81 C82 1.357 . S
C82 C78 1.370 . S
C82 C81 1.357 . S
C82 H101 0.950 . S
Zn83 N77 2.020 . S
Zn83 O86 2.025 . S
Zn83 O91 2.024 . S
Zn83 O93 2.039 . S
Zn83 O95 2.034 . S
O84 C68 1.251 . S
O84 Zn75 2.039 . S
C85 O90 1.246 . S
C85 O91 1.249 . S
O86 C68 1.254 . S
O86 Zn83 2.025 . S
H87 C79 0.952 . S
H88 C70 0.952 . S
H89 C78 0.948 . S
O90 Zn75 2.034 . S
O90 C85 1.246 . S
O91 Zn83 2.024 . S
O91 C85 1.249 . S
H92 C74 0.948 . S
O93 Zn83 2.039 . S
O93 C97 1.251 . S
O94 Zn75 2.025 . S
O94 C97 1.254 . S
O95 C76 1.246 . S
O95 Zn83 2.034 . S
O96 Zn75 2.024 . S
O96 C76 1.249 . S
C97 O93 1.251 . S
C97 O94 1.254 . S
H98 C71 0.949 . S
H99 C73 0.950 . S
H100 C80 0.949 . S
H101 C82 0.950 . S
C102 O118 1.251 . S
C102 O120 1.254 . S
N103 C104 1.333 . S
N103 C108 1.307 1_556 S
N103 Zn109 2.020 . S
C104 N103 1.333 . S
C104 C105 1.379 . S
C104 H122 0.952 . S
C105 C104 1.379 . S
C105 C106 1.390 . S
C105 H132 0.949 . S
C106 C105 1.390 . S
C106 C107 1.357 1_556 S
C107 C106 1.357 1_554 S
C107 C108 1.370 . S
C107 H133 0.950 . S
C108 N103 1.307 1_554 S
C108 C107 1.370 . S
C108 H126 0.948 . S
Zn109 N103 2.020 . S
Zn109 O118 2.039 . S
Zn109 O124 2.034 . S
Zn109 O128 2.025 1_556 S
Zn109 O130 2.024 . S
C110 O129 1.246 . S
C110 O130 1.249 . S
N111 C112 1.307 . S
N111 C113 1.333 1_556 S
N111 Zn117 2.020 . S
C112 N111 1.307 . S
C112 C116 1.370 . S
C112 H123 0.948 . S
C113 N111 1.333 1_554 S
C113 C114 1.379 . S
C113 H121 0.952 . S
C114 C113 1.379 . S
C114 C115 1.390 1_554 S
C114 H134 0.949 . S
C115 C114 1.390 1_556 S
C115 C116 1.357 . S
C116 C112 1.370 . S
C116 C115 1.357 . S
C116 H135 0.950 . S
Zn117 N111 2.020 . S
Zn117 O120 2.025 . S
Zn117 O125 2.024 . S
Zn117 O127 2.039 1_556 S
Zn117 O129 2.034 . S
O118 C102 1.251 . S
O118 Zn109 2.039 . S
C119 O124 1.246 . S
C119 O125 1.249 . S
O120 C102 1.254 . S
O120 Zn117 2.025 . S
H121 C113 0.952 . S
H122 C104 0.952 . S
H123 C112 0.948 . S
O124 Zn109 2.034 . S
O124 C119 1.246 . S
O125 Zn117 2.024 . S
O125 C119 1.249 . S
H126 C108 0.948 . S
O127 Zn117 2.039 1_554 S
O127 C131 1.251 . S
O128 Zn109 2.025 1_554 S
O128 C131 1.254 . S
O129 C110 1.246 . S
O129 Zn117 2.034 . S
O130 Zn109 2.024 . S
O130 C110 1.249 . S
C131 O127 1.251 . S
C131 O128 1.254 . S
H132 C105 0.949 . S
H133 C107 0.950 . S
H134 C114 0.949 . S
H135 C116 0.950 . S
C136 O152 1.251 . S
C136 O154 1.254 . S
N137 C138 1.333 . S
N137 C142 1.307 1_554 S
N137 Zn143 2.020 1_654 S
C138 N137 1.333 . S
C138 C139 1.379 . S
C138 H156 0.952 . S
C139 C138 1.379 . S
C139 C140 1.390 . S
C139 H166 0.949 . S
C140 C139 1.390 . S
C140 C141 1.357 1_554 S
C141 C140 1.357 1_556 S
C141 C142 1.370 . S
C141 H167 0.950 . S
C142 N137 1.307 1_556 S
C142 C141 1.370 . S
C142 H160 0.948 . S
Zn143 N137 2.020 1_456 S
Zn143 O152 2.039 1_556 S
Zn143 O158 2.034 . S
Zn143 O162 2.025 . S
Zn143 O164 2.024 1_556 S
C144 O163 1.246 1_554 S
C144 O164 1.249 . S
N145 C146 1.307 1_556 S
N145 C147 1.333 . S
N145 Zn151 2.020 . S
C146 N145 1.307 1_554 S
C146 C150 1.370 . S
C146 H157 0.948 . S
C147 N145 1.333 . S
C147 C148 1.379 . S
C147 H155 0.952 . S
C148 C147 1.379 . S
C148 C149 1.390 . S
C148 H168 0.949 . S
C149 C148 1.390 . S
C149 C150 1.357 1_556 S
C150 C146 1.370 . S
C150 C149 1.357 1_554 S
C150 H169 0.950 . S
Zn151 N145 2.020 . S
Zn151 O154 2.025 1_556 S
Zn151 O159 2.024 . S
Zn151 O161 2.039 . S
Zn151 O163 2.034 . S
O152 C136 1.251 . S
O152 Zn143 2.039 1_554 S
C153 O158 1.246 . S
C153 O159 1.249 . S
O154 C136 1.254 . S
O154 Zn151 2.025 1_554 S
H155 C147 0.952 . S
H156 C138 0.952 . S
H157 C146 0.948 . S
O158 Zn143 2.034 . S
O158 C153 1.246 . S
O159 Zn151 2.024 . S
O159 C153 1.249 . S
H160 C142 0.948 . S
O161 Zn151 2.039 . S
O161 C165 1.251 . S
O162 Zn143 2.025 . S
O162 C165 1.254 . S
O163 C144 1.246 1_556 S
O163 Zn151 2.034 . S
O164 Zn143 2.024 1_554 S
O164 C144 1.249 . S
C165 O161 1.251 . S
C165 O162 1.254 . S
H166 C139 0.949 . S
H167 C141 0.950 . S
H168 C148 0.949 . S
H169 C150 0.950 . S
C170 O186 1.251 . S
C170 O188 1.254 . S
N171 C172 1.333 . S
N171 C176 1.307 . S
N171 Zn177 2.020 . S
C172 N171 1.333 . S
C172 C173 1.379 . S
C172 H190 0.952 . S
C173 C172 1.379 . S
C173 C174 1.390 . S
C173 H200 0.949 . S
C174 C173 1.390 . S
C174 C175 1.357 . S
C175 C174 1.357 . S
C175 C176 1.370 . S
C175 H201 0.950 1_554 S
C176 N171 1.307 . S
C176 C175 1.370 . S
C176 H194 0.948 1_554 S
Zn177 N171 2.020 . S
Zn177 O186 2.039 . S
Zn177 O192 2.034 . S
Zn177 O196 2.025 1_554 S
Zn177 O198 2.024 . S
C178 O197 1.246 . S
C178 O198 1.249 . S
N179 C180 1.307 . S
N179 C181 1.333 . S
N179 Zn185 2.020 . S
C180 N179 1.307 . S
C180 C184 1.370 1_565 S
C180 H191 0.948 . S
C181 N179 1.333 . S
C181 C182 1.379 1_565 S
C181 H189 0.952 1_554 S
C182 C181 1.379 1_545 S
C182 C183 1.390 . S
C182 H202 0.949 1_554 S
C183 C182 1.390 . S
C183 C184 1.357 . S
C184 C180 1.370 1_545 S
C184 C183 1.357 . S
C184 H203 0.950 . S
Zn185 N179 2.020 . S
Zn185 O188 2.025 . S
Zn185 O193 2.024 . S
Zn185 O195 2.039 1_554 S
Zn185 O197 2.034 . S
O186 C170 1.251 . S
O186 Zn177 2.039 . S
C187 O192 1.246 . S
C187 O193 1.249 . S
O188 C170 1.254 . S
O188 Zn185 2.025 . S
H189 C181 0.952 1_556 S
H190 C172 0.952 . S
H191 C180 0.948 . S
O192 Zn177 2.034 . S
O192 C187 1.246 . S
O193 Zn185 2.024 . S
O193 C187 1.249 . S
H194 C176 0.948 1_556 S
O195 Zn185 2.039 1_556 S
O195 C199 1.251 . S
O196 Zn177 2.025 1_556 S
O196 C199 1.254 . S
O197 C178 1.246 . S
O197 Zn185 2.034 . S
O198 Zn177 2.024 . S
O198 C178 1.249 . S
C199 O195 1.251 . S
C199 O196 1.254 . S
H200 C173 0.949 . S
H201 C175 0.950 1_556 S
H202 C182 0.949 1_556 S
H203 C184 0.950 . S
C204 O220 1.251 . S
C204 O222 1.254 . S
N205 C206 1.333 . S
N205 C210 1.307 . S
N205 Zn211 2.020 . S
C206 N205 1.333 . S
C206 C207 1.379 . S
C206 H224 0.952 . S
C207 C206 1.379 . S
C207 C208 1.390 . S
C207 H234 0.949 1_554 S
C208 C207 1.390 . S
C208 C209 1.357 . S
C209 C208 1.357 . S
C209 C210 1.370 . S
C209 H235 0.950 . S
C210 N205 1.307 . S
C210 C209 1.370 . S
C210 H228 0.948 . S
Zn211 N205 2.020 . S
Zn211 O220 2.039 1_554 S
Zn211 O226 2.034 . S
Zn211 O230 2.025 . S
Zn211 O232 2.024 . S
C212 O231 1.246 . S
C212 O232 1.249 . S
N213 C214 1.307 . S
N213 C215 1.333 . S
N213 Zn219 2.020 . S
C214 N213 1.307 . S
C214 C218 1.370 . S
C214 H225 0.948 . S
C215 N213 1.333 . S
C215 C216 1.379 . S
C215 H223 0.952 . S
C216 C215 1.379 . S
C216 C217 1.390 . S
C216 H236 0.949 . S
C217 C216 1.390 . S
C217 C218 1.357 . S
C218 C214 1.370 . S
C218 C217 1.357 . S
C218 H237 0.950 . S
Zn219 N213 2.020 . S
Zn219 O222 2.025 1_554 S
Zn219 O227 2.024 . S
Zn219 O229 2.039 . S
Zn219 O231 2.034 . S
O220 C204 1.251 . S
O220 Zn211 2.039 1_556 S
C221 O226 1.246 . S
C221 O227 1.249 . S
O222 C204 1.254 . S
O222 Zn219 2.025 1_556 S
H223 C215 0.952 . S
H224 C206 0.952 . S
H225 C214 0.948 . S
O226 Zn211 2.034 . S
O226 C221 1.246 . S
O227 Zn219 2.024 . S
O227 C221 1.249 . S
H228 C210 0.948 . S
O229 Zn219 2.039 . S
O229 C233 1.251 . S
O230 Zn211 2.025 . S
O230 C233 1.254 . S
O231 C212 1.246 . S
O231 Zn219 2.034 . S
O232 Zn211 2.024 . S
O232 C212 1.249 . S
C233 O229 1.251 . S
C233 O230 1.254 . S
H234 C207 0.949 1_556 S
H235 C209 0.950 . S
H236 C216 0.949 . S
H237 C218 0.950 . S
C238 O254 1.251 . S
C238 O256 1.254 . S
N239 C240 1.333 . S
N239 C244 1.307 . S
N239 Zn245 2.020 . S
C240 N239 1.333 . S
C240 C241 1.379 . S
C240 H258 0.952 . S
C241 C240 1.379 . S
C241 C242 1.390 . S
C241 H268 0.949 . S
C242 C241 1.390 . S
C242 C243 1.357 . S
C243 C242 1.357 . S
C243 C244 1.370 . S
C243 H269 0.950 . S
C244 N239 1.307 . S
C244 C243 1.370 . S
C244 H262 0.948 . S
Zn245 N239 2.020 . S
Zn245 O254 2.039 . S
Zn245 O260 2.034 . S
Zn245 O264 2.025 . S
Zn245 O266 2.024 . S
C246 O265 1.246 . S
C246 O266 1.249 . S
N247 C248 1.307 . S
N247 C249 1.333 . S
N247 Zn253 2.020 . S
C248 N247 1.307 . S
C248 C252 1.370 . S
C248 H259 0.948 . S
C249 N247 1.333 . S
C249 C250 1.379 . S
C249 H257 0.952 . S
C250 C249 1.379 . S
C250 C251 1.390 . S
C250 H270 0.949 . S
C251 C250 1.390 . S
C251 C252 1.357 . S
C252 C248 1.370 . S
C252 C251 1.357 . S
C252 H271 0.950 . S
Zn253 N247 2.020 . S
Zn253 O256 2.025 . S
Zn253 O261 2.024 . S
Zn253 O263 2.039 . S
Zn253 O265 2.034 . S
O254 C238 1.251 . S
O254 Zn245 2.039 . S
C255 O260 1.246 . S
C255 O261 1.249 . S
O256 C238 1.254 . S
O256 Zn253 2.025 . S
H257 C249 0.952 . S
H258 C240 0.952 . S
H259 C248 0.948 . S
O260 Zn245 2.034 . S
O260 C255 1.246 . S
O261 Zn253 2.024 . S
O261 C255 1.249 . S
H262 C244 0.948 . S
O263 Zn253 2.039 . S
O263 C267 1.251 . S
O264 Zn245 2.025 . S
O264 C267 1.254 . S
O265 C246 1.246 . S
O265 Zn253 2.034 . S
O266 Zn245 2.024 . S
O266 C246 1.249 . S
C267 O263 1.251 . S
C267 O264 1.254 . S
H268 C241 0.949 . S
H269 C243 0.950 . S
H270 C250 0.949 . S
H271 C252 0.950 . S
C272 O288 1.251 . S
C272 O290 1.254 . S
N273 C274 1.333 . S
N273 C278 1.307 1_556 S
N273 Zn279 2.020 . S
C274 N273 1.333 . S
C274 C275 1.379 . S
C274 H292 0.952 . S
C275 C274 1.379 . S
C275 C276 1.390 . S
C275 H302 0.949 . S
C276 C275 1.390 . S
C276 C277 1.357 1_556 S
C277 C276 1.357 1_554 S
C277 C278 1.370 . S
C277 H303 0.950 . S
C278 N273 1.307 1_554 S
C278 C277 1.370 . S
C278 H296 0.948 . S
Zn279 N273 2.020 . S
Zn279 O288 2.039 . S
Zn279 O294 2.034 . S
Zn279 O298 2.025 1_556 S
Zn279 O300 2.024 . S
C280 O299 1.246 . S
C280 O300 1.249 . S
N281 C282 1.307 1_554 S
N281 C283 1.333 . S
N281 Zn287 2.020 1_554 S
C282 N281 1.307 1_556 S
C282 C286 1.370 . S
C282 H293 0.948 . S
C283 N281 1.333 . S
C283 C284 1.379 . S
C283 H291 0.952 . S
C284 C283 1.379 . S
C284 C285 1.390 . S
C284 H304 0.949 . S
C285 C284 1.390 . S
C285 C286 1.357 1_554 S
C286 C282 1.370 . S
C286 C285 1.357 1_556 S
C286 H305 0.950 . S
Zn287 N281 2.020 1_556 S
Zn287 O290 2.025 . S
Zn287 O295 2.024 . S
Zn287 O297 2.039 1_556 S
Zn287 O299 2.034 . S
O288 C272 1.251 . S
O288 Zn279 2.039 . S
C289 O294 1.246 1_554 S
C289 O295 1.249 1_554 S
O290 C272 1.254 . S
O290 Zn287 2.025 . S
H291 C283 0.952 . S
H292 C274 0.952 . S
H293 C282 0.948 . S
O294 Zn279 2.034 . S
O294 C289 1.246 1_556 S
O295 Zn287 2.024 . S
O295 C289 1.249 1_556 S
H296 C278 0.948 . S
O297 Zn287 2.039 1_554 S
O297 C301 1.251 . S
O298 Zn279 2.025 1_554 S
O298 C301 1.254 . S
O299 C280 1.246 . S
O299 Zn287 2.034 . S
O300 Zn279 2.024 . S
O300 C280 1.249 . S
C301 O297 1.251 . S
C301 O298 1.254 . S
H302 C275 0.949 . S
H303 C277 0.950 . S
H304 C284 0.949 . S
H305 C286 0.950 . S
C306 O322 1.251 . S
C306 O324 1.254 . S
N307 C308 1.333 . S
N307 C312 1.307 . S
N307 Zn313 2.020 . S
C308 N307 1.333 . S
C308 C309 1.379 . S
C308 H326 0.952 . S
C309 C308 1.379 . S
C309 C310 1.390 . S
C309 H336 0.949 . S
C310 C309 1.390 . S
C310 C311 1.357 . S
C311 C310 1.357 . S
C311 C312 1.370 . S
C311 H337 0.950 . S
C312 N307 1.307 . S
C312 C311 1.370 . S
C312 H330 0.948 . S
Zn313 N307 2.020 . S
Zn313 O322 2.039 . S
Zn313 O328 2.034 . S
Zn313 O332 2.025 . S
Zn313 O334 2.024 . S
C314 O333 1.246 . S
C314 O334 1.249 . S
N315 C316 1.307 . S
N315 C317 1.333 . S
N315 Zn321 2.020 . S
C316 N315 1.307 . S
C316 C320 1.370 . S
C316 H327 0.948 . S
C317 N315 1.333 . S
C317 C318 1.379 . S
C317 H325 0.952 . S
C318 C317 1.379 . S
C318 C319 1.390 . S
C318 H338 0.949 . S
C319 C318 1.390 . S
C319 C320 1.357 . S
C320 C316 1.370 . S
C320 C319 1.357 . S
C320 H339 0.950 . S
Zn321 N315 2.020 . S
Zn321 O324 2.025 . S
Zn321 O329 2.024 . S
Zn321 O331 2.039 . S
Zn321 O333 2.034 . S
O322 C306 1.251 . S
O322 Zn313 2.039 . S
C323 O328 1.246 . S
C323 O329 1.249 . S
O324 C306 1.254 . S
O324 Zn321 2.025 . S
H325 C317 0.952 . S
H326 C308 0.952 . S
H327 C316 0.948 . S
O328 Zn313 2.034 . S
O328 C323 1.246 . S
O329 Zn321 2.024 . S
O329 C323 1.249 . S
H330 C312 0.948 . S
O331 Zn321 2.039 . S
O331 C335 1.251 . S
O332 Zn313 2.025 . S
O332 C335 1.254 . S
O333 C314 1.246 . S
O333 Zn321 2.034 . S
O334 Zn313 2.024 . S
O334 C314 1.249 . S
C335 O331 1.251 . S
C335 O332 1.254 . S
H336 C309 0.949 . S
H337 C311 0.950 . S
H338 C318 0.949 . S
H339 C320 0.950 . S
C340 O356 1.251 . S
C340 O358 1.254 . S
N341 C342 1.333 . S
N341 C346 1.307 . S
N341 Zn347 2.020 . S
C342 N341 1.333 . S
C342 C343 1.379 . S
C342 H360 0.952 . S
C343 C342 1.379 . S
C343 C344 1.390 . S
C343 H370 0.949 . S
C344 C343 1.390 . S
C344 C345 1.357 . S
C345 C344 1.357 . S
C345 C346 1.370 . S
C345 H371 0.950 . S
C346 N341 1.307 . S
C346 C345 1.370 . S
C346 H364 0.948 . S
Zn347 N341 2.020 . S
Zn347 O356 2.039 . S
Zn347 O362 2.034 . S
Zn347 O366 2.025 1_554 S
Zn347 O368 2.024 . S
C348 O367 1.246 . S
C348 O368 1.249 . S
N349 C350 1.307 . S
N349 C351 1.333 . S
N349 Zn355 2.020 . S
C350 N349 1.307 . S
C350 C354 1.370 . S
C350 H361 0.948 . S
C351 N349 1.333 . S
C351 C352 1.379 . S
C351 H359 0.952 . S
C352 C351 1.379 . S
C352 C353 1.390 . S
C352 H372 0.949 1_554 S
C353 C352 1.390 . S
C353 C354 1.357 . S
C354 C350 1.370 . S
C354 C353 1.357 . S
C354 H373 0.950 . S
Zn355 N349 2.020 . S
Zn355 O358 2.025 . S
Zn355 O363 2.024 . S
Zn355 O365 2.039 1_554 S
Zn355 O367 2.034 . S
O356 C340 1.251 . S
O356 Zn347 2.039 . S
C357 O362 1.246 . S
C357 O363 1.249 . S
O358 C340 1.254 . S
O358 Zn355 2.025 . S
H359 C351 0.952 . S
H360 C342 0.952 . S
H361 C350 0.948 . S
O362 Zn347 2.034 . S
O362 C357 1.246 . S
O363 Zn355 2.024 . S
O363 C357 1.249 . S
H364 C346 0.948 . S
O365 Zn355 2.039 1_556 S
O365 C369 1.251 . S
O366 Zn347 2.025 1_556 S
O366 C369 1.254 . S
O367 C348 1.246 . S
O367 Zn355 2.034 . S
O368 Zn347 2.024 . S
O368 C348 1.249 . S
C369 O365 1.251 . S
C369 O366 1.254 . S
H370 C343 0.949 . S
H371 C345 0.950 . S
H372 C352 0.949 1_556 S
H373 C354 0.950 . S
C374 O390 1.251 . S
C374 O392 1.254 . S
N375 C376 1.333 . S
N375 C380 1.307 . S
N375 Zn381 2.020 1_545 S
C376 N375 1.333 . S
C376 C377 1.379 . S
C376 H394 0.952 1_554 S
C377 C376 1.379 . S
C377 C378 1.390 . S
C377 H404 0.949 1_554 S
C378 C377 1.390 . S
C378 C379 1.357 . S
C379 C378 1.357 . S
C379 C380 1.370 . S
C379 H405 0.950 1_455 S
C380 N375 1.307 . S
C380 C379 1.370 . S
C380 H398 0.943 1_455 S
Zn381 N375 2.020 1_565 S
Zn381 O390 2.039 1_554 S
Zn381 O396 2.034 . S
Zn381 O400 2.025 . S
Zn381 O402 2.024 1_455 S
C382 O401 1.246 . S
C382 O402 1.249 . S
N383 C384 1.307 . S
N383 C385 1.333 . S
N383 Zn389 2.020 . S
C384 N383 1.307 . S
C384 C388 1.370 . S
C384 H395 0.948 1_554 S
C385 N383 1.333 . S
C385 C386 1.379 . S
C385 H393 0.952 . S
C386 C385 1.379 . S
C386 C387 1.390 . S
C386 H406 0.949 . S
C387 C386 1.390 . S
C387 C388 1.357 . S
C388 C384 1.370 . S
C388 C387 1.357 . S
C388 H407 0.950 1_554 S
Zn389 N383 2.020 . S
Zn389 O392 2.025 1_554 S
Zn389 O397 2.024 . S
Zn389 O399 2.039 . S
Zn389 O401 2.034 1_455 S
O390 C374 1.251 . S
O390 Zn381 2.039 1_556 S
C391 O396 1.246 . S
C391 O397 1.249 . S
O392 C374 1.254 . S
O392 Zn389 2.025 1_556 S
H393 C385 0.952 . S
H394 C376 0.952 1_556 S
H395 C384 0.948 1_556 S
O396 Zn381 2.034 . S
O396 C391 1.246 . S
O397 Zn389 2.024 . S
O397 C391 1.249 . S
H398 C380 0.943 1_655 S
O399 Zn389 2.039 . S
O399 C403 1.251 . S
O400 Zn381 2.025 . S
O400 C403 1.254 . S
O401 C382 1.246 . S
O401 Zn389 2.034 1_655 S
O402 Zn381 2.024 1_655 S
O402 C382 1.249 . S
C403 O399 1.251 . S
C403 O400 1.254 . S
H404 C377 0.949 1_556 S
H405 C379 0.950 1_655 S
H406 C386 0.949 . S
H407 C388 0.950 1_556 S
C408 O424 1.251 . S
C408 O426 1.254 . S
N409 C410 1.333 . S
N409 C414 1.307 . S
N409 Zn415 2.020 . S
C410 N409 1.333 . S
C410 C411 1.379 . S
C410 H428 0.952 . S
C411 C410 1.379 . S
C411 C412 1.390 . S
C411 H438 0.949 . S
C412 C411 1.390 . S
C412 C413 1.357 . S
C413 C412 1.357 . S
C413 C414 1.370 . S
C413 H439 0.950 1_554 S
C414 N409 1.307 . S
C414 C413 1.370 . S
C414 H432 0.948 1_554 S
Zn415 N409 2.020 . S
Zn415 O424 2.039 . S
Zn415 O430 2.034 . S
Zn415 O434 2.025 1_554 S
Zn415 O436 2.024 . S
C416 O435 1.246 . S
C416 O436 1.249 . S
N417 C418 1.307 . S
N417 C419 1.333 1_554 S
N417 Zn423 2.020 . S
C418 N417 1.307 . S
C418 C422 1.370 . S
C418 H429 0.948 . S
C419 N417 1.333 1_556 S
C419 C420 1.379 . S
C419 H427 0.952 . S
C420 C419 1.379 . S
C420 C421 1.390 1_556 S
C420 H440 0.949 . S
C421 C420 1.390 1_554 S
C421 C422 1.357 . S
C422 C418 1.370 . S
C422 C421 1.357 . S
C422 H441 0.950 . S
Zn423 N417 2.020 . S
Zn423 O426 2.025 . S
Zn423 O431 2.024 . S
Zn423 O433 2.039 1_554 S
Zn423 O435 2.034 . S
O424 C408 1.251 . S
O424 Zn415 2.039 . S
C425 O430 1.246 . S
C425 O431 1.249 . S
O426 C408 1.254 . S
O426 Zn423 2.025 . S
H427 C419 0.952 . S
H428 C410 0.952 . S
H429 C418 0.948 . S
O430 Zn415 2.034 . S
O430 C425 1.246 . S
O431 Zn423 2.024 . S
O431 C425 1.249 . S
H432 C414 0.948 1_556 S
O433 Zn423 2.039 1_556 S
O433 C437 1.251 . S
O434 Zn415 2.025 1_556 S
O434 C437 1.254 . S
O435 C416 1.246 . S
O435 Zn423 2.034 . S
O436 Zn415 2.024 . S
O436 C416 1.249 . S
C437 O433 1.251 . S
C437 O434 1.254 . S
H438 C411 0.949 . S
H439 C413 0.950 1_556 S
H440 C420 0.949 . S
H441 C422 0.950 . S
C442 O458 1.251 . S
C442 O460 1.254 1_455 S
N443 C444 1.333 . S
N443 C448 1.307 1_556 S
N443 Zn449 2.020 . S
C444 N443 1.333 . S
C444 C445 1.379 . S
C444 H462 0.952 . S
C445 C444 1.379 . S
C445 C446 1.390 . S
C445 H472 0.949 . S
C446 C445 1.390 . S
C446 C447 1.357 1_556 S
C447 C446 1.357 1_554 S
C447 C448 1.370 . S
C447 H473 0.950 . S
C448 N443 1.307 1_554 S
C448 C447 1.370 . S
C448 H466 0.948 . S
Zn449 N443 2.020 . S
Zn449 O458 2.039 . S
Zn449 O464 2.034 . S
Zn449 O468 2.025 1_556 S
Zn449 O470 2.024 . S
C450 O469 1.246 . S
C450 O470 1.249 . S
N451 C452 1.307 . S
N451 C453 1.333 1_556 S
N451 Zn457 2.020 . S
C452 N451 1.307 . S
C452 C456 1.370 . S
C452 H463 0.948 . S
C453 N451 1.333 1_554 S
C453 C454 1.379 . S
C453 H461 0.952 . S
C454 C453 1.379 . S
C454 C455 1.390 . S
C454 H474 0.949 . S
C455 C454 1.390 . S
C455 C456 1.357 1_554 S
C456 C452 1.370 . S
C456 C455 1.357 1_556 S
C456 H475 0.950 . S
Zn457 N451 2.020 . S
Zn457 O460 2.025 . S
Zn457 O465 2.024 . S
Zn457 O467 2.039 1_556 S
Zn457 O469 2.034 1_655 S
O458 C442 1.251 . S
O458 Zn449 2.039 . S
C459 O464 1.246 . S
C459 O465 1.249 1_455 S
O460 C442 1.254 1_655 S
O460 Zn457 2.025 . S
H461 C453 0.952 . S
H462 C444 0.952 . S
H463 C452 0.948 . S
O464 Zn449 2.034 . S
O464 C459 1.246 . S
O465 Zn457 2.024 . S
O465 C459 1.249 1_655 S
H466 C448 0.948 . S
O467 Zn457 2.039 1_554 S
O467 C471 1.251 1_655 S
O468 Zn449 2.025 1_554 S
O468 C471 1.254 . S
O469 C450 1.246 . S
O469 Zn457 2.034 1_455 S
O470 Zn449 2.024 . S
O470 C450 1.249 . S
C471 O467 1.251 1_455 S
C471 O468 1.254 . S
H472 C445 0.949 . S
H473 C447 0.950 . S
H474 C454 0.949 . S
H475 C456 0.950 . S
C476 O492 1.251 . S
C476 O494 1.254 . S
N477 C478 1.333 . S
N477 C482 1.307 . S
N477 Zn483 2.020 . S
C478 N477 1.333 . S
C478 C479 1.379 . S
C478 H496 0.952 . S
C479 C478 1.379 . S
C479 C480 1.390 . S
C479 H506 0.949 . S
C480 C479 1.390 . S
C480 C481 1.357 . S
C481 C480 1.357 . S
C481 C482 1.370 . S
C481 H507 0.950 . S
C482 N477 1.307 . S
C482 C481 1.370 . S
C482 H500 0.948 . S
Zn483 N477 2.020 . S
Zn483 O492 2.039 . S
Zn483 O498 2.034 . S
Zn483 O502 2.025 . S
Zn483 O504 2.024 . S
C484 O503 1.246 . S
C484 O504 1.249 . S
N485 C486 1.307 . S
N485 C487 1.333 . S
N485 Zn491 2.020 . S
C486 N485 1.307 . S
C486 C490 1.370 . S
C486 H497 0.948 . S
C487 N485 1.333 . S
C487 C488 1.379 . S
C487 H495 0.952 . S
C488 C487 1.379 . S
C488 C489 1.390 . S
C488 H508 0.949 . S
C489 C488 1.390 . S
C489 C490 1.357 . S
C490 C486 1.370 . S
C490 C489 1.357 . S
C490 H509 0.950 . S
Zn491 N485 2.020 . S
Zn491 O494 2.025 . S
Zn491 O499 2.024 . S
Zn491 O501 2.039 . S
Zn491 O503 2.034 . S
O492 C476 1.251 . S
O492 Zn483 2.039 . S
C493 O498 1.246 . S
C493 O499 1.249 . S
O494 C476 1.254 . S
O494 Zn491 2.025 . S
H495 C487 0.952 . S
H496 C478 0.952 . S
H497 C486 0.948 . S
O498 Zn483 2.034 . S
O498 C493 1.246 . S
O499 Zn491 2.024 . S
O499 C493 1.249 . S
H500 C482 0.948 . S
O501 Zn491 2.039 . S
O501 C505 1.251 . S
O502 Zn483 2.025 . S
O502 C505 1.254 . S
O503 C484 1.246 . S
O503 Zn491 2.034 . S
O504 Zn483 2.024 . S
O504 C484 1.249 . S
C505 O501 1.251 . S
C505 O502 1.254 . S
H506 C479 0.949 . S
H507 C481 0.950 . S
H508 C488 0.949 . S
H509 C490 0.950 . S
C510 O526 1.251 1_556 S
C510 O528 1.254 1_556 S
N511 C512 1.333 . S
N511 C516 1.307 . S
N511 Zn517 2.020 . S
C512 N511 1.333 . S
C512 C513 1.379 . S
C512 H530 0.952 . S
C513 C512 1.379 . S
C513 C514 1.390 . S
C513 H540 0.949 . S
C514 C513 1.390 . S
C514 C515 1.357 . S
C515 C514 1.357 . S
C515 C516 1.370 . S
C515 H541 0.950 . S
C516 N511 1.307 . S
C516 C515 1.370 . S
C516 H534 0.948 . S
Zn517 N511 2.020 . S
Zn517 O526 2.039 . S
Zn517 O532 2.034 . S
Zn517 O536 2.025 . S
Zn517 O538 2.024 . S
C518 O537 1.246 . S
C518 O538 1.249 . S
N519 C520 1.307 . S
N519 C521 1.333 . S
N519 Zn525 2.020 . S
C520 N519 1.307 . S
C520 C524 1.370 . S
C520 H531 0.948 . S
C521 N519 1.333 . S
C521 C522 1.379 . S
C521 H529 0.952 . S
C522 C521 1.379 . S
C522 C523 1.390 . S
C522 H542 0.949 . S
C523 C522 1.390 . S
C523 C524 1.357 . S
C524 C520 1.370 . S
C524 C523 1.357 . S
C524 H543 0.950 . S
Zn525 N519 2.020 . S
Zn525 O528 2.025 . S
Zn525 O533 2.024 . S
Zn525 O535 2.039 . S
Zn525 O537 2.034 . S
O526 C510 1.251 1_554 S
O526 Zn517 2.039 . S
C527 O532 1.246 1_545 S
C527 O533 1.249 1_545 S
O528 C510 1.254 1_554 S
O528 Zn525 2.025 . S
H529 C521 0.952 . S
H530 C512 0.952 . S
H531 C520 0.948 . S
O532 Zn517 2.034 . S
O532 C527 1.246 1_565 S
O533 Zn525 2.024 . S
O533 C527 1.249 1_565 S
H534 C516 0.948 . S
O535 Zn525 2.039 . S
O535 C539 1.251 . S
O536 Zn517 2.025 . S
O536 C539 1.254 . S
O537 C518 1.246 . S
O537 Zn525 2.034 . S
O538 Zn517 2.024 . S
O538 C518 1.249 . S
C539 O535 1.251 . S
C539 O536 1.254 . S
H540 C513 0.949 . S
H541 C515 0.950 . S
H542 C522 0.949 . S
H543 C524 0.950 . S
C29 C0 1.364 . S
C63 C34 1.355 . S
C68 C97 1.379 1_554 S
C102 C131 1.369 . S
C136 C165 1.380 . S
C199 C170 1.360 . S
C233 C204 1.371 . S
C267 C238 1.371 1_556 S
C301 C272 1.364 . S
C335 C306 1.384 1_554 S
C369 C340 1.359 . S
C403 C374 1.369 . S
C437 C408 1.356 . S
C442 C471 1.384 . S
C476 C505 1.376 1_554 S
C510 C539 1.368 . S
C4 C387 1.517 . S
C38 C523 1.359 . S
C85 C314 3.287 . S
C119 C455 0.719 1_556 S
C153 C450 1.484 . S
C382 C187 3.339 . S
C208 C518 2.856 . S
C242 C319 1.266 . S
C106 C280 0.998 . S
C51 C353 2.244 . S
C416 C174 2.022 . S
C255 C489 1.375 . S
C285 C140 2.164 . S
C221 C348 4.884 . S
C72 C484 1.073 . S
C17 C421 3.126 1_455 S
C13 C144 1.441 . S
C47 C178 2.316 . S
C76 C217 3.098 . S
C110 C251 3.001 . S
C425 C289 2.516 . S
C446 C310 2.599 . S
C344 C480 1.550 . S
C514 C391 2.074 . S
C42 C246 2.052 1_565 S
C149 C81 2.533 . S
C183 C115 1.602 1_554 S
C8 C212 4.750 . S
C527 C323 2.940 . S
C412 C357 3.074 . S
C459 C378 2.207 1_556 S
C493 C276 3.259 . S
