# Generated by pormake.
# Topology fcr, (5)-cn, num edge types: 1
# Building blocks:
#     Node 0, Type 0, BuildingBlock: XOMCOT_clean_sbu_1, # of connection points: 5
#     Node 1, Type 0, BuildingBlock: XOMCOT_clean_sbu_1, # of connection points: 5
#     Node 2, Type 0, BuildingBlock: XOMCOT_clean_sbu_1, # of connection points: 5
#     Node 3, Type 0, BuildingBlock: XOMCOT_clean_sbu_1, # of connection points: 5
#     Node 4, Type 0, BuildingBlock: XOMCOT_clean_sbu_1, # of connection points: 5
#     Node 5, Type 0, BuildingBlock: XOMCOT_clean_sbu_1, # of connection points: 5
#     Node 6, Type 0, BuildingBlock: XOMCOT_clean_sbu_1, # of connection points: 5
#     Node 7, Type 0, BuildingBlock: XOMCOT_clean_sbu_1, # of connection points: 5
#     Node 8, Type 0, BuildingBlock: XOMCOT_clean_sbu_1, # of connection points: 5
#     Node 9, Type 0, BuildingBlock: XOMCOT_clean_sbu_1, # of connection points: 5
#     Node 10, Type 0, BuildingBlock: XOMCOT_clean_sbu_1, # of connection points: 5
#     Node 11, Type 0, BuildingBlock: XOMCOT_clean_sbu_1, # of connection points: 5
#     Node 12, Type 0, BuildingBlock: XOMCOT_clean_sbu_1, # of connection points: 5
#     Node 13, Type 0, BuildingBlock: XOMCOT_clean_sbu_1, # of connection points: 5
#     Node 14, Type 0, BuildingBlock: XOMCOT_clean_sbu_1, # of connection points: 5
#     Node 15, Type 0, BuildingBlock: XOMCOT_clean_sbu_1, # of connection points: 5
#     Node 16, Type 0, BuildingBlock: XOMCOT_clean_sbu_1, # of connection points: 5
#     Node 17, Type 0, BuildingBlock: XOMCOT_clean_sbu_1, # of connection points: 5
#     Node 18, Type 0, BuildingBlock: XOMCOT_clean_sbu_1, # of connection points: 5
#     Node 19, Type 0, BuildingBlock: XOMCOT_clean_sbu_1, # of connection points: 5
#     Node 20, Type 0, BuildingBlock: XOMCOT_clean_sbu_1, # of connection points: 5
#     Node 21, Type 0, BuildingBlock: XOMCOT_clean_sbu_1, # of connection points: 5
#     Node 22, Type 0, BuildingBlock: XOMCOT_clean_sbu_1, # of connection points: 5
#     Node 23, Type 0, BuildingBlock: XOMCOT_clean_sbu_1, # of connection points: 5
#     Node 24, Type 0, BuildingBlock: XOMCOT_clean_sbu_1, # of connection points: 5
#     Node 25, Type 0, BuildingBlock: XOMCOT_clean_sbu_1, # of connection points: 5
#     Node 26, Type 0, BuildingBlock: XOMCOT_clean_sbu_1, # of connection points: 5
#     Node 27, Type 0, BuildingBlock: XOMCOT_clean_sbu_1, # of connection points: 5
#     Node 28, Type 0, BuildingBlock: XOMCOT_clean_sbu_1, # of connection points: 5
#     Node 29, Type 0, BuildingBlock: XOMCOT_clean_sbu_1, # of connection points: 5
#     Node 30, Type 0, BuildingBlock: XOMCOT_clean_sbu_1, # of connection points: 5
#     Node 31, Type 0, BuildingBlock: XOMCOT_clean_sbu_1, # of connection points: 5
#     Node 32, Type 0, BuildingBlock: XOMCOT_clean_sbu_1, # of connection points: 5
#     Node 33, Type 0, BuildingBlock: XOMCOT_clean_sbu_1, # of connection points: 5
#     Node 34, Type 0, BuildingBlock: XOMCOT_clean_sbu_1, # of connection points: 5
#     Node 35, Type 0, BuildingBlock: XOMCOT_clean_sbu_1, # of connection points: 5
#     Node 36, Type 0, BuildingBlock: XOMCOT_clean_sbu_1, # of connection points: 5
#     Node 37, Type 0, BuildingBlock: XOMCOT_clean_sbu_1, # of connection points: 5
#     Node 38, Type 0, BuildingBlock: XOMCOT_clean_sbu_1, # of connection points: 5
#     Node 39, Type 0, BuildingBlock: XOMCOT_clean_sbu_1, # of connection points: 5
#     Node 40, Type 0, BuildingBlock: XOMCOT_clean_sbu_1, # of connection points: 5
#     Node 41, Type 0, BuildingBlock: XOMCOT_clean_sbu_1, # of connection points: 5
#     Node 42, Type 0, BuildingBlock: XOMCOT_clean_sbu_1, # of connection points: 5
#     Node 43, Type 0, BuildingBlock: XOMCOT_clean_sbu_1, # of connection points: 5
#     Node 44, Type 0, BuildingBlock: XOMCOT_clean_sbu_1, # of connection points: 5
#     Node 45, Type 0, BuildingBlock: XOMCOT_clean_sbu_1, # of connection points: 5
#     Node 46, Type 0, BuildingBlock: XOMCOT_clean_sbu_1, # of connection points: 5
#     Node 47, Type 0, BuildingBlock: XOMCOT_clean_sbu_1, # of connection points: 5
#     Edge 48, Type (0, 0), BuildingBlock: OJICUG_clean_linker_0, # of connection points: 2
#     Edge 49, Type (0, 0), BuildingBlock: OJICUG_clean_linker_0, # of connection points: 2
#     Edge 50, Type (0, 0), BuildingBlock: OJICUG_clean_linker_0, # of connection points: 2
#     Edge 51, Type (0, 0), BuildingBlock: OJICUG_clean_linker_0, # of connection points: 2
#     Edge 52, Type (0, 0), BuildingBlock: OJICUG_clean_linker_0, # of connection points: 2
#     Edge 53, Type (0, 0), BuildingBlock: OJICUG_clean_linker_0, # of connection points: 2
#     Edge 54, Type (0, 0), BuildingBlock: OJICUG_clean_linker_0, # of connection points: 2
#     Edge 55, Type (0, 0), BuildingBlock: OJICUG_clean_linker_0, # of connection points: 2
#     Edge 56, Type (0, 0), BuildingBlock: OJICUG_clean_linker_0, # of connection points: 2
#     Edge 57, Type (0, 0), BuildingBlock: OJICUG_clean_linker_0, # of connection points: 2
#     Edge 58, Type (0, 0), BuildingBlock: OJICUG_clean_linker_0, # of connection points: 2
#     Edge 59, Type (0, 0), BuildingBlock: OJICUG_clean_linker_0, # of connection points: 2
#     Edge 60, Type (0, 0), BuildingBlock: OJICUG_clean_linker_0, # of connection points: 2
#     Edge 61, Type (0, 0), BuildingBlock: OJICUG_clean_linker_0, # of connection points: 2
#     Edge 62, Type (0, 0), BuildingBlock: OJICUG_clean_linker_0, # of connection points: 2
#     Edge 63, Type (0, 0), BuildingBlock: OJICUG_clean_linker_0, # of connection points: 2
#     Edge 64, Type (0, 0), BuildingBlock: OJICUG_clean_linker_0, # of connection points: 2
#     Edge 65, Type (0, 0), BuildingBlock: OJICUG_clean_linker_0, # of connection points: 2
#     Edge 66, Type (0, 0), BuildingBlock: OJICUG_clean_linker_0, # of connection points: 2
#     Edge 67, Type (0, 0), BuildingBlock: OJICUG_clean_linker_0, # of connection points: 2
#     Edge 68, Type (0, 0), BuildingBlock: OJICUG_clean_linker_0, # of connection points: 2
#     Edge 69, Type (0, 0), BuildingBlock: OJICUG_clean_linker_0, # of connection points: 2
#     Edge 70, Type (0, 0), BuildingBlock: OJICUG_clean_linker_0, # of connection points: 2
#     Edge 71, Type (0, 0), BuildingBlock: OJICUG_clean_linker_0, # of connection points: 2
#     Edge 72, Type (0, 0), BuildingBlock: OJICUG_clean_linker_0, # of connection points: 2
#     Edge 73, Type (0, 0), BuildingBlock: OJICUG_clean_linker_0, # of connection points: 2
#     Edge 74, Type (0, 0), BuildingBlock: OJICUG_clean_linker_0, # of connection points: 2
#     Edge 75, Type (0, 0), BuildingBlock: OJICUG_clean_linker_0, # of connection points: 2
#     Edge 76, Type (0, 0), BuildingBlock: OJICUG_clean_linker_0, # of connection points: 2
#     Edge 77, Type (0, 0), BuildingBlock: OJICUG_clean_linker_0, # of connection points: 2
#     Edge 78, Type (0, 0), BuildingBlock: OJICUG_clean_linker_0, # of connection points: 2
#     Edge 79, Type (0, 0), BuildingBlock: OJICUG_clean_linker_0, # of connection points: 2
#     Edge 80, Type (0, 0), BuildingBlock: OJICUG_clean_linker_0, # of connection points: 2
#     Edge 81, Type (0, 0), BuildingBlock: OJICUG_clean_linker_0, # of connection points: 2
#     Edge 82, Type (0, 0), BuildingBlock: OJICUG_clean_linker_0, # of connection points: 2
#     Edge 83, Type (0, 0), BuildingBlock: OJICUG_clean_linker_0, # of connection points: 2
#     Edge 84, Type (0, 0), BuildingBlock: OJICUG_clean_linker_0, # of connection points: 2
#     Edge 85, Type (0, 0), BuildingBlock: OJICUG_clean_linker_0, # of connection points: 2
#     Edge 86, Type (0, 0), BuildingBlock: OJICUG_clean_linker_0, # of connection points: 2
#     Edge 87, Type (0, 0), BuildingBlock: OJICUG_clean_linker_0, # of connection points: 2
#     Edge 88, Type (0, 0), BuildingBlock: OJICUG_clean_linker_0, # of connection points: 2
#     Edge 89, Type (0, 0), BuildingBlock: OJICUG_clean_linker_0, # of connection points: 2
#     Edge 90, Type (0, 0), BuildingBlock: OJICUG_clean_linker_0, # of connection points: 2
#     Edge 91, Type (0, 0), BuildingBlock: OJICUG_clean_linker_0, # of connection points: 2
#     Edge 92, Type (0, 0), BuildingBlock: OJICUG_clean_linker_0, # of connection points: 2
#     Edge 93, Type (0, 0), BuildingBlock: OJICUG_clean_linker_0, # of connection points: 2
#     Edge 94, Type (0, 0), BuildingBlock: OJICUG_clean_linker_0, # of connection points: 2
#     Edge 95, Type (0, 0), BuildingBlock: OJICUG_clean_linker_0, # of connection points: 2
#     Edge 96, Type (0, 0), BuildingBlock: OJICUG_clean_linker_0, # of connection points: 2
#     Edge 97, Type (0, 0), BuildingBlock: OJICUG_clean_linker_0, # of connection points: 2
#     Edge 98, Type (0, 0), BuildingBlock: OJICUG_clean_linker_0, # of connection points: 2
#     Edge 99, Type (0, 0), BuildingBlock: OJICUG_clean_linker_0, # of connection points: 2
#     Edge 100, Type (0, 0), BuildingBlock: OJICUG_clean_linker_0, # of connection points: 2
#     Edge 101, Type (0, 0), BuildingBlock: OJICUG_clean_linker_0, # of connection points: 2
#     Edge 102, Type (0, 0), BuildingBlock: OJICUG_clean_linker_0, # of connection points: 2
#     Edge 103, Type (0, 0), BuildingBlock: OJICUG_clean_linker_0, # of connection points: 2
#     Edge 104, Type (0, 0), BuildingBlock: OJICUG_clean_linker_0, # of connection points: 2
#     Edge 105, Type (0, 0), BuildingBlock: OJICUG_clean_linker_0, # of connection points: 2
#     Edge 106, Type (0, 0), BuildingBlock: OJICUG_clean_linker_0, # of connection points: 2
#     Edge 107, Type (0, 0), BuildingBlock: OJICUG_clean_linker_0, # of connection points: 2
#     Edge 108, Type (0, 0), BuildingBlock: OJICUG_clean_linker_0, # of connection points: 2
#     Edge 109, Type (0, 0), BuildingBlock: OJICUG_clean_linker_0, # of connection points: 2
#     Edge 110, Type (0, 0), BuildingBlock: OJICUG_clean_linker_0, # of connection points: 2
#     Edge 111, Type (0, 0), BuildingBlock: OJICUG_clean_linker_0, # of connection points: 2
#     Edge 112, Type (0, 0), BuildingBlock: OJICUG_clean_linker_0, # of connection points: 2
#     Edge 113, Type (0, 0), BuildingBlock: OJICUG_clean_linker_0, # of connection points: 2
#     Edge 114, Type (0, 0), BuildingBlock: OJICUG_clean_linker_0, # of connection points: 2
#     Edge 115, Type (0, 0), BuildingBlock: OJICUG_clean_linker_0, # of connection points: 2
#     Edge 116, Type (0, 0), BuildingBlock: OJICUG_clean_linker_0, # of connection points: 2
#     Edge 117, Type (0, 0), BuildingBlock: OJICUG_clean_linker_0, # of connection points: 2
#     Edge 118, Type (0, 0), BuildingBlock: OJICUG_clean_linker_0, # of connection points: 2
#     Edge 119, Type (0, 0), BuildingBlock: OJICUG_clean_linker_0, # of connection points: 2
#     Edge 120, Type (0, 0), BuildingBlock: OJICUG_clean_linker_0, # of connection points: 2
#     Edge 121, Type (0, 0), BuildingBlock: OJICUG_clean_linker_0, # of connection points: 2
#     Edge 122, Type (0, 0), BuildingBlock: OJICUG_clean_linker_0, # of connection points: 2
#     Edge 123, Type (0, 0), BuildingBlock: OJICUG_clean_linker_0, # of connection points: 2
#     Edge 124, Type (0, 0), BuildingBlock: OJICUG_clean_linker_0, # of connection points: 2
#     Edge 125, Type (0, 0), BuildingBlock: OJICUG_clean_linker_0, # of connection points: 2
#     Edge 126, Type (0, 0), BuildingBlock: OJICUG_clean_linker_0, # of connection points: 2
#     Edge 127, Type (0, 0), BuildingBlock: OJICUG_clean_linker_0, # of connection points: 2
#     Edge 128, Type (0, 0), BuildingBlock: OJICUG_clean_linker_0, # of connection points: 2
#     Edge 129, Type (0, 0), BuildingBlock: OJICUG_clean_linker_0, # of connection points: 2
#     Edge 130, Type (0, 0), BuildingBlock: OJICUG_clean_linker_0, # of connection points: 2
#     Edge 131, Type (0, 0), BuildingBlock: OJICUG_clean_linker_0, # of connection points: 2
#     Edge 132, Type (0, 0), BuildingBlock: OJICUG_clean_linker_0, # of connection points: 2
#     Edge 133, Type (0, 0), BuildingBlock: OJICUG_clean_linker_0, # of connection points: 2
#     Edge 134, Type (0, 0), BuildingBlock: OJICUG_clean_linker_0, # of connection points: 2
#     Edge 135, Type (0, 0), BuildingBlock: OJICUG_clean_linker_0, # of connection points: 2
#     Edge 136, Type (0, 0), BuildingBlock: OJICUG_clean_linker_0, # of connection points: 2
#     Edge 137, Type (0, 0), BuildingBlock: OJICUG_clean_linker_0, # of connection points: 2
#     Edge 138, Type (0, 0), BuildingBlock: OJICUG_clean_linker_0, # of connection points: 2
#     Edge 139, Type (0, 0), BuildingBlock: OJICUG_clean_linker_0, # of connection points: 2
#     Edge 140, Type (0, 0), BuildingBlock: OJICUG_clean_linker_0, # of connection points: 2
#     Edge 141, Type (0, 0), BuildingBlock: OJICUG_clean_linker_0, # of connection points: 2
#     Edge 142, Type (0, 0), BuildingBlock: OJICUG_clean_linker_0, # of connection points: 2
#     Edge 143, Type (0, 0), BuildingBlock: OJICUG_clean_linker_0, # of connection points: 2
#     Edge 144, Type (0, 0), BuildingBlock: OJICUG_clean_linker_0, # of connection points: 2
#     Edge 145, Type (0, 0), BuildingBlock: OJICUG_clean_linker_0, # of connection points: 2
#     Edge 146, Type (0, 0), BuildingBlock: OJICUG_clean_linker_0, # of connection points: 2
#     Edge 147, Type (0, 0), BuildingBlock: OJICUG_clean_linker_0, # of connection points: 2
#     Edge 148, Type (0, 0), BuildingBlock: OJICUG_clean_linker_0, # of connection points: 2
#     Edge 149, Type (0, 0), BuildingBlock: OJICUG_clean_linker_0, # of connection points: 2
#     Edge 150, Type (0, 0), BuildingBlock: OJICUG_clean_linker_0, # of connection points: 2
#     Edge 151, Type (0, 0), BuildingBlock: OJICUG_clean_linker_0, # of connection points: 2
#     Edge 152, Type (0, 0), BuildingBlock: OJICUG_clean_linker_0, # of connection points: 2
#     Edge 153, Type (0, 0), BuildingBlock: OJICUG_clean_linker_0, # of connection points: 2
#     Edge 154, Type (0, 0), BuildingBlock: OJICUG_clean_linker_0, # of connection points: 2
#     Edge 155, Type (0, 0), BuildingBlock: OJICUG_clean_linker_0, # of connection points: 2
#     Edge 156, Type (0, 0), BuildingBlock: OJICUG_clean_linker_0, # of connection points: 2
#     Edge 157, Type (0, 0), BuildingBlock: OJICUG_clean_linker_0, # of connection points: 2
#     Edge 158, Type (0, 0), BuildingBlock: OJICUG_clean_linker_0, # of connection points: 2
#     Edge 159, Type (0, 0), BuildingBlock: OJICUG_clean_linker_0, # of connection points: 2
#     Edge 160, Type (0, 0), BuildingBlock: OJICUG_clean_linker_0, # of connection points: 2
#     Edge 161, Type (0, 0), BuildingBlock: OJICUG_clean_linker_0, # of connection points: 2
#     Edge 162, Type (0, 0), BuildingBlock: OJICUG_clean_linker_0, # of connection points: 2
#     Edge 163, Type (0, 0), BuildingBlock: OJICUG_clean_linker_0, # of connection points: 2
#     Edge 164, Type (0, 0), BuildingBlock: OJICUG_clean_linker_0, # of connection points: 2
#     Edge 165, Type (0, 0), BuildingBlock: OJICUG_clean_linker_0, # of connection points: 2
#     Edge 166, Type (0, 0), BuildingBlock: OJICUG_clean_linker_0, # of connection points: 2
#     Edge 167, Type (0, 0), BuildingBlock: OJICUG_clean_linker_0, # of connection points: 2
# Relax obj value: 0.105
# Max RMSD: 0.137
# Mean RMSD: 0.137
data_MOF--net-fcr--node1-XOMCOT_clean_sbu_1--edge1-OJICUG_clean_linker_0
_symmetry_space_group_name_H-M    P1
_symmetry_Int_Tables_number       1
_symmetry_cell_setting            triclinic
loop_
_symmetry_equiv_pos_as_xyz
'x, y, z'
_cell_length_a     49.777211
_cell_length_b     49.693634
_cell_length_c     49.625808
_cell_angle_alpha  90.020461
_cell_angle_beta   90.025365
_cell_angle_gamma 90.038044
loop_
_atom_site_label
_atom_site_type_symbol
_atom_site_fract_x
_atom_site_fract_y
_atom_site_fract_z
_atom_type_partial_charge
C0 C 0.10461 0.35431 0.23992 0.0
C1 C 0.10185 0.37275 0.21932 0.0
N2 N 0.12432 0.38779 0.21827 0.0
N3 N 0.12864 0.35784 0.25215 0.0
C4 C 0.14009 0.37844 0.23835 0.0
H5 H 0.09024 0.33878 0.24488 0.0
Co6 Co 0.14503 0.33706 0.27989 0.0
C7 C 0.13142 0.3902 0.30623 0.0
O8 O 0.11254 0.39557 0.28855 0.0
N9 N 0.16171 0.31645 0.30669 0.0
C10 C 0.17667 0.29933 0.34533 0.0
C11 C 0.16173 0.31963 0.33372 0.0
C12 C 0.17649 0.2941 0.30241 0.0
N13 N 0.18586 0.28323 0.32554 0.0
O14 O 0.17984 0.34718 0.26683 0.0
H15 H 0.15117 0.33535 0.34441 0.0
H16 H 0.1802 0.28588 0.28259 0.0
O17 O 0.1444 0.368 0.30478 0.0
C18 C 0.18466 0.3321 0.24657 0.0
O19 O 0.16587 0.31514 0.23888 0.0
N20 N 0.11159 0.32331 0.29088 0.0
C21 C 0.06493 0.29232 0.29809 0.0
C22 C 0.06673 0.31879 0.30837 0.0
C23 C 0.09044 0.33395 0.30477 0.0
C24 C 0.11029 0.29766 0.28131 0.0
C25 C 0.0876 0.28179 0.28506 0.0
H26 H 0.09138 0.35413 0.31265 0.0
H27 H 0.12718 0.28945 0.27038 0.0
H28 H 0.15988 0.38633 0.24267 0.0
H29 H 0.08523 0.37403 0.20531 0.0
H30 H 0.17977 0.29617 0.36669 0.0
H31 H 0.04986 0.32803 0.31852 0.0
H32 H 0.08801 0.26135 0.27755 0.0
C33 C 0.59528 0.66593 0.04998 0.0
C34 C 0.6136 0.66932 0.07053 0.0
N35 N 0.63567 0.65458 0.06493 0.0
N36 N 0.60576 0.6494 0.03121 0.0
C37 C 0.63034 0.64287 0.04084 0.0
H38 H 0.575 0.67374 0.04953 0.0
Co39 Co 0.5874 0.63281 1.00253 0.0
C40 C 0.62877 0.64852 0.96031 0.0
O41 O 0.61306 0.66683 0.94964 0.0
N42 N 0.56905 0.61484 0.97424 0.0
C43 C 0.55373 0.59754 0.93565 0.0
C44 C 0.57336 0.61327 0.94737 0.0
C45 C 0.54695 0.59954 0.97823 0.0
N46 N 0.53698 0.58914 0.95516 0.0
O47 O 0.59753 0.59837 0.01674 0.0
H48 H 0.58934 0.62301 0.93651 0.0
H49 H 0.53786 0.59666 0.99779 0.0
O50 O 0.62054 0.6343 0.98024 0.0
C51 C 0.58082 0.59371 0.03572 0.0
O52 O 0.56281 0.61228 0.04118 0.0
N53 N 0.57364 0.66685 0.99115 0.0
C54 C 0.54486 0.71517 0.98549 0.0
C55 C 0.573 0.71535 0.98828 0.0
C56 C 0.58697 0.69096 0.99166 0.0
C57 C 0.54629 0.66672 0.98882 0.0
C58 C 0.53172 0.69033 0.98538 0.0
H59 H 0.60833 0.69151 0.99569 0.0
H60 H 0.53507 0.64839 0.99133 0.0
H61 H 0.64345 0.62864 0.03091 0.0
H62 H 0.61009 0.6804 0.08896 0.0
H63 H 0.55142 0.59345 0.91435 0.0
H64 H 0.58394 0.73417 0.98922 0.0
H65 H 0.51007 0.68908 0.98356 0.0
C66 C 0.91443 0.18416 0.23532 0.0
C67 C 0.91781 0.16613 0.21452 0.0
N68 N 0.90306 0.14391 0.21968 0.0
N69 N 0.89788 0.17342 0.2539 0.0
C70 C 0.8913 0.14893 0.24384 0.0
H71 H 0.92228 0.20445 0.2361 0.0
Co72 Co 0.88144 0.192 0.28262 0.0
C73 C 0.89504 0.15224 0.32628 0.0
O74 O 0.91069 0.1699 0.33818 0.0
N75 N 0.86328 0.21088 0.31051 0.0
C76 C 0.84062 0.22462 0.34686 0.0
C77 C 0.8561 0.20432 0.33599 0.0
C78 C 0.85117 0.23488 0.30633 0.0
N79 N 0.83771 0.24394 0.32814 0.0
O80 O 0.84704 0.18245 0.26814 0.0
H81 H 0.86079 0.18578 0.34616 0.0
H82 H 0.85212 0.24551 0.28735 0.0
O83 O 0.88229 0.15876 0.30479 0.0
C84 C 0.84225 0.19919 0.24924 0.0
O85 O 0.86074 0.21724 0.24364 0.0
N86 N 0.91589 0.2046 0.29482 0.0
C87 C 0.96605 0.22952 0.3024 0.0
C88 C 0.96425 0.2017 0.29763 0.0
C89 C 0.93896 0.18959 0.29395 0.0
C90 C 0.91769 0.23174 0.29907 0.0
C91 C 0.9423 0.24437 0.30361 0.0
H92 H 0.93798 0.16835 0.28931 0.0
H93 H 0.90035 0.24442 0.29725 0.0
H94 H 0.877 0.13571 0.25353 0.0
H95 H 0.929 0.16998 0.19624 0.0
H96 H 0.83227 0.22511 0.36698 0.0
H97 H 0.98224 0.18956 0.29604 0.0
H98 H 0.94282 0.26602 0.30619 0.0
C99 C 0.43394 0.864 0.04945 0.0
C100 C 0.41569 0.86071 0.07004 0.0
N101 N 0.39396 0.8761 0.06488 0.0
N102 N 0.42375 0.88114 0.03106 0.0
C103 C 0.3994 0.88812 0.04097 0.0
H104 H 0.454 0.85569 0.04872 0.0
Co105 Co 0.44249 0.89767 1.00263 0.0
C106 C 0.40218 0.88351 0.95914 0.0
O107 O 0.41904 0.867 0.94731 0.0
N108 N 0.46146 0.91567 0.97472 0.0
C109 C 0.47592 0.93627 0.93744 0.0
C110 C 0.45563 0.92104 0.94863 0.0
C111 C 0.48507 0.92851 0.97887 0.0
N112 N 0.49454 0.94077 0.95653 0.0
O113 O 0.43277 0.93209 0.01696 0.0
H114 H 0.43775 0.91495 0.93807 0.0
H115 H 0.49522 0.92882 0.99814 0.0
O116 O 0.40944 0.89667 0.98016 0.0
C117 C 0.44947 0.93656 0.03599 0.0
O118 O 0.4674 0.91789 0.04138 0.0
N119 N 0.45556 0.86349 0.99101 0.0
C120 C 0.48236 0.81414 0.98432 0.0
C121 C 0.45416 0.81517 0.98645 0.0
C122 C 0.44118 0.84002 0.99023 0.0
C123 C 0.48295 0.86248 0.98974 0.0
C124 C 0.49659 0.83835 0.98589 0.0
H125 H 0.41968 0.84032 0.99342 0.0
H126 H 0.4948 0.88015 0.99357 0.0
H127 H 0.38659 0.90285 0.0314 0.0
H128 H 0.41905 0.84919 0.08823 0.0
H129 H 0.477 0.94316 0.91678 0.0
H130 H 0.44227 0.79694 0.98586 0.0
H131 H 0.51835 0.83862 0.9858 0.0
C132 C 0.11322 0.68339 0.29602 0.0
C133 C 0.10957 0.66521 0.31664 0.0
N134 N 0.12397 0.64284 0.31122 0.0
N135 N 0.12957 0.67258 0.2773 0.0
C136 C 0.13581 0.64792 0.2871 0.0
H137 H 0.10566 0.70378 0.29544 0.0
Co138 Co 0.14608 0.69127 0.24869 0.0
C139 C 0.13241 0.64961 0.20621 0.0
O140 O 0.11395 0.66503 0.19538 0.0
N141 N 0.16413 0.71016 0.22089 0.0
C142 C 0.18314 0.72574 0.18325 0.0
C143 C 0.16748 0.70559 0.19422 0.0
C144 C 0.17828 0.73293 0.22552 0.0
N145 N 0.18973 0.74304 0.20303 0.0
O146 O 0.1805 0.68205 0.26353 0.0
H147 H 0.15917 0.68895 0.18308 0.0
H148 H 0.17973 0.74226 0.24514 0.0
O149 O 0.14606 0.65799 0.22646 0.0
C150 C 0.18505 0.69852 0.28275 0.0
O151 O 0.16634 0.71625 0.28859 0.0
N152 N 0.11163 0.70374 0.23622 0.0
C153 C 0.06174 0.72941 0.22912 0.0
C154 C 0.06315 0.70171 0.23468 0.0
C155 C 0.08828 0.68925 0.23814 0.0
C156 C 0.11024 0.73076 0.23103 0.0
C157 C 0.08577 0.74372 0.22675 0.0
H158 H 0.0889 0.66815 0.24347 0.0
H159 H 0.12789 0.74319 0.23192 0.0
H160 H 0.1499 0.6346 0.27727 0.0
H161 H 0.09847 0.66904 0.33497 0.0
H162 H 0.18858 0.72787 0.16224 0.0
H163 H 0.04498 0.68995 0.23708 0.0
H164 H 0.08563 0.76528 0.22349 0.0
C165 C 0.93227 0.6694 0.9874 0.0
C166 C 0.91358 0.67342 0.96728 0.0
N167 N 0.89434 0.65453 0.96967 0.0
N168 N 0.92459 0.64836 1.00281 0.0
C169 C 0.90147 0.63966 0.9913 0.0
H170 H 0.95088 0.68038 0.98982 0.0
Co171 Co 0.94362 0.63112 0.0308 0.0
C172 C 0.90607 0.64331 0.07643 0.0
O173 O 0.92553 0.65528 0.08972 0.0
N174 N 0.96259 0.61234 0.05834 0.0
C175 C 0.97386 0.586 0.09307 0.0
C176 C 0.95362 0.60078 0.08136 0.0
C177 C 0.98803 0.60297 0.05605 0.0
N178 N 0.9956 0.58751 0.07712 0.0
O179 O 0.93344 0.59689 0.0162 0.0
H180 H 0.93327 0.60128 0.0887 0.0
H181 H 1.00033 0.60603 0.03837 0.0
O182 O 0.91084 0.63261 0.05341 0.0
C183 C 0.95054 0.59203 0.99767 0.0
O184 O 0.96903 0.61031 0.99282 0.0
N185 N 0.95702 0.66512 0.04294 0.0
C186 C 0.98343 0.71452 0.05082 0.0
C187 C 0.9552 0.71292 0.0514 0.0
C188 C 0.94235 0.68804 0.04717 0.0
C189 C 0.98434 0.66684 0.04139 0.0
C190 C 0.99789 0.69094 0.04594 0.0
H191 H 0.92066 0.68744 0.04606 0.0
H192 H 0.99594 0.64994 0.03467 0.0
H193 H 0.89065 0.62196 0.99794 0.0
H194 H 0.91499 0.68792 0.95106 0.0
H195 H 0.97241 0.5745 0.11153 0.0
H196 H 0.94316 0.73082 0.05438 0.0
H197 H 0.01955 0.69137 0.04389 0.0
C198 C 0.92282 0.85264 0.29428 0.0
C199 C 0.9258 0.87084 0.31503 0.0
N200 N 0.90471 0.88787 0.31474 0.0
N201 N 0.90006 0.85816 0.28058 0.0
C202 C 0.88952 0.87969 0.29362 0.0
H203 H 0.93615 0.836 0.2901 0.0
Co204 Co 0.88352 0.838 0.25262 0.0
C205 C 0.89723 0.89146 0.22648 0.0
O206 O 0.91618 0.89695 0.24408 0.0
N207 N 0.86665 0.81788 0.2256 0.0
C208 C 0.8517 0.80099 0.18684 0.0
C209 C 0.86663 0.82125 0.1986 0.0
C210 C 0.85188 0.7955 0.22972 0.0
N211 N 0.84255 0.78474 0.20652 0.0
O212 O 0.84884 0.84826 0.26596 0.0
H213 H 0.87727 0.83699 0.18801 0.0
H214 H 0.84825 0.78707 0.24947 0.0
O215 O 0.88431 0.86922 0.22805 0.0
C216 C 0.84401 0.8329 0.286 0.0
O217 O 0.86269 0.81564 0.29323 0.0
N218 N 0.91688 0.82416 0.24142 0.0
C219 C 0.96346 0.79312 0.23402 0.0
C220 C 0.96197 0.81987 0.22446 0.0
C221 C 0.93833 0.83507 0.22819 0.0
C222 C 0.91789 0.79824 0.25027 0.0
C223 C 0.94055 0.78236 0.24643 0.0
H224 H 0.93766 0.8555 0.22097 0.0
H225 H 0.90085 0.78984 0.26082 0.0
H226 H 0.87054 0.88868 0.2881 0.0
H227 H 0.94216 0.87114 0.32937 0.0
H228 H 0.84865 0.7979 0.16546 0.0
H229 H 0.97906 0.82926 0.21481 0.0
H230 H 0.93996 0.76175 0.25341 0.0
C231 C 0.09757 0.8597 0.98567 0.0
C232 C 0.11634 0.85582 0.96559 0.0
N233 N 0.13636 0.87372 0.96911 0.0
N234 N 0.10596 0.87965 1.00213 0.0
C235 C 0.12959 0.88782 0.99138 0.0
H236 H 0.07843 0.84953 0.98734 0.0
Co237 Co 0.08734 0.89688 0.03033 0.0
C238 C 0.12603 0.88264 0.07469 0.0
O239 O 0.10747 0.86876 0.08736 0.0
N240 N 0.06895 0.91568 0.05821 0.0
C241 C 0.05713 0.93954 0.09452 0.0
C242 C 0.07696 0.92412 0.0829 0.0
C243 C 0.04461 0.92736 0.05507 0.0
N244 N 0.03668 0.94138 0.07698 0.0
O245 O 0.09787 0.93114 0.01589 0.0
H246 H 0.09631 0.92066 0.09192 0.0
H247 H 0.03312 0.92621 0.0366 0.0
O248 O 0.12025 0.89485 0.05269 0.0
C249 C 0.08095 0.93612 0.99719 0.0
O250 O 0.0626 0.91781 0.9919 0.0
N251 N 0.07328 0.86299 0.04215 0.0
C252 C 0.0447 0.8145 0.04892 0.0
C253 C 0.07302 0.81477 0.04841 0.0
C254 C 0.08694 0.8392 0.04465 0.0
C255 C 0.04587 0.86267 0.04211 0.0
C256 C 0.03137 0.83912 0.04627 0.0
H257 H 0.10856 0.83883 0.04253 0.0
H258 H 0.03471 0.88043 0.0371 0.0
H259 H 0.14102 0.90473 0.999 0.0
H260 H 0.11446 0.84225 0.94862 0.0
H261 H 0.05782 0.94876 0.11427 0.0
H262 H 0.08432 0.7962 0.0496 0.0
H263 H 1.00965 0.84027 0.04647 0.0
C264 C 0.24145 0.102 0.36298 0.0
C265 C 0.22092 0.0991 0.38137 0.0
N266 N 0.21691 0.12296 0.39347 0.0
N267 N 0.25069 0.12763 0.3635 0.0
C268 C 0.23522 0.13977 0.38248 0.0
H269 H 0.24868 0.08624 0.34988 0.0
Co270 Co 0.27779 0.1442 0.34177 0.0
C271 C 0.30598 0.13119 0.3939 0.0
O272 O 0.29078 0.11003 0.39825 0.0
N273 N 0.30404 0.16071 0.32058 0.0
C274 C 0.34234 0.17669 0.30385 0.0
C275 C 0.33088 0.16202 0.32442 0.0
C276 C 0.29974 0.17437 0.2975 0.0
N277 N 0.32267 0.18441 0.28691 0.0
O278 O 0.26383 0.17927 0.35074 0.0
H279 H 0.34159 0.15274 0.34093 0.0
H280 H 0.28004 0.17707 0.28873 0.0
O281 O 0.30258 0.14523 0.37257 0.0
C282 C 0.24415 0.18357 0.33477 0.0
O283 O 0.23709 0.16412 0.31826 0.0
N284 N 0.28956 0.11061 0.3289 0.0
C285 C 0.29715 0.06347 0.29882 0.0
C286 C 0.31266 0.06855 0.32207 0.0
C287 C 0.30864 0.09251 0.3369 0.0
C288 C 0.27549 0.10644 0.30574 0.0
C289 C 0.27889 0.08322 0.29053 0.0
H290 H 0.32075 0.09631 0.35453 0.0
H291 H 0.2611 0.12132 0.29916 0.0
H292 H 0.23709 0.1607 0.38814 0.0
H293 H 0.20909 0.08112 0.38472 0.0
H294 H 0.36354 0.18082 0.30126 0.0
H295 H 0.32723 0.05395 0.32903 0.0
H296 H 0.26701 0.08069 0.27241 0.0
C297 C 0.36012 0.54092 0.9281 0.0
C298 C 0.35586 0.56149 0.90999 0.0
N299 N 0.37466 0.55985 0.8906 0.0
N300 N 0.38117 0.52587 0.9199 0.0
C301 C 0.38975 0.53817 0.89707 0.0
H302 H 0.34935 0.53805 0.9468 0.0
Co303 Co 0.39855 0.49774 0.93881 0.0
C304 C 0.38576 0.45311 0.89951 0.0
O305 O 0.37187 0.43999 0.91777 0.0
N306 N 0.41732 0.47029 0.95785 0.0
C307 C 0.44118 0.43449 0.97093 0.0
C308 C 0.42614 0.4456 0.95044 0.0
C309 C 0.42829 0.4739 0.98256 0.0
N310 N 0.44235 0.45234 0.99125 0.0
O311 O 0.4327 0.51247 0.92875 0.0
H312 H 0.42308 0.43625 0.93111 0.0
H313 H 0.4266 0.49249 0.99376 0.0
O314 O 0.39745 0.47529 0.90567 0.0
C315 C 0.43733 0.53122 0.94572 0.0
O316 O 0.41869 0.53659 0.9637 0.0
N317 N 0.3647 0.48541 0.95229 0.0
C318 C 0.3158 0.47786 0.97965 0.0
C319 C 0.31679 0.47788 0.95129 0.0
C320 C 0.34142 0.48196 0.93797 0.0
C321 C 0.36361 0.48622 0.97977 0.0
C322 C 0.33977 0.48188 0.99374 0.0
H323 H 0.34158 0.48363 0.91624 0.0
H324 H 0.3809 0.49218 0.99126 0.0
H325 H 0.40755 0.53214 0.8861 0.0
H326 H 0.34134 0.57757 0.91199 0.0
H327 H 0.45057 0.41486 0.9708 0.0
H328 H 0.29862 0.4755 0.93951 0.0
H329 H 0.3399 0.48344 1.01552 0.0
C330 C 0.78553 0.42714 0.35926 0.0
C331 C 0.80583 0.43015 0.37789 0.0
N332 N 0.80884 0.4067 0.39104 0.0
N333 N 0.77544 0.40187 0.36072 0.0
C334 C 0.79019 0.39004 0.38043 0.0
H335 H 0.77908 0.44249 0.3453 0.0
Co336 Co 0.7483 0.38524 0.33924 0.0
C337 C 0.72077 0.39872 0.39154 0.0
O338 O 0.73714 0.41887 0.39644 0.0
N339 N 0.72211 0.36866 0.31817 0.0
C340 C 0.68395 0.35315 0.3007 0.0
C341 C 0.69518 0.36786 0.3214 0.0
C342 C 0.72672 0.35469 0.29537 0.0
N343 N 0.70389 0.34496 0.28432 0.0
O344 O 0.76178 0.35022 0.34898 0.0
H345 H 0.68427 0.3777 0.33744 0.0
H346 H 0.74656 0.3517 0.28702 0.0
O347 O 0.72332 0.38504 0.36985 0.0
C348 C 0.78204 0.34532 0.33397 0.0
O349 O 0.78989 0.3642 0.31717 0.0
N350 N 0.7369 0.41867 0.32589 0.0
C351 C 0.72978 0.4657 0.29568 0.0
C352 C 0.71498 0.46138 0.31952 0.0
C353 C 0.71876 0.43746 0.33441 0.0
C354 C 0.75027 0.42212 0.30222 0.0
C355 C 0.74705 0.44528 0.2869 0.0
H356 H 0.70735 0.43434 0.35262 0.0
H357 H 0.76402 0.40673 0.29538 0.0
H358 H 0.78757 0.36943 0.3869 0.0
H359 H 0.81825 0.44783 0.38069 0.0
H360 H 0.66275 0.34945 0.29752 0.0
H361 H 0.70124 0.47656 0.3269 0.0
H362 H 0.75838 0.44729 0.26837 0.0
C363 C 0.67112 0.98586 0.93254 0.0
C364 C 0.67471 0.96536 0.91417 0.0
N365 N 0.65693 0.96864 0.894 0.0
N366 N 0.65158 1.00253 0.92373 0.0
C367 C 0.64317 0.99127 0.90029 0.0
H368 H 0.68113 0.98765 0.95181 0.0
Co369 Co 0.63481 0.03083 0.94298 0.0
C370 C 0.64809 0.07424 0.90232 0.0
O371 O 0.66534 0.08571 0.91871 0.0
N372 N 0.61655 0.05831 0.96225 0.0
C373 C 0.59646 0.09549 0.97745 0.0
C374 C 0.61217 0.08472 0.95729 0.0
C375 C 0.60281 0.05359 0.98528 0.0
N376 N 0.59072 0.07585 0.99517 0.0
O377 O 0.60041 0.01613 0.93344 0.0
H378 H 0.61948 0.09584 0.94021 0.0
H379 H 0.60193 0.03404 0.99478 0.0
O380 O 0.63498 0.05335 0.90989 0.0
C381 C 0.59566 0.99644 0.94924 0.0
O382 O 0.61428 0.98982 0.96684 0.0
N383 N 0.66914 0.04334 0.95581 0.0
C384 C 0.71872 0.05141 0.98187 0.0
C385 C 0.7175 0.04721 0.95388 0.0
C386 C 0.69251 0.04325 0.94121 0.0
C387 C 0.67038 0.04702 0.98311 0.0
C388 C 0.69466 0.05178 0.99631 0.0
H389 H 0.69203 0.03896 0.91984 0.0
H390 H 0.65278 0.0446 0.99542 0.0
H391 H 0.62623 0.9987 0.88881 0.0
H392 H 0.68794 0.94824 0.91652 0.0
H393 H 0.59023 0.11628 0.97918 0.0
H394 H 0.73573 0.04626 0.94202 0.0
H395 H 0.69473 0.0539 0.01805 0.0
C396 C 0.24299 0.92632 0.17027 0.0
C397 C 0.22269 0.92929 0.15163 0.0
N398 N 0.21906 0.90558 0.13911 0.0
N399 N 0.25246 0.90079 0.16951 0.0
C400 C 0.23737 0.88879 0.15011 0.0
H401 H 0.24995 0.94197 0.18365 0.0
Co402 Co 0.27946 0.88412 0.19125 0.0
C403 C 0.30799 0.89889 0.1399 0.0
O404 O 0.29306 0.92039 0.13647 0.0
N405 N 0.30553 0.86748 0.21252 0.0
C406 C 0.34322 0.85011 0.22922 0.0
C407 C 0.33214 0.86438 0.20816 0.0
C408 C 0.301 0.85527 0.23634 0.0
N409 N 0.32355 0.84444 0.24695 0.0
O410 O 0.26607 0.84906 0.18138 0.0
H411 H 0.34297 0.87208 0.19094 0.0
H412 H 0.28137 0.85409 0.2456 0.0
O413 O 0.30448 0.88402 0.16064 0.0
C414 C 0.2462 0.84407 0.19688 0.0
O415 O 0.23866 0.86297 0.21379 0.0
N416 N 0.29074 0.91759 0.20493 0.0
C417 C 0.29771 0.96434 0.2358 0.0
C418 C 0.31398 0.95937 0.21308 0.0
C419 C 0.3103 0.93559 0.19788 0.0
C420 C 0.27593 0.9216 0.22763 0.0
C421 C 0.279 0.94463 0.24321 0.0
H422 H 0.32308 0.93182 0.18073 0.0
H423 H 0.26119 0.90675 0.23351 0.0
H424 H 0.23951 0.86798 0.14413 0.0
H425 H 0.21075 0.9472 0.14837 0.0
H426 H 0.36417 0.84478 0.23154 0.0
H427 H 0.32894 0.9739 0.20682 0.0
H428 H 0.26654 0.94703 0.26093 0.0
C429 C 0.17366 0.54374 0.09924 0.0
C430 C 0.17733 0.56407 0.1178 0.0
N431 N 0.15956 0.56061 0.13795 0.0
N432 N 0.15403 0.52708 0.10787 0.0
C433 C 0.14578 0.53804 0.13148 0.0
H434 H 0.18353 0.54223 0.07989 0.0
Co435 Co 0.13662 0.49929 0.0885 0.0
C436 C 0.15151 0.45521 0.12827 0.0
O437 O 0.16906 0.44436 0.11181 0.0
N438 N 0.11793 0.47208 0.06936 0.0
C439 C 0.0997 0.43441 0.05304 0.0
C440 C 0.11583 0.44516 0.07287 0.0
C441 C 0.10246 0.47708 0.04754 0.0
N442 N 0.09147 0.45456 0.03697 0.0
O443 O 0.1025 0.51344 0.09964 0.0
H444 H 0.12542 0.43358 0.08842 0.0
H445 H 0.09985 0.497 0.03916 0.0
O446 O 0.13807 0.47596 0.12094 0.0
C447 C 0.09748 0.53387 0.08487 0.0
O448 O 0.11569 0.54129 0.06716 0.0
N449 N 0.17024 0.48765 0.07377 0.0
C450 C 0.21771 0.48072 0.04368 0.0
C451 C 0.21844 0.48227 0.07203 0.0
C452 C 0.19451 0.48615 0.08668 0.0
C453 C 0.16956 0.48665 0.04626 0.0
C454 C 0.19266 0.4825 0.03105 0.0
H455 H 0.19562 0.48906 0.10826 0.0
H456 H 0.15121 0.49058 0.03552 0.0
H457 H 0.12882 0.53056 0.14289 0.0
H458 H 0.19048 0.58128 0.11554 0.0
H459 H 0.09521 0.41329 0.05013 0.0
H460 H 0.2374 0.48177 0.08272 0.0
H461 H 0.19081 0.48151 1.00933 0.0
C462 C 0.78608 0.60276 0.16951 0.0
C463 C 0.80658 0.5994 0.15119 0.0
N464 N 0.81144 0.62324 0.13939 0.0
N465 N 0.77768 0.62869 0.16926 0.0
C466 C 0.79367 0.64053 0.15051 0.0
H467 H 0.77818 0.58704 0.18226 0.0
Co468 Co 0.75074 0.64576 0.19088 0.0
C469 C 0.72242 0.63198 0.13912 0.0
O470 O 0.7372 0.6104 0.13554 0.0
N471 N 0.72474 0.66276 0.21204 0.0
C472 C 0.68685 0.67975 0.22866 0.0
C473 C 0.69801 0.66503 0.20796 0.0
C474 C 0.72927 0.6759 0.2354 0.0
N475 N 0.70659 0.68655 0.24594 0.0
O476 O 0.76493 0.68056 0.18151 0.0
H477 H 0.68715 0.6564 0.19117 0.0
H478 H 0.74897 0.67782 0.24438 0.0
O479 O 0.72595 0.64661 0.16004 0.0
C480 C 0.78462 0.6849 0.19747 0.0
O481 O 0.79155 0.66556 0.21414 0.0
N482 N 0.73866 0.61247 0.20406 0.0
C483 C 0.73071 0.56539 0.23399 0.0
C484 C 0.71456 0.57106 0.21135 0.0
C485 C 0.71875 0.59501 0.19661 0.0
C486 C 0.7533 0.60782 0.22676 0.0
C487 C 0.74977 0.58456 0.24186 0.0
H488 H 0.70613 0.59932 0.17947 0.0
H489 H 0.7683 0.62226 0.23297 0.0
H490 H 0.79256 0.66155 0.14505 0.0
H491 H 0.81777 0.58107 0.14761 0.0
H492 H 0.66579 0.68456 0.23108 0.0
H493 H 0.69935 0.55692 0.20478 0.0
H494 H 0.76218 0.58152 0.25953 0.0
C495 C 0.85698 0.98859 0.10597 0.0
C496 C 0.8536 0.96792 0.12416 0.0
N497 N 0.87438 0.96814 0.14161 0.0
N498 N 0.8797 1.00221 0.1119 0.0
C499 C 0.88979 0.98918 0.1337 0.0
H500 H 0.84399 0.99277 0.08903 0.0
Co501 Co 0.89664 0.02997 0.09176 0.0
C502 C 0.88237 0.05661 0.14496 0.0
O503 O 0.86294 0.03947 0.15009 0.0
N504 N 0.91398 0.05682 0.07168 0.0
C505 C 0.93 0.09534 0.05531 0.0
C506 C 0.9149 0.08371 0.07553 0.0
C507 C 0.92846 0.05264 0.04908 0.0
N508 N 0.93841 0.0757 0.03861 0.0
O509 O 0.93111 0.01636 0.10225 0.0
H510 H 0.9049 0.09434 0.09166 0.0
H511 H 0.9315 0.03294 0.04035 0.0
O512 O 0.8958 0.05459 0.12304 0.0
C513 C 0.9357 0.99636 0.08677 0.0
O514 O 0.91687 0.98929 0.06957 0.0
N515 N 0.86342 0.04138 0.07753 0.0
C516 C 0.817 0.04839 0.04598 0.0
C517 C 0.8182 0.05792 0.0728 0.0
C518 C 0.84177 0.05442 0.08824 0.0
C519 C 0.8627 0.03262 0.05153 0.0
C520 C 0.84016 0.03632 0.0354 0.0
H521 H 0.84216 0.06161 0.1087 0.0
H522 H 0.87985 0.02216 0.04326 0.0
H523 H 0.90866 0.9946 0.14303 0.0
H524 H 0.83717 0.95367 0.12415 0.0
H525 H 0.93373 0.11663 0.05262 0.0
H526 H 0.80094 0.06732 0.08211 0.0
H527 H 0.84103 0.02941 1.01473 0.0
C528 C 0.34536 0.22971 0.11537 0.0
C529 C 0.36379 0.20928 0.1121 0.0
N530 N 0.38565 0.21485 0.12723 0.0
N531 N 0.35557 0.24833 0.13224 0.0
C532 C 0.3801 0.23879 0.13904 0.0
H533 H 0.3252 0.23016 0.10723 0.0
Co534 Co 0.33721 0.27684 0.14885 0.0
C535 C 0.37572 0.32109 0.134 0.0
O536 O 0.35703 0.33339 0.11996 0.0
N537 N 0.31877 0.305 0.1671 0.0
C538 C 0.30662 0.3414 0.19064 0.0
C539 C 0.32667 0.32972 0.1755 0.0
C540 C 0.29429 0.30193 0.1785 0.0
N541 N 0.28615 0.32386 0.19229 0.0
O542 O 0.34765 0.26295 0.18332 0.0
H543 H 0.34609 0.33867 0.17223 0.0
H544 H 0.28283 0.28346 0.17738 0.0
O545 O 0.37013 0.2992 0.14648 0.0
C546 C 0.33036 0.24458 0.18823 0.0
O547 O 0.31195 0.2397 0.16984 0.0
N548 N 0.32336 0.28791 0.11471 0.0
C549 C 0.29541 0.29362 0.06577 0.0
C550 C 0.3237 0.29309 0.06632 0.0
C551 C 0.33731 0.28972 0.091 0.0
C552 C 0.29595 0.2878 0.11409 0.0
C553 C 0.28174 0.29136 0.09026 0.0
H554 H 0.35892 0.28753 0.09094 0.0
H555 H 0.28459 0.28316 0.13184 0.0
H556 H 0.39301 0.24871 0.1535 0.0
H557 H 0.3605 0.19096 0.10079 0.0
H558 H 0.30716 0.36115 0.19982 0.0
H559 H 0.33517 0.29398 0.04781 0.0
H560 H 0.26 0.29143 0.09105 0.0
C561 C 0.34261 0.80032 0.41943 0.0
C562 C 0.36106 0.82081 0.42241 0.0
N563 N 0.38314 0.81478 0.40783 0.0
N564 N 0.35303 0.78114 0.40334 0.0
C565 C 0.37771 0.79047 0.39669 0.0
H566 H 0.32225 0.80022 0.42706 0.0
Co567 Co 0.3346 0.75269 0.38642 0.0
C568 C 0.37553 0.71033 0.40182 0.0
O569 O 0.35963 0.6999 0.42014 0.0
N570 N 0.31635 0.72482 0.36786 0.0
C571 C 0.30078 0.68672 0.34985 0.0
C572 C 0.3203 0.69795 0.36608 0.0
C573 C 0.29459 0.72931 0.3522 0.0
N574 N 0.28448 0.70654 0.34135 0.0
O575 O 0.34496 0.7673 0.35214 0.0
H576 H 0.33591 0.68678 0.37608 0.0
H577 H 0.28582 0.74901 0.34946 0.0
O578 O 0.3676 0.73041 0.38771 0.0
C579 C 0.32893 0.78676 0.34723 0.0
O580 O 0.3107 0.79268 0.36547 0.0
N581 N 0.32079 0.74055 0.42057 0.0
C582 C 0.29247 0.73282 0.46926 0.0
C583 C 0.32022 0.73856 0.46926 0.0
C584 C 0.33395 0.74247 0.44475 0.0
C585 C 0.29384 0.7352 0.42053 0.0
C586 C 0.27972 0.73039 0.44423 0.0
H587 H 0.35497 0.74799 0.44526 0.0
H588 H 0.28234 0.736 0.40223 0.0
H589 H 0.39074 0.78022 0.3826 0.0
H590 H 0.35759 0.83952 0.433 0.0
H591 H 0.2982 0.66552 0.34553 0.0
H592 H 0.33107 0.74122 0.48797 0.0
H593 H 0.25854 0.72569 0.44272 0.0
C594 C 0.03999 0.42087 0.85472 0.0
C595 C 0.06056 0.40261 0.85142 0.0
N596 N 0.06342 0.38878 0.87453 0.0
N597 N 0.02953 0.41841 0.87976 0.0
C598 C 0.04445 0.39866 0.89128 0.0
H599 H 0.03371 0.43542 0.83983 0.0
Co600 Co 1.00205 0.43917 0.89655 0.0
C601 C 0.97567 0.38572 0.88405 0.0
O602 O 0.99303 0.38001 0.86496 0.0
N603 N 0.97551 0.45976 0.91347 0.0
C604 C 0.93731 0.47632 0.92982 0.0
C605 C 0.94871 0.45577 0.91506 0.0
C606 C 0.97983 0.48285 0.92709 0.0
N607 N 0.95698 0.49338 0.93729 0.0
O608 O 0.01591 0.42979 0.93137 0.0
H609 H 0.938 0.43921 0.90585 0.0
H610 H 0.9995 0.49175 0.92954 0.0
O611 O 0.97748 0.40803 0.89685 0.0
C612 C 0.03535 0.44592 0.93601 0.0
O613 O 0.04238 0.46272 0.9168 0.0
N614 N 0.99011 0.45223 0.86311 0.0
C615 C 0.98084 0.48165 0.816 0.0
C616 C 0.97046 0.45544 0.81897 0.0
C617 C 0.97497 0.4411 0.84301 0.0
C618 C 1.00004 0.47766 0.86045 0.0
C619 C 0.99545 0.49278 0.83731 0.0
H620 H 0.96669 0.42119 0.84506 0.0
H621 H 1.01209 0.48617 0.87646 0.0
H622 H 0.04166 0.39165 0.91172 0.0
H623 H 0.07326 0.40057 0.83384 0.0
H624 H 0.91614 0.47885 0.93414 0.0
H625 H 0.95903 0.44618 0.80287 0.0
H626 H 1.00414 0.51271 0.83574 0.0
C627 C 0.68376 0.73128 0.41727 0.0
C628 C 0.66542 0.71067 0.42002 0.0
N629 N 0.64355 0.71645 0.405 0.0
N630 N 0.67348 0.75027 0.40088 0.0
C631 C 0.64901 0.74071 0.39378 0.0
H632 H 0.70392 0.73167 0.42542 0.0
Co633 Co 0.69188 0.77913 0.3848 0.0
C634 C 0.65159 0.82197 0.399 0.0
O635 O 0.6689 0.83373 0.41513 0.0
N636 N 0.71034 0.80737 0.36697 0.0
C637 C 0.72375 0.84431 0.34512 0.0
C638 C 0.70363 0.83296 0.36047 0.0
C639 C 0.73422 0.80361 0.35459 0.0
N640 N 0.74308 0.82578 0.34165 0.0
O641 O 0.68271 0.76474 0.35006 0.0
H642 H 0.68516 0.84295 0.36562 0.0
H643 H 0.74498 0.78472 0.35508 0.0
O644 O 0.6585 0.80091 0.38576 0.0
C645 C 0.6996 0.746 0.34526 0.0
O646 O 0.71764 0.74057 0.36384 0.0
N647 N 0.7043 0.79109 0.41949 0.0
C648 C 0.7293 0.79882 0.46974 0.0
C649 C 0.70161 0.79349 0.46804 0.0
C650 C 0.68947 0.78971 0.44271 0.0
C651 C 0.73133 0.79577 0.42122 0.0
C652 C 0.74398 0.8004 0.44585 0.0
H653 H 0.66834 0.7847 0.44181 0.0
H654 H 0.74396 0.79425 0.40377 0.0
H655 H 0.6361 0.75083 0.37949 0.0
H656 H 0.66878 0.69211 0.43088 0.0
H657 H 0.72416 0.86464 0.33731 0.0
H658 H 0.68961 0.79158 0.48614 0.0
H659 H 0.76554 0.80336 0.44626 0.0
C660 C 0.48997 0.61382 0.35292 0.0
C661 C 0.46974 0.6326 0.35061 0.0
N662 N 0.467 0.64516 0.37446 0.0
N663 N 0.50025 0.61448 0.37816 0.0
C664 C 0.48582 0.63403 0.39063 0.0
H665 H 0.4962 0.60031 0.33708 0.0
Co666 Co 0.52713 0.59214 0.39419 0.0
C667 C 0.55627 0.64341 0.38052 0.0
O668 O 0.54123 0.64763 0.35919 0.0
N669 N 0.55311 0.57034 0.41022 0.0
C670 C 0.59105 0.553 0.42635 0.0
C671 C 0.57997 0.57389 0.41188 0.0
C672 C 0.54842 0.54711 0.42344 0.0
N673 N 0.57112 0.53616 0.43357 0.0
O674 O 0.51408 0.60134 0.42957 0.0
H675 H 0.59095 0.59048 0.40307 0.0
H676 H 0.52859 0.53855 0.42587 0.0
O677 O 0.55252 0.62238 0.39488 0.0
C678 C 0.49415 0.58588 0.43438 0.0
O679 O 0.48614 0.56964 0.41507 0.0
N680 N 0.53806 0.57909 0.36033 0.0
C681 C 0.54512 0.54845 0.3134 0.0
C682 C 0.56148 0.57106 0.3186 0.0
C683 C 0.55773 0.58616 0.34246 0.0
C684 C 0.52307 0.55656 0.35604 0.0
C685 C 0.52617 0.54112 0.33292 0.0
H686 H 0.57064 0.60315 0.34645 0.0
H687 H 0.50827 0.55064 0.37081 0.0
H688 H 0.48876 0.63992 0.4114 0.0
H689 H 0.4572 0.63586 0.33309 0.0
H690 H 0.61216 0.55018 0.43076 0.0
H691 H 0.57662 0.57726 0.30422 0.0
H692 H 0.51362 0.52349 0.33034 0.0
C693 C 0.17249 0.79308 0.6098 0.0
C694 C 0.15404 0.81346 0.60656 0.0
N695 N 0.13757 0.81378 0.62813 0.0
N696 N 0.16772 0.78016 0.63323 0.0
C697 C 0.14638 0.79336 0.64393 0.0
H698 H 0.18868 0.7885 0.59605 0.0
Co699 Co 0.18826 0.75244 0.64968 0.0
C700 C 0.13468 0.72602 0.63735 0.0
O701 O 0.12891 0.7432 0.6181 0.0
N702 N 0.20875 0.72563 0.6664 0.0
C703 C 0.22534 0.68712 0.68216 0.0
C704 C 0.20471 0.69878 0.66771 0.0
C705 C 0.23192 0.72974 0.67991 0.0
N706 N 0.24249 0.70669 0.68971 0.0
O707 O 0.17902 0.76622 0.6845 0.0
H708 H 0.18812 0.6882 0.65845 0.0
H709 H 0.24091 0.74939 0.68247 0.0
O710 O 0.15702 0.72795 0.65003 0.0
C711 C 0.19508 0.78577 0.68896 0.0
O712 O 0.21178 0.79273 0.66966 0.0
N713 N 0.20111 0.74066 0.61604 0.0
C714 C 0.23022 0.73166 0.56867 0.0
C715 C 0.20372 0.72208 0.57137 0.0
C716 C 0.18953 0.72647 0.59552 0.0
C717 C 0.22684 0.7498 0.61365 0.0
C718 C 0.24179 0.74532 0.59039 0.0
H719 H 0.16937 0.71883 0.59729 0.0
H720 H 0.2357 0.76124 0.62992 0.0
H721 H 0.13786 0.78837 0.66332 0.0
H722 H 0.15309 0.82705 0.58957 0.0
H723 H 0.22789 0.66586 0.6861 0.0
H724 H 0.1941 0.71139 0.55498 0.0
H725 H 0.26196 0.75342 0.58905 0.0
C726 C 0.0492 0.59501 0.66698 0.0
C727 C 0.06945 0.61355 0.67075 0.0
N728 N 0.06315 0.63627 0.65723 0.0
N729 N 0.0299 0.60595 0.65142 0.0
C730 C 0.03893 0.63104 0.64584 0.0
H731 H 0.04928 0.57434 0.67379 0.0
Co732 Co 1.00141 0.58766 0.63444 0.0
C733 C 0.95902 0.62807 0.65092 0.0
O734 O 0.9492 0.61182 0.66928 0.0
N735 N 0.97351 0.56952 0.61589 0.0
C736 C 0.93526 0.5536 0.59865 0.0
C737 C 0.94662 0.57325 0.61464 0.0
C738 C 0.97789 0.54783 0.60009 0.0
N739 N 0.95503 0.53746 0.58973 0.0
O740 O 0.01574 0.59852 0.60008 0.0
H741 H 0.9355 0.58868 0.625 0.0
H742 H 0.99755 0.53915 0.59705 0.0
O743 O 0.9789 0.62059 0.63632 0.0
C744 C 0.03509 0.58245 0.59486 0.0
O745 O 0.04114 0.56411 0.61297 0.0
N746 N 0.98962 0.57333 0.66854 0.0
C747 C 0.98195 0.54454 0.717 0.0
C748 C 0.98806 0.57225 0.71725 0.0
C749 C 0.99194 0.58621 0.69286 0.0
C750 C 0.984 0.54639 0.66827 0.0
C751 C 0.97921 0.53205 0.69187 0.0
H752 H 0.99763 0.60721 0.69357 0.0
H753 H 0.9845 0.53504 0.64986 0.0
H754 H 0.02846 0.64459 0.63243 0.0
H755 H 0.08812 0.60979 0.68124 0.0
H756 H 0.91403 0.55074 0.59488 0.0
H757 H 0.991 0.5829 0.73604 0.0
H758 H 0.97423 0.51091 0.69017 0.0
C759 C 0.98497 0.92622 0.67788 0.0
C760 C 0.96482 0.90745 0.68088 0.0
N761 N 0.96493 0.89102 0.65925 0.0
N762 N 0.99808 0.92173 0.65449 0.0
C763 C 0.98535 0.90012 0.64369 0.0
H764 H 0.98927 0.94235 0.69181 0.0
Co765 Co 0.02556 0.94249 0.63793 0.0
C766 C 0.05242 0.8897 0.65133 0.0
O767 O 0.03637 0.88527 0.67186 0.0
N768 N 0.05216 0.96303 0.62116 0.0
C769 C 0.09067 0.97958 0.60549 0.0
C770 C 0.07902 0.95926 0.62039 0.0
C771 C 0.04803 0.9858 0.60699 0.0
N772 N 0.07108 0.99629 0.59716 0.0
O773 O 1.01142 0.93314 0.60303 0.0
H774 H 0.0896 0.94307 0.63032 0.0
H775 H 0.02837 0.99452 0.6039 0.0
O776 O 0.04994 0.91129 0.6375 0.0
C777 C 0.99165 0.94895 0.59868 0.0
O778 O 0.9849 0.96588 0.61787 0.0
N779 N 0.0375 0.9555 0.67147 0.0
C780 C 0.04591 0.98569 0.71843 0.0
C781 C 0.05945 0.9611 0.71439 0.0
C782 C 0.05503 0.94623 0.69053 0.0
C783 C 0.02541 0.97987 0.67465 0.0
C784 C 0.02925 0.99517 0.69778 0.0
H785 H 0.06557 0.9275 0.68765 0.0
H786 H 1.01215 0.98731 0.6591 0.0
H787 H 0.9906 0.89165 0.62433 0.0
H788 H 0.95111 0.90621 0.69774 0.0
H789 H 0.11193 0.98224 0.60174 0.0
H790 H 0.0727 0.95316 0.72975 0.0
H791 H 0.01891 1.01425 0.69958 0.0
C792 C 0.61256 0.84512 0.73604 0.0
C793 C 0.60891 0.86305 0.71521 0.0
N794 N 0.62383 0.8852 0.72009 0.0
N795 N 0.62942 0.85593 0.75435 0.0
C796 C 0.63592 0.88033 0.74409 0.0
H797 H 0.60473 0.82483 0.73697 0.0
Co798 Co 0.64637 0.83764 0.7829 0.0
C799 C 0.63135 0.87929 0.82534 0.0
O800 O 0.61284 0.86377 0.83595 0.0
N801 N 0.66471 0.81926 0.81088 0.0
C802 C 0.68207 0.8033 0.84915 0.0
C803 C 0.66631 0.82314 0.83781 0.0
C804 C 0.67999 0.79722 0.80648 0.0
N805 N 0.69043 0.78685 0.82934 0.0
O806 O 0.68066 0.84779 0.76817 0.0
H807 H 0.65642 0.83888 0.84892 0.0
H808 H 0.68271 0.78836 0.78678 0.0
O809 O 0.64533 0.87094 0.80529 0.0
C810 C 0.68522 0.83109 0.74912 0.0
O811 O 0.66658 0.81313 0.74363 0.0
N812 N 0.61241 0.82381 0.79485 0.0
C813 C 0.56404 0.79487 0.80057 0.0
C814 C 0.56391 0.82305 0.79747 0.0
C815 C 0.5883 0.83709 0.79421 0.0
C816 C 0.61251 0.79645 0.79769 0.0
C817 C 0.58891 0.78185 0.80123 0.0
H818 H 0.58774 0.85844 0.78997 0.0
H819 H 0.63079 0.78517 0.79549 0.0
H820 H 0.65043 0.89357 0.75346 0.0
H821 H 0.59754 0.85917 0.69703 0.0
H822 H 0.68611 0.80057 0.87041 0.0
H823 H 0.54515 0.83398 0.79617 0.0
H824 H 0.59024 0.76022 0.80349 0.0
C825 C 0.0962 0.17058 0.54598 0.0
C826 C 0.11518 0.17458 0.56585 0.0
N827 N 0.13502 0.15649 0.56241 0.0
N828 N 0.10426 0.15037 0.5297 0.0
C829 C 0.12794 0.14219 0.54034 0.0
H830 H 0.07708 0.18079 0.54442 0.0
Co831 Co 0.085 0.13263 0.50217 0.0
C832 C 0.12332 0.1462 0.45709 0.0
O833 O 0.10495 0.16046 0.44458 0.0
N834 N 0.06591 0.11336 0.47504 0.0
C835 C 0.05248 0.09 0.43896 0.0
C836 C 0.07266 0.10562 0.44976 0.0
C837 C 0.04196 0.10118 0.47926 0.0
N838 N 0.03306 0.08741 0.45754 0.0
O839 O 0.0957 0.09866 0.51706 0.0
H840 H 0.09127 0.10994 0.43966 0.0
H841 H 0.03132 0.10209 0.49823 0.0
O842 O 0.1175 0.13413 0.47915 0.0
C843 C 0.0791 0.09441 0.53622 0.0
O844 O 0.06115 0.11313 0.54138 0.0
N845 N 0.0707 0.16625 0.49003 0.0
C846 C 0.04161 0.2144 0.48348 0.0
C847 C 0.06993 0.2144 0.48333 0.0
C848 C 0.08412 0.19013 0.487 0.0
C849 C 0.0433 0.16632 0.49062 0.0
C850 C 0.02853 0.18968 0.48658 0.0
H851 H 0.10578 0.19071 0.4887 0.0
H852 H 0.03238 0.14851 0.49604 0.0
H853 H 0.13912 0.12506 0.53289 0.0
H854 H 0.11351 0.18832 0.5827 0.0
H855 H 0.05214 0.08134 0.41894 0.0
H856 H 0.08104 0.23307 0.48174 0.0
H857 H 1.00682 0.18835 0.48689 0.0
C858 C 0.41934 0.68088 0.73629 0.0
C859 C 0.42305 0.66264 0.7157 0.0
N860 N 0.40442 0.64313 0.71808 0.0
N861 N 0.39877 0.67269 0.75202 0.0
C862 C 0.39003 0.64968 0.74024 0.0
H863 H 0.4301 0.69964 0.73876 0.0
Co864 Co 0.38187 0.69151 0.78042 0.0
C865 C 0.39514 0.65232 0.82494 0.0
O866 O 0.40882 0.67074 0.83807 0.0
N867 N 0.36355 0.71041 0.80831 0.0
C868 C 0.33958 0.72263 0.84438 0.0
C869 C 0.35439 0.70234 0.8327 0.0
C870 C 0.35296 0.73532 0.80541 0.0
N871 N 0.33883 0.74348 0.82719 0.0
O872 O 0.34745 0.68153 0.76608 0.0
H873 H 0.35686 0.68264 0.84136 0.0
H874 H 0.3547 0.74697 0.78709 0.0
O875 O 0.38333 0.65833 0.80276 0.0
C876 C 0.34247 0.69858 0.74749 0.0
O877 O 0.36088 0.7168 0.74213 0.0
N878 N 0.41594 0.70491 0.79226 0.0
C879 C 0.46496 0.73212 0.79993 0.0
C880 C 0.46382 0.70379 0.79996 0.0
C881 C 0.43915 0.69055 0.79571 0.0
C882 C 0.41717 0.73233 0.79119 0.0
C883 C 0.44108 0.74624 0.79553 0.0
H884 H 0.4389 0.66885 0.79413 0.0
H885 H 0.39993 0.7438 0.78512 0.0
H886 H 0.37258 0.6386 0.74704 0.0
H887 H 0.43707 0.66461 0.69914 0.0
H888 H 0.3299 0.7219 0.86389 0.0
H889 H 0.48187 0.69194 0.80263 0.0
H890 H 0.44103 0.76797 0.79384 0.0
C891 C 0.92778 0.3603 0.54595 0.0
C892 C 0.90898 0.35683 0.56607 0.0
N893 N 0.8894 0.37521 0.56268 0.0
N894 N 0.91987 0.38047 0.52955 0.0
C895 C 0.89647 0.3892 0.54041 0.0
H896 H 0.94663 0.34963 0.54421 0.0
Co897 Co 0.9391 0.39702 0.50124 0.0
C898 C 0.90108 0.38348 0.45624 0.0
O899 O 0.9199 0.36997 0.44355 0.0
N900 N 0.95824 0.41513 0.47337 0.0
C901 C 0.9703 0.43963 0.43759 0.0
C902 C 0.95008 0.42468 0.44915 0.0
C903 C 0.98313 0.42571 0.47633 0.0
N904 N 0.99118 0.44016 0.45472 0.0
O905 O 0.92901 0.43157 0.51494 0.0
H906 H 0.9303 0.42262 0.44065 0.0
H907 H 0.99476 0.4239 0.49465 0.0
O908 O 0.90646 0.39527 0.47857 0.0
C909 C 0.94612 0.43671 0.53339 0.0
O910 O 0.96412 0.4182 0.53907 0.0
N911 N 0.95248 0.36278 0.48991 0.0
C912 C 0.9792 0.31355 0.48236 0.0
C913 C 0.95094 0.31476 0.4828 0.0
C914 C 0.93794 0.33957 0.48686 0.0
C915 C 0.97986 0.36145 0.49055 0.0
C916 C 0.99353 0.33742 0.48616 0.0
H917 H 0.91629 0.33998 0.48858 0.0
H918 H 0.99152 0.37871 0.49627 0.0
H919 H 0.88541 0.40634 0.53282 0.0
H920 H 0.91054 0.34311 0.58294 0.0
H921 H 0.96943 0.44971 0.41828 0.0
H922 H 0.93902 0.29665 0.48065 0.0
H923 H 0.01526 0.33733 0.4874 0.0
C924 C 0.60627 0.17834 0.793 0.0
C925 C 0.60249 0.15984 0.81337 0.0
N926 N 0.62231 0.14148 0.81203 0.0
N927 N 0.62825 0.17155 0.77856 0.0
C928 C 0.63744 0.14891 0.79069 0.0
H929 H 0.59446 0.19632 0.78993 0.0
Co930 Co 0.64601 0.19079 0.75085 0.0
C931 C 0.63499 0.15565 0.70317 0.0
O932 O 0.62649 0.1765 0.6893 0.0
N933 N 0.66514 0.20959 0.72346 0.0
C934 C 0.69567 0.21783 0.69148 0.0
C935 C 0.68145 0.19823 0.70484 0.0
C936 C 0.67085 0.23619 0.72158 0.0
N937 N 0.689 0.24181 0.70206 0.0
O938 O 0.67993 0.17889 0.76448 0.0
H939 H 0.68443 0.17686 0.70221 0.0
H940 H 0.66379 0.25108 0.73568 0.0
O941 O 0.643 0.15877 0.7275 0.0
C942 C 0.68562 0.19473 0.78389 0.0
O943 O 0.6682 0.2136 0.79014 0.0
N944 N 0.61274 0.20593 0.73974 0.0
C945 C 0.56576 0.23666 0.73269 0.0
C946 C 0.56631 0.20902 0.72615 0.0
C947 C 0.5899 0.19387 0.73024 0.0
C948 C 0.61188 0.23219 0.74754 0.0
C949 C 0.58923 0.24803 0.74337 0.0
H950 H 0.58937 0.17241 0.72686 0.0
H951 H 0.62854 0.24069 0.75847 0.0
H952 H 0.65566 0.13864 0.78471 0.0
H953 H 0.58745 0.1609 0.82909 0.0
H954 H 0.71057 0.21449 0.67596 0.0
H955 H 0.54843 0.19888 0.71896 0.0
H956 H 0.59018 0.26902 0.74909 0.0
C957 C 0.43425 0.16635 0.48119 0.0
C958 C 0.41581 0.1694 0.46069 0.0
N959 N 0.39362 0.155 0.46679 0.0
N960 N 0.42372 0.15041 0.50044 0.0
C961 C 0.399 0.14387 0.49113 0.0
H962 H 0.45464 0.1739 0.48129 0.0
Co963 Co 0.44206 0.13383 0.52913 0.0
C964 C 0.39998 0.14891 0.57058 0.0
O965 O 0.41484 0.16829 0.5806 0.0
N966 N 0.4602 0.11561 0.55723 0.0
C967 C 0.47567 0.09828 0.59569 0.0
C968 C 0.45625 0.11442 0.58417 0.0
C969 C 0.48187 0.09982 0.553 0.0
N970 N 0.4919 0.08931 0.57598 0.0
O971 O 0.43242 0.09943 0.51429 0.0
H972 H 0.44077 0.12488 0.59511 0.0
H973 H 0.49065 0.0967 0.53334 0.0
O974 O 0.40882 0.13443 0.55114 0.0
C975 C 0.44885 0.09474 0.49509 0.0
O976 O 0.4669 0.11324 0.48944 0.0
N977 N 0.4552 0.16819 0.5415 0.0
C978 C 0.48266 0.21733 0.54935 0.0
C979 C 0.45512 0.21685 0.54274 0.0
C980 C 0.44183 0.19214 0.53878 0.0
C981 C 0.48195 0.16861 0.54778 0.0
C982 C 0.49563 0.19257 0.55264 0.0
H983 H 0.42099 0.19232 0.5326 0.0
H984 H 0.49371 0.15048 0.5477 0.0
H985 H 0.38586 0.12994 0.50145 0.0
H986 H 0.41932 0.17995 0.44196 0.0
H987 H 0.47827 0.09438 0.61699 0.0
H988 H 0.44413 0.23533 0.5394 0.0
H989 H 0.51667 0.19146 0.55803 0.0
C990 C 0.42097 0.349 0.78943 0.0
C991 C 0.42509 0.36708 0.81007 0.0
N992 N 0.40722 0.38721 0.80744 0.0
N993 N 0.40101 0.35797 0.77333 0.0
C994 C 0.39282 0.38118 0.78511 0.0
H995 H 0.43095 0.3298 0.78718 0.0
Co996 Co 0.38389 0.33909 0.745 0.0
C997 C 0.39657 0.38049 0.70191 0.0
O998 O 0.41388 0.36452 0.69002 0.0
N999 N 0.3654 0.3201 0.7175 0.0
C1000 C 0.34537 0.30485 0.68023 0.0
C1001 C 0.36087 0.32515 0.69109 0.0
C1002 C 0.35195 0.29691 0.72213 0.0
N1003 N 0.33996 0.28696 0.69981 0.0
O1004 O 0.34966 0.34839 0.76023 0.0
H1005 H 0.36807 0.34232 0.68004 0.0
H1006 H 0.35131 0.28726 0.74165 0.0
O1007 O 0.3837 0.37243 0.72279 0.0
C1008 C 0.34526 0.3327 0.78011 0.0
O1009 O 0.36391 0.31505 0.78642 0.0
N1010 N 0.41804 0.32649 0.73204 0.0
C1011 C 0.46772 0.30042 0.72517 0.0
C1012 C 0.46641 0.32849 0.72851 0.0
C1013 C 0.44137 0.34116 0.7319 0.0
C1014 C 0.41934 0.29918 0.72891 0.0
C1015 C 0.44368 0.28595 0.72478 0.0
H1016 H 0.44085 0.36255 0.7359 0.0
H1017 H 0.40175 0.2869 0.73152 0.0
H1018 H 0.37562 0.39266 0.77834 0.0
H1019 H 0.43873 0.36459 0.82688 0.0
H1020 H 0.33915 0.30309 0.6594 0.0
H1021 H 0.4846 0.34042 0.7294 0.0
H1022 H 0.44376 0.26419 0.7233 0.0
C1023 C 0.59939 0.35829 0.48692 0.0
C1024 C 0.61788 0.3548 0.46657 0.0
N1025 N 0.63462 0.37616 0.46635 0.0
N1026 N 0.60443 0.38166 0.49983 0.0
C1027 C 0.62592 0.39207 0.4867 0.0
H1028 H 0.58305 0.34473 0.49154 0.0
Co1029 Co 0.58449 0.39855 0.52758 0.0
C1030 C 0.63845 0.38629 0.55319 0.0
O1031 O 0.64335 0.3663 0.53658 0.0
N1032 N 0.56456 0.41576 0.55447 0.0
C1033 C 0.54906 0.43307 0.59282 0.0
C1034 C 0.56955 0.41849 0.58109 0.0
C1035 C 0.54098 0.42854 0.55058 0.0
N1036 N 0.53106 0.43927 0.57354 0.0
O1037 O 0.59359 0.43305 0.51291 0.0
H1038 H 0.58675 0.41023 0.59149 0.0
H1039 H 0.53128 0.43002 0.53114 0.0
O1040 O 0.61631 0.3993 0.5514 0.0
C1041 C 0.57742 0.43729 0.49339 0.0
O1042 O 0.56013 0.41825 0.48721 0.0
N1043 N 0.57183 0.36518 0.54018 0.0
C1044 C 0.54323 0.31768 0.54988 0.0
C1045 C 0.56955 0.32098 0.55975 0.0
C1046 C 0.58348 0.34519 0.55501 0.0
C1047 C 0.5462 0.36229 0.53091 0.0
C1048 C 0.5315 0.33894 0.5357 0.0
H1049 H 0.60347 0.34743 0.56295 0.0
H1050 H 0.53726 0.37818 0.51905 0.0
H1051 H 0.6347 0.41132 0.49175 0.0
H1052 H 0.61873 0.3378 0.45299 0.0
H1053 H 0.54724 0.43813 0.61395 0.0
H1054 H 0.57926 0.30499 0.57092 0.0
H1055 H 0.51145 0.33715 0.5274 0.0
C1056 C 0.73525 0.60926 0.85346 0.0
C1057 C 0.715 0.60543 0.87198 0.0
N1058 N 0.71795 0.62368 0.89181 0.0
N1059 N 0.75137 0.62949 0.86181 0.0
C1060 C 0.74012 0.63796 0.88518 0.0
H1061 H 0.73721 0.59886 0.83441 0.0
Co1062 Co 0.77948 0.64635 0.84261 0.0
C1063 C 0.82442 0.63212 0.88084 0.0
O1064 O 0.83661 0.61782 0.86227 0.0
N1065 N 0.80707 0.66462 0.82336 0.0
C1066 C 0.84322 0.6879 0.81027 0.0
C1067 C 0.83197 0.67288 0.83067 0.0
C1068 C 0.80351 0.67591 0.79882 0.0
N1069 N 0.82527 0.68963 0.79014 0.0
O1070 O 0.76581 0.68087 0.85329 0.0
H1071 H 0.84138 0.66955 0.8499 0.0
H1072 H 0.78481 0.67478 0.78776 0.0
O1073 O 0.80248 0.64442 0.87525 0.0
C1074 C 0.74698 0.68611 0.83663 0.0
O1075 O 0.74099 0.66776 0.81849 0.0
N1076 N 0.79058 0.61226 0.82853 0.0
C1077 C 0.79633 0.5634 0.80041 0.0
C1078 C 0.79686 0.56408 0.82879 0.0
C1079 C 0.79361 0.58869 0.84249 0.0
C1080 C 0.78914 0.61151 0.80107 0.0
C1081 C 0.79253 0.58768 0.78672 0.0
H1082 H 0.79237 0.58863 0.86425 0.0
H1083 H 0.7834 0.6291 0.78993 0.0
H1084 H 0.74727 0.6552 0.89644 0.0
H1085 H 0.69825 0.59166 0.86998 0.0
H1086 H 0.86301 0.69694 0.81037 0.0
H1087 H 0.79911 0.54572 0.84031 0.0
H1088 H 0.79052 0.58815 0.76499 0.0
C1089 C 0.84996 0.03661 0.42333 0.0
C1090 C 0.84713 0.05694 0.40465 0.0
N1091 N 0.87062 0.05993 0.39163 0.0
N1092 N 0.87515 0.02647 0.42207 0.0
C1093 C 0.88713 0.04121 0.4024 0.0
H1094 H 0.83453 0.03021 0.43721 0.0
Co1095 Co 0.8916 0.99941 0.44397 0.0
C1096 C 0.87905 0.97167 0.39151 0.0
O1097 O 0.85874 0.98778 0.38658 0.0
N1098 N 0.9081 0.97339 0.46552 0.0
C1099 C 0.92405 0.93542 0.48307 0.0
C1100 C 0.90918 0.94642 0.46237 0.0
C1101 C 0.92207 0.97824 0.48831 0.0
N1102 N 0.93211 0.95552 0.49939 0.0
O1103 O 0.92649 1.01299 0.43468 0.0
H1104 H 0.89957 0.93534 0.44629 0.0
H1105 H 0.92498 0.99818 0.49653 0.0
O1106 O 0.89245 0.97424 0.41337 0.0
C1107 C 0.93117 0.03334 0.44969 0.0
O1108 O 0.91205 0.04138 0.46609 0.0
N1109 N 0.85809 0.98779 0.45687 0.0
C1110 C 0.81098 0.97993 0.48669 0.0
C1111 C 0.81576 0.96509 0.46295 0.0
C1112 C 0.83971 0.96924 0.44825 0.0
C1113 C 0.85418 1.00127 0.48042 0.0
C1114 C 0.83098 0.99769 0.49554 0.0
H1115 H 0.84323 0.95771 0.43017 0.0
H1116 H 0.86927 0.01532 0.48736 0.0
H1117 H 0.90775 0.03852 0.39612 0.0
H1118 H 0.82951 0.06937 0.40176 0.0
H1119 H 0.92804 0.91424 0.4862 0.0
H1120 H 0.80093 0.95097 0.4555 0.0
H1121 H 0.82864 1.00906 0.51402 0.0
C1122 C 0.29557 0.92164 0.85233 0.0
C1123 C 0.31586 0.92552 0.87083 0.0
N1124 N 0.31263 0.90768 0.89096 0.0
N1125 N 0.27915 0.90182 0.86102 0.0
C1126 C 0.29029 0.89357 0.88452 0.0
H1127 H 0.29379 0.93167 0.83307 0.0
Co1128 Co 0.25098 0.88488 0.8419 0.0
C1129 C 0.20753 0.89943 0.88228 0.0
O1130 O 0.19636 0.91681 0.86584 0.0
N1131 N 0.22337 0.86669 0.8229 0.0
C1132 C 0.18566 0.84769 0.80768 0.0
C1133 C 0.19681 0.86334 0.82768 0.0
C1134 C 0.22778 0.85238 0.80017 0.0
N1135 N 0.2052 0.84098 0.79027 0.0
O1136 O 0.26515 0.85039 0.85213 0.0
H1137 H 0.18576 0.87145 0.84441 0.0
H1138 H 0.24733 0.8507 0.79082 0.0
O1139 O 0.22819 0.88595 0.8748 0.0
C1140 C 0.28495 0.84546 0.83652 0.0
O1141 O 0.29182 0.86398 0.81889 0.0
N1142 N 0.23931 0.91892 0.82808 0.0
C1143 C 0.23235 0.96747 0.79972 0.0
C1144 C 0.23433 0.96725 0.82803 0.0
C1145 C 0.23816 0.94281 0.84181 0.0
C1146 C 0.23813 0.91917 0.80057 0.0
C1147 C 0.23412 0.94287 0.78617 0.0
H1148 H 0.24123 0.94318 0.86339 0.0
H1149 H 0.24206 0.90116 0.78922 0.0
H1150 H 0.28301 0.87652 0.89598 0.0
H1151 H 0.33282 0.93899 0.86862 0.0
H1152 H 0.16467 0.84232 0.80575 0.0
H1153 H 0.23359 0.98583 0.83941 0.0
H1154 H 0.23405 0.94201 0.76436 0.0
C1155 C 0.1714 0.48889 0.42549 0.0
C1156 C 0.17484 0.46802 0.40755 0.0
N1157 N 0.15368 0.4675 0.39058 0.0
N1158 N 0.14826 0.50187 0.41988 0.0
C1159 C 0.13795 0.48826 0.39854 0.0
H1160 H 0.18475 0.49371 0.44198 0.0
Co1161 Co 0.13131 0.52974 0.43973 0.0
C1162 C 0.144 0.55526 0.38561 0.0
O1163 O 0.16354 0.53824 0.38055 0.0
N1164 N 0.11406 0.5566 0.45965 0.0
C1165 C 0.09689 0.59479 0.47556 0.0
C1166 C 0.11132 0.58321 0.45483 0.0
C1167 C 0.10138 0.55255 0.48331 0.0
N1168 N 0.09078 0.57542 0.49351 0.0
O1169 O 0.09683 0.51535 0.43024 0.0
H1170 H 0.11956 0.5937 0.43764 0.0
H1171 H 0.09998 0.53307 0.49291 0.0
O1172 O 0.13104 0.55366 0.40785 0.0
C1173 C 0.09226 0.49547 0.44588 0.0
O1174 O 0.11111 0.48853 0.4631 0.0
N1175 N 0.1646 0.54221 0.45279 0.0
C1176 C 0.21164 0.55239 0.482 0.0
C1177 C 0.20878 0.56166 0.45534 0.0
C1178 C 0.18481 0.55669 0.44111 0.0
C1179 C 0.16713 0.53336 0.47868 0.0
C1180 C 0.19023 0.53845 0.49369 0.0
H1181 H 0.18292 0.56416 0.42085 0.0
H1182 H 0.15113 0.52167 0.48762 0.0
H1183 H 0.1188 0.49312 0.3895 0.0
H1184 H 0.19162 0.45419 0.40729 0.0
H1185 H 0.09197 0.6159 0.47763 0.0
H1186 H 0.22494 0.57255 0.44562 0.0
H1187 H 0.1917 0.53059 0.514 0.0
C1188 C 0.72724 0.41827 0.68134 0.0
C1189 C 0.7069 0.42204 0.66292 0.0
N1190 N 0.71262 0.40785 0.64044 0.0
N1191 N 0.74606 0.40202 0.67058 0.0
C1192 C 0.73665 0.39608 0.64567 0.0
H1193 H 0.72744 0.42549 0.7019 0.0
Co1194 Co 0.77411 0.38486 0.68936 0.0
C1195 C 0.8172 0.40155 0.64885 0.0
O1196 O 0.82638 0.42112 0.66402 0.0
N1197 N 0.80163 0.36653 0.70797 0.0
C1198 C 0.83993 0.35209 0.72613 0.0
C1199 C 0.82868 0.36855 0.70685 0.0
C1200 C 0.79705 0.34855 0.72783 0.0
N1201 N 0.81994 0.33966 0.7395 0.0
O1202 O 0.76041 0.35058 0.67757 0.0
H1203 H 0.83976 0.38187 0.69385 0.0
H1204 H 0.7771 0.34291 0.73429 0.0
O1205 O 0.79757 0.38693 0.65698 0.0
C1206 C 0.73949 0.34491 0.69137 0.0
O1207 O 0.73113 0.36251 0.70928 0.0
N1208 N 0.78517 0.41854 0.70465 0.0
C1209 C 0.79181 0.46582 0.73528 0.0
C1210 C 0.78859 0.46698 0.7071 0.0
C1211 C 0.78478 0.44313 0.69222 0.0
C1212 C 0.78763 0.41742 0.73207 0.0
C1213 C 0.7916 0.44048 0.74751 0.0
H1214 H 0.78067 0.44451 0.67086 0.0
H1215 H 0.78518 0.39865 0.74264 0.0
H1216 H 0.74663 0.38209 0.63233 0.0
H1217 H 0.68846 0.43293 0.66667 0.0
H1218 H 0.86109 0.35059 0.7309 0.0
H1219 H 0.78782 0.48615 0.69678 0.0
H1220 H 0.79379 0.43837 0.76912 0.0
C1221 C 0.67374 0.03292 0.61268 0.0
C1222 C 0.67712 0.05392 0.63046 0.0
N1223 N 0.65311 0.05978 0.6413 0.0
N1224 N 0.64763 0.02514 0.61238 0.0
C1225 C 0.63569 0.04212 0.63019 0.0
H1226 H 0.68964 0.02411 0.60082 0.0
Co1227 Co 0.63065 0.99759 0.59124 0.0
C1228 C 0.64556 0.96992 0.64314 0.0
O1229 O 0.66725 0.98469 0.64596 0.0
N1230 N 0.61371 0.97112 0.57048 0.0
C1231 C 0.59506 0.93343 0.55498 0.0
C1232 C 0.60944 0.9448 0.57583 0.0
C1233 C 0.60209 0.97514 0.54624 0.0
N1234 N 0.59048 0.95259 0.53636 0.0
O1235 O 0.59583 1.0114 0.60084 0.0
H1236 H 0.61628 0.93438 0.59367 0.0
H1237 H 0.6018 0.99445 0.53622 0.0
O1238 O 0.63049 0.97315 0.62248 0.0
C1239 C 0.59115 0.0306 0.58439 0.0
O1240 O 0.61019 0.0372 0.5673 0.0
N1241 N 0.66391 0.98582 0.57779 0.0
C1242 C 0.7111 0.9787 0.54792 0.0
C1243 C 0.70546 0.96215 0.5703 0.0
C1244 C 0.68145 0.96592 0.585 0.0
C1245 C 0.66851 1.0008 0.5553 0.0
C1246 C 0.6918 0.99768 0.54023 0.0
H1247 H 0.67719 0.95302 0.60196 0.0
H1248 H 0.65403 0.01581 0.54926 0.0
H1249 H 0.61453 0.04179 0.63508 0.0
H1250 H 0.69562 0.06469 0.63442 0.0
H1251 H 0.58884 0.91261 0.55347 0.0
H1252 H 0.71969 0.94697 0.57671 0.0
H1253 H 0.69479 1.01037 0.52274 0.0
C1254 C 0.29502 0.10907 0.67838 0.0
C1255 C 0.31514 0.10513 0.65973 0.0
N1256 N 0.31145 0.12255 0.6393 0.0
N1257 N 0.27826 0.1285 0.6695 0.0
C1258 C 0.28896 0.1364 0.64569 0.0
H1259 H 0.2937 0.09953 0.69792 0.0
Co1260 Co 0.25066 0.14594 0.68883 0.0
C1261 C 0.20667 0.13073 0.64901 0.0
O1262 O 0.19634 0.11252 0.66509 0.0
N1263 N 0.22357 0.16455 0.70798 0.0
C1264 C 0.18594 0.18165 0.72535 0.0
C1265 C 0.19654 0.16555 0.70539 0.0
C1266 C 0.22878 0.18053 0.72937 0.0
N1267 N 0.20633 0.19084 0.74057 0.0
O1268 O 0.26492 0.18022 0.67766 0.0
H1269 H 0.18483 0.15497 0.69056 0.0
H1270 H 0.2488 0.1838 0.73716 0.0
O1271 O 0.22712 0.14455 0.65649 0.0
C1272 C 0.28494 0.1852 0.69301 0.0
O1273 O 0.29188 0.16675 0.71069 0.0
N1274 N 0.23914 0.11226 0.70371 0.0
C1275 C 0.23336 0.06481 0.73417 0.0
C1276 C 0.23449 0.06389 0.70582 0.0
C1277 C 0.23787 0.08782 0.69098 0.0
C1278 C 0.23841 0.1131 0.73122 0.0
C1279 C 0.23488 0.08999 0.74662 0.0
H1280 H 0.24068 0.08659 0.66939 0.0
H1281 H 0.2422 0.13161 0.74182 0.0
H1282 H 0.28134 0.15317 0.63406 0.0
H1283 H 0.33238 0.09207 0.6621 0.0
H1284 H 0.16483 0.18528 0.72907 0.0
H1285 H 0.23415 0.04481 0.69529 0.0
H1286 H 0.23425 0.09191 0.76836 0.0
C1287 C 0.35641 0.48771 0.59626 0.0
C1288 C 0.35263 0.46712 0.61448 0.0
N1289 N 0.36995 0.47056 0.63503 0.0
N1290 N 0.3756 0.50455 0.60555 0.0
C1291 C 0.38358 0.49336 0.62914 0.0
H1292 H 0.34694 0.48935 0.5767 0.0
Co1293 Co 0.39319 0.5326 0.58678 0.0
C1294 C 0.37905 0.57537 0.62807 0.0
O1295 O 0.36086 0.58621 0.61233 0.0
N1296 N 0.41226 0.55993 0.5682 0.0
C1297 C 0.43061 0.59767 0.55221 0.0
C1298 C 0.41443 0.5868 0.57198 0.0
C1299 C 0.42766 0.55507 0.5463 0.0
N1300 N 0.43872 0.57763 0.53591 0.0
O1301 O 0.42717 0.51721 0.59695 0.0
H1302 H 0.40465 0.59821 0.58759 0.0
H1303 H 0.43 0.53527 0.53759 0.0
O1304 O 0.39275 0.55508 0.61994 0.0
C1305 C 0.43148 0.49745 0.58106 0.0
O1306 O 0.41286 0.49156 0.56318 0.0
N1307 N 0.35933 0.54559 0.57304 0.0
C1308 C 0.31086 0.55342 0.54444 0.0
C1309 C 0.31084 0.54877 0.57247 0.0
C1310 C 0.33523 0.54487 0.58635 0.0
C1311 C 0.3594 0.55014 0.54587 0.0
C1312 C 0.33584 0.555 0.53158 0.0
H1313 H 0.33463 0.54 0.60759 0.0
H1314 H 0.3776 0.54851 0.53434 0.0
H1315 H 0.40033 0.50082 0.6409 0.0
H1316 H 0.33978 0.44975 0.61172 0.0
H1317 H 0.4351 0.6188 0.54942 0.0
H1318 H 0.29218 0.54681 0.58349 0.0
H1319 H 0.33741 0.55897 0.5102 0.0
C1320 C 0.85519 0.73798 0.6074 0.0
C1321 C 0.87398 0.71787 0.60409 0.0
N1322 N 0.8894 0.71689 0.62634 0.0
N1323 N 0.85887 0.75001 0.63157 0.0
C1324 C 0.87989 0.73653 0.64257 0.0
H1325 H 0.83936 0.74278 0.5933 0.0
Co1326 Co 0.83794 0.77727 0.64842 0.0
C1327 C 0.89072 0.80461 0.63514 0.0
O1328 O 0.89671 0.78727 0.61609 0.0
N1329 N 0.81729 0.80375 0.66547 0.0
C1330 C 0.79985 0.84233 0.68007 0.0
C1331 C 0.82006 0.83078 0.66498 0.0
C1332 C 0.79527 0.79939 0.68069 0.0
N1333 N 0.78421 0.82249 0.68984 0.0
O1334 O 0.84828 0.76391 0.68319 0.0
H1335 H 0.83535 0.84153 0.65387 0.0
H1336 H 0.78734 0.77954 0.68478 0.0
O1337 O 0.86851 0.80245 0.64796 0.0
C1338 C 0.83328 0.74361 0.688 0.0
O1339 O 0.8164 0.73592 0.66912 0.0
N1340 N 0.82397 0.78845 0.61507 0.0
C1341 C 0.79267 0.79545 0.5685 0.0
C1342 C 0.81913 0.80571 0.57003 0.0
C1343 C 0.83446 0.80219 0.59369 0.0
C1344 C 0.79833 0.77895 0.61402 0.0
C1345 C 0.78231 0.7826 0.59139 0.0
H1346 H 0.85468 0.80991 0.59442 0.0
H1347 H 0.79025 0.76807 0.63106 0.0
H1348 H 0.888 0.74084 0.66234 0.0
H1349 H 0.87527 0.70413 0.5872 0.0
H1350 H 0.79638 0.86366 0.68279 0.0
H1351 H 0.82823 0.81571 0.55295 0.0
H1352 H 0.7619 0.77512 0.59199 0.0
C1353 C 0.84443 0.3001 0.91211 0.0
C1354 C 0.86283 0.32047 0.9159 0.0
N1355 N 0.88532 0.31457 0.90187 0.0
N1356 N 0.85519 0.28119 0.89597 0.0
C1357 C 0.88005 0.29051 0.89008 0.0
H1358 H 0.82403 0.29973 0.91961 0.0
Co1359 Co 0.83723 0.25196 0.88027 0.0
C1360 C 0.87502 0.20746 0.89491 0.0
O1361 O 0.85541 0.19453 0.90701 0.0
N1362 N 0.81901 0.22298 0.86298 0.0
C1363 C 0.80885 0.18735 0.83735 0.0
C1364 C 0.82883 0.20024 0.85157 0.0
C1365 C 0.79332 0.22386 0.85411 0.0
N1366 N 0.78643 0.20226 0.83911 0.0
O1367 O 0.84742 0.26474 0.84534 0.0
H1368 H 0.84958 0.19405 0.85163 0.0
H1369 H 0.78036 0.24109 0.85672 0.0
O1370 O 0.87034 0.23005 0.88337 0.0
C1371 C 0.82887 0.2814 0.83924 0.0
O1372 O 0.81008 0.28608 0.85725 0.0
N1373 N 0.82387 0.2418 0.91475 0.0
C1374 C 0.79722 0.2353 0.9642 0.0
C1375 C 0.82548 0.23488 0.96283 0.0
C1376 C 0.83846 0.23862 0.93792 0.0
C1377 C 0.79659 0.24376 0.91629 0.0
C1378 C 0.78291 0.23992 0.94042 0.0
H1379 H 0.86014 0.23976 0.93739 0.0
H1380 H 0.78517 0.25019 0.89914 0.0
H1381 H 0.89354 0.28019 0.8765 0.0
H1382 H 0.85921 0.33884 0.927 0.0
H1383 H 0.81097 0.16896 0.82586 0.0
H1384 H 0.83744 0.23219 0.98085 0.0
H1385 H 0.76126 0.2421 0.94063 0.0
C1386 C 0.53602 0.91863 0.35418 0.0
C1387 C 0.55617 0.89985 0.3512 0.0
N1388 N 0.55915 0.88674 0.37471 0.0
N1389 N 0.52602 0.91737 0.3795 0.0
C1390 C 0.54058 0.89755 0.39137 0.0
H1391 H 0.5297 0.93261 0.33879 0.0
Co1392 Co 0.49937 0.93939 0.39628 0.0
C1393 C 0.47044 0.88774 0.38313 0.0
O1394 O 0.48557 0.88324 0.36193 0.0
N1395 N 0.47358 0.96092 0.41304 0.0
C1396 C 0.43565 0.97824 0.42921 0.0
C1397 C 0.44671 0.95741 0.41463 0.0
C1398 C 0.4783 0.98406 0.42644 0.0
N1399 N 0.4556 0.99502 0.43657 0.0
O1400 O 0.51329 0.92998 0.43124 0.0
H1401 H 0.4357 0.94098 0.40557 0.0
H1402 H 0.49814 0.99263 0.42883 0.0
O1403 O 0.47408 0.909 0.39721 0.0
C1404 C 0.53358 0.94515 0.4356 0.0
O1405 O 0.54108 0.96163 0.4163 0.0
N1406 N 0.48773 0.95263 0.36277 0.0
C1407 C 0.48083 0.98311 0.31578 0.0
C1408 C 0.46533 0.95977 0.32032 0.0
C1409 C 0.469 0.94473 0.34422 0.0
C1410 C 0.50176 0.97586 0.35912 0.0
C1411 C 0.49868 0.99128 0.336 0.0
H1412 H 0.45696 0.92699 0.34758 0.0
H1413 H 0.51592 0.9823 0.37433 0.0
H1414 H 0.53793 0.89124 0.41205 0.0
H1415 H 0.56854 0.89699 0.33349 0.0
H1416 H 0.41453 0.98115 0.43346 0.0
H1417 H 0.45108 0.95288 0.30534 0.0
H1418 H 0.51054 1.00944 0.33387 0.0
C1419 C 0.18619 0.23166 0.9148 0.0
C1420 C 0.16787 0.21123 0.91854 0.0
N1421 N 0.14572 0.21661 0.90379 0.0
N1422 N 0.17568 0.2502 0.89803 0.0
C1423 C 0.15105 0.24049 0.89166 0.0
H1424 H 0.20645 0.23228 0.92269 0.0
Co1425 Co 0.19417 0.27895 0.88173 0.0
C1426 C 0.15568 0.32316 0.89666 0.0
O1427 O 0.17421 0.33534 0.91104 0.0
N1428 N 0.21293 0.30715 0.86382 0.0
C1429 C 0.22536 0.34343 0.8403 0.0
C1430 C 0.20531 0.332 0.85564 0.0
C1431 C 0.2373 0.30382 0.85223 0.0
N1432 N 0.24558 0.32565 0.83829 0.0
O1433 O 0.18364 0.26563 0.84717 0.0
H1434 H 0.18605 0.34118 0.85912 0.0
H1435 H 0.24849 0.2852 0.85327 0.0
O1436 O 0.16135 0.30136 0.88407 0.0
C1437 C 0.20066 0.24731 0.84149 0.0
O1438 O 0.21908 0.2415 0.85957 0.0
N1439 N 0.20776 0.28984 0.91604 0.0
C1440 C 0.23428 0.29598 0.96568 0.0
C1441 C 0.20606 0.2944 0.96441 0.0
C1442 C 0.19319 0.291 0.9394 0.0
C1443 C 0.23515 0.29057 0.91729 0.0
C1444 C 0.24868 0.29422 0.94158 0.0
H1445 H 0.17163 0.28836 0.93889 0.0
H1446 H 0.24704 0.28651 0.89972 0.0
H1447 H 0.13784 0.25027 0.87741 0.0
H1448 H 0.17137 0.19303 0.92998 0.0
H1449 H 0.22489 0.36316 0.83108 0.0
H1450 H 0.19407 0.29514 0.98259 0.0
H1451 H 0.27045 0.29398 0.94158 0.0
C1452 C 0.99397 0.11289 0.85578 0.0
C1453 C 0.97372 0.13142 0.85237 0.0
N1454 N 0.96895 0.14324 0.87624 0.0
N1455 N 1.00235 0.11302 0.88176 0.0
C1456 C 0.98654 0.1319 0.89361 0.0
H1457 H 1.00181 0.10019 0.83999 0.0
Co1458 Co 0.02935 0.09133 0.89871 0.0
C1459 C 0.05807 0.14259 0.88383 0.0
O1460 O 0.0432 0.14573 0.8622 0.0
N1461 N 0.05542 0.07011 0.91555 0.0
C1462 C 0.09339 0.05345 0.93237 0.0
C1463 C 0.08213 0.0743 0.91796 0.0
C1464 C 0.05101 0.04654 0.9283 0.0
N1465 N 0.07374 0.03597 0.93883 0.0
O1466 O 0.01557 0.10096 0.93375 0.0
H1467 H 0.09292 0.09124 0.90963 0.0
H1468 H 0.03136 0.03741 0.93001 0.0
O1469 O 0.05443 0.12207 0.89899 0.0
C1470 C 0.99593 0.08501 0.9383 0.0
O1471 O 0.98884 0.06835 0.91899 0.0
N1472 N 0.04088 0.07779 0.86529 0.0
C1473 C 0.04767 0.04769 0.81807 0.0
C1474 C 0.06451 0.06982 0.82369 0.0
C1475 C 0.06089 0.08466 0.84771 0.0
C1476 C 0.02562 0.05551 0.86071 0.0
C1477 C 0.02853 0.04037 0.83737 0.0
H1478 H 0.07403 0.1014 0.85197 0.0
H1479 H 1.01055 0.04971 0.87524 0.0
H1480 H 0.9877 0.13736 0.91467 0.0
H1481 H 0.96267 0.13519 0.83396 0.0
H1482 H 0.11446 0.05107 0.93718 0.0
H1483 H 0.07982 0.07593 0.80945 0.0
H1484 H 0.01558 0.02309 0.83433 0.0
C1485 C 0.68382 0.29963 0.11269 0.0
C1486 C 0.66542 0.32011 0.10966 0.0
N1487 N 0.64351 0.31435 0.1246 0.0
N1488 N 0.67354 0.28073 0.1292 0.0
C1489 C 0.64898 0.2902 0.13603 0.0
H1490 H 0.70407 0.29937 0.10479 0.0
Co1491 Co 0.69215 0.25239 0.14598 0.0
C1492 C 0.65216 0.20918 0.13033 0.0
O1493 O 0.66883 0.19833 0.11298 0.0
N1494 N 0.71073 0.2245 0.16428 0.0
C1495 C 0.72594 0.18667 0.18316 0.0
C1496 C 0.70623 0.19778 0.16713 0.0
C1497 C 0.73297 0.22901 0.17925 0.0
N1498 N 0.74288 0.20641 0.19057 0.0
O1499 O 0.68149 0.26645 0.18032 0.0
H1500 H 0.68991 0.18663 0.15835 0.0
H1501 H 0.74209 0.24864 0.18138 0.0
O1502 O 0.65941 0.22974 0.14414 0.0
C1503 C 0.69783 0.2857 0.18508 0.0
O1504 O 0.71595 0.2914 0.16666 0.0
N1505 N 0.70629 0.24107 0.112 0.0
C1506 C 0.73514 0.23539 0.0636 0.0
C1507 C 0.70698 0.23807 0.06344 0.0
C1508 C 0.69296 0.24132 0.08786 0.0
C1509 C 0.73364 0.2388 0.11215 0.0
C1510 C 0.74822 0.23527 0.08853 0.0
H1511 H 0.67155 0.24505 0.08731 0.0
H1512 H 0.74485 0.24137 0.13048 0.0
H1513 H 0.63607 0.28016 0.15038 0.0
H1514 H 0.66882 0.33865 0.09876 0.0
H1515 H 0.72804 0.16562 0.18831 0.0
H1516 H 0.696 0.23897 0.04462 0.0
H1517 H 0.76985 0.23336 0.08987 0.0
C1518 C 0.5388 0.11082 0.17777 0.0
C1519 C 0.55893 0.1297 0.18031 0.0
N1520 N 0.56139 0.14274 0.1567 0.0
N1521 N 0.52832 0.11191 0.15263 0.0
C1522 C 0.54255 0.13178 0.14043 0.0
H1523 H 0.53272 0.09698 0.19339 0.0
Co1524 Co 0.50126 0.09002 0.13635 0.0
C1525 C 0.47285 0.14151 0.15028 0.0
O1526 O 0.48783 0.1453 0.17174 0.0
N1527 N 0.47503 0.06872 0.12008 0.0
C1528 C 0.43684 0.05189 0.10396 0.0
C1529 C 0.4482 0.07253 0.1186 0.0
C1530 C 0.47943 0.04561 0.10657 0.0
N1531 N 0.45657 0.03497 0.09645 0.0
O1532 O 0.51473 0.09916 0.10111 0.0
H1533 H 0.43744 0.08911 0.12768 0.0
H1534 H 0.49916 0.0369 0.10398 0.0
O1535 O 0.47637 0.12059 0.1357 0.0
C1536 C 0.5347 0.0837 0.09644 0.0
O1537 O 0.54237 0.06727 0.11571 0.0
N1538 N 0.48993 0.07702 0.17007 0.0
C1539 C 0.48225 0.04643 0.21688 0.0
C1540 C 0.46625 0.06927 0.2117 0.0
C1541 C 0.4703 0.08433 0.18789 0.0
C1542 C 0.50451 0.05424 0.17431 0.0
C1543 C 0.5011 0.03882 0.1974 0.0
H1544 H 0.45766 0.1015 0.1839 0.0
H1545 H 0.51926 0.04812 0.15957 0.0
H1546 H 0.5394 0.13807 0.11982 0.0
H1547 H 0.57156 0.13276 0.19781 0.0
H1548 H 0.41568 0.04927 0.09966 0.0
H1549 H 0.45119 0.07568 0.22606 0.0
H1550 H 0.51337 0.02101 0.19999 0.0
C1551 C 0.49162 0.41827 0.17682 0.0
C1552 C 0.47151 0.39946 0.17986 0.0
N1553 N 0.46805 0.38679 0.15618 0.0
N1554 N 0.50115 0.41748 0.15128 0.0
C1555 C 0.48627 0.3979 0.13933 0.0
H1556 H 0.4984 0.4318 0.19244 0.0
Co1557 Co 0.52814 0.43935 0.13473 0.0
C1558 C 0.55687 0.38797 0.149 0.0
O1559 O 0.54175 0.38385 0.17029 0.0
N1560 N 0.55428 0.46064 0.11826 0.0
C1561 C 0.59253 0.47766 0.10249 0.0
C1562 C 0.58115 0.45703 0.11711 0.0
C1563 C 0.54986 0.48363 0.10454 0.0
N1564 N 0.57276 0.49441 0.09465 0.0
O1565 O 0.51501 0.42951 0.09958 0.0
H1566 H 0.59196 0.44066 0.1265 0.0
H1567 H 0.53009 0.49221 0.10175 0.0
O1568 O 0.55329 0.40897 0.13457 0.0
C1569 C 0.49476 0.44443 0.09439 0.0
O1570 O 0.48649 0.46104 0.11324 0.0
N1571 N 0.5392 0.45299 0.1683 0.0
C1572 C 0.54586 0.48411 0.21498 0.0
C1573 C 0.5618 0.46107 0.2105 0.0
C1574 C 0.55826 0.44573 0.18676 0.0
C1575 C 0.52467 0.47591 0.17189 0.0
C1576 C 0.52762 0.49163 0.19486 0.0
H1577 H 0.57073 0.4283 0.1834 0.0
H1578 H 0.5103 0.48189 0.1567 0.0
H1579 H 0.48851 0.39186 0.11852 0.0
H1580 H 0.4596 0.39615 0.1978 0.0
H1581 H 0.61373 0.48047 0.09854 0.0
H1582 H 0.57637 0.45468 0.22538 0.0
H1583 H 0.51543 0.50957 0.19688 0.0
C1584 C 0.21155 0.21377 0.31183 0.0
C1585 C 0.22963 0.20959 0.33323 0.0
H1586 H 0.1835 0.24002 0.29282 0.0
C1587 C 0.23318 0.23019 0.35231 0.0
H1588 H 0.20823 0.19842 0.29669 0.0
C1589 C 0.21875 0.25441 0.34997 0.0
C1590 C 0.2008 0.25849 0.32836 0.0
H1591 H 0.24694 0.22756 0.36901 0.0
H1592 H 0.22186 0.27004 0.36484 0.0
C1593 C 0.19744 0.23783 0.30941 0.0
C1594 C 0.46671 0.56542 0.96738 0.0
C1595 C 0.46305 0.54622 0.94688 0.0
H1596 H 0.49266 0.59412 0.98584 0.0
C1597 C 0.48413 0.54154 0.92864 0.0
H1598 H 0.45092 0.56974 0.98176 0.0
C1599 C 0.50845 0.55572 0.93113 0.0
C1600 C 0.5121 0.57458 0.95203 0.0
H1601 H 0.48191 0.52688 0.91264 0.0
H1602 H 0.52453 0.55162 0.91705 0.0
C1603 C 0.49083 0.57933 0.96993 0.0
C1604 C 0.83246 0.29158 0.31554 0.0
C1605 C 0.82393 0.26938 0.33074 0.0
H1606 H 0.82628 0.33258 0.30492 0.0
C1607 C 0.80182 0.27254 0.34821 0.0
H1608 H 0.84973 0.29011 0.30238 0.0
C1609 C 0.78819 0.29727 0.34983 0.0
C1610 C 0.79656 0.31925 0.3341 0.0
H1611 H 0.79472 0.25577 0.36016 0.0
H1612 H 0.77096 0.29905 0.36303 0.0
C1613 C 0.81903 0.3161 0.3172 0.0
C1614 C 0.54178 0.94706 0.9699 0.0
C1615 C 0.51993 0.95452 0.95369 0.0
H1616 H 0.5825 0.95408 0.98093 0.0
C1617 C 0.5234 0.97547 0.93487 0.0
H1618 H 0.54006 0.93065 0.98412 0.0
C1619 C 0.54809 0.98906 0.93288 0.0
C1620 C 0.56971 0.98179 0.94957 0.0
H1621 H 0.5069 0.98172 0.92213 0.0
H1622 H 0.55011 1.00542 0.91861 0.0
C1623 C 0.56627 0.96044 0.96786 0.0
C1624 C 0.19774 0.78955 0.21813 0.0
C1625 C 0.20395 0.76827 0.20065 0.0
H1626 H 0.20587 0.82971 0.23045 0.0
C1627 C 0.22405 0.7722 0.18103 0.0
H1628 H 0.18202 0.78752 0.23305 0.0
C1629 C 0.23796 0.79681 0.17941 0.0
C1630 C 0.23178 0.81792 0.19722 0.0
H1631 H 0.22932 0.75612 0.1673 0.0
H1632 H 0.25355 0.79924 0.16438 0.0
C1633 C 0.21137 0.81395 0.21642 0.0
C1634 C 0.06915 0.57285 0.07151 0.0
C1635 C 0.07153 0.54839 0.08555 0.0
H1636 H 0.04343 0.60451 0.0582 0.0
C1637 C 0.04868 0.53758 0.09815 0.0
H1638 H 0.0864 0.58195 0.06182 0.0
C1639 C 0.02375 0.55059 0.09585 0.0
C1640 C 0.0213 0.5746 0.0809 0.0
H1641 H 0.04988 0.51873 0.10902 0.0
H1642 H 1.00631 0.54141 0.10504 0.0
C1643 C 0.04442 0.58576 0.06924 0.0
C1644 C 0.8178 0.71491 0.21982 0.0
C1645 C 0.79927 0.71085 0.19879 0.0
H1646 H 0.84606 0.74118 0.23854 0.0
C1647 C 0.79525 0.73159 0.17996 0.0
H1648 H 0.82151 0.69944 0.23473 0.0
C1649 C 0.80959 0.75587 0.18226 0.0
C1650 C 0.82788 0.75987 0.20358 0.0
H1651 H 0.78114 0.72904 0.16354 0.0
H1652 H 0.80609 0.77165 0.16765 0.0
C1653 C 0.83181 0.73903 0.2222 0.0
C1654 C 1.00899 0.97755 0.09767 0.0
C1655 C 1.01133 0.9549 0.08073 0.0
H1656 H 0.98313 1.00867 0.11301 0.0
C1657 C 0.98839 0.94547 0.06731 0.0
H1658 H 0.02636 0.98533 0.10824 0.0
C1659 C 0.9639 0.95865 0.07007 0.0
C1660 C 0.96158 0.98173 0.08631 0.0
H1661 H 0.98931 0.92773 0.05467 0.0
H1662 H 0.94679 0.95079 0.05911 0.0
C1663 C 0.98429 0.99091 0.1004 0.0
C1664 C 0.34638 0.21811 0.25848 0.0
C1665 C 0.32542 0.19938 0.26217 0.0
H1666 H 0.3645 0.24743 0.2322 0.0
C1667 C 0.30689 0.19548 0.24125 0.0
H1668 H 0.3609 0.22166 0.27433 0.0
C1669 C 0.30894 0.21007 0.21742 0.0
C1670 C 0.32957 0.22909 0.21372 0.0
H1671 H 0.29086 0.18089 0.24314 0.0
H1672 H 0.2941 0.20638 0.20188 0.0
C1673 C 0.3484 0.23294 0.23446 0.0
C1674 C 0.47786 0.43235 0.02041 0.0
C1675 C 0.45531 0.44919 0.0171 0.0
H1676 H 0.50826 0.41751 0.04747 0.0
C1677 C 0.44545 0.46311 0.03961 0.0
H1678 H 0.48601 0.42139 1.00344 0.0
C1679 C 0.45804 0.46086 0.06458 0.0
C1680 C 0.48096 0.44464 0.06788 0.0
H1681 H 0.42781 0.47573 0.038 0.0
H1682 H 0.44981 0.47218 0.0813 0.0
C1683 C 0.49063 0.43014 0.04559 0.0
C1684 C 0.72015 0.33461 0.23874 0.0
C1685 C 0.70149 0.33025 0.25942 0.0
H1686 H 0.73342 0.32427 0.19939 0.0
C1687 C 0.68079 0.31132 0.25536 0.0
H1688 H 0.73598 0.34937 0.24096 0.0
C1689 C 0.6792 0.29669 0.23119 0.0
C1690 C 0.69816 0.30099 0.21068 0.0
H1691 H 0.66618 0.30748 0.27104 0.0
H1692 H 0.66331 0.282 0.22862 0.0
C1693 C 0.71849 0.32026 0.21474 0.0
C1694 C 0.55628 0.09795 0.02406 0.0
C1695 C 0.57638 0.07831 0.02036 0.0
H1696 H 0.52702 0.11514 0.051 0.0
C1697 C 0.58264 0.06115 0.04189 0.0
H1698 H 0.55091 0.11141 1.0078 0.0
C1699 C 0.56916 0.06333 0.06638 0.0
C1700 C 0.54888 0.08268 0.07016 0.0
H1701 H 0.59831 0.0462 0.04002 0.0
H1702 H 0.57471 0.0496 0.08238 0.0
C1703 C 0.54255 0.10005 0.04874 0.0
C1704 C 0.30992 0.82245 0.31773 0.0
C1705 C 0.32901 0.80193 0.32153 0.0
H1706 H 0.29347 0.85209 0.29139 0.0
C1707 C 0.34699 0.79605 0.30053 0.0
H1708 H 0.29582 0.82773 0.33348 0.0
C1709 C 0.34553 0.81022 0.27609 0.0
C1710 C 0.32595 0.83035 0.27224 0.0
H1711 H 0.36191 0.78036 0.30285 0.0
H1712 H 0.35928 0.80503 0.26003 0.0
C1713 C 0.30839 0.83639 0.29346 0.0
C1714 C 0.06796 0.46828 0.96669 0.0
C1715 C 0.04934 0.44742 0.96231 0.0
H1716 H 0.09588 0.48676 0.9935 0.0
C1717 C 0.04447 0.42892 0.98314 0.0
H1718 H 0.07226 0.48296 0.95115 0.0
C1719 C 0.05817 0.43124 1.00778 0.0
C1720 C 0.07674 0.45225 1.01204 0.0
H1721 H 0.03021 0.41268 0.98038 0.0
H1722 H 0.05409 0.41678 0.02355 0.0
C1723 C 0.08139 0.47068 0.99117 0.0
C1724 C 0.68358 0.72056 0.27459 0.0
C1725 C 0.7041 0.70137 0.27084 0.0
H1726 H 0.66597 0.75002 0.30103 0.0
C1727 C 0.72238 0.69687 0.29185 0.0
H1728 H 0.66926 0.72462 0.25869 0.0
C1729 C 0.72051 0.71128 0.31584 0.0
C1730 C 0.70031 0.73072 0.3196 0.0
H1731 H 0.73808 0.68194 0.28992 0.0
H1732 H 0.73513 0.70713 0.33146 0.0
C1733 C 0.68175 0.73519 0.29875 0.0
C1734 C 0.94885 0.06029 0.99263 0.0
C1735 C 0.95307 0.07865 1.01367 0.0
H1736 H 0.95876 0.04805 0.95281 0.0
C1737 C 0.9716 0.09978 1.00977 0.0
H1738 H 0.93443 0.04412 0.99467 0.0
C1739 C 0.98581 0.10216 0.98537 0.0
C1740 C 0.98147 0.08362 0.96442 0.0
H1741 H 0.97537 0.11419 0.02568 0.0
H1742 H 1.00008 0.11844 0.98292 0.0
C1743 C 0.96275 0.06276 0.96842 0.0
C1744 C 0.258 0.344 0.22844 0.0
C1745 C 0.26063 0.32747 0.20551 0.0
H1746 H 0.23178 0.35853 0.25968 0.0
C1747 C 0.23786 0.31409 0.19563 0.0
H1748 H 0.27524 0.35454 0.23652 0.0
C1749 C 0.21326 0.31639 0.20871 0.0
C1750 C 0.21066 0.33212 0.23212 0.0
H1751 H 0.23902 0.30178 0.17768 0.0
H1752 H 0.19629 0.30545 0.20052 0.0
C1753 C 0.23318 0.34627 0.24169 0.0
C1754 C 0.21461 0.71985 0.31702 0.0
C1755 C 0.21081 0.69949 0.2977 0.0
H1756 H 0.24057 0.73781 0.34604 0.0
C1757 C 0.23173 0.68109 0.293 0.0
H1758 H 0.19896 0.73436 0.32134 0.0
C1759 C 0.25599 0.68322 0.30737 0.0
C1760 C 0.25973 0.70392 0.32643 0.0
H1761 H 0.22941 0.6652 0.27824 0.0
H1762 H 0.27192 0.66898 0.30331 0.0
C1763 C 0.23867 0.72204 0.33111 0.0
C1764 C 0.97277 0.53916 0.94778 0.0
C1765 C 0.95438 0.51823 0.95212 0.0
H1766 H 0.98581 0.57852 0.95844 0.0
C1767 C 0.93379 0.52196 0.97126 0.0
H1768 H 0.98849 0.53726 0.93285 0.0
C1769 C 0.93211 0.54597 0.98613 0.0
C1770 C 0.9509 0.56667 0.98194 0.0
H1771 H 0.91936 0.50612 0.97513 0.0
H1772 H 0.91634 0.54822 1.00099 0.0
C1773 C 0.97105 0.56299 0.96242 0.0
C1774 C 0.79608 0.84847 0.29235 0.0
C1775 C 0.81813 0.8329 0.30068 0.0
H1776 H 0.75453 0.85828 0.2989 0.0
C1777 C 0.81519 0.81593 0.32316 0.0
H1778 H 0.79773 0.86172 0.27511 0.0
C1779 C 0.79075 0.81394 0.33658 0.0
C1780 C 0.76846 0.82889 0.32801 0.0
H1781 H 0.83178 0.80381 0.33038 0.0
H1782 H 0.78938 0.8007 0.35383 0.0
C1783 C 0.77142 0.84653 0.30598 0.0
C1784 C 0.55492 0.49053 0.44404 0.0
C1785 C 0.57341 0.51136 0.44847 0.0
H1786 H 0.54185 0.45112 0.45449 0.0
C1787 C 0.5939 0.50757 0.46772 0.0
H1788 H 0.53922 0.49257 0.42909 0.0
C1789 C 0.59551 0.48353 0.48248 0.0
C1790 C 0.57679 0.46283 0.47804 0.0
H1791 H 0.60835 0.52336 0.4717 0.0
H1792 H 0.61128 0.4812 0.49734 0.0
C1793 C 0.55661 0.46662 0.45855 0.0
C1794 C 0.27162 0.68285 0.72276 0.0
C1795 C 0.2676 0.70375 0.70399 0.0
H1796 H 0.29844 0.66473 0.75156 0.0
C1797 C 0.28855 0.72204 0.69935 0.0
H1798 H 0.25578 0.6685 0.72684 0.0
C1799 C 0.31272 0.71987 0.71331 0.0
C1800 C 0.31673 0.69938 0.73245 0.0
H1801 H 0.28642 0.738 0.68468 0.0
H1802 H 0.32825 0.73455 0.70911 0.0
C1803 C 0.29597 0.68074 0.73697 0.0
C1804 C 0.97069 0.49158 0.57981 0.0
C1805 C 0.95226 0.51242 0.57529 0.0
H1806 H 0.98303 0.45172 0.57045 0.0
C1807 C 0.93104 0.50812 0.55698 0.0
H1808 H 0.98687 0.49388 0.59419 0.0
C1809 C 0.92867 0.48351 0.5432 0.0
C1810 C 0.94736 0.46282 0.54774 0.0
H1811 H 0.91654 0.52386 0.55307 0.0
H1812 H 0.91235 0.48074 0.52903 0.0
C1813 C 0.96827 0.46718 0.56629 0.0
C1814 C 0.09489 0.02437 0.56322 0.0
C1815 C 0.07399 0.02093 0.58207 0.0
H1816 H 0.11299 0.05032 0.53358 0.0
C1817 C 0.05567 0.04197 0.58596 0.0
H1818 H 0.10927 1.00843 0.55972 0.0
C1819 C 0.05782 0.06569 0.57123 0.0
C1820 C 0.07832 0.06912 0.55202 0.0
H1821 H 0.03969 0.04024 0.60065 0.0
H1822 H 0.04311 0.08131 0.57489 0.0
C1823 C 0.09698 0.04826 0.5482 0.0
C1824 C 0.73749 0.7329 0.85462 0.0
C1825 C 0.73242 0.71214 0.83603 0.0
H1826 H 0.72798 0.7733 0.86702 0.0
C1827 C 0.71316 0.7164 0.81575 0.0
H1828 H 0.75219 0.73023 0.87048 0.0
C1829 C 0.69956 0.74076 0.81373 0.0
C1830 C 0.70468 0.7617 0.83197 0.0
H1831 H 0.70852 0.7009 0.80111 0.0
H1832 H 0.6847 0.743 0.79797 0.0
C1833 C 0.72361 0.75748 0.85267 0.0
C1834 C 0.9795 0.03858 0.43504 0.0
C1835 C 0.95739 0.04744 0.45022 0.0
H1836 H 0.02124 0.0443 0.42564 0.0
C1837 C 0.96057 0.06987 0.46722 0.0
H1838 H 0.97769 0.02134 0.42181 0.0
C1839 C 0.98527 0.08285 0.46945 0.0
C1840 C 1.00756 0.07387 0.45472 0.0
H1841 H 0.94397 0.07744 0.4791 0.0
H1842 H 0.98679 0.10015 0.48261 0.0
C1843 C 1.00439 0.05175 0.43722 0.0
C1844 C 0.29002 0.79678 0.85043 0.0
C1845 C 0.29939 0.81937 0.83625 0.0
H1846 H 0.29507 0.75462 0.85842 0.0
C1847 C 0.32243 0.81669 0.82006 0.0
H1848 H 0.27229 0.79818 0.86299 0.0
C1849 C 0.33536 0.79198 0.81743 0.0
C1850 C 0.3257 0.76913 0.8309 0.0
H1851 H 0.33044 0.8337 0.80903 0.0
H1852 H 0.35304 0.79082 0.8048 0.0
C1853 C 0.30309 0.77186 0.8478 0.0
C1854 C 0.03949 0.44425 0.46476 0.0
C1855 C 0.01661 0.45369 0.45124 0.0
H1856 H 0.08106 0.44972 0.47332 0.0
C1857 C 0.01906 0.47652 0.43455 0.0
H1858 H 0.03852 0.42642 0.47725 0.0
C1859 C 0.04375 0.48995 0.43207 0.0
C1860 C 0.06639 0.48075 0.44624 0.0
H1861 H 1.00179 0.4844 0.42393 0.0
H1862 H 0.04496 0.50779 0.4196 0.0
C1863 C 0.06399 0.45757 0.4623 0.0
C1864 C 0.73924 0.29509 0.68204 0.0
C1865 C 0.7257 0.31858 0.68989 0.0
H1866 H 0.73839 0.25204 0.68021 0.0
C1867 C 0.69923 0.3165 0.6995 0.0
H1868 H 0.75973 0.2961 0.67476 0.0
C1869 C 0.68696 0.29144 0.70252 0.0
C1870 C 0.70089 0.26771 0.69621 0.0
H1871 H 0.68813 0.33429 0.70542 0.0
H1872 H 0.66667 0.29067 0.71029 0.0
C1873 C 0.72697 0.26985 0.68524 0.0
C1874 C 0.54444 0.04101 0.60185 0.0
C1875 C 0.56533 0.04541 0.58331 0.0
H1876 H 0.50435 0.05171 0.61404 0.0
C1877 C 0.56156 0.0645 0.56274 0.0
H1878 H 0.54676 0.02646 0.61792 0.0
C1879 C 0.53761 0.0787 0.56051 0.0
C1880 C 0.51658 0.07435 0.57878 0.0
H1881 H 0.57716 0.06858 0.54809 0.0
H1882 H 0.53577 0.09344 0.54458 0.0
C1883 C 0.52026 0.0555 0.59967 0.0
C1884 C 0.30566 0.25761 0.67805 0.0
C1885 C 0.3262 0.2615 0.69724 0.0
H1886 H 0.2762 0.23043 0.66156 0.0
C1887 C 0.3334 0.23992 0.71393 0.0
H1888 H 0.29963 0.27391 0.66492 0.0
C1889 C 0.32024 0.21526 0.71192 0.0
C1890 C 0.29933 0.21137 0.69323 0.0
H1891 H 0.34948 0.24195 0.72847 0.0
H1892 H 0.32645 0.19926 0.72536 0.0
C1893 C 0.29223 0.23277 0.67614 0.0
C1894 C 0.48428 0.44728 0.55964 0.0
C1895 C 0.50594 0.45339 0.57664 0.0
H1896 H 0.44409 0.456 0.54798 0.0
C1897 C 0.50267 0.47362 0.59628 0.0
H1898 H 0.48589 0.43148 0.54471 0.0
C1899 C 0.47839 0.48791 0.59827 0.0
C1900 C 0.45697 0.48202 0.58077 0.0
H1901 H 0.51907 0.47881 0.60963 0.0
H1902 H 0.47654 0.50373 0.61317 0.0
C1903 C 0.46017 0.46131 0.56171 0.0
C1904 C 0.84562 0.72531 0.76147 0.0
C1905 C 0.82846 0.70293 0.7645 0.0
H1906 H 0.86073 0.75596 0.73485 0.0
C1907 C 0.81425 0.6936 0.74195 0.0
H1908 H 0.8568 0.73304 0.77851 0.0
C1909 C 0.81653 0.70657 0.7172 0.0
C1910 C 0.83306 0.72933 0.71419 0.0
H1911 H 0.80137 0.6761 0.74336 0.0
H1912 H 0.80498 0.69877 0.70042 0.0
C1913 C 0.84786 0.73845 0.73652 0.0
C1914 C 0.98067 0.93073 0.5523 0.0
C1915 C 0.97668 0.94978 0.57284 0.0
H1916 H 0.96947 0.91762 0.51257 0.0
C1917 C 0.95782 0.97045 0.56872 0.0
H1918 H 0.99504 0.91458 0.55487 0.0
C1919 C 0.94338 0.97222 0.54475 0.0
C1920 C 0.94722 0.95332 0.52413 0.0
H1921 H 0.95413 0.98553 0.58404 0.0
H1922 H 0.92887 0.98828 0.54255 0.0
C1923 C 0.96594 0.93241 0.52818 0.0
C1924 C 0.17931 0.79385 0.73666 0.0
C1925 C 0.19672 0.79983 0.71521 0.0
H1926 H 0.16849 0.80228 0.7777 0.0
C1927 C 0.21675 0.81945 0.71898 0.0
H1928 H 0.16373 0.7788 0.73438 0.0
C1929 C 0.21952 0.83267 0.74355 0.0
C1930 C 0.20229 0.82678 0.7651 0.0
H1931 H 0.23054 0.82466 0.70293 0.0
H1932 H 0.23497 0.84788 0.74547 0.0
C1933 C 0.18201 0.80732 0.7614 0.0
C1934 C 0.0838 0.56134 0.54052 0.0
C1935 C 0.07722 0.5784 0.51903 0.0
H1936 H 0.07609 0.54954 0.58096 0.0
C1937 C 0.05715 0.59803 0.52291 0.0
H1938 H 0.09952 0.54644 0.53846 0.0
C1939 C 0.04346 0.59993 0.54763 0.0
C1940 C 0.04984 0.58236 0.56889 0.0
H1941 H 0.05161 0.61144 0.50665 0.0
H1942 H 0.02774 0.6148 0.54995 0.0
C1943 C 0.07039 0.56332 0.56504 0.0
C1944 C 0.84572 0.30901 0.76962 0.0
C1945 C 0.82221 0.32371 0.76372 0.0
H1946 H 0.86643 0.28376 0.79813 0.0
C1947 C 0.80116 0.32353 0.7825 0.0
H1948 H 0.86225 0.30859 0.75547 0.0
C1949 C 0.80355 0.30948 0.80661 0.0
C1950 C 0.82707 0.2951 0.8128 0.0
H1951 H 0.78297 0.33491 0.77905 0.0
H1952 H 0.78683 0.31019 0.82056 0.0
C1953 C 0.8481 0.29471 0.79394 0.0
C1954 C 0.55566 0.93074 0.50774 0.0
C1955 C 0.57646 0.94974 0.51104 0.0
H1956 H 0.52549 0.91432 0.48132 0.0
C1957 C 0.58327 0.96628 0.4892 0.0
H1958 H 0.54984 0.91779 0.52427 0.0
C1959 C 0.5695 0.96426 0.46485 0.0
C1960 C 0.54837 0.94571 0.46155 0.0
H1961 H 0.59945 0.98074 0.49084 0.0
H1962 H 0.5754 0.97756 0.44861 0.0
C1963 C 0.54165 0.9288 0.48322 0.0
C1964 C 0.18168 0.23734 0.79528 0.0
C1965 C 0.20126 0.23316 0.81526 0.0
H1966 H 0.16803 0.22706 0.75548 0.0
C1967 C 0.22232 0.21505 0.81009 0.0
H1968 H 0.16524 0.25118 0.79868 0.0
C1969 C 0.22393 0.20147 0.78565 0.0
C1970 C 0.20453 0.20551 0.76557 0.0
H1971 H 0.23777 0.21122 0.82498 0.0
H1972 H 0.24023 0.18737 0.78276 0.0
C1973 C 0.18325 0.2235 0.77064 0.0
C1974 C 0.44817 0.56173 0.48987 0.0
C1975 C 0.45322 0.58 0.51082 0.0
H1976 H 0.45686 0.54941 0.44977 0.0
C1977 C 0.47207 0.60075 0.50651 0.0
H1978 H 0.43346 0.54586 0.49218 0.0
C1979 C 0.4857 0.60292 0.48177 0.0
C1980 C 0.48043 0.58454 0.46089 0.0
H1981 H 0.47644 0.6151 0.52232 0.0
H1982 H 0.50017 0.61896 0.47897 0.0
C1983 C 0.4615 0.56399 0.46533 0.0
C1984 C 0.73127 0.84928 0.73721 0.0
C1985 C 0.71094 0.82989 0.73411 0.0
H1986 H 0.77082 0.86212 0.72539 0.0
C1987 C 0.71524 0.80833 0.71623 0.0
H1988 H 0.72856 0.8661 0.75082 0.0
C1989 C 0.73917 0.80601 0.70193 0.0
C1990 C 0.75958 0.82522 0.70492 0.0
H1991 H 0.70009 0.79296 0.71321 0.0
H1992 H 0.74148 0.78928 0.68817 0.0
C1993 C 0.75536 0.84704 0.7226 0.0
C1994 C 0.75891 0.18322 0.8018 0.0
C1995 C 0.76088 0.1977 0.82616 0.0
H1996 H 0.73333 0.17071 0.76913 0.0
C1997 C 0.73747 0.20872 0.83736 0.0
H1998 H 0.77659 0.1745 0.79262 0.0
C1999 C 0.71298 0.20664 0.82396 0.0
C2000 C 0.71115 0.19335 0.79904 0.0
H2001 H 0.73812 0.21934 0.85639 0.0
H2002 H 0.69551 0.21599 0.83299 0.0
C2003 C 0.73418 0.18103 0.78835 0.0
C2004 C 0.4717 0.04079 0.44663 0.0
C2005 C 0.45321 0.02 0.45119 0.0
H2006 H 0.48462 0.08037 0.45659 0.0
C2007 C 0.43253 0.02408 0.47016 0.0
H2008 H 0.48753 0.03857 0.43187 0.0
C2009 C 0.43074 0.04836 0.48454 0.0
C2010 C 0.44948 0.06901 0.48 0.0
H2011 H 0.41805 1.00834 0.47421 0.0
H2012 H 0.41485 0.0509 0.49922 0.0
C2013 C 0.46983 0.06493 0.46076 0.0
C2014 C 0.29735 0.34786 0.78739 0.0
C2015 C 0.31978 0.33277 0.79555 0.0
H2016 H 0.25585 0.35723 0.79449 0.0
C2017 C 0.31756 0.31631 0.81849 0.0
H2018 H 0.29842 0.36069 0.76979 0.0
C2019 C 0.29342 0.31435 0.83253 0.0
C2020 C 0.27071 0.32877 0.8241 0.0
H2021 H 0.33448 0.30459 0.8256 0.0
H2022 H 0.2926 0.3015 0.85012 0.0
C2023 C 0.273 0.3459 0.80158 0.0
C2024 C 0.05828 0.98982 0.94832 0.0
C2025 C 0.07639 1.01087 0.95324 0.0
H2026 H 0.04573 0.95005 0.95798 0.0
C2027 C 0.09689 1.00697 0.97248 0.0
H2028 H 0.04262 0.99186 0.93334 0.0
C2029 C 0.09882 0.98266 0.98679 0.0
C2030 C 0.08038 0.9618 0.98197 0.0
H2031 H 0.11109 0.02289 0.97684 0.0
H2032 H 0.11452 0.9803 1.00172 0.0
C2033 C 0.06026 0.96567 0.96242 0.0
C2034 C 0.78894 0.22165 0.20012 0.0
C2035 C 0.7677 0.20386 0.20536 0.0
H2036 H 0.82877 0.23391 0.20953 0.0
C2037 C 0.77127 0.18367 0.22496 0.0
H2038 H 0.78717 0.23701 0.18477 0.0
C2039 C 0.79552 0.18173 0.23933 0.0
C2040 C 0.81658 0.19985 0.23415 0.0
H2041 H 0.7552 0.1697 0.22947 0.0
H2042 H 0.7977 0.16625 0.25454 0.0
C2043 C 0.81298 0.21967 0.21426 0.0
C2044 C 0.43151 0.98274 0.04738 0.0
C2045 C 0.45015 0.96195 0.05157 0.0
H2046 H 0.41899 0.02259 0.05848 0.0
C2047 C 0.47041 0.96552 0.07103 0.0
H2048 H 0.41568 0.98057 0.03255 0.0
C2049 C 0.4723 0.9893 0.0857 0.0
C2050 C 0.45396 1.01026 0.08145 0.0
H2051 H 0.4851 0.94993 0.07496 0.0
H2052 H 0.48807 0.99114 0.1006 0.0
C2053 C 0.43334 1.00669 0.06229 0.0
C2054 C 0.59858 0.5473 0.04669 0.0
C2055 C 0.57986 0.56803 0.05085 0.0
H2056 H 0.61093 0.50731 0.05746 0.0
C2057 C 0.5592 0.56413 0.06979 0.0
H2058 H 0.6147 0.54971 0.03224 0.0
C2059 C 0.55702 0.54011 0.08403 0.0
C2060 C 0.57548 0.51924 0.07988 0.0
H2061 H 0.54442 0.57964 0.07367 0.0
H2062 H 0.54096 0.53804 0.09857 0.0
C2063 C 0.59646 0.52312 0.06119 0.0
C2064 C 0.03342 0.25675 0.27977 0.0
C2065 C 0.03974 0.27572 0.30003 0.0
H2066 H 1.00584 0.227 0.26512 0.0
C2067 C 0.02182 0.27838 0.32184 0.0
H2068 H 0.04597 0.25448 0.26213 0.0
C2069 C 0.99827 0.26285 0.32309 0.0
C2070 C 0.99229 0.2439 0.30287 0.0
H2071 H 0.02594 0.29238 0.33804 0.0
H2072 H 0.98461 0.26572 0.33984 0.0
C2073 C 1.01026 0.24088 0.28136 0.0
C2074 C 0.50471 0.74256 0.99941 0.0
C2075 C 0.52875 0.74047 0.98457 0.0
H2076 H 0.47139 0.76715 1.01102 0.0
C2077 C 0.53683 0.76244 0.96875 0.0
H2078 H 0.49808 0.7262 1.01219 0.0
C2079 C 0.52129 0.78595 0.96788 0.0
C2080 C 0.4974 0.78816 0.98302 0.0
H2081 H 0.55502 0.76138 0.95683 0.0
H2082 H 0.52807 0.80248 0.9554 0.0
C2083 C 0.48926 0.76605 0.99863 0.0
C2084 C 1.00657 0.77922 0.2103 0.0
C2085 C 0.98856 0.77645 0.23202 0.0
H2086 H 0.04361 0.76635 0.19215 0.0
C2087 C 0.99466 0.75724 0.25208 0.0
H2088 H 1.00259 0.79344 0.19427 0.0
C2089 C 0.01768 0.74121 0.25038 0.0
C2090 C 0.03573 0.74425 0.22892 0.0
H2091 H 0.98198 0.75488 0.26963 0.0
H2092 H 0.0219 0.72713 0.26649 0.0
C2093 C 0.02995 0.76347 0.20889 0.0
C2094 C 0.02218 0.74316 0.06692 0.0
C2095 C 0.99802 0.74072 0.05228 0.0
H2096 H 0.05564 0.76822 0.07771 0.0
C2097 C 0.9893 0.76272 0.03691 0.0
H2098 H 0.02945 0.72653 0.07899 0.0
C2099 C 1.00452 0.78635 0.03575 0.0
C2100 C 0.02877 0.78892 0.05031 0.0
H2101 H 0.9712 0.76131 0.02486 0.0
H2102 H 0.9975 0.80239 0.0228 0.0
C2103 C 0.03732 0.76698 0.06601 0.0
C2104 C 0.27438 1.00224 0.2593 0.0
C2105 C 0.29864 0.99009 0.25142 0.0
H2106 H 0.25502 0.03389 0.28085 0.0
C2107 C 0.32295 1.00209 0.25971 0.0
H2108 H 0.25526 0.99382 0.25313 0.0
C2109 C 0.3228 0.02554 0.27577 0.0
C2110 C 0.29836 0.03756 0.28349 0.0
H2111 H 0.34198 0.99314 0.25415 0.0
H2112 H 0.34174 0.03451 0.28171 0.0
C2113 C 0.27424 0.02541 0.27513 0.0
C2114 C 0.26775 0.49183 0.98651 0.0
C2115 C 0.28995 0.47656 0.99487 0.0
H2116 H 0.22829 0.50595 0.99559 0.0
C2117 C 0.28808 0.46218 0.01928 0.0
H2118 H 0.26867 0.50366 0.9682 0.0
C2119 C 0.26477 0.46338 0.03511 0.0
C2120 C 0.24269 0.47903 0.02695 0.0
H2121 H 0.3048 0.45011 0.02627 0.0
H2122 H 0.26401 0.45197 0.05367 0.0
C2123 C 0.24455 0.49317 1.00236 0.0
C2124 C 0.75343 0.5263 0.25588 0.0
C2125 C 0.72936 0.53937 0.24898 0.0
H2126 H 0.77234 0.49372 0.2764 0.0
C2127 C 0.70492 0.52814 0.25783 0.0
H2128 H 0.77261 0.53421 0.24927 0.0
C2129 C 0.70475 0.50452 0.27359 0.0
C2130 C 0.729 0.49158 0.28039 0.0
H2131 H 0.68605 0.53786 0.25302 0.0
H2132 H 0.68572 0.49618 0.28008 0.0
C2133 C 0.75326 0.50292 0.27137 0.0
C2134 C 0.77324 0.07108 0.03219 0.0
C2135 C 0.79193 0.05001 0.0291 0.0
H2136 H 0.73561 0.0882 0.01958 0.0
C2137 C 0.78647 0.03015 1.00944 0.0
H2138 H 0.77666 0.08695 0.04674 0.0
C2139 C 0.76344 0.03145 0.99332 0.0
C2140 C 0.74472 0.05222 0.99674 0.0
H2141 H 0.79961 1.01303 1.0068 0.0
H2142 H 0.75973 0.01551 0.97888 0.0
C2143 C 0.74983 0.07201 0.01639 0.0
C2144 C 0.2726 0.31239 0.99479 0.0
C2145 C 0.24907 0.29683 0.99184 0.0
H2146 H 0.3056 0.32373 0.02029 0.0
C2147 C 0.24105 0.28035 1.01334 0.0
H2148 H 0.27931 0.3254 0.97863 0.0
C2149 C 0.25624 0.2792 0.03702 0.0
C2150 C 0.27979 0.2947 0.04005 0.0
H2151 H 0.22348 0.2676 1.01157 0.0
H2152 H 0.24972 0.26565 0.0528 0.0
C2153 C 0.28778 0.31132 0.01859 0.0
C2154 C 0.24922 0.73965 0.49519 0.0
C2155 C 0.27629 0.73109 0.49476 0.0
H2156 H 0.21349 0.74588 0.5185 0.0
C2157 C 0.28753 0.72137 0.51891 0.0
H2158 H 0.23982 0.74809 0.47745 0.0
C2159 C 0.27235 0.72073 0.54273 0.0
C2160 C 0.24543 0.72938 0.54294 0.0
H2161 H 0.30808 0.71426 0.5195 0.0
H2162 H 0.28173 0.71363 0.5611 0.0
C2163 C 0.23396 0.73849 0.51883 0.0
C2164 C 0.97019 0.52408 0.79043 0.0
C2165 C 0.97837 0.49698 0.79038 0.0
H2166 H 0.9641 0.56011 0.7675 0.0
C2167 C 0.98696 0.48547 0.7661 0.0
H2168 H 0.96352 0.53349 0.80894 0.0
C2169 C 0.98813 0.50087 0.74254 0.0
C2170 C 0.9801 0.52815 0.74237 0.0
H2171 H 0.99397 0.46483 0.76558 0.0
H2172 H 0.9962 0.49142 0.72466 0.0
C2173 C 0.97082 0.53942 0.76669 0.0
C2174 C 0.76258 0.81992 0.50176 0.0
C2175 C 0.74379 0.79953 0.49598 0.0
H2176 H 0.79218 0.83517 0.52924 0.0
C2177 C 0.74108 0.7781 0.51412 0.0
H2178 H 0.76522 0.83661 0.48798 0.0
C2179 C 0.7571 0.77675 0.53724 0.0
C2180 C 0.77592 0.79715 0.54334 0.0
H2181 H 0.72733 0.76174 0.50986 0.0
H2182 H 0.75507 0.75917 0.54993 0.0
C2183 C 0.77829 0.81888 0.52527 0.0
C2184 C 0.52244 0.50864 0.25223 0.0
C2185 C 0.54671 0.50001 0.2406 0.0
H2186 H 0.50306 0.53109 0.28326 0.0
C2187 C 0.57099 0.50787 0.25294 0.0
H2188 H 0.50332 0.50282 0.24356 0.0
C2189 C 0.57083 0.52423 0.2762 0.0
C2190 C 0.54637 0.53272 0.2877 0.0
H2191 H 0.59004 0.50174 0.24439 0.0
H2192 H 0.58975 0.52981 0.28543 0.0
C2193 C 0.52228 0.52478 0.27522 0.0
C2194 C 0.02404 0.02693 0.77882 0.0
C2195 C 0.04838 0.0327 0.79199 0.0
H2196 H 1.00426 1.00725 0.74617 0.0
C2197 C 0.07239 0.02265 0.78087 0.0
H2198 H 1.00519 0.03446 0.78669 0.0
C2199 C 0.07186 1.0068 0.75728 0.0
C2200 C 0.04735 1.00112 0.74425 0.0
H2201 H 0.09144 0.02657 0.79068 0.0
H2202 H 0.09058 0.99935 0.74905 0.0
C2203 C 0.02353 1.01138 0.75545 0.0
C2204 C 0.51377 0.73823 0.78803 0.0
C2205 C 0.49089 0.74724 0.80189 0.0
H2206 H 0.55417 0.74638 0.77603 0.0
C2207 C 0.49236 0.772 0.81574 0.0
H2208 H 0.51327 0.71965 0.77664 0.0
C2209 C 0.51593 0.78749 0.81538 0.0
C2210 C 0.53872 0.7786 0.80124 0.0
H2211 H 0.47518 0.77949 0.82681 0.0
H2212 H 0.51636 0.80634 0.82633 0.0
C2213 C 0.53728 0.75371 0.78764 0.0
C2214 C 0.98614 0.26566 0.49678 0.0
C2215 C 0.99407 0.28754 0.48081 0.0
H2216 H 0.99527 0.22626 0.51108 0.0
C2217 C 0.01774 0.28521 0.4654 0.0
H2218 H 0.96845 0.267 0.5094 0.0
C2219 C 0.03319 0.26161 0.46612 0.0
C2220 C 0.02542 0.23978 0.48237 0.0
H2221 H 0.02439 0.30175 0.45285 0.0
H2222 H 0.05112 0.26043 0.45383 0.0
C2223 C 1.00167 0.24223 0.49771 0.0
C2224 C 0.49877 0.26458 0.70705 0.0
C2225 C 0.49374 0.2856 0.7254 0.0
H2226 H 0.52544 0.23311 0.69446 0.0
C2227 C 0.51254 0.2905 0.74588 0.0
H2228 H 0.48454 0.26024 0.6911 0.0
C2229 C 0.53553 0.27452 0.74832 0.0
C2230 C 0.5408 0.25343 0.72998 0.0
H2231 H 0.50891 0.30604 0.76076 0.0
H2232 H 0.54879 0.27839 0.76516 0.0
C2233 C 0.52209 0.24883 0.70918 0.0
C2234 C 0.54051 0.26769 0.54414 0.0
C2235 C 0.52842 0.29177 0.55242 0.0
H2236 H 0.53558 0.22604 0.53538 0.0
C2237 C 0.50131 0.29125 0.56048 0.0
H2238 H 0.56115 0.26756 0.53724 0.0
C2239 C 0.48655 0.26718 0.56001 0.0
C2240 C 0.49842 0.24306 0.55107 0.0
H2241 H 0.49145 0.30957 0.56695 0.0
H2242 H 0.46583 0.26756 0.56661 0.0
C2243 C 0.52569 0.24378 0.54318 0.0
C2244 C 0.78242 0.51514 0.79349 0.0
C2245 C 0.79709 0.53767 0.7848 0.0
H2246 H 0.76855 0.47542 0.78452 0.0
C2247 C 0.81051 0.5362 0.75982 0.0
H2248 H 0.77136 0.51569 0.81227 0.0
C2249 C 0.80887 0.51303 0.74375 0.0
C2250 C 0.79384 0.49064 0.75227 0.0
H2251 H 0.82219 0.5531 0.75257 0.0
H2252 H 0.81952 0.5126 0.72473 0.0
C2253 C 0.78075 0.49201 0.77744 0.0
C2254 C 0.74992 1.00226 0.52645 0.0
C2255 C 0.73718 0.97789 0.53305 0.0
H2256 H 0.78222 0.02192 0.50624 0.0
C2257 C 0.74882 0.95367 0.52403 0.0
H2258 H 0.74171 0.02129 0.53321 0.0
C2259 C 0.77248 0.95403 0.5084 0.0
C2260 C 0.78507 0.97859 0.50187 0.0
H2261 H 0.73938 0.93458 0.52861 0.0
H2262 H 0.78113 0.93516 0.50179 0.0
C2263 C 0.77332 1.00261 0.51106 0.0
C2264 C 0.21559 0.9947 0.76009 0.0
C2265 C 0.23102 0.99303 0.78389 0.0
H2266 H 0.20411 0.01847 0.72583 0.0
C2267 C 0.24691 0.01522 0.79118 0.0
H2268 H 0.20295 0.97805 0.75393 0.0
C2269 C 0.24768 0.03826 0.77499 0.0
C2270 C 0.23244 0.03991 0.75108 0.0
H2271 H 0.25954 1.01449 0.80894 0.0
H2272 H 0.26078 0.0546 0.78098 0.0
C2273 C 0.21633 0.01781 0.74388 0.0
C2274 C 0.26127 0.56461 0.53916 0.0
C2275 C 0.2854 0.55472 0.52814 0.0
H2276 H 0.21912 0.57183 0.53319 0.0
C2277 C 0.28495 0.54541 0.50122 0.0
H2278 H 0.26065 0.57229 0.55956 0.0
C2279 C 0.26135 0.546 0.48592 0.0
C2280 C 0.23727 0.55525 0.49719 0.0
H2281 H 0.30263 0.53677 0.49199 0.0
H2282 H 0.26168 0.53806 0.46558 0.0
C2283 C 0.23747 0.56464 0.52396 0.0
C2284 C 0.74243 0.22 1.0156 0.0
C2285 C 0.7513 0.23452 0.03823 0.0
H2286 H 0.75032 0.20818 0.97482 0.0
C2287 C 0.77603 0.24829 0.03657 0.0
H2288 H 0.72371 0.20891 0.01623 0.0
C2289 C 0.79139 0.24769 1.01298 0.0
C2290 C 0.78237 0.2335 0.99025 0.0
H2291 H 0.78332 0.26019 0.05334 0.0
H2292 H 0.80987 0.25919 1.01224 0.0
C2293 C 0.75779 0.21948 0.99193 0.0
C2294 C 0.45593 1.00639 0.27747 0.0
C2295 C 0.48013 0.99857 0.28994 0.0
H2296 H 0.43741 0.02816 0.24477 0.0
C2297 C 0.50449 1.00695 0.27832 0.0
H2298 H 0.43682 1.00044 0.28603 0.0
C2299 C 0.50482 0.02286 0.25521 0.0
C2300 C 0.48081 0.03083 0.24262 0.0
H2301 H 0.52353 1.00115 0.28716 0.0
H2302 H 0.5241 0.02901 0.24717 0.0
C2303 C 0.45626 0.02255 0.25409 0.0
C2304 C 0.11882 0.44075 0.16422 0.0
C2305 C 0.14497 0.44064 0.15353 0.0
H2306 H 0.09164 0.4236 0.1932 0.0
C2307 C 0.16451 0.42425 0.16572 0.0
H2308 H 0.10328 0.45301 0.15513 0.0
C2309 C 0.15796 0.40779 0.18762 0.0
C2310 C 0.13155 0.40689 0.19756 0.0
H2311 H 0.18484 0.42371 0.15794 0.0
H2312 H 0.17333 0.39485 0.19601 0.0
C2313 C 0.11211 0.4238 0.18584 0.0
C2314 C 0.69505 0.62086 0.09799 0.0
C2315 C 0.7007 0.63842 0.11951 0.0
H2316 H 0.6701 0.61187 0.06415 0.0
C2317 C 0.68516 0.66189 0.12217 0.0
H2318 H 0.70654 0.60256 0.09527 0.0
C2319 C 0.6643 0.66745 0.104 0.0
C2320 C 0.65828 0.64962 0.08273 0.0
H2321 H 0.68903 0.67598 0.13837 0.0
H2322 H 0.65289 0.68576 0.10671 0.0
C2323 C 0.67414 0.62634 0.07991 0.0
C2324 C 0.91567 0.11656 0.17948 0.0
C2325 C 0.89846 0.12135 0.20156 0.0
H2326 H 0.92417 0.09277 0.14442 0.0
C2327 C 0.87619 0.10415 0.20493 0.0
H2328 H 0.93327 0.1289 0.17625 0.0
C2329 C 0.87117 0.08316 0.18672 0.0
C2330 C 0.88812 0.07874 0.16446 0.0
H2331 H 0.86221 0.1071 0.22132 0.0
H2332 H 0.85369 0.07057 0.18996 0.0
C2333 C 0.91051 0.09567 0.16116 0.0
C2334 C 0.36535 0.86314 0.10389 0.0
C2335 C 0.37158 0.88121 0.08291 0.0
H2336 H 0.34066 0.85442 0.13821 0.0
C2337 C 0.35616 0.90486 0.08064 0.0
H2338 H 0.37639 0.84454 0.10618 0.0
C2339 C 0.33546 0.9104 0.09894 0.0
C2340 C 0.3296 0.89255 0.12014 0.0
H2341 H 0.36038 0.91952 0.06511 0.0
H2342 H 0.32428 0.92895 0.09663 0.0
C2343 C 0.34472 0.86876 0.12228 0.0
C2344 C 0.15034 0.6027 0.32564 0.0
C2345 C 0.12826 0.62007 0.32912 0.0
H2346 H 0.17257 0.56893 0.34048 0.0
C2347 C 0.11096 0.6153 0.35114 0.0
H2348 H 0.16437 0.60562 0.30928 0.0
C2349 C 0.11593 0.5943 0.36937 0.0
C2350 C 0.13821 0.57727 0.36602 0.0
H2351 H 0.09348 0.62777 0.35443 0.0
H2352 H 0.10226 0.59144 0.38611 0.0
C2353 C 0.15518 0.5816 0.34376 0.0
C2354 C 0.8539 0.61661 0.91846 0.0
C2355 C 0.83893 0.63732 0.90638 0.0
H2356 H 0.88285 0.60583 0.94865 0.0
C2357 C 0.84077 0.66348 0.917 0.0
H2358 H 0.85297 0.5963 0.91055 0.0
C2359 C 0.85846 0.66904 0.93833 0.0
C2360 C 0.87395 0.64841 0.94994 0.0
H2361 H 0.82972 0.67988 0.90784 0.0
H2362 H 0.86053 0.68954 0.94543 0.0
C2363 C 0.87093 0.62202 0.94027 0.0
C2364 C 0.87324 0.94926 0.34648 0.0
C2365 C 0.88601 0.95023 0.37175 0.0
H2366 H 0.86949 0.92944 0.30849 0.0
C2367 C 0.90541 0.93058 0.37778 0.0
H2368 H 0.85837 0.96418 0.34099 0.0
C2369 C 0.91161 0.9103 0.35915 0.0
C2370 C 0.89873 0.90919 0.33385 0.0
H2371 H 0.91568 0.93069 0.39702 0.0
H2372 H 0.92624 0.89529 0.36489 0.0
C2373 C 0.87958 0.92913 0.32778 0.0
C2374 C 0.17094 0.85958 0.93609 0.0
C2375 C 0.15716 0.88011 0.94988 0.0
H2376 H 0.19861 0.84965 0.90431 0.0
C2377 C 0.16237 0.90702 0.94298 0.0
H2378 H 0.16724 0.83869 0.94105 0.0
C2379 C 0.17979 0.91323 0.92176 0.0
C2380 C 0.19297 0.89273 0.90742 0.0
H2381 H 0.15183 0.92322 0.95303 0.0
H2382 H 0.18237 0.93411 0.916 0.0
C2383 C 0.18899 0.86585 0.91527 0.0
C2384 C 0.18588 0.11117 0.43074 0.0
C2385 C 0.19522 0.1298 0.41155 0.0
H2386 H 0.15619 0.10197 0.4608 0.0
C2387 C 0.1819 0.15459 0.40907 0.0
H2388 H 0.19586 0.09197 0.43316 0.0
C2389 C 0.15904 0.16013 0.42451 0.0
C2390 C 0.14927 0.14126 0.44321 0.0
H2391 H 0.18845 0.16923 0.39431 0.0
H2392 H 0.14869 0.17905 0.42142 0.0
C2393 C 0.16331 0.11697 0.44666 0.0
C2394 C 0.36491 0.6143 0.83895 0.0
C2395 C 0.39059 0.62603 0.83828 0.0
H2396 H 0.33962 0.58401 0.85678 0.0
C2397 C 0.41142 0.61405 0.85321 0.0
H2398 H 0.34843 0.62332 0.82791 0.0
C2399 C 0.40653 0.59125 0.86907 0.0
C2400 C 0.38054 0.58044 0.87098 0.0
H2401 H 0.43138 0.62276 0.85314 0.0
H2402 H 0.42273 0.58296 0.88104 0.0
C2403 C 0.35984 0.59196 0.85551 0.0
C2404 C 0.86558 0.36927 0.42361 0.0
C2405 C 0.87529 0.38833 0.44215 0.0
H2406 H 0.8365 0.36007 0.3931 0.0
C2407 C 0.86153 0.41285 0.44504 0.0
H2408 H 0.87579 0.3502 0.42096 0.0
C2409 C 0.8393 0.41869 0.42866 0.0
C2410 C 0.83005 0.39987 0.40962 0.0
H2411 H 0.86867 0.42799 0.45902 0.0
H2412 H 0.82956 0.43807 0.43056 0.0
C2413 C 0.84303 0.37485 0.40774 0.0
C2414 C 0.62363 0.94146 0.86893 0.0
C2415 C 0.65046 0.94883 0.87367 0.0
H2416 H 0.59666 0.91353 0.85006 0.0
C2417 C 0.67094 0.93469 0.86017 0.0
H2418 H 0.60747 0.95175 0.87928 0.0
C2419 C 0.66474 0.91314 0.8429 0.0
C2420 C 0.63796 0.90484 0.83942 0.0
H2421 H 0.69178 0.93996 0.86353 0.0
H2422 H 0.68095 0.90206 0.83349 0.0
C2423 C 0.61748 0.91951 0.85229 0.0
C2424 C 0.18446 0.87386 0.12276 0.0
C2425 C 0.19765 0.89877 0.12069 0.0
H2426 H 0.15141 0.84937 0.1099 0.0
C2427 C 0.1884 0.91755 0.10161 0.0
H2428 H 0.19096 0.8591 0.13742 0.0
C2429 C 0.16597 0.9118 0.08545 0.0
C2430 C 0.15201 0.8874 0.08855 0.0
H2431 H 0.1983 0.93684 0.09952 0.0
H2432 H 0.15885 0.92693 0.07146 0.0
C2433 C 0.16174 0.86836 0.10708 0.0
C2434 C 0.17292 0.59469 0.17189 0.0
C2435 C 0.15272 0.5804 0.15812 0.0
H2436 H 0.18231 0.62739 0.19874 0.0
C2437 C 0.12576 0.58754 0.16244 0.0
H2438 H 0.19384 0.5896 0.16883 0.0
C2439 C 0.11922 0.6094 0.17898 0.0
C2440 C 0.13942 0.62421 0.19216 0.0
H2441 H 0.10982 0.57713 0.15185 0.0
H2442 H 0.09833 0.61519 0.18092 0.0
C2443 C 0.16631 0.61617 0.18907 0.0
C2444 C 0.87119 0.6582 0.10944 0.0
C2445 C 0.87987 0.63943 0.0901 0.0
H2446 H 0.84229 0.66793 0.13995 0.0
C2447 C 0.86449 0.61608 0.08586 0.0
H2448 H 0.88262 0.67639 0.11313 0.0
C2449 C 0.84165 0.61101 0.10164 0.0
C2450 C 0.83338 0.6295 0.12145 0.0
H2451 H 0.87078 0.60119 0.07122 0.0
H2452 H 0.83062 0.59246 0.09866 0.0
C2453 C 0.84804 0.65345 0.12471 0.0
C2454 C 0.86693 0.92372 0.16376 0.0
C2455 C 0.87981 0.94901 0.16308 0.0
H2456 H 0.86212 0.88594 0.18405 0.0
C2457 C 0.89834 0.95505 0.18366 0.0
H2458 H 0.85278 0.91798 0.14825 0.0
C2459 C 0.90396 0.9364 0.20408 0.0
C2460 C 0.89113 0.91116 0.20466 0.0
H2461 H 0.90843 0.97432 0.18426 0.0
H2462 H 0.91834 0.94189 0.21951 0.0
C2463 C 0.87244 0.90512 0.18428 0.0
C2464 C 0.43555 0.15808 0.12023 0.0
C2465 C 0.45098 0.16089 0.1438 0.0
H2466 H 0.40328 0.17323 0.09614 0.0
C2467 C 0.4451 0.1823 0.16137 0.0
H2468 H 0.4396 0.14194 0.10613 0.0
C2469 C 0.42406 0.20016 0.15578 0.0
C2470 C 0.40832 0.19722 0.13236 0.0
H2471 H 0.4565 0.1851 0.17975 0.0
H2472 H 0.41984 0.21585 0.17026 0.0
C2473 C 0.41457 0.17603 0.11455 0.0
C2474 C 0.41184 0.85419 0.41944 0.0
C2475 C 0.4058 0.83237 0.4023 0.0
H2476 H 0.43671 0.88866 0.42695 0.0
C2477 C 0.42172 0.82877 0.37912 0.0
H2478 H 0.40039 0.85753 0.43765 0.0
C2479 C 0.44274 0.84656 0.37311 0.0
C2480 C 0.44845 0.86856 0.39001 0.0
H2481 H 0.41767 0.81259 0.36513 0.0
H2482 H 0.45429 0.8432 0.35493 0.0
C2483 C 0.43281 0.87206 0.41335 0.0
C2484 C 0.11644 0.33533 0.86712 0.0
C2485 C 0.12987 0.33731 0.89197 0.0
H2486 H 0.08476 0.35062 0.84197 0.0
C2487 C 0.11983 0.35507 0.91159 0.0
H2488 H 0.12383 0.32198 0.85154 0.0
C2489 C 0.0973 0.37104 0.90628 0.0
C2490 C 0.08465 0.37008 0.88099 0.0
H2491 H 0.12977 0.35703 0.93092 0.0
H2492 H 0.09051 0.38506 0.92153 0.0
C2493 C 0.09424 0.35182 0.86157 0.0
C2494 C 0.60522 0.70215 0.37608 0.0
C2495 C 0.62094 0.69881 0.39945 0.0
H2496 H 0.57276 0.68749 0.35182 0.0
C2497 C 0.61471 0.67725 0.41682 0.0
H2498 H 0.60942 0.71814 0.36193 0.0
C2499 C 0.59374 0.65938 0.41079 0.0
C2500 C 0.57828 0.66261 0.38728 0.0
H2501 H 0.62601 0.67413 0.43517 0.0
H2502 H 0.58968 0.64298 0.42458 0.0
C2503 C 0.58418 0.68435 0.37013 0.0
C2504 C 0.41258 0.67878 0.41459 0.0
C2505 C 0.40102 0.69614 0.39544 0.0
H2506 H 0.44266 0.64918 0.42302 0.0
C2507 C 0.41283 0.69791 0.36977 0.0
H2508 H 0.40403 0.67699 0.43458 0.0
C2509 C 0.43491 0.68168 0.36305 0.0
C2510 C 0.44594 0.66371 0.38201 0.0
H2511 H 0.40436 0.71102 0.35454 0.0
H2512 H 0.44316 0.68288 0.34291 0.0
C2513 C 0.43486 0.66293 0.40803 0.0
C2514 C 0.09639 0.82702 0.65335 0.0
C2515 C 0.11597 0.83265 0.63365 0.0
H2516 H 0.06123 0.84036 0.67432 0.0
C2517 C 0.1141 0.85725 0.6196 0.0
H2518 H 0.09669 0.80827 0.66438 0.0
C2519 C 0.09344 0.8756 0.62511 0.0
C2520 C 0.07412 0.87003 0.64499 0.0
H2521 H 0.1288 0.86267 0.60451 0.0
H2522 H 0.0928 0.89428 0.61391 0.0
C2523 C 0.07584 0.84547 0.65898 0.0
C2524 C 0.07591 0.67732 0.6314 0.0
C2525 C 0.08036 0.65954 0.65305 0.0
H2526 H 0.0893 0.71194 0.60954 0.0
C2527 C 0.10264 0.66442 0.66995 0.0
H2528 H 0.05933 0.67433 0.61766 0.0
C2529 C 0.12016 0.68599 0.66502 0.0
C2530 C 0.11583 0.70345 0.64316 0.0
H2531 H 0.10666 0.6516 0.68708 0.0
H2532 H 0.13714 0.68893 0.67836 0.0
C2533 C 0.09332 0.69896 0.6266 0.0
C2534 C 0.93485 0.8284 0.62849 0.0
C2535 C 0.90976 0.82686 0.64147 0.0
H2536 H 0.9721 0.84939 0.62421 0.0
C2537 C 0.90325 0.84671 0.66058 0.0
H2538 H 0.94068 0.81341 0.61378 0.0
C2539 C 0.92126 0.86761 0.66641 0.0
C2540 C 0.94639 0.86922 0.65341 0.0
H2541 H 0.88415 0.8462 0.671 0.0
H2542 H 0.91521 0.88269 0.68089 0.0
C2543 C 0.95291 0.84922 0.6344 0.0
C2544 C 0.61567 0.9334 0.66182 0.0
C2545 C 0.63939 0.9487 0.66344 0.0
H2546 H 0.59182 0.90182 0.67877 0.0
C2547 C 0.6574 0.94339 0.68465 0.0
H2548 H 0.60122 0.93704 0.64592 0.0
C2549 C 0.65211 0.92302 0.70344 0.0
C2550 C 0.62859 0.90737 0.70164 0.0
H2551 H 0.67588 0.95473 0.68659 0.0
H2552 H 0.66689 0.91919 0.71894 0.0
C2553 C 0.61033 0.91307 0.68068 0.0
C2554 C 0.17832 0.11696 0.60988 0.0
C2555 C 0.19172 0.13745 0.62408 0.0
H2556 H 0.15015 0.10699 0.57875 0.0
C2557 C 0.18788 0.16432 0.61612 0.0
H2558 H 0.18082 0.09609 0.61567 0.0
C2559 C 0.16978 0.17059 0.59532 0.0
C2560 C 0.15581 0.15009 0.58165 0.0
H2561 H 0.1977 0.18052 0.62692 0.0
H2562 H 0.16623 0.19148 0.59025 0.0
C2563 C 0.16085 0.12318 0.58869 0.0
C2564 C 0.41844 0.60937 0.68409 0.0
C2565 C 0.39797 0.62316 0.69794 0.0
H2566 H 0.42848 0.58261 0.65152 0.0
C2567 C 0.37117 0.61894 0.69013 0.0
H2568 H 0.43925 0.6123 0.68973 0.0
C2569 C 0.36508 0.60249 0.66805 0.0
C2570 C 0.38556 0.58932 0.65368 0.0
H2571 H 0.35503 0.62951 0.7002 0.0
H2572 H 0.34432 0.60062 0.66175 0.0
C2573 C 0.41227 0.59229 0.66238 0.0
C2574 C 0.86317 0.40867 0.58847 0.0
C2575 C 0.86855 0.38172 0.58186 0.0
H2576 H 0.8428 0.43596 0.61495 0.0
C2577 C 0.85483 0.36128 0.59588 0.0
H2578 H 0.87363 0.42483 0.57826 0.0
C2579 C 0.83667 0.36767 0.61658 0.0
C2580 C 0.83246 0.39461 0.62412 0.0
H2581 H 0.85861 0.34036 0.59114 0.0
H2582 H 0.82705 0.35151 0.6276 0.0
C2583 C 0.8456 0.41502 0.60956 0.0
C2584 C 0.61509 0.09 0.86725 0.0
C2585 C 0.64165 0.08822 0.87672 0.0
H2586 H 0.58804 0.10889 0.83921 0.0
C2587 C 0.66189 0.10256 0.86316 0.0
H2588 H 0.59905 0.0794 0.87749 0.0
C2589 C 0.65569 0.11892 0.84109 0.0
C2590 C 0.62898 0.12187 0.83243 0.0
H2591 H 0.68252 0.10163 0.87008 0.0
H2592 H 0.67164 0.13036 0.83164 0.0
C2593 C 0.60877 0.10697 0.84551 0.0
C2594 C 0.35467 0.12674 0.4529 0.0
C2595 C 0.37083 0.14974 0.44927 0.0
H2596 H 0.32182 0.10291 0.4385 0.0
C2597 C 0.36489 0.16695 0.4275 0.0
H2598 H 0.35863 0.11272 0.46906 0.0
C2599 C 0.34381 0.16109 0.40966 0.0
C2600 C 0.32796 0.13792 0.41316 0.0
H2601 H 0.37652 0.18503 0.42415 0.0
H2602 H 0.34002 0.17473 0.39307 0.0
C2603 C 0.33354 0.12096 0.43515 0.0
C2604 C 0.4218 0.42223 0.83973 0.0
C2605 C 0.40115 0.407 0.8278 0.0
H2606 H 0.43293 0.44968 0.87136 0.0
C2607 C 0.37498 0.40919 0.8381 0.0
H2608 H 0.44215 0.42069 0.8322 0.0
C2609 C 0.36985 0.42509 0.86084 0.0
C2610 C 0.39062 0.43978 0.87324 0.0
H2611 H 0.35882 0.39737 0.82949 0.0
H2612 H 0.34975 0.42536 0.86919 0.0
C2613 C 0.4165 0.43884 0.862 0.0
C2614 C 0.67638 0.40065 0.45384 0.0
C2615 C 0.65649 0.38142 0.44774 0.0
H2616 H 0.71201 0.42114 0.44111 0.0
C2617 C 0.65827 0.36766 0.42296 0.0
H2618 H 0.67616 0.41139 0.47279 0.0
C2619 C 0.67917 0.37306 0.40484 0.0
C2620 C 0.69879 0.39251 0.41088 0.0
H2621 H 0.64332 0.35293 0.41724 0.0
H2622 H 0.67979 0.3621 0.38599 0.0
C2623 C 0.69715 0.40617 0.43565 0.0
C2624 C 0.69053 0.65683 0.91665 0.0
C2625 C 0.6982 0.63002 0.91213 0.0
H2626 H 0.66237 0.68359 0.93535 0.0
C2627 C 0.68444 0.6094 0.92584 0.0
H2628 H 0.70054 0.67308 0.90614 0.0
C2629 C 0.66291 0.61544 0.94308 0.0
C2630 C 0.65429 0.64217 0.9463 0.0
H2631 H 0.68998 0.58858 0.92266 0.0
H2632 H 0.65209 0.59912 0.95265 0.0
C2633 C 0.66861 0.66281 0.93327 0.0
C2634 C 0.85851 0.09127 0.35461 0.0
C2635 C 0.87758 0.08115 0.37297 0.0
H2636 H 0.84926 0.12129 0.32483 0.0
C2637 C 0.90304 0.09331 0.37406 0.0
H2638 H 0.83878 0.08219 0.35323 0.0
C2639 C 0.90889 0.11581 0.35815 0.0
C2640 C 0.88962 0.12643 0.34035 0.0
H2641 H 0.91806 0.08619 0.38813 0.0
H2642 H 0.92838 0.1253 0.36022 0.0
C2643 C 0.86457 0.1135 0.33823 0.0
C2644 C 0.34076 0.87462 0.91507 0.0
C2645 C 0.33239 0.90133 0.91126 0.0
H2646 H 0.36966 0.84817 0.9331 0.0
C2647 C 0.34554 0.92194 0.92555 0.0
H2648 H 0.3312 0.85842 0.90404 0.0
C2649 C 0.36716 0.91603 0.94274 0.0
C2650 C 0.37649 0.88947 0.94527 0.0
H2651 H 0.33948 0.94269 0.92284 0.0
H2652 H 0.37752 0.93238 0.95279 0.0
C2653 C 0.36281 0.8688 0.93159 0.0
C2654 C 0.12982 0.45394 0.34869 0.0
C2655 C 0.14834 0.44814 0.36933 0.0
H2656 H 0.11 0.44045 0.31288 0.0
C2657 C 0.16135 0.42294 0.36888 0.0
H2658 H 0.11965 0.47315 0.34795 0.0
C2659 C 0.15597 0.40417 0.34847 0.0
C2660 C 0.13733 0.40998 0.328 0.0
H2661 H 0.17549 0.41745 0.38448 0.0
H2662 H 0.16637 0.38504 0.34884 0.0
C2663 C 0.12435 0.43513 0.3284 0.0
C2664 C 0.68026 0.37565 0.57959 0.0
C2665 C 0.65805 0.39255 0.57501 0.0
H2666 H 0.71463 0.36686 0.60377 0.0
C2667 C 0.65475 0.41519 0.59167 0.0
H2668 H 0.6835 0.358 0.5672 0.0
C2669 C 0.67295 0.42054 0.61259 0.0
C2670 C 0.69488 0.40328 0.61763 0.0
H2671 H 0.63804 0.42881 0.5886 0.0
H2672 H 0.6697 0.43825 0.62482 0.0
C2673 C 0.69834 0.38087 0.6006 0.0
C2674 C 0.65958 0.11221 0.69551 0.0
C2675 C 0.63802 0.12939 0.68933 0.0
H2676 H 0.68153 0.07661 0.68455 0.0
C2677 C 0.62052 0.12228 0.66824 0.0
H2678 H 0.67349 0.11729 0.71152 0.0
C2679 C 0.62477 0.09875 0.6533 0.0
C2680 C 0.64704 0.08225 0.65865 0.0
H2681 H 0.60374 0.13515 0.66304 0.0
H2682 H 0.61133 0.09404 0.63679 0.0
C2683 C 0.66426 0.08907 0.68004 0.0
C2684 C 0.3455 0.10866 0.6057 0.0
C2685 C 0.33102 0.1291 0.61889 0.0
H2686 H 0.37831 0.09891 0.57926 0.0
C2687 C 0.33783 0.15606 0.61384 0.0
H2688 H 0.34064 0.08774 0.60932 0.0
C2689 C 0.35961 0.16241 0.59719 0.0
C2690 C 0.37467 0.142 0.58468 0.0
H2691 H 0.32726 0.17218 0.62397 0.0
H2692 H 0.36517 0.18335 0.59468 0.0
C2693 C 0.36692 0.11506 0.58844 0.0
C2694 C 0.40362 0.44311 0.65911 0.0
C2695 C 0.37671 0.45054 0.65499 0.0
H2696 H 0.43087 0.41491 0.67706 0.0
C2697 C 0.35644 0.43627 0.66865 0.0
H2698 H 0.41959 0.4535 0.64857 0.0
C2699 C 0.36293 0.41453 0.68554 0.0
C2700 C 0.38976 0.4062 0.68839 0.0
H2701 H 0.33555 0.44158 0.6657 0.0
H2702 H 0.34688 0.40332 0.69511 0.0
C2703 C 0.41003 0.42097 0.67532 0.0
C2704 C 0.92839 0.66523 0.66524 0.0
C2705 C 0.94406 0.65321 0.64497 0.0
H2706 H 0.89896 0.69499 0.67526 0.0
C2707 C 0.94297 0.66386 0.61875 0.0
H2708 H 0.9288 0.6575 0.68564 0.0
C2709 C 0.92548 0.6852 0.61271 0.0
C2710 C 0.9092 0.69665 0.63288 0.0
H2711 H 0.95466 0.65492 0.60267 0.0
H2712 H 0.92436 0.6925 0.59219 0.0
C2713 C 0.91136 0.68682 0.65933 0.0
C2714 C 0.92657 0.32748 0.87659 0.0
C2715 C 0.90865 0.33175 0.89813 0.0
H2716 H 0.9615 0.3409 0.85533 0.0
C2717 C 0.91357 0.35373 0.91546 0.0
H2718 H 0.92357 0.31113 0.86254 0.0
C2719 C 0.93531 0.37114 0.91105 0.0
C2720 C 0.95293 0.36697 0.88932 0.0
H2721 H 0.90066 0.3576 0.93253 0.0
H2722 H 0.93829 0.38789 0.9247 0.0
C2723 C 0.9484 0.34476 0.87232 0.0
C2724 C 0.6149 0.85329 0.41304 0.0
C2725 C 0.62573 0.83581 0.39358 0.0
H2726 H 0.58511 0.88293 0.4224 0.0
C2727 C 0.61296 0.83383 0.36838 0.0
H2728 H 0.62425 0.85524 0.43267 0.0
C2729 C 0.59066 0.85006 0.36237 0.0
C2730 C 0.58036 0.86814 0.38162 0.0
H2731 H 0.62091 0.82066 0.35293 0.0
H2732 H 0.58171 0.84881 0.34253 0.0
C2733 C 0.59237 0.86906 0.40723 0.0
C2734 C 0.10668 0.20134 0.87637 0.0
C2735 C 0.1229 0.19889 0.89949 0.0
H2736 H 0.0738 0.18573 0.85335 0.0
C2737 C 0.11699 0.17804 0.91784 0.0
H2738 H 0.1106 0.21678 0.86155 0.0
C2739 C 0.09591 0.15992 0.91295 0.0
C2740 C 0.08002 0.16219 0.88963 0.0
H2741 H 0.12865 0.17562 0.93607 0.0
H2742 H 0.09215 0.14406 0.92743 0.0
C2743 C 0.08556 0.1833 0.87155 0.0
C2744 C 0.90948 0.17436 0.91061 0.0
C2745 C 0.90121 0.19362 0.89158 0.0
H2746 H 0.93787 0.14354 0.92082 0.0
C2747 C 0.91689 0.19752 0.86836 0.0
H2748 H 0.89781 0.17092 0.92871 0.0
C2749 C 0.93956 0.18144 0.86363 0.0
C2750 C 0.94736 0.16163 0.88232 0.0
H2751 H 0.91093 0.21209 0.85327 0.0
H2752 H 0.95078 0.18414 0.84515 0.0
C2753 C 0.93247 0.15876 0.90618 0.0
C2754 C 0.59402 0.37159 0.11867 0.0
C2755 C 0.57869 0.3686 0.14228 0.0
H2756 H 0.62602 0.35649 0.0942 0.0
C2757 C 0.58452 0.34692 0.15953 0.0
H2758 H 0.59001 0.38793 0.10479 0.0
C2759 C 0.60538 0.32896 0.15358 0.0
C2760 C 0.62099 0.33207 0.13011 0.0
H2761 H 0.57319 0.34397 0.17792 0.0
H2762 H 0.60957 0.31304 0.16781 0.0
C2763 C 0.61481 0.35355 0.11263 0.0
C2764 C 0.61556 0.17731 0.11707 0.0
C2765 C 0.62673 0.19478 0.13637 0.0
H2766 H 0.58593 0.14729 0.10833 0.0
C2767 C 0.61471 0.19632 0.16196 0.0
H2768 H 0.62431 0.1757 0.09715 0.0
C2769 C 0.59284 0.17971 0.16847 0.0
C2770 C 0.58221 0.16165 0.14937 0.0
H2771 H 0.62292 0.20948 0.17731 0.0
H2772 H 0.58445 0.18068 0.18857 0.0
C2773 C 0.59345 0.16112 0.12341 0.0
C2774 C 0.43792 0.34899 0.1685 0.0
C2775 C 0.4469 0.36801 0.14952 0.0
H2776 H 0.40875 0.31861 0.17824 0.0
C2777 C 0.43363 0.36968 0.12459 0.0
H2778 H 0.44788 0.34719 0.18782 0.0
C2779 C 0.41108 0.3537 0.11928 0.0
C2780 C 0.4016 0.33523 0.13854 0.0
H2781 H 0.43993 0.38428 0.10967 0.0
H2782 H 0.40067 0.35622 0.10027 0.0
C2783 C 0.41567 0.33253 0.16295 0.0
loop_
_geom_bond_atom_site_label_1
_geom_bond_atom_site_label_2
_geom_bond_distance
_geom_bond_site_symmetry_2
_ccdc_geom_bond_type
C0 C1 1.351 . S
C0 N3 1.368 . S
C0 H5 0.931 . S
C1 C0 1.351 . S
C1 N2 1.373 . S
C1 H29 0.930 . S
N2 C1 1.373 . S
N2 C4 1.340 . S
N3 C0 1.368 . S
N3 C4 1.321 . S
N3 Co6 2.135 . S
C4 N2 1.340 . S
C4 N3 1.321 . S
C4 H28 0.930 . S
H5 C0 0.931 . S
Co6 N3 2.135 . S
Co6 N9 2.121 . S
Co6 O14 2.055 . S
Co6 O17 2.039 . S
Co6 N20 2.140 . S
C7 O8 1.227 . S
C7 O17 1.265 . S
O8 C7 1.227 . S
N9 Co6 2.121 . S
N9 C11 1.375 . S
N9 C12 1.313 . S
C10 C11 1.338 . S
C10 N13 1.377 . S
C10 H30 0.930 . S
C11 N9 1.375 . S
C11 C10 1.338 . S
C11 H15 0.931 . S
C12 N9 1.313 . S
C12 N13 1.344 . S
C12 H16 0.930 . S
N13 C10 1.377 . S
N13 C12 1.344 . S
O14 Co6 2.055 . S
O14 C18 1.253 . S
H15 C11 0.931 . S
H16 C12 0.930 . S
O17 Co6 2.039 . S
O17 C7 1.265 . S
C18 O14 1.253 . S
C18 O19 1.227 . S
O19 C18 1.227 . S
N20 Co6 2.140 . S
N20 C23 1.346 . S
N20 C24 1.345 . S
C21 C22 1.387 . S
C21 C25 1.391 . S
C22 C21 1.387 . S
C22 C23 1.369 . S
C22 H31 0.929 . S
C23 N20 1.346 . S
C23 C22 1.369 . S
C23 H26 0.928 . S
C24 N20 1.345 . S
C24 C25 1.371 . S
C24 H27 0.931 . S
C25 C21 1.391 . S
C25 C24 1.371 . S
C25 H32 0.930 . S
H26 C23 0.928 . S
H27 C24 0.931 . S
H28 C4 0.930 . S
H29 C1 0.930 . S
H30 C10 0.930 . S
H31 C22 0.929 . S
H32 C25 0.930 . S
C33 C34 1.351 . S
C33 N36 1.368 . S
C33 H38 0.931 . S
C34 C33 1.351 . S
C34 N35 1.373 . S
C34 H62 0.930 . S
N35 C34 1.373 . S
N35 C37 1.340 . S
N36 C33 1.368 . S
N36 C37 1.321 . S
N36 Co39 2.135 . S
C37 N35 1.340 . S
C37 N36 1.321 . S
C37 H61 0.930 . S
H38 C33 0.931 . S
Co39 N36 2.135 . S
Co39 N42 2.121 1_554 S
Co39 O47 2.055 . S
Co39 O50 2.039 1_554 S
Co39 N53 2.140 . S
C40 O41 1.227 . S
C40 O50 1.265 . S
O41 C40 1.227 . S
N42 Co39 2.121 1_556 S
N42 C44 1.375 . S
N42 C45 1.313 . S
C43 C44 1.338 . S
C43 N46 1.377 . S
C43 H63 0.930 . S
C44 N42 1.375 . S
C44 C43 1.338 . S
C44 H48 0.931 . S
C45 N42 1.313 . S
C45 N46 1.344 . S
C45 H49 0.930 1_556 S
N46 C43 1.377 . S
N46 C45 1.344 . S
O47 Co39 2.055 . S
O47 C51 1.253 . S
H48 C44 0.931 . S
H49 C45 0.930 1_554 S
O50 Co39 2.039 1_556 S
O50 C40 1.265 . S
C51 O47 1.253 . S
C51 O52 1.227 . S
O52 C51 1.227 . S
N53 Co39 2.140 . S
N53 C56 1.346 . S
N53 C57 1.345 . S
C54 C55 1.387 . S
C54 C58 1.391 . S
C55 C54 1.387 . S
C55 C56 1.369 . S
C55 H64 0.929 . S
C56 N53 1.346 . S
C56 C55 1.369 . S
C56 H59 0.928 . S
C57 N53 1.345 . S
C57 C58 1.371 . S
C57 H60 0.931 . S
C58 C54 1.391 . S
C58 C57 1.371 . S
C58 H65 0.930 . S
H59 C56 0.928 . S
H60 C57 0.931 . S
H61 C37 0.930 . S
H62 C34 0.930 . S
H63 C43 0.930 . S
H64 C55 0.929 . S
H65 C58 0.930 . S
C66 C67 1.351 . S
C66 N69 1.368 . S
C66 H71 0.931 . S
C67 C66 1.351 . S
C67 N68 1.373 . S
C67 H95 0.930 . S
N68 C67 1.373 . S
N68 C70 1.340 . S
N69 C66 1.368 . S
N69 C70 1.321 . S
N69 Co72 2.135 . S
C70 N68 1.340 . S
C70 N69 1.321 . S
C70 H94 0.930 . S
H71 C66 0.931 . S
Co72 N69 2.135 . S
Co72 N75 2.121 . S
Co72 O80 2.055 . S
Co72 O83 2.039 . S
Co72 N86 2.140 . S
C73 O74 1.227 . S
C73 O83 1.265 . S
O74 C73 1.227 . S
N75 Co72 2.121 . S
N75 C77 1.375 . S
N75 C78 1.313 . S
C76 C77 1.338 . S
C76 N79 1.377 . S
C76 H96 0.930 . S
C77 N75 1.375 . S
C77 C76 1.338 . S
C77 H81 0.931 . S
C78 N75 1.313 . S
C78 N79 1.344 . S
C78 H82 0.930 . S
N79 C76 1.377 . S
N79 C78 1.344 . S
O80 Co72 2.055 . S
O80 C84 1.253 . S
H81 C77 0.931 . S
H82 C78 0.930 . S
O83 Co72 2.039 . S
O83 C73 1.265 . S
C84 O80 1.253 . S
C84 O85 1.227 . S
O85 C84 1.227 . S
N86 Co72 2.140 . S
N86 C89 1.346 . S
N86 C90 1.345 . S
C87 C88 1.387 . S
C87 C91 1.391 . S
C88 C87 1.387 . S
C88 C89 1.369 . S
C88 H97 0.929 . S
C89 N86 1.346 . S
C89 C88 1.369 . S
C89 H92 0.928 . S
C90 N86 1.345 . S
C90 C91 1.371 . S
C90 H93 0.931 . S
C91 C87 1.391 . S
C91 C90 1.371 . S
C91 H98 0.930 . S
H92 C89 0.928 . S
H93 C90 0.931 . S
H94 C70 0.930 . S
H95 C67 0.930 . S
H96 C76 0.930 . S
H97 C88 0.929 . S
H98 C91 0.930 . S
C99 C100 1.351 . S
C99 N102 1.368 . S
C99 H104 0.931 . S
C100 C99 1.351 . S
C100 N101 1.373 . S
C100 H128 0.930 . S
N101 C100 1.373 . S
N101 C103 1.340 . S
N102 C99 1.368 . S
N102 C103 1.321 . S
N102 Co105 2.135 . S
C103 N101 1.340 . S
C103 N102 1.321 . S
C103 H127 0.930 . S
H104 C99 0.931 . S
Co105 N102 2.135 . S
Co105 N108 2.121 1_554 S
Co105 O113 2.055 . S
Co105 O116 2.039 1_554 S
Co105 N119 2.140 . S
C106 O107 1.227 . S
C106 O116 1.265 . S
O107 C106 1.227 . S
N108 Co105 2.121 1_556 S
N108 C110 1.375 . S
N108 C111 1.313 . S
C109 C110 1.338 . S
C109 N112 1.377 . S
C109 H129 0.930 . S
C110 N108 1.375 . S
C110 C109 1.338 . S
C110 H114 0.931 . S
C111 N108 1.313 . S
C111 N112 1.344 . S
C111 H115 0.930 1_556 S
N112 C109 1.377 . S
N112 C111 1.344 . S
O113 Co105 2.055 . S
O113 C117 1.253 . S
H114 C110 0.931 . S
H115 C111 0.930 1_554 S
O116 Co105 2.039 1_556 S
O116 C106 1.265 . S
C117 O113 1.253 . S
C117 O118 1.227 . S
O118 C117 1.227 . S
N119 Co105 2.140 . S
N119 C122 1.346 . S
N119 C123 1.345 . S
C120 C121 1.387 . S
C120 C124 1.391 . S
C121 C120 1.387 . S
C121 C122 1.369 . S
C121 H130 0.929 . S
C122 N119 1.346 . S
C122 C121 1.369 . S
C122 H125 0.928 . S
C123 N119 1.345 . S
C123 C124 1.371 . S
C123 H126 0.931 . S
C124 C120 1.391 . S
C124 C123 1.371 . S
C124 H131 0.930 . S
H125 C122 0.928 . S
H126 C123 0.931 . S
H127 C103 0.930 . S
H128 C100 0.930 . S
H129 C109 0.930 . S
H130 C121 0.929 . S
H131 C124 0.930 . S
C132 C133 1.351 . S
C132 N135 1.368 . S
C132 H137 0.931 . S
C133 C132 1.351 . S
C133 N134 1.373 . S
C133 H161 0.930 . S
N134 C133 1.373 . S
N134 C136 1.340 . S
N135 C132 1.368 . S
N135 C136 1.321 . S
N135 Co138 2.135 . S
C136 N134 1.340 . S
C136 N135 1.321 . S
C136 H160 0.930 . S
H137 C132 0.931 . S
Co138 N135 2.135 . S
Co138 N141 2.121 . S
Co138 O146 2.055 . S
Co138 O149 2.039 . S
Co138 N152 2.140 . S
C139 O140 1.227 . S
C139 O149 1.265 . S
O140 C139 1.227 . S
N141 Co138 2.121 . S
N141 C143 1.375 . S
N141 C144 1.313 . S
C142 C143 1.338 . S
C142 N145 1.377 . S
C142 H162 0.930 . S
C143 N141 1.375 . S
C143 C142 1.338 . S
C143 H147 0.931 . S
C144 N141 1.313 . S
C144 N145 1.344 . S
C144 H148 0.930 . S
N145 C142 1.377 . S
N145 C144 1.344 . S
O146 Co138 2.055 . S
O146 C150 1.253 . S
H147 C143 0.931 . S
H148 C144 0.930 . S
O149 Co138 2.039 . S
O149 C139 1.265 . S
C150 O146 1.253 . S
C150 O151 1.227 . S
O151 C150 1.227 . S
N152 Co138 2.140 . S
N152 C155 1.346 . S
N152 C156 1.345 . S
C153 C154 1.387 . S
C153 C157 1.391 . S
C154 C153 1.387 . S
C154 C155 1.369 . S
C154 H163 0.929 . S
C155 N152 1.346 . S
C155 C154 1.369 . S
C155 H158 0.928 . S
C156 N152 1.345 . S
C156 C157 1.371 . S
C156 H159 0.931 . S
C157 C153 1.391 . S
C157 C156 1.371 . S
C157 H164 0.930 . S
H158 C155 0.928 . S
H159 C156 0.931 . S
H160 C136 0.930 . S
H161 C133 0.930 . S
H162 C142 0.930 . S
H163 C154 0.929 . S
H164 C157 0.930 . S
C165 C166 1.351 . S
C165 N168 1.368 . S
C165 H170 0.931 . S
C166 C165 1.351 . S
C166 N167 1.373 . S
C166 H194 0.930 . S
N167 C166 1.373 . S
N167 C169 1.340 . S
N168 C165 1.368 . S
N168 C169 1.321 . S
N168 Co171 2.135 . S
C169 N167 1.340 . S
C169 N168 1.321 . S
C169 H193 0.930 . S
H170 C165 0.931 . S
Co171 N168 2.135 . S
Co171 N174 2.121 1_556 S
Co171 O179 2.055 . S
Co171 O182 2.039 1_556 S
Co171 N185 2.140 . S
C172 O173 1.227 . S
C172 O182 1.265 . S
O173 C172 1.227 . S
N174 Co171 2.121 1_554 S
N174 C176 1.375 . S
N174 C177 1.313 . S
C175 C176 1.338 . S
C175 N178 1.377 . S
C175 H195 0.930 . S
C176 N174 1.375 . S
C176 C175 1.338 . S
C176 H180 0.931 . S
C177 N174 1.313 . S
C177 N178 1.344 . S
C177 H181 0.930 1_554 S
N178 C175 1.377 . S
N178 C177 1.344 . S
O179 Co171 2.055 . S
O179 C183 1.253 . S
H180 C176 0.931 . S
H181 C177 0.930 1_556 S
O182 Co171 2.039 1_554 S
O182 C172 1.265 . S
C183 O179 1.253 . S
C183 O184 1.227 . S
O184 C183 1.227 . S
N185 Co171 2.140 . S
N185 C188 1.346 . S
N185 C189 1.345 . S
C186 C187 1.387 . S
C186 C190 1.391 . S
C187 C186 1.387 . S
C187 C188 1.369 . S
C187 H196 0.929 . S
C188 N185 1.346 . S
C188 C187 1.369 . S
C188 H191 0.928 . S
C189 N185 1.345 . S
C189 C190 1.371 . S
C189 H192 0.931 . S
C190 C186 1.391 . S
C190 C189 1.371 . S
C190 H197 0.930 . S
H191 C188 0.928 . S
H192 C189 0.931 . S
H193 C169 0.930 . S
H194 C166 0.930 . S
H195 C175 0.930 . S
H196 C187 0.929 . S
H197 C190 0.930 . S
C198 C199 1.351 . S
C198 N201 1.368 . S
C198 H203 0.931 . S
C199 C198 1.351 . S
C199 N200 1.373 . S
C199 H227 0.930 . S
N200 C199 1.373 . S
N200 C202 1.340 . S
N201 C198 1.368 . S
N201 C202 1.321 . S
N201 Co204 2.135 . S
C202 N200 1.340 . S
C202 N201 1.321 . S
C202 H226 0.930 . S
H203 C198 0.931 . S
Co204 N201 2.135 . S
Co204 N207 2.121 . S
Co204 O212 2.055 . S
Co204 O215 2.039 . S
Co204 N218 2.140 . S
C205 O206 1.227 . S
C205 O215 1.265 . S
O206 C205 1.227 . S
N207 Co204 2.121 . S
N207 C209 1.375 . S
N207 C210 1.313 . S
C208 C209 1.338 . S
C208 N211 1.377 . S
C208 H228 0.930 . S
C209 N207 1.375 . S
C209 C208 1.338 . S
C209 H213 0.931 . S
C210 N207 1.313 . S
C210 N211 1.344 . S
C210 H214 0.930 . S
N211 C208 1.377 . S
N211 C210 1.344 . S
O212 Co204 2.055 . S
O212 C216 1.253 . S
H213 C209 0.931 . S
H214 C210 0.930 . S
O215 Co204 2.039 . S
O215 C205 1.265 . S
C216 O212 1.253 . S
C216 O217 1.227 . S
O217 C216 1.227 . S
N218 Co204 2.140 . S
N218 C221 1.346 . S
N218 C222 1.345 . S
C219 C220 1.387 . S
C219 C223 1.391 . S
C220 C219 1.387 . S
C220 C221 1.369 . S
C220 H229 0.929 . S
C221 N218 1.346 . S
C221 C220 1.369 . S
C221 H224 0.928 . S
C222 N218 1.345 . S
C222 C223 1.371 . S
C222 H225 0.931 . S
C223 C219 1.391 . S
C223 C222 1.371 . S
C223 H230 0.930 . S
H224 C221 0.928 . S
H225 C222 0.931 . S
H226 C202 0.930 . S
H227 C199 0.930 . S
H228 C208 0.930 . S
H229 C220 0.929 . S
H230 C223 0.930 . S
C231 C232 1.351 . S
C231 N234 1.368 . S
C231 H236 0.931 . S
C232 C231 1.351 . S
C232 N233 1.373 . S
C232 H260 0.930 . S
N233 C232 1.373 . S
N233 C235 1.340 . S
N234 C231 1.368 . S
N234 C235 1.321 . S
N234 Co237 2.135 . S
C235 N233 1.340 . S
C235 N234 1.321 . S
C235 H259 0.930 . S
H236 C231 0.931 . S
Co237 N234 2.135 . S
Co237 N240 2.121 1_556 S
Co237 O245 2.055 . S
Co237 O248 2.039 1_556 S
Co237 N251 2.140 . S
C238 O239 1.227 . S
C238 O248 1.265 . S
O239 C238 1.227 . S
N240 Co237 2.121 1_554 S
N240 C242 1.375 . S
N240 C243 1.313 . S
C241 C242 1.338 . S
C241 N244 1.377 . S
C241 H261 0.930 . S
C242 N240 1.375 . S
C242 C241 1.338 . S
C242 H246 0.931 . S
C243 N240 1.313 . S
C243 N244 1.344 . S
C243 H247 0.930 1_554 S
N244 C241 1.377 . S
N244 C243 1.344 . S
O245 Co237 2.055 . S
O245 C249 1.253 . S
H246 C242 0.931 . S
H247 C243 0.930 1_556 S
O248 Co237 2.039 1_554 S
O248 C238 1.265 . S
C249 O245 1.253 . S
C249 O250 1.227 . S
O250 C249 1.227 . S
N251 Co237 2.140 . S
N251 C254 1.346 . S
N251 C255 1.345 . S
C252 C253 1.387 . S
C252 C256 1.391 . S
C253 C252 1.387 . S
C253 C254 1.369 . S
C253 H262 0.929 . S
C254 N251 1.346 . S
C254 C253 1.369 . S
C254 H257 0.928 . S
C255 N251 1.345 . S
C255 C256 1.371 . S
C255 H258 0.931 . S
C256 C252 1.391 . S
C256 C255 1.371 . S
C256 H263 0.930 . S
H257 C254 0.928 . S
H258 C255 0.931 . S
H259 C235 0.930 . S
H260 C232 0.930 . S
H261 C241 0.930 . S
H262 C253 0.929 . S
H263 C256 0.930 . S
C264 C265 1.351 . S
C264 N267 1.368 . S
C264 H269 0.931 . S
C265 C264 1.351 . S
C265 N266 1.373 . S
C265 H293 0.930 . S
N266 C265 1.373 . S
N266 C268 1.340 . S
N267 C264 1.368 . S
N267 C268 1.321 . S
N267 Co270 2.135 . S
C268 N266 1.340 . S
C268 N267 1.321 . S
C268 H292 0.930 . S
H269 C264 0.931 . S
Co270 N267 2.135 . S
Co270 N273 2.121 . S
Co270 O278 2.055 . S
Co270 O281 2.039 . S
Co270 N284 2.140 . S
C271 O272 1.227 . S
C271 O281 1.265 . S
O272 C271 1.227 . S
N273 Co270 2.121 . S
N273 C275 1.375 . S
N273 C276 1.313 . S
C274 C275 1.338 . S
C274 N277 1.377 . S
C274 H294 0.930 . S
C275 N273 1.375 . S
C275 C274 1.338 . S
C275 H279 0.931 . S
C276 N273 1.313 . S
C276 N277 1.344 . S
C276 H280 0.930 . S
N277 C274 1.377 . S
N277 C276 1.344 . S
O278 Co270 2.055 . S
O278 C282 1.253 . S
H279 C275 0.931 . S
H280 C276 0.930 . S
O281 Co270 2.039 . S
O281 C271 1.265 . S
C282 O278 1.253 . S
C282 O283 1.227 . S
O283 C282 1.227 . S
N284 Co270 2.140 . S
N284 C287 1.346 . S
N284 C288 1.345 . S
C285 C286 1.387 . S
C285 C289 1.391 . S
C286 C285 1.387 . S
C286 C287 1.369 . S
C286 H295 0.929 . S
C287 N284 1.346 . S
C287 C286 1.369 . S
C287 H290 0.928 . S
C288 N284 1.345 . S
C288 C289 1.371 . S
C288 H291 0.931 . S
C289 C285 1.391 . S
C289 C288 1.371 . S
C289 H296 0.930 . S
H290 C287 0.928 . S
H291 C288 0.931 . S
H292 C268 0.930 . S
H293 C265 0.930 . S
H294 C274 0.930 . S
H295 C286 0.929 . S
H296 C289 0.930 . S
C297 C298 1.351 . S
C297 N300 1.368 . S
C297 H302 0.931 . S
C298 C297 1.351 . S
C298 N299 1.373 . S
C298 H326 0.930 . S
N299 C298 1.373 . S
N299 C301 1.340 . S
N300 C297 1.368 . S
N300 C301 1.321 . S
N300 Co303 2.135 . S
C301 N299 1.340 . S
C301 N300 1.321 . S
C301 H325 0.930 . S
H302 C297 0.931 . S
Co303 N300 2.135 . S
Co303 N306 2.121 . S
Co303 O311 2.055 . S
Co303 O314 2.039 . S
Co303 N317 2.140 . S
C304 O305 1.227 . S
C304 O314 1.265 . S
O305 C304 1.227 . S
N306 Co303 2.121 . S
N306 C308 1.375 . S
N306 C309 1.313 . S
C307 C308 1.338 . S
C307 N310 1.377 . S
C307 H327 0.930 . S
C308 N306 1.375 . S
C308 C307 1.338 . S
C308 H312 0.931 . S
C309 N306 1.313 . S
C309 N310 1.344 . S
C309 H313 0.930 . S
N310 C307 1.377 . S
N310 C309 1.344 . S
O311 Co303 2.055 . S
O311 C315 1.253 . S
H312 C308 0.931 . S
H313 C309 0.930 . S
O314 Co303 2.039 . S
O314 C304 1.265 . S
C315 O311 1.253 . S
C315 O316 1.227 . S
O316 C315 1.227 . S
N317 Co303 2.140 . S
N317 C320 1.346 . S
N317 C321 1.345 . S
C318 C319 1.387 . S
C318 C322 1.391 . S
C319 C318 1.387 . S
C319 C320 1.369 . S
C319 H328 0.929 . S
C320 N317 1.346 . S
C320 C319 1.369 . S
C320 H323 0.928 . S
C321 N317 1.345 . S
C321 C322 1.371 . S
C321 H324 0.931 . S
C322 C318 1.391 . S
C322 C321 1.371 . S
C322 H329 0.930 . S
H323 C320 0.928 . S
H324 C321 0.931 . S
H325 C301 0.930 . S
H326 C298 0.930 . S
H327 C307 0.930 . S
H328 C319 0.929 . S
H329 C322 0.930 . S
C330 C331 1.351 . S
C330 N333 1.368 . S
C330 H335 0.931 . S
C331 C330 1.351 . S
C331 N332 1.373 . S
C331 H359 0.930 . S
N332 C331 1.373 . S
N332 C334 1.340 . S
N333 C330 1.368 . S
N333 C334 1.321 . S
N333 Co336 2.135 . S
C334 N332 1.340 . S
C334 N333 1.321 . S
C334 H358 0.930 . S
H335 C330 0.931 . S
Co336 N333 2.135 . S
Co336 N339 2.121 . S
Co336 O344 2.055 . S
Co336 O347 2.039 . S
Co336 N350 2.140 . S
C337 O338 1.227 . S
C337 O347 1.265 . S
O338 C337 1.227 . S
N339 Co336 2.121 . S
N339 C341 1.375 . S
N339 C342 1.313 . S
C340 C341 1.338 . S
C340 N343 1.377 . S
C340 H360 0.930 . S
C341 N339 1.375 . S
C341 C340 1.338 . S
C341 H345 0.931 . S
C342 N339 1.313 . S
C342 N343 1.344 . S
C342 H346 0.930 . S
N343 C340 1.377 . S
N343 C342 1.344 . S
O344 Co336 2.055 . S
O344 C348 1.253 . S
H345 C341 0.931 . S
H346 C342 0.930 . S
O347 Co336 2.039 . S
O347 C337 1.265 . S
C348 O344 1.253 . S
C348 O349 1.227 . S
O349 C348 1.227 . S
N350 Co336 2.140 . S
N350 C353 1.346 . S
N350 C354 1.345 . S
C351 C352 1.387 . S
C351 C355 1.391 . S
C352 C351 1.387 . S
C352 C353 1.369 . S
C352 H361 0.929 . S
C353 N350 1.346 . S
C353 C352 1.369 . S
C353 H356 0.928 . S
C354 N350 1.345 . S
C354 C355 1.371 . S
C354 H357 0.931 . S
C355 C351 1.391 . S
C355 C354 1.371 . S
C355 H362 0.930 . S
H356 C353 0.928 . S
H357 C354 0.931 . S
H358 C334 0.930 . S
H359 C331 0.930 . S
H360 C340 0.930 . S
H361 C352 0.929 . S
H362 C355 0.930 . S
C363 C364 1.351 . S
C363 N366 1.368 . S
C363 H368 0.931 . S
C364 C363 1.351 . S
C364 N365 1.373 . S
C364 H392 0.930 . S
N365 C364 1.373 . S
N365 C367 1.340 . S
N366 C363 1.368 . S
N366 C367 1.321 . S
N366 Co369 2.135 . S
C367 N365 1.340 . S
C367 N366 1.321 . S
C367 H391 0.930 . S
H368 C363 0.931 . S
Co369 N366 2.135 . S
Co369 N372 2.121 1_565 S
Co369 O377 2.055 . S
Co369 O380 2.039 1_565 S
Co369 N383 2.140 . S
C370 O371 1.227 . S
C370 O380 1.265 . S
O371 C370 1.227 . S
N372 Co369 2.121 1_545 S
N372 C374 1.375 . S
N372 C375 1.313 . S
C373 C374 1.338 . S
C373 N376 1.377 . S
C373 H393 0.930 . S
C374 N372 1.375 . S
C374 C373 1.338 . S
C374 H378 0.931 . S
C375 N372 1.313 . S
C375 N376 1.344 . S
C375 H379 0.930 1_545 S
N376 C373 1.377 . S
N376 C375 1.344 . S
O377 Co369 2.055 . S
O377 C381 1.253 . S
H378 C374 0.931 . S
H379 C375 0.930 1_565 S
O380 Co369 2.039 1_545 S
O380 C370 1.265 . S
C381 O377 1.253 . S
C381 O382 1.227 . S
O382 C381 1.227 . S
N383 Co369 2.140 . S
N383 C386 1.346 . S
N383 C387 1.345 . S
C384 C385 1.387 . S
C384 C388 1.391 . S
C385 C384 1.387 . S
C385 C386 1.369 . S
C385 H394 0.929 . S
C386 N383 1.346 . S
C386 C385 1.369 . S
C386 H389 0.928 . S
C387 N383 1.345 . S
C387 C388 1.371 . S
C387 H390 0.931 . S
C388 C384 1.391 . S
C388 C387 1.371 . S
C388 H395 0.930 . S
H389 C386 0.928 . S
H390 C387 0.931 . S
H391 C367 0.930 . S
H392 C364 0.930 . S
H393 C373 0.930 . S
H394 C385 0.929 . S
H395 C388 0.930 . S
C396 C397 1.351 . S
C396 N399 1.368 . S
C396 H401 0.931 . S
C397 C396 1.351 . S
C397 N398 1.373 . S
C397 H425 0.930 . S
N398 C397 1.373 . S
N398 C400 1.340 . S
N399 C396 1.368 . S
N399 C400 1.321 . S
N399 Co402 2.135 . S
C400 N398 1.340 . S
C400 N399 1.321 . S
C400 H424 0.930 . S
H401 C396 0.931 . S
Co402 N399 2.135 . S
Co402 N405 2.121 . S
Co402 O410 2.055 . S
Co402 O413 2.039 . S
Co402 N416 2.140 . S
C403 O404 1.227 . S
C403 O413 1.265 . S
O404 C403 1.227 . S
N405 Co402 2.121 . S
N405 C407 1.375 . S
N405 C408 1.313 . S
C406 C407 1.338 . S
C406 N409 1.377 . S
C406 H426 0.930 . S
C407 N405 1.375 . S
C407 C406 1.338 . S
C407 H411 0.931 . S
C408 N405 1.313 . S
C408 N409 1.344 . S
C408 H412 0.930 . S
N409 C406 1.377 . S
N409 C408 1.344 . S
O410 Co402 2.055 . S
O410 C414 1.253 . S
H411 C407 0.931 . S
H412 C408 0.930 . S
O413 Co402 2.039 . S
O413 C403 1.265 . S
C414 O410 1.253 . S
C414 O415 1.227 . S
O415 C414 1.227 . S
N416 Co402 2.140 . S
N416 C419 1.346 . S
N416 C420 1.345 . S
C417 C418 1.387 . S
C417 C421 1.391 . S
C418 C417 1.387 . S
C418 C419 1.369 . S
C418 H427 0.929 . S
C419 N416 1.346 . S
C419 C418 1.369 . S
C419 H422 0.928 . S
C420 N416 1.345 . S
C420 C421 1.371 . S
C420 H423 0.931 . S
C421 C417 1.391 . S
C421 C420 1.371 . S
C421 H428 0.930 . S
H422 C419 0.928 . S
H423 C420 0.931 . S
H424 C400 0.930 . S
H425 C397 0.930 . S
H426 C406 0.930 . S
H427 C418 0.929 . S
H428 C421 0.930 . S
C429 C430 1.351 . S
C429 N432 1.368 . S
C429 H434 0.931 . S
C430 C429 1.351 . S
C430 N431 1.373 . S
C430 H458 0.930 . S
N431 C430 1.373 . S
N431 C433 1.340 . S
N432 C429 1.368 . S
N432 C433 1.321 . S
N432 Co435 2.135 . S
C433 N431 1.340 . S
C433 N432 1.321 . S
C433 H457 0.930 . S
H434 C429 0.931 . S
Co435 N432 2.135 . S
Co435 N438 2.121 . S
Co435 O443 2.055 . S
Co435 O446 2.039 . S
Co435 N449 2.140 . S
C436 O437 1.227 . S
C436 O446 1.265 . S
O437 C436 1.227 . S
N438 Co435 2.121 . S
N438 C440 1.375 . S
N438 C441 1.313 . S
C439 C440 1.338 . S
C439 N442 1.377 . S
C439 H459 0.930 . S
C440 N438 1.375 . S
C440 C439 1.338 . S
C440 H444 0.931 . S
C441 N438 1.313 . S
C441 N442 1.344 . S
C441 H445 0.930 . S
N442 C439 1.377 . S
N442 C441 1.344 . S
O443 Co435 2.055 . S
O443 C447 1.253 . S
H444 C440 0.931 . S
H445 C441 0.930 . S
O446 Co435 2.039 . S
O446 C436 1.265 . S
C447 O443 1.253 . S
C447 O448 1.227 . S
O448 C447 1.227 . S
N449 Co435 2.140 . S
N449 C452 1.346 . S
N449 C453 1.345 . S
C450 C451 1.387 . S
C450 C454 1.391 . S
C451 C450 1.387 . S
C451 C452 1.369 . S
C451 H460 0.929 . S
C452 N449 1.346 . S
C452 C451 1.369 . S
C452 H455 0.928 . S
C453 N449 1.345 . S
C453 C454 1.371 . S
C453 H456 0.931 . S
C454 C450 1.391 . S
C454 C453 1.371 . S
C454 H461 0.930 . S
H455 C452 0.928 . S
H456 C453 0.931 . S
H457 C433 0.930 . S
H458 C430 0.930 . S
H459 C439 0.930 . S
H460 C451 0.929 . S
H461 C454 0.930 . S
C462 C463 1.351 . S
C462 N465 1.368 . S
C462 H467 0.931 . S
C463 C462 1.351 . S
C463 N464 1.373 . S
C463 H491 0.930 . S
N464 C463 1.373 . S
N464 C466 1.340 . S
N465 C462 1.368 . S
N465 C466 1.321 . S
N465 Co468 2.135 . S
C466 N464 1.340 . S
C466 N465 1.321 . S
C466 H490 0.930 . S
H467 C462 0.931 . S
Co468 N465 2.135 . S
Co468 N471 2.121 . S
Co468 O476 2.055 . S
Co468 O479 2.039 . S
Co468 N482 2.140 . S
C469 O470 1.227 . S
C469 O479 1.265 . S
O470 C469 1.227 . S
N471 Co468 2.121 . S
N471 C473 1.375 . S
N471 C474 1.313 . S
C472 C473 1.338 . S
C472 N475 1.377 . S
C472 H492 0.930 . S
C473 N471 1.375 . S
C473 C472 1.338 . S
C473 H477 0.931 . S
C474 N471 1.313 . S
C474 N475 1.344 . S
C474 H478 0.930 . S
N475 C472 1.377 . S
N475 C474 1.344 . S
O476 Co468 2.055 . S
O476 C480 1.253 . S
H477 C473 0.931 . S
H478 C474 0.930 . S
O479 Co468 2.039 . S
O479 C469 1.265 . S
C480 O476 1.253 . S
C480 O481 1.227 . S
O481 C480 1.227 . S
N482 Co468 2.140 . S
N482 C485 1.346 . S
N482 C486 1.345 . S
C483 C484 1.387 . S
C483 C487 1.391 . S
C484 C483 1.387 . S
C484 C485 1.369 . S
C484 H493 0.929 . S
C485 N482 1.346 . S
C485 C484 1.369 . S
C485 H488 0.928 . S
C486 N482 1.345 . S
C486 C487 1.371 . S
C486 H489 0.931 . S
C487 C483 1.391 . S
C487 C486 1.371 . S
C487 H494 0.930 . S
H488 C485 0.928 . S
H489 C486 0.931 . S
H490 C466 0.930 . S
H491 C463 0.930 . S
H492 C472 0.930 . S
H493 C484 0.929 . S
H494 C487 0.930 . S
C495 C496 1.351 . S
C495 N498 1.368 . S
C495 H500 0.931 . S
C496 C495 1.351 . S
C496 N497 1.373 . S
C496 H524 0.930 . S
N497 C496 1.373 . S
N497 C499 1.340 . S
N498 C495 1.368 . S
N498 C499 1.321 . S
N498 Co501 2.135 . S
C499 N497 1.340 . S
C499 N498 1.321 . S
C499 H523 0.930 . S
H500 C495 0.931 . S
Co501 N498 2.135 . S
Co501 N504 2.121 1_565 S
Co501 O509 2.055 . S
Co501 O512 2.039 1_565 S
Co501 N515 2.140 . S
C502 O503 1.227 . S
C502 O512 1.265 . S
O503 C502 1.227 . S
N504 Co501 2.121 1_545 S
N504 C506 1.375 . S
N504 C507 1.313 . S
C505 C506 1.338 . S
C505 N508 1.377 . S
C505 H525 0.930 . S
C506 N504 1.375 . S
C506 C505 1.338 . S
C506 H510 0.931 . S
C507 N504 1.313 . S
C507 N508 1.344 . S
C507 H511 0.930 1_545 S
N508 C505 1.377 . S
N508 C507 1.344 . S
O509 Co501 2.055 . S
O509 C513 1.253 . S
H510 C506 0.931 . S
H511 C507 0.930 1_565 S
O512 Co501 2.039 1_545 S
O512 C502 1.265 . S
C513 O509 1.253 . S
C513 O514 1.227 . S
O514 C513 1.227 . S
N515 Co501 2.140 . S
N515 C518 1.346 . S
N515 C519 1.345 . S
C516 C517 1.387 . S
C516 C520 1.391 . S
C517 C516 1.387 . S
C517 C518 1.369 . S
C517 H526 0.929 . S
C518 N515 1.346 . S
C518 C517 1.369 . S
C518 H521 0.928 . S
C519 N515 1.345 . S
C519 C520 1.371 . S
C519 H522 0.931 . S
C520 C516 1.391 . S
C520 C519 1.371 . S
C520 H527 0.930 . S
H521 C518 0.928 . S
H522 C519 0.931 . S
H523 C499 0.930 . S
H524 C496 0.930 . S
H525 C505 0.930 . S
H526 C517 0.929 . S
H527 C520 0.930 . S
C528 C529 1.351 . S
C528 N531 1.368 . S
C528 H533 0.931 . S
C529 C528 1.351 . S
C529 N530 1.373 . S
C529 H557 0.930 . S
N530 C529 1.373 . S
N530 C532 1.340 . S
N531 C528 1.368 . S
N531 C532 1.321 . S
N531 Co534 2.135 . S
C532 N530 1.340 . S
C532 N531 1.321 . S
C532 H556 0.930 . S
H533 C528 0.931 . S
Co534 N531 2.135 . S
Co534 N537 2.121 . S
Co534 O542 2.055 . S
Co534 O545 2.039 . S
Co534 N548 2.140 . S
C535 O536 1.227 . S
C535 O545 1.265 . S
O536 C535 1.227 . S
N537 Co534 2.121 . S
N537 C539 1.375 . S
N537 C540 1.313 . S
C538 C539 1.338 . S
C538 N541 1.377 . S
C538 H558 0.930 . S
C539 N537 1.375 . S
C539 C538 1.338 . S
C539 H543 0.931 . S
C540 N537 1.313 . S
C540 N541 1.344 . S
C540 H544 0.930 . S
N541 C538 1.377 . S
N541 C540 1.344 . S
O542 Co534 2.055 . S
O542 C546 1.253 . S
H543 C539 0.931 . S
H544 C540 0.930 . S
O545 Co534 2.039 . S
O545 C535 1.265 . S
C546 O542 1.253 . S
C546 O547 1.227 . S
O547 C546 1.227 . S
N548 Co534 2.140 . S
N548 C551 1.346 . S
N548 C552 1.345 . S
C549 C550 1.387 . S
C549 C553 1.391 . S
C550 C549 1.387 . S
C550 C551 1.369 . S
C550 H559 0.929 . S
C551 N548 1.346 . S
C551 C550 1.369 . S
C551 H554 0.928 . S
C552 N548 1.345 . S
C552 C553 1.371 . S
C552 H555 0.931 . S
C553 C549 1.391 . S
C553 C552 1.371 . S
C553 H560 0.930 . S
H554 C551 0.928 . S
H555 C552 0.931 . S
H556 C532 0.930 . S
H557 C529 0.930 . S
H558 C538 0.930 . S
H559 C550 0.929 . S
H560 C553 0.930 . S
C561 C562 1.351 . S
C561 N564 1.368 . S
C561 H566 0.931 . S
C562 C561 1.351 . S
C562 N563 1.373 . S
C562 H590 0.930 . S
N563 C562 1.373 . S
N563 C565 1.340 . S
N564 C561 1.368 . S
N564 C565 1.321 . S
N564 Co567 2.135 . S
C565 N563 1.340 . S
C565 N564 1.321 . S
C565 H589 0.930 . S
H566 C561 0.931 . S
Co567 N564 2.135 . S
Co567 N570 2.121 . S
Co567 O575 2.055 . S
Co567 O578 2.039 . S
Co567 N581 2.140 . S
C568 O569 1.227 . S
C568 O578 1.265 . S
O569 C568 1.227 . S
N570 Co567 2.121 . S
N570 C572 1.375 . S
N570 C573 1.313 . S
C571 C572 1.338 . S
C571 N574 1.377 . S
C571 H591 0.930 . S
C572 N570 1.375 . S
C572 C571 1.338 . S
C572 H576 0.931 . S
C573 N570 1.313 . S
C573 N574 1.344 . S
C573 H577 0.930 . S
N574 C571 1.377 . S
N574 C573 1.344 . S
O575 Co567 2.055 . S
O575 C579 1.253 . S
H576 C572 0.931 . S
H577 C573 0.930 . S
O578 Co567 2.039 . S
O578 C568 1.265 . S
C579 O575 1.253 . S
C579 O580 1.227 . S
O580 C579 1.227 . S
N581 Co567 2.140 . S
N581 C584 1.346 . S
N581 C585 1.345 . S
C582 C583 1.387 . S
C582 C586 1.391 . S
C583 C582 1.387 . S
C583 C584 1.369 . S
C583 H592 0.929 . S
C584 N581 1.346 . S
C584 C583 1.369 . S
C584 H587 0.928 . S
C585 N581 1.345 . S
C585 C586 1.371 . S
C585 H588 0.931 . S
C586 C582 1.391 . S
C586 C585 1.371 . S
C586 H593 0.930 . S
H587 C584 0.928 . S
H588 C585 0.931 . S
H589 C565 0.930 . S
H590 C562 0.930 . S
H591 C571 0.930 . S
H592 C583 0.929 . S
H593 C586 0.930 . S
C594 C595 1.351 . S
C594 N597 1.368 . S
C594 H599 0.931 . S
C595 C594 1.351 . S
C595 N596 1.373 . S
C595 H623 0.930 . S
N596 C595 1.373 . S
N596 C598 1.340 . S
N597 C594 1.368 . S
N597 C598 1.321 . S
N597 Co600 2.135 . S
C598 N596 1.340 . S
C598 N597 1.321 . S
C598 H622 0.930 . S
H599 C594 0.931 . S
Co600 N597 2.135 . S
Co600 N603 2.121 1_455 S
Co600 O608 2.055 . S
Co600 O611 2.039 1_455 S
Co600 N614 2.140 . S
C601 O602 1.227 . S
C601 O611 1.265 . S
O602 C601 1.227 . S
N603 Co600 2.121 1_655 S
N603 C605 1.375 . S
N603 C606 1.313 . S
C604 C605 1.338 . S
C604 N607 1.377 . S
C604 H624 0.930 . S
C605 N603 1.375 . S
C605 C604 1.338 . S
C605 H609 0.931 . S
C606 N603 1.313 . S
C606 N607 1.344 . S
C606 H610 0.930 1_655 S
N607 C604 1.377 . S
N607 C606 1.344 . S
O608 Co600 2.055 . S
O608 C612 1.253 . S
H609 C605 0.931 . S
H610 C606 0.930 1_455 S
O611 Co600 2.039 1_655 S
O611 C601 1.265 . S
C612 O608 1.253 . S
C612 O613 1.227 . S
O613 C612 1.227 . S
N614 Co600 2.140 . S
N614 C617 1.346 . S
N614 C618 1.345 . S
C615 C616 1.387 . S
C615 C619 1.391 . S
C616 C615 1.387 . S
C616 C617 1.369 . S
C616 H625 0.929 . S
C617 N614 1.346 . S
C617 C616 1.369 . S
C617 H620 0.928 . S
C618 N614 1.345 . S
C618 C619 1.371 . S
C618 H621 0.931 . S
C619 C615 1.391 . S
C619 C618 1.371 . S
C619 H626 0.930 . S
H620 C617 0.928 . S
H621 C618 0.931 . S
H622 C598 0.930 . S
H623 C595 0.930 . S
H624 C604 0.930 . S
H625 C616 0.929 . S
H626 C619 0.930 . S
C627 C628 1.351 . S
C627 N630 1.368 . S
C627 H632 0.931 . S
C628 C627 1.351 . S
C628 N629 1.373 . S
C628 H656 0.930 . S
N629 C628 1.373 . S
N629 C631 1.340 . S
N630 C627 1.368 . S
N630 C631 1.321 . S
N630 Co633 2.135 . S
C631 N629 1.340 . S
C631 N630 1.321 . S
C631 H655 0.930 . S
H632 C627 0.931 . S
Co633 N630 2.135 . S
Co633 N636 2.121 . S
Co633 O641 2.055 . S
Co633 O644 2.039 . S
Co633 N647 2.140 . S
C634 O635 1.227 . S
C634 O644 1.265 . S
O635 C634 1.227 . S
N636 Co633 2.121 . S
N636 C638 1.375 . S
N636 C639 1.313 . S
C637 C638 1.338 . S
C637 N640 1.377 . S
C637 H657 0.930 . S
C638 N636 1.375 . S
C638 C637 1.338 . S
C638 H642 0.931 . S
C639 N636 1.313 . S
C639 N640 1.344 . S
C639 H643 0.930 . S
N640 C637 1.377 . S
N640 C639 1.344 . S
O641 Co633 2.055 . S
O641 C645 1.253 . S
H642 C638 0.931 . S
H643 C639 0.930 . S
O644 Co633 2.039 . S
O644 C634 1.265 . S
C645 O641 1.253 . S
C645 O646 1.227 . S
O646 C645 1.227 . S
N647 Co633 2.140 . S
N647 C650 1.346 . S
N647 C651 1.345 . S
C648 C649 1.387 . S
C648 C652 1.391 . S
C649 C648 1.387 . S
C649 C650 1.369 . S
C649 H658 0.929 . S
C650 N647 1.346 . S
C650 C649 1.369 . S
C650 H653 0.928 . S
C651 N647 1.345 . S
C651 C652 1.371 . S
C651 H654 0.931 . S
C652 C648 1.391 . S
C652 C651 1.371 . S
C652 H659 0.930 . S
H653 C650 0.928 . S
H654 C651 0.931 . S
H655 C631 0.930 . S
H656 C628 0.930 . S
H657 C637 0.930 . S
H658 C649 0.929 . S
H659 C652 0.930 . S
C660 C661 1.351 . S
C660 N663 1.368 . S
C660 H665 0.931 . S
C661 C660 1.351 . S
C661 N662 1.373 . S
C661 H689 0.930 . S
N662 C661 1.373 . S
N662 C664 1.340 . S
N663 C660 1.368 . S
N663 C664 1.321 . S
N663 Co666 2.135 . S
C664 N662 1.340 . S
C664 N663 1.321 . S
C664 H688 0.930 . S
H665 C660 0.931 . S
Co666 N663 2.135 . S
Co666 N669 2.121 . S
Co666 O674 2.055 . S
Co666 O677 2.039 . S
Co666 N680 2.140 . S
C667 O668 1.227 . S
C667 O677 1.265 . S
O668 C667 1.227 . S
N669 Co666 2.121 . S
N669 C671 1.375 . S
N669 C672 1.313 . S
C670 C671 1.338 . S
C670 N673 1.377 . S
C670 H690 0.930 . S
C671 N669 1.375 . S
C671 C670 1.338 . S
C671 H675 0.931 . S
C672 N669 1.313 . S
C672 N673 1.344 . S
C672 H676 0.930 . S
N673 C670 1.377 . S
N673 C672 1.344 . S
O674 Co666 2.055 . S
O674 C678 1.253 . S
H675 C671 0.931 . S
H676 C672 0.930 . S
O677 Co666 2.039 . S
O677 C667 1.265 . S
C678 O674 1.253 . S
C678 O679 1.227 . S
O679 C678 1.227 . S
N680 Co666 2.140 . S
N680 C683 1.346 . S
N680 C684 1.345 . S
C681 C682 1.387 . S
C681 C685 1.391 . S
C682 C681 1.387 . S
C682 C683 1.369 . S
C682 H691 0.929 . S
C683 N680 1.346 . S
C683 C682 1.369 . S
C683 H686 0.928 . S
C684 N680 1.345 . S
C684 C685 1.371 . S
C684 H687 0.931 . S
C685 C681 1.391 . S
C685 C684 1.371 . S
C685 H692 0.930 . S
H686 C683 0.928 . S
H687 C684 0.931 . S
H688 C664 0.930 . S
H689 C661 0.930 . S
H690 C670 0.930 . S
H691 C682 0.929 . S
H692 C685 0.930 . S
C693 C694 1.351 . S
C693 N696 1.368 . S
C693 H698 0.931 . S
C694 C693 1.351 . S
C694 N695 1.373 . S
C694 H722 0.930 . S
N695 C694 1.373 . S
N695 C697 1.340 . S
N696 C693 1.368 . S
N696 C697 1.321 . S
N696 Co699 2.135 . S
C697 N695 1.340 . S
C697 N696 1.321 . S
C697 H721 0.930 . S
H698 C693 0.931 . S
Co699 N696 2.135 . S
Co699 N702 2.121 . S
Co699 O707 2.055 . S
Co699 O710 2.039 . S
Co699 N713 2.140 . S
C700 O701 1.227 . S
C700 O710 1.265 . S
O701 C700 1.227 . S
N702 Co699 2.121 . S
N702 C704 1.375 . S
N702 C705 1.313 . S
C703 C704 1.338 . S
C703 N706 1.377 . S
C703 H723 0.930 . S
C704 N702 1.375 . S
C704 C703 1.338 . S
C704 H708 0.931 . S
C705 N702 1.313 . S
C705 N706 1.344 . S
C705 H709 0.930 . S
N706 C703 1.377 . S
N706 C705 1.344 . S
O707 Co699 2.055 . S
O707 C711 1.253 . S
H708 C704 0.931 . S
H709 C705 0.930 . S
O710 Co699 2.039 . S
O710 C700 1.265 . S
C711 O707 1.253 . S
C711 O712 1.227 . S
O712 C711 1.227 . S
N713 Co699 2.140 . S
N713 C716 1.346 . S
N713 C717 1.345 . S
C714 C715 1.387 . S
C714 C718 1.391 . S
C715 C714 1.387 . S
C715 C716 1.369 . S
C715 H724 0.929 . S
C716 N713 1.346 . S
C716 C715 1.369 . S
C716 H719 0.928 . S
C717 N713 1.345 . S
C717 C718 1.371 . S
C717 H720 0.931 . S
C718 C714 1.391 . S
C718 C717 1.371 . S
C718 H725 0.930 . S
H719 C716 0.928 . S
H720 C717 0.931 . S
H721 C697 0.930 . S
H722 C694 0.930 . S
H723 C703 0.930 . S
H724 C715 0.929 . S
H725 C718 0.930 . S
C726 C727 1.351 . S
C726 N729 1.368 . S
C726 H731 0.931 . S
C727 C726 1.351 . S
C727 N728 1.373 . S
C727 H755 0.930 . S
N728 C727 1.373 . S
N728 C730 1.340 . S
N729 C726 1.368 . S
N729 C730 1.321 . S
N729 Co732 2.135 . S
C730 N728 1.340 . S
C730 N729 1.321 . S
C730 H754 0.930 . S
H731 C726 0.931 . S
Co732 N729 2.135 . S
Co732 N735 2.121 1_455 S
Co732 O740 2.055 . S
Co732 O743 2.039 1_455 S
Co732 N746 2.140 . S
C733 O734 1.227 . S
C733 O743 1.265 . S
O734 C733 1.227 . S
N735 Co732 2.121 1_655 S
N735 C737 1.375 . S
N735 C738 1.313 . S
C736 C737 1.338 . S
C736 N739 1.377 . S
C736 H756 0.930 . S
C737 N735 1.375 . S
C737 C736 1.338 . S
C737 H741 0.931 . S
C738 N735 1.313 . S
C738 N739 1.344 . S
C738 H742 0.930 1_655 S
N739 C736 1.377 . S
N739 C738 1.344 . S
O740 Co732 2.055 . S
O740 C744 1.253 . S
H741 C737 0.931 . S
H742 C738 0.930 1_455 S
O743 Co732 2.039 1_655 S
O743 C733 1.265 . S
C744 O740 1.253 . S
C744 O745 1.227 . S
O745 C744 1.227 . S
N746 Co732 2.140 . S
N746 C749 1.346 . S
N746 C750 1.345 . S
C747 C748 1.387 . S
C747 C751 1.391 . S
C748 C747 1.387 . S
C748 C749 1.369 . S
C748 H757 0.929 . S
C749 N746 1.346 . S
C749 C748 1.369 . S
C749 H752 0.928 . S
C750 N746 1.345 . S
C750 C751 1.371 . S
C750 H753 0.931 . S
C751 C747 1.391 . S
C751 C750 1.371 . S
C751 H758 0.930 . S
H752 C749 0.928 . S
H753 C750 0.931 . S
H754 C730 0.930 . S
H755 C727 0.930 . S
H756 C736 0.930 . S
H757 C748 0.929 . S
H758 C751 0.930 . S
C759 C760 1.351 . S
C759 N762 1.368 . S
C759 H764 0.931 . S
C760 C759 1.351 . S
C760 N761 1.373 . S
C760 H788 0.930 . S
N761 C760 1.373 . S
N761 C763 1.340 . S
N762 C759 1.368 . S
N762 C763 1.321 . S
N762 Co765 2.135 . S
C763 N761 1.340 . S
C763 N762 1.321 . S
C763 H787 0.930 . S
H764 C759 0.931 . S
Co765 N762 2.135 . S
Co765 N768 2.121 1_655 S
Co765 O773 2.055 . S
Co765 O776 2.039 1_655 S
Co765 N779 2.140 . S
C766 O767 1.227 . S
C766 O776 1.265 . S
O767 C766 1.227 . S
N768 Co765 2.121 1_455 S
N768 C770 1.375 . S
N768 C771 1.313 . S
C769 C770 1.338 . S
C769 N772 1.377 . S
C769 H789 0.930 . S
C770 N768 1.375 . S
C770 C769 1.338 . S
C770 H774 0.931 . S
C771 N768 1.313 . S
C771 N772 1.344 . S
C771 H775 0.930 1_455 S
N772 C769 1.377 . S
N772 C771 1.344 . S
O773 Co765 2.055 . S
O773 C777 1.253 . S
H774 C770 0.931 . S
H775 C771 0.930 1_655 S
O776 Co765 2.039 1_455 S
O776 C766 1.265 . S
C777 O773 1.253 . S
C777 O778 1.227 . S
O778 C777 1.227 . S
N779 Co765 2.140 . S
N779 C782 1.346 . S
N779 C783 1.345 . S
C780 C781 1.387 . S
C780 C784 1.391 . S
C781 C780 1.387 . S
C781 C782 1.369 . S
C781 H790 0.929 . S
C782 N779 1.346 . S
C782 C781 1.369 . S
C782 H785 0.928 . S
C783 N779 1.345 . S
C783 C784 1.371 . S
C783 H786 0.931 . S
C784 C780 1.391 . S
C784 C783 1.371 . S
C784 H791 0.930 . S
H785 C782 0.928 . S
H786 C783 0.931 . S
H787 C763 0.930 . S
H788 C760 0.930 . S
H789 C769 0.930 . S
H790 C781 0.929 . S
H791 C784 0.930 . S
C792 C793 1.351 . S
C792 N795 1.368 . S
C792 H797 0.931 . S
C793 C792 1.351 . S
C793 N794 1.373 . S
C793 H821 0.930 . S
N794 C793 1.373 . S
N794 C796 1.340 . S
N795 C792 1.368 . S
N795 C796 1.321 . S
N795 Co798 2.135 . S
C796 N794 1.340 . S
C796 N795 1.321 . S
C796 H820 0.930 . S
H797 C792 0.931 . S
Co798 N795 2.135 . S
Co798 N801 2.121 . S
Co798 O806 2.055 . S
Co798 O809 2.039 . S
Co798 N812 2.140 . S
C799 O800 1.227 . S
C799 O809 1.265 . S
O800 C799 1.227 . S
N801 Co798 2.121 . S
N801 C803 1.375 . S
N801 C804 1.313 . S
C802 C803 1.338 . S
C802 N805 1.377 . S
C802 H822 0.930 . S
C803 N801 1.375 . S
C803 C802 1.338 . S
C803 H807 0.931 . S
C804 N801 1.313 . S
C804 N805 1.344 . S
C804 H808 0.930 . S
N805 C802 1.377 . S
N805 C804 1.344 . S
O806 Co798 2.055 . S
O806 C810 1.253 . S
H807 C803 0.931 . S
H808 C804 0.930 . S
O809 Co798 2.039 . S
O809 C799 1.265 . S
C810 O806 1.253 . S
C810 O811 1.227 . S
O811 C810 1.227 . S
N812 Co798 2.140 . S
N812 C815 1.346 . S
N812 C816 1.345 . S
C813 C814 1.387 . S
C813 C817 1.391 . S
C814 C813 1.387 . S
C814 C815 1.369 . S
C814 H823 0.929 . S
C815 N812 1.346 . S
C815 C814 1.369 . S
C815 H818 0.928 . S
C816 N812 1.345 . S
C816 C817 1.371 . S
C816 H819 0.931 . S
C817 C813 1.391 . S
C817 C816 1.371 . S
C817 H824 0.930 . S
H818 C815 0.928 . S
H819 C816 0.931 . S
H820 C796 0.930 . S
H821 C793 0.930 . S
H822 C802 0.930 . S
H823 C814 0.929 . S
H824 C817 0.930 . S
C825 C826 1.351 . S
C825 N828 1.368 . S
C825 H830 0.931 . S
C826 C825 1.351 . S
C826 N827 1.373 . S
C826 H854 0.930 . S
N827 C826 1.373 . S
N827 C829 1.340 . S
N828 C825 1.368 . S
N828 C829 1.321 . S
N828 Co831 2.135 . S
C829 N827 1.340 . S
C829 N828 1.321 . S
C829 H853 0.930 . S
H830 C825 0.931 . S
Co831 N828 2.135 . S
Co831 N834 2.121 . S
Co831 O839 2.055 . S
Co831 O842 2.039 . S
Co831 N845 2.140 . S
C832 O833 1.227 . S
C832 O842 1.265 . S
O833 C832 1.227 . S
N834 Co831 2.121 . S
N834 C836 1.375 . S
N834 C837 1.313 . S
C835 C836 1.338 . S
C835 N838 1.377 . S
C835 H855 0.930 . S
C836 N834 1.375 . S
C836 C835 1.338 . S
C836 H840 0.931 . S
C837 N834 1.313 . S
C837 N838 1.344 . S
C837 H841 0.930 . S
N838 C835 1.377 . S
N838 C837 1.344 . S
O839 Co831 2.055 . S
O839 C843 1.253 . S
H840 C836 0.931 . S
H841 C837 0.930 . S
O842 Co831 2.039 . S
O842 C832 1.265 . S
C843 O839 1.253 . S
C843 O844 1.227 . S
O844 C843 1.227 . S
N845 Co831 2.140 . S
N845 C848 1.346 . S
N845 C849 1.345 . S
C846 C847 1.387 . S
C846 C850 1.391 . S
C847 C846 1.387 . S
C847 C848 1.369 . S
C847 H856 0.929 . S
C848 N845 1.346 . S
C848 C847 1.369 . S
C848 H851 0.928 . S
C849 N845 1.345 . S
C849 C850 1.371 . S
C849 H852 0.931 . S
C850 C846 1.391 . S
C850 C849 1.371 . S
C850 H857 0.930 . S
H851 C848 0.928 . S
H852 C849 0.931 . S
H853 C829 0.930 . S
H854 C826 0.930 . S
H855 C835 0.930 . S
H856 C847 0.929 . S
H857 C850 0.930 . S
C858 C859 1.351 . S
C858 N861 1.368 . S
C858 H863 0.931 . S
C859 C858 1.351 . S
C859 N860 1.373 . S
C859 H887 0.930 . S
N860 C859 1.373 . S
N860 C862 1.340 . S
N861 C858 1.368 . S
N861 C862 1.321 . S
N861 Co864 2.135 . S
C862 N860 1.340 . S
C862 N861 1.321 . S
C862 H886 0.930 . S
H863 C858 0.931 . S
Co864 N861 2.135 . S
Co864 N867 2.121 . S
Co864 O872 2.055 . S
Co864 O875 2.039 . S
Co864 N878 2.140 . S
C865 O866 1.227 . S
C865 O875 1.265 . S
O866 C865 1.227 . S
N867 Co864 2.121 . S
N867 C869 1.375 . S
N867 C870 1.313 . S
C868 C869 1.338 . S
C868 N871 1.377 . S
C868 H888 0.930 . S
C869 N867 1.375 . S
C869 C868 1.338 . S
C869 H873 0.931 . S
C870 N867 1.313 . S
C870 N871 1.344 . S
C870 H874 0.930 . S
N871 C868 1.377 . S
N871 C870 1.344 . S
O872 Co864 2.055 . S
O872 C876 1.253 . S
H873 C869 0.931 . S
H874 C870 0.930 . S
O875 Co864 2.039 . S
O875 C865 1.265 . S
C876 O872 1.253 . S
C876 O877 1.227 . S
O877 C876 1.227 . S
N878 Co864 2.140 . S
N878 C881 1.346 . S
N878 C882 1.345 . S
C879 C880 1.387 . S
C879 C883 1.391 . S
C880 C879 1.387 . S
C880 C881 1.369 . S
C880 H889 0.929 . S
C881 N878 1.346 . S
C881 C880 1.369 . S
C881 H884 0.928 . S
C882 N878 1.345 . S
C882 C883 1.371 . S
C882 H885 0.931 . S
C883 C879 1.391 . S
C883 C882 1.371 . S
C883 H890 0.930 . S
H884 C881 0.928 . S
H885 C882 0.931 . S
H886 C862 0.930 . S
H887 C859 0.930 . S
H888 C868 0.930 . S
H889 C880 0.929 . S
H890 C883 0.930 . S
C891 C892 1.351 . S
C891 N894 1.368 . S
C891 H896 0.931 . S
C892 C891 1.351 . S
C892 N893 1.373 . S
C892 H920 0.930 . S
N893 C892 1.373 . S
N893 C895 1.340 . S
N894 C891 1.368 . S
N894 C895 1.321 . S
N894 Co897 2.135 . S
C895 N893 1.340 . S
C895 N894 1.321 . S
C895 H919 0.930 . S
H896 C891 0.931 . S
Co897 N894 2.135 . S
Co897 N900 2.121 . S
Co897 O905 2.055 . S
Co897 O908 2.039 . S
Co897 N911 2.140 . S
C898 O899 1.227 . S
C898 O908 1.265 . S
O899 C898 1.227 . S
N900 Co897 2.121 . S
N900 C902 1.375 . S
N900 C903 1.313 . S
C901 C902 1.338 . S
C901 N904 1.377 . S
C901 H921 0.930 . S
C902 N900 1.375 . S
C902 C901 1.338 . S
C902 H906 0.931 . S
C903 N900 1.313 . S
C903 N904 1.344 . S
C903 H907 0.930 . S
N904 C901 1.377 . S
N904 C903 1.344 . S
O905 Co897 2.055 . S
O905 C909 1.253 . S
H906 C902 0.931 . S
H907 C903 0.930 . S
O908 Co897 2.039 . S
O908 C898 1.265 . S
C909 O905 1.253 . S
C909 O910 1.227 . S
O910 C909 1.227 . S
N911 Co897 2.140 . S
N911 C914 1.346 . S
N911 C915 1.345 . S
C912 C913 1.387 . S
C912 C916 1.391 . S
C913 C912 1.387 . S
C913 C914 1.369 . S
C913 H922 0.929 . S
C914 N911 1.346 . S
C914 C913 1.369 . S
C914 H917 0.928 . S
C915 N911 1.345 . S
C915 C916 1.371 . S
C915 H918 0.931 . S
C916 C912 1.391 . S
C916 C915 1.371 . S
C916 H923 0.930 . S
H917 C914 0.928 . S
H918 C915 0.931 . S
H919 C895 0.930 . S
H920 C892 0.930 . S
H921 C901 0.930 . S
H922 C913 0.929 . S
H923 C916 0.930 . S
C924 C925 1.351 . S
C924 N927 1.368 . S
C924 H929 0.931 . S
C925 C924 1.351 . S
C925 N926 1.373 . S
C925 H953 0.930 . S
N926 C925 1.373 . S
N926 C928 1.340 . S
N927 C924 1.368 . S
N927 C928 1.321 . S
N927 Co930 2.135 . S
C928 N926 1.340 . S
C928 N927 1.321 . S
C928 H952 0.930 . S
H929 C924 0.931 . S
Co930 N927 2.135 . S
Co930 N933 2.121 . S
Co930 O938 2.055 . S
Co930 O941 2.039 . S
Co930 N944 2.140 . S
C931 O932 1.227 . S
C931 O941 1.265 . S
O932 C931 1.227 . S
N933 Co930 2.121 . S
N933 C935 1.375 . S
N933 C936 1.313 . S
C934 C935 1.338 . S
C934 N937 1.377 . S
C934 H954 0.930 . S
C935 N933 1.375 . S
C935 C934 1.338 . S
C935 H939 0.931 . S
C936 N933 1.313 . S
C936 N937 1.344 . S
C936 H940 0.930 . S
N937 C934 1.377 . S
N937 C936 1.344 . S
O938 Co930 2.055 . S
O938 C942 1.253 . S
H939 C935 0.931 . S
H940 C936 0.930 . S
O941 Co930 2.039 . S
O941 C931 1.265 . S
C942 O938 1.253 . S
C942 O943 1.227 . S
O943 C942 1.227 . S
N944 Co930 2.140 . S
N944 C947 1.346 . S
N944 C948 1.345 . S
C945 C946 1.387 . S
C945 C949 1.391 . S
C946 C945 1.387 . S
C946 C947 1.369 . S
C946 H955 0.929 . S
C947 N944 1.346 . S
C947 C946 1.369 . S
C947 H950 0.928 . S
C948 N944 1.345 . S
C948 C949 1.371 . S
C948 H951 0.931 . S
C949 C945 1.391 . S
C949 C948 1.371 . S
C949 H956 0.930 . S
H950 C947 0.928 . S
H951 C948 0.931 . S
H952 C928 0.930 . S
H953 C925 0.930 . S
H954 C934 0.930 . S
H955 C946 0.929 . S
H956 C949 0.930 . S
C957 C958 1.351 . S
C957 N960 1.368 . S
C957 H962 0.931 . S
C958 C957 1.351 . S
C958 N959 1.373 . S
C958 H986 0.930 . S
N959 C958 1.373 . S
N959 C961 1.340 . S
N960 C957 1.368 . S
N960 C961 1.321 . S
N960 Co963 2.135 . S
C961 N959 1.340 . S
C961 N960 1.321 . S
C961 H985 0.930 . S
H962 C957 0.931 . S
Co963 N960 2.135 . S
Co963 N966 2.121 . S
Co963 O971 2.055 . S
Co963 O974 2.039 . S
Co963 N977 2.140 . S
C964 O965 1.227 . S
C964 O974 1.265 . S
O965 C964 1.227 . S
N966 Co963 2.121 . S
N966 C968 1.375 . S
N966 C969 1.313 . S
C967 C968 1.338 . S
C967 N970 1.377 . S
C967 H987 0.930 . S
C968 N966 1.375 . S
C968 C967 1.338 . S
C968 H972 0.931 . S
C969 N966 1.313 . S
C969 N970 1.344 . S
C969 H973 0.930 . S
N970 C967 1.377 . S
N970 C969 1.344 . S
O971 Co963 2.055 . S
O971 C975 1.253 . S
H972 C968 0.931 . S
H973 C969 0.930 . S
O974 Co963 2.039 . S
O974 C964 1.265 . S
C975 O971 1.253 . S
C975 O976 1.227 . S
O976 C975 1.227 . S
N977 Co963 2.140 . S
N977 C980 1.346 . S
N977 C981 1.345 . S
C978 C979 1.387 . S
C978 C982 1.391 . S
C979 C978 1.387 . S
C979 C980 1.369 . S
C979 H988 0.929 . S
C980 N977 1.346 . S
C980 C979 1.369 . S
C980 H983 0.928 . S
C981 N977 1.345 . S
C981 C982 1.371 . S
C981 H984 0.931 . S
C982 C978 1.391 . S
C982 C981 1.371 . S
C982 H989 0.930 . S
H983 C980 0.928 . S
H984 C981 0.931 . S
H985 C961 0.930 . S
H986 C958 0.930 . S
H987 C967 0.930 . S
H988 C979 0.929 . S
H989 C982 0.930 . S
C990 C991 1.351 . S
C990 N993 1.368 . S
C990 H995 0.931 . S
C991 C990 1.351 . S
C991 N992 1.373 . S
C991 H1019 0.930 . S
N992 C991 1.373 . S
N992 C994 1.340 . S
N993 C990 1.368 . S
N993 C994 1.321 . S
N993 Co996 2.135 . S
C994 N992 1.340 . S
C994 N993 1.321 . S
C994 H1018 0.930 . S
H995 C990 0.931 . S
Co996 N993 2.135 . S
Co996 N999 2.121 . S
Co996 O1004 2.055 . S
Co996 O1007 2.039 . S
Co996 N1010 2.140 . S
C997 O998 1.227 . S
C997 O1007 1.265 . S
O998 C997 1.227 . S
N999 Co996 2.121 . S
N999 C1001 1.375 . S
N999 C1002 1.313 . S
C1000 C1001 1.338 . S
C1000 N1003 1.377 . S
C1000 H1020 0.930 . S
C1001 N999 1.375 . S
C1001 C1000 1.338 . S
C1001 H1005 0.931 . S
C1002 N999 1.313 . S
C1002 N1003 1.344 . S
C1002 H1006 0.930 . S
N1003 C1000 1.377 . S
N1003 C1002 1.344 . S
O1004 Co996 2.055 . S
O1004 C1008 1.253 . S
H1005 C1001 0.931 . S
H1006 C1002 0.930 . S
O1007 Co996 2.039 . S
O1007 C997 1.265 . S
C1008 O1004 1.253 . S
C1008 O1009 1.227 . S
O1009 C1008 1.227 . S
N1010 Co996 2.140 . S
N1010 C1013 1.346 . S
N1010 C1014 1.345 . S
C1011 C1012 1.387 . S
C1011 C1015 1.391 . S
C1012 C1011 1.387 . S
C1012 C1013 1.369 . S
C1012 H1021 0.929 . S
C1013 N1010 1.346 . S
C1013 C1012 1.369 . S
C1013 H1016 0.928 . S
C1014 N1010 1.345 . S
C1014 C1015 1.371 . S
C1014 H1017 0.931 . S
C1015 C1011 1.391 . S
C1015 C1014 1.371 . S
C1015 H1022 0.930 . S
H1016 C1013 0.928 . S
H1017 C1014 0.931 . S
H1018 C994 0.930 . S
H1019 C991 0.930 . S
H1020 C1000 0.930 . S
H1021 C1012 0.929 . S
H1022 C1015 0.930 . S
C1023 C1024 1.351 . S
C1023 N1026 1.368 . S
C1023 H1028 0.931 . S
C1024 C1023 1.351 . S
C1024 N1025 1.373 . S
C1024 H1052 0.930 . S
N1025 C1024 1.373 . S
N1025 C1027 1.340 . S
N1026 C1023 1.368 . S
N1026 C1027 1.321 . S
N1026 Co1029 2.135 . S
C1027 N1025 1.340 . S
C1027 N1026 1.321 . S
C1027 H1051 0.930 . S
H1028 C1023 0.931 . S
Co1029 N1026 2.135 . S
Co1029 N1032 2.121 . S
Co1029 O1037 2.055 . S
Co1029 O1040 2.039 . S
Co1029 N1043 2.140 . S
C1030 O1031 1.227 . S
C1030 O1040 1.265 . S
O1031 C1030 1.227 . S
N1032 Co1029 2.121 . S
N1032 C1034 1.375 . S
N1032 C1035 1.313 . S
C1033 C1034 1.338 . S
C1033 N1036 1.377 . S
C1033 H1053 0.930 . S
C1034 N1032 1.375 . S
C1034 C1033 1.338 . S
C1034 H1038 0.931 . S
C1035 N1032 1.313 . S
C1035 N1036 1.344 . S
C1035 H1039 0.930 . S
N1036 C1033 1.377 . S
N1036 C1035 1.344 . S
O1037 Co1029 2.055 . S
O1037 C1041 1.253 . S
H1038 C1034 0.931 . S
H1039 C1035 0.930 . S
O1040 Co1029 2.039 . S
O1040 C1030 1.265 . S
C1041 O1037 1.253 . S
C1041 O1042 1.227 . S
O1042 C1041 1.227 . S
N1043 Co1029 2.140 . S
N1043 C1046 1.346 . S
N1043 C1047 1.345 . S
C1044 C1045 1.387 . S
C1044 C1048 1.391 . S
C1045 C1044 1.387 . S
C1045 C1046 1.369 . S
C1045 H1054 0.929 . S
C1046 N1043 1.346 . S
C1046 C1045 1.369 . S
C1046 H1049 0.928 . S
C1047 N1043 1.345 . S
C1047 C1048 1.371 . S
C1047 H1050 0.931 . S
C1048 C1044 1.391 . S
C1048 C1047 1.371 . S
C1048 H1055 0.930 . S
H1049 C1046 0.928 . S
H1050 C1047 0.931 . S
H1051 C1027 0.930 . S
H1052 C1024 0.930 . S
H1053 C1033 0.930 . S
H1054 C1045 0.929 . S
H1055 C1048 0.930 . S
C1056 C1057 1.351 . S
C1056 N1059 1.368 . S
C1056 H1061 0.931 . S
C1057 C1056 1.351 . S
C1057 N1058 1.373 . S
C1057 H1085 0.930 . S
N1058 C1057 1.373 . S
N1058 C1060 1.340 . S
N1059 C1056 1.368 . S
N1059 C1060 1.321 . S
N1059 Co1062 2.135 . S
C1060 N1058 1.340 . S
C1060 N1059 1.321 . S
C1060 H1084 0.930 . S
H1061 C1056 0.931 . S
Co1062 N1059 2.135 . S
Co1062 N1065 2.121 . S
Co1062 O1070 2.055 . S
Co1062 O1073 2.039 . S
Co1062 N1076 2.140 . S
C1063 O1064 1.227 . S
C1063 O1073 1.265 . S
O1064 C1063 1.227 . S
N1065 Co1062 2.121 . S
N1065 C1067 1.375 . S
N1065 C1068 1.313 . S
C1066 C1067 1.338 . S
C1066 N1069 1.377 . S
C1066 H1086 0.930 . S
C1067 N1065 1.375 . S
C1067 C1066 1.338 . S
C1067 H1071 0.931 . S
C1068 N1065 1.313 . S
C1068 N1069 1.344 . S
C1068 H1072 0.930 . S
N1069 C1066 1.377 . S
N1069 C1068 1.344 . S
O1070 Co1062 2.055 . S
O1070 C1074 1.253 . S
H1071 C1067 0.931 . S
H1072 C1068 0.930 . S
O1073 Co1062 2.039 . S
O1073 C1063 1.265 . S
C1074 O1070 1.253 . S
C1074 O1075 1.227 . S
O1075 C1074 1.227 . S
N1076 Co1062 2.140 . S
N1076 C1079 1.346 . S
N1076 C1080 1.345 . S
C1077 C1078 1.387 . S
C1077 C1081 1.391 . S
C1078 C1077 1.387 . S
C1078 C1079 1.369 . S
C1078 H1087 0.929 . S
C1079 N1076 1.346 . S
C1079 C1078 1.369 . S
C1079 H1082 0.928 . S
C1080 N1076 1.345 . S
C1080 C1081 1.371 . S
C1080 H1083 0.931 . S
C1081 C1077 1.391 . S
C1081 C1080 1.371 . S
C1081 H1088 0.930 . S
H1082 C1079 0.928 . S
H1083 C1080 0.931 . S
H1084 C1060 0.930 . S
H1085 C1057 0.930 . S
H1086 C1066 0.930 . S
H1087 C1078 0.929 . S
H1088 C1081 0.930 . S
C1089 C1090 1.351 . S
C1089 N1092 1.368 . S
C1089 H1094 0.931 . S
C1090 C1089 1.351 . S
C1090 N1091 1.373 . S
C1090 H1118 0.930 . S
N1091 C1090 1.373 . S
N1091 C1093 1.340 . S
N1092 C1089 1.368 . S
N1092 C1093 1.321 . S
N1092 Co1095 2.135 . S
C1093 N1091 1.340 . S
C1093 N1092 1.321 . S
C1093 H1117 0.930 . S
H1094 C1089 0.931 . S
Co1095 N1092 2.135 . S
Co1095 N1098 2.121 1_545 S
Co1095 O1103 2.055 . S
Co1095 O1106 2.039 1_545 S
Co1095 N1109 2.140 . S
C1096 O1097 1.227 . S
C1096 O1106 1.265 . S
O1097 C1096 1.227 . S
N1098 Co1095 2.121 1_565 S
N1098 C1100 1.375 . S
N1098 C1101 1.313 . S
C1099 C1100 1.338 . S
C1099 N1102 1.377 . S
C1099 H1119 0.930 . S
C1100 N1098 1.375 . S
C1100 C1099 1.338 . S
C1100 H1104 0.931 . S
C1101 N1098 1.313 . S
C1101 N1102 1.344 . S
C1101 H1105 0.930 1_565 S
N1102 C1099 1.377 . S
N1102 C1101 1.344 . S
O1103 Co1095 2.055 . S
O1103 C1107 1.253 . S
H1104 C1100 0.931 . S
H1105 C1101 0.930 1_545 S
O1106 Co1095 2.039 1_565 S
O1106 C1096 1.265 . S
C1107 O1103 1.253 . S
C1107 O1108 1.227 . S
O1108 C1107 1.227 . S
N1109 Co1095 2.140 . S
N1109 C1112 1.346 . S
N1109 C1113 1.345 . S
C1110 C1111 1.387 . S
C1110 C1114 1.391 . S
C1111 C1110 1.387 . S
C1111 C1112 1.369 . S
C1111 H1120 0.929 . S
C1112 N1109 1.346 . S
C1112 C1111 1.369 . S
C1112 H1115 0.928 . S
C1113 N1109 1.345 . S
C1113 C1114 1.371 . S
C1113 H1116 0.931 . S
C1114 C1110 1.391 . S
C1114 C1113 1.371 . S
C1114 H1121 0.930 . S
H1115 C1112 0.928 . S
H1116 C1113 0.931 . S
H1117 C1093 0.930 . S
H1118 C1090 0.930 . S
H1119 C1099 0.930 . S
H1120 C1111 0.929 . S
H1121 C1114 0.930 . S
C1122 C1123 1.351 . S
C1122 N1125 1.368 . S
C1122 H1127 0.931 . S
C1123 C1122 1.351 . S
C1123 N1124 1.373 . S
C1123 H1151 0.930 . S
N1124 C1123 1.373 . S
N1124 C1126 1.340 . S
N1125 C1122 1.368 . S
N1125 C1126 1.321 . S
N1125 Co1128 2.135 . S
C1126 N1124 1.340 . S
C1126 N1125 1.321 . S
C1126 H1150 0.930 . S
H1127 C1122 0.931 . S
Co1128 N1125 2.135 . S
Co1128 N1131 2.121 . S
Co1128 O1136 2.055 . S
Co1128 O1139 2.039 . S
Co1128 N1142 2.140 . S
C1129 O1130 1.227 . S
C1129 O1139 1.265 . S
O1130 C1129 1.227 . S
N1131 Co1128 2.121 . S
N1131 C1133 1.375 . S
N1131 C1134 1.313 . S
C1132 C1133 1.338 . S
C1132 N1135 1.377 . S
C1132 H1152 0.930 . S
C1133 N1131 1.375 . S
C1133 C1132 1.338 . S
C1133 H1137 0.931 . S
C1134 N1131 1.313 . S
C1134 N1135 1.344 . S
C1134 H1138 0.930 . S
N1135 C1132 1.377 . S
N1135 C1134 1.344 . S
O1136 Co1128 2.055 . S
O1136 C1140 1.253 . S
H1137 C1133 0.931 . S
H1138 C1134 0.930 . S
O1139 Co1128 2.039 . S
O1139 C1129 1.265 . S
C1140 O1136 1.253 . S
C1140 O1141 1.227 . S
O1141 C1140 1.227 . S
N1142 Co1128 2.140 . S
N1142 C1145 1.346 . S
N1142 C1146 1.345 . S
C1143 C1144 1.387 . S
C1143 C1147 1.391 . S
C1144 C1143 1.387 . S
C1144 C1145 1.369 . S
C1144 H1153 0.929 . S
C1145 N1142 1.346 . S
C1145 C1144 1.369 . S
C1145 H1148 0.928 . S
C1146 N1142 1.345 . S
C1146 C1147 1.371 . S
C1146 H1149 0.931 . S
C1147 C1143 1.391 . S
C1147 C1146 1.371 . S
C1147 H1154 0.930 . S
H1148 C1145 0.928 . S
H1149 C1146 0.931 . S
H1150 C1126 0.930 . S
H1151 C1123 0.930 . S
H1152 C1132 0.930 . S
H1153 C1144 0.929 . S
H1154 C1147 0.930 . S
C1155 C1156 1.351 . S
C1155 N1158 1.368 . S
C1155 H1160 0.931 . S
C1156 C1155 1.351 . S
C1156 N1157 1.373 . S
C1156 H1184 0.930 . S
N1157 C1156 1.373 . S
N1157 C1159 1.340 . S
N1158 C1155 1.368 . S
N1158 C1159 1.321 . S
N1158 Co1161 2.135 . S
C1159 N1157 1.340 . S
C1159 N1158 1.321 . S
C1159 H1183 0.930 . S
H1160 C1155 0.931 . S
Co1161 N1158 2.135 . S
Co1161 N1164 2.121 . S
Co1161 O1169 2.055 . S
Co1161 O1172 2.039 . S
Co1161 N1175 2.140 . S
C1162 O1163 1.227 . S
C1162 O1172 1.265 . S
O1163 C1162 1.227 . S
N1164 Co1161 2.121 . S
N1164 C1166 1.375 . S
N1164 C1167 1.313 . S
C1165 C1166 1.338 . S
C1165 N1168 1.377 . S
C1165 H1185 0.930 . S
C1166 N1164 1.375 . S
C1166 C1165 1.338 . S
C1166 H1170 0.931 . S
C1167 N1164 1.313 . S
C1167 N1168 1.344 . S
C1167 H1171 0.930 . S
N1168 C1165 1.377 . S
N1168 C1167 1.344 . S
O1169 Co1161 2.055 . S
O1169 C1173 1.253 . S
H1170 C1166 0.931 . S
H1171 C1167 0.930 . S
O1172 Co1161 2.039 . S
O1172 C1162 1.265 . S
C1173 O1169 1.253 . S
C1173 O1174 1.227 . S
O1174 C1173 1.227 . S
N1175 Co1161 2.140 . S
N1175 C1178 1.346 . S
N1175 C1179 1.345 . S
C1176 C1177 1.387 . S
C1176 C1180 1.391 . S
C1177 C1176 1.387 . S
C1177 C1178 1.369 . S
C1177 H1186 0.929 . S
C1178 N1175 1.346 . S
C1178 C1177 1.369 . S
C1178 H1181 0.928 . S
C1179 N1175 1.345 . S
C1179 C1180 1.371 . S
C1179 H1182 0.931 . S
C1180 C1176 1.391 . S
C1180 C1179 1.371 . S
C1180 H1187 0.930 . S
H1181 C1178 0.928 . S
H1182 C1179 0.931 . S
H1183 C1159 0.930 . S
H1184 C1156 0.930 . S
H1185 C1165 0.930 . S
H1186 C1177 0.929 . S
H1187 C1180 0.930 . S
C1188 C1189 1.351 . S
C1188 N1191 1.368 . S
C1188 H1193 0.931 . S
C1189 C1188 1.351 . S
C1189 N1190 1.373 . S
C1189 H1217 0.930 . S
N1190 C1189 1.373 . S
N1190 C1192 1.340 . S
N1191 C1188 1.368 . S
N1191 C1192 1.321 . S
N1191 Co1194 2.135 . S
C1192 N1190 1.340 . S
C1192 N1191 1.321 . S
C1192 H1216 0.930 . S
H1193 C1188 0.931 . S
Co1194 N1191 2.135 . S
Co1194 N1197 2.121 . S
Co1194 O1202 2.055 . S
Co1194 O1205 2.039 . S
Co1194 N1208 2.140 . S
C1195 O1196 1.227 . S
C1195 O1205 1.265 . S
O1196 C1195 1.227 . S
N1197 Co1194 2.121 . S
N1197 C1199 1.375 . S
N1197 C1200 1.313 . S
C1198 C1199 1.338 . S
C1198 N1201 1.377 . S
C1198 H1218 0.930 . S
C1199 N1197 1.375 . S
C1199 C1198 1.338 . S
C1199 H1203 0.931 . S
C1200 N1197 1.313 . S
C1200 N1201 1.344 . S
C1200 H1204 0.930 . S
N1201 C1198 1.377 . S
N1201 C1200 1.344 . S
O1202 Co1194 2.055 . S
O1202 C1206 1.253 . S
H1203 C1199 0.931 . S
H1204 C1200 0.930 . S
O1205 Co1194 2.039 . S
O1205 C1195 1.265 . S
C1206 O1202 1.253 . S
C1206 O1207 1.227 . S
O1207 C1206 1.227 . S
N1208 Co1194 2.140 . S
N1208 C1211 1.346 . S
N1208 C1212 1.345 . S
C1209 C1210 1.387 . S
C1209 C1213 1.391 . S
C1210 C1209 1.387 . S
C1210 C1211 1.369 . S
C1210 H1219 0.929 . S
C1211 N1208 1.346 . S
C1211 C1210 1.369 . S
C1211 H1214 0.928 . S
C1212 N1208 1.345 . S
C1212 C1213 1.371 . S
C1212 H1215 0.931 . S
C1213 C1209 1.391 . S
C1213 C1212 1.371 . S
C1213 H1220 0.930 . S
H1214 C1211 0.928 . S
H1215 C1212 0.931 . S
H1216 C1192 0.930 . S
H1217 C1189 0.930 . S
H1218 C1198 0.930 . S
H1219 C1210 0.929 . S
H1220 C1213 0.930 . S
C1221 C1222 1.351 . S
C1221 N1224 1.368 . S
C1221 H1226 0.931 . S
C1222 C1221 1.351 . S
C1222 N1223 1.373 . S
C1222 H1250 0.930 . S
N1223 C1222 1.373 . S
N1223 C1225 1.340 . S
N1224 C1221 1.368 . S
N1224 C1225 1.321 . S
N1224 Co1227 2.135 . S
C1225 N1223 1.340 . S
C1225 N1224 1.321 . S
C1225 H1249 0.930 . S
H1226 C1221 0.931 . S
Co1227 N1224 2.135 . S
Co1227 N1230 2.121 1_545 S
Co1227 O1235 2.055 . S
Co1227 O1238 2.039 1_545 S
Co1227 N1241 2.140 . S
C1228 O1229 1.227 . S
C1228 O1238 1.265 . S
O1229 C1228 1.227 . S
N1230 Co1227 2.121 1_565 S
N1230 C1232 1.375 . S
N1230 C1233 1.313 . S
C1231 C1232 1.338 . S
C1231 N1234 1.377 . S
C1231 H1251 0.930 . S
C1232 N1230 1.375 . S
C1232 C1231 1.338 . S
C1232 H1236 0.931 . S
C1233 N1230 1.313 . S
C1233 N1234 1.344 . S
C1233 H1237 0.930 1_565 S
N1234 C1231 1.377 . S
N1234 C1233 1.344 . S
O1235 Co1227 2.055 . S
O1235 C1239 1.253 . S
H1236 C1232 0.931 . S
H1237 C1233 0.930 1_545 S
O1238 Co1227 2.039 1_565 S
O1238 C1228 1.265 . S
C1239 O1235 1.253 . S
C1239 O1240 1.227 . S
O1240 C1239 1.227 . S
N1241 Co1227 2.140 . S
N1241 C1244 1.346 . S
N1241 C1245 1.345 . S
C1242 C1243 1.387 . S
C1242 C1246 1.391 . S
C1243 C1242 1.387 . S
C1243 C1244 1.369 . S
C1243 H1252 0.929 . S
C1244 N1241 1.346 . S
C1244 C1243 1.369 . S
C1244 H1247 0.928 . S
C1245 N1241 1.345 . S
C1245 C1246 1.371 . S
C1245 H1248 0.931 . S
C1246 C1242 1.391 . S
C1246 C1245 1.371 . S
C1246 H1253 0.930 . S
H1247 C1244 0.928 . S
H1248 C1245 0.931 . S
H1249 C1225 0.930 . S
H1250 C1222 0.930 . S
H1251 C1231 0.930 . S
H1252 C1243 0.929 . S
H1253 C1246 0.930 . S
C1254 C1255 1.351 . S
C1254 N1257 1.368 . S
C1254 H1259 0.931 . S
C1255 C1254 1.351 . S
C1255 N1256 1.373 . S
C1255 H1283 0.930 . S
N1256 C1255 1.373 . S
N1256 C1258 1.340 . S
N1257 C1254 1.368 . S
N1257 C1258 1.321 . S
N1257 Co1260 2.135 . S
C1258 N1256 1.340 . S
C1258 N1257 1.321 . S
C1258 H1282 0.930 . S
H1259 C1254 0.931 . S
Co1260 N1257 2.135 . S
Co1260 N1263 2.121 . S
Co1260 O1268 2.055 . S
Co1260 O1271 2.039 . S
Co1260 N1274 2.140 . S
C1261 O1262 1.227 . S
C1261 O1271 1.265 . S
O1262 C1261 1.227 . S
N1263 Co1260 2.121 . S
N1263 C1265 1.375 . S
N1263 C1266 1.313 . S
C1264 C1265 1.338 . S
C1264 N1267 1.377 . S
C1264 H1284 0.930 . S
C1265 N1263 1.375 . S
C1265 C1264 1.338 . S
C1265 H1269 0.931 . S
C1266 N1263 1.313 . S
C1266 N1267 1.344 . S
C1266 H1270 0.930 . S
N1267 C1264 1.377 . S
N1267 C1266 1.344 . S
O1268 Co1260 2.055 . S
O1268 C1272 1.253 . S
H1269 C1265 0.931 . S
H1270 C1266 0.930 . S
O1271 Co1260 2.039 . S
O1271 C1261 1.265 . S
C1272 O1268 1.253 . S
C1272 O1273 1.227 . S
O1273 C1272 1.227 . S
N1274 Co1260 2.140 . S
N1274 C1277 1.346 . S
N1274 C1278 1.345 . S
C1275 C1276 1.387 . S
C1275 C1279 1.391 . S
C1276 C1275 1.387 . S
C1276 C1277 1.369 . S
C1276 H1285 0.929 . S
C1277 N1274 1.346 . S
C1277 C1276 1.369 . S
C1277 H1280 0.928 . S
C1278 N1274 1.345 . S
C1278 C1279 1.371 . S
C1278 H1281 0.931 . S
C1279 C1275 1.391 . S
C1279 C1278 1.371 . S
C1279 H1286 0.930 . S
H1280 C1277 0.928 . S
H1281 C1278 0.931 . S
H1282 C1258 0.930 . S
H1283 C1255 0.930 . S
H1284 C1264 0.930 . S
H1285 C1276 0.929 . S
H1286 C1279 0.930 . S
C1287 C1288 1.351 . S
C1287 N1290 1.368 . S
C1287 H1292 0.931 . S
C1288 C1287 1.351 . S
C1288 N1289 1.373 . S
C1288 H1316 0.930 . S
N1289 C1288 1.373 . S
N1289 C1291 1.340 . S
N1290 C1287 1.368 . S
N1290 C1291 1.321 . S
N1290 Co1293 2.135 . S
C1291 N1289 1.340 . S
C1291 N1290 1.321 . S
C1291 H1315 0.930 . S
H1292 C1287 0.931 . S
Co1293 N1290 2.135 . S
Co1293 N1296 2.121 . S
Co1293 O1301 2.055 . S
Co1293 O1304 2.039 . S
Co1293 N1307 2.140 . S
C1294 O1295 1.227 . S
C1294 O1304 1.265 . S
O1295 C1294 1.227 . S
N1296 Co1293 2.121 . S
N1296 C1298 1.375 . S
N1296 C1299 1.313 . S
C1297 C1298 1.338 . S
C1297 N1300 1.377 . S
C1297 H1317 0.930 . S
C1298 N1296 1.375 . S
C1298 C1297 1.338 . S
C1298 H1302 0.931 . S
C1299 N1296 1.313 . S
C1299 N1300 1.344 . S
C1299 H1303 0.930 . S
N1300 C1297 1.377 . S
N1300 C1299 1.344 . S
O1301 Co1293 2.055 . S
O1301 C1305 1.253 . S
H1302 C1298 0.931 . S
H1303 C1299 0.930 . S
O1304 Co1293 2.039 . S
O1304 C1294 1.265 . S
C1305 O1301 1.253 . S
C1305 O1306 1.227 . S
O1306 C1305 1.227 . S
N1307 Co1293 2.140 . S
N1307 C1310 1.346 . S
N1307 C1311 1.345 . S
C1308 C1309 1.387 . S
C1308 C1312 1.391 . S
C1309 C1308 1.387 . S
C1309 C1310 1.369 . S
C1309 H1318 0.929 . S
C1310 N1307 1.346 . S
C1310 C1309 1.369 . S
C1310 H1313 0.928 . S
C1311 N1307 1.345 . S
C1311 C1312 1.371 . S
C1311 H1314 0.931 . S
C1312 C1308 1.391 . S
C1312 C1311 1.371 . S
C1312 H1319 0.930 . S
H1313 C1310 0.928 . S
H1314 C1311 0.931 . S
H1315 C1291 0.930 . S
H1316 C1288 0.930 . S
H1317 C1297 0.930 . S
H1318 C1309 0.929 . S
H1319 C1312 0.930 . S
C1320 C1321 1.351 . S
C1320 N1323 1.368 . S
C1320 H1325 0.931 . S
C1321 C1320 1.351 . S
C1321 N1322 1.373 . S
C1321 H1349 0.930 . S
N1322 C1321 1.373 . S
N1322 C1324 1.340 . S
N1323 C1320 1.368 . S
N1323 C1324 1.321 . S
N1323 Co1326 2.135 . S
C1324 N1322 1.340 . S
C1324 N1323 1.321 . S
C1324 H1348 0.930 . S
H1325 C1320 0.931 . S
Co1326 N1323 2.135 . S
Co1326 N1329 2.121 . S
Co1326 O1334 2.055 . S
Co1326 O1337 2.039 . S
Co1326 N1340 2.140 . S
C1327 O1328 1.227 . S
C1327 O1337 1.265 . S
O1328 C1327 1.227 . S
N1329 Co1326 2.121 . S
N1329 C1331 1.375 . S
N1329 C1332 1.313 . S
C1330 C1331 1.338 . S
C1330 N1333 1.377 . S
C1330 H1350 0.930 . S
C1331 N1329 1.375 . S
C1331 C1330 1.338 . S
C1331 H1335 0.931 . S
C1332 N1329 1.313 . S
C1332 N1333 1.344 . S
C1332 H1336 0.930 . S
N1333 C1330 1.377 . S
N1333 C1332 1.344 . S
O1334 Co1326 2.055 . S
O1334 C1338 1.253 . S
H1335 C1331 0.931 . S
H1336 C1332 0.930 . S
O1337 Co1326 2.039 . S
O1337 C1327 1.265 . S
C1338 O1334 1.253 . S
C1338 O1339 1.227 . S
O1339 C1338 1.227 . S
N1340 Co1326 2.140 . S
N1340 C1343 1.346 . S
N1340 C1344 1.345 . S
C1341 C1342 1.387 . S
C1341 C1345 1.391 . S
C1342 C1341 1.387 . S
C1342 C1343 1.369 . S
C1342 H1351 0.929 . S
C1343 N1340 1.346 . S
C1343 C1342 1.369 . S
C1343 H1346 0.928 . S
C1344 N1340 1.345 . S
C1344 C1345 1.371 . S
C1344 H1347 0.931 . S
C1345 C1341 1.391 . S
C1345 C1344 1.371 . S
C1345 H1352 0.930 . S
H1346 C1343 0.928 . S
H1347 C1344 0.931 . S
H1348 C1324 0.930 . S
H1349 C1321 0.930 . S
H1350 C1330 0.930 . S
H1351 C1342 0.929 . S
H1352 C1345 0.930 . S
C1353 C1354 1.351 . S
C1353 N1356 1.368 . S
C1353 H1358 0.931 . S
C1354 C1353 1.351 . S
C1354 N1355 1.373 . S
C1354 H1382 0.930 . S
N1355 C1354 1.373 . S
N1355 C1357 1.340 . S
N1356 C1353 1.368 . S
N1356 C1357 1.321 . S
N1356 Co1359 2.135 . S
C1357 N1355 1.340 . S
C1357 N1356 1.321 . S
C1357 H1381 0.930 . S
H1358 C1353 0.931 . S
Co1359 N1356 2.135 . S
Co1359 N1362 2.121 . S
Co1359 O1367 2.055 . S
Co1359 O1370 2.039 . S
Co1359 N1373 2.140 . S
C1360 O1361 1.227 . S
C1360 O1370 1.265 . S
O1361 C1360 1.227 . S
N1362 Co1359 2.121 . S
N1362 C1364 1.375 . S
N1362 C1365 1.313 . S
C1363 C1364 1.338 . S
C1363 N1366 1.377 . S
C1363 H1383 0.930 . S
C1364 N1362 1.375 . S
C1364 C1363 1.338 . S
C1364 H1368 0.931 . S
C1365 N1362 1.313 . S
C1365 N1366 1.344 . S
C1365 H1369 0.930 . S
N1366 C1363 1.377 . S
N1366 C1365 1.344 . S
O1367 Co1359 2.055 . S
O1367 C1371 1.253 . S
H1368 C1364 0.931 . S
H1369 C1365 0.930 . S
O1370 Co1359 2.039 . S
O1370 C1360 1.265 . S
C1371 O1367 1.253 . S
C1371 O1372 1.227 . S
O1372 C1371 1.227 . S
N1373 Co1359 2.140 . S
N1373 C1376 1.346 . S
N1373 C1377 1.345 . S
C1374 C1375 1.387 . S
C1374 C1378 1.391 . S
C1375 C1374 1.387 . S
C1375 C1376 1.369 . S
C1375 H1384 0.929 . S
C1376 N1373 1.346 . S
C1376 C1375 1.369 . S
C1376 H1379 0.928 . S
C1377 N1373 1.345 . S
C1377 C1378 1.371 . S
C1377 H1380 0.931 . S
C1378 C1374 1.391 . S
C1378 C1377 1.371 . S
C1378 H1385 0.930 . S
H1379 C1376 0.928 . S
H1380 C1377 0.931 . S
H1381 C1357 0.930 . S
H1382 C1354 0.930 . S
H1383 C1363 0.930 . S
H1384 C1375 0.929 . S
H1385 C1378 0.930 . S
C1386 C1387 1.351 . S
C1386 N1389 1.368 . S
C1386 H1391 0.931 . S
C1387 C1386 1.351 . S
C1387 N1388 1.373 . S
C1387 H1415 0.930 . S
N1388 C1387 1.373 . S
N1388 C1390 1.340 . S
N1389 C1386 1.368 . S
N1389 C1390 1.321 . S
N1389 Co1392 2.135 . S
C1390 N1388 1.340 . S
C1390 N1389 1.321 . S
C1390 H1414 0.930 . S
H1391 C1386 0.931 . S
Co1392 N1389 2.135 . S
Co1392 N1395 2.121 . S
Co1392 O1400 2.055 . S
Co1392 O1403 2.039 . S
Co1392 N1406 2.140 . S
C1393 O1394 1.227 . S
C1393 O1403 1.265 . S
O1394 C1393 1.227 . S
N1395 Co1392 2.121 . S
N1395 C1397 1.375 . S
N1395 C1398 1.313 . S
C1396 C1397 1.338 . S
C1396 N1399 1.377 . S
C1396 H1416 0.930 . S
C1397 N1395 1.375 . S
C1397 C1396 1.338 . S
C1397 H1401 0.931 . S
C1398 N1395 1.313 . S
C1398 N1399 1.344 . S
C1398 H1402 0.930 . S
N1399 C1396 1.377 . S
N1399 C1398 1.344 . S
O1400 Co1392 2.055 . S
O1400 C1404 1.253 . S
H1401 C1397 0.931 . S
H1402 C1398 0.930 . S
O1403 Co1392 2.039 . S
O1403 C1393 1.265 . S
C1404 O1400 1.253 . S
C1404 O1405 1.227 . S
O1405 C1404 1.227 . S
N1406 Co1392 2.140 . S
N1406 C1409 1.346 . S
N1406 C1410 1.345 . S
C1407 C1408 1.387 . S
C1407 C1411 1.391 . S
C1408 C1407 1.387 . S
C1408 C1409 1.369 . S
C1408 H1417 0.929 . S
C1409 N1406 1.346 . S
C1409 C1408 1.369 . S
C1409 H1412 0.928 . S
C1410 N1406 1.345 . S
C1410 C1411 1.371 . S
C1410 H1413 0.931 . S
C1411 C1407 1.391 . S
C1411 C1410 1.371 . S
C1411 H1418 0.930 . S
H1412 C1409 0.928 . S
H1413 C1410 0.931 . S
H1414 C1390 0.930 . S
H1415 C1387 0.930 . S
H1416 C1396 0.930 . S
H1417 C1408 0.929 . S
H1418 C1411 0.930 . S
C1419 C1420 1.351 . S
C1419 N1422 1.368 . S
C1419 H1424 0.931 . S
C1420 C1419 1.351 . S
C1420 N1421 1.373 . S
C1420 H1448 0.930 . S
N1421 C1420 1.373 . S
N1421 C1423 1.340 . S
N1422 C1419 1.368 . S
N1422 C1423 1.321 . S
N1422 Co1425 2.135 . S
C1423 N1421 1.340 . S
C1423 N1422 1.321 . S
C1423 H1447 0.930 . S
H1424 C1419 0.931 . S
Co1425 N1422 2.135 . S
Co1425 N1428 2.121 . S
Co1425 O1433 2.055 . S
Co1425 O1436 2.039 . S
Co1425 N1439 2.140 . S
C1426 O1427 1.227 . S
C1426 O1436 1.265 . S
O1427 C1426 1.227 . S
N1428 Co1425 2.121 . S
N1428 C1430 1.375 . S
N1428 C1431 1.313 . S
C1429 C1430 1.338 . S
C1429 N1432 1.377 . S
C1429 H1449 0.930 . S
C1430 N1428 1.375 . S
C1430 C1429 1.338 . S
C1430 H1434 0.931 . S
C1431 N1428 1.313 . S
C1431 N1432 1.344 . S
C1431 H1435 0.930 . S
N1432 C1429 1.377 . S
N1432 C1431 1.344 . S
O1433 Co1425 2.055 . S
O1433 C1437 1.253 . S
H1434 C1430 0.931 . S
H1435 C1431 0.930 . S
O1436 Co1425 2.039 . S
O1436 C1426 1.265 . S
C1437 O1433 1.253 . S
C1437 O1438 1.227 . S
O1438 C1437 1.227 . S
N1439 Co1425 2.140 . S
N1439 C1442 1.346 . S
N1439 C1443 1.345 . S
C1440 C1441 1.387 . S
C1440 C1444 1.391 . S
C1441 C1440 1.387 . S
C1441 C1442 1.369 . S
C1441 H1450 0.929 . S
C1442 N1439 1.346 . S
C1442 C1441 1.369 . S
C1442 H1445 0.928 . S
C1443 N1439 1.345 . S
C1443 C1444 1.371 . S
C1443 H1446 0.931 . S
C1444 C1440 1.391 . S
C1444 C1443 1.371 . S
C1444 H1451 0.930 . S
H1445 C1442 0.928 . S
H1446 C1443 0.931 . S
H1447 C1423 0.930 . S
H1448 C1420 0.930 . S
H1449 C1429 0.930 . S
H1450 C1441 0.929 . S
H1451 C1444 0.930 . S
C1452 C1453 1.351 . S
C1452 N1455 1.368 . S
C1452 H1457 0.931 . S
C1453 C1452 1.351 . S
C1453 N1454 1.373 . S
C1453 H1481 0.930 . S
N1454 C1453 1.373 . S
N1454 C1456 1.340 . S
N1455 C1452 1.368 . S
N1455 C1456 1.321 . S
N1455 Co1458 2.135 . S
C1456 N1454 1.340 . S
C1456 N1455 1.321 . S
C1456 H1480 0.930 . S
H1457 C1452 0.931 . S
Co1458 N1455 2.135 . S
Co1458 N1461 2.121 1_655 S
Co1458 O1466 2.055 . S
Co1458 O1469 2.039 1_655 S
Co1458 N1472 2.140 . S
C1459 O1460 1.227 . S
C1459 O1469 1.265 . S
O1460 C1459 1.227 . S
N1461 Co1458 2.121 1_455 S
N1461 C1463 1.375 . S
N1461 C1464 1.313 . S
C1462 C1463 1.338 . S
C1462 N1465 1.377 . S
C1462 H1482 0.930 . S
C1463 N1461 1.375 . S
C1463 C1462 1.338 . S
C1463 H1467 0.931 . S
C1464 N1461 1.313 . S
C1464 N1465 1.344 . S
C1464 H1468 0.930 1_455 S
N1465 C1462 1.377 . S
N1465 C1464 1.344 . S
O1466 Co1458 2.055 . S
O1466 C1470 1.253 . S
H1467 C1463 0.931 . S
H1468 C1464 0.930 1_655 S
O1469 Co1458 2.039 1_455 S
O1469 C1459 1.265 . S
C1470 O1466 1.253 . S
C1470 O1471 1.227 . S
O1471 C1470 1.227 . S
N1472 Co1458 2.140 . S
N1472 C1475 1.346 . S
N1472 C1476 1.345 . S
C1473 C1474 1.387 . S
C1473 C1477 1.391 . S
C1474 C1473 1.387 . S
C1474 C1475 1.369 . S
C1474 H1483 0.929 . S
C1475 N1472 1.346 . S
C1475 C1474 1.369 . S
C1475 H1478 0.928 . S
C1476 N1472 1.345 . S
C1476 C1477 1.371 . S
C1476 H1479 0.931 . S
C1477 C1473 1.391 . S
C1477 C1476 1.371 . S
C1477 H1484 0.930 . S
H1478 C1475 0.928 . S
H1479 C1476 0.931 . S
H1480 C1456 0.930 . S
H1481 C1453 0.930 . S
H1482 C1462 0.930 . S
H1483 C1474 0.929 . S
H1484 C1477 0.930 . S
C1485 C1486 1.351 . S
C1485 N1488 1.368 . S
C1485 H1490 0.931 . S
C1486 C1485 1.351 . S
C1486 N1487 1.373 . S
C1486 H1514 0.930 . S
N1487 C1486 1.373 . S
N1487 C1489 1.340 . S
N1488 C1485 1.368 . S
N1488 C1489 1.321 . S
N1488 Co1491 2.135 . S
C1489 N1487 1.340 . S
C1489 N1488 1.321 . S
C1489 H1513 0.930 . S
H1490 C1485 0.931 . S
Co1491 N1488 2.135 . S
Co1491 N1494 2.121 . S
Co1491 O1499 2.055 . S
Co1491 O1502 2.039 . S
Co1491 N1505 2.140 . S
C1492 O1493 1.227 . S
C1492 O1502 1.265 . S
O1493 C1492 1.227 . S
N1494 Co1491 2.121 . S
N1494 C1496 1.375 . S
N1494 C1497 1.313 . S
C1495 C1496 1.338 . S
C1495 N1498 1.377 . S
C1495 H1515 0.930 . S
C1496 N1494 1.375 . S
C1496 C1495 1.338 . S
C1496 H1500 0.931 . S
C1497 N1494 1.313 . S
C1497 N1498 1.344 . S
C1497 H1501 0.930 . S
N1498 C1495 1.377 . S
N1498 C1497 1.344 . S
O1499 Co1491 2.055 . S
O1499 C1503 1.253 . S
H1500 C1496 0.931 . S
H1501 C1497 0.930 . S
O1502 Co1491 2.039 . S
O1502 C1492 1.265 . S
C1503 O1499 1.253 . S
C1503 O1504 1.227 . S
O1504 C1503 1.227 . S
N1505 Co1491 2.140 . S
N1505 C1508 1.346 . S
N1505 C1509 1.345 . S
C1506 C1507 1.387 . S
C1506 C1510 1.391 . S
C1507 C1506 1.387 . S
C1507 C1508 1.369 . S
C1507 H1516 0.929 . S
C1508 N1505 1.346 . S
C1508 C1507 1.369 . S
C1508 H1511 0.928 . S
C1509 N1505 1.345 . S
C1509 C1510 1.371 . S
C1509 H1512 0.931 . S
C1510 C1506 1.391 . S
C1510 C1509 1.371 . S
C1510 H1517 0.930 . S
H1511 C1508 0.928 . S
H1512 C1509 0.931 . S
H1513 C1489 0.930 . S
H1514 C1486 0.930 . S
H1515 C1495 0.930 . S
H1516 C1507 0.929 . S
H1517 C1510 0.930 . S
C1518 C1519 1.351 . S
C1518 N1521 1.368 . S
C1518 H1523 0.931 . S
C1519 C1518 1.351 . S
C1519 N1520 1.373 . S
C1519 H1547 0.930 . S
N1520 C1519 1.373 . S
N1520 C1522 1.340 . S
N1521 C1518 1.368 . S
N1521 C1522 1.321 . S
N1521 Co1524 2.135 . S
C1522 N1520 1.340 . S
C1522 N1521 1.321 . S
C1522 H1546 0.930 . S
H1523 C1518 0.931 . S
Co1524 N1521 2.135 . S
Co1524 N1527 2.121 . S
Co1524 O1532 2.055 . S
Co1524 O1535 2.039 . S
Co1524 N1538 2.140 . S
C1525 O1526 1.227 . S
C1525 O1535 1.265 . S
O1526 C1525 1.227 . S
N1527 Co1524 2.121 . S
N1527 C1529 1.375 . S
N1527 C1530 1.313 . S
C1528 C1529 1.338 . S
C1528 N1531 1.377 . S
C1528 H1548 0.930 . S
C1529 N1527 1.375 . S
C1529 C1528 1.338 . S
C1529 H1533 0.931 . S
C1530 N1527 1.313 . S
C1530 N1531 1.344 . S
C1530 H1534 0.930 . S
N1531 C1528 1.377 . S
N1531 C1530 1.344 . S
O1532 Co1524 2.055 . S
O1532 C1536 1.253 . S
H1533 C1529 0.931 . S
H1534 C1530 0.930 . S
O1535 Co1524 2.039 . S
O1535 C1525 1.265 . S
C1536 O1532 1.253 . S
C1536 O1537 1.227 . S
O1537 C1536 1.227 . S
N1538 Co1524 2.140 . S
N1538 C1541 1.346 . S
N1538 C1542 1.345 . S
C1539 C1540 1.387 . S
C1539 C1543 1.391 . S
C1540 C1539 1.387 . S
C1540 C1541 1.369 . S
C1540 H1549 0.929 . S
C1541 N1538 1.346 . S
C1541 C1540 1.369 . S
C1541 H1544 0.928 . S
C1542 N1538 1.345 . S
C1542 C1543 1.371 . S
C1542 H1545 0.931 . S
C1543 C1539 1.391 . S
C1543 C1542 1.371 . S
C1543 H1550 0.930 . S
H1544 C1541 0.928 . S
H1545 C1542 0.931 . S
H1546 C1522 0.930 . S
H1547 C1519 0.930 . S
H1548 C1528 0.930 . S
H1549 C1540 0.929 . S
H1550 C1543 0.930 . S
C1551 C1552 1.351 . S
C1551 N1554 1.368 . S
C1551 H1556 0.931 . S
C1552 C1551 1.351 . S
C1552 N1553 1.373 . S
C1552 H1580 0.930 . S
N1553 C1552 1.373 . S
N1553 C1555 1.340 . S
N1554 C1551 1.368 . S
N1554 C1555 1.321 . S
N1554 Co1557 2.135 . S
C1555 N1553 1.340 . S
C1555 N1554 1.321 . S
C1555 H1579 0.930 . S
H1556 C1551 0.931 . S
Co1557 N1554 2.135 . S
Co1557 N1560 2.121 . S
Co1557 O1565 2.055 . S
Co1557 O1568 2.039 . S
Co1557 N1571 2.140 . S
C1558 O1559 1.227 . S
C1558 O1568 1.265 . S
O1559 C1558 1.227 . S
N1560 Co1557 2.121 . S
N1560 C1562 1.375 . S
N1560 C1563 1.313 . S
C1561 C1562 1.338 . S
C1561 N1564 1.377 . S
C1561 H1581 0.930 . S
C1562 N1560 1.375 . S
C1562 C1561 1.338 . S
C1562 H1566 0.931 . S
C1563 N1560 1.313 . S
C1563 N1564 1.344 . S
C1563 H1567 0.930 . S
N1564 C1561 1.377 . S
N1564 C1563 1.344 . S
O1565 Co1557 2.055 . S
O1565 C1569 1.253 . S
H1566 C1562 0.931 . S
H1567 C1563 0.930 . S
O1568 Co1557 2.039 . S
O1568 C1558 1.265 . S
C1569 O1565 1.253 . S
C1569 O1570 1.227 . S
O1570 C1569 1.227 . S
N1571 Co1557 2.140 . S
N1571 C1574 1.346 . S
N1571 C1575 1.345 . S
C1572 C1573 1.387 . S
C1572 C1576 1.391 . S
C1573 C1572 1.387 . S
C1573 C1574 1.369 . S
C1573 H1582 0.929 . S
C1574 N1571 1.346 . S
C1574 C1573 1.369 . S
C1574 H1577 0.928 . S
C1575 N1571 1.345 . S
C1575 C1576 1.371 . S
C1575 H1578 0.931 . S
C1576 C1572 1.391 . S
C1576 C1575 1.371 . S
C1576 H1583 0.930 . S
H1577 C1574 0.928 . S
H1578 C1575 0.931 . S
H1579 C1555 0.930 . S
H1580 C1552 0.930 . S
H1581 C1561 0.930 . S
H1582 C1573 0.929 . S
H1583 C1576 0.930 . S
C1584 C1585 1.387 . S
C1584 H1588 0.950 . S
C1584 C1593 1.390 . S
C1585 C1584 1.387 . S
C1585 C1587 1.387 . S
H1586 C1593 0.950 . S
C1587 C1585 1.387 . S
C1587 C1589 1.390 . S
C1587 H1591 0.950 . S
H1588 C1584 0.950 . S
C1589 C1587 1.390 . S
C1589 C1590 1.387 . S
C1589 H1592 0.950 . S
C1590 C1589 1.387 . S
C1590 C1593 1.387 . S
H1591 C1587 0.950 . S
H1592 C1589 0.950 . S
C1593 C1584 1.390 . S
C1593 H1586 0.950 . S
C1593 C1590 1.387 . S
C1594 C1595 1.387 . S
C1594 H1598 0.950 . S
C1594 C1603 1.390 . S
C1595 C1594 1.387 . S
C1595 C1597 1.387 . S
H1596 C1603 0.950 . S
C1597 C1595 1.387 . S
C1597 C1599 1.390 . S
C1597 H1601 0.950 . S
H1598 C1594 0.950 . S
C1599 C1597 1.390 . S
C1599 C1600 1.387 . S
C1599 H1602 0.950 . S
C1600 C1599 1.387 . S
C1600 C1603 1.387 . S
H1601 C1597 0.950 . S
H1602 C1599 0.950 . S
C1603 C1594 1.390 . S
C1603 H1596 0.950 . S
C1603 C1600 1.387 . S
C1604 C1605 1.387 . S
C1604 H1608 0.950 . S
C1604 C1613 1.390 . S
C1605 C1604 1.387 . S
C1605 C1607 1.387 . S
H1606 C1613 0.950 . S
C1607 C1605 1.387 . S
C1607 C1609 1.390 . S
C1607 H1611 0.950 . S
H1608 C1604 0.950 . S
C1609 C1607 1.390 . S
C1609 C1610 1.387 . S
C1609 H1612 0.950 . S
C1610 C1609 1.387 . S
C1610 C1613 1.387 . S
H1611 C1607 0.950 . S
H1612 C1609 0.950 . S
C1613 C1604 1.390 . S
C1613 H1606 0.950 . S
C1613 C1610 1.387 . S
C1614 C1615 1.387 . S
C1614 H1618 0.950 1_556 S
C1614 C1623 1.390 . S
C1615 C1614 1.387 . S
C1615 C1617 1.387 . S
H1616 C1623 0.950 . S
C1617 C1615 1.387 . S
C1617 C1619 1.390 . S
C1617 H1621 0.950 . S
H1618 C1614 0.950 1_554 S
C1619 C1617 1.390 . S
C1619 C1620 1.387 . S
C1619 H1622 0.950 . S
C1620 C1619 1.387 . S
C1620 C1623 1.387 . S
H1621 C1617 0.950 . S
H1622 C1619 0.950 . S
C1623 C1614 1.390 . S
C1623 H1616 0.950 . S
C1623 C1620 1.387 . S
C1624 C1625 1.387 . S
C1624 H1628 0.950 . S
C1624 C1633 1.390 . S
C1625 C1624 1.387 . S
C1625 C1627 1.387 . S
H1626 C1633 0.950 . S
C1627 C1625 1.387 . S
C1627 C1629 1.390 . S
C1627 H1631 0.950 . S
H1628 C1624 0.950 . S
C1629 C1627 1.390 . S
C1629 C1630 1.387 . S
C1629 H1632 0.950 . S
C1630 C1629 1.387 . S
C1630 C1633 1.387 . S
H1631 C1627 0.950 . S
H1632 C1629 0.950 . S
C1633 C1624 1.390 . S
C1633 H1626 0.950 . S
C1633 C1630 1.387 . S
C1634 C1635 1.387 . S
C1634 H1638 0.950 . S
C1634 C1643 1.390 . S
C1635 C1634 1.387 . S
C1635 C1637 1.387 . S
H1636 C1643 0.950 . S
C1637 C1635 1.387 . S
C1637 C1639 1.390 . S
C1637 H1641 0.950 . S
H1638 C1634 0.950 . S
C1639 C1637 1.390 . S
C1639 C1640 1.387 . S
C1639 H1642 0.950 . S
C1640 C1639 1.387 . S
C1640 C1643 1.387 . S
H1641 C1637 0.950 . S
H1642 C1639 0.950 . S
C1643 C1634 1.390 . S
C1643 H1636 0.950 . S
C1643 C1640 1.387 . S
C1644 C1645 1.387 . S
C1644 H1648 0.950 . S
C1644 C1653 1.390 . S
C1645 C1644 1.387 . S
C1645 C1647 1.387 . S
H1646 C1653 0.950 . S
C1647 C1645 1.387 . S
C1647 C1649 1.390 . S
C1647 H1651 0.950 . S
H1648 C1644 0.950 . S
C1649 C1647 1.390 . S
C1649 C1650 1.387 . S
C1649 H1652 0.950 . S
C1650 C1649 1.387 . S
C1650 C1653 1.387 . S
H1651 C1647 0.950 . S
H1652 C1649 0.950 . S
C1653 C1644 1.390 . S
C1653 H1646 0.950 . S
C1653 C1650 1.387 . S
C1654 C1655 1.387 . S
C1654 H1658 0.950 . S
C1654 C1663 1.390 . S
C1655 C1654 1.387 . S
C1655 C1657 1.387 . S
H1656 C1663 0.950 . S
C1657 C1655 1.387 . S
C1657 C1659 1.390 . S
C1657 H1661 0.950 1_554 S
H1658 C1654 0.950 . S
C1659 C1657 1.390 . S
C1659 C1660 1.387 . S
C1659 H1662 0.950 . S
C1660 C1659 1.387 . S
C1660 C1663 1.387 . S
H1661 C1657 0.950 1_556 S
H1662 C1659 0.950 . S
C1663 C1654 1.390 . S
C1663 H1656 0.950 . S
C1663 C1660 1.387 . S
C1664 C1665 1.387 . S
C1664 H1668 0.950 . S
C1664 C1673 1.390 . S
C1665 C1664 1.387 . S
C1665 C1667 1.387 . S
H1666 C1673 0.950 . S
C1667 C1665 1.387 . S
C1667 C1669 1.390 . S
C1667 H1671 0.950 . S
H1668 C1664 0.950 . S
C1669 C1667 1.390 . S
C1669 C1670 1.387 . S
C1669 H1672 0.950 . S
C1670 C1669 1.387 . S
C1670 C1673 1.387 . S
H1671 C1667 0.950 . S
H1672 C1669 0.950 . S
C1673 C1664 1.390 . S
C1673 H1666 0.950 . S
C1673 C1670 1.387 . S
C1674 C1675 1.387 . S
C1674 H1678 0.950 . S
C1674 C1683 1.390 . S
C1675 C1674 1.387 . S
C1675 C1677 1.387 . S
H1676 C1683 0.950 . S
C1677 C1675 1.387 . S
C1677 C1679 1.390 . S
C1677 H1681 0.950 . S
H1678 C1674 0.950 . S
C1679 C1677 1.390 . S
C1679 C1680 1.387 . S
C1679 H1682 0.950 . S
C1680 C1679 1.387 . S
C1680 C1683 1.387 . S
H1681 C1677 0.950 . S
H1682 C1679 0.950 . S
C1683 C1674 1.390 . S
C1683 H1676 0.950 . S
C1683 C1680 1.387 . S
C1684 C1685 1.387 . S
C1684 H1688 0.950 . S
C1684 C1693 1.390 . S
C1685 C1684 1.387 . S
C1685 C1687 1.387 . S
H1686 C1693 0.950 . S
C1687 C1685 1.387 . S
C1687 C1689 1.390 . S
C1687 H1691 0.950 . S
H1688 C1684 0.950 . S
C1689 C1687 1.390 . S
C1689 C1690 1.387 . S
C1689 H1692 0.950 . S
C1690 C1689 1.387 . S
C1690 C1693 1.387 . S
H1691 C1687 0.950 . S
H1692 C1689 0.950 . S
C1693 C1684 1.390 . S
C1693 H1686 0.950 . S
C1693 C1690 1.387 . S
C1694 C1695 1.387 . S
C1694 H1698 0.950 . S
C1694 C1703 1.390 . S
C1695 C1694 1.387 . S
C1695 C1697 1.387 . S
H1696 C1703 0.950 . S
C1697 C1695 1.387 . S
C1697 C1699 1.390 . S
C1697 H1701 0.950 1_545 S
H1698 C1694 0.950 . S
C1699 C1697 1.390 . S
C1699 C1700 1.387 . S
C1699 H1702 0.950 . S
C1700 C1699 1.387 . S
C1700 C1703 1.387 . S
H1701 C1697 0.950 1_565 S
H1702 C1699 0.950 . S
C1703 C1694 1.390 . S
C1703 H1696 0.950 . S
C1703 C1700 1.387 . S
C1704 C1705 1.387 . S
C1704 H1708 0.950 . S
C1704 C1713 1.390 . S
C1705 C1704 1.387 . S
C1705 C1707 1.387 . S
H1706 C1713 0.950 . S
C1707 C1705 1.387 . S
C1707 C1709 1.390 . S
C1707 H1711 0.950 . S
H1708 C1704 0.950 . S
C1709 C1707 1.390 . S
C1709 C1710 1.387 . S
C1709 H1712 0.950 . S
C1710 C1709 1.387 . S
C1710 C1713 1.387 . S
H1711 C1707 0.950 . S
H1712 C1709 0.950 . S
C1713 C1704 1.390 . S
C1713 H1706 0.950 . S
C1713 C1710 1.387 . S
C1714 C1715 1.387 . S
C1714 H1718 0.950 . S
C1714 C1723 1.390 . S
C1715 C1714 1.387 . S
C1715 C1717 1.387 . S
H1716 C1723 0.950 . S
C1717 C1715 1.387 . S
C1717 C1719 1.390 . S
C1717 H1721 0.950 . S
H1718 C1714 0.950 . S
C1719 C1717 1.390 . S
C1719 C1720 1.387 . S
C1719 H1722 0.950 . S
C1720 C1719 1.387 . S
C1720 C1723 1.387 . S
H1721 C1717 0.950 . S
H1722 C1719 0.950 . S
C1723 C1714 1.390 . S
C1723 H1716 0.950 . S
C1723 C1720 1.387 . S
C1724 C1725 1.387 . S
C1724 H1728 0.950 . S
C1724 C1733 1.390 . S
C1725 C1724 1.387 . S
C1725 C1727 1.387 . S
H1726 C1733 0.950 . S
C1727 C1725 1.387 . S
C1727 C1729 1.390 . S
C1727 H1731 0.950 . S
H1728 C1724 0.950 . S
C1729 C1727 1.390 . S
C1729 C1730 1.387 . S
C1729 H1732 0.950 . S
C1730 C1729 1.387 . S
C1730 C1733 1.387 . S
H1731 C1727 0.950 . S
H1732 C1729 0.950 . S
C1733 C1724 1.390 . S
C1733 H1726 0.950 . S
C1733 C1730 1.387 . S
C1734 C1735 1.387 . S
C1734 H1738 0.950 1_545 S
C1734 C1743 1.390 . S
C1735 C1734 1.387 . S
C1735 C1737 1.387 . S
H1736 C1743 0.950 . S
C1737 C1735 1.387 . S
C1737 C1739 1.390 . S
C1737 H1741 0.950 . S
H1738 C1734 0.950 1_565 S
C1739 C1737 1.390 . S
C1739 C1740 1.387 . S
C1739 H1742 0.950 . S
C1740 C1739 1.387 . S
C1740 C1743 1.387 . S
H1741 C1737 0.950 . S
H1742 C1739 0.950 . S
C1743 C1734 1.390 . S
C1743 H1736 0.950 . S
C1743 C1740 1.387 . S
C1744 C1745 1.387 . S
C1744 H1748 0.950 . S
C1744 C1753 1.390 . S
C1745 C1744 1.387 . S
C1745 C1747 1.387 . S
H1746 C1753 0.950 . S
C1747 C1745 1.387 . S
C1747 C1749 1.390 . S
C1747 H1751 0.950 . S
H1748 C1744 0.950 . S
C1749 C1747 1.390 . S
C1749 C1750 1.387 . S
C1749 H1752 0.950 . S
C1750 C1749 1.387 . S
C1750 C1753 1.387 . S
H1751 C1747 0.950 . S
H1752 C1749 0.950 . S
C1753 C1744 1.390 . S
C1753 H1746 0.950 . S
C1753 C1750 1.387 . S
C1754 C1755 1.387 . S
C1754 H1758 0.950 . S
C1754 C1763 1.390 . S
C1755 C1754 1.387 . S
C1755 C1757 1.387 . S
H1756 C1763 0.950 . S
C1757 C1755 1.387 . S
C1757 C1759 1.390 . S
C1757 H1761 0.950 . S
H1758 C1754 0.950 . S
C1759 C1757 1.390 . S
C1759 C1760 1.387 . S
C1759 H1762 0.950 . S
C1760 C1759 1.387 . S
C1760 C1763 1.387 . S
H1761 C1757 0.950 . S
H1762 C1759 0.950 . S
C1763 C1754 1.390 . S
C1763 H1756 0.950 . S
C1763 C1760 1.387 . S
C1764 C1765 1.387 . S
C1764 H1768 0.950 . S
C1764 C1773 1.390 . S
C1765 C1764 1.387 . S
C1765 C1767 1.387 . S
H1766 C1773 0.950 . S
C1767 C1765 1.387 . S
C1767 C1769 1.390 . S
C1767 H1771 0.950 . S
H1768 C1764 0.950 . S
C1769 C1767 1.390 . S
C1769 C1770 1.387 . S
C1769 H1772 0.950 . S
C1770 C1769 1.387 . S
C1770 C1773 1.387 . S
H1771 C1767 0.950 . S
H1772 C1769 0.950 . S
C1773 C1764 1.390 . S
C1773 H1766 0.950 . S
C1773 C1770 1.387 . S
C1774 C1775 1.387 . S
C1774 H1778 0.950 . S
C1774 C1783 1.390 . S
C1775 C1774 1.387 . S
C1775 C1777 1.387 . S
H1776 C1783 0.950 . S
C1777 C1775 1.387 . S
C1777 C1779 1.390 . S
C1777 H1781 0.950 . S
H1778 C1774 0.950 . S
C1779 C1777 1.390 . S
C1779 C1780 1.387 . S
C1779 H1782 0.950 . S
C1780 C1779 1.387 . S
C1780 C1783 1.387 . S
H1781 C1777 0.950 . S
H1782 C1779 0.950 . S
C1783 C1774 1.390 . S
C1783 H1776 0.950 . S
C1783 C1780 1.387 . S
C1784 C1785 1.387 . S
C1784 H1788 0.950 . S
C1784 C1793 1.390 . S
C1785 C1784 1.387 . S
C1785 C1787 1.387 . S
H1786 C1793 0.950 . S
C1787 C1785 1.387 . S
C1787 C1789 1.390 . S
C1787 H1791 0.950 . S
H1788 C1784 0.950 . S
C1789 C1787 1.390 . S
C1789 C1790 1.387 . S
C1789 H1792 0.950 . S
C1790 C1789 1.387 . S
C1790 C1793 1.387 . S
H1791 C1787 0.950 . S
H1792 C1789 0.950 . S
C1793 C1784 1.390 . S
C1793 H1786 0.950 . S
C1793 C1790 1.387 . S
C1794 C1795 1.387 . S
C1794 H1798 0.950 . S
C1794 C1803 1.390 . S
C1795 C1794 1.387 . S
C1795 C1797 1.387 . S
H1796 C1803 0.950 . S
C1797 C1795 1.387 . S
C1797 C1799 1.390 . S
C1797 H1801 0.950 . S
H1798 C1794 0.950 . S
C1799 C1797 1.390 . S
C1799 C1800 1.387 . S
C1799 H1802 0.950 . S
C1800 C1799 1.387 . S
C1800 C1803 1.387 . S
H1801 C1797 0.950 . S
H1802 C1799 0.950 . S
C1803 C1794 1.390 . S
C1803 H1796 0.950 . S
C1803 C1800 1.387 . S
C1804 C1805 1.387 . S
C1804 H1808 0.950 . S
C1804 C1813 1.390 . S
C1805 C1804 1.387 . S
C1805 C1807 1.387 . S
H1806 C1813 0.950 . S
C1807 C1805 1.387 . S
C1807 C1809 1.390 . S
C1807 H1811 0.950 . S
H1808 C1804 0.950 . S
C1809 C1807 1.390 . S
C1809 C1810 1.387 . S
C1809 H1812 0.950 . S
C1810 C1809 1.387 . S
C1810 C1813 1.387 . S
H1811 C1807 0.950 . S
H1812 C1809 0.950 . S
C1813 C1804 1.390 . S
C1813 H1806 0.950 . S
C1813 C1810 1.387 . S
C1814 C1815 1.387 . S
C1814 H1818 0.950 1_545 S
C1814 C1823 1.390 . S
C1815 C1814 1.387 . S
C1815 C1817 1.387 . S
H1816 C1823 0.950 . S
C1817 C1815 1.387 . S
C1817 C1819 1.390 . S
C1817 H1821 0.950 . S
H1818 C1814 0.950 1_565 S
C1819 C1817 1.390 . S
C1819 C1820 1.387 . S
C1819 H1822 0.950 . S
C1820 C1819 1.387 . S
C1820 C1823 1.387 . S
H1821 C1817 0.950 . S
H1822 C1819 0.950 . S
C1823 C1814 1.390 . S
C1823 H1816 0.950 . S
C1823 C1820 1.387 . S
C1824 C1825 1.387 . S
C1824 H1828 0.950 . S
C1824 C1833 1.390 . S
C1825 C1824 1.387 . S
C1825 C1827 1.387 . S
H1826 C1833 0.950 . S
C1827 C1825 1.387 . S
C1827 C1829 1.390 . S
C1827 H1831 0.950 . S
H1828 C1824 0.950 . S
C1829 C1827 1.390 . S
C1829 C1830 1.387 . S
C1829 H1832 0.950 . S
C1830 C1829 1.387 . S
C1830 C1833 1.387 . S
H1831 C1827 0.950 . S
H1832 C1829 0.950 . S
C1833 C1824 1.390 . S
C1833 H1826 0.950 . S
C1833 C1830 1.387 . S
C1834 C1835 1.387 . S
C1834 H1838 0.950 . S
C1834 C1843 1.390 . S
C1835 C1834 1.387 . S
C1835 C1837 1.387 . S
H1836 C1843 0.950 . S
C1837 C1835 1.387 . S
C1837 C1839 1.390 . S
C1837 H1841 0.950 . S
H1838 C1834 0.950 . S
C1839 C1837 1.390 . S
C1839 C1840 1.387 . S
C1839 H1842 0.950 . S
C1840 C1839 1.387 . S
C1840 C1843 1.387 . S
H1841 C1837 0.950 . S
H1842 C1839 0.950 . S
C1843 C1834 1.390 . S
C1843 H1836 0.950 . S
C1843 C1840 1.387 . S
C1844 C1845 1.387 . S
C1844 H1848 0.950 . S
C1844 C1853 1.390 . S
C1845 C1844 1.387 . S
C1845 C1847 1.387 . S
H1846 C1853 0.950 . S
C1847 C1845 1.387 . S
C1847 C1849 1.390 . S
C1847 H1851 0.950 . S
H1848 C1844 0.950 . S
C1849 C1847 1.390 . S
C1849 C1850 1.387 . S
C1849 H1852 0.950 . S
C1850 C1849 1.387 . S
C1850 C1853 1.387 . S
H1851 C1847 0.950 . S
H1852 C1849 0.950 . S
C1853 C1844 1.390 . S
C1853 H1846 0.950 . S
C1853 C1850 1.387 . S
C1854 C1855 1.387 . S
C1854 H1858 0.950 . S
C1854 C1863 1.390 . S
C1855 C1854 1.387 . S
C1855 C1857 1.387 . S
H1856 C1863 0.950 . S
C1857 C1855 1.387 . S
C1857 C1859 1.390 . S
C1857 H1861 0.950 . S
H1858 C1854 0.950 . S
C1859 C1857 1.390 . S
C1859 C1860 1.387 . S
C1859 H1862 0.950 . S
C1860 C1859 1.387 . S
C1860 C1863 1.387 . S
H1861 C1857 0.950 . S
H1862 C1859 0.950 . S
C1863 C1854 1.390 . S
C1863 H1856 0.950 . S
C1863 C1860 1.387 . S
C1864 C1865 1.387 . S
C1864 H1868 0.950 . S
C1864 C1873 1.390 . S
C1865 C1864 1.387 . S
C1865 C1867 1.387 . S
H1866 C1873 0.950 . S
C1867 C1865 1.387 . S
C1867 C1869 1.390 . S
C1867 H1871 0.950 . S
H1868 C1864 0.950 . S
C1869 C1867 1.390 . S
C1869 C1870 1.387 . S
C1869 H1872 0.950 . S
C1870 C1869 1.387 . S
C1870 C1873 1.387 . S
H1871 C1867 0.950 . S
H1872 C1869 0.950 . S
C1873 C1864 1.390 . S
C1873 H1866 0.950 . S
C1873 C1870 1.387 . S
C1874 C1875 1.387 . S
C1874 H1878 0.950 . S
C1874 C1883 1.390 . S
C1875 C1874 1.387 . S
C1875 C1877 1.387 . S
H1876 C1883 0.950 . S
C1877 C1875 1.387 . S
C1877 C1879 1.390 . S
C1877 H1881 0.950 . S
H1878 C1874 0.950 . S
C1879 C1877 1.390 . S
C1879 C1880 1.387 . S
C1879 H1882 0.950 . S
C1880 C1879 1.387 . S
C1880 C1883 1.387 . S
H1881 C1877 0.950 . S
H1882 C1879 0.950 . S
C1883 C1874 1.390 . S
C1883 H1876 0.950 . S
C1883 C1880 1.387 . S
C1884 C1885 1.387 . S
C1884 H1888 0.950 . S
C1884 C1893 1.390 . S
C1885 C1884 1.387 . S
C1885 C1887 1.387 . S
H1886 C1893 0.950 . S
C1887 C1885 1.387 . S
C1887 C1889 1.390 . S
C1887 H1891 0.950 . S
H1888 C1884 0.950 . S
C1889 C1887 1.390 . S
C1889 C1890 1.387 . S
C1889 H1892 0.950 . S
C1890 C1889 1.387 . S
C1890 C1893 1.387 . S
H1891 C1887 0.950 . S
H1892 C1889 0.950 . S
C1893 C1884 1.390 . S
C1893 H1886 0.950 . S
C1893 C1890 1.387 . S
C1894 C1895 1.387 . S
C1894 H1898 0.950 . S
C1894 C1903 1.390 . S
C1895 C1894 1.387 . S
C1895 C1897 1.387 . S
H1896 C1903 0.950 . S
C1897 C1895 1.387 . S
C1897 C1899 1.390 . S
C1897 H1901 0.950 . S
H1898 C1894 0.950 . S
C1899 C1897 1.390 . S
C1899 C1900 1.387 . S
C1899 H1902 0.950 . S
C1900 C1899 1.387 . S
C1900 C1903 1.387 . S
H1901 C1897 0.950 . S
H1902 C1899 0.950 . S
C1903 C1894 1.390 . S
C1903 H1896 0.950 . S
C1903 C1900 1.387 . S
C1904 C1905 1.387 . S
C1904 H1908 0.950 . S
C1904 C1913 1.390 . S
C1905 C1904 1.387 . S
C1905 C1907 1.387 . S
H1906 C1913 0.950 . S
C1907 C1905 1.387 . S
C1907 C1909 1.390 . S
C1907 H1911 0.950 . S
H1908 C1904 0.950 . S
C1909 C1907 1.390 . S
C1909 C1910 1.387 . S
C1909 H1912 0.950 . S
C1910 C1909 1.387 . S
C1910 C1913 1.387 . S
H1911 C1907 0.950 . S
H1912 C1909 0.950 . S
C1913 C1904 1.390 . S
C1913 H1906 0.950 . S
C1913 C1910 1.387 . S
C1914 C1915 1.387 . S
C1914 H1918 0.950 . S
C1914 C1923 1.390 . S
C1915 C1914 1.387 . S
C1915 C1917 1.387 . S
H1916 C1923 0.950 . S
C1917 C1915 1.387 . S
C1917 C1919 1.390 . S
C1917 H1921 0.950 . S
H1918 C1914 0.950 . S
C1919 C1917 1.390 . S
C1919 C1920 1.387 . S
C1919 H1922 0.950 1_565 S
C1920 C1919 1.387 . S
C1920 C1923 1.387 . S
H1921 C1917 0.950 . S
H1922 C1919 0.950 1_545 S
C1923 C1914 1.390 . S
C1923 H1916 0.950 . S
C1923 C1920 1.387 . S
C1924 C1925 1.387 . S
C1924 H1928 0.950 . S
C1924 C1933 1.390 . S
C1925 C1924 1.387 . S
C1925 C1927 1.387 . S
H1926 C1933 0.950 . S
C1927 C1925 1.387 . S
C1927 C1929 1.390 . S
C1927 H1931 0.950 . S
H1928 C1924 0.950 . S
C1929 C1927 1.390 . S
C1929 C1930 1.387 . S
C1929 H1932 0.950 . S
C1930 C1929 1.387 . S
C1930 C1933 1.387 . S
H1931 C1927 0.950 . S
H1932 C1929 0.950 . S
C1933 C1924 1.390 . S
C1933 H1926 0.950 . S
C1933 C1930 1.387 . S
C1934 C1935 1.387 . S
C1934 H1938 0.950 . S
C1934 C1943 1.390 . S
C1935 C1934 1.387 . S
C1935 C1937 1.387 . S
H1936 C1943 0.950 . S
C1937 C1935 1.387 . S
C1937 C1939 1.390 . S
C1937 H1941 0.950 . S
H1938 C1934 0.950 . S
C1939 C1937 1.390 . S
C1939 C1940 1.387 . S
C1939 H1942 0.950 . S
C1940 C1939 1.387 . S
C1940 C1943 1.387 . S
H1941 C1937 0.950 . S
H1942 C1939 0.950 . S
C1943 C1934 1.390 . S
C1943 H1936 0.950 . S
C1943 C1940 1.387 . S
C1944 C1945 1.387 . S
C1944 H1948 0.950 . S
C1944 C1953 1.390 . S
C1945 C1944 1.387 . S
C1945 C1947 1.387 . S
H1946 C1953 0.950 . S
C1947 C1945 1.387 . S
C1947 C1949 1.390 . S
C1947 H1951 0.950 . S
H1948 C1944 0.950 . S
C1949 C1947 1.390 . S
C1949 C1950 1.387 . S
C1949 H1952 0.950 . S
C1950 C1949 1.387 . S
C1950 C1953 1.387 . S
H1951 C1947 0.950 . S
H1952 C1949 0.950 . S
C1953 C1944 1.390 . S
C1953 H1946 0.950 . S
C1953 C1950 1.387 . S
C1954 C1955 1.387 . S
C1954 H1958 0.950 . S
C1954 C1963 1.390 . S
C1955 C1954 1.387 . S
C1955 C1957 1.387 . S
H1956 C1963 0.950 . S
C1957 C1955 1.387 . S
C1957 C1959 1.390 . S
C1957 H1961 0.950 . S
H1958 C1954 0.950 . S
C1959 C1957 1.390 . S
C1959 C1960 1.387 . S
C1959 H1962 0.950 . S
C1960 C1959 1.387 . S
C1960 C1963 1.387 . S
H1961 C1957 0.950 . S
H1962 C1959 0.950 . S
C1963 C1954 1.390 . S
C1963 H1956 0.950 . S
C1963 C1960 1.387 . S
C1964 C1965 1.387 . S
C1964 H1968 0.950 . S
C1964 C1973 1.390 . S
C1965 C1964 1.387 . S
C1965 C1967 1.387 . S
H1966 C1973 0.950 . S
C1967 C1965 1.387 . S
C1967 C1969 1.390 . S
C1967 H1971 0.950 . S
H1968 C1964 0.950 . S
C1969 C1967 1.390 . S
C1969 C1970 1.387 . S
C1969 H1972 0.950 . S
C1970 C1969 1.387 . S
C1970 C1973 1.387 . S
H1971 C1967 0.950 . S
H1972 C1969 0.950 . S
C1973 C1964 1.390 . S
C1973 H1966 0.950 . S
C1973 C1970 1.387 . S
C1974 C1975 1.387 . S
C1974 H1978 0.950 . S
C1974 C1983 1.390 . S
C1975 C1974 1.387 . S
C1975 C1977 1.387 . S
H1976 C1983 0.950 . S
C1977 C1975 1.387 . S
C1977 C1979 1.390 . S
C1977 H1981 0.950 . S
H1978 C1974 0.950 . S
C1979 C1977 1.390 . S
C1979 C1980 1.387 . S
C1979 H1982 0.950 . S
C1980 C1979 1.387 . S
C1980 C1983 1.387 . S
H1981 C1977 0.950 . S
H1982 C1979 0.950 . S
C1983 C1974 1.390 . S
C1983 H1976 0.950 . S
C1983 C1980 1.387 . S
C1984 C1985 1.387 . S
C1984 H1988 0.950 . S
C1984 C1993 1.390 . S
C1985 C1984 1.387 . S
C1985 C1987 1.387 . S
H1986 C1993 0.950 . S
C1987 C1985 1.387 . S
C1987 C1989 1.390 . S
C1987 H1991 0.950 . S
H1988 C1984 0.950 . S
C1989 C1987 1.390 . S
C1989 C1990 1.387 . S
C1989 H1992 0.950 . S
C1990 C1989 1.387 . S
C1990 C1993 1.387 . S
H1991 C1987 0.950 . S
H1992 C1989 0.950 . S
C1993 C1984 1.390 . S
C1993 H1986 0.950 . S
C1993 C1990 1.387 . S
C1994 C1995 1.387 . S
C1994 H1998 0.950 . S
C1994 C2003 1.390 . S
C1995 C1994 1.387 . S
C1995 C1997 1.387 . S
H1996 C2003 0.950 . S
C1997 C1995 1.387 . S
C1997 C1999 1.390 . S
C1997 H2001 0.950 . S
H1998 C1994 0.950 . S
C1999 C1997 1.390 . S
C1999 C2000 1.387 . S
C1999 H2002 0.950 . S
C2000 C1999 1.387 . S
C2000 C2003 1.387 . S
H2001 C1997 0.950 . S
H2002 C1999 0.950 . S
C2003 C1994 1.390 . S
C2003 H1996 0.950 . S
C2003 C2000 1.387 . S
C2004 C2005 1.387 . S
C2004 H2008 0.950 . S
C2004 C2013 1.390 . S
C2005 C2004 1.387 . S
C2005 C2007 1.387 . S
H2006 C2013 0.950 . S
C2007 C2005 1.387 . S
C2007 C2009 1.390 . S
C2007 H2011 0.950 . S
H2008 C2004 0.950 . S
C2009 C2007 1.390 . S
C2009 C2010 1.387 . S
C2009 H2012 0.950 . S
C2010 C2009 1.387 . S
C2010 C2013 1.387 . S
H2011 C2007 0.950 . S
H2012 C2009 0.950 . S
C2013 C2004 1.390 . S
C2013 H2006 0.950 . S
C2013 C2010 1.387 . S
C2014 C2015 1.387 . S
C2014 H2018 0.950 . S
C2014 C2023 1.390 . S
C2015 C2014 1.387 . S
C2015 C2017 1.387 . S
H2016 C2023 0.950 . S
C2017 C2015 1.387 . S
C2017 C2019 1.390 . S
C2017 H2021 0.950 . S
H2018 C2014 0.950 . S
C2019 C2017 1.390 . S
C2019 C2020 1.387 . S
C2019 H2022 0.950 . S
C2020 C2019 1.387 . S
C2020 C2023 1.387 . S
H2021 C2017 0.950 . S
H2022 C2019 0.950 . S
C2023 C2014 1.390 . S
C2023 H2016 0.950 . S
C2023 C2020 1.387 . S
C2024 C2025 1.387 . S
C2024 H2028 0.950 . S
C2024 C2033 1.390 . S
C2025 C2024 1.387 . S
C2025 C2027 1.387 . S
H2026 C2033 0.950 . S
C2027 C2025 1.387 . S
C2027 C2029 1.390 . S
C2027 H2031 0.950 . S
H2028 C2024 0.950 . S
C2029 C2027 1.390 . S
C2029 C2030 1.387 . S
C2029 H2032 0.950 . S
C2030 C2029 1.387 . S
C2030 C2033 1.387 . S
H2031 C2027 0.950 . S
H2032 C2029 0.950 . S
C2033 C2024 1.390 . S
C2033 H2026 0.950 . S
C2033 C2030 1.387 . S
C2034 C2035 1.387 . S
C2034 H2038 0.950 . S
C2034 C2043 1.390 . S
C2035 C2034 1.387 . S
C2035 C2037 1.387 . S
H2036 C2043 0.950 . S
C2037 C2035 1.387 . S
C2037 C2039 1.390 . S
C2037 H2041 0.950 . S
H2038 C2034 0.950 . S
C2039 C2037 1.390 . S
C2039 C2040 1.387 . S
C2039 H2042 0.950 . S
C2040 C2039 1.387 . S
C2040 C2043 1.387 . S
H2041 C2037 0.950 . S
H2042 C2039 0.950 . S
C2043 C2034 1.390 . S
C2043 H2036 0.950 . S
C2043 C2040 1.387 . S
C2044 C2045 1.387 . S
C2044 H2048 0.950 . S
C2044 C2053 1.390 . S
C2045 C2044 1.387 . S
C2045 C2047 1.387 . S
H2046 C2053 0.917 1_545 S
C2047 C2045 1.387 . S
C2047 C2049 1.390 . S
C2047 H2051 0.950 . S
H2048 C2044 0.950 . S
C2049 C2047 1.390 . S
C2049 C2050 1.387 . S
C2049 H2052 0.950 . S
C2050 C2049 1.387 . S
C2050 C2053 1.387 . S
H2051 C2047 0.950 . S
H2052 C2049 0.950 . S
C2053 C2044 1.390 . S
C2053 H2046 0.917 1_565 S
C2053 C2050 1.387 . S
C2054 C2055 1.387 . S
C2054 H2058 0.950 . S
C2054 C2063 1.390 . S
C2055 C2054 1.387 . S
C2055 C2057 1.387 . S
H2056 C2063 0.950 . S
C2057 C2055 1.387 . S
C2057 C2059 1.390 . S
C2057 H2061 0.950 . S
H2058 C2054 0.950 . S
C2059 C2057 1.390 . S
C2059 C2060 1.387 . S
C2059 H2062 0.950 . S
C2060 C2059 1.387 . S
C2060 C2063 1.387 . S
H2061 C2057 0.950 . S
H2062 C2059 0.950 . S
C2063 C2054 1.390 . S
C2063 H2056 0.950 . S
C2063 C2060 1.387 . S
C2064 C2065 1.387 . S
C2064 H2068 0.950 . S
C2064 C2073 1.390 1_455 S
C2065 C2064 1.387 . S
C2065 C2067 1.387 . S
H2066 C2073 0.950 . S
C2067 C2065 1.387 . S
C2067 C2069 1.390 1_455 S
C2067 H2071 0.950 . S
H2068 C2064 0.950 . S
C2069 C2067 1.390 1_655 S
C2069 C2070 1.387 . S
C2069 H2072 0.950 . S
C2070 C2069 1.387 . S
C2070 C2073 1.387 . S
H2071 C2067 0.950 . S
H2072 C2069 0.950 . S
C2073 C2064 1.390 1_655 S
C2073 H2066 0.950 . S
C2073 C2070 1.387 . S
C2074 C2075 1.387 . S
C2074 H2078 0.950 . S
C2074 C2083 1.390 . S
C2075 C2074 1.387 . S
C2075 C2077 1.387 . S
H2076 C2083 0.950 . S
C2077 C2075 1.387 . S
C2077 C2079 1.390 . S
C2077 H2081 0.950 1_554 S
H2078 C2074 0.950 . S
C2079 C2077 1.390 . S
C2079 C2080 1.387 . S
C2079 H2082 0.950 1_554 S
C2080 C2079 1.387 . S
C2080 C2083 1.387 . S
H2081 C2077 0.950 1_556 S
H2082 C2079 0.950 1_556 S
C2083 C2074 1.390 . S
C2083 H2076 0.950 . S
C2083 C2080 1.387 . S
C2084 C2085 1.387 . S
C2084 H2088 0.950 . S
C2084 C2093 1.390 1_655 S
C2085 C2084 1.387 . S
C2085 C2087 1.387 . S
H2086 C2093 0.950 . S
C2087 C2085 1.387 . S
C2087 C2089 1.390 1_655 S
C2087 H2091 0.950 . S
H2088 C2084 0.950 . S
C2089 C2087 1.390 1_455 S
C2089 C2090 1.387 . S
C2089 H2092 0.950 . S
C2090 C2089 1.387 . S
C2090 C2093 1.387 . S
H2091 C2087 0.950 . S
H2092 C2089 0.950 . S
C2093 C2084 1.390 1_455 S
C2093 H2086 0.950 . S
C2093 C2090 1.387 . S
C2094 C2095 1.387 . S
C2094 H2098 0.950 1_556 S
C2094 C2103 1.390 1_655 S
C2095 C2094 1.387 . S
C2095 C2097 1.387 . S
H2096 C2103 0.950 1_554 S
C2097 C2095 1.387 . S
C2097 C2099 1.390 1_655 S
C2097 H2101 0.950 . S
H2098 C2094 0.950 1_554 S
C2099 C2097 1.390 1_455 S
C2099 C2100 1.387 . S
C2099 H2102 0.950 . S
C2100 C2099 1.387 . S
C2100 C2103 1.387 . S
H2101 C2097 0.950 . S
H2102 C2099 0.950 . S
C2103 C2094 1.390 1_455 S
C2103 H2096 0.950 1_556 S
C2103 C2100 1.387 . S
C2104 C2105 1.387 . S
C2104 H2108 0.950 . S
C2104 C2113 1.390 1_565 S
C2105 C2104 1.387 . S
C2105 C2107 1.387 . S
H2106 C2113 0.950 . S
C2107 C2105 1.387 . S
C2107 C2109 1.390 1_565 S
C2107 H2111 0.950 . S
H2108 C2104 0.950 . S
C2109 C2107 1.390 1_545 S
C2109 C2110 1.387 . S
C2109 H2112 0.950 . S
C2110 C2109 1.387 . S
C2110 C2113 1.387 . S
H2111 C2107 0.950 . S
H2112 C2109 0.950 . S
C2113 C2104 1.390 1_545 S
C2113 H2106 0.950 . S
C2113 C2110 1.387 . S
C2114 C2115 1.387 . S
C2114 H2118 0.950 . S
C2114 C2123 1.390 1_556 S
C2115 C2114 1.387 . S
C2115 C2117 1.387 . S
H2116 C2123 0.950 . S
C2117 C2115 1.387 . S
C2117 C2119 1.390 1_556 S
C2117 H2121 0.950 . S
H2118 C2114 0.950 . S
C2119 C2117 1.390 1_554 S
C2119 C2120 1.387 . S
C2119 H2122 0.950 . S
C2120 C2119 1.387 . S
C2120 C2123 1.387 . S
H2121 C2117 0.950 . S
H2122 C2119 0.950 . S
C2123 C2114 1.390 1_554 S
C2123 H2116 0.950 . S
C2123 C2120 1.387 . S
C2124 C2125 1.387 . S
C2124 H2128 0.950 . S
C2124 C2133 1.390 . S
C2125 C2124 1.387 . S
C2125 C2127 1.387 . S
H2126 C2133 0.950 . S
C2127 C2125 1.387 . S
C2127 C2129 1.390 . S
C2127 H2131 0.950 . S
H2128 C2124 0.950 . S
C2129 C2127 1.390 . S
C2129 C2130 1.387 . S
C2129 H2132 0.950 . S
C2130 C2129 1.387 . S
C2130 C2133 1.387 . S
H2131 C2127 0.950 . S
H2132 C2129 0.950 . S
C2133 C2124 1.390 . S
C2133 H2126 0.950 . S
C2133 C2130 1.387 . S
C2134 C2135 1.387 . S
C2134 H2138 0.950 1_565 S
C2134 C2143 1.390 1_554 S
C2135 C2134 1.387 . S
C2135 C2137 1.387 . S
H2136 C2143 0.950 1_545 S
C2137 C2135 1.387 . S
C2137 C2139 1.390 1_554 S
C2137 H2141 0.950 . S
H2138 C2134 0.950 1_545 S
C2139 C2137 1.390 1_556 S
C2139 C2140 1.387 . S
C2139 H2142 0.950 . S
C2140 C2139 1.387 . S
C2140 C2143 1.387 . S
H2141 C2137 0.950 . S
H2142 C2139 0.950 . S
C2143 C2134 1.390 1_556 S
C2143 H2136 0.950 1_565 S
C2143 C2140 1.387 . S
C2144 C2145 1.387 . S
C2144 H2148 0.950 . S
C2144 C2153 1.390 1_556 S
C2145 C2144 1.387 . S
C2145 C2147 1.387 . S
H2146 C2153 0.950 . S
C2147 C2145 1.387 . S
C2147 C2149 1.390 1_556 S
C2147 H2151 0.950 . S
H2148 C2144 0.950 . S
C2149 C2147 1.390 1_554 S
C2149 C2150 1.387 . S
C2149 H2152 0.950 . S
C2150 C2149 1.387 . S
C2150 C2153 1.387 . S
H2151 C2147 0.950 . S
H2152 C2149 0.950 . S
C2153 C2144 1.390 1_554 S
C2153 H2146 0.950 . S
C2153 C2150 1.387 . S
C2154 C2155 1.387 . S
C2154 H2158 0.950 . S
C2154 C2163 1.390 . S
C2155 C2154 1.387 . S
C2155 C2157 1.387 . S
H2156 C2163 0.950 . S
C2157 C2155 1.387 . S
C2157 C2159 1.390 . S
C2157 H2161 0.950 . S
H2158 C2154 0.950 . S
C2159 C2157 1.390 . S
C2159 C2160 1.387 . S
C2159 H2162 0.950 . S
C2160 C2159 1.387 . S
C2160 C2163 1.387 . S
H2161 C2157 0.950 . S
H2162 C2159 0.950 . S
C2163 C2154 1.390 . S
C2163 H2156 0.950 . S
C2163 C2160 1.387 . S
C2164 C2165 1.387 . S
C2164 H2168 0.950 1_455 S
C2164 C2173 1.390 . S
C2165 C2164 1.387 . S
C2165 C2167 1.387 . S
H2166 C2173 0.950 1_655 S
C2167 C2165 1.387 . S
C2167 C2169 1.390 . S
C2167 H2171 0.950 . S
H2168 C2164 0.950 1_655 S
C2169 C2167 1.390 . S
C2169 C2170 1.387 . S
C2169 H2172 0.950 . S
C2170 C2169 1.387 . S
C2170 C2173 1.387 . S
H2171 C2167 0.950 . S
H2172 C2169 0.950 . S
C2173 C2164 1.390 . S
C2173 H2166 0.950 1_455 S
C2173 C2170 1.387 . S
C2174 C2175 1.387 . S
C2174 H2178 0.950 . S
C2174 C2183 1.390 . S
C2175 C2174 1.387 . S
C2175 C2177 1.387 . S
H2176 C2183 0.950 . S
C2177 C2175 1.387 . S
C2177 C2179 1.390 . S
C2177 H2181 0.950 . S
H2178 C2174 0.950 . S
C2179 C2177 1.390 . S
C2179 C2180 1.387 . S
C2179 H2182 0.950 . S
C2180 C2179 1.387 . S
C2180 C2183 1.387 . S
H2181 C2177 0.950 . S
H2182 C2179 0.950 . S
C2183 C2174 1.390 . S
C2183 H2176 0.950 . S
C2183 C2180 1.387 . S
C2184 C2185 1.387 . S
C2184 H2188 0.950 . S
C2184 C2193 1.390 . S
C2185 C2184 1.387 . S
C2185 C2187 1.387 . S
H2186 C2193 0.950 . S
C2187 C2185 1.387 . S
C2187 C2189 1.390 . S
C2187 H2191 0.950 . S
H2188 C2184 0.950 . S
C2189 C2187 1.390 . S
C2189 C2190 1.387 . S
C2189 H2192 0.950 . S
C2190 C2189 1.387 . S
C2190 C2193 1.387 . S
H2191 C2187 0.950 . S
H2192 C2189 0.950 . S
C2193 C2184 1.390 . S
C2193 H2186 0.950 . S
C2193 C2190 1.387 . S
C2194 C2195 1.387 . S
C2194 H2198 0.950 . S
C2194 C2203 1.390 1_545 S
C2195 C2194 1.387 . S
C2195 C2197 1.387 . S
H2196 C2203 0.950 . S
C2197 C2195 1.387 . S
C2197 C2199 1.390 1_545 S
C2197 H2201 0.950 1_655 S
H2198 C2194 0.950 . S
C2199 C2197 1.390 1_565 S
C2199 C2200 1.387 . S
C2199 H2202 0.950 1_655 S
C2200 C2199 1.387 . S
C2200 C2203 1.387 . S
H2201 C2197 0.950 1_455 S
H2202 C2199 0.950 1_455 S
C2203 C2194 1.390 1_565 S
C2203 H2196 0.950 . S
C2203 C2200 1.387 . S
C2204 C2205 1.387 . S
C2204 H2208 0.950 . S
C2204 C2213 1.390 . S
C2205 C2204 1.387 . S
C2205 C2207 1.387 . S
H2206 C2213 0.950 . S
C2207 C2205 1.387 . S
C2207 C2209 1.390 . S
C2207 H2211 0.950 . S
H2208 C2204 0.950 . S
C2209 C2207 1.390 . S
C2209 C2210 1.387 . S
C2209 H2212 0.950 . S
C2210 C2209 1.387 . S
C2210 C2213 1.387 . S
H2211 C2207 0.950 . S
H2212 C2209 0.950 . S
C2213 C2204 1.390 . S
C2213 H2206 0.950 . S
C2213 C2210 1.387 . S
C2214 C2215 1.387 . S
C2214 H2218 0.950 . S
C2214 C2223 1.390 1_655 S
C2215 C2214 1.387 . S
C2215 C2217 1.387 . S
H2216 C2223 0.950 . S
C2217 C2215 1.387 . S
C2217 C2219 1.390 1_655 S
C2217 H2221 0.950 . S
H2218 C2214 0.950 . S
C2219 C2217 1.390 1_455 S
C2219 C2220 1.387 . S
C2219 H2222 0.950 . S
C2220 C2219 1.387 . S
C2220 C2223 1.387 . S
H2221 C2217 0.950 . S
H2222 C2219 0.950 . S
C2223 C2214 1.390 1_455 S
C2223 H2216 0.950 . S
C2223 C2220 1.387 . S
C2224 C2225 1.387 . S
C2224 H2228 0.950 . S
C2224 C2233 1.390 . S
C2225 C2224 1.387 . S
C2225 C2227 1.387 . S
H2226 C2233 0.950 . S
C2227 C2225 1.387 . S
C2227 C2229 1.390 . S
C2227 H2231 0.950 . S
H2228 C2224 0.950 . S
C2229 C2227 1.390 . S
C2229 C2230 1.387 . S
C2229 H2232 0.950 . S
C2230 C2229 1.387 . S
C2230 C2233 1.387 . S
H2231 C2227 0.950 . S
H2232 C2229 0.950 . S
C2233 C2224 1.390 . S
C2233 H2226 0.950 . S
C2233 C2230 1.387 . S
C2234 C2235 1.387 . S
C2234 H2238 0.950 . S
C2234 C2243 1.390 . S
C2235 C2234 1.387 . S
C2235 C2237 1.387 . S
H2236 C2243 0.950 . S
C2237 C2235 1.387 . S
C2237 C2239 1.390 . S
C2237 H2241 0.950 . S
H2238 C2234 0.950 . S
C2239 C2237 1.390 . S
C2239 C2240 1.387 . S
C2239 H2242 0.950 . S
C2240 C2239 1.387 . S
C2240 C2243 1.387 . S
H2241 C2237 0.950 . S
H2242 C2239 0.950 . S
C2243 C2234 1.390 . S
C2243 H2236 0.950 . S
C2243 C2240 1.387 . S
C2244 C2245 1.387 . S
C2244 H2248 0.950 . S
C2244 C2253 1.390 . S
C2245 C2244 1.387 . S
C2245 C2247 1.387 . S
H2246 C2253 0.950 . S
C2247 C2245 1.387 . S
C2247 C2249 1.390 . S
C2247 H2251 0.950 . S
H2248 C2244 0.950 . S
C2249 C2247 1.390 . S
C2249 C2250 1.387 . S
C2249 H2252 0.950 . S
C2250 C2249 1.387 . S
C2250 C2253 1.387 . S
H2251 C2247 0.950 . S
H2252 C2249 0.950 . S
C2253 C2244 1.390 . S
C2253 H2246 0.950 . S
C2253 C2250 1.387 . S
C2254 C2255 1.387 . S
C2254 H2258 0.950 . S
C2254 C2263 1.390 . S
C2255 C2254 1.387 . S
C2255 C2257 1.387 . S
H2256 C2263 0.950 . S
C2257 C2255 1.387 . S
C2257 C2259 1.390 . S
C2257 H2261 0.950 1_545 S
H2258 C2254 0.950 . S
C2259 C2257 1.390 . S
C2259 C2260 1.387 . S
C2259 H2262 0.950 1_545 S
C2260 C2259 1.387 . S
C2260 C2263 1.387 . S
H2261 C2257 0.950 1_565 S
H2262 C2259 0.950 1_565 S
C2263 C2254 1.390 . S
C2263 H2256 0.950 . S
C2263 C2260 1.387 . S
C2264 C2265 1.387 . S
C2264 H2268 0.950 . S
C2264 C2273 1.390 1_565 S
C2265 C2264 1.387 . S
C2265 C2267 1.387 . S
H2266 C2273 0.950 . S
C2267 C2265 1.387 . S
C2267 C2269 1.390 1_565 S
C2267 H2271 0.950 . S
H2268 C2264 0.950 . S
C2269 C2267 1.390 1_545 S
C2269 C2270 1.387 . S
C2269 H2272 0.950 . S
C2270 C2269 1.387 . S
C2270 C2273 1.387 . S
H2271 C2267 0.950 . S
H2272 C2269 0.950 . S
C2273 C2264 1.390 1_545 S
C2273 H2266 0.950 . S
C2273 C2270 1.387 . S
C2274 C2275 1.387 . S
C2274 H2278 0.950 . S
C2274 C2283 1.390 . S
C2275 C2274 1.387 . S
C2275 C2277 1.387 . S
H2276 C2283 0.950 . S
C2277 C2275 1.387 . S
C2277 C2279 1.390 . S
C2277 H2281 0.950 . S
H2278 C2274 0.950 . S
C2279 C2277 1.390 . S
C2279 C2280 1.387 . S
C2279 H2282 0.950 . S
C2280 C2279 1.387 . S
C2280 C2283 1.387 . S
H2281 C2277 0.950 . S
H2282 C2279 0.950 . S
C2283 C2274 1.390 . S
C2283 H2276 0.950 . S
C2283 C2280 1.387 . S
C2284 C2285 1.387 . S
C2284 H2288 0.950 . S
C2284 C2293 1.390 1_554 S
C2285 C2284 1.387 . S
C2285 C2287 1.387 . S
H2286 C2293 0.950 . S
C2287 C2285 1.387 . S
C2287 C2289 1.390 1_554 S
C2287 H2291 0.950 . S
H2288 C2284 0.950 . S
C2289 C2287 1.390 1_556 S
C2289 C2290 1.387 . S
C2289 H2292 0.950 . S
C2290 C2289 1.387 . S
C2290 C2293 1.387 . S
H2291 C2287 0.950 . S
H2292 C2289 0.950 . S
C2293 C2284 1.390 1_556 S
C2293 H2286 0.950 . S
C2293 C2290 1.387 . S
C2294 C2295 1.387 . S
C2294 H2298 0.950 . S
C2294 C2303 1.390 1_565 S
C2295 C2294 1.387 . S
C2295 C2297 1.387 . S
H2296 C2303 0.950 . S
C2297 C2295 1.387 . S
C2297 C2299 1.390 1_565 S
C2297 H2301 0.950 . S
H2298 C2294 0.950 . S
C2299 C2297 1.390 1_545 S
C2299 C2300 1.387 . S
C2299 H2302 0.950 . S
C2300 C2299 1.387 . S
C2300 C2303 1.387 . S
H2301 C2297 0.950 . S
H2302 C2299 0.950 . S
C2303 C2294 1.390 1_545 S
C2303 H2296 0.950 . S
C2303 C2300 1.387 . S
C2304 C2305 1.387 . S
C2304 H2308 0.950 . S
C2304 C2313 1.390 . S
C2305 C2304 1.387 . S
C2305 C2307 1.387 . S
H2306 C2313 0.950 . S
C2307 C2305 1.387 . S
C2307 C2309 1.390 . S
C2307 H2311 0.950 . S
H2308 C2304 0.950 . S
C2309 C2307 1.390 . S
C2309 C2310 1.387 . S
C2309 H2312 0.950 . S
C2310 C2309 1.387 . S
C2310 C2313 1.387 . S
H2311 C2307 0.950 . S
H2312 C2309 0.950 . S
C2313 C2304 1.390 . S
C2313 H2306 0.950 . S
C2313 C2310 1.387 . S
C2314 C2315 1.387 . S
C2314 H2318 0.950 . S
C2314 C2323 1.390 . S
C2315 C2314 1.387 . S
C2315 C2317 1.387 . S
H2316 C2323 0.950 . S
C2317 C2315 1.387 . S
C2317 C2319 1.390 . S
C2317 H2321 0.950 . S
H2318 C2314 0.950 . S
C2319 C2317 1.390 . S
C2319 C2320 1.387 . S
C2319 H2322 0.950 . S
C2320 C2319 1.387 . S
C2320 C2323 1.387 . S
H2321 C2317 0.950 . S
H2322 C2319 0.950 . S
C2323 C2314 1.390 . S
C2323 H2316 0.950 . S
C2323 C2320 1.387 . S
C2324 C2325 1.387 . S
C2324 H2328 0.950 . S
C2324 C2333 1.390 . S
C2325 C2324 1.387 . S
C2325 C2327 1.387 . S
H2326 C2333 0.950 . S
C2327 C2325 1.387 . S
C2327 C2329 1.390 . S
C2327 H2331 0.950 . S
H2328 C2324 0.950 . S
C2329 C2327 1.390 . S
C2329 C2330 1.387 . S
C2329 H2332 0.950 . S
C2330 C2329 1.387 . S
C2330 C2333 1.387 . S
H2331 C2327 0.950 . S
H2332 C2329 0.950 . S
C2333 C2324 1.390 . S
C2333 H2326 0.950 . S
C2333 C2330 1.387 . S
C2334 C2335 1.387 . S
C2334 H2338 0.950 . S
C2334 C2343 1.390 . S
C2335 C2334 1.387 . S
C2335 C2337 1.387 . S
H2336 C2343 0.950 . S
C2337 C2335 1.387 . S
C2337 C2339 1.390 . S
C2337 H2341 0.950 . S
H2338 C2334 0.950 . S
C2339 C2337 1.390 . S
C2339 C2340 1.387 . S
C2339 H2342 0.950 . S
C2340 C2339 1.387 . S
C2340 C2343 1.387 . S
H2341 C2337 0.950 . S
H2342 C2339 0.950 . S
C2343 C2334 1.390 . S
C2343 H2336 0.950 . S
C2343 C2340 1.387 . S
C2344 C2345 1.387 . S
C2344 H2348 0.950 . S
C2344 C2353 1.390 . S
C2345 C2344 1.387 . S
C2345 C2347 1.387 . S
H2346 C2353 0.950 . S
C2347 C2345 1.387 . S
C2347 C2349 1.390 . S
C2347 H2351 0.950 . S
H2348 C2344 0.950 . S
C2349 C2347 1.390 . S
C2349 C2350 1.387 . S
C2349 H2352 0.950 . S
C2350 C2349 1.387 . S
C2350 C2353 1.387 . S
H2351 C2347 0.950 . S
H2352 C2349 0.950 . S
C2353 C2344 1.390 . S
C2353 H2346 0.950 . S
C2353 C2350 1.387 . S
C2354 C2355 1.387 . S
C2354 H2358 0.950 . S
C2354 C2363 1.390 . S
C2355 C2354 1.387 . S
C2355 C2357 1.387 . S
H2356 C2363 0.950 . S
C2357 C2355 1.387 . S
C2357 C2359 1.390 . S
C2357 H2361 0.950 . S
H2358 C2354 0.950 . S
C2359 C2357 1.390 . S
C2359 C2360 1.387 . S
C2359 H2362 0.950 . S
C2360 C2359 1.387 . S
C2360 C2363 1.387 . S
H2361 C2357 0.950 . S
H2362 C2359 0.950 . S
C2363 C2354 1.390 . S
C2363 H2356 0.950 . S
C2363 C2360 1.387 . S
C2364 C2365 1.387 . S
C2364 H2368 0.950 . S
C2364 C2373 1.390 . S
C2365 C2364 1.387 . S
C2365 C2367 1.387 . S
H2366 C2373 0.950 . S
C2367 C2365 1.387 . S
C2367 C2369 1.390 . S
C2367 H2371 0.950 . S
H2368 C2364 0.950 . S
C2369 C2367 1.390 . S
C2369 C2370 1.387 . S
C2369 H2372 0.950 . S
C2370 C2369 1.387 . S
C2370 C2373 1.387 . S
H2371 C2367 0.950 . S
H2372 C2369 0.950 . S
C2373 C2364 1.390 . S
C2373 H2366 0.950 . S
C2373 C2370 1.387 . S
C2374 C2375 1.387 . S
C2374 H2378 0.950 . S
C2374 C2383 1.390 . S
C2375 C2374 1.387 . S
C2375 C2377 1.387 . S
H2376 C2383 0.950 . S
C2377 C2375 1.387 . S
C2377 C2379 1.390 . S
C2377 H2381 0.950 . S
H2378 C2374 0.950 . S
C2379 C2377 1.390 . S
C2379 C2380 1.387 . S
C2379 H2382 0.950 . S
C2380 C2379 1.387 . S
C2380 C2383 1.387 . S
H2381 C2377 0.950 . S
H2382 C2379 0.950 . S
C2383 C2374 1.390 . S
C2383 H2376 0.950 . S
C2383 C2380 1.387 . S
C2384 C2385 1.387 . S
C2384 H2388 0.950 . S
C2384 C2393 1.390 . S
C2385 C2384 1.387 . S
C2385 C2387 1.387 . S
H2386 C2393 0.950 . S
C2387 C2385 1.387 . S
C2387 C2389 1.390 . S
C2387 H2391 0.950 . S
H2388 C2384 0.950 . S
C2389 C2387 1.390 . S
C2389 C2390 1.387 . S
C2389 H2392 0.950 . S
C2390 C2389 1.387 . S
C2390 C2393 1.387 . S
H2391 C2387 0.950 . S
H2392 C2389 0.950 . S
C2393 C2384 1.390 . S
C2393 H2386 0.950 . S
C2393 C2390 1.387 . S
C2394 C2395 1.387 . S
C2394 H2398 0.950 . S
C2394 C2403 1.390 . S
C2395 C2394 1.387 . S
C2395 C2397 1.387 . S
H2396 C2403 0.950 . S
C2397 C2395 1.387 . S
C2397 C2399 1.390 . S
C2397 H2401 0.950 . S
H2398 C2394 0.950 . S
C2399 C2397 1.390 . S
C2399 C2400 1.387 . S
C2399 H2402 0.950 . S
C2400 C2399 1.387 . S
C2400 C2403 1.387 . S
H2401 C2397 0.950 . S
H2402 C2399 0.950 . S
C2403 C2394 1.390 . S
C2403 H2396 0.950 . S
C2403 C2400 1.387 . S
C2404 C2405 1.387 . S
C2404 H2408 0.950 . S
C2404 C2413 1.390 . S
C2405 C2404 1.387 . S
C2405 C2407 1.387 . S
H2406 C2413 0.950 . S
C2407 C2405 1.387 . S
C2407 C2409 1.390 . S
C2407 H2411 0.950 . S
H2408 C2404 0.950 . S
C2409 C2407 1.390 . S
C2409 C2410 1.387 . S
C2409 H2412 0.950 . S
C2410 C2409 1.387 . S
C2410 C2413 1.387 . S
H2411 C2407 0.950 . S
H2412 C2409 0.950 . S
C2413 C2404 1.390 . S
C2413 H2406 0.950 . S
C2413 C2410 1.387 . S
C2414 C2415 1.387 . S
C2414 H2418 0.950 . S
C2414 C2423 1.390 . S
C2415 C2414 1.387 . S
C2415 C2417 1.387 . S
H2416 C2423 0.950 . S
C2417 C2415 1.387 . S
C2417 C2419 1.390 . S
C2417 H2421 0.950 . S
H2418 C2414 0.950 . S
C2419 C2417 1.390 . S
C2419 C2420 1.387 . S
C2419 H2422 0.950 . S
C2420 C2419 1.387 . S
C2420 C2423 1.387 . S
H2421 C2417 0.950 . S
H2422 C2419 0.950 . S
C2423 C2414 1.390 . S
C2423 H2416 0.950 . S
C2423 C2420 1.387 . S
C2424 C2425 1.387 . S
C2424 H2428 0.950 . S
C2424 C2433 1.390 . S
C2425 C2424 1.387 . S
C2425 C2427 1.387 . S
H2426 C2433 0.950 . S
C2427 C2425 1.387 . S
C2427 C2429 1.390 . S
C2427 H2431 0.950 . S
H2428 C2424 0.950 . S
C2429 C2427 1.390 . S
C2429 C2430 1.387 . S
C2429 H2432 0.950 . S
C2430 C2429 1.387 . S
C2430 C2433 1.387 . S
H2431 C2427 0.950 . S
H2432 C2429 0.950 . S
C2433 C2424 1.390 . S
C2433 H2426 0.950 . S
C2433 C2430 1.387 . S
C2434 C2435 1.387 . S
C2434 H2438 0.950 . S
C2434 C2443 1.390 . S
C2435 C2434 1.387 . S
C2435 C2437 1.387 . S
H2436 C2443 0.950 . S
C2437 C2435 1.387 . S
C2437 C2439 1.390 . S
C2437 H2441 0.950 . S
H2438 C2434 0.950 . S
C2439 C2437 1.390 . S
C2439 C2440 1.387 . S
C2439 H2442 0.950 . S
C2440 C2439 1.387 . S
C2440 C2443 1.387 . S
H2441 C2437 0.950 . S
H2442 C2439 0.950 . S
C2443 C2434 1.390 . S
C2443 H2436 0.950 . S
C2443 C2440 1.387 . S
C2444 C2445 1.387 . S
C2444 H2448 0.950 . S
C2444 C2453 1.390 . S
C2445 C2444 1.387 . S
C2445 C2447 1.387 . S
H2446 C2453 0.950 . S
C2447 C2445 1.387 . S
C2447 C2449 1.390 . S
C2447 H2451 0.950 . S
H2448 C2444 0.950 . S
C2449 C2447 1.390 . S
C2449 C2450 1.387 . S
C2449 H2452 0.950 . S
C2450 C2449 1.387 . S
C2450 C2453 1.387 . S
H2451 C2447 0.950 . S
H2452 C2449 0.950 . S
C2453 C2444 1.390 . S
C2453 H2446 0.950 . S
C2453 C2450 1.387 . S
C2454 C2455 1.387 . S
C2454 H2458 0.950 . S
C2454 C2463 1.390 . S
C2455 C2454 1.387 . S
C2455 C2457 1.387 . S
H2456 C2463 0.950 . S
C2457 C2455 1.387 . S
C2457 C2459 1.390 . S
C2457 H2461 0.950 . S
H2458 C2454 0.950 . S
C2459 C2457 1.390 . S
C2459 C2460 1.387 . S
C2459 H2462 0.950 . S
C2460 C2459 1.387 . S
C2460 C2463 1.387 . S
H2461 C2457 0.950 . S
H2462 C2459 0.950 . S
C2463 C2454 1.390 . S
C2463 H2456 0.950 . S
C2463 C2460 1.387 . S
C2464 C2465 1.387 . S
C2464 H2468 0.950 . S
C2464 C2473 1.390 . S
C2465 C2464 1.387 . S
C2465 C2467 1.387 . S
H2466 C2473 0.950 . S
C2467 C2465 1.387 . S
C2467 C2469 1.390 . S
C2467 H2471 0.950 . S
H2468 C2464 0.950 . S
C2469 C2467 1.390 . S
C2469 C2470 1.387 . S
C2469 H2472 0.950 . S
C2470 C2469 1.387 . S
C2470 C2473 1.387 . S
H2471 C2467 0.950 . S
H2472 C2469 0.950 . S
C2473 C2464 1.390 . S
C2473 H2466 0.950 . S
C2473 C2470 1.387 . S
C2474 C2475 1.387 . S
C2474 H2478 0.950 . S
C2474 C2483 1.390 . S
C2475 C2474 1.387 . S
C2475 C2477 1.387 . S
H2476 C2483 0.950 . S
C2477 C2475 1.387 . S
C2477 C2479 1.390 . S
C2477 H2481 0.950 . S
H2478 C2474 0.950 . S
C2479 C2477 1.390 . S
C2479 C2480 1.387 . S
C2479 H2482 0.950 . S
C2480 C2479 1.387 . S
C2480 C2483 1.387 . S
H2481 C2477 0.950 . S
H2482 C2479 0.950 . S
C2483 C2474 1.390 . S
C2483 H2476 0.950 . S
C2483 C2480 1.387 . S
C2484 C2485 1.387 . S
C2484 H2488 0.950 . S
C2484 C2493 1.390 . S
C2485 C2484 1.387 . S
C2485 C2487 1.387 . S
H2486 C2493 0.950 . S
C2487 C2485 1.387 . S
C2487 C2489 1.390 . S
C2487 H2491 0.950 . S
H2488 C2484 0.950 . S
C2489 C2487 1.390 . S
C2489 C2490 1.387 . S
C2489 H2492 0.950 . S
C2490 C2489 1.387 . S
C2490 C2493 1.387 . S
H2491 C2487 0.950 . S
H2492 C2489 0.950 . S
C2493 C2484 1.390 . S
C2493 H2486 0.950 . S
C2493 C2490 1.387 . S
C2494 C2495 1.387 . S
C2494 H2498 0.950 . S
C2494 C2503 1.390 . S
C2495 C2494 1.387 . S
C2495 C2497 1.387 . S
H2496 C2503 0.950 . S
C2497 C2495 1.387 . S
C2497 C2499 1.390 . S
C2497 H2501 0.950 . S
H2498 C2494 0.950 . S
C2499 C2497 1.390 . S
C2499 C2500 1.387 . S
C2499 H2502 0.950 . S
C2500 C2499 1.387 . S
C2500 C2503 1.387 . S
H2501 C2497 0.950 . S
H2502 C2499 0.950 . S
C2503 C2494 1.390 . S
C2503 H2496 0.950 . S
C2503 C2500 1.387 . S
C2504 C2505 1.387 . S
C2504 H2508 0.950 . S
C2504 C2513 1.390 . S
C2505 C2504 1.387 . S
C2505 C2507 1.387 . S
H2506 C2513 0.950 . S
C2507 C2505 1.387 . S
C2507 C2509 1.390 . S
C2507 H2511 0.950 . S
H2508 C2504 0.950 . S
C2509 C2507 1.390 . S
C2509 C2510 1.387 . S
C2509 H2512 0.950 . S
C2510 C2509 1.387 . S
C2510 C2513 1.387 . S
H2511 C2507 0.950 . S
H2512 C2509 0.950 . S
C2513 C2504 1.390 . S
C2513 H2506 0.950 . S
C2513 C2510 1.387 . S
C2514 C2515 1.387 . S
C2514 H2518 0.950 . S
C2514 C2523 1.390 . S
C2515 C2514 1.387 . S
C2515 C2517 1.387 . S
H2516 C2523 0.950 . S
C2517 C2515 1.387 . S
C2517 C2519 1.390 . S
C2517 H2521 0.950 . S
H2518 C2514 0.950 . S
C2519 C2517 1.390 . S
C2519 C2520 1.387 . S
C2519 H2522 0.950 . S
C2520 C2519 1.387 . S
C2520 C2523 1.387 . S
H2521 C2517 0.950 . S
H2522 C2519 0.950 . S
C2523 C2514 1.390 . S
C2523 H2516 0.950 . S
C2523 C2520 1.387 . S
C2524 C2525 1.387 . S
C2524 H2528 0.950 . S
C2524 C2533 1.390 . S
C2525 C2524 1.387 . S
C2525 C2527 1.387 . S
H2526 C2533 0.950 . S
C2527 C2525 1.387 . S
C2527 C2529 1.390 . S
C2527 H2531 0.950 . S
H2528 C2524 0.950 . S
C2529 C2527 1.390 . S
C2529 C2530 1.387 . S
C2529 H2532 0.950 . S
C2530 C2529 1.387 . S
C2530 C2533 1.387 . S
H2531 C2527 0.950 . S
H2532 C2529 0.950 . S
C2533 C2524 1.390 . S
C2533 H2526 0.950 . S
C2533 C2530 1.387 . S
C2534 C2535 1.387 . S
C2534 H2538 0.950 . S
C2534 C2543 1.390 . S
C2535 C2534 1.387 . S
C2535 C2537 1.387 . S
H2536 C2543 0.950 . S
C2537 C2535 1.387 . S
C2537 C2539 1.390 . S
C2537 H2541 0.950 . S
H2538 C2534 0.950 . S
C2539 C2537 1.390 . S
C2539 C2540 1.387 . S
C2539 H2542 0.950 . S
C2540 C2539 1.387 . S
C2540 C2543 1.387 . S
H2541 C2537 0.950 . S
H2542 C2539 0.950 . S
C2543 C2534 1.390 . S
C2543 H2536 0.950 . S
C2543 C2540 1.387 . S
C2544 C2545 1.387 . S
C2544 H2548 0.950 . S
C2544 C2553 1.390 . S
C2545 C2544 1.387 . S
C2545 C2547 1.387 . S
H2546 C2553 0.950 . S
C2547 C2545 1.387 . S
C2547 C2549 1.390 . S
C2547 H2551 0.950 . S
H2548 C2544 0.950 . S
C2549 C2547 1.390 . S
C2549 C2550 1.387 . S
C2549 H2552 0.950 . S
C2550 C2549 1.387 . S
C2550 C2553 1.387 . S
H2551 C2547 0.950 . S
H2552 C2549 0.950 . S
C2553 C2544 1.390 . S
C2553 H2546 0.950 . S
C2553 C2550 1.387 . S
C2554 C2555 1.387 . S
C2554 H2558 0.950 . S
C2554 C2563 1.390 . S
C2555 C2554 1.387 . S
C2555 C2557 1.387 . S
H2556 C2563 0.950 . S
C2557 C2555 1.387 . S
C2557 C2559 1.390 . S
C2557 H2561 0.950 . S
H2558 C2554 0.950 . S
C2559 C2557 1.390 . S
C2559 C2560 1.387 . S
C2559 H2562 0.950 . S
C2560 C2559 1.387 . S
C2560 C2563 1.387 . S
H2561 C2557 0.950 . S
H2562 C2559 0.950 . S
C2563 C2554 1.390 . S
C2563 H2556 0.950 . S
C2563 C2560 1.387 . S
C2564 C2565 1.387 . S
C2564 H2568 0.950 . S
C2564 C2573 1.390 . S
C2565 C2564 1.387 . S
C2565 C2567 1.387 . S
H2566 C2573 0.950 . S
C2567 C2565 1.387 . S
C2567 C2569 1.390 . S
C2567 H2571 0.950 . S
H2568 C2564 0.950 . S
C2569 C2567 1.390 . S
C2569 C2570 1.387 . S
C2569 H2572 0.950 . S
C2570 C2569 1.387 . S
C2570 C2573 1.387 . S
H2571 C2567 0.950 . S
H2572 C2569 0.950 . S
C2573 C2564 1.390 . S
C2573 H2566 0.950 . S
C2573 C2570 1.387 . S
C2574 C2575 1.387 . S
C2574 H2578 0.950 . S
C2574 C2583 1.390 . S
C2575 C2574 1.387 . S
C2575 C2577 1.387 . S
H2576 C2583 0.950 . S
C2577 C2575 1.387 . S
C2577 C2579 1.390 . S
C2577 H2581 0.950 . S
H2578 C2574 0.950 . S
C2579 C2577 1.390 . S
C2579 C2580 1.387 . S
C2579 H2582 0.950 . S
C2580 C2579 1.387 . S
C2580 C2583 1.387 . S
H2581 C2577 0.950 . S
H2582 C2579 0.950 . S
C2583 C2574 1.390 . S
C2583 H2576 0.950 . S
C2583 C2580 1.387 . S
C2584 C2585 1.387 . S
C2584 H2588 0.950 . S
C2584 C2593 1.390 . S
C2585 C2584 1.387 . S
C2585 C2587 1.387 . S
H2586 C2593 0.950 . S
C2587 C2585 1.387 . S
C2587 C2589 1.390 . S
C2587 H2591 0.950 . S
H2588 C2584 0.950 . S
C2589 C2587 1.390 . S
C2589 C2590 1.387 . S
C2589 H2592 0.950 . S
C2590 C2589 1.387 . S
C2590 C2593 1.387 . S
H2591 C2587 0.950 . S
H2592 C2589 0.950 . S
C2593 C2584 1.390 . S
C2593 H2586 0.950 . S
C2593 C2590 1.387 . S
C2594 C2595 1.387 . S
C2594 H2598 0.950 . S
C2594 C2603 1.390 . S
C2595 C2594 1.387 . S
C2595 C2597 1.387 . S
H2596 C2603 0.950 . S
C2597 C2595 1.387 . S
C2597 C2599 1.390 . S
C2597 H2601 0.950 . S
H2598 C2594 0.950 . S
C2599 C2597 1.390 . S
C2599 C2600 1.387 . S
C2599 H2602 0.950 . S
C2600 C2599 1.387 . S
C2600 C2603 1.387 . S
H2601 C2597 0.950 . S
H2602 C2599 0.950 . S
C2603 C2594 1.390 . S
C2603 H2596 0.950 . S
C2603 C2600 1.387 . S
C2604 C2605 1.387 . S
C2604 H2608 0.950 . S
C2604 C2613 1.390 . S
C2605 C2604 1.387 . S
C2605 C2607 1.387 . S
H2606 C2613 0.950 . S
C2607 C2605 1.387 . S
C2607 C2609 1.390 . S
C2607 H2611 0.950 . S
H2608 C2604 0.950 . S
C2609 C2607 1.390 . S
C2609 C2610 1.387 . S
C2609 H2612 0.950 . S
C2610 C2609 1.387 . S
C2610 C2613 1.387 . S
H2611 C2607 0.950 . S
H2612 C2609 0.950 . S
C2613 C2604 1.390 . S
C2613 H2606 0.950 . S
C2613 C2610 1.387 . S
C2614 C2615 1.387 . S
C2614 H2618 0.950 . S
C2614 C2623 1.390 . S
C2615 C2614 1.387 . S
C2615 C2617 1.387 . S
H2616 C2623 0.950 . S
C2617 C2615 1.387 . S
C2617 C2619 1.390 . S
C2617 H2621 0.950 . S
H2618 C2614 0.950 . S
C2619 C2617 1.390 . S
C2619 C2620 1.387 . S
C2619 H2622 0.950 . S
C2620 C2619 1.387 . S
C2620 C2623 1.387 . S
H2621 C2617 0.950 . S
H2622 C2619 0.950 . S
C2623 C2614 1.390 . S
C2623 H2616 0.950 . S
C2623 C2620 1.387 . S
C2624 C2625 1.387 . S
C2624 H2628 0.950 . S
C2624 C2633 1.390 . S
C2625 C2624 1.387 . S
C2625 C2627 1.387 . S
H2626 C2633 0.950 . S
C2627 C2625 1.387 . S
C2627 C2629 1.390 . S
C2627 H2631 0.950 . S
H2628 C2624 0.950 . S
C2629 C2627 1.390 . S
C2629 C2630 1.387 . S
C2629 H2632 0.950 . S
C2630 C2629 1.387 . S
C2630 C2633 1.387 . S
H2631 C2627 0.950 . S
H2632 C2629 0.950 . S
C2633 C2624 1.390 . S
C2633 H2626 0.950 . S
C2633 C2630 1.387 . S
C2634 C2635 1.387 . S
C2634 H2638 0.950 . S
C2634 C2643 1.390 . S
C2635 C2634 1.387 . S
C2635 C2637 1.387 . S
H2636 C2643 0.950 . S
C2637 C2635 1.387 . S
C2637 C2639 1.390 . S
C2637 H2641 0.950 . S
H2638 C2634 0.950 . S
C2639 C2637 1.390 . S
C2639 C2640 1.387 . S
C2639 H2642 0.950 . S
C2640 C2639 1.387 . S
C2640 C2643 1.387 . S
H2641 C2637 0.950 . S
H2642 C2639 0.950 . S
C2643 C2634 1.390 . S
C2643 H2636 0.950 . S
C2643 C2640 1.387 . S
C2644 C2645 1.387 . S
C2644 H2648 0.950 . S
C2644 C2653 1.390 . S
C2645 C2644 1.387 . S
C2645 C2647 1.387 . S
H2646 C2653 0.950 . S
C2647 C2645 1.387 . S
C2647 C2649 1.390 . S
C2647 H2651 0.950 . S
H2648 C2644 0.950 . S
C2649 C2647 1.390 . S
C2649 C2650 1.387 . S
C2649 H2652 0.950 . S
C2650 C2649 1.387 . S
C2650 C2653 1.387 . S
H2651 C2647 0.950 . S
H2652 C2649 0.950 . S
C2653 C2644 1.390 . S
C2653 H2646 0.950 . S
C2653 C2650 1.387 . S
C2654 C2655 1.387 . S
C2654 H2658 0.950 . S
C2654 C2663 1.390 . S
C2655 C2654 1.387 . S
C2655 C2657 1.387 . S
H2656 C2663 0.950 . S
C2657 C2655 1.387 . S
C2657 C2659 1.390 . S
C2657 H2661 0.950 . S
H2658 C2654 0.950 . S
C2659 C2657 1.390 . S
C2659 C2660 1.387 . S
C2659 H2662 0.950 . S
C2660 C2659 1.387 . S
C2660 C2663 1.387 . S
H2661 C2657 0.950 . S
H2662 C2659 0.950 . S
C2663 C2654 1.390 . S
C2663 H2656 0.950 . S
C2663 C2660 1.387 . S
C2664 C2665 1.387 . S
C2664 H2668 0.950 . S
C2664 C2673 1.390 . S
C2665 C2664 1.387 . S
C2665 C2667 1.387 . S
H2666 C2673 0.950 . S
C2667 C2665 1.387 . S
C2667 C2669 1.390 . S
C2667 H2671 0.950 . S
H2668 C2664 0.950 . S
C2669 C2667 1.390 . S
C2669 C2670 1.387 . S
C2669 H2672 0.950 . S
C2670 C2669 1.387 . S
C2670 C2673 1.387 . S
H2671 C2667 0.950 . S
H2672 C2669 0.950 . S
C2673 C2664 1.390 . S
C2673 H2666 0.950 . S
C2673 C2670 1.387 . S
C2674 C2675 1.387 . S
C2674 H2678 0.950 . S
C2674 C2683 1.390 . S
C2675 C2674 1.387 . S
C2675 C2677 1.387 . S
H2676 C2683 0.950 . S
C2677 C2675 1.387 . S
C2677 C2679 1.390 . S
C2677 H2681 0.950 . S
H2678 C2674 0.950 . S
C2679 C2677 1.390 . S
C2679 C2680 1.387 . S
C2679 H2682 0.950 . S
C2680 C2679 1.387 . S
C2680 C2683 1.387 . S
H2681 C2677 0.950 . S
H2682 C2679 0.950 . S
C2683 C2674 1.390 . S
C2683 H2676 0.950 . S
C2683 C2680 1.387 . S
C2684 C2685 1.387 . S
C2684 H2688 0.950 . S
C2684 C2693 1.390 . S
C2685 C2684 1.387 . S
C2685 C2687 1.387 . S
H2686 C2693 0.950 . S
C2687 C2685 1.387 . S
C2687 C2689 1.390 . S
C2687 H2691 0.950 . S
H2688 C2684 0.950 . S
C2689 C2687 1.390 . S
C2689 C2690 1.387 . S
C2689 H2692 0.950 . S
C2690 C2689 1.387 . S
C2690 C2693 1.387 . S
H2691 C2687 0.950 . S
H2692 C2689 0.950 . S
C2693 C2684 1.390 . S
C2693 H2686 0.950 . S
C2693 C2690 1.387 . S
C2694 C2695 1.387 . S
C2694 H2698 0.950 . S
C2694 C2703 1.390 . S
C2695 C2694 1.387 . S
C2695 C2697 1.387 . S
H2696 C2703 0.950 . S
C2697 C2695 1.387 . S
C2697 C2699 1.390 . S
C2697 H2701 0.950 . S
H2698 C2694 0.950 . S
C2699 C2697 1.390 . S
C2699 C2700 1.387 . S
C2699 H2702 0.950 . S
C2700 C2699 1.387 . S
C2700 C2703 1.387 . S
H2701 C2697 0.950 . S
H2702 C2699 0.950 . S
C2703 C2694 1.390 . S
C2703 H2696 0.950 . S
C2703 C2700 1.387 . S
C2704 C2705 1.387 . S
C2704 H2708 0.950 . S
C2704 C2713 1.390 . S
C2705 C2704 1.387 . S
C2705 C2707 1.387 . S
H2706 C2713 0.950 . S
C2707 C2705 1.387 . S
C2707 C2709 1.390 . S
C2707 H2711 0.950 . S
H2708 C2704 0.950 . S
C2709 C2707 1.390 . S
C2709 C2710 1.387 . S
C2709 H2712 0.950 . S
C2710 C2709 1.387 . S
C2710 C2713 1.387 . S
H2711 C2707 0.950 . S
H2712 C2709 0.950 . S
C2713 C2704 1.390 . S
C2713 H2706 0.950 . S
C2713 C2710 1.387 . S
C2714 C2715 1.387 . S
C2714 H2718 0.950 . S
C2714 C2723 1.390 . S
C2715 C2714 1.387 . S
C2715 C2717 1.387 . S
H2716 C2723 0.950 . S
C2717 C2715 1.387 . S
C2717 C2719 1.390 . S
C2717 H2721 0.950 . S
H2718 C2714 0.950 . S
C2719 C2717 1.390 . S
C2719 C2720 1.387 . S
C2719 H2722 0.950 . S
C2720 C2719 1.387 . S
C2720 C2723 1.387 . S
H2721 C2717 0.950 . S
H2722 C2719 0.950 . S
C2723 C2714 1.390 . S
C2723 H2716 0.950 . S
C2723 C2720 1.387 . S
C2724 C2725 1.387 . S
C2724 H2728 0.950 . S
C2724 C2733 1.390 . S
C2725 C2724 1.387 . S
C2725 C2727 1.387 . S
H2726 C2733 0.950 . S
C2727 C2725 1.387 . S
C2727 C2729 1.390 . S
C2727 H2731 0.950 . S
H2728 C2724 0.950 . S
C2729 C2727 1.390 . S
C2729 C2730 1.387 . S
C2729 H2732 0.950 . S
C2730 C2729 1.387 . S
C2730 C2733 1.387 . S
H2731 C2727 0.950 . S
H2732 C2729 0.950 . S
C2733 C2724 1.390 . S
C2733 H2726 0.950 . S
C2733 C2730 1.387 . S
C2734 C2735 1.387 . S
C2734 H2738 0.950 . S
C2734 C2743 1.390 . S
C2735 C2734 1.387 . S
C2735 C2737 1.387 . S
H2736 C2743 0.950 . S
C2737 C2735 1.387 . S
C2737 C2739 1.390 . S
C2737 H2741 0.950 . S
H2738 C2734 0.950 . S
C2739 C2737 1.390 . S
C2739 C2740 1.387 . S
C2739 H2742 0.950 . S
C2740 C2739 1.387 . S
C2740 C2743 1.387 . S
H2741 C2737 0.950 . S
H2742 C2739 0.950 . S
C2743 C2734 1.390 . S
C2743 H2736 0.950 . S
C2743 C2740 1.387 . S
C2744 C2745 1.387 . S
C2744 H2748 0.950 . S
C2744 C2753 1.390 . S
C2745 C2744 1.387 . S
C2745 C2747 1.387 . S
H2746 C2753 0.950 . S
C2747 C2745 1.387 . S
C2747 C2749 1.390 . S
C2747 H2751 0.950 . S
H2748 C2744 0.950 . S
C2749 C2747 1.390 . S
C2749 C2750 1.387 . S
C2749 H2752 0.950 . S
C2750 C2749 1.387 . S
C2750 C2753 1.387 . S
H2751 C2747 0.950 . S
H2752 C2749 0.950 . S
C2753 C2744 1.390 . S
C2753 H2746 0.950 . S
C2753 C2750 1.387 . S
C2754 C2755 1.387 . S
C2754 H2758 0.950 . S
C2754 C2763 1.390 . S
C2755 C2754 1.387 . S
C2755 C2757 1.387 . S
H2756 C2763 0.950 . S
C2757 C2755 1.387 . S
C2757 C2759 1.390 . S
C2757 H2761 0.950 . S
H2758 C2754 0.950 . S
C2759 C2757 1.390 . S
C2759 C2760 1.387 . S
C2759 H2762 0.950 . S
C2760 C2759 1.387 . S
C2760 C2763 1.387 . S
H2761 C2757 0.950 . S
H2762 C2759 0.950 . S
C2763 C2754 1.390 . S
C2763 H2756 0.950 . S
C2763 C2760 1.387 . S
C2764 C2765 1.387 . S
C2764 H2768 0.950 . S
C2764 C2773 1.390 . S
C2765 C2764 1.387 . S
C2765 C2767 1.387 . S
H2766 C2773 0.950 . S
C2767 C2765 1.387 . S
C2767 C2769 1.390 . S
C2767 H2771 0.950 . S
H2768 C2764 0.950 . S
C2769 C2767 1.390 . S
C2769 C2770 1.387 . S
C2769 H2772 0.950 . S
C2770 C2769 1.387 . S
C2770 C2773 1.387 . S
H2771 C2767 0.950 . S
H2772 C2769 0.950 . S
C2773 C2764 1.390 . S
C2773 H2766 0.950 . S
C2773 C2770 1.387 . S
C2774 C2775 1.387 . S
C2774 H2778 0.950 . S
C2774 C2783 1.390 . S
C2775 C2774 1.387 . S
C2775 C2777 1.387 . S
H2776 C2783 0.950 . S
C2777 C2775 1.387 . S
C2777 C2779 1.390 . S
C2777 H2781 0.950 . S
H2778 C2774 0.950 . S
C2779 C2777 1.390 . S
C2779 C2780 1.387 . S
C2779 H2782 0.950 . S
C2780 C2779 1.387 . S
C2780 C2783 1.387 . S
H2781 C2777 0.950 . S
H2782 C2779 0.950 . S
C2783 C2774 1.390 . S
C2783 H2776 0.950 . S
C2783 C2780 1.387 . S
C1585 C282 1.132 . S
C1590 N13 1.138 . S
C1595 C315 1.134 . S
C1600 N46 1.139 . S
C1605 N79 1.138 . S
C1610 C348 1.132 . S
C1615 N112 1.139 . S
C1620 C381 1.134 . S
C1625 N145 1.138 . S
C1630 C414 1.132 . S
C1635 C447 1.134 . S
C1640 N178 1.139 1_455 S
C1645 C480 1.132 . S
C1650 N211 1.138 . S
C1655 N244 1.139 1_655 S
C1660 C513 1.132 . S
C1665 N277 1.138 . S
C1670 C546 1.133 . S
C1675 N310 1.138 1_554 S
C1680 C1569 1.132 . S
C1685 N343 1.138 . S
C1690 C1503 1.133 . S
C1695 N376 1.138 1_554 S
C1700 C1536 1.132 . S
C1705 C579 1.133 . S
C1710 N409 1.139 . S
C1715 C612 1.134 . S
C1720 N442 1.139 1_556 S
C1725 N475 1.139 . S
C1730 C645 1.134 . S
C1735 N508 1.139 1_556 S
C1740 C1470 1.134 . S
C1745 N541 1.139 . S
C1750 C18 1.134 . S
C1755 C150 1.132 . S
C1760 N574 1.138 . S
C1765 N607 1.139 . S
C1770 C183 1.133 . S
C1775 C216 1.134 . S
C1780 N640 1.139 . S
C1785 N673 1.139 . S
C1790 C1041 1.134 . S
C1795 N706 1.139 . S
C1800 C876 1.134 . S
C1805 N739 1.139 . S
C1810 C909 1.133 . S
C1815 N772 1.138 1_545 S
C1820 C843 1.133 . S
C1825 C1074 1.134 . S
C1830 N805 1.139 . S
C1835 C1107 1.132 . S
C1840 N838 1.138 1_655 S
C1845 C1140 1.134 . S
C1850 N871 1.139 . S
C1855 N904 1.139 1_455 S
C1860 C1173 1.134 . S
C1865 C1206 1.134 . S
C1870 N937 1.139 . S
C1875 C1239 1.132 . S
C1880 N970 1.139 . S
C1885 N1003 1.139 . S
C1890 C1272 1.134 . S
C1895 N1036 1.139 . S
C1900 C1305 1.134 . S
C1905 N1069 1.138 . S
C1910 C1338 1.133 . S
C1915 C777 1.132 . S
C1920 N1102 1.138 . S
C1925 C711 1.133 . S
C1930 N1135 1.138 . S
C1935 N1168 1.139 . S
C1940 C744 1.134 . S
C1945 N1201 1.138 . S
C1950 C1371 1.133 . S
C1955 N1234 1.139 . S
C1960 C1404 1.132 . S
C1965 C1437 1.134 . S
C1970 N1267 1.139 . S
C1975 N1300 1.139 . S
C1980 C678 1.134 . S
C1985 C810 1.134 . S
C1990 N1333 1.139 . S
C1995 N1366 1.139 . S
C2000 C942 1.134 . S
C2005 N1399 1.139 1_545 S
C2010 C975 1.134 . S
C2015 C1008 1.134 . S
C2020 N1432 1.139 . S
C2025 N1465 1.139 1_565 S
C2030 C249 1.133 . S
C2035 N1498 1.138 . S
C2040 C84 1.132 . S
C2045 C117 1.133 . S
C2050 N1531 1.138 1_565 S
C2055 C51 1.132 . S
C2060 N1564 1.139 . S
C2065 C21 1.790 . S
C2070 C87 1.790 . S
C2075 C54 1.788 . S
C2080 C120 1.788 . S
C2085 C219 1.788 . S
C2090 C153 1.788 . S
C2095 C186 1.790 . S
C2100 C252 1.790 . S
C2105 C417 1.790 . S
C2110 C285 1.790 . S
C2115 C318 1.788 . S
C2120 C450 1.788 . S
C2125 C483 1.790 . S
C2130 C351 1.790 . S
C2135 C516 1.790 . S
C2140 C384 1.790 . S
C2145 C1440 1.788 . S
C2150 C549 1.788 . S
C2155 C582 1.790 . S
C2160 C714 1.790 . S
C2165 C615 1.790 . S
C2170 C747 1.790 . S
C2175 C648 1.788 . S
C2180 C1341 1.788 . S
C2185 C1572 1.788 . S
C2190 C681 1.788 . S
C2195 C1473 1.788 . S
C2200 C780 1.788 . S
C2205 C879 1.790 . S
C2210 C813 1.790 . S
C2215 C912 1.788 . S
C2220 C846 1.788 . S
C2225 C1011 1.788 . S
C2230 C945 1.788 . S
C2235 C1044 1.788 . S
C2240 C978 1.788 . S
C2245 C1077 1.790 . S
C2250 C1209 1.790 . S
C2255 C1242 1.788 . S
C2260 C1110 1.788 . S
C2265 C1143 1.788 . S
C2270 C1275 1.788 . S
C2275 C1308 1.790 . S
C2280 C1176 1.790 . S
C2285 C1506 1.788 . S
C2290 C1374 1.788 . S
C2295 C1407 1.790 . S
C2300 C1539 1.790 . S
C2305 C436 1.705 . S
C2310 N2 1.578 . S
C2315 C469 1.705 . S
C2320 N35 1.576 . S
C2325 N68 1.576 . S
C2330 C502 1.705 . S
C2335 N101 1.580 . S
C2340 C403 1.705 . S
C2345 N134 1.579 . S
C2350 C1162 1.705 . S
C2355 C1063 1.705 . S
C2360 N167 1.576 . S
C2365 C1096 1.705 . S
C2370 N200 1.579 . S
C2375 N233 1.579 . S
C2380 C1129 1.705 . S
C2385 N266 1.577 . S
C2390 C832 1.705 . S
C2395 C865 1.705 . S
C2400 N299 1.579 . S
C2405 C898 1.705 . S
C2410 N332 1.579 . S
C2415 N365 1.577 . S
C2420 C799 1.705 . S
C2425 N398 1.579 . S
C2430 C238 1.705 . S
C2435 N431 1.579 . S
C2440 C139 1.705 . S
C2445 C172 1.705 . S
C2450 N464 1.579 . S
C2455 N497 1.580 . S
C2460 C205 1.705 . S
C2465 C1525 1.705 . S
C2470 N530 1.576 . S
C2475 N563 1.576 . S
C2480 C1393 1.705 . S
C2485 C1426 1.705 . S
C2490 N596 1.579 . S
C2495 N629 1.579 . S
C2500 C667 1.705 . S
C2505 C568 1.705 . S
C2510 N662 1.577 . S
C2515 N695 1.580 . S
C2520 C766 1.705 . S
C2525 N728 1.577 . S
C2530 C700 1.705 . S
C2535 C1327 1.705 . S
C2540 N761 1.576 . S
C2545 C1228 1.705 . S
C2550 N794 1.577 . S
C2555 C1261 1.705 . S
C2560 N827 1.577 . S
C2565 N860 1.577 . S
C2570 C1294 1.705 . S
C2575 N893 1.576 . S
C2580 C1195 1.705 . S
C2585 C370 1.705 . S
C2590 N926 1.577 . S
C2595 N959 1.576 . S
C2600 C271 1.705 . S
C2605 N992 1.577 . S
C2610 C304 1.705 . S
C2615 N1025 1.576 . S
C2620 C337 1.705 . S
C2625 N1058 1.578 . S
C2630 C40 1.706 . S
C2635 N1091 1.579 . S
C2640 C73 1.705 . S
C2645 N1124 1.579 . S
C2650 C106 1.705 . S
C2655 N1157 1.576 . S
C2660 C7 1.705 . S
C2665 C1030 1.705 . S
C2670 N1190 1.579 . S
C2675 C931 1.705 . S
C2680 N1223 1.577 . S
C2685 N1256 1.577 . S
C2690 C964 1.705 . S
C2695 N1289 1.577 . S
C2700 C997 1.705 . S
C2705 C733 1.705 . S
C2710 N1322 1.579 . S
C2715 N1355 1.579 . S
C2720 C601 1.705 . S
C2725 C634 1.705 . S
C2730 N1388 1.577 . S
C2735 N1421 1.579 . S
C2740 C1459 1.705 . S
C2745 C1360 1.705 . S
C2750 N1454 1.577 . S
C2755 C1558 1.705 . S
C2760 N1487 1.576 . S
C2765 C1492 1.705 . S
C2770 N1520 1.577 . S
C2775 N1553 1.579 . S
C2780 C535 1.705 . S
