# Generated by pormake.
# Topology oof, (8)-cn, num edge types: 1
# Building blocks:
#     Node 0, Type 0, BuildingBlock: LIZSOE_clean_sbu_0, # of connection points: 8
#     Node 1, Type 0, BuildingBlock: LIZSOE_clean_sbu_0, # of connection points: 8
#     Node 2, Type 0, BuildingBlock: LIZSOE_clean_sbu_0, # of connection points: 8
#     Node 3, Type 0, BuildingBlock: LIZSOE_clean_sbu_0, # of connection points: 8
#     Edge 4, Type (0, 0), BuildingBlock: OJICUG_clean_linker_0, # of connection points: 2
#     Edge 5, Type (0, 0), BuildingBlock: OJICUG_clean_linker_0, # of connection points: 2
#     Edge 6, Type (0, 0), BuildingBlock: OJICUG_clean_linker_0, # of connection points: 2
#     Edge 7, Type (0, 0), BuildingBlock: OJICUG_clean_linker_0, # of connection points: 2
#     Edge 8, Type (0, 0), BuildingBlock: OJICUG_clean_linker_0, # of connection points: 2
#     Edge 9, Type (0, 0), BuildingBlock: OJICUG_clean_linker_0, # of connection points: 2
#     Edge 10, Type (0, 0), BuildingBlock: OJICUG_clean_linker_0, # of connection points: 2
#     Edge 11, Type (0, 0), BuildingBlock: OJICUG_clean_linker_0, # of connection points: 2
#     Edge 12, Type (0, 0), BuildingBlock: OJICUG_clean_linker_0, # of connection points: 2
#     Edge 13, Type (0, 0), BuildingBlock: OJICUG_clean_linker_0, # of connection points: 2
#     Edge 14, Type (0, 0), BuildingBlock: OJICUG_clean_linker_0, # of connection points: 2
#     Edge 15, Type (0, 0), BuildingBlock: OJICUG_clean_linker_0, # of connection points: 2
#     Edge 16, Type (0, 0), BuildingBlock: OJICUG_clean_linker_0, # of connection points: 2
#     Edge 17, Type (0, 0), BuildingBlock: OJICUG_clean_linker_0, # of connection points: 2
#     Edge 18, Type (0, 0), BuildingBlock: OJICUG_clean_linker_0, # of connection points: 2
#     Edge 19, Type (0, 0), BuildingBlock: OJICUG_clean_linker_0, # of connection points: 2
# Relax obj value: 0.124
# Max RMSD: 0.218
# Mean RMSD: 0.215
data_MOF--net-oof--node1-LIZSOE_clean_sbu_0--edge1-OJICUG_clean_linker_0
_symmetry_space_group_name_H-M    P1
_symmetry_Int_Tables_number       1
_symmetry_cell_setting            triclinic
loop_
_symmetry_equiv_pos_as_xyz
'x, y, z'
_cell_length_a     11.267486
_cell_length_b     29.447729
_cell_length_c     18.281355
_cell_angle_alpha  85.885859
_cell_angle_beta   119.7413
_cell_angle_gamma 92.565311
loop_
_atom_site_label
_atom_site_type_symbol
_atom_site_fract_x
_atom_site_fract_y
_atom_site_fract_z
_atom_type_partial_charge
Co0 Co 0.07537 0.22193 0.13849 0.0
N1 N 0.11829 0.23509 0.05512 0.0
C2 C 1.00846 0.24459 0.97908 0.0
N3 N 0.18498 0.24745 0.95863 0.0
C4 C 0.22585 0.23826 1.04119 0.0
C5 C 1.04848 0.25193 0.91987 0.0
Co6 Co 0.15198 0.13815 0.48742 0.0
N7 N 0.17353 0.15578 0.59048 0.0
N8 N 0.23224 0.17739 0.71838 0.0
C9 C 0.09976 0.16512 0.68027 0.0
C10 C 0.06435 0.15165 0.6023 0.0
C11 C 0.27607 0.17126 0.66353 0.0
Co12 Co 0.08162 0.16888 0.30332 0.0
C13 C 0.17672 0.10433 0.47701 0.0
H14 H 0.96403 0.13986 0.55644 0.0
O15 O 1.01805 0.21654 0.20827 0.0
O16 O 0.11347 0.22286 0.37407 0.0
O17 O 0.27674 0.1716 0.33167 0.0
O18 O 1.04262 0.12031 0.21681 0.0
O19 O 1.0196 0.1634 0.1024 0.0
O20 O 0.26291 0.19049 0.49048 0.0
O21 O 0.13022 0.11609 0.39486 0.0
O22 O 0.97364 0.1695 0.42665 0.0
O23 O 0.25004 0.19902 0.20911 0.0
O24 O 0.13526 0.27484 0.18549 0.0
O25 O 0.89513 0.16438 0.28777 0.0
O26 O 0.30691 0.10808 0.5323 0.0
C27 C 0.32389 0.18175 0.28261 0.0
C28 C 0.42232 0.17787 0.68517 0.0
H29 H 0.44119 0.16883 0.63425 0.0
H30 H 0.45369 0.21368 0.70097 0.0
H31 H 0.48761 0.15639 0.74295 0.0
C32 C 0.21236 0.22638 0.44747 0.0
C33 C 1.02044 0.12478 0.13944 0.0
H34 H 0.9044 0.24437 0.96732 0.0
H35 H 0.43851 0.25491 0.08718 0.0
H36 H 0.40444 0.1998 0.12045 0.0
H37 H 0.38913 0.24964 0.16738 0.0
C38 C 0.37297 0.23569 0.10844 0.0
C39 C 1.03341 0.26066 0.1957 0.0
C40 C 0.87525 0.16979 0.34997 0.0
H41 H 0.98124 0.25668 0.85238 0.0
H42 H 1.03207 0.16793 0.70589 0.0
Co43 Co 0.88241 0.96072 0.61073 0.0
N44 N 0.80483 0.93916 0.50101 0.0
C45 C 0.6672 0.9365 0.45163 0.0
N46 N 0.75222 0.9124 0.37759 0.0
C47 C 0.8543 0.92509 0.45288 0.0
C48 C 0.63489 0.91983 0.37622 0.0
Co49 Co 0.91684 0.87376 0.93146 0.0
N50 N 0.82082 0.86618 0.98974 0.0
N51 N 0.75081 0.86885 0.08399 0.0
C52 C 0.65234 0.84802 1.01745 0.0
C53 C 0.69567 0.84626 0.95968 0.0
C54 C 0.85279 0.87902 0.06707 0.0
Co55 Co 0.97426 0.93038 0.79517 0.0
C56 C 0.11452 0.87257 0.96442 0.0
H57 H 0.63851 0.83111 0.89943 0.0
O58 O 0.94478 0.98418 0.70839 0.0
O59 O 1.0263 0.97705 0.88255 0.0
O60 O 0.15467 0.92782 0.80128 0.0
O61 O 0.92716 0.87787 0.72173 0.0
O62 O 0.76456 0.91463 0.62411 0.0
O63 O 0.91379 0.93907 0.94005 0.0
O64 O 1.02026 0.87831 0.88421 0.0
O65 O 0.75178 0.87233 0.83005 0.0
O66 O 0.05424 0.92283 0.65853 0.0
O67 O 0.74837 0.99902 0.58169 0.0
O68 O 0.77788 0.9363 0.7703 0.0
O69 O 0.07722 0.87444 1.02049 0.0
C70 C 0.16132 0.92162 0.73377 0.0
C71 C 0.99148 0.8964 0.13128 0.0
H72 H 1.02733 0.92456 0.10349 0.0
H73 H 0.99343 0.90839 0.18782 0.0
H74 H 0.06569 0.86819 0.15346 0.0
C75 C 0.97283 0.97536 0.9309 0.0
C76 C 0.82044 0.877 0.6522 0.0
H77 H 0.59388 0.94581 0.46963 0.0
H78 H 1.01815 0.92921 0.42349 0.0
H79 H 1.04548 0.89119 0.51162 0.0
H80 H 0.05924 0.95178 0.52308 0.0
C81 C 1.00299 0.92465 0.47908 0.0
C82 C 0.88208 0.99607 0.62564 0.0
C83 C 0.70064 0.90598 0.77871 0.0
H84 H 0.53341 0.91463 0.32342 0.0
H85 H 0.55606 0.83543 1.01111 0.0
Co86 Co 0.66321 0.71013 0.13535 0.0
N87 N 0.73926 0.70154 0.06727 0.0
C88 C 0.69292 0.66825 1.01225 0.0
N89 N 0.86244 0.70155 1.00111 0.0
C90 C 0.84231 0.72185 0.05839 0.0
C91 C 0.76814 0.66795 0.97259 0.0
Co92 Co 0.69547 0.6612 0.48304 0.0
N93 N 0.73439 0.69261 0.58057 0.0
N94 N 0.82419 0.7243 0.70596 0.0
C95 C 0.68822 0.73072 0.66366 0.0
C96 C 0.63391 0.71101 0.58824 0.0
C97 C 0.85014 0.70096 0.65413 0.0
Co98 Co 0.62265 0.67599 0.29484 0.0
C99 C 0.70767 0.62454 0.4803 0.0
H100 H 0.52599 0.70848 0.54387 0.0
O101 O 0.57591 0.71907 0.19108 0.0
O102 O 0.66346 0.73515 0.35372 0.0
O103 O 0.82045 0.67163 0.32242 0.0
O104 O 0.57189 0.62047 0.22575 0.0
O105 O 0.67816 0.64645 0.15724 0.0
O106 O 0.81684 0.70377 0.46741 0.0
O107 O 0.66042 0.6298 0.39672 0.0
O108 O 0.52413 0.69591 0.41552 0.0
O109 O 0.8322 0.71914 0.22555 0.0
O110 O 0.49568 0.70192 0.05566 0.0
O111 O 0.43725 0.67965 0.27966 0.0
O112 O 0.8393 0.62648 0.53392 0.0
C113 C 0.88869 0.69638 0.29539 0.0
C114 C 0.98999 0.6861 0.67564 0.0
H115 H 1.00466 0.69089 0.62004 0.0
H116 H 0.07052 0.70561 0.72759 0.0
H117 H 1.00152 0.64934 0.69562 0.0
C118 C 0.76329 0.73971 0.42628 0.0
C119 C 0.6225 0.61415 0.17848 0.0
H120 H 0.60729 0.64587 1.00029 0.0
H121 H 0.97279 0.78138 0.07676 0.0
H122 H 1.01514 0.74543 0.16911 0.0
H123 H 0.86828 0.78121 0.12712 0.0
C124 C 0.92865 0.76006 0.10996 0.0
C125 C 0.47611 0.71989 0.11164 0.0
C126 C 0.42251 0.69161 0.34092 0.0
H127 H 0.7485 0.6466 0.92179 0.0
H128 H 0.63006 0.74526 0.68871 0.0
Co129 Co 0.42068 0.47614 0.60348 0.0
N130 N 0.36443 0.45716 0.49422 0.0
C131 C 0.23364 0.44448 0.44144 0.0
N132 N 0.34848 0.43163 0.37819 0.0
C133 C 0.43106 0.45068 0.45175 0.0
C134 C 0.22449 0.42761 0.3712 0.0
Co135 Co 0.51095 0.38033 0.94177 0.0
N136 N 0.44473 0.36436 1.01507 0.0
N137 N 0.41959 0.36014 0.12882 0.0
C138 C 0.30125 0.34709 0.06305 0.0
C139 C 0.31727 0.34927 0.99349 0.0
C140 C 0.5055 0.37002 0.09849 0.0
Co141 Co 0.50754 0.4415 0.78568 0.0
C142 C 0.56329 0.35233 0.91417 0.0
H143 H 0.23706 0.34406 0.93001 0.0
O144 O 0.46366 0.49723 0.70079 0.0
O145 O 0.54987 0.48584 0.87835 0.0
O146 O 0.68975 0.44619 0.79675 0.0
O147 O 0.47291 0.39024 0.70983 0.0
O148 O 0.30692 0.42519 0.60826 0.0
O149 O 0.56933 0.43779 0.98705 0.0
O150 O 0.57883 0.39082 0.87668 0.0
O151 O 0.3394 0.40499 0.87229 0.0
O152 O 0.60256 0.44293 0.6558 0.0
O153 O 0.27441 0.50921 0.56937 0.0
O154 O 0.31066 0.43987 0.75624 0.0
O155 O 0.44869 0.32965 0.88509 0.0
C156 C 0.7054 0.44172 0.73245 0.0
C157 C 0.64873 0.38754 0.15048 0.0
H158 H 0.71232 0.37971 0.12268 0.0
H159 H 0.64745 0.42501 0.15282 0.0
H160 H 0.69475 0.37243 0.21608 0.0
C161 C 0.57348 0.47767 0.95551 0.0
C162 C 0.36545 0.3883 0.64036 0.0
H163 H 0.15025 0.44604 0.45445 0.0
H164 H 0.57518 0.49105 0.43136 0.0
H165 H 0.63445 0.43603 0.48076 0.0
H166 H 0.62375 0.4814 0.54032 0.0
C167 C 0.57508 0.46553 0.47898 0.0
C168 C 0.40767 0.51009 0.61867 0.0
C169 C 0.2636 0.42557 0.8033 0.0
H170 H 0.13497 0.41273 0.31969 0.0
H171 H 0.2064 0.34061 0.06376 0.0
C172 C 0.32703 0.19807 0.93202 0.0
C173 C 0.25685 0.23922 0.91477 0.0
H174 H 0.37816 0.14523 0.87831 0.0
C175 C 0.22528 0.26532 0.84031 0.0
H176 H 0.34908 0.17654 0.98762 0.0
C177 C 0.24833 0.24811 0.77982 0.0
C178 C 0.29357 0.20339 0.79089 0.0
H179 H 0.16826 0.2965 0.8244 0.0
H180 H 0.20736 0.26614 0.71851 0.0
C181 C 0.34479 0.1801 0.86976 0.0
C182 C 0.74223 0.85551 0.28442 0.0
C183 C 0.75974 0.90086 0.30624 0.0
H184 H 0.7253 0.80962 0.19357 0.0
C185 C 0.7669 0.9357 0.25256 0.0
H186 H 0.73242 0.82878 0.32479 0.0
C187 C 0.75869 0.92514 0.17749 0.0
C188 C 0.74572 0.87963 0.15678 0.0
H189 H 0.7765 0.97091 0.26847 0.0
H190 H 0.76495 0.95216 0.13607 0.0
C191 C 0.73599 0.8448 0.20973 0.0
C192 C 0.98807 0.68601 0.92953 0.0
C193 C 0.93068 0.71817 0.95575 0.0
H194 H 0.99459 0.66182 0.82466 0.0
C195 C 0.89045 0.76016 0.90976 0.0
H196 H 1.021 0.6535 0.96464 0.0
C197 C 0.87878 0.76566 0.83008 0.0
C198 C 0.90533 0.72898 0.79545 0.0
H199 H 0.84581 0.78552 0.92815 0.0
H200 H 0.8289 0.7957 0.79045 0.0
C201 C 0.97302 0.6909 0.84886 0.0
C202 C 0.44388 0.42383 0.21325 0.0
C203 C 0.42839 0.37684 0.20231 0.0
H204 H 0.42909 0.47835 0.27968 0.0
C205 C 0.39751 0.3478 0.25459 0.0
H206 H 0.46234 0.44681 0.17092 0.0
C207 C 0.37601 0.36588 0.31509 0.0
C208 C 0.38645 0.41298 0.32359 0.0
H209 H 0.38446 0.31161 0.24591 0.0
H210 H 0.34692 0.34355 0.35345 0.0
C211 C 0.42363 0.44185 0.27421 0.0
C212 C 0.62949 0.14779 0.27064 0.0
C213 C 0.73482 0.17189 0.33542 0.0
H214 H 0.41666 0.13003 0.20686 0.0
C215 C 0.7065 0.19493 0.38984 0.0
H216 H 0.64932 0.12861 0.22948 0.0
C217 C 0.57293 0.19607 0.37627 0.0
C218 C 0.46726 0.17347 0.30916 0.0
H219 H 0.78684 0.21305 0.44134 0.0
H220 H 0.55127 0.21606 0.4157 0.0
C221 C 0.49728 0.148 0.25857 0.0
C222 C 0.53271 0.94621 0.79973 0.0
C223 C 0.55782 0.91571 0.75354 0.0
H224 H 0.38864 0.97076 0.83149 0.0
C225 C 0.45119 0.88705 0.69995 0.0
H226 H 0.61462 0.96746 0.84379 0.0
C227 C 0.3212 0.88913 0.69234 0.0
C228 C 0.2977 0.9185 0.74105 0.0
H229 H 0.46975 0.86211 0.66608 0.0
H230 H 0.2407 0.86661 0.65092 0.0
C231 C 0.40443 0.94729 0.79417 0.0
C232 C 0.06494 0.65643 0.2862 0.0
C233 C 1.0329 0.68837 0.32697 0.0
H234 H 0.21183 0.6341 0.25514 0.0
C235 C 0.12944 0.72177 0.3722 0.0
H236 H 0.98926 0.63161 0.248 0.0
C237 C 0.25651 0.72337 0.37596 0.0
C238 C 0.28585 0.69271 0.33171 0.0
H239 H 0.10391 0.74789 0.4008 0.0
H240 H 0.33027 0.74934 0.41128 0.0
C241 C 0.18991 0.65886 0.2878 0.0
C242 C 0.87547 0.42932 0.68311 0.0
C243 C 0.84738 0.43704 0.74817 0.0
H244 H 1.02982 0.42094 0.64832 0.0
C245 C 0.95812 0.44219 0.82989 0.0
H246 H 0.79343 0.42374 0.62037 0.0
C247 C 0.09224 0.43967 0.8461 0.0
C248 C 0.12027 0.43246 0.7811 0.0
H249 H 0.94181 0.44824 0.88198 0.0
H250 H 0.17475 0.4433 0.91014 0.0
C251 C 1.01084 0.42764 0.69911 0.0
C252 C 0.19355 0.34262 0.51966 0.0
C253 C 0.32561 0.3472 0.58973 0.0
H254 H 0.05437 0.3014 0.41835 0.0
C255 C 0.42148 0.31314 0.60829 0.0
H256 H 0.11689 0.3681 0.50381 0.0
C257 C 0.38597 0.27534 0.55882 0.0
C258 C 0.25322 0.27011 0.49019 0.0
H259 H 0.5246 0.31584 0.66077 0.0
H260 H 0.4624 0.24969 0.57504 0.0
C261 C 0.15786 0.3046 0.47019 0.0
C262 C 0.67026 0.28572 1.02064 0.0
C263 C 0.68617 0.32854 0.98601 0.0
H264 H 0.76363 0.23137 0.115 0.0
C265 C 0.81319 0.35081 1.02786 0.0
H266 H 0.57304 0.26778 0.99172 0.0
C267 C 0.92127 0.33065 0.10137 0.0
C268 C 0.90769 0.28672 0.13386 0.0
H269 H 0.82833 0.38433 1.00508 0.0
H270 H 1.01815 0.34884 0.13085 0.0
C271 C 0.77915 0.26508 0.0931 0.0
C272 C 0.90589 0.78853 0.54544 0.0
C273 C 0.77818 0.77959 0.47519 0.0
H274 H 1.01857 0.82484 0.65748 0.0
C275 C 0.66325 0.80308 0.46307 0.0
H276 H 0.9959 0.77065 0.55668 0.0
C277 C 0.67579 0.83389 0.52176 0.0
C278 C 0.80345 0.84206 0.59298 0.0
H279 H 0.56292 0.79617 0.41046 0.0
H280 H 0.58561 0.85114 0.51179 0.0
C281 C 0.91832 0.81906 0.60391 0.0
C282 C 0.40306 0.79817 0.12063 0.0
C283 C 0.38198 0.75957 0.07473 0.0
H284 H 0.34247 0.86625 0.11917 0.0
C285 C 0.2871 0.76271 0.98709 0.0
H286 H 0.47726 0.79777 0.1873 0.0
C287 C 0.21333 0.8026 0.94721 0.0
C288 C 0.22903 0.84022 0.99403 0.0
H289 H 0.26982 0.73413 0.94869 0.0
H290 H 0.13768 0.80283 0.88088 0.0
C291 C 0.32875 0.838 0.08071 0.0
C292 C 0.93307 1.04591 0.08624 0.0
C293 C 1.01198 0.08482 0.09071 0.0
H294 H 0.85243 0.98261 1.02904 0.0
C295 C 0.07651 0.08788 1.04087 0.0
H296 H 0.88011 1.0427 0.12222 0.0
C297 C 0.06329 1.0531 0.98842 0.0
C298 C 0.98342 1.01424 0.98309 0.0
H299 H 0.13824 0.11753 1.04252 0.0
H300 H 0.11607 0.05667 0.95235 0.0
C301 C 0.91731 1.01151 1.03223 0.0
C302 C 0.172 1.04949 0.59115 0.0
C303 C 0.10246 0.06771 0.50625 0.0
H304 H 0.16018 1.01698 0.69648 0.0
C305 C 0.95947 0.06259 0.4621 0.0
H306 H 0.28194 1.0528 0.62911 0.0
C307 C 0.88908 1.04245 0.50244 0.0
C308 C 0.95866 1.02623 0.58845 0.0
H309 H 0.90104 0.07607 0.39753 0.0
H310 H 0.77905 1.03907 0.46527 0.0
C311 C 0.10173 1.02977 0.63145 0.0
C312 C 0.71052 0.54529 0.15064 0.0
C313 C 0.59874 0.57276 0.13145 0.0
H314 H 0.79096 0.49418 0.10923 0.0
C315 C 0.48175 0.57058 0.05113 0.0
H316 H 0.80438 0.54774 0.21035 0.0
C317 C 0.47719 0.542 0.99132 0.0
C318 C 0.58958 0.51489 1.01043 0.0
H319 H 0.39648 0.59291 1.03297 0.0
H320 H 0.38478 0.54045 0.93064 0.0
C321 C 0.70481 0.51599 0.0916 0.0
C322 C 0.41587 0.56242 0.50243 0.0
C323 C 0.48163 0.54591 0.58829 0.0
H324 H 0.43359 0.5969 0.40027 0.0
C325 C 0.62226 0.55489 0.63702 0.0
H326 H 0.30811 0.55573 0.46141 0.0
C327 C 0.69448 0.57841 0.60104 0.0
C328 C 0.62972 0.59344 0.51437 0.0
H329 H 0.67787 0.54241 0.70243 0.0
H330 H 0.80236 0.58482 0.64209 0.0
C331 C 0.48851 0.58537 0.46616 0.0
loop_
_geom_bond_atom_site_label_1
_geom_bond_atom_site_label_2
_geom_bond_distance
_geom_bond_site_symmetry_2
_ccdc_geom_bond_type
Co0 N1 2.034 1_554 S
Co0 O15 2.262 1_455 S
Co0 O19 1.958 1_455 S
Co0 O23 1.950 . S
Co0 O24 2.057 1_455 S
N1 Co0 2.034 1_556 S
N1 C2 1.366 . S
N1 C4 1.332 . S
C2 N1 1.366 . S
C2 C5 1.377 . S
C2 H34 0.931 1_455 S
N3 C4 1.346 . S
N3 C5 1.337 . S
C4 N1 1.332 . S
C4 N3 1.346 . S
C4 C38 1.361 1_556 S
C5 C2 1.377 . S
C5 N3 1.337 . S
C5 H41 0.930 . S
Co6 N7 2.034 . S
Co6 O20 1.950 1_655 S
Co6 O21 2.262 1_655 S
Co6 O22 1.958 . S
Co6 O26 2.057 1_655 S
N7 Co6 2.034 . S
N7 C10 1.366 . S
N7 C11 1.332 . S
N8 C9 1.337 . S
N8 C11 1.346 . S
C9 N8 1.337 . S
C9 C10 1.377 . S
C9 H42 0.930 . S
C10 N7 1.366 . S
C10 C9 1.377 . S
C10 H14 0.931 . S
C11 N7 1.332 . S
C11 N8 1.346 . S
C11 C28 1.361 1_655 S
Co12 O15 2.097 . S
Co12 O16 2.065 1_655 S
Co12 O17 2.065 1_655 S
Co12 O18 2.042 . S
Co12 O21 2.097 1_655 S
Co12 O25 2.042 . S
C13 O21 1.253 . S
C13 O26 1.263 . S
H14 C10 0.931 . S
O15 Co0 2.262 1_655 S
O15 Co12 2.097 . S
O15 C39 1.253 . S
O16 Co12 2.065 1_455 S
O16 C32 1.221 . S
O17 Co12 2.065 1_455 S
O17 C27 1.221 . S
O18 Co12 2.042 . S
O18 C33 1.237 . S
O19 Co0 1.958 1_655 S
O19 C33 1.278 . S
O20 Co6 1.950 1_455 S
O20 C32 1.277 . S
O21 Co6 2.262 1_455 S
O21 Co12 2.097 1_455 S
O21 C13 1.253 . S
O22 Co6 1.958 . S
O22 C40 1.278 . S
O23 Co0 1.950 . S
O23 C27 1.277 . S
O24 Co0 2.057 1_655 S
O24 C39 1.263 . S
O25 Co12 2.042 . S
O25 C40 1.237 . S
O26 Co6 2.057 1_455 S
O26 C13 1.263 . S
C27 O17 1.221 . S
C27 O23 1.277 . S
C28 C11 1.361 1_455 S
C28 H29 0.960 . S
C28 H30 0.961 . S
C28 H31 0.961 . S
H29 C28 0.960 . S
H30 C28 0.961 . S
H31 C28 0.961 . S
C32 O16 1.221 . S
C32 O20 1.277 . S
C33 O18 1.237 . S
C33 O19 1.278 . S
H34 C2 0.931 1_655 S
H35 C38 0.961 1_556 S
H36 C38 0.961 . S
H37 C38 0.960 . S
C38 C4 1.361 1_554 S
C38 H35 0.961 1_554 S
C38 H36 0.961 . S
C38 H37 0.960 . S
C39 O15 1.253 . S
C39 O24 1.263 . S
C40 O22 1.278 . S
C40 O25 1.237 . S
H41 C5 0.930 . S
H42 C9 0.930 . S
Co43 N44 2.034 . S
Co43 O58 2.262 1_455 S
Co43 O62 1.958 1_455 S
Co43 O66 1.950 . S
Co43 O67 2.057 1_455 S
N44 Co43 2.034 . S
N44 C45 1.366 . S
N44 C47 1.332 . S
C45 N44 1.366 . S
C45 C48 1.377 . S
C45 H77 0.931 1_455 S
N46 C47 1.346 . S
N46 C48 1.337 . S
C47 N44 1.332 . S
C47 N46 1.346 . S
C47 C81 1.361 . S
C48 C45 1.377 . S
C48 N46 1.337 . S
C48 H84 0.930 . S
Co49 N50 2.034 . S
Co49 O63 1.950 1_655 S
Co49 O64 2.262 1_655 S
Co49 O65 1.958 . S
Co49 O69 2.057 1_655 S
N50 Co49 2.034 . S
N50 C53 1.366 . S
N50 C54 1.332 1_556 S
N51 C52 1.337 . S
N51 C54 1.346 . S
C52 N51 1.337 . S
C52 C53 1.377 1_554 S
C52 H85 0.930 . S
C53 N50 1.366 . S
C53 C52 1.377 1_556 S
C53 H57 0.931 . S
C54 N50 1.332 1_554 S
C54 N51 1.346 . S
C54 C71 1.361 1_655 S
Co55 O58 2.097 . S
Co55 O59 2.065 1_655 S
Co55 O60 2.065 1_655 S
Co55 O61 2.042 . S
Co55 O64 2.097 1_655 S
Co55 O68 2.042 . S
C56 O64 1.253 . S
C56 O69 1.263 . S
H57 C53 0.931 . S
O58 Co43 2.262 1_655 S
O58 Co55 2.097 . S
O58 C82 1.253 . S
O59 Co55 2.065 1_455 S
O59 C75 1.221 . S
O60 Co55 2.065 1_455 S
O60 C70 1.221 . S
O61 Co55 2.042 . S
O61 C76 1.237 . S
O62 Co43 1.958 1_655 S
O62 C76 1.278 . S
O63 Co49 1.950 1_455 S
O63 C75 1.277 . S
O64 Co49 2.262 1_455 S
O64 Co55 2.097 1_455 S
O64 C56 1.253 . S
O65 Co49 1.958 . S
O65 C83 1.278 . S
O66 Co43 1.950 . S
O66 C70 1.277 . S
O67 Co43 2.057 1_655 S
O67 C82 1.263 . S
O68 Co55 2.042 . S
O68 C83 1.237 . S
O69 Co49 2.057 1_455 S
O69 C56 1.263 . S
C70 O60 1.221 . S
C70 O66 1.277 . S
C71 C54 1.361 1_455 S
C71 H72 0.960 . S
C71 H73 0.961 . S
C71 H74 0.961 . S
H72 C71 0.960 . S
H73 C71 0.961 . S
H74 C71 0.961 . S
C75 O59 1.221 . S
C75 O63 1.277 . S
C76 O61 1.237 . S
C76 O62 1.278 . S
H77 C45 0.931 1_655 S
H78 C81 0.961 . S
H79 C81 0.961 . S
H80 C81 0.960 . S
C81 C47 1.361 . S
C81 H78 0.961 . S
C81 H79 0.961 . S
C81 H80 0.960 . S
C82 O58 1.253 . S
C82 O67 1.263 . S
C83 O65 1.278 . S
C83 O68 1.237 . S
H84 C48 0.930 . S
H85 C52 0.930 . S
Co86 N87 2.034 1_554 S
Co86 O101 2.262 . S
Co86 O105 1.958 . S
Co86 O109 1.950 . S
Co86 O110 2.057 . S
N87 Co86 2.034 1_556 S
N87 C88 1.366 . S
N87 C90 1.332 . S
C88 N87 1.366 . S
C88 C91 1.377 . S
C88 H120 0.931 . S
N89 C90 1.346 . S
N89 C91 1.337 . S
C90 N87 1.332 . S
C90 N89 1.346 . S
C90 C124 1.361 1_556 S
C91 C88 1.377 . S
C91 N89 1.337 . S
C91 H127 0.930 . S
Co92 N93 2.034 . S
Co92 O106 1.950 . S
Co92 O107 2.262 . S
Co92 O108 1.958 . S
Co92 O112 2.057 . S
N93 Co92 2.034 . S
N93 C96 1.366 . S
N93 C97 1.332 . S
N94 C95 1.337 . S
N94 C97 1.346 . S
C95 N94 1.337 . S
C95 C96 1.377 . S
C95 H128 0.930 . S
C96 N93 1.366 . S
C96 C95 1.377 . S
C96 H100 0.931 . S
C97 N93 1.332 . S
C97 N94 1.346 . S
C97 C114 1.361 . S
Co98 O101 2.097 . S
Co98 O102 2.065 . S
Co98 O103 2.065 . S
Co98 O104 2.042 . S
Co98 O107 2.097 . S
Co98 O111 2.042 . S
C99 O107 1.253 . S
C99 O112 1.263 . S
H100 C96 0.931 . S
O101 Co86 2.262 . S
O101 Co98 2.097 . S
O101 C125 1.253 . S
O102 Co98 2.065 . S
O102 C118 1.221 . S
O103 Co98 2.065 . S
O103 C113 1.221 . S
O104 Co98 2.042 . S
O104 C119 1.237 . S
O105 Co86 1.958 . S
O105 C119 1.278 . S
O106 Co92 1.950 . S
O106 C118 1.277 . S
O107 Co92 2.262 . S
O107 Co98 2.097 . S
O107 C99 1.253 . S
O108 Co92 1.958 . S
O108 C126 1.278 . S
O109 Co86 1.950 . S
O109 C113 1.277 . S
O110 Co86 2.057 . S
O110 C125 1.263 . S
O111 Co98 2.042 . S
O111 C126 1.237 . S
O112 Co92 2.057 . S
O112 C99 1.263 . S
C113 O103 1.221 . S
C113 O109 1.277 . S
C114 C97 1.361 . S
C114 H115 0.960 . S
C114 H116 0.961 . S
C114 H117 0.961 . S
H115 C114 0.960 . S
H116 C114 0.961 . S
H117 C114 0.961 . S
C118 O102 1.221 . S
C118 O106 1.277 . S
C119 O104 1.237 . S
C119 O105 1.278 . S
H120 C88 0.931 . S
H121 C124 0.961 1_556 S
H122 C124 0.961 . S
H123 C124 0.960 . S
C124 C90 1.361 1_554 S
C124 H121 0.961 1_554 S
C124 H122 0.961 . S
C124 H123 0.960 . S
C125 O101 1.253 . S
C125 O110 1.263 . S
C126 O108 1.278 . S
C126 O111 1.237 . S
H127 C91 0.930 . S
H128 C95 0.930 . S
Co129 N130 2.034 . S
Co129 O144 2.262 . S
Co129 O148 1.958 . S
Co129 O152 1.950 . S
Co129 O153 2.057 . S
N130 Co129 2.034 . S
N130 C131 1.366 . S
N130 C133 1.332 . S
C131 N130 1.366 . S
C131 C134 1.377 . S
C131 H163 0.931 . S
N132 C133 1.346 . S
N132 C134 1.337 . S
C133 N130 1.332 . S
C133 N132 1.346 . S
C133 C167 1.361 . S
C134 C131 1.377 . S
C134 N132 1.337 . S
C134 H170 0.930 . S
Co135 N136 2.034 . S
Co135 O149 1.950 . S
Co135 O150 2.262 . S
Co135 O151 1.958 . S
Co135 O155 2.057 . S
N136 Co135 2.034 . S
N136 C139 1.366 . S
N136 C140 1.332 1_556 S
N137 C138 1.337 . S
N137 C140 1.346 . S
C138 N137 1.337 . S
C138 C139 1.377 1_554 S
C138 H171 0.930 . S
C139 N136 1.366 . S
C139 C138 1.377 1_556 S
C139 H143 0.931 . S
C140 N136 1.332 1_554 S
C140 N137 1.346 . S
C140 C157 1.361 . S
Co141 O144 2.097 . S
Co141 O145 2.065 . S
Co141 O146 2.065 . S
Co141 O147 2.042 . S
Co141 O150 2.097 . S
Co141 O154 2.042 . S
C142 O150 1.253 . S
C142 O155 1.263 . S
H143 C139 0.931 . S
O144 Co129 2.262 . S
O144 Co141 2.097 . S
O144 C168 1.253 . S
O145 Co141 2.065 . S
O145 C161 1.221 . S
O146 Co141 2.065 . S
O146 C156 1.221 . S
O147 Co141 2.042 . S
O147 C162 1.237 . S
O148 Co129 1.958 . S
O148 C162 1.278 . S
O149 Co135 1.950 . S
O149 C161 1.277 . S
O150 Co135 2.262 . S
O150 Co141 2.097 . S
O150 C142 1.253 . S
O151 Co135 1.958 . S
O151 C169 1.278 . S
O152 Co129 1.950 . S
O152 C156 1.277 . S
O153 Co129 2.057 . S
O153 C168 1.263 . S
O154 Co141 2.042 . S
O154 C169 1.237 . S
O155 Co135 2.057 . S
O155 C142 1.263 . S
C156 O146 1.221 . S
C156 O152 1.277 . S
C157 C140 1.361 . S
C157 H158 0.960 . S
C157 H159 0.961 . S
C157 H160 0.961 . S
H158 C157 0.960 . S
H159 C157 0.961 . S
H160 C157 0.961 . S
C161 O145 1.221 . S
C161 O149 1.277 . S
C162 O147 1.237 . S
C162 O148 1.278 . S
H163 C131 0.931 . S
H164 C167 0.961 . S
H165 C167 0.961 . S
H166 C167 0.960 . S
C167 C133 1.361 . S
C167 H164 0.961 . S
C167 H165 0.961 . S
C167 H166 0.960 . S
C168 O144 1.253 . S
C168 O153 1.263 . S
C169 O151 1.278 . S
C169 O154 1.237 . S
H170 C134 0.930 . S
H171 C138 0.930 . S
C172 C173 1.387 . S
C172 H176 0.950 . S
C172 C181 1.390 1_455 S
C173 C172 1.387 . S
C173 C175 1.387 . S
H174 C181 0.950 . S
C175 C173 1.387 . S
C175 C177 1.390 1_455 S
C175 H179 0.950 . S
H176 C172 0.950 . S
C177 C175 1.390 1_655 S
C177 C178 1.387 . S
C177 H180 0.950 . S
C178 C177 1.387 . S
C178 C181 1.387 . S
H179 C175 0.950 . S
H180 C177 0.950 . S
C181 C172 1.390 1_655 S
C181 H174 0.950 . S
C181 C178 1.387 . S
C182 C183 1.387 . S
C182 H186 0.950 . S
C182 C191 1.390 . S
C183 C182 1.387 . S
C183 C185 1.387 . S
H184 C191 0.950 1_655 S
C185 C183 1.387 . S
C185 C187 1.390 1_455 S
C185 H189 0.950 . S
H186 C182 0.950 . S
C187 C185 1.390 1_655 S
C187 C188 1.387 . S
C187 H190 0.950 . S
C188 C187 1.387 . S
C188 C191 1.387 1_655 S
H189 C185 0.950 . S
H190 C187 0.950 . S
C191 C182 1.390 . S
C191 H184 0.950 1_455 S
C191 C188 1.387 1_455 S
C192 C193 1.387 . S
C192 H196 0.950 . S
C192 C201 1.390 . S
C193 C192 1.387 . S
C193 C195 1.387 . S
H194 C201 0.950 . S
C195 C193 1.387 . S
C195 C197 1.390 . S
C195 H199 0.950 . S
H196 C192 0.950 . S
C197 C195 1.390 . S
C197 C198 1.387 . S
C197 H200 0.950 . S
C198 C197 1.387 . S
C198 C201 1.387 . S
H199 C195 0.950 . S
H200 C197 0.950 . S
C201 C192 1.390 . S
C201 H194 0.950 . S
C201 C198 1.387 . S
C202 C203 1.387 . S
C202 H206 0.950 . S
C202 C211 1.390 . S
C203 C202 1.387 . S
C203 C205 1.387 . S
H204 C211 0.950 . S
C205 C203 1.387 . S
C205 C207 1.390 . S
C205 H209 0.950 . S
H206 C202 0.950 . S
C207 C205 1.390 . S
C207 C208 1.387 . S
C207 H210 0.950 . S
C208 C207 1.387 . S
C208 C211 1.387 . S
H209 C205 0.950 . S
H210 C207 0.950 . S
C211 C202 1.390 . S
C211 H204 0.950 . S
C211 C208 1.387 . S
C212 C213 1.387 . S
C212 H216 0.950 . S
C212 C221 1.390 . S
C213 C212 1.387 . S
C213 C215 1.387 . S
H214 C221 0.950 . S
C215 C213 1.387 . S
C215 C217 1.390 . S
C215 H219 0.950 . S
H216 C212 0.950 . S
C217 C215 1.390 . S
C217 C218 1.387 . S
C217 H220 0.950 . S
C218 C217 1.387 . S
C218 C221 1.387 . S
H219 C215 0.950 . S
H220 C217 0.950 . S
C221 C212 1.390 . S
C221 H214 0.950 . S
C221 C218 1.387 . S
C222 C223 1.387 . S
C222 H226 0.950 . S
C222 C231 1.390 . S
C223 C222 1.387 . S
C223 C225 1.387 . S
H224 C231 0.950 . S
C225 C223 1.387 . S
C225 C227 1.390 . S
C225 H229 0.950 . S
H226 C222 0.950 . S
C227 C225 1.390 . S
C227 C228 1.387 . S
C227 H230 0.950 . S
C228 C227 1.387 . S
C228 C231 1.387 . S
H229 C225 0.950 . S
H230 C227 0.950 . S
C231 C222 1.390 . S
C231 H224 0.950 . S
C231 C228 1.387 . S
C232 C233 1.387 . S
C232 H236 0.950 . S
C232 C241 1.390 1_655 S
C233 C232 1.387 . S
C233 C235 1.387 . S
H234 C241 0.950 . S
C235 C233 1.387 . S
C235 C237 1.390 1_655 S
C235 H239 0.950 . S
H236 C232 0.950 . S
C237 C235 1.390 1_455 S
C237 C238 1.387 . S
C237 H240 0.950 . S
C238 C237 1.387 . S
C238 C241 1.387 . S
H239 C235 0.950 . S
H240 C237 0.950 . S
C241 C232 1.390 1_455 S
C241 H234 0.950 . S
C241 C238 1.387 . S
C242 C243 1.387 . S
C242 H246 0.950 . S
C242 C251 1.390 1_655 S
C243 C242 1.387 . S
C243 C245 1.387 . S
H244 C251 0.950 . S
C245 C243 1.387 . S
C245 C247 1.390 1_655 S
C245 H249 0.950 . S
H246 C242 0.950 . S
C247 C245 1.390 1_455 S
C247 C248 1.387 . S
C247 H250 0.950 . S
C248 C247 1.387 . S
C248 C251 1.387 . S
H249 C245 0.950 . S
H250 C247 0.950 . S
C251 C242 1.390 1_455 S
C251 H244 0.950 . S
C251 C248 1.387 . S
C252 C253 1.387 . S
C252 H256 0.950 . S
C252 C261 1.390 . S
C253 C252 1.387 . S
C253 C255 1.387 . S
H254 C261 0.950 . S
C255 C253 1.387 . S
C255 C257 1.390 . S
C255 H259 0.950 . S
H256 C252 0.950 . S
C257 C255 1.390 . S
C257 C258 1.387 . S
C257 H260 0.950 . S
C258 C257 1.387 . S
C258 C261 1.387 . S
H259 C255 0.950 . S
H260 C257 0.950 . S
C261 C252 1.390 . S
C261 H254 0.950 . S
C261 C258 1.387 . S
C262 C263 1.387 . S
C262 H266 0.950 . S
C262 C271 1.390 . S
C263 C262 1.387 . S
C263 C265 1.387 1_556 S
H264 C271 0.950 . S
C265 C263 1.387 1_554 S
C265 C267 1.390 . S
C265 H269 0.950 . S
H266 C262 0.950 . S
C267 C265 1.390 . S
C267 C268 1.387 . S
C267 H270 0.950 . S
C268 C267 1.387 . S
C268 C271 1.387 1_554 S
H269 C265 0.950 . S
H270 C267 0.950 . S
C271 C262 1.390 . S
C271 H264 0.950 . S
C271 C268 1.387 1_556 S
C272 C273 1.387 . S
C272 H276 0.950 . S
C272 C281 1.390 . S
C273 C272 1.387 . S
C273 C275 1.387 . S
H274 C281 0.950 . S
C275 C273 1.387 . S
C275 C277 1.390 . S
C275 H279 0.950 . S
H276 C272 0.950 . S
C277 C275 1.390 . S
C277 C278 1.387 . S
C277 H280 0.950 . S
C278 C277 1.387 . S
C278 C281 1.387 . S
H279 C275 0.950 . S
H280 C277 0.950 . S
C281 C272 1.390 . S
C281 H274 0.950 . S
C281 C278 1.387 . S
C282 C283 1.387 . S
C282 H286 0.950 . S
C282 C291 1.390 1_554 S
C283 C282 1.387 . S
C283 C285 1.387 . S
H284 C291 0.950 . S
C285 C283 1.387 . S
C285 C287 1.390 1_554 S
C285 H289 0.950 . S
H286 C282 0.950 . S
C287 C285 1.390 1_556 S
C287 C288 1.387 . S
C287 H290 0.950 . S
C288 C287 1.387 . S
C288 C291 1.387 . S
H289 C285 0.950 . S
H290 C287 0.950 . S
C291 C282 1.390 1_556 S
C291 H284 0.950 . S
C291 C288 1.387 . S
C292 C293 1.387 1_565 S
C292 H296 0.950 . S
C292 C301 1.390 1_654 S
C293 C292 1.387 1_545 S
C293 C295 1.387 . S
H294 C301 0.950 . S
C295 C293 1.387 . S
C295 C297 1.390 1_654 S
C295 H299 0.950 . S
H296 C292 0.950 . S
C297 C295 1.390 1_456 S
C297 C298 1.387 1_545 S
C297 H300 0.950 . S
C298 C297 1.387 1_565 S
C298 C301 1.387 . S
H299 C295 0.950 . S
H300 C297 0.950 . S
C301 C292 1.390 1_456 S
C301 H294 0.950 . S
C301 C298 1.387 . S
C302 C303 1.392 . S
C302 H306 0.950 . S
C302 C311 1.385 1_455 S
C303 C302 1.392 . S
C303 C305 1.387 1_545 S
H304 C311 0.950 . S
C305 C303 1.387 1_565 S
C305 C307 1.390 1_455 S
C305 H309 0.950 . S
H306 C302 0.950 . S
C307 C305 1.390 1_655 S
C307 C308 1.387 . S
C307 H310 0.950 . S
C308 C307 1.387 . S
C308 C311 1.387 1_565 S
H309 C305 0.950 . S
H310 C307 0.950 . S
C311 C302 1.385 1_655 S
C311 H304 0.950 . S
C311 C308 1.387 1_545 S
C312 C313 1.387 . S
C312 H316 0.950 . S
C312 C321 1.390 . S
C313 C312 1.387 . S
C313 C315 1.387 1_554 S
H314 C321 0.950 . S
C315 C313 1.387 1_556 S
C315 C317 1.390 . S
C315 H319 0.950 . S
H316 C312 0.950 . S
C317 C315 1.390 . S
C317 C318 1.387 . S
C317 H320 0.950 . S
C318 C317 1.387 . S
C318 C321 1.387 1_556 S
H319 C315 0.950 . S
H320 C317 0.950 . S
C321 C312 1.390 . S
C321 H314 0.950 . S
C321 C318 1.387 1_554 S
C322 C323 1.387 . S
C322 H326 0.950 . S
C322 C331 1.390 . S
C323 C322 1.387 . S
C323 C325 1.387 . S
H324 C331 0.950 . S
C325 C323 1.387 . S
C325 C327 1.390 . S
C325 H329 0.950 . S
H326 C322 0.950 . S
C327 C325 1.390 . S
C327 C328 1.387 . S
C327 H330 0.950 . S
C328 C327 1.387 . S
C328 C331 1.387 . S
H329 C325 0.950 . S
H330 C327 0.950 . S
C331 C322 1.390 . S
C331 H324 0.950 . S
C331 C328 1.387 . S
C173 N3 1.117 . S
C178 N8 1.208 . S
C183 N46 1.131 . S
C188 N51 1.226 . S
C193 N89 1.117 . S
C198 N94 1.208 . S
C203 N137 1.223 . S
C208 N132 1.126 . S
C213 C40 1.308 . S
C218 C27 1.311 . S
C223 C83 1.303 . S
C228 C70 1.306 . S
C233 C113 1.310 . S
C238 C126 1.308 . S
C243 C156 1.310 . S
C248 C169 1.308 . S
C253 C162 1.642 . S
C258 C32 1.657 . S
C263 C142 1.634 . S
C268 C39 1.624 . S
C273 C118 1.655 . S
C278 C76 1.641 . S
C283 C125 1.626 . S
C288 C56 1.637 . S
C293 C33 2.079 . S
C298 C75 2.047 . S
C303 C13 1.972 . S
C308 C82 2.006 . S
C313 C119 2.079 . S
C318 C161 2.047 . S
C323 C168 2.005 . S
C328 C99 1.971 . S
