# Generated by pormake.
# Topology crs, (6)-cn, num edge types: 1
# Building blocks:
#     Node 0, Type 0, BuildingBlock: MAKGUD_clean_sbu_1, # of connection points: 6
#     Node 1, Type 0, BuildingBlock: MAKGUD_clean_sbu_1, # of connection points: 6
#     Node 2, Type 0, BuildingBlock: MAKGUD_clean_sbu_1, # of connection points: 6
#     Node 3, Type 0, BuildingBlock: MAKGUD_clean_sbu_1, # of connection points: 6
#     Node 4, Type 0, BuildingBlock: MAKGUD_clean_sbu_1, # of connection points: 6
#     Node 5, Type 0, BuildingBlock: MAKGUD_clean_sbu_1, # of connection points: 6
#     Node 6, Type 0, BuildingBlock: MAKGUD_clean_sbu_1, # of connection points: 6
#     Node 7, Type 0, BuildingBlock: MAKGUD_clean_sbu_1, # of connection points: 6
#     Node 8, Type 0, BuildingBlock: MAKGUD_clean_sbu_1, # of connection points: 6
#     Node 9, Type 0, BuildingBlock: MAKGUD_clean_sbu_1, # of connection points: 6
#     Node 10, Type 0, BuildingBlock: MAKGUD_clean_sbu_1, # of connection points: 6
#     Node 11, Type 0, BuildingBlock: MAKGUD_clean_sbu_1, # of connection points: 6
#     Node 12, Type 0, BuildingBlock: MAKGUD_clean_sbu_1, # of connection points: 6
#     Node 13, Type 0, BuildingBlock: MAKGUD_clean_sbu_1, # of connection points: 6
#     Node 14, Type 0, BuildingBlock: MAKGUD_clean_sbu_1, # of connection points: 6
#     Node 15, Type 0, BuildingBlock: MAKGUD_clean_sbu_1, # of connection points: 6
#     Edge 16, Type (0, 0), BuildingBlock: XIVTED_clean_linker_0, # of connection points: 2
#     Edge 17, Type (0, 0), BuildingBlock: XIVTED_clean_linker_0, # of connection points: 2
#     Edge 18, Type (0, 0), BuildingBlock: XIVTED_clean_linker_0, # of connection points: 2
#     Edge 19, Type (0, 0), BuildingBlock: XIVTED_clean_linker_0, # of connection points: 2
#     Edge 20, Type (0, 0), BuildingBlock: XIVTED_clean_linker_0, # of connection points: 2
#     Edge 21, Type (0, 0), BuildingBlock: XIVTED_clean_linker_0, # of connection points: 2
#     Edge 22, Type (0, 0), BuildingBlock: XIVTED_clean_linker_0, # of connection points: 2
#     Edge 23, Type (0, 0), BuildingBlock: XIVTED_clean_linker_0, # of connection points: 2
#     Edge 24, Type (0, 0), BuildingBlock: XIVTED_clean_linker_0, # of connection points: 2
#     Edge 25, Type (0, 0), BuildingBlock: XIVTED_clean_linker_0, # of connection points: 2
#     Edge 26, Type (0, 0), BuildingBlock: XIVTED_clean_linker_0, # of connection points: 2
#     Edge 27, Type (0, 0), BuildingBlock: XIVTED_clean_linker_0, # of connection points: 2
#     Edge 28, Type (0, 0), BuildingBlock: XIVTED_clean_linker_0, # of connection points: 2
#     Edge 29, Type (0, 0), BuildingBlock: XIVTED_clean_linker_0, # of connection points: 2
#     Edge 30, Type (0, 0), BuildingBlock: XIVTED_clean_linker_0, # of connection points: 2
#     Edge 31, Type (0, 0), BuildingBlock: XIVTED_clean_linker_0, # of connection points: 2
#     Edge 32, Type (0, 0), BuildingBlock: XIVTED_clean_linker_0, # of connection points: 2
#     Edge 33, Type (0, 0), BuildingBlock: XIVTED_clean_linker_0, # of connection points: 2
#     Edge 34, Type (0, 0), BuildingBlock: XIVTED_clean_linker_0, # of connection points: 2
#     Edge 35, Type (0, 0), BuildingBlock: XIVTED_clean_linker_0, # of connection points: 2
#     Edge 36, Type (0, 0), BuildingBlock: XIVTED_clean_linker_0, # of connection points: 2
#     Edge 37, Type (0, 0), BuildingBlock: XIVTED_clean_linker_0, # of connection points: 2
#     Edge 38, Type (0, 0), BuildingBlock: XIVTED_clean_linker_0, # of connection points: 2
#     Edge 39, Type (0, 0), BuildingBlock: XIVTED_clean_linker_0, # of connection points: 2
#     Edge 40, Type (0, 0), BuildingBlock: XIVTED_clean_linker_0, # of connection points: 2
#     Edge 41, Type (0, 0), BuildingBlock: XIVTED_clean_linker_0, # of connection points: 2
#     Edge 42, Type (0, 0), BuildingBlock: XIVTED_clean_linker_0, # of connection points: 2
#     Edge 43, Type (0, 0), BuildingBlock: XIVTED_clean_linker_0, # of connection points: 2
#     Edge 44, Type (0, 0), BuildingBlock: XIVTED_clean_linker_0, # of connection points: 2
#     Edge 45, Type (0, 0), BuildingBlock: XIVTED_clean_linker_0, # of connection points: 2
#     Edge 46, Type (0, 0), BuildingBlock: XIVTED_clean_linker_0, # of connection points: 2
#     Edge 47, Type (0, 0), BuildingBlock: XIVTED_clean_linker_0, # of connection points: 2
#     Edge 48, Type (0, 0), BuildingBlock: XIVTED_clean_linker_0, # of connection points: 2
#     Edge 49, Type (0, 0), BuildingBlock: XIVTED_clean_linker_0, # of connection points: 2
#     Edge 50, Type (0, 0), BuildingBlock: XIVTED_clean_linker_0, # of connection points: 2
#     Edge 51, Type (0, 0), BuildingBlock: XIVTED_clean_linker_0, # of connection points: 2
#     Edge 52, Type (0, 0), BuildingBlock: XIVTED_clean_linker_0, # of connection points: 2
#     Edge 53, Type (0, 0), BuildingBlock: XIVTED_clean_linker_0, # of connection points: 2
#     Edge 54, Type (0, 0), BuildingBlock: XIVTED_clean_linker_0, # of connection points: 2
#     Edge 55, Type (0, 0), BuildingBlock: XIVTED_clean_linker_0, # of connection points: 2
#     Edge 56, Type (0, 0), BuildingBlock: XIVTED_clean_linker_0, # of connection points: 2
#     Edge 57, Type (0, 0), BuildingBlock: XIVTED_clean_linker_0, # of connection points: 2
#     Edge 58, Type (0, 0), BuildingBlock: XIVTED_clean_linker_0, # of connection points: 2
#     Edge 59, Type (0, 0), BuildingBlock: XIVTED_clean_linker_0, # of connection points: 2
#     Edge 60, Type (0, 0), BuildingBlock: XIVTED_clean_linker_0, # of connection points: 2
#     Edge 61, Type (0, 0), BuildingBlock: XIVTED_clean_linker_0, # of connection points: 2
#     Edge 62, Type (0, 0), BuildingBlock: XIVTED_clean_linker_0, # of connection points: 2
#     Edge 63, Type (0, 0), BuildingBlock: XIVTED_clean_linker_0, # of connection points: 2
# Relax obj value: 0.068
# Max RMSD: 0.240
# Mean RMSD: 0.231
data_MOF--net-crs--node1-MAKGUD_clean_sbu_1--edge1-XIVTED_clean_linker_0
_symmetry_space_group_name_H-M    P1
_symmetry_Int_Tables_number       1
_symmetry_cell_setting            triclinic
loop_
_symmetry_equiv_pos_as_xyz
'x, y, z'
_cell_length_a     41.576903
_cell_length_b     52.283692
_cell_length_c     50.152951
_cell_angle_alpha  89.900136
_cell_angle_beta   89.855509
_cell_angle_gamma 77.42547
loop_
_atom_site_label
_atom_site_type_symbol
_atom_site_fract_x
_atom_site_fract_y
_atom_site_fract_z
_atom_type_partial_charge
O0 O 0.029 0.10532 1.03633 0.0
Tb1 Tb -0.00179 0.08719 0.06264 0.0
C2 C 0.02151 1.02497 0.07751 0.0
O3 O -0.00819 0.04477 1.01836 0.0
Tb4 Tb 0.98061 1.00938 1.0361 0.0
C5 C 0.9786 0.97239 0.9999 0.0
O6 O 0.96667 0.08723 1.02761 0.0
O7 O 0.93893 1.02433 0.06226 0.0
C8 C 0.91219 1.01574 0.06785 0.0
O9 O 0.89035 0.03046 0.08352 0.0
O10 O 0.00177 0.04543 0.06694 0.0
O11 O 0.01689 1.00251 0.06839 0.0
O12 O 0.96843 0.11282 0.0917 0.0
C13 C 0.96826 0.06556 1.01345 0.0
C14 C 0.05141 0.10657 0.0541 0.0
O15 O 0.95508 0.99286 1.00454 0.0
O16 O 0.00296 0.97237 1.01626 0.0
C17 C 0.97579 0.10944 0.11716 0.0
O18 O -0.00262 0.0883 0.1244 0.0
O19 O 0.04434 0.09604 0.07629 0.0
O20 O -0.00572 0.27676 0.22476 0.0
Tb21 Tb 0.01653 0.28957 0.26036 0.0
C22 C 0.0468 0.25095 0.30472 0.0
O23 O 0.95062 0.31173 0.29634 0.0
Tb24 Tb 0.98311 0.28978 0.3264 0.0
C25 C 0.94448 0.28071 0.36639 0.0
O26 O 0.98868 0.32764 0.27252 0.0
O27 O 0.00679 0.32096 0.33953 0.0
C28 C 0.98792 0.34382 0.34587 0.0
O29 O 0.95594 0.34733 0.34246 0.0
O30 O 0.053 0.26868 0.28795 0.0
O31 O 0.01794 0.25335 0.31659 0.0
O32 O 0.0521 0.29752 0.23135 0.0
C33 C 0.95906 0.33073 0.28273 0.0
C34 C 0.98309 0.25806 0.23605 0.0
O35 O 0.93815 0.27905 0.34116 0.0
O36 O 0.97279 0.28712 0.36909 0.0
C37 C 0.07181 0.2779 0.21918 0.0
O38 O 0.0705 0.25381 0.22566 0.0
O39 O 0.98988 0.25757 0.26142 0.0
O40 O 0.72878 0.22217 0.53376 0.0
Tb41 Tb 0.75747 0.24158 0.56077 0.0
C42 C 0.7254 0.30179 0.57046 0.0
O43 O 0.75783 0.28169 0.51697 0.0
Tb44 Tb 0.75356 0.32382 0.52103 0.0
C45 C 0.73096 0.35235 0.47802 0.0
O46 O 0.79012 0.24244 0.52667 0.0
O47 O 0.79758 0.33714 0.53281 0.0
C48 C 0.81913 0.33924 0.51411 0.0
O49 O 0.8161 0.32878 0.49072 0.0
O50 O 0.75284 0.28387 0.56686 0.0
O51 O 0.72091 0.32318 0.55547 0.0
O52 O 0.78439 0.21234 0.58855 0.0
C53 C 0.78502 0.26409 0.51234 0.0
C54 C 0.70273 0.2251 0.54891 0.0
O55 O 0.75031 0.32916 0.47786 0.0
O56 O 0.72272 0.35889 0.50262 0.0
C57 C 0.78983 0.21654 0.61389 0.0
O58 O 0.78486 0.24064 0.62289 0.0
O59 O 0.70719 0.23825 0.57005 0.0
O60 O 0.77869 0.04763 0.87177 0.0
Tb61 Tb 0.76906 0.03823 0.83033 0.0
C62 C 0.79379 1.00002 0.78509 0.0
O63 O 0.69945 0.05885 0.79009 0.0
Tb64 Tb 0.73543 0.03893 0.76137 0.0
C65 C 0.76732 0.07094 0.73571 0.0
O66 O 0.73328 0.07401 0.82005 0.0
O67 O 0.69898 0.03115 0.73318 0.0
C68 C 0.68071 0.05097 0.72019 0.0
O69 O 0.6841 0.0748 0.72565 0.0
O70 O 0.8 1.0205 0.7974 0.0
O71 O 0.76522 1.00146 0.77356 0.0
O72 O 0.75178 1.00421 0.84522 0.0
C73 C 0.70515 0.07651 0.80711 0.0
C74 C 0.80896 0.04968 0.86801 0.0
O75 O 0.75994 0.07229 0.76103 0.0
O76 O 0.75757 0.05119 0.7253 0.0
C77 C 0.77425 0.98317 0.85173 0.0
O78 O 0.80535 0.98321 0.84709 0.0
O79 O 0.81656 0.0456 0.84301 0.0
O80 O 0.49883 0.77842 0.22323 0.0
Tb81 Tb 0.52146 0.78992 0.25937 0.0
C82 C 0.54911 0.75167 0.30483 0.0
O83 O 0.45419 0.81066 0.29476 0.0
Tb84 Tb 0.48537 0.79032 0.32641 0.0
C85 C 0.44663 0.78089 0.36622 0.0
O86 O 0.49198 0.82757 0.27152 0.0
O87 O 0.50671 0.82267 0.33985 0.0
C88 C 0.48624 0.84484 0.34611 0.0
O89 O 0.45457 0.84678 0.34221 0.0
O90 O 0.55593 0.76969 0.28875 0.0
O91 O 0.52017 0.75403 0.31649 0.0
O92 O 0.56013 0.79719 0.23275 0.0
C93 C 0.4623 0.83007 0.2816 0.0
C94 C 0.48923 0.75844 0.23342 0.0
O95 O 0.43949 0.78094 0.34098 0.0
O96 O 0.47572 0.78586 0.36897 0.0
C97 C 0.5752 0.77847 0.21666 0.0
O98 O 0.56755 0.7554 0.21799 0.0
O99 O 0.49695 0.7566 0.25863 0.0
O100 O 0.24292 0.71032 0.53996 0.0
Tb101 Tb 0.25827 0.74206 0.56107 0.0
C102 C 0.22044 0.80113 0.56668 0.0
O103 O 0.25913 0.78023 0.51488 0.0
Tb104 Tb 0.25022 0.82285 0.51904 0.0
C105 C 0.23387 0.84887 0.47364 0.0
O106 O 0.29415 0.74372 0.52937 0.0
O107 O 0.28614 0.84146 0.5381 0.0
C108 C 0.31513 0.84089 0.52726 0.0
O109 O 0.32479 0.82533 0.5069 0.0
O110 O 0.24914 0.78481 0.56367 0.0
O111 O 0.21424 0.82184 0.55086 0.0
O112 O 0.27829 0.72197 0.59752 0.0
C113 C 0.28822 0.76421 0.51327 0.0
C114 C 0.21141 0.71861 0.54379 0.0
O115 O 0.25937 0.82981 0.47723 0.0
O116 O 0.21659 0.8528 0.49564 0.0
C117 C 0.25753 0.71436 0.61407 0.0
O118 O 0.22592 0.72036 0.60862 0.0
O119 O 0.20606 0.74083 0.55667 0.0
O120 O 0.27591 0.53926 0.86998 0.0
Tb121 Tb 0.26543 0.53686 0.82734 0.0
C122 C 0.28955 0.4971 0.78298 0.0
O123 O 0.19462 0.55836 0.78999 0.0
Tb124 Tb 0.23086 0.53762 0.76197 0.0
C125 C 0.26422 0.56977 0.73842 0.0
O126 O 0.23009 0.57326 0.81842 0.0
O127 O 0.19547 0.52979 0.7329 0.0
C128 C 0.17609 0.54936 0.72041 0.0
O129 O 0.17738 0.57348 0.72677 0.0
O130 O 0.29771 0.51627 0.79637 0.0
O131 O 0.25956 0.49969 0.77378 0.0
O132 O 0.24346 0.50439 0.83956 0.0
C133 C 0.20112 0.57591 0.8068 0.0
C134 C 0.30432 0.54549 0.86711 0.0
O135 O 0.25613 0.57036 0.76354 0.0
O136 O 0.25428 0.55064 0.72689 0.0
C137 C 0.26355 0.48197 0.84559 0.0
O138 O 0.2954 0.48003 0.84272 0.0
O139 O 0.3106 0.54721 0.84184 0.0
O140 O 0.01261 0.6158 0.53891 0.0
Tb141 Tb -0.00404 0.58492 0.5606 0.0
C142 C 0.03052 0.52515 0.56723 0.0
O143 O -0.0039 0.54672 0.51371 0.0
Tb144 Tb 0.00397 0.50409 0.51754 0.0
C145 C 0.02819 0.47638 0.47445 0.0
O146 O 0.96102 0.58335 0.52839 0.0
O147 O 0.96109 0.48906 0.5293 0.0
C148 C 0.94119 0.48453 0.51037 0.0
O149 O 0.94473 0.4936 0.48636 0.0
O150 O 0.00293 0.54232 0.56273 0.0
O151 O 0.03673 0.50417 0.55184 0.0
O152 O 0.97498 0.6056 0.59651 0.0
C153 C 0.96708 0.56292 0.51222 0.0
C154 C 0.04392 0.60741 0.5436 0.0
O155 O 0.0084 0.49939 0.47431 0.0
O156 O 0.03586 0.46963 0.49906 0.0
C157 C -0.00465 0.61307 0.61341 0.0
O158 O 0.02715 0.60655 0.60865 0.0
O159 O 0.04848 0.58557 0.5572 0.0
O160 O 0.23528 0.22138 0.03958 0.0
Tb161 Tb 0.25964 0.24577 0.06453 0.0
C162 C 0.22231 0.30463 0.07002 0.0
O163 O 0.26348 0.28367 1.02192 0.0
Tb164 Tb 0.25022 0.32609 1.01987 0.0
C165 C 0.22986 0.34632 0.97244 0.0
O166 O 0.29393 0.24434 1.03094 0.0
O167 O 0.27984 0.35195 1.03566 0.0
C168 C 0.30904 0.34563 0.04682 0.0
O169 O 0.32338 0.32092 0.05064 0.0
O170 O 0.25161 0.2886 0.06918 0.0
O171 O 0.21536 0.324 0.05239 0.0
O172 O 0.28378 0.22148 0.09734 0.0
C173 C 0.29011 0.26585 1.01657 0.0
C174 C 0.20675 0.22753 0.05137 0.0
O175 O 0.25646 0.32845 0.97684 0.0
O176 O 0.21356 0.35172 0.99479 0.0
C177 C 0.26599 0.21776 0.11821 0.0
O178 O 0.235 0.23012 0.11936 0.0
O179 O 0.20776 0.24466 0.06994 0.0
O180 O 0.27862 0.0432 0.37048 0.0
Tb181 Tb 0.26866 0.04005 0.32783 0.0
C182 C 0.29492 0.99963 0.28448 0.0
O183 O 0.19845 0.05777 0.29052 0.0
Tb184 Tb 0.23491 0.03761 0.26238 0.0
C185 C 0.26783 0.06994 0.23857 0.0
O186 O 0.23228 0.07548 0.31802 0.0
O187 O 0.19796 0.03005 0.23449 0.0
C188 C 0.18362 0.04867 0.21799 0.0
O189 O 0.19119 0.07175 0.2194 0.0
O190 O 0.3014 1.02 0.29691 0.0
O191 O 0.26534 1.00053 0.27499 0.0
O192 O 0.24751 1.00727 0.34027 0.0
C193 C 0.2037 0.07657 0.30625 0.0
C194 C 0.30688 0.0497 0.36765 0.0
O195 O 0.25856 0.07125 0.26343 0.0
O196 O 0.25928 0.05001 0.22741 0.0
C197 C 0.26797 0.98522 0.34684 0.0
O198 O 0.29978 0.98371 0.34423 0.0
O199 O 0.31333 0.05118 0.34238 0.0
O200 O 0.4946 0.27657 0.72471 0.0
Tb201 Tb 0.51676 0.28918 0.7604 0.0
C202 C 0.54972 0.25174 0.80554 0.0
O203 O 0.45031 0.30752 0.79567 0.0
Tb204 Tb 0.48387 0.28874 0.82657 0.0
C205 C 0.44662 0.27988 0.86762 0.0
O206 O 0.48591 0.3264 0.77227 0.0
O207 O 0.50674 0.3207 0.83895 0.0
C208 C 0.48725 0.34359 0.84435 0.0
O209 O 0.45553 0.34662 0.83985 0.0
O210 O 0.5542 0.2695 0.78806 0.0
O211 O 0.52195 0.25365 0.81892 0.0
O212 O 0.5526 0.29744 0.73171 0.0
C213 C 0.45643 0.32743 0.78214 0.0
C214 C 0.48511 0.25681 0.73545 0.0
O215 O 0.44605 0.2701 0.84384 0.0
O216 O 0.46847 0.29418 0.86831 0.0
C217 C 0.57153 0.2777 0.71907 0.0
O218 O 0.56882 0.25376 0.72495 0.0
O219 O 0.49277 0.25554 0.76069 0.0
O220 O -0.0069 0.77654 0.72773 0.0
Tb221 Tb 0.01822 0.78996 0.7615 0.0
C222 C 0.05111 0.75346 0.80676 0.0
O223 O 0.95188 0.80992 0.79709 0.0
Tb224 Tb 0.98416 0.78967 0.82817 0.0
C225 C 0.94739 0.77737 0.86772 0.0
O226 O 0.98909 0.82744 0.77404 0.0
O227 O -0.00139 0.82411 0.84471 0.0
C228 C 0.97425 0.8434 0.85233 0.0
O229 O 0.944 0.84161 0.84661 0.0
O230 O 0.05582 0.77113 0.78929 0.0
O231 O 0.02284 0.7551 0.81939 0.0
O232 O 0.05259 0.79771 0.7313 0.0
C233 C 0.95955 0.82964 0.78419 0.0
C234 C 0.98579 0.75642 0.7396 0.0
O235 O 0.94109 0.77559 0.84245 0.0
O236 O 0.97458 0.78542 0.87047 0.0
C237 C 0.07131 0.77799 0.7185 0.0
O238 O 0.06967 0.75397 0.72504 0.0
O239 O -0.0041 0.75565 0.7642 0.0
O240 O 0.77894 0.54326 0.36927 0.0
Tb241 Tb 0.76873 0.53996 0.32664 0.0
C242 C 0.7959 0.50233 0.28093 0.0
O243 O 0.69983 0.5585 0.28772 0.0
Tb244 Tb 0.73617 0.5416 0.25792 0.0
C245 C 0.76365 0.57737 0.2338 0.0
O246 O 0.73247 0.57548 0.31698 0.0
O247 O 0.70024 0.53307 0.22974 0.0
C248 C 0.68122 0.5525 0.21678 0.0
O249 O 0.68354 0.57662 0.22211 0.0
O250 O 0.80173 0.52193 0.29501 0.0
O251 O 0.76766 0.50423 0.26867 0.0
O252 O 0.74758 0.50716 0.3394 0.0
C253 C 0.70434 0.57682 0.30441 0.0
C254 C 0.80738 0.5494 0.36629 0.0
O255 O 0.75558 0.57753 0.25894 0.0
O256 O 0.75742 0.55653 0.2227 0.0
C257 C 0.76752 0.4847 0.34555 0.0
O258 O 0.79928 0.48208 0.3414 0.0
O259 O 0.81371 0.55069 0.341 0.0
O260 O 0.72341 0.71975 1.0272 0.0
Tb261 Tb 0.74356 0.74654 0.05261 0.0
C262 C 0.72378 0.80696 0.0664 0.0
O263 O 0.79031 0.78271 1.03945 0.0
Tb264 Tb 0.77771 0.82539 1.03493 0.0
C265 C 0.75941 0.84729 0.98753 0.0
O266 O 0.78236 0.74455 1.02277 0.0
O267 O 0.81384 0.84579 0.05082 0.0
C268 C 0.83804 0.8501 1.03561 0.0
O269 O 0.84258 0.83907 1.01201 0.0
O270 O 0.73033 0.78911 0.0476 0.0
O271 O 0.7377 0.82731 0.06426 0.0
O272 O 0.76828 0.7269 0.08782 0.0
C273 C 0.79599 0.765 1.0204 0.0
C274 C 0.69588 0.72207 0.04041 0.0
O275 O 0.78325 0.82688 0.99148 0.0
O276 O 0.74483 0.8544 1.01021 0.0
C277 C 0.75246 0.72788 0.11075 0.0
O278 O 0.72389 0.74436 0.11328 0.0
O279 O 0.69514 0.73854 0.05989 0.0
O280 O 0.51996 0.10625 0.53515 0.0
Tb281 Tb 0.49234 0.08671 0.56318 0.0
C282 C 0.52823 1.02725 0.57136 0.0
O283 O 0.49087 0.04719 0.51976 0.0
Tb284 Tb 0.49771 1.00481 0.52377 0.0
C285 C 0.51507 0.97838 0.47869 0.0
O286 O 0.45816 0.08589 0.53029 0.0
O287 O 0.46037 0.98712 0.54217 0.0
C288 C 0.43203 0.98772 0.53032 0.0
O289 O 0.42383 1.00298 0.50949 0.0
O290 O 0.49969 0.04419 0.56929 0.0
O291 O 0.53321 1.00628 0.5558 0.0
O292 O 0.46505 0.11493 0.59163 0.0
C293 C 0.46307 0.06432 0.51595 0.0
C294 C 0.54548 0.1052 0.55048 0.0
O295 O 0.49037 0.99828 0.48158 0.0
O296 O 0.53106 0.97388 0.50122 0.0
C297 C 0.46084 0.11006 0.61704 0.0
O298 O 0.46734 0.08575 0.62562 0.0
O299 O 0.54143 0.09283 0.5723 0.0
O300 O 0.51513 0.60416 1.03166 0.0
Tb301 Tb 0.48933 0.58538 0.06162 0.0
C302 C 0.52616 0.52677 0.07076 0.0
O303 O 0.48864 0.54622 1.01826 0.0
Tb304 Tb 0.49697 0.50387 1.02317 0.0
C305 C 0.51329 0.47682 0.97826 0.0
O306 O 0.45395 0.58366 1.03 0.0
O307 O 0.45984 0.48744 0.04321 0.0
C308 C 0.43128 0.48796 1.03187 0.0
O309 O 0.42372 0.50151 1.00983 0.0
O310 O 0.49711 0.54304 0.06864 0.0
O311 O 0.53238 0.50606 0.05488 0.0
O312 O 0.46584 0.61513 0.09033 0.0
C313 C 0.45992 0.56241 1.01518 0.0
C314 C 0.5429 0.60068 0.04455 0.0
O315 O 0.48875 0.49682 0.98123 0.0
O316 O 0.52964 0.47244 1.00064 0.0
C317 C 0.46107 0.61113 0.11586 0.0
O318 O 0.46479 0.5871 0.12494 0.0
O319 O 0.54055 0.58802 0.0665 0.0
H320 H 0.94554 0.16059 0.10669 0.0
H321 H 0.97714 0.20968 0.25375 0.0
H322 H 0.98434 0.10847 0.17135 0.0
H323 H 0.96342 0.25943 0.18422 0.0
H324 H 0.96703 0.1734 0.22628 0.0
H325 H 0.93898 0.19769 0.13741 0.0
C326 C 0.95208 0.15685 0.12744 0.0
C327 C 0.96587 0.13136 0.13635 0.0
C328 C 0.96573 0.19237 0.21714 0.0
C329 C 0.95861 0.17384 0.17162 0.0
C330 C 0.97128 0.21311 0.23284 0.0
C331 C 0.97129 0.23751 0.22117 0.0
C332 C 0.95991 0.19618 0.18965 0.0
C333 C 0.9638 0.24087 0.19395 0.0
C334 C 0.9485 0.17809 0.14495 0.0
C335 C 0.9739 0.1278 0.16352 0.0
N336 N 0.95864 0.22041 0.17908 0.0
N337 N 0.97043 0.14879 0.18011 0.0
H338 H 0.77114 0.28084 0.46171 0.0
H339 H 0.95735 0.27848 0.41991 0.0
H340 H 0.85234 0.25469 0.51542 0.0
H341 H 0.88037 0.27654 0.36299 0.0
H342 H 0.91877 0.27503 0.45623 0.0
H343 H 0.81022 0.2854 0.42633 0.0
C344 C 0.79724 0.27658 0.46614 0.0
C345 C 0.80861 0.26802 0.49157 0.0
C346 C 0.9104 0.27526 0.43579 0.0
C347 C 0.85352 0.27245 0.45113 0.0
C348 C 0.93236 0.27724 0.41509 0.0
C349 C 0.922 0.27769 0.38846 0.0
C350 C 0.87776 0.27413 0.42976 0.0
C351 C 0.88936 0.27613 0.38326 0.0
C352 C 0.81954 0.27881 0.44588 0.0
C353 C 0.8427 0.26162 0.49607 0.0
N354 N 0.86835 0.27458 0.40372 0.0
N355 N 0.86402 0.26414 0.47607 0.0
H356 H 0.77592 0.11927 0.75183 0.0
H357 H 0.80312 0.16415 0.60204 0.0
H358 H 0.78483 0.06849 0.68334 0.0
H359 H 0.78938 0.21739 0.66883 0.0
H360 H 0.80424 0.12777 0.63277 0.0
H361 H 0.78819 0.15416 0.72317 0.0
C362 C 0.78102 0.11533 0.73087 0.0
C363 C 0.77925 0.091 0.71991 0.0
C364 C 0.80132 0.14735 0.6408 0.0
C365 C 0.793 0.13079 0.68698 0.0
C366 C 0.80079 0.1682 0.62321 0.0
C367 C 0.79589 0.19399 0.63276 0.0
C368 C 0.79672 0.1522 0.66826 0.0
C369 C 0.79314 0.19787 0.6605 0.0
C370 C 0.78787 0.13527 0.71449 0.0
C371 C 0.78584 0.08698 0.6926 0.0
N372 N 0.79323 0.17727 0.67722 0.0
N373 N 0.79218 0.10668 0.6771 0.0
H374 H 0.90485 0.09468 1.00912 0.0
H375 H 0.8758 0.04057 0.86503 0.0
H376 H 0.97561 0.03322 0.97046 0.0
H377 H 0.79453 0.06754 0.91889 0.0
H378 H 0.9142 0.04493 0.90085 0.0
H379 H 0.86502 0.09171 0.97363 0.0
C380 C 0.91199 0.08062 0.99318 0.0
C381 C 0.94349 0.06411 0.99273 0.0
C382 C 0.88795 0.04996 0.90479 0.0
C383 C 0.89854 0.06098 0.9521 0.0
C384 C 0.86606 0.04762 0.88436 0.0
C385 C 0.83203 0.05368 0.8891 0.0
C386 C 0.87569 0.05891 0.92999 0.0
C387 C 0.82066 0.06262 0.91452 0.0
C388 C 0.88928 0.07888 0.97306 0.0
C389 C 0.9515 0.0462 0.97167 0.0
N390 N 0.84247 0.06512 0.93405 0.0
N391 N 0.92929 0.04525 0.95209 0.0
H392 H 0.07263 0.04933 0.0718 0.0
H393 H 0.15124 1.00815 0.21507 0.0
H394 H 0.03034 1.00245 0.12661 0.0
H395 H 0.1634 0.07774 0.17343 0.0
H396 H 0.11292 1.00077 0.18015 0.0
H397 H 0.11259 0.05507 0.10614 0.0
C398 C 0.07142 0.0408 0.09135 0.0
C399 C 0.04736 1.02663 0.09702 0.0
C400 C 0.12403 1.01763 0.17873 0.0
C401 C 0.09384 0.03157 0.13575 0.0
C402 C 0.14593 1.02182 0.19859 0.0
C403 C 0.16043 0.04365 0.19723 0.0
C404 C 0.1171 0.03513 0.15714 0.0
C405 C 0.15264 0.06075 0.17541 0.0
C406 C 0.09442 0.04367 0.11075 0.0
C407 C 0.04824 1.01401 0.12178 0.0
N408 N 0.13167 0.05606 0.1562 0.0
N409 N 0.07104 1.01686 0.14035 0.0
H410 H 0.06172 0.42495 0.47261 0.0
H411 H 0.96237 0.39631 0.34566 0.0
H412 H 0.00252 0.48585 0.42458 0.0
H413 H 0.0428 0.33825 0.37779 0.0
H414 H 0.97887 0.42958 0.37337 0.0
H415 H 0.05806 0.39309 0.43741 0.0
C416 C 0.04861 0.43172 0.4544 0.0
C417 C 0.0323 0.45806 0.45155 0.0
C418 C -0.00672 0.40967 0.37415 0.0
C419 C 0.02738 0.42169 0.4115 0.0
C420 C 0.98382 0.39064 0.35833 0.0
C421 C 0.00116 0.36446 0.35951 0.0
C422 C 0.01992 0.40245 0.39181 0.0
C423 C 0.02883 0.35824 0.37622 0.0
C424 C 0.04642 0.41352 0.43436 0.0
C425 C 0.01545 0.46573 0.42764 0.0
N426 N 0.03704 0.37701 0.39207 0.0
N427 N 0.01302 0.4476 0.40877 0.0
H428 H 0.6653 0.33433 0.58198 0.0
H429 H 0.62195 0.24162 0.69727 0.0
H430 H 0.73076 0.26315 0.60769 0.0
H431 H 0.57323 0.32324 0.69183 0.0
H432 H 0.65845 0.24792 0.66088 0.0
H433 H 0.62752 0.32953 0.61855 0.0
C434 C 0.67171 0.31759 0.59517 0.0
C435 C 0.70126 0.29884 0.59156 0.0
C436 C 0.63987 0.26452 0.66767 0.0
C437 C 0.65823 0.29332 0.63338 0.0
C438 C 0.61896 0.26092 0.68845 0.0
C439 C 0.59453 0.28195 0.69769 0.0
C440 C 0.6362 0.28926 0.65566 0.0
C441 C 0.59187 0.30653 0.68544 0.0
C442 C 0.65021 0.31495 0.6161 0.0
C443 C 0.70837 0.27787 0.60955 0.0
N444 N 0.61234 0.30949 0.66492 0.0
N445 N 0.68703 0.27553 0.62947 0.0
H446 H 0.7187 0.98208 0.88165 0.0
H447 H 0.79628 0.83944 0.94185 0.0
H448 H 0.81163 0.93367 0.85693 0.0
H449 H 0.71437 0.89313 0.97799 0.0
H450 H 0.79569 0.87055 0.90519 0.0
H451 H 0.71047 0.94672 0.9116 0.0
C452 C 0.73707 0.96388 0.88215 0.0
C453 C 0.76603 0.96094 0.8669 0.0
C454 C 0.77754 0.87542 0.92094 0.0
C455 C 0.75684 0.92045 0.90116 0.0
C456 C 0.77774 0.85757 0.94181 0.0
C457 C 0.75541 0.86374 0.96307 0.0
C458 C 0.75483 0.89969 0.92125 0.0
C459 C 0.73205 0.8876 0.96201 0.0
C460 C 0.73247 0.94376 0.89937 0.0
C461 C 0.78908 0.93694 0.8685 0.0
N462 N 0.73253 0.90479 0.9416 0.0
N463 N 0.78408 0.91776 0.88536 0.0
H464 H 0.15529 0.32507 0.07261 0.0
H465 H 0.12841 0.24522 0.20225 0.0
H466 H 0.23638 0.27924 0.11705 0.0
H467 H 0.06567 0.32102 0.18674 0.0
H468 H 0.16443 0.25254 0.16563 0.0
H469 H 0.11787 0.31963 0.1094 0.0
C470 C 0.16515 0.31368 0.08995 0.0
C471 C 0.1988 0.30181 0.09146 0.0
C472 C 0.14281 0.26758 0.17031 0.0
C473 C 0.15642 0.29552 0.13323 0.0
C474 C 0.12224 0.26341 0.19114 0.0
C475 C 0.09416 0.28263 0.19762 0.0
C476 C 0.13487 0.29086 0.15544 0.0
C477 C 0.08729 0.30583 0.18252 0.0
C478 C 0.14387 0.31067 0.11089 0.0
C479 C 0.2104 0.28774 0.1146 0.0
N480 N 0.10737 0.30924 0.16192 0.0
N481 N 0.18925 0.28471 0.13441 0.0
H482 H 0.79603 0.43263 0.34758 0.0
H483 H 0.69728 0.40383 0.47567 0.0
H484 H 0.71286 0.48939 0.37784 0.0
H485 H 0.75795 0.34293 0.42852 0.0
H486 H 0.7008 0.43547 0.44002 0.0
H487 H 0.78132 0.39947 0.37675 0.0
C488 C 0.77438 0.43803 0.36014 0.0
C489 C 0.75568 0.46384 0.36029 0.0
C490 C 0.71285 0.41509 0.4373 0.0
C491 C 0.73899 0.42597 0.39429 0.0
C492 C 0.71075 0.39702 0.4576 0.0
C493 C 0.72738 0.37072 0.45508 0.0
C494 C 0.73215 0.40685 0.41453 0.0
C495 C 0.74472 0.36301 0.43133 0.0
C496 C 0.76596 0.41906 0.37681 0.0
C497 C 0.72786 0.46969 0.37699 0.0
N498 N 0.74702 0.38101 0.4122 0.0
N499 N 0.72064 0.45102 0.39364 0.0
H500 H 0.5895 0.99583 0.58147 0.0
H501 H 0.63065 0.08718 0.69827 0.0
H502 H 0.52203 0.06516 0.60927 0.0
H503 H 0.67945 1.00559 0.69274 0.0
H504 H 0.59479 0.0811 0.66149 0.0
H505 H 0.62718 1.0006 0.618 0.0
C506 C 0.58267 1.0122 0.59506 0.0
C507 C 0.55257 0.03042 0.59208 0.0
C508 C 0.61325 0.06447 0.66835 0.0
C509 C 0.59543 0.03589 0.63381 0.0
C510 C 0.63378 0.06793 0.68935 0.0
C511 C 0.65801 0.04683 0.69868 0.0
C512 C 0.61717 0.03981 0.6562 0.0
C513 C 0.6609 1.02234 0.68629 0.0
C514 C 0.60409 1.01479 0.61596 0.0
C515 C 0.54491 0.0509 0.61058 0.0
N516 N 0.64084 1.01951 0.66554 0.0
N517 N 0.56617 0.05321 0.63044 0.0
H518 H 0.93023 0.97223 0.96336 0.0
H519 H 0.02793 0.84516 0.88421 0.0
H520 H 0.02729 0.92996 0.98595 0.0
H521 H 0.93084 0.88902 0.86359 0.0
H522 H 0.03027 0.877 0.91985 0.0
H523 H 0.93134 0.94238 0.92577 0.0
C524 C 0.95174 0.95655 0.96046 0.0
C525 C 0.97864 0.9535 0.97787 0.0
C526 C 0.0086 0.87975 0.90733 0.0
C527 C 0.98031 0.91921 0.93458 0.0
C528 C 0.00739 0.8617 0.88684 0.0
C529 C 0.9791 0.86433 0.87094 0.0
C530 C 0.98134 0.90057 0.91189 0.0
C531 C 0.95307 0.88604 0.87545 0.0
C532 C 0.95246 0.93953 0.9389 0.0
C533 C 0.00596 0.93292 0.97305 0.0
N534 N 0.95476 0.90313 0.89551 0.0
N535 N 0.00611 0.91655 0.95187 0.0
H536 H 0.07438 0.12558 1.00851 0.0
H537 H 0.15726 0.22612 0.08645 0.0
H538 H 0.08429 0.12459 0.09411 0.0
H539 H 0.19786 0.19425 1.01127 0.0
H540 H 0.11981 0.19588 0.08596 0.0
H541 H 0.11135 0.15651 1.00586 0.0
C542 C 0.08461 0.13166 1.02666 0.0
C543 C 0.07647 0.1225 0.05155 0.0
C544 C 0.13673 0.19571 0.06947 0.0
C545 C 0.11744 0.15828 0.04872 0.0
C546 C 0.15783 0.2131 0.06959 0.0
C547 C 0.18067 0.21257 0.04888 0.0
C548 C 0.13805 0.17803 0.04826 0.0
C549 C 0.18057 0.19518 1.02761 0.0
C550 C 0.10552 0.1493 1.02514 0.0
C551 C 0.09012 0.13107 0.07452 0.0
N552 N 0.15951 0.17855 1.02779 0.0
N553 N 0.10959 0.14875 0.07258 0.0
H554 H 0.65814 0.59753 0.26724 0.0
H555 H 0.56149 0.71879 0.34784 0.0
H556 H 0.69295 0.61201 0.34558 0.0
H557 H 0.58998 0.72688 0.26601 0.0
H558 H 0.59889 0.6752 0.34929 0.0
H559 H 0.62057 0.64065 0.2683 0.0
C560 C 0.6576 0.60961 0.28478 0.0
C561 C 0.67889 0.60131 0.30625 0.0
C562 C 0.59693 0.6867 0.33115 0.0
C563 C 0.63566 0.65024 0.30772 0.0
C564 C 0.57573 0.71142 0.33028 0.0
C565 C 0.57295 0.7264 0.30684 0.0
C566 C 0.61439 0.67672 0.30812 0.0
C567 C 0.59174 0.71603 0.28455 0.0
C568 C 0.63633 0.63421 0.28528 0.0
C569 C 0.67708 0.61781 0.32854 0.0
N570 N 0.61136 0.69162 0.28561 0.0
N571 N 0.65565 0.64152 0.32879 0.0
H572 H 0.38131 0.83868 0.52216 0.0
H573 H 0.3662 0.99007 0.52287 0.0
H574 H 0.29036 0.88987 0.54707 0.0
H575 H 0.45548 0.93874 0.5507 0.0
H576 H 0.33755 0.95382 0.52729 0.0
H577 H 0.4096 0.87494 0.52815 0.0
C578 C 0.36742 0.85742 0.52924 0.0
C579 C 0.33349 0.86125 0.53424 0.0
C580 C 0.36329 0.95068 0.5328 0.0
C581 C 0.36539 0.90286 0.5403 0.0
C582 C 0.37961 0.9713 0.53029 0.0
C583 C 0.4132 0.96744 0.53655 0.0
C584 C 0.38095 0.92582 0.5408 0.0
C585 C 0.4295 0.94264 0.54589 0.0
C586 C 0.38355 0.87805 0.53267 0.0
C587 C 0.3166 0.886 0.54322 0.0
N588 N 0.41339 0.92263 0.54724 0.0
N589 N 0.33258 0.90602 0.54548 0.0
H590 H 0.09507 0.73049 0.76876 0.0
H591 H 0.19267 0.60991 0.84906 0.0
H592 H 0.06342 0.71954 0.84916 0.0
H593 H 0.15592 0.59997 0.77026 0.0
H594 H 0.15658 0.65401 0.85084 0.0
H595 H 0.13068 0.68655 0.77008 0.0
C596 C 0.09599 0.71905 0.78683 0.0
C597 C 0.07611 0.72862 0.80882 0.0
C598 C 0.15643 0.64197 0.8333 0.0
C599 C 0.11712 0.67864 0.81053 0.0
C600 C 0.17689 0.61692 0.83224 0.0
C601 C 0.17724 0.60126 0.80946 0.0
C602 C 0.13716 0.65164 0.81109 0.0
C603 C 0.15637 0.6113 0.7882 0.0
C604 C 0.11611 0.69396 0.78747 0.0
C605 C 0.07827 0.71282 0.83173 0.0
N606 N 0.13757 0.63603 0.78934 0.0
N607 N 0.0986 0.68858 0.83209 0.0
H608 H 0.86056 0.35163 0.4765 0.0
H609 H 0.92715 0.46024 0.55676 0.0
H610 H 0.82749 0.37009 0.55729 0.0
H611 H 0.90911 0.4632 0.47195 0.0
H612 H 0.89887 0.42346 0.56012 0.0
H613 H 0.88942 0.38739 0.47758 0.0
C614 C 0.85969 0.36295 0.49466 0.0
C615 C 0.84118 0.35795 0.51676 0.0
C616 C 0.90099 0.43242 0.54089 0.0
C617 C 0.87435 0.3992 0.518 0.0
C618 C 0.91698 0.45341 0.53895 0.0
C619 C 0.92062 0.46484 0.51402 0.0
C620 C 0.88932 0.42253 0.51767 0.0
C621 C 0.90703 0.45511 0.4916 0.0
C622 C 0.87602 0.38353 0.49515 0.0
C623 C 0.84131 0.37332 0.53975 0.0
N624 N 0.89242 0.4344 0.49393 0.0
N625 N 0.85756 0.39338 0.53978 0.0
H626 H 0.36102 0.99376 0.29284 0.0
H627 H 0.47443 0.87754 0.26707 0.0
H628 H 0.2877 0.95024 0.27174 0.0
H629 H 0.39598 0.84058 0.29192 0.0
H630 H 0.43523 0.91973 0.26606 0.0
H631 H 0.40324 0.95327 0.29096 0.0
C632 C 0.35386 0.97572 0.28751 0.0
C633 C 0.32084 0.97541 0.28217 0.0
C634 C 0.42665 0.90245 0.272 0.0
C635 C 0.36913 0.929 0.2797 0.0
C636 C 0.44894 0.87828 0.27228 0.0
C637 C 0.43849 0.85551 0.27972 0.0
C638 C 0.39362 0.90384 0.27911 0.0
C639 C 0.40514 0.85767 0.28623 0.0
C640 C 0.37805 0.95263 0.28621 0.0
C641 C 0.31293 0.95141 0.27567 0.0
N642 N 0.38384 0.88142 0.28567 0.0
N643 N 0.33689 0.9291 0.27484 0.0
H644 H 0.27709 0.45005 0.76776 0.0
H645 H 0.39044 0.3334 0.79118 0.0
H646 H 0.35612 0.48635 0.79215 0.0
H647 H 0.46362 0.37671 0.76869 0.0
H648 H 0.34838 0.374 0.78995 0.0
H649 H 0.31617 0.40787 0.76542 0.0
C650 C 0.30268 0.44916 0.77259 0.0
C651 C 0.31333 0.47173 0.78031 0.0
C652 C 0.37349 0.37457 0.78474 0.0
C653 C 0.35808 0.42342 0.77815 0.0
C654 C 0.39759 0.35142 0.78565 0.0
C655 C 0.43053 0.35165 0.7798 0.0
C656 C 0.38244 0.39819 0.7781 0.0
C657 C 0.43844 0.37561 0.77303 0.0
C658 C 0.32491 0.42501 0.77154 0.0
C659 C 0.34682 0.4694 0.78629 0.0
N660 N 0.41458 0.39801 0.77262 0.0
N661 N 0.36806 0.44565 0.78499 0.0
H662 H 0.23435 0.76951 0.60982 0.0
H663 H 0.06685 0.82225 0.68786 0.0
H664 H 0.15518 0.82574 0.57375 0.0
H665 H 0.1249 0.7438 0.69839 0.0
H666 H 0.10219 0.82813 0.64992 0.0
H667 H 0.19769 0.76383 0.64643 0.0
C668 C 0.20896 0.78014 0.60927 0.0
C669 C 0.19747 0.79728 0.58818 0.0
C670 C 0.10707 0.80967 0.66059 0.0
C671 C 0.15573 0.79198 0.63079 0.0
C672 C 0.08713 0.80635 0.68232 0.0
C673 C 0.09299 0.7825 0.6963 0.0
C674 C 0.13343 0.78919 0.65324 0.0
C675 C 0.11943 0.76248 0.68814 0.0
C676 C 0.18816 0.77715 0.63034 0.0
C677 C 0.16486 0.8119 0.58936 0.0
N678 N 0.1388 0.76634 0.66731 0.0
N679 N 0.14508 0.80898 0.61038 0.0
H680 H 0.29917 0.93389 0.34773 0.0
H681 H 0.19129 0.89676 0.46698 0.0
H682 H 0.21121 0.98679 0.37584 0.0
H683 H 0.26926 0.84174 0.4277 0.0
H684 H 0.19404 0.92891 0.43167 0.0
H685 H 0.285 0.89893 0.37443 0.0
C686 C 0.2766 0.93805 0.35933 0.0
C687 C 0.25647 0.96332 0.35974 0.0
C688 C 0.21012 0.90964 0.43054 0.0
C689 C 0.24025 0.92337 0.39089 0.0
C690 C 0.20845 0.89126 0.45062 0.0
C691 C 0.23025 0.86665 0.45033 0.0
C692 C 0.23392 0.90332 0.41021 0.0
C693 C 0.25214 0.86056 0.42879 0.0
C694 C 0.26847 0.91805 0.3746 0.0
C695 C 0.2274 0.96755 0.37496 0.0
N696 N 0.25367 0.87884 0.40983 0.0
N697 N 0.2204 0.94787 0.3903 0.0
H698 H -0.00616 0.7055 0.75564 0.0
H699 H 0.94262 0.65496 0.61455 0.0
H700 H 0.95639 0.75777 0.69086 0.0
H701 H 0.02254 0.61251 0.66258 0.0
H702 H 0.93159 0.68957 0.64875 0.0
H703 H 0.98802 0.66822 0.72777 0.0
C704 C 0.98352 0.70917 0.73582 0.0
C705 C 0.97578 0.73468 0.72541 0.0
C706 C 0.95103 0.67236 0.65199 0.0
C707 C 0.969 0.69228 0.6936 0.0
C708 C 0.95714 0.65257 0.63265 0.0
C709 C 0.98358 0.63098 0.63581 0.0
C710 C 0.97106 0.67013 0.67479 0.0
C711 C 0.00201 0.62895 0.6594 0.0
C712 C 0.98042 0.68791 0.71991 0.0
C713 C 0.9628 0.73835 0.69953 0.0
N714 N -0.00451 0.64831 0.67796 0.0
N715 N 0.95999 0.71736 0.68441 0.0
H716 H 0.27434 0.78061 0.46252 0.0
H717 H 0.46084 0.77574 0.41944 0.0
H718 H 0.35584 0.75385 0.51584 0.0
H719 H 0.38176 0.77868 0.36328 0.0
H720 H 0.42277 0.77175 0.45597 0.0
H721 H 0.31316 0.78484 0.42697 0.0
C722 C 0.30048 0.77611 0.46684 0.0
C723 C 0.31194 0.76756 0.49228 0.0
C724 C 0.41382 0.77316 0.43564 0.0
C725 C 0.35666 0.77153 0.45147 0.0
C726 C 0.43549 0.77545 0.41482 0.0
C727 C 0.42439 0.77747 0.38834 0.0
C728 C 0.38073 0.77327 0.42992 0.0
C729 C 0.39133 0.77707 0.38342 0.0
C730 C 0.32265 0.77816 0.44645 0.0
C731 C 0.34607 0.76081 0.49652 0.0
N732 N 0.37063 0.77517 0.40401 0.0
N733 N 0.3673 0.76312 0.47635 0.0
H734 H 0.26936 0.11912 0.25594 0.0
H735 H 0.30882 0.17022 0.11125 0.0
H736 H 0.29084 0.06858 0.18738 0.0
H737 H 0.2494 0.2184 0.17059 0.0
H738 H 0.31829 0.13331 0.14291 0.0
H739 H 0.27818 0.15591 0.22858 0.0
C740 C 0.27668 0.11565 0.23528 0.0
C741 C 0.27911 0.09087 0.2238 0.0
C742 C 0.30377 0.15215 0.14911 0.0
C743 C 0.28918 0.13278 0.19246 0.0
C744 C 0.29861 0.17323 0.13118 0.0
C745 C 0.27819 0.19729 0.13834 0.0
C746 C 0.28884 0.15541 0.17444 0.0
C747 C 0.26516 0.20009 0.16427 0.0
C748 C 0.28153 0.13666 0.21966 0.0
C749 C 0.28852 0.08745 0.19692 0.0
N750 N 0.27056 0.17938 0.18132 0.0
N751 N 0.29298 0.10823 0.18207 0.0
H752 H 0.79048 0.74735 0.96971 0.0
H753 H 0.95613 0.78667 0.92006 0.0
H754 H 0.84866 0.78776 1.01845 0.0
H755 H 0.88868 0.76144 0.86604 0.0
H756 H 0.91845 0.78433 0.95686 0.0
H757 H 0.82713 0.74996 0.93183 0.0
C758 C 0.81085 0.75697 0.97231 0.0
C759 C 0.81639 0.76778 0.997 0.0
C760 C 0.91183 0.77925 0.937 0.0
C761 C 0.85858 0.77042 0.95412 0.0
C762 C 0.93343 0.78043 0.916 0.0
C763 C 0.92548 0.77416 0.89003 0.0
C764 C 0.88207 0.77158 0.93207 0.0
C765 C 0.8957 0.76635 0.88584 0.0
C766 C 0.8317 0.75847 0.95074 0.0
C767 C 0.84319 0.77979 0.9995 0.0
N768 N 0.87501 0.76524 0.9067 0.0
N769 N 0.86338 0.78071 0.97836 0.0
H770 H 0.29188 0.56751 0.68889 0.0
H771 H 0.23008 0.71606 0.66328 0.0
H772 H 0.25974 0.62034 0.75431 0.0
H773 H 0.30899 0.6716 0.6155 0.0
H774 H 0.24089 0.68159 0.69724 0.0
H775 H 0.29939 0.60475 0.66159 0.0
C776 C 0.28711 0.58689 0.69766 0.0
C777 C 0.27511 0.59093 0.72382 0.0
C778 C 0.25638 0.67961 0.67964 0.0
C779 C 0.28274 0.63358 0.69257 0.0
C780 C 0.25023 0.69926 0.66029 0.0
C781 C 0.26877 0.69662 0.63668 0.0
C782 C 0.2805 0.65673 0.67493 0.0
C783 C 0.29438 0.67442 0.63359 0.0
C784 C 0.29143 0.60811 0.68211 0.0
C785 C 0.26913 0.61642 0.73423 0.0
N786 N 0.29902 0.65497 0.65223 0.0
N787 N 0.2723 0.63689 0.71838 0.0
H788 H 0.37119 0.05316 0.36388 0.0
H789 H 0.39579 0.07459 0.51951 0.0
H790 H 0.29391 0.05252 0.42122 0.0
H791 H 0.47641 0.04736 0.46526 0.0
H792 H 0.35685 0.07102 0.48353 0.0
H793 H 0.40911 0.05586 0.40052 0.0
C794 C 0.36218 0.05377 0.3842 0.0
C795 C 0.32942 0.05265 0.38958 0.0
C796 C 0.38308 0.06553 0.47962 0.0
C797 C 0.37258 0.05577 0.43159 0.0
C798 C 0.40521 0.06756 0.50009 0.0
C799 C 0.43925 0.06055 0.49541 0.0
C800 C 0.39518 0.05717 0.45417 0.0
C801 C 0.45033 0.05205 0.46985 0.0
C802 C 0.38385 0.05515 0.40511 0.0
C803 C 0.31902 0.05335 0.41627 0.0
N804 N 0.42838 0.05072 0.45015 0.0
N805 N 0.34051 0.05498 0.43632 0.0
H806 H 0.89511 0.85963 1.01387 0.0
H807 H 0.85238 1.00617 0.05845 0.0
H808 H 0.81942 0.88935 0.07191 0.0
H809 H 0.95552 0.96842 0.05695 0.0
H810 H 0.83827 0.9639 0.05158 0.0
H811 H 0.91732 0.89924 1.02011 0.0
C812 C 0.8835 0.87423 1.02822 0.0
C813 C 0.85524 0.87124 0.04233 0.0
C814 C 0.86402 0.96488 0.05245 0.0
C815 C 0.87993 0.9165 0.04886 0.0
C816 C 0.87215 0.98899 0.05618 0.0
C817 C 0.90521 0.99081 0.05823 0.0
C818 C 0.88904 0.94225 0.05045 0.0
C819 C 0.92977 0.96787 0.05503 0.0
C820 C 0.89621 0.89672 1.03171 0.0
C821 C 0.8412 0.89075 0.06062 0.0
N822 N 0.9212 0.94433 0.05129 0.0
N823 N 0.85331 0.91274 0.06297 0.0
H824 H 0.65834 0.21857 0.58665 0.0
H825 H 0.5609 0.13032 0.50539 0.0
H826 H 0.68801 0.19718 0.50579 0.0
H827 H 0.58665 0.11668 0.58825 0.0
H828 H 0.59855 0.16085 0.50278 0.0
H829 H 0.62072 0.18859 0.58523 0.0
C830 C 0.65651 0.20791 0.56841 0.0
C831 C 0.67639 0.21027 0.54632 0.0
C832 C 0.59604 0.15092 0.52139 0.0
C833 C 0.63334 0.17597 0.54461 0.0
C834 C 0.57473 0.13351 0.52288 0.0
C835 C 0.57077 0.12094 0.54705 0.0
C836 C 0.61257 0.15624 0.54443 0.0
C837 C 0.58905 0.12586 0.5692 0.0
C838 C 0.63526 0.19065 0.56771 0.0
C839 C 0.67309 0.19586 0.52324 0.0
N840 N 0.60875 0.14338 0.56745 0.0
N841 N 0.65189 0.17927 0.52293 0.0
H842 H 0.86137 0.49507 0.29265 0.0
H843 H 0.97292 0.37758 0.26842 0.0
H844 H 0.78802 0.45359 0.26651 0.0
H845 H 0.89244 0.34233 0.29192 0.0
H846 H 0.93472 0.42022 0.26646 0.0
H847 H 0.90255 0.45389 0.2921 0.0
C848 C 0.85401 0.47734 0.28651 0.0
C849 C 0.82131 0.47778 0.27933 0.0
C850 C 0.92549 0.4032 0.27228 0.0
C851 C 0.86832 0.43065 0.27851 0.0
C852 C 0.94719 0.3788 0.27313 0.0
C853 C 0.93584 0.35639 0.28046 0.0
C854 C 0.89215 0.40519 0.27866 0.0
C855 C 0.90224 0.35915 0.28634 0.0
C856 C 0.87759 0.45388 0.286 0.0
C857 C 0.81307 0.45416 0.27183 0.0
N858 N 0.88149 0.38313 0.28517 0.0
N859 N 0.83639 0.43146 0.27186 0.0
H860 H 0.0335 0.65837 0.52783 0.0
H861 H 0.22283 0.66702 0.53022 0.0
H862 H 0.11116 0.59245 0.54906 0.0
H863 H 0.14397 0.73357 0.54698 0.0
H864 H 0.18243 0.63931 0.52707 0.0
H865 H 0.07415 0.68585 0.52475 0.0
C866 C 0.05921 0.64957 0.53146 0.0
C867 C 0.06902 0.62308 0.53873 0.0
C868 C 0.17397 0.66001 0.53121 0.0
C869 C 0.1156 0.65444 0.53513 0.0
C870 C 0.19694 0.67588 0.53284 0.0
C871 C 0.18669 0.70264 0.53888 0.0
C872 C 0.14042 0.67104 0.53519 0.0
C873 C 0.15288 0.71304 0.54228 0.0
C874 C 0.08231 0.66533 0.52986 0.0
C875 C 0.1026 0.61278 0.54338 0.0
N876 N 0.13091 0.69723 0.54034 0.0
N877 N 0.12473 0.62848 0.54147 0.0
H878 H 0.69321 0.10988 0.84989 0.0
H879 H 0.59585 0.23011 0.76852 0.0
H880 H 0.66225 0.10064 0.76912 0.0
H881 H 0.56128 0.21723 0.84758 0.0
H882 H 0.63304 0.18688 0.77017 0.0
H883 H 0.65572 0.15342 0.8513 0.0
C884 C 0.67844 0.11694 0.83254 0.0
C885 C 0.68077 0.10164 0.80933 0.0
C886 C 0.61744 0.1937 0.78719 0.0
C887 C 0.63909 0.15137 0.8106 0.0
C888 C 0.59638 0.21839 0.78637 0.0
C889 C 0.57523 0.22721 0.80786 0.0
C890 C 0.61807 0.17802 0.80995 0.0
C891 C 0.57704 0.21108 0.83051 0.0
C892 C 0.65716 0.14167 0.8334 0.0
C893 C 0.66113 0.1117 0.7874 0.0
N894 N 0.59827 0.18724 0.83105 0.0
N895 N 0.6415 0.13612 0.78841 0.0
H896 H 0.75548 0.62842 0.24995 0.0
H897 H 0.79608 0.6804 0.10569 0.0
H898 H 0.7873 0.57758 0.18297 0.0
H899 H 0.7318 0.72808 0.16269 0.0
H900 H 0.80533 0.64403 0.13769 0.0
H901 H 0.75896 0.66634 0.22194 0.0
C902 C 0.76391 0.6252 0.22953 0.0
C903 C 0.77107 0.59984 0.21873 0.0
C904 C 0.78957 0.66258 0.14331 0.0
C905 C 0.77503 0.64306 0.18659 0.0
C906 C 0.78446 0.68344 0.12512 0.0
C907 C 0.76296 0.70733 0.13142 0.0
C908 C 0.77342 0.66569 0.16813 0.0
C909 C 0.74841 0.70998 0.15689 0.0
C910 C 0.76565 0.64684 0.21351 0.0
C911 C 0.78151 0.59681 0.19206 0.0
N912 N 0.75378 0.68941 0.17424 0.0
N913 N 0.78308 0.61814 0.17689 0.0
H914 H 0.89989 0.57197 0.51729 0.0
H915 H 0.87155 0.55281 0.36181 0.0
H916 H 0.97897 0.54694 0.46109 0.0
H917 H 0.79547 0.55156 0.42008 0.0
H918 H 0.91025 0.555 0.39794 0.0
H919 H 0.86003 0.56842 0.48202 0.0
C920 C 0.9088 0.56544 0.4976 0.0
C921 C 0.94269 0.55916 0.49214 0.0
C922 C 0.88509 0.55426 0.40286 0.0
C923 C 0.89755 0.55571 0.45174 0.0
C924 C 0.86296 0.55317 0.38224 0.0
C925 C 0.83031 0.55205 0.38802 0.0
C926 C 0.87441 0.55456 0.42949 0.0
C927 C 0.82048 0.55242 0.41484 0.0
C928 C 0.88614 0.5634 0.47754 0.0
C929 C 0.95308 0.55114 0.46629 0.0
N930 N 0.84243 0.55376 0.43463 0.0
N931 N 0.93062 0.54981 0.44701 0.0
H932 H 0.18108 0.50483 0.69034 0.0
H933 H 0.01554 0.5576 0.6096 0.0
H934 H 0.12224 0.58312 0.70008 0.0
H935 H 0.09489 0.49945 0.57624 0.0
H936 H 0.051 0.56333 0.64689 0.0
H937 H 0.14632 0.49846 0.65241 0.0
C938 C 0.16072 0.52058 0.68464 0.0
C939 C 0.15451 0.54455 0.69838 0.0
C940 C 0.06083 0.54955 0.63126 0.0
C941 C 0.11471 0.5373 0.65528 0.0
C942 C 0.04073 0.5465 0.60982 0.0
C943 C 0.05265 0.52881 0.5893 0.0
C944 C 0.09301 0.5343 0.63259 0.0
C945 C 0.08491 0.5137 0.59142 0.0
C946 C 0.14109 0.51699 0.66292 0.0
C947 C 0.12797 0.56436 0.69002 0.0
N948 N 0.10403 0.51676 0.61273 0.0
N949 N 0.10895 0.56024 0.66915 0.0
H950 H 0.60867 0.81854 0.21378 0.0
H951 H 0.66973 0.7861 0.06498 0.0
H952 H 0.59405 0.75014 0.17157 0.0
H953 H 0.72587 0.82369 0.11837 0.0
H954 H 0.63467 0.77894 0.10227 0.0
H955 H 0.64548 0.82664 0.17762 0.0
C956 C 0.6132 0.80525 0.19698 0.0
C957 C 0.59828 0.78361 0.19572 0.0
C958 C 0.65483 0.78855 0.10593 0.0
C959 C 0.63966 0.79304 0.15429 0.0
C960 C 0.67511 0.79226 0.08475 0.0
C961 C 0.7017 0.80422 0.08891 0.0
C962 C 0.66051 0.7976 0.13144 0.0
C963 C 0.70602 0.81382 0.1145 0.0
C964 C 0.63424 0.80984 0.17645 0.0
C965 C 0.60507 0.76699 0.17349 0.0
N966 N 0.68566 0.81025 0.13491 0.0
N967 N 0.62496 0.77219 0.1536 0.0
H968 H 0.68111 0.50636 0.19053 0.0
H969 H 0.51873 0.56549 0.10783 0.0
H970 H 0.63019 0.58754 0.19438 0.0
H971 H 0.58794 0.49649 0.08149 0.0
H972 H 0.55636 0.57127 0.14322 0.0
H973 H 0.64438 0.49962 0.1541 0.0
C974 C 0.66212 0.5227 0.18384 0.0
C975 C 0.65866 0.54755 0.19554 0.0
C976 C 0.56349 0.5549 0.12966 0.0
C977 C 0.61668 0.53994 0.15409 0.0
C978 C 0.54187 0.55157 0.10947 0.0
C979 C 0.55015 0.53076 0.09142 0.0
C980 C 0.59359 0.53682 0.13241 0.0
C981 C 0.58063 0.51309 0.09471 0.0
C982 C 0.64136 0.51887 0.16296 0.0
C983 C 0.6338 0.56807 0.18595 0.0
N984 N 0.60124 0.51644 0.1149 0.0
N985 N 0.6137 0.56377 0.16593 0.0
H986 H 0.36657 0.49 1.02069 0.0
H987 H 0.37414 0.34226 0.06088 0.0
H988 H 0.44987 0.44393 0.06268 0.0
H989 H 0.28341 0.39809 0.04435 0.0
H990 H 0.40279 0.37869 0.06285 0.0
H991 H 0.33564 0.45627 1.03003 0.0
C992 C 0.37818 0.47293 1.03219 0.0
C993 C 0.41083 0.46971 0.04082 0.0
C994 C 0.37651 0.38289 0.05917 0.0
C995 C 0.37586 0.43072 0.05115 0.0
C996 C 0.36017 0.36212 0.05806 0.0
C997 C 0.32643 0.36704 0.05204 0.0
C998 C 0.35897 0.40861 0.05398 0.0
C999 C 0.30954 0.39321 0.04862 0.0
C1000 C 0.36054 0.45367 1.03754 0.0
C1001 C 0.42469 0.44721 0.0557 0.0
N1002 N 0.32603 0.41289 0.04929 0.0
N1003 N 0.40731 0.42834 0.06004 0.0
H1004 H 0.05536 0.21637 0.34665 0.0
H1005 H 0.16163 0.09883 0.26707 0.0
H1006 H 0.09346 0.22827 0.26859 0.0
H1007 H 0.18926 0.11057 0.34826 0.0
H1008 H 0.12382 0.14196 0.26797 0.0
H1009 H 0.09346 0.17314 0.34862 0.0
C1010 C 0.07176 0.20995 0.33 0.0
C1011 C 0.07124 0.2259 0.30737 0.0
C1012 C 0.138 0.1349 0.28561 0.0
C1013 C 0.11369 0.17655 0.30923 0.0
C1014 C 0.15932 0.1103 0.28521 0.0
C1015 C 0.17851 0.10121 0.30764 0.0
C1016 C 0.13523 0.15013 0.30882 0.0
C1017 C 0.17488 0.11699 0.33056 0.0
C1018 C 0.0934 0.1854 0.33118 0.0
C1019 C 0.09302 0.21667 0.28637 0.0
N1020 N 0.15339 0.1407 0.33067 0.0
N1021 N 0.113 0.19241 0.28762 0.0
H1022 H 0.18564 0.39308 0.96437 0.0
H1023 H 0.294 0.43042 0.84557 0.0
H1024 H 0.26506 0.33848 0.92627 0.0
H1025 H 0.20675 0.48352 0.87462 0.0
H1026 H 0.27949 0.39525 0.87175 0.0
H1027 H 0.18805 0.4249 0.92874 0.0
C1028 C 0.20297 0.38753 0.94814 0.0
C1029 C 0.22532 0.36316 0.94836 0.0
C1030 C 0.26318 0.41447 0.87223 0.0
C1031 C 0.22869 0.39959 0.90786 0.0
C1032 C 0.27151 0.4346 0.85726 0.0
C1033 C 0.25171 0.46 0.85811 0.0
C1034 C 0.23508 0.41975 0.88865 0.0
C1035 C 0.2227 0.46421 0.87341 0.0
C1036 C 0.20449 0.40576 0.92789 0.0
C1037 C 0.24745 0.35708 0.92696 0.0
N1038 N 0.21552 0.44439 0.88844 0.0
N1039 N 0.24887 0.37526 0.90784 0.0
H1040 H 0.31127 0.31003 1.00106 0.0
H1041 H 0.40794 0.244 0.87299 0.0
H1042 H 0.3235 0.2277 0.98434 0.0
H1043 H 0.43446 0.3096 0.91255 0.0
H1044 H 0.37021 0.24056 0.90997 0.0
H1045 H 0.35008 0.31338 0.96488 0.0
C1046 C 0.32201 0.29274 0.98973 0.0
C1047 C 0.31405 0.26865 0.99554 0.0
C1048 C 0.38441 0.25563 0.91055 0.0
C1049 C 0.3581 0.27223 0.95416 0.0
C1050 C 0.40582 0.25762 0.88948 0.0
C1051 C 0.42437 0.27701 0.88987 0.0
C1052 C 0.38105 0.27353 0.93179 0.0
C1053 C 0.4207 0.29426 0.91163 0.0
C1054 C 0.34426 0.29459 0.96921 0.0
C1055 C 0.32906 0.24666 0.98049 0.0
N1056 N 0.39925 0.29227 0.93165 0.0
N1057 N 0.3501 0.24901 0.9603 0.0
H1058 H 0.39269 0.57136 1.01885 0.0
H1059 H 0.36855 0.54918 0.86326 0.0
H1060 H 0.47355 0.54571 0.96442 0.0
H1061 H 0.29153 0.54807 0.9207 0.0
H1062 H 0.40639 0.55232 0.89984 0.0
H1063 H 0.354 0.567 0.98296 0.0
C1064 C 0.40223 0.56451 0.99941 0.0
C1065 C 0.43628 0.55816 0.99467 0.0
C1066 C 0.38122 0.55139 0.90447 0.0
C1067 C 0.39246 0.55388 0.95351 0.0
C1068 C 0.35959 0.54974 0.8836 0.0
C1069 C 0.32692 0.54839 0.88902 0.0
C1070 C 0.36997 0.55205 0.93096 0.0
C1071 C 0.31658 0.54907 0.91572 0.0
C1072 C 0.38024 0.56202 0.97899 0.0
C1073 C 0.44749 0.54989 0.96908 0.0
N1074 N 0.338 0.55097 0.93573 0.0
N1075 N 0.42566 0.54809 0.94942 0.0
H1076 H 0.65106 0.71421 0.07684 0.0
H1077 H 0.55316 0.62808 0.99956 0.0
H1078 H 0.68748 0.69085 0.99794 0.0
H1079 H 0.59209 0.60578 0.07793 0.0
H1080 H 0.59205 0.65749 0.99537 0.0
H1081 H 0.61618 0.68222 0.07487 0.0
C1082 C 0.65133 0.70261 0.05892 0.0
C1083 C 0.67221 0.70502 1.03754 0.0
C1084 C 0.59226 0.64573 1.0132 0.0
C1085 C 0.63223 0.6687 1.03518 0.0
C1086 C 0.57026 0.62901 1.01561 0.0
C1087 C 0.56942 0.61464 1.03917 0.0
C1088 C 0.61258 0.64845 1.03482 0.0
C1089 C 0.59189 0.61657 0.05946 0.0
C1090 C 0.63165 0.68428 0.05793 0.0
C1091 C 0.67171 0.68942 1.01484 0.0
N1092 N 0.61209 0.6336 0.05705 0.0
N1093 N 0.65181 0.67187 1.01414 0.0
H1094 H 0.97177 0.87714 0.7704 0.0
H1095 H 0.85923 0.99325 0.79664 0.0
H1096 H 0.89321 0.84011 0.79483 0.0
H1097 H 0.78615 0.95085 0.77199 0.0
H1098 H 0.90082 0.95235 0.79603 0.0
H1099 H 0.93275 0.91936 0.76977 0.0
C1100 C 0.94629 0.87788 0.77563 0.0
C1101 C 0.93574 0.85508 0.78281 0.0
C1102 C 0.87582 0.95206 0.7903 0.0
C1103 C 0.89109 0.90345 0.78259 0.0
C1104 C 0.852 0.97536 0.79085 0.0
C1105 C 0.81927 0.97548 0.78403 0.0
C1106 C 0.8668 0.92866 0.78305 0.0
C1107 C 0.81121 0.95167 0.77702 0.0
C1108 C 0.92412 0.90205 0.77556 0.0
C1109 C 0.9024 0.85724 0.78934 0.0
N1110 N 0.83481 0.92912 0.77689 0.0
N1111 N 0.88117 0.88103 0.78894 0.0
H1112 H 0.46441 0.26027 0.684 0.0
H1113 H 0.46289 0.1081 0.67192 0.0
H1114 H 0.47855 0.20782 0.75144 0.0
H1115 H 0.44606 0.16267 0.60612 0.0
H1116 H 0.46216 0.14478 0.70243 0.0
H1117 H 0.45122 0.22553 0.65647 0.0
C1118 C 0.4643 0.24148 0.6931 0.0
C1119 C 0.47271 0.23687 0.72 0.0
C1120 C 0.45819 0.14874 0.68136 0.0
C1121 C 0.45811 0.19668 0.68842 0.0
C1122 C 0.45845 0.1278 0.6639 0.0
C1123 C 0.45481 0.13221 0.6363 0.0
C1124 C 0.45432 0.1743 0.67117 0.0
C1125 C 0.44923 0.15821 0.62716 0.0
C1126 C 0.45683 0.22159 0.67734 0.0
C1127 C 0.47217 0.21216 0.73076 0.0
N1128 N 0.44948 0.17815 0.64447 0.0
N1129 N 0.46538 0.19287 0.71486 0.0
H1130 H 0.54165 0.33898 0.87691 0.0
H1131 H 0.48103 0.48591 0.93107 0.0
H1132 H 0.4587 0.39551 0.84609 0.0
H1133 H 0.55359 0.42774 0.97205 0.0
H1134 H 0.48046 0.45489 0.89492 0.0
H1135 H 0.55393 0.37285 0.90689 0.0
C1136 C 0.52648 0.35863 0.87603 0.0
C1137 C 0.49897 0.36439 0.8591 0.0
C1138 C 0.49683 0.44889 0.91162 0.0
C1139 C 0.51271 0.40309 0.89336 0.0
C1140 C 0.49726 0.46668 0.93226 0.0
C1141 C 0.51725 0.45934 0.95468 0.0
C1142 C 0.51638 0.42338 0.91335 0.0
C1143 C 0.53779 0.43416 0.95511 0.0
C1144 C 0.53334 0.37788 0.89328 0.0
C1145 C 0.47997 0.39011 0.85896 0.0
N1146 N 0.53659 0.41695 0.93488 0.0
N1147 N 0.48707 0.40838 0.87589 0.0
H1148 H 0.45588 0.89638 0.34725 0.0
H1149 H 0.55677 0.92997 0.47254 0.0
H1150 H 0.54087 0.84198 0.378 0.0
H1151 H 0.48153 0.98622 0.43192 0.0
H1152 H 0.55528 0.89845 0.43644 0.0
H1153 H 0.46849 0.93041 0.37602 0.0
C1154 C 0.4775 0.8917 0.35986 0.0
C1155 C 0.49724 0.86626 0.36034 0.0
C1156 C 0.5395 0.91784 0.43523 0.0
C1157 C 0.51161 0.90517 0.39391 0.0
C1158 C 0.54044 0.93586 0.45578 0.0
C1159 C 0.51911 0.96069 0.45528 0.0
C1160 C 0.51691 0.92471 0.41419 0.0
C1161 C 0.4983 0.96725 0.43319 0.0
C1162 C 0.48472 0.91117 0.37634 0.0
C1163 C 0.52505 0.86136 0.37697 0.0
N1164 N 0.49748 0.94932 0.41375 0.0
N1165 N 0.53115 0.88053 0.39342 0.0
H1166 H 0.46166 0.61041 0.17082 0.0
H1167 H 0.47165 0.76135 0.18108 0.0
H1168 H 0.45165 0.66336 0.10374 0.0
H1169 H 0.48022 0.71014 0.24937 0.0
H1170 H 0.45854 0.7266 0.1534 0.0
H1171 H 0.46267 0.64729 0.20068 0.0
C1172 C 0.45914 0.62982 0.16236 0.0
C1173 C 0.45676 0.63367 0.13463 0.0
C1174 C 0.46293 0.72296 0.17448 0.0
C1175 C 0.45826 0.67601 0.16877 0.0
C1176 C 0.47033 0.74286 0.19032 0.0
C1177 C 0.4771 0.73861 0.21755 0.0
C1178 C 0.46254 0.69842 0.18583 0.0
C1179 C 0.47511 0.71424 0.22845 0.0
C1180 C 0.45987 0.65088 0.17946 0.0
C1181 C 0.45371 0.65932 0.12492 0.0
N1182 N 0.46833 0.69497 0.21252 0.0
N1183 N 0.45482 0.67937 0.1419 0.0
loop_
_geom_bond_atom_site_label_1
_geom_bond_atom_site_label_2
_geom_bond_distance
_geom_bond_site_symmetry_2
_ccdc_geom_bond_type
O0 Tb1 2.506 1_556 S
O0 C14 1.265 1_556 S
Tb1 O0 2.506 1_554 S
Tb1 O6 2.312 1_454 S
Tb1 O10 2.271 . S
Tb1 O12 2.338 1_455 S
Tb1 O19 2.441 . S
C2 O10 1.252 . S
C2 O11 1.253 1_545 S
O3 Tb4 2.266 1_656 S
O3 C13 1.252 1_565 S
Tb4 O3 2.266 1_454 S
Tb4 O7 2.339 1_455 S
Tb4 O11 2.316 . S
Tb4 O15 2.433 1_554 S
Tb4 O16 2.504 1_554 S
C5 O15 1.244 . S
C5 O16 1.265 . S
O6 Tb1 2.312 1_656 S
O6 C13 1.253 . S
O7 Tb4 2.339 1_655 S
O7 C8 1.258 1_554 S
C8 O7 1.258 1_556 S
C8 O9 1.251 1_556 S
O9 C8 1.251 1_554 S
O10 Tb1 2.271 . S
O10 C2 1.252 . S
O11 C2 1.253 1_565 S
O11 Tb4 2.316 . S
O12 Tb1 2.338 1_655 S
O12 C17 1.259 . S
C13 O3 1.252 1_545 S
C13 O6 1.253 . S
C14 O0 1.265 1_554 S
C14 O19 1.244 . S
O15 Tb4 2.433 1_556 S
O15 C5 1.244 . S
O16 Tb4 2.504 1_556 S
O16 C5 1.265 . S
C17 O12 1.259 . S
C17 O18 1.259 . S
O18 C17 1.259 . S
O19 Tb1 2.441 . S
O19 C14 1.244 . S
O20 Tb21 2.506 . S
O20 C34 1.265 . S
Tb21 O20 2.506 . S
Tb21 O26 2.312 1_455 S
Tb21 O30 2.271 . S
Tb21 O32 2.338 . S
Tb21 O39 2.441 . S
C22 O30 1.252 . S
C22 O31 1.253 . S
O23 Tb24 2.271 1_655 S
O23 C33 1.252 . S
Tb24 O23 2.271 1_455 S
Tb24 O27 2.338 . S
Tb24 O31 2.312 . S
Tb24 O35 2.441 1_455 S
Tb24 O36 2.506 1_455 S
C25 O35 1.244 . S
C25 O36 1.265 . S
O26 Tb21 2.312 1_655 S
O26 C33 1.253 . S
O27 Tb24 2.338 . S
O27 C28 1.258 . S
C28 O27 1.258 . S
C28 O29 1.251 . S
O29 C28 1.251 . S
O30 Tb21 2.271 . S
O30 C22 1.252 . S
O31 C22 1.253 . S
O31 Tb24 2.312 . S
O32 Tb21 2.338 . S
O32 C37 1.258 . S
C33 O23 1.252 . S
C33 O26 1.253 . S
C34 O20 1.265 . S
C34 O39 1.244 . S
O35 Tb24 2.441 1_655 S
O35 C25 1.244 . S
O36 Tb24 2.506 1_655 S
O36 C25 1.265 . S
C37 O32 1.258 . S
C37 O38 1.251 . S
O38 C37 1.251 . S
O39 Tb21 2.441 . S
O39 C34 1.244 . S
O40 Tb41 2.506 . S
O40 C54 1.265 . S
Tb41 O40 2.506 . S
Tb41 O46 2.312 . S
Tb41 O50 2.271 . S
Tb41 O52 2.338 . S
Tb41 O59 2.441 . S
C42 O50 1.252 . S
C42 O51 1.253 . S
O43 Tb44 2.271 . S
O43 C53 1.252 . S
Tb44 O43 2.271 . S
Tb44 O47 2.338 . S
Tb44 O51 2.312 . S
Tb44 O55 2.441 . S
Tb44 O56 2.506 . S
C45 O55 1.244 . S
C45 O56 1.265 . S
O46 Tb41 2.312 . S
O46 C53 1.253 . S
O47 Tb44 2.338 . S
O47 C48 1.258 . S
C48 O47 1.258 . S
C48 O49 1.251 . S
O49 C48 1.251 . S
O50 Tb41 2.271 . S
O50 C42 1.252 . S
O51 C42 1.253 . S
O51 Tb44 2.312 . S
O52 Tb41 2.338 . S
O52 C57 1.258 . S
C53 O43 1.252 . S
C53 O46 1.253 . S
C54 O40 1.265 . S
C54 O59 1.244 . S
O55 Tb44 2.441 . S
O55 C45 1.244 . S
O56 Tb44 2.506 . S
O56 C45 1.265 . S
C57 O52 1.258 . S
C57 O58 1.251 . S
O58 C57 1.251 . S
O59 Tb41 2.441 . S
O59 C54 1.244 . S
O60 Tb61 2.506 . S
O60 C74 1.265 . S
Tb61 O60 2.506 . S
Tb61 O66 2.312 . S
Tb61 O70 2.271 1_545 S
Tb61 O72 2.338 1_545 S
Tb61 O79 2.441 1_545 S
C62 O70 1.252 . S
C62 O71 1.253 . S
O63 Tb64 2.271 . S
O63 C73 1.252 . S
Tb64 O63 2.271 . S
Tb64 O67 2.338 . S
Tb64 O71 2.312 1_545 S
Tb64 O75 2.441 . S
Tb64 O76 2.506 . S
C65 O75 1.244 . S
C65 O76 1.265 . S
O66 Tb61 2.312 . S
O66 C73 1.253 . S
O67 Tb64 2.338 . S
O67 C68 1.258 . S
C68 O67 1.258 . S
C68 O69 1.251 . S
O69 C68 1.251 . S
O70 Tb61 2.271 1_565 S
O70 C62 1.252 . S
O71 C62 1.253 . S
O71 Tb64 2.312 1_565 S
O72 Tb61 2.338 1_565 S
O72 C77 1.258 . S
C73 O63 1.252 . S
C73 O66 1.253 . S
C74 O60 1.265 . S
C74 O79 1.244 1_545 S
O75 Tb64 2.441 . S
O75 C65 1.244 . S
O76 Tb64 2.506 . S
O76 C65 1.265 . S
C77 O72 1.258 . S
C77 O78 1.251 . S
O78 C77 1.251 . S
O79 Tb61 2.441 1_565 S
O79 C74 1.244 1_565 S
O80 Tb81 2.506 . S
O80 C94 1.265 . S
Tb81 O80 2.506 . S
Tb81 O86 2.312 . S
Tb81 O90 2.271 . S
Tb81 O92 2.338 . S
Tb81 O99 2.441 . S
C82 O90 1.252 . S
C82 O91 1.253 . S
O83 Tb84 2.271 . S
O83 C93 1.252 . S
Tb84 O83 2.271 . S
Tb84 O87 2.338 . S
Tb84 O91 2.312 . S
Tb84 O95 2.441 . S
Tb84 O96 2.506 . S
C85 O95 1.244 . S
C85 O96 1.265 . S
O86 Tb81 2.312 . S
O86 C93 1.253 . S
O87 Tb84 2.338 . S
O87 C88 1.258 . S
C88 O87 1.258 . S
C88 O89 1.251 . S
O89 C88 1.251 . S
O90 Tb81 2.271 . S
O90 C82 1.252 . S
O91 C82 1.253 . S
O91 Tb84 2.312 . S
O92 Tb81 2.338 . S
O92 C97 1.258 . S
C93 O83 1.252 . S
C93 O86 1.253 . S
C94 O80 1.265 . S
C94 O99 1.244 . S
O95 Tb84 2.441 . S
O95 C85 1.244 . S
O96 Tb84 2.506 . S
O96 C85 1.265 . S
C97 O92 1.258 . S
C97 O98 1.251 . S
O98 C97 1.251 . S
O99 Tb81 2.441 . S
O99 C94 1.244 . S
O100 Tb101 2.506 . S
O100 C114 1.265 . S
Tb101 O100 2.506 . S
Tb101 O106 2.312 . S
Tb101 O110 2.271 . S
Tb101 O112 2.338 . S
Tb101 O119 2.441 . S
C102 O110 1.252 . S
C102 O111 1.253 . S
O103 Tb104 2.271 . S
O103 C113 1.252 . S
Tb104 O103 2.271 . S
Tb104 O107 2.338 . S
Tb104 O111 2.312 . S
Tb104 O115 2.441 . S
Tb104 O116 2.506 . S
C105 O115 1.244 . S
C105 O116 1.265 . S
O106 Tb101 2.312 . S
O106 C113 1.253 . S
O107 Tb104 2.338 . S
O107 C108 1.258 . S
C108 O107 1.258 . S
C108 O109 1.251 . S
O109 C108 1.251 . S
O110 Tb101 2.271 . S
O110 C102 1.252 . S
O111 C102 1.253 . S
O111 Tb104 2.312 . S
O112 Tb101 2.338 . S
O112 C117 1.258 . S
C113 O103 1.252 . S
C113 O106 1.253 . S
C114 O100 1.265 . S
C114 O119 1.244 . S
O115 Tb104 2.441 . S
O115 C105 1.244 . S
O116 Tb104 2.506 . S
O116 C105 1.265 . S
C117 O112 1.258 . S
C117 O118 1.251 . S
O118 C117 1.251 . S
O119 Tb101 2.441 . S
O119 C114 1.244 . S
O120 Tb121 2.506 . S
O120 C134 1.265 . S
Tb121 O120 2.506 . S
Tb121 O126 2.312 . S
Tb121 O130 2.271 . S
Tb121 O132 2.338 . S
Tb121 O139 2.441 . S
C122 O130 1.252 . S
C122 O131 1.253 . S
O123 Tb124 2.271 . S
O123 C133 1.252 . S
Tb124 O123 2.271 . S
Tb124 O127 2.338 . S
Tb124 O131 2.312 . S
Tb124 O135 2.441 . S
Tb124 O136 2.506 . S
C125 O135 1.244 . S
C125 O136 1.265 . S
O126 Tb121 2.312 . S
O126 C133 1.253 . S
O127 Tb124 2.338 . S
O127 C128 1.258 . S
C128 O127 1.258 . S
C128 O129 1.251 . S
O129 C128 1.251 . S
O130 Tb121 2.271 . S
O130 C122 1.252 . S
O131 C122 1.253 . S
O131 Tb124 2.312 . S
O132 Tb121 2.338 . S
O132 C137 1.258 . S
C133 O123 1.252 . S
C133 O126 1.253 . S
C134 O120 1.265 . S
C134 O139 1.244 . S
O135 Tb124 2.441 . S
O135 C125 1.244 . S
O136 Tb124 2.506 . S
O136 C125 1.265 . S
C137 O132 1.258 . S
C137 O138 1.251 . S
O138 C137 1.251 . S
O139 Tb121 2.441 . S
O139 C134 1.244 . S
O140 Tb141 2.506 . S
O140 C154 1.265 . S
Tb141 O140 2.506 . S
Tb141 O146 2.312 1_455 S
Tb141 O150 2.271 . S
Tb141 O152 2.338 1_455 S
Tb141 O159 2.441 . S
C142 O150 1.252 . S
C142 O151 1.253 . S
O143 Tb144 2.271 1_655 S
O143 C153 1.252 . S
Tb144 O143 2.271 1_455 S
Tb144 O147 2.338 1_455 S
Tb144 O151 2.312 . S
Tb144 O155 2.441 . S
Tb144 O156 2.506 . S
C145 O155 1.244 . S
C145 O156 1.265 . S
O146 Tb141 2.312 1_655 S
O146 C153 1.253 . S
O147 Tb144 2.338 1_655 S
O147 C148 1.258 . S
C148 O147 1.258 . S
C148 O149 1.251 . S
O149 C148 1.251 . S
O150 Tb141 2.271 . S
O150 C142 1.252 . S
O151 C142 1.253 . S
O151 Tb144 2.312 . S
O152 Tb141 2.338 1_655 S
O152 C157 1.259 . S
C153 O143 1.252 . S
C153 O146 1.253 . S
C154 O140 1.265 . S
C154 O159 1.244 . S
O155 Tb144 2.441 . S
O155 C145 1.244 . S
O156 Tb144 2.506 . S
O156 C145 1.265 . S
C157 O152 1.259 . S
C157 O158 1.259 . S
O158 C157 1.259 . S
O159 Tb141 2.441 . S
O159 C154 1.244 . S
O160 Tb161 2.506 1_556 S
O160 C174 1.265 1_556 S
Tb161 O160 2.506 1_554 S
Tb161 O166 2.312 1_554 S
Tb161 O170 2.271 . S
Tb161 O172 2.338 . S
Tb161 O179 2.441 . S
C162 O170 1.252 . S
C162 O171 1.253 . S
O163 Tb164 2.266 1_556 S
O163 C173 1.252 . S
Tb164 O163 2.266 1_554 S
Tb164 O167 2.339 . S
Tb164 O171 2.316 . S
Tb164 O175 2.433 1_554 S
Tb164 O176 2.504 1_554 S
C165 O175 1.244 . S
C165 O176 1.265 . S
O166 Tb161 2.312 1_556 S
O166 C173 1.253 . S
O167 Tb164 2.339 . S
O167 C168 1.258 1_554 S
C168 O167 1.258 1_556 S
C168 O169 1.251 1_556 S
O169 C168 1.251 1_554 S
O170 Tb161 2.271 . S
O170 C162 1.252 . S
O171 C162 1.253 . S
O171 Tb164 2.316 . S
O172 Tb161 2.338 . S
O172 C177 1.258 . S
C173 O163 1.252 . S
C173 O166 1.253 . S
C174 O160 1.265 1_554 S
C174 O179 1.244 . S
O175 Tb164 2.433 1_556 S
O175 C165 1.244 . S
O176 Tb164 2.504 1_556 S
O176 C165 1.265 . S
C177 O172 1.258 . S
C177 O178 1.251 . S
O178 C177 1.251 . S
O179 Tb161 2.441 . S
O179 C174 1.244 . S
O180 Tb181 2.506 . S
O180 C194 1.265 . S
Tb181 O180 2.506 . S
Tb181 O186 2.312 . S
Tb181 O190 2.271 1_545 S
Tb181 O192 2.338 1_545 S
Tb181 O199 2.441 1_545 S
C182 O190 1.252 . S
C182 O191 1.253 . S
O183 Tb184 2.271 . S
O183 C193 1.252 . S
Tb184 O183 2.271 . S
Tb184 O187 2.338 . S
Tb184 O191 2.312 1_545 S
Tb184 O195 2.441 . S
Tb184 O196 2.506 . S
C185 O195 1.244 . S
C185 O196 1.265 . S
O186 Tb181 2.312 . S
O186 C193 1.253 . S
O187 Tb184 2.338 . S
O187 C188 1.258 . S
C188 O187 1.258 . S
C188 O189 1.251 . S
O189 C188 1.251 . S
O190 Tb181 2.271 1_565 S
O190 C182 1.252 . S
O191 C182 1.253 . S
O191 Tb184 2.312 1_565 S
O192 Tb181 2.338 1_565 S
O192 C197 1.258 . S
C193 O183 1.252 . S
C193 O186 1.253 . S
C194 O180 1.265 . S
C194 O199 1.244 1_545 S
O195 Tb184 2.441 . S
O195 C185 1.244 . S
O196 Tb184 2.506 . S
O196 C185 1.265 . S
C197 O192 1.258 . S
C197 O198 1.251 . S
O198 C197 1.251 . S
O199 Tb181 2.441 1_565 S
O199 C194 1.244 1_565 S
O200 Tb201 2.506 . S
O200 C214 1.265 . S
Tb201 O200 2.506 . S
Tb201 O206 2.312 . S
Tb201 O210 2.271 . S
Tb201 O212 2.338 . S
Tb201 O219 2.441 . S
C202 O210 1.252 . S
C202 O211 1.253 . S
O203 Tb204 2.271 . S
O203 C213 1.252 . S
Tb204 O203 2.271 . S
Tb204 O207 2.338 . S
Tb204 O211 2.312 . S
Tb204 O215 2.441 . S
Tb204 O216 2.506 . S
C205 O215 1.244 . S
C205 O216 1.265 . S
O206 Tb201 2.312 . S
O206 C213 1.253 . S
O207 Tb204 2.338 . S
O207 C208 1.258 . S
C208 O207 1.258 . S
C208 O209 1.251 . S
O209 C208 1.251 . S
O210 Tb201 2.271 . S
O210 C202 1.252 . S
O211 C202 1.253 . S
O211 Tb204 2.312 . S
O212 Tb201 2.338 . S
O212 C217 1.258 . S
C213 O203 1.252 . S
C213 O206 1.253 . S
C214 O200 1.265 . S
C214 O219 1.244 . S
O215 Tb204 2.441 . S
O215 C205 1.244 . S
O216 Tb204 2.506 . S
O216 C205 1.265 . S
C217 O212 1.258 . S
C217 O218 1.251 . S
O218 C217 1.251 . S
O219 Tb201 2.441 . S
O219 C214 1.244 . S
O220 Tb221 2.506 . S
O220 C234 1.265 . S
Tb221 O220 2.506 . S
Tb221 O226 2.312 1_455 S
Tb221 O230 2.271 . S
Tb221 O232 2.338 . S
Tb221 O239 2.441 . S
C222 O230 1.252 . S
C222 O231 1.253 . S
O223 Tb224 2.271 1_655 S
O223 C233 1.252 . S
Tb224 O223 2.271 1_455 S
Tb224 O227 2.338 . S
Tb224 O231 2.312 . S
Tb224 O235 2.441 1_455 S
Tb224 O236 2.506 1_455 S
C225 O235 1.244 . S
C225 O236 1.265 . S
O226 Tb221 2.312 1_655 S
O226 C233 1.253 . S
O227 Tb224 2.338 . S
O227 C228 1.258 . S
C228 O227 1.258 . S
C228 O229 1.251 . S
O229 C228 1.251 . S
O230 Tb221 2.271 . S
O230 C222 1.252 . S
O231 C222 1.253 . S
O231 Tb224 2.312 . S
O232 Tb221 2.338 . S
O232 C237 1.258 . S
C233 O223 1.252 . S
C233 O226 1.253 . S
C234 O220 1.265 . S
C234 O239 1.244 . S
O235 Tb224 2.441 1_655 S
O235 C225 1.244 . S
O236 Tb224 2.506 1_655 S
O236 C225 1.265 . S
C237 O232 1.258 . S
C237 O238 1.251 . S
O238 C237 1.251 . S
O239 Tb221 2.441 . S
O239 C234 1.244 . S
O240 Tb241 2.506 . S
O240 C254 1.265 . S
Tb241 O240 2.506 . S
Tb241 O246 2.312 . S
Tb241 O250 2.271 . S
Tb241 O252 2.338 . S
Tb241 O259 2.441 . S
C242 O250 1.252 . S
C242 O251 1.253 . S
O243 Tb244 2.271 . S
O243 C253 1.252 . S
Tb244 O243 2.271 . S
Tb244 O247 2.338 . S
Tb244 O251 2.312 . S
Tb244 O255 2.441 . S
Tb244 O256 2.506 . S
C245 O255 1.244 . S
C245 O256 1.265 . S
O246 Tb241 2.312 . S
O246 C253 1.253 . S
O247 Tb244 2.338 . S
O247 C248 1.258 . S
C248 O247 1.258 . S
C248 O249 1.251 . S
O249 C248 1.251 . S
O250 Tb241 2.271 . S
O250 C242 1.252 . S
O251 C242 1.253 . S
O251 Tb244 2.312 . S
O252 Tb241 2.338 . S
O252 C257 1.258 . S
C253 O243 1.252 . S
C253 O246 1.253 . S
C254 O240 1.265 . S
C254 O259 1.244 . S
O255 Tb244 2.441 . S
O255 C245 1.244 . S
O256 Tb244 2.506 . S
O256 C245 1.265 . S
C257 O252 1.258 . S
C257 O258 1.251 . S
O258 C257 1.251 . S
O259 Tb241 2.441 . S
O259 C254 1.244 . S
O260 Tb261 2.506 1_556 S
O260 C274 1.265 1_556 S
Tb261 O260 2.506 1_554 S
Tb261 O266 2.312 1_554 S
Tb261 O270 2.271 . S
Tb261 O272 2.338 . S
Tb261 O279 2.441 . S
C262 O270 1.252 . S
C262 O271 1.253 . S
O263 Tb264 2.266 1_556 S
O263 C273 1.252 . S
Tb264 O263 2.266 1_554 S
Tb264 O267 2.339 . S
Tb264 O271 2.316 . S
Tb264 O275 2.433 1_554 S
Tb264 O276 2.504 1_554 S
C265 O275 1.244 . S
C265 O276 1.265 . S
O266 Tb261 2.312 1_556 S
O266 C273 1.253 . S
O267 Tb264 2.339 . S
O267 C268 1.258 1_554 S
C268 O267 1.258 1_556 S
C268 O269 1.251 1_556 S
O269 C268 1.251 1_554 S
O270 Tb261 2.271 . S
O270 C262 1.252 . S
O271 C262 1.253 . S
O271 Tb264 2.316 . S
O272 Tb261 2.338 . S
O272 C277 1.258 . S
C273 O263 1.252 . S
C273 O266 1.253 . S
C274 O260 1.265 1_554 S
C274 O279 1.244 . S
O275 Tb264 2.433 1_556 S
O275 C265 1.244 . S
O276 Tb264 2.504 1_556 S
O276 C265 1.265 . S
C277 O272 1.258 . S
C277 O278 1.251 . S
O278 C277 1.251 . S
O279 Tb261 2.441 . S
O279 C274 1.244 . S
O280 Tb281 2.506 . S
O280 C294 1.265 . S
Tb281 O280 2.506 . S
Tb281 O286 2.312 . S
Tb281 O290 2.271 . S
Tb281 O292 2.338 . S
Tb281 O299 2.441 . S
C282 O290 1.252 . S
C282 O291 1.253 1_545 S
O283 Tb284 2.271 . S
O283 C293 1.252 1_565 S
Tb284 O283 2.271 . S
Tb284 O287 2.338 . S
Tb284 O291 2.312 . S
Tb284 O295 2.441 . S
Tb284 O296 2.506 . S
C285 O295 1.244 . S
C285 O296 1.265 . S
O286 Tb281 2.312 . S
O286 C293 1.253 . S
O287 Tb284 2.338 . S
O287 C288 1.258 . S
C288 O287 1.258 . S
C288 O289 1.251 . S
O289 C288 1.251 . S
O290 Tb281 2.271 . S
O290 C282 1.252 . S
O291 C282 1.253 1_565 S
O291 Tb284 2.312 . S
O292 Tb281 2.338 . S
O292 C297 1.258 . S
C293 O283 1.252 1_545 S
C293 O286 1.253 . S
C294 O280 1.265 . S
C294 O299 1.244 . S
O295 Tb284 2.441 . S
O295 C285 1.244 . S
O296 Tb284 2.506 . S
O296 C285 1.265 . S
C297 O292 1.258 . S
C297 O298 1.251 . S
O298 C297 1.251 . S
O299 Tb281 2.441 . S
O299 C294 1.244 . S
O300 Tb301 2.506 1_556 S
O300 C314 1.265 1_556 S
Tb301 O300 2.506 1_554 S
Tb301 O306 2.312 1_554 S
Tb301 O310 2.271 . S
Tb301 O312 2.338 . S
Tb301 O319 2.441 . S
C302 O310 1.252 . S
C302 O311 1.253 . S
O303 Tb304 2.266 1_556 S
O303 C313 1.252 . S
Tb304 O303 2.266 1_554 S
Tb304 O307 2.339 . S
Tb304 O311 2.316 . S
Tb304 O315 2.433 1_554 S
Tb304 O316 2.504 1_554 S
C305 O315 1.244 . S
C305 O316 1.265 . S
O306 Tb301 2.312 1_556 S
O306 C313 1.253 . S
O307 Tb304 2.339 . S
O307 C308 1.258 1_554 S
C308 O307 1.258 1_556 S
C308 O309 1.251 1_556 S
O309 C308 1.251 1_554 S
O310 Tb301 2.271 . S
O310 C302 1.252 . S
O311 C302 1.253 . S
O311 Tb304 2.316 . S
O312 Tb301 2.338 . S
O312 C317 1.258 . S
C313 O303 1.252 . S
C313 O306 1.253 . S
C314 O300 1.265 1_554 S
C314 O319 1.244 . S
O315 Tb304 2.433 1_556 S
O315 C305 1.244 . S
O316 Tb304 2.504 1_556 S
O316 C305 1.265 . S
C317 O312 1.258 . S
C317 O318 1.251 . S
O318 C317 1.251 . S
O319 Tb301 2.441 . S
O319 C314 1.244 . S
H320 C326 0.930 . S
H321 C330 0.930 . S
H322 C335 0.929 . S
H323 C333 0.929 . S
H324 C328 0.929 . S
H325 C334 0.929 . S
C326 H320 0.930 . S
C326 C327 1.367 1_655 S
C326 C334 1.378 . S
C327 C326 1.367 1_455 S
C327 C335 1.433 . S
C328 H324 0.929 . S
C328 C330 1.378 . S
C328 C332 1.350 . S
C329 C332 1.463 . S
C329 C334 1.350 1_455 S
C329 N337 1.427 . S
C330 H321 0.930 . S
C330 C328 1.378 . S
C330 C331 1.367 . S
C331 C330 1.367 . S
C331 C333 1.433 1_455 S
C332 C328 1.350 . S
C332 C329 1.463 . S
C332 N336 1.427 1_455 S
C333 H323 0.929 . S
C333 C331 1.433 1_655 S
C333 N336 1.384 . S
C334 H325 0.929 . S
C334 C326 1.378 . S
C334 C329 1.350 1_655 S
C335 H322 0.929 . S
C335 C327 1.433 . S
C335 N337 1.384 . S
N336 C332 1.427 1_655 S
N336 C333 1.384 . S
N337 C329 1.427 . S
N337 C335 1.384 . S
H338 C344 0.930 . S
H339 C348 0.930 . S
H340 C353 0.929 . S
H341 C351 0.929 . S
H342 C346 0.929 . S
H343 C352 0.929 . S
C344 H338 0.930 . S
C344 C345 1.367 . S
C344 C352 1.378 . S
C345 C344 1.367 . S
C345 C353 1.433 . S
C346 H342 0.929 . S
C346 C348 1.378 . S
C346 C350 1.350 . S
C347 C350 1.463 . S
C347 C352 1.350 . S
C347 N355 1.427 . S
C348 H339 0.930 . S
C348 C346 1.378 . S
C348 C349 1.367 . S
C349 C348 1.367 . S
C349 C351 1.433 . S
C350 C346 1.350 . S
C350 C347 1.463 . S
C350 N354 1.427 . S
C351 H341 0.929 . S
C351 C349 1.433 . S
C351 N354 1.384 . S
C352 H343 0.929 . S
C352 C344 1.378 . S
C352 C347 1.350 . S
C353 H340 0.929 . S
C353 C345 1.433 . S
C353 N355 1.384 . S
N354 C350 1.427 . S
N354 C351 1.384 . S
N355 C347 1.427 . S
N355 C353 1.384 . S
H356 C362 0.930 . S
H357 C366 0.930 . S
H358 C371 0.929 . S
H359 C369 0.929 . S
H360 C364 0.929 . S
H361 C370 0.929 . S
C362 H356 0.930 . S
C362 C363 1.367 . S
C362 C370 1.378 . S
C363 C362 1.367 . S
C363 C371 1.433 . S
C364 H360 0.929 . S
C364 C366 1.378 . S
C364 C368 1.350 . S
C365 C368 1.463 . S
C365 C370 1.350 . S
C365 N373 1.427 . S
C366 H357 0.930 . S
C366 C364 1.378 . S
C366 C367 1.367 . S
C367 C366 1.367 . S
C367 C369 1.433 . S
C368 C364 1.350 . S
C368 C365 1.463 . S
C368 N372 1.427 . S
C369 H359 0.929 . S
C369 C367 1.433 . S
C369 N372 1.384 . S
C370 H361 0.929 . S
C370 C362 1.378 . S
C370 C365 1.350 . S
C371 H358 0.929 . S
C371 C363 1.433 . S
C371 N373 1.384 . S
N372 C368 1.427 . S
N372 C369 1.384 . S
N373 C365 1.427 . S
N373 C371 1.384 . S
H374 C380 0.929 1_565 S
H375 C384 0.930 . S
H376 C389 0.929 . S
H377 C387 0.929 . S
H378 C382 0.929 . S
H379 C388 0.929 1_565 S
C380 H374 0.929 1_545 S
C380 C381 1.367 . S
C380 C388 1.378 . S
C381 C380 1.367 . S
C381 C389 1.433 . S
C382 H378 0.929 . S
C382 C384 1.378 . S
C382 C386 1.350 . S
C383 C386 1.463 . S
C383 C388 1.350 . S
C383 N391 1.427 . S
C384 H375 0.930 . S
C384 C382 1.378 . S
C384 C385 1.361 1_545 S
C385 C384 1.361 1_565 S
C385 C387 1.436 . S
C386 C382 1.350 . S
C386 C383 1.463 . S
C386 N390 1.427 1_545 S
C387 H377 0.929 . S
C387 C385 1.436 . S
C387 N390 1.384 . S
C388 H379 0.929 1_545 S
C388 C380 1.378 . S
C388 C383 1.350 . S
C389 H376 0.929 . S
C389 C381 1.433 . S
C389 N391 1.384 . S
N390 C386 1.427 1_565 S
N390 C387 1.384 . S
N391 C383 1.427 . S
N391 C389 1.384 . S
H392 C398 0.930 . S
H393 C402 0.912 1_565 S
H394 C407 0.929 . S
H395 C405 0.929 . S
H396 C400 0.929 1_565 S
H397 C406 0.929 . S
C398 H392 0.930 . S
C398 C399 1.367 . S
C398 C406 1.378 . S
C399 C398 1.367 . S
C399 C407 1.433 1_545 S
C400 H396 0.929 1_545 S
C400 C402 1.378 . S
C400 C404 1.350 . S
C401 C404 1.463 . S
C401 C406 1.350 . S
C401 N409 1.427 1_545 S
C402 H393 0.912 1_545 S
C402 C400 1.378 . S
C402 C403 1.367 . S
C403 C402 1.367 . S
C403 C405 1.433 . S
C404 C400 1.350 . S
C404 C401 1.463 . S
C404 N408 1.427 . S
C405 H395 0.929 . S
C405 C403 1.433 . S
C405 N408 1.384 . S
C406 H397 0.929 . S
C406 C398 1.378 . S
C406 C401 1.350 . S
C407 H394 0.929 . S
C407 C399 1.433 1_565 S
C407 N409 1.384 . S
N408 C404 1.427 . S
N408 C405 1.384 . S
N409 C401 1.427 1_565 S
N409 C407 1.384 . S
H410 C416 0.943 . S
H411 C420 0.930 . S
H412 C425 0.929 . S
H413 C423 0.929 . S
H414 C418 0.929 . S
H415 C424 0.929 . S
C416 H410 0.943 . S
C416 C417 1.350 1_655 S
C416 C424 1.383 . S
C417 C416 1.350 1_455 S
C417 C425 1.433 . S
C418 H414 0.929 . S
C418 C420 1.378 . S
C418 C422 1.350 . S
C419 C422 1.463 . S
C419 C424 1.350 1_455 S
C419 N427 1.427 . S
C420 H411 0.930 . S
C420 C418 1.378 . S
C420 C421 1.367 . S
C421 C420 1.367 . S
C421 C423 1.433 1_455 S
C422 C418 1.350 . S
C422 C419 1.463 . S
C422 N426 1.427 1_455 S
C423 H413 0.929 . S
C423 C421 1.433 1_655 S
C423 N426 1.384 . S
C424 H415 0.929 . S
C424 C416 1.383 . S
C424 C419 1.350 1_655 S
C425 H412 0.929 . S
C425 C417 1.433 . S
C425 N427 1.384 . S
N426 C422 1.427 1_655 S
N426 C423 1.384 . S
N427 C419 1.427 . S
N427 C425 1.384 . S
H428 C434 0.930 . S
H429 C438 0.930 . S
H430 C443 0.929 . S
H431 C441 0.929 . S
H432 C436 0.929 . S
H433 C442 0.929 . S
C434 H428 0.930 . S
C434 C435 1.367 . S
C434 C442 1.378 . S
C435 C434 1.367 . S
C435 C443 1.433 . S
C436 H432 0.929 . S
C436 C438 1.378 . S
C436 C440 1.350 . S
C437 C440 1.463 . S
C437 C442 1.350 . S
C437 N445 1.427 . S
C438 H429 0.930 . S
C438 C436 1.378 . S
C438 C439 1.367 . S
C439 C438 1.367 . S
C439 C441 1.433 . S
C440 C436 1.350 . S
C440 C437 1.463 . S
C440 N444 1.427 . S
C441 H431 0.929 . S
C441 C439 1.433 . S
C441 N444 1.384 . S
C442 H433 0.929 . S
C442 C434 1.378 . S
C442 C437 1.350 . S
C443 H430 0.929 . S
C443 C435 1.433 . S
C443 N445 1.384 . S
N444 C440 1.427 . S
N444 C441 1.384 . S
N445 C437 1.427 . S
N445 C443 1.384 . S
H446 C452 0.930 . S
H447 C456 0.930 . S
H448 C461 0.929 . S
H449 C459 0.929 . S
H450 C454 0.929 . S
H451 C460 0.929 . S
C452 H446 0.930 . S
C452 C453 1.367 . S
C452 C460 1.378 . S
C453 C452 1.367 . S
C453 C461 1.433 . S
C454 H450 0.929 . S
C454 C456 1.378 . S
C454 C458 1.350 . S
C455 C458 1.463 . S
C455 C460 1.350 . S
C455 N463 1.427 . S
C456 H447 0.930 . S
C456 C454 1.378 . S
C456 C457 1.367 . S
C457 C456 1.367 . S
C457 C459 1.433 . S
C458 C454 1.350 . S
C458 C455 1.463 . S
C458 N462 1.427 . S
C459 H449 0.929 . S
C459 C457 1.433 . S
C459 N462 1.384 . S
C460 H451 0.929 . S
C460 C452 1.378 . S
C460 C455 1.350 . S
C461 H448 0.929 . S
C461 C453 1.433 . S
C461 N463 1.384 . S
N462 C458 1.427 . S
N462 C459 1.384 . S
N463 C455 1.427 . S
N463 C461 1.384 . S
H464 C470 0.930 . S
H465 C474 0.930 . S
H466 C479 0.929 . S
H467 C477 0.929 . S
H468 C472 0.929 . S
H469 C478 0.929 . S
C470 H464 0.930 . S
C470 C471 1.367 . S
C470 C478 1.378 . S
C471 C470 1.367 . S
C471 C479 1.433 . S
C472 H468 0.929 . S
C472 C474 1.378 . S
C472 C476 1.350 . S
C473 C476 1.463 . S
C473 C478 1.350 . S
C473 N481 1.427 . S
C474 H465 0.930 . S
C474 C472 1.378 . S
C474 C475 1.367 . S
C475 C474 1.367 . S
C475 C477 1.433 . S
C476 C472 1.350 . S
C476 C473 1.463 . S
C476 N480 1.427 . S
C477 H467 0.929 . S
C477 C475 1.433 . S
C477 N480 1.384 . S
C478 H469 0.929 . S
C478 C470 1.378 . S
C478 C473 1.350 . S
C479 H466 0.929 . S
C479 C471 1.433 . S
C479 N481 1.384 . S
N480 C476 1.427 . S
N480 C477 1.384 . S
N481 C473 1.427 . S
N481 C479 1.384 . S
H482 C488 0.930 . S
H483 C492 0.930 . S
H484 C497 0.929 . S
H485 C495 0.929 . S
H486 C490 0.929 . S
H487 C496 0.929 . S
C488 H482 0.930 . S
C488 C489 1.367 . S
C488 C496 1.378 . S
C489 C488 1.367 . S
C489 C497 1.433 . S
C490 H486 0.929 . S
C490 C492 1.378 . S
C490 C494 1.350 . S
C491 C494 1.463 . S
C491 C496 1.350 . S
C491 N499 1.427 . S
C492 H483 0.930 . S
C492 C490 1.378 . S
C492 C493 1.367 . S
C493 C492 1.367 . S
C493 C495 1.433 . S
C494 C490 1.350 . S
C494 C491 1.463 . S
C494 N498 1.427 . S
C495 H485 0.929 . S
C495 C493 1.433 . S
C495 N498 1.384 . S
C496 H487 0.929 . S
C496 C488 1.378 . S
C496 C491 1.350 . S
C497 H484 0.929 . S
C497 C489 1.433 . S
C497 N499 1.384 . S
N498 C494 1.427 . S
N498 C495 1.384 . S
N499 C491 1.427 . S
N499 C497 1.384 . S
H500 C506 0.930 . S
H501 C510 0.930 . S
H502 C515 0.929 . S
H503 C513 0.929 1_565 S
H504 C508 0.929 . S
H505 C514 0.929 . S
C506 H500 0.930 . S
C506 C507 1.367 1_565 S
C506 C514 1.378 . S
C507 C506 1.367 1_545 S
C507 C515 1.433 . S
C508 H504 0.929 . S
C508 C510 1.378 . S
C508 C512 1.350 . S
C509 C512 1.463 . S
C509 C514 1.350 1_545 S
C509 N517 1.427 . S
C510 H501 0.930 . S
C510 C508 1.378 . S
C510 C511 1.367 . S
C511 C510 1.367 . S
C511 C513 1.433 . S
C512 C508 1.350 . S
C512 C509 1.463 . S
C512 N516 1.427 . S
C513 H503 0.929 1_545 S
C513 C511 1.433 . S
C513 N516 1.384 . S
C514 H505 0.929 . S
C514 C506 1.378 . S
C514 C509 1.350 1_565 S
C515 H502 0.929 . S
C515 C507 1.433 . S
C515 N517 1.384 . S
N516 C512 1.427 . S
N516 C513 1.384 . S
N517 C509 1.427 . S
N517 C515 1.384 . S
H518 C524 0.930 . S
H519 C528 0.930 . S
H520 C533 0.929 1_655 S
H521 C531 0.929 . S
H522 C526 0.929 . S
H523 C532 0.929 . S
C524 H518 0.930 . S
C524 C525 1.367 . S
C524 C532 1.378 . S
C525 C524 1.367 . S
C525 C533 1.433 . S
C526 H522 0.929 . S
C526 C528 1.378 . S
C526 C530 1.350 1_655 S
C527 C530 1.463 . S
C527 C532 1.350 . S
C527 N535 1.433 . S
C528 H519 0.930 . S
C528 C526 1.378 . S
C528 C529 1.367 1_655 S
C529 C528 1.367 1_455 S
C529 C531 1.433 . S
C530 C526 1.350 1_455 S
C530 C527 1.463 . S
C530 N534 1.427 . S
C531 H521 0.929 . S
C531 C529 1.433 . S
C531 N534 1.384 . S
C532 H523 0.929 . S
C532 C524 1.378 . S
C532 C527 1.350 . S
C533 H520 0.929 1_455 S
C533 C525 1.433 . S
C533 N535 1.386 . S
N534 C530 1.427 . S
N534 C531 1.384 . S
N535 C527 1.433 . S
N535 C533 1.386 . S
H536 C542 0.930 . S
H537 C546 0.930 . S
H538 C551 0.929 . S
H539 C549 0.929 . S
H540 C544 0.929 . S
H541 C550 0.929 . S
C542 H536 0.930 . S
C542 C543 1.367 1_556 S
C542 C550 1.378 . S
C543 C542 1.367 1_554 S
C543 C551 1.433 . S
C544 H540 0.929 . S
C544 C546 1.378 . S
C544 C548 1.350 . S
C545 C548 1.463 . S
C545 C550 1.350 1_554 S
C545 N553 1.427 . S
C546 H537 0.930 . S
C546 C544 1.378 . S
C546 C547 1.367 . S
C547 C546 1.367 . S
C547 C549 1.433 1_554 S
C548 C544 1.350 . S
C548 C545 1.463 . S
C548 N552 1.427 1_554 S
C549 H539 0.929 . S
C549 C547 1.433 1_556 S
C549 N552 1.384 . S
C550 H541 0.929 . S
C550 C542 1.378 . S
C550 C545 1.350 1_556 S
C551 H538 0.929 . S
C551 C543 1.433 . S
C551 N553 1.384 . S
N552 C548 1.427 1_556 S
N552 C549 1.384 . S
N553 C545 1.427 . S
N553 C551 1.384 . S
H554 C560 0.930 . S
H555 C564 0.930 . S
H556 C569 0.929 . S
H557 C567 0.929 . S
H558 C562 0.929 . S
H559 C568 0.929 . S
C560 H554 0.930 . S
C560 C561 1.367 . S
C560 C568 1.378 . S
C561 C560 1.367 . S
C561 C569 1.433 . S
C562 H558 0.929 . S
C562 C564 1.378 . S
C562 C566 1.350 . S
C563 C566 1.463 . S
C563 C568 1.350 . S
C563 N571 1.427 . S
C564 H555 0.930 . S
C564 C562 1.378 . S
C564 C565 1.367 . S
C565 C564 1.367 . S
C565 C567 1.433 . S
C566 C562 1.350 . S
C566 C563 1.463 . S
C566 N570 1.427 . S
C567 H557 0.929 . S
C567 C565 1.433 . S
C567 N570 1.384 . S
C568 H559 0.929 . S
C568 C560 1.378 . S
C568 C563 1.350 . S
C569 H556 0.929 . S
C569 C561 1.433 . S
C569 N571 1.384 . S
N570 C566 1.427 . S
N570 C567 1.384 . S
N571 C563 1.427 . S
N571 C569 1.384 . S
H572 C578 0.930 . S
H573 C582 0.930 . S
H574 C587 0.929 . S
H575 C585 0.929 . S
H576 C580 0.929 . S
H577 C586 0.929 . S
C578 H572 0.930 . S
C578 C579 1.367 . S
C578 C586 1.378 . S
C579 C578 1.367 . S
C579 C587 1.433 . S
C580 H576 0.929 . S
C580 C582 1.378 . S
C580 C584 1.350 . S
C581 C584 1.463 . S
C581 C586 1.350 . S
C581 N589 1.427 . S
C582 H573 0.930 . S
C582 C580 1.378 . S
C582 C583 1.367 . S
C583 C582 1.367 . S
C583 C585 1.433 . S
C584 C580 1.350 . S
C584 C581 1.463 . S
C584 N588 1.427 . S
C585 H575 0.929 . S
C585 C583 1.433 . S
C585 N588 1.384 . S
C586 H577 0.929 . S
C586 C578 1.378 . S
C586 C581 1.350 . S
C587 H574 0.929 . S
C587 C579 1.433 . S
C587 N589 1.384 . S
N588 C584 1.427 . S
N588 C585 1.384 . S
N589 C581 1.427 . S
N589 C587 1.384 . S
H590 C596 0.930 . S
H591 C600 0.930 . S
H592 C605 0.929 . S
H593 C603 0.929 . S
H594 C598 0.929 . S
H595 C604 0.929 . S
C596 H590 0.930 . S
C596 C597 1.367 . S
C596 C604 1.378 . S
C597 C596 1.367 . S
C597 C605 1.433 . S
C598 H594 0.929 . S
C598 C600 1.378 . S
C598 C602 1.350 . S
C599 C602 1.463 . S
C599 C604 1.350 . S
C599 N607 1.427 . S
C600 H591 0.930 . S
C600 C598 1.378 . S
C600 C601 1.367 . S
C601 C600 1.367 . S
C601 C603 1.433 . S
C602 C598 1.350 . S
C602 C599 1.463 . S
C602 N606 1.427 . S
C603 H593 0.929 . S
C603 C601 1.433 . S
C603 N606 1.384 . S
C604 H595 0.929 . S
C604 C596 1.378 . S
C604 C599 1.350 . S
C605 H592 0.929 . S
C605 C597 1.433 . S
C605 N607 1.384 . S
N606 C602 1.427 . S
N606 C603 1.384 . S
N607 C599 1.427 . S
N607 C605 1.384 . S
H608 C614 0.930 . S
H609 C618 0.930 . S
H610 C623 0.929 . S
H611 C621 0.929 . S
H612 C616 0.929 . S
H613 C622 0.929 . S
C614 H608 0.930 . S
C614 C615 1.367 . S
C614 C622 1.378 . S
C615 C614 1.367 . S
C615 C623 1.433 . S
C616 H612 0.929 . S
C616 C618 1.378 . S
C616 C620 1.350 . S
C617 C620 1.463 . S
C617 C622 1.350 . S
C617 N625 1.427 . S
C618 H609 0.930 . S
C618 C616 1.378 . S
C618 C619 1.367 . S
C619 C618 1.367 . S
C619 C621 1.433 . S
C620 C616 1.350 . S
C620 C617 1.463 . S
C620 N624 1.427 . S
C621 H611 0.929 . S
C621 C619 1.433 . S
C621 N624 1.384 . S
C622 H613 0.929 . S
C622 C614 1.378 . S
C622 C617 1.350 . S
C623 H610 0.929 . S
C623 C615 1.433 . S
C623 N625 1.384 . S
N624 C620 1.427 . S
N624 C621 1.384 . S
N625 C617 1.427 . S
N625 C623 1.384 . S
H626 C632 0.930 . S
H627 C636 0.930 . S
H628 C641 0.929 . S
H629 C639 0.929 . S
H630 C634 0.929 . S
H631 C640 0.929 . S
C632 H626 0.930 . S
C632 C633 1.367 . S
C632 C640 1.378 . S
C633 C632 1.367 . S
C633 C641 1.433 . S
C634 H630 0.929 . S
C634 C636 1.378 . S
C634 C638 1.350 . S
C635 C638 1.463 . S
C635 C640 1.350 . S
C635 N643 1.427 . S
C636 H627 0.930 . S
C636 C634 1.378 . S
C636 C637 1.367 . S
C637 C636 1.367 . S
C637 C639 1.433 . S
C638 C634 1.350 . S
C638 C635 1.463 . S
C638 N642 1.427 . S
C639 H629 0.929 . S
C639 C637 1.433 . S
C639 N642 1.384 . S
C640 H631 0.929 . S
C640 C632 1.378 . S
C640 C635 1.350 . S
C641 H628 0.929 . S
C641 C633 1.433 . S
C641 N643 1.384 . S
N642 C638 1.427 . S
N642 C639 1.384 . S
N643 C635 1.427 . S
N643 C641 1.384 . S
H644 C650 0.930 . S
H645 C654 0.930 . S
H646 C659 0.929 . S
H647 C657 0.929 . S
H648 C652 0.929 . S
H649 C658 0.929 . S
C650 H644 0.930 . S
C650 C651 1.367 . S
C650 C658 1.378 . S
C651 C650 1.367 . S
C651 C659 1.433 . S
C652 H648 0.929 . S
C652 C654 1.378 . S
C652 C656 1.350 . S
C653 C656 1.463 . S
C653 C658 1.350 . S
C653 N661 1.427 . S
C654 H645 0.930 . S
C654 C652 1.378 . S
C654 C655 1.367 . S
C655 C654 1.367 . S
C655 C657 1.433 . S
C656 C652 1.350 . S
C656 C653 1.463 . S
C656 N660 1.427 . S
C657 H647 0.929 . S
C657 C655 1.433 . S
C657 N660 1.384 . S
C658 H649 0.929 . S
C658 C650 1.378 . S
C658 C653 1.350 . S
C659 H646 0.929 . S
C659 C651 1.433 . S
C659 N661 1.384 . S
N660 C656 1.427 . S
N660 C657 1.384 . S
N661 C653 1.427 . S
N661 C659 1.384 . S
H662 C668 0.930 . S
H663 C672 0.930 . S
H664 C677 0.929 . S
H665 C675 0.929 . S
H666 C670 0.929 . S
H667 C676 0.929 . S
C668 H662 0.930 . S
C668 C669 1.367 . S
C668 C676 1.378 . S
C669 C668 1.367 . S
C669 C677 1.433 . S
C670 H666 0.929 . S
C670 C672 1.378 . S
C670 C674 1.350 . S
C671 C674 1.463 . S
C671 C676 1.350 . S
C671 N679 1.427 . S
C672 H663 0.930 . S
C672 C670 1.378 . S
C672 C673 1.367 . S
C673 C672 1.367 . S
C673 C675 1.433 . S
C674 C670 1.350 . S
C674 C671 1.463 . S
C674 N678 1.427 . S
C675 H665 0.929 . S
C675 C673 1.433 . S
C675 N678 1.384 . S
C676 H667 0.929 . S
C676 C668 1.378 . S
C676 C671 1.350 . S
C677 H664 0.929 . S
C677 C669 1.433 . S
C677 N679 1.384 . S
N678 C674 1.427 . S
N678 C675 1.384 . S
N679 C671 1.427 . S
N679 C677 1.384 . S
H680 C686 0.930 . S
H681 C690 0.930 . S
H682 C695 0.929 . S
H683 C693 0.929 . S
H684 C688 0.929 . S
H685 C694 0.929 . S
C686 H680 0.930 . S
C686 C687 1.367 . S
C686 C694 1.378 . S
C687 C686 1.367 . S
C687 C695 1.433 . S
C688 H684 0.929 . S
C688 C690 1.378 . S
C688 C692 1.350 . S
C689 C692 1.463 . S
C689 C694 1.350 . S
C689 N697 1.427 . S
C690 H681 0.930 . S
C690 C688 1.378 . S
C690 C691 1.367 . S
C691 C690 1.367 . S
C691 C693 1.433 . S
C692 C688 1.350 . S
C692 C689 1.463 . S
C692 N696 1.427 . S
C693 H683 0.929 . S
C693 C691 1.433 . S
C693 N696 1.384 . S
C694 H685 0.929 . S
C694 C686 1.378 . S
C694 C689 1.350 . S
C695 H682 0.929 . S
C695 C687 1.433 . S
C695 N697 1.384 . S
N696 C692 1.427 . S
N696 C693 1.384 . S
N697 C689 1.427 . S
N697 C695 1.384 . S
H698 C704 0.930 . S
H699 C708 0.930 . S
H700 C713 0.929 . S
H701 C711 0.929 . S
H702 C706 0.929 . S
H703 C712 0.929 . S
C704 H698 0.930 . S
C704 C705 1.367 . S
C704 C712 1.378 . S
C705 C704 1.367 . S
C705 C713 1.433 1_455 S
C706 H702 0.929 . S
C706 C708 1.378 . S
C706 C710 1.350 1_655 S
C707 C710 1.463 . S
C707 C712 1.350 . S
C707 N715 1.427 1_455 S
C708 H699 0.930 . S
C708 C706 1.378 . S
C708 C709 1.367 1_655 S
C709 C708 1.367 1_455 S
C709 C711 1.433 . S
C710 C706 1.350 1_455 S
C710 C707 1.463 . S
C710 N714 1.427 . S
C711 H701 0.929 . S
C711 C709 1.433 . S
C711 N714 1.384 . S
C712 H703 0.929 . S
C712 C704 1.378 . S
C712 C707 1.350 . S
C713 H700 0.929 . S
C713 C705 1.433 1_655 S
C713 N715 1.384 . S
N714 C710 1.427 . S
N714 C711 1.384 . S
N715 C707 1.427 1_655 S
N715 C713 1.384 . S
H716 C722 0.930 . S
H717 C726 0.930 . S
H718 C731 0.929 . S
H719 C729 0.929 . S
H720 C724 0.929 . S
H721 C730 0.929 . S
C722 H716 0.930 . S
C722 C723 1.367 . S
C722 C730 1.378 . S
C723 C722 1.367 . S
C723 C731 1.433 . S
C724 H720 0.929 . S
C724 C726 1.378 . S
C724 C728 1.350 . S
C725 C728 1.463 . S
C725 C730 1.350 . S
C725 N733 1.427 . S
C726 H717 0.930 . S
C726 C724 1.378 . S
C726 C727 1.367 . S
C727 C726 1.367 . S
C727 C729 1.433 . S
C728 C724 1.350 . S
C728 C725 1.463 . S
C728 N732 1.427 . S
C729 H719 0.929 . S
C729 C727 1.433 . S
C729 N732 1.384 . S
C730 H721 0.929 . S
C730 C722 1.378 . S
C730 C725 1.350 . S
C731 H718 0.929 . S
C731 C723 1.433 . S
C731 N733 1.384 . S
N732 C728 1.427 . S
N732 C729 1.384 . S
N733 C725 1.427 . S
N733 C731 1.384 . S
H734 C740 0.930 . S
H735 C744 0.930 . S
H736 C749 0.929 . S
H737 C747 0.929 . S
H738 C742 0.929 . S
H739 C748 0.929 . S
C740 H734 0.930 . S
C740 C741 1.367 . S
C740 C748 1.378 . S
C741 C740 1.367 . S
C741 C749 1.433 . S
C742 H738 0.929 . S
C742 C744 1.378 . S
C742 C746 1.350 . S
C743 C746 1.463 . S
C743 C748 1.350 . S
C743 N751 1.427 . S
C744 H735 0.930 . S
C744 C742 1.378 . S
C744 C745 1.367 . S
C745 C744 1.367 . S
C745 C747 1.433 . S
C746 C742 1.350 . S
C746 C743 1.463 . S
C746 N750 1.427 . S
C747 H737 0.929 . S
C747 C745 1.433 . S
C747 N750 1.384 . S
C748 H739 0.929 . S
C748 C740 1.378 . S
C748 C743 1.350 . S
C749 H736 0.929 . S
C749 C741 1.433 . S
C749 N751 1.384 . S
N750 C746 1.427 . S
N750 C747 1.384 . S
N751 C743 1.427 . S
N751 C749 1.384 . S
H752 C758 0.930 . S
H753 C762 0.930 . S
H754 C767 0.929 . S
H755 C765 0.929 . S
H756 C760 0.929 . S
H757 C766 0.929 . S
C758 H752 0.930 . S
C758 C759 1.367 . S
C758 C766 1.378 . S
C759 C758 1.367 . S
C759 C767 1.433 . S
C760 H756 0.929 . S
C760 C762 1.378 . S
C760 C764 1.350 . S
C761 C764 1.463 . S
C761 C766 1.350 . S
C761 N769 1.427 . S
C762 H753 0.930 . S
C762 C760 1.378 . S
C762 C763 1.367 . S
C763 C762 1.367 . S
C763 C765 1.433 . S
C764 C760 1.350 . S
C764 C761 1.463 . S
C764 N768 1.427 . S
C765 H755 0.929 . S
C765 C763 1.433 . S
C765 N768 1.384 . S
C766 H757 0.929 . S
C766 C758 1.378 . S
C766 C761 1.350 . S
C767 H754 0.929 . S
C767 C759 1.433 . S
C767 N769 1.384 . S
N768 C764 1.427 . S
N768 C765 1.384 . S
N769 C761 1.427 . S
N769 C767 1.384 . S
H770 C776 0.930 . S
H771 C780 0.930 . S
H772 C785 0.929 . S
H773 C783 0.929 . S
H774 C778 0.929 . S
H775 C784 0.929 . S
C776 H770 0.930 . S
C776 C777 1.367 . S
C776 C784 1.378 . S
C777 C776 1.367 . S
C777 C785 1.433 . S
C778 H774 0.929 . S
C778 C780 1.378 . S
C778 C782 1.350 . S
C779 C782 1.463 . S
C779 C784 1.350 . S
C779 N787 1.427 . S
C780 H771 0.930 . S
C780 C778 1.378 . S
C780 C781 1.367 . S
C781 C780 1.367 . S
C781 C783 1.433 . S
C782 C778 1.350 . S
C782 C779 1.463 . S
C782 N786 1.427 . S
C783 H773 0.929 . S
C783 C781 1.433 . S
C783 N786 1.384 . S
C784 H775 0.929 . S
C784 C776 1.378 . S
C784 C779 1.350 . S
C785 H772 0.929 . S
C785 C777 1.433 . S
C785 N787 1.384 . S
N786 C782 1.427 . S
N786 C783 1.384 . S
N787 C779 1.427 . S
N787 C785 1.384 . S
H788 C794 0.930 . S
H789 C798 0.930 . S
H790 C803 0.929 . S
H791 C801 0.929 . S
H792 C796 0.929 . S
H793 C802 0.929 . S
C794 H788 0.930 . S
C794 C795 1.374 . S
C794 C802 1.378 . S
C795 C794 1.374 . S
C795 C803 1.419 1_565 S
C796 H792 0.929 . S
C796 C798 1.378 . S
C796 C800 1.350 . S
C797 C800 1.463 . S
C797 C802 1.350 1_545 S
C797 N805 1.427 . S
C798 H789 0.930 . S
C798 C796 1.378 . S
C798 C799 1.367 . S
C799 C798 1.367 . S
C799 C801 1.433 1_545 S
C800 C796 1.350 . S
C800 C797 1.463 . S
C800 N804 1.427 1_545 S
C801 H791 0.929 . S
C801 C799 1.433 1_565 S
C801 N804 1.384 . S
C802 H793 0.929 . S
C802 C794 1.378 . S
C802 C797 1.350 1_565 S
C803 H790 0.929 . S
C803 C795 1.419 1_545 S
C803 N805 1.384 . S
N804 C800 1.427 1_565 S
N804 C801 1.384 . S
N805 C797 1.427 . S
N805 C803 1.384 . S
H806 C812 0.930 . S
H807 C816 0.930 . S
H808 C821 0.929 . S
H809 C819 0.929 . S
H810 C814 0.929 . S
H811 C820 0.929 . S
C812 H806 0.930 . S
C812 C813 1.367 1_554 S
C812 C820 1.378 . S
C813 C812 1.367 1_556 S
C813 C821 1.433 . S
C814 H810 0.929 . S
C814 C816 1.378 . S
C814 C818 1.350 . S
C815 C818 1.463 . S
C815 C820 1.350 1_556 S
C815 N823 1.427 . S
C816 H807 0.930 . S
C816 C814 1.378 . S
C816 C817 1.367 . S
C817 C816 1.367 . S
C817 C819 1.433 1_556 S
C818 C814 1.350 . S
C818 C815 1.463 . S
C818 N822 1.427 1_556 S
C819 H809 0.929 . S
C819 C817 1.433 1_554 S
C819 N822 1.384 . S
C820 H811 0.929 . S
C820 C812 1.378 . S
C820 C815 1.350 1_554 S
C821 H808 0.929 . S
C821 C813 1.433 . S
C821 N823 1.384 . S
N822 C818 1.427 1_554 S
N822 C819 1.384 . S
N823 C815 1.427 . S
N823 C821 1.384 . S
H824 C830 0.930 . S
H825 C834 0.930 . S
H826 C839 0.929 . S
H827 C837 0.929 . S
H828 C832 0.929 . S
H829 C838 0.929 . S
C830 H824 0.930 . S
C830 C831 1.367 . S
C830 C838 1.378 . S
C831 C830 1.367 . S
C831 C839 1.433 . S
C832 H828 0.929 . S
C832 C834 1.378 . S
C832 C836 1.350 . S
C833 C836 1.463 . S
C833 C838 1.350 . S
C833 N841 1.427 . S
C834 H825 0.930 . S
C834 C832 1.378 . S
C834 C835 1.367 . S
C835 C834 1.367 . S
C835 C837 1.433 . S
C836 C832 1.350 . S
C836 C833 1.463 . S
C836 N840 1.427 . S
C837 H827 0.929 . S
C837 C835 1.433 . S
C837 N840 1.384 . S
C838 H829 0.929 . S
C838 C830 1.378 . S
C838 C833 1.350 . S
C839 H826 0.929 . S
C839 C831 1.433 . S
C839 N841 1.384 . S
N840 C836 1.427 . S
N840 C837 1.384 . S
N841 C833 1.427 . S
N841 C839 1.384 . S
H842 C848 0.930 . S
H843 C852 0.930 . S
H844 C857 0.929 . S
H845 C855 0.929 . S
H846 C850 0.929 . S
H847 C856 0.929 . S
C848 H842 0.930 . S
C848 C849 1.367 . S
C848 C856 1.378 . S
C849 C848 1.367 . S
C849 C857 1.433 . S
C850 H846 0.929 . S
C850 C852 1.378 . S
C850 C854 1.350 . S
C851 C854 1.463 . S
C851 C856 1.350 . S
C851 N859 1.427 . S
C852 H843 0.930 . S
C852 C850 1.378 . S
C852 C853 1.367 . S
C853 C852 1.367 . S
C853 C855 1.433 . S
C854 C850 1.350 . S
C854 C851 1.463 . S
C854 N858 1.427 . S
C855 H845 0.929 . S
C855 C853 1.433 . S
C855 N858 1.384 . S
C856 H847 0.929 . S
C856 C848 1.378 . S
C856 C851 1.350 . S
C857 H844 0.929 . S
C857 C849 1.433 . S
C857 N859 1.384 . S
N858 C854 1.427 . S
N858 C855 1.384 . S
N859 C851 1.427 . S
N859 C857 1.384 . S
H860 C866 0.930 . S
H861 C870 0.930 . S
H862 C875 0.929 . S
H863 C873 0.929 . S
H864 C868 0.929 . S
H865 C874 0.929 . S
C866 H860 0.930 . S
C866 C867 1.367 . S
C866 C874 1.378 . S
C867 C866 1.367 . S
C867 C875 1.433 . S
C868 H864 0.929 . S
C868 C870 1.378 . S
C868 C872 1.350 . S
C869 C872 1.463 . S
C869 C874 1.350 . S
C869 N877 1.427 . S
C870 H861 0.930 . S
C870 C868 1.378 . S
C870 C871 1.367 . S
C871 C870 1.367 . S
C871 C873 1.433 . S
C872 C868 1.350 . S
C872 C869 1.463 . S
C872 N876 1.427 . S
C873 H863 0.929 . S
C873 C871 1.433 . S
C873 N876 1.384 . S
C874 H865 0.929 . S
C874 C866 1.378 . S
C874 C869 1.350 . S
C875 H862 0.929 . S
C875 C867 1.433 . S
C875 N877 1.384 . S
N876 C872 1.427 . S
N876 C873 1.384 . S
N877 C869 1.427 . S
N877 C875 1.384 . S
H878 C884 0.930 . S
H879 C888 0.930 . S
H880 C893 0.929 . S
H881 C891 0.929 . S
H882 C886 0.929 . S
H883 C892 0.929 . S
C884 H878 0.930 . S
C884 C885 1.367 . S
C884 C892 1.378 . S
C885 C884 1.367 . S
C885 C893 1.433 . S
C886 H882 0.929 . S
C886 C888 1.378 . S
C886 C890 1.350 . S
C887 C890 1.463 . S
C887 C892 1.350 . S
C887 N895 1.427 . S
C888 H879 0.930 . S
C888 C886 1.378 . S
C888 C889 1.367 . S
C889 C888 1.367 . S
C889 C891 1.433 . S
C890 C886 1.350 . S
C890 C887 1.463 . S
C890 N894 1.427 . S
C891 H881 0.929 . S
C891 C889 1.433 . S
C891 N894 1.384 . S
C892 H883 0.929 . S
C892 C884 1.378 . S
C892 C887 1.350 . S
C893 H880 0.929 . S
C893 C885 1.433 . S
C893 N895 1.384 . S
N894 C890 1.427 . S
N894 C891 1.384 . S
N895 C887 1.427 . S
N895 C893 1.384 . S
H896 C902 0.930 . S
H897 C906 0.930 . S
H898 C911 0.929 . S
H899 C909 0.929 . S
H900 C904 0.929 . S
H901 C910 0.929 . S
C902 H896 0.930 . S
C902 C903 1.367 . S
C902 C910 1.378 . S
C903 C902 1.367 . S
C903 C911 1.433 . S
C904 H900 0.929 . S
C904 C906 1.378 . S
C904 C908 1.350 . S
C905 C908 1.463 . S
C905 C910 1.350 . S
C905 N913 1.427 . S
C906 H897 0.930 . S
C906 C904 1.378 . S
C906 C907 1.367 . S
C907 C906 1.367 . S
C907 C909 1.433 . S
C908 C904 1.350 . S
C908 C905 1.463 . S
C908 N912 1.427 . S
C909 H899 0.929 . S
C909 C907 1.433 . S
C909 N912 1.384 . S
C910 H901 0.929 . S
C910 C902 1.378 . S
C910 C905 1.350 . S
C911 H898 0.929 . S
C911 C903 1.433 . S
C911 N913 1.384 . S
N912 C908 1.427 . S
N912 C909 1.384 . S
N913 C905 1.427 . S
N913 C911 1.384 . S
H914 C920 0.930 . S
H915 C924 0.930 . S
H916 C929 0.929 . S
H917 C927 0.929 . S
H918 C922 0.929 . S
H919 C928 0.929 . S
C920 H914 0.930 . S
C920 C921 1.367 . S
C920 C928 1.378 . S
C921 C920 1.367 . S
C921 C929 1.433 . S
C922 H918 0.929 . S
C922 C924 1.378 . S
C922 C926 1.350 . S
C923 C926 1.463 . S
C923 C928 1.350 . S
C923 N931 1.427 . S
C924 H915 0.930 . S
C924 C922 1.378 . S
C924 C925 1.367 . S
C925 C924 1.367 . S
C925 C927 1.433 . S
C926 C922 1.350 . S
C926 C923 1.463 . S
C926 N930 1.427 . S
C927 H917 0.929 . S
C927 C925 1.433 . S
C927 N930 1.384 . S
C928 H919 0.929 . S
C928 C920 1.378 . S
C928 C923 1.350 . S
C929 H916 0.929 . S
C929 C921 1.433 . S
C929 N931 1.384 . S
N930 C926 1.427 . S
N930 C927 1.384 . S
N931 C923 1.427 . S
N931 C929 1.384 . S
H932 C938 0.930 . S
H933 C942 0.930 . S
H934 C947 0.929 . S
H935 C945 0.929 . S
H936 C940 0.929 . S
H937 C946 0.929 . S
C938 H932 0.930 . S
C938 C939 1.367 . S
C938 C946 1.378 . S
C939 C938 1.367 . S
C939 C947 1.433 . S
C940 H936 0.929 . S
C940 C942 1.378 . S
C940 C944 1.350 . S
C941 C944 1.463 . S
C941 C946 1.350 . S
C941 N949 1.427 . S
C942 H933 0.930 . S
C942 C940 1.378 . S
C942 C943 1.367 . S
C943 C942 1.367 . S
C943 C945 1.433 . S
C944 C940 1.350 . S
C944 C941 1.463 . S
C944 N948 1.427 . S
C945 H935 0.929 . S
C945 C943 1.433 . S
C945 N948 1.384 . S
C946 H937 0.929 . S
C946 C938 1.378 . S
C946 C941 1.350 . S
C947 H934 0.929 . S
C947 C939 1.433 . S
C947 N949 1.384 . S
N948 C944 1.427 . S
N948 C945 1.384 . S
N949 C941 1.427 . S
N949 C947 1.384 . S
H950 C956 0.930 . S
H951 C960 0.930 . S
H952 C965 0.929 . S
H953 C963 0.929 . S
H954 C958 0.929 . S
H955 C964 0.929 . S
C956 H950 0.930 . S
C956 C957 1.367 . S
C956 C964 1.378 . S
C957 C956 1.367 . S
C957 C965 1.433 . S
C958 H954 0.929 . S
C958 C960 1.378 . S
C958 C962 1.350 . S
C959 C962 1.463 . S
C959 C964 1.350 . S
C959 N967 1.427 . S
C960 H951 0.930 . S
C960 C958 1.378 . S
C960 C961 1.367 . S
C961 C960 1.367 . S
C961 C963 1.433 . S
C962 C958 1.350 . S
C962 C959 1.463 . S
C962 N966 1.427 . S
C963 H953 0.929 . S
C963 C961 1.433 . S
C963 N966 1.384 . S
C964 H955 0.929 . S
C964 C956 1.378 . S
C964 C959 1.350 . S
C965 H952 0.929 . S
C965 C957 1.433 . S
C965 N967 1.384 . S
N966 C962 1.427 . S
N966 C963 1.384 . S
N967 C959 1.427 . S
N967 C965 1.384 . S
H968 C974 0.930 . S
H969 C978 0.930 . S
H970 C983 0.929 . S
H971 C981 0.929 . S
H972 C976 0.929 . S
H973 C982 0.929 . S
C974 H968 0.930 . S
C974 C975 1.367 . S
C974 C982 1.378 . S
C975 C974 1.367 . S
C975 C983 1.433 . S
C976 H972 0.929 . S
C976 C978 1.378 . S
C976 C980 1.350 . S
C977 C980 1.463 . S
C977 C982 1.350 . S
C977 N985 1.427 . S
C978 H969 0.930 . S
C978 C976 1.378 . S
C978 C979 1.367 . S
C979 C978 1.367 . S
C979 C981 1.433 . S
C980 C976 1.350 . S
C980 C977 1.463 . S
C980 N984 1.427 . S
C981 H971 0.929 . S
C981 C979 1.433 . S
C981 N984 1.384 . S
C982 H973 0.929 . S
C982 C974 1.378 . S
C982 C977 1.350 . S
C983 H970 0.929 . S
C983 C975 1.433 . S
C983 N985 1.384 . S
N984 C980 1.427 . S
N984 C981 1.384 . S
N985 C977 1.427 . S
N985 C983 1.384 . S
H986 C992 0.930 . S
H987 C996 0.930 . S
H988 C1001 0.929 . S
H989 C999 0.929 . S
H990 C994 0.929 . S
H991 C1000 0.929 . S
C992 H986 0.930 . S
C992 C993 1.367 1_554 S
C992 C1000 1.378 . S
C993 C992 1.367 1_556 S
C993 C1001 1.433 . S
C994 H990 0.929 . S
C994 C996 1.378 . S
C994 C998 1.350 . S
C995 C998 1.463 . S
C995 C1000 1.350 1_556 S
C995 N1003 1.427 . S
C996 H987 0.930 . S
C996 C994 1.378 . S
C996 C997 1.367 . S
C997 C996 1.367 . S
C997 C999 1.433 1_556 S
C998 C994 1.350 . S
C998 C995 1.463 . S
C998 N1002 1.427 1_556 S
C999 H989 0.929 . S
C999 C997 1.433 1_554 S
C999 N1002 1.384 . S
C1000 H991 0.929 . S
C1000 C992 1.378 . S
C1000 C995 1.350 1_554 S
C1001 H988 0.929 . S
C1001 C993 1.433 . S
C1001 N1003 1.384 . S
N1002 C998 1.427 1_554 S
N1002 C999 1.384 . S
N1003 C995 1.427 . S
N1003 C1001 1.384 . S
H1004 C1010 0.930 . S
H1005 C1014 0.930 . S
H1006 C1019 0.929 . S
H1007 C1017 0.929 . S
H1008 C1012 0.929 . S
H1009 C1018 0.929 . S
C1010 H1004 0.930 . S
C1010 C1011 1.367 . S
C1010 C1018 1.378 . S
C1011 C1010 1.367 . S
C1011 C1019 1.433 . S
C1012 H1008 0.929 . S
C1012 C1014 1.378 . S
C1012 C1016 1.350 . S
C1013 C1016 1.463 . S
C1013 C1018 1.350 . S
C1013 N1021 1.427 . S
C1014 H1005 0.930 . S
C1014 C1012 1.378 . S
C1014 C1015 1.367 . S
C1015 C1014 1.367 . S
C1015 C1017 1.433 . S
C1016 C1012 1.350 . S
C1016 C1013 1.463 . S
C1016 N1020 1.427 . S
C1017 H1007 0.929 . S
C1017 C1015 1.433 . S
C1017 N1020 1.384 . S
C1018 H1009 0.929 . S
C1018 C1010 1.378 . S
C1018 C1013 1.350 . S
C1019 H1006 0.929 . S
C1019 C1011 1.433 . S
C1019 N1021 1.384 . S
N1020 C1016 1.427 . S
N1020 C1017 1.384 . S
N1021 C1013 1.427 . S
N1021 C1019 1.384 . S
H1022 C1028 0.930 . S
H1023 C1032 0.930 . S
H1024 C1037 0.929 . S
H1025 C1035 0.929 . S
H1026 C1030 0.929 . S
H1027 C1036 0.929 . S
C1028 H1022 0.930 . S
C1028 C1029 1.367 . S
C1028 C1036 1.378 . S
C1029 C1028 1.367 . S
C1029 C1037 1.433 . S
C1030 H1026 0.929 . S
C1030 C1032 1.378 . S
C1030 C1034 1.350 . S
C1031 C1034 1.463 . S
C1031 C1036 1.350 . S
C1031 N1039 1.427 . S
C1032 H1023 0.930 . S
C1032 C1030 1.378 . S
C1032 C1033 1.367 . S
C1033 C1032 1.367 . S
C1033 C1035 1.433 . S
C1034 C1030 1.350 . S
C1034 C1031 1.463 . S
C1034 N1038 1.427 . S
C1035 H1025 0.929 . S
C1035 C1033 1.433 . S
C1035 N1038 1.384 . S
C1036 H1027 0.929 . S
C1036 C1028 1.378 . S
C1036 C1031 1.350 . S
C1037 H1024 0.929 . S
C1037 C1029 1.433 . S
C1037 N1039 1.384 . S
N1038 C1034 1.427 . S
N1038 C1035 1.384 . S
N1039 C1031 1.427 . S
N1039 C1037 1.384 . S
H1040 C1046 0.930 . S
H1041 C1050 0.930 . S
H1042 C1055 0.929 . S
H1043 C1053 0.929 . S
H1044 C1048 0.929 . S
H1045 C1054 0.929 . S
C1046 H1040 0.930 . S
C1046 C1047 1.367 . S
C1046 C1054 1.378 . S
C1047 C1046 1.367 . S
C1047 C1055 1.433 . S
C1048 H1044 0.929 . S
C1048 C1050 1.378 . S
C1048 C1052 1.350 . S
C1049 C1052 1.463 . S
C1049 C1054 1.350 . S
C1049 N1057 1.427 . S
C1050 H1041 0.930 . S
C1050 C1048 1.378 . S
C1050 C1051 1.367 . S
C1051 C1050 1.367 . S
C1051 C1053 1.433 . S
C1052 C1048 1.350 . S
C1052 C1049 1.463 . S
C1052 N1056 1.427 . S
C1053 H1043 0.929 . S
C1053 C1051 1.433 . S
C1053 N1056 1.384 . S
C1054 H1045 0.929 . S
C1054 C1046 1.378 . S
C1054 C1049 1.350 . S
C1055 H1042 0.929 . S
C1055 C1047 1.433 . S
C1055 N1057 1.384 . S
N1056 C1052 1.427 . S
N1056 C1053 1.384 . S
N1057 C1049 1.427 . S
N1057 C1055 1.384 . S
H1058 C1064 0.930 . S
H1059 C1068 0.930 . S
H1060 C1073 0.929 . S
H1061 C1071 0.929 . S
H1062 C1066 0.929 . S
H1063 C1072 0.929 . S
C1064 H1058 0.930 . S
C1064 C1065 1.367 . S
C1064 C1072 1.378 . S
C1065 C1064 1.367 . S
C1065 C1073 1.433 . S
C1066 H1062 0.929 . S
C1066 C1068 1.378 . S
C1066 C1070 1.350 . S
C1067 C1070 1.463 . S
C1067 C1072 1.350 . S
C1067 N1075 1.427 . S
C1068 H1059 0.930 . S
C1068 C1066 1.378 . S
C1068 C1069 1.367 . S
C1069 C1068 1.367 . S
C1069 C1071 1.433 . S
C1070 C1066 1.350 . S
C1070 C1067 1.463 . S
C1070 N1074 1.427 . S
C1071 H1061 0.929 . S
C1071 C1069 1.433 . S
C1071 N1074 1.384 . S
C1072 H1063 0.929 . S
C1072 C1064 1.378 . S
C1072 C1067 1.350 . S
C1073 H1060 0.929 . S
C1073 C1065 1.433 . S
C1073 N1075 1.384 . S
N1074 C1070 1.427 . S
N1074 C1071 1.384 . S
N1075 C1067 1.427 . S
N1075 C1073 1.384 . S
H1076 C1082 0.930 . S
H1077 C1086 0.930 . S
H1078 C1091 0.929 . S
H1079 C1089 0.929 . S
H1080 C1084 0.929 . S
H1081 C1090 0.929 . S
C1082 H1076 0.930 . S
C1082 C1083 1.367 . S
C1082 C1090 1.378 . S
C1083 C1082 1.367 . S
C1083 C1091 1.433 1_554 S
C1084 H1080 0.929 . S
C1084 C1086 1.378 . S
C1084 C1088 1.350 1_556 S
C1085 C1088 1.463 . S
C1085 C1090 1.350 . S
C1085 N1093 1.427 1_554 S
C1086 H1077 0.930 . S
C1086 C1084 1.378 . S
C1086 C1087 1.367 1_556 S
C1087 C1086 1.367 1_554 S
C1087 C1089 1.433 . S
C1088 C1084 1.350 1_554 S
C1088 C1085 1.463 . S
C1088 N1092 1.427 . S
C1089 H1079 0.929 . S
C1089 C1087 1.433 . S
C1089 N1092 1.384 . S
C1090 H1081 0.929 . S
C1090 C1082 1.378 . S
C1090 C1085 1.350 . S
C1091 H1078 0.929 . S
C1091 C1083 1.433 1_556 S
C1091 N1093 1.384 . S
N1092 C1088 1.427 . S
N1092 C1089 1.384 . S
N1093 C1085 1.427 1_556 S
N1093 C1091 1.384 . S
H1094 C1100 0.930 . S
H1095 C1104 0.930 . S
H1096 C1109 0.929 . S
H1097 C1107 0.929 . S
H1098 C1102 0.929 . S
H1099 C1108 0.929 . S
C1100 H1094 0.930 . S
C1100 C1101 1.367 . S
C1100 C1108 1.378 . S
C1101 C1100 1.367 . S
C1101 C1109 1.433 . S
C1102 H1098 0.929 . S
C1102 C1104 1.378 . S
C1102 C1106 1.350 . S
C1103 C1106 1.463 . S
C1103 C1108 1.350 . S
C1103 N1111 1.427 . S
C1104 H1095 0.930 . S
C1104 C1102 1.378 . S
C1104 C1105 1.367 . S
C1105 C1104 1.367 . S
C1105 C1107 1.433 . S
C1106 C1102 1.350 . S
C1106 C1103 1.463 . S
C1106 N1110 1.427 . S
C1107 H1097 0.929 . S
C1107 C1105 1.433 . S
C1107 N1110 1.384 . S
C1108 H1099 0.929 . S
C1108 C1100 1.378 . S
C1108 C1103 1.350 . S
C1109 H1096 0.929 . S
C1109 C1101 1.433 . S
C1109 N1111 1.384 . S
N1110 C1106 1.427 . S
N1110 C1107 1.384 . S
N1111 C1103 1.427 . S
N1111 C1109 1.384 . S
H1112 C1118 0.930 . S
H1113 C1122 0.930 . S
H1114 C1127 0.929 . S
H1115 C1125 0.929 . S
H1116 C1120 0.929 . S
H1117 C1126 0.929 . S
C1118 H1112 0.930 . S
C1118 C1119 1.367 . S
C1118 C1126 1.378 . S
C1119 C1118 1.367 . S
C1119 C1127 1.433 . S
C1120 H1116 0.929 . S
C1120 C1122 1.378 . S
C1120 C1124 1.350 . S
C1121 C1124 1.463 . S
C1121 C1126 1.350 . S
C1121 N1129 1.427 . S
C1122 H1113 0.930 . S
C1122 C1120 1.378 . S
C1122 C1123 1.367 . S
C1123 C1122 1.367 . S
C1123 C1125 1.433 . S
C1124 C1120 1.350 . S
C1124 C1121 1.463 . S
C1124 N1128 1.427 . S
C1125 H1115 0.929 . S
C1125 C1123 1.433 . S
C1125 N1128 1.384 . S
C1126 H1117 0.929 . S
C1126 C1118 1.378 . S
C1126 C1121 1.350 . S
C1127 H1114 0.929 . S
C1127 C1119 1.433 . S
C1127 N1129 1.384 . S
N1128 C1124 1.427 . S
N1128 C1125 1.384 . S
N1129 C1121 1.427 . S
N1129 C1127 1.384 . S
H1130 C1136 0.930 . S
H1131 C1140 0.930 . S
H1132 C1145 0.929 . S
H1133 C1143 0.929 . S
H1134 C1138 0.929 . S
H1135 C1144 0.929 . S
C1136 H1130 0.930 . S
C1136 C1137 1.367 . S
C1136 C1144 1.378 . S
C1137 C1136 1.367 . S
C1137 C1145 1.433 . S
C1138 H1134 0.929 . S
C1138 C1140 1.378 . S
C1138 C1142 1.350 . S
C1139 C1142 1.463 . S
C1139 C1144 1.350 . S
C1139 N1147 1.427 . S
C1140 H1131 0.930 . S
C1140 C1138 1.378 . S
C1140 C1141 1.367 . S
C1141 C1140 1.367 . S
C1141 C1143 1.433 . S
C1142 C1138 1.350 . S
C1142 C1139 1.463 . S
C1142 N1146 1.427 . S
C1143 H1133 0.929 . S
C1143 C1141 1.433 . S
C1143 N1146 1.384 . S
C1144 H1135 0.929 . S
C1144 C1136 1.378 . S
C1144 C1139 1.350 . S
C1145 H1132 0.929 . S
C1145 C1137 1.433 . S
C1145 N1147 1.384 . S
N1146 C1142 1.427 . S
N1146 C1143 1.384 . S
N1147 C1139 1.427 . S
N1147 C1145 1.384 . S
H1148 C1154 0.930 . S
H1149 C1158 0.930 . S
H1150 C1163 0.929 . S
H1151 C1161 0.929 . S
H1152 C1156 0.929 . S
H1153 C1162 0.929 . S
C1154 H1148 0.930 . S
C1154 C1155 1.367 . S
C1154 C1162 1.378 . S
C1155 C1154 1.367 . S
C1155 C1163 1.433 . S
C1156 H1152 0.929 . S
C1156 C1158 1.378 . S
C1156 C1160 1.350 . S
C1157 C1160 1.463 . S
C1157 C1162 1.350 . S
C1157 N1165 1.427 . S
C1158 H1149 0.930 . S
C1158 C1156 1.378 . S
C1158 C1159 1.367 . S
C1159 C1158 1.367 . S
C1159 C1161 1.433 . S
C1160 C1156 1.350 . S
C1160 C1157 1.463 . S
C1160 N1164 1.427 . S
C1161 H1151 0.929 . S
C1161 C1159 1.433 . S
C1161 N1164 1.384 . S
C1162 H1153 0.929 . S
C1162 C1154 1.378 . S
C1162 C1157 1.350 . S
C1163 H1150 0.929 . S
C1163 C1155 1.433 . S
C1163 N1165 1.384 . S
N1164 C1160 1.427 . S
N1164 C1161 1.384 . S
N1165 C1157 1.427 . S
N1165 C1163 1.384 . S
H1166 C1172 0.930 . S
H1167 C1176 0.930 . S
H1168 C1181 0.929 . S
H1169 C1179 0.929 . S
H1170 C1174 0.929 . S
H1171 C1180 0.929 . S
C1172 H1166 0.930 . S
C1172 C1173 1.367 . S
C1172 C1180 1.378 . S
C1173 C1172 1.367 . S
C1173 C1181 1.433 . S
C1174 H1170 0.929 . S
C1174 C1176 1.378 . S
C1174 C1178 1.350 . S
C1175 C1178 1.463 . S
C1175 C1180 1.350 . S
C1175 N1183 1.427 . S
C1176 H1167 0.930 . S
C1176 C1174 1.378 . S
C1176 C1177 1.367 . S
C1177 C1176 1.367 . S
C1177 C1179 1.433 . S
C1178 C1174 1.350 . S
C1178 C1175 1.463 . S
C1178 N1182 1.427 . S
C1179 H1169 0.929 . S
C1179 C1177 1.433 . S
C1179 N1182 1.384 . S
C1180 H1171 0.929 . S
C1180 C1172 1.378 . S
C1180 C1175 1.350 . S
C1181 H1168 0.929 . S
C1181 C1173 1.433 . S
C1181 N1183 1.384 . S
N1182 C1178 1.427 . S
N1182 C1179 1.384 . S
N1183 C1175 1.427 . S
N1183 C1181 1.384 . S
C327 C17 1.729 1_455 S
C331 C34 1.783 . S
C345 C53 1.641 . S
C349 C25 1.593 . S
C363 C65 1.778 . S
C367 C57 1.746 . S
C381 C13 1.642 . S
C385 C74 1.590 1_565 S
C399 C2 2.020 . S
C403 C188 1.776 . S
C417 C145 1.746 . S
C421 C28 1.637 . S
C435 C42 2.024 . S
C439 C217 1.794 . S
C453 C77 1.628 . S
C457 C265 1.739 . S
C471 C162 2.022 . S
C475 C37 1.786 . S
C489 C257 1.632 . S
C493 C45 1.744 . S
C507 C282 2.024 . S
C511 C68 1.794 . S
C525 C5 1.737 . S
C529 C228 1.636 . S
C543 C14 1.355 . S
C547 C174 1.363 . S
C561 C253 1.932 . S
C565 C82 1.930 . S
C579 C108 1.501 . S
C583 C288 1.513 . S
C597 C222 1.932 . S
C601 C133 1.931 . S
C615 C48 1.512 . S
C619 C148 1.494 . S
C633 C182 2.325 . S
C637 C93 2.324 . S
C651 C122 2.324 . S
C655 C213 2.325 . S
C669 C102 2.022 . S
C673 C237 1.788 . S
C687 C197 1.646 . S
C691 C105 1.740 . S
C705 C234 1.784 . S
C709 C157 1.730 1_455 S
C723 C113 1.641 . S
C727 C85 1.592 . S
C741 C185 1.782 . S
C745 C177 1.735 . S
C759 C273 1.643 . S
C763 C225 1.599 . S
C777 C125 1.784 . S
C781 C117 1.749 . S
C795 C194 1.595 1_565 S
C799 C293 1.643 . S
C813 C268 1.499 . S
C817 C8 1.514 . S
C831 C54 1.360 . S
C835 C294 1.352 . S
C849 C242 2.325 . S
C853 C33 2.324 . S
C867 C154 1.359 . S
C871 C114 1.365 . S
C885 C73 1.928 . S
C889 C202 1.930 . S
C903 C245 1.781 . S
C907 C277 1.735 . S
C921 C153 1.644 . S
C925 C254 1.599 . S
C939 C128 1.776 . S
C943 C142 2.020 . S
C957 C97 1.779 . S
C961 C262 2.021 . S
C975 C248 1.775 . S
C979 C302 2.020 . S
C993 C308 1.499 . S
C997 C168 1.514 . S
C1011 C22 1.929 . S
C1015 C193 1.931 . S
C1029 C165 1.741 . S
C1033 C137 1.646 . S
C1047 C173 1.641 . S
C1051 C205 1.588 . S
C1065 C313 1.642 . S
C1069 C134 1.590 . S
C1083 C274 1.362 . S
C1087 C314 1.355 . S
C1101 C233 2.324 . S
C1105 C62 2.325 . S
C1119 C214 1.787 . S
C1123 C297 1.738 . S
C1137 C208 1.629 . S
C1141 C305 1.738 . S
C1155 C88 1.646 . S
C1159 C285 1.741 . S
C1173 C317 1.740 . S
C1177 C94 1.787 . S
