# Generated by pormake.
# Topology ukb, (4)-cn, num edge types: 1
# Building blocks:
#     Node 0, Type 0, BuildingBlock: AZAVOO_clean_sbu_0, # of connection points: 4
#     Node 1, Type 0, BuildingBlock: AZAVOO_clean_sbu_0, # of connection points: 4
#     Node 2, Type 0, BuildingBlock: AZAVOO_clean_sbu_0, # of connection points: 4
#     Node 3, Type 0, BuildingBlock: AZAVOO_clean_sbu_0, # of connection points: 4
#     Node 4, Type 0, BuildingBlock: AZAVOO_clean_sbu_0, # of connection points: 4
#     Node 5, Type 0, BuildingBlock: AZAVOO_clean_sbu_0, # of connection points: 4
#     Node 6, Type 0, BuildingBlock: AZAVOO_clean_sbu_0, # of connection points: 4
#     Node 7, Type 0, BuildingBlock: AZAVOO_clean_sbu_0, # of connection points: 4
#     Node 8, Type 0, BuildingBlock: AZAVOO_clean_sbu_0, # of connection points: 4
#     Node 9, Type 0, BuildingBlock: AZAVOO_clean_sbu_0, # of connection points: 4
#     Node 10, Type 0, BuildingBlock: AZAVOO_clean_sbu_0, # of connection points: 4
#     Node 11, Type 0, BuildingBlock: AZAVOO_clean_sbu_0, # of connection points: 4
#     Node 12, Type 0, BuildingBlock: AZAVOO_clean_sbu_0, # of connection points: 4
#     Node 13, Type 0, BuildingBlock: AZAVOO_clean_sbu_0, # of connection points: 4
#     Node 14, Type 0, BuildingBlock: AZAVOO_clean_sbu_0, # of connection points: 4
#     Node 15, Type 0, BuildingBlock: AZAVOO_clean_sbu_0, # of connection points: 4
#     Edge 16, Type (0, 0), BuildingBlock: OJICUG_clean_linker_0, # of connection points: 2
#     Edge 17, Type (0, 0), BuildingBlock: OJICUG_clean_linker_0, # of connection points: 2
#     Edge 18, Type (0, 0), BuildingBlock: OJICUG_clean_linker_0, # of connection points: 2
#     Edge 19, Type (0, 0), BuildingBlock: OJICUG_clean_linker_0, # of connection points: 2
#     Edge 20, Type (0, 0), BuildingBlock: OJICUG_clean_linker_0, # of connection points: 2
#     Edge 21, Type (0, 0), BuildingBlock: OJICUG_clean_linker_0, # of connection points: 2
#     Edge 22, Type (0, 0), BuildingBlock: OJICUG_clean_linker_0, # of connection points: 2
#     Edge 23, Type (0, 0), BuildingBlock: OJICUG_clean_linker_0, # of connection points: 2
#     Edge 24, Type (0, 0), BuildingBlock: OJICUG_clean_linker_0, # of connection points: 2
#     Edge 25, Type (0, 0), BuildingBlock: OJICUG_clean_linker_0, # of connection points: 2
#     Edge 26, Type (0, 0), BuildingBlock: OJICUG_clean_linker_0, # of connection points: 2
#     Edge 27, Type (0, 0), BuildingBlock: OJICUG_clean_linker_0, # of connection points: 2
#     Edge 28, Type (0, 0), BuildingBlock: OJICUG_clean_linker_0, # of connection points: 2
#     Edge 29, Type (0, 0), BuildingBlock: OJICUG_clean_linker_0, # of connection points: 2
#     Edge 30, Type (0, 0), BuildingBlock: OJICUG_clean_linker_0, # of connection points: 2
#     Edge 31, Type (0, 0), BuildingBlock: OJICUG_clean_linker_0, # of connection points: 2
#     Edge 32, Type (0, 0), BuildingBlock: OJICUG_clean_linker_0, # of connection points: 2
#     Edge 33, Type (0, 0), BuildingBlock: OJICUG_clean_linker_0, # of connection points: 2
#     Edge 34, Type (0, 0), BuildingBlock: OJICUG_clean_linker_0, # of connection points: 2
#     Edge 35, Type (0, 0), BuildingBlock: OJICUG_clean_linker_0, # of connection points: 2
#     Edge 36, Type (0, 0), BuildingBlock: OJICUG_clean_linker_0, # of connection points: 2
#     Edge 37, Type (0, 0), BuildingBlock: OJICUG_clean_linker_0, # of connection points: 2
#     Edge 38, Type (0, 0), BuildingBlock: OJICUG_clean_linker_0, # of connection points: 2
#     Edge 39, Type (0, 0), BuildingBlock: OJICUG_clean_linker_0, # of connection points: 2
#     Edge 40, Type (0, 0), BuildingBlock: OJICUG_clean_linker_0, # of connection points: 2
#     Edge 41, Type (0, 0), BuildingBlock: OJICUG_clean_linker_0, # of connection points: 2
#     Edge 42, Type (0, 0), BuildingBlock: OJICUG_clean_linker_0, # of connection points: 2
#     Edge 43, Type (0, 0), BuildingBlock: OJICUG_clean_linker_0, # of connection points: 2
#     Edge 44, Type (0, 0), BuildingBlock: OJICUG_clean_linker_0, # of connection points: 2
#     Edge 45, Type (0, 0), BuildingBlock: OJICUG_clean_linker_0, # of connection points: 2
#     Edge 46, Type (0, 0), BuildingBlock: OJICUG_clean_linker_0, # of connection points: 2
#     Edge 47, Type (0, 0), BuildingBlock: OJICUG_clean_linker_0, # of connection points: 2
# Relax obj value: 0.166
# Max RMSD: 0.205
# Mean RMSD: 0.180
data_MOF--net-ukb--node1-AZAVOO_clean_sbu_0--edge1-OJICUG_clean_linker_0
_symmetry_space_group_name_H-M    P1
_symmetry_Int_Tables_number       1
_symmetry_cell_setting            triclinic
loop_
_symmetry_equiv_pos_as_xyz
'x, y, z'
_cell_length_a     29.065256
_cell_length_b     32.980273
_cell_length_c     30.044311
_cell_angle_alpha  90.045859
_cell_angle_beta   90.072067
_cell_angle_gamma 89.355826
loop_
_atom_site_label
_atom_site_type_symbol
_atom_site_fract_x
_atom_site_fract_y
_atom_site_fract_z
_atom_type_partial_charge
Mg0 Mg 0.53282 0.12606 0.16539 0.0
O1 O 0.54332 0.17553 0.21869 0.0
O2 O 0.55773 0.14484 0.28376 0.0
Mg3 Mg 0.55 0.07727 0.27407 0.0
C4 C 0.55359 0.17676 0.26009 0.0
C5 C 0.53027 0.2057 0.1098 0.0
O6 O 0.56308 0.21368 0.1385 0.0
O7 O 0.45973 0.11612 0.18977 0.0
O8 O 0.47359 0.08665 0.25538 0.0
O9 O 0.60787 0.12398 0.15479 0.0
O10 O 0.57293 0.08643 0.20506 0.0
C11 C 0.44566 0.10047 0.22603 0.0
C12 C 0.6109 0.09949 0.18831 0.0
O13 O 0.50893 0.17239 0.11305 0.0
Mg14 Mg 0.31343 0.53145 0.67086 0.0
O15 O 0.25689 0.56915 0.70753 0.0
O16 O 0.2899 0.59003 0.77065 0.0
Mg17 Mg 0.36417 0.5672 0.77496 0.0
C18 C 0.25546 0.58875 0.74434 0.0
C19 C 0.29125 0.49583 0.58582 0.0
O20 O 0.33601 0.4949 0.59221 0.0
O21 O 0.30605 0.47674 0.71707 0.0
O22 O 0.34433 0.50025 0.7762 0.0
O23 O 0.34272 0.58701 0.63823 0.0
O24 O 0.36518 0.56121 0.70265 0.0
C25 C 0.32441 0.47149 0.75543 0.0
C26 C 0.37036 0.58773 0.67197 0.0
O27 O 0.26562 0.50808 0.61754 0.0
Mg28 Mg 0.97568 0.31239 0.16563 0.0
O29 O 0.96463 0.26052 0.216 0.0
O30 O 0.95223 0.29004 0.28221 0.0
Mg31 Mg 0.96007 0.35786 0.27602 0.0
C32 C 0.95514 0.2586 0.25757 0.0
C33 C 0.99134 0.28395 0.072 0.0
O34 O 0.97635 0.32163 0.06945 0.0
O35 O 0.04907 0.32065 0.19003 0.0
O36 O 0.03633 0.34905 0.25639 0.0
O37 O 0.90074 0.31553 0.15502 0.0
O38 O 0.93611 0.3508 0.20709 0.0
C39 C 0.06377 0.33563 0.22644 0.0
C40 C 0.89797 0.33869 0.1897 0.0
O41 O 0.99819 0.26879 0.1104 0.0
Mg42 Mg 0.19729 0.89996 0.67103 0.0
O43 O 0.25381 0.8625 0.70812 0.0
O44 O 0.21987 0.84031 0.77011 0.0
Mg45 Mg 0.1451 0.86205 0.77318 0.0
C46 C 0.25483 0.84241 0.7446 0.0
C47 C 0.21965 0.93839 0.58794 0.0
O48 O 0.17493 0.93931 0.59445 0.0
O49 O 0.20285 0.95398 0.71849 0.0
O50 O 0.16393 0.92928 0.77649 0.0
O51 O 0.17 0.84456 0.63647 0.0
O52 O 0.14549 0.86885 0.70093 0.0
C53 C 0.18388 0.95849 0.75664 0.0
C54 C 0.14171 0.84272 0.66956 0.0
O55 O 0.24537 0.92509 0.61914 0.0
Mg56 Mg 0.54367 0.33412 0.8604 0.0
O57 O 0.55205 0.28118 0.81009 0.0
O58 O 0.56869 0.30988 0.74453 0.0
Mg59 Mg 0.56552 0.37806 0.75055 0.0
C60 C 0.56274 0.27866 0.76878 0.0
C61 C 0.52524 0.30728 0.95364 0.0
O62 O 0.54362 0.34345 0.95602 0.0
O63 O 0.47143 0.34839 0.83443 0.0
O64 O 0.48851 0.37462 0.76805 0.0
O65 O 0.61854 0.3313 0.87267 0.0
O66 O 0.58711 0.36912 0.81993 0.0
C67 C 0.4592 0.3638 0.79727 0.0
C68 C 0.62383 0.35405 0.83806 0.0
O69 O 0.51689 0.29267 0.9153 0.0
Mg70 Mg 0.20455 0.51457 0.31386 0.0
O71 O 0.2632 0.54648 0.27441 0.0
O72 O 0.23437 0.55379 0.20581 0.0
Mg73 Mg 0.16157 0.52991 0.20043 0.0
C74 C 0.26663 0.55873 0.23405 0.0
C75 C 0.22162 0.49292 0.40654 0.0
O76 O 0.177 0.49361 0.39934 0.0
O77 O 0.21741 0.45304 0.28089 0.0
O78 O 0.18219 0.46442 0.21591 0.0
O79 O 0.17212 0.57446 0.33214 0.0
O80 O 0.15554 0.53879 0.27222 0.0
C81 C 0.20142 0.44038 0.24378 0.0
C82 C 0.14832 0.57055 0.296 0.0
O83 O 0.24844 0.49973 0.37399 0.0
Mg84 Mg 0.96821 0.10309 0.86117 0.0
O85 O 0.96133 0.15336 0.80772 0.0
O86 O 0.94296 0.12362 0.74321 0.0
Mg87 Mg 0.94504 0.05566 0.75296 0.0
C88 C 0.95028 0.15524 0.76651 0.0
C89 C 0.97793 0.18232 0.91636 0.0
O90 O 0.94543 0.19268 0.88801 0.0
O91 O 0.04004 0.08596 0.8361 0.0
O92 O 0.02207 0.0584 0.77048 0.0
O93 O 0.89321 0.10782 0.87263 0.0
O94 O 0.92411 0.06706 0.82225 0.0
C95 C 0.05173 0.06932 0.79941 0.0
C96 C 0.88763 0.0835 0.8393 0.0
O97 O 0.99667 0.14742 0.91302 0.0
Mg98 Mg 0.30587 0.92102 0.31665 0.0
O99 O 0.24769 0.88912 0.27624 0.0
O100 O 0.27782 0.88137 0.20828 0.0
Mg101 Mg 0.35086 0.90482 0.20419 0.0
C102 C 0.24493 0.87677 0.23584 0.0
C103 C 0.28831 0.94345 0.40867 0.0
O104 O 0.3329 0.943 0.40139 0.0
O105 O 0.29368 -0.01763 0.28304 0.0
O106 O 0.32957 0.97036 0.21857 0.0
O107 O 0.33799 0.86115 0.33582 0.0
O108 O 0.35548 0.89655 0.27608 0.0
C109 C 0.30986 -0.00539 0.24589 0.0
C110 C 0.36246 0.86498 0.30016 0.0
O111 O 0.26142 0.93629 0.37618 0.0
Mg112 Mg 0.53046 0.73584 0.79052 0.0
O113 O 0.45576 0.7594 0.7866 0.0
O114 O 0.40923 0.70671 0.79632 0.0
Mg115 Mg 0.45473 0.64975 0.80622 0.0
C116 C 0.41553 0.7444 0.78888 0.0
C117 C 0.58344 0.8106 0.76562 0.0
O118 O 0.59885 0.78321 0.73739 0.0
O119 O 0.52632 0.72863 0.86617 0.0
O120 O 0.48302 0.67321 0.87257 0.0
O121 O 0.52497 0.72485 0.71748 0.0
O122 O 0.51063 0.67952 0.77016 0.0
C123 C 0.50742 0.70115 0.88973 0.0
C124 C 0.50963 0.68967 0.72886 0.0
O125 O 0.55452 0.80021 0.79498 0.0
Mg126 Mg 0.65064 0.39541 0.35236 0.0
O127 O 0.71302 0.37841 0.30769 0.0
O128 O 0.68396 0.36447 0.24048 0.0
Mg129 Mg 0.60643 0.37351 0.24028 0.0
C130 C 0.71807 0.36776 0.26698 0.0
C131 C 0.67796 0.40766 0.44675 0.0
O132 O 0.63524 0.39501 0.44629 0.0
O133 O 0.64768 0.45793 0.31972 0.0
O134 O 0.61821 0.44064 0.2536 0.0
O135 O 0.63856 0.33038 0.36837 0.0
O136 O 0.60642 0.36237 0.31171 0.0
C137 C 0.63284 0.46725 0.2809 0.0
C138 C 0.61289 0.32912 0.3332 0.0
O139 O 0.69739 0.41468 0.40965 0.0
Mg140 Mg 0.98096 0.69824 0.78801 0.0
O141 O 0.05545 0.67402 0.78483 0.0
O142 O 0.10259 0.72661 0.79231 0.0
Mg143 Mg 0.0577 0.78411 0.80035 0.0
C144 C 0.09585 0.68877 0.78634 0.0
C145 C 0.92679 0.62356 0.76613 0.0
O146 O 0.91086 0.65072 0.73791 0.0
O147 O 0.98525 0.70802 0.86332 0.0
O148 O 0.02974 0.76282 0.86764 0.0
O149 O 0.98632 0.70664 0.71462 0.0
O150 O 1.00129 0.75369 0.76542 0.0
C151 C 1.00488 0.73584 0.8859 0.0
C152 C 1.00206 0.74206 0.72457 0.0
O153 O 0.95643 0.63417 0.7948 0.0
Mg154 Mg 0.8583 0.04017 0.35044 0.0
O155 O 0.79582 0.05727 0.30571 0.0
O156 O 0.82473 0.07111 0.23846 0.0
Mg157 Mg 0.9021 0.06133 0.23807 0.0
C158 C 0.79073 0.06804 0.26503 0.0
C159 C 0.83146 0.02885 0.44516 0.0
O160 O 0.87409 0.04171 0.4444 0.0
O161 O 0.86085 0.9774 0.3182 0.0
O162 O 0.88988 -0.00559 0.25191 0.0
O163 O 0.87073 0.10521 0.366 0.0
O164 O 0.9025 0.07285 0.30942 0.0
C165 C 0.87536 0.96792 0.27933 0.0
C166 C 0.89614 0.10624 0.33071 0.0
O167 O 0.81181 0.02143 0.40818 0.0
Mg168 Mg 0.52384 0.69348 0.18508 0.0
O169 O 0.45545 0.65952 0.19224 0.0
O170 O 0.3999 0.70143 0.16811 0.0
Mg171 Mg 0.43166 0.76268 0.14951 0.0
C172 C 0.41318 0.66733 0.18405 0.0
C173 C 0.58607 0.63029 0.23122 0.0
O174 O 0.58883 0.66065 0.25938 0.0
O175 O 0.52293 0.6867 0.10856 0.0
O176 O 0.47055 0.73469 0.09128 0.0
O177 O 0.51218 0.71847 0.25397 0.0
O178 O 0.49108 0.74836 0.19116 0.0
C179 C 0.50085 0.70834 0.08011 0.0
C180 C 0.49126 0.74803 0.23378 0.0
O181 O 0.56232 0.63456 0.19594 0.0
Mg182 Mg 0.87063 0.37965 0.66939 0.0
O183 O 0.81015 0.37119 0.71831 0.0
O184 O 0.83992 0.35849 0.78562 0.0
Mg185 Mg 0.91811 0.36042 0.781 0.0
C186 C 0.80543 0.36358 0.75978 0.0
C187 C 0.78341 0.38773 0.60827 0.0
O188 O 0.76954 0.35933 0.63561 0.0
O189 O 0.8804 0.44231 0.69842 0.0
O190 O 0.91164 0.4282 0.76482 0.0
O191 O 0.87537 0.31331 0.65663 0.0
O192 O 0.91301 0.34439 0.71037 0.0
C193 C 0.89739 0.45353 0.7356 0.0
C194 C 0.90215 0.311 0.69104 0.0
O195 O 0.82271 0.40338 0.61428 0.0
Mg196 Mg 0.98727 0.74357 0.18156 0.0
O197 O 0.05551 0.77776 0.18988 0.0
O198 O 0.11118 0.73651 0.1647 0.0
Mg199 Mg 0.07982 0.67567 0.14401 0.0
C200 C 0.09782 0.7702 0.1816 0.0
C201 C 0.92477 0.80566 0.22947 0.0
O202 O 0.92301 0.77517 0.2575 0.0
O203 O 0.98791 0.7521 0.10532 0.0
O204 O 0.04085 0.70504 0.08658 0.0
O205 O 0.9991 0.71715 0.24968 0.0
O206 O 0.02047 0.68876 0.18612 0.0
C207 C 0.01033 0.73149 0.07625 0.0
C208 C 0.02033 0.6882 0.22874 0.0
O209 O 0.94813 0.80192 0.19393 0.0
Mg210 Mg 0.64127 0.05451 0.66994 0.0
O211 O 0.70179 0.06304 0.71909 0.0
O212 O 0.6718 0.07591 0.78628 0.0
Mg213 Mg 0.5937 0.07329 0.78161 0.0
C214 C 0.70635 0.07095 0.76055 0.0
C215 C 0.7281 0.04721 0.60815 0.0
O216 O 0.74208 0.07553 0.63563 0.0
O217 O 0.63155 -0.00834 0.69838 0.0
O218 O 0.60046 0.00568 0.7648 0.0
O219 O 0.63655 0.12087 0.65779 0.0
O220 O 0.59884 0.08953 0.71117 0.0
C221 C 0.61458 -0.01962 0.73549 0.0
C222 C 0.60992 0.12302 0.69227 0.0
O223 O 0.68904 0.03122 0.61446 0.0
C224 C 0.37112 0.0784 0.19352 0.0
C225 C 0.3965 0.09041 0.231 0.0
H226 H 0.31967 0.03815 0.16908 0.0
C227 C 0.37861 0.08275 0.27356 0.0
H228 H 0.38356 0.0845 0.16024 0.0
C229 C 0.34105 0.05707 0.27858 0.0
C230 C 0.32235 0.03769 0.24111 0.0
H231 H 0.39686 0.0926 0.30305 0.0
H232 H 0.33226 0.04727 0.31189 0.0
C233 C 0.33411 0.05206 0.19858 0.0
C234 C 0.35079 0.42328 0.81388 0.0
C235 C 0.3384 0.43013 0.76919 0.0
H236 H 0.39948 0.39543 0.85823 0.0
C237 C 0.35645 0.40409 0.73634 0.0
H238 H 0.33718 0.44272 0.83993 0.0
C239 C 0.39312 0.37794 0.7466 0.0
C240 C 0.41085 0.37641 0.79009 0.0
H241 H 0.34751 0.40834 0.70162 0.0
H242 H 0.41072 0.36231 0.71972 0.0
C243 C 0.38676 0.39634 0.82433 0.0
C244 C 0.13833 0.35661 0.19313 0.0
C245 C 0.1131 0.34542 0.23095 0.0
H246 H 0.19018 0.39584 0.16772 0.0
C247 C 0.13154 0.35345 0.27326 0.0
H248 H 0.12551 0.35016 0.16002 0.0
C249 C 0.16955 0.37874 0.27764 0.0
C250 C 0.18819 0.39739 0.23975 0.0
H251 H 0.11348 0.34419 0.30303 0.0
H252 H 0.17884 0.38886 0.31074 0.0
C253 C 0.1758 0.38255 0.19753 0.0
C254 C 0.1534 0.02684 0.7389 0.0
C255 C 0.17 -0.00036 0.77132 0.0
H256 H 0.10116 0.07073 0.72264 0.0
C257 C 0.15708 0.0058 0.81597 0.0
H258 H 0.16272 0.02306 0.70422 0.0
C259 C 0.1222 0.03376 0.82663 0.0
C260 C 0.0996 0.05532 0.79261 0.0
H261 H 0.16952 -0.01458 0.84168 0.0
H262 H 0.10898 0.03438 0.86033 0.0
C263 C 0.11775 0.05399 0.74934 0.0
C264 C 0.61998 0.86631 0.72245 0.0
C265 C 0.59532 0.85358 0.76002 0.0
H266 H 0.64535 0.91644 0.68504 0.0
C267 C 0.57946 0.88263 0.79069 0.0
H268 H 0.6327 0.84457 0.69824 0.0
C269 C 0.58674 0.92373 0.78318 0.0
C270 C 0.60985 0.93667 0.74472 0.0
H271 H 0.56053 0.87372 0.82007 0.0
H272 H 0.57324 0.94537 0.8071 0.0
C273 C 0.62708 0.90749 0.71479 0.0
C274 C 0.61984 0.58145 0.28647 0.0
C275 C 0.60538 0.59015 0.24277 0.0
H276 H 0.64016 0.53541 0.33309 0.0
C277 C 0.60587 0.55912 0.21086 0.0
H278 H 0.62007 0.60489 0.31173 0.0
C279 C 0.61754 0.51963 0.22297 0.0
C280 C 0.62876 0.51018 0.26736 0.0
H281 H 0.5956 0.565 0.17677 0.0
H282 H 0.61594 0.4962 0.19774 0.0
C283 C 0.63141 0.54169 0.29871 0.0
C284 C 0.88988 0.56759 0.72355 0.0
C285 C 0.91517 0.58048 0.76074 0.0
H286 H 0.86453 0.51732 0.68624 0.0
C287 C 0.93215 0.5515 0.79093 0.0
H288 H 0.87628 0.58925 0.69972 0.0
C289 C 0.92539 0.51031 0.78325 0.0
C290 C 0.90171 0.49726 0.74509 0.0
H291 H 0.95161 0.56053 0.82 0.0
H292 H 0.93977 0.48873 0.80675 0.0
C293 C 0.88332 0.52635 0.71572 0.0
C294 C 0.88951 0.91542 0.22131 0.0
C295 C 0.87955 0.92496 0.26593 0.0
H296 H 0.91132 0.8702 0.17484 0.0
C297 C 0.87876 0.89364 0.29756 0.0
H298 H 0.88963 0.9387 0.19589 0.0
C299 C 0.89111 0.85405 0.28528 0.0
C300 C 0.9045 0.84538 0.24128 0.0
H301 H 0.87104 0.90002 0.33214 0.0
H302 H 0.89244 0.8308 0.3107 0.0
C303 C 0.90198 0.87612 0.20916 0.0
C304 C 0.55343 0.25266 0.25949 0.0
C305 C 0.56515 0.21604 0.28061 0.0
H306 H 0.55796 0.31717 0.26036 0.0
C307 C 0.59062 0.21708 0.32044 0.0
H308 H 0.53349 0.25287 0.229 0.0
C309 C 0.60556 0.25387 0.33787 0.0
C310 C 0.59497 0.29041 0.31609 0.0
H311 H 0.60034 0.18937 0.33752 0.0
H312 H 0.62606 0.25356 0.368 0.0
C313 C 0.56781 0.28951 0.27732 0.0
C314 C 0.21828 0.64781 0.78308 0.0
C315 C 0.21392 0.61308 0.75618 0.0
H316 H 0.18473 0.69905 0.81326 0.0
C317 C 0.17005 0.60269 0.74047 0.0
H318 H 0.25165 0.65689 0.79546 0.0
C319 C 0.13142 0.6265 0.75158 0.0
C320 C 0.13605 0.66172 0.77768 0.0
H321 H 0.16557 0.57613 0.71975 0.0
H322 H 0.09809 0.61793 0.73867 0.0
C323 C 0.17995 0.67208 0.79325 0.0
C324 C 0.94033 0.14576 0.27413 0.0
C325 C 0.91378 0.14488 0.31324 0.0
H326 H 0.97408 0.18244 0.22552 0.0
C327 C 0.90349 0.18143 0.33514 0.0
H328 H 0.94995 0.11809 0.25705 0.0
C329 C 0.91824 0.21817 0.31762 0.0
C330 C 0.94323 0.21922 0.27755 0.0
H331 H 0.88344 0.18178 0.3655 0.0
H332 H 0.90883 0.24586 0.33493 0.0
C333 C 0.9545 0.18262 0.25617 0.0
C334 C 0.29254 0.78401 0.78414 0.0
C335 C 0.29661 0.81859 0.757 0.0
H336 H 0.32656 0.73341 0.81508 0.0
C337 C 0.34044 0.82929 0.74159 0.0
H338 H 0.25923 0.77468 0.79633 0.0
C339 C 0.3793 0.80596 0.75319 0.0
C340 C 0.37499 0.7709 0.77956 0.0
H341 H 0.34472 0.85573 0.72071 0.0
H342 H 0.41258 0.8148 0.74049 0.0
C343 C 0.33113 0.76024 0.79485 0.0
C344 C 0.59753 0.2361 0.70869 0.0
C345 C 0.57222 0.23858 0.74852 0.0
H346 H 0.62954 0.19787 0.6601 0.0
C347 C 0.55799 0.20264 0.76905 0.0
H348 H 0.60926 0.26319 0.69201 0.0
C349 C 0.56929 0.165 0.75029 0.0
C350 C 0.59582 0.16261 0.71118 0.0
H351 H 0.53819 0.20357 0.79956 0.0
H352 H 0.55741 0.13792 0.76667 0.0
C353 C 0.60937 0.19859 0.69038 0.0
C354 C 0.3837 0.61 0.23118 0.0
C355 C 0.37789 0.6368 0.19506 0.0
H356 H 0.35284 0.56454 0.27258 0.0
C357 C 0.33664 0.63591 0.17089 0.0
H358 H 0.41511 0.61019 0.25061 0.0
C359 C 0.30165 0.60943 0.18282 0.0
C360 C 0.30643 0.58362 0.21994 0.0
H361 H 0.33117 0.65604 0.14284 0.0
H362 H 0.27008 0.61027 0.16362 0.0
C363 C 0.34804 0.58399 0.24388 0.0
C364 C 0.90401 0.23537 0.68789 0.0
C365 C 0.9169 0.27132 0.7093 0.0
H366 H 0.90492 0.17069 0.68879 0.0
C367 C 0.94346 0.26885 0.74841 0.0
H368 H 0.8839 0.23617 0.65752 0.0
C369 C 0.95521 0.23117 0.76673 0.0
C370 C 0.94139 0.19523 0.7458 0.0
H371 H 0.95486 0.2959 0.76525 0.0
H372 H 0.9748 0.23024 0.79742 0.0
C373 C 0.9163 0.19777 0.70578 0.0
C374 C 0.17451 0.80164 0.16983 0.0
C375 C 0.13314 0.80043 0.19368 0.0
H376 H 0.24132 0.82694 0.16382 0.0
C377 C 0.12738 0.82638 0.23058 0.0
H378 H 0.17995 0.78217 0.1412 0.0
C379 C 0.16322 0.85183 0.24432 0.0
C380 C 0.20498 0.85245 0.22073 0.0
H381 H 0.09588 0.8259 0.24979 0.0
H382 H 0.15843 0.87061 0.27358 0.0
C383 C 0.20969 0.82754 0.18284 0.0
C384 C 0.40612 0.65636 0.66647 0.0
C385 C 0.40993 0.61455 0.6743 0.0
H386 H 0.43715 0.71434 0.67752 0.0
C387 C 0.4516 0.59795 0.68969 0.0
H388 H 0.37414 0.66953 0.65447 0.0
C389 C 0.48742 0.62305 0.7018 0.0
C390 C 0.48196 0.66512 0.69894 0.0
H391 H 0.45541 0.56559 0.69515 0.0
H392 H 0.51767 0.60977 0.71741 0.0
C393 C 0.44223 0.68177 0.67903 0.0
C394 C 0.84814 0.36681 0.2516 0.0
C395 C 0.85253 0.34696 0.21033 0.0
H396 H 0.80216 0.38854 0.30247 0.0
C397 C 0.81259 0.33362 0.18869 0.0
H398 H 0.87814 0.37757 0.26911 0.0
C399 C 0.76937 0.34002 0.20754 0.0
C400 C 0.76471 0.35978 0.24878 0.0
H401 H 0.81455 0.31817 0.15691 0.0
H402 H 0.7395 0.32934 0.1896 0.0
C403 C 0.8046 0.37295 0.27081 0.0
C404 C 0.02351 0.80715 0.69308 0.0
C405 C 0.03014 0.76512 0.69374 0.0
H406 H 0.05476 0.86475 0.68444 0.0
C407 C 0.0714 0.74812 0.67747 0.0
H408 H 0.99209 0.8207 0.706 0.0
C409 C 0.10769 0.77345 0.66541 0.0
C410 C 0.10245 0.81553 0.66999 0.0
H411 H 0.07734 0.71565 0.6788 0.0
H412 H 0.14075 0.76023 0.65666 0.0
C413 C 0.05949 0.83221 0.68138 0.0
C414 C 0.6608 0.06913 0.24892 0.0
C415 C 0.65639 0.09069 0.20871 0.0
H416 H 0.70674 0.0455 0.29889 0.0
C417 C 0.6963 0.10512 0.18804 0.0
H418 H 0.63086 0.0574 0.26563 0.0
C419 C 0.73951 0.09808 0.20679 0.0
C420 C 0.74414 0.07664 0.24699 0.0
H421 H 0.69432 0.1219 0.1571 0.0
H422 H 0.7694 0.1096 0.18964 0.0
C423 C 0.70428 0.06242 0.26808 0.0
C424 C 0.46046 0.81726 0.23759 0.0
C425 C 0.46366 0.77875 0.25693 0.0
H426 H 0.42632 0.87443 0.23626 0.0
C427 C 0.43542 0.76906 0.29316 0.0
H428 H 0.48213 0.8254 0.20971 0.0
C429 C 0.40244 0.79725 0.30819 0.0
C430 C 0.39777 0.83509 0.28698 0.0
H431 H 0.43714 0.73922 0.30815 0.0
H432 H 0.37986 0.78905 0.33529 0.0
C433 C 0.42803 0.84514 0.25248 0.0
C434 C 0.72003 0.37694 0.75634 0.0
C435 C 0.75865 0.36136 0.77915 0.0
H436 H 0.64733 0.38804 0.75738 0.0
C437 C 0.75246 0.34443 0.82159 0.0
H438 H 0.72368 0.39054 0.72375 0.0
C439 C 0.70877 0.34268 0.84059 0.0
C440 C 0.67007 0.35813 0.81791 0.0
H441 H 0.78138 0.33214 0.84016 0.0
H442 H 0.70541 0.32901 0.87319 0.0
C443 C 0.67622 0.37563 0.7757 0.0
C444 C 0.10758 0.63787 0.30425 0.0
C445 C 0.11359 0.60066 0.28195 0.0
H446 H 0.07195 0.69544 0.30509 0.0
C447 C 0.08507 0.59142 0.24572 0.0
H448 H 0.12877 0.64545 0.33268 0.0
C449 C 0.05296 0.61944 0.23047 0.0
C450 C 0.04826 0.65727 0.25123 0.0
H451 H 0.08778 0.56262 0.22856 0.0
H452 H 0.03255 0.61189 0.20146 0.0
C453 C 0.07486 0.66615 0.28894 0.0
C454 C 0.80277 0.09587 0.84047 0.0
C455 C 0.84142 0.07888 0.8191 0.0
H456 H 0.7302 0.10674 0.83884 0.0
C457 C 0.83529 0.05905 0.77809 0.0
H458 H 0.80612 0.11133 0.87211 0.0
C459 C 0.79159 0.05698 0.75854 0.0
C460 C 0.75302 0.07399 0.78005 0.0
H461 H 0.86408 0.04531 0.76087 0.0
H462 H 0.78794 0.04158 0.72688 0.0
C463 C 0.75914 0.09326 0.82134 0.0
C464 C 0.50284 0.21893 0.03162 0.0
C465 C 0.52268 0.23307 0.07138 0.0
H466 H 0.48823 0.23121 0.96282 0.0
C467 C 0.5392 0.27286 0.07295 0.0
H468 H 0.48987 0.18833 0.02939 0.0
C469 C 0.53785 0.29742 0.03517 0.0
C470 C 0.5205 0.28264 0.99463 0.0
H471 H 0.55435 0.28476 0.10316 0.0
H472 H 0.55213 0.32755 0.03744 0.0
C473 C 0.50202 0.24342 0.99347 0.0
C474 C 0.28658 0.48505 0.46071 0.0
C475 C 0.23923 0.48869 0.45245 0.0
H476 H 0.34003 0.48359 0.50949 0.0
C477 C 0.20866 0.49069 0.48872 0.0
H478 H 0.31091 0.48312 0.43349 0.0
C479 C 0.22529 0.49131 0.53235 0.0
C480 C 0.27278 0.4895 0.54054 0.0
H481 H 0.17188 0.49333 0.48345 0.0
H482 H 0.20105 0.49447 0.55952 0.0
C483 C 0.30317 0.48521 0.50434 0.0
C484 C 0.00928 0.21819 0.03246 0.0
C485 C 0.99406 0.2588 0.03112 0.0
H486 H 0.01689 0.16208 0.99679 0.0
C487 C 0.97803 0.27478 0.9905 0.0
H488 H 0.022 0.20503 0.06318 0.0
C489 C 0.97471 0.25021 0.95282 0.0
C490 C 0.9879 0.20918 0.95459 0.0
H491 H 0.96627 0.30598 0.98809 0.0
H492 H 0.96058 0.26317 0.92255 0.0
C493 C 1.00651 0.19364 0.99441 0.0
C494 C 0.22364 0.95095 0.46307 0.0
C495 C 0.27094 0.94744 0.45464 0.0
H496 H 0.17044 0.95176 0.51199 0.0
C497 C 0.30171 0.94516 0.49081 0.0
H498 H 0.19916 0.9531 0.43593 0.0
C499 C 0.28532 0.94399 0.53447 0.0
C500 C 0.23787 0.94558 0.54279 0.0
H501 H 0.33847 0.94261 0.48542 0.0
H502 H 0.30971 0.94053 0.56153 0.0
C503 C 0.20728 0.9503 0.50673 0.0
C504 C 0.51861 0.73885 0.96098 0.0
C505 C 0.51229 0.70198 0.93867 0.0
H506 H 0.51968 0.76942 0.02384 0.0
C507 C 0.50769 0.66614 0.96374 0.0
H508 H 0.52224 0.76688 0.94261 0.0
C509 C 0.5074 0.66747 0.01031 0.0
C510 C 0.51068 0.70476 0.0323 0.0
H511 H 0.50318 0.63719 0.94732 0.0
H512 H 0.50193 0.63983 0.02894 0.0
C513 C 0.51718 0.74028 0.00737 0.0
C514 C 0.77555 0.4155 0.53061 0.0
C515 C 0.75548 0.39797 0.56851 0.0
H516 H 0.7669 0.43222 0.462 0.0
C517 C 0.70892 0.38729 0.56699 0.0
H518 H 0.81143 0.42402 0.53078 0.0
C519 C 0.68342 0.39239 0.52798 0.0
C520 C 0.70399 0.4078 0.48925 0.0
H521 H 0.69235 0.37405 0.59571 0.0
H522 H 0.64791 0.38276 0.52784 0.0
C523 C 0.7501 0.42012 0.4912 0.0
C524 C 0.98672 0.70145 0.00455 0.0
C525 C 1.00011 0.73584 0.02867 0.0
H526 H 0.97696 0.67459 0.94041 0.0
C527 C 0.01123 0.77138 0.00589 0.0
H528 H 0.97847 0.67357 0.02171 0.0
C529 C 0.01142 0.77176 0.9593 0.0
C530 C 0.99997 0.7367 0.93494 0.0
H531 H 0.02237 0.79797 0.02396 0.0
H532 H 0.02185 0.79915 0.9424 0.0
C533 C 0.98611 0.70198 0.95809 0.0
C534 C 0.80188 0.04874 0.56585 0.0
C535 C 0.75552 0.03751 0.5679 0.0
H536 H 0.8622 0.05407 0.52601 0.0
C537 C 0.73509 0.01997 0.5301 0.0
H538 H 0.81872 0.06204 0.59446 0.0
C539 C 0.75999 0.01578 0.49033 0.0
C540 C 0.80591 0.02856 0.4879 0.0
H541 H 0.69935 0.01105 0.53065 0.0
H542 H 0.74293 0.00359 0.46127 0.0
C543 C 0.82683 0.04408 0.52649 0.0
loop_
_geom_bond_atom_site_label_1
_geom_bond_atom_site_label_2
_geom_bond_distance
_geom_bond_site_symmetry_2
_ccdc_geom_bond_type
Mg0 O1 2.028 . S
Mg0 O7 1.986 . S
Mg0 O9 2.114 . S
Mg0 O10 2.251 . S
Mg0 O13 2.010 . S
O1 Mg0 2.028 . S
O1 C4 1.250 . S
O2 Mg3 2.028 . S
O2 C4 1.248 . S
Mg3 O2 2.028 . S
Mg3 O8 2.032 . S
Mg3 O10 2.079 . S
C4 O1 1.250 . S
C4 O2 1.248 . S
C5 O6 1.264 . S
C5 O13 1.249 . S
O6 C5 1.264 . S
O7 Mg0 1.986 . S
O7 C11 1.246 . S
O8 Mg3 2.032 . S
O8 C11 1.259 . S
O9 Mg0 2.114 . S
O9 C12 1.252 . S
O10 Mg0 2.251 . S
O10 Mg3 2.079 . S
O10 C12 1.273 . S
C11 O7 1.246 . S
C11 O8 1.259 . S
C12 O9 1.252 . S
C12 O10 1.273 . S
O13 Mg0 2.010 . S
O13 C5 1.249 . S
Mg14 O15 2.028 . S
Mg14 O21 1.986 . S
Mg14 O23 2.114 . S
Mg14 O24 2.251 . S
Mg14 O27 2.010 . S
O15 Mg14 2.028 . S
O15 C18 1.250 . S
O16 Mg17 2.028 . S
O16 C18 1.248 . S
Mg17 O16 2.028 . S
Mg17 O22 2.032 . S
Mg17 O24 2.079 . S
C18 O15 1.250 . S
C18 O16 1.248 . S
C19 O20 1.264 . S
C19 O27 1.249 . S
O20 C19 1.264 . S
O21 Mg14 1.986 . S
O21 C25 1.246 . S
O22 Mg17 2.032 . S
O22 C25 1.259 . S
O23 Mg14 2.114 . S
O23 C26 1.252 . S
O24 Mg14 2.251 . S
O24 Mg17 2.079 . S
O24 C26 1.273 . S
C25 O21 1.246 . S
C25 O22 1.259 . S
C26 O23 1.252 . S
C26 O24 1.273 . S
O27 Mg14 2.010 . S
O27 C19 1.249 . S
Mg28 O29 2.028 . S
Mg28 O35 1.986 1_655 S
Mg28 O37 2.114 . S
Mg28 O38 2.251 . S
Mg28 O41 2.010 . S
O29 Mg28 2.028 . S
O29 C32 1.250 . S
O30 Mg31 2.028 . S
O30 C32 1.248 . S
Mg31 O30 2.028 . S
Mg31 O36 2.032 1_655 S
Mg31 O38 2.079 . S
C32 O29 1.250 . S
C32 O30 1.248 . S
C33 O34 1.264 . S
C33 O41 1.249 . S
O34 C33 1.264 . S
O35 Mg28 1.986 1_455 S
O35 C39 1.246 . S
O36 Mg31 2.032 1_455 S
O36 C39 1.259 . S
O37 Mg28 2.114 . S
O37 C40 1.252 . S
O38 Mg28 2.251 . S
O38 Mg31 2.079 . S
O38 C40 1.273 . S
C39 O35 1.246 . S
C39 O36 1.259 . S
C40 O37 1.252 . S
C40 O38 1.273 . S
O41 Mg28 2.010 . S
O41 C33 1.249 . S
Mg42 O43 2.028 . S
Mg42 O49 1.986 1_565 S
Mg42 O51 2.114 . S
Mg42 O52 2.251 . S
Mg42 O55 2.010 . S
O43 Mg42 2.028 . S
O43 C46 1.250 . S
O44 Mg45 2.028 . S
O44 C46 1.248 . S
Mg45 O44 2.028 . S
Mg45 O50 2.032 . S
Mg45 O52 2.079 . S
C46 O43 1.250 . S
C46 O44 1.248 . S
C47 O48 1.264 . S
C47 O55 1.249 . S
O48 C47 1.264 . S
O49 Mg42 1.986 1_545 S
O49 C53 1.246 . S
O50 Mg45 2.032 . S
O50 C53 1.259 1_565 S
O51 Mg42 2.114 . S
O51 C54 1.252 . S
O52 Mg42 2.251 . S
O52 Mg45 2.079 . S
O52 C54 1.273 . S
C53 O49 1.246 . S
C53 O50 1.259 1_545 S
C54 O51 1.252 . S
C54 O52 1.273 . S
O55 Mg42 2.010 . S
O55 C47 1.249 . S
Mg56 O57 2.028 . S
Mg56 O63 1.986 . S
Mg56 O65 2.114 . S
Mg56 O66 2.251 . S
Mg56 O69 2.010 . S
O57 Mg56 2.028 . S
O57 C60 1.250 . S
O58 Mg59 2.028 . S
O58 C60 1.248 . S
Mg59 O58 2.028 . S
Mg59 O64 2.032 . S
Mg59 O66 2.079 . S
C60 O57 1.250 . S
C60 O58 1.248 . S
C61 O62 1.264 . S
C61 O69 1.249 . S
O62 C61 1.264 . S
O63 Mg56 1.986 . S
O63 C67 1.246 . S
O64 Mg59 2.032 . S
O64 C67 1.259 . S
O65 Mg56 2.114 . S
O65 C68 1.252 . S
O66 Mg56 2.251 . S
O66 Mg59 2.079 . S
O66 C68 1.273 . S
C67 O63 1.246 . S
C67 O64 1.259 . S
C68 O65 1.252 . S
C68 O66 1.273 . S
O69 Mg56 2.010 . S
O69 C61 1.249 . S
Mg70 O71 2.028 . S
Mg70 O77 1.986 . S
Mg70 O79 2.114 . S
Mg70 O80 2.251 . S
Mg70 O83 2.010 . S
O71 Mg70 2.028 . S
O71 C74 1.250 . S
O72 Mg73 2.028 . S
O72 C74 1.248 . S
Mg73 O72 2.028 . S
Mg73 O78 2.032 . S
Mg73 O80 2.079 . S
C74 O71 1.250 . S
C74 O72 1.248 . S
C75 O76 1.264 . S
C75 O83 1.249 . S
O76 C75 1.264 . S
O77 Mg70 1.986 . S
O77 C81 1.246 . S
O78 Mg73 2.032 . S
O78 C81 1.259 . S
O79 Mg70 2.114 . S
O79 C82 1.252 . S
O80 Mg70 2.251 . S
O80 Mg73 2.079 . S
O80 C82 1.273 . S
C81 O77 1.246 . S
C81 O78 1.259 . S
C82 O79 1.252 . S
C82 O80 1.273 . S
O83 Mg70 2.010 . S
O83 C75 1.249 . S
Mg84 O85 2.028 . S
Mg84 O91 1.986 1_655 S
Mg84 O93 2.114 . S
Mg84 O94 2.251 . S
Mg84 O97 2.010 . S
O85 Mg84 2.028 . S
O85 C88 1.250 . S
O86 Mg87 2.028 . S
O86 C88 1.248 . S
Mg87 O86 2.028 . S
Mg87 O92 2.032 1_655 S
Mg87 O94 2.079 . S
C88 O85 1.250 . S
C88 O86 1.248 . S
C89 O90 1.264 . S
C89 O97 1.249 . S
O90 C89 1.264 . S
O91 Mg84 1.986 1_455 S
O91 C95 1.246 . S
O92 Mg87 2.032 1_455 S
O92 C95 1.259 . S
O93 Mg84 2.114 . S
O93 C96 1.252 . S
O94 Mg84 2.251 . S
O94 Mg87 2.079 . S
O94 C96 1.273 . S
C95 O91 1.246 . S
C95 O92 1.259 . S
C96 O93 1.252 . S
C96 O94 1.273 . S
O97 Mg84 2.010 . S
O97 C89 1.249 . S
Mg98 O99 2.028 . S
Mg98 O105 1.986 1_565 S
Mg98 O107 2.114 . S
Mg98 O108 2.251 . S
Mg98 O111 2.010 . S
O99 Mg98 2.028 . S
O99 C102 1.250 . S
O100 Mg101 2.028 . S
O100 C102 1.248 . S
Mg101 O100 2.028 . S
Mg101 O106 2.032 . S
Mg101 O108 2.079 . S
C102 O99 1.250 . S
C102 O100 1.248 . S
C103 O104 1.264 . S
C103 O111 1.249 . S
O104 C103 1.264 . S
O105 Mg98 1.986 1_545 S
O105 C109 1.246 . S
O106 Mg101 2.032 . S
O106 C109 1.259 1_565 S
O107 Mg98 2.114 . S
O107 C110 1.252 . S
O108 Mg98 2.251 . S
O108 Mg101 2.079 . S
O108 C110 1.273 . S
C109 O105 1.246 . S
C109 O106 1.259 1_545 S
C110 O107 1.252 . S
C110 O108 1.273 . S
O111 Mg98 2.010 . S
O111 C103 1.249 . S
Mg112 O113 2.028 . S
Mg112 O119 1.986 . S
Mg112 O121 2.114 . S
Mg112 O122 2.251 . S
Mg112 O125 2.010 . S
O113 Mg112 2.028 . S
O113 C116 1.250 . S
O114 Mg115 2.028 . S
O114 C116 1.248 . S
Mg115 O114 2.028 . S
Mg115 O120 2.032 . S
Mg115 O122 2.079 . S
C116 O113 1.250 . S
C116 O114 1.248 . S
C117 O118 1.264 . S
C117 O125 1.249 . S
O118 C117 1.264 . S
O119 Mg112 1.986 . S
O119 C123 1.246 . S
O120 Mg115 2.032 . S
O120 C123 1.259 . S
O121 Mg112 2.114 . S
O121 C124 1.252 . S
O122 Mg112 2.251 . S
O122 Mg115 2.079 . S
O122 C124 1.273 . S
C123 O119 1.246 . S
C123 O120 1.259 . S
C124 O121 1.252 . S
C124 O122 1.273 . S
O125 Mg112 2.010 . S
O125 C117 1.249 . S
Mg126 O127 2.028 . S
Mg126 O133 1.986 . S
Mg126 O135 2.114 . S
Mg126 O136 2.251 . S
Mg126 O139 2.010 . S
O127 Mg126 2.028 . S
O127 C130 1.250 . S
O128 Mg129 2.028 . S
O128 C130 1.248 . S
Mg129 O128 2.028 . S
Mg129 O134 2.032 . S
Mg129 O136 2.079 . S
C130 O127 1.250 . S
C130 O128 1.248 . S
C131 O132 1.264 . S
C131 O139 1.249 . S
O132 C131 1.264 . S
O133 Mg126 1.986 . S
O133 C137 1.246 . S
O134 Mg129 2.032 . S
O134 C137 1.259 . S
O135 Mg126 2.114 . S
O135 C138 1.252 . S
O136 Mg126 2.251 . S
O136 Mg129 2.079 . S
O136 C138 1.273 . S
C137 O133 1.246 . S
C137 O134 1.259 . S
C138 O135 1.252 . S
C138 O136 1.273 . S
O139 Mg126 2.010 . S
O139 C131 1.249 . S
Mg140 O141 2.028 . S
Mg140 O147 1.986 . S
Mg140 O149 2.114 . S
Mg140 O150 2.251 . S
Mg140 O153 2.010 1_455 S
O141 Mg140 2.028 . S
O141 C144 1.250 . S
O142 Mg143 2.028 . S
O142 C144 1.248 . S
Mg143 O142 2.028 . S
Mg143 O148 2.032 . S
Mg143 O150 2.079 . S
C144 O141 1.250 . S
C144 O142 1.248 . S
C145 O146 1.264 . S
C145 O153 1.249 . S
O146 C145 1.264 . S
O147 Mg140 1.986 . S
O147 C151 1.246 . S
O148 Mg143 2.032 . S
O148 C151 1.259 . S
O149 Mg140 2.114 . S
O149 C152 1.252 . S
O150 Mg140 2.251 . S
O150 Mg143 2.079 . S
O150 C152 1.273 . S
C151 O147 1.246 . S
C151 O148 1.259 . S
C152 O149 1.252 . S
C152 O150 1.273 . S
O153 Mg140 2.010 1_655 S
O153 C145 1.249 . S
Mg154 O155 2.028 . S
Mg154 O161 1.986 1_545 S
Mg154 O163 2.114 . S
Mg154 O164 2.251 . S
Mg154 O167 2.010 . S
O155 Mg154 2.028 . S
O155 C158 1.250 . S
O156 Mg157 2.028 . S
O156 C158 1.248 . S
Mg157 O156 2.028 . S
Mg157 O162 2.032 1_545 S
Mg157 O164 2.079 . S
C158 O155 1.250 . S
C158 O156 1.248 . S
C159 O160 1.264 . S
C159 O167 1.249 . S
O160 C159 1.264 . S
O161 Mg154 1.986 1_565 S
O161 C165 1.246 . S
O162 Mg157 2.032 1_565 S
O162 C165 1.259 . S
O163 Mg154 2.114 . S
O163 C166 1.252 . S
O164 Mg154 2.251 . S
O164 Mg157 2.079 . S
O164 C166 1.273 . S
C165 O161 1.246 . S
C165 O162 1.259 . S
C166 O163 1.252 . S
C166 O164 1.273 . S
O167 Mg154 2.010 . S
O167 C159 1.249 . S
Mg168 O169 2.028 . S
Mg168 O175 1.986 . S
Mg168 O177 2.114 . S
Mg168 O178 2.251 . S
Mg168 O181 2.010 . S
O169 Mg168 2.028 . S
O169 C172 1.250 . S
O170 Mg171 2.028 . S
O170 C172 1.248 . S
Mg171 O170 2.028 . S
Mg171 O176 2.032 . S
Mg171 O178 2.079 . S
C172 O169 1.250 . S
C172 O170 1.248 . S
C173 O174 1.264 . S
C173 O181 1.249 . S
O174 C173 1.264 . S
O175 Mg168 1.986 . S
O175 C179 1.246 . S
O176 Mg171 2.032 . S
O176 C179 1.259 . S
O177 Mg168 2.114 . S
O177 C180 1.252 . S
O178 Mg168 2.251 . S
O178 Mg171 2.079 . S
O178 C180 1.273 . S
C179 O175 1.246 . S
C179 O176 1.259 . S
C180 O177 1.252 . S
C180 O178 1.273 . S
O181 Mg168 2.010 . S
O181 C173 1.249 . S
Mg182 O183 2.028 . S
Mg182 O189 1.986 . S
Mg182 O191 2.114 . S
Mg182 O192 2.251 . S
Mg182 O195 2.010 . S
O183 Mg182 2.028 . S
O183 C186 1.250 . S
O184 Mg185 2.028 . S
O184 C186 1.248 . S
Mg185 O184 2.028 . S
Mg185 O190 2.032 . S
Mg185 O192 2.079 . S
C186 O183 1.250 . S
C186 O184 1.248 . S
C187 O188 1.264 . S
C187 O195 1.249 . S
O188 C187 1.264 . S
O189 Mg182 1.986 . S
O189 C193 1.246 . S
O190 Mg185 2.032 . S
O190 C193 1.259 . S
O191 Mg182 2.114 . S
O191 C194 1.252 . S
O192 Mg182 2.251 . S
O192 Mg185 2.079 . S
O192 C194 1.273 . S
C193 O189 1.246 . S
C193 O190 1.259 . S
C194 O191 1.252 . S
C194 O192 1.273 . S
O195 Mg182 2.010 . S
O195 C187 1.249 . S
Mg196 O197 2.028 . S
Mg196 O203 1.986 . S
Mg196 O205 2.114 . S
Mg196 O206 2.251 . S
Mg196 O209 2.010 1_455 S
O197 Mg196 2.028 . S
O197 C200 1.250 . S
O198 Mg199 2.028 . S
O198 C200 1.248 . S
Mg199 O198 2.028 . S
Mg199 O204 2.032 . S
Mg199 O206 2.079 . S
C200 O197 1.250 . S
C200 O198 1.248 . S
C201 O202 1.264 . S
C201 O209 1.249 . S
O202 C201 1.264 . S
O203 Mg196 1.986 . S
O203 C207 1.246 . S
O204 Mg199 2.032 . S
O204 C207 1.259 . S
O205 Mg196 2.114 . S
O205 C208 1.252 . S
O206 Mg196 2.251 . S
O206 Mg199 2.079 . S
O206 C208 1.273 . S
C207 O203 1.246 . S
C207 O204 1.259 . S
C208 O205 1.252 . S
C208 O206 1.273 . S
O209 Mg196 2.010 1_655 S
O209 C201 1.249 . S
Mg210 O211 2.028 . S
Mg210 O217 1.986 1_545 S
Mg210 O219 2.114 . S
Mg210 O220 2.251 . S
Mg210 O223 2.010 . S
O211 Mg210 2.028 . S
O211 C214 1.250 . S
O212 Mg213 2.028 . S
O212 C214 1.248 . S
Mg213 O212 2.028 . S
Mg213 O218 2.032 1_545 S
Mg213 O220 2.079 . S
C214 O211 1.250 . S
C214 O212 1.248 . S
C215 O216 1.264 . S
C215 O223 1.249 . S
O216 C215 1.264 . S
O217 Mg210 1.986 1_565 S
O217 C221 1.246 . S
O218 Mg213 2.032 1_565 S
O218 C221 1.259 . S
O219 Mg210 2.114 . S
O219 C222 1.252 . S
O220 Mg210 2.251 . S
O220 Mg213 2.079 . S
O220 C222 1.273 . S
C221 O217 1.246 . S
C221 O218 1.259 . S
C222 O219 1.252 . S
C222 O220 1.273 . S
O223 Mg210 2.010 . S
O223 C215 1.249 . S
C224 C225 1.387 . S
C224 H228 0.950 . S
C224 C233 1.390 . S
C225 C224 1.387 . S
C225 C227 1.387 . S
H226 C233 0.950 . S
C227 C225 1.387 . S
C227 C229 1.390 . S
C227 H231 0.950 . S
H228 C224 0.950 . S
C229 C227 1.390 . S
C229 C230 1.387 . S
C229 H232 0.950 . S
C230 C229 1.387 . S
C230 C233 1.387 . S
H231 C227 0.950 . S
H232 C229 0.950 . S
C233 C224 1.390 . S
C233 H226 0.950 . S
C233 C230 1.387 . S
C234 C235 1.387 . S
C234 H238 0.950 . S
C234 C243 1.390 . S
C235 C234 1.387 . S
C235 C237 1.387 . S
H236 C243 0.950 . S
C237 C235 1.387 . S
C237 C239 1.390 . S
C237 H241 0.950 . S
H238 C234 0.950 . S
C239 C237 1.390 . S
C239 C240 1.387 . S
C239 H242 0.950 . S
C240 C239 1.387 . S
C240 C243 1.387 . S
H241 C237 0.950 . S
H242 C239 0.950 . S
C243 C234 1.390 . S
C243 H236 0.950 . S
C243 C240 1.387 . S
C244 C245 1.387 . S
C244 H248 0.950 . S
C244 C253 1.390 . S
C245 C244 1.387 . S
C245 C247 1.387 . S
H246 C253 0.950 . S
C247 C245 1.387 . S
C247 C249 1.390 . S
C247 H251 0.950 . S
H248 C244 0.950 . S
C249 C247 1.390 . S
C249 C250 1.387 . S
C249 H252 0.950 . S
C250 C249 1.387 . S
C250 C253 1.387 . S
H251 C247 0.950 . S
H252 C249 0.950 . S
C253 C244 1.390 . S
C253 H246 0.950 . S
C253 C250 1.387 . S
C254 C255 1.387 . S
C254 H258 0.950 . S
C254 C263 1.390 . S
C255 C254 1.387 . S
C255 C257 1.387 . S
H256 C263 0.950 . S
C257 C255 1.387 . S
C257 C259 1.390 . S
C257 H261 0.950 . S
H258 C254 0.950 . S
C259 C257 1.390 . S
C259 C260 1.387 . S
C259 H262 0.950 . S
C260 C259 1.387 . S
C260 C263 1.387 . S
H261 C257 0.950 . S
H262 C259 0.950 . S
C263 C254 1.390 . S
C263 H256 0.950 . S
C263 C260 1.387 . S
C264 C265 1.387 . S
C264 H268 0.950 . S
C264 C273 1.390 . S
C265 C264 1.387 . S
C265 C267 1.387 . S
H266 C273 0.950 . S
C267 C265 1.387 . S
C267 C269 1.390 . S
C267 H271 0.950 . S
H268 C264 0.950 . S
C269 C267 1.390 . S
C269 C270 1.387 . S
C269 H272 0.950 . S
C270 C269 1.387 . S
C270 C273 1.387 . S
H271 C267 0.950 . S
H272 C269 0.950 . S
C273 C264 1.390 . S
C273 H266 0.950 . S
C273 C270 1.387 . S
C274 C275 1.387 . S
C274 H278 0.950 . S
C274 C283 1.390 . S
C275 C274 1.387 . S
C275 C277 1.387 . S
H276 C283 0.950 . S
C277 C275 1.387 . S
C277 C279 1.390 . S
C277 H281 0.950 . S
H278 C274 0.950 . S
C279 C277 1.390 . S
C279 C280 1.387 . S
C279 H282 0.950 . S
C280 C279 1.387 . S
C280 C283 1.387 . S
H281 C277 0.950 . S
H282 C279 0.950 . S
C283 C274 1.390 . S
C283 H276 0.950 . S
C283 C280 1.387 . S
C284 C285 1.387 . S
C284 H288 0.950 . S
C284 C293 1.390 . S
C285 C284 1.387 . S
C285 C287 1.387 . S
H286 C293 0.950 . S
C287 C285 1.387 . S
C287 C289 1.390 . S
C287 H291 0.950 . S
H288 C284 0.950 . S
C289 C287 1.390 . S
C289 C290 1.387 . S
C289 H292 0.950 . S
C290 C289 1.387 . S
C290 C293 1.387 . S
H291 C287 0.950 . S
H292 C289 0.950 . S
C293 C284 1.390 . S
C293 H286 0.950 . S
C293 C290 1.387 . S
C294 C295 1.387 . S
C294 H298 0.950 . S
C294 C303 1.390 . S
C295 C294 1.387 . S
C295 C297 1.387 . S
H296 C303 0.950 . S
C297 C295 1.387 . S
C297 C299 1.390 . S
C297 H301 0.950 . S
H298 C294 0.950 . S
C299 C297 1.390 . S
C299 C300 1.387 . S
C299 H302 0.950 . S
C300 C299 1.387 . S
C300 C303 1.387 . S
H301 C297 0.950 . S
H302 C299 0.950 . S
C303 C294 1.390 . S
C303 H296 0.950 . S
C303 C300 1.387 . S
C304 C305 1.387 . S
C304 H308 0.950 . S
C304 C313 1.390 . S
C305 C304 1.387 . S
C305 C307 1.387 . S
H306 C313 0.950 . S
C307 C305 1.387 . S
C307 C309 1.390 . S
C307 H311 0.950 . S
H308 C304 0.950 . S
C309 C307 1.390 . S
C309 C310 1.387 . S
C309 H312 0.950 . S
C310 C309 1.387 . S
C310 C313 1.387 . S
H311 C307 0.950 . S
H312 C309 0.950 . S
C313 C304 1.390 . S
C313 H306 0.950 . S
C313 C310 1.387 . S
C314 C315 1.387 . S
C314 H318 0.950 . S
C314 C323 1.390 . S
C315 C314 1.387 . S
C315 C317 1.387 . S
H316 C323 0.950 . S
C317 C315 1.387 . S
C317 C319 1.390 . S
C317 H321 0.950 . S
H318 C314 0.950 . S
C319 C317 1.390 . S
C319 C320 1.387 . S
C319 H322 0.950 . S
C320 C319 1.387 . S
C320 C323 1.387 . S
H321 C317 0.950 . S
H322 C319 0.950 . S
C323 C314 1.390 . S
C323 H316 0.950 . S
C323 C320 1.387 . S
C324 C325 1.387 . S
C324 H328 0.950 . S
C324 C333 1.390 . S
C325 C324 1.387 . S
C325 C327 1.387 . S
H326 C333 0.950 . S
C327 C325 1.387 . S
C327 C329 1.390 . S
C327 H331 0.950 . S
H328 C324 0.950 . S
C329 C327 1.390 . S
C329 C330 1.387 . S
C329 H332 0.950 . S
C330 C329 1.387 . S
C330 C333 1.387 . S
H331 C327 0.950 . S
H332 C329 0.950 . S
C333 C324 1.390 . S
C333 H326 0.950 . S
C333 C330 1.387 . S
C334 C335 1.387 . S
C334 H338 0.950 . S
C334 C343 1.390 . S
C335 C334 1.387 . S
C335 C337 1.387 . S
H336 C343 0.950 . S
C337 C335 1.387 . S
C337 C339 1.390 . S
C337 H341 0.950 . S
H338 C334 0.950 . S
C339 C337 1.390 . S
C339 C340 1.387 . S
C339 H342 0.950 . S
C340 C339 1.387 . S
C340 C343 1.387 . S
H341 C337 0.950 . S
H342 C339 0.950 . S
C343 C334 1.390 . S
C343 H336 0.950 . S
C343 C340 1.387 . S
C344 C345 1.387 . S
C344 H348 0.950 . S
C344 C353 1.390 . S
C345 C344 1.387 . S
C345 C347 1.387 . S
H346 C353 0.950 . S
C347 C345 1.387 . S
C347 C349 1.390 . S
C347 H351 0.950 . S
H348 C344 0.950 . S
C349 C347 1.390 . S
C349 C350 1.387 . S
C349 H352 0.950 . S
C350 C349 1.387 . S
C350 C353 1.387 . S
H351 C347 0.950 . S
H352 C349 0.950 . S
C353 C344 1.390 . S
C353 H346 0.950 . S
C353 C350 1.387 . S
C354 C355 1.387 . S
C354 H358 0.950 . S
C354 C363 1.390 . S
C355 C354 1.387 . S
C355 C357 1.387 . S
H356 C363 0.950 . S
C357 C355 1.387 . S
C357 C359 1.390 . S
C357 H361 0.950 . S
H358 C354 0.950 . S
C359 C357 1.390 . S
C359 C360 1.387 . S
C359 H362 0.950 . S
C360 C359 1.387 . S
C360 C363 1.387 . S
H361 C357 0.950 . S
H362 C359 0.950 . S
C363 C354 1.390 . S
C363 H356 0.950 . S
C363 C360 1.387 . S
C364 C365 1.387 . S
C364 H368 0.950 . S
C364 C373 1.390 . S
C365 C364 1.387 . S
C365 C367 1.387 . S
H366 C373 0.950 . S
C367 C365 1.387 . S
C367 C369 1.390 . S
C367 H371 0.950 . S
H368 C364 0.950 . S
C369 C367 1.390 . S
C369 C370 1.387 . S
C369 H372 0.950 . S
C370 C369 1.387 . S
C370 C373 1.387 . S
H371 C367 0.950 . S
H372 C369 0.950 . S
C373 C364 1.390 . S
C373 H366 0.950 . S
C373 C370 1.387 . S
C374 C375 1.387 . S
C374 H378 0.950 . S
C374 C383 1.390 . S
C375 C374 1.387 . S
C375 C377 1.387 . S
H376 C383 0.950 . S
C377 C375 1.387 . S
C377 C379 1.390 . S
C377 H381 0.950 . S
H378 C374 0.950 . S
C379 C377 1.390 . S
C379 C380 1.387 . S
C379 H382 0.950 . S
C380 C379 1.387 . S
C380 C383 1.387 . S
H381 C377 0.950 . S
H382 C379 0.950 . S
C383 C374 1.390 . S
C383 H376 0.950 . S
C383 C380 1.387 . S
C384 C385 1.387 . S
C384 H388 0.950 . S
C384 C393 1.390 . S
C385 C384 1.387 . S
C385 C387 1.387 . S
H386 C393 0.950 . S
C387 C385 1.387 . S
C387 C389 1.390 . S
C387 H391 0.950 . S
H388 C384 0.950 . S
C389 C387 1.390 . S
C389 C390 1.387 . S
C389 H392 0.950 . S
C390 C389 1.387 . S
C390 C393 1.387 . S
H391 C387 0.950 . S
H392 C389 0.950 . S
C393 C384 1.390 . S
C393 H386 0.950 . S
C393 C390 1.387 . S
C394 C395 1.387 . S
C394 H398 0.950 . S
C394 C403 1.390 . S
C395 C394 1.387 . S
C395 C397 1.387 . S
H396 C403 0.950 . S
C397 C395 1.387 . S
C397 C399 1.390 . S
C397 H401 0.950 . S
H398 C394 0.950 . S
C399 C397 1.390 . S
C399 C400 1.387 . S
C399 H402 0.950 . S
C400 C399 1.387 . S
C400 C403 1.387 . S
H401 C397 0.950 . S
H402 C399 0.950 . S
C403 C394 1.390 . S
C403 H396 0.950 . S
C403 C400 1.387 . S
C404 C405 1.387 . S
C404 H408 0.950 . S
C404 C413 1.390 . S
C405 C404 1.387 . S
C405 C407 1.387 . S
H406 C413 0.950 . S
C407 C405 1.387 . S
C407 C409 1.390 . S
C407 H411 0.950 . S
H408 C404 0.950 . S
C409 C407 1.390 . S
C409 C410 1.387 . S
C409 H412 0.950 . S
C410 C409 1.387 . S
C410 C413 1.387 . S
H411 C407 0.950 . S
H412 C409 0.950 . S
C413 C404 1.390 . S
C413 H406 0.950 . S
C413 C410 1.387 . S
C414 C415 1.387 . S
C414 H418 0.950 . S
C414 C423 1.390 . S
C415 C414 1.387 . S
C415 C417 1.387 . S
H416 C423 0.950 . S
C417 C415 1.387 . S
C417 C419 1.390 . S
C417 H421 0.950 . S
H418 C414 0.950 . S
C419 C417 1.390 . S
C419 C420 1.387 . S
C419 H422 0.950 . S
C420 C419 1.387 . S
C420 C423 1.387 . S
H421 C417 0.950 . S
H422 C419 0.950 . S
C423 C414 1.390 . S
C423 H416 0.950 . S
C423 C420 1.387 . S
C424 C425 1.387 . S
C424 H428 0.950 . S
C424 C433 1.390 . S
C425 C424 1.387 . S
C425 C427 1.387 . S
H426 C433 0.950 . S
C427 C425 1.387 . S
C427 C429 1.390 . S
C427 H431 0.950 . S
H428 C424 0.950 . S
C429 C427 1.390 . S
C429 C430 1.387 . S
C429 H432 0.950 . S
C430 C429 1.387 . S
C430 C433 1.387 . S
H431 C427 0.950 . S
H432 C429 0.950 . S
C433 C424 1.390 . S
C433 H426 0.950 . S
C433 C430 1.387 . S
C434 C435 1.387 . S
C434 H438 0.950 . S
C434 C443 1.390 . S
C435 C434 1.387 . S
C435 C437 1.387 . S
H436 C443 0.950 . S
C437 C435 1.387 . S
C437 C439 1.390 . S
C437 H441 0.950 . S
H438 C434 0.950 . S
C439 C437 1.390 . S
C439 C440 1.387 . S
C439 H442 0.950 . S
C440 C439 1.387 . S
C440 C443 1.387 . S
H441 C437 0.950 . S
H442 C439 0.950 . S
C443 C434 1.390 . S
C443 H436 0.950 . S
C443 C440 1.387 . S
C444 C445 1.387 . S
C444 H448 0.950 . S
C444 C453 1.390 . S
C445 C444 1.387 . S
C445 C447 1.387 . S
H446 C453 0.950 . S
C447 C445 1.387 . S
C447 C449 1.390 . S
C447 H451 0.950 . S
H448 C444 0.950 . S
C449 C447 1.390 . S
C449 C450 1.387 . S
C449 H452 0.950 . S
C450 C449 1.387 . S
C450 C453 1.387 . S
H451 C447 0.950 . S
H452 C449 0.950 . S
C453 C444 1.390 . S
C453 H446 0.950 . S
C453 C450 1.387 . S
C454 C455 1.387 . S
C454 H458 0.950 . S
C454 C463 1.390 . S
C455 C454 1.387 . S
C455 C457 1.387 . S
H456 C463 0.950 . S
C457 C455 1.387 . S
C457 C459 1.390 . S
C457 H461 0.950 . S
H458 C454 0.950 . S
C459 C457 1.390 . S
C459 C460 1.387 . S
C459 H462 0.950 . S
C460 C459 1.387 . S
C460 C463 1.387 . S
H461 C457 0.950 . S
H462 C459 0.950 . S
C463 C454 1.390 . S
C463 H456 0.950 . S
C463 C460 1.387 . S
C464 C465 1.387 . S
C464 H468 0.950 . S
C464 C473 1.390 1_554 S
C465 C464 1.387 . S
C465 C467 1.387 . S
H466 C473 0.950 . S
C467 C465 1.387 . S
C467 C469 1.390 1_554 S
C467 H471 0.950 . S
H468 C464 0.950 . S
C469 C467 1.390 1_556 S
C469 C470 1.387 . S
C469 H472 0.950 . S
C470 C469 1.387 . S
C470 C473 1.387 . S
H471 C467 0.950 . S
H472 C469 0.950 . S
C473 C464 1.390 1_556 S
C473 H466 0.950 . S
C473 C470 1.387 . S
C474 C475 1.387 . S
C474 H478 0.950 . S
C474 C483 1.390 . S
C475 C474 1.387 . S
C475 C477 1.387 . S
H476 C483 0.950 . S
C477 C475 1.387 . S
C477 C479 1.390 . S
C477 H481 0.950 . S
H478 C474 0.950 . S
C479 C477 1.390 . S
C479 C480 1.387 . S
C479 H482 0.950 . S
C480 C479 1.387 . S
C480 C483 1.387 . S
H481 C477 0.950 . S
H482 C479 0.950 . S
C483 C474 1.390 . S
C483 H476 0.950 . S
C483 C480 1.387 . S
C484 C485 1.387 1_455 S
C484 H488 0.950 . S
C484 C493 1.390 1_554 S
C485 C484 1.387 1_655 S
C485 C487 1.387 . S
H486 C493 0.950 . S
C487 C485 1.387 . S
C487 C489 1.390 1_554 S
C487 H491 0.950 . S
H488 C484 0.950 . S
C489 C487 1.390 1_556 S
C489 C490 1.387 . S
C489 H492 0.950 . S
C490 C489 1.387 . S
C490 C493 1.387 1_655 S
H491 C487 0.950 . S
H492 C489 0.950 . S
C493 C484 1.390 1_556 S
C493 H486 0.950 . S
C493 C490 1.387 1_455 S
C494 C495 1.387 . S
C494 H498 0.950 . S
C494 C503 1.390 . S
C495 C494 1.387 . S
C495 C497 1.387 . S
H496 C503 0.950 . S
C497 C495 1.387 . S
C497 C499 1.390 . S
C497 H501 0.950 1_565 S
H498 C494 0.950 . S
C499 C497 1.390 . S
C499 C500 1.387 . S
C499 H502 0.950 1_565 S
C500 C499 1.387 . S
C500 C503 1.387 . S
H501 C497 0.950 1_545 S
H502 C499 0.950 1_545 S
C503 C494 1.390 . S
C503 H496 0.950 . S
C503 C500 1.387 . S
C504 C505 1.387 . S
C504 H508 0.950 . S
C504 C513 1.390 1_556 S
C505 C504 1.387 . S
C505 C507 1.387 . S
H506 C513 0.950 . S
C507 C505 1.387 . S
C507 C509 1.390 1_556 S
C507 H511 0.950 . S
H508 C504 0.950 . S
C509 C507 1.390 1_554 S
C509 C510 1.387 . S
C509 H512 0.950 . S
C510 C509 1.387 . S
C510 C513 1.387 . S
H511 C507 0.950 . S
H512 C509 0.950 . S
C513 C504 1.390 1_554 S
C513 H506 0.950 . S
C513 C510 1.387 . S
C514 C515 1.387 . S
C514 H518 0.950 . S
C514 C523 1.390 . S
C515 C514 1.387 . S
C515 C517 1.387 . S
H516 C523 0.950 . S
C517 C515 1.387 . S
C517 C519 1.390 . S
C517 H521 0.950 . S
H518 C514 0.950 . S
C519 C517 1.390 . S
C519 C520 1.387 . S
C519 H522 0.950 . S
C520 C519 1.387 . S
C520 C523 1.387 . S
H521 C517 0.950 . S
H522 C519 0.950 . S
C523 C514 1.390 . S
C523 H516 0.950 . S
C523 C520 1.387 . S
C524 C525 1.387 1_655 S
C524 H528 0.950 . S
C524 C533 1.390 1_554 S
C525 C524 1.387 1_455 S
C525 C527 1.387 . S
H526 C533 0.950 . S
C527 C525 1.387 . S
C527 C529 1.390 1_554 S
C527 H531 0.950 . S
H528 C524 0.950 . S
C529 C527 1.390 1_556 S
C529 C530 1.387 . S
C529 H532 0.950 . S
C530 C529 1.387 . S
C530 C533 1.387 1_455 S
H531 C527 0.950 . S
H532 C529 0.950 . S
C533 C524 1.390 1_556 S
C533 H526 0.950 . S
C533 C530 1.387 1_655 S
C534 C535 1.387 . S
C534 H538 0.950 . S
C534 C543 1.390 . S
C535 C534 1.387 . S
C535 C537 1.387 . S
H536 C543 0.950 . S
C537 C535 1.387 . S
C537 C539 1.390 . S
C537 H541 0.950 1_545 S
H538 C534 0.950 . S
C539 C537 1.390 . S
C539 C540 1.387 . S
C539 H542 0.950 1_545 S
C540 C539 1.387 . S
C540 C543 1.387 . S
H541 C537 0.950 1_565 S
H542 C539 0.950 1_565 S
C543 C534 1.390 . S
C543 H536 0.950 . S
C543 C540 1.387 . S
C225 C11 1.317 . S
C230 C109 1.323 . S
C235 C25 1.322 . S
C240 C67 1.317 . S
C245 C39 1.317 . S
C250 C81 1.323 . S
C255 C53 1.324 . S
C260 C95 1.315 . S
C265 C117 1.206 . S
C270 C221 1.290 . S
C275 C173 1.207 . S
C280 C137 1.291 . S
C285 C145 1.207 . S
C290 C193 1.290 . S
C295 C165 1.291 . S
C300 C201 1.212 . S
C305 C4 1.262 . S
C310 C138 1.351 . S
C315 C18 1.393 . S
C320 C144 1.478 . S
C325 C166 1.351 . S
C330 C32 1.262 . S
C335 C46 1.392 . S
C340 C116 1.478 . S
C345 C60 1.266 . S
C350 C222 1.351 . S
C355 C172 1.479 . S
C360 C74 1.388 . S
C365 C194 1.351 . S
C370 C88 1.265 . S
C375 C200 1.478 . S
C380 C102 1.393 . S
C385 C26 1.255 . S
C390 C124 1.216 . S
C395 C40 1.313 . S
C400 C130 1.256 . S
C405 C152 1.219 . S
C410 C54 1.255 . S
C415 C12 1.313 . S
C420 C158 1.256 . S
C425 C180 1.219 . S
C430 C110 1.256 . S
C435 C186 1.256 . S
C440 C68 1.313 . S
C445 C82 1.254 . S
C450 C208 1.216 . S
C455 C96 1.313 . S
C460 C214 1.255 . S
C465 C5 1.318 . S
C470 C61 1.318 . S
C475 C75 1.301 . S
C480 C19 1.301 . S
C485 C33 1.318 . S
C490 C89 1.318 . S
C495 C103 1.307 . S
C500 C47 1.307 . S
C505 C123 1.547 . S
C510 C179 1.547 . S
C515 C187 1.369 . S
C520 C131 1.369 . S
C525 C207 1.547 . S
C530 C151 1.547 . S
C535 C215 1.364 . S
C540 C159 1.364 . S
